# Generated by pormake.
# Topology lcs-e, (6)-cn, num edge types: 1
# Building blocks:
#     Node 0, Type 0, BuildingBlock: KUMBUR_clean_sbu_1, # of connection points: 6
#     Node 1, Type 0, BuildingBlock: KUMBUR_clean_sbu_1, # of connection points: 6
#     Node 2, Type 0, BuildingBlock: KUMBUR_clean_sbu_1, # of connection points: 6
#     Node 3, Type 0, BuildingBlock: KUMBUR_clean_sbu_1, # of connection points: 6
#     Node 4, Type 0, BuildingBlock: KUMBUR_clean_sbu_1, # of connection points: 6
#     Node 5, Type 0, BuildingBlock: KUMBUR_clean_sbu_1, # of connection points: 6
#     Node 6, Type 0, BuildingBlock: KUMBUR_clean_sbu_1, # of connection points: 6
#     Node 7, Type 0, BuildingBlock: KUMBUR_clean_sbu_1, # of connection points: 6
#     Node 8, Type 0, BuildingBlock: KUMBUR_clean_sbu_1, # of connection points: 6
#     Node 9, Type 0, BuildingBlock: KUMBUR_clean_sbu_1, # of connection points: 6
#     Node 10, Type 0, BuildingBlock: KUMBUR_clean_sbu_1, # of connection points: 6
#     Node 11, Type 0, BuildingBlock: KUMBUR_clean_sbu_1, # of connection points: 6
#     Node 12, Type 0, BuildingBlock: KUMBUR_clean_sbu_1, # of connection points: 6
#     Node 13, Type 0, BuildingBlock: KUMBUR_clean_sbu_1, # of connection points: 6
#     Node 14, Type 0, BuildingBlock: KUMBUR_clean_sbu_1, # of connection points: 6
#     Node 15, Type 0, BuildingBlock: KUMBUR_clean_sbu_1, # of connection points: 6
#     Node 16, Type 0, BuildingBlock: KUMBUR_clean_sbu_1, # of connection points: 6
#     Node 17, Type 0, BuildingBlock: KUMBUR_clean_sbu_1, # of connection points: 6
#     Node 18, Type 0, BuildingBlock: KUMBUR_clean_sbu_1, # of connection points: 6
#     Node 19, Type 0, BuildingBlock: KUMBUR_clean_sbu_1, # of connection points: 6
#     Node 20, Type 0, BuildingBlock: KUMBUR_clean_sbu_1, # of connection points: 6
#     Node 21, Type 0, BuildingBlock: KUMBUR_clean_sbu_1, # of connection points: 6
#     Node 22, Type 0, BuildingBlock: KUMBUR_clean_sbu_1, # of connection points: 6
#     Node 23, Type 0, BuildingBlock: KUMBUR_clean_sbu_1, # of connection points: 6
#     Node 24, Type 0, BuildingBlock: KUMBUR_clean_sbu_1, # of connection points: 6
#     Node 25, Type 0, BuildingBlock: KUMBUR_clean_sbu_1, # of connection points: 6
#     Node 26, Type 0, BuildingBlock: KUMBUR_clean_sbu_1, # of connection points: 6
#     Node 27, Type 0, BuildingBlock: KUMBUR_clean_sbu_1, # of connection points: 6
#     Node 28, Type 0, BuildingBlock: KUMBUR_clean_sbu_1, # of connection points: 6
#     Node 29, Type 0, BuildingBlock: KUMBUR_clean_sbu_1, # of connection points: 6
#     Node 30, Type 0, BuildingBlock: KUMBUR_clean_sbu_1, # of connection points: 6
#     Node 31, Type 0, BuildingBlock: KUMBUR_clean_sbu_1, # of connection points: 6
#     Node 32, Type 0, BuildingBlock: KUMBUR_clean_sbu_1, # of connection points: 6
#     Node 33, Type 0, BuildingBlock: KUMBUR_clean_sbu_1, # of connection points: 6
#     Node 34, Type 0, BuildingBlock: KUMBUR_clean_sbu_1, # of connection points: 6
#     Node 35, Type 0, BuildingBlock: KUMBUR_clean_sbu_1, # of connection points: 6
#     Node 36, Type 0, BuildingBlock: KUMBUR_clean_sbu_1, # of connection points: 6
#     Node 37, Type 0, BuildingBlock: KUMBUR_clean_sbu_1, # of connection points: 6
#     Node 38, Type 0, BuildingBlock: KUMBUR_clean_sbu_1, # of connection points: 6
#     Node 39, Type 0, BuildingBlock: KUMBUR_clean_sbu_1, # of connection points: 6
#     Node 40, Type 0, BuildingBlock: KUMBUR_clean_sbu_1, # of connection points: 6
#     Node 41, Type 0, BuildingBlock: KUMBUR_clean_sbu_1, # of connection points: 6
#     Node 42, Type 0, BuildingBlock: KUMBUR_clean_sbu_1, # of connection points: 6
#     Node 43, Type 0, BuildingBlock: KUMBUR_clean_sbu_1, # of connection points: 6
#     Node 44, Type 0, BuildingBlock: KUMBUR_clean_sbu_1, # of connection points: 6
#     Node 45, Type 0, BuildingBlock: KUMBUR_clean_sbu_1, # of connection points: 6
#     Node 46, Type 0, BuildingBlock: KUMBUR_clean_sbu_1, # of connection points: 6
#     Node 47, Type 0, BuildingBlock: KUMBUR_clean_sbu_1, # of connection points: 6
#     Edge 48, Type (0, 0), BuildingBlock: UVAHIK_clean_linker_0, # of connection points: 2
#     Edge 49, Type (0, 0), BuildingBlock: UVAHIK_clean_linker_0, # of connection points: 2
#     Edge 50, Type (0, 0), BuildingBlock: UVAHIK_clean_linker_0, # of connection points: 2
#     Edge 51, Type (0, 0), BuildingBlock: UVAHIK_clean_linker_0, # of connection points: 2
#     Edge 52, Type (0, 0), BuildingBlock: UVAHIK_clean_linker_0, # of connection points: 2
#     Edge 53, Type (0, 0), BuildingBlock: UVAHIK_clean_linker_0, # of connection points: 2
#     Edge 54, Type (0, 0), BuildingBlock: UVAHIK_clean_linker_0, # of connection points: 2
#     Edge 55, Type (0, 0), BuildingBlock: UVAHIK_clean_linker_0, # of connection points: 2
#     Edge 56, Type (0, 0), BuildingBlock: UVAHIK_clean_linker_0, # of connection points: 2
#     Edge 57, Type (0, 0), BuildingBlock: UVAHIK_clean_linker_0, # of connection points: 2
#     Edge 58, Type (0, 0), BuildingBlock: UVAHIK_clean_linker_0, # of connection points: 2
#     Edge 59, Type (0, 0), BuildingBlock: UVAHIK_clean_linker_0, # of connection points: 2
#     Edge 60, Type (0, 0), BuildingBlock: UVAHIK_clean_linker_0, # of connection points: 2
#     Edge 61, Type (0, 0), BuildingBlock: UVAHIK_clean_linker_0, # of connection points: 2
#     Edge 62, Type (0, 0), BuildingBlock: UVAHIK_clean_linker_0, # of connection points: 2
#     Edge 63, Type (0, 0), BuildingBlock: UVAHIK_clean_linker_0, # of connection points: 2
#     Edge 64, Type (0, 0), BuildingBlock: UVAHIK_clean_linker_0, # of connection points: 2
#     Edge 65, Type (0, 0), BuildingBlock: UVAHIK_clean_linker_0, # of connection points: 2
#     Edge 66, Type (0, 0), BuildingBlock: UVAHIK_clean_linker_0, # of connection points: 2
#     Edge 67, Type (0, 0), BuildingBlock: UVAHIK_clean_linker_0, # of connection points: 2
#     Edge 68, Type (0, 0), BuildingBlock: UVAHIK_clean_linker_0, # of connection points: 2
#     Edge 69, Type (0, 0), BuildingBlock: UVAHIK_clean_linker_0, # of connection points: 2
#     Edge 70, Type (0, 0), BuildingBlock: UVAHIK_clean_linker_0, # of connection points: 2
#     Edge 71, Type (0, 0), BuildingBlock: UVAHIK_clean_linker_0, # of connection points: 2
#     Edge 72, Type (0, 0), BuildingBlock: UVAHIK_clean_linker_0, # of connection points: 2
#     Edge 73, Type (0, 0), BuildingBlock: UVAHIK_clean_linker_0, # of connection points: 2
#     Edge 74, Type (0, 0), BuildingBlock: UVAHIK_clean_linker_0, # of connection points: 2
#     Edge 75, Type (0, 0), BuildingBlock: UVAHIK_clean_linker_0, # of connection points: 2
#     Edge 76, Type (0, 0), BuildingBlock: UVAHIK_clean_linker_0, # of connection points: 2
#     Edge 77, Type (0, 0), BuildingBlock: UVAHIK_clean_linker_0, # of connection points: 2
#     Edge 78, Type (0, 0), BuildingBlock: UVAHIK_clean_linker_0, # of connection points: 2
#     Edge 79, Type (0, 0), BuildingBlock: UVAHIK_clean_linker_0, # of connection points: 2
#     Edge 80, Type (0, 0), BuildingBlock: UVAHIK_clean_linker_0, # of connection points: 2
#     Edge 81, Type (0, 0), BuildingBlock: UVAHIK_clean_linker_0, # of connection points: 2
#     Edge 82, Type (0, 0), BuildingBlock: UVAHIK_clean_linker_0, # of connection points: 2
#     Edge 83, Type (0, 0), BuildingBlock: UVAHIK_clean_linker_0, # of connection points: 2
#     Edge 84, Type (0, 0), BuildingBlock: UVAHIK_clean_linker_0, # of connection points: 2
#     Edge 85, Type (0, 0), BuildingBlock: UVAHIK_clean_linker_0, # of connection points: 2
#     Edge 86, Type (0, 0), BuildingBlock: UVAHIK_clean_linker_0, # of connection points: 2
#     Edge 87, Type (0, 0), BuildingBlock: UVAHIK_clean_linker_0, # of connection points: 2
#     Edge 88, Type (0, 0), BuildingBlock: UVAHIK_clean_linker_0, # of connection points: 2
#     Edge 89, Type (0, 0), BuildingBlock: UVAHIK_clean_linker_0, # of connection points: 2
#     Edge 90, Type (0, 0), BuildingBlock: UVAHIK_clean_linker_0, # of connection points: 2
#     Edge 91, Type (0, 0), BuildingBlock: UVAHIK_clean_linker_0, # of connection points: 2
#     Edge 92, Type (0, 0), BuildingBlock: UVAHIK_clean_linker_0, # of connection points: 2
#     Edge 93, Type (0, 0), BuildingBlock: UVAHIK_clean_linker_0, # of connection points: 2
#     Edge 94, Type (0, 0), BuildingBlock: UVAHIK_clean_linker_0, # of connection points: 2
#     Edge 95, Type (0, 0), BuildingBlock: UVAHIK_clean_linker_0, # of connection points: 2
#     Edge 96, Type (0, 0), BuildingBlock: UVAHIK_clean_linker_0, # of connection points: 2
#     Edge 97, Type (0, 0), BuildingBlock: UVAHIK_clean_linker_0, # of connection points: 2
#     Edge 98, Type (0, 0), BuildingBlock: UVAHIK_clean_linker_0, # of connection points: 2
#     Edge 99, Type (0, 0), BuildingBlock: UVAHIK_clean_linker_0, # of connection points: 2
#     Edge 100, Type (0, 0), BuildingBlock: UVAHIK_clean_linker_0, # of connection points: 2
#     Edge 101, Type (0, 0), BuildingBlock: UVAHIK_clean_linker_0, # of connection points: 2
#     Edge 102, Type (0, 0), BuildingBlock: UVAHIK_clean_linker_0, # of connection points: 2
#     Edge 103, Type (0, 0), BuildingBlock: UVAHIK_clean_linker_0, # of connection points: 2
#     Edge 104, Type (0, 0), BuildingBlock: UVAHIK_clean_linker_0, # of connection points: 2
#     Edge 105, Type (0, 0), BuildingBlock: UVAHIK_clean_linker_0, # of connection points: 2
#     Edge 106, Type (0, 0), BuildingBlock: UVAHIK_clean_linker_0, # of connection points: 2
#     Edge 107, Type (0, 0), BuildingBlock: UVAHIK_clean_linker_0, # of connection points: 2
#     Edge 108, Type (0, 0), BuildingBlock: UVAHIK_clean_linker_0, # of connection points: 2
#     Edge 109, Type (0, 0), BuildingBlock: UVAHIK_clean_linker_0, # of connection points: 2
#     Edge 110, Type (0, 0), BuildingBlock: UVAHIK_clean_linker_0, # of connection points: 2
#     Edge 111, Type (0, 0), BuildingBlock: UVAHIK_clean_linker_0, # of connection points: 2
#     Edge 112, Type (0, 0), BuildingBlock: UVAHIK_clean_linker_0, # of connection points: 2
#     Edge 113, Type (0, 0), BuildingBlock: UVAHIK_clean_linker_0, # of connection points: 2
#     Edge 114, Type (0, 0), BuildingBlock: UVAHIK_clean_linker_0, # of connection points: 2
#     Edge 115, Type (0, 0), BuildingBlock: UVAHIK_clean_linker_0, # of connection points: 2
#     Edge 116, Type (0, 0), BuildingBlock: UVAHIK_clean_linker_0, # of connection points: 2
#     Edge 117, Type (0, 0), BuildingBlock: UVAHIK_clean_linker_0, # of connection points: 2
#     Edge 118, Type (0, 0), BuildingBlock: UVAHIK_clean_linker_0, # of connection points: 2
#     Edge 119, Type (0, 0), BuildingBlock: UVAHIK_clean_linker_0, # of connection points: 2
#     Edge 120, Type (0, 0), BuildingBlock: UVAHIK_clean_linker_0, # of connection points: 2
#     Edge 121, Type (0, 0), BuildingBlock: UVAHIK_clean_linker_0, # of connection points: 2
#     Edge 122, Type (0, 0), BuildingBlock: UVAHIK_clean_linker_0, # of connection points: 2
#     Edge 123, Type (0, 0), BuildingBlock: UVAHIK_clean_linker_0, # of connection points: 2
#     Edge 124, Type (0, 0), BuildingBlock: UVAHIK_clean_linker_0, # of connection points: 2
#     Edge 125, Type (0, 0), BuildingBlock: UVAHIK_clean_linker_0, # of connection points: 2
#     Edge 126, Type (0, 0), BuildingBlock: UVAHIK_clean_linker_0, # of connection points: 2
#     Edge 127, Type (0, 0), BuildingBlock: UVAHIK_clean_linker_0, # of connection points: 2
#     Edge 128, Type (0, 0), BuildingBlock: UVAHIK_clean_linker_0, # of connection points: 2
#     Edge 129, Type (0, 0), BuildingBlock: UVAHIK_clean_linker_0, # of connection points: 2
#     Edge 130, Type (0, 0), BuildingBlock: UVAHIK_clean_linker_0, # of connection points: 2
#     Edge 131, Type (0, 0), BuildingBlock: UVAHIK_clean_linker_0, # of connection points: 2
#     Edge 132, Type (0, 0), BuildingBlock: UVAHIK_clean_linker_0, # of connection points: 2
#     Edge 133, Type (0, 0), BuildingBlock: UVAHIK_clean_linker_0, # of connection points: 2
#     Edge 134, Type (0, 0), BuildingBlock: UVAHIK_clean_linker_0, # of connection points: 2
#     Edge 135, Type (0, 0), BuildingBlock: UVAHIK_clean_linker_0, # of connection points: 2
#     Edge 136, Type (0, 0), BuildingBlock: UVAHIK_clean_linker_0, # of connection points: 2
#     Edge 137, Type (0, 0), BuildingBlock: UVAHIK_clean_linker_0, # of connection points: 2
#     Edge 138, Type (0, 0), BuildingBlock: UVAHIK_clean_linker_0, # of connection points: 2
#     Edge 139, Type (0, 0), BuildingBlock: UVAHIK_clean_linker_0, # of connection points: 2
#     Edge 140, Type (0, 0), BuildingBlock: UVAHIK_clean_linker_0, # of connection points: 2
#     Edge 141, Type (0, 0), BuildingBlock: UVAHIK_clean_linker_0, # of connection points: 2
#     Edge 142, Type (0, 0), BuildingBlock: UVAHIK_clean_linker_0, # of connection points: 2
#     Edge 143, Type (0, 0), BuildingBlock: UVAHIK_clean_linker_0, # of connection points: 2
#     Edge 144, Type (0, 0), BuildingBlock: UVAHIK_clean_linker_0, # of connection points: 2
#     Edge 145, Type (0, 0), BuildingBlock: UVAHIK_clean_linker_0, # of connection points: 2
#     Edge 146, Type (0, 0), BuildingBlock: UVAHIK_clean_linker_0, # of connection points: 2
#     Edge 147, Type (0, 0), BuildingBlock: UVAHIK_clean_linker_0, # of connection points: 2
#     Edge 148, Type (0, 0), BuildingBlock: UVAHIK_clean_linker_0, # of connection points: 2
#     Edge 149, Type (0, 0), BuildingBlock: UVAHIK_clean_linker_0, # of connection points: 2
#     Edge 150, Type (0, 0), BuildingBlock: UVAHIK_clean_linker_0, # of connection points: 2
#     Edge 151, Type (0, 0), BuildingBlock: UVAHIK_clean_linker_0, # of connection points: 2
#     Edge 152, Type (0, 0), BuildingBlock: UVAHIK_clean_linker_0, # of connection points: 2
#     Edge 153, Type (0, 0), BuildingBlock: UVAHIK_clean_linker_0, # of connection points: 2
#     Edge 154, Type (0, 0), BuildingBlock: UVAHIK_clean_linker_0, # of connection points: 2
#     Edge 155, Type (0, 0), BuildingBlock: UVAHIK_clean_linker_0, # of connection points: 2
#     Edge 156, Type (0, 0), BuildingBlock: UVAHIK_clean_linker_0, # of connection points: 2
#     Edge 157, Type (0, 0), BuildingBlock: UVAHIK_clean_linker_0, # of connection points: 2
#     Edge 158, Type (0, 0), BuildingBlock: UVAHIK_clean_linker_0, # of connection points: 2
#     Edge 159, Type (0, 0), BuildingBlock: UVAHIK_clean_linker_0, # of connection points: 2
#     Edge 160, Type (0, 0), BuildingBlock: UVAHIK_clean_linker_0, # of connection points: 2
#     Edge 161, Type (0, 0), BuildingBlock: UVAHIK_clean_linker_0, # of connection points: 2
#     Edge 162, Type (0, 0), BuildingBlock: UVAHIK_clean_linker_0, # of connection points: 2
#     Edge 163, Type (0, 0), BuildingBlock: UVAHIK_clean_linker_0, # of connection points: 2
#     Edge 164, Type (0, 0), BuildingBlock: UVAHIK_clean_linker_0, # of connection points: 2
#     Edge 165, Type (0, 0), BuildingBlock: UVAHIK_clean_linker_0, # of connection points: 2
#     Edge 166, Type (0, 0), BuildingBlock: UVAHIK_clean_linker_0, # of connection points: 2
#     Edge 167, Type (0, 0), BuildingBlock: UVAHIK_clean_linker_0, # of connection points: 2
#     Edge 168, Type (0, 0), BuildingBlock: UVAHIK_clean_linker_0, # of connection points: 2
#     Edge 169, Type (0, 0), BuildingBlock: UVAHIK_clean_linker_0, # of connection points: 2
#     Edge 170, Type (0, 0), BuildingBlock: UVAHIK_clean_linker_0, # of connection points: 2
#     Edge 171, Type (0, 0), BuildingBlock: UVAHIK_clean_linker_0, # of connection points: 2
#     Edge 172, Type (0, 0), BuildingBlock: UVAHIK_clean_linker_0, # of connection points: 2
#     Edge 173, Type (0, 0), BuildingBlock: UVAHIK_clean_linker_0, # of connection points: 2
#     Edge 174, Type (0, 0), BuildingBlock: UVAHIK_clean_linker_0, # of connection points: 2
#     Edge 175, Type (0, 0), BuildingBlock: UVAHIK_clean_linker_0, # of connection points: 2
#     Edge 176, Type (0, 0), BuildingBlock: UVAHIK_clean_linker_0, # of connection points: 2
#     Edge 177, Type (0, 0), BuildingBlock: UVAHIK_clean_linker_0, # of connection points: 2
#     Edge 178, Type (0, 0), BuildingBlock: UVAHIK_clean_linker_0, # of connection points: 2
#     Edge 179, Type (0, 0), BuildingBlock: UVAHIK_clean_linker_0, # of connection points: 2
#     Edge 180, Type (0, 0), BuildingBlock: UVAHIK_clean_linker_0, # of connection points: 2
#     Edge 181, Type (0, 0), BuildingBlock: UVAHIK_clean_linker_0, # of connection points: 2
#     Edge 182, Type (0, 0), BuildingBlock: UVAHIK_clean_linker_0, # of connection points: 2
#     Edge 183, Type (0, 0), BuildingBlock: UVAHIK_clean_linker_0, # of connection points: 2
#     Edge 184, Type (0, 0), BuildingBlock: UVAHIK_clean_linker_0, # of connection points: 2
#     Edge 185, Type (0, 0), BuildingBlock: UVAHIK_clean_linker_0, # of connection points: 2
#     Edge 186, Type (0, 0), BuildingBlock: UVAHIK_clean_linker_0, # of connection points: 2
#     Edge 187, Type (0, 0), BuildingBlock: UVAHIK_clean_linker_0, # of connection points: 2
#     Edge 188, Type (0, 0), BuildingBlock: UVAHIK_clean_linker_0, # of connection points: 2
#     Edge 189, Type (0, 0), BuildingBlock: UVAHIK_clean_linker_0, # of connection points: 2
#     Edge 190, Type (0, 0), BuildingBlock: UVAHIK_clean_linker_0, # of connection points: 2
#     Edge 191, Type (0, 0), BuildingBlock: UVAHIK_clean_linker_0, # of connection points: 2
# Relax obj value: 0.297
# Max RMSD: 0.253
# Mean RMSD: 0.251
data_MOF--net-lcs-e--node1-KUMBUR_clean_sbu_1--edge1-UVAHIK_clean_linker_0
_symmetry_space_group_name_H-M    P1
_symmetry_Int_Tables_number       1
_symmetry_cell_setting            triclinic
loop_
_symmetry_equiv_pos_as_xyz
'x, y, z'
_cell_length_a     81.198588
_cell_length_b     81.248693
_cell_length_c     81.484413
_cell_angle_alpha  90.124663
_cell_angle_beta   89.869961
_cell_angle_gamma 89.856711
loop_
_atom_site_label
_atom_site_type_symbol
_atom_site_fract_x
_atom_site_fract_y
_atom_site_fract_z
_atom_type_partial_charge
Tb0 Tb 0.04467 0.38317 0.26307 0.0
C1 C 0.98614 0.42343 0.28883 0.0
N2 N 1.00068 0.41973 0.2962 0.0
C3 C 1.00181 0.44677 0.30806 0.0
C4 C 0.97876 0.439 0.29099 0.0
C5 C 1.00863 0.43114 0.30569 0.0
C6 C 0.98675 0.45068 0.30081 0.0
C7 C 0.96445 0.41557 0.26989 0.0
C8 C 0.97912 0.41182 0.27826 0.0
C9 C 0.95677 0.4309 0.27247 0.0
C10 C 0.96392 0.44258 0.28295 0.0
Tb11 Tb 1.00819 0.39289 0.29311 0.0
N12 N 0.98705 0.39717 0.27572 0.0
C13 C 0.95802 0.40381 0.25908 0.0
C14 C 0.98088 0.38565 0.2653 0.0
C15 C 0.96628 0.38884 0.25674 0.0
H16 H 0.01995 0.42823 0.31192 0.0
H17 H 0.9613 0.37969 0.24848 0.0
H18 H 0.03211 0.35568 0.2356 0.0
H19 H 0.10645 0.39333 0.28592 0.0
H20 H 0.98698 0.37392 0.26385 0.0
H21 H 0.94672 0.4062 0.25245 0.0
H22 H 0.07888 0.40185 0.27685 0.0
H23 H 1.0081 0.45573 0.31563 0.0
H24 H 0.94541 0.43395 0.26622 0.0
H25 H 0.958 0.45444 0.28454 0.0
H26 H 0.04043 0.32792 0.22633 0.0
H27 H 0.98151 0.46282 0.3027 0.0
H28 H 0.11586 0.36464 0.28174 0.0
N29 N 0.05252 0.35853 0.25168 0.0
C30 C 0.06723 0.35234 0.25645 0.0
C31 C 0.04802 0.33458 0.23498 0.0
C32 C 0.07256 0.33658 0.25151 0.0
C33 C 0.0433 0.35029 0.24035 0.0
C34 C 0.06253 0.3275 0.24091 0.0
N35 N 0.07201 0.3779 0.26851 0.0
C36 C 0.08252 0.38916 0.27528 0.0
C37 C 0.09322 0.35708 0.26996 0.0
C38 C 0.07739 0.36243 0.26531 0.0
C39 C 0.1036 0.36824 0.27791 0.0
C40 C 0.09832 0.38444 0.28029 0.0
H41 H 0.06615 0.31534 0.23676 0.0
H42 H 0.09221 0.31854 0.25338 0.0
H43 H 0.11031 0.33652 0.26974 0.0
O44 O 0.05989 0.39428 0.24643 0.0
O45 O 0.04775 0.36764 0.28455 0.0
O46 O 0.02756 0.37706 0.30287 0.0
O47 O 0.0343 0.38916 0.23981 0.0
O48 O 0.05061 0.39955 0.28355 0.0
O49 O 0.03061 0.4023 0.30401 0.0
O50 O 0.98728 0.38193 0.30379 0.0
O51 O 0.01241 0.40958 0.27145 0.0
O52 O 0.03983 0.41019 0.26711 0.0
O53 O 1.00252 0.3995 0.31742 0.0
O54 O 1.00913 0.36584 0.28674 0.0
O55 O 0.0224 0.36649 0.26211 0.0
C56 C 0.04078 0.36834 0.2991 0.0
C57 C 0.05515 0.3936 0.21866 0.0
C58 C 0.07764 0.40192 0.2008 0.0
C59 C 0.07364 0.38908 0.18995 0.0
C60 C 0.05127 0.38065 0.20799 0.0
C61 C 0.06036 0.37862 0.19347 0.0
C62 C 0.06782 0.40449 0.21461 0.0
C63 C 0.04539 0.40458 0.29804 0.0
C64 C 0.0485 0.39548 0.23524 0.0
C65 C 0.08796 0.33073 0.2568 0.0
C66 C 0.09828 0.34097 0.26609 0.0
C67 C 0.0258 0.41835 0.26851 0.0
C68 C 0.97896 0.3886 0.33149 0.0
C69 C 0.96761 0.3707 0.35207 0.0
C70 C 0.96385 0.38438 0.36196 0.0
C71 C 0.97538 0.40235 0.34135 0.0
C72 C 0.97479 0.37285 0.33674 0.0
C73 C 0.9676 0.40022 0.3565 0.0
C74 C 0.01564 0.35766 0.27415 0.0
C75 C 0.9897 0.39007 0.31736 0.0
H76 H 0.08109 0.38677 0.17914 0.0
H77 H 0.0416 0.37201 0.21099 0.0
H78 H 0.05753 0.36856 0.18524 0.0
H79 H 0.07078 0.41451 0.22294 0.0
H80 H 0.95859 0.38274 0.37408 0.0
H81 H 0.97902 0.41459 0.33755 0.0
H82 H 0.9783 0.36217 0.32949 0.0
H83 H 0.96505 0.41076 0.36425 0.0
Tb84 Tb 0.89063 0.79316 0.50962 0.0
C85 C 0.84897 0.73664 0.53891 0.0
N86 N 0.8533 0.7516 0.54503 0.0
C87 C 0.82687 0.75442 0.55793 0.0
C88 C 0.83345 0.72979 0.54246 0.0
C89 C 0.84245 0.76071 0.55418 0.0
C90 C 0.82243 0.73882 0.55223 0.0
C91 C 0.85535 0.71359 0.52092 0.0
C92 C 0.8598 0.72867 0.52813 0.0
C93 C 0.84015 0.70638 0.52499 0.0
C94 C 0.82923 0.71446 0.5357 0.0
Tb95 Tb 0.88015 0.75795 0.5403 0.0
N96 N 0.8743 0.73617 0.52413 0.0
C97 C 0.86625 0.70631 0.5097 0.0
C98 C 0.88501 0.72918 0.51329 0.0
C99 C 0.88108 0.71417 0.50581 0.0
H100 H 0.84591 0.7725 0.55917 0.0
H101 H 0.88958 0.70855 0.49721 0.0
H102 H 0.92389 0.78568 0.48782 0.0
H103 H 0.86964 0.85324 0.53126 0.0
H104 H 0.89665 0.73498 0.51065 0.0
H105 H 0.86331 0.69467 0.5039 0.0
H106 H 0.8659 0.82611 0.51829 0.0
H107 H 0.81838 0.76153 0.56537 0.0
H108 H 0.83658 0.69469 0.51968 0.0
H109 H 0.81741 0.70891 0.5384 0.0
H110 H 0.9525 0.79613 0.48607 0.0
H111 H 0.81035 0.734 0.55519 0.0
H112 H 0.89764 0.86407 0.53619 0.0
N113 N 0.9163 0.80366 0.50511 0.0
C114 C 0.91985 0.8183 0.51216 0.0
C115 C 0.94354 0.80232 0.49378 0.0
C116 C 0.93581 0.82498 0.51146 0.0
C117 C 0.92747 0.79622 0.49503 0.0
C118 C 0.94788 0.81652 0.50246 0.0
N119 N 0.89162 0.82057 0.51754 0.0
C120 C 0.87824 0.83032 0.52087 0.0
C121 C 0.90973 0.84278 0.52561 0.0
C122 C 0.90699 0.82703 0.51889 0.0
C123 C 0.89611 0.85197 0.5308 0.0
C124 C 0.88028 0.84588 0.52803 0.0
H125 H 0.9603 0.82126 0.50148 0.0
H126 H 0.95115 0.84542 0.51901 0.0
H127 H 0.92828 0.86099 0.53165 0.0
O128 O 0.89161 0.80818 0.48911 0.0
O129 O 0.90774 0.79242 0.5303 0.0
O130 O 0.89443 0.77799 0.55101 0.0
O131 O 0.8841 0.78263 0.48673 0.0
O132 O 0.87088 0.79877 0.52715 0.0
O133 O 0.87286 0.78187 0.55013 0.0
O134 O 0.89331 0.73851 0.55121 0.0
O135 O 0.86304 0.76105 0.51857 0.0
O136 O 0.86303 0.78815 0.51135 0.0
O137 O 0.87311 0.75026 0.56378 0.0
O138 O 0.90684 0.7567 0.53255 0.0
O139 O 0.90689 0.77042 0.50809 0.0
C140 C 0.90586 0.78809 0.54567 0.0
C141 C 0.8733 0.80249 0.46774 0.0
C142 C 0.85508 0.82454 0.45823 0.0
C143 C 0.8544 0.8168 0.44277 0.0
C144 C 0.87242 0.79504 0.45226 0.0
C145 C 0.86287 0.80208 0.43991 0.0
C146 C 0.86422 0.81699 0.47081 0.0
C147 C 0.86808 0.79538 0.54272 0.0
C148 C 0.88598 0.79684 0.47933 0.0
C149 C 0.9389 0.84017 0.5191 0.0
C150 C 0.92587 0.84903 0.52627 0.0
C151 C 0.85459 0.77428 0.51393 0.0
C152 C 0.8963 0.74382 0.57929 0.0
C153 C 0.9172 0.73403 0.598 0.0
C154 C 0.91755 0.74955 0.60565 0.0
C155 C 0.8965 0.75927 0.58715 0.0
C156 C 0.90673 0.73136 0.58467 0.0
C157 C 0.90718 0.76211 0.60024 0.0
C158 C 0.9152 0.76236 0.51973 0.0
C159 C 0.88572 0.7406 0.56516 0.0
H160 H 0.84789 0.82243 0.43264 0.0
H161 H 0.87965 0.78413 0.44954 0.0
H162 H 0.86255 0.79645 0.42786 0.0
H163 H 0.86495 0.82285 0.48275 0.0
H164 H 0.92537 0.75179 0.61618 0.0
H165 H 0.88856 0.7692 0.58313 0.0
H166 H 0.90652 0.71945 0.57861 0.0
H167 H 0.90732 0.774 0.60625 0.0
Tb168 Tb 0.51056 0.63291 0.79582 0.0
C169 C 0.48633 0.67191 0.73382 0.0
N170 N 0.47887 0.67005 0.74866 0.0
C171 C 0.46983 0.69823 0.74801 0.0
C172 C 0.4859 0.68715 0.72555 0.0
C173 C 0.47063 0.68295 0.75581 0.0
C174 C 0.47739 0.70032 0.73277 0.0
C175 C 0.50455 0.66076 0.71291 0.0
C176 C 0.49553 0.6588 0.72756 0.0
C177 C 0.50379 0.67579 0.70441 0.0
C178 C 0.49447 0.68892 0.7107 0.0
Tb179 Tb 0.47896 0.64363 0.75823 0.0
N180 N 0.49628 0.64447 0.73628 0.0
C181 C 0.51428 0.64765 0.70738 0.0
C182 C 0.50572 0.63164 0.73091 0.0
C183 C 0.51492 0.63308 0.71644 0.0
H184 H 0.46437 0.68165 0.7674 0.0
H185 H 0.52242 0.62288 0.71221 0.0
H186 H 0.5433 0.61315 0.78087 0.0
H187 H 0.4812 0.62829 0.85564 0.0
H188 H 0.50611 0.62021 0.73751 0.0
H189 H 0.52143 0.64868 0.69619 0.0
H190 H 0.48869 0.64203 0.83003 0.0
H191 H 0.46332 0.70837 0.75374 0.0
H192 H 0.51058 0.67748 0.69309 0.0
H193 H 0.49427 0.70052 0.70416 0.0
H194 H 0.55844 0.58743 0.78697 0.0
H195 H 0.47686 0.71223 0.72684 0.0
H196 H 0.49188 0.60038 0.86142 0.0
N197 N 0.52561 0.60959 0.79983 0.0
C198 C 0.52149 0.60084 0.81341 0.0
C199 C 0.54791 0.59093 0.79436 0.0
C200 C 0.52956 0.58593 0.81717 0.0
C201 C 0.53931 0.60548 0.79094 0.0
C202 C 0.54267 0.58084 0.80719 0.0
N203 N 0.50383 0.62268 0.82117 0.0
C204 C 0.49384 0.63024 0.83244 0.0
C205 C 0.50607 0.59902 0.83891 0.0
C206 C 0.51017 0.60752 0.82436 0.0
C207 C 0.49537 0.60652 0.85015 0.0
C208 C 0.48939 0.6223 0.84698 0.0
H209 H 0.54927 0.56952 0.80973 0.0
H210 H 0.53072 0.56539 0.83408 0.0
H211 H 0.50991 0.57673 0.85297 0.0
O212 O 0.52209 0.64641 0.81412 0.0
O213 O 0.48592 0.62234 0.80085 0.0
O214 O 0.47101 0.62414 0.77593 0.0
O215 O 0.53362 0.64262 0.78977 0.0
O216 O 0.49012 0.6456 0.78677 0.0
O217 O 0.4677 0.65586 0.77952 0.0
O218 O 0.46659 0.63433 0.73757 0.0
O219 O 0.50119 0.66063 0.76132 0.0
O220 O 0.50985 0.6601 0.78817 0.0
O221 O 0.45483 0.65139 0.75405 0.0
O222 O 0.48689 0.61643 0.76061 0.0
O223 O 0.51194 0.61519 0.7745 0.0
C224 C 0.47333 0.61836 0.79112 0.0
C225 C 0.55097 0.64952 0.81252 0.0
C226 C 0.56755 0.66104 0.83453 0.0
C227 C 0.58154 0.65315 0.82799 0.0
C228 C 0.56494 0.6416 0.80607 0.0
C229 C 0.58019 0.64349 0.8138 0.0
C230 C 0.55245 0.65936 0.8265 0.0
C231 C 0.47768 0.65459 0.79151 0.0
C232 C 0.53486 0.64921 0.80453 0.0
C233 C 0.52488 0.57703 0.83119 0.0
C234 C 0.51309 0.58353 0.84198 0.0
C235 C 0.50718 0.6686 0.77432 0.0
C236 C 0.43858 0.6301 0.74406 0.0
C237 C 0.42513 0.60443 0.7374 0.0
C238 C 0.41289 0.60781 0.74919 0.0
C239 C 0.42607 0.6336 0.75559 0.0
C240 C 0.43792 0.61557 0.73494 0.0
C241 C 0.41336 0.6224 0.75819 0.0
C242 C 0.49948 0.6075 0.76689 0.0
C243 C 0.45272 0.6411 0.74209 0.0
H244 H 0.59339 0.65421 0.83396 0.0
H245 H 0.56415 0.63418 0.79505 0.0
H246 H 0.59099 0.63743 0.80882 0.0
H247 H 0.54173 0.66595 0.83106 0.0
H248 H 0.4026 0.59953 0.75093 0.0
H249 H 0.42617 0.64486 0.76273 0.0
H250 H 0.44728 0.61292 0.72578 0.0
H251 H 0.40377 0.62512 0.76705 0.0
Tb252 Tb 0.62958 0.22555 1.0092 0.0
C253 C 0.67353 0.28106 0.03719 0.0
N254 N 0.66925 0.26621 0.04358 0.0
C255 C 0.69613 0.2633 0.05545 0.0
C256 C 0.68926 0.28777 0.04002 0.0
C257 C 0.68035 0.25717 0.05245 0.0
C258 C 0.70055 0.27874 0.04938 0.0
C259 C 0.66673 0.30406 0.0194 0.0
C260 C 0.6624 0.28907 0.02684 0.0
C261 C 0.68217 0.3111 0.02273 0.0
C262 C 0.69341 0.30296 0.03297 0.0
Tb263 Tb 0.64217 0.26002 0.03981 0.0
N264 N 0.64771 0.28169 0.02346 0.0
C265 C 0.65544 0.31143 1.0087 0.0
C266 C 0.63658 0.28883 0.01322 0.0
C267 C 0.64035 0.30377 1.00557 0.0
H268 H 0.67699 0.24555 0.05785 0.0
H269 H 0.63153 0.30948 0.99741 0.0
H270 H 0.59641 0.23559 0.98814 0.0
H271 H 0.64716 0.16386 0.0286 0.0
H272 H 0.62475 0.28318 1.01118 0.0
H273 H 0.65828 0.32301 1.00277 0.0
H274 H 0.65229 0.19093 0.01609 0.0
H275 H 0.70481 0.25621 0.06262 0.0
H276 H 0.68567 0.32269 0.01721 0.0
H277 H 0.7054 0.30837 0.0351 0.0
H278 H 0.56721 0.22691 0.98684 0.0
H279 H 0.71279 0.28344 0.05175 0.0
H280 H 0.61859 0.15473 0.03403 0.0
N281 N 0.60322 0.21684 1.00489 0.0
C282 C 0.59887 0.20235 1.01173 0.0
C283 C 0.57591 0.22005 0.99421 0.0
C284 C 0.5825 0.1967 1.0113 0.0
C285 C 0.59236 0.2251 0.99517 0.0
C286 C 0.57083 0.20605 1.00276 0.0
N287 N 0.627 0.19811 0.01624 0.0
C288 C 0.6398 0.18749 0.019 0.0
C289 C 0.60767 0.17699 0.02433 0.0
C290 C 0.61127 0.19265 0.0179 0.0
C291 C 0.62079 0.16682 0.0289 0.0
C292 C 0.63692 0.17194 0.02584 0.0
H293 H 0.5581 0.20214 1.00201 0.0
H294 H 0.56603 0.17715 0.01882 0.0
H295 H 0.58811 0.1599 0.03048 0.0
O296 O 0.62834 0.21105 0.98818 0.0
O297 O 0.614 0.22618 0.03107 0.0
O298 O 0.62947 0.23951 0.05101 0.0
O299 O 0.63518 0.23688 0.9866 0.0
O300 O 0.64992 0.21838 0.02571 0.0
O301 O 0.65105 0.23585 0.04848 0.0
O302 O 0.62938 0.27958 0.0509 0.0
O303 O 0.65652 0.25734 0.01637 0.0
O304 O 0.6571 0.23024 1.00981 0.0
O305 O 0.64998 0.26806 0.06294 0.0
O306 O 0.6149 0.26117 0.03399 0.0
O307 O 0.61423 0.24888 1.00889 0.0
C308 C 0.61749 0.22981 0.04633 0.0
C309 C 0.64745 0.21807 0.96774 0.0
C310 C 0.66838 0.19834 0.95893 0.0
C311 C 0.67141 0.20804 0.94499 0.0
C312 C 0.65053 0.22752 0.95371 0.0
C313 C 0.66253 0.22254 0.94243 0.0
C314 C 0.65652 0.20352 0.97037 0.0
C315 C 0.65474 0.22196 0.04082 0.0
C316 C 0.6339 0.22279 0.97881 0.0
C317 C 0.57859 0.18161 0.01871 0.0
C318 C 0.59118 0.17179 0.02532 0.0
C319 C 0.66524 0.2443 1.01184 0.0
C320 C 0.62732 0.27529 0.07912 0.0
C321 C 0.60515 0.28491 0.0965 0.0
C322 C 0.6064 0.27049 0.10594 0.0
C323 C 0.62861 0.2609 0.08863 0.0
C324 C 0.61559 0.28717 0.08308 0.0
C325 C 0.6182 0.25859 0.10204 0.0
C326 C 0.60614 0.25629 0.02112 0.0
C327 C 0.63748 0.27786 0.06457 0.0
H328 H 0.68028 0.20413 0.93582 0.0
H329 H 0.64347 0.23859 0.95135 0.0
H330 H 0.66472 0.22978 0.93152 0.0
H331 H 0.65418 0.19601 0.98111 0.0
H332 H 0.59874 0.26872 0.11669 0.0
H333 H 0.63755 0.25141 0.08569 0.0
H334 H 0.61468 0.2983 0.0758 0.0
H335 H 0.6194 0.24765 0.10948 0.0
Tb336 Tb 0.04564 0.64191 0.26553 0.0
C337 C 0.98709 0.60295 0.23529 0.0
N338 N 1.00285 0.60529 0.23023 0.0
C339 C 1.00367 0.57818 0.21862 0.0
C340 C 0.9789 0.58803 0.23205 0.0
C341 C 1.01132 0.59317 0.22214 0.0
C342 C 0.98735 0.57565 0.22345 0.0
C343 C 0.96355 0.61281 0.25089 0.0
C344 C 0.9795 0.61528 0.24458 0.0
C345 C 0.95514 0.59813 0.24728 0.0
C346 C 0.96277 0.58581 0.23785 0.0
Tb347 Tb 1.01174 0.63152 0.23327 0.0
N348 N 0.98797 0.62943 0.24779 0.0
C349 C 0.95658 0.62513 0.26076 0.0
C350 C 0.9813 0.64144 0.25745 0.0
C351 C 0.96554 0.63941 0.26415 0.0
H352 H 0.02377 0.59519 0.21795 0.0
H353 H 0.96023 0.64896 0.2718 0.0
H354 H 0.03466 0.67434 0.28815 0.0
H355 H 0.10751 0.62637 0.24542 0.0
H356 H 0.98787 0.65265 0.25989 0.0
H357 H 0.94435 0.62369 0.26589 0.0
H358 H 0.08028 0.62023 0.25717 0.0
H359 H 1.01032 0.56865 0.21206 0.0
H360 H 0.94279 0.5961 0.25189 0.0
H361 H 0.95621 0.57447 0.23539 0.0
H362 H 0.04299 0.70351 0.29081 0.0
H363 H 0.98147 0.564 0.2207 0.0
H364 H 0.11645 0.65527 0.242 0.0
N365 N 0.05316 0.66863 0.27053 0.0
C366 C 0.06787 0.67338 0.26425 0.0
C367 C 0.04986 0.69528 0.28288 0.0
C368 C 0.07329 0.68979 0.26543 0.0
C369 C 0.04499 0.67884 0.28111 0.0
C370 C 0.06372 0.70096 0.27444 0.0
N371 N 0.07307 0.64543 0.25913 0.0
C372 C 0.08372 0.63291 0.25534 0.0
C373 C 0.09392 0.66541 0.2521 0.0
C374 C 0.07824 0.66131 0.25825 0.0
C375 C 0.10434 0.65267 0.24694 0.0
C376 C 0.09933 0.63634 0.24887 0.0
H377 H 0.06747 0.71368 0.27581 0.0
H378 H 0.09276 0.70681 0.25895 0.0
H379 H 0.11068 0.68547 0.2468 0.0
O380 O 0.0613 0.64207 0.28566 0.0
O381 O 0.05153 0.65152 0.24116 0.0
O382 O 0.02722 0.65193 0.22631 0.0
O383 O 0.03549 0.6357 0.28861 0.0
O384 O 0.05207 0.62089 0.24978 0.0
O385 O 0.03607 0.62202 0.22606 0.0
O386 O 0.99187 0.63893 0.21846 0.0
O387 O 0.01325 0.61408 0.25482 0.0
O388 O 0.03949 0.61461 0.2652 0.0
O389 O 0.01192 0.62469 0.20851 0.0
O390 O 1.01102 0.65864 0.24022 0.0
O391 O 0.02313 0.65841 0.26543 0.0
C392 C 0.04273 0.6556 0.22838 0.0
C393 C 0.05504 0.62364 0.30696 0.0
C394 C 0.07638 0.60485 0.31682 0.0
C395 C 0.06718 0.60253 0.3313 0.0
C396 C 0.0461 0.62117 0.32146 0.0
C397 C 0.05208 0.61052 0.33349 0.0
C398 C 0.06995 0.6151 0.30452 0.0
C399 C 0.04922 0.61727 0.23421 0.0
C400 C 0.04996 0.6368 0.29566 0.0
C401 C 0.08852 0.69418 0.25851 0.0
C402 C 0.09877 0.68201 0.2517 0.0
C403 C 0.0259 0.60613 0.26146 0.0
C404 C 1.00045 0.64484 0.19136 0.0
C405 C 0.98951 0.66782 0.17571 0.0
C406 C 1.00318 0.66691 0.1651 0.0
C407 C 0.0137 0.64366 0.18024 0.0
C408 C 0.98839 0.65694 0.18896 0.0
C409 C 0.01513 0.6548 0.16733 0.0
C410 C 0.01641 0.667 0.25325 0.0
C411 C 0.99887 0.63329 0.20517 0.0
H412 H 0.07189 0.59499 0.34118 0.0
H413 H 0.03475 0.62786 0.32369 0.0
H414 H 0.04524 0.60886 0.34478 0.0
H415 H 0.07686 0.61688 0.29327 0.0
H416 H 1.00412 0.67491 0.15452 0.0
H417 H 0.02292 0.63409 0.18141 0.0
H418 H 0.97781 0.65757 0.19709 0.0
H419 H 0.02527 0.65371 0.15876 0.0
Tb420 Tb 0.62961 0.79376 0.51911 0.0
C421 C 0.66929 0.73812 0.48391 0.0
N422 N 0.66435 0.75312 0.4784 0.0
C423 C 0.68954 0.75606 0.46327 0.0
C424 C 0.68454 0.73136 0.47902 0.0
C425 C 0.67426 0.76222 0.46831 0.0
C426 C 0.69465 0.74051 0.46851 0.0
C427 C 0.66434 0.71464 0.50161 0.0
C428 C 0.65935 0.7299 0.49521 0.0
C429 C 0.67926 0.70756 0.49628 0.0
C430 C 0.68934 0.71592 0.48506 0.0
Tb431 Tb 0.63818 0.75985 0.4859 0.0
N432 N 0.6452 0.73733 0.50049 0.0
C433 C 0.65426 0.70705 0.51332 0.0
C434 C 0.63529 0.73006 0.51182 0.0
C435 C 0.63972 0.71482 0.51848 0.0
H436 H 0.67028 0.77397 0.46362 0.0
H437 H 0.63186 0.70897 0.52747 0.0
H438 H 0.59502 0.7882 0.53941 0.0
H439 H 0.65623 0.85306 0.50254 0.0
H440 H 0.62388 0.73586 0.51549 0.0
H441 H 0.65763 0.69525 0.51852 0.0
H442 H 0.65718 0.82495 0.5139 0.0
H443 H 0.69729 0.76322 0.45516 0.0
H444 H 0.68325 0.69575 0.50099 0.0
H445 H 0.70095 0.71045 0.48134 0.0
H446 H 0.5671 0.80066 0.54013 0.0
H447 H 0.70649 0.73577 0.46452 0.0
H448 H 0.6294 0.86636 0.49673 0.0
N449 N 0.6048 0.80636 0.52362 0.0
C450 C 0.60264 0.8215 0.51713 0.0
C451 C 0.5769 0.80653 0.5333 0.0
C452 C 0.58718 0.82935 0.51734 0.0
C453 C 0.59257 0.7993 0.53262 0.0
C454 C 0.57406 0.82143 0.5252 0.0
N455 N 0.63111 0.82164 0.51312 0.0
C456 C 0.64536 0.83045 0.51116 0.0
C457 C 0.61519 0.84562 0.50543 0.0
C458 C 0.61639 0.82941 0.5114 0.0
C459 C 0.62973 0.85394 0.50152 0.0
C460 C 0.64489 0.84647 0.50483 0.0
H461 H 0.56195 0.82704 0.52575 0.0
H462 H 0.57376 0.85122 0.51 0.0
H463 H 0.59836 0.8655 0.49941 0.0
O464 O 0.62861 0.80691 0.54099 0.0
O465 O 0.6113 0.79392 0.49963 0.0
O466 O 0.62423 0.78112 0.47763 0.0
O467 O 0.63741 0.78171 0.54075 0.0
O468 O 0.64842 0.79987 0.50081 0.0
O469 O 0.64598 0.78389 0.47717 0.0
O470 O 0.62413 0.74083 0.47534 0.0
O471 O 0.65704 0.76165 0.50635 0.0
O472 O 0.65699 0.78815 0.51606 0.0
O473 O 0.64136 0.75501 0.46087 0.0
O474 O 0.61209 0.75853 0.49513 0.0
O475 O 0.61219 0.77183 0.52004 0.0
C476 C 0.61302 0.79089 0.48397 0.0
C477 C 0.65047 0.80101 0.55877 0.0
C478 C 0.66911 0.82304 0.56737 0.0
C479 C 0.67682 0.812 0.57816 0.0
C480 C 0.65821 0.79027 0.56976 0.0
C481 C 0.67137 0.79574 0.57934 0.0
C482 C 0.65606 0.81742 0.55761 0.0
C483 C 0.65135 0.79678 0.48521 0.0
C484 C 0.63606 0.79542 0.54922 0.0
C485 C 0.58559 0.84504 0.51029 0.0
C486 C 0.59961 0.85316 0.50427 0.0
C487 C 0.66539 0.77452 0.51207 0.0
C488 C 0.63372 0.72905 0.45041 0.0
C489 C 0.62219 0.7118 0.42913 0.0
C490 C 0.63799 0.70572 0.42545 0.0
C491 C 0.64959 0.72336 0.44648 0.0
C492 C 0.62014 0.72291 0.44204 0.0
C493 C 0.65163 0.71143 0.43422 0.0
C494 C 0.60399 0.76365 0.50836 0.0
C495 C 0.63064 0.74324 0.46094 0.0
H496 H 0.68676 0.81607 0.58602 0.0
H497 H 0.65398 0.7777 0.57105 0.0
H498 H 0.67721 0.78741 0.58789 0.0
H499 H 0.65019 0.82597 0.54925 0.0
H500 H 0.63986 0.69726 0.41532 0.0
H501 H 0.66033 0.72844 0.45238 0.0
H502 H 0.60795 0.72773 0.44481 0.0
H503 H 0.66386 0.70715 0.43104 0.0
Tb504 Tb 0.47967 0.38103 0.76958 0.0
C505 C 0.53497 0.42171 0.73679 0.0
N506 N 0.51983 0.41767 0.73101 0.0
C507 C 0.51736 0.44407 0.71812 0.0
C508 C 0.54203 0.4371 0.73321 0.0
C509 C 0.51085 0.42863 0.72194 0.0
C510 C 0.53307 0.44827 0.72364 0.0
C511 C 0.55844 0.41463 0.7538 0.0
C512 C 0.54302 0.4106 0.74709 0.0
C513 C 0.56584 0.42972 0.74972 0.0
C514 C 0.55765 0.44093 0.73949 0.0
Tb515 Tb 0.51246 0.39118 0.73612 0.0
N516 N 0.53533 0.39621 0.75109 0.0
C517 C 0.56587 0.40342 0.76454 0.0
C518 C 0.54244 0.38526 0.76152 0.0
C519 C 0.5578 0.38874 0.76847 0.0
H520 H 0.49889 0.42536 0.7172 0.0
H521 H 0.5635 0.38003 0.77673 0.0
H522 H 0.48812 0.34694 0.78987 0.0
H523 H 0.418 0.40357 0.75551 0.0
H524 H 0.53647 0.37376 0.76429 0.0
H525 H 0.57776 0.40603 0.76993 0.0
H526 H 0.44626 0.40628 0.76628 0.0
H527 H 0.51031 0.45265 0.71078 0.0
H528 H 0.57779 0.43296 0.75464 0.0
H529 H 0.56339 0.45262 0.73672 0.0
H530 H 0.47749 0.31837 0.79103 0.0
H531 H 0.53808 0.46024 0.72061 0.0
H532 H 0.40659 0.37598 0.74944 0.0
N533 N 0.46902 0.35542 0.77436 0.0
C534 C 0.45388 0.35226 0.76826 0.0
C535 C 0.47087 0.32771 0.78424 0.0
C536 C 0.44712 0.33634 0.76864 0.0
C537 C 0.47703 0.34377 0.78334 0.0
C538 C 0.45607 0.32383 0.77639 0.0
N539 N 0.45155 0.38064 0.76461 0.0
C540 C 0.44164 0.39421 0.76322 0.0
C541 C 0.42858 0.36318 0.75735 0.0
C542 C 0.44483 0.36544 0.76288 0.0
C543 C 0.41911 0.37713 0.75388 0.0
C544 C 0.42551 0.39271 0.75731 0.0
H545 H 0.45131 0.31141 0.77708 0.0
H546 H 0.42607 0.32149 0.76176 0.0
H547 H 0.40981 0.34507 0.75165 0.0
O548 O 0.46705 0.37938 0.79167 0.0
O549 O 0.47877 0.36395 0.74888 0.0
O550 O 0.49114 0.37789 0.72741 0.0
O551 O 0.49219 0.38846 0.79112 0.0
O552 O 0.47195 0.40024 0.75242 0.0
O553 O 0.48808 0.39977 0.72869 0.0
O554 O 0.53133 0.37855 0.72318 0.0
O555 O 0.5107 0.40932 0.75718 0.0
O556 O 0.48439 0.40882 0.76718 0.0
O557 O 0.51573 0.39692 0.71133 0.0
O558 O 0.5139 0.36432 0.74341 0.0
O559 O 0.50209 0.36408 0.76894 0.0
C560 C 0.48163 0.36635 0.73328 0.0
C561 C 0.47339 0.39953 0.81105 0.0
C562 C 0.45154 0.41827 0.82023 0.0
C563 C 0.46021 0.42057 0.83502 0.0
C564 C 0.4818 0.40212 0.82579 0.0
C565 C 0.4753 0.41272 0.83764 0.0
C566 C 0.45849 0.40799 0.80814 0.0
C567 C 0.47482 0.40405 0.73696 0.0
C568 C 0.47886 0.38624 0.79999 0.0
C569 C 0.43141 0.3337 0.76195 0.0
C570 C 0.42216 0.34713 0.7562 0.0
C571 C 0.49773 0.41753 0.76289 0.0
C572 C 0.53602 0.384 0.69412 0.0
C573 C 0.55046 0.36593 0.67543 0.0
C574 C 0.54823 0.37736 0.66272 0.0
C575 C 0.53382 0.39544 0.68137 0.0
C576 C 0.54453 0.3693 0.69114 0.0
C577 C 0.53999 0.39212 0.66573 0.0
C578 C 0.50923 0.35583 0.75656 0.0
C579 C 0.5275 0.38631 0.70973 0.0
H580 H 0.45514 0.42802 0.84484 0.0
H581 H 0.49312 0.39552 0.82834 0.0
H582 H 0.48171 0.41444 0.84914 0.0
H583 H 0.45205 0.4061 0.79668 0.0
H584 H 0.55274 0.37475 0.65045 0.0
H585 H 0.52702 0.40676 0.68339 0.0
H586 H 0.54592 0.36019 0.70075 0.0
H587 H 0.53813 0.40085 0.65588 0.0
Tb588 Tb 0.88894 0.22904 0.01531 0.0
C589 C 0.85414 0.29134 0.98455 0.0
N590 N 0.85646 0.27667 0.97689 0.0
C591 C 0.83065 0.27965 0.9629 0.0
C592 C 0.83984 0.30078 0.98167 0.0
C593 C 0.84502 0.27073 0.9661 0.0
C594 C 0.82808 0.29478 0.97064 0.0
C595 C 0.86336 0.31123 1.00472 0.0
C596 C 0.86579 0.29642 0.996 0.0
C597 C 0.84931 0.32088 1.00161 0.0
C598 C 0.83759 0.31567 0.99013 0.0
Tb599 Tb 0.88153 0.26495 0.98119 0.0
N600 N 0.87923 0.28668 0.99883 0.0
C601 C 0.87507 0.31585 0.01639 0.0
C602 C 0.89064 0.29115 1.01024 0.0
C603 C 0.8887 0.30574 0.0192 0.0
H604 H 0.84697 0.25928 0.95966 0.0
H605 H 0.89782 0.30927 0.0282 0.0
H606 H 0.91902 0.23872 0.04167 0.0
H607 H 0.87014 0.16805 0.99702 0.0
H608 H 0.90136 0.28378 1.01246 0.0
H609 H 0.87367 0.32716 0.02333 0.0
H610 H 0.86568 0.19698 1.00566 0.0
H611 H 0.82163 0.27489 0.95436 0.0
H612 H 0.84731 0.33234 1.00815 0.0
H613 H 0.82672 0.32313 0.98804 0.0
H614 H 0.9465 0.22789 0.04875 0.0
H615 H 0.81691 0.30164 0.96814 0.0
H616 H 0.89814 0.15593 0.99818 0.0
N617 N 0.91339 0.21904 0.02533 0.0
C618 C 0.91772 0.20376 0.02027 0.0
C619 C 0.93863 0.22106 0.04049 0.0
C620 C 0.93317 0.19689 0.02414 0.0
C621 C 0.92311 0.22726 0.03627 0.0
C622 C 0.9439 0.206 0.03401 0.0
N623 N 0.89085 0.20136 1.01046 0.0
C624 C 0.87792 0.1919 1.00567 0.0
C625 C 0.90918 0.17806 1.00804 0.0
C626 C 0.90593 0.19449 1.01253 0.0
C627 C 0.89623 0.16864 1.00176 0.0
C628 C 0.88042 0.17546 1.00103 0.0
H629 H 0.95589 0.20119 0.03732 0.0
H630 H 0.94892 0.17548 0.02126 0.0
H631 H 0.92787 0.15896 1.007 0.0
O632 O 0.87183 0.21806 0.03041 0.0
O633 O 0.90145 0.22231 0.99234 0.0
O634 O 0.90159 0.24657 0.97615 0.0
O635 O 0.88665 0.23877 0.03926 0.0
O636 O 0.87825 0.23781 0.99368 0.0
O637 O 0.86965 0.24365 0.97005 0.0
O638 O 0.89138 0.28572 0.96941 0.0
O639 O 0.85977 0.26143 0.99912 0.0
O640 O 0.86169 0.23591 1.01236 0.0
O641 O 0.879 0.26617 0.95552 0.0
O642 O 0.90789 0.26297 0.99104 0.0
O643 O 0.90753 0.2498 0.01638 0.0
C644 C 0.90672 0.23133 0.97978 0.0
C645 C 0.87899 0.21707 0.05792 0.0
C646 C 0.87118 0.19287 0.07363 0.0
C647 C 0.88443 0.19566 0.08431 0.0
C648 C 0.89228 0.21975 0.06856 0.0
C649 C 0.89489 0.20909 0.08178 0.0
C650 C 0.86835 0.2038 0.06077 0.0
C651 C 0.87051 0.23229 0.98071 0.0
C652 C 0.87621 0.22696 0.04309 0.0
C653 C 0.93699 0.18089 0.01871 0.0
C654 C 0.925 0.17148 1.01061 0.0
C655 C 0.85278 0.24915 1.00769 0.0
C656 C 0.88901 0.28933 0.94019 0.0
C657 C 0.90843 0.30181 0.92174 0.0
C658 C 0.89605 0.30346 0.90984 0.0
C659 C 0.8766 0.29069 0.92831 0.0
C660 C 0.90485 0.29498 0.93693 0.0
C661 C 0.88011 0.29794 0.91318 0.0
C662 C 0.91597 0.25709 1.00424 0.0
C663 C 0.88625 0.28037 0.95526 0.0
H664 H 0.88688 0.18729 0.09434 0.0
H665 H 0.90071 0.22986 0.0666 0.0
H666 H 0.90521 0.21108 0.08993 0.0
H667 H 0.85795 0.20172 0.05269 0.0
H668 H 0.89886 0.30848 0.89785 0.0
H669 H 0.86435 0.28596 0.93066 0.0
H670 H 0.91459 0.29329 0.94587 0.0
H671 H 0.87063 0.2989 0.90392 0.0
Tb672 Tb 0.29679 1.00742 0.39313 0.0
C673 C 0.23972 0.04549 0.35863 0.0
N674 N 0.25524 0.05101 0.36127 0.0
C675 C 0.25439 0.06667 0.33641 0.0
C676 C 0.23062 0.05087 0.34495 0.0
C677 C 0.26293 0.06101 0.35018 0.0
C678 C 0.23805 0.06184 0.33395 0.0
C679 C 0.21812 0.02622 0.36572 0.0
C680 C 0.23368 0.03314 0.36883 0.0
C681 C 0.20852 0.0323 0.35269 0.0
C682 C 0.21477 0.04456 0.34232 0.0
Tb683 Tb 0.26629 0.04292 0.3855 0.0
N684 N 0.24358 0.02719 0.38102 0.0
C685 C 0.21286 0.01313 0.37552 0.0
C686 C 0.23863 0.01427 0.39041 0.0
C687 C 0.22321 1.00704 0.38779 0.0
H688 H 0.27542 0.06506 0.35227 0.0
H689 H 0.21928 0.99681 0.39531 0.0
H690 H 0.28883 0.98508 0.42608 0.0
H691 H 0.3585 0.02276 0.37128 0.0
H692 H 0.24634 1.00951 0.39996 0.0
H693 H 0.20096 1.00746 0.37354 0.0
H694 H 0.33064 0.01118 0.36814 0.0
H695 H 0.26034 0.07487 0.3278 0.0
H696 H 0.19644 0.02724 0.35024 0.0
H697 H 0.20746 0.0487 0.33201 0.0
H698 H 0.29962 0.98269 0.45442 0.0
H699 H 0.23148 0.06624 0.32326 0.0
H700 H 0.36957 0.02841 0.39903 0.0
N701 N 0.30764 1.0014 0.41834 0.0
C702 C 0.32265 1.00767 0.42176 0.0
C703 C 0.30608 0.99007 0.44545 0.0
C704 C 0.32943 1.00669 0.4376 0.0
C705 C 0.29986 0.99164 0.4295 0.0
C706 C 0.32069 0.99811 0.44968 0.0
N707 N 0.32489 0.01266 0.39363 0.0
C708 C 0.33494 0.01438 0.38024 0.0
C709 C 0.3477 0.01964 0.4114 0.0
C710 C 0.33156 0.01388 0.40888 0.0
C711 C 0.35715 0.02377 0.39767 0.0
C712 C 0.35093 0.0206 0.382 0.0
H713 H 0.32548 0.99693 0.46202 0.0
H714 H 0.35029 0.01343 0.45273 0.0
H715 H 0.36631 0.02499 0.42972 0.0
O716 O 0.30985 0.98549 0.39381 0.0
O717 O 0.29845 0.02788 0.41062 0.0
O718 O 0.28958 0.05046 0.39622 0.0
O719 O 0.28396 0.98554 0.38712 0.0
O720 O 0.30453 0.02373 0.37288 0.0
O721 O 0.29027 0.04858 0.37482 0.0
O722 O 0.24948 0.05507 0.40083 0.0
O723 O 0.26713 0.0263 0.36327 0.0
O724 O 0.28938 1.0085 0.36582 0.0
O725 O 0.2636 0.06852 0.38293 0.0
O726 O 0.26503 0.03434 0.41181 0.0
O727 O 0.2754 1.00817 0.41135 0.0
C728 C 0.29822 0.04371 0.40792 0.0
C729 C 0.30178 0.96496 0.37544 0.0
C730 C 0.32263 0.95386 0.35666 0.0
C731 C 0.31351 0.93914 0.35574 0.0
C732 C 0.2929 0.95027 0.37423 0.0
C733 C 0.29865 0.93751 0.36425 0.0
C734 C 0.31631 0.96691 0.36616 0.0
C735 C 0.30223 0.03932 0.36886 0.0
C736 C 0.29751 0.97681 0.38847 0.0
C737 C 0.34496 0.01367 0.44055 0.0
C738 C 0.35407 0.02025 0.42745 0.0
C739 C 0.2775 0.0155 0.35658 0.0
C740 C 0.23752 0.07923 0.39051 0.0
C741 C 0.21512 0.09488 0.40247 0.0
C742 C 0.21172 0.10178 0.38702 0.0
C743 C 0.2344 0.08644 0.37517 0.0
C744 C 0.22755 0.08311 0.40387 0.0
C745 C 0.22125 0.09739 0.37339 0.0
C746 C 0.26861 0.0206 0.41982 0.0
C747 C 0.25207 0.06923 0.3939 0.0
H748 H 0.31806 0.92863 0.34891 0.0
H749 H 0.28186 0.94844 0.3815 0.0
H750 H 0.2919 0.92606 0.36361 0.0
H751 H 0.32305 0.97837 0.36693 0.0
H752 H 0.20233 0.11116 0.38564 0.0
H753 H 0.24227 0.08403 0.36475 0.0
H754 H 0.2302 0.0777 0.41575 0.0
H755 H 0.2189 0.10304 0.3616 0.0
Tb756 Tb 0.22895 1.00975 0.63215 0.0
C757 C 0.28428 0.03514 0.67544 0.0
N758 N 0.26965 0.0424 0.6717 0.0
C759 C 0.26718 0.05267 0.69922 0.0
C760 C 0.29111 0.03671 0.69124 0.0
C761 C 0.26093 0.05093 0.68334 0.0
C762 C 0.28241 0.0457 0.70314 0.0
C763 C 0.30672 0.01701 0.66732 0.0
C764 C 0.2919 0.0252 0.66361 0.0
C765 C 0.3139 0.0191 0.68287 0.0
C766 C 0.30609 0.02886 0.69481 0.0
Tb767 Tb 0.26287 0.0403 0.64469 0.0
N768 N 0.28435 0.023 0.64879 0.0
C769 C 0.31381 1.00685 0.65532 0.0
C770 C 0.29123 0.01324 0.637 0.0
C771 C 0.30602 1.00494 0.64014 0.0
H772 H 0.24941 0.05685 0.68038 0.0
H773 H 0.31152 0.99722 0.63077 0.0
H774 H 0.24144 0.98778 0.60001 0.0
H775 H 0.16564 0.02581 0.64672 0.0
H776 H 0.2856 0.01211 0.62511 0.0
H777 H 0.32526 1.00041 0.65765 0.0
H778 H 0.19336 0.01501 0.65303 0.0
H779 H 0.26032 0.05952 0.70837 0.0
H780 H 0.32537 0.01299 0.6859 0.0
H781 H 0.3116 0.03002 0.70685 0.0
H782 H 0.2338 0.9849 0.57077 0.0
H783 H 0.2872 0.04709 0.71547 0.0
H784 H 0.1573 0.03005 0.61781 0.0
N785 N 0.2217 1.0041 0.60558 0.0
C786 C 0.20701 1.01007 0.6005 0.0
C787 C 0.22632 0.99236 0.57891 0.0
C788 C 0.20199 1.00873 0.58403 0.0
C789 C 0.23075 0.99421 0.59542 0.0
C790 C 0.21215 1.00015 0.57304 0.0
N791 N 0.20137 0.01512 0.6282 0.0
C792 C 0.19015 0.01756 0.64048 0.0
C793 C 0.18058 0.02148 0.60798 0.0
C794 C 0.19647 0.01608 0.6123 0.0
C795 C 0.16962 0.02574 0.62056 0.0
C796 C 0.17429 0.02336 0.63689 0.0
H797 H 0.20872 0.9987 0.56028 0.0
H798 H 0.18264 0.01463 0.5667 0.0
H799 H 0.1639 0.02606 0.58771 0.0
O800 O 0.21531 0.98822 0.63079 0.0
O801 O 0.22817 0.03193 0.61667 0.0
O802 O 0.2426 0.05174 0.63124 0.0
O803 O 0.24083 0.98765 0.63899 0.0
O804 O 0.22062 0.02711 0.65133 0.0
O805 O 0.23899 0.04914 0.6538 0.0
O806 O 0.28318 0.0518 0.63359 0.0
O807 O 0.25937 0.01747 0.66005 0.0
O808 O 0.23234 0.01099 0.66009 0.0
O809 O 0.26992 0.06355 0.65327 0.0
O810 O 0.26361 0.03524 0.61733 0.0
O811 O 0.25244 1.00983 0.6173 0.0
C812 C 0.2319 0.04733 0.61991 0.0
C813 C 0.22209 0.96791 0.64998 0.0
C814 C 0.20113 0.95791 0.66899 0.0
C815 C 0.21081 0.94381 0.67179 0.0
C816 C 0.2315 0.95374 0.65285 0.0
C817 C 0.22591 0.9418 0.6638 0.0
C818 C 0.20698 0.97005 0.65825 0.0
C819 C 0.2247 0.04197 0.65672 0.0
C820 C 0.22715 0.97931 0.63695 0.0
C821 C 0.18664 0.01521 0.57937 0.0
C822 C 0.17596 0.02168 0.59134 0.0
C823 C 0.24612 0.01346 0.6687 0.0
C824 C 0.27879 0.08018 0.63161 0.0
C825 C 0.28926 0.09735 0.60974 0.0
C826 C 0.27489 0.10702 0.61053 0.0
C827 C 0.26468 0.09022 0.63269 0.0
C828 C 0.29101 0.08384 0.62016 0.0
C829 C 0.26267 0.10346 0.62202 0.0
C830 C 0.25887 0.0222 0.60878 0.0
C831 C 0.28069 0.06542 0.64169 0.0
H832 H 0.20644 0.93408 0.67975 0.0
H833 H 0.24297 0.95173 0.64632 0.0
H834 H 0.23311 0.93076 0.6658 0.0
H835 H 0.19952 0.98089 0.65602 0.0
H836 H 0.27344 0.11774 0.60277 0.0
H837 H 0.25517 0.08781 0.6417 0.0
H838 H 0.30201 0.07625 0.61948 0.0
H839 H 0.25177 0.11111 0.62282 0.0
Tb840 Tb 0.26565 0.97743 0.88302 0.0
C841 C 0.23852 0.03479 0.92468 0.0
N842 N 0.23193 0.01977 0.92148 0.0
C843 C 0.22093 0.01845 0.9488 0.0
C844 C 0.23613 0.04247 0.94003 0.0
C845 C 0.22345 0.01137 0.93334 0.0
C846 C 0.22709 0.03415 0.95209 0.0
C847 C 0.25606 0.0573 0.91594 0.0
C848 C 0.2486 0.042 0.91281 0.0
C849 C 0.2531 0.06534 0.93097 0.0
C850 C 0.24323 0.05792 0.943 0.0
Tb851 Tb 0.23485 0.01173 0.89486 0.0
N852 N 0.25154 0.03369 0.8985 0.0
C853 C 0.26633 0.06402 0.90388 0.0
C854 C 0.26148 0.04015 0.8867 0.0
C855 C 0.2691 0.05538 0.88925 0.0
H856 H 0.21812 0.99949 0.93084 0.0
H857 H 0.27693 0.06058 0.87984 0.0
H858 H 0.28798 0.98644 0.85036 0.0
H859 H 0.24937 0.91547 0.90236 0.0
H860 H 0.26328 0.03381 0.8752 0.0
H861 H 0.27222 0.07582 0.90576 0.0
H862 H 0.26093 0.94325 0.90651 0.0
H863 H 0.21408 0.01187 0.9581 0.0
H864 H 0.25863 0.07719 0.93353 0.0
H865 H 0.2414 0.0641 0.95466 0.0
H866 H 0.29069 0.97654 0.8217 0.0
H867 H 0.22507 0.0396 0.96408 0.0
H868 H 0.24415 0.9052 0.87421 0.0
N869 N 0.27124 0.96767 0.85725 0.0
C870 C 0.26474 0.95294 0.85319 0.0
C871 C 0.28303 0.96993 0.83034 0.0
C872 C 0.26599 0.94659 0.83715 0.0
C873 C 0.28128 0.97565 0.84647 0.0
C874 C 0.2749 0.95557 0.82549 0.0
N875 N 0.26 0.9496 0.88121 0.0
C876 C 0.25793 0.93925 0.89426 0.0
C877 C 0.25289 0.92749 0.86263 0.0
C878 C 0.25857 0.94355 0.86573 0.0
C879 C 0.24872 0.91759 0.87601 0.0
C880 C 0.25169 0.92335 0.89191 0.0
H881 H 0.27632 0.9511 0.81303 0.0
H882 H 0.25968 0.92609 0.82131 0.0
H883 H 0.24792 0.90937 0.84367 0.0
O884 O 0.28764 0.9645 0.88175 0.0
O885 O 0.24403 0.9776 0.8672 0.0
O886 O 0.224 0.99048 0.8829 0.0
O887 O 0.28732 0.99018 0.88966 0.0
O888 O 0.24833 0.96975 0.90266 0.0
O889 O 0.22622 0.98813 0.90477 0.0
O890 O 0.22275 0.03076 0.88217 0.0
O891 O 0.25723 1.00883 0.911 0.0
O892 O 0.26457 0.9818 0.91061 0.0
O893 O 0.21142 0.01901 0.9029 0.0
O894 O 0.24026 0.01238 0.86746 0.0
O895 O 0.26524 0.99958 0.8659 0.0
C896 C 0.22864 0.98052 0.87106 0.0
C897 C 0.30794 0.97213 0.90057 0.0
C898 C 0.31863 0.9513 0.91942 0.0
C899 C 0.33345 0.96025 0.92039 0.0
C900 C 0.3227 0.98087 0.90186 0.0
C901 C 0.33533 0.97502 0.91186 0.0
C902 C 0.30576 0.95761 0.90974 0.0
C903 C 0.23357 0.97405 0.90828 0.0
C904 C 0.29615 0.97673 0.8877 0.0
C905 C 0.25917 0.93111 0.83364 0.0
C906 C 0.2525 0.92159 0.84638 0.0
C907 C 0.2619 0.99554 0.91925 0.0
C908 C 0.1945 0.02527 0.88059 0.0
C909 C 0.1758 0.03406 0.85916 0.0
C910 C 0.16706 0.01921 0.86078 0.0
C911 C 0.18565 1.01048 0.88217 0.0
C912 C 0.18961 0.03689 0.86901 0.0
C913 C 0.17199 1.00752 0.87227 0.0
C914 C 0.25284 1.00723 0.85828 0.0
C915 C 0.2092 0.02858 0.89043 0.0
H916 H 0.34383 0.95564 0.92732 0.0
H917 H 0.32469 0.9919 0.89468 0.0
H918 H 0.34685 0.98165 0.91256 0.0
H919 H 0.29425 0.95095 0.90885 0.0
H920 H 0.1561 0.01689 0.85358 0.0
H921 H 0.18925 1.00121 0.89101 0.0
H922 H 0.19653 0.04822 0.86775 0.0
H923 H 0.16507 0.99624 0.87369 0.0
Tb924 Tb 0.26067 0.97685 0.14388 0.0
C925 C 0.28969 0.03216 0.10185 0.0
N926 N 0.29618 0.01711 0.10528 0.0
C927 C 0.30763 0.01533 0.07818 0.0
C928 C 0.29229 0.03955 0.08643 0.0
C929 C 0.3048 1.00847 0.09365 0.0
C930 C 0.30155 0.03101 0.07462 0.0
C931 C 0.27175 0.05475 0.10991 0.0
C932 C 0.27941 0.03962 0.11348 0.0
C933 C 0.27489 0.0625 0.09481 0.0
C934 C 0.28511 0.05492 0.08311 0.0
Tb935 Tb 0.29299 1.00963 0.13198 0.0
N936 N 0.27631 0.03161 0.12789 0.0
C937 C 0.261 0.06154 0.12156 0.0
C938 C 0.26595 0.03818 0.13932 0.0
C939 C 0.25803 0.05319 0.13627 0.0
H940 H 0.31006 0.99659 0.09639 0.0
H941 H 0.24979 0.05842 0.14535 0.0
H942 H 0.24231 0.98928 0.17859 0.0
H943 H 0.27005 0.91371 0.12436 0.0
H944 H 0.26398 0.03211 0.15088 0.0
H945 H 0.25487 0.07317 0.1193 0.0
H946 H 0.26158 0.94274 0.12053 0.0
H947 H 0.31465 1.00858 0.06906 0.0
H948 H 0.26923 0.07422 0.09192 0.0
H949 H 0.28709 0.06088 0.07139 0.0
H950 H 0.24163 0.98026 0.20748 0.0
H951 H 0.30376 0.03627 0.0626 0.0
H952 H 0.27525 0.90306 0.15236 0.0
N953 N 0.256 0.96845 0.17033 0.0
C954 C 0.26094 0.95298 0.17406 0.0
C955 C 0.24742 0.97257 0.19825 0.0
C956 C 0.26058 0.94709 0.19028 0.0
C957 C 0.24809 0.97777 0.18189 0.0
C958 C 0.25416 0.95734 0.20257 0.0
N959 N 0.2637 0.94879 0.14578 0.0
C960 C 0.26439 0.93833 0.13267 0.0
C961 C 0.2694 0.92623 0.16418 0.0
C962 C 0.26514 0.94276 0.16123 0.0
C963 C 0.27185 0.91584 0.15067 0.0
C964 C 0.26892 0.92182 0.13486 0.0
H965 H 0.2536 0.95331 0.21522 0.0
H966 H 0.2661 0.92626 0.20593 0.0
H967 H 0.27398 0.90795 0.18302 0.0
O968 O 0.23807 0.96507 0.14595 0.0
O969 O 0.28258 0.97504 0.15939 0.0
O970 O 0.30341 0.98898 0.14562 0.0
O971 O 0.23949 0.98986 0.13613 0.0
O972 O 0.27833 0.96785 0.12518 0.0
O973 O 0.3008 0.98568 0.12247 0.0
O974 O 0.30506 0.02948 0.14327 0.0
O975 O 0.27053 1.00703 0.11592 0.0
O976 O 0.26248 0.98031 0.11619 0.0
O977 O 0.31685 0.01542 0.12418 0.0
O978 O 0.28762 1.01042 0.15923 0.0
O979 O 0.26177 1.00004 0.15925 0.0
C980 C 0.29816 0.97858 0.15684 0.0
C981 C 0.21975 0.97134 0.12461 0.0
C982 C 0.20966 0.94944 0.10663 0.0
C983 C 0.19848 0.96062 0.09966 0.0
C984 C 0.20836 0.98226 0.11765 0.0
C985 C 0.19784 0.97691 0.10518 0.0
C986 C 0.22034 0.95491 0.11898 0.0
C987 C 0.29323 0.97162 0.11961 0.0
C988 C 0.23025 0.97681 0.13836 0.0
C989 C 0.26595 0.93096 0.1935 0.0
C990 C 0.27042 0.92054 0.18045 0.0
C991 C 0.26571 0.99387 0.10755 0.0
C992 C 0.33337 0.02421 0.14603 0.0
C993 C 0.35022 0.03456 0.16829 0.0
C994 C 0.3608 0.02092 0.16652 0.0
C995 C 0.34422 1.0108 0.14409 0.0
C996 C 0.33634 0.03585 0.15825 0.0
C997 C 0.35775 1.00909 0.15448 0.0
C998 C 0.27443 1.00601 0.16774 0.0
C999 C 0.31882 0.02631 0.13562 0.0
H1000 H 0.18994 0.95665 0.09026 0.0
H1001 H 0.20749 0.99485 0.12196 0.0
H1002 H 0.18899 0.98537 0.09994 0.0
H1003 H 0.22896 0.94624 0.12429 0.0
H1004 H 0.37181 0.01976 0.17391 0.0
H1005 H 0.34217 1.00152 0.13474 0.0
H1006 H 0.32799 0.0462 0.15968 0.0
H1007 H 0.36603 0.99873 0.15301 0.0
Tb1008 Tb 0.39264 0.29367 1.01069 0.0
C1009 C 0.34966 0.23802 0.03758 0.0
N1010 N 0.35388 0.25281 0.0442 0.0
C1011 C 0.32677 0.25594 0.05554 0.0
C1012 C 0.33381 0.23145 0.04004 0.0
C1013 C 0.34266 0.26198 0.05285 0.0
C1014 C 0.32239 0.24053 0.04931 0.0
C1015 C 0.35659 0.21524 0.01943 0.0
C1016 C 0.36097 0.23003 0.02727 0.0
C1017 C 0.341 0.20833 0.02239 0.0
C1018 C 0.32966 0.21641 0.03265 0.0
Tb1019 Tb 0.38109 0.25867 0.04114 0.0
N1020 N 0.37586 0.23726 0.02429 0.0
C1021 C 0.36797 0.20796 1.00867 0.0
C1022 C 0.38704 0.23025 0.01395 0.0
C1023 C 0.3832 0.21552 1.00588 0.0
H1024 H 0.34603 0.27363 0.05823 0.0
H1025 H 0.39205 0.2099 0.99765 0.0
H1026 H 0.42473 0.28281 0.9881 0.0
H1027 H 0.3762 0.35537 0.03094 0.0
H1028 H 0.39896 0.2358 1.01216 0.0
H1029 H 0.36509 0.19656 1.0024 0.0
H1030 H 0.37037 0.32791 0.01952 0.0
H1031 H 0.31797 0.26311 0.06256 0.0
H1032 H 0.33747 0.19688 0.01655 0.0
H1033 H 0.31756 0.2111 0.03447 0.0
H1034 H 0.45364 0.29169 0.98448 0.0
H1035 H 0.31005 0.23594 0.0514 0.0
H1036 H 0.40497 0.36501 0.03348 0.0
N1037 N 0.41883 0.30205 1.0048 0.0
C1038 C 0.42346 0.31686 1.01083 0.0
C1039 C 0.44538 0.29872 0.99226 0.0
C1040 C 0.4397 0.32263 1.00902 0.0
C1041 C 0.42911 0.29355 0.99456 0.0
C1042 C 0.45087 0.31308 0.99996 0.0
N1043 N 0.39565 0.3211 0.01742 0.0
C1044 C 0.38301 0.33158 0.02124 0.0
C1045 C 0.41532 0.34262 0.0233 0.0
C1046 C 0.4114 0.32674 0.01757 0.0
C1047 C 0.40251 0.35276 0.02882 0.0
C1048 C 0.38625 0.34734 0.02743 0.0
H1049 H 0.46346 0.31709 0.99814 0.0
H1050 H 0.45644 0.34259 0.01462 0.0
H1051 H 0.43509 0.36006 0.02743 0.0
O1052 O 0.39323 0.30867 0.99012 0.0
O1053 O 0.40853 0.29453 0.03247 0.0
O1054 O 0.39623 0.27798 0.05235 0.0
O1055 O 0.38563 0.28309 0.98797 0.0
O1056 O 0.37325 0.3001 0.02832 0.0
O1057 O 0.37367 0.28243 0.0509 0.0
O1058 O 0.39273 0.23857 0.05263 0.0
O1059 O 0.36502 0.26242 0.0187 0.0
O1060 O 0.36487 0.28958 1.01228 0.0
O1061 O 0.37241 0.25115 0.06408 0.0
O1062 O 0.40817 0.25774 0.03481 0.0
O1063 O 0.40808 0.27048 1.01003 0.0
C1064 C 0.40694 0.28924 0.04765 0.0
C1065 C 0.37444 0.30291 0.96913 0.0
C1066 C 0.35592 0.32478 0.95969 0.0
C1067 C 0.35465 0.31662 0.94448 0.0
C1068 C 0.37297 0.29507 0.95389 0.0
C1069 C 0.363 0.30182 0.9417 0.0
C1070 C 0.36558 0.31759 0.97211 0.0
C1071 C 0.36962 0.29625 0.04365 0.0
C1072 C 0.38736 0.2973 0.98051 0.0
C1073 C 0.44395 0.33803 0.0156 0.0
C1074 C 0.43178 0.34799 0.02284 0.0
C1075 C 0.35638 0.27569 0.01454 0.0
C1076 C 0.39395 0.24314 0.08105 0.0
C1077 C 0.41423 0.23271 0.10001 0.0
C1078 C 0.41392 0.24773 0.10858 0.0
C1079 C 0.39341 0.25808 0.08986 0.0
C1080 C 0.40425 0.23047 0.08627 0.0
C1081 C 0.40342 0.26033 0.10356 0.0
C1082 C 0.41662 0.26345 0.0221 0.0
C1083 C 0.38432 0.24077 0.06609 0.0
H1084 H 0.34774 0.32198 0.93447 0.0
H1085 H 0.38001 0.28404 0.95121 0.0
H1086 H 0.36222 0.29587 0.92983 0.0
H1087 H 0.36678 0.32378 0.98384 0.0
H1088 H 0.42138 0.2495 0.11945 0.0
H1089 H 0.38553 0.26814 0.08602 0.0
H1090 H 0.4045 0.21886 0.07966 0.0
H1091 H 0.40305 0.27184 0.11026 0.0
Tb1092 Tb 0.98187 0.8822 0.26955 0.0
C1093 C 0.03992 0.91935 0.23584 0.0
N1094 N 0.02475 0.91654 0.22951 0.0
C1095 C 0.0258 0.9418 0.21446 0.0
C1096 C 0.04879 0.93356 0.2315 0.0
C1097 C 0.01743 0.92756 0.21917 0.0
C1098 C 0.04163 0.94473 0.2205 0.0
C1099 C 0.06123 0.91153 0.2551 0.0
C1100 C 0.04598 0.9084 0.24756 0.0
C1101 C 0.07042 0.92543 0.2504 0.0
C1102 C 0.06423 0.93639 0.23864 0.0
Tb1103 Tb 0.01442 0.89146 0.23543 0.0
N1104 N 0.03671 0.89503 0.25185 0.0
C1105 C 0.06672 0.90068 0.26722 0.0
C1106 C 0.04194 0.8845 0.26373 0.0
C1107 C 0.057 0.88721 0.27163 0.0
H1108 H 1.00529 0.92518 0.2143 0.0
H1109 H 0.06118 0.8788 0.28103 0.0
H1110 H 0.99257 0.84851 0.29074 0.0
H1111 H 0.91979 0.90009 0.25227 0.0
H1112 H 0.03478 0.87394 0.26709 0.0
H1113 H 0.07839 0.90266 0.27333 0.0
H1114 H 0.94759 0.90514 0.26316 0.0
H1115 H 0.02008 0.95044 0.20613 0.0
H1116 H 0.08225 0.92794 0.25598 0.0
H1117 H 0.07133 0.94718 0.23539 0.0
H1118 H 0.98356 0.81951 0.29227 0.0
H1119 H 0.04806 0.95581 0.21687 0.0
H1120 H 0.90995 0.87156 0.24817 0.0
N1121 N 0.97369 0.85552 0.27407 0.0
C1122 C 0.95862 0.85143 0.26817 0.0
C1123 C 0.97665 0.82826 0.28502 0.0
C1124 C 0.95281 0.83512 0.26879 0.0
C1125 C 0.98189 0.84463 0.28387 0.0
C1126 C 0.96238 0.82331 0.27685 0.0
N1127 N 0.9541 0.87969 0.26408 0.0
C1128 C 0.94369 0.89261 0.26111 0.0
C1129 C 0.93246 0.86051 0.25716 0.0
C1130 C 0.94841 0.86398 0.26296 0.0
C1131 C 0.92226 0.87369 0.25281 0.0
C1132 C 0.92778 0.8898 0.25511 0.0
H1133 H 0.95835 0.81064 0.27773 0.0
H1134 H 0.93274 0.81885 0.26217 0.0
H1135 H 0.91504 0.8411 0.25159 0.0
O1136 O 0.96644 0.88143 0.2899 0.0
O1137 O 0.97498 0.87252 0.24543 0.0
O1138 O 0.99874 0.87091 0.22977 0.0
O1139 O 0.99201 0.88862 0.29259 0.0
O1140 O 0.97531 0.90272 0.25377 0.0
O1141 O 0.9899 0.90073 0.22909 0.0
O1142 O 0.03492 0.88389 0.22134 0.0
O1143 O 1.01056 0.91351 0.25174 0.0
O1144 O 0.98895 0.90973 0.27002 0.0
O1145 O 0.01294 0.89464 0.20989 0.0
O1146 O 0.01553 0.86469 0.24327 0.0
O1147 O 1.00381 0.86496 0.26875 0.0
C1148 C 0.98329 0.86756 0.23258 0.0
C1149 C 0.97206 0.90009 0.31106 0.0
C1150 C 0.95046 0.91916 0.32 0.0
C1151 C 0.95844 0.92054 0.33528 0.0
C1152 C 0.97982 0.90176 0.32629 0.0
C1153 C 0.97311 0.91207 0.33827 0.0
C1154 C 0.95763 0.90916 0.3078 0.0
C1155 C 0.97744 0.90592 0.23807 0.0
C1156 C 0.97765 0.88706 0.29979 0.0
C1157 C 0.93728 0.83139 0.26218 0.0
C1158 C 0.92716 0.84407 0.25626 0.0
C1159 C 1.00044 0.91951 0.26308 0.0
C1160 C 0.03544 0.88779 0.19196 0.0
C1161 C 0.04875 0.87111 0.17137 0.0
C1162 C 0.0491 0.88463 0.16068 0.0
C1163 C 0.03547 0.90129 0.18126 0.0
C1164 C 0.04211 0.87275 0.18703 0.0
C1165 C 0.04247 0.89972 0.16566 0.0
C1166 C 1.01021 0.85637 0.25633 0.0
C1167 C 0.02776 0.88894 0.20798 0.0
H1168 H 0.95313 0.92775 0.34516 0.0
H1169 H 0.99077 0.89466 0.3291 0.0
H1170 H 0.979 0.91307 0.35013 0.0
H1171 H 0.95171 0.908 0.29596 0.0
H1172 H 0.05407 0.88336 0.14838 0.0
H1173 H 0.03012 0.91295 0.18496 0.0
H1174 H 0.04161 0.86219 0.19515 0.0
H1175 H 0.0425 0.91009 0.15734 0.0
Tb1176 Tb 0.12846 0.72768 0.50878 0.0
C1177 C 0.17021 0.7833 0.54101 0.0
N1178 N 0.16598 0.76859 0.54767 0.0
C1179 C 0.19186 0.76726 0.5618 0.0
C1180 C 0.18546 0.79067 0.54466 0.0
C1181 C 0.17657 0.76046 0.55791 0.0
C1182 C 0.1963 0.78248 0.55523 0.0
C1183 C 0.16359 0.80569 0.52246 0.0
C1184 C 0.15941 0.79068 0.52994 0.0
C1185 C 0.17855 0.81336 0.52649 0.0
C1186 C 0.18947 0.80585 0.53751 0.0
Tb1187 Tb 0.13974 0.7605 0.54192 0.0
N1188 N 0.1452 0.78265 0.52594 0.0
C1189 C 0.15265 0.81246 0.51105 0.0
C1190 C 0.13447 0.78919 0.51491 0.0
C1191 C 0.13807 0.80416 0.50723 0.0
H1192 H 0.17311 0.7489 0.56345 0.0
H1193 H 0.12954 0.80937 0.49847 0.0
H1194 H 0.09402 0.73748 0.48973 0.0
H1195 H 0.14955 0.66547 0.52253 0.0
H1196 H 0.12305 0.78308 0.51218 0.0
H1197 H 0.15537 0.82404 0.50507 0.0
H1198 H 0.15294 0.69369 0.51209 0.0
H1199 H 0.20015 0.76083 0.56997 0.0
H1200 H 0.18192 0.82499 0.52095 0.0
H1201 H 0.20107 0.8118 0.54028 0.0
H1202 H 0.06517 0.72765 0.48912 0.0
H1203 H 0.20814 0.78774 0.55832 0.0
H1204 H 0.1217 0.65472 0.52865 0.0
N1205 N 0.10236 0.718 0.50486 0.0
C1206 C 0.09895 0.7029 0.51089 0.0
C1207 C 0.07448 0.72071 0.49563 0.0
C1208 C 0.08283 0.69656 0.51074 0.0
C1209 C 0.09073 0.72642 0.49623 0.0
C1210 C 0.07039 0.70593 0.50338 0.0
N1211 N 0.1274 0.69969 0.51398 0.0
C1212 C 0.14075 0.68943 0.51522 0.0
C1213 C 0.1094 0.67716 0.52128 0.0
C1214 C 0.11202 0.69341 0.51591 0.0
C1215 C 0.12313 0.66726 0.5244 0.0
C1216 C 0.13886 0.67329 0.52093 0.0
H1217 H 0.05783 0.7015 0.50289 0.0
H1218 H 0.06757 0.67581 0.51756 0.0
H1219 H 0.09089 0.65879 0.52697 0.0
O1220 O 0.12634 0.71476 0.48684 0.0
O1221 O 0.11189 0.72764 0.53015 0.0
O1222 O 0.12868 0.73791 0.55035 0.0
O1223 O 0.13472 0.74012 0.48689 0.0
O1224 O 0.14853 0.71975 0.52506 0.0
O1225 O 0.15011 0.73631 0.54853 0.0
O1226 O 0.12622 0.77953 0.55403 0.0
O1227 O 0.15703 0.75895 0.52032 0.0
O1228 O 0.15615 0.73279 0.50981 0.0
O1229 O 0.14484 0.76483 0.5666 0.0
O1230 O 0.11275 0.76186 0.535 0.0
O1231 O 0.11298 0.75093 0.50923 0.0
C1232 C 0.11531 0.7305 0.5456 0.0
C1233 C 0.14567 0.72169 0.46678 0.0
C1234 C 0.16553 0.70091 0.45767 0.0
C1235 C 0.16694 0.7093 0.44261 0.0
C1236 C 0.14733 0.72987 0.45177 0.0
C1237 C 0.15806 0.72377 0.43981 0.0
C1238 C 0.15515 0.70751 0.46985 0.0
C1239 C 0.15408 0.72302 0.53996 0.0
C1240 C 0.13254 0.72671 0.47819 0.0
C1241 C 0.07991 0.68083 0.51723 0.0
C1242 C 0.0932 0.67115 0.52258 0.0
C1243 C 0.16493 0.74607 0.51408 0.0
C1244 C 0.13275 0.7863 0.58257 0.0
C1245 C 0.11563 0.80054 0.60233 0.0
C1246 C 0.12962 0.80405 0.61181 0.0
C1247 C 0.1467 0.78964 0.59217 0.0
C1248 C 0.11721 0.79167 0.58772 0.0
C1249 C 0.14511 0.79855 0.60675 0.0
C1250 C 0.10449 0.75769 0.52157 0.0
C1251 C 0.13437 0.77678 0.5675 0.0
H1252 H 0.17449 0.70445 0.43275 0.0
H1253 H 0.13997 0.74069 0.44913 0.0
H1254 H 0.1591 0.72998 0.42812 0.0
H1255 H 0.154 0.70131 0.48155 0.0
H1256 H 0.1285 0.8108 0.62324 0.0
H1257 H 0.1588 0.78542 0.58837 0.0
H1258 H 0.10638 0.78884 0.58047 0.0
H1259 H 0.15585 0.80111 0.61415 0.0
Tb1260 Tb 0.01761 0.62667 0.73342 0.0
C1261 C 0.95953 0.6682 0.76958 0.0
N1262 N 0.97443 0.66242 0.77431 0.0
C1263 C 0.97923 0.68761 0.78905 0.0
C1264 C 0.95423 0.68427 0.7735 0.0
C1265 C 0.9839 0.67157 0.7847 0.0
C1266 C 0.96451 0.69415 0.78308 0.0
C1267 C 0.93323 0.66243 0.75708 0.0
C1268 C 0.94919 0.65748 0.76174 0.0
C1269 C 0.92815 0.67874 0.75998 0.0
C1270 C 0.93864 0.68965 0.76825 0.0
Tb1271 Tb 0.98192 0.63665 0.76515 0.0
N1272 N 0.95464 0.64188 0.75939 0.0
C1273 C 0.92278 0.65072 0.75007 0.0
C1274 C 0.94406 0.63017 0.75369 0.0
C1275 C 0.92813 0.63443 0.74866 0.0
H1276 H 0.99516 0.66657 0.78968 0.0
H1277 H 0.91994 0.62511 0.74389 0.0
H1278 H 1.00279 0.59149 0.71698 0.0
H1279 H 0.06797 0.63933 0.77425 0.0
H1280 H 0.94771 0.61746 0.75334 0.0
H1281 H 0.91042 0.65399 0.74627 0.0
H1282 H 0.04179 0.64587 0.76005 0.0
H1283 H 0.98701 0.69491 0.797 0.0
H1284 H 0.91601 0.68287 0.75634 0.0
H1285 H 0.93441 0.70203 0.77093 0.0
H1286 H 0.01281 0.56303 0.71403 0.0
H1287 H 0.96092 0.70657 0.78644 0.0
H1288 H 0.08072 0.61181 0.77093 0.0
N1289 N 0.02357 0.59944 0.73087 0.0
C1290 C 0.03832 0.59524 0.73762 0.0
C1291 C 0.02009 0.57197 0.72067 0.0
C1292 C 0.04457 0.57913 0.736 0.0
C1293 C 0.01436 0.58811 0.72253 0.0
C1294 C 0.0353 0.56749 0.72732 0.0
N1295 N 0.03977 0.62212 0.74938 0.0
C1296 C 0.04717 0.63376 0.75882 0.0
C1297 C 0.06153 0.60271 0.75491 0.0
C1298 C 0.0467 0.60694 0.7471 0.0
C1299 C 0.06924 0.61456 0.76475 0.0
C1300 C 0.06202 0.63012 0.76673 0.0
H1301 H 0.03964 0.55495 0.72589 0.0
H1302 H 0.06463 0.56273 0.7423 0.0
H1303 H 0.07952 0.58333 0.7587 0.0
O1304 O 0.037 0.6386 0.721 0.0
O1305 O 0.01512 0.61165 0.75654 0.0
O1306 O 0.98808 0.60977 0.76193 0.0
O1307 O 0.02442 0.61804 0.71021 0.0
O1308 O 0.01734 0.65356 0.74012 0.0
O1309 O 1.00501 0.65225 0.76513 0.0
O1310 O 0.96685 0.62488 0.78158 0.0
O1311 O 0.97745 0.65084 0.74309 0.0
O1312 O 0.9983 0.64318 0.72467 0.0
O1313 O 0.9904 0.63433 0.78978 0.0
O1314 O 0.97686 0.61751 0.74678 0.0
O1315 O 0.99369 0.61922 0.72364 0.0
C1316 C 1.00241 0.60222 0.76029 0.0
C1317 C 0.03037 0.64003 0.69285 0.0
C1318 C 0.03609 0.66362 0.67555 0.0
C1319 C 0.02248 0.65952 0.66568 0.0
C1320 C 0.01676 0.63612 0.68286 0.0
C1321 C 0.01287 0.64586 0.66938 0.0
C1322 C 0.03993 0.65381 0.68913 0.0
C1323 C 1.01106 0.66146 0.75295 0.0
C1324 C 0.03416 0.63033 0.70757 0.0
C1325 C 0.05959 0.57504 0.74347 0.0
C1326 C 0.06806 0.58678 0.75285 0.0
C1327 C 0.98492 0.65147 0.72882 0.0
C1328 C 0.9675 0.63167 0.80883 0.0
C1329 C 0.94288 0.62614 0.8248 0.0
C1330 C 0.94506 0.64094 0.83337 0.0
C1331 C 0.96977 0.64649 0.81738 0.0
C1332 C 0.95434 0.62139 0.813 0.0
C1333 C 0.95859 0.65101 0.82976 0.0
C1334 C 0.97982 0.61528 0.73099 0.0
C1335 C 0.97661 0.62706 0.79398 0.0
H1336 H 0.0195 0.66659 0.65483 0.0
H1337 H 1.009 0.62562 0.68547 0.0
H1338 H 1.00246 0.64276 0.66171 0.0
H1339 H 0.0503 0.65693 0.69688 0.0
H1340 H 0.93615 0.64485 0.84251 0.0
H1341 H 0.97981 0.65464 0.81434 0.0
H1342 H 0.9524 0.60999 0.80629 0.0
H1343 H 0.96015 0.66254 0.83623 0.0
Tb1344 Tb 0.14172 0.26517 0.48499 0.0
C1345 C 0.10153 0.20265 0.51145 0.0
N1346 N 0.10454 0.21773 0.5178 0.0
C1347 C 0.07703 0.21891 0.5285 0.0
C1348 C 0.08577 0.19552 0.51231 0.0
C1349 C 0.09294 0.22537 0.52726 0.0
C1350 C 0.07328 0.20411 0.52058 0.0
C1351 C 0.11266 0.17765 0.49981 0.0
C1352 C 0.11477 0.19388 0.50553 0.0
C1353 C 0.09674 0.17086 0.4993 0.0
C1354 C 0.0833 0.17977 0.50563 0.0
Tb1355 Tb 0.13012 0.22845 0.51334 0.0
N1356 N 0.1299 0.20083 0.50678 0.0
C1357 C 0.12667 0.16857 0.49548 0.0
C1358 C 0.14367 0.19149 0.50399 0.0
C1359 C 0.14226 0.1754 0.49795 0.0
H1360 H 0.09604 0.23632 0.53407 0.0
H1361 H 0.15321 0.16825 0.49531 0.0
H1362 H 0.17732 0.25027 0.46876 0.0
H1363 H 0.12957 0.31265 0.52956 0.0
H1364 H 0.15582 0.19648 0.5061 0.0
H1365 H 0.12562 0.15608 0.49094 0.0
H1366 H 0.12293 0.28729 0.514 0.0
H1367 H 0.06774 0.22524 0.5357 0.0
H1368 H 0.0948 0.15849 0.49472 0.0
H1369 H 0.07123 0.17413 0.50589 0.0
H1370 H 0.20564 0.26054 0.46591 0.0
H1371 H 0.061 0.19904 0.52164 0.0
H1372 H 0.15691 0.32568 0.52641 0.0
N1373 N 0.16921 0.27053 0.48345 0.0
C1374 C 0.17336 0.28498 0.49082 0.0
C1375 C 0.19668 0.26752 0.47292 0.0
C1376 C 0.18935 0.29146 0.48913 0.0
C1377 C 0.18065 0.26158 0.47481 0.0
C1378 C 0.20099 0.28262 0.4799 0.0
N1379 N 0.14656 0.28575 0.50294 0.0
C1380 C 0.13502 0.29266 0.51295 0.0
C1381 C 0.16593 0.30729 0.50933 0.0
C1382 C 0.16172 0.29278 0.50091 0.0
C1383 C 0.15417 0.31447 0.51974 0.0
C1384 C 0.13872 0.30709 0.52161 0.0
H1385 H 0.21344 0.28716 0.4784 0.0
H1386 H 0.20556 0.31145 0.49592 0.0
H1387 H 0.18511 0.32536 0.51348 0.0
O1388 O 0.13058 0.28558 0.4731 0.0
O1389 O 0.15756 0.25954 0.50729 0.0
O1390 O 0.15782 0.232 0.51144 0.0
O1391 O 0.15215 0.27395 0.46348 0.0
O1392 O 0.11448 0.26611 0.49125 0.0
O1393 O 0.11363 0.25099 0.51484 0.0
O1394 O 0.12931 0.21418 0.53444 0.0
O1395 O 0.11392 0.22883 0.49186 0.0
O1396 O 0.12594 0.24684 0.47301 0.0
O1397 O 0.13741 0.23969 0.53562 0.0
O1398 O 0.14867 0.22289 0.49466 0.0
O1399 O 0.14884 0.24212 0.47339 0.0
C1400 C 0.16628 0.24597 0.5103 0.0
C1401 C 0.13426 0.28383 0.44395 0.0
C1402 C 0.11179 0.28561 0.42451 0.0
C1403 C 0.12245 0.28033 0.41191 0.0
C1404 C 0.14487 0.27901 0.43107 0.0
C1405 C 0.13892 0.27713 0.4152 0.0
C1406 C 0.11772 0.28738 0.44054 0.0
C1407 C 0.10561 0.25932 0.50322 0.0
C1408 C 0.14078 0.28465 0.46074 0.0
C1409 C 0.19336 0.30621 0.49715 0.0
C1410 C 0.18171 0.3141 0.5072 0.0
C1411 C 0.11538 0.23514 0.47706 0.0
C1412 C 0.14886 0.22031 0.55473 0.0
C1413 C 0.1676 0.19879 0.56468 0.0
C1414 C 0.1699 0.2081 0.57911 0.0
C1415 C 0.15149 0.22929 0.56916 0.0
C1416 C 0.15717 0.20516 0.5524 0.0
C1417 C 0.16203 0.22325 0.58122 0.0
C1418 C 0.15223 0.22766 0.47964 0.0
C1419 C 0.13566 0.22572 0.54354 0.0
H1420 H 0.11817 0.27933 0.39936 0.0
H1421 H 0.15779 0.27652 0.4333 0.0
H1422 H 0.14714 0.27338 0.40539 0.0
H1423 H 0.10951 0.29156 0.4502 0.0
H1424 H 0.17736 0.20346 0.58908 0.0
H1425 H 0.14496 0.24074 0.57134 0.0
H1426 H 0.15514 0.19812 0.54128 0.0
H1427 H 0.16372 0.23011 0.59249 0.0
Tb1428 Tb 0.54014 0.37893 0.26557 0.0
C1429 C 0.5122 0.42076 0.20645 0.0
N1430 N 0.50504 0.41649 0.22082 0.0
C1431 C 0.4929 0.44334 0.2229 0.0
C1432 C 0.51119 0.43691 0.20034 0.0
C1433 C 0.49451 0.42711 0.22847 0.0
C1434 C 0.50172 0.44843 0.20906 0.0
C1435 C 0.52581 0.41175 0.18167 0.0
C1436 C 0.51913 0.40837 0.19726 0.0
C1437 C 0.52635 0.42812 0.17609 0.0
C1438 C 0.51892 0.4407 0.18538 0.0
Tb1439 Tb 0.51017 0.39052 0.23026 0.0
N1440 N 0.51769 0.39277 0.203 0.0
C1441 C 0.53086 0.39849 0.1719 0.0
C1442 C 0.52062 0.37984 0.19266 0.0
C1443 C 0.52781 0.38244 0.17723 0.0
H1444 H 0.48733 0.42303 0.23885 0.0
H1445 H 0.53077 0.37208 0.16938 0.0
H1446 H 0.55831 0.34421 0.25098 0.0
H1447 H 0.49606 0.38943 0.31387 0.0
H1448 H 0.5174 0.36751 0.19625 0.0
H1449 H 0.5362 0.4005 0.15987 0.0
H1450 H 0.51161 0.39682 0.28874 0.0
H1451 H 0.48485 0.45188 0.22926 0.0
H1452 H 0.5317 0.43104 0.16425 0.0
H1453 H 0.51862 0.45312 0.18058 0.0
H1454 H 0.56116 0.31564 0.26031 0.0
H1455 H 0.50047 0.46097 0.20475 0.0
H1456 H 0.49934 0.36174 0.32608 0.0
N1457 N 0.54311 0.35158 0.27116 0.0
C1458 C 0.5356 0.34689 0.28535 0.0
C1459 C 0.55396 0.32431 0.26746 0.0
C1460 C 0.53724 0.33068 0.29126 0.0
C1461 C 0.5521 0.34053 0.26208 0.0
C1462 C 0.54664 0.31939 0.28217 0.0
N1463 N 0.52303 0.3734 0.28671 0.0
C1464 C 0.51286 0.38465 0.29388 0.0
C1465 C 0.51675 0.35344 0.30767 0.0
C1466 C 0.52534 0.35817 0.29344 0.0
C1467 C 0.50613 0.36488 0.31507 0.0
C1468 C 0.50417 0.38052 0.30815 0.0
H1469 H 0.54808 0.30679 0.28624 0.0
H1470 H 0.53013 0.3137 0.31045 0.0
H1471 H 0.51235 0.3336 0.32488 0.0
O1472 O 0.55195 0.39247 0.28428 0.0
O1473 O 0.51688 0.36414 0.26206 0.0
O1474 O 0.51163 0.36277 0.23496 0.0
O1475 O 0.5622 0.36987 0.2752 0.0
O1476 O 0.53373 0.40607 0.26631 0.0
O1477 O 0.50908 0.40656 0.253 0.0
O1478 O 0.48952 0.39096 0.21524 0.0
O1479 O 0.53201 0.40664 0.23068 0.0
O1480 O 0.55181 0.39227 0.24542 0.0
O1481 O 0.48733 0.38408 0.24093 0.0
O1482 O 0.52745 0.37076 0.22403 0.0
O1483 O 0.55002 0.37091 0.24174 0.0
C1484 C 0.51339 0.35479 0.24916 0.0
C1485 C 0.58065 0.39136 0.27953 0.0
C1486 C 0.59934 0.41435 0.28338 0.0
C1487 C 0.60971 0.4078 0.27111 0.0
C1488 C 0.59128 0.38493 0.2674 0.0
C1489 C 0.60565 0.3932 0.26317 0.0
C1490 C 0.58472 0.40611 0.2874 0.0
C1491 C 0.5211 0.41475 0.26056 0.0
C1492 C 0.56501 0.38314 0.28346 0.0
C1493 C 0.52899 0.32609 0.3057 0.0
C1494 C 0.51882 0.33743 0.31389 0.0
C1495 C 0.5474 0.40379 0.23492 0.0
C1496 C 0.46905 0.37148 0.22155 0.0
C1497 C 0.45888 0.35264 0.20031 0.0
C1498 C 0.44585 0.34827 0.21083 0.0
C1499 C 0.45591 0.36693 0.23174 0.0
C1500 C 0.47058 0.36412 0.20589 0.0
C1501 C 0.44446 0.35532 0.22643 0.0
C1502 C 0.54279 0.36696 0.2278 0.0
C1503 C 0.47992 0.38512 0.22665 0.0
H1504 H 0.62133 0.41358 0.26806 0.0
H1505 H 0.58847 0.37359 0.26098 0.0
H1506 H 0.61376 0.38818 0.25385 0.0
H1507 H 0.57657 0.41108 0.29674 0.0
H1508 H 0.43642 0.33976 0.20684 0.0
H1509 H 0.45432 0.37263 0.24367 0.0
H1510 H 0.48068 0.36754 0.19788 0.0
H1511 H 0.43423 0.35203 0.23429 0.0
Tb1512 Tb 0.383 0.76365 0.98291 0.0
C1513 C 0.42319 0.81854 0.01683 0.0
N1514 N 0.41933 0.80344 0.02261 0.0
C1515 C 0.4471 0.7999 0.03196 0.0
C1516 C 0.43948 0.82441 0.01705 0.0
C1517 C 0.4307 0.79464 0.03124 0.0
C1518 C 0.45163 0.81461 0.02434 0.0
C1519 C 0.41353 0.8446 1.00648 0.0
C1520 C 0.41041 0.8284 1.01174 0.0
C1521 C 0.4299 0.85015 1.00528 0.0
C1522 C 0.44288 0.84007 1.01063 0.0
Tb1523 Tb 0.39309 0.79438 0.0179 0.0
N1524 N 0.39484 0.82248 0.01337 0.0
C1525 C 0.4001 0.85487 1.00326 0.0
C1526 C 0.38179 0.83311 1.01208 0.0
C1527 C 0.38418 0.84925 1.00653 0.0
H1528 H 0.42712 0.78353 0.03754 0.0
H1529 H 0.37372 0.85736 1.00487 0.0
H1530 H 0.34965 0.77627 0.96207 0.0
H1531 H 0.39329 0.71175 0.02278 0.0
H1532 H 0.36945 0.82918 0.01506 0.0
H1533 H 0.40191 0.86739 0.99908 0.0
H1534 H 0.39929 0.73925 1.01157 0.0
H1535 H 0.4562 0.79263 0.0384 0.0
H1536 H 0.43258 0.86245 1.00093 0.0
H1537 H 0.45537 0.84472 1.01034 0.0
H1538 H 0.32332 0.76403 0.95352 0.0
H1539 H 0.46433 0.81865 0.02486 0.0
H1540 H 0.36845 0.69668 0.01376 0.0
N1541 N 0.35738 0.75514 0.97554 0.0
C1542 C 0.35358 0.73969 0.98058 0.0
C1543 C 0.33172 0.75706 0.96113 0.0
C1544 C 0.33875 0.73214 0.97575 0.0
C1545 C 0.34659 0.76404 0.96619 0.0
C1546 C 0.32785 0.74099 0.96578 0.0
N1547 N 0.37787 0.73997 0.99669 0.0
C1548 C 0.38832 0.73296 1.00772 0.0
C1549 C 0.36032 0.71605 0.99746 0.0
C1550 C 0.36421 0.73179 0.99141 0.0
C1551 C 0.37098 0.70879 1.00883 0.0
C1552 C 0.38499 0.7173 0.01402 0.0
H1553 H 0.31631 0.73563 0.96182 0.0
H1554 H 0.32382 0.71017 0.97767 0.0
H1555 H 0.34273 0.69604 0.99658 0.0
O1556 O 0.39935 0.74795 0.97048 0.0
O1557 O 0.36536 0.76312 1.00429 0.0
O1558 O 0.36563 0.78873 0.01611 0.0
O1559 O 0.37899 0.75939 0.95781 0.0
O1560 O 0.40966 0.76216 0.99079 0.0
O1561 O 0.40854 0.77115 0.01718 0.0
O1562 O 0.39524 0.80652 0.04027 0.0
O1563 O 0.40988 0.79519 0.99682 0.0
O1564 O 0.39335 0.78693 0.97559 0.0
O1565 O 0.386 0.78153 0.0393 0.0
O1566 O 0.37286 0.80326 1.00194 0.0
O1567 O 0.37227 0.78808 0.97754 0.0
C1568 C 0.35715 0.77548 1.01121 0.0
C1569 C 0.38952 0.7345 0.9469 0.0
C1570 C 0.40298 0.71537 0.92837 0.0
C1571 C 0.38767 0.7081 0.92491 0.0
C1572 C 0.37419 0.72749 0.94319 0.0
C1573 C 0.37335 0.71411 0.93241 0.0
C1574 C 0.40379 0.7282 0.93974 0.0
C1575 C 0.41743 0.76511 1.00478 0.0
C1576 C 0.39139 0.74938 0.95671 0.0
C1577 C 0.33509 0.71624 0.98136 0.0
C1578 C 0.34586 0.70821 0.99216 0.0
C1579 C 0.40632 0.7944 0.98123 0.0
C1580 C 0.37396 0.80015 0.05848 0.0
C1581 C 0.35493 0.82195 0.0667 0.0
C1582 C 0.34917 0.81193 0.0795 0.0
C1583 C 0.36825 0.79034 0.0714 0.0
C1584 C 0.36694 0.81578 0.056 0.0
C1585 C 0.35576 0.79617 0.08176 0.0
C1586 C 0.36774 0.80082 0.98669 0.0
C1587 C 0.38796 0.79476 0.0483 0.0
H1588 H 0.3867 0.69828 0.91595 0.0
H1589 H 0.36293 0.7325 0.94824 0.0
H1590 H 0.36153 0.70875 0.92944 0.0
H1591 H 0.41557 0.73385 0.94251 0.0
H1592 H 0.34003 0.81649 0.08809 0.0
H1593 H 0.37361 0.77833 0.07361 0.0
H1594 H 0.3712 0.82349 0.04603 0.0
H1595 H 0.35148 0.78862 0.09182 0.0
Tb1596 Tb 0.01359 0.39036 0.79109 0.0
C1597 C 0.95612 0.34833 0.76016 0.0
N1598 N 0.97094 0.35282 0.75396 0.0
C1599 C 0.97421 0.32593 0.74219 0.0
C1600 C 0.95054 0.33197 0.75916 0.0
C1601 C 0.97927 0.34233 0.74381 0.0
C1602 C 0.96012 0.32056 0.75045 0.0
C1603 C 0.93022 0.35675 0.7723 0.0
C1604 C 0.94599 0.36058 0.76623 0.0
C1605 C 0.92513 0.34022 0.77277 0.0
C1606 C 0.93524 0.32784 0.7661 0.0
Tb1607 Tb 0.97901 0.37929 0.75913 0.0
N1608 N 0.95147 0.37637 0.76543 0.0
C1609 C 0.91995 0.36968 0.77727 0.0
C1610 C 0.94094 0.38907 0.76888 0.0
C1611 C 0.9252 0.38592 0.7752 0.0
H1612 H 0.98987 0.3466 0.73702 0.0
H1613 H 0.9171 0.39604 0.77841 0.0
H1614 H 0.99997 0.42718 0.80482 0.0
H1615 H 0.0652 0.37326 0.75294 0.0
H1616 H 0.94456 0.40166 0.76686 0.0
H1617 H 0.90775 0.36729 0.78211 0.0
H1618 H 0.03742 0.36927 0.76478 0.0
H1619 H 0.98116 0.31748 0.73455 0.0
H1620 H 0.91315 0.33696 0.77765 0.0
H1621 H 0.93087 0.31526 0.76581 0.0
H1622 H 0.01297 0.45394 0.81047 0.0
H1623 H 0.95625 0.30786 0.74924 0.0
H1624 H 0.08059 0.39891 0.75864 0.0
N1625 N 0.0213 0.41703 0.79322 0.0
C1626 C 0.03712 0.41949 0.78837 0.0
C1627 C 0.01986 0.44438 0.80422 0.0
C1628 C 0.04505 0.43456 0.79152 0.0
C1629 C 0.01245 0.42926 0.80077 0.0
C1630 C 0.03628 0.44698 0.79976 0.0
N1631 N 0.03689 0.39277 0.77621 0.0
C1632 C 0.04384 0.38067 0.76692 0.0
C1633 C 0.06104 0.40972 0.77324 0.0
C1634 C 0.04506 0.40711 0.77935 0.0
C1635 C 0.06831 0.39736 0.76363 0.0
C1636 C 0.05963 0.38286 0.76034 0.0
H1637 H 0.04197 0.45873 0.80245 0.0
H1638 H 0.06762 0.44834 0.78841 0.0
H1639 H 0.08159 0.4267 0.77238 0.0
O1640 O 0.03325 0.38121 0.80551 0.0
O1641 O 1.01174 0.40598 0.76831 0.0
O1642 O 0.98496 0.40661 0.75995 0.0
O1643 O 0.01641 0.39934 0.81484 0.0
O1644 O 0.01378 0.36299 0.78499 0.0
O1645 O 1.00162 0.36293 0.75977 0.0
O1646 O 0.96364 0.37889 0.73877 0.0
O1647 O 0.9746 0.36682 0.78242 0.0
O1648 O 0.9957 0.37356 0.80047 0.0
O1649 O 0.98935 0.38566 0.73615 0.0
O1650 O 0.97251 0.39989 0.7754 0.0
O1651 O 0.98924 0.39967 0.79869 0.0
C1652 C 0.99897 0.41464 0.76291 0.0
C1653 C 0.0278 0.38192 0.83443 0.0
C1654 C 0.03399 0.35937 0.85292 0.0
C1655 C 0.02648 0.3681 0.86585 0.0
C1656 C 0.02054 0.39058 0.8476 0.0
C1657 C 0.01984 0.38364 0.86318 0.0
C1658 C 0.03472 0.36632 0.83721 0.0
C1659 C 1.00798 0.35442 0.77225 0.0
C1660 C 0.02877 0.38989 0.81824 0.0
C1661 C 0.06125 0.4369 0.78598 0.0
C1662 C 0.06919 0.42456 0.77682 0.0
C1663 C 0.98193 0.36625 0.79668 0.0
C1664 C 0.96956 0.39854 0.71851 0.0
C1665 C 0.94795 0.41749 0.70937 0.0
C1666 C 0.95798 0.42199 0.69603 0.0
C1667 C 0.97928 0.40315 0.70507 0.0
C1668 C 0.95399 0.40598 0.72073 0.0
C1669 C 0.97356 0.41491 0.69397 0.0
C1670 C 0.97566 0.40379 0.79083 0.0
C1671 C 0.9749 0.38475 0.72903 0.0
H1672 H 0.02628 0.36311 0.87817 0.0
H1673 H 0.01553 0.40283 0.8459 0.0
H1674 H 0.01438 0.39044 0.87327 0.0
H1675 H 0.04082 0.3597 0.82735 0.0
H1676 H 0.95359 0.43059 0.68688 0.0
H1677 H 0.99114 0.39738 0.70296 0.0
H1678 H 0.94634 0.40254 0.73108 0.0
H1679 H 0.98105 0.41826 0.68351 0.0
Tb1680 Tb 0.3811 0.26452 0.53988 0.0
C1681 C 0.42298 0.2062 0.51099 0.0
N1682 N 0.41869 0.22071 0.50407 0.0
C1683 C 0.4459 0.22336 0.4929 0.0
C1684 C 0.43928 0.20031 0.51037 0.0
C1685 C 0.42951 0.22869 0.49408 0.0
C1686 C 0.45095 0.20939 0.50154 0.0
C1687 C 0.41408 0.18112 0.52405 0.0
C1688 C 0.41056 0.19677 0.51751 0.0
C1689 C 0.43054 0.17569 0.52483 0.0
C1690 C 0.44313 0.18525 0.51789 0.0
Tb1691 Tb 0.39242 0.22986 0.50877 0.0
N1692 N 0.39486 0.20245 0.51608 0.0
C1693 C 0.40092 0.1712 0.52894 0.0
C1694 C 0.38201 0.19202 0.51908 0.0
C1695 C 0.38481 0.17651 0.52603 0.0
H1696 H 0.4255 0.23917 0.487 0.0
H1697 H 0.37453 0.16859 0.52899 0.0
H1698 H 0.3469 0.25104 0.5595 0.0
H1699 H 0.39083 0.31306 0.49623 0.0
H1700 H 0.36953 0.19563 0.51625 0.0
H1701 H 0.40306 0.15913 0.53416 0.0
H1702 H 0.39765 0.28671 0.50991 0.0
H1703 H 0.45458 0.23 0.48532 0.0
H1704 H 0.43355 0.16383 0.53008 0.0
H1705 H 0.45566 0.18062 0.51786 0.0
H1706 H 0.31961 0.26264 0.56583 0.0
H1707 H 0.46362 0.20528 0.50064 0.0
H1708 H 0.36482 0.32755 0.503 0.0
N1709 N 0.35445 0.27156 0.54498 0.0
C1710 C 0.35025 0.28646 0.53868 0.0
C1711 C 0.32812 0.26945 0.55819 0.0
C1712 C 0.33487 0.29367 0.54231 0.0
C1713 C 0.34355 0.2628 0.55436 0.0
C1714 C 0.32383 0.28503 0.55234 0.0
N1715 N 0.37539 0.28615 0.52357 0.0
C1716 C 0.38611 0.29277 0.51257 0.0
C1717 C 0.35675 0.30906 0.52031 0.0
C1718 C 0.36106 0.29401 0.52765 0.0
C1719 C 0.36765 0.31595 0.5089 0.0
C1720 C 0.38233 0.30774 0.50497 0.0
H1721 H 0.31187 0.29014 0.55536 0.0
H1722 H 0.3191 0.31478 0.53817 0.0
H1723 H 0.33826 0.32831 0.51906 0.0
O1724 O 0.39497 0.28348 0.55078 0.0
O1725 O 0.36402 0.26158 0.51815 0.0
O1726 O 0.36469 0.23464 0.51016 0.0
O1727 O 0.37428 0.27275 0.56329 0.0
O1728 O 0.4081 0.26511 0.53289 0.0
O1729 O 0.40796 0.25291 0.50776 0.0
O1730 O 0.39377 0.21484 0.48814 0.0
O1731 O 0.40848 0.23004 0.53033 0.0
O1732 O 0.39395 0.2438 0.55078 0.0
O1733 O 0.38565 0.24022 0.48598 0.0
O1734 O 0.37263 0.22319 0.52591 0.0
O1735 O 0.37256 0.24062 0.54878 0.0
C1736 C 0.35589 0.24828 0.5132 0.0
C1737 C 0.39755 0.27839 0.57895 0.0
C1738 C 0.4185 0.28734 0.59803 0.0
C1739 C 0.41796 0.2719 0.60579 0.0
C1740 C 0.39695 0.26302 0.58688 0.0
C1741 C 0.40709 0.25986 0.60028 0.0
C1742 C 0.40836 0.29044 0.58453 0.0
C1743 C 0.41646 0.26006 0.51979 0.0
C1744 C 0.38722 0.2819 0.5647 0.0
C1745 C 0.3308 0.30895 0.5354 0.0
C1746 C 0.34171 0.31664 0.52447 0.0
C1747 C 0.40546 0.23363 0.54573 0.0
C1748 C 0.37336 0.22002 0.46845 0.0
C1749 C 0.35552 0.19772 0.45916 0.0
C1750 C 0.34836 0.20839 0.44769 0.0
C1751 C 0.36624 0.23046 0.45676 0.0
C1752 C 0.36791 0.20358 0.46955 0.0
C1753 C 0.35375 0.22468 0.44649 0.0
C1754 C 0.36839 0.22696 0.54114 0.0
C1755 C 0.38718 0.22589 0.47863 0.0
H1756 H 0.4254 0.26942 0.61653 0.0
H1757 H 0.38865 0.25344 0.58278 0.0
H1758 H 0.40635 0.24814 0.60648 0.0
H1759 H 0.40868 0.30236 0.57855 0.0
H1760 H 0.33898 0.20399 0.43935 0.0
H1761 H 0.37048 0.24303 0.45543 0.0
H1762 H 0.37344 0.19515 0.47826 0.0
H1763 H 0.34842 0.23276 0.43739 0.0
Tb1764 Tb 0.50929 0.62816 0.2895 0.0
C1765 C 0.56514 0.67167 0.25865 0.0
N1766 N 0.55034 0.66735 0.25242 0.0
C1767 C 0.54677 0.69469 0.24197 0.0
C1768 C 0.57082 0.688 0.25805 0.0
C1769 C 0.54168 0.67826 0.24312 0.0
C1770 C 0.56114 0.69972 0.24996 0.0
C1771 C 0.59129 0.66263 0.2694 0.0
C1772 C 0.57519 0.6592 0.264 0.0
C1773 C 0.59654 0.67909 0.27046 0.0
C1774 C 0.58633 0.69179 0.26467 0.0
Tb1775 Tb 0.54182 0.64095 0.25718 0.0
N1776 N 0.56972 0.64356 0.26201 0.0
C1777 C 0.60184 0.64939 0.27255 0.0
C1778 C 0.58069 0.63083 0.26284 0.0
C1779 C 0.59667 0.63342 0.26876 0.0
H1780 H 0.53084 0.67428 0.23659 0.0
H1781 H 0.60507 0.62315 0.27014 0.0
H1782 H 0.52306 0.59246 0.30583 0.0
H1783 H 0.4583 0.64242 0.24988 0.0
H1784 H 0.57711 0.61872 0.25891 0.0
H1785 H 0.61429 0.65142 0.27686 0.0
H1786 H 0.48504 0.64792 0.2632 0.0
H1787 H 0.53964 0.70343 0.23491 0.0
H1788 H 0.60876 0.68205 0.27486 0.0
H1789 H 0.59083 0.70433 0.26466 0.0
H1790 H 0.5124 0.56435 0.30868 0.0
H1791 H 0.56508 0.71242 0.24904 0.0
H1792 H 0.44478 0.6154 0.25343 0.0
N1793 N 0.50244 0.60108 0.29201 0.0
C1794 C 0.4876 0.59726 0.28531 0.0
C1795 C 0.50531 0.57349 0.30209 0.0
C1796 C 0.4809 0.58138 0.28705 0.0
C1797 C 0.51141 0.58945 0.30025 0.0
C1798 C 0.48994 0.56947 0.2956 0.0
N1799 N 0.48686 0.62406 0.27359 0.0
C1800 C 0.47946 0.63598 0.26448 0.0
C1801 C 0.46424 0.60551 0.26865 0.0
C1802 C 0.47947 0.60916 0.27598 0.0
C1803 C 0.45658 0.61767 0.25918 0.0
C1804 C 0.46423 0.63293 0.25707 0.0
H1805 H 0.48523 0.55709 0.29712 0.0
H1806 H 0.46011 0.56574 0.28135 0.0
H1807 H 0.44543 0.58689 0.26546 0.0
O1808 O 0.49006 0.64003 0.30211 0.0
O1809 O 0.51128 0.6133 0.26629 0.0
O1810 O 0.53792 0.61296 0.2585 0.0
O1811 O 0.50324 0.61985 0.31307 0.0
O1812 O 0.50835 0.65571 0.28435 0.0
O1813 O 0.51873 0.65666 0.25843 0.0
O1814 O 0.55452 0.64326 0.23516 0.0
O1815 O 0.54255 0.6564 0.27927 0.0
O1816 O 0.5306 0.64057 0.29967 0.0
O1817 O 0.52972 0.63331 0.23553 0.0
O1818 O 0.55065 0.62169 0.27379 0.0
O1819 O 0.53358 0.61837 0.29673 0.0
C1820 C 0.52421 0.60446 0.26173 0.0
C1821 C 0.49629 0.64209 0.32994 0.0
C1822 C 0.48641 0.66276 0.34894 0.0
C1823 C 0.502 0.66329 0.35639 0.0
C1824 C 0.51185 0.64251 0.3375 0.0
C1825 C 0.51464 0.6531 0.35069 0.0
C1826 C 0.48372 0.65226 0.33564 0.0
C1827 C 0.51236 0.66468 0.27128 0.0
C1828 C 0.49307 0.63191 0.31553 0.0
C1829 C 0.46555 0.57783 0.27999 0.0
C1830 C 0.45721 0.58988 0.27091 0.0
C1831 C 0.54041 0.65237 0.2947 0.0
C1832 C 0.54935 0.62154 0.21694 0.0
C1833 C 0.57208 0.6039 0.20792 0.0
C1834 C 0.56137 0.59589 0.19704 0.0
C1835 C 0.53888 0.61357 0.20584 0.0
C1836 C 0.56598 0.61657 0.21793 0.0
C1837 C 0.54487 0.60076 0.19599 0.0
C1838 C 0.5474 0.61566 0.28852 0.0
C1839 C 0.54323 0.63549 0.2269 0.0
H1840 H 0.50421 0.6711 0.36695 0.0
H1841 H 0.52182 0.63471 0.33323 0.0
H1842 H 0.52652 0.6532 0.35664 0.0
H1843 H 0.47175 0.65193 0.32976 0.0
H1844 H 0.56588 0.58622 0.18902 0.0
H1845 H 0.52613 0.61735 0.20469 0.0
H1846 H 0.57436 0.62264 0.2263 0.0
H1847 H 0.53676 0.59474 0.18736 0.0
Tb1848 Tb 0.14464 0.75996 0.04056 0.0
C1849 C 0.10111 0.81719 1.01135 0.0
N1850 N 0.10595 0.80267 1.00477 0.0
C1851 C 0.07931 0.79936 0.99256 0.0
C1852 C 0.08475 0.82281 1.00995 0.0
C1853 C 0.0957 0.79433 0.99447 0.0
C1854 C 0.07365 0.81339 1.00079 0.0
C1855 C 0.1091 0.84293 0.02377 0.0
C1856 C 0.11313 0.82711 0.01785 0.0
C1857 C 0.09253 0.84806 0.02392 0.0
C1858 C 0.08037 0.83804 0.0169 0.0
Tb1859 Tb 0.13237 0.79441 1.00985 0.0
N1860 N 0.12899 0.82185 0.01666 0.0
C1861 C 0.12192 0.85337 0.02846 0.0
C1862 C 0.14149 0.83275 0.01936 0.0
C1863 C 0.1382 0.84841 0.02584 0.0
H1864 H 0.10021 0.78382 0.98766 0.0
H1865 H 0.14822 0.85673 0.02854 0.0
H1866 H 0.18121 0.77335 0.05541 0.0
H1867 H 0.12888 0.70969 1.00048 0.0
H1868 H 0.15402 0.82949 0.01644 0.0
H1869 H 0.11939 0.86559 0.0332 0.0
H1870 H 0.12442 0.73696 0.01317 0.0
H1871 H 0.0711 0.79246 0.98469 0.0
H1872 H 0.08914 0.86008 0.02864 0.0
H1873 H 0.0678 0.84249 0.01625 0.0
H1874 H 0.20855 0.76099 0.05952 0.0
H1875 H 0.06098 0.81731 0.99925 0.0
H1876 H 0.15496 0.69464 1.00524 0.0
N1877 N 0.17161 0.75257 0.04251 0.0
C1878 C 0.17469 0.73727 0.03642 0.0
C1879 C 0.19913 0.7542 0.05303 0.0
C1880 C 0.19005 0.7296 0.03894 0.0
C1881 C 0.18364 0.76127 0.05044 0.0
C1882 C 0.20227 0.73821 0.04749 0.0
N1883 N 0.14809 0.73773 0.02415 0.0
C1884 C 0.13604 0.73081 0.01485 0.0
C1885 C 0.16551 0.71393 0.02022 0.0
C1886 C 0.16256 0.72961 0.02698 0.0
C1887 C 0.15321 0.70674 1.01058 0.0
C1888 C 0.13848 0.71525 1.00781 0.0
H1889 H 0.21426 0.73274 0.04963 0.0
H1890 H 0.20446 0.70754 0.03459 0.0
H1891 H 0.18297 0.69376 0.01838 0.0
O1892 O 0.13218 0.74126 0.05362 0.0
O1893 O 0.16 0.76272 0.01766 0.0
O1894 O 0.16 0.78975 1.01052 0.0
O1895 O 0.15404 0.75235 0.06309 0.0
O1896 O 0.11719 0.75938 0.03506 0.0
O1897 O 0.11695 0.77117 1.0098 0.0
O1898 O 0.13122 0.80899 0.98903 0.0
O1899 O 0.1168 0.79401 0.03179 0.0
O1900 O 0.13261 0.7811 0.05165 0.0
O1901 O 0.13816 0.78312 0.98711 0.0
O1902 O 0.15244 0.80201 0.0266 0.0
O1903 O 0.15428 0.78393 0.04887 0.0
C1904 C 0.16847 0.77591 1.01307 0.0
C1905 C 0.13501 0.74355 0.08265 0.0
C1906 C 0.11285 0.73817 0.1019 0.0
C1907 C 0.12223 0.74524 0.11455 0.0
C1908 C 0.14436 0.75037 0.09554 0.0
C1909 C 0.13794 0.75124 0.11137 0.0
C1910 C 0.1193 0.73722 0.08599 0.0
C1911 C 0.10856 0.76427 0.02208 0.0
C1912 C 0.14214 0.74229 0.06608 0.0
C1913 C 0.19281 0.71376 0.03259 0.0
C1914 C 0.18057 0.70593 0.02331 0.0
C1915 C 0.12076 0.79111 0.0471 0.0
C1916 C 0.14764 0.80185 0.96636 0.0
C1917 C 0.16516 0.82293 0.95396 0.0
C1918 C 0.16382 0.81461 0.93882 0.0
C1919 C 0.14666 0.79376 0.95122 0.0
C1920 C 0.15731 0.81615 0.96782 0.0
C1921 C 0.15485 0.80004 0.93756 0.0
C1922 C 0.15782 0.79797 0.04143 0.0
C1923 C 0.136 0.7971 0.97935 0.0
H1924 H 0.11759 0.74563 0.12703 0.0
H1925 H 0.15672 0.75491 0.09344 0.0
H1926 H 0.14523 0.75637 0.12123 0.0
H1927 H 0.11217 0.73143 0.07635 0.0
H1928 H 0.16915 0.81962 0.92773 0.0
H1929 H 0.13896 0.78298 0.94978 0.0
H1930 H 0.15806 0.82236 0.97958 0.0
H1931 H 0.1537 0.79395 0.92579 0.0
Tb1932 Tb 0.76184 0.98078 0.64461 0.0
C1933 C 0.70368 0.012 0.60474 0.0
N1934 N 0.71861 0.01815 0.60867 0.0
C1935 C 0.72107 0.02961 0.58166 0.0
C1936 C 0.69741 0.0131 0.58869 0.0
C1937 C 0.72674 0.02798 0.5978 0.0
C1938 C 0.70659 0.02166 0.57692 0.0
C1939 C 0.67815 1.00026 0.61423 0.0
C1940 C 0.69421 1.00597 0.61733 0.0
C1941 C 0.67229 0.99982 0.59799 0.0
C1942 C 0.68189 1.00635 0.58522 0.0
Tb1943 Tb 0.72824 0.01268 0.63451 0.0
N1944 N 0.70036 1.00705 0.6328 0.0
C1945 C 0.66834 0.99576 0.62759 0.0
C1946 C 0.69011 1.00452 0.64588 0.0
C1947 C 0.6742 0.99831 0.6435 0.0
H1948 H 0.73759 0.03462 0.60159 0.0
H1949 H 0.66641 0.99566 0.65396 0.0
H1950 H 0.75225 0.96189 0.67996 0.0
H1951 H 0.80721 0.02741 0.63081 0.0
H1952 H 0.69416 1.00715 0.65819 0.0
H1953 H 0.65598 0.99111 0.62577 0.0
H1954 H 0.78104 0.01278 0.62655 0.0
H1955 H 0.72781 0.03705 0.57295 0.0
H1956 H 0.66011 0.99516 0.59528 0.0
H1957 H 0.67695 1.00671 0.57288 0.0
H1958 H 0.7669 0.95562 0.70575 0.0
H1959 H 0.70219 0.02293 0.56445 0.0
H1960 H 0.82471 0.02071 0.6547 0.0
N1961 N 0.77183 0.97634 0.67022 0.0
C1962 C 0.78694 0.98299 0.67274 0.0
C1963 C 0.77268 0.96328 0.69654 0.0
C1964 C 0.79579 0.97958 0.68719 0.0
C1965 C 0.76435 0.967 0.68202 0.0
C1966 C 0.78858 0.96936 0.69903 0.0
N1967 N 0.78333 0.99828 0.64808 0.0
C1968 C 0.7883 1.00994 0.63717 0.0
C1969 C 0.80795 1.00237 0.66419 0.0
C1970 C 0.79284 0.99441 0.66137 0.0
C1971 C 0.81315 0.01431 0.65299 0.0
C1972 C 0.80324 0.01818 0.63951 0.0
H1973 H 0.79497 0.96649 0.71033 0.0
H1974 H 0.81827 0.98442 0.7006 0.0
H1975 H 0.82898 1.00423 0.68045 0.0
O1976 O 0.78134 0.96918 0.632 0.0
O1977 O 0.75894 1.00018 0.66452 0.0
O1978 O 0.7332 0.01202 0.66227 0.0
O1979 O 0.76786 0.95654 0.65079 0.0
O1980 O 0.76224 0.98719 0.61756 0.0
O1981 O 0.75044 0.01255 0.61756 0.0
O1982 O 0.71457 0.03421 0.63367 0.0
O1983 O 0.72702 0.99106 0.61843 0.0
O1984 O 0.74072 0.97009 0.63204 0.0
O1985 O 0.74058 0.03487 0.64027 0.0
O1986 O 0.72101 0.99564 0.65423 0.0
O1987 O 0.73825 0.97259 0.65459 0.0
C1988 C 0.74618 1.00773 0.67158 0.0
C1989 C 0.77563 0.94116 0.62775 0.0
C1990 C 0.78527 0.92476 0.60472 0.0
C1991 C 0.77137 0.91455 0.60634 0.0
C1992 C 0.76181 0.93083 0.62929 0.0
C1993 C 0.75968 0.91767 0.61852 0.0
C1994 C 0.78709 0.93822 0.6153 0.0
C1995 C 0.75729 1.00023 0.60911 0.0
C1996 C 0.77832 0.95507 0.6389 0.0
C1997 C 0.81117 0.98701 0.68965 0.0
C1998 C 0.81724 0.99835 0.67819 0.0
C1999 C 0.73042 0.97546 0.62086 0.0
C2000 C 0.7227 0.05631 0.65022 0.0
C2001 C 0.7022 0.06902 0.66827 0.0
C2002 C 0.7108 0.08401 0.66701 0.0
C2003 C 0.73108 0.07132 0.64923 0.0
C2004 C 0.70854 0.05508 0.66014 0.0
C2005 C 0.72523 0.08505 0.65774 0.0
C2006 C 0.72473 0.98049 0.65892 0.0
C2007 C 0.7269 0.04331 0.63837 0.0
H2008 H 0.76983 0.90378 0.59865 0.0
H2009 H 0.75264 0.9329 0.63874 0.0
H2010 H 0.7491 0.90969 0.61979 0.0
H2011 H 0.79765 0.94628 0.61409 0.0
H2012 H 0.70609 0.09515 0.67264 0.0
H2013 H 0.74173 0.0726 0.64131 0.0
H2014 H 0.70205 0.04346 0.66085 0.0
H2015 H 0.73153 0.09672 0.65661 0.0
Tb2016 Tb 0.76539 0.97864 0.38522 0.0
C2017 C 0.81922 0.01339 0.42489 0.0
N2018 N 0.80458 0.01977 0.42013 0.0
C2019 C 0.80118 0.03232 0.44659 0.0
C2020 C 0.82478 0.01499 0.44117 0.0
C2021 C 0.7961 0.03012 0.43033 0.0
C2022 C 0.81532 0.0243 0.45219 0.0
C2023 C 0.84453 0.99962 0.41729 0.0
C2024 C 0.82898 1.00605 0.41305 0.0
C2025 C 0.84964 0.99998 0.43377 0.0
C2026 C 0.83982 1.00775 0.44569 0.0
Tb2027 Tb 0.79603 0.0134 0.39416 0.0
N2028 N 0.82351 1.0061 0.39724 0.0
C2029 C 0.85467 0.99358 0.40478 0.0
C2030 C 0.83423 1.00193 0.38489 0.0
C2031 C 0.84968 0.99516 0.38848 0.0
H2032 H 0.7853 0.03654 0.42598 0.0
H2033 H 0.85781 0.99134 0.37863 0.0
H2034 H 0.77445 0.95795 0.35085 0.0
H2035 H 0.717 0.02287 0.39809 0.0
H2036 H 0.83119 1.00386 0.37217 0.0
H2037 H 0.86668 0.98844 0.4075 0.0
H2038 H 0.74433 1.01045 0.40191 0.0
H2039 H 0.79414 0.04014 0.4548 0.0
H2040 H 0.86143 0.99485 0.43732 0.0
H2041 H 0.84418 1.00853 0.45822 0.0
H2042 H 0.75927 0.94895 0.32618 0.0
H2043 H 0.81918 0.02592 0.46481 0.0
H2044 H 0.69882 0.01305 0.37583 0.0
N2045 N 0.75413 0.97132 0.36078 0.0
C2046 C 0.73841 0.9766 0.35861 0.0
C2047 C 0.75326 0.95669 0.33522 0.0
C2048 C 0.72927 0.97167 0.34478 0.0
C2049 C 0.76186 0.96192 0.34913 0.0
C2050 C 0.7368 0.96134 0.33317 0.0
N2051 N 0.742 0.99383 0.3819 0.0
C2052 C 0.73674 1.00608 0.39209 0.0
C2053 C 0.71636 0.99502 0.36691 0.0
C2054 C 0.73212 0.98826 0.36952 0.0
C2055 C 0.71086 1.0075 0.37744 0.0
C2056 C 0.72114 0.01314 0.38997 0.0
H2057 H 0.73019 0.95729 0.32236 0.0
H2058 H 0.70592 0.97399 0.33218 0.0
H2059 H 0.69457 0.99435 0.35157 0.0
O2060 O 0.74965 0.96601 0.40116 0.0
O2061 O 0.76449 0.99754 0.36506 0.0
O2062 O 0.78811 0.01326 0.36696 0.0
O2063 O 0.76205 0.95328 0.38142 0.0
O2064 O 0.76523 0.98616 0.41199 0.0
O2065 O 0.77376 0.01273 0.41102 0.0
O2066 O 0.81126 0.03387 0.3945 0.0
O2067 O 0.79793 0.99171 0.41032 0.0
O2068 O 0.78926 0.97053 0.394 0.0
O2069 O 0.78519 0.03662 0.3893 0.0
O2070 O 0.80331 0.99858 0.3726 0.0
O2071 O 0.78913 0.97363 0.37315 0.0
C2072 C 0.7755 1.0073 0.35801 0.0
C2073 C 0.73633 0.94288 0.39021 0.0
C2074 C 0.7148 0.92678 0.40289 0.0
C2075 C 0.70999 0.92097 0.38735 0.0
C2076 C 0.73184 0.93677 0.37472 0.0
C2077 C 0.71839 0.92616 0.37329 0.0
C2078 C 0.72738 0.93835 0.40403 0.0
C2079 C 0.76827 1.00009 0.41993 0.0
C2080 C 0.75135 0.95224 0.39316 0.0
C2081 C 0.71324 0.97778 0.34262 0.0
C2082 C 0.7068 0.98941 0.35366 0.0
C2083 C 0.79787 0.9761 0.40632 0.0
C2084 C 0.80413 0.05561 0.37699 0.0
C2085 C 0.82489 0.06643 0.35805 0.0
C2086 C 0.81519 0.08066 0.35605 0.0
C2087 C 0.79473 0.06992 0.37486 0.0
C2088 C 0.81904 0.05379 0.36825 0.0
C2089 C 0.80017 0.0823 0.3643 0.0
C2090 C 0.80099 0.98325 0.3676 0.0
C2091 C 0.79959 0.04389 0.39001 0.0
H2092 H 0.7004 0.91181 0.38614 0.0
H2093 H 0.73887 0.93975 0.36388 0.0
H2094 H 0.71498 0.92135 0.36138 0.0
H2095 H 0.73104 0.94299 0.41598 0.0
H2096 H 0.81946 0.09079 0.34855 0.0
H2097 H 0.78341 0.07172 0.38171 0.0
H2098 H 0.82639 0.04275 0.36979 0.0
H2099 H 0.79296 0.09343 0.36291 0.0
Tb2100 Tb 0.78958 0.01145 0.13407 0.0
C2101 C 0.75882 0.06898 0.17508 0.0
N2102 N 0.75323 0.0536 0.17198 0.0
C2103 C 0.74596 0.05051 0.20037 0.0
C2104 C 0.75943 0.07532 0.19116 0.0
C2105 C 0.7457 0.04483 0.18414 0.0
C2106 C 0.75329 0.06564 0.20398 0.0
C2107 C 0.76783 0.09505 0.1642 0.0
C2108 C 0.76286 0.07862 0.16183 0.0
C2109 C 0.76977 0.10113 0.18026 0.0
C2110 C 0.76551 0.09128 0.19374 0.0
Tb2111 Tb 0.75611 0.0442 0.14558 0.0
N2112 N 0.76047 0.07224 0.1466 0.0
C2113 C 0.76998 0.10499 0.15037 0.0
C2114 C 0.76069 0.08246 0.13329 0.0
C2115 C 0.76596 0.09879 0.13488 0.0
H2116 H 0.73951 0.03342 0.18138 0.0
H2117 H 0.76678 0.10661 0.12418 0.0
H2118 H 0.80797 0.02423 0.09914 0.0
H2119 H 0.7491 0.96056 0.14663 0.0
H2120 H 0.75701 0.07797 0.12139 0.0
H2121 H 0.77392 0.11767 0.15161 0.0
H2122 H 0.76114 0.98796 0.15197 0.0
H2123 H 0.74044 0.04326 0.21005 0.0
H2124 H 0.77389 0.11364 0.18236 0.0
H2125 H 0.7664 0.09632 0.20603 0.0
H2126 H 0.81499 0.01168 0.07257 0.0
H2127 H 0.75346 0.07004 0.21654 0.0
H2128 H 0.75658 0.94526 0.12137 0.0
N2129 N 0.79468 1.0033 0.10779 0.0
C2130 C 0.78934 0.98784 0.1044 0.0
C2131 C 0.80775 1.00486 0.0814 0.0
C2132 C 0.79336 0.98011 0.08942 0.0
C2133 C 0.80352 0.01203 0.09644 0.0
C2134 C 0.80283 0.98877 0.07794 0.0
N2135 N 0.77466 0.98838 0.12965 0.0
C2136 C 0.76415 0.98158 0.14075 0.0
C2137 C 0.7726 0.96443 0.11223 0.0
C2138 C 0.77898 0.98014 0.11567 0.0
C2139 C 0.76175 0.95735 0.12355 0.0
C2140 C 0.75744 0.966 0.13781 0.0
H2141 H 0.80618 0.98324 0.06629 0.0
H2142 H 0.79057 0.95797 0.07485 0.0
H2143 H 0.77248 0.94421 0.09481 0.0
O2144 O 0.80286 0.99309 0.14703 0.0
O2145 O 0.76749 0.01254 0.11744 0.0
O2146 O 0.75718 0.03881 0.11818 0.0
O2147 O 0.81433 1.0079 0.12785 0.0
O2148 O 0.78321 1.01063 0.16109 0.0
O2149 O 0.75712 0.02089 0.1609 0.0
O2150 O 0.7342 0.05721 0.14837 0.0
O2151 O 0.77777 0.04483 0.1614 0.0
O2152 O 0.7985 0.03376 0.14535 0.0
O2153 O 0.73392 0.03199 0.1396 0.0
O2154 O 0.77252 0.05262 0.1255 0.0
O2155 O 0.79565 0.03549 0.12362 0.0
C2156 C 0.76132 0.02541 0.10951 0.0
C2157 C 0.83177 0.98769 0.14043 0.0
C2158 C 0.85042 0.97148 0.15695 0.0
C2159 C 0.86229 0.97224 0.14441 0.0
C2160 C 0.84375 0.98852 0.12797 0.0
C2161 C 0.85895 0.98079 0.12998 0.0
C2162 C 0.83519 0.97923 0.15496 0.0
C2163 C 0.76972 0.01466 0.16941 0.0
C2164 C 0.81608 0.99629 0.13852 0.0
C2165 C 0.78746 0.9642 0.08622 0.0
C2166 C 0.77712 0.95638 0.09759 0.0
C2167 C 0.79329 0.04244 0.15782 0.0
C2168 C 0.71339 0.05064 0.1297 0.0
C2169 C 0.703 0.07175 0.11094 0.0
C2170 C 0.68815 0.06289 0.10973 0.0
C2171 C 0.69857 0.04203 0.12818 0.0
C2172 C 0.7157 0.06532 0.12078 0.0
C2173 C 0.68607 0.04808 0.11814 0.0
C2174 C 0.78742 0.04899 0.11983 0.0
C2175 C 0.72532 0.04542 0.14224 0.0
H2176 H 0.87425 0.96651 0.14593 0.0
H2177 H 0.84138 0.99517 0.1167 0.0
H2178 H 0.86819 0.98153 0.12042 0.0
H2179 H 0.82615 0.97882 0.16478 0.0
H2180 H 0.6779 0.06759 0.10268 0.0
H2181 H 0.69648 0.03088 0.13515 0.0
H2182 H 0.72719 0.07195 0.12186 0.0
H2183 H 0.67453 0.04152 0.11724 0.0
Tb2184 Tb 0.72641 1.00974 0.896 0.0
C2185 C 0.76677 0.06281 0.85239 0.0
N2186 N 0.7717 0.0497 0.86147 0.0
C2187 C 0.7909 0.04199 0.84033 0.0
C2188 C 0.77276 0.06524 0.83632 0.0
C2189 C 0.78462 0.04015 0.85622 0.0
C2190 C 0.78461 0.05431 0.83016 0.0
C2191 C 0.75196 0.08874 0.85093 0.0
C2192 C 0.7567 0.07455 0.85969 0.0
C2193 C 0.75684 0.09054 0.83448 0.0
C2194 C 0.76726 0.07883 0.8272 0.0
Tb2195 Tb 0.75837 0.04709 0.88614 0.0
N2196 N 0.75228 0.07247 0.87565 0.0
C2197 C 0.74285 0.10091 0.8591 0.0
C2198 C 0.74422 0.08473 0.88389 0.0
C2199 C 0.73925 0.09903 0.87574 0.0
H2200 H 0.78951 0.03056 0.86403 0.0
H2201 H 0.73255 0.10853 0.88229 0.0
H2202 H 0.71051 0.01605 0.93353 0.0
H2203 H 0.77192 0.96591 0.8738 0.0
H2204 H 0.74131 0.08341 0.89659 0.0
H2205 H 0.73895 0.11198 0.8528 0.0
H2206 H 0.75483 0.99061 0.87199 0.0
H2207 H 0.80058 0.03392 0.83594 0.0
H2208 H 0.7531 0.10123 0.82748 0.0
H2209 H 0.77146 0.08071 0.81472 0.0
H2210 H 0.70946 1.00102 0.95957 0.0
H2211 H 0.78951 0.05572 0.81787 0.0
H2212 H 0.77122 0.94869 0.89875 0.0
N2213 N 0.72624 0.99855 0.92165 0.0
C2214 C 0.73436 0.98398 0.92298 0.0
C2215 C 0.71651 0.9961 0.94939 0.0
C2216 C 0.73395 0.97493 0.93773 0.0
C2217 C 0.7173 1.00468 0.93456 0.0
C2218 C 0.72479 0.98111 0.95096 0.0
N2219 N 0.74469 0.98825 0.896 0.0
C2220 C 0.75449 0.98367 0.88314 0.0
C2221 C 0.7536 0.96433 0.91128 0.0
C2222 C 0.7441 0.9788 0.90986 0.0
C2223 C 0.76371 0.95971 0.89813 0.0
C2224 C 0.76418 0.96945 0.88406 0.0
H2225 H 0.72422 0.97455 0.96251 0.0
H2226 H 0.74288 0.95315 0.95017 0.0
H2227 H 0.76005 0.94383 0.92704 0.0
O2228 O 0.71434 0.98868 0.88715 0.0
O2229 O 0.74726 0.0133 0.91468 0.0
O2230 O 0.75725 0.03995 0.91335 0.0
O2231 O 0.70184 1.00612 0.90265 0.0
O2232 O 0.73402 0.01213 0.8689 0.0
O2233 O 0.75918 0.02538 0.86893 0.0
O2234 O 0.77094 0.06525 0.89902 0.0
O2235 O 0.73367 0.05314 0.87686 0.0
O2236 O 0.71897 0.02794 0.87654 0.0
O2237 O 0.78163 0.04055 0.89496 0.0
O2238 O 0.73749 0.03865 0.89891 0.0
O2239 O 0.71506 0.03072 0.90878 0.0
C2240 C 0.7541 0.02629 0.9221 0.0
C2241 C 0.68669 0.99474 0.88119 0.0
C2242 C 0.67413 0.98509 0.85612 0.0
C2243 C 0.66264 0.99803 0.8569 0.0
C2244 C 0.67499 1.00756 0.88207 0.0
C2245 C 0.66303 1.00917 0.86992 0.0
C2246 C 0.68597 0.98339 0.86833 0.0
C2247 C 0.74678 0.0186 0.86054 0.0
C2248 C 0.7002 0.99355 0.89299 0.0
C2249 C 0.74308 0.9603 0.93897 0.0
C2250 C 0.75288 0.95503 0.92579 0.0
C2251 C 0.72151 0.04349 0.87169 0.0
C2252 C 0.79994 0.06294 0.90045 0.0
C2253 C 0.81831 0.08337 0.91195 0.0
C2254 C 0.83168 0.07594 0.90389 0.0
C2255 C 0.81329 0.05558 0.89221 0.0
C2256 C 0.80254 0.07695 0.91008 0.0
C2257 C 0.82911 0.06217 0.89389 0.0
C2258 C 0.72481 0.04301 0.90784 0.0
C2259 C 0.78361 0.05539 0.90121 0.0
H2260 H 0.65307 0.9992 0.84773 0.0
H2261 H 0.67515 0.01645 0.89199 0.0
H2262 H 0.65404 0.019 0.87064 0.0
H2263 H 0.6947 0.97327 0.86771 0.0
H2264 H 0.84401 0.08078 0.90535 0.0
H2265 H 0.81161 0.0446 0.88485 0.0
H2266 H 0.79234 0.08249 0.91676 0.0
H2267 H 0.83943 0.05643 0.88768 0.0
Tb2268 Tb 0.64003 0.76039 0.98327 0.0
C2269 C 0.60238 0.70376 0.01741 0.0
N2270 N 0.60609 0.71867 0.02383 0.0
C2271 C 0.57901 0.72052 0.03549 0.0
C2272 C 0.5864 0.6972 0.01854 0.0
C2273 C 0.59509 0.72651 0.03381 0.0
C2274 C 0.57448 0.70605 0.02737 0.0
C2275 C 0.61223 0.67868 1.00488 0.0
C2276 C 0.61512 0.69471 1.01082 0.0
C2277 C 0.59604 0.67253 1.00457 0.0
C2278 C 0.58313 0.68177 1.01148 0.0
Tb2279 Tb 0.63172 0.72893 0.01841 0.0
N2280 N 0.63056 0.70113 1.01177 0.0
C2281 C 0.62577 0.6691 1.0002 0.0
C2282 C 0.6438 0.69093 1.00938 0.0
C2283 C 0.64165 0.67507 1.00294 0.0
H2284 H 0.59879 0.73734 0.04053 0.0
H2285 H 0.65224 0.66738 1.00033 0.0
H2286 H 0.67288 0.74889 0.96126 0.0
H2287 H 0.63123 0.81007 0.02656 0.0
H2288 H 0.65608 0.69492 1.01239 0.0
H2289 H 0.62412 0.65676 0.99541 0.0
H2290 H 0.62546 0.78269 0.01483 0.0
H2291 H 0.57017 0.72703 0.04308 0.0
H2292 H 0.59351 0.66037 0.99974 0.0
H2293 H 0.57084 0.6766 1.0119 0.0
H2294 H 0.6983 0.76224 0.95131 0.0
H2295 H 0.56205 0.70142 0.02867 0.0
H2296 H 0.65445 0.8266 0.0159 0.0
N2297 N 0.66494 0.76983 0.97495 0.0
C2298 C 0.66835 0.78539 0.97996 0.0
C2299 C 0.68997 0.76888 0.95934 0.0
C2300 C 0.68259 0.79354 0.97444 0.0
C2301 C 0.67564 0.7613 0.96512 0.0
C2302 C 0.69334 0.78516 0.96381 0.0
N2303 N 0.64532 0.78358 0.99788 0.0
C2304 C 0.63569 0.78965 1.01019 0.0
C2305 C 0.66194 0.80818 0.99815 0.0
C2306 C 0.6582 0.79251 0.99183 0.0
C2307 C 0.652 0.81457 1.0107 0.0
C2308 C 0.63891 0.80523 0.01681 0.0
H2309 H 0.70444 0.79098 0.9593 0.0
H2310 H 0.69675 0.81604 0.97597 0.0
H2311 H 0.67863 0.82893 0.99661 0.0
O2312 O 0.62514 0.77769 0.97109 0.0
O2313 O 0.66145 0.75966 1.00091 0.0
O2314 O 0.65916 0.73618 0.01697 0.0
O2315 O 0.64235 0.76247 0.95775 0.0
O2316 O 0.61392 0.7619 0.9926 0.0
O2317 O 0.61496 0.7514 0.0186 0.0
O2318 O 0.63075 0.71445 0.03934 0.0
O2319 O 0.61401 0.72826 0.99813 0.0
O2320 O 0.62899 0.73722 0.97601 0.0
O2321 O 0.63797 0.74004 0.0411 0.0
O2322 O 0.65208 0.72184 1.00209 0.0
O2323 O 0.64996 0.73615 0.97742 0.0
C2324 C 0.66836 0.74847 1.01062 0.0
C2325 C 0.63509 0.78791 0.94584 0.0
C2326 C 0.62335 0.80764 0.9269 0.0
C2327 C 0.6392 0.81097 0.92074 0.0
C2328 C 0.65085 0.79104 0.93945 0.0
C2329 C 0.6529 0.8028 0.92715 0.0
C2330 C 0.62155 0.79654 0.93984 0.0
C2331 C 0.6062 0.7582 1.00646 0.0
C2332 C 0.63162 0.77423 0.95689 0.0
C2333 C 0.68596 0.80946 0.98021 0.0
C2334 C 0.67565 0.81678 0.99201 0.0
C2335 C 0.61648 0.72947 0.98233 0.0
C2336 C 0.65023 0.72058 0.05948 0.0
C2337 C 0.66955 0.69929 0.06839 0.0
C2338 C 0.67358 0.70906 0.08205 0.0
C2339 C 0.65431 0.73006 0.07325 0.0
C2340 C 0.65801 0.7052 0.05705 0.0
C2341 C 0.66601 0.72434 0.08443 0.0
C2342 C 0.65597 0.72425 0.98655 0.0
C2343 C 0.63665 0.72592 0.04875 0.0
H2344 H 0.64094 0.81928 0.91051 0.0
H2345 H 0.66145 0.78416 0.94353 0.0
H2346 H 0.66502 0.80507 0.9221 0.0
H2347 H 0.60938 0.79386 0.94465 0.0
H2348 H 0.68225 0.70467 0.09113 0.0
H2349 H 0.64821 0.74172 0.07553 0.0
H2350 H 0.6549 0.69762 0.04655 0.0
H2351 H 0.66897 0.73163 0.09515 0.0
Tb2352 Tb 1.00815 0.12839 0.79013 0.0
C2353 C 0.06434 0.17044 0.75917 0.0
N2354 N 0.04935 0.16617 0.75323 0.0
C2355 C 0.046 0.19345 0.74245 0.0
C2356 C 0.06997 0.18681 0.75859 0.0
C2357 C 0.04097 0.177 0.74354 0.0
C2358 C 0.06023 0.19853 0.7506 0.0
C2359 C 0.09069 0.16152 0.76974 0.0
C2360 C 0.07468 0.15796 0.76417 0.0
C2361 C 0.09583 0.17801 0.77077 0.0
C2362 C 0.08552 0.19065 0.76507 0.0
Tb2363 Tb 0.04143 0.13944 0.75771 0.0
N2364 N 0.0692 0.14223 0.76273 0.0
C2365 C 0.10111 0.14838 0.77367 0.0
C2366 C 0.0798 0.12939 0.76523 0.0
C2367 C 0.09575 0.13225 0.77109 0.0
H2368 H 0.03035 0.17301 0.73664 0.0
H2369 H 0.10391 0.122 0.77357 0.0
H2370 H 0.0212 0.0923 0.80473 0.0
H2371 H 0.95548 0.14515 0.75325 0.0
H2372 H 0.07598 0.11688 0.76293 0.0
H2373 H 0.11348 0.15056 0.77814 0.0
H2374 H 0.98333 0.14925 0.76441 0.0
H2375 H 0.03898 0.20214 0.73523 0.0
H2376 H 0.108 0.18105 0.77528 0.0
H2377 H 0.08994 0.20322 0.76511 0.0
H2378 H 1.00831 0.06552 0.81098 0.0
H2379 H 0.06413 0.21125 0.74974 0.0
H2380 H 0.9402 0.11956 0.75931 0.0
N2381 N 0.99982 0.10199 0.79309 0.0
C2382 C 0.984 0.09938 0.78843 0.0
C2383 C 1.00136 0.07493 0.80462 0.0
C2384 C 0.97615 0.08432 0.79182 0.0
C2385 C 1.00867 0.09004 0.80093 0.0
C2386 C 0.98498 0.0721 0.80019 0.0
N2387 N 0.98411 0.12596 0.77625 0.0
C2388 C 0.97701 0.13791 0.76691 0.0
C2389 C 0.95995 0.10891 0.77361 0.0
C2390 C 0.976 0.11162 0.77948 0.0
C2391 C 0.95253 0.12118 0.7641 0.0
C2392 C 0.96115 0.13565 0.76063 0.0
H2393 H 0.97937 0.06037 0.80305 0.0
H2394 H 0.95363 0.0704 0.78902 0.0
H2395 H 0.93946 0.09185 0.77305 0.0
O2396 O 0.9887 0.13502 0.80596 0.0
O2397 O 1.0104 0.1102 0.76912 0.0
O2398 O 0.03657 0.11164 0.75858 0.0
O2399 O 1.00958 0.12126 0.81469 0.0
O2400 O 1.00665 0.15563 0.78319 0.0
O2401 O 0.01884 0.15587 0.75795 0.0
O2402 O 0.05572 0.14084 0.73659 0.0
O2403 O 0.04723 0.14967 0.78199 0.0
O2404 O 0.02271 0.14962 0.79641 0.0
O2405 O 0.03066 0.13166 0.73542 0.0
O2406 O 0.04848 0.11912 0.77365 0.0
O2407 O 0.03274 0.12042 0.7975 0.0
C2408 C 0.02336 0.10258 0.76256 0.0
C2409 C 0.99851 0.14094 0.83258 0.0
C2410 C 0.98712 0.16262 0.84967 0.0
C2411 C 1.00185 0.16317 0.85868 0.0
C2412 C 0.01313 0.14136 0.84188 0.0
C2413 C 0.01473 0.15246 0.85485 0.0
C2414 C 0.98558 0.15157 0.83661 0.0
C2415 C 0.01189 0.16426 0.77021 0.0
C2416 C 0.99649 0.12946 0.81879 0.0
C2417 C 0.95994 0.08184 0.78644 0.0
C2418 C 0.95188 0.09407 0.77732 0.0
C2419 C 0.03815 0.15381 0.79466 0.0
C2420 C 0.05087 0.11963 0.71768 0.0
C2421 C 0.07371 0.10205 0.70896 0.0
C2422 C 0.06354 0.09504 0.69692 0.0
C2423 C 0.04093 0.11265 0.70548 0.0
C2424 C 0.0672 0.11407 0.71948 0.0
C2425 C 0.04722 0.10031 0.69525 0.0
C2426 C 0.04601 0.11618 0.78934 0.0
C2427 C 0.04469 0.13353 0.72761 0.0
H2428 H 1.00311 0.17136 0.86912 0.0
H2429 H 0.02333 0.13318 0.83917 0.0
H2430 H 0.0259 0.15262 0.86205 0.0
H2431 H 0.97415 0.15106 0.82977 0.0
H2432 H 0.06834 0.08589 0.68848 0.0
H2433 H 0.02841 0.11692 0.70372 0.0
H2434 H 0.07508 0.11935 0.72882 0.0
H2435 H 0.03955 0.09507 0.68575 0.0
Tb2436 Tb 0.87895 0.25968 0.484 0.0
C2437 C 0.924 0.31435 0.51519 0.0
N2438 N 0.91855 0.29985 0.52125 0.0
C2439 C 0.94524 0.29464 0.53271 0.0
C2440 C 0.94069 0.31888 0.51623 0.0
C2441 C 0.92855 0.29064 0.53107 0.0
C2442 C 0.95149 0.3085 0.52471 0.0
C2443 C 0.91723 0.34078 0.50347 0.0
C2444 C 0.91242 0.32516 0.50916 0.0
C2445 C 0.93406 0.34486 0.50305 0.0
C2446 C 0.94579 0.33393 0.5095 0.0
Tb2447 Tb 0.89169 0.29328 0.51583 0.0
N2448 N 0.89631 0.32068 0.51005 0.0
C2449 C 0.90494 0.35198 0.49901 0.0
C2450 C 0.88432 0.33217 0.5073 0.0
C2451 C 0.88841 0.34779 0.50133 0.0
H2452 H 0.92372 0.28006 0.53748 0.0
H2453 H 0.87881 0.35665 0.49865 0.0
H2454 H 0.84206 0.27232 0.47004 0.0
H2455 H 0.8973 0.2083 0.52162 0.0
H2456 H 0.8716 0.32938 0.50973 0.0
H2457 H 0.90808 0.36411 0.49449 0.0
H2458 H 0.90083 0.23587 0.50954 0.0
H2459 H 0.95327 0.28701 0.54007 0.0
H2460 H 0.93805 0.35669 0.49842 0.0
H2461 H 0.95863 0.33751 0.5098 0.0
H2462 H 0.81496 0.25945 0.46598 0.0
H2463 H 0.96442 0.31152 0.52589 0.0
H2464 H 0.8713 0.19305 0.51745 0.0
N2465 N 0.8523 0.25153 0.48235 0.0
C2466 C 0.84978 0.23603 0.48802 0.0
C2467 C 0.82464 0.25274 0.47218 0.0
C2468 C 0.83455 0.22812 0.48566 0.0
C2469 C 0.83998 0.26008 0.4747 0.0
C2470 C 0.82196 0.23663 0.4775 0.0
N2471 N 0.87675 0.23663 0.49943 0.0
C2472 C 0.88926 0.22963 0.50809 0.0
C2473 C 0.85991 0.2125 0.50333 0.0
C2474 C 0.86233 0.22838 0.49691 0.0
C2475 C 0.87266 0.20528 0.51235 0.0
C2476 C 0.88734 0.2139 0.5148 0.0
H2477 H 0.81007 0.23097 0.47548 0.0
H2478 H 0.82071 0.20577 0.48992 0.0
H2479 H 0.84289 0.19206 0.50526 0.0
O2480 O 0.88857 0.23998 0.4703 0.0
O2481 O 0.86313 0.26217 0.5066 0.0
O2482 O 0.86388 0.2889 0.51511 0.0
O2483 O 0.87026 0.256 0.46007 0.0
O2484 O 0.90656 0.25933 0.48878 0.0
O2485 O 0.90667 0.26982 0.51455 0.0
O2486 O 0.89293 0.30786 0.53675 0.0
O2487 O 0.90649 0.29464 0.49341 0.0
O2488 O 0.89188 0.2804 0.47355 0.0
O2489 O 0.88561 0.28216 0.53848 0.0
O2490 O 0.87199 0.30179 0.49924 0.0
O2491 O 0.86883 0.28368 0.47704 0.0
C2492 C 0.85505 0.27539 0.51187 0.0
C2493 C 0.89136 0.247 0.44255 0.0
C2494 C 0.91551 0.2388 0.42711 0.0
C2495 C 0.91331 0.2523 0.41657 0.0
C2496 C 0.88895 0.26029 0.43173 0.0
C2497 C 0.89997 0.26292 0.41883 0.0
C2498 C 0.90452 0.23623 0.43999 0.0
C2499 C 0.91524 0.26398 0.50181 0.0
C2500 C 0.88092 0.24453 0.45703 0.0
C2501 C 0.83227 0.21214 0.49175 0.0
C2502 C 0.84491 0.20435 0.50053 0.0
C2503 C 0.9029 0.29124 0.47811 0.0
C2504 C 0.87508 0.30128 0.55833 0.0
C2505 C 0.85544 0.32185 0.5683 0.0
C2506 C 0.85563 0.31412 0.58376 0.0
C2507 C 0.87506 0.29381 0.5738 0.0
C2508 C 0.86499 0.31512 0.55552 0.0
C2509 C 0.86526 0.30013 0.5864 0.0
C2510 C 0.8662 0.29788 0.48453 0.0
C2511 C 0.88759 0.29617 0.54628 0.0
H2512 H 0.92152 0.25425 0.40626 0.0
H2513 H 0.87874 0.26875 0.43331 0.0
H2514 H 0.89813 0.27314 0.41052 0.0
H2515 H 0.90626 0.22577 0.44807 0.0
H2516 H 0.84884 0.31923 0.59403 0.0
H2517 H 0.88307 0.28343 0.57629 0.0
H2518 H 0.86512 0.32104 0.54361 0.0
H2519 H 0.86557 0.29452 0.59843 0.0
Tb2520 Tb 0.54378 0.88137 0.75746 0.0
C2521 C 0.48791 0.91938 0.79522 0.0
N2522 N 0.50359 0.91633 0.80011 0.0
C2523 C 0.50422 0.94184 0.81492 0.0
C2524 C 0.47959 0.93374 0.80033 0.0
C2525 C 0.512 0.92746 0.80949 0.0
C2526 C 0.48786 0.94489 0.81052 0.0
C2527 C 0.46509 0.91223 0.77745 0.0
C2528 C 0.48082 0.90875 0.7838 0.0
C2529 C 0.45637 0.92609 0.78317 0.0
C2530 C 0.46361 0.93681 0.79456 0.0
Tb2531 Tb 0.5131 0.891 0.79296 0.0
N2532 N 0.48985 0.89568 0.77817 0.0
C2533 C 0.45876 0.90187 0.76528 0.0
C2534 C 0.48382 0.88568 0.76618 0.0
C2535 C 0.46821 0.88865 0.75953 0.0
H2536 H 0.52451 0.925 0.81328 0.0
H2537 H 0.46343 0.88066 0.75004 0.0
H2538 H 0.53603 0.84684 0.73775 0.0
H2539 H 0.60507 0.90445 0.77274 0.0
H2540 H 0.49082 0.87538 0.76173 0.0
H2541 H 0.44669 0.90411 0.76007 0.0
H2542 H 0.57733 0.90684 0.76063 0.0
H2543 H 0.51079 0.95051 0.82258 0.0
H2544 H 0.44418 0.92886 0.77853 0.0
H2545 H 0.45692 0.9477 0.79847 0.0
H2546 H 0.54691 0.81825 0.7374 0.0
H2547 H 0.4819 0.95609 0.8147 0.0
H2548 H 0.61628 0.87704 0.77999 0.0
N2549 N 0.55491 0.85582 0.75318 0.0
C2550 C 0.56992 0.85284 0.75972 0.0
C2551 C 0.55338 0.82781 0.74403 0.0
C2552 C 0.57676 0.83692 0.75991 0.0
C2553 C 0.54709 0.84388 0.74443 0.0
C2554 C 0.56806 0.82419 0.75224 0.0
N2555 N 0.57187 0.8813 0.76312 0.0
C2556 C 0.58178 0.89487 0.76432 0.0
C2557 C 0.59468 0.86403 0.77148 0.0
C2558 C 0.57864 0.86615 0.76529 0.0
C2559 C 0.60395 0.87806 0.77503 0.0
C2560 C 0.59766 0.89354 0.77093 0.0
H2561 H 0.57289 0.81175 0.75199 0.0
H2562 H 0.5976 0.82226 0.76787 0.0
H2563 H 0.61333 0.84608 0.77817 0.0
O2564 O 0.55657 0.87906 0.73546 0.0
O2565 O 0.54428 0.86392 0.77767 0.0
O2566 O 0.53606 0.87909 0.80001 0.0
O2567 O 0.53152 0.88823 0.73562 0.0
O2568 O 0.5515 0.9014 0.77382 0.0
O2569 O 0.53726 0.90103 0.79869 0.0
O2570 O 0.49495 0.87797 0.80631 0.0
O2571 O 0.51358 0.91131 0.77416 0.0
O2572 O 0.5376 0.90895 0.75897 0.0
O2573 O 0.51174 0.89511 0.81827 0.0
O2574 O 0.51131 0.86459 0.78486 0.0
O2575 O 0.52126 0.8647 0.75848 0.0
C2576 C 0.54497 0.86751 0.7932 0.0
C2577 C 0.55085 0.90038 0.71712 0.0
C2578 C 0.57296 0.91912 0.70908 0.0
C2579 C 0.56269 0.92567 0.69686 0.0
C2580 C 0.54085 0.90692 0.70475 0.0
C2581 C 0.54672 0.91959 0.69476 0.0
C2582 C 0.56684 0.90672 0.71933 0.0
C2583 C 0.54936 0.906 0.78923 0.0
C2584 C 0.5451 0.88635 0.72706 0.0
C2585 C 0.59222 0.83446 0.76723 0.0
C2586 C 0.60116 0.84802 0.77311 0.0
C2587 C 0.52515 0.91819 0.76492 0.0
C2588 C 0.49195 0.88207 0.83581 0.0
C2589 C 0.47382 0.866 0.85284 0.0
C2590 C 0.47794 0.87577 0.86646 0.0
C2591 C 0.49611 0.89184 0.84945 0.0
C2592 C 0.48084 0.86909 0.83758 0.0
C2593 C 0.48909 0.88866 0.86474 0.0
C2594 C 0.51445 0.8565 0.77103 0.0
C2595 C 0.49954 0.88507 0.81988 0.0
H2596 H 0.56718 0.93508 0.68861 0.0
H2597 H 0.52859 0.9021 0.70271 0.0
H2598 H 0.53899 0.92451 0.68513 0.0
H2599 H 0.57478 0.9018 0.7288 0.0
H2600 H 0.47266 0.87326 0.87842 0.0
H2601 H 0.50479 0.90188 0.84832 0.0
H2602 H 0.47775 0.86131 0.8272 0.0
H2603 H 0.49236 0.89612 0.87526 0.0
Tb2604 Tb 0.01317 0.13178 0.29604 0.0
C2605 C 0.98431 0.17462 0.24089 0.0
N2606 N 0.9783 0.17077 0.256 0.0
C2607 C 0.96676 0.19781 0.25882 0.0
C2608 C 0.98139 0.19023 0.23398 0.0
C2609 C 0.9699 0.18215 0.26519 0.0
C2610 C 0.97231 0.2018 0.24307 0.0
C2611 C 1.00181 0.16726 0.21776 0.0
C2612 C 0.99451 0.16323 0.23288 0.0
C2613 C 0.99834 0.18257 0.2105 0.0
C2614 C 0.98817 0.19401 0.21858 0.0
Tb2615 Tb 0.98157 0.14376 0.26227 0.0
N2616 N 0.99795 0.1486 0.24042 0.0
C2617 C 0.01255 0.15585 0.21049 0.0
C2618 C 1.00827 0.13739 0.23342 0.0
C2619 C 0.01585 0.14091 0.21838 0.0
H2620 H 0.96503 0.17904 0.27711 0.0
H2621 H 0.02408 0.13203 0.21277 0.0
H2622 H 0.03125 0.09681 0.2848 0.0
H2623 H 0.99677 0.15207 0.35758 0.0
H2624 H 1.01042 0.12566 0.2392 0.0
H2625 H 0.01842 0.15848 0.19883 0.0
H2626 H 1.00722 0.15599 0.32947 0.0
H2627 H 0.95989 0.20674 0.26597 0.0
H2628 H 1.00372 0.18583 0.19878 0.0
H2629 H 0.98596 0.2059 0.213 0.0
H2630 H 0.03184 0.068 0.29434 0.0
H2631 H 0.96986 0.21396 0.23821 0.0
H2632 H 0.99257 0.12397 0.36848 0.0
N2633 N 0.0169 0.10536 0.30497 0.0
C2634 C 1.01139 0.10189 0.32028 0.0
C2635 C 0.02576 0.07736 0.30165 0.0
C2636 C 1.01166 0.08572 0.32644 0.0
C2637 C 0.02513 0.09365 0.29613 0.0
C2638 C 0.01858 0.07327 0.3167 0.0
N2639 N 1.00738 0.13034 0.32373 0.0
C2640 C 1.00496 0.14363 0.3338 0.0
C2641 C 1.00087 0.11203 0.34617 0.0
C2642 C 1.00624 0.11487 0.32997 0.0
C2643 C 0.99689 0.1256 0.356 0.0
C2644 C 0.99926 0.14148 0.34988 0.0
H2645 H 0.01908 0.06066 0.32096 0.0
H2646 H 1.00536 0.07027 0.34717 0.0
H2647 H 0.99575 0.09333 0.36444 0.0
O2648 O 0.0343 0.12983 0.31025 0.0
O2649 O 0.99114 0.11609 0.29724 0.0
O2650 O 0.9707 0.12926 0.28214 0.0
O2651 O 0.03594 0.13766 0.28486 0.0
O2652 O 0.99638 0.15177 0.30269 0.0
O2653 O 0.97279 0.15151 0.28638 0.0
O2654 O 0.96975 0.13238 0.24232 0.0
O2655 O 1.00423 0.15982 0.26491 0.0
O2656 O 0.0122 0.15961 0.29166 0.0
O2657 O 0.95813 0.1521 0.25567 0.0
O2658 O 0.98752 0.11661 0.26134 0.0
O2659 O 0.01299 0.11694 0.27263 0.0
C2660 C 0.97569 0.11819 0.29288 0.0
C2661 C 0.05527 0.14864 0.30414 0.0
C2662 C 0.06546 0.16753 0.32519 0.0
C2663 C 0.07912 0.17098 0.31514 0.0
C2664 C 0.06904 0.15219 0.29439 0.0
C2665 C 0.08086 0.16335 0.29986 0.0
C2666 C 0.05351 0.1564 0.31958 0.0
C2667 C 0.98078 0.15521 0.29988 0.0
C2668 C 0.04378 0.13568 0.29879 0.0
C2669 C 1.00552 0.08266 0.34227 0.0
C2670 C 1.00007 0.0958 0.35211 0.0
C2671 C 1.00949 0.16819 0.27792 0.0
C2672 C 0.94127 0.13064 0.2468 0.0
C2673 C 0.92413 0.10865 0.23662 0.0
C2674 C 0.91416 0.10985 0.2507 0.0
C2675 C 0.93099 0.13216 0.26068 0.0
C2676 C 0.93764 0.11902 0.23475 0.0
C2677 C 0.91755 0.12168 0.26262 0.0
C2678 C 1.00061 0.10827 0.26635 0.0
C2679 C 0.95616 0.14056 0.2449 0.0
H2680 H 0.08865 0.17931 0.31928 0.0
H2681 H 0.07079 0.1461 0.28267 0.0
H2682 H 0.09156 0.1659 0.29235 0.0
H2683 H 0.04301 0.15369 0.32734 0.0
H2684 H 0.90343 0.10208 0.25215 0.0
H2685 H 0.93352 0.14109 0.27022 0.0
H2686 H 0.94529 0.11808 0.22385 0.0
H2687 H 0.90975 0.12273 0.27337 0.0
Tb2688 Tb 0.54464 0.14278 0.76597 0.0
C2689 C 0.4899 0.09866 0.73906 0.0
N2690 N 0.50458 0.10271 0.7321 0.0
C2691 C 0.50767 0.07519 0.72177 0.0
C2692 C 0.48337 0.08271 0.73732 0.0
C2693 C 0.51357 0.09124 0.72359 0.0
C2694 C 0.49246 0.07093 0.72854 0.0
C2695 C 0.46652 0.10664 0.75597 0.0
C2696 C 0.48168 0.11046 0.74852 0.0
C2697 C 0.45967 0.09092 0.75374 0.0
C2698 C 0.46812 0.07896 0.74454 0.0
Tb2699 Tb 0.51106 0.12988 0.73459 0.0
N2700 N 0.48886 0.12547 0.75082 0.0
C2701 C 0.45871 0.11875 0.76547 0.0
C2702 C 0.4813 0.13735 0.75993 0.0
C2703 C 0.46614 0.13414 0.76748 0.0
H2704 H 0.52506 0.09444 0.71776 0.0
H2705 H 0.46008 0.1436 0.77466 0.0
H2706 H 0.5326 0.17564 0.78686 0.0
H2707 H 0.60769 0.1277 0.74883 0.0
H2708 H 0.48667 0.1494 0.76109 0.0
H2709 H 0.44695 0.11635 0.7713 0.0
H2710 H 0.58037 0.1217 0.76067 0.0
H2711 H 0.51478 0.06617 0.71497 0.0
H2712 H 0.44794 0.0878 0.75927 0.0
H2713 H 0.4628 0.06682 0.74317 0.0
H2714 H 0.54029 0.20506 0.78869 0.0
H2715 H 0.48789 0.05851 0.727 0.0
H2716 H 0.6158 0.15654 0.74335 0.0
N2717 N 0.55206 0.16956 0.77047 0.0
C2718 C 0.5666 0.17446 0.76402 0.0
C2719 C 0.54763 0.19665 0.78137 0.0
C2720 C 0.57162 0.19102 0.76471 0.0
C2721 C 0.54318 0.18005 0.78014 0.0
C2722 C 0.56164 0.20229 0.77314 0.0
N2723 N 0.57213 0.14653 0.75969 0.0
C2724 C 0.58339 0.13419 0.7575 0.0
C2725 C 0.59273 0.16663 0.75219 0.0
C2726 C 0.57698 0.16245 0.7581 0.0
C2727 C 0.6036 0.1539 0.74806 0.0
C2728 C 0.59906 0.13761 0.75114 0.0
H2729 H 0.56507 0.21514 0.7741 0.0
H2730 H 0.59081 0.20821 0.75786 0.0
H2731 H 0.60929 0.18681 0.74665 0.0
O2732 O 0.55885 0.1445 0.78705 0.0
O2733 O 0.54437 0.1582 0.74398 0.0
O2734 O 0.53228 0.14203 0.72395 0.0
O2735 O 0.53315 0.13706 0.78852 0.0
O2736 O 0.55305 0.12276 0.74952 0.0
O2737 O 0.53548 0.12044 0.72686 0.0
O2738 O 0.49185 0.14222 0.72249 0.0
O2739 O 0.51349 0.11566 0.75804 0.0
O2740 O 0.54039 0.11504 0.76498 0.0
O2741 O 0.50412 0.12159 0.71122 0.0
O2742 O 0.51014 0.15731 0.74003 0.0
O2743 O 0.52086 0.15739 0.76567 0.0
C2744 C 0.54193 0.15408 0.72862 0.0
C2745 C 0.55188 0.12702 0.80872 0.0
C2746 C 0.57189 0.10701 0.81883 0.0
C2747 C 0.56421 0.10775 0.83434 0.0
C2748 C 0.54441 0.1275 0.82421 0.0
C2749 C 0.5505 0.11782 0.83693 0.0
C2750 C 0.56543 0.11652 0.80596 0.0
C2751 C 0.54952 0.11734 0.73456 0.0
C2752 C 0.54699 0.13929 0.79649 0.0
C2753 C 0.58681 0.19549 0.75776 0.0
C2754 C 0.59733 0.1833 0.7514 0.0
C2755 C 0.52648 0.10677 0.7623 0.0
C2756 C 0.49723 0.14391 0.69435 0.0
C2757 C 0.48802 0.16569 0.67623 0.0
C2758 C 0.50295 0.16458 0.6675 0.0
C2759 C 0.51204 0.14273 0.68541 0.0
C2760 C 0.48534 0.15541 0.68972 0.0
C2761 C 0.51486 0.15309 0.67207 0.0
C2762 C 0.51435 0.16586 0.75327 0.0
C2763 C 0.49424 0.13393 0.709 0.0
H2764 H 0.56914 0.10101 0.84468 0.0
H2765 H 0.53422 0.1358 0.82662 0.0
H2766 H 0.54491 0.1185 0.84898 0.0
H2767 H 0.57129 0.11623 0.79399 0.0
H2768 H 0.50515 0.17215 0.65679 0.0
H2769 H 0.52145 0.13389 0.68874 0.0
H2770 H 0.47392 0.1563 0.69661 0.0
H2771 H 0.5262 0.15208 0.66514 0.0
Tb2772 Tb 0.13025 0.29303 0.01768 0.0
C2773 C 0.17141 0.23564 0.98726 0.0
N2774 N 0.16801 0.25109 0.9819 0.0
C2775 C 0.1946 0.25293 0.96924 0.0
C2776 C 0.18663 0.22812 0.98359 0.0
C2777 C 0.17936 0.25992 0.97318 0.0
C2778 C 0.1982 0.2369 0.97431 0.0
C2779 C 0.16339 0.21203 1.00364 0.0
C2780 C 0.15985 0.22768 0.9972 0.0
C2781 C 0.17837 0.20427 0.99959 0.0
C2782 C 0.18992 0.21227 0.98957 0.0
Tb2783 Tb 0.14135 0.25833 0.98577 0.0
N2784 N 0.14538 0.23549 1.00086 0.0
C2785 C 0.15176 0.20468 0.014 0.0
C2786 C 0.13397 0.22847 1.01087 0.0
C2787 C 0.13707 0.21297 0.01772 0.0
H2788 H 0.17652 0.27207 0.96867 0.0
H2789 H 0.12803 0.20731 0.02567 0.0
H2790 H 0.09712 0.28181 0.03905 0.0
H2791 H 0.14702 0.35498 0.99934 0.0
H2792 H 0.12244 0.23461 0.01334 0.0
H2793 H 0.15402 0.19264 0.01923 0.0
H2794 H 0.15266 0.32719 1.00998 0.0
H2795 H 0.20348 0.25983 0.96212 0.0
H2796 H 0.18123 0.19214 1.00429 0.0
H2797 H 0.20149 0.20621 0.98677 0.0
H2798 H 0.06793 0.29043 0.04107 0.0
H2799 H 0.21002 0.23152 0.9712 0.0
H2800 H 0.11828 0.36457 0.99586 0.0
N2801 N 0.10365 0.30106 0.02268 0.0
C2802 C 0.0992 0.316 0.01675 0.0
C2803 C 0.07651 0.29754 0.0338 0.0
C2804 C 0.0828 0.32158 0.01761 0.0
C2805 C 0.09298 0.29253 0.0324 0.0
C2806 C 0.07125 0.31183 0.02583 0.0
N2807 N 0.1273 0.32056 1.01162 0.0
C2808 C 0.14003 0.33103 1.0083 0.0
C2809 C 0.10769 0.342 1.00513 0.0
C2810 C 0.1115 0.32614 1.01091 0.0
C2811 C 0.12065 0.35229 1.00044 0.0
C2812 C 0.1369 0.34691 1.00239 0.0
H2813 H 0.0585 0.31567 0.02688 0.0
H2814 H 0.0661 0.34138 1.01116 0.0
H2815 H 0.08791 0.35923 0.99998 0.0
O2816 O 0.13003 0.30867 0.0379 0.0
O2817 O 0.11679 0.29696 0.99473 0.0
O2818 O 0.12432 0.27626 0.97644 0.0
O2819 O 0.13674 0.28293 0.04073 0.0
O2820 O 0.14993 0.29946 1.00071 0.0
O2821 O 0.14985 0.28235 0.97764 0.0
O2822 O 0.13236 0.23777 0.97247 0.0
O2823 O 0.15877 0.26114 1.00722 0.0
O2824 O 0.15799 0.28786 0.01615 0.0
O2825 O 0.14786 0.25661 0.96101 0.0
O2826 O 0.11424 0.25783 0.99235 0.0
O2827 O 0.11442 0.27016 0.01745 0.0
C2828 C 0.11646 0.28977 0.98033 0.0
C2829 C 0.14816 0.30271 0.05954 0.0
C2830 C 0.16674 0.32403 0.07012 0.0
C2831 C 0.16772 0.31519 0.08496 0.0
C2832 C 0.14966 0.29412 0.07433 0.0
C2833 C 0.15945 0.3003 0.08692 0.0
C2834 C 0.15699 0.31753 0.05733 0.0
C2835 C 0.15309 0.29622 0.98518 0.0
C2836 C 0.13538 0.29739 0.04785 0.0
C2837 C 0.07871 0.33699 1.01095 0.0
C2838 C 0.09115 0.34717 1.00465 0.0
C2839 C 0.1668 0.27431 1.01262 0.0
C2840 C 0.14006 0.23414 0.94381 0.0
C2841 C 0.12472 0.22106 0.92219 0.0
C2842 C 0.13894 0.22049 0.91238 0.0
C2843 C 0.15429 0.23381 0.93398 0.0
C2844 C 0.12532 0.2277 0.93792 0.0
C2845 C 0.15373 0.22683 0.91832 0.0
C2846 C 0.10581 0.26369 1.00511 0.0
C2847 C 0.13996 0.2429 0.95934 0.0
H2848 H 0.17453 0.31994 0.09533 0.0
H2849 H 0.14275 0.28292 0.07638 0.0
H2850 H 0.16023 0.29377 0.09845 0.0
H2851 H 0.15592 0.32415 0.04586 0.0
H2852 H 0.13846 0.21549 0.90005 0.0
H2853 H 0.16571 0.23911 0.93833 0.0
H2854 H 0.11417 0.2285 0.94526 0.0
H2855 H 0.16465 0.22663 0.91068 0.0
Tb2856 Tb 0.39033 0.72801 0.51733 0.0
C2857 C 0.35292 0.78802 0.48543 0.0
N2858 N 0.35504 0.77257 0.47955 0.0
C2859 C 0.32868 0.77363 0.46636 0.0
C2860 C 0.33848 0.79701 0.48193 0.0
C2861 C 0.34312 0.76514 0.47031 0.0
C2862 C 0.3264 0.7897 0.47207 0.0
C2863 C 0.36248 0.80993 0.50313 0.0
C2864 C 0.36487 0.79436 0.49582 0.0
C2865 C 0.34832 0.81918 0.49934 0.0
C2866 C 0.33638 0.81275 0.48872 0.0
Tb2867 Tb 0.38022 0.76132 0.48401 0.0
N2868 N 0.37844 0.78501 0.49925 0.0
C2869 C 0.37425 0.81565 0.51423 0.0
C2870 C 0.3898 0.7905 0.51029 0.0
C2871 C 0.38786 0.80583 0.51792 0.0
H2872 H 0.34484 0.75273 0.4658 0.0
H2873 H 0.39695 0.8101 0.52664 0.0
H2874 H 0.42232 0.74031 0.54013 0.0
H2875 H 0.37867 0.66548 0.49716 0.0
H2876 H 0.4004 0.78335 0.51339 0.0
H2877 H 0.37284 0.82752 0.52017 0.0
H2878 H 0.37097 0.6924 0.50882 0.0
H2879 H 0.31934 0.76778 0.45892 0.0
H2880 H 0.34637 0.83122 0.50475 0.0
H2881 H 0.32542 0.81991 0.48613 0.0
H2882 H 0.45187 0.73343 0.54259 0.0
H2883 H 0.31514 0.79622 0.46908 0.0
H2884 H 0.40805 0.65816 0.49346 0.0
N2885 N 0.41769 0.72211 0.52186 0.0
C2886 C 0.42331 0.70777 0.51532 0.0
C2887 C 0.44408 0.72637 0.53445 0.0
C2888 C 0.44002 0.70318 0.51643 0.0
C2889 C 0.42738 0.7304 0.5328 0.0
C2890 C 0.45061 0.71313 0.52561 0.0
N2891 N 0.39568 0.70099 0.51046 0.0
C2892 C 0.38381 0.68966 0.50682 0.0
C2893 C 0.41687 0.68129 0.50328 0.0
C2894 C 0.41187 0.69674 0.50942 0.0
C2895 C 0.40474 0.67014 0.49834 0.0
C2896 C 0.38814 0.67424 0.50042 0.0
H2897 H 0.46352 0.71001 0.52692 0.0
H2898 H 0.45815 0.68466 0.50982 0.0
H2899 H 0.43786 0.66564 0.49785 0.0
O2900 O 0.39053 0.71112 0.53652 0.0
O2901 O 0.39812 0.7215 0.49241 0.0
O2902 O 0.40179 0.74637 0.47971 0.0
O2903 O 0.38467 0.73678 0.54108 0.0
O2904 O 0.36931 0.72095 0.50198 0.0
O2905 O 0.37014 0.737 0.47823 0.0
O2906 O 0.38687 0.77976 0.46703 0.0
O2907 O 0.35944 0.75845 0.502 0.0
O2908 O 0.36291 0.73501 0.51793 0.0
O2909 O 0.3749 0.75747 0.45933 0.0
O2910 O 0.40714 0.7624 0.49189 0.0
O2911 O 0.40623 0.7509 0.51738 0.0
C2912 C 0.40365 0.73046 0.4803 0.0
C2913 C 0.3733 0.71672 0.55911 0.0
C2914 C 0.35359 0.69642 0.5689 0.0
C2915 C 0.3519 0.70537 0.58359 0.0
C2916 C 0.37159 0.72542 0.57389 0.0
C2917 C 0.36088 0.71978 0.58605 0.0
C2918 C 0.36425 0.70217 0.55665 0.0
C2919 C 0.36534 0.72396 0.48653 0.0
C2920 C 0.38593 0.72199 0.54734 0.0
C2921 C 0.4453 0.68824 0.50943 0.0
C2922 C 0.43372 0.67736 0.50273 0.0
C2923 C 0.35329 0.74714 0.51199 0.0
C2924 C 0.39386 0.76834 0.44091 0.0
C2925 C 0.41804 0.77665 0.42546 0.0
C2926 C 0.41512 0.76394 0.41412 0.0
C2927 C 0.39087 0.75592 0.42921 0.0
C2928 C 0.4075 0.77866 0.43896 0.0
C2929 C 0.4015 0.75373 0.41596 0.0
C2930 C 0.41516 0.75747 0.50535 0.0
C2931 C 0.38224 0.77078 0.45458 0.0
H2932 H 0.34397 0.70095 0.59333 0.0
H2933 H 0.3788 0.73639 0.57617 0.0
H2934 H 0.35977 0.72643 0.59752 0.0
H2935 H 0.36568 0.69514 0.5454 0.0
H2936 H 0.42279 0.76254 0.4033 0.0
H2937 H 0.3802 0.74801 0.43019 0.0
H2938 H 0.40959 0.78867 0.44751 0.0
H2939 H 0.39885 0.74445 0.40682 0.0
Tb2940 Tb 0.79629 0.50888 0.89387 0.0
C2941 C 0.73978 0.53371 0.85177 0.0
N2942 N 0.75451 0.54081 0.85531 0.0
C2943 C 0.75664 0.55096 0.82776 0.0
C2944 C 0.73273 0.5353 0.83607 0.0
C2945 C 0.76309 0.54925 0.84356 0.0
C2946 C 0.74133 0.54411 0.82404 0.0
C2947 C 0.71698 0.51643 0.86043 0.0
C2948 C 0.73209 0.52417 0.86381 0.0
C2949 C 0.7096 0.51856 0.84498 0.0
C2950 C 0.71748 0.52789 0.83283 0.0
Tb2951 Tb 0.76136 0.53913 0.88234 0.0
N2952 N 0.73973 0.52207 0.8786 0.0
C2953 C 0.70979 0.50674 0.87269 0.0
C2954 C 0.7328 0.51273 0.8906 0.0
C2955 C 0.71776 0.50483 0.88778 0.0
H2956 H 0.77465 0.55511 0.84639 0.0
H2957 H 0.71218 0.49746 0.89733 0.0
H2958 H 0.78585 0.48589 0.92563 0.0
H2959 H 0.85823 0.52809 0.87737 0.0
H2960 H 0.73859 0.51166 0.90244 0.0
H2961 H 0.69811 0.50067 0.87061 0.0
H2962 H 0.83096 0.51604 0.87178 0.0
H2963 H 0.76339 0.55773 0.81852 0.0
H2964 H 0.69788 0.51284 0.84223 0.0
H2965 H 0.71175 0.52917 0.8209 0.0
H2966 H 0.79486 0.48221 0.9544 0.0
H2967 H 0.73634 0.54556 0.8118 0.0
H2968 H 0.86758 0.53169 0.90607 0.0
N2969 N 0.80492 0.50277 0.91986 0.0
C2970 C 0.8196 0.509 0.92454 0.0
C2971 C 0.80178 0.49009 0.94623 0.0
C2972 C 0.8254 0.50724 0.94071 0.0
C2973 C 0.79656 0.4924 0.93002 0.0
C2974 C 0.81601 0.49799 0.95176 0.0
N2975 N 0.82382 0.51523 0.89687 0.0
C2976 C 0.83445 0.51848 0.88427 0.0
C2977 C 0.8452 0.52167 0.91645 0.0
C2978 C 0.82938 0.51579 0.91257 0.0
C2979 C 0.85537 0.52693 0.90364 0.0
C2980 C 0.85012 0.52492 0.88744 0.0
H2981 H 0.82005 0.49618 0.9643 0.0
H2982 H 0.84527 0.51312 0.95742 0.0
H2983 H 0.86257 0.52608 0.93617 0.0
O2984 O 0.81085 0.48786 0.89396 0.0
O2985 O 0.79708 0.53081 0.90968 0.0
O2986 O 0.78145 0.55048 0.89611 0.0
O2987 O 0.7848 0.48637 0.88767 0.0
O2988 O 0.80332 0.52615 0.8743 0.0
O2989 O 0.78504 0.54837 0.87337 0.0
O2990 O 0.74103 0.55096 0.89321 0.0
O2991 O 0.7647 0.51613 0.86711 0.0
O2992 O 0.79183 0.51019 0.86615 0.0
O2993 O 0.7544 0.56229 0.8735 0.0
O2994 O 0.76088 0.53386 0.90971 0.0
O2995 O 0.77356 0.50889 0.91019 0.0
C2996 C 0.7924 0.54611 0.90723 0.0
C2997 C 0.80333 0.46608 0.87654 0.0
C2998 C 0.82358 0.45442 0.85743 0.0
C2999 C 0.81468 0.43954 0.85761 0.0
C3000 C 0.79468 0.4512 0.87636 0.0
C3001 C 0.80029 0.43805 0.86686 0.0
C3002 C 0.81762 0.46777 0.8668 0.0
C3003 C 0.79915 0.54119 0.86968 0.0
C3004 C 0.79886 0.47844 0.88902 0.0
C3005 C 0.84069 0.51404 0.94498 0.0
C3006 C 0.85055 0.52138 0.93287 0.0
C3007 C 0.77772 0.51232 0.85803 0.0
C3008 C 0.74476 0.57955 0.89445 0.0
C3009 C 0.73489 0.59607 0.91714 0.0
C3010 C 0.74798 0.60712 0.9148 0.0
C3011 C 0.75749 0.59098 0.89172 0.0
C3012 C 0.7334 0.58232 0.907 0.0
C3013 C 0.75917 0.6046 0.90204 0.0
C3014 C 0.76644 0.52122 0.91846 0.0
C3015 C 0.7434 0.56438 0.88482 0.0
H3016 H 0.81911 0.4288 0.85105 0.0
H3017 H 0.78393 0.44955 0.88407 0.0
H3018 H 0.79376 0.42646 0.86709 0.0
H3019 H 0.82438 0.47926 0.86698 0.0
H3020 H 0.74913 0.61802 0.92239 0.0
H3021 H 0.76642 0.5892 0.88199 0.0
H3022 H 0.72329 0.57381 0.90886 0.0
H3023 H 0.7691 0.61325 0.90009 0.0
Tb3024 Tb 0.72815 0.50905 0.13245 0.0
C3025 C 0.78406 0.53467 0.17495 0.0
N3026 N 0.76914 0.54147 0.17148 0.0
C3027 C 0.76653 0.55104 0.19923 0.0
C3028 C 0.79094 0.53609 0.19075 0.0
C3029 C 0.76024 0.54948 0.18335 0.0
C3030 C 0.78201 0.54448 0.20291 0.0
C3031 C 0.80728 0.5179 0.16612 0.0
C3032 C 0.79204 0.52546 0.16277 0.0
C3033 C 0.81446 0.51982 0.1817 0.0
C3034 C 0.80628 0.52881 0.19398 0.0
Tb3035 Tb 0.76232 0.53997 0.14446 0.0
N3036 N 0.78457 0.52351 0.14788 0.0
C3037 C 0.81481 0.50858 0.15372 0.0
C3038 C 0.79186 0.51453 0.13573 0.0
C3039 C 0.80706 0.50686 0.13851 0.0
H3040 H 0.7485 0.55503 0.18057 0.0
H3041 H 0.8129 0.49979 0.12883 0.0
H3042 H 0.74064 0.48621 0.10093 0.0
H3043 H 0.66514 0.52693 0.14639 0.0
H3044 H 0.78624 0.51356 0.12381 0.0
H3045 H 0.8266 0.50267 0.15578 0.0
H3046 H 0.69266 0.51605 0.15315 0.0
H3047 H 0.7595 0.55743 0.20859 0.0
H3048 H 0.82624 0.51419 0.18446 0.0
H3049 H 0.81184 0.52989 0.20601 0.0
H3050 H 0.73298 0.48249 0.0718 0.0
H3051 H 0.78683 0.54573 0.21524 0.0
H3052 H 0.65677 0.52986 0.11733 0.0
N3053 N 0.72097 0.50278 0.10602 0.0
C3054 C 0.70628 0.50865 0.10078 0.0
C3055 C 0.72552 0.49021 0.07972 0.0
C3056 C 0.70124 0.5068 0.08436 0.0
C3057 C 0.72996 0.49254 0.09616 0.0
C3058 C 0.71136 0.49786 0.07363 0.0
N3059 N 0.70067 0.51485 0.12832 0.0
C3060 C 0.68951 0.51805 0.14049 0.0
C3061 C 0.67991 0.52051 0.10787 0.0
C3062 C 0.69575 0.51512 0.11239 0.0
C3063 C 0.66904 0.5255 0.12026 0.0
C3064 C 0.67373 0.52388 0.13667 0.0
H3065 H 0.70793 0.49604 0.06092 0.0
H3066 H 0.68191 0.51221 0.06686 0.0
H3067 H 0.66326 0.52448 0.08746 0.0
O3068 O 0.71361 0.48812 0.13173 0.0
O3069 O 0.72672 0.53111 0.11706 0.0
O3070 O 0.74281 0.55106 0.12975 0.0
O3071 O 0.73925 0.48652 0.13942 0.0
O3072 O 0.72021 0.52654 0.15159 0.0
O3073 O 0.73834 0.5488 0.1532 0.0
O3074 O 0.78263 0.55234 0.13443 0.0
O3075 O 0.75915 0.51704 0.1597 0.0
O3076 O 0.73212 0.51062 0.16022 0.0
O3077 O 0.76786 0.56351 0.15338 0.0
O3078 O 0.76319 0.53459 0.1171 0.0
O3079 O 0.75138 0.50933 0.1169 0.0
C3080 C 0.73168 0.54636 0.11901 0.0
C3081 C 0.71991 0.46687 0.1501 0.0
C3082 C 0.69836 0.4562 0.16827 0.0
C3083 C 0.70717 0.44126 0.16924 0.0
C3084 C 0.72843 0.45194 0.1514 0.0
C3085 C 0.72213 0.43925 0.16101 0.0
C3086 C 0.70502 0.46908 0.15882 0.0
C3087 C 0.72411 0.54165 0.15629 0.0
C3088 C 0.72522 0.4787 0.13751 0.0
C3089 C 0.68591 0.51318 0.0795 0.0
C3090 C 0.67528 0.52013 0.09124 0.0
C3091 C 0.74605 0.513 0.16855 0.0
C3092 C 0.77687 0.58044 0.13197 0.0
C3093 C 0.78711 0.59709 0.10959 0.0
C3094 C 0.77279 0.60684 0.11036 0.0
C3095 C 0.76262 0.59034 0.13283 0.0
C3096 C 0.78895 0.58386 0.12034 0.0
C3097 C 0.76062 0.60346 0.12198 0.0
C3098 C 0.75798 0.52174 0.10844 0.0
C3099 C 0.77903 0.56586 0.14228 0.0
H3100 H 0.70225 0.43086 0.17593 0.0
H3101 H 0.73966 0.44986 0.14447 0.0
H3102 H 0.7286 0.4276 0.16166 0.0
H3103 H 0.69834 0.4806 0.15779 0.0
H3104 H 0.77124 0.61736 0.10236 0.0
H3105 H 0.75294 0.58782 0.14163 0.0
H3106 H 0.79985 0.57615 0.11964 0.0
H3107 H 0.74965 0.61103 0.12261 0.0
Tb3108 Tb 0.76567 0.47541 0.3825 0.0
C3109 C 0.73654 0.53232 0.42377 0.0
N3110 N 0.73009 0.51728 0.4204 0.0
C3111 C 0.71761 0.51634 0.44711 0.0
C3112 C 0.73341 0.54015 0.43891 0.0
C3113 C 0.7209 0.5091 0.43189 0.0
C3114 C 0.72371 0.53202 0.45058 0.0
C3115 C 0.75447 0.55475 0.41565 0.0
C3116 C 0.74711 0.53945 0.41229 0.0
C3117 C 0.75083 0.56292 0.43046 0.0
C3118 C 0.74037 0.55563 0.44206 0.0
Tb3119 Tb 0.734 0.50916 0.39392 0.0
N3120 N 0.75059 0.53108 0.39814 0.0
C3121 C 0.76535 0.56131 0.40405 0.0
C3122 C 0.76114 0.53737 0.38679 0.0
C3123 C 0.76877 0.55255 0.38962 0.0
H3124 H 0.71549 0.49729 0.42922 0.0
H3125 H 0.77711 0.55761 0.38058 0.0
H3126 H 0.78572 0.48314 0.34797 0.0
H3127 H 0.75257 0.41431 0.40657 0.0
H3128 H 0.76346 0.53093 0.37545 0.0
H3129 H 0.77122 0.57309 0.40613 0.0
H3130 H 0.76301 0.44278 0.40857 0.0
H3131 H 0.71017 0.50993 0.45608 0.0
H3132 H 0.75625 0.57479 0.43318 0.0
H3133 H 0.73796 0.56194 0.45355 0.0
H3134 H 0.78619 0.47198 0.31963 0.0
H3135 H 0.72107 0.53762 0.46238 0.0
H3136 H 0.74612 0.40223 0.3794 0.0
N3137 N 0.77042 0.46418 0.35717 0.0
C3138 C 0.76417 0.44905 0.35441 0.0
C3139 C 0.77962 0.46553 0.32923 0.0
C3140 C 0.76419 0.44197 0.33864 0.0
C3141 C 0.77911 0.47199 0.34518 0.0
C3142 C 0.77166 0.45067 0.32582 0.0
N3143 N 0.76141 0.44723 0.38283 0.0
C3144 C 0.76021 0.43769 0.39662 0.0
C3145 C 0.75365 0.42394 0.36604 0.0
C3146 C 0.75921 0.44023 0.36786 0.0
C3147 C 0.75059 0.41475 0.3802 0.0
C3148 C 0.75431 0.42152 0.39555 0.0
H3149 H 0.77207 0.44566 0.31349 0.0
H3150 H 0.75698 0.42061 0.32439 0.0
H3151 H 0.74752 0.40481 0.34846 0.0
O3152 O 0.78856 0.4641 0.38055 0.0
O3153 O 0.74459 0.47528 0.366 0.0
O3154 O 0.72393 0.48822 0.38085 0.0
O3155 O 0.7864 0.48892 0.39046 0.0
O3156 O 0.74726 0.46706 0.4005 0.0
O3157 O 0.72569 0.48577 0.40428 0.0
O3158 O 0.72212 0.52912 0.3823 0.0
O3159 O 0.75589 0.50627 0.41059 0.0
O3160 O 0.76366 0.47935 0.41011 0.0
O3161 O 0.70949 0.51399 0.40055 0.0
O3162 O 0.73994 0.51002 0.36667 0.0
O3163 O 0.76514 0.4974 0.3652 0.0
C3164 C 0.72909 0.47781 0.36964 0.0
C3165 C 0.80647 0.47076 0.40201 0.0
C3166 C 0.81594 0.44902 0.42045 0.0
C3167 C 0.82839 0.45956 0.42615 0.0
C3168 C 0.81905 0.48104 0.40773 0.0
C3169 C 0.82987 0.47548 0.41984 0.0
C3170 C 0.80484 0.45485 0.40864 0.0
C3171 C 0.73282 0.4714 0.40662 0.0
C3172 C 0.796 0.47605 0.38822 0.0
C3173 C 0.75746 0.4262 0.33647 0.0
C3174 C 0.7521 0.4172 0.35018 0.0
C3175 C 0.76047 0.49294 0.4188 0.0
C3176 C 0.69396 0.53644 0.3893 0.0
C3177 C 0.67584 0.55251 0.37231 0.0
C3178 C 0.66425 0.55324 0.3851 0.0
C3179 C 0.68238 0.53707 0.40213 0.0
C3180 C 0.69071 0.5443 0.37445 0.0
C3181 C 0.66759 0.54557 0.40003 0.0
C3182 C 0.75276 0.50515 0.35763 0.0
C3183 C 0.70876 0.52647 0.39077 0.0
H3184 H 0.83728 0.45531 0.43508 0.0
H3185 H 0.82067 0.49323 0.40263 0.0
H3186 H 0.83967 0.48341 0.4241 0.0
H3187 H 0.79517 0.44676 0.40433 0.0
H3188 H 0.65249 0.5593 0.38333 0.0
H3189 H 0.68468 0.53083 0.41364 0.0
H3190 H 0.69934 0.54337 0.3643 0.0
H3191 H 0.65856 0.54591 0.40982 0.0
Tb3192 Tb 0.76029 0.47593 0.64334 0.0
C3193 C 0.7894 0.53219 0.60274 0.0
N3194 N 0.79569 0.51712 0.60643 0.0
C3195 C 0.80812 0.51523 0.57977 0.0
C3196 C 0.79264 0.53957 0.58744 0.0
C3197 C 0.80466 0.50839 0.59513 0.0
C3198 C 0.8023 0.53097 0.57599 0.0
C3199 C 0.77096 0.55466 0.60997 0.0
C3200 C 0.77854 0.53959 0.61388 0.0
C3201 C 0.77479 0.56245 0.59504 0.0
C3202 C 0.78557 0.55492 0.58381 0.0
Tb3203 Tb 0.79157 0.50986 0.63306 0.0
N3204 N 0.77476 0.5315 0.62809 0.0
C3205 C 0.75959 0.56133 0.6211 0.0
C3206 C 0.76373 0.53787 0.63898 0.0
C3207 C 0.75589 0.55286 0.63559 0.0
H3208 H 0.80969 0.49647 0.59808 0.0
H3209 H 0.74713 0.55798 0.64425 0.0
H3210 H 0.74016 0.48244 0.67805 0.0
H3211 H 0.77323 0.41603 0.61624 0.0
H3212 H 0.76116 0.53161 0.65035 0.0
H3213 H 0.75351 0.57293 0.61858 0.0
H3214 H 0.76315 0.44473 0.6157 0.0
H3215 H 0.81541 0.50841 0.57092 0.0
H3216 H 0.7692 0.57414 0.5919 0.0
H3217 H 0.78803 0.56087 0.57217 0.0
H3218 H 0.73915 0.47 0.70576 0.0
H3219 H 0.80499 0.53619 0.56406 0.0
H3220 H 0.7788 0.40233 0.6428 0.0
N3221 N 0.75521 0.46357 0.66802 0.0
C3222 C 0.76107 0.44817 0.67006 0.0
C3223 C 0.74569 0.46384 0.69591 0.0
C3224 C 0.76066 0.44031 0.68542 0.0
C3225 C 0.74656 0.47103 0.68033 0.0
C3226 C 0.75322 0.44858 0.6986 0.0
N3227 N 0.76432 0.44778 0.64167 0.0
C3228 C 0.76574 0.439 0.62738 0.0
C3229 C 0.77132 0.42345 0.65724 0.0
C3230 C 0.76609 0.43995 0.65624 0.0
C3231 C 0.77457 0.41498 0.64263 0.0
C3232 C 0.77137 0.42267 0.62762 0.0
H3233 H 0.75252 0.44297 0.71064 0.0
H3234 H 0.76714 0.41807 0.69857 0.0
H3235 H 0.77673 0.40328 0.67382 0.0
O3236 O 0.73724 0.46515 0.64474 0.0
O3237 O 0.78092 0.47516 0.66043 0.0
O3238 O 0.8019 0.48979 0.64771 0.0
O3239 O 0.73985 0.49042 0.63617 0.0
O3240 O 0.77858 0.46887 0.62462 0.0
O3241 O 0.80138 0.48619 0.62497 0.0
O3242 O 0.80278 0.52993 0.64488 0.0
O3243 O 0.77019 0.50674 0.61539 0.0
O3244 O 0.76236 0.47984 0.61577 0.0
O3245 O 0.81541 0.51646 0.62589 0.0
O3246 O 0.7848 0.5114 0.65998 0.0
O3247 O 0.76051 0.49719 0.66156 0.0
C3248 C 0.79642 0.47936 0.6588 0.0
C3249 C 0.71825 0.47374 0.6251 0.0
C3250 C 0.70709 0.4531 0.6063 0.0
C3251 C 0.69278 0.46282 0.60472 0.0
C3252 C 0.70399 0.48325 0.62323 0.0
C3253 C 0.69139 0.47787 0.61293 0.0
C3254 C 0.71997 0.45895 0.6162 0.0
C3255 C 0.79392 0.47252 0.6207 0.0
C3256 C 0.7299 0.47786 0.63825 0.0
C3257 C 0.76699 0.42427 0.68682 0.0
C3258 C 0.77242 0.41586 0.67272 0.0
C3259 C 0.76519 0.4935 0.60717 0.0
C3260 C 0.83102 0.52511 0.64833 0.0
C3261 C 0.84841 0.53647 0.6696 0.0
C3262 C 0.85791 0.52195 0.66951 0.0
C3263 C 0.84077 0.51075 0.64803 0.0
C3264 C 0.83475 0.53773 0.65928 0.0
C3265 C 0.85404 0.50914 0.65876 0.0
C3266 C 0.77238 0.50573 0.66898 0.0
C3267 C 0.81679 0.52719 0.63756 0.0
H3268 H 0.68239 0.45862 0.59755 0.0
H3269 H 0.70235 0.49452 0.63019 0.0
H3270 H 0.68025 0.48511 0.61177 0.0
H3271 H 0.7311 0.4517 0.61751 0.0
H3272 H 0.86872 0.52077 0.67717 0.0
H3273 H 0.83804 0.5007 0.63972 0.0
H3274 H 0.82723 0.54878 0.65943 0.0
H3275 H 0.86148 0.49808 0.65856 0.0
Tb3276 Tb 0.51486 0.129 0.23626 0.0
C3277 C 0.45476 0.16951 0.26615 0.0
N3278 N 0.46996 0.16653 0.27219 0.0
C3279 C 0.47171 0.1945 0.28147 0.0
C3280 C 0.44785 0.1854 0.26632 0.0
C3281 C 0.47798 0.17843 0.28082 0.0
C3282 C 0.45678 0.19812 0.27372 0.0
C3283 C 0.42942 0.15822 0.25577 0.0
C3284 C 0.44575 0.15617 0.26119 0.0
C3285 C 0.42282 0.1742 0.25443 0.0
C3286 C 0.43201 0.1878 0.2598 0.0
Tb3287 Tb 0.48071 0.14084 0.26778 0.0
N3288 N 0.45261 0.14106 0.26317 0.0
C3289 C 0.42009 0.14413 0.25258 0.0
C3290 C 0.44295 0.12737 0.26187 0.0
C3291 C 0.42675 0.12864 0.25607 0.0
H3292 H 0.48913 0.17546 0.28735 0.0
H3293 H 0.41939 0.11769 0.25436 0.0
H3294 H 0.49983 0.09494 0.21779 0.0
H3295 H 0.56489 0.13886 0.27821 0.0
H3296 H 0.44786 0.11537 0.26484 0.0
H3297 H 0.40753 0.1451 0.24822 0.0
H3298 H 0.539 0.14645 0.26405 0.0
H3299 H 0.47832 0.20401 0.288 0.0
H3300 H 0.4104 0.17609 0.24998 0.0
H3301 H 0.42655 0.19997 0.25947 0.0
H3302 H 0.50922 0.06637 0.2139 0.0
H3303 H 0.4519 0.21054 0.27425 0.0
H3304 H 0.57703 0.11117 0.2741 0.0
N3305 N 0.52023 0.10168 0.23284 0.0
C3306 C 0.53456 0.09674 0.23994 0.0
C3307 C 0.51644 0.07479 0.22125 0.0
C3308 C 0.54049 0.08057 0.23776 0.0
C3309 C 0.51106 0.09097 0.22366 0.0
C3310 C 0.53125 0.06958 0.22825 0.0
N3311 N 0.53642 0.1231 0.25267 0.0
C3312 C 0.54405 0.13425 0.26252 0.0
C3313 C 0.5577 0.10301 0.25775 0.0
C3314 C 0.54301 0.10784 0.25 0.0
C3315 C 0.56563 0.11437 0.26799 0.0
C3316 C 0.55876 0.13001 0.2704 0.0
H3317 H 0.53538 0.05704 0.22632 0.0
H3318 H 0.56018 0.06353 0.24356 0.0
H3319 H 0.5753 0.08316 0.2609 0.0
O3320 O 0.5346 0.14099 0.22457 0.0
O3321 O 0.51129 0.11367 0.259 0.0
O3322 O 0.4842 0.11309 0.26503 0.0
O3323 O 0.52219 0.12069 0.21305 0.0
O3324 O 0.51642 0.15609 0.24285 0.0
O3325 O 0.50335 0.15717 0.26771 0.0
O3326 O 0.46877 0.14288 0.29026 0.0
O3327 O 0.48032 0.15731 0.24668 0.0
O3328 O 0.49521 0.14396 0.22607 0.0
O3329 O 0.49347 0.13263 0.28883 0.0
O3330 O 0.47318 0.12229 0.24983 0.0
O3331 O 0.49052 0.12186 0.22691 0.0
C3332 C 0.49812 0.10474 0.26248 0.0
C3333 C 0.52853 0.14319 0.19654 0.0
C3334 C 0.53675 0.16547 0.17866 0.0
C3335 C 0.52189 0.16391 0.16997 0.0
C3336 C 0.51368 0.14166 0.18774 0.0
C3337 C 0.51044 0.152 0.17451 0.0
C3338 C 0.53988 0.15517 0.19202 0.0
C3339 C 0.511 0.165 0.2555 0.0
C3340 C 0.532 0.13301 0.21093 0.0
C3341 C 0.55532 0.07586 0.24524 0.0
C3342 C 0.56393 0.08705 0.25514 0.0
C3343 C 0.48472 0.15514 0.23134 0.0
C3344 C 0.47439 0.12078 0.30772 0.0
C3345 C 0.45223 0.10206 0.31543 0.0
C3346 C 0.46242 0.09523 0.32753 0.0
C3347 C 0.48437 0.11397 0.31997 0.0
C3348 C 0.45832 0.11468 0.30548 0.0
C3349 C 0.4784 0.10119 0.32978 0.0
C3350 C 0.47646 0.11867 0.23438 0.0
C3351 C 0.4803 0.13484 0.29795 0.0
H3352 H 0.51938 0.17148 0.15932 0.0
H3353 H 0.50452 0.1326 0.19112 0.0
H3354 H 0.4991 0.15067 0.16769 0.0
H3355 H 0.55127 0.15638 0.19886 0.0
H3356 H 0.45784 0.08566 0.33556 0.0
H3357 H 0.49666 0.11865 0.32206 0.0
H3358 H 0.45031 0.11992 0.29624 0.0
H3359 H 0.48609 0.09609 0.33935 0.0
Tb3360 Tb 0.0464 0.8778 0.76543 0.0
C3361 C 1.0067 0.92256 0.71371 0.0
N3362 N 1.00139 0.9146 0.7274 0.0
C3363 C 0.98447 0.93791 0.73443 0.0
C3364 C 1.00227 0.93909 0.71072 0.0
C3365 C 0.98922 0.92153 0.73686 0.0
C3366 C 0.99149 0.94692 0.72165 0.0
C3367 C 0.02003 0.92123 0.68704 0.0
C3368 C 0.01527 0.91368 0.70188 0.0
C3369 C 0.01683 0.93805 0.68465 0.0
C3370 C 1.00795 0.94696 0.69646 0.0
Tb3371 Tb 1.01176 0.88844 0.7305 0.0
N3372 N 0.01833 0.89743 0.70465 0.0
C3373 C 0.02756 0.91157 0.6749 0.0
C3374 C 0.02477 0.88779 0.69245 0.0
C3375 C 0.02967 0.89472 0.67752 0.0
H3376 H 0.98366 0.91465 0.74678 0.0
H3377 H 0.03504 0.88704 0.66804 0.0
H3378 H 0.06827 0.84344 0.76154 0.0
H3379 H 0.99612 0.89455 0.80642 0.0
H3380 H 0.02603 0.87481 0.69415 0.0
H3381 H 0.0314 0.9169 0.66334 0.0
H3382 H 0.01373 0.89801 0.78236 0.0
H3383 H 0.97548 0.94359 0.74247 0.0
H3384 H 0.02067 0.94413 0.67346 0.0
H3385 H 1.00497 0.95975 0.69414 0.0
H3386 H 0.07313 0.81845 0.77793 0.0
H3387 H 0.98781 0.95961 0.71981 0.0
H3388 H 1.00009 0.87073 0.82481 0.0
N3389 N 0.05042 0.85331 0.77808 0.0
C3390 C 0.04193 0.85129 0.79229 0.0
C3391 C 0.06432 0.82758 0.7821 0.0
C3392 C 0.04433 0.83717 0.80202 0.0
C3393 C 0.06146 0.84172 0.7728 0.0
C3394 C 0.05581 0.82533 0.79684 0.0
N3395 N 0.02757 0.87613 0.7863 0.0
C3396 C 0.01562 0.88742 0.78985 0.0
C3397 C 0.02018 0.86057 0.81052 0.0
C3398 C 0.02997 0.86292 0.79641 0.0
C3399 C 1.0079 0.87211 0.81409 0.0
C3400 C 1.00559 0.88554 0.8037 0.0
H3401 H 0.05798 0.81429 0.80396 0.0
H3402 H 0.03655 0.82431 0.82395 0.0
H3403 H 0.01544 0.84477 0.83142 0.0
O3404 O 0.05852 0.88687 0.78629 0.0
O3405 O 0.02872 0.85626 0.76172 0.0
O3406 O 1.01096 0.86104 0.73946 0.0
O3407 O 0.07214 0.87466 0.76634 0.0
O3408 O 0.03826 0.90486 0.7635 0.0
O3409 O 0.01209 0.90506 0.75248 0.0
O3410 O 0.99812 0.87665 0.71235 0.0
O3411 O 0.03635 0.89802 0.72306 0.0
O3412 O 0.05268 0.89689 0.747 0.0
O3413 O 0.98686 0.88391 0.73619 0.0
O3414 O 0.03213 0.87525 0.73855 0.0
O3415 O 0.05521 0.86462 0.74348 0.0
C3416 C 0.0173 0.85084 0.75118 0.0
C3417 C 0.08778 0.88376 0.7897 0.0
C3418 C 0.10628 0.9023 0.8034 0.0
C3419 C 0.1179 0.88958 0.80496 0.0
C3420 C 0.09942 0.87103 0.79093 0.0
C3421 C 0.11443 0.87393 0.79874 0.0
C3422 C 0.09118 0.89931 0.796 0.0
C3423 C 0.02507 0.91336 0.75816 0.0
C3424 C 0.07259 0.88146 0.78076 0.0
C3425 C 0.03487 0.83506 0.81627 0.0
C3426 C 0.02282 0.84671 0.8205 0.0
C3427 C 0.04958 0.90213 0.73183 0.0
C3428 C 0.96914 0.8706 0.71589 0.0
C3429 C 0.95398 0.85576 0.69478 0.0
C3430 C 0.93912 0.86046 0.70242 0.0
C3431 C 0.95426 0.8751 0.72345 0.0
C3432 C 0.96891 0.86063 0.70186 0.0
C3433 C 0.93931 0.86994 0.71676 0.0
C3434 C 0.04404 0.8663 0.73255 0.0
C3435 C 0.98485 0.87738 0.72155 0.0
H3436 H 0.12982 0.89192 0.81044 0.0
H3437 H 0.09693 0.85898 0.78578 0.0
H3438 H 0.1235 0.86419 0.79964 0.0
H3439 H 0.08241 0.90929 0.79448 0.0
H3440 H 0.92734 0.85718 0.69715 0.0
H3441 H 0.95416 0.88292 0.73423 0.0
H3442 H 0.98046 0.85686 0.6963 0.0
H3443 H 0.92783 0.87362 0.72248 0.0
Tb3444 Tb 0.51222 0.89099 0.29231 0.0
C3445 C 0.45603 0.84846 0.26241 0.0
N3446 N 0.4705 0.85321 0.25567 0.0
C3447 C 0.47403 0.82632 0.24395 0.0
C3448 C 0.45065 0.83202 0.26145 0.0
C3449 C 0.47889 0.84277 0.2455 0.0
C3450 C 0.46013 0.82077 0.25242 0.0
C3451 C 0.43057 0.85637 0.27564 0.0
C3452 C 0.4461 0.8605 0.26912 0.0
C3453 C 0.42568 0.83978 0.27606 0.0
C3454 C 0.43567 0.82762 0.26886 0.0
Tb3455 Tb 0.47865 0.87963 0.26088 0.0
N3456 N 0.45127 0.87639 0.26811 0.0
C3457 C 0.42022 0.8691 0.28092 0.0
C3458 C 0.44046 0.88886 0.27165 0.0
C3459 C 0.42502 0.88542 0.27852 0.0
H3460 H 0.48946 0.84708 0.23868 0.0
H3461 H 0.41677 0.89537 0.28183 0.0
H3462 H 0.502 0.92618 0.31207 0.0
H3463 H 0.55937 0.87728 0.24766 0.0
H3464 H 0.44354 0.90152 0.26921 0.0
H3465 H 0.40821 0.86648 0.28611 0.0
H3466 H 0.53282 0.8727 0.26182 0.0
H3467 H 0.48101 0.81794 0.23627 0.0
H3468 H 0.4139 0.83632 0.28126 0.0
H3469 H 0.43144 0.81498 0.26858 0.0
H3470 H 0.51583 0.95239 0.31812 0.0
H3471 H 0.45641 0.80803 0.25127 0.0
H3472 H 0.57605 0.90188 0.25423 0.0
N3473 N 0.52173 0.91681 0.29737 0.0
C3474 C 0.53687 0.91969 0.29086 0.0
C3475 C 0.52188 0.94329 0.31046 0.0
C3476 C 0.54533 0.93442 0.29431 0.0
C3477 C 0.51397 0.92848 0.30678 0.0
C3478 C 0.53771 0.94619 0.30439 0.0
N3479 N 0.5342 0.89481 0.27564 0.0
C3480 C 0.53979 0.88364 0.26446 0.0
C3481 C 0.55856 0.91138 0.27199 0.0
C3482 C 0.54333 0.90834 0.27965 0.0
C3483 C 0.56435 0.90002 0.26038 0.0
C3484 C 0.55491 0.88615 0.25656 0.0
H3485 H 0.54378 0.9577 0.30726 0.0
H3486 H 0.56756 0.94836 0.28971 0.0
H3487 H 0.57922 0.92817 0.27034 0.0
O3488 O 0.53071 0.87658 0.30322 0.0
O3489 O 0.51091 0.90769 0.27027 0.0
O3490 O 0.48443 0.90717 0.2608 0.0
O3491 O 0.51966 0.89689 0.31621 0.0
O3492 O 0.5114 0.86354 0.28693 0.0
O3493 O 0.50144 0.86361 0.26107 0.0
O3494 O 0.46373 0.87837 0.24027 0.0
O3495 O 0.47764 0.86491 0.28345 0.0
O3496 O 0.48995 0.88131 0.30299 0.0
O3497 O 0.48953 0.88513 0.23796 0.0
O3498 O 0.47134 0.90065 0.27666 0.0
O3499 O 0.48871 0.90288 0.29947 0.0
C3500 C 0.49806 0.91577 0.26422 0.0
C3501 C 0.5258 0.87317 0.33128 0.0
C3502 C 0.53537 0.85137 0.34917 0.0
C3503 C 0.52015 0.8517 0.35748 0.0
C3504 C 0.51075 0.87362 0.33984 0.0
C3505 C 0.50791 0.86279 0.35279 0.0
C3506 C 0.53796 0.86195 0.33589 0.0
C3507 C 0.50735 0.85501 0.27364 0.0
C3508 C 0.52898 0.88399 0.31731 0.0
C3509 C 0.56079 0.93719 0.28709 0.0
C3510 C 0.5674 0.9257 0.27601 0.0
C3511 C 0.47951 0.86986 0.29865 0.0
C3512 C 0.47016 0.89719 0.21944 0.0
C3513 C 0.44881 0.91588 0.20943 0.0
C3514 C 0.45898 0.91985 0.19602 0.0
C3515 C 0.48006 0.90122 0.20594 0.0
C3516 C 0.45467 0.90482 0.22127 0.0
C3517 C 0.47453 0.91262 0.19437 0.0
C3518 C 0.47515 0.90676 0.2913 0.0
C3519 C 0.47524 0.88384 0.23056 0.0
H3520 H 0.51797 0.84392 0.36804 0.0
H3521 H 0.50128 0.88238 0.33662 0.0
H3522 H 0.49637 0.86323 0.35944 0.0
H3523 H 0.54959 0.8617 0.32932 0.0
H3524 H 0.45472 0.92814 0.18654 0.0
H3525 H 0.4919 0.8953 0.20416 0.0
H3526 H 0.44692 0.90186 0.23169 0.0
H3527 H 0.48216 0.91555 0.18387 0.0
Tb3528 Tb 0.88342 0.76011 0.04173 0.0
C3529 C 0.92507 0.70461 1.00981 0.0
N3530 N 0.92087 0.71941 1.00345 0.0
C3531 C 0.94843 0.72282 0.99338 0.0
C3532 C 0.94146 0.69893 1.00953 0.0
C3533 C 0.93195 0.72793 0.99419 0.0
C3534 C 0.95333 0.70852 1.00156 0.0
C3535 C 0.91603 0.67885 0.0214 0.0
C3536 C 0.91255 0.69477 0.01551 0.0
C3537 C 0.93251 0.67358 0.02254 0.0
C3538 C 0.94523 0.6836 0.01653 0.0
Tb3539 Tb 0.89435 0.72808 1.00775 0.0
N3540 N 0.89684 0.70036 0.01386 0.0
C3541 C 0.90283 0.66852 0.02522 0.0
C3542 C 0.88405 0.68957 0.01561 0.0
C3543 C 0.88678 0.67374 0.02186 0.0
H3544 H 0.92811 0.73871 0.98748 0.0
H3545 H 0.87651 0.66552 0.02388 0.0
H3546 H 0.85014 0.74625 0.0622 0.0
H3547 H 0.89317 0.81261 1.0029 0.0
H3548 H 0.8717 0.6931 1.01226 0.0
H3549 H 0.90493 0.65623 0.0299 0.0
H3550 H 0.89989 0.78514 0.01421 0.0
H3551 H 0.9573 0.72988 0.98642 0.0
H3552 H 0.93548 0.66151 0.02735 0.0
H3553 H 0.9578 0.67911 0.01678 0.0
H3554 H 0.82298 0.75737 0.06982 0.0
H3555 H 0.96608 0.7046 1.00096 0.0
H3556 H 0.8672 0.82653 1.01089 0.0
N3557 N 0.85716 0.76744 0.04842 0.0
C3558 C 0.85275 0.78265 0.04309 0.0
C3559 C 0.83123 0.76458 0.06228 0.0
C3560 C 0.83744 0.7896 0.04748 0.0
C3561 C 0.84659 0.75823 0.05772 0.0
C3562 C 0.82668 0.78038 0.05726 0.0
N3563 N 0.8777 0.78348 0.02787 0.0
C3564 C 0.88841 0.79101 0.01746 0.0
C3565 C 0.85913 0.80665 0.02659 0.0
C3566 C 0.86344 0.79103 0.03264 0.0
C3567 C 0.87002 0.81446 0.01578 0.0
C3568 C 0.88468 0.8066 1.01117 0.0
H3569 H 0.81479 0.78528 0.06089 0.0
H3570 H 0.82164 0.81097 0.04513 0.0
H3571 H 0.84064 0.82595 0.02696 0.0
O3572 O 0.89891 0.77683 0.05379 0.0
O3573 O 0.86653 0.76002 0.0198 0.0
O3574 O 0.8667 0.73401 1.00912 0.0
O3575 O 0.87869 0.76514 0.06655 0.0
O3576 O 0.91033 0.76099 0.03431 0.0
O3577 O 0.90989 0.75124 1.00815 0.0
O3578 O 0.89626 0.71361 0.98677 0.0
O3579 O 0.91033 0.72727 0.0295 0.0
O3580 O 0.89433 0.7376 0.05058 0.0
O3581 O 0.88824 0.73902 0.985 0.0
O3582 O 0.87375 0.72018 0.02338 0.0
O3583 O 0.87373 0.73558 0.04764 0.0
C3584 C 0.85815 0.74745 0.01361 0.0
C3585 C 0.88856 0.79025 0.07732 0.0
C3586 C 0.90102 0.80832 0.09734 0.0
C3587 C 0.88572 0.81602 0.09995 0.0
C3588 C 0.87316 0.79762 0.08016 0.0
C3589 C 0.87184 0.8107 0.09128 0.0
C3590 C 0.90239 0.79587 0.08564 0.0
C3591 C 0.91854 0.75742 0.02064 0.0
C3592 C 0.89082 0.77543 0.06752 0.0
C3593 C 0.83329 0.80535 0.04177 0.0
C3594 C 0.84411 0.81388 0.03139 0.0
C3595 C 0.90665 0.72883 0.04507 0.0
C3596 C 0.87717 0.71935 0.96614 0.0
C3597 C 0.85788 0.698 0.95728 0.0
C3598 C 0.85573 0.70658 0.94244 0.0
C3599 C 0.8748 0.72763 0.95129 0.0
C3600 C 0.86846 0.70464 0.9692 0.0
C3601 C 0.86404 0.72132 0.93955 0.0
C3602 C 0.8693 0.72268 0.03879 0.0
C3603 C 0.89024 0.72497 0.9773 0.0
H3604 H 0.88435 0.82555 0.10917 0.0
H3605 H 0.8622 0.79307 0.07421 0.0
H3606 H 0.85997 0.81632 0.09361 0.0
H3607 H 0.91419 0.78984 0.08366 0.0
H3608 H 0.84802 0.70165 0.93279 0.0
H3609 H 0.88163 0.73875 0.94858 0.0
H3610 H 0.87028 0.69811 0.98064 0.0
H3611 H 0.86248 0.72764 0.92797 0.0
Tb3612 Tb 0.64068 0.26556 0.54201 0.0
C3613 C 0.60039 0.32082 0.50946 0.0
N3614 N 0.60419 0.30599 0.50291 0.0
C3615 C 0.57647 0.30322 0.49324 0.0
C3616 C 0.58414 0.32686 0.50952 0.0
C3617 C 0.59283 0.29772 0.49381 0.0
C3618 C 0.57197 0.31759 0.50163 0.0
C3619 C 0.61024 0.34623 0.52103 0.0
C3620 C 0.61321 0.33026 0.51496 0.0
C3621 C 0.5939 0.35188 0.52265 0.0
C3622 C 0.58084 0.34222 0.51679 0.0
Tb3623 Tb 0.63028 0.29626 0.50725 0.0
N3624 N 0.62871 0.32429 0.51274 0.0
C3625 C 0.62377 0.35626 0.52444 0.0
C3626 C 0.64176 0.33484 0.51396 0.0
C3627 C 0.63958 0.35072 0.52038 0.0
H3628 H 0.59646 0.28691 0.48698 0.0
H3629 H 0.65008 0.35872 0.52207 0.0
H3630 H 0.67452 0.27957 0.56138 0.0
H3631 H 0.63009 0.21206 0.5043 0.0
H3632 H 0.65395 0.331 0.51028 0.0
H3633 H 0.62209 0.36859 0.52925 0.0
H3634 H 0.62377 0.2398 0.51502 0.0
H3635 H 0.56738 0.29638 0.48635 0.0
H3636 H 0.59131 0.36399 0.52763 0.0
H3637 H 0.56838 0.34699 0.51734 0.0
H3638 H 0.70168 0.2684 0.56864 0.0
H3639 H 0.55931 0.32181 0.50124 0.0
H3640 H 0.65594 0.19806 0.5123 0.0
N3641 N 0.66696 0.25804 0.54836 0.0
C3642 C 0.67111 0.24261 0.54336 0.0
C3643 C 0.6932 0.26103 0.56152 0.0
C3644 C 0.68643 0.23563 0.5476 0.0
C3645 C 0.67782 0.26741 0.55716 0.0
C3646 C 0.69747 0.24503 0.55686 0.0
N3647 N 0.64602 0.24167 0.52853 0.0
C3648 C 0.63519 0.23397 0.51836 0.0
C3649 C 0.66431 0.21824 0.52749 0.0
C3650 C 0.66022 0.23407 0.53329 0.0
C3651 C 0.65328 0.21027 0.51698 0.0
C3652 C 0.6387 0.21819 0.51237 0.0
H3653 H 0.70938 0.24012 0.56032 0.0
H3654 H 0.702 0.21405 0.54543 0.0
H3655 H 0.68262 0.19878 0.52796 0.0
O3656 O 0.62468 0.24999 0.55477 0.0
O3657 O 0.6573 0.26472 0.51985 0.0
O3658 O 0.65783 0.29052 0.50906 0.0
O3659 O 0.64589 0.26059 0.56675 0.0
O3660 O 0.61396 0.26373 0.53435 0.0
O3661 O 0.61427 0.27327 0.50803 0.0
O3662 O 0.62821 0.3089 0.48521 0.0
O3663 O 0.61335 0.2964 0.52803 0.0
O3664 O 0.6295 0.2886 0.54974 0.0
O3665 O 0.63659 0.28353 0.48547 0.0
O3666 O 0.65073 0.30482 0.52315 0.0
O3667 O 0.6506 0.29016 0.54775 0.0
C3668 C 0.66604 0.27698 0.51361 0.0
C3669 C 0.63547 0.23551 0.57721 0.0
C3670 C 0.62223 0.21642 0.59571 0.0
C3671 C 0.63753 0.20899 0.59893 0.0
C3672 C 0.65085 0.2284 0.58066 0.0
C3673 C 0.65178 0.2149 0.59126 0.0
C3674 C 0.62129 0.22911 0.58429 0.0
C3675 C 0.60587 0.26662 0.5205 0.0
C3676 C 0.63341 0.25079 0.56811 0.0
C3677 C 0.69035 0.21968 0.54218 0.0
C3678 C 0.67931 0.21099 0.5322 0.0
C3679 C 0.61739 0.29713 0.54344 0.0
C3680 C 0.64793 0.30175 0.46569 0.0
C3681 C 0.66878 0.32177 0.4579 0.0
C3682 C 0.67101 0.31339 0.44295 0.0
C3683 C 0.65016 0.29358 0.45069 0.0
C3684 C 0.65746 0.31571 0.46933 0.0
C3685 C 0.66177 0.29934 0.43942 0.0
C3686 C 0.65532 0.30274 0.53862 0.0
C3687 C 0.63451 0.29686 0.47669 0.0
H3688 H 0.63859 0.19926 0.60794 0.0
H3689 H 0.66207 0.23346 0.57561 0.0
H3690 H 0.66363 0.20947 0.59407 0.0
H3691 H 0.60947 0.23486 0.58176 0.0
H3692 H 0.6795 0.31803 0.43379 0.0
H3693 H 0.64268 0.28301 0.44757 0.0
H3694 H 0.65569 0.32223 0.48082 0.0
H3695 H 0.66331 0.29314 0.42774 0.0
Tb3696 Tb 0.26262 0.48385 0.14355 0.0
C3697 C 0.2023 0.51189 0.10319 0.0
N3698 N 0.21733 0.5182 0.10638 0.0
C3699 C 0.21937 0.52772 0.07862 0.0
C3700 C 0.19569 0.51199 0.08724 0.0
C3701 C 0.22533 0.52717 0.09472 0.0
C3702 C 0.20471 0.51963 0.07473 0.0
C3703 C 0.177 0.50081 0.11398 0.0
C3704 C 0.19314 0.50662 0.11633 0.0
C3705 C 0.17072 0.4995 0.09794 0.0
C3706 C 0.18004 0.50517 0.08457 0.0
Tb3707 Tb 0.22758 0.51406 0.13216 0.0
N3708 N 0.19969 0.50852 0.13154 0.0
C3709 C 0.16752 0.49714 0.12783 0.0
C3710 C 0.1899 0.5065 0.14508 0.0
C3711 C 0.17386 0.50037 0.14345 0.0
H3712 H 0.23623 0.53402 0.09788 0.0
H3713 H 0.16641 0.49814 0.15424 0.0
H3714 H 0.24913 0.46523 0.17821 0.0
H3715 H 0.31008 0.52873 0.13281 0.0
H3716 H 0.19456 0.50911 0.15723 0.0
H3717 H 0.15508 0.4925 0.1266 0.0
H3718 H 0.28462 0.51346 0.12596 0.0
H3719 H 0.22602 0.53446 0.06928 0.0
H3720 H 0.15844 0.49478 0.09582 0.0
H3721 H 0.17481 0.5048 0.07235 0.0
H3722 H 0.2598 0.46131 0.20611 0.0
H3723 H 0.20007 0.52008 0.06229 0.0
H3724 H 0.32368 0.52433 0.15961 0.0
N3725 N 0.26907 0.4805 0.17055 0.0
C3726 C 0.28353 0.48774 0.17483 0.0
C3727 C 0.26657 0.46877 0.19744 0.0
C3728 C 0.29023 0.48548 0.19062 0.0
C3729 C 0.26043 0.47126 0.18162 0.0
C3730 C 0.28161 0.47576 0.20191 0.0
N3731 N 0.28368 0.50116 0.14888 0.0
C3732 C 0.2903 0.51177 0.13779 0.0
C3733 C 0.30562 0.50669 0.16802 0.0
C3734 C 0.2911 0.49836 0.16365 0.0
C3735 C 0.31248 0.5177 0.15673 0.0
C3736 C 0.30477 0.52029 0.1416 0.0
H3737 H 0.28632 0.47379 0.21418 0.0
H3738 H 0.31038 0.49174 0.20683 0.0
H3739 H 0.3239 0.51017 0.18706 0.0
O3740 O 0.28314 0.47322 0.13189 0.0
O3741 O 0.25875 0.50649 0.15919 0.0
O3742 O 0.23154 0.51246 0.15977 0.0
O3743 O 0.27027 0.46049 0.1512 0.0
O3744 O 0.26357 0.48993 0.11648 0.0
O3745 O 0.25026 0.51461 0.11584 0.0
O3746 O 0.21424 0.53586 0.13096 0.0
O3747 O 0.22745 0.49253 0.11594 0.0
O3748 O 0.24306 0.4724 0.12897 0.0
O3749 O 0.23991 0.53598 0.13869 0.0
O3750 O 0.22056 0.49612 0.151 0.0
O3751 O 0.23909 0.47411 0.15197 0.0
C3752 C 0.24551 0.51022 0.16803 0.0
C3753 C 0.27841 0.44513 0.1284 0.0
C3754 C 0.28951 0.42759 0.10712 0.0
C3755 C 0.27439 0.41922 0.10616 0.0
C3756 C 0.26335 0.43661 0.1276 0.0
C3757 C 0.26136 0.42376 0.1164 0.0
C3758 C 0.29127 0.44074 0.11801 0.0
C3759 C 0.25801 0.50257 0.10778 0.0
C3760 C 0.28074 0.45922 0.13927 0.0
C3761 C 0.30498 0.49341 0.19479 0.0
C3762 C 0.31266 0.50395 0.18353 0.0
C3763 C 0.23213 0.4772 0.11805 0.0
C3764 C 0.22176 0.55658 0.14949 0.0
C3765 C 0.20154 0.56728 0.1691 0.0
C3766 C 0.21049 0.5821 0.16979 0.0
C3767 C 0.23047 0.57139 0.15046 0.0
C3768 C 0.20746 0.55443 0.15908 0.0
C3769 C 0.22491 0.58404 0.16066 0.0
C3770 C 0.22492 0.48114 0.15543 0.0
C3771 C 0.22636 0.54461 0.13672 0.0
H3772 H 0.27286 0.40878 0.09801 0.0
H3773 H 0.25307 0.43997 0.13542 0.0
H3774 H 0.24978 0.41722 0.11577 0.0
H3775 H 0.30281 0.44742 0.11862 0.0
H3776 H 0.20608 0.59245 0.17697 0.0
H3777 H 0.24129 0.57337 0.14291 0.0
H3778 H 0.20067 0.54299 0.15832 0.0
H3779 H 0.23151 0.59559 0.1611 0.0
Tb3780 Tb 0.26351 0.47933 0.88364 0.0
C3781 C 0.31997 0.51122 0.92333 0.0
N3782 N 0.30521 0.51778 0.91929 0.0
C3783 C 0.30264 0.52916 0.94637 0.0
C3784 C 0.32606 0.5121 0.93946 0.0
C3785 C 0.29709 0.52769 0.93018 0.0
C3786 C 0.31694 0.52088 0.95119 0.0
C3787 C 0.34517 0.49837 0.91415 0.0
C3788 C 0.32936 0.50468 0.91083 0.0
C3789 C 0.35083 0.49783 0.93046 0.0
C3790 C 0.34131 0.50479 0.94311 0.0
Tb3791 Tb 0.29563 0.5123 0.89346 0.0
N3792 N 0.32342 0.5058 0.89526 0.0
C3793 C 0.35504 0.4935 0.90093 0.0
C3794 C 0.33383 0.50292 0.88232 0.0
C3795 C 0.34952 0.49622 0.88494 0.0
H3796 H 0.28626 0.53441 0.92638 0.0
H3797 H 0.35741 0.4933 0.8746 0.0
H3798 H 0.27116 0.45807 0.84929 0.0
H3799 H 0.21941 0.528 0.89638 0.0
H3800 H 0.33014 0.50558 0.86988 0.0
H3801 H 0.36724 0.48845 0.90292 0.0
H3802 H 0.24533 0.51309 0.90052 0.0
H3803 H 0.2959 0.53666 0.9551 0.0
H3804 H 0.36283 0.49274 0.93331 0.0
H3805 H 0.3461 0.50499 0.95551 0.0
H3806 H 0.25535 0.45046 0.82452 0.0
H3807 H 0.32121 0.52197 0.96373 0.0
H3808 H 0.20091 0.5203 0.87359 0.0
N3809 N 0.25228 0.47367 0.8588 0.0
C3810 C 0.23724 0.48057 0.85643 0.0
C3811 C 0.2501 0.45889 0.83342 0.0
C3812 C 0.22778 0.47651 0.84254 0.0
C3813 C 0.25906 0.46332 0.84737 0.0
C3814 C 0.23429 0.46531 0.83111 0.0
N3815 N 0.24215 0.49724 0.88 0.0
C3816 C 0.23774 0.50969 0.89036 0.0
C3817 C 0.21698 0.501 0.86457 0.0
C3818 C 0.23205 0.49284 0.8673 0.0
C3819 C 0.21241 0.51373 0.87524 0.0
C3820 C 0.22288 0.51815 0.88809 0.0
H3821 H 0.2274 0.46189 0.82026 0.0
H3822 H 0.20492 0.48112 0.82969 0.0
H3823 H 0.19538 0.50243 0.84902 0.0
O3824 O 0.24364 0.46765 0.89586 0.0
O3825 O 0.26614 0.49654 0.86209 0.0
O3826 O 0.28937 0.51263 0.86576 0.0
O3827 O 0.26008 0.45418 0.87934 0.0
O3828 O 0.26308 0.48603 0.91067 0.0
O3829 O 0.27353 0.51195 0.91046 0.0
O3830 O 0.30965 0.53357 0.89473 0.0
O3831 O 0.2968 0.49078 0.90979 0.0
O3832 O 0.28583 0.46952 0.8947 0.0
O3833 O 0.2837 0.53484 0.88825 0.0
O3834 O 0.30302 0.49629 0.87292 0.0
O3835 O 0.28725 0.47234 0.87271 0.0
C3836 C 0.27731 0.50677 0.85598 0.0
C3837 C 0.23762 0.43883 0.89043 0.0
C3838 C 0.22131 0.42107 0.90761 0.0
C3839 C 0.21921 0.41017 0.89437 0.0
C3840 C 0.23574 0.42787 0.87723 0.0
C3841 C 0.22648 0.41357 0.87922 0.0
C3842 C 0.23046 0.4354 0.9056 0.0
C3843 C 0.26711 0.49951 0.91897 0.0
C3844 C 0.24707 0.45385 0.88848 0.0
C3845 C 0.21248 0.4842 0.84019 0.0
C3846 C 0.20708 0.49639 0.85119 0.0
C3847 C 0.29541 0.47509 0.90635 0.0
C3848 C 0.30211 0.55453 0.87658 0.0
C3849 C 0.32232 0.56488 0.85698 0.0
C3850 C 0.31244 0.5789 0.85459 0.0
C3851 C 0.29248 0.56864 0.87415 0.0
C3852 C 0.31695 0.55261 0.86778 0.0
C3853 C 0.29759 0.58071 0.8631 0.0
C3854 C 0.30007 0.48109 0.868 0.0
C3855 C 0.29763 0.54289 0.88963 0.0
H3856 H 0.21232 0.39887 0.89588 0.0
H3857 H 0.24131 0.43043 0.86541 0.0
H3858 H 0.22502 0.40509 0.86907 0.0
H3859 H 0.23216 0.44372 0.91588 0.0
H3860 H 0.31644 0.5887 0.84653 0.0
H3861 H 0.28122 0.57048 0.88108 0.0
H3862 H 0.32458 0.5418 0.86962 0.0
H3863 H 0.29021 0.59169 0.86142 0.0
Tb3864 Tb 0.29478 0.50896 0.6308 0.0
C3865 C 0.25735 0.56163 0.67653 0.0
N3866 N 0.25178 0.54813 0.66843 0.0
C3867 C 0.23541 0.5408 0.69191 0.0
C3868 C 0.25333 0.56442 0.69315 0.0
C3869 C 0.23972 0.53863 0.67541 0.0
C3870 C 0.24264 0.55346 0.70097 0.0
C3871 C 0.27121 0.58801 0.67546 0.0
C3872 C 0.26586 0.57344 0.66773 0.0
C3873 C 0.26848 0.59017 0.69236 0.0
C3874 C 0.25948 0.57843 0.70118 0.0
Tb3875 Tb 0.26184 0.54509 0.64217 0.0
N3876 N 0.26811 0.57099 0.65136 0.0
C3877 C 0.27871 0.60015 0.66588 0.0
C3878 C 0.27429 0.58331 0.64182 0.0
C3879 C 0.27994 0.59792 0.64892 0.0
H3880 H 0.23394 0.52888 0.66845 0.0
H3881 H 0.28518 0.60748 0.6413 0.0
H3882 H 0.31195 0.51426 0.59391 0.0
H3883 H 0.24982 0.46489 0.65303 0.0
H3884 H 0.27483 0.5819 0.62881 0.0
H3885 H 0.28304 0.61151 0.67135 0.0
H3886 H 0.26646 0.48979 0.65475 0.0
H3887 H 0.2265 0.53273 0.69761 0.0
H3888 H 0.27273 0.60117 0.69858 0.0
H3889 H 0.25684 0.5806 0.71405 0.0
H3890 H 0.31365 0.49882 0.56803 0.0
H3891 H 0.23926 0.55514 0.71374 0.0
H3892 H 0.25103 0.44735 0.62826 0.0
N3893 N 0.2959 0.49704 0.60553 0.0
C3894 C 0.28775 0.48255 0.60415 0.0
C3895 C 0.30632 0.49411 0.57808 0.0
C3896 C 0.28854 0.47324 0.58953 0.0
C3897 C 0.30518 0.50291 0.59279 0.0
C3898 C 0.29804 0.47917 0.57646 0.0
N3899 N 0.27694 0.4872 0.63089 0.0
C3900 C 0.26707 0.48271 0.64369 0.0
C3901 C 0.26852 0.463 0.61576 0.0
C3902 C 0.27781 0.47757 0.61714 0.0
C3903 C 0.25836 0.45846 0.62884 0.0
C3904 C 0.25761 0.46837 0.64282 0.0
H3905 H 0.2989 0.47241 0.56501 0.0
H3906 H 0.28003 0.45124 0.57719 0.0
H3907 H 0.26256 0.44221 0.60014 0.0
O3908 O 0.30792 0.48833 0.63911 0.0
O3909 O 0.27454 0.5127 0.6115 0.0
O3910 O 0.26224 0.53857 0.61455 0.0
O3911 O 0.3198 0.50723 0.6249 0.0
O3912 O 0.28791 0.51085 0.65819 0.0
O3913 O 0.26236 0.52314 0.65887 0.0
O3914 O 0.24638 0.56259 0.63216 0.0
O3915 O 0.28658 0.5522 0.6502 0.0
O3916 O 0.30154 0.52719 0.6501 0.0
O3917 O 0.23784 0.53686 0.63637 0.0
O3918 O 0.28245 0.53776 0.62809 0.0
O3919 O 0.30491 0.53019 0.61769 0.0
C3920 C 0.26618 0.5254 0.60508 0.0
C3921 C 0.33417 0.4969 0.64748 0.0
C3922 C 0.34753 0.48591 0.67168 0.0
C3923 C 0.35652 0.50063 0.67331 0.0
C3924 C 0.34322 0.51158 0.64918 0.0
C3925 C 0.35426 0.51342 0.66213 0.0
C3926 C 0.33617 0.48436 0.65892 0.0
C3927 C 0.27519 0.5169 0.66696 0.0
C3928 C 0.32189 0.4947 0.6345 0.0
C3929 C 0.27954 0.45859 0.58829 0.0
C3930 C 0.26957 0.45348 0.60136 0.0
C3931 C 0.29898 0.5427 0.65486 0.0
C3932 C 0.21859 0.55659 0.62405 0.0
C3933 C 0.20322 0.57723 0.60897 0.0
C3934 C 0.18847 0.56914 0.613 0.0
C3935 C 0.2039 0.54851 0.62807 0.0
C3936 C 0.21818 0.57045 0.61401 0.0
C3937 C 0.18888 0.55471 0.62237 0.0
C3938 C 0.29495 0.54233 0.61903 0.0
C3939 C 0.23439 0.5518 0.63114 0.0
H3940 H 0.36571 0.50206 0.6828 0.0
H3941 H 0.34171 0.52166 0.64064 0.0
H3942 H 0.36127 0.52467 0.66337 0.0
H3943 H 0.32892 0.47323 0.65775 0.0
H3944 H 0.17668 0.57416 0.60934 0.0
H3945 H 0.20401 0.53774 0.63588 0.0
H3946 H 0.22964 0.57631 0.61049 0.0
H3947 H 0.1775 0.54861 0.62561 0.0
Tb3948 Tb 0.22945 0.51691 0.39115 0.0
C3949 C 0.26497 0.57361 0.35322 0.0
N3950 N 0.27055 0.55831 0.35657 0.0
C3951 C 0.28174 0.55618 0.32939 0.0
C3952 C 0.26643 0.58043 0.33743 0.0
C3953 C 0.2798 0.54997 0.34529 0.0
C3954 C 0.2746 0.57129 0.32529 0.0
C3955 C 0.25399 0.59918 0.36364 0.0
C3956 C 0.25903 0.58277 0.36614 0.0
C3957 C 0.25397 0.60569 0.34765 0.0
C3958 C 0.26029 0.59634 0.33455 0.0
Tb3959 Tb 0.26416 0.5478 0.38175 0.0
N3960 N 0.25976 0.57601 0.38136 0.0
C3961 C 0.24994 0.60872 0.37737 0.0
C3962 C 0.25785 0.58597 0.39483 0.0
C3963 C 0.25234 0.60223 0.39305 0.0
H3964 H 0.28574 0.53855 0.3486 0.0
H3965 H 0.25011 0.60979 0.40378 0.0
H3966 H 0.20895 0.52753 0.42538 0.0
H3967 H 0.27284 0.46765 0.37953 0.0
H3968 H 0.2603 0.58145 0.40704 0.0
H3969 H 0.24586 0.62135 0.37602 0.0
H3970 H 0.26076 0.49511 0.37496 0.0
H3971 H 0.28876 0.54933 0.32035 0.0
H3972 H 0.24985 0.61817 0.34542 0.0
H3973 H 0.26095 0.60174 0.32242 0.0
H3974 H 0.20002 0.51336 0.45062 0.0
H3975 H 0.27611 0.5761 0.31299 0.0
H3976 H 0.26304 0.45043 0.40256 0.0
N3977 N 0.22228 0.50683 0.41616 0.0
C3978 C 0.22745 0.49117 0.41889 0.0
C3979 C 0.2077 0.50698 0.44178 0.0
C3980 C 0.2225 0.48258 0.43306 0.0
C3981 C 0.21294 0.51503 0.42755 0.0
C3982 C 0.21228 0.49061 0.44444 0.0
N3983 N 0.24442 0.49361 0.39528 0.0
C3984 C 0.25645 0.48785 0.38509 0.0
C3985 C 0.24543 0.46856 0.41115 0.0
C3986 C 0.23889 0.48431 0.40809 0.0
C3987 C 0.25767 0.46249 0.40063 0.0
C3988 C 0.26329 0.47223 0.38764 0.0
H3989 H 0.20822 0.48443 0.45549 0.0
H3990 H 0.22461 0.45967 0.44644 0.0
H3991 H 0.24461 0.44735 0.42725 0.0
O3992 O 0.2169 0.50125 0.37515 0.0
O3993 O 0.24973 0.51645 0.41001 0.0
O3994 O 0.26269 0.54161 0.40903 0.0
O3995 O 0.20423 0.5129 0.3954 0.0
O3996 O 0.2371 0.51526 0.36459 0.0
O3997 O 0.26311 0.52592 0.3643 0.0
O3998 O 0.2869 0.55939 0.38077 0.0
O3999 O 0.24348 0.54934 0.36446 0.0
O4000 O 0.2224 0.54045 0.38073 0.0
O4001 O 0.28514 0.53388 0.38844 0.0
O4002 O 0.24787 0.55582 0.40212 0.0
O4003 O 0.22337 0.5409 0.40209 0.0
C4004 C 0.25771 0.52849 0.41764 0.0
C4005 C 0.19438 0.48708 0.3862 0.0
C4006 C 0.17893 0.46531 0.37311 0.0
C4007 C 0.17312 0.46018 0.38855 0.0
C4008 C 0.18833 0.48222 0.4016 0.0
C4009 C 0.17804 0.4685 0.40276 0.0
C4010 C 0.19022 0.47816 0.37224 0.0
C4011 C 0.25056 0.51908 0.35622 0.0
C4012 C 0.20324 0.50241 0.38346 0.0
C4013 C 0.22842 0.46656 0.43572 0.0
C4014 C 0.23984 0.45956 0.42479 0.0
C4015 C 0.22774 0.54736 0.36732 0.0
C4016 C 0.30482 0.55121 0.40172 0.0
C4017 C 0.315 0.57184 0.421 0.0
C4018 C 0.32581 0.56011 0.42761 0.0
C4019 C 0.31585 0.53968 0.40828 0.0
C4020 C 0.30437 0.56725 0.40831 0.0
C4021 C 0.3262 0.54411 0.42125 0.0
C4022 C 0.23259 0.55324 0.4072 0.0
C4023 C 0.29453 0.54697 0.38741 0.0
H4024 H 0.16415 0.4504 0.38957 0.0
H4025 H 0.19113 0.48917 0.41256 0.0
H4026 H 0.17323 0.46481 0.41459 0.0
H4027 H 0.19486 0.48209 0.36037 0.0
H4028 H 0.33428 0.56347 0.4373 0.0
H4029 H 0.31658 0.52734 0.40325 0.0
H4030 H 0.29601 0.5764 0.40338 0.0
H4031 H 0.33479 0.5352 0.42618 0.0
C4032 C 0.04005 0.4472 0.26906 0.0
C4033 C 0.02554 0.43762 0.26724 0.0
C4034 C 0.03997 0.46486 0.26876 0.0
C4035 C 0.01291 0.50326 0.25811 0.0
H4036 H 0.04765 0.5274 0.27976 0.0
C4037 C 1.01103 0.57736 0.26132 0.0
C4038 C 0.02545 0.58692 0.26373 0.0
C4039 C 1.011 0.55969 0.26179 0.0
C4040 C 0.03779 0.52119 0.27338 0.0
H4041 H 0.99954 0.4406 0.2624 0.0
H4042 H 0.99921 0.47075 0.26221 0.0
H4043 H 0.04764 0.49744 0.28024 0.0
H4044 H 0.05114 0.58382 0.27004 0.0
H4045 H 0.05125 0.55375 0.2708 0.0
H4046 H 1.0031 0.52697 0.25118 0.0
C4047 C 1.01092 0.46467 0.2641 0.0
C4048 C 0.03779 0.5035 0.27366 0.0
C4049 C 1.01102 0.44698 0.26447 0.0
C4050 C 0.0397 0.5775 0.26757 0.0
C4051 C 0.0397 0.55981 0.26815 0.0
C4052 C 0.01293 0.52095 0.25779 0.0
C4053 C 0.02539 0.47434 0.26634 0.0
C4054 C 0.02535 0.49381 0.26604 0.0
C4055 C 0.02537 0.55015 0.26508 0.0
C4056 C 0.02537 0.53066 0.26543 0.0
H4057 H 0.0517 0.44099 0.27093 0.0
H4058 H 0.05164 0.47106 0.27025 0.0
H4059 H 1.00307 0.49701 0.25174 0.0
H4060 H 0.99949 0.58357 0.25918 0.0
H4061 H 0.99937 0.55356 0.25975 0.0
C4062 C 0.82556 0.78865 0.51116 0.0
C4063 C 0.83517 0.77405 0.51244 0.0
C4064 C 0.80781 0.78867 0.51119 0.0
C4065 C 0.76884 0.75974 0.51585 0.0
H4066 H 0.74471 0.79981 0.50699 0.0
C4067 C 0.69439 0.75963 0.51105 0.0
C4068 C 0.68481 0.77413 0.51335 0.0
C4069 C 0.71214 0.75957 0.51096 0.0
C4070 C 0.75093 0.78835 0.50969 0.0
H4071 H 0.8319 0.74768 0.51282 0.0
H4072 H 0.80191 0.74752 0.51324 0.0
H4073 H 0.77464 0.79985 0.5065 0.0
H4074 H 0.6881 0.80008 0.51844 0.0
H4075 H 0.71827 0.80009 0.51833 0.0
H4076 H 0.745 0.74828 0.51893 0.0
C4077 C 0.80789 0.75937 0.51287 0.0
C4078 C 0.76869 0.78834 0.50938 0.0
C4079 C 0.82563 0.7594 0.51282 0.0
C4080 C 0.69438 0.7885 0.51627 0.0
C4081 C 0.71213 0.78851 0.51609 0.0
C4082 C 0.75108 0.75974 0.51606 0.0
C4083 C 0.79813 0.77403 0.51223 0.0
C4084 C 0.77847 0.77404 0.51247 0.0
C4085 C 0.72178 0.77405 0.51331 0.0
C4086 C 0.74136 0.77405 0.51302 0.0
H4087 H 0.8318 0.80036 0.51022 0.0
H4088 H 0.80178 0.80051 0.51051 0.0
H4089 H 0.77492 0.74824 0.51859 0.0
H4090 H 0.68817 0.74803 0.50946 0.0
H4091 H 0.71827 0.74794 0.50878 0.0
C4092 C 0.48885 0.44688 0.75224 0.0
C4093 C 0.49777 0.43702 0.7636 0.0
C4094 C 0.48896 0.46464 0.75244 0.0
C4095 C 0.50963 0.50348 0.77342 0.0
H4096 H 0.47745 0.5279 0.74836 0.0
C4097 C 0.51326 0.57791 0.76887 0.0
C4098 C 0.49933 0.58798 0.76541 0.0
C4099 C 0.51289 0.56016 0.76871 0.0
C4100 C 0.48664 0.52161 0.75562 0.0
H4101 H 0.51434 0.43985 0.78411 0.0
H4102 H 0.51435 0.47006 0.78483 0.0
H4103 H 0.47714 0.49788 0.74819 0.0
H4104 H 0.47372 0.58532 0.75854 0.0
H4105 H 0.47309 0.55508 0.75782 0.0
H4106 H 0.51899 0.52726 0.78097 0.0
C4107 C 0.5071 0.46418 0.7754 0.0
C4108 C 0.48657 0.50381 0.75542 0.0
C4109 C 0.50706 0.44636 0.77509 0.0
C4110 C 0.48498 0.57874 0.7613 0.0
C4111 C 0.48463 0.56092 0.76091 0.0
C4112 C 0.50975 0.52126 0.77354 0.0
C4113 C 0.49802 0.47416 0.76409 0.0
C4114 C 0.49807 0.49389 0.76431 0.0
C4115 C 0.49855 0.55083 0.76477 0.0
C4116 C 0.49828 0.53115 0.76464 0.0
H4117 H 0.48198 0.44083 0.74266 0.0
H4118 H 0.48195 0.47084 0.74305 0.0
H4119 H 0.51897 0.49729 0.78056 0.0
H4120 H 0.52482 0.58375 0.77146 0.0
H4121 H 0.52423 0.55375 0.77149 0.0
C4122 C 0.82359 0.26246 1.00472 0.0
C4123 C 0.83358 0.24906 1.00971 0.0
C4124 C 0.80597 0.26201 1.00505 0.0
C4125 C 0.76805 0.23373 0.01612 0.0
H4126 H 0.74328 0.27087 0.99969 0.0
C4127 C 0.69438 0.23059 1.00921 0.0
C4128 C 0.68447 0.24498 1.01005 0.0
C4129 C 0.71204 0.23104 1.00936 0.0
C4130 C 0.7497 0.26027 1.00454 0.0
H4131 H 0.83137 0.22452 0.01977 0.0
H4132 H 0.80139 0.22358 0.02043 0.0
H4133 H 0.77299 0.2718 1.00001 0.0
H4134 H 0.68688 0.27142 1.00888 0.0
H4135 H 0.7169 0.27242 1.00986 0.0
H4136 H 0.74445 0.22232 0.02065 0.0
C4137 C 0.80697 0.23475 0.01595 0.0
C4138 C 0.76734 0.26075 1.00467 0.0
C4139 C 0.82465 0.23527 0.01564 0.0
C4140 C 0.69348 0.25991 1.00959 0.0
C4141 C 0.71114 0.26044 1.00971 0.0
C4142 C 0.75037 0.23325 0.01593 0.0
C4143 C 0.79684 0.24807 1.0105 0.0
C4144 C 0.77732 0.2475 1.01047 0.0
C4145 C 0.72111 0.24599 1.00986 0.0
C4146 C 0.74051 0.2465 1.01012 0.0
H4147 H 0.82941 0.27356 1.00045 0.0
H4148 H 0.79968 0.27291 1.00084 0.0
H4149 H 0.77431 0.22302 0.02086 0.0
H4150 H 0.68849 0.21877 1.00821 0.0
H4151 H 0.71855 0.21942 1.00877 0.0
C4152 C 0.26342 0.03453 0.44863 0.0
C4153 C 0.26604 0.01999 0.43914 0.0
C4154 C 0.26252 0.03465 0.4663 0.0
C4155 C 0.269 1.00709 0.50569 0.0
H4156 H 0.25159 0.04504 0.52857 0.0
C4157 C 0.26433 1.00738 0.58018 0.0
C4158 C 0.2606 0.0218 0.58943 0.0
C4159 C 0.26492 1.00709 0.56246 0.0
C4160 C 0.25672 0.03419 0.52281 0.0
H4161 H 0.26793 0.99368 0.4427 0.0
H4162 H 0.26683 0.99378 0.47269 0.0
H4163 H 0.25239 0.0446 0.49879 0.0
H4164 H 0.25505 0.04755 0.58562 0.0
H4165 H 0.25626 0.04725 0.55565 0.0
H4166 H 0.27334 0.99667 0.52968 0.0
C4167 C 0.26604 1.00552 0.46653 0.0
C4168 C 0.2572 0.03394 0.50509 0.0
C4169 C 0.26686 1.00543 0.44881 0.0
C4170 C 0.25794 0.036 0.57958 0.0
C4171 C 0.25851 0.03574 0.56188 0.0
C4172 C 0.26855 1.00735 0.52341 0.0
C4173 C 0.26401 0.02017 0.4761 0.0
C4174 C 0.26337 0.02038 0.49571 0.0
C4175 C 0.26193 0.02125 0.55246 0.0
C4176 C 0.26241 0.02093 0.53282 0.0
H4177 H 0.26218 0.04617 0.44234 0.0
H4178 H 0.26088 0.04645 0.47224 0.0
H4179 H 0.27411 0.99626 0.49985 0.0
H4180 H 0.26681 0.99605 0.58668 0.0
H4181 H 0.2676 0.99541 0.55668 0.0
C4182 C 0.23279 0.01509 0.69845 0.0
C4183 C 0.24668 0.01204 0.68817 0.0
C4184 C 0.2335 0.01495 0.71618 0.0
C4185 C 0.26208 1.00401 0.75407 0.0
H4186 H 0.22713 0.02391 0.77965 0.0
C4187 C 0.26664 1.00843 0.82856 0.0
C4188 C 0.25242 1.00921 0.83883 0.0
C4189 C 0.26596 1.00882 0.81083 0.0
C4190 C 0.23712 0.01805 0.77303 0.0
H4191 H 0.27243 1.00556 0.69038 0.0
H4192 H 0.27379 1.00535 0.72039 0.0
H4193 H 0.22606 0.02442 0.74972 0.0
H4194 H 0.22599 0.01187 0.83657 0.0
H4195 H 0.22479 0.01302 0.80649 0.0
H4196 H 0.27317 0.99777 0.77745 0.0
C4197 C 0.26201 1.00808 0.71488 0.0
C4198 C 0.23649 0.01834 0.75528 0.0
C4199 C 0.26128 1.00836 0.69714 0.0
C4200 C 0.23748 0.01115 0.82984 0.0
C4201 C 0.23679 0.01179 0.8121 0.0
C4202 C 0.26274 1.0038 0.77181 0.0
C4203 C 0.24815 0.01147 0.72526 0.0
C4204 C 0.24892 0.01128 0.74494 0.0
C4205 C 0.251 1.01044 0.80177 0.0
C4206 C 0.25027 1.01078 0.78212 0.0
H4207 H 0.22113 0.01786 0.69277 0.0
H4208 H 0.22219 0.0175 0.72274 0.0
H4209 H 0.27208 0.99812 0.74752 0.0
H4210 H 0.27863 1.00772 0.83423 0.0
H4211 H 0.2775 1.00808 0.80421 0.0
C4212 C 0.26379 0.97965 0.07849 0.0
C4213 C 0.26413 0.99418 0.08824 0.0
C4214 C 0.26355 0.97987 0.06081 0.0
C4215 C 0.26798 1.00904 0.02244 0.0
H4216 H 0.25527 0.97021 0.99815 0.0
C4217 C 0.26381 1.01028 0.94817 0.0
C4218 C 0.26342 0.99565 0.93856 0.0
C4219 C 0.26384 1.01024 0.96585 0.0
C4220 C 0.2591 0.98132 1.00437 0.0
H4221 H 0.26292 0.02058 0.08537 0.0
H4222 H 0.26295 0.02115 0.05539 0.0
H4223 H 0.25518 0.96988 0.02797 0.0
H4224 H 0.26425 0.96927 0.94171 0.0
H4225 H 0.26435 0.96903 0.97167 0.0
H4226 H 0.27186 0.02049 0.99881 0.0
C4227 C 0.26339 1.00924 0.06127 0.0
C4228 C 0.25905 0.98112 0.02205 0.0
C4229 C 0.26353 1.00896 0.07894 0.0
C4230 C 0.26391 0.98097 0.94801 0.0
C4231 C 0.26396 0.98087 0.96568 0.0
C4232 C 0.26803 1.00925 1.00475 0.0
C4233 C 0.26352 0.99469 0.05141 0.0
C4234 C 0.2635 0.99496 0.03188 0.0
C4235 C 0.26375 0.99552 0.9754 0.0
C4236 C 0.26363 0.99537 0.99493 0.0
H4237 H 0.26389 0.96783 0.08455 0.0
H4238 H 0.26366 0.96813 0.05456 0.0
H4239 H 0.27178 0.02015 0.02868 0.0
H4240 H 0.26424 0.02201 0.94199 0.0
H4241 H 0.26376 0.02205 0.97199 0.0
C4242 C 0.28799 1.00188 0.19671 0.0
C4243 C 0.2744 1.00734 0.18712 0.0
C4244 C 0.28812 1.00225 0.21439 0.0
C4245 C 0.26575 0.02059 0.25307 0.0
H4246 H 0.29296 0.99002 0.27728 0.0
C4247 C 0.26474 0.02096 0.32738 0.0
C4248 C 0.27689 0.01312 0.33725 0.0
C4249 C 0.26445 0.02008 0.30973 0.0
C4250 C 0.28529 0.99894 0.27109 0.0
H4251 H 0.25022 0.0181 0.19031 0.0
H4252 H 0.25057 0.0193 0.22051 0.0
H4253 H 0.29236 0.98906 0.24735 0.0
H4254 H 0.29851 0.99774 0.33439 0.0
H4255 H 0.29803 0.99599 0.30429 0.0
H4256 H 0.25879 0.03063 0.27666 0.0
C4257 C 0.26131 0.01435 0.21436 0.0
C4258 C 0.28494 0.99837 0.25337 0.0
C4259 C 0.26104 0.01361 0.19663 0.0
C4260 C 0.28871 1.00404 0.32794 0.0
C4261 C 0.28839 1.00305 0.31019 0.0
C4262 C 0.26618 0.02124 0.27078 0.0
C4263 C 0.27482 1.00856 0.22402 0.0
C4264 C 0.27515 1.00916 0.24358 0.0
C4265 C 0.27629 0.01116 0.30026 0.0
C4266 C 0.27594 1.01043 0.28063 0.0
H4267 H 0.29869 0.99695 0.19049 0.0
H4268 H 0.29902 0.9977 0.22052 0.0
H4269 H 0.25809 0.02947 0.2468 0.0
H4270 H 0.25516 0.02801 0.33331 0.0
H4271 H 0.25456 0.02649 0.30359 0.0
C4272 C 0.4456 0.26017 1.00723 0.0
C4273 C 0.43604 0.26192 0.02178 0.0
C4274 C 0.46337 0.25979 1.00721 0.0
C4275 C 0.50244 0.25728 0.03594 0.0
H4276 H 0.52622 0.26625 0.99585 0.0
C4277 C 0.57719 0.25852 0.0357 0.0
C4278 C 0.58673 0.25837 0.02102 0.0
C4279 C 0.55944 0.25907 0.03589 0.0
C4280 C 0.5202 0.26352 1.00736 0.0
H4281 H 0.43936 0.26399 0.04804 0.0
H4282 H 0.46949 0.26331 0.04813 0.0
H4283 H 0.49633 0.26671 0.99606 0.0
H4284 H 0.58329 0.26015 0.99479 0.0
H4285 H 0.55323 0.26071 0.9949 0.0
H4286 H 0.52627 0.25407 0.04727 0.0
C4287 C 0.4634 0.26228 0.03639 0.0
C4288 C 0.50243 0.26377 1.00746 0.0
C4289 C 0.44564 0.2627 0.03637 0.0
C4290 C 0.57708 0.25958 1.00652 0.0
C4291 C 0.55931 0.26013 1.00666 0.0
C4292 C 0.52022 0.25699 0.03584 0.0
C4293 C 0.47308 0.26093 0.02179 0.0
C4294 C 0.49274 0.26065 0.02174 0.0
C4295 C 0.54964 0.25973 0.02136 0.0
C4296 C 0.52995 0.26009 0.02153 0.0
H4297 H 0.43933 0.25894 0.9956 0.0
H4298 H 0.46946 0.25838 0.99548 0.0
H4299 H 0.49634 0.25456 0.04742 0.0
H4300 H 0.58348 0.258 0.04734 0.0
H4301 H 0.55349 0.25906 0.04776 0.0
C4302 C 0.94518 0.26049 0.99046 0.0
C4303 C 0.93542 0.25874 1.00491 0.0
C4304 C 0.96294 0.26094 0.99058 0.0
C4305 C 1.00197 0.25494 0.01895 0.0
H4306 H 0.02573 0.27053 0.98095 0.0
C4307 C 0.07682 0.25916 0.01985 0.0
C4308 C 0.08635 0.26212 1.00547 0.0
C4309 C 0.05902 0.25869 0.01988 0.0
C4310 C 0.01972 0.26591 0.99184 0.0
H4311 H 0.93858 0.2573 0.03121 0.0
H4312 H 0.96868 0.25778 0.03153 0.0
H4313 H 0.99585 0.27004 0.98085 0.0
H4314 H 0.0829 0.26629 0.97951 0.0
H4315 H 0.05286 0.26528 0.97938 0.0
H4316 H 0.02583 0.25081 0.02995 0.0
C4317 C 0.96269 0.25837 0.01972 0.0
C4318 C 1.00194 0.26562 0.99177 0.0
C4319 C 0.94491 0.25795 0.01956 0.0
C4320 C 0.07667 0.26407 0.99106 0.0
C4321 C 0.05891 0.26362 0.99105 0.0
C4322 C 0.01976 0.25521 0.01901 0.0
C4323 C 0.97254 0.25978 1.00521 0.0
C4324 C 0.99223 0.26012 1.00532 0.0
C4325 C 0.04921 0.26102 1.00548 0.0
C4326 C 0.02949 0.2607 1.00545 0.0
H4327 H 0.93904 0.26128 0.97873 0.0
H4328 H 0.9691 0.26196 0.97886 0.0
H4329 H 0.99589 0.25034 0.02982 0.0
H4330 H 0.08315 0.25715 0.03135 0.0
H4331 H 0.05301 0.25663 0.03153 0.0
C4332 C 0.01536 0.69628 0.23954 0.0
C4333 C 0.01444 0.68638 0.25392 0.0
C4334 C 0.01473 0.71401 0.23988 0.0
C4335 C 0.01716 0.75246 0.26915 0.0
H4336 H 1.0041 0.77673 0.23058 0.0
C4337 C 0.01463 0.82729 0.27072 0.0
C4338 C 1.01164 0.83694 0.25648 0.0
C4339 C 0.01489 0.8095 0.27052 0.0
C4340 C 1.008 0.77059 0.24166 0.0
H4341 H 1.01086 0.68911 0.2801 0.0
H4342 H 1.01021 0.71929 0.28082 0.0
H4343 H 1.0045 0.74683 0.23008 0.0
H4344 H 1.00705 0.83379 0.23054 0.0
H4345 H 1.00772 0.80382 0.23001 0.0
H4346 H 0.02076 0.77611 0.28075 0.0
C4347 C 1.01181 0.71339 0.26901 0.0
C4348 C 1.00824 0.75283 0.24133 0.0
C4349 C 0.01226 0.69563 0.26863 0.0
C4350 C 1.00938 0.82744 0.24197 0.0
C4351 C 1.00964 0.8097 0.24174 0.0
C4352 C 0.01703 0.77024 0.26945 0.0
C4353 C 0.01313 0.72337 0.25465 0.0
C4354 C 0.01282 0.74298 0.25505 0.0
C4355 C 0.01231 0.79986 0.25601 0.0
C4356 C 0.01245 0.78016 0.25572 0.0
H4357 H 0.01698 0.69025 0.22777 0.0
H4358 H 0.01588 0.7204 0.2283 0.0
H4359 H 0.02102 0.74615 0.28017 0.0
H4360 H 0.0168 0.8335 0.28227 0.0
H4361 H 0.01703 0.8034 0.28208 0.0
C4362 C 0.57533 0.75827 0.49449 0.0
C4363 C 0.58463 0.76158 0.50891 0.0
C4364 C 0.55761 0.75789 0.49421 0.0
C4365 C 0.5181 0.7679 0.52044 0.0
H4366 H 0.49527 0.74652 0.48476 0.0
C4367 C 0.44353 0.76334 0.52041 0.0
C4368 C 0.43449 0.7591 0.5061 0.0
C4369 C 0.46129 0.76378 0.52081 0.0
C4370 C 0.50105 0.75282 0.4949 0.0
H4371 H 0.58078 0.76532 0.53493 0.0
H4372 H 0.55067 0.76511 0.53452 0.0
H4373 H 0.52518 0.74676 0.48534 0.0
H4374 H 0.43861 0.75267 0.48066 0.0
H4375 H 0.46862 0.75359 0.48115 0.0
H4376 H 0.49398 0.774 0.52999 0.0
C4377 C 0.55704 0.76338 0.52298 0.0
C4378 C 0.51879 0.75295 0.49525 0.0
C4379 C 0.57479 0.76368 0.52323 0.0
C4380 C 0.44451 0.75587 0.49211 0.0
C4381 C 0.46221 0.75626 0.49249 0.0
C4382 C 0.50035 0.76781 0.52009 0.0
C4383 C 0.54767 0.76063 0.50841 0.0
C4384 C 0.52809 0.76048 0.50804 0.0
C4385 C 0.47142 0.7601 0.50689 0.0
C4386 C 0.49103 0.76025 0.5073 0.0
H4387 H 0.58179 0.75609 0.48308 0.0
H4388 H 0.55176 0.75567 0.48251 0.0
H4389 H 0.52396 0.77417 0.53058 0.0
H4390 H 0.43684 0.76623 0.53156 0.0
H4391 H 0.46701 0.7668 0.53239 0.0
C4392 C 0.94403 0.75836 0.53385 0.0
C4393 C 0.93462 0.76055 0.5193 0.0
C4394 C 0.96176 0.7582 0.53412 0.0
C4395 C 1.00118 0.76539 0.50659 0.0
H4396 H 0.02446 0.75007 0.54495 0.0
C4397 C 0.07577 0.76164 0.50659 0.0
C4398 C 0.0851 0.75934 0.52116 0.0
C4399 C 0.05801 0.76189 0.50637 0.0
C4400 C 0.01855 0.75462 0.53399 0.0
H4401 H 0.93834 0.76244 0.49309 0.0
H4402 H 0.96842 0.76239 0.49336 0.0
H4403 H 0.99457 0.75004 0.54455 0.0
H4404 H 0.08136 0.75628 0.54725 0.0
H4405 H 0.05132 0.7569 0.54706 0.0
H4406 H 0.02515 0.76999 0.49603 0.0
C4407 C 0.96217 0.76148 0.50505 0.0
C4408 C 1.00079 0.7546 0.53375 0.0
C4409 C 0.9444 0.76165 0.50485 0.0
C4410 C 0.07529 0.75789 0.53557 0.0
C4411 C 0.05755 0.75813 0.5354 0.0
C4412 C 0.01893 0.76542 0.50683 0.0
C4413 C 0.97166 0.75994 0.51973 0.0
C4414 C 0.99129 0.75996 0.52002 0.0
C4415 C 0.04808 0.76 0.52076 0.0
C4416 C 0.02844 0.76002 0.52053 0.0
H4417 H 0.93764 0.75687 0.54537 0.0
H4418 H 0.96762 0.7569 0.54593 0.0
H4419 H 0.99525 0.76996 0.49564 0.0
H4420 H 0.08224 0.76326 0.49508 0.0
H4421 H 0.05213 0.76337 0.49459 0.0
C4422 C 0.01407 0.1975 0.29157 0.0
C4423 C 1.01186 0.18758 0.27732 0.0
C4424 C 0.01461 0.21527 0.29116 0.0
C4425 C 1.00834 0.25374 0.26205 0.0
H4426 H 0.02409 0.27836 0.29945 0.0
C4427 C 0.01404 0.32838 0.25944 0.0
C4428 C 0.01488 0.33819 0.27391 0.0
C4429 C 0.01378 0.31059 0.25972 0.0
C4430 C 0.01941 0.27205 0.28875 0.0
H4431 H 1.01112 0.19035 0.25099 0.0
H4432 H 1.01142 0.22036 0.25012 0.0
H4433 H 0.02364 0.24844 0.30022 0.0
H4434 H 0.01594 0.33528 0.30028 0.0
H4435 H 0.01545 0.30521 0.30084 0.0
H4436 H 1.00416 0.27741 0.25058 0.0
C4437 C 0.01191 0.21459 0.26205 0.0
C4438 C 0.01916 0.25429 0.2892 0.0
C4439 C 1.01147 0.19685 0.26252 0.0
C4440 C 0.01528 0.32881 0.28866 0.0
C4441 C 0.01514 0.31108 0.28896 0.0
C4442 C 1.00863 0.27151 0.26159 0.0
C4443 C 0.01329 0.22465 0.27638 0.0
C4444 C 0.01361 0.24431 0.27588 0.0
C4445 C 0.01439 0.30113 0.27451 0.0
C4446 C 0.01415 0.28148 0.27493 0.0
H4447 H 0.01537 0.19152 0.30334 0.0
H4448 H 0.0159 0.2216 0.30276 0.0
H4449 H 1.00366 0.24743 0.25135 0.0
H4450 H 0.01327 0.33446 0.24768 0.0
H4451 H 0.01325 0.30427 0.24805 0.0
C4452 C 0.51238 0.82747 0.75629 0.0
C4453 C 0.51212 0.83727 0.77075 0.0
C4454 C 0.51196 0.80976 0.75663 0.0
C4455 C 0.50483 0.77179 0.78557 0.0
H4456 H 0.52137 0.74689 0.74855 0.0
C4457 C 0.50879 0.69774 0.78839 0.0
C4458 C 0.50925 0.68784 0.77398 0.0
C4459 C 0.5092 0.71541 0.78802 0.0
C4460 C 0.51645 0.75331 0.75911 0.0
H4461 H 0.50982 0.83458 0.79709 0.0
H4462 H 0.50917 0.8046 0.79776 0.0
H4463 H 0.52159 0.77682 0.74787 0.0
H4464 H 0.51194 0.69034 0.74774 0.0
H4465 H 0.5122 0.7204 0.74689 0.0
H4466 H 0.4997 0.7483 0.79682 0.0
C4467 C 0.50995 0.81041 0.78586 0.0
C4468 C 0.51657 0.77101 0.7587 0.0
C4469 C 0.5104 0.82807 0.78549 0.0
C4470 C 0.51089 0.69694 0.75921 0.0
C4471 C 0.51131 0.71463 0.75879 0.0
C4472 C 0.50471 0.7541 0.78598 0.0
C4473 C 0.51093 0.80049 0.77146 0.0
C4474 C 0.51075 0.78099 0.7719 0.0
C4475 C 0.51031 0.72462 0.77318 0.0
C4476 C 0.51051 0.74411 0.77276 0.0
H4477 H 0.51276 0.83346 0.74448 0.0
H4478 H 0.51226 0.80337 0.74498 0.0
H4479 H 0.49992 0.77821 0.79614 0.0
H4480 H 0.50793 0.69187 0.80022 0.0
H4481 H 0.50878 0.72182 0.79966 0.0
C4482 C 0.98569 0.44381 0.75848 0.0
C4483 C 0.9999 0.43386 0.76092 0.0
C4484 C 0.98626 0.46148 0.75815 0.0
C4485 C 0.01345 0.49906 0.76963 0.0
H4486 H 0.98253 0.52373 0.74334 0.0
C4487 C 0.0169 0.57351 0.76605 0.0
C4488 C 1.00318 0.58291 0.76064 0.0
C4489 C 0.0169 0.55575 0.76608 0.0
C4490 C 0.99127 0.51742 0.75109 0.0
H4491 H 0.02631 0.43626 0.76277 0.0
H4492 H 0.02729 0.46636 0.76342 0.0
H4493 H 0.9815 0.49383 0.74357 0.0
H4494 H 0.97878 0.57954 0.75116 0.0
H4495 H 0.97854 0.5498 0.75093 0.0
H4496 H 0.02307 0.52261 0.77738 0.0
C4497 C 0.01539 0.46053 0.76219 0.0
C4498 C 0.99066 0.49977 0.75116 0.0
C4499 C 0.01482 0.44287 0.76208 0.0
C4500 C 0.98962 0.57335 0.75538 0.0
C4501 C 0.98962 0.55577 0.75517 0.0
C4502 C 0.01395 0.51676 0.76971 0.0
C4503 C 1.00111 0.47052 0.76034 0.0
C4504 C 1.00174 0.48991 0.76039 0.0
C4505 C 1.00322 0.54616 0.76055 0.0
C4506 C 1.00288 0.52668 0.76043 0.0
H4507 H 0.97389 0.43792 0.75683 0.0
H4508 H 0.9748 0.46808 0.75649 0.0
H4509 H 0.02222 0.49253 0.77719 0.0
H4510 H 0.02773 0.57988 0.77042 0.0
H4511 H 0.0279 0.54959 0.77034 0.0
C4512 C 0.19555 0.23172 0.51002 0.0
C4513 C 0.18571 0.24611 0.51204 0.0
C4514 C 0.21332 0.23192 0.51011 0.0
C4515 C 0.25203 0.26048 0.5179 0.0
H4516 H 0.27638 0.22293 0.50157 0.0
C4517 C 0.32655 0.26265 0.51306 0.0
C4518 C 0.33643 0.24821 0.51181 0.0
C4519 C 0.30879 0.26239 0.51318 0.0
C4520 C 0.27016 0.23368 0.5064 0.0
H4521 H 0.1886 0.2719 0.51781 0.0
H4522 H 0.21866 0.27255 0.51744 0.0
H4523 H 0.24648 0.2225 0.50189 0.0
H4524 H 0.33356 0.222 0.50817 0.0
H4525 H 0.30347 0.22138 0.50852 0.0
H4526 H 0.27576 0.27165 0.52238 0.0
C4527 C 0.21283 0.2608 0.51532 0.0
C4528 C 0.25239 0.23343 0.50659 0.0
C4529 C 0.19506 0.26054 0.51524 0.0
C4530 C 0.32709 0.23354 0.50979 0.0
C4531 C 0.30932 0.23324 0.50981 0.0
C4532 C 0.26981 0.26074 0.51769 0.0
C4533 C 0.2228 0.24653 0.51254 0.0
C4534 C 0.24248 0.24681 0.51236 0.0
C4535 C 0.29935 0.24765 0.5117 0.0
C4536 C 0.27969 0.24735 0.51192 0.0
H4537 H 0.18947 0.22003 0.5081 0.0
H4538 H 0.21955 0.22029 0.50834 0.0
H4539 H 0.24584 0.27125 0.52271 0.0
H4540 H 0.33255 0.27445 0.51368 0.0
H4541 H 0.30252 0.2741 0.51422 0.0
C4542 C 0.53582 0.44357 0.26301 0.0
C4543 C 0.52103 0.43421 0.26204 0.0
C4544 C 0.53608 0.46134 0.26321 0.0
C4545 C 0.50902 0.50065 0.25515 0.0
H4546 H 0.5454 0.52401 0.27468 0.0
C4547 C 0.51007 0.5757 0.25508 0.0
C4548 C 0.52363 0.58494 0.26119 0.0
C4549 C 0.5096 0.55788 0.25515 0.0
C4550 C 0.53496 0.51816 0.26896 0.0
H4551 H 0.49466 0.43802 0.26175 0.0
H4552 H 0.49503 0.46817 0.26137 0.0
H4553 H 0.54497 0.49413 0.27487 0.0
H4554 H 0.54677 0.58077 0.27322 0.0
H4555 H 0.54628 0.55106 0.27354 0.0
H4556 H 0.49899 0.52454 0.24913 0.0
C4557 C 0.50675 0.46181 0.26169 0.0
C4558 C 0.53477 0.5004 0.26905 0.0
C4559 C 0.5065 0.44405 0.26177 0.0
C4560 C 0.53637 0.57492 0.26772 0.0
C4561 C 0.53588 0.55722 0.26805 0.0
C4562 C 0.50925 0.51842 0.25495 0.0
C4563 C 0.52154 0.47124 0.26234 0.0
C4564 C 0.52178 0.49085 0.26218 0.0
C4565 C 0.52254 0.54778 0.26165 0.0
C4566 C 0.52222 0.52806 0.26187 0.0
H4567 H 0.54749 0.4371 0.26329 0.0
H4568 H 0.54796 0.46731 0.2637 0.0
H4569 H 0.49868 0.49456 0.24942 0.0
H4570 H 0.49964 0.58229 0.25005 0.0
H4571 H 0.49878 0.55213 0.25006 0.0
C4572 C 0.32827 0.76088 1.00877 0.0
C4573 C 0.33779 0.77505 1.01256 0.0
C4574 C 0.31056 0.76086 1.00872 0.0
C4575 C 0.27187 0.78965 1.00976 0.0
H4576 H 0.24788 0.74918 0.01644 0.0
C4577 C 0.19745 0.79022 1.01193 0.0
C4578 C 0.18784 0.77563 1.01164 0.0
C4579 C 0.21517 0.79014 1.01196 0.0
C4580 C 0.25399 0.76078 0.01432 0.0
H4581 H 0.33443 0.80022 0.0206 0.0
H4582 H 0.30426 0.80042 0.02025 0.0
H4583 H 0.27784 0.74908 0.01673 0.0
H4584 H 0.191 0.74929 1.00962 0.0
H4585 H 0.22104 0.74893 1.00991 0.0
H4586 H 0.24818 0.80139 1.00716 0.0
C4587 C 0.31048 0.78914 0.01677 0.0
C4588 C 0.27172 0.7607 0.01451 0.0
C4589 C 0.3282 0.78907 0.01694 0.0
C4590 C 0.19732 0.76093 1.01062 0.0
C4591 C 0.21505 0.76079 1.01068 0.0
C4592 C 0.25414 0.78972 1.00945 0.0
C4593 C 0.30092 0.77506 1.01254 0.0
C4594 C 0.2814 0.77513 1.01228 0.0
C4595 C 0.22479 0.7754 1.0115 0.0
C4596 C 0.24439 0.7753 1.01174 0.0
H4597 H 0.33453 0.7495 1.00595 0.0
H4598 H 0.30444 0.74953 1.00538 0.0
H4599 H 0.27812 0.80121 1.00771 0.0
H4600 H 0.19124 0.80198 1.0123 0.0
H4601 H 0.22123 0.80194 1.01256 0.0
C4602 C 0.76784 0.98626 0.4491 0.0
C4603 C 0.76646 1.0007 0.43932 0.0
C4604 C 0.76702 0.98638 0.46679 0.0
C4605 C 0.75882 0.01495 0.50559 0.0
H4606 H 0.7711 0.97596 0.52977 0.0
C4607 C 0.76042 0.01544 0.5803 0.0
C4608 C 0.75951 1.00072 0.58975 0.0
C4609 C 0.76126 0.01555 0.56258 0.0
C4610 C 0.76739 0.98712 0.52359 0.0
H4611 H 0.76223 0.02683 0.44228 0.0
H4612 H 0.76109 0.02723 0.47231 0.0
H4613 H 0.77233 0.97597 0.5 0.0
H4614 H 0.75958 0.97433 0.58615 0.0
H4615 H 0.76119 0.97442 0.55617 0.0
H4616 H 0.75397 0.02609 0.52932 0.0
C4617 C 0.76295 0.01544 0.46643 0.0
C4618 C 0.76813 0.98715 0.50587 0.0
C4619 C 0.76378 0.01529 0.44868 0.0
C4620 C 0.76014 0.98613 0.58003 0.0
C4621 C 0.7611 0.98621 0.56233 0.0
C4622 C 0.75814 0.01494 0.52333 0.0
C4623 C 0.76462 1.00099 0.47634 0.0
C4624 C 0.76385 1.00105 0.496 0.0
C4625 C 0.76155 1.00094 0.55277 0.0
C4626 C 0.76237 1.00102 0.53315 0.0
H4627 H 0.76986 0.97456 0.44303 0.0
H4628 H 0.76823 0.97466 0.47289 0.0
H4629 H 0.75514 0.02614 0.49945 0.0
H4630 H 0.76065 0.02714 0.58663 0.0
H4631 H 0.7619 0.0274 0.55661 0.0
C4632 C 0.76156 1.00288 0.32918 0.0
C4633 C 0.77456 1.00967 0.33872 0.0
C4634 C 0.76101 1.00348 0.31155 0.0
C4635 C 0.78218 0.02264 0.27242 0.0
H4636 H 0.75379 0.99259 0.24893 0.0
C4637 C 0.78341 0.01905 0.19823 0.0
C4638 C 0.76974 0.01359 0.18881 0.0
C4639 C 0.78377 0.01885 0.21587 0.0
C4640 C 0.76178 1.00134 0.25498 0.0
H4641 H 0.79729 0.0231 0.33529 0.0
H4642 H 0.79641 0.02436 0.30517 0.0
H4643 H 0.75504 0.99182 0.27881 0.0
H4644 H 0.74554 1.00308 0.19232 0.0
H4645 H 0.74625 1.00218 0.22254 0.0
H4646 H 0.789 0.03205 0.2485 0.0
C4647 C 0.78633 0.0183 0.31136 0.0
C4648 C 0.76252 1.00091 0.27267 0.0
C4649 C 0.78689 0.01756 0.3291 0.0
C4650 C 0.75645 1.00755 0.19848 0.0
C4651 C 0.75693 1.00699 0.21623 0.0
C4652 C 0.78149 0.02302 0.25473 0.0
C4653 C 0.77341 0.01113 0.30179 0.0
C4654 C 0.77273 0.01157 0.28221 0.0
C4655 C 0.7706 0.01275 0.22568 0.0
C4656 C 0.77125 0.01239 0.24522 0.0
H4657 H 0.75148 0.99691 0.33538 0.0
H4658 H 0.75049 0.99793 0.30564 0.0
H4659 H 0.79018 0.03141 0.27842 0.0
H4660 H 0.79402 0.02383 0.1919 0.0
H4661 H 0.79478 0.02337 0.22181 0.0
C4662 C 0.7569 0.01155 0.95064 0.0
C4663 C 0.75631 0.02625 0.94125 0.0
C4664 C 0.75755 0.01147 0.96826 0.0
C4665 C 0.75244 0.03949 1.00707 0.0
H4666 H 0.76972 1.00171 0.03011 0.0
C4667 C 0.75706 0.03988 0.08103 0.0
C4668 C 0.75978 0.02532 0.09028 0.0
C4669 C 0.75673 0.04007 0.06339 0.0
C4670 C 0.76458 0.01247 0.02426 0.0
H4671 H 0.75674 0.05268 0.94463 0.0
H4672 H 0.7579 0.05266 0.9746 0.0
H4673 H 0.7691 1.00189 1.00029 0.0
H4674 H 0.76333 0.9992 0.08664 0.0
H4675 H 0.76302 0.99937 0.05676 0.0
H4676 H 0.74779 0.05006 0.03094 0.0
C4677 C 0.75749 0.04088 0.96841 0.0
C4678 C 0.76423 0.01257 1.00662 0.0
C4679 C 0.75692 0.04092 0.95078 0.0
C4680 C 0.76175 1.01089 0.08059 0.0
C4681 C 0.76148 0.01105 0.06295 0.0
C4682 C 0.75269 0.03936 0.02472 0.0
C4683 C 0.75772 0.02614 0.97788 0.0
C4684 C 0.75815 0.02607 0.9973 0.0
C4685 C 0.75903 0.02566 0.05357 0.0
C4686 C 0.75876 0.02584 0.03409 0.0
H4687 H 0.75694 0.99986 0.94431 0.0
H4688 H 0.75766 0.99964 0.97431 0.0
H4689 H 0.74737 0.05024 1.0011 0.0
H4690 H 0.75533 0.05141 0.08748 0.0
H4691 H 0.75487 0.05184 0.05753 0.0
C4692 C 0.75983 1.00593 0.70098 0.0
C4693 C 0.74612 1.01024 0.69096 0.0
C4694 C 0.75969 1.00674 0.71865 0.0
C4695 C 0.73664 0.02496 0.75684 0.0
H4696 H 0.76321 0.99432 0.78169 0.0
C4697 C 0.74378 0.03136 0.83097 0.0
C4698 C 0.74722 0.01753 0.84113 0.0
C4699 C 0.74347 0.03054 0.81327 0.0
C4700 C 0.75557 1.00312 0.77527 0.0
H4701 H 0.72131 0.01972 0.69365 0.0
H4702 H 0.72122 0.02182 0.72386 0.0
H4703 H 0.76287 0.99302 0.75166 0.0
H4704 H 0.75282 0.99159 0.83896 0.0
H4705 H 0.75267 0.99017 0.80877 0.0
H4706 H 0.72949 0.03519 0.78045 0.0
C4707 C 0.7323 0.01731 0.71794 0.0
C4708 C 0.75547 1.00243 0.75755 0.0
C4709 C 0.73234 0.01611 0.70018 0.0
C4710 C 0.75028 1.00276 0.83219 0.0
C4711 C 0.75022 1.00197 0.81445 0.0
C4712 C 0.73698 0.02585 0.77457 0.0
C4713 C 0.74593 0.01244 0.72795 0.0
C4714 C 0.74596 0.01328 0.74754 0.0
C4715 C 0.74672 0.01581 0.80419 0.0
C4716 C 0.74642 0.01492 0.78459 0.0
H4717 H 0.77103 1.00191 0.69513 0.0
H4718 H 0.77077 1.00306 0.72504 0.0
H4719 H 0.72909 0.03381 0.75037 0.0
H4720 H 0.74103 0.04305 0.83678 0.0
H4721 H 0.74078 0.04176 0.80667 0.0
C4722 C 0.44581 0.75982 0.02016 0.0
C4723 C 0.43678 0.76327 1.00562 0.0
C4724 C 0.46358 0.75935 0.02062 0.0
C4725 C 0.50325 0.76842 0.99391 0.0
H4726 H 0.52651 0.75003 0.03095 0.0
C4727 C 0.57724 0.76193 0.99279 0.0
C4728 C 0.58686 0.76028 1.00728 0.0
C4729 C 0.55955 0.7624 0.99283 0.0
C4730 C 0.52052 0.75543 0.02041 0.0
H4731 H 0.44107 0.76799 0.97991 0.0
H4732 H 0.47092 0.76717 0.98048 0.0
H4733 H 0.49648 0.75027 0.03061 0.0
H4734 H 0.58359 0.75967 0.03363 0.0
H4735 H 0.55341 0.76001 0.0338 0.0
H4736 H 0.52727 0.77355 0.9837 0.0
C4737 C 0.46454 0.7652 0.99196 0.0
C4738 C 0.50276 0.75557 0.02019 0.0
C4739 C 0.44686 0.7656 0.99154 0.0
C4740 C 0.57733 0.75999 0.02196 0.0
C4741 C 0.55957 0.76035 0.02203 0.0
C4742 C 0.52096 0.76822 0.9941 0.0
C4743 C 0.47373 0.76222 1.00654 0.0
C4744 C 0.49333 0.76205 1.00691 0.0
C4745 C 0.54993 0.76143 1.00743 0.0
C4746 C 0.53037 0.76171 1.00734 0.0
H4747 H 0.43912 0.75749 0.03141 0.0
H4748 H 0.46929 0.75692 0.03233 0.0
H4749 H 0.49741 0.77392 0.98335 0.0
H4750 H 0.58341 0.76274 0.98108 0.0
H4751 H 0.55346 0.76326 0.98107 0.0
C4752 C 0.94772 0.75718 0.03472 0.0
C4753 C 0.93804 0.75907 0.0203 0.0
C4754 C 0.96547 0.7576 0.03483 0.0
C4755 C 1.00486 0.7657 1.00709 0.0
H4756 H 0.02853 0.75187 0.04582 0.0
C4757 C 0.07965 0.76107 1.00709 0.0
C4758 C 0.08908 0.7625 0.02174 0.0
C4759 C 0.06186 0.76074 1.0069 0.0
C4760 C 0.02246 0.75599 0.03476 0.0
H4761 H 0.94138 0.76403 0.99444 0.0
H4762 H 0.97155 0.76466 0.99442 0.0
H4763 H 0.99857 0.75126 0.04546 0.0
H4764 H 0.08537 0.76391 0.04801 0.0
H4765 H 0.05516 0.76301 0.04781 0.0
H4766 H 0.0289 0.77028 0.99641 0.0
C4767 C 0.96548 0.76255 1.00603 0.0
C4768 C 1.00467 0.75564 0.03452 0.0
C4769 C 0.94765 0.76205 1.00596 0.0
C4770 C 0.07926 0.76287 0.03626 0.0
C4771 C 0.06146 0.76235 0.03612 0.0
C4772 C 0.02266 0.76595 1.00731 0.0
C4773 C 0.97525 0.7602 0.02048 0.0
C4774 C 0.99499 0.76052 0.02068 0.0
C4775 C 0.05195 0.76144 0.0214 0.0
C4776 C 0.03227 0.76113 0.02116 0.0
H4777 H 0.94153 0.75514 0.04624 0.0
H4778 H 0.97143 0.75594 0.04655 0.0
H4779 H 0.99889 0.76984 0.99601 0.0
H4780 H 0.08605 0.7601 0.99548 0.0
H4781 H 0.05588 0.75968 0.9951 0.0
C4782 C 1.00771 0.19346 0.7558 0.0
C4783 C 1.01039 0.18377 0.7701 0.0
C4784 C 1.00763 0.21128 0.75593 0.0
C4785 C 0.01467 0.25037 0.78466 0.0
H4786 H 1.00255 0.27479 0.74586 0.0
C4787 C 1.00874 0.32509 0.78625 0.0
C4788 C 1.0097 0.33492 0.7718 0.0
C4789 C 1.0091 0.3073 0.78604 0.0
C4790 C 1.00617 0.26851 0.75698 0.0
H4791 H 0.01432 0.1871 0.79609 0.0
H4792 H 0.01413 0.21707 0.7965 0.0
H4793 H 1.00237 0.24482 0.74546 0.0
H4794 H 0.01312 0.33182 0.74563 0.0
H4795 H 0.01327 0.30165 0.74514 0.0
H4796 H 0.01839 0.27417 0.79615 0.0
C4797 C 0.01238 0.21114 0.78476 0.0
C4798 C 1.00603 0.2507 0.75677 0.0
C4799 C 0.0124 0.19338 0.7846 0.0
C4800 C 1.01165 0.32545 0.75717 0.0
C4801 C 1.01182 0.30765 0.75692 0.0
C4802 C 0.01471 0.26817 0.78489 0.0
C4803 C 1.01012 0.22099 0.77041 0.0
C4804 C 1.01027 0.24075 0.7706 0.0
C4805 C 1.01045 0.29775 0.77134 0.0
C4806 C 1.01046 0.27806 0.77106 0.0
H4807 H 1.00567 0.18724 0.74424 0.0
H4808 H 1.00574 0.21735 0.74431 0.0
H4809 H 0.01833 0.24423 0.79582 0.0
H4810 H 1.00732 0.33122 0.79798 0.0
H4811 H 1.00796 0.30103 0.79768 0.0
C4812 C 0.44553 0.26141 0.53397 0.0
C4813 C 0.43592 0.26163 0.51939 0.0
C4814 C 0.46327 0.26155 0.53402 0.0
C4815 C 0.50242 0.26715 0.50575 0.0
H4816 H 0.52615 0.25355 0.54451 0.0
C4817 C 0.57706 0.26343 0.5053 0.0
C4818 C 0.58651 0.26419 0.51997 0.0
C4819 C 0.55929 0.2629 0.50519 0.0
C4820 C 0.52008 0.25761 0.53344 0.0
H4821 H 0.43926 0.26363 0.49313 0.0
H4822 H 0.46941 0.26365 0.49303 0.0
H4823 H 0.49618 0.25335 0.54437 0.0
H4824 H 0.58295 0.26337 0.54629 0.0
H4825 H 0.55287 0.26251 0.54622 0.0
H4826 H 0.52636 0.27138 0.49483 0.0
C4827 C 0.4633 0.26304 0.50481 0.0
C4828 C 0.50231 0.2575 0.53335 0.0
C4829 C 0.44551 0.26282 0.50481 0.0
C4830 C 0.5768 0.2633 0.53452 0.0
C4831 C 0.55905 0.26269 0.53445 0.0
C4832 C 0.52019 0.26724 0.50584 0.0
C4833 C 0.473 0.26225 0.51943 0.0
C4834 C 0.49266 0.2623 0.5195 0.0
C4835 C 0.54948 0.26273 0.51978 0.0
C4836 C 0.52983 0.26249 0.51968 0.0
H4837 H 0.43928 0.26098 0.54565 0.0
H4838 H 0.4693 0.26129 0.54583 0.0
H4839 H 0.49638 0.27121 0.49467 0.0
H4840 H 0.5834 0.26315 0.49363 0.0
H4841 H 0.55328 0.26245 0.49338 0.0
C4842 C 0.94425 0.25838 0.51592 0.0
C4843 C 0.93477 0.2626 0.50187 0.0
C4844 C 0.96207 0.2581 0.51601 0.0
C4845 C 1.00181 0.26661 0.4885 0.0
H4846 H 0.02519 0.25268 0.52732 0.0
C4847 C 0.0767 0.26183 0.48858 0.0
C4848 C 0.08611 0.26093 0.50331 0.0
C4849 C 0.05891 0.2621 0.48833 0.0
C4850 C 0.01925 0.25682 0.51621 0.0
H4851 H 0.9384 0.26921 0.47643 0.0
H4852 H 0.96849 0.26873 0.47642 0.0
H4853 H 0.9953 0.25286 0.52707 0.0
H4854 H 0.08229 0.26062 0.52958 0.0
H4855 H 0.05217 0.26083 0.52926 0.0
H4856 H 0.02588 0.27056 0.4777 0.0
C4857 C 0.96238 0.26578 0.48782 0.0
C4858 C 1.00144 0.25688 0.51602 0.0
C4859 C 0.94457 0.26601 0.48775 0.0
C4860 C 0.07624 0.26075 0.51778 0.0
C4861 C 0.05844 0.26095 0.51755 0.0
C4862 C 0.01963 0.2665 0.48869 0.0
C4863 C 0.97203 0.26191 0.502 0.0
C4864 C 0.99182 0.26179 0.50217 0.0
C4865 C 0.04892 0.26154 0.50281 0.0
C4866 C 0.02919 0.26163 0.50256 0.0
H4867 H 0.93786 0.25528 0.52715 0.0
H4868 H 0.96793 0.25492 0.52746 0.0
H4869 H 0.99596 0.27068 0.47734 0.0
H4870 H 0.08317 0.26198 0.47695 0.0
H4871 H 0.05301 0.26246 0.47645 0.0
C4872 C 1.00992 0.69034 0.73866 0.0
C4873 C 1.01165 0.68094 0.75328 0.0
C4874 C 1.0099 0.70806 0.73834 0.0
C4875 C 0.01895 0.74741 0.76496 0.0
H4876 H 0.99985 0.77081 0.72837 0.0
C4877 C 0.02022 0.82161 0.76432 0.0
C4878 C 0.01419 0.83157 0.75131 0.0
C4879 C 0.01952 0.80397 0.76441 0.0
C4880 C 1.00538 0.76489 0.73886 0.0
H4881 H 0.01599 0.68464 0.7792 0.0
H4882 H 0.01565 0.71481 0.77888 0.0
H4883 H 0.99949 0.74085 0.72896 0.0
H4884 H 1.00171 0.82875 0.728 0.0
H4885 H 1.00055 0.79859 0.72792 0.0
H4886 H 0.0249 0.77116 0.77494 0.0
C4887 C 0.01403 0.7085 0.76731 0.0
C4888 C 1.00524 0.74711 0.73916 0.0
C4889 C 0.01396 0.69072 0.76759 0.0
C4890 C 1.00683 0.82229 0.73841 0.0
C4891 C 1.00617 0.80446 0.73841 0.0
C4892 C 0.01916 0.76514 0.76463 0.0
C4893 C 0.01191 0.71796 0.75266 0.0
C4894 C 0.012 0.73758 0.75226 0.0
C4895 C 0.01266 0.79446 0.7514 0.0
C4896 C 0.01236 0.77476 0.7516 0.0
H4897 H 1.00841 0.68392 0.72715 0.0
H4898 H 1.0085 0.71396 0.72654 0.0
H4899 H 0.02462 0.74143 0.77536 0.0
H4900 H 0.02573 0.8275 0.77479 0.0
H4901 H 0.02463 0.79793 0.77503 0.0
C4902 C 0.50758 0.32639 0.2645 0.0
C4903 C 0.51238 0.33528 0.25022 0.0
C4904 C 0.50758 0.30859 0.26535 0.0
C4905 C 0.51793 0.2682 0.23935 0.0
H4906 H 0.5033 0.24552 0.27833 0.0
C4907 C 0.51329 0.19365 0.24048 0.0
C4908 C 0.51268 0.18445 0.25533 0.0
C4909 C 0.51341 0.21141 0.23999 0.0
C4910 C 0.50763 0.25131 0.2672 0.0
H4911 H 0.52031 0.33044 0.22549 0.0
H4912 H 0.52079 0.30075 0.22672 0.0
H4913 H 0.50314 0.27547 0.27749 0.0
H4914 H 0.51308 0.18858 0.28156 0.0
H4915 H 0.51291 0.2187 0.28085 0.0
H4916 H 0.52246 0.24401 0.22912 0.0
C4917 C 0.51698 0.3072 0.23769 0.0
C4918 C 0.50747 0.26909 0.26666 0.0
C4919 C 0.51677 0.3249 0.23686 0.0
C4920 C 0.51282 0.19448 0.26969 0.0
C4921 C 0.51283 0.21225 0.26923 0.0
C4922 C 0.51803 0.25045 0.23988 0.0
C4923 C 0.51242 0.29813 0.25197 0.0
C4924 C 0.51261 0.27841 0.25269 0.0
C4925 C 0.51301 0.22153 0.25435 0.0
C4926 C 0.51289 0.24118 0.25382 0.0
H4927 H 0.50369 0.33324 0.27523 0.0
H4928 H 0.50377 0.30313 0.27682 0.0
H4929 H 0.52222 0.27379 0.22813 0.0
H4930 H 0.51338 0.18707 0.22893 0.0
H4931 H 0.51352 0.21716 0.22804 0.0
C4932 C 0.53868 0.07757 0.75588 0.0
C4933 C 0.52596 0.08739 0.7628 0.0
C4934 C 0.53838 0.05991 0.75563 0.0
C4935 C 0.51566 0.02135 0.77356 0.0
H4936 H 0.54276 0.99737 0.74252 0.0
C4937 C 0.51196 0.94741 0.7693 0.0
C4938 C 0.52502 0.93752 0.76302 0.0
C4939 C 0.51214 0.96507 0.76916 0.0
C4940 C 0.53512 1.00355 0.75153 0.0
H4941 H 0.50242 0.08469 0.77494 0.0
H4942 H 0.50197 0.05441 0.77508 0.0
H4943 H 0.54262 0.02736 0.74246 0.0
H4944 H 0.54856 0.94022 0.7508 0.0
H4945 H 0.54894 0.97046 0.7504 0.0
H4946 H 0.50817 0.99753 0.78262 0.0
C4947 C 0.51252 0.06038 0.76963 0.0
C4948 C 0.53504 0.02128 0.75152 0.0
C4949 C 0.51273 0.07815 0.76953 0.0
C4950 C 0.53814 0.94675 0.756 0.0
C4951 C 0.5383 0.96452 0.75574 0.0
C4952 C 0.51573 1.00363 0.77356 0.0
C4953 C 0.52536 0.05051 0.76261 0.0
C4954 C 0.52531 0.03095 0.76254 0.0
C4955 C 0.52535 0.97442 0.76248 0.0
C4956 C 0.52544 0.99396 0.76252 0.0
H4957 H 0.54893 0.08358 0.75016 0.0
H4958 H 0.54872 0.05367 0.75 0.0
H4959 H 0.50805 0.02751 0.7826 0.0
H4960 H 0.50128 0.94148 0.7744 0.0
H4961 H 0.50154 0.97137 0.77423 0.0
C4962 C 0.19597 0.25965 1.01282 0.0
C4963 C 0.18626 0.27421 0.01408 0.0
C4964 C 0.21373 0.2597 1.01267 0.0
C4965 C 0.25268 0.28811 0.01902 0.0
H4966 H 0.27669 0.25008 1.00326 0.0
C4967 C 0.32706 0.28985 0.01321 0.0
C4968 C 0.33692 0.27535 1.01296 0.0
C4969 C 0.3093 0.28964 0.01331 0.0
C4970 C 0.27054 0.26095 1.00791 0.0
H4971 H 0.18939 0.30047 0.01711 0.0
H4972 H 0.21952 0.30069 0.017 0.0
H4973 H 0.24671 0.2499 1.00371 0.0
H4974 H 0.33399 0.24905 1.01036 0.0
H4975 H 0.30387 0.24845 1.0111 0.0
H4976 H 0.27652 0.29916 0.0232 0.0
C4977 C 0.21353 0.28888 0.01589 0.0
C4978 C 0.25276 0.26085 1.00819 0.0
C4979 C 0.19575 0.28879 0.01595 0.0
C4980 C 0.32755 0.26062 1.01165 0.0
C4981 C 0.30977 0.26034 1.01172 0.0
C4982 C 0.27045 0.28822 0.01871 0.0
C4983 C 0.22334 0.27434 0.01408 0.0
C4984 C 0.24301 0.27442 0.01377 0.0
C4985 C 0.29984 0.27486 1.0128 0.0
C4986 C 0.28019 0.27466 0.01313 0.0
H4987 H 0.18982 0.24792 1.01211 0.0
H4988 H 0.21987 0.24792 1.01162 0.0
H4989 H 0.24658 0.29898 0.02372 0.0
H4990 H 0.33309 0.30166 0.01325 0.0
H4991 H 0.30303 0.30138 0.01357 0.0
C4992 C 0.98714 0.07942 0.2714 0.0
C4993 C 1.00068 0.08886 0.26561 0.0
C4994 C 0.98709 0.06173 0.27168 0.0
C4995 C 1.00957 0.02262 0.25464 0.0
H4996 H 0.98286 0.99918 0.28622 0.0
C4997 C 0.0131 0.94878 0.25864 0.0
C4998 C 1.00041 0.93884 0.26541 0.0
C4999 C 0.01287 0.96643 0.25885 0.0
C5000 C 0.99037 1.00521 0.27707 0.0
H5001 H 0.02483 0.08546 0.25488 0.0
H5002 H 0.0246 0.05517 0.2547 0.0
H5003 H 0.98314 0.02928 0.28608 0.0
H5004 H 0.97727 0.94154 0.2784 0.0
H5005 H 0.97685 0.97186 0.27906 0.0
H5006 H 0.01669 0.99868 0.24548 0.0
C5007 C 0.01386 0.06146 0.25948 0.0
C5008 C 0.99054 0.02296 0.27698 0.0
C5009 C 0.01406 0.07923 0.25961 0.0
C5010 C 0.98752 0.94808 0.27298 0.0
C5011 C 0.9873 0.9659 0.27331 0.0
C5012 C 1.00936 1.0049 0.25468 0.0
C5013 C 1.00041 0.05197 0.26567 0.0
C5014 C 1.00019 0.03242 0.26579 0.0
C5015 C 0.99992 0.97582 0.26606 0.0
C5016 C 0.99982 0.9954 0.26595 0.0
H5017 H 0.9764 0.08577 0.27605 0.0
H5018 H 0.97624 0.0557 0.27647 0.0
H5019 H 0.01706 0.02865 0.24546 0.0
H5020 H 0.02357 0.94289 0.25301 0.0
H5021 H 0.02325 0.97267 0.25337 0.0
C5022 C 0.32497 0.7333 0.52052 0.0
C5023 C 0.334 0.74689 0.5142 0.0
C5024 C 0.30719 0.73289 0.52078 0.0
C5025 C 0.26819 0.7546 0.50257 0.0
H5026 H 0.24406 0.72883 0.53428 0.0
C5027 C 0.19375 0.75101 0.49984 0.0
C5028 C 0.18428 0.74581 0.51354 0.0
C5029 C 0.21152 0.75089 0.4998 0.0
C5030 C 0.25025 0.7363 0.52523 0.0
H5031 H 0.32975 0.77101 0.50389 0.0
H5032 H 0.29985 0.77017 0.50377 0.0
H5033 H 0.2741 0.7291 0.53477 0.0
H5034 H 0.18762 0.73638 0.53805 0.0
H5035 H 0.21752 0.73634 0.53825 0.0
H5036 H 0.24448 0.76193 0.49306 0.0
C5037 C 0.30632 0.75952 0.50845 0.0
C5038 C 0.26799 0.73631 0.52543 0.0
C5039 C 0.32395 0.76003 0.50849 0.0
C5040 C 0.19383 0.7405 0.52712 0.0
C5041 C 0.2115 0.74038 0.52715 0.0
C5042 C 0.25048 0.75452 0.50229 0.0
C5043 C 0.29717 0.74592 0.51449 0.0
C5044 C 0.27767 0.74554 0.51417 0.0
C5045 C 0.22116 0.74556 0.5135 0.0
C5046 C 0.24072 0.74544 0.51365 0.0
H5047 H 0.33165 0.72271 0.52506 0.0
H5048 H 0.30131 0.72199 0.52561 0.0
H5049 H 0.27446 0.76181 0.49333 0.0
H5050 H 0.1874 0.75525 0.48897 0.0
H5051 H 0.21766 0.7549 0.48873 0.0
C5052 C 0.76374 0.50654 0.94762 0.0
C5053 C 0.7646 0.5211 0.93793 0.0
C5054 C 0.76319 0.50665 0.96538 0.0
C5055 C 0.75826 0.53551 1.00441 0.0
H5056 H 0.7697 0.4962 0.02844 0.0
C5057 C 0.75842 0.53603 0.07928 0.0
C5058 C 0.7598 0.5215 0.08896 0.0
C5059 C 0.75902 0.53606 0.06153 0.0
C5060 C 0.76626 0.50749 0.02236 0.0
H5061 H 0.76491 0.54753 0.94122 0.0
H5062 H 0.76374 0.54783 0.97129 0.0
H5063 H 0.77043 0.49617 0.99861 0.0
H5064 H 0.76414 0.49544 0.08565 0.0
H5065 H 0.76494 0.49529 0.05566 0.0
H5066 H 0.75407 0.54686 0.02811 0.0
C5067 C 0.76362 0.53596 0.96527 0.0
C5068 C 0.76668 0.50746 1.0046 0.0
C5069 C 0.76429 0.53582 0.94751 0.0
C5070 C 0.76246 0.50704 0.07938 0.0
C5071 C 0.7631 0.50703 0.06162 0.0
C5072 C 0.7578 0.53554 0.02218 0.0
C5073 C 0.76319 0.52137 0.97506 0.0
C5074 C 0.7627 0.52146 0.99476 0.0
C5075 C 0.76128 0.52154 0.0518 0.0
C5076 C 0.76179 0.52153 0.03205 0.0
H5077 H 0.7633 0.49476 0.94146 0.0
H5078 H 0.76254 0.49487 0.97148 0.0
H5079 H 0.75483 0.54678 0.99825 0.0
H5080 H 0.75657 0.54768 0.08547 0.0
H5081 H 0.75773 0.54783 0.05552 0.0
C5082 C 0.76138 0.50701 0.19671 0.0
C5083 C 0.74689 0.51153 0.18796 0.0
C5084 C 0.76224 0.50655 0.21443 0.0
C5085 C 0.73718 0.51739 0.255 0.0
H5086 H 0.77369 0.49632 0.27697 0.0
C5087 C 0.73767 0.50914 0.32917 0.0
C5088 C 0.75255 0.50731 0.33825 0.0
C5089 C 0.73714 0.50993 0.31147 0.0
C5090 C 0.7633 0.50247 0.27137 0.0
H5091 H 0.72185 0.51905 0.19281 0.0
H5092 H 0.72315 0.51845 0.22268 0.0
H5093 H 0.77263 0.49697 0.24705 0.0
H5094 H 0.77883 0.50606 0.33392 0.0
H5095 H 0.77796 0.5067 0.30389 0.0
H5096 H 0.72783 0.52276 0.27938 0.0
C5097 C 0.73421 0.51517 0.21604 0.0
C5098 C 0.76265 0.50286 0.25363 0.0
C5099 C 0.73334 0.51544 0.19836 0.0
C5100 C 0.76689 0.50674 0.32814 0.0
C5101 C 0.76637 0.50728 0.31043 0.0
C5102 C 0.73778 0.51689 0.27271 0.0
C5103 C 0.7487 0.5107 0.22495 0.0
C5104 C 0.74954 0.51033 0.2446 0.0
C5105 C 0.75146 0.50885 0.30128 0.0
C5106 C 0.75085 0.50941 0.2817 0.0
H5107 H 0.7723 0.50371 0.18979 0.0
H5108 H 0.77389 0.50305 0.21981 0.0
H5109 H 0.72679 0.52364 0.24954 0.0
H5110 H 0.72611 0.50965 0.33581 0.0
H5111 H 0.72518 0.51106 0.30575 0.0
C5112 C 0.76041 0.4793 0.57839 0.0
C5113 C 0.76311 0.49375 0.58788 0.0
C5114 C 0.76011 0.47924 0.5607 0.0
C5115 C 0.7666 0.50756 0.52171 0.0
H5116 H 0.75365 0.46841 0.49807 0.0
C5117 C 0.76205 0.50783 0.44756 0.0
C5118 C 0.76177 0.4931 0.43811 0.0
C5119 C 0.76211 0.50797 0.46523 0.0
C5120 C 0.75753 0.4796 0.50412 0.0
H5121 H 0.76508 0.52001 0.58449 0.0
H5122 H 0.76498 0.52012 0.55462 0.0
H5123 H 0.75363 0.46853 0.52783 0.0
H5124 H 0.76195 0.4667 0.44143 0.0
H5125 H 0.76245 0.4668 0.47146 0.0
H5126 H 0.77046 0.5186 0.4979 0.0
C5127 C 0.76394 0.50833 0.56063 0.0
C5128 C 0.75749 0.47969 0.5218 0.0
C5129 C 0.76424 0.50831 0.5783 0.0
C5130 C 0.76206 0.47848 0.44766 0.0
C5131 C 0.76218 0.47858 0.46534 0.0
C5132 C 0.76659 0.50747 0.50402 0.0
C5133 C 0.76211 0.49373 0.55099 0.0
C5134 C 0.76204 0.49367 0.53142 0.0
C5135 C 0.7621 0.49334 0.47491 0.0
C5136 C 0.76208 0.49348 0.49444 0.0
H5137 H 0.75848 0.46775 0.58464 0.0
H5138 H 0.75838 0.46749 0.55475 0.0
H5139 H 0.77048 0.51877 0.52769 0.0
H5140 H 0.76236 0.51951 0.44128 0.0
H5141 H 0.76198 0.51984 0.47124 0.0
C5142 C 0.78921 0.51803 0.82831 0.0
C5143 C 0.77681 0.51132 0.83861 0.0
C5144 C 0.78842 0.51793 0.81066 0.0
C5145 C 0.76187 0.50263 0.77267 0.0
H5146 H 0.79621 0.52377 0.74749 0.0
C5147 C 0.75809 0.50651 0.69833 0.0
C5148 C 0.7724 0.50801 0.68831 0.0
C5149 C 0.7585 0.50699 0.71603 0.0
C5150 C 0.78641 0.51757 0.754 0.0
H5151 H 0.75324 0.49917 0.8366 0.0
H5152 H 0.75197 0.49836 0.80655 0.0
H5153 H 0.79701 0.52437 0.77725 0.0
H5154 H 0.79863 0.51193 0.69085 0.0
H5155 H 0.79936 0.51317 0.72092 0.0
H5156 H 0.75132 0.49589 0.74918 0.0
C5157 C 0.76266 0.50403 0.812 0.0
C5158 C 0.78682 0.51796 0.7717 0.0
C5159 C 0.76336 0.50445 0.82976 0.0
C5160 C 0.78711 0.51069 0.69744 0.0
C5161 C 0.78752 0.51138 0.71515 0.0
C5162 C 0.76143 0.50233 0.75494 0.0
C5163 C 0.77519 0.51079 0.80159 0.0
C5164 C 0.77459 0.51047 0.78192 0.0
C5165 C 0.77325 0.50935 0.72524 0.0
C5166 C 0.77369 0.50976 0.74481 0.0
H5167 H 0.79959 0.52392 0.83392 0.0
H5168 H 0.79854 0.52362 0.80422 0.0
H5169 H 0.752 0.49646 0.77905 0.0
H5170 H 0.74625 0.50514 0.69249 0.0
H5171 H 0.74693 0.50571 0.72249 0.0
C5172 C 0.51094 0.3264 0.771 0.0
C5173 C 0.51108 0.33633 0.75661 0.0
C5174 C 0.51117 0.3086 0.77059 0.0
C5175 C 0.51718 0.27004 0.7414 0.0
H5176 H 0.50236 0.2455 0.77915 0.0
C5177 C 0.51552 0.19516 0.73937 0.0
C5178 C 0.5128 0.18533 0.75356 0.0
C5179 C 0.51532 0.21294 0.73962 0.0
C5180 C 0.50675 0.25172 0.7683 0.0
H5181 H 0.51284 0.33342 0.73028 0.0
H5182 H 0.51321 0.30338 0.72947 0.0
H5183 H 0.5023 0.27538 0.77977 0.0
H5184 H 0.50663 0.18824 0.77921 0.0
H5185 H 0.50628 0.21829 0.77982 0.0
H5186 H 0.52166 0.24644 0.7299 0.0
C5187 C 0.51262 0.30921 0.7414 0.0
C5188 C 0.50674 0.26949 0.7687 0.0
C5189 C 0.51231 0.32697 0.74184 0.0
C5190 C 0.5092 0.1947 0.7679 0.0
C5191 C 0.5089 0.21248 0.76817 0.0
C5192 C 0.51725 0.25225 0.74101 0.0
C5193 C 0.51187 0.29918 0.75576 0.0
C5194 C 0.51195 0.27949 0.75528 0.0
C5195 C 0.51211 0.22248 0.75407 0.0
C5196 C 0.51203 0.24221 0.75445 0.0
H5197 H 0.51086 0.33236 0.78285 0.0
H5198 H 0.511 0.30226 0.78224 0.0
H5199 H 0.52157 0.27636 0.73058 0.0
H5200 H 0.51817 0.18906 0.72784 0.0
H5201 H 0.51771 0.21913 0.72814 0.0
C5202 C 0.48435 0.9447 0.25821 0.0
C5203 C 0.49842 0.93514 0.26241 0.0
C5204 C 0.48435 0.96245 0.25811 0.0
C5205 C 0.51035 1.00114 0.27111 0.0
H5206 H 0.47746 0.0252 0.24676 0.0
C5207 C 0.50954 0.07592 0.27253 0.0
C5208 C 0.49856 0.08533 0.26273 0.0
C5209 C 0.50961 0.05814 0.27259 0.0
C5210 C 0.48698 0.01912 0.25374 0.0
H5211 H 0.52418 0.93851 0.26788 0.0
H5212 H 0.52423 0.9685 0.26835 0.0
H5213 H 0.47748 0.99536 0.24641 0.0
H5214 H 0.48026 0.08181 0.24401 0.0
H5215 H 0.48002 0.05202 0.24404 0.0
H5216 H 0.51998 0.02479 0.27834 0.0
C5217 C 0.51272 0.96242 0.26569 0.0
C5218 C 0.48686 1.00139 0.25363 0.0
C5219 C 0.51269 0.94471 0.26562 0.0
C5220 C 0.48814 0.07567 0.25263 0.0
C5221 C 0.48829 0.058 0.2525 0.0
C5222 C 0.51046 0.01888 0.27124 0.0
C5223 C 0.4985 0.97207 0.26209 0.0
C5224 C 0.49856 0.99163 0.26227 0.0
C5225 C 0.4989 0.04835 0.2626 0.0
C5226 C 0.4988 0.02871 0.26253 0.0
H5227 H 0.47309 0.93845 0.25493 0.0
H5228 H 0.47293 0.9686 0.25508 0.0
H5229 H 0.51963 0.99488 0.27828 0.0
H5230 H 0.51809 0.08233 0.28044 0.0
H5231 H 0.51823 0.05216 0.28071 0.0
C5232 C 0.82892 0.7334 1.01113 0.0
C5233 C 0.83865 0.74789 1.01262 0.0
C5234 C 0.81115 0.73351 1.01147 0.0
C5235 C 0.77229 0.76181 1.00741 0.0
H5236 H 0.74845 0.72407 0.02363 0.0
C5237 C 0.69765 0.76171 1.00623 0.0
C5238 C 0.6878 0.74866 1.01247 0.0
C5239 C 0.71538 0.76163 1.00649 0.0
C5240 C 0.75448 0.73492 0.01892 0.0
H5241 H 0.83545 0.77426 0.01462 0.0
H5242 H 0.80523 0.77457 0.01499 0.0
H5243 H 0.77847 0.72406 0.02353 0.0
H5244 H 0.69076 0.72502 0.02426 0.0
H5245 H 0.7209 0.72483 0.025 0.0
H5246 H 0.74856 0.77275 1.00272 0.0
C5247 C 0.81134 0.76277 0.01389 0.0
C5248 C 0.77227 0.73485 0.01879 0.0
C5249 C 0.82913 0.7626 0.01385 0.0
C5250 C 0.6972 0.73554 0.01927 0.0
C5251 C 0.71502 0.73544 0.01959 0.0
C5252 C 0.75451 0.76184 1.0074 0.0
C5253 C 0.80158 0.7482 1.01286 0.0
C5254 C 0.78195 0.74829 1.01304 0.0
C5255 C 0.72497 0.74846 0.0131 0.0
C5256 C 0.74472 0.7484 0.01316 0.0
H5257 H 0.83509 0.72169 1.00974 0.0
H5258 H 0.80489 0.72182 1.01035 0.0
H5259 H 0.77849 0.77256 1.00264 0.0
H5260 H 0.69162 0.7723 1.00099 0.0
H5261 H 0.72145 0.77219 1.00123 0.0
C5262 C 0.03799 0.07384 0.75716 0.0
C5263 C 0.0235 0.08316 0.76066 0.0
C5264 C 0.03827 0.05606 0.75676 0.0
C5265 C 0.01268 0.01681 0.76868 0.0
H5266 H 0.04555 0.99316 0.74357 0.0
C5267 C 1.011 0.94222 0.76424 0.0
C5268 C 0.02491 0.93277 0.75924 0.0
C5269 C 1.0109 0.95999 0.76448 0.0
C5270 C 0.03623 0.9992 0.75093 0.0
H5271 H 0.99758 0.07929 0.76515 0.0
H5272 H 0.99807 0.04923 0.76523 0.0
H5273 H 0.0454 0.0232 0.74381 0.0
H5274 H 0.04988 0.93624 0.75071 0.0
H5275 H 0.0498 0.96634 0.75098 0.0
H5276 H 1.00358 0.9929 0.77593 0.0
C5277 C 1.00957 0.05556 0.76306 0.0
C5278 C 0.03615 0.01697 0.75105 0.0
C5279 C 1.00927 0.07328 0.76316 0.0
C5280 C 0.03876 0.94245 0.75468 0.0
C5281 C 0.03863 0.96019 0.75473 0.0
C5282 C 0.01281 0.99905 0.76862 0.0
C5283 C 0.02409 0.04615 0.75994 0.0
C5284 C 0.02433 0.02655 0.75989 0.0
C5285 C 0.02469 0.96978 0.75963 0.0
C5286 C 0.02457 0.98943 0.75972 0.0
H5287 H 0.04938 0.08031 0.75483 0.0
H5288 H 0.04992 0.05008 0.75423 0.0
H5289 H 1.00336 0.02291 0.776 0.0
H5290 H 0.99999 0.93583 0.76814 0.0
H5291 H 0.99965 0.96601 0.76834 0.0
C5292 C 0.69542 0.29041 0.51111 0.0
C5293 C 0.68549 0.27611 0.51264 0.0
C5294 C 0.71314 0.29006 0.51161 0.0
C5295 C 0.75172 0.26137 0.50802 0.0
H5296 H 0.77537 0.29934 0.52415 0.0
C5297 C 0.82618 0.26057 0.51373 0.0
C5298 C 0.83565 0.27528 0.51352 0.0
C5299 C 0.80843 0.26044 0.51371 0.0
C5300 C 0.76932 0.28853 0.51932 0.0
H5301 H 0.6882 0.24968 0.51442 0.0
H5302 H 0.71844 0.24891 0.51492 0.0
H5303 H 0.74533 0.29938 0.52378 0.0
H5304 H 0.83217 0.30165 0.51419 0.0
H5305 H 0.80201 0.30159 0.51439 0.0
H5306 H 0.77572 0.25054 0.50349 0.0
C5307 C 0.71251 0.26079 0.5139 0.0
C5308 C 0.75158 0.28856 0.51912 0.0
C5309 C 0.69473 0.26123 0.5138 0.0
C5310 C 0.82598 0.28989 0.51409 0.0
C5311 C 0.80823 0.28981 0.51427 0.0
C5312 C 0.7695 0.26137 0.50816 0.0
C5313 C 0.72245 0.27525 0.51304 0.0
C5314 C 0.74202 0.27501 0.51342 0.0
C5315 C 0.79867 0.27507 0.51389 0.0
C5316 C 0.77907 0.27497 0.5138 0.0
H5317 H 0.68948 0.30214 0.50944 0.0
H5318 H 0.71955 0.30166 0.51051 0.0
H5319 H 0.74558 0.25056 0.50329 0.0
H5320 H 0.83252 0.24887 0.514 0.0
H5321 H 0.8024 0.24859 0.51378 0.0
C5322 C 0.2609 0.488 0.07899 0.0
C5323 C 0.26012 0.50275 0.08843 0.0
C5324 C 0.26143 0.48774 0.0613 0.0
C5325 C 0.26618 0.51587 0.02205 0.0
H5326 H 0.2553 0.47595 0.99863 0.0
C5327 C 0.26349 0.51497 0.94756 0.0
C5328 C 0.26506 0.50016 0.9383 0.0
C5329 C 0.26282 0.51533 0.96527 0.0
C5330 C 0.25861 0.48735 1.00461 0.0
H5331 H 0.26081 0.52911 0.08485 0.0
H5332 H 0.26144 0.52883 0.05483 0.0
H5333 H 0.25454 0.47649 0.02849 0.0
H5334 H 0.26655 0.47385 0.94216 0.0
H5335 H 0.26522 0.47436 0.97217 0.0
H5336 H 0.27019 0.52672 0.99813 0.0
C5337 C 0.26132 0.51708 0.06101 0.0
C5338 C 0.25817 0.48768 0.02232 0.0
C5339 C 0.26071 0.51729 0.07873 0.0
C5340 C 0.26534 0.4857 0.94816 0.0
C5341 C 0.26457 0.48603 0.96585 0.0
C5342 C 0.2666 0.51554 1.00434 0.0
C5343 C 0.26153 0.50227 0.05147 0.0
C5344 C 0.26196 0.50195 0.03187 0.0
C5345 C 0.26342 0.50088 0.97522 0.0
C5346 C 0.26286 0.50126 0.99481 0.0
H5347 H 0.26094 0.47636 0.08531 0.0
H5348 H 0.26194 0.47582 0.0554 0.0
H5349 H 0.26948 0.52729 0.02801 0.0
H5350 H 0.26267 0.52654 0.94108 0.0
H5351 H 0.26161 0.52723 0.97111 0.0
C5352 C 0.26466 0.5028 0.82649 0.0
C5353 C 0.27723 0.50954 0.83665 0.0
C5354 C 0.26471 0.50374 0.80886 0.0
C5355 C 0.28586 0.52449 0.77066 0.0
H5356 H 0.26074 0.49253 0.74603 0.0
C5357 C 0.2796 0.52957 0.69641 0.0
C5358 C 0.27524 0.51591 0.68637 0.0
C5359 C 0.28004 0.52892 0.71411 0.0
C5360 C 0.268 0.50169 0.75234 0.0
H5361 H 0.29989 0.52332 0.83423 0.0
H5362 H 0.29993 0.52526 0.80404 0.0
H5363 H 0.26141 0.49133 0.77589 0.0
H5364 H 0.26809 0.49042 0.68872 0.0
H5365 H 0.26872 0.48919 0.71886 0.0
H5366 H 0.29254 0.53479 0.74703 0.0
C5367 C 0.28976 0.51892 0.80981 0.0
C5368 C 0.26826 0.5011 0.77005 0.0
C5369 C 0.28977 0.5178 0.82759 0.0
C5370 C 0.27142 0.50145 0.69541 0.0
C5371 C 0.27174 0.50079 0.71315 0.0
C5372 C 0.28548 0.52518 0.75291 0.0
C5373 C 0.27729 0.51174 0.79965 0.0
C5374 C 0.27719 0.51246 0.78004 0.0
C5375 C 0.2761 0.5145 0.72332 0.0
C5376 C 0.27654 0.51379 0.74294 0.0
H5377 H 0.25445 0.4966 0.83218 0.0
H5378 H 0.25447 0.49818 0.80246 0.0
H5379 H 0.29296 0.53375 0.77703 0.0
H5380 H 0.28288 0.54103 0.69053 0.0
H5381 H 0.28338 0.54006 0.72056 0.0
C5382 C 0.26118 0.54058 0.5769 0.0
C5383 C 0.26382 0.52585 0.58594 0.0
C5384 C 0.26079 0.54098 0.55925 0.0
C5385 C 0.25835 0.51295 0.5202 0.0
H5386 H 0.2688 0.55295 0.49685 0.0
C5387 C 0.25394 0.51463 0.44649 0.0
C5388 C 0.25985 0.52789 0.43683 0.0
C5389 C 0.25449 0.51451 0.46408 0.0
C5390 C 0.26585 0.54145 0.50279 0.0
H5391 H 0.26716 0.49976 0.58193 0.0
H5392 H 0.26663 0.50033 0.55201 0.0
H5393 H 0.26954 0.55248 0.52671 0.0
H5394 H 0.27201 0.55138 0.43974 0.0
H5395 H 0.27341 0.55115 0.46972 0.0
H5396 H 0.25493 0.50176 0.49651 0.0
C5397 C 0.26495 0.51187 0.55843 0.0
C5398 C 0.26613 0.54124 0.52046 0.0
C5399 C 0.26547 0.51152 0.57603 0.0
C5400 C 0.26697 0.54087 0.44614 0.0
C5401 C 0.26769 0.54073 0.46381 0.0
C5402 C 0.25805 0.51316 0.50258 0.0
C5403 C 0.26274 0.52664 0.54929 0.0
C5404 C 0.26239 0.52698 0.52988 0.0
C5405 C 0.26132 0.52758 0.47357 0.0
C5406 C 0.26178 0.52741 0.49307 0.0
H5407 H 0.25956 0.55204 0.58344 0.0
H5408 H 0.25877 0.55276 0.55342 0.0
H5409 H 0.25513 0.50156 0.52623 0.0
H5410 H 0.24874 0.50407 0.44044 0.0
H5411 H 0.24925 0.50393 0.47014 0.0
C5412 C 0.26516 0.51644 0.3271 0.0
C5413 C 0.25067 0.51683 0.33696 0.0
C5414 C 0.26477 0.51563 0.30942 0.0
C5415 C 0.23555 0.50814 0.27166 0.0
H5416 H 0.27259 0.52368 0.24626 0.0
C5417 C 0.23199 0.50977 0.19744 0.0
C5418 C 0.24615 0.5117 0.18734 0.0
C5419 C 0.23261 0.51018 0.21512 0.0
C5420 C 0.26198 0.51904 0.25278 0.0
H5421 H 0.22416 0.51606 0.3343 0.0
H5422 H 0.22344 0.51443 0.30436 0.0
H5423 H 0.27353 0.52446 0.2761 0.0
H5424 H 0.27219 0.51663 0.18953 0.0
H5425 H 0.27351 0.5168 0.21945 0.0
H5426 H 0.22402 0.5026 0.24845 0.0
C5427 C 0.23539 0.51484 0.31016 0.0
C5428 C 0.26256 0.51951 0.27046 0.0
C5429 C 0.2358 0.5158 0.32779 0.0
C5430 C 0.26091 0.51452 0.19626 0.0
C5431 C 0.26158 0.51488 0.21392 0.0
C5432 C 0.235 0.50761 0.25399 0.0
C5433 C 0.24986 0.51487 0.30018 0.0
C5434 C 0.24934 0.51414 0.28067 0.0
C5435 C 0.24746 0.51268 0.22417 0.0
C5436 C 0.24816 0.5131 0.24373 0.0
H5437 H 0.27703 0.51659 0.33304 0.0
H5438 H 0.27645 0.51537 0.30301 0.0
H5439 H 0.22497 0.5035 0.27825 0.0
H5440 H 0.22019 0.50768 0.19165 0.0
H5441 H 0.22111 0.50863 0.22162 0.0
C5442 C 0.51183 0.82594 0.25908 0.0
C5443 C 0.50871 0.83549 0.27343 0.0
C5444 C 0.51219 0.80814 0.25899 0.0
C5445 C 0.50607 0.76852 0.28719 0.0
H5446 H 0.51708 0.74497 0.24739 0.0
C5447 C 0.51172 0.69358 0.28643 0.0
C5448 C 0.5107 0.6842 0.27165 0.0
C5449 C 0.51146 0.71139 0.28684 0.0
C5450 C 0.51377 0.75098 0.25879 0.0
H5451 H 0.50395 0.83197 0.29931 0.0
H5452 H 0.50471 0.80191 0.29934 0.0
H5453 H 0.51686 0.77488 0.24764 0.0
H5454 H 0.50729 0.68809 0.24564 0.0
H5455 H 0.50715 0.71821 0.24617 0.0
H5456 H 0.50307 0.74446 0.29829 0.0
C5457 C 0.50674 0.80796 0.28773 0.0
C5458 C 0.51369 0.76878 0.25897 0.0
C5459 C 0.50639 0.82576 0.28779 0.0
C5460 C 0.50878 0.69411 0.25738 0.0
C5461 C 0.50863 0.7119 0.25774 0.0
C5462 C 0.50623 0.7507 0.28701 0.0
C5463 C 0.50956 0.79825 0.2733 0.0
C5464 C 0.50978 0.77846 0.27316 0.0
C5465 C 0.51007 0.72138 0.27247 0.0
C5466 C 0.51003 0.7411 0.27278 0.0
H5467 H 0.51405 0.83228 0.24763 0.0
H5468 H 0.5145 0.80222 0.24733 0.0
H5469 H 0.50284 0.77442 0.29864 0.0
H5470 H 0.51311 0.68711 0.29795 0.0
H5471 H 0.51267 0.7173 0.29868 0.0
C5472 C 0.04776 0.3669 0.32837 0.0
C5473 C 0.04821 0.35951 0.31281 0.0
C5474 C 0.0526 0.35819 0.34214 0.0
C5475 C 0.07407 0.32093 0.35609 0.0
H5476 H 0.04676 0.32744 0.39485 0.0
C5477 C 0.08557 0.28155 0.40973 0.0
C5478 C 0.09527 0.29134 0.42007 0.0
C5479 C 0.07414 0.28896 0.39941 0.0
C5480 C 0.05429 0.32545 0.38403 0.0
H5481 H 0.05484 0.33765 0.29907 0.0
H5482 H 0.06289 0.32193 0.32346 0.0
H5483 H 0.04047 0.34247 0.36961 0.0
H5484 H 0.09879 0.3158 0.43009 0.0
H5485 H 0.0787 0.32876 0.41199 0.0
H5486 H 0.08778 0.30385 0.37054 0.0
C5487 C 0.05899 0.3346 0.32495 0.0
C5488 C 0.05089 0.33413 0.36968 0.0
C5489 C 0.0544 0.34351 0.31102 0.0
C5490 C 0.09142 0.30806 0.42214 0.0
C5491 C 0.07994 0.31547 0.41182 0.0
C5492 C 0.07726 0.31209 0.37031 0.0
C5493 C 0.05764 0.34175 0.34067 0.0
C5494 C 0.06088 0.33208 0.35564 0.0
C5495 C 0.07237 0.30611 0.3995 0.0
C5496 C 0.06743 0.31433 0.38433 0.0
H5497 H 0.04334 0.37941 0.32996 0.0
H5498 H 0.05204 0.36425 0.35398 0.0
H5499 H 0.08216 0.31934 0.34562 0.0
H5500 H 0.08829 0.26858 0.40815 0.0
H5501 H 0.06828 0.28159 0.38999 0.0
C5502 C 0.94213 0.83435 0.676 0.0
C5503 C 0.95404 0.84644 0.67908 0.0
C5504 C 0.94174 0.82619 0.66093 0.0
C5505 C 0.95496 0.83158 0.61793 0.0
H5506 H 0.93589 0.7881 0.61431 0.0
C5507 C 0.91969 0.81076 0.56082 0.0
C5508 C 0.91766 0.79393 0.55787 0.0
C5509 C 0.92883 0.81605 0.57435 0.0
C5510 C 0.94161 0.8001 0.61492 0.0
H5511 H 0.97516 0.85919 0.66871 0.0
H5512 H 0.97504 0.84432 0.64291 0.0
H5513 H 0.94387 0.79837 0.64094 0.0
H5514 H 0.92391 0.76942 0.56604 0.0
H5515 H 0.94116 0.77847 0.58857 0.0
H5516 H 0.95312 0.83313 0.59183 0.0
C5517 C 0.96571 0.84142 0.65196 0.0
C5518 C 0.94591 0.80612 0.63033 0.0
C5519 C 0.96591 0.84979 0.66691 0.0
C5520 C 0.92562 0.78248 0.56794 0.0
C5521 C 0.93524 0.78771 0.58104 0.0
C5522 C 0.95098 0.82542 0.60244 0.0
C5523 C 0.95343 0.82974 0.64866 0.0
C5524 C 0.95192 0.82221 0.63211 0.0
C5525 C 0.93638 0.80453 0.5849 0.0
C5526 C 0.94358 0.80988 0.6008 0.0
H5527 H 0.93297 0.83126 0.68516 0.0
H5528 H 0.93192 0.81748 0.65877 0.0
H5529 H 0.95957 0.84404 0.61878 0.0
H5530 H 0.91331 0.81976 0.55339 0.0
H5531 H 0.92912 0.8291 0.57702 0.0
C5532 C 0.45841 0.66418 0.81306 0.0
C5533 C 0.4747 0.6623 0.80759 0.0
C5534 C 0.45509 0.67246 0.82769 0.0
C5535 C 0.47025 0.6805 0.86732 0.0
H5536 H 0.43986 0.71741 0.86748 0.0
C5537 C 0.42178 0.69461 0.91554 0.0
C5538 C 0.41784 0.71107 0.91888 0.0
C5539 C 0.43465 0.69084 0.90482 0.0
C5540 C 0.4487 0.70739 0.86764 0.0
H5541 H 0.50016 0.6682 0.81335 0.0
H5542 H 0.49433 0.68236 0.83865 0.0
H5543 H 0.44985 0.70644 0.84142 0.0
H5544 H 0.42482 0.73652 0.91456 0.0
H5545 H 0.44715 0.72986 0.89572 0.0
H5546 H 0.46804 0.68064 0.89355 0.0
C5547 C 0.48423 0.67736 0.83155 0.0
C5548 C 0.45423 0.70106 0.85277 0.0
C5549 C 0.48751 0.66929 0.81685 0.0
C5550 C 0.42765 0.72368 0.91226 0.0
C5551 C 0.44043 0.71992 0.90151 0.0
C5552 C 0.46447 0.68666 0.88224 0.0
C5553 C 0.46803 0.679 0.837 0.0
C5554 C 0.46453 0.68725 0.85256 0.0
C5555 C 0.44356 0.70352 0.89722 0.0
C5556 C 0.45319 0.69976 0.88242 0.0
H5557 H 0.44825 0.65919 0.80604 0.0
H5558 H 0.44245 0.67363 0.83184 0.0
H5559 H 0.47829 0.66983 0.86725 0.0
H5560 H 0.41452 0.68471 0.9207 0.0
H5561 H 0.43676 0.67809 0.9015 0.0
C5562 C 0.60862 0.20646 0.06333 0.0
C5563 C 0.60751 0.22316 0.05947 0.0
C5564 C 0.60298 0.20094 0.07852 0.0
C5565 C 0.59309 0.21742 0.12002 0.0
H5566 H 0.57408 0.17419 0.12602 0.0
C5567 C 0.54612 0.19197 0.16644 0.0
C5568 C 0.54986 0.17626 0.17252 0.0
C5569 C 0.55758 0.20022 0.15676 0.0
C5570 C 0.57971 0.18617 0.1245 0.0
H5571 H 0.59952 0.24721 0.06775 0.0
H5572 H 0.58793 0.2374 0.09338 0.0
H5573 H 0.58287 0.18254 0.09882 0.0
H5574 H 0.56904 0.15774 0.1751 0.0
H5575 H 0.58882 0.17209 0.15794 0.0
H5576 H 0.58852 0.2213 0.1457 0.0
C5577 C 0.59376 0.2286 0.08522 0.0
C5578 C 0.58473 0.19097 0.10896 0.0
C5579 C 0.5999 0.23415 0.07035 0.0
C5580 C 0.56584 0.16985 0.17055 0.0
C5581 C 0.5772 0.17804 0.16082 0.0
C5582 C 0.5877 0.21271 0.13555 0.0
C5583 C 0.5959 0.21209 0.0898 0.0
C5584 C 0.59128 0.20672 0.10648 0.0
C5585 C 0.57268 0.19269 0.15304 0.0
C5586 C 0.5809 0.19712 0.13777 0.0
H5587 H 0.61498 0.19797 0.05523 0.0
H5588 H 0.60498 0.18817 0.08171 0.0
H5589 H 0.5984 0.22952 0.11862 0.0
H5590 H 0.53397 0.19725 0.16809 0.0
H5591 H 0.55392 0.21151 0.15071 0.0
C5592 C 0.04989 0.65568 0.19928 0.0
C5593 C 0.05051 0.66367 0.21448 0.0
C5594 C 0.05427 0.6639 0.18503 0.0
C5595 C 0.07493 0.70108 0.16962 0.0
H5596 H 0.04952 0.69158 0.13034 0.0
C5597 C 0.08542 0.73929 0.11508 0.0
C5598 C 0.09715 0.73033 0.10609 0.0
C5599 C 0.07403 0.73101 0.12479 0.0
C5600 C 0.05654 0.69437 0.14128 0.0
H5601 H 0.05613 0.68635 0.22715 0.0
H5602 H 0.06338 0.70124 0.20199 0.0
H5603 H 0.04273 0.67776 0.15616 0.0
H5604 H 0.10472 0.70608 0.09792 0.0
H5605 H 0.08481 0.69156 0.11514 0.0
H5606 H 0.08851 0.7179 0.15476 0.0
C5607 C 0.06 0.68839 0.20109 0.0
C5608 C 0.05285 0.68638 0.15599 0.0
C5609 C 0.05594 0.67995 0.21547 0.0
C5610 C 0.09574 0.71317 0.10482 0.0
C5611 C 0.08434 0.70488 0.11459 0.0
C5612 C 0.07837 0.70925 0.15506 0.0
C5613 C 0.05885 0.68051 0.18568 0.0
C5614 C 0.06217 0.68952 0.17027 0.0
C5615 C 0.0744 0.71379 0.12556 0.0
C5616 C 0.06927 0.70589 0.14084 0.0
H5617 H 0.04539 0.64321 0.19837 0.0
H5618 H 0.05371 0.6573 0.17348 0.0
H5619 H 0.08254 0.70355 0.18023 0.0
H5620 H 0.08629 0.75256 0.11605 0.0
H5621 H 0.06642 0.73803 0.13323 0.0
C5622 C 0.59281 0.78878 0.46194 0.0
C5623 C 0.60225 0.79882 0.47219 0.0
C5624 C 0.58744 0.79461 0.44687 0.0
C5625 C 0.58454 0.83155 0.42063 0.0
H5626 H 0.58617 0.79846 0.38615 0.0
C5627 C 0.56451 0.84941 0.35815 0.0
C5628 C 0.5492 0.84172 0.35579 0.0
C5629 C 0.57611 0.84237 0.36852 0.0
C5630 C 0.58599 0.80783 0.39564 0.0
H5631 H 0.61275 0.823 0.47558 0.0
H5632 H 0.60393 0.8332 0.44887 0.0
H5633 H 0.5943 0.79115 0.41403 0.0
H5634 H 0.53499 0.81962 0.36016 0.0
H5635 H 0.55524 0.80741 0.3786 0.0
H5636 H 0.57619 0.84817 0.40221 0.0
C5637 C 0.60024 0.82096 0.45254 0.0
C5638 C 0.59032 0.80364 0.41162 0.0
C5639 C 0.60519 0.81521 0.46788 0.0
C5640 C 0.54658 0.82591 0.36212 0.0
C5641 C 0.55824 0.81884 0.37246 0.0
C5642 C 0.58054 0.83579 0.40461 0.0
C5643 C 0.592 0.8104 0.44158 0.0
C5644 C 0.58901 0.81531 0.4244 0.0
C5645 C 0.5725 0.82762 0.37661 0.0
C5646 C 0.58074 0.82384 0.39213 0.0
H5647 H 0.59076 0.776 0.46495 0.0
H5648 H 0.58057 0.78639 0.43898 0.0
H5649 H 0.58333 0.8408 0.43014 0.0
H5650 H 0.5669 0.86161 0.35338 0.0
H5651 H 0.58712 0.84925 0.37155 0.0
C5652 C 0.45767 0.3554 0.71823 0.0
C5653 C 0.47465 0.35543 0.72104 0.0
C5654 C 0.4516 0.34952 0.70332 0.0
C5655 C 0.4663 0.34342 0.66075 0.0
H5656 H 0.42497 0.32035 0.65542 0.0
C5657 C 0.44402 0.29838 0.61083 0.0
C5658 C 0.42779 0.30086 0.6055 0.0
C5659 C 0.45115 0.30953 0.62168 0.0
C5660 C 0.43639 0.32709 0.65678 0.0
H5661 H 0.49859 0.34886 0.71126 0.0
H5662 H 0.48801 0.33725 0.68598 0.0
H5663 H 0.43392 0.32815 0.68282 0.0
H5664 H 0.40691 0.31758 0.60569 0.0
H5665 H 0.41927 0.33679 0.62506 0.0
H5666 H 0.46914 0.3412 0.63464 0.0
C5667 C 0.47935 0.34225 0.69483 0.0
C5668 C 0.44152 0.33151 0.67242 0.0
C5669 C 0.48538 0.34843 0.70949 0.0
C5670 C 0.41947 0.31545 0.60965 0.0
C5671 C 0.4265 0.32645 0.62065 0.0
C5672 C 0.46129 0.33869 0.6451 0.0
C5673 C 0.46251 0.34351 0.69124 0.0
C5674 C 0.45665 0.33948 0.6746 0.0
C5675 C 0.44195 0.32301 0.6274 0.0
C5676 C 0.44638 0.33039 0.64312 0.0
H5677 H 0.44931 0.36125 0.72683 0.0
H5678 H 0.43855 0.35071 0.70087 0.0
H5679 H 0.47783 0.34998 0.66201 0.0
H5680 H 0.45066 0.28726 0.60757 0.0
H5681 H 0.46308 0.3067 0.62689 0.0
C5682 C 0.97399 0.18836 0.85998 0.0
C5683 C 0.97263 0.17178 0.85541 0.0
C5684 C 0.96178 0.19559 0.86962 0.0
C5685 C 0.94293 0.18107 0.90416 0.0
H5686 H 0.92193 0.22372 0.90832 0.0
C5687 C 0.91693 0.20624 0.96533 0.0
C5688 C 0.91709 0.2234 0.96728 0.0
C5689 C 0.92225 0.19924 0.9506 0.0
C5690 C 0.92792 0.21183 0.90735 0.0
H5691 H 0.95676 0.15032 0.8554 0.0
H5692 H 0.93568 0.16287 0.8727 0.0
H5693 H 0.93032 0.21382 0.8812 0.0
H5694 H 0.92548 0.24643 0.9567 0.0
H5695 H 0.93586 0.23412 0.93166 0.0
H5696 H 0.94191 0.1795 0.93025 0.0
C5697 C 0.94598 0.17029 0.86864 0.0
C5698 C 0.9324 0.20612 0.89185 0.0
C5699 C 0.95806 0.16314 0.85883 0.0
C5700 C 0.9248 0.23319 0.95536 0.0
C5701 C 0.93049 0.22617 0.94088 0.0
C5702 C 0.93879 0.1869 0.91967 0.0
C5703 C 0.94835 0.18615 0.87494 0.0
C5704 C 0.94018 0.19084 0.89025 0.0
C5705 C 0.92831 0.2093 0.93794 0.0
C5706 C 0.93163 0.20252 0.92146 0.0
H5707 H 0.98506 0.19526 0.85722 0.0
H5708 H 0.96379 0.20786 0.87445 0.0
H5709 H 0.94929 0.16937 0.90315 0.0
H5710 H 0.91124 0.19837 0.97442 0.0
H5711 H 0.92059 0.18615 0.94878 0.0
C5712 C 0.31662 0.06425 0.35856 0.0
C5713 C 0.31413 0.04719 0.35769 0.0
C5714 C 0.32914 0.07161 0.34949 0.0
C5715 C 0.3608 0.0648 0.31692 0.0
H5716 H 0.3858 0.09486 0.3442 0.0
C5717 C 0.43051 0.08052 0.31191 0.0
C5718 C 0.4348 0.09709 0.31415 0.0
C5719 C 0.41401 0.0757 0.31273 0.0
C5720 C 0.3788 0.08673 0.3363 0.0
H5721 H 0.32133 0.02478 0.34507 0.0
H5722 H 0.34398 0.03745 0.32994 0.0
H5723 H 0.35997 0.08394 0.35427 0.0
H5724 H 0.42537 0.12177 0.31802 0.0
H5725 H 0.39655 0.11325 0.32001 0.0
H5726 H 0.38049 0.06702 0.29937 0.0
C5727 C 0.33627 0.04516 0.33764 0.0
C5728 C 0.36394 0.0805 0.34203 0.0
C5729 C 0.32354 0.03783 0.34658 0.0
C5730 C 0.42232 0.1089 0.3163 0.0
C5731 C 0.40589 0.10406 0.31741 0.0
C5732 C 0.37589 0.07093 0.31124 0.0
C5733 C 0.33957 0.06205 0.33948 0.0
C5734 C 0.35476 0.06941 0.33249 0.0
C5735 C 0.40166 0.08736 0.31613 0.0
C5736 C 0.38501 0.08189 0.32097 0.0
H5737 H 0.30935 0.07186 0.36678 0.0
H5738 H 0.33103 0.08473 0.3508 0.0
H5739 H 0.35396 0.05636 0.30923 0.0
H5740 H 0.43997 0.07127 0.31005 0.0
H5741 H 0.41102 0.06274 0.31177 0.0
C5742 C 0.2252 0.07702 0.61672 0.0
C5743 C 0.22394 0.06091 0.61061 0.0
C5744 C 0.21831 0.09024 0.6084 0.0
C5745 C 0.20266 0.10529 0.56894 0.0
H5746 H 0.18346 0.13847 0.59754 0.0
C5747 C 0.16605 0.16868 0.55677 0.0
C5748 C 0.17505 0.18198 0.56332 0.0
C5749 C 0.1718 0.15246 0.55847 0.0
C5750 C 0.18868 0.12926 0.58939 0.0
H5751 H 0.21408 0.04607 0.59078 0.0
H5752 H 0.20131 0.06947 0.57631 0.0
H5753 H 0.19241 0.11234 0.60899 0.0
H5754 H 0.19807 0.18865 0.57506 0.0
H5755 H 0.20766 0.16042 0.57854 0.0
H5756 H 0.19879 0.12268 0.54933 0.0
C5757 C 0.20811 0.07173 0.5875 0.0
C5758 C 0.19389 0.11432 0.59593 0.0
C5759 C 0.21528 0.05834 0.59586 0.0
C5760 C 0.19057 0.17874 0.57028 0.0
C5761 C 0.1962 0.16259 0.5721 0.0
C5762 C 0.19723 0.12034 0.56232 0.0
C5763 C 0.20944 0.08783 0.59384 0.0
C5764 C 0.20149 0.10235 0.58595 0.0
C5765 C 0.18661 0.14931 0.56674 0.0
C5766 C 0.19063 0.13258 0.57265 0.0
H5767 H 0.23136 0.07952 0.62819 0.0
H5768 H 0.21991 0.10245 0.61351 0.0
H5769 H 0.20845 0.09632 0.56093 0.0
H5770 H 0.15405 0.17063 0.55135 0.0
H5771 H 0.16416 0.14235 0.55436 0.0
C5772 C 0.20004 0.97117 0.86831 0.0
C5773 C 0.21539 0.97394 0.86094 0.0
C5774 C 0.18625 0.96846 0.85874 0.0
C5775 C 0.17228 0.95553 0.81859 0.0
H5776 H 0.13137 0.97454 0.83478 0.0
C5777 C 0.11467 0.93008 0.79476 0.0
C5778 C 0.11075 0.91916 0.80748 0.0
C5779 C 0.12314 0.94451 0.79828 0.0
C5780 C 0.14276 0.96962 0.82982 0.0
H5781 H 0.22882 0.97483 0.83796 0.0
H5782 H 0.20439 0.97003 0.82095 0.0
H5783 H 0.15762 0.9833 0.84654 0.0
H5784 H 0.10999 0.91542 0.83371 0.0
H5785 H 0.12475 0.94084 0.83999 0.0
H5786 H 0.1574 0.94128 0.80243 0.0
C5787 C 0.20309 0.97017 0.83418 0.0
C5788 C 0.15771 0.97438 0.83666 0.0
C5789 C 0.21703 0.97276 0.84385 0.0
C5790 C 0.11321 0.92372 0.82383 0.0
C5791 C 0.12138 0.93832 0.82737 0.0
C5792 C 0.15739 0.95103 0.81154 0.0
C5793 C 0.1875 0.96862 0.84158 0.0
C5794 C 0.17247 0.96666 0.83173 0.0
C5795 C 0.12753 0.94806 0.81452 0.0
C5796 C 0.14252 0.95743 0.81769 0.0
H5797 H 0.19857 0.97174 0.8815 0.0
H5798 H 0.17452 0.96653 0.8648 0.0
H5799 H 0.18342 0.94929 0.81466 0.0
H5800 H 0.11262 0.92667 0.78206 0.0
H5801 H 0.12787 0.95188 0.78826 0.0
C5802 C 0.3618 0.85172 0.06368 0.0
C5803 C 0.34979 0.83938 0.06541 0.0
C5804 C 0.35736 0.86829 0.06429 0.0
C5805 C 0.32368 0.89806 0.06209 0.0
H5806 H 0.34388 0.918 0.10035 0.0
C5807 C 0.29214 0.9483 0.09974 0.0
C5808 C 0.30149 0.95962 0.10877 0.0
C5809 C 0.2998 0.93616 0.09036 0.0
C5810 C 0.33843 0.91293 0.08934 0.0
H5811 H 0.32368 0.83463 0.06791 0.0
H5812 H 0.31586 0.86379 0.06892 0.0
H5813 H 0.35398 0.89169 0.09028 0.0
H5814 H 0.32625 0.96792 0.11411 0.0
H5815 H 0.33977 0.94677 0.09746 0.0
H5816 H 0.30794 0.9192 0.06125 0.0
C5817 C 0.32869 0.86054 0.06714 0.0
C5818 C 0.34418 0.89779 0.08363 0.0
C5819 C 0.33316 0.84392 0.06676 0.0
C5820 C 0.31873 0.9592 0.10744 0.0
C5821 C 0.32645 0.94705 0.09797 0.0
C5822 C 0.31808 0.91338 0.06762 0.0
C5823 C 0.34083 0.87281 0.06643 0.0
C5824 C 0.3365 0.89001 0.07032 0.0
C5825 C 0.31705 0.93513 0.08964 0.0
C5826 C 0.32499 0.92068 0.0817 0.0
H5827 H 0.37474 0.84858 0.06268 0.0
H5828 H 0.36689 0.87758 0.06372 0.0
H5829 H 0.31769 0.89229 0.0517 0.0
H5830 H 0.27887 0.94866 0.1 0.0
H5831 H 0.29212 0.92716 0.08426 0.0
C5832 C 0.42818 0.93873 0.20643 0.0
C5833 C 0.4317 0.9223 0.21044 0.0
C5834 C 0.4119 0.94431 0.20587 0.0
C5835 C 0.37096 0.92882 0.197 0.0
H5836 H 0.3574 0.973 0.20909 0.0
C5837 C 0.3091 0.95603 0.17492 0.0
C5838 C 0.31074 0.97171 0.16793 0.0
C5839 C 0.32188 0.94941 0.18439 0.0
C5840 C 0.36099 0.96061 0.20566 0.0
H5841 H 0.42089 0.89897 0.21763 0.0
H5842 H 0.39248 0.90877 0.2167 0.0
H5843 H 0.38404 0.96252 0.21826 0.0
H5844 H 0.32623 0.99328 0.1665 0.0
H5845 H 0.34863 0.98171 0.18236 0.0
H5846 H 0.34837 0.92718 0.18367 0.0
C5847 C 0.40233 0.9173 0.21393 0.0
C5848 C 0.37622 0.95462 0.21093 0.0
C5849 C 0.41861 0.91174 0.21457 0.0
C5850 C 0.32492 0.98095 0.17125 0.0
C5851 C 0.33761 0.97442 0.18067 0.0
C5852 C 0.35577 0.93484 0.19164 0.0
C5853 C 0.39879 0.93354 0.20923 0.0
C5854 C 0.38159 0.93886 0.2062 0.0
C5855 C 0.33639 0.95846 0.18714 0.0
C5856 C 0.35087 0.95101 0.19544 0.0
H5857 H 0.438 0.9472 0.2034 0.0
H5858 H 0.40956 0.95686 0.20207 0.0
H5859 H 0.37481 0.91667 0.19304 0.0
H5860 H 0.29826 0.94869 0.17263 0.0
H5861 H 0.32051 0.93712 0.18934 0.0
C5862 C 0.33507 0.17498 0.46284 0.0
C5863 C 0.35116 0.1801 0.45921 0.0
C5864 C 0.33072 0.15839 0.46123 0.0
C5865 C 0.34062 0.12425 0.43509 0.0
H5866 H 0.317 0.0964 0.4657 0.0
C5867 C 0.32316 0.05904 0.41622 0.0
C5868 C 0.30669 0.05492 0.41911 0.0
C5869 C 0.33014 0.07255 0.42422 0.0
C5870 C 0.32356 0.10407 0.45702 0.0
H5871 H 0.37551 0.17209 0.45177 0.0
H5872 H 0.36779 0.14317 0.44842 0.0
H5873 H 0.32584 0.12401 0.47427 0.0
H5874 H 0.28465 0.06111 0.43265 0.0
H5875 H 0.29678 0.08459 0.44687 0.0
H5876 H 0.33781 0.10492 0.41759 0.0
C5877 C 0.35861 0.15189 0.45269 0.0
C5878 C 0.3286 0.11981 0.46194 0.0
C5879 C 0.36301 0.16837 0.45461 0.0
C5880 C 0.29751 0.06388 0.43065 0.0
C5881 C 0.30447 0.07734 0.43872 0.0
C5882 C 0.33548 0.10867 0.43014 0.0
C5883 C 0.34234 0.14682 0.45562 0.0
C5884 C 0.33722 0.12999 0.45099 0.0
C5885 C 0.32067 0.08222 0.4351 0.0
C5886 C 0.32693 0.09835 0.44103 0.0
H5887 H 0.32581 0.18387 0.46654 0.0
H5888 H 0.3181 0.15475 0.46353 0.0
H5889 H 0.34691 0.13202 0.4263 0.0
H5890 H 0.33029 0.05246 0.40705 0.0
H5891 H 0.34271 0.07588 0.4213 0.0
C5892 C 0.21238 0.06795 0.66806 0.0
C5893 C 0.21263 0.05069 0.66713 0.0
C5894 C 0.20005 0.07602 0.67704 0.0
C5895 C 0.16633 0.06854 0.70744 0.0
H5896 H 0.14405 0.10347 0.68388 0.0
C5897 C 0.09672 0.08143 0.70906 0.0
C5898 C 0.09145 0.09787 0.70974 0.0
C5899 C 0.11351 0.07769 0.70832 0.0
C5900 C 0.15032 0.09396 0.69078 0.0
H5901 H 0.20089 0.0284 0.6758 0.0
H5902 H 0.17928 0.04225 0.69081 0.0
H5903 H 0.17061 0.09351 0.67406 0.0
H5904 H 0.09954 0.12329 0.71084 0.0
H5905 H 0.12889 0.11671 0.70919 0.0
H5906 H 0.1453 0.06825 0.72341 0.0
C5907 C 0.18857 0.04968 0.68483 0.0
C5908 C 0.16558 0.08829 0.68521 0.0
C5909 C 0.20082 0.04169 0.6759 0.0
C5910 C 0.10327 0.11049 0.71035 0.0
C5911 C 0.12003 0.10677 0.70938 0.0
C5912 C 0.15095 0.07406 0.71286 0.0
C5913 C 0.18785 0.06694 0.68531 0.0
C5914 C 0.17348 0.07513 0.69314 0.0
C5915 C 0.12526 0.09036 0.70802 0.0
C5916 C 0.14263 0.08648 0.70428 0.0
H5917 H 0.22139 0.07521 0.66146 0.0
H5918 H 0.19989 0.08935 0.67728 0.0
H5919 H 0.17229 0.05863 0.71404 0.0
H5920 H 0.08786 0.07149 0.70875 0.0
H5921 H 0.11727 0.06494 0.70715 0.0
C5922 C 0.18659 0.843 0.94423 0.0
C5923 C 0.17333 0.83936 0.95476 0.0
C5924 C 0.1924 0.85908 0.9428 0.0
C5925 C 0.19756 0.89892 0.96038 0.0
H5926 H 0.18998 0.91545 0.91635 0.0
C5927 C 0.23344 0.95084 0.92829 0.0
C5928 C 0.22467 0.96207 0.91857 0.0
C5929 C 0.22531 0.93812 0.93637 0.0
C5930 C 0.19192 0.91112 0.92876 0.0
H5931 H 0.15673 0.84984 0.97304 0.0
H5932 H 0.16756 0.87777 0.97099 0.0
H5933 H 0.18076 0.88782 0.92367 0.0
H5934 H 0.20029 0.96965 0.9108 0.0
H5935 H 0.18607 0.94682 0.92436 0.0
H5936 H 0.20959 0.92197 0.96514 0.0
C5937 C 0.17311 0.86808 0.96366 0.0
C5938 C 0.1868 0.8953 0.93288 0.0
C5939 C 0.16701 0.85203 0.96486 0.0
C5940 C 0.20741 0.96099 0.91797 0.0
C5941 C 0.19928 0.94801 0.92576 0.0
C5942 C 0.20301 0.9147 0.95614 0.0
C5943 C 0.1854 0.87178 0.95217 0.0
C5944 C 0.18982 0.88899 0.9486 0.0
C5945 C 0.20824 0.93624 0.93469 0.0
C5946 C 0.20041 0.92081 0.94021 0.0
H5947 H 0.19216 0.83355 0.93664 0.0
H5948 H 0.20206 0.8617 0.934 0.0
H5949 H 0.19995 0.89424 0.97258 0.0
H5950 H 0.24666 0.95153 0.92928 0.0
H5951 H 0.23251 0.92916 0.9431 0.0
C5952 C 0.30302 0.41526 0.08251 0.0
C5953 C 0.30413 0.42122 0.09861 0.0
C5954 C 0.31561 0.40549 0.07617 0.0
C5955 C 0.33781 0.37362 0.0939 0.0
H5956 H 0.35404 0.36589 0.04983 0.0
C5957 C 0.36577 0.31238 0.06918 0.0
C5958 C 0.36084 0.30866 0.05312 0.0
C5959 C 0.36068 0.32712 0.0764 0.0
C5960 C 0.3496 0.36796 0.06221 0.0
H5961 H 0.31996 0.4235 0.11999 0.0
H5962 H 0.34181 0.40639 0.10887 0.0
H5963 H 0.34528 0.39356 0.05778 0.0
H5964 H 0.34538 0.31596 0.03283 0.0
H5965 H 0.33597 0.34122 0.04556 0.0
H5966 H 0.34099 0.34781 0.09798 0.0
C5967 C 0.33131 0.40928 0.1012 0.0
C5968 C 0.34482 0.38374 0.06675 0.0
C5969 C 0.31878 0.41904 0.10752 0.0
C5970 C 0.34937 0.31869 0.04514 0.0
C5971 C 0.34419 0.33322 0.05234 0.0
C5972 C 0.34248 0.35781 0.08932 0.0
C5973 C 0.32926 0.40159 0.08599 0.0
C5974 C 0.33841 0.38652 0.08244 0.0
C5975 C 0.35061 0.33798 0.06755 0.0
C5976 C 0.34781 0.35482 0.07327 0.0
H5977 H 0.29194 0.41711 0.07534 0.0
H5978 H 0.31383 0.39959 0.06437 0.0
H5979 H 0.33254 0.3755 0.106 0.0
H5980 H 0.3746 0.30468 0.07552 0.0
H5981 H 0.36553 0.33053 0.08829 0.0
C5982 C 0.81416 0.11288 0.91868 0.0
C5983 C 0.82065 0.09749 0.92291 0.0
C5984 C 0.81655 0.12638 0.92897 0.0
C5985 C 0.84665 0.14039 0.95892 0.0
H5986 H 0.81808 0.17866 0.96081 0.0
C5987 C 0.8723 0.20497 0.96742 0.0
C5988 C 0.86393 0.21586 0.97781 0.0
C5989 C 0.86545 0.18975 0.96357 0.0
C5990 C 0.8261 0.16799 0.96063 0.0
H5991 H 0.83324 0.08345 0.94159 0.0
H5992 H 0.83721 0.10702 0.9599 0.0
H5993 H 0.80737 0.15262 0.95036 0.0
H5994 H 0.84091 0.22066 0.99026 0.0
H5995 H 0.82899 0.19379 0.98416 0.0
H5996 H 0.86543 0.15571 0.96892 0.0
C5997 C 0.83081 0.10886 0.9484 0.0
C5998 C 0.82002 0.15314 0.95452 0.0
C5999 C 0.82864 0.09542 0.93796 0.0
C6000 C 0.84803 0.21194 0.98322 0.0
C6001 C 0.84112 0.1967 0.97945 0.0
C6002 C 0.85269 0.15517 0.96504 0.0
C6003 C 0.82527 0.12459 0.94376 0.0
C6004 C 0.83042 0.13934 0.95309 0.0
C6005 C 0.84987 0.18537 0.96973 0.0
C6006 C 0.84267 0.16925 0.96543 0.0
H6007 H 0.80767 0.11453 0.90719 0.0
H6008 H 0.81225 0.13834 0.92494 0.0
H6009 H 0.85506 0.13008 0.95787 0.0
H6010 H 0.88395 0.20837 0.96202 0.0
H6011 H 0.8722 0.18156 0.95546 0.0
C6012 C 0.06972 0.59433 0.2344 0.0
C6013 C 0.06157 0.6069 0.22579 0.0
C6014 C 0.0832 0.58618 0.22742 0.0
C6015 C 0.11776 0.59631 0.20329 0.0
H6016 H 0.12661 0.54967 0.19752 0.0
C6017 C 0.18309 0.57359 0.19305 0.0
C6018 C 0.18538 0.566 0.1777 0.0
C6019 C 0.16734 0.57527 0.19973 0.0
C6020 C 0.12424 0.5627 0.19913 0.0
H6021 H 0.06064 0.62024 0.20288 0.0
H6022 H 0.08476 0.60661 0.19097 0.0
H6023 H 0.09899 0.55895 0.2063 0.0
H6024 H 0.17297 0.55281 0.15807 0.0
H6025 H 0.14545 0.55549 0.17004 0.0
H6026 H 0.14292 0.60019 0.19663 0.0
C6027 C 0.08042 0.60282 0.20297 0.0
C6028 C 0.10853 0.56797 0.2041 0.0
C6029 C 0.06665 0.61063 0.20977 0.0
C6030 C 0.1717 0.55873 0.16993 0.0
C6031 C 0.15592 0.56027 0.17674 0.0
C6032 C 0.13344 0.59105 0.1987 0.0
C6033 C 0.08901 0.5908 0.2119 0.0
C6034 C 0.1052 0.58485 0.20609 0.0
C6035 C 0.15357 0.56919 0.19133 0.0
C6036 C 0.13685 0.57424 0.19659 0.0
H6037 H 0.06608 0.59124 0.24677 0.0
H6038 H 0.08971 0.57702 0.23458 0.0
H6039 H 0.11551 0.60936 0.20495 0.0
H6040 H 0.19339 0.5789 0.1996 0.0
H6041 H 0.16583 0.58199 0.21114 0.0
C6042 C 0.65262 0.82031 0.46656 0.0
C6043 C 0.66083 0.80903 0.47653 0.0
C6044 C 0.66027 0.835 0.46239 0.0
C6045 C 0.69941 0.85578 0.45872 0.0
H6046 H 0.672 0.89473 0.4637 0.0
C6047 C 0.72017 0.91453 0.43028 0.0
C6048 C 0.70879 0.91901 0.41805 0.0
C6049 C 0.71529 0.90485 0.4434 0.0
C6050 C 0.67986 0.88399 0.46255 0.0
H6051 H 0.68363 0.80292 0.48862 0.0
H6052 H 0.69731 0.82865 0.48123 0.0
H6053 H 0.66191 0.86812 0.47332 0.0
H6054 H 0.6832 0.91823 0.4107 0.0
H6055 H 0.67472 0.90065 0.4334 0.0
H6056 H 0.71696 0.87133 0.4471 0.0
C6057 C 0.68491 0.82637 0.4769 0.0
C6058 C 0.67407 0.86883 0.46787 0.0
C6059 C 0.67718 0.81174 0.48111 0.0
C6060 C 0.69221 0.91472 0.41985 0.0
C6061 C 0.68734 0.90493 0.43298 0.0
C6062 C 0.7052 0.87093 0.4534 0.0
C6063 C 0.67621 0.83837 0.46814 0.0
C6064 C 0.68349 0.85456 0.46522 0.0
C6065 C 0.69904 0.89929 0.44436 0.0
C6066 C 0.6951 0.88497 0.45454 0.0
H6067 H 0.63998 0.81827 0.46293 0.0
H6068 H 0.65355 0.84395 0.45519 0.0
H6069 H 0.70688 0.8449 0.45666 0.0
H6070 H 0.73313 0.9175 0.42916 0.0
H6071 H 0.72448 0.90065 0.45208 0.0
C6072 C 0.95872 0.92979 0.23862 0.0
C6073 C 0.96447 0.91567 0.23049 0.0
C6074 C 0.94359 0.93664 0.23445 0.0
C6075 C 0.904 0.92396 0.21866 0.0
H6076 H 0.89714 0.96987 0.20784 0.0
C6077 C 0.85957 0.94684 0.17213 0.0
C6078 C 0.85454 0.96331 0.1724 0.0
C6079 C 0.86796 0.94029 0.18545 0.0
C6080 C 0.89866 0.95713 0.21142 0.0
H6081 H 0.95958 0.89797 0.21126 0.0
H6082 H 0.933 0.91004 0.20378 0.0
H6083 H 0.92417 0.96071 0.21683 0.0
H6084 H 0.85216 0.98534 0.18722 0.0
H6085 H 0.86714 0.97391 0.21065 0.0
H6086 H 0.87867 0.92023 0.21258 0.0
C6087 C 0.94019 0.91573 0.21342 0.0
C6088 C 0.9142 0.95188 0.21634 0.0
C6089 C 0.95546 0.90903 0.21745 0.0
C6090 C 0.85612 0.9726 0.18683 0.0
C6091 C 0.86466 0.96608 0.20017 0.0
C6092 C 0.88841 0.92923 0.21387 0.0
C6093 C 0.93394 0.92923 0.22229 0.0
C6094 C 0.91712 0.93515 0.21926 0.0
C6095 C 0.87162 0.95026 0.19908 0.0
C6096 C 0.88581 0.94571 0.2094 0.0
H6097 H 0.96548 0.93492 0.24884 0.0
H6098 H 0.93901 0.9471 0.24137 0.0
H6099 H 0.90597 0.91104 0.22132 0.0
H6100 H 0.85824 0.9395 0.16109 0.0
H6101 H 0.87316 0.92806 0.1842 0.0
C6102 C 0.21457 0.60551 0.60533 0.0
C6103 C 0.20338 0.59324 0.60042 0.0
C6104 C 0.21512 0.62055 0.59727 0.0
C6105 C 0.1999 0.64232 0.56037 0.0
H6106 H 0.20013 0.68033 0.58926 0.0
C6107 C 0.17733 0.7036 0.53653 0.0
C6108 C 0.16589 0.71138 0.54689 0.0
C6109 C 0.18782 0.69158 0.54264 0.0
C6110 C 0.20011 0.66985 0.58102 0.0
H6111 H 0.18407 0.5871 0.58318 0.0
H6112 H 0.18428 0.61381 0.56967 0.0
H6113 H 0.20686 0.65338 0.60019 0.0
H6114 H 0.15675 0.71343 0.57177 0.0
H6115 H 0.17424 0.69148 0.58235 0.0
H6116 H 0.19161 0.65841 0.54158 0.0
C6117 C 0.19307 0.61154 0.57939 0.0
C6118 C 0.20418 0.65442 0.58722 0.0
C6119 C 0.1927 0.59636 0.58731 0.0
C6120 C 0.16551 0.70751 0.5636 0.0
C6121 C 0.17568 0.69509 0.56965 0.0
C6122 C 0.19557 0.65768 0.55424 0.0
C6123 C 0.20422 0.62381 0.58437 0.0
C6124 C 0.20337 0.64041 0.5771 0.0
C6125 C 0.18663 0.68668 0.55911 0.0
C6126 C 0.19491 0.67148 0.56468 0.0
H6127 H 0.2228 0.60362 0.6156 0.0
H6128 H 0.22391 0.6297 0.60131 0.0
H6129 H 0.19963 0.63179 0.5522 0.0
H6130 H 0.1781 0.70675 0.52364 0.0
H6131 H 0.19642 0.68567 0.53431 0.0
C6132 C 0.07076 0.40387 0.31375 0.0
C6133 C 0.05755 0.4131 0.30775 0.0
C6134 C 0.08565 0.4115 0.31705 0.0
C6135 C 0.1059 0.45117 0.32293 0.0
H6136 H 0.14426 0.42506 0.31097 0.0
C6137 C 0.16661 0.47115 0.34583 0.0
C6138 C 0.17125 0.45953 0.3578 0.0
C6139 C 0.15653 0.46659 0.3329 0.0
C6140 C 0.13366 0.43261 0.31398 0.0
H6141 H 0.04869 0.43738 0.30152 0.0
H6142 H 0.07495 0.45092 0.30705 0.0
H6143 H 0.11681 0.41544 0.30359 0.0
H6144 H 0.17058 0.43381 0.36461 0.0
H6145 H 0.1523 0.42589 0.34221 0.0
H6146 H 0.12266 0.46803 0.33385 0.0
C6147 C 0.07384 0.43785 0.30936 0.0
C6148 C 0.11798 0.42705 0.31001 0.0
C6149 C 0.05882 0.43019 0.30633 0.0
C6150 C 0.16693 0.44299 0.35571 0.0
C6151 C 0.15675 0.43844 0.34274 0.0
C6152 C 0.12156 0.45683 0.32669 0.0
C6153 C 0.08756 0.42838 0.314 0.0
C6154 C 0.10398 0.43584 0.3153 0.0
C6155 C 0.15073 0.45045 0.33189 0.0
C6156 C 0.13545 0.44715 0.32301 0.0
H6157 H 0.07006 0.39059 0.31449 0.0
H6158 H 0.09589 0.40401 0.32117 0.0
H6159 H 0.09533 0.4582 0.3271 0.0
H6160 H 0.16959 0.48407 0.34714 0.0
H6161 H 0.15197 0.47599 0.32464 0.0
C6162 C 0.4467 0.60355 0.7874 0.0
C6163 C 0.46014 0.60751 0.79754 0.0
C6164 C 0.43322 0.59507 0.79361 0.0
C6165 C 0.41647 0.5694 0.82633 0.0
H6166 H 0.37675 0.59456 0.81783 0.0
C6167 C 0.35283 0.56019 0.85852 0.0
C6168 C 0.33874 0.56373 0.84912 0.0
C6169 C 0.36857 0.56188 0.8517 0.0
C6170 C 0.38763 0.58717 0.82007 0.0
H6171 H 0.47047 0.60419 0.82184 0.0
H6172 H 0.4466 0.58933 0.83279 0.0
H6173 H 0.4029 0.60425 0.80735 0.0
H6174 H 0.32993 0.56997 0.82488 0.0
H6175 H 0.35732 0.5726 0.81285 0.0
H6176 H 0.40094 0.55229 0.83918 0.0
C6177 C 0.44663 0.59303 0.82003 0.0
C6178 C 0.40264 0.5928 0.81414 0.0
C6179 C 0.46022 0.60166 0.81379 0.0
C6180 C 0.34061 0.56756 0.83247 0.0
C6181 C 0.35627 0.56907 0.82562 0.0
C6182 C 0.40129 0.56365 0.83225 0.0
C6183 C 0.4328 0.5902 0.81009 0.0
C6184 C 0.41718 0.58394 0.81705 0.0
C6185 C 0.37042 0.56705 0.83536 0.0
C6186 C 0.38669 0.57244 0.82901 0.0
H6187 H 0.44626 0.60745 0.77471 0.0
H6188 H 0.42281 0.59281 0.78562 0.0
H6189 H 0.42756 0.56238 0.82873 0.0
H6190 H 0.35172 0.55714 0.87142 0.0
H6191 H 0.37922 0.5602 0.85951 0.0
C6192 C 0.91759 0.70535 0.60823 0.0
C6193 C 0.92612 0.72005 0.60513 0.0
C6194 C 0.92457 0.69335 0.61813 0.0
C6195 C 0.96 0.67855 0.64031 0.0
H6196 H 0.9336 0.68543 0.67957 0.0
C6197 C 0.98712 0.6673 0.7032 0.0
C6198 C 0.97714 0.66049 0.71548 0.0
C6199 C 0.98022 0.67276 0.68866 0.0
C6200 C 0.94092 0.68298 0.6687 0.0
H6201 H 0.9492 0.73302 0.60813 0.0
H6202 H 0.96146 0.71189 0.6257 0.0
H6203 H 0.92358 0.69518 0.65326 0.0
H6204 H 0.9522 0.65427 0.72254 0.0
H6205 H 0.94005 0.66325 0.69672 0.0
H6206 H 0.97735 0.66628 0.65565 0.0
C6207 C 0.94943 0.70973 0.62039 0.0
C6208 C 0.93517 0.68854 0.65367 0.0
C6209 C 0.94237 0.72185 0.6106 0.0
C6210 C 0.96005 0.65981 0.71333 0.0
C6211 C 0.95315 0.66486 0.69851 0.0
C6212 C 0.96559 0.67259 0.65531 0.0
C6213 C 0.94017 0.6959 0.62489 0.0
C6214 C 0.9449 0.68678 0.63954 0.0
C6215 C 0.96327 0.67097 0.68588 0.0
C6216 C 0.95638 0.67532 0.66974 0.0
H6217 H 0.905 0.70371 0.60418 0.0
H6218 H 0.91728 0.68276 0.62163 0.0
H6219 H 0.96762 0.67718 0.62946 0.0
H6220 H 1.00039 0.66776 0.70453 0.0
H6221 H 0.98829 0.67795 0.67943 0.0
C6222 C 0.09878 0.21272 0.46362 0.0
C6223 C 0.10463 0.229 0.46376 0.0
C6224 C 0.0907 0.20646 0.44975 0.0
C6225 C 0.09038 0.21369 0.40542 0.0
H6226 H 0.05368 0.18328 0.40398 0.0
C6227 C 0.0667 0.19211 0.34358 0.0
C6228 C 0.06424 0.17514 0.34172 0.0
C6229 C 0.06805 0.19908 0.35918 0.0
C6230 C 0.06398 0.19171 0.40422 0.0
H6231 H 0.10527 0.2519 0.45013 0.0
H6232 H 0.09101 0.24116 0.42624 0.0
H6233 H 0.06266 0.19469 0.43044 0.0
H6234 H 0.06009 0.15226 0.3547 0.0
H6235 H 0.06292 0.16439 0.38211 0.0
H6236 H 0.09219 0.21053 0.37954 0.0
C6237 C 0.09307 0.23303 0.43656 0.0
C6238 C 0.06911 0.19823 0.41935 0.0
C6239 C 0.10123 0.2392 0.45028 0.0
C6240 C 0.06205 0.1654 0.35581 0.0
C6241 C 0.06362 0.17236 0.3715 0.0
C6242 C 0.08533 0.20719 0.39044 0.0
C6243 C 0.08826 0.21644 0.43585 0.0
C6244 C 0.08232 0.2094 0.42007 0.0
C6245 C 0.06727 0.18919 0.37333 0.0
C6246 C 0.07202 0.1962 0.38956 0.0
H6247 H 0.10122 0.20458 0.47382 0.0
H6248 H 0.08717 0.19362 0.44957 0.0
H6249 H 0.10089 0.22187 0.40555 0.0
H6250 H 0.06809 0.19994 0.33292 0.0
H6251 H 0.07034 0.21217 0.36014 0.0
C6252 C 0.56867 0.36163 0.21201 0.0
C6253 C 0.55207 0.35802 0.21525 0.0
C6254 C 0.57616 0.3554 0.19779 0.0
C6255 C 0.57391 0.32262 0.16851 0.0
H6256 H 0.57845 0.35355 0.13251 0.0
C6257 C 0.57874 0.29564 0.1077 0.0
C6258 C 0.59477 0.29859 0.1021 0.0
C6259 C 0.57114 0.30703 0.118 0.0
C6260 C 0.57713 0.34487 0.1425 0.0
H6261 H 0.53056 0.34499 0.20649 0.0
H6262 H 0.54373 0.33334 0.18281 0.0
H6263 H 0.57477 0.36386 0.16073 0.0
H6264 H 0.61434 0.31667 0.10028 0.0
H6265 H 0.60131 0.33622 0.11872 0.0
H6266 H 0.57577 0.30363 0.15064 0.0
C6267 C 0.55094 0.34098 0.19101 0.0
C6268 C 0.57545 0.35071 0.15854 0.0
C6269 C 0.54346 0.34746 0.20477 0.0
C6270 C 0.60201 0.31407 0.10466 0.0
C6271 C 0.5945 0.32535 0.11511 0.0
C6272 C 0.57546 0.31682 0.15261 0.0
C6273 C 0.56713 0.34521 0.18723 0.0
C6274 C 0.57357 0.33955 0.17152 0.0
C6275 C 0.57981 0.32111 0.12304 0.0
C6276 C 0.57671 0.32787 0.13944 0.0
H6277 H 0.57546 0.36998 0.21984 0.0
H6278 H 0.58872 0.35878 0.19486 0.0
H6279 H 0.57221 0.3139 0.17841 0.0
H6280 H 0.5728 0.28392 0.10544 0.0
H6281 H 0.55954 0.3038 0.12374 0.0
C6282 C 0.41895 0.81671 0.96519 0.0
C6283 C 0.41787 0.79996 0.96888 0.0
C6284 C 0.4251 0.82157 0.94996 0.0
C6285 C 0.42935 0.80426 0.90816 0.0
H6286 H 0.45143 0.8456 0.89988 0.0
C6287 C 0.46947 0.83652 0.85802 0.0
C6288 C 0.46275 0.85211 0.85503 0.0
C6289 C 0.46029 0.825 0.86672 0.0
C6290 C 0.44514 0.83406 0.90212 0.0
H6291 H 0.42258 0.77519 0.96022 0.0
H6292 H 0.43505 0.78365 0.93457 0.0
H6293 H 0.44634 0.83721 0.92803 0.0
H6294 H 0.4408 0.8672 0.85575 0.0
H6295 H 0.42477 0.84709 0.87119 0.0
H6296 H 0.42892 0.80103 0.88195 0.0
C6297 C 0.43069 0.79305 0.94296 0.0
C6298 C 0.44222 0.82929 0.91818 0.0
C6299 C 0.42406 0.78822 0.95787 0.0
C6300 C 0.44608 0.85518 0.85815 0.0
C6301 C 0.43689 0.84363 0.86675 0.0
C6302 C 0.43255 0.80896 0.89201 0.0
C6303 C 0.43042 0.80968 0.93846 0.0
C6304 C 0.43423 0.81438 0.9214 0.0
C6305 C 0.44459 0.82931 0.87252 0.0
C6306 C 0.4403 0.82396 0.88902 0.0
H6307 H 0.41365 0.82585 0.97335 0.0
H6308 H 0.42456 0.8345 0.9468 0.0
H6309 H 0.42285 0.79283 0.91023 0.0
H6310 H 0.48237 0.83406 0.85557 0.0
H6311 H 0.46638 0.814 0.87116 0.0
C6312 C 0.93074 0.32149 0.9157 0.0
C6313 C 0.9255 0.30523 0.9175 0.0
C6314 C 0.94528 0.3247 0.90725 0.0
C6315 C 0.95371 0.30942 0.87024 0.0
H6316 H 0.98777 0.3425 0.86695 0.0
C6317 C 0.97065 0.34061 0.80882 0.0
C6318 C 0.97459 0.35729 0.81022 0.0
C6319 C 0.96844 0.33128 0.82304 0.0
C6320 C 0.97823 0.33324 0.8677 0.0
H6321 H 0.93186 0.27952 0.91444 0.0
H6322 H 0.95692 0.28518 0.89876 0.0
H6323 H 0.98102 0.33084 0.89377 0.0
H6324 H 0.97832 0.37767 0.82698 0.0
H6325 H 0.97314 0.36194 0.85148 0.0
H6326 H 0.94927 0.31319 0.84479 0.0
C6327 C 0.9502 0.29537 0.9042 0.0
C6328 C 0.97467 0.32639 0.88296 0.0
C6329 C 0.9358 0.29216 0.91289 0.0
C6330 C 0.97501 0.36484 0.82568 0.0
C6331 C 0.97254 0.3557 0.83973 0.0
C6332 C 0.95692 0.31656 0.85513 0.0
C6333 C 0.95417 0.31164 0.90015 0.0
C6334 C 0.96202 0.31484 0.88434 0.0
C6335 C 0.96998 0.33869 0.83863 0.0
C6336 C 0.96873 0.32901 0.85384 0.0
H6337 H 0.92291 0.33163 0.91949 0.0
H6338 H 0.94816 0.33735 0.90421 0.0
H6339 H 0.94357 0.30082 0.87116 0.0
H6340 H 0.97055 0.3346 0.79694 0.0
H6341 H 0.96633 0.31818 0.82184 0.0
C6342 C 0.45878 0.16927 0.66809 0.0
C6343 C 0.47453 0.17611 0.67009 0.0
C6344 C 0.44714 0.17725 0.65847 0.0
C6345 C 0.43697 0.21343 0.63397 0.0
H6346 H 0.43587 0.18249 0.5976 0.0
C6347 C 0.42429 0.2358 0.56912 0.0
C6348 C 0.41503 0.22584 0.55863 0.0
C6349 C 0.43027 0.22957 0.58381 0.0
C6350 C 0.43566 0.1912 0.60766 0.0
H6351 H 0.4897 0.19758 0.66582 0.0
H6352 H 0.46929 0.21152 0.64874 0.0
H6353 H 0.44538 0.17342 0.62429 0.0
H6354 H 0.40431 0.20178 0.55506 0.0
H6355 H 0.41403 0.19092 0.58123 0.0
H6356 H 0.42743 0.23128 0.61744 0.0
C6357 C 0.46602 0.2 0.65456 0.0
C6358 C 0.44107 0.18598 0.62297 0.0
C6359 C 0.47774 0.19196 0.66411 0.0
C6360 C 0.41198 0.20944 0.5628 0.0
C6361 C 0.41746 0.20331 0.57783 0.0
C6362 C 0.43126 0.2186 0.61871 0.0
C6363 C 0.45112 0.19214 0.65082 0.0
C6364 C 0.44213 0.19715 0.63609 0.0
C6365 C 0.42631 0.21349 0.58869 0.0
C6366 C 0.43099 0.20765 0.60525 0.0
H6367 H 0.45597 0.15707 0.67263 0.0
H6368 H 0.43565 0.17108 0.65574 0.0
H6369 H 0.43781 0.22221 0.64396 0.0
H6370 H 0.42611 0.24869 0.56646 0.0
H6371 H 0.43743 0.23763 0.59162 0.0
C6372 C 0.59901 0.72199 0.41209 0.0
C6373 C 0.60814 0.70862 0.41823 0.0
C6374 C 0.58667 0.71943 0.40057 0.0
C6375 C 0.56023 0.68938 0.38088 0.0
H6376 H 0.5764 0.70674 0.33952 0.0
C6377 C 0.55209 0.65405 0.32244 0.0
C6378 C 0.54805 0.66206 0.30778 0.0
C6379 C 0.55612 0.66304 0.33631 0.0
C6380 C 0.57137 0.70219 0.35096 0.0
H6381 H 0.61098 0.68213 0.41809 0.0
H6382 H 0.5892 0.67758 0.3978 0.0
H6383 H 0.58779 0.71686 0.36529 0.0
H6384 H 0.54629 0.68565 0.29557 0.0
H6385 H 0.55337 0.70168 0.3202 0.0
H6386 H 0.54422 0.67432 0.36664 0.0
C6387 C 0.59163 0.69 0.40201 0.0
C6388 C 0.57788 0.70796 0.36568 0.0
C6389 C 0.60416 0.69258 0.41338 0.0
C6390 C 0.54924 0.67926 0.30684 0.0
C6391 C 0.55316 0.68837 0.3209 0.0
C6392 C 0.55351 0.68382 0.3662 0.0
C6393 C 0.58319 0.70347 0.39519 0.0
C6394 C 0.57297 0.70092 0.38062 0.0
C6395 C 0.55608 0.6803 0.33588 0.0
C6396 C 0.55978 0.68943 0.35109 0.0
H6397 H 0.60194 0.73451 0.41561 0.0
H6398 H 0.58034 0.72993 0.39534 0.0
H6399 H 0.5562 0.68396 0.39235 0.0
H6400 H 0.55157 0.64077 0.32335 0.0
H6401 H 0.55903 0.65644 0.34747 0.0
C6402 C 0.11818 0.80005 0.07585 0.0
C6403 C 0.11083 0.79801 0.06042 0.0
C6404 C 0.10864 0.8036 0.08951 0.0
C6405 C 0.06885 0.81971 0.1027 0.0
H6406 H 0.08305 0.80079 0.1441 0.0
C6407 C 0.04156 0.84383 0.16031 0.0
C6408 C 0.0537 0.85488 0.16552 0.0
C6409 C 0.04602 0.8301 0.15106 0.0
C6410 C 0.07871 0.80576 0.13256 0.0
H6411 H 0.08797 0.79913 0.0468 0.0
H6412 H 0.071 0.80526 0.07098 0.0
H6413 H 0.09534 0.79109 0.11837 0.0
H6414 H 0.07981 0.8596 0.16744 0.0
H6415 H 0.08773 0.83538 0.15128 0.0
H6416 H 0.05256 0.83466 0.11693 0.0
C6417 C 0.08419 0.80401 0.07245 0.0
C6418 C 0.08584 0.80046 0.11791 0.0
C6419 C 0.09386 0.80061 0.05863 0.0
C6420 C 0.07037 0.85117 0.16328 0.0
C6421 C 0.07485 0.83727 0.15429 0.0
C6422 C 0.06147 0.82471 0.11728 0.0
C6423 C 0.09149 0.80501 0.08808 0.0
C6424 C 0.08156 0.80802 0.10295 0.0
C6425 C 0.06262 0.82735 0.14722 0.0
C6426 C 0.06684 0.81825 0.13231 0.0
H6427 H 0.13131 0.79839 0.07747 0.0
H6428 H 0.11472 0.80503 0.10124 0.0
H6429 H 0.06542 0.82588 0.09144 0.0
H6430 H 0.02862 0.84658 0.16214 0.0
H6431 H 0.03648 0.8226 0.14557 0.0
C6432 C 0.71111 0.95495 0.66917 0.0
C6433 C 0.71296 0.97209 0.66982 0.0
C6434 C 0.69845 0.94731 0.67794 0.0
C6435 C 0.66502 0.95511 0.70903 0.0
H6436 H 0.64201 0.9223 0.68323 0.0
C6437 C 0.59491 0.94086 0.70973 0.0
C6438 C 0.59046 0.92417 0.71027 0.0
C6439 C 0.61151 0.94538 0.70913 0.0
C6440 C 0.64845 0.93125 0.6907 0.0
H6441 H 0.70437 0.99446 0.68159 0.0
H6442 H 0.68177 0.98145 0.69604 0.0
H6443 H 0.66858 0.93229 0.67394 0.0
H6444 H 0.59987 0.89917 0.71133 0.0
H6445 H 0.62884 0.90712 0.70983 0.0
H6446 H 0.64399 0.95478 0.72509 0.0
C6447 C 0.69 0.97374 0.68892 0.0
C6448 C 0.66376 0.93694 0.68545 0.0
C6449 C 0.70277 0.9813 0.68033 0.0
C6450 C 0.60292 0.91214 0.71096 0.0
C6451 C 0.61948 0.91665 0.71008 0.0
C6452 C 0.64949 0.94963 0.7141 0.0
C6453 C 0.68734 0.9567 0.68744 0.0
C6454 C 0.67214 0.94916 0.69437 0.0
C6455 C 0.62388 0.93327 0.70878 0.0
C6456 C 0.64102 0.93783 0.70482 0.0
H6457 H 0.71898 0.94752 0.66134 0.0
H6458 H 0.69707 0.9341 0.67685 0.0
H6459 H 0.67124 0.96428 0.71639 0.0
H6460 H 0.58555 0.95037 0.70937 0.0
H6461 H 0.61466 0.95828 0.70802 0.0
C6462 C 0.85678 0.85354 0.46902 0.0
C6463 C 0.84791 0.84131 0.46052 0.0
C6464 C 0.85161 0.86996 0.46867 0.0
C6465 C 0.84495 0.90017 0.44566 0.0
H6466 H 0.80403 0.92109 0.459 0.0
C6467 C 0.8122 0.94927 0.4085 0.0
C6468 C 0.80687 0.96383 0.41618 0.0
C6469 C 0.81887 0.93648 0.41764 0.0
C6470 C 0.81565 0.91551 0.45549 0.0
H6471 H 0.82584 0.83665 0.44631 0.0
H6472 H 0.81693 0.86543 0.44566 0.0
H6473 H 0.81108 0.89354 0.4695 0.0
H6474 H 0.80471 0.97663 0.43944 0.0
H6475 H 0.81615 0.95371 0.45573 0.0
H6476 H 0.84897 0.92137 0.43062 0.0
C6477 C 0.82786 0.86217 0.45256 0.0
C6478 C 0.8196 0.89978 0.4614 0.0
C6479 C 0.83308 0.84576 0.45277 0.0
C6480 C 0.80881 0.96554 0.43324 0.0
C6481 C 0.81522 0.95246 0.44252 0.0
C6482 C 0.84087 0.91566 0.43953 0.0
C6483 C 0.83739 0.87445 0.46003 0.0
C6484 C 0.83414 0.89191 0.45623 0.0
C6485 C 0.82018 0.93779 0.43474 0.0
C6486 C 0.82601 0.9233 0.44406 0.0
H6487 H 0.86831 0.85066 0.47502 0.0
H6488 H 0.85918 0.87929 0.47442 0.0
H6489 H 0.85613 0.89422 0.44138 0.0
H6490 H 0.81086 0.9476 0.39539 0.0
H6491 H 0.82246 0.92525 0.41137 0.0
C6492 C 0.81835 0.03732 0.17343 0.0
C6493 C 0.80607 0.04843 0.16865 0.0
C6494 C 0.83294 0.04303 0.18005 0.0
C6495 C 0.85411 0.07975 0.19571 0.0
H6496 H 0.89275 0.05662 0.17914 0.0
C6497 C 0.91548 0.1055 0.20781 0.0
C6498 C 0.91907 0.09814 0.22296 0.0
C6499 C 0.90567 0.09724 0.19656 0.0
C6500 C 0.88202 0.06321 0.1836 0.0
H6501 H 0.79873 0.07398 0.16745 0.0
H6502 H 0.8247 0.08426 0.17858 0.0
H6503 H 0.86523 0.04747 0.17105 0.0
H6504 H 0.91784 0.0758 0.23732 0.0
H6505 H 0.90061 0.06124 0.21745 0.0
H6506 H 0.871 0.09558 0.20805 0.0
C6507 C 0.82288 0.07109 0.17767 0.0
C6508 C 0.86632 0.05791 0.17925 0.0
C6509 C 0.80802 0.06529 0.1714 0.0
C6510 C 0.91494 0.08166 0.22574 0.0
C6511 C 0.90534 0.07331 0.21434 0.0
C6512 C 0.86975 0.08519 0.19977 0.0
C6513 C 0.83569 0.05999 0.18139 0.0
C6514 C 0.85224 0.06597 0.18553 0.0
C6515 C 0.89963 0.0816 0.2004 0.0
C6516 C 0.8837 0.07684 0.19388 0.0
H6517 H 0.81698 0.02421 0.17128 0.0
H6518 H 0.84236 0.03418 0.18336 0.0
H6519 H 0.84353 0.08605 0.20088 0.0
H6520 H 0.91861 0.11824 0.20549 0.0
H6521 H 0.90116 0.1038 0.1859 0.0
C6522 C 0.6672 0.16789 0.96296 0.0
C6523 C 0.67661 0.18218 0.96068 0.0
C6524 C 0.67453 0.15237 0.96165 0.0
C6525 C 0.7103 0.13374 0.94064 0.0
H6526 H 0.6926 0.09344 0.95891 0.0
C6527 C 0.73353 0.06894 0.92236 0.0
C6528 C 0.72113 0.05905 0.9156 0.0
C6529 C 0.72956 0.08347 0.93067 0.0
C6530 C 0.69767 0.10465 0.95381 0.0
H6531 H 0.70123 0.19162 0.95704 0.0
H6532 H 0.71424 0.16457 0.95542 0.0
H6533 H 0.68394 0.12001 0.97027 0.0
H6534 H 0.69472 0.05607 0.91318 0.0
H6535 H 0.68775 0.08147 0.92788 0.0
H6536 H 0.72404 0.1183 0.92424 0.0
C6537 C 0.70108 0.16524 0.95749 0.0
C6538 C 0.6927 0.11985 0.96023 0.0
C6539 C 0.69368 0.18074 0.9585 0.0
C6540 C 0.70459 0.06363 0.91796 0.0
C6541 C 0.70059 0.07804 0.92649 0.0
C6542 C 0.71547 0.11857 0.93446 0.0
C6543 C 0.69148 0.15085 0.95823 0.0
C6544 C 0.69861 0.13463 0.95342 0.0
C6545 C 0.71307 0.08812 0.9328 0.0
C6546 C 0.70889 0.10394 0.9407 0.0
H6547 H 0.65398 0.16868 0.96467 0.0
H6548 H 0.66667 0.14164 0.96223 0.0
H6549 H 0.7149 0.14476 0.93479 0.0
H6550 H 0.74635 0.0659 0.92096 0.0
H6551 H 0.73939 0.09109 0.93544 0.0
C6552 C 0.58963 0.08255 0.82503 0.0
C6553 C 0.58747 0.09756 0.81676 0.0
C6554 C 0.60522 0.07546 0.82626 0.0
C6555 C 0.64767 0.07301 0.81311 0.0
H6556 H 0.65746 0.07537 0.85968 0.0
C6557 C 0.70066 0.04058 0.84944 0.0
C6558 C 0.70918 0.05066 0.86058 0.0
C6559 C 0.68767 0.04698 0.8402 0.0
C6560 C 0.65494 0.07476 0.84664 0.0
H6561 H 0.59974 0.11593 0.80176 0.0
H6562 H 0.62702 0.10325 0.80376 0.0
H6563 H 0.63026 0.08332 0.8499 0.0
H6564 H 0.71145 0.07543 0.87021 0.0
H6565 H 0.68841 0.08649 0.8544 0.0
H6566 H 0.67243 0.06388 0.81009 0.0
C6567 C 0.61657 0.09714 0.80935 0.0
C6568 C 0.63938 0.07915 0.84108 0.0
C6569 C 0.60095 0.10437 0.80824 0.0
C6570 C 0.70512 0.06742 0.86168 0.0
C6571 C 0.69198 0.07374 0.85266 0.0
C6572 C 0.66328 0.06824 0.81877 0.0
C6573 C 0.6189 0.0831 0.81906 0.0
C6574 C 0.63557 0.07825 0.82432 0.0
C6575 C 0.68289 0.06346 0.84219 0.0
C6576 C 0.66698 0.06917 0.8356 0.0
H6577 H 0.57943 0.07676 0.83133 0.0
H6578 H 0.60678 0.06454 0.8337 0.0
H6579 H 0.64495 0.07233 0.80012 0.0
H6580 H 0.70372 0.02765 0.84822 0.0
H6581 H 0.68074 0.03881 0.83229 0.0
C6582 C 0.70572 0.96215 0.6085 0.0
C6583 C 0.72286 0.963 0.61019 0.0
C6584 C 0.69852 0.949 0.60006 0.0
C6585 C 0.70733 0.91404 0.57177 0.0
H6586 H 0.6721 0.89263 0.59573 0.0
C6587 C 0.69068 0.84509 0.56622 0.0
C6588 C 0.674 0.84063 0.56709 0.0
C6589 C 0.69536 0.86158 0.56775 0.0
C6590 C 0.68169 0.89861 0.58869 0.0
H6591 H 0.74604 0.9514 0.6039 0.0
H6592 H 0.73358 0.9284 0.58914 0.0
H6593 H 0.68265 0.91893 0.60536 0.0
H6594 H 0.64908 0.84998 0.56945 0.0
H6595 H 0.65728 0.87878 0.57239 0.0
H6596 H 0.70676 0.89324 0.55548 0.0
C6597 C 0.72562 0.93786 0.5942 0.0
C6598 C 0.68774 0.91371 0.5942 0.0
C6599 C 0.73276 0.95092 0.60277 0.0
C6600 C 0.66204 0.85306 0.56874 0.0
C6601 C 0.66673 0.86952 0.5705 0.0
C6602 C 0.7013 0.89886 0.56627 0.0
C6603 C 0.70839 0.93653 0.59308 0.0
C6604 C 0.70082 0.92147 0.58599 0.0
C6605 C 0.68346 0.8739 0.57043 0.0
C6606 C 0.68861 0.89087 0.57486 0.0
H6607 H 0.69787 0.97115 0.61441 0.0
H6608 H 0.68522 0.94838 0.59934 0.0
H6609 H 0.71728 0.91981 0.56506 0.0
H6610 H 0.70013 0.83576 0.56474 0.0
H6611 H 0.70836 0.86457 0.56769 0.0
C6612 C 0.81758 0.95987 0.35671 0.0
C6613 C 0.81267 0.97636 0.35558 0.0
C6614 C 0.83026 0.95384 0.34678 0.0
C6615 C 0.8661 0.96958 0.32336 0.0
H6616 H 0.87352 0.92282 0.31754 0.0
C6617 C 0.93062 0.94248 0.32463 0.0
C6618 C 0.93417 0.92721 0.31731 0.0
C6619 C 0.9148 0.94913 0.32391 0.0
C6620 C 0.87162 0.93597 0.31865 0.0
H6621 H 0.81594 0.99912 0.34226 0.0
H6622 H 0.83728 0.98839 0.32408 0.0
H6623 H 0.8463 0.93266 0.32495 0.0
H6624 H 0.92384 0.90743 0.30258 0.0
H6625 H 0.89649 0.9195 0.30059 0.0
H6626 H 0.89125 0.97294 0.31653 0.0
C6627 C 0.83207 0.98025 0.33321 0.0
C6628 C 0.856 0.94162 0.32324 0.0
C6629 C 0.81973 0.9864 0.34351 0.0
C6630 C 0.92167 0.91927 0.30833 0.0
C6631 C 0.90585 0.92608 0.30738 0.0
C6632 C 0.88158 0.96398 0.31837 0.0
C6633 C 0.83799 0.96406 0.33513 0.0
C6634 C 0.85326 0.95842 0.32655 0.0
C6635 C 0.90209 0.9409 0.31555 0.0
C6636 C 0.88481 0.94703 0.31687 0.0
H6637 H 0.81226 0.95185 0.36589 0.0
H6638 H 0.83452 0.9414 0.34894 0.0
H6639 H 0.86465 0.98262 0.32571 0.0
H6640 H 0.93997 0.94915 0.33133 0.0
H6641 H 0.91245 0.96042 0.3306 0.0
C6642 C 0.8578 0.16786 0.06177 0.0
C6643 C 0.8606 0.17824 0.07533 0.0
C6644 C 0.84849 0.15354 0.06356 0.0
C6645 C 0.83864 0.12428 0.09575 0.0
H6646 H 0.80698 0.1059 0.06525 0.0
C6647 C 0.81297 0.06138 0.10843 0.0
C6648 C 0.7957 0.06096 0.10908 0.0
C6649 C 0.82097 0.0741 0.10026 0.0
C6650 C 0.81585 0.11092 0.07381 0.0
H6651 H 0.85492 0.18262 0.10091 0.0
H6652 H 0.83844 0.15773 0.10404 0.0
H6653 H 0.81941 0.13288 0.05959 0.0
H6654 H 0.77336 0.07206 0.09967 0.0
H6655 H 0.78731 0.09489 0.08618 0.0
H6656 H 0.83495 0.10286 0.11022 0.0
C6657 C 0.84382 0.16039 0.09217 0.0
C6658 C 0.82296 0.12627 0.07057 0.0
C6659 C 0.85326 0.17457 0.09043 0.0
C6660 C 0.78664 0.07257 0.10008 0.0
C6661 C 0.79465 0.08543 0.09203 0.0
C6662 C 0.83164 0.10906 0.09894 0.0
C6663 C 0.84181 0.14946 0.07891 0.0
C6664 C 0.83424 0.13317 0.0817 0.0
C6665 C 0.81187 0.08672 0.09274 0.0
C6666 C 0.82012 0.10223 0.0881 0.0
H6667 H 0.8633 0.17053 0.04995 0.0
H6668 H 0.84718 0.14532 0.05316 0.0
H6669 H 0.84754 0.1291 0.10438 0.0
H6670 H 0.82033 0.05241 0.11496 0.0
H6671 H 0.8343 0.07457 0.10063 0.0
C6672 C 0.67763 0.70284 0.9876 0.0
C6673 C 0.66592 0.71165 0.97855 0.0
C6674 C 0.68395 0.68818 0.98142 0.0
C6675 C 0.68712 0.66242 0.94453 0.0
H6676 H 0.68582 0.62666 0.97611 0.0
C6677 C 0.7055 0.60171 0.92251 0.0
C6678 C 0.72158 0.60014 0.92859 0.0
C6679 C 0.69388 0.61067 0.93133 0.0
C6680 C 0.68588 0.63653 0.96719 0.0
H6681 H 0.6531 0.71352 0.95532 0.0
H6682 H 0.66418 0.68791 0.94444 0.0
H6683 H 0.67815 0.65455 0.98473 0.0
H6684 H 0.73751 0.60388 0.94951 0.0
H6685 H 0.71713 0.6197 0.96501 0.0
H6686 H 0.69505 0.64453 0.92707 0.0
C6687 C 0.66833 0.69211 0.95635 0.0
C6688 C 0.68184 0.65245 0.97212 0.0
C6689 C 0.66203 0.70677 0.96254 0.0
C6690 C 0.72521 0.60529 0.94458 0.0
C6691 C 0.7135 0.6141 0.95349 0.0
C6692 C 0.69091 0.64652 0.93958 0.0
C6693 C 0.67866 0.68233 0.96611 0.0
C6694 C 0.68277 0.66554 0.96088 0.0
C6695 C 0.69837 0.61804 0.94621 0.0
C6696 C 0.69057 0.63355 0.95093 0.0
H6697 H 0.68109 0.70674 0.99983 0.0
H6698 H 0.69235 0.68106 0.98891 0.0
H6699 H 0.68808 0.67232 0.9357 0.0
H6700 H 0.70246 0.59772 0.91018 0.0
H6701 H 0.68221 0.61363 0.92559 0.0
C6702 C 0.2082 0.91948 0.11364 0.0
C6703 C 0.2095 0.93187 0.10169 0.0
C6704 C 0.20632 0.90302 0.10898 0.0
C6705 C 0.2112 0.8734 0.07522 0.0
H6706 H 0.17095 0.85383 0.09179 0.0
C6707 C 0.17724 0.82177 0.04139 0.0
C6708 C 0.16804 0.81017 0.05024 0.0
C6709 C 0.18533 0.83456 0.04943 0.0
C6710 C 0.18245 0.85887 0.08733 0.0
H6711 H 0.21093 0.93671 0.07561 0.0
H6712 H 0.20793 0.90784 0.06744 0.0
H6713 H 0.18018 0.88018 0.10269 0.0
H6714 H 0.16113 0.80216 0.07464 0.0
H6715 H 0.17534 0.82456 0.08882 0.0
H6716 H 0.21341 0.85221 0.05971 0.0
C6717 C 0.2082 0.9109 0.08039 0.0
C6718 C 0.1877 0.87401 0.09354 0.0
C6719 C 0.20978 0.9274 0.08503 0.0
C6720 C 0.16794 0.81105 0.06746 0.0
C6721 C 0.17601 0.82393 0.07556 0.0
C6722 C 0.20607 0.85814 0.06914 0.0
C6723 C 0.20602 0.89862 0.09231 0.0
C6724 C 0.20189 0.8816 0.08726 0.0
C6725 C 0.18451 0.83605 0.06659 0.0
C6726 C 0.19138 0.85091 0.07479 0.0
H6727 H 0.20794 0.9226 0.12657 0.0
H6728 H 0.20474 0.89375 0.11839 0.0
H6729 H 0.22228 0.87894 0.07031 0.0
H6730 H 0.17791 0.82125 0.02817 0.0
H6731 H 0.19162 0.84368 0.04207 0.0
C6732 C 0.842 0.44645 0.83387 0.0
C6733 C 0.83968 0.45527 0.84858 0.0
C6734 C 0.85771 0.44451 0.82715 0.0
C6735 C 0.90018 0.45834 0.82517 0.0
H6736 H 0.91072 0.41171 0.82395 0.0
C6737 C 0.95426 0.42594 0.79025 0.0
C6738 C 0.96334 0.41429 0.79924 0.0
C6739 C 0.94082 0.43408 0.79732 0.0
C6740 C 0.90799 0.42477 0.82435 0.0
H6741 H 0.85208 0.47027 0.86688 0.0
H6742 H 0.8795 0.46723 0.85473 0.0
H6743 H 0.88331 0.42066 0.83257 0.0
H6744 H 0.96607 0.40282 0.823 0.0
H6745 H 0.942 0.41642 0.83518 0.0
H6746 H 0.92486 0.46228 0.81631 0.0
C6747 C 0.86906 0.46165 0.84863 0.0
C6748 C 0.89229 0.42987 0.82912 0.0
C6749 C 0.85332 0.4634 0.85554 0.0
C6750 C 0.95927 0.41162 0.81575 0.0
C6751 C 0.94553 0.41941 0.82271 0.0
C6752 C 0.91587 0.45317 0.82 0.0
C6753 C 0.87144 0.4516 0.83479 0.0
C6754 C 0.88821 0.44667 0.82956 0.0
C6755 C 0.93598 0.43042 0.81342 0.0
C6756 C 0.91989 0.43632 0.81965 0.0
H6757 H 0.83175 0.44045 0.82787 0.0
H6758 H 0.85923 0.4369 0.81632 0.0
H6759 H 0.89729 0.47136 0.82544 0.0
H6760 H 0.9571 0.42827 0.77751 0.0
H6761 H 0.9336 0.44243 0.78987 0.0
C6762 C 0.34826 0.20438 0.54205 0.0
C6763 C 0.35972 0.21423 0.55026 0.0
C6764 C 0.34322 0.1896 0.54884 0.0
C6765 C 0.34188 0.16503 0.58617 0.0
H6766 H 0.34116 0.12887 0.55486 0.0
C6767 C 0.31874 0.10457 0.60719 0.0
C6768 C 0.30329 0.10268 0.59972 0.0
C6769 C 0.33082 0.11397 0.59961 0.0
C6770 C 0.34164 0.13881 0.56373 0.0
H6771 H 0.37387 0.21741 0.57253 0.0
H6772 H 0.36498 0.19133 0.5846 0.0
H6773 H 0.35026 0.15612 0.54603 0.0
H6774 H 0.28909 0.10669 0.57762 0.0
H6775 H 0.31024 0.12333 0.56434 0.0
H6776 H 0.33276 0.14788 0.60372 0.0
C6777 C 0.35998 0.19502 0.57286 0.0
C6778 C 0.3466 0.15439 0.5587 0.0
C6779 C 0.36495 0.20994 0.56605 0.0
C6780 C 0.30084 0.10833 0.58367 0.0
C6781 C 0.313 0.11763 0.57603 0.0
C6782 C 0.33709 0.14944 0.59123 0.0
C6783 C 0.34967 0.18444 0.56391 0.0
C6784 C 0.34621 0.16771 0.56976 0.0
C6785 C 0.32752 0.12147 0.58452 0.0
C6786 C 0.33649 0.13637 0.57993 0.0
H6787 H 0.34403 0.20757 0.52991 0.0
H6788 H 0.33482 0.18189 0.54196 0.0
H6789 H 0.34137 0.17512 0.59487 0.0
H6790 H 0.32092 0.10026 0.61958 0.0
H6791 H 0.34201 0.11678 0.60627 0.0
C6792 C 0.06537 0.11492 0.81266 0.0
C6793 C 0.05948 0.10815 0.798 0.0
C6794 C 0.08062 0.10994 0.81877 0.0
C6795 C 0.1193 0.09046 0.80462 0.0
H6796 H 0.12625 0.08235 0.85092 0.0
C6797 C 0.16282 0.04365 0.83311 0.0
C6798 C 0.1695 0.04729 0.84856 0.0
C6799 C 0.15365 0.0555 0.82481 0.0
C6800 C 0.12464 0.085 0.838 0.0
H6801 H 0.06391 0.09025 0.77879 0.0
H6802 H 0.09012 0.08093 0.78982 0.0
H6803 H 0.09994 0.09316 0.8418 0.0
H6804 H 0.17345 0.0666 0.86662 0.0
H6805 H 0.15744 0.0872 0.85207 0.0
H6806 H 0.14374 0.08112 0.80083 0.0
C6807 C 0.08342 0.0905 0.79628 0.0
C6808 C 0.10955 0.09112 0.83278 0.0
C6809 C 0.06832 0.0956 0.79012 0.0
C6810 C 0.16841 0.06343 0.85473 0.0
C6811 C 0.15925 0.07523 0.84644 0.0
C6812 C 0.13437 0.08414 0.80984 0.0
C6813 C 0.08998 0.09804 0.81032 0.0
C6814 C 0.10657 0.09343 0.81601 0.0
C6815 C 0.15101 0.07103 0.83195 0.0
C6816 C 0.13695 0.08099 0.82653 0.0
H6817 H 0.05877 0.12481 0.81875 0.0
H6818 H 0.08538 0.11593 0.82965 0.0
H6819 H 0.11744 0.09255 0.79163 0.0
H6820 H 0.16383 0.03139 0.82796 0.0
H6821 H 0.14736 0.05199 0.81363 0.0
C6822 C 0.81716 0.42747 0.44246 0.0
C6823 C 0.81527 0.4316 0.42584 0.0
C6824 C 0.81797 0.41099 0.44725 0.0
C6825 C 0.83361 0.37262 0.43259 0.0
H6826 H 0.81077 0.35324 0.4696 0.0
C6827 C 0.85487 0.31058 0.45897 0.0
C6828 C 0.85575 0.3101 0.47617 0.0
C6829 C 0.8462 0.32321 0.45115 0.0
C6830 C 0.81733 0.35849 0.45929 0.0
H6831 H 0.8122 0.42171 0.40127 0.0
H6832 H 0.81397 0.39289 0.40968 0.0
H6833 H 0.80222 0.3802 0.45942 0.0
H6834 H 0.8471 0.32154 0.49863 0.0
H6835 H 0.83281 0.34386 0.48521 0.0
H6836 H 0.84953 0.35171 0.43309 0.0
C6837 C 0.81466 0.40244 0.41895 0.0
C6838 C 0.81234 0.37386 0.45343 0.0
C6839 C 0.8136 0.41891 0.41418 0.0
C6840 C 0.84709 0.32188 0.48537 0.0
C6841 C 0.83857 0.33454 0.47761 0.0
C6842 C 0.83881 0.35742 0.43863 0.0
C6843 C 0.81715 0.39836 0.43548 0.0
C6844 C 0.82068 0.38119 0.44026 0.0
C6845 C 0.83828 0.3356 0.46039 0.0
C6846 C 0.83103 0.35036 0.45235 0.0
H6847 H 0.81832 0.437 0.4517 0.0
H6848 H 0.82002 0.40811 0.46006 0.0
H6849 H 0.84032 0.37812 0.42249 0.0
H6850 H 0.86134 0.30155 0.45156 0.0
H6851 H 0.846 0.32345 0.43786 0.0
C6852 C 0.96196 0.61478 0.70614 0.0
C6853 C 0.96631 0.60818 0.72145 0.0
C6854 C 0.94641 0.61144 0.69952 0.0
C6855 C 0.9054 0.59924 0.71446 0.0
H6856 H 0.89718 0.58427 0.67012 0.0
C6857 C 0.86122 0.54975 0.69411 0.0
C6858 C 0.85413 0.55115 0.6785 0.0
C6859 C 0.87039 0.56274 0.70047 0.0
C6860 C 0.89918 0.58894 0.68242 0.0
H6861 H 0.95828 0.59225 0.74118 0.0
H6862 H 0.9323 0.58539 0.7292 0.0
H6863 H 0.92446 0.59435 0.67735 0.0
H6864 H 0.84933 0.5678 0.65818 0.0
H6865 H 0.86536 0.59031 0.66934 0.0
H6866 H 0.88053 0.59236 0.71987 0.0
C6867 C 0.94042 0.5936 0.72255 0.0
C6868 C 0.91479 0.59465 0.68653 0.0
C6869 C 0.95565 0.5971 0.72919 0.0
C6870 C 0.85466 0.56634 0.67026 0.0
C6871 C 0.86383 0.57926 0.67659 0.0
C6872 C 0.88987 0.59334 0.71041 0.0
C6873 C 0.9353 0.6014 0.70816 0.0
C6874 C 0.91819 0.59908 0.70277 0.0
C6875 C 0.87259 0.57713 0.69119 0.0
C6876 C 0.88689 0.58755 0.69453 0.0
H6877 H 0.96994 0.6235 0.70001 0.0
H6878 H 0.94275 0.61739 0.68821 0.0
H6879 H 0.90769 0.60292 0.72703 0.0
H6880 H 0.86067 0.53827 0.70082 0.0
H6881 H 0.8771 0.56086 0.71179 0.0
C6882 C 0.66856 0.46533 0.16773 0.0
C6883 C 0.68172 0.45758 0.17598 0.0
C6884 C 0.65238 0.46395 0.17364 0.0
C6885 C 0.62788 0.43315 0.18936 0.0
H6886 H 0.59755 0.46231 0.21216 0.0
C6887 C 0.57727 0.4078 0.22932 0.0
C6888 C 0.56098 0.4133 0.22722 0.0
C6889 C 0.59036 0.41595 0.22196 0.0
C6890 C 0.60579 0.45417 0.20551 0.0
H6891 H 0.68826 0.44388 0.19786 0.0
H6892 H 0.66005 0.441 0.20773 0.0
H6893 H 0.62408 0.47303 0.20187 0.0
H6894 H 0.5458 0.43216 0.216 0.0
H6895 H 0.56904 0.44653 0.20285 0.0
H6896 H 0.61015 0.41419 0.19329 0.0
C6897 C 0.66232 0.44812 0.19672 0.0
C6898 C 0.62091 0.46026 0.19971 0.0
C6899 C 0.67844 0.44962 0.19094 0.0
C6900 C 0.55817 0.4275 0.21774 0.0
C6901 C 0.57145 0.43579 0.21032 0.0
C6902 C 0.6129 0.42712 0.19506 0.0
C6903 C 0.64914 0.45479 0.18785 0.0
C6904 C 0.63221 0.44962 0.19201 0.0
C6905 C 0.58763 0.42986 0.21218 0.0
C6906 C 0.60192 0.43739 0.20366 0.0
H6907 H 0.67056 0.47154 0.15615 0.0
H6908 H 0.64233 0.46908 0.16657 0.0
H6909 H 0.63639 0.42478 0.18334 0.0
H6910 H 0.58002 0.39692 0.23643 0.0
H6911 H 0.60271 0.41123 0.22382 0.0
C6912 C 0.60808 0.82998 0.9124 0.0
C6913 C 0.60855 0.81389 0.91849 0.0
C6914 C 0.59544 0.83479 0.90194 0.0
C6915 C 0.57302 0.81525 0.86989 0.0
H6916 H 0.55811 0.8599 0.86224 0.0
C6917 C 0.5484 0.84117 0.80779 0.0
C6918 C 0.55409 0.85705 0.80441 0.0
C6919 C 0.55224 0.83377 0.82275 0.0
C6920 C 0.56216 0.84735 0.86427 0.0
H6921 H 0.59542 0.79059 0.91958 0.0
H6922 H 0.57329 0.79915 0.90149 0.0
H6923 H 0.56659 0.85176 0.88976 0.0
H6924 H 0.5702 0.87665 0.81219 0.0
H6925 H 0.57746 0.86361 0.83812 0.0
H6926 H 0.56948 0.81114 0.84418 0.0
C6927 C 0.58273 0.80797 0.90473 0.0
C6928 C 0.56683 0.84268 0.87999 0.0
C6929 C 0.59539 0.80314 0.91514 0.0
C6930 C 0.5654 0.86455 0.81491 0.0
C6931 C 0.56936 0.85719 0.82974 0.0
C6932 C 0.56833 0.81992 0.85414 0.0
C6933 C 0.58312 0.82354 0.8974 0.0
C6934 C 0.57318 0.82688 0.88271 0.0
C6935 C 0.56196 0.84225 0.8342 0.0
C6936 C 0.56377 0.83626 0.8511 0.0
H6937 H 0.61792 0.83857 0.91503 0.0
H6938 H 0.59611 0.84686 0.89635 0.0
H6939 H 0.57794 0.80297 0.87163 0.0
H6940 H 0.53986 0.83517 0.79961 0.0
H6941 H 0.54669 0.82206 0.82582 0.0
C6942 C 0.42313 0.31238 0.0604 0.0
C6943 C 0.4179 0.29593 0.06055 0.0
C6944 C 0.43188 0.31891 0.07373 0.0
C6945 C 0.45333 0.30692 0.11289 0.0
H6946 H 0.44 0.35061 0.12682 0.0
C6947 C 0.45543 0.3295 0.18003 0.0
C6948 C 0.45956 0.346 0.18324 0.0
C6949 C 0.45426 0.32371 0.1639 0.0
C6950 C 0.44409 0.3385 0.12298 0.0
H6951 H 0.41905 0.27307 0.07399 0.0
H6952 H 0.43332 0.28444 0.09755 0.0
H6953 H 0.43071 0.34005 0.10049 0.0
H6954 H 0.4664 0.36915 0.1719 0.0
H6955 H 0.46439 0.35898 0.14373 0.0
H6956 H 0.46598 0.30516 0.1359 0.0
C6957 C 0.43091 0.29244 0.08722 0.0
C6958 C 0.43879 0.33242 0.1078 0.0
C6959 C 0.42236 0.28595 0.07385 0.0
C6960 C 0.46324 0.35636 0.16991 0.0
C6961 C 0.46195 0.35058 0.15375 0.0
C6962 C 0.45845 0.31294 0.12815 0.0
C6963 C 0.43552 0.30912 0.08755 0.0
C6964 C 0.443 0.31638 0.10269 0.0
C6965 C 0.4571 0.33429 0.15056 0.0
C6966 C 0.45359 0.32867 0.13353 0.0
H6967 H 0.41994 0.32036 0.05032 0.0
H6968 H 0.4355 0.33171 0.07332 0.0
H6969 H 0.45722 0.29469 0.10925 0.0
H6970 H 0.45276 0.32113 0.19 0.0
H6971 H 0.4504 0.31112 0.16187 0.0
C6972 C 0.92298 0.20991 0.42111 0.0
C6973 C 0.92798 0.22627 0.42342 0.0
C6974 C 0.93302 0.19908 0.41243 0.0
C6975 C 0.95562 0.20796 0.37697 0.0
H6976 H 0.9584 0.16069 0.371 0.0
C6977 C 0.97968 0.17891 0.31828 0.0
C6978 C 0.97238 0.16445 0.31263 0.0
C6979 C 0.97492 0.18566 0.33315 0.0
C6980 C 0.95746 0.17391 0.37255 0.0
H6981 H 0.94829 0.24338 0.42167 0.0
H6982 H 0.96605 0.22429 0.40658 0.0
H6983 H 0.95322 0.17204 0.39848 0.0
H6984 H 0.95388 0.1459 0.31723 0.0
H6985 H 0.94489 0.15815 0.3434 0.0
H6986 H 0.95893 0.20999 0.35115 0.0
C6987 C 0.95427 0.21996 0.41109 0.0
C6988 C 0.95483 0.18035 0.38823 0.0
C6989 C 0.94411 0.2309 0.41953 0.0
C6990 C 0.95943 0.15727 0.32141 0.0
C6991 C 0.95456 0.16407 0.33641 0.0
C6992 C 0.95805 0.20156 0.3614 0.0
C6993 C 0.94805 0.20464 0.40603 0.0
C6994 C 0.9539 0.19746 0.39052 0.0
C6995 C 0.96264 0.17806 0.34257 0.0
C6996 C 0.95901 0.18452 0.35903 0.0
H6997 H 0.9106 0.20605 0.42425 0.0
H6998 H 0.92799 0.18727 0.40882 0.0
H6999 H 0.95427 0.22118 0.37823 0.0
H7000 H 0.98971 0.18445 0.31163 0.0
H7001 H 0.98147 0.19636 0.33765 0.0
C7002 C 0.09777 0.71096 0.56129 0.0
C7003 C 0.10361 0.72691 0.55867 0.0
C7004 C 0.09093 0.70691 0.57653 0.0
C7005 C 0.07659 0.72521 0.61619 0.0
H7006 H 0.08861 0.68206 0.63235 0.0
C7007 C 0.04034 0.69149 0.66367 0.0
C7008 C 0.04702 0.67724 0.67069 0.0
C7009 C 0.05029 0.70193 0.65454 0.0
C7010 C 0.08556 0.69438 0.62831 0.0
H7011 H 0.10581 0.75146 0.56887 0.0
H7012 H 0.09435 0.74448 0.59523 0.0
H7013 H 0.09769 0.69043 0.60539 0.0
H7014 H 0.06977 0.66431 0.67632 0.0
H7015 H 0.08728 0.68304 0.66105 0.0
H7016 H 0.06498 0.72937 0.63935 0.0
C7017 C 0.09471 0.73503 0.58585 0.0
C7018 C 0.09036 0.69897 0.61258 0.0
C7019 C 0.10134 0.73904 0.57073 0.0
C7020 C 0.0642 0.67506 0.67076 0.0
C7021 C 0.07423 0.68571 0.66187 0.0
C7022 C 0.07213 0.72077 0.63207 0.0
C7023 C 0.09003 0.71879 0.58918 0.0
C7024 C 0.0854 0.71418 0.60612 0.0
C7025 C 0.06713 0.69836 0.6525 0.0
C7026 C 0.0759 0.70501 0.63804 0.0
H7027 H 0.09959 0.70143 0.55213 0.0
H7028 H 0.08703 0.69435 0.57862 0.0
H7029 H 0.07262 0.73709 0.61166 0.0
H7030 H 0.02719 0.69378 0.664 0.0
H7031 H 0.04434 0.71166 0.64769 0.0
C7032 C 0.55222 0.18082 0.7174 0.0
C7033 C 0.54898 0.16398 0.71539 0.0
C7034 C 0.55599 0.19045 0.7037 0.0
C7035 C 0.55256 0.18933 0.65834 0.0
H7036 H 0.59109 0.21733 0.65896 0.0
C7037 C 0.6029 0.19698 0.60965 0.0
C7038 C 0.60771 0.2131 0.60598 0.0
C7039 C 0.59024 0.19427 0.62091 0.0
C7040 C 0.58004 0.20988 0.65872 0.0
H7041 H 0.54882 0.14366 0.69807 0.0
H7042 H 0.55585 0.16018 0.67454 0.0
H7043 H 0.5802 0.20673 0.68472 0.0
H7044 H 0.60268 0.23904 0.61048 0.0
H7045 H 0.58089 0.23416 0.6304 0.0
H7046 H 0.55357 0.1912 0.6321 0.0
C7047 C 0.5546 0.16621 0.68635 0.0
C7048 C 0.5738 0.20387 0.67342 0.0
C7049 C 0.55078 0.15671 0.69988 0.0
C7050 C 0.59911 0.22645 0.61299 0.0
C7051 C 0.58663 0.22374 0.62432 0.0
C7052 C 0.55902 0.19508 0.6436 0.0
C7053 C 0.55668 0.18323 0.688 0.0
C7054 C 0.56051 0.19292 0.67326 0.0
C7055 C 0.58253 0.20767 0.62872 0.0
C7056 C 0.57316 0.20485 0.64375 0.0
H7057 H 0.55107 0.18663 0.72932 0.0
H7058 H 0.55792 0.20354 0.7053 0.0
H7059 H 0.54202 0.18118 0.65799 0.0
H7060 H 0.60927 0.18655 0.60426 0.0
H7061 H 0.5873 0.18176 0.62442 0.0
C7062 C 0.0343 0.33177 0.86563 0.0
C7063 C 0.04264 0.34396 0.85676 0.0
C7064 C 0.04312 0.32096 0.87551 0.0
C7065 C 0.08032 0.30517 0.89237 0.0
H7066 H 0.06912 0.33022 0.93156 0.0
C7067 C 0.11714 0.29821 0.95152 0.0
C7068 C 0.10845 0.29778 0.96643 0.0
C7069 C 0.10935 0.30285 0.93715 0.0
C7070 C 0.07217 0.3229 0.92086 0.0
H7071 H 0.06652 0.35282 0.8489 0.0
H7072 H 0.08201 0.33384 0.86633 0.0
H7073 H 0.05528 0.33618 0.90578 0.0
H7074 H 0.0851 0.30243 0.97837 0.0
H7075 H 0.07106 0.31038 0.9529 0.0
H7076 H 0.09705 0.29166 0.90746 0.0
C7077 C 0.06874 0.33263 0.86561 0.0
C7078 C 0.06431 0.32634 0.90613 0.0
C7079 C 0.05989 0.34347 0.85569 0.0
C7080 C 0.09199 0.30284 0.96697 0.0
C7081 C 0.08404 0.30731 0.95241 0.0
C7082 C 0.08805 0.30151 0.90723 0.0
C7083 C 0.06029 0.32229 0.87651 0.0
C7084 C 0.06832 0.31751 0.89185 0.0
C7085 C 0.09258 0.30692 0.93729 0.0
C7086 C 0.0841 0.31043 0.92162 0.0
H7087 H 0.02097 0.33192 0.86647 0.0
H7088 H 0.03646 0.31303 0.88387 0.0
H7089 H 0.08361 0.29837 0.88139 0.0
H7090 H 0.12994 0.29444 0.95089 0.0
H7091 H 0.11643 0.30294 0.92587 0.0
C7092 C 0.9758 0.86647 0.2037 0.0
C7093 C 0.97494 0.85924 0.21923 0.0
C7094 C 0.97094 0.85777 0.18993 0.0
C7095 C 0.9469 0.82223 0.17648 0.0
H7096 H 0.96899 0.83227 0.13536 0.0
C7097 C 0.92303 0.79814 0.11581 0.0
C7098 C 0.91509 0.81149 0.10819 0.0
C7099 C 0.93507 0.8009 0.12757 0.0
C7100 C 0.96298 0.82915 0.14682 0.0
H7101 H 0.96853 0.83743 0.23296 0.0
H7102 H 0.96017 0.82173 0.20858 0.0
H7103 H 0.98054 0.84226 0.1612 0.0
H7104 H 0.91427 0.838 0.10576 0.0
H7105 H 0.93553 0.84287 0.12656 0.0
H7106 H 0.92933 0.8092 0.16197 0.0
C7107 C 0.96425 0.83432 0.20709 0.0
C7108 C 0.9694 0.83497 0.16155 0.0
C7109 C 0.96886 0.84326 0.22102 0.0
C7110 C 0.92014 0.82759 0.11165 0.0
C7111 C 0.93239 0.83033 0.12329 0.0
C7112 C 0.94075 0.81608 0.1618 0.0
C7113 C 0.96558 0.84143 0.19137 0.0
C7114 C 0.96091 0.83229 0.17642 0.0
C7115 C 0.93942 0.81701 0.13169 0.0
C7116 C 0.94836 0.82011 0.1469 0.0
H7117 H 0.98075 0.87875 0.20214 0.0
H7118 H 0.97156 0.86385 0.17813 0.0
H7119 H 0.94003 0.82002 0.18766 0.0
H7120 H 0.91927 0.78558 0.11336 0.0
H7121 H 0.9403 0.79053 0.13411 0.0
C7122 C 0.45786 0.66304 0.35956 0.0
C7123 C 0.47242 0.67167 0.35608 0.0
C7124 C 0.44576 0.67022 0.36926 0.0
C7125 C 0.43089 0.70616 0.39091 0.0
H7126 H 0.43712 0.6799 0.43023 0.0
C7127 C 0.41981 0.73248 0.45461 0.0
C7128 C 0.41154 0.72264 0.46613 0.0
C7129 C 0.42514 0.72581 0.43986 0.0
C7130 C 0.43491 0.68715 0.41932 0.0
H7131 H 0.48502 0.69505 0.35811 0.0
H7132 H 0.46373 0.70766 0.37542 0.0
H7133 H 0.44754 0.6699 0.40403 0.0
H7134 H 0.40287 0.69803 0.47157 0.0
H7135 H 0.41222 0.68627 0.44559 0.0
H7136 H 0.41863 0.72359 0.40627 0.0
C7137 C 0.46175 0.6954 0.37056 0.0
C7138 C 0.44082 0.68144 0.40437 0.0
C7139 C 0.47398 0.68815 0.36094 0.0
C7140 C 0.40934 0.70582 0.46296 0.0
C7141 C 0.4146 0.69915 0.44808 0.0
C7142 C 0.42478 0.7118 0.40587 0.0
C7143 C 0.44811 0.68608 0.37551 0.0
C7144 C 0.4391 0.69106 0.39019 0.0
C7145 C 0.42218 0.70921 0.43628 0.0
C7146 C 0.4271 0.70251 0.42024 0.0
H7147 H 0.45641 0.65029 0.35594 0.0
H7148 H 0.43529 0.66291 0.37309 0.0
H7149 H 0.42962 0.71373 0.38006 0.0
H7150 H 0.42175 0.7455 0.45672 0.0
H7151 H 0.43142 0.73371 0.43118 0.0
C7152 C 0.82271 0.54162 0.85 0.0
C7153 C 0.81112 0.55025 0.85958 0.0
C7154 C 0.83556 0.54988 0.84231 0.0
C7155 C 0.86138 0.58352 0.85214 0.0
H7156 H 0.88096 0.57786 0.809 0.0
C7157 C 0.92647 0.60566 0.84039 0.0
C7158 C 0.92806 0.61606 0.82685 0.0
C7159 C 0.91256 0.59575 0.84198 0.0
C7160 C 0.87559 0.5795 0.82108 0.0
H7161 H 0.80319 0.57442 0.86769 0.0
H7162 H 0.8261 0.58891 0.85458 0.0
H7163 H 0.85382 0.56581 0.81493 0.0
H7164 H 0.9174 0.62358 0.8037 0.0
H7165 H 0.89259 0.60673 0.8068 0.0
H7166 H 0.88292 0.59696 0.85851 0.0
C7167 C 0.82504 0.57572 0.85295 0.0
C7168 C 0.86013 0.57268 0.82442 0.0
C7169 C 0.81198 0.56746 0.86043 0.0
C7170 C 0.91607 0.61589 0.81447 0.0
C7171 C 0.90208 0.60608 0.8161 0.0
C7172 C 0.87679 0.59012 0.84889 0.0
C7173 C 0.83722 0.56689 0.84434 0.0
C7174 C 0.85289 0.57482 0.83997 0.0
C7175 C 0.90001 0.59627 0.8301 0.0
C7176 C 0.88406 0.58822 0.83336 0.0
H7177 H 0.82224 0.52838 0.84886 0.0
H7178 H 0.84483 0.5428 0.8358 0.0
H7179 H 0.85623 0.58498 0.86433 0.0
H7180 H 0.93594 0.60523 0.84972 0.0
H7181 H 0.9114 0.58797 0.8527 0.0
C7182 C 0.73654 0.57162 0.10277 0.0
C7183 C 0.72564 0.55923 0.10778 0.0
C7184 C 0.73085 0.58522 0.0941 0.0
C7185 C 0.69641 0.60391 0.0713 0.0
H7186 H 0.7116 0.64354 0.09304 0.0
C7187 C 0.66641 0.66879 0.06454 0.0
C7188 C 0.67667 0.68256 0.06666 0.0
C7189 C 0.67288 0.65283 0.0657 0.0
C7190 C 0.70748 0.63269 0.08652 0.0
H7191 H 0.70044 0.55071 0.10671 0.0
H7192 H 0.69026 0.57488 0.09166 0.0
H7193 H 0.72167 0.61705 0.10201 0.0
H7194 H 0.70186 0.69054 0.06981 0.0
H7195 H 0.71326 0.66281 0.0713 0.0
H7196 H 0.682 0.61981 0.05588 0.0
C7197 C 0.70328 0.57392 0.09436 0.0
C7198 C 0.71322 0.61744 0.09174 0.0
C7199 C 0.70906 0.56013 0.10299 0.0
C7200 C 0.69365 0.68012 0.06852 0.0
C7201 C 0.70014 0.66423 0.06942 0.0
C7202 C 0.69068 0.61931 0.06594 0.0
C7203 C 0.71405 0.58687 0.09039 0.0
C7204 C 0.70781 0.60287 0.08422 0.0
C7205 C 0.68974 0.6504 0.06884 0.0
C7206 C 0.6962 0.6339 0.07352 0.0
H7207 H 0.74948 0.57098 0.10589 0.0
H7208 H 0.73952 0.5948 0.09085 0.0
H7209 H 0.69205 0.59285 0.06527 0.0
H7210 H 0.65325 0.67035 0.06302 0.0
H7211 H 0.66451 0.64249 0.06516 0.0
C7212 C 0.71688 0.46792 0.34337 0.0
C7213 C 0.71619 0.46942 0.3605 0.0
C7214 C 0.70281 0.46308 0.33477 0.0
C7215 C 0.66435 0.44147 0.33798 0.0
H7216 H 0.64447 0.4756 0.31119 0.0
C7217 C 0.60389 0.42761 0.31056 0.0
C7218 C 0.60506 0.42839 0.29337 0.0
C7219 C 0.61423 0.43719 0.32022 0.0
C7220 C 0.64989 0.466 0.31865 0.0
H7221 H 0.70102 0.4662 0.38221 0.0
H7222 H 0.67695 0.4569 0.36731 0.0
H7223 H 0.67187 0.47991 0.32304 0.0
H7224 H 0.6152 0.44211 0.27295 0.0
H7225 H 0.63396 0.45811 0.28972 0.0
H7226 H 0.64288 0.42729 0.33345 0.0
C7227 C 0.68808 0.45971 0.36051 0.0
C7228 C 0.66557 0.46837 0.32519 0.0
C7229 C 0.70185 0.46495 0.369 0.0
C7230 C 0.61461 0.44082 0.28616 0.0
C7231 C 0.62519 0.45016 0.29581 0.0
C7232 C 0.64882 0.43902 0.33135 0.0
C7233 C 0.6883 0.45929 0.34337 0.0
C7234 C 0.67284 0.45608 0.33483 0.0
C7235 C 0.62609 0.44729 0.31277 0.0
C7236 C 0.64141 0.45125 0.3216 0.0
H7237 H 0.72784 0.47147 0.33666 0.0
H7238 H 0.70307 0.46273 0.32148 0.0
H7239 H 0.66977 0.43195 0.34555 0.0
H7240 H 0.59645 0.41835 0.31656 0.0
H7241 H 0.61427 0.43525 0.33338 0.0
C7242 C 0.83171 0.34069 0.57433 0.0
C7243 C 0.84679 0.33786 0.56631 0.0
C7244 C 0.82547 0.35662 0.57584 0.0
C7245 C 0.82739 0.3997 0.56359 0.0
H7246 H 0.82547 0.40791 0.61053 0.0
C7247 C 0.7945 0.45333 0.59707 0.0
C7248 C 0.80275 0.46074 0.61023 0.0
C7249 C 0.80178 0.44052 0.5883 0.0
C7250 C 0.82618 0.40585 0.5974 0.0
H7251 H 0.8662 0.34936 0.55197 0.0
H7252 H 0.85505 0.37721 0.55445 0.0
H7253 H 0.83188 0.38039 0.60047 0.0
H7254 H 0.82536 0.46129 0.62421 0.0
H7255 H 0.83799 0.43813 0.60928 0.0
H7256 H 0.82104 0.42524 0.56068 0.0
C7257 C 0.8482 0.36705 0.55966 0.0
C7258 C 0.82959 0.39008 0.59165 0.0
C7259 C 0.85455 0.35108 0.55826 0.0
C7260 C 0.81882 0.45574 0.61404 0.0
C7261 C 0.82599 0.44258 0.60553 0.0
C7262 C 0.82362 0.41552 0.56938 0.0
C7263 C 0.83412 0.36999 0.56921 0.0
C7264 C 0.83011 0.38683 0.57474 0.0
C7265 C 0.81732 0.43462 0.59287 0.0
C7266 C 0.82302 0.41866 0.58636 0.0
H7267 H 0.8252 0.33071 0.58027 0.0
H7268 H 0.81443 0.35863 0.58306 0.0
H7269 H 0.82784 0.39743 0.55049 0.0
H7270 H 0.78214 0.457 0.59398 0.0
H7271 H 0.79478 0.43448 0.57873 0.0
C7272 C 0.91776 0.41319 0.71462 0.0
C7273 C 0.93081 0.42387 0.71073 0.0
C7274 C 0.90145 0.41872 0.71415 0.0
C7275 C 0.87499 0.45584 0.71249 0.0
H7276 H 0.84751 0.42919 0.68414 0.0
C7277 C 0.8218 0.48286 0.67533 0.0
C7278 C 0.80859 0.47289 0.67053 0.0
C7279 C 0.83467 0.47642 0.6846 0.0
C7280 C 0.85476 0.43663 0.69244 0.0
H7281 H 0.937 0.44899 0.70432 0.0
H7282 H 0.90851 0.45862 0.70336 0.0
H7283 H 0.87415 0.41877 0.69283 0.0
H7284 H 0.79764 0.44876 0.67286 0.0
H7285 H 0.81996 0.43745 0.68956 0.0
H7286 H 0.85573 0.47384 0.71187 0.0
C7287 C 0.91091 0.44597 0.70681 0.0
C7288 C 0.87011 0.43065 0.69739 0.0
C7289 C 0.92722 0.44041 0.70717 0.0
C7290 C 0.80779 0.45665 0.67626 0.0
C7291 C 0.82066 0.45017 0.68568 0.0
C7292 C 0.85955 0.46176 0.7077 0.0
C7293 C 0.89785 0.43508 0.70989 0.0
C7294 C 0.8806 0.4404 0.70702 0.0
C7295 C 0.83453 0.45985 0.68953 0.0
C7296 C 0.84948 0.45246 0.69714 0.0
H7297 H 0.92007 0.40034 0.71732 0.0
H7298 H 0.89163 0.4101 0.71669 0.0
H7299 H 0.88273 0.46351 0.72013 0.0
H7300 H 0.8223 0.49562 0.67163 0.0
H7301 H 0.84509 0.48429 0.68722 0.0
C7302 C 0.81273 0.55732 0.92818 0.0
C7303 C 0.79928 0.55958 0.91751 0.0
C7304 C 0.81971 0.57088 0.93641 0.0
C7305 C 0.82455 0.61476 0.92938 0.0
H7306 H 0.83318 0.62104 0.97578 0.0
C7307 C 0.83415 0.6787 0.95356 0.0
C7308 C 0.8501 0.68156 0.95952 0.0
C7309 C 0.82804 0.66271 0.95238 0.0
C7310 C 0.83092 0.61932 0.96279 0.0
H7311 H 0.78192 0.57761 0.90842 0.0
H7312 H 0.79384 0.60082 0.92243 0.0
H7313 H 0.82297 0.59418 0.96576 0.0
H7314 H 0.87147 0.66994 0.9706 0.0
H7315 H 0.86061 0.64188 0.9686 0.0
H7316 H 0.83194 0.63975 0.92628 0.0
C7317 C 0.79928 0.58876 0.92422 0.0
C7318 C 0.82519 0.60401 0.95707 0.0
C7319 C 0.79244 0.5754 0.91612 0.0
C7320 C 0.85915 0.66817 0.96587 0.0
C7321 C 0.85296 0.6521 0.96476 0.0
C7322 C 0.83009 0.62991 0.93504 0.0
C7323 C 0.81329 0.5868 0.93403 0.0
C7324 C 0.82156 0.60179 0.94033 0.0
C7325 C 0.83769 0.64922 0.95726 0.0
C7326 C 0.83294 0.6325 0.9518 0.0
H7327 H 0.81814 0.54527 0.92981 0.0
H7328 H 0.83047 0.56903 0.94402 0.0
H7329 H 0.82216 0.61331 0.91638 0.0
H7330 H 0.82668 0.68876 0.94901 0.0
H7331 H 0.81612 0.66079 0.94675 0.0
C7332 C 0.59525 0.5836 0.2101 0.0
C7333 C 0.58985 0.59988 0.20802 0.0
C7334 C 0.61199 0.57971 0.20871 0.0
C7335 C 0.64765 0.59309 0.18592 0.0
H7336 H 0.67158 0.56192 0.21287 0.0
C7337 C 0.71096 0.56793 0.16585 0.0
C7338 C 0.71188 0.55068 0.16629 0.0
C7339 C 0.69824 0.57621 0.1741 0.0
C7340 C 0.66505 0.57067 0.20525 0.0
H7341 H 0.59761 0.62497 0.20356 0.0
H7342 H 0.62685 0.61811 0.20069 0.0
H7343 H 0.64467 0.57212 0.222 0.0
H7344 H 0.70091 0.5287 0.17661 0.0
H7345 H 0.67885 0.54295 0.19075 0.0
H7346 H 0.66747 0.59102 0.16874 0.0
C7347 C 0.61818 0.6084 0.20351 0.0
C7348 C 0.64969 0.57649 0.21049 0.0
C7349 C 0.6015 0.61231 0.20519 0.0
C7350 C 0.70042 0.54196 0.1758 0.0
C7351 C 0.68785 0.55018 0.18411 0.0
C7352 C 0.66292 0.58719 0.18063 0.0
C7353 C 0.62353 0.59201 0.20492 0.0
C7354 C 0.6407 0.58748 0.20068 0.0
C7355 C 0.68638 0.56736 0.18308 0.0
C7356 C 0.67161 0.57561 0.19004 0.0
H7357 H 0.58648 0.57386 0.21247 0.0
H7358 H 0.61578 0.56697 0.20979 0.0
H7359 H 0.64087 0.60138 0.17801 0.0
H7360 H 0.71966 0.57497 0.15864 0.0
H7361 H 0.69747 0.58948 0.17317 0.0
C7362 C 0.71798 0.44516 0.40686 0.0
C7363 C 0.72391 0.45871 0.41559 0.0
C7364 C 0.71175 0.43163 0.41518 0.0
C7365 C 0.69844 0.41504 0.45525 0.0
H7366 H 0.71251 0.37449 0.43429 0.0
C7367 C 0.66778 0.3518 0.46445 0.0
C7368 C 0.67709 0.33764 0.46082 0.0
C7369 C 0.6751 0.36734 0.46388 0.0
C7370 C 0.70876 0.38561 0.44063 0.0
H7371 H 0.72796 0.4692 0.43966 0.0
H7372 H 0.71772 0.44493 0.45449 0.0
H7373 H 0.72124 0.40044 0.42312 0.0
H7374 H 0.70155 0.32825 0.45592 0.0
H7375 H 0.71454 0.35528 0.45561 0.0
H7376 H 0.68602 0.39989 0.47292 0.0
C7377 C 0.71732 0.44502 0.4412 0.0
C7378 C 0.7135 0.40057 0.43397 0.0
C7379 C 0.7232 0.45884 0.43278 0.0
C7380 C 0.6941 0.33906 0.45838 0.0
C7381 C 0.70147 0.35453 0.45817 0.0
C7382 C 0.69374 0.39992 0.46207 0.0
C7383 C 0.712 0.43109 0.43243 0.0
C7384 C 0.70799 0.41545 0.44085 0.0
C7385 C 0.69188 0.36889 0.45987 0.0
C7386 C 0.69861 0.38503 0.4546 0.0
H7387 H 0.71874 0.44476 0.3936 0.0
H7388 H 0.70735 0.42128 0.40805 0.0
H7389 H 0.69411 0.42634 0.46089 0.0
H7390 H 0.65462 0.35096 0.46649 0.0
H7391 H 0.66733 0.3781 0.46529 0.0
C7392 C 0.84534 0.81498 0.54615 0.0
C7393 C 0.85992 0.80816 0.5522 0.0
C7394 C 0.84017 0.83036 0.55152 0.0
C7395 C 0.84505 0.86204 0.58273 0.0
H7396 H 0.83174 0.89067 0.54697 0.0
C7397 C 0.81522 0.92088 0.59915 0.0
C7398 C 0.79886 0.92008 0.59357 0.0
C7399 C 0.82757 0.91224 0.591 0.0
C7400 C 0.83569 0.8829 0.55702 0.0
H7401 H 0.87994 0.81096 0.56945 0.0
H7402 H 0.87078 0.83806 0.57914 0.0
H7403 H 0.84209 0.86308 0.54097 0.0
H7404 H 0.78312 0.91214 0.57362 0.0
H7405 H 0.80451 0.89633 0.55983 0.0
H7406 H 0.83779 0.88139 0.59885 0.0
C7407 C 0.86339 0.83156 0.57019 0.0
C7408 C 0.84144 0.86711 0.55363 0.0
C7409 C 0.86853 0.81607 0.56481 0.0
C7410 C 0.79553 0.91247 0.57847 0.0
C7411 C 0.80786 0.90366 0.57042 0.0
C7412 C 0.83928 0.87781 0.58612 0.0
C7413 C 0.84964 0.83911 0.56295 0.0
C7414 C 0.84557 0.85638 0.56651 0.0
C7415 C 0.82364 0.90247 0.57738 0.0
C7416 C 0.83397 0.88814 0.57332 0.0
H7417 H 0.83856 0.80891 0.53651 0.0
H7418 H 0.82921 0.83574 0.54617 0.0
H7419 H 0.84814 0.85397 0.59283 0.0
H7420 H 0.81829 0.92673 0.61069 0.0
H7421 H 0.83976 0.91174 0.59637 0.0
C7422 C 0.31821 0.60164 0.41458 0.0
C7423 C 0.31565 0.58924 0.42629 0.0
C7424 C 0.32005 0.61799 0.41948 0.0
C7425 C 0.31309 0.64785 0.45241 0.0
H7426 H 0.35527 0.66587 0.4392 0.0
C7427 C 0.34511 0.70086 0.48669 0.0
C7428 C 0.35536 0.71156 0.47787 0.0
C7429 C 0.33734 0.68776 0.47879 0.0
C7430 C 0.34326 0.66127 0.4427 0.0
H7431 H 0.31206 0.58418 0.45211 0.0
H7432 H 0.31505 0.613 0.46074 0.0
H7433 H 0.34643 0.63948 0.42825 0.0
H7434 H 0.36477 0.71761 0.4537 0.0
H7435 H 0.35094 0.69493 0.43981 0.0
H7436 H 0.30995 0.66963 0.46696 0.0
C7437 C 0.31574 0.60998 0.4478 0.0
C7438 C 0.33825 0.6461 0.43648 0.0
C7439 C 0.3142 0.59354 0.44292 0.0
C7440 C 0.35694 0.70952 0.46082 0.0
C7441 C 0.34915 0.69644 0.4529 0.0
C7442 C 0.31801 0.66318 0.4585 0.0
C7443 C 0.31909 0.62226 0.43615 0.0
C7444 C 0.32329 0.63912 0.44151 0.0
C7445 C 0.33962 0.68513 0.46187 0.0
C7446 C 0.33332 0.6699 0.45397 0.0
H7447 H 0.31936 0.5986 0.40167 0.0
H7448 H 0.32258 0.62727 0.41028 0.0
H7449 H 0.30143 0.64273 0.45634 0.0
H7450 H 0.34346 0.70232 0.49981 0.0
H7451 H 0.33019 0.67926 0.48611 0.0
C7452 C 0.57385 0.09849 0.73524 0.0
C7453 C 0.56233 0.10754 0.72606 0.0
C7454 C 0.58697 0.09053 0.72756 0.0
C7455 C 0.61551 0.09764 0.69637 0.0
H7456 H 0.62938 0.05211 0.7011 0.0
C7457 C 0.68274 0.07855 0.69036 0.0
C7458 C 0.68585 0.06852 0.6766 0.0
C7459 C 0.66675 0.08047 0.69637 0.0
C7460 C 0.62557 0.06481 0.69967 0.0
H7461 H 0.5553 0.11492 0.70151 0.0
H7462 H 0.57909 0.10181 0.6881 0.0
H7463 H 0.60164 0.06057 0.71019 0.0
H7464 H 0.67457 0.05157 0.65925 0.0
H7465 H 0.64674 0.05453 0.67029 0.0
H7466 H 0.63963 0.10215 0.68676 0.0
C7467 C 0.5775 0.10053 0.70124 0.0
C7468 C 0.60978 0.06961 0.70477 0.0
C7469 C 0.56398 0.10807 0.70891 0.0
C7470 C 0.67274 0.05934 0.66992 0.0
C7471 C 0.65676 0.06105 0.67615 0.0
C7472 C 0.63134 0.09294 0.69165 0.0
C7473 C 0.58916 0.09187 0.71058 0.0
C7474 C 0.60472 0.08609 0.70322 0.0
C7475 C 0.6536 0.07214 0.68898 0.0
C7476 C 0.63655 0.07656 0.69345 0.0
H7477 H 0.57292 0.09771 0.74845 0.0
H7478 H 0.59592 0.08406 0.73501 0.0
H7479 H 0.61194 0.11045 0.69533 0.0
H7480 H 0.69256 0.08543 0.69613 0.0
H7481 H 0.66455 0.08893 0.70644 0.0
C7482 C 0.15395 0.32156 0.96919 0.0
C7483 C 0.16246 0.30863 0.97662 0.0
C7484 C 0.16206 0.33622 0.96583 0.0
C7485 C 0.20261 0.35542 0.96209 0.0
H7486 H 0.17713 0.395 0.97081 0.0
C7487 C 0.22606 0.41334 0.93655 0.0
C7488 C 0.21499 0.41676 0.92382 0.0
C7489 C 0.22065 0.40483 0.95036 0.0
C7490 C 0.18452 0.38406 0.96877 0.0
H7491 H 0.18596 0.29996 0.98549 0.0
H7492 H 0.20029 0.32576 0.97991 0.0
H7493 H 0.16579 0.36816 0.978 0.0
H7494 H 0.18951 0.41658 0.91622 0.0
H7495 H 0.17994 0.40173 0.9403 0.0
H7496 H 0.22095 0.37116 0.95206 0.0
C7497 C 0.18745 0.32465 0.97653 0.0
C7498 C 0.17797 0.36873 0.97259 0.0
C7499 C 0.17934 0.30993 0.97968 0.0
C7500 C 0.19818 0.41374 0.9259 0.0
C7501 C 0.19273 0.40546 0.93978 0.0
C7502 C 0.20921 0.37073 0.95839 0.0
C7503 C 0.17869 0.33812 0.97019 0.0
C7504 C 0.18664 0.35428 0.96852 0.0
C7505 C 0.20416 0.39981 0.95142 0.0
C7506 C 0.19986 0.3851 0.96092 0.0
H7507 H 0.1408 0.32079 0.96711 0.0
H7508 H 0.15514 0.34628 0.96049 0.0
H7509 H 0.20956 0.34448 0.95884 0.0
H7510 H 0.2391 0.41578 0.9351 0.0
H7511 H 0.22961 0.40065 0.95926 0.0
C7512 C 0.3526 0.45582 0.67428 0.0
C7513 C 0.35148 0.47141 0.68178 0.0
C7514 C 0.36069 0.44304 0.68215 0.0
C7515 C 0.3859 0.43177 0.71782 0.0
H7516 H 0.42101 0.43047 0.68533 0.0
C7517 C 0.45221 0.42427 0.73706 0.0
C7518 C 0.46166 0.41267 0.72846 0.0
C7519 C 0.43721 0.42945 0.73084 0.0
C7520 C 0.41125 0.43038 0.69442 0.0
H7521 H 0.35522 0.48498 0.70441 0.0
H7522 H 0.37033 0.46285 0.7178 0.0
H7523 H 0.39366 0.43932 0.67731 0.0
H7524 H 0.46382 0.39825 0.70617 0.0
H7525 H 0.4373 0.40724 0.6952 0.0
H7526 H 0.40377 0.42334 0.73506 0.0
C7527 C 0.36479 0.4605 0.70594 0.0
C7528 C 0.39556 0.4353 0.68984 0.0
C7529 C 0.35646 0.47327 0.69816 0.0
C7530 C 0.45667 0.40731 0.71291 0.0
C7531 C 0.44151 0.41235 0.70673 0.0
C7532 C 0.4016 0.42666 0.72238 0.0
C7533 C 0.36811 0.44585 0.69737 0.0
C7534 C 0.38292 0.43651 0.70161 0.0
C7535 C 0.43139 0.42288 0.71604 0.0
C7536 C 0.41449 0.4265 0.71082 0.0
H7537 H 0.34887 0.45386 0.66169 0.0
H7538 H 0.36299 0.43172 0.67546 0.0
H7539 H 0.37632 0.43272 0.72705 0.0
H7540 H 0.45596 0.42864 0.74905 0.0
H7541 H 0.42986 0.43804 0.73796 0.0
C7542 C 0.71284 0.1013 0.11044 0.0
C7543 C 0.70467 0.08809 0.10274 0.0
C7544 C 0.71251 0.1171 0.10356 0.0
C7545 C 0.69989 0.13976 0.06546 0.0
H7546 H 0.69201 0.1759 0.09559 0.0
C7547 C 0.67678 0.20069 0.03995 0.0
C7548 C 0.66535 0.20976 0.04915 0.0
C7549 C 0.68605 0.1882 0.04709 0.0
C7550 C 0.694 0.16594 0.08697 0.0
H7551 H 0.69094 0.08104 0.08104 0.0
H7552 H 0.68953 0.10837 0.06966 0.0
H7553 H 0.70016 0.14915 0.10622 0.0
H7554 H 0.65465 0.21296 0.07328 0.0
H7555 H 0.66966 0.19 0.08562 0.0
H7556 H 0.69223 0.15568 0.04638 0.0
C7557 C 0.69647 0.10669 0.08085 0.0
C7558 C 0.69902 0.1506 0.09307 0.0
C7559 C 0.697 0.09094 0.08758 0.0
C7560 C 0.66351 0.20622 0.06591 0.0
C7561 C 0.67226 0.1931 0.07298 0.0
C7562 C 0.69446 0.15486 0.05943 0.0
C7563 C 0.70391 0.1201 0.08888 0.0
C7564 C 0.7015 0.13714 0.08242 0.0
C7565 C 0.68343 0.18362 0.06353 0.0
C7566 C 0.69105 0.16814 0.07008 0.0
H7567 H 0.7189 0.09965 0.12215 0.0
H7568 H 0.71867 0.12702 0.10995 0.0
H7569 H 0.70218 0.12992 0.05677 0.0
H7570 H 0.6783 0.20292 0.02702 0.0
H7571 H 0.69492 0.18184 0.03944 0.0
C7572 C 0.5687 0.91269 0.81168 0.0
C7573 C 0.5621 0.91639 0.79625 0.0
C7574 C 0.58386 0.91927 0.81619 0.0
C7575 C 0.61326 0.95166 0.80752 0.0
H7576 H 0.64644 0.91908 0.81871 0.0
C7577 C 0.67114 0.97662 0.82708 0.0
C7578 C 0.67244 0.9723 0.84363 0.0
C7579 C 0.66371 0.9658 0.81614 0.0
C7580 C 0.63734 0.92823 0.81535 0.0
H7581 H 0.56452 0.93141 0.77449 0.0
H7582 H 0.59068 0.94338 0.78256 0.0
H7583 H 0.61814 0.91033 0.81306 0.0
H7584 H 0.67011 0.9526 0.86135 0.0
H7585 H 0.65624 0.93412 0.84261 0.0
H7586 H 0.63183 0.96968 0.81048 0.0
C7587 C 0.58454 0.93504 0.79092 0.0
C7588 C 0.62119 0.92329 0.81241 0.0
C7589 C 0.56961 0.92825 0.78633 0.0
C7590 C 0.66888 0.9562 0.84861 0.0
C7591 C 0.66109 0.94554 0.83778 0.0
C7592 C 0.62929 0.9566 0.8105 0.0
C7593 C 0.59212 0.92995 0.80547 0.0
C7594 C 0.60905 0.93505 0.80877 0.0
C7595 C 0.65687 0.95106 0.82201 0.0
C7596 C 0.64145 0.945 0.81476 0.0
H7597 H 0.5628 0.90383 0.81966 0.0
H7598 H 0.58941 0.91556 0.82768 0.0
H7599 H 0.60402 0.96088 0.80474 0.0
H7600 H 0.67429 0.98891 0.82301 0.0
H7601 H 0.66109 0.97002 0.80381 0.0
C7602 C 0.85499 0.0592 0.35967 0.0
C7603 C 0.84161 0.06537 0.35057 0.0
C7604 C 0.871 0.0598 0.35334 0.0
C7605 C 0.89539 0.06615 0.31544 0.0
H7606 H 0.92614 0.08846 0.34419 0.0
C7607 C 0.94853 0.10436 0.29024 0.0
C7608 C 0.96285 0.10704 0.29946 0.0
C7609 C 0.93556 0.09511 0.2965 0.0
C7610 C 0.91795 0.08185 0.33606 0.0
H7611 H 0.83452 0.07609 0.32729 0.0
H7612 H 0.86247 0.07733 0.31633 0.0
H7613 H 0.89975 0.0793 0.35493 0.0
H7614 H 0.97528 0.10096 0.32211 0.0
H7615 H 0.95277 0.08426 0.33304 0.0
H7616 H 0.91343 0.06883 0.2965 0.0
C7617 C 0.86055 0.07196 0.32834 0.0
C7618 C 0.90275 0.07664 0.34224 0.0
C7619 C 0.84455 0.07144 0.3347 0.0
C7620 C 0.96435 0.09932 0.31478 0.0
C7621 C 0.95136 0.08985 0.32107 0.0
C7622 C 0.91067 0.07116 0.30931 0.0
C7623 C 0.87399 0.0665 0.33774 0.0
C7624 C 0.89108 0.06929 0.33185 0.0
C7625 C 0.93663 0.08792 0.31213 0.0
C7626 C 0.92189 0.0797 0.31937 0.0
H7627 H 0.85323 0.05455 0.37199 0.0
H7628 H 0.88111 0.0554 0.36081 0.0
H7629 H 0.88675 0.06024 0.30722 0.0
H7630 H 0.94734 0.10949 0.2781 0.0
H7631 H 0.92447 0.09412 0.28922 0.0
C7632 C 0.44018 0.22066 0.11069 0.0
C7633 C 0.42356 0.21879 0.10655 0.0
C7634 C 0.44778 0.20906 0.12069 0.0
C7635 C 0.43495 0.19205 0.15646 0.0
H7636 H 0.47651 0.16877 0.15913 0.0
C7637 C 0.46007 0.16511 0.21677 0.0
C7638 C 0.47719 0.16513 0.21864 0.0
C7639 C 0.45315 0.17043 0.20208 0.0
C7640 C 0.46494 0.17538 0.15858 0.0
H7641 H 0.40226 0.20279 0.10779 0.0
H7642 H 0.41543 0.18281 0.1259 0.0
H7643 H 0.46592 0.17703 0.1323 0.0
H7644 H 0.50053 0.17153 0.20749 0.0
H7645 H 0.48842 0.18203 0.18232 0.0
H7646 H 0.43439 0.19165 0.18261 0.0
C7647 C 0.42263 0.19297 0.12115 0.0
C7648 C 0.45884 0.17982 0.14325 0.0
C7649 C 0.41512 0.2044 0.11093 0.0
C7650 C 0.48725 0.17165 0.20629 0.0
C7651 C 0.48034 0.1773 0.19179 0.0
C7652 C 0.44117 0.18791 0.17176 0.0
C7653 C 0.43863 0.1958 0.12682 0.0
C7654 C 0.44389 0.1883 0.14219 0.0
C7655 C 0.46331 0.17601 0.18924 0.0
C7656 C 0.45635 0.17977 0.17299 0.0
H7657 H 0.44686 0.23164 0.10721 0.0
H7658 H 0.46013 0.21144 0.12509 0.0
H7659 H 0.42355 0.19901 0.15581 0.0
H7660 H 0.4522 0.15971 0.22604 0.0
H7661 H 0.43997 0.16924 0.20044 0.0
C7662 C 0.59655 0.73555 0.96053 0.0
C7663 C 0.60397 0.7239 0.97079 0.0
C7664 C 0.58706 0.73054 0.94725 0.0
C7665 C 0.57058 0.69345 0.92569 0.0
H7666 H 0.58119 0.71915 0.88702 0.0
C7667 C 0.55548 0.66937 0.86151 0.0
C7668 C 0.56826 0.67071 0.84991 0.0
C7669 C 0.55599 0.67826 0.8761 0.0
C7670 C 0.57813 0.71184 0.89769 0.0
H7671 H 0.60767 0.698 0.97537 0.0
H7672 H 0.59189 0.689 0.95156 0.0
H7673 H 0.58852 0.72952 0.91391 0.0
H7674 H 0.59128 0.68289 0.84423 0.0
H7675 H 0.59263 0.69788 0.87016 0.0
H7676 H 0.56145 0.67515 0.9093 0.0
C7677 C 0.59248 0.70204 0.95423 0.0
C7678 C 0.58207 0.7179 0.9132 0.0
C7679 C 0.60154 0.70712 0.96789 0.0
C7680 C 0.58142 0.6814 0.85308 0.0
C7681 C 0.58201 0.6902 0.8678 0.0
C7682 C 0.56685 0.68729 0.91016 0.0
C7683 C 0.58555 0.71374 0.94347 0.0
C7684 C 0.5788 0.70854 0.92737 0.0
C7685 C 0.56942 0.6885 0.87958 0.0
C7686 C 0.57105 0.6962 0.89598 0.0
H7687 H 0.59883 0.74855 0.96226 0.0
H7688 H 0.58167 0.73988 0.93946 0.0
H7689 H 0.56757 0.68608 0.93633 0.0
H7690 H 0.54519 0.66116 0.85948 0.0
H7691 H 0.54598 0.67688 0.88479 0.0
C7692 C 0.08799 0.79396 0.61358 0.0
C7693 C 0.09937 0.80573 0.60818 0.0
C7694 C 0.07433 0.79891 0.62279 0.0
C7695 C 0.05287 0.83556 0.64028 0.0
H7696 H 0.06144 0.81387 0.68179 0.0
C7697 C 0.03324 0.84839 0.71024 0.0
C7698 C 0.04523 0.8594 0.71599 0.0
C7699 C 0.03498 0.84085 0.69498 0.0
C7700 C 0.05868 0.81981 0.67022 0.0
H7701 H 0.10478 0.83167 0.60618 0.0
H7702 H 0.08097 0.84041 0.62217 0.0
H7703 H 0.07082 0.8011 0.65634 0.0
H7704 H 0.06873 0.87077 0.71073 0.0
H7705 H 0.07176 0.85755 0.68369 0.0
H7706 H 0.0419 0.85494 0.65459 0.0
C7707 C 0.08239 0.82744 0.61941 0.0
C7708 C 0.06383 0.81245 0.65565 0.0
C7709 C 0.09611 0.82248 0.61043 0.0
C7710 C 0.05917 0.86258 0.70635 0.0
C7711 C 0.06086 0.85513 0.69099 0.0
C7712 C 0.04777 0.84295 0.65491 0.0
C7713 C 0.07195 0.81565 0.62652 0.0
C7714 C 0.06167 0.82064 0.64062 0.0
C7715 C 0.04876 0.84422 0.68532 0.0
C7716 C 0.05127 0.83536 0.66991 0.0
H7717 H 0.09036 0.78094 0.61183 0.0
H7718 H 0.06639 0.78961 0.62808 0.0
H7719 H 0.05101 0.84205 0.62883 0.0
H7720 H 0.0226 0.84538 0.71743 0.0
H7721 H 0.02569 0.83226 0.69081 0.0
C7722 C 0.9062 0.29776 0.44875 0.0
C7723 C 0.91265 0.2983 0.46472 0.0
C7724 C 0.91607 0.30136 0.43536 0.0
C7725 C 0.95314 0.32285 0.42296 0.0
H7726 H 0.94682 0.29717 0.38317 0.0
C7727 C 0.98007 0.34727 0.36659 0.0
C7728 C 0.96636 0.35416 0.35876 0.0
C7729 C 0.97809 0.33345 0.37643 0.0
C7730 C 0.94901 0.30411 0.39432 0.0
H7731 H 0.93404 0.30439 0.47939 0.0
H7732 H 0.95144 0.31101 0.45572 0.0
H7733 H 0.93389 0.28828 0.40886 0.0
H7734 H 0.94065 0.35122 0.35268 0.0
H7735 H 0.93703 0.32702 0.37014 0.0
H7736 H 0.96765 0.339 0.40838 0.0
C7737 C 0.93878 0.30741 0.45366 0.0
C7738 C 0.94149 0.29923 0.40891 0.0
C7739 C 0.92883 0.30376 0.46718 0.0
C7740 C 0.95121 0.34606 0.35896 0.0
C7741 C 0.94926 0.33213 0.36869 0.0
C7742 C 0.96086 0.32753 0.4085 0.0
C7743 C 0.93258 0.30569 0.43763 0.0
C7744 C 0.94295 0.30898 0.42316 0.0
C7745 C 0.96239 0.32661 0.37846 0.0
C7746 C 0.95836 0.31855 0.39399 0.0
H7747 H 0.8936 0.29406 0.44652 0.0
H7748 H 0.91075 0.30065 0.42319 0.0
H7749 H 0.95425 0.33073 0.43363 0.0
H7750 H 0.99191 0.35339 0.36626 0.0
H7751 H 0.98832 0.32931 0.38389 0.0
C7752 C 0.4646 0.84594 0.31134 0.0
C7753 C 0.47042 0.86214 0.31217 0.0
C7754 C 0.45909 0.83814 0.32566 0.0
C7755 C 0.45064 0.84633 0.3705 0.0
H7756 H 0.46081 0.79993 0.37366 0.0
C7757 C 0.42379 0.80579 0.41954 0.0
C7758 C 0.42976 0.78969 0.42117 0.0
C7759 C 0.43218 0.81701 0.4098 0.0
C7760 C 0.4584 0.81302 0.37326 0.0
H7761 H 0.47331 0.8834 0.32802 0.0
H7762 H 0.46505 0.86992 0.35256 0.0
H7763 H 0.46583 0.81407 0.34821 0.0
H7764 H 0.45045 0.77345 0.41671 0.0
H7765 H 0.46583 0.79347 0.40052 0.0
H7766 H 0.44452 0.84562 0.3959 0.0
C7767 C 0.46423 0.86302 0.34124 0.0
C7768 C 0.46076 0.82105 0.35836 0.0
C7769 C 0.46926 0.87079 0.32704 0.0
C7770 C 0.4455 0.78575 0.41523 0.0
C7771 C 0.45415 0.79716 0.40582 0.0
C7772 C 0.44896 0.83848 0.38556 0.0
C7773 C 0.45958 0.84642 0.34093 0.0
C7774 C 0.45659 0.83774 0.35667 0.0
C7775 C 0.44683 0.81234 0.40177 0.0
C7776 C 0.45227 0.82158 0.38703 0.0
H7777 H 0.46512 0.83908 0.29994 0.0
H7778 H 0.455 0.8255 0.32482 0.0
H7779 H 0.44701 0.85913 0.36977 0.0
H7780 H 0.41168 0.80915 0.42409 0.0
H7781 H 0.42607 0.82855 0.40721 0.0
C7782 C 0.97744 0.69396 0.16504 0.0
C7783 C 0.97521 0.67797 0.17113 0.0
C7784 C 0.96511 0.70128 0.15566 0.0
C7785 C 0.94286 0.68499 0.12399 0.0
H7786 H 0.924 0.72821 0.11705 0.0
C7787 C 0.91536 0.70503 0.0617 0.0
C7788 C 0.91699 0.72169 0.05771 0.0
C7789 C 0.92048 0.69943 0.07707 0.0
C7790 C 0.92939 0.71613 0.11874 0.0
H7791 H 0.95768 0.65809 0.17431 0.0
H7792 H 0.93639 0.67079 0.15761 0.0
H7793 H 0.93404 0.72071 0.14428 0.0
H7794 H 0.92501 0.74555 0.06631 0.0
H7795 H 0.93571 0.7356 0.09214 0.0
H7796 H 0.93969 0.68075 0.09837 0.0
C7797 C 0.94751 0.67766 0.1602 0.0
C7798 C 0.93483 0.71182 0.13438 0.0
C7799 C 0.95973 0.67042 0.16971 0.0
C7800 C 0.92452 0.73248 0.06878 0.0
C7801 C 0.93005 0.72686 0.08385 0.0
C7802 C 0.93781 0.68941 0.10831 0.0
C7803 C 0.95065 0.69255 0.15218 0.0
C7804 C 0.94182 0.69631 0.13699 0.0
C7805 C 0.92741 0.71045 0.0885 0.0
C7806 C 0.93139 0.70518 0.10542 0.0
H7807 H 0.98921 0.70009 0.16624 0.0
H7808 H 0.96772 0.71282 0.14953 0.0
H7809 H 0.94857 0.67305 0.12573 0.0
H7810 H 0.90886 0.69672 0.05358 0.0
H7811 H 0.91812 0.68673 0.0803 0.0
C7812 C 0.09859 0.22763 0.90831 0.0
C7813 C 0.10899 0.21589 0.91543 0.0
C7814 C 0.08562 0.22251 0.89843 0.0
C7815 C 0.06339 0.18699 0.88149 0.0
H7816 H 0.07791 0.20453 0.83955 0.0
C7817 C 0.03422 0.1705 0.81981 0.0
C7818 C 0.04506 0.16366 0.80811 0.0
C7819 C 0.04021 0.17801 0.83382 0.0
C7820 C 0.07377 0.19959 0.85119 0.0
H7821 H 0.11326 0.19003 0.91991 0.0
H7822 H 0.09052 0.18094 0.90251 0.0
H7823 H 0.08807 0.21667 0.86498 0.0
H7824 H 0.07072 0.15959 0.80184 0.0
H7825 H 0.08132 0.17319 0.82663 0.0
H7826 H 0.04938 0.16966 0.86753 0.0
C7827 C 0.09227 0.194 0.90451 0.0
C7828 C 0.07929 0.20668 0.86569 0.0
C7829 C 0.10533 0.19913 0.91426 0.0
C7830 C 0.06211 0.16497 0.8105 0.0
C7831 C 0.06814 0.1726 0.82466 0.0
C7832 C 0.05766 0.18006 0.86694 0.0
C7833 C 0.08309 0.20565 0.89568 0.0
C7834 C 0.07437 0.20025 0.88092 0.0
C7835 C 0.05713 0.17884 0.83648 0.0
C7836 C 0.06308 0.18616 0.85175 0.0
H7837 H 0.10128 0.24065 0.90933 0.0
H7838 H 0.07854 0.23164 0.89178 0.0
H7839 H 0.05965 0.18174 0.89313 0.0
H7840 H 0.02099 0.16969 0.81845 0.0
H7841 H 0.03159 0.18302 0.84271 0.0
C7842 C 0.54952 0.33783 0.66415 0.0
C7843 C 0.55859 0.35033 0.67176 0.0
C7844 C 0.55756 0.32645 0.65412 0.0
C7845 C 0.58619 0.33716 0.62529 0.0
H7846 H 0.58242 0.29342 0.60669 0.0
C7847 C 0.61564 0.31825 0.56464 0.0
C7848 C 0.60756 0.30661 0.55494 0.0
C7849 C 0.60883 0.32312 0.57952 0.0
C7850 C 0.58328 0.30573 0.61173 0.0
H7851 H 0.58291 0.35936 0.67755 0.0
H7852 H 0.59702 0.3395 0.6599 0.0
H7853 H 0.57496 0.29807 0.63559 0.0
H7854 H 0.58551 0.29215 0.55185 0.0
H7855 H 0.57335 0.30068 0.57811 0.0
H7856 H 0.59366 0.34514 0.60152 0.0
C7857 C 0.58384 0.33837 0.66165 0.0
C7858 C 0.57935 0.30827 0.62825 0.0
C7859 C 0.5758 0.34976 0.67164 0.0
C7860 C 0.59185 0.30112 0.55932 0.0
C7861 C 0.58505 0.30583 0.57435 0.0
C7862 C 0.58988 0.33469 0.60886 0.0
C7863 C 0.57457 0.32789 0.65154 0.0
C7864 C 0.58093 0.324 0.63512 0.0
C7865 C 0.5939 0.31627 0.58488 0.0
C7866 C 0.58853 0.31898 0.60193 0.0
H7867 H 0.53617 0.33815 0.66427 0.0
H7868 H 0.55021 0.31837 0.6465 0.0
H7869 H 0.58685 0.34956 0.63016 0.0
H7870 H 0.62782 0.32256 0.56134 0.0
H7871 H 0.61592 0.3312 0.58737 0.0
C7872 C 0.10331 0.41407 0.21258 0.0
C7873 C 0.09288 0.41169 0.19896 0.0
C7874 C 0.1181 0.4226 0.2109 0.0
C7875 C 0.14956 0.42659 0.18154 0.0
H7876 H 0.16503 0.46662 0.20243 0.0
C7877 C 0.19999 0.46454 0.15342 0.0
C7878 C 0.21222 0.47135 0.16331 0.0
C7879 C 0.18661 0.4567 0.16049 0.0
C7880 C 0.16097 0.45523 0.19682 0.0
H7881 H 0.08928 0.41713 0.17323 0.0
H7882 H 0.11547 0.43178 0.17018 0.0
H7883 H 0.13792 0.45528 0.20993 0.0
H7884 H 0.22038 0.47574 0.1882 0.0
H7885 H 0.19665 0.46169 0.20086 0.0
H7886 H 0.17227 0.42638 0.16838 0.0
C7887 C 0.11205 0.427 0.18212 0.0
C7888 C 0.14549 0.44887 0.20099 0.0
C7889 C 0.09723 0.41852 0.1838 0.0
C7890 C 0.21106 0.47025 0.18044 0.0
C7891 C 0.19752 0.46239 0.18762 0.0
C7892 C 0.16496 0.43277 0.17755 0.0
C7893 C 0.12273 0.42873 0.19556 0.0
C7894 C 0.13952 0.43485 0.19287 0.0
C7895 C 0.1852 0.45554 0.17763 0.0
C7896 C 0.17054 0.44748 0.18463 0.0
H7897 H 0.10031 0.40882 0.22443 0.0
H7898 H 0.12627 0.42367 0.22134 0.0
H7899 H 0.14528 0.41553 0.17546 0.0
H7900 H 0.20059 0.46568 0.1402 0.0
H7901 H 0.1771 0.45189 0.1525 0.0
C7902 C 0.3071 0.46485 0.93312 0.0
C7903 C 0.30421 0.46267 0.91624 0.0
C7904 C 0.31379 0.45193 0.94245 0.0
C7905 C 0.33944 0.41544 0.93946 0.0
H7906 H 0.31099 0.39307 0.97052 0.0
C7907 C 0.33337 0.34552 0.95471 0.0
C7908 C 0.34866 0.34153 0.96181 0.0
C7909 C 0.32789 0.36185 0.95426 0.0
C7910 C 0.31915 0.39938 0.96211 0.0
H7911 H 0.30656 0.44565 0.89585 0.0
H7912 H 0.31878 0.42362 0.91185 0.0
H7913 H 0.30295 0.42023 0.95972 0.0
H7914 H 0.36962 0.35159 0.97495 0.0
H7915 H 0.36004 0.38009 0.9739 0.0
H7916 H 0.35533 0.39445 0.94133 0.0
C7917 C 0.31569 0.43509 0.91794 0.0
C7918 C 0.31463 0.41489 0.95603 0.0
C7919 C 0.30869 0.44772 0.90879 0.0
C7920 C 0.35776 0.35414 0.96944 0.0
C7921 C 0.35233 0.37048 0.96883 0.0
C7922 C 0.34411 0.40018 0.94578 0.0
C7923 C 0.31809 0.43695 0.93486 0.0
C7924 C 0.3245 0.42276 0.94424 0.0
C7925 C 0.3376 0.3745 0.96082 0.0
C7926 C 0.33378 0.39181 0.95676 0.0
H7927 H 0.30363 0.47623 0.93917 0.0
H7928 H 0.31553 0.45358 0.95552 0.0
H7929 H 0.34714 0.42119 0.93025 0.0
H7930 H 0.32595 0.33611 0.94892 0.0
H7931 H 0.31655 0.36472 0.94786 0.0
C7932 C 0.42218 0.59404 0.70911 0.0
C7933 C 0.42302 0.59067 0.72597 0.0
C7934 C 0.41364 0.58342 0.69882 0.0
C7935 C 0.37623 0.56404 0.7088 0.0
H7936 H 0.37059 0.56016 0.66173 0.0
C7937 C 0.31858 0.54002 0.6774 0.0
C7938 C 0.312 0.54968 0.6648 0.0
C7939 C 0.33338 0.54433 0.68458 0.0
C7940 C 0.37212 0.56139 0.67488 0.0
H7941 H 0.41929 0.57225 0.74474 0.0
H7942 H 0.40465 0.5534 0.7266 0.0
H7943 H 0.39839 0.56344 0.67312 0.0
H7944 H 0.31507 0.57155 0.64996 0.0
H7945 H 0.34159 0.57906 0.66252 0.0
H7946 H 0.35007 0.56227 0.71059 0.0
C7947 C 0.41002 0.56443 0.72143 0.0
C7948 C 0.38793 0.56297 0.68137 0.0
C7949 C 0.41827 0.5752 0.73182 0.0
C7950 C 0.31994 0.56415 0.65989 0.0
C7951 C 0.33507 0.56828 0.66685 0.0
C7952 C 0.36057 0.5624 0.70235 0.0
C7953 C 0.40594 0.5695 0.70545 0.0
C7954 C 0.39009 0.56438 0.69841 0.0
C7955 C 0.34196 0.55813 0.67895 0.0
C7956 C 0.35842 0.56118 0.68539 0.0
H7957 H 0.42604 0.60584 0.7043 0.0
H7958 H 0.41097 0.5875 0.68646 0.0
H7959 H 0.37736 0.5658 0.72193 0.0
H7960 H 0.3127 0.52866 0.68111 0.0
H7961 H 0.3386 0.53635 0.69386 0.0
C7962 C 0.18937 0.6817 0.45299 0.0
C7963 C 0.1739 0.68475 0.4601 0.0
C7964 C 0.19629 0.66598 0.45335 0.0
C7965 C 0.18348 0.62259 0.45649 0.0
H7966 H 0.23038 0.61626 0.4504 0.0
C7967 C 0.20896 0.57015 0.41706 0.0
C7968 C 0.22535 0.56508 0.41882 0.0
C7969 C 0.20256 0.58258 0.42709 0.0
C7970 C 0.21727 0.61753 0.45244 0.0
H7971 H 0.15404 0.67365 0.47417 0.0
H7972 H 0.16651 0.64646 0.47548 0.0
H7973 H 0.22023 0.64236 0.46048 0.0
H7974 H 0.24757 0.56795 0.43311 0.0
H7975 H 0.23619 0.58884 0.45137 0.0
H7976 H 0.18055 0.59759 0.4489 0.0
C7977 C 0.17307 0.65615 0.46915 0.0
C7978 C 0.21141 0.63271 0.45798 0.0
C7979 C 0.16602 0.67186 0.46858 0.0
C7980 C 0.23495 0.57185 0.4314 0.0
C7981 C 0.22842 0.58392 0.44177 0.0
C7982 C 0.18937 0.60725 0.45132 0.0
C7983 C 0.18807 0.65288 0.4611 0.0
C7984 C 0.1944 0.63574 0.45919 0.0
C7985 C 0.2123 0.5899 0.4394 0.0
C7986 C 0.20629 0.60478 0.44837 0.0
H7987 H 0.19599 0.69137 0.44668 0.0
H7988 H 0.20775 0.66401 0.44681 0.0
H7989 H 0.17028 0.62435 0.45735 0.0
H7990 H 0.20134 0.5651 0.40739 0.0
H7991 H 0.19022 0.58695 0.42458 0.0
C7992 C 0.10605 0.60711 0.30829 0.0
C7993 C 0.0932 0.59774 0.31515 0.0
C7994 C 0.12218 0.60111 0.30811 0.0
C7995 C 0.14756 0.56357 0.31422 0.0
H7996 H 0.17924 0.59399 0.33278 0.0
C7997 C 0.20043 0.54323 0.35463 0.0
C7998 C 0.21531 0.55197 0.35501 0.0
C7999 C 0.18767 0.54815 0.34441 0.0
C8000 C 0.17074 0.58543 0.32715 0.0
H8001 H 0.08717 0.57436 0.32641 0.0
H8002 H 0.11538 0.56407 0.3265 0.0
H8003 H 0.15214 0.60394 0.3248 0.0
H8004 H 0.22898 0.5721 0.34424 0.0
H8005 H 0.20633 0.58104 0.32634 0.0
H8006 H 0.16593 0.54492 0.3173 0.0
C8007 C 0.11294 0.57599 0.32107 0.0
C8008 C 0.15516 0.59113 0.32262 0.0
C8009 C 0.09679 0.58197 0.32123 0.0
C8010 C 0.21757 0.56525 0.34425 0.0
C8011 C 0.20462 0.57035 0.33407 0.0
C8012 C 0.16316 0.55789 0.3187 0.0
C8013 C 0.12586 0.58563 0.3148 0.0
C8014 C 0.14319 0.58013 0.3167 0.0
C8015 C 0.18941 0.56202 0.33433 0.0
C8016 C 0.17467 0.56864 0.32585 0.0
H8017 H 0.10381 0.61939 0.30365 0.0
H8018 H 0.13185 0.60876 0.30308 0.0
H8019 H 0.1387 0.55488 0.30939 0.0
H8020 H 0.19843 0.53276 0.36259 0.0
H8021 H 0.17611 0.54157 0.34511 0.0
C8022 C 0.16805 0.3535 0.05985 0.0
C8023 C 0.17517 0.34034 0.0686 0.0
C8024 C 0.17518 0.36923 0.06019 0.0
C8025 C 0.21289 0.39181 0.07542 0.0
H8026 H 0.18307 0.42901 0.07637 0.0
C8027 C 0.23673 0.45369 0.09907 0.0
C8028 C 0.22573 0.46442 0.1069 0.0
C8029 C 0.23099 0.44045 0.08979 0.0
C8030 C 0.19163 0.4188 0.07649 0.0
H8031 H 0.1962 0.33339 0.08346 0.0
H8032 H 0.20767 0.36054 0.08521 0.0
H8033 H 0.17271 0.4021 0.0692 0.0
H8034 H 0.20003 0.47012 0.11089 0.0
H8035 H 0.18983 0.44604 0.09644 0.0
H8036 H 0.23137 0.40772 0.08444 0.0
C8037 C 0.19687 0.35892 0.07765 0.0
C8038 C 0.18569 0.40325 0.07193 0.0
C8039 C 0.19 0.34322 0.07697 0.0
C8040 C 0.20878 0.46194 0.10499 0.0
C8041 C 0.20297 0.44812 0.09645 0.0
C8042 C 0.21866 0.40713 0.08059 0.0
C8043 C 0.18947 0.3723 0.0695 0.0
C8044 C 0.19614 0.38938 0.07181 0.0
C8045 C 0.21401 0.43687 0.08896 0.0
C8046 C 0.20809 0.42091 0.08159 0.0
H8047 H 0.15662 0.35189 0.05323 0.0
H8048 H 0.16926 0.37902 0.0534 0.0
H8049 H 0.22161 0.38174 0.07484 0.0
H8050 H 0.24988 0.45538 0.10033 0.0
H8051 H 0.24008 0.43287 0.08369 0.0
C8052 C 0.31685 0.45729 0.85812 0.0
C8053 C 0.31182 0.47369 0.85635 0.0
C8054 C 0.3298 0.45106 0.84863 0.0
C8055 C 0.36575 0.46655 0.82487 0.0
H8056 H 0.37414 0.41979 0.82061 0.0
C8057 C 0.43112 0.44112 0.82494 0.0
C8058 C 0.43486 0.42572 0.81799 0.0
C8059 C 0.41508 0.44729 0.82468 0.0
C8060 C 0.37197 0.43292 0.82131 0.0
H8061 H 0.31508 0.49597 0.84224 0.0
H8062 H 0.33677 0.48485 0.8248 0.0
H8063 H 0.3468 0.42929 0.82807 0.0
H8064 H 0.42452 0.40517 0.80436 0.0
H8065 H 0.39674 0.41635 0.80316 0.0
H8066 H 0.39069 0.47022 0.81749 0.0
C8067 C 0.33154 0.47698 0.83414 0.0
C8068 C 0.35628 0.43839 0.82593 0.0
C8069 C 0.31898 0.48335 0.84402 0.0
C8070 C 0.42222 0.41711 0.80983 0.0
C8071 C 0.40616 0.42343 0.80933 0.0
C8072 C 0.38128 0.4611 0.81985 0.0
C8073 C 0.33766 0.46096 0.83677 0.0
C8074 C 0.35316 0.45525 0.82858 0.0
C8075 C 0.40227 0.43841 0.81715 0.0
C8076 C 0.38488 0.44419 0.81885 0.0
H8077 H 0.31141 0.44957 0.86746 0.0
H8078 H 0.33414 0.43875 0.85127 0.0
H8079 H 0.36405 0.47963 0.82673 0.0
H8080 H 0.44053 0.44832 0.83099 0.0
H8081 H 0.41267 0.45874 0.83106 0.0
C8082 C 0.32803 0.67955 0.56974 0.0
C8083 C 0.34504 0.68053 0.56705 0.0
C8084 C 0.32033 0.66427 0.57082 0.0
C8085 C 0.32746 0.61871 0.56747 0.0
H8086 H 0.29721 0.61799 0.60441 0.0
C8087 C 0.31511 0.56361 0.61084 0.0
C8088 C 0.29861 0.55857 0.61194 0.0
C8089 C 0.31928 0.578 0.6025 0.0
C8090 C 0.30546 0.61807 0.59393 0.0
H8091 H 0.36726 0.66654 0.5622 0.0
H8092 H 0.35405 0.63977 0.56482 0.0
H8093 H 0.30691 0.64421 0.59391 0.0
H8094 H 0.27366 0.5644 0.60465 0.0
H8095 H 0.28085 0.58989 0.59058 0.0
H8096 H 0.32675 0.5923 0.56852 0.0
C8097 C 0.34646 0.6507 0.56573 0.0
C8098 C 0.31094 0.63308 0.58778 0.0
C8099 C 0.35409 0.66604 0.56432 0.0
C8100 C 0.28642 0.56798 0.6042 0.0
C8101 C 0.29052 0.58257 0.59613 0.0
C8102 C 0.32219 0.60366 0.57387 0.0
C8103 C 0.32959 0.64964 0.56968 0.0
C8104 C 0.32223 0.63363 0.57462 0.0
C8105 C 0.30699 0.5876 0.59516 0.0
C8106 C 0.31133 0.60329 0.58728 0.0
H8107 H 0.3208 0.69063 0.57159 0.0
H8108 H 0.30723 0.66394 0.5733 0.0
H8109 H 0.33591 0.61864 0.55717 0.0
H8110 H 0.32483 0.55635 0.61638 0.0
H8111 H 0.33206 0.58176 0.60197 0.0
C8112 C 0.21801 0.10555 0.43095 0.0
C8113 C 0.20778 0.10177 0.41753 0.0
C8114 C 0.21217 0.11528 0.44372 0.0
C8115 C 0.17632 0.13893 0.45878 0.0
H8116 H 0.20547 0.17618 0.45232 0.0
C8117 C 0.15137 0.20395 0.46132 0.0
C8118 C 0.16076 0.21561 0.46972 0.0
C8119 C 0.1583 0.18882 0.45727 0.0
C8120 C 0.19732 0.16589 0.45459 0.0
H8121 H 0.18299 0.10337 0.40792 0.0
H8122 H 0.17289 0.12099 0.42999 0.0
H8123 H 0.21498 0.14875 0.44549 0.0
H8124 H 0.18472 0.22172 0.4793 0.0
H8125 H 0.1969 0.19508 0.47273 0.0
H8126 H 0.15843 0.15623 0.46728 0.0
C8127 C 0.18534 0.11622 0.43075 0.0
C8128 C 0.20281 0.15014 0.45082 0.0
C8129 C 0.19116 0.10641 0.41797 0.0
C8130 C 0.17742 0.21271 0.47283 0.0
C8131 C 0.18431 0.19749 0.46907 0.0
C8132 C 0.17086 0.1547 0.4627 0.0
C8133 C 0.19613 0.12157 0.44311 0.0
C8134 C 0.19208 0.13667 0.45215 0.0
C8135 C 0.17457 0.18516 0.46193 0.0
C8136 C 0.18108 0.16837 0.45989 0.0
H8137 H 0.23094 0.10223 0.43096 0.0
H8138 H 0.22065 0.11923 0.4532 0.0
H8139 H 0.16791 0.12867 0.45997 0.0
H8140 H 0.13837 0.20601 0.45911 0.0
H8141 H 0.15069 0.17971 0.45125 0.0
C8142 C 0.67695 0.32441 0.53639 0.0
C8143 C 0.66602 0.31537 0.54614 0.0
C8144 C 0.68662 0.33681 0.54318 0.0
C8145 C 0.69614 0.35867 0.58322 0.0
H8146 H 0.7054 0.39425 0.55306 0.0
C8147 C 0.71556 0.42313 0.60666 0.0
C8148 C 0.70802 0.43648 0.59855 0.0
C8149 C 0.71495 0.40723 0.59998 0.0
C8150 C 0.70277 0.38454 0.56175 0.0
H8151 H 0.65669 0.31217 0.57083 0.0
H8152 H 0.67213 0.33493 0.58246 0.0
H8153 H 0.69492 0.36882 0.54261 0.0
H8154 H 0.69481 0.44356 0.57656 0.0
H8155 H 0.6928 0.41608 0.56556 0.0
H8156 H 0.70236 0.37541 0.60252 0.0
C8157 C 0.67415 0.33193 0.56968 0.0
C8158 C 0.69704 0.36958 0.55567 0.0
C8159 C 0.66506 0.31892 0.56297 0.0
C8160 C 0.70044 0.4336 0.58335 0.0
C8161 C 0.6996 0.41775 0.57685 0.0
C8162 C 0.70134 0.37392 0.58936 0.0
C8163 C 0.68493 0.34129 0.55981 0.0
C8164 C 0.69316 0.35648 0.56631 0.0
C8165 C 0.70663 0.40427 0.58514 0.0
C8166 C 0.70413 0.38725 0.57871 0.0
H8167 H 0.67795 0.3221 0.5234 0.0
H8168 H 0.69516 0.34303 0.53513 0.0
H8169 H 0.69397 0.34883 0.59187 0.0
H8170 H 0.72143 0.42478 0.61846 0.0
H8171 H 0.72073 0.39725 0.60663 0.0
C8172 C 0.45981 0.91808 0.31558 0.0
C8173 C 0.46325 0.91838 0.29872 0.0
C8174 C 0.44637 0.9269 0.3219 0.0
C8175 C 0.40723 0.94582 0.30662 0.0
H8176 H 0.40051 0.95348 0.35306 0.0
C8177 C 0.34258 0.94665 0.33408 0.0
C8178 C 0.33921 0.95506 0.34879 0.0
C8179 C 0.3585 0.94623 0.32761 0.0
C8180 C 0.40219 0.95179 0.33998 0.0
H8181 H 0.45654 0.92949 0.2756 0.0
H8182 H 0.43461 0.9463 0.2867 0.0
H8183 H 0.42786 0.94689 0.343 0.0
H8184 H 0.35015 0.97031 0.36783 0.0
H8185 H 0.37759 0.97046 0.35595 0.0
H8186 H 0.38182 0.95156 0.30346 0.0
C8187 C 0.44123 0.93832 0.29501 0.0
C8188 C 0.41792 0.94765 0.33421 0.0
C8189 C 0.45411 0.9289 0.28862 0.0
C8190 C 0.35211 0.9638 0.35639 0.0
C8191 C 0.36801 0.96365 0.34971 0.0
C8192 C 0.39168 0.95042 0.3123 0.0
C8193 C 0.43652 0.93677 0.31158 0.0
C8194 C 0.42056 0.94395 0.31751 0.0
C8195 C 0.37152 0.95455 0.33542 0.0
C8196 C 0.38873 0.95272 0.32915 0.0
H8197 H 0.46685 0.91031 0.32372 0.0
H8198 H 0.44329 0.92519 0.3347 0.0
H8199 H 0.40841 0.94298 0.2937 0.0
H8200 H 0.33298 0.94006 0.32765 0.0
H8201 H 0.36061 0.93883 0.31675 0.0
C8202 C 0.81696 0.60212 0.10541 0.0
C8203 C 0.80095 0.60167 0.09889 0.0
C8204 C 0.82948 0.60999 0.09691 0.0
C8205 C 0.8411 0.6335 0.06056 0.0
H8206 H 0.84308 0.67026 0.09106 0.0
C8207 C 0.85041 0.69888 0.03815 0.0
C8208 C 0.86103 0.70909 0.04703 0.0
C8209 C 0.84559 0.68383 0.04455 0.0
C8210 C 0.84307 0.66003 0.08251 0.0
H8211 H 0.78597 0.60676 0.07751 0.0
H8212 H 0.80788 0.62108 0.06278 0.0
H8213 H 0.83324 0.64377 0.10047 0.0
H8214 H 0.87418 0.71231 0.06992 0.0
H8215 H 0.86582 0.68586 0.0812 0.0
H8216 H 0.85065 0.64994 0.04248 0.0
C8217 C 0.81072 0.61524 0.07438 0.0
C8218 C 0.83751 0.64485 0.08791 0.0
C8219 C 0.79814 0.60736 0.08291 0.0
C8220 C 0.86586 0.70464 0.06291 0.0
C8221 C 0.86118 0.68947 0.06928 0.0
C8222 C 0.84698 0.64866 0.0552 0.0
C8223 C 0.82607 0.61758 0.08189 0.0
C8224 C 0.83599 0.63167 0.07685 0.0
C8225 C 0.85145 0.67872 0.0599 0.0
C8226 C 0.84739 0.6622 0.06601 0.0
H8227 H 0.8195 0.5978 0.11772 0.0
H8228 H 0.84128 0.61174 0.10284 0.0
H8229 H 0.83988 0.62345 0.05189 0.0
H8230 H 0.84653 0.70209 0.0259 0.0
H8231 H 0.83762 0.67602 0.03729 0.0
C8232 C 0.57132 0.59733 0.28494 0.0
C8233 C 0.56038 0.60535 0.29564 0.0
C8234 C 0.58579 0.59054 0.29063 0.0
C8235 C 0.61435 0.59556 0.32479 0.0
H8236 H 0.63679 0.55929 0.30315 0.0
C8237 C 0.6726 0.57511 0.35232 0.0
C8238 C 0.67133 0.5584 0.3561 0.0
C8239 C 0.66382 0.58141 0.33908 0.0
C8240 C 0.63073 0.56949 0.30927 0.0
H8241 H 0.55495 0.61081 0.32111 0.0
H8242 H 0.58036 0.5982 0.33147 0.0
H8243 H 0.60878 0.56603 0.29548 0.0
H8244 H 0.66242 0.53463 0.34825 0.0
H8245 H 0.64633 0.54551 0.32581 0.0
H8246 H 0.63554 0.59802 0.33973 0.0
C8247 C 0.57794 0.5979 0.3184 0.0
C8248 C 0.61467 0.57341 0.30484 0.0
C8249 C 0.56336 0.60495 0.31256 0.0
C8250 C 0.66319 0.54765 0.34549 0.0
C8251 C 0.65413 0.55394 0.33251 0.0
C8252 C 0.6302 0.59133 0.32956 0.0
C8253 C 0.5896 0.59125 0.30733 0.0
C8254 C 0.60625 0.5864 0.31268 0.0
C8255 C 0.65321 0.57107 0.33013 0.0
C8256 C 0.63846 0.578 0.32212 0.0
H8257 H 0.56903 0.59678 0.2719 0.0
H8258 H 0.59437 0.58563 0.28167 0.0
H8259 H 0.60843 0.60596 0.33071 0.0
H8260 H 0.67921 0.58343 0.36034 0.0
H8261 H 0.6639 0.59457 0.33704 0.0
C8262 C 0.35835 0.81754 0.96275 0.0
C8263 C 0.35685 0.81335 0.97937 0.0
C8264 C 0.34921 0.83062 0.95629 0.0
C8265 C 0.32687 0.86809 0.97083 0.0
H8266 H 0.32036 0.87393 0.92414 0.0
C8267 C 0.32513 0.93199 0.94256 0.0
C8268 C 0.31715 0.93494 0.92758 0.0
C8269 C 0.32551 0.91625 0.94932 0.0
C8270 C 0.32171 0.87246 0.93726 0.0
H8271 H 0.34394 0.81877 1.00197 0.0
H8272 H 0.327 0.84046 0.99057 0.0
H8273 H 0.32827 0.8471 0.93458 0.0
H8274 H 0.30246 0.92352 0.90841 0.0
H8275 H 0.30237 0.89626 0.9207 0.0
H8276 H 0.31964 0.89318 0.97363 0.0
C8277 C 0.33582 0.83442 0.98259 0.0
C8278 C 0.32659 0.85707 0.94325 0.0
C8279 C 0.34538 0.82177 0.98915 0.0
C8280 C 0.30869 0.92183 0.92002 0.0
C8281 C 0.30884 0.90607 0.92695 0.0
C8282 C 0.32159 0.88329 0.96491 0.0
C8283 C 0.33801 0.83949 0.96622 0.0
C8284 C 0.32996 0.85485 0.96006 0.0
C8285 C 0.31761 0.90299 0.9415 0.0
C8286 C 0.31974 0.88595 0.94797 0.0
H8287 H 0.3672 0.81127 0.95495 0.0
H8288 H 0.35155 0.83418 0.94372 0.0
H8289 H 0.32933 0.86713 0.98383 0.0
H8290 H 0.33147 0.9418 0.94896 0.0
H8291 H 0.33264 0.91445 0.96038 0.0
C8292 C 0.35376 0.06464 0.17257 0.0
C8293 C 0.35486 0.04855 0.17884 0.0
C8294 C 0.36186 0.07749 0.18035 0.0
C8295 C 0.38751 0.08984 0.2151 0.0
H8296 H 0.42097 0.0974 0.1818 0.0
C8297 C 0.45315 0.09951 0.23351 0.0
C8298 C 0.46298 0.11104 0.22535 0.0
C8299 C 0.43801 0.09503 0.22724 0.0
C8300 C 0.41159 0.09587 0.19115 0.0
H8301 H 0.36314 0.0337 0.1993 0.0
H8302 H 0.37774 0.05622 0.21274 0.0
H8303 H 0.39451 0.0859 0.17397 0.0
H8304 H 0.46501 0.12676 0.20403 0.0
H8305 H 0.43787 0.11927 0.19309 0.0
H8306 H 0.40471 0.09941 0.23237 0.0
C8307 C 0.37056 0.05884 0.20186 0.0
C8308 C 0.39644 0.08933 0.18668 0.0
C8309 C 0.36246 0.04592 0.19406 0.0
C8310 C 0.45773 0.11755 0.21032 0.0
C8311 C 0.44219 0.1134 0.2042 0.0
C8312 C 0.40254 0.09669 0.21953 0.0
C8313 C 0.37118 0.07441 0.19443 0.0
C8314 C 0.38463 0.08558 0.19873 0.0
C8315 C 0.43199 0.10253 0.21299 0.0
C8316 C 0.41504 0.09888 0.20772 0.0
H8317 H 0.34801 0.06708 0.16085 0.0
H8318 H 0.36217 0.08946 0.17452 0.0
H8319 H 0.37851 0.08705 0.22453 0.0
H8320 H 0.45659 0.09472 0.24539 0.0
H8321 H 0.43072 0.08617 0.23399 0.0
C8322 C 0.18185 0.95491 0.69271 0.0
C8323 C 0.18442 0.95915 0.67623 0.0
C8324 C 0.16592 0.95293 0.69877 0.0
C8325 C 0.12121 0.95746 0.69063 0.0
H8326 H 0.11978 0.91519 0.71263 0.0
C8327 C 0.06253 0.91757 0.70804 0.0
C8328 C 0.06274 0.91249 0.72453 0.0
C8329 C 0.07602 0.92607 0.70134 0.0
C8330 C 0.11998 0.92703 0.70654 0.0
H8331 H 0.17236 0.96619 0.65356 0.0
H8332 H 0.1444 0.96244 0.66415 0.0
H8333 H 0.14602 0.92608 0.70351 0.0
H8334 H 0.0771 0.91334 0.74712 0.0
H8335 H 0.10025 0.92759 0.73542 0.0
H8336 H 0.09485 0.9581 0.69375 0.0
C8337 C 0.15472 0.96072 0.67237 0.0
C8338 C 0.13502 0.93335 0.70145 0.0
C8339 C 0.17072 0.96282 0.66632 0.0
C8340 C 0.07639 0.91675 0.7343 0.0
C8341 C 0.08975 0.92502 0.72764 0.0
C8342 C 0.106 0.95104 0.69576 0.0
C8343 C 0.15222 0.95495 0.68842 0.0
C8344 C 0.13589 0.94874 0.69369 0.0
C8345 C 0.08991 0.92941 0.71105 0.0
C8346 C 0.10537 0.93587 0.70398 0.0
H8347 H 0.19219 0.9524 0.7007 0.0
H8348 H 0.16433 0.94891 0.71134 0.0
H8349 H 0.12153 0.96931 0.68458 0.0
H8350 H 0.05228 0.91452 0.7002 0.0
H8351 H 0.07592 0.92934 0.68846 0.0
loop_
_geom_bond_atom_site_label_1
_geom_bond_atom_site_label_2
_geom_bond_distance
_geom_bond_site_symmetry_2
_ccdc_geom_bond_type
Tb0 N29 2.617 . S
Tb0 N35 2.572 . S
Tb0 O44 2.465 . S
Tb0 O45 2.387 . S
Tb0 O47 2.428 . S
Tb0 O48 2.308 . S
Tb0 O52 2.349 . S
Tb0 O55 2.393 . S
Tb0 C64 2.802 . S
C1 N2 1.355 1_655 S
C1 C4 1.416 . S
C1 C8 1.424 . S
N2 C1 1.355 1_455 S
N2 C5 1.352 . S
N2 Tb11 2.624 . S
C3 C5 1.390 . S
C3 C6 1.339 1_455 S
C3 H23 0.930 . S
C4 C1 1.416 . S
C4 C6 1.416 . S
C4 C10 1.448 . S
C5 N2 1.352 . S
C5 C3 1.390 . S
C5 H16 0.930 . S
C6 C3 1.339 1_655 S
C6 C4 1.416 . S
C6 H27 0.930 . S
C7 C8 1.413 . S
C7 C9 1.427 . S
C7 C13 1.416 . S
C8 C1 1.424 . S
C8 C7 1.413 . S
C8 N12 1.361 . S
C9 C7 1.427 . S
C9 C10 1.328 . S
C9 H24 0.929 . S
C10 C4 1.448 . S
C10 C9 1.328 . S
C10 H25 0.930 . S
Tb11 N2 2.624 . S
Tb11 N12 2.572 1_455 S
Tb11 O46 2.349 . S
Tb11 O49 2.393 . S
Tb11 O50 2.465 1_455 S
Tb11 O51 2.387 . S
Tb11 O53 2.428 . S
Tb11 O54 2.308 . S
Tb11 C75 2.802 1_455 S
N12 C8 1.361 . S
N12 Tb11 2.572 1_655 S
N12 C14 1.340 . S
C13 C7 1.416 . S
C13 C15 1.332 . S
C13 H21 0.931 . S
C14 N12 1.340 . S
C14 C15 1.407 . S
C14 H20 0.930 . S
C15 C13 1.332 . S
C15 C14 1.407 . S
C15 H17 0.929 . S
H16 C5 0.930 . S
H17 C15 0.929 . S
H18 C33 0.930 . S
H19 C40 0.929 . S
H20 C14 0.930 . S
H21 C13 0.931 . S
H22 C36 0.930 . S
H23 C3 0.930 . S
H24 C9 0.929 . S
H25 C10 0.930 . S
H26 C31 0.930 . S
H27 C6 0.930 . S
H28 C39 0.931 . S
N29 Tb0 2.617 . S
N29 C30 1.379 . S
N29 C33 1.334 . S
C30 N29 1.379 . S
C30 C32 1.416 . S
C30 C38 1.424 . S
C31 H26 0.930 . S
C31 C33 1.390 . S
C31 C34 1.339 . S
C32 C30 1.416 . S
C32 C34 1.416 . S
C32 C65 1.448 . S
C33 H18 0.930 . S
C33 N29 1.334 . S
C33 C31 1.390 . S
C34 C31 1.339 . S
C34 C32 1.416 . S
C34 H41 0.930 . S
N35 Tb0 2.572 . S
N35 C36 1.340 . S
N35 C38 1.361 . S
C36 H22 0.930 . S
C36 N35 1.340 . S
C36 C40 1.407 . S
C37 C38 1.413 . S
C37 C39 1.416 . S
C37 C66 1.427 . S
C38 C30 1.424 . S
C38 N35 1.361 . S
C38 C37 1.413 . S
C39 H28 0.931 . S
C39 C37 1.416 . S
C39 C40 1.332 . S
C40 H19 0.929 . S
C40 C36 1.407 . S
C40 C39 1.332 . S
H41 C34 0.930 . S
H42 C65 0.930 . S
H43 C66 0.929 . S
O44 Tb0 2.465 . S
O44 C64 1.264 . S
O45 Tb0 2.387 . S
O45 C56 1.264 . S
O46 Tb11 2.349 . S
O46 C56 1.243 . S
O47 Tb0 2.428 . S
O47 C64 1.256 . S
O48 Tb0 2.308 . S
O48 C63 1.266 . S
O49 Tb11 2.393 . S
O49 C63 1.248 . S
O50 Tb11 2.465 1_655 S
O50 C75 1.264 . S
O51 Tb11 2.387 . S
O51 C67 1.264 . S
O52 Tb0 2.349 . S
O52 C67 1.243 . S
O53 Tb11 2.428 . S
O53 C75 1.256 1_455 S
O54 Tb11 2.308 . S
O54 C74 1.266 . S
O55 Tb0 2.393 . S
O55 C74 1.248 . S
C56 O45 1.264 . S
C56 O46 1.243 . S
C57 C60 1.399 . S
C57 C62 1.383 . S
C57 C64 1.496 . S
C58 C59 1.399 . S
C58 C62 1.389 . S
C59 C58 1.399 . S
C59 C61 1.380 . S
C59 H76 0.929 . S
C60 C57 1.399 . S
C60 C61 1.392 . S
C60 H77 0.929 . S
C61 C59 1.380 . S
C61 C60 1.392 . S
C61 H78 0.929 . S
C62 C57 1.383 . S
C62 C58 1.389 . S
C62 H79 0.931 . S
C63 O48 1.266 . S
C63 O49 1.248 . S
C64 Tb0 2.802 . S
C64 O44 1.264 . S
C64 O47 1.256 . S
C64 C57 1.496 . S
C65 C32 1.448 . S
C65 H42 0.930 . S
C65 C66 1.328 . S
C66 C37 1.427 . S
C66 H43 0.929 . S
C66 C65 1.328 . S
C67 O51 1.264 . S
C67 O52 1.243 . S
C68 C71 1.399 . S
C68 C72 1.383 . S
C68 C75 1.496 . S
C69 C70 1.399 . S
C69 C72 1.389 . S
C70 C69 1.399 . S
C70 C73 1.380 . S
C70 H80 0.929 . S
C71 C68 1.399 . S
C71 C73 1.392 . S
C71 H81 0.929 . S
C72 C68 1.383 . S
C72 C69 1.389 . S
C72 H82 0.931 . S
C73 C70 1.380 . S
C73 C71 1.392 . S
C73 H83 0.929 . S
C74 O54 1.266 . S
C74 O55 1.248 . S
C75 Tb11 2.802 1_655 S
C75 O50 1.264 . S
C75 O53 1.256 1_655 S
C75 C68 1.496 . S
H76 C59 0.929 . S
H77 C60 0.929 . S
H78 C61 0.929 . S
H79 C62 0.931 . S
H80 C70 0.929 . S
H81 C71 0.929 . S
H82 C72 0.931 . S
H83 C73 0.929 . S
Tb84 N113 2.617 . S
Tb84 N119 2.572 . S
Tb84 O128 2.465 . S
Tb84 O129 2.387 . S
Tb84 O131 2.428 . S
Tb84 O132 2.308 . S
Tb84 O136 2.349 . S
Tb84 O139 2.393 . S
Tb84 C148 2.802 . S
C85 N86 1.379 . S
C85 C88 1.416 . S
C85 C92 1.424 . S
N86 C85 1.379 . S
N86 C89 1.334 . S
N86 Tb95 2.617 . S
C87 C89 1.390 . S
C87 C90 1.339 . S
C87 H107 0.930 . S
C88 C85 1.416 . S
C88 C90 1.416 . S
C88 C94 1.448 . S
C89 N86 1.334 . S
C89 C87 1.390 . S
C89 H100 0.930 . S
C90 C87 1.339 . S
C90 C88 1.416 . S
C90 H111 0.930 . S
C91 C92 1.413 . S
C91 C93 1.427 . S
C91 C97 1.416 . S
C92 C85 1.424 . S
C92 C91 1.413 . S
C92 N96 1.361 . S
C93 C91 1.427 . S
C93 C94 1.328 . S
C93 H108 0.929 . S
C94 C88 1.448 . S
C94 C93 1.328 . S
C94 H109 0.930 . S
Tb95 N86 2.617 . S
Tb95 N96 2.572 . S
Tb95 O130 2.349 . S
Tb95 O133 2.393 . S
Tb95 O134 2.465 . S
Tb95 O135 2.387 . S
Tb95 O137 2.428 . S
Tb95 O138 2.308 . S
Tb95 C159 2.802 . S
N96 C92 1.361 . S
N96 Tb95 2.572 . S
N96 C98 1.340 . S
C97 C91 1.416 . S
C97 C99 1.332 . S
C97 H105 0.931 . S
C98 N96 1.340 . S
C98 C99 1.407 . S
C98 H104 0.930 . S
C99 C97 1.332 . S
C99 C98 1.407 . S
C99 H101 0.929 . S
H100 C89 0.930 . S
H101 C99 0.929 . S
H102 C117 0.930 . S
H103 C124 0.929 . S
H104 C98 0.930 . S
H105 C97 0.931 . S
H106 C120 0.930 . S
H107 C87 0.930 . S
H108 C93 0.929 . S
H109 C94 0.930 . S
H110 C115 0.930 . S
H111 C90 0.930 . S
H112 C123 0.931 . S
N113 Tb84 2.617 . S
N113 C114 1.379 . S
N113 C117 1.334 . S
C114 N113 1.379 . S
C114 C116 1.416 . S
C114 C122 1.424 . S
C115 H110 0.930 . S
C115 C117 1.390 . S
C115 C118 1.339 . S
C116 C114 1.416 . S
C116 C118 1.416 . S
C116 C149 1.448 . S
C117 H102 0.930 . S
C117 N113 1.334 . S
C117 C115 1.390 . S
C118 C115 1.339 . S
C118 C116 1.416 . S
C118 H125 0.930 . S
N119 Tb84 2.572 . S
N119 C120 1.340 . S
N119 C122 1.361 . S
C120 H106 0.930 . S
C120 N119 1.340 . S
C120 C124 1.407 . S
C121 C122 1.413 . S
C121 C123 1.416 . S
C121 C150 1.427 . S
C122 C114 1.424 . S
C122 N119 1.361 . S
C122 C121 1.413 . S
C123 H112 0.931 . S
C123 C121 1.416 . S
C123 C124 1.332 . S
C124 H103 0.929 . S
C124 C120 1.407 . S
C124 C123 1.332 . S
H125 C118 0.930 . S
H126 C149 0.930 . S
H127 C150 0.929 . S
O128 Tb84 2.465 . S
O128 C148 1.264 . S
O129 Tb84 2.387 . S
O129 C140 1.264 . S
O130 Tb95 2.349 . S
O130 C140 1.243 . S
O131 Tb84 2.428 . S
O131 C148 1.256 . S
O132 Tb84 2.308 . S
O132 C147 1.266 . S
O133 Tb95 2.393 . S
O133 C147 1.248 . S
O134 Tb95 2.465 . S
O134 C159 1.264 . S
O135 Tb95 2.387 . S
O135 C151 1.264 . S
O136 Tb84 2.349 . S
O136 C151 1.243 . S
O137 Tb95 2.428 . S
O137 C159 1.256 . S
O138 Tb95 2.308 . S
O138 C158 1.266 . S
O139 Tb84 2.393 . S
O139 C158 1.248 . S
C140 O129 1.264 . S
C140 O130 1.243 . S
C141 C144 1.399 . S
C141 C146 1.383 . S
C141 C148 1.496 . S
C142 C143 1.399 . S
C142 C146 1.389 . S
C143 C142 1.399 . S
C143 C145 1.380 . S
C143 H160 0.929 . S
C144 C141 1.399 . S
C144 C145 1.392 . S
C144 H161 0.929 . S
C145 C143 1.380 . S
C145 C144 1.392 . S
C145 H162 0.929 . S
C146 C141 1.383 . S
C146 C142 1.389 . S
C146 H163 0.931 . S
C147 O132 1.266 . S
C147 O133 1.248 . S
C148 Tb84 2.802 . S
C148 O128 1.264 . S
C148 O131 1.256 . S
C148 C141 1.496 . S
C149 C116 1.448 . S
C149 H126 0.930 . S
C149 C150 1.328 . S
C150 C121 1.427 . S
C150 H127 0.929 . S
C150 C149 1.328 . S
C151 O135 1.264 . S
C151 O136 1.243 . S
C152 C155 1.399 . S
C152 C156 1.383 . S
C152 C159 1.496 . S
C153 C154 1.399 . S
C153 C156 1.389 . S
C154 C153 1.399 . S
C154 C157 1.380 . S
C154 H164 0.929 . S
C155 C152 1.399 . S
C155 C157 1.392 . S
C155 H165 0.929 . S
C156 C152 1.383 . S
C156 C153 1.389 . S
C156 H166 0.931 . S
C157 C154 1.380 . S
C157 C155 1.392 . S
C157 H167 0.929 . S
C158 O138 1.266 . S
C158 O139 1.248 . S
C159 Tb95 2.802 . S
C159 O134 1.264 . S
C159 O137 1.256 . S
C159 C152 1.496 . S
H160 C143 0.929 . S
H161 C144 0.929 . S
H162 C145 0.929 . S
H163 C146 0.931 . S
H164 C154 0.929 . S
H165 C155 0.929 . S
H166 C156 0.931 . S
H167 C157 0.929 . S
Tb168 N197 2.617 . S
Tb168 N203 2.572 . S
Tb168 O212 2.465 . S
Tb168 O213 2.387 . S
Tb168 O215 2.428 . S
Tb168 O216 2.308 . S
Tb168 O220 2.349 . S
Tb168 O223 2.393 . S
Tb168 C232 2.802 . S
C169 N170 1.379 . S
C169 C172 1.416 . S
C169 C176 1.424 . S
N170 C169 1.379 . S
N170 C173 1.334 . S
N170 Tb179 2.617 . S
C171 C173 1.390 . S
C171 C174 1.339 . S
C171 H191 0.930 . S
C172 C169 1.416 . S
C172 C174 1.416 . S
C172 C178 1.448 . S
C173 N170 1.334 . S
C173 C171 1.390 . S
C173 H184 0.930 . S
C174 C171 1.339 . S
C174 C172 1.416 . S
C174 H195 0.930 . S
C175 C176 1.413 . S
C175 C177 1.427 . S
C175 C181 1.416 . S
C176 C169 1.424 . S
C176 C175 1.413 . S
C176 N180 1.361 . S
C177 C175 1.427 . S
C177 C178 1.328 . S
C177 H192 0.929 . S
C178 C172 1.448 . S
C178 C177 1.328 . S
C178 H193 0.930 . S
Tb179 N170 2.617 . S
Tb179 N180 2.572 . S
Tb179 O214 2.349 . S
Tb179 O217 2.393 . S
Tb179 O218 2.465 . S
Tb179 O219 2.387 . S
Tb179 O221 2.428 . S
Tb179 O222 2.308 . S
Tb179 C243 2.802 . S
N180 C176 1.361 . S
N180 Tb179 2.572 . S
N180 C182 1.340 . S
C181 C175 1.416 . S
C181 C183 1.332 . S
C181 H189 0.931 . S
C182 N180 1.340 . S
C182 C183 1.407 . S
C182 H188 0.930 . S
C183 C181 1.332 . S
C183 C182 1.407 . S
C183 H185 0.929 . S
H184 C173 0.930 . S
H185 C183 0.929 . S
H186 C201 0.930 . S
H187 C208 0.929 . S
H188 C182 0.930 . S
H189 C181 0.931 . S
H190 C204 0.930 . S
H191 C171 0.930 . S
H192 C177 0.929 . S
H193 C178 0.930 . S
H194 C199 0.930 . S
H195 C174 0.930 . S
H196 C207 0.931 . S
N197 Tb168 2.617 . S
N197 C198 1.379 . S
N197 C201 1.334 . S
C198 N197 1.379 . S
C198 C200 1.416 . S
C198 C206 1.424 . S
C199 H194 0.930 . S
C199 C201 1.390 . S
C199 C202 1.339 . S
C200 C198 1.416 . S
C200 C202 1.416 . S
C200 C233 1.448 . S
C201 H186 0.930 . S
C201 N197 1.334 . S
C201 C199 1.390 . S
C202 C199 1.339 . S
C202 C200 1.416 . S
C202 H209 0.930 . S
N203 Tb168 2.572 . S
N203 C204 1.340 . S
N203 C206 1.361 . S
C204 H190 0.930 . S
C204 N203 1.340 . S
C204 C208 1.407 . S
C205 C206 1.413 . S
C205 C207 1.416 . S
C205 C234 1.427 . S
C206 C198 1.424 . S
C206 N203 1.361 . S
C206 C205 1.413 . S
C207 H196 0.931 . S
C207 C205 1.416 . S
C207 C208 1.332 . S
C208 H187 0.929 . S
C208 C204 1.407 . S
C208 C207 1.332 . S
H209 C202 0.930 . S
H210 C233 0.930 . S
H211 C234 0.929 . S
O212 Tb168 2.465 . S
O212 C232 1.264 . S
O213 Tb168 2.387 . S
O213 C224 1.264 . S
O214 Tb179 2.349 . S
O214 C224 1.243 . S
O215 Tb168 2.428 . S
O215 C232 1.256 . S
O216 Tb168 2.308 . S
O216 C231 1.266 . S
O217 Tb179 2.393 . S
O217 C231 1.248 . S
O218 Tb179 2.465 . S
O218 C243 1.264 . S
O219 Tb179 2.387 . S
O219 C235 1.264 . S
O220 Tb168 2.349 . S
O220 C235 1.243 . S
O221 Tb179 2.428 . S
O221 C243 1.256 . S
O222 Tb179 2.308 . S
O222 C242 1.266 . S
O223 Tb168 2.393 . S
O223 C242 1.248 . S
C224 O213 1.264 . S
C224 O214 1.243 . S
C225 C228 1.399 . S
C225 C230 1.383 . S
C225 C232 1.496 . S
C226 C227 1.399 . S
C226 C230 1.389 . S
C227 C226 1.399 . S
C227 C229 1.380 . S
C227 H244 0.929 . S
C228 C225 1.399 . S
C228 C229 1.392 . S
C228 H245 0.929 . S
C229 C227 1.380 . S
C229 C228 1.392 . S
C229 H246 0.929 . S
C230 C225 1.383 . S
C230 C226 1.389 . S
C230 H247 0.931 . S
C231 O216 1.266 . S
C231 O217 1.248 . S
C232 Tb168 2.802 . S
C232 O212 1.264 . S
C232 O215 1.256 . S
C232 C225 1.496 . S
C233 C200 1.448 . S
C233 H210 0.930 . S
C233 C234 1.328 . S
C234 C205 1.427 . S
C234 H211 0.929 . S
C234 C233 1.328 . S
C235 O219 1.264 . S
C235 O220 1.243 . S
C236 C239 1.399 . S
C236 C240 1.383 . S
C236 C243 1.496 . S
C237 C238 1.399 . S
C237 C240 1.389 . S
C238 C237 1.399 . S
C238 C241 1.380 . S
C238 H248 0.929 . S
C239 C236 1.399 . S
C239 C241 1.392 . S
C239 H249 0.929 . S
C240 C236 1.383 . S
C240 C237 1.389 . S
C240 H250 0.931 . S
C241 C238 1.380 . S
C241 C239 1.392 . S
C241 H251 0.929 . S
C242 O222 1.266 . S
C242 O223 1.248 . S
C243 Tb179 2.802 . S
C243 O218 1.264 . S
C243 O221 1.256 . S
C243 C236 1.496 . S
H244 C227 0.929 . S
H245 C228 0.929 . S
H246 C229 0.929 . S
H247 C230 0.931 . S
H248 C238 0.929 . S
H249 C239 0.929 . S
H250 C240 0.931 . S
H251 C241 0.929 . S
Tb252 N281 2.617 1_554 S
Tb252 N287 2.572 . S
Tb252 O296 2.465 1_554 S
Tb252 O297 2.387 . S
Tb252 O299 2.428 1_554 S
Tb252 O300 2.308 . S
Tb252 O304 2.338 1_554 S
Tb252 O307 2.399 . S
Tb252 C316 2.802 1_554 S
C253 N254 1.379 . S
C253 C256 1.416 . S
C253 C260 1.424 . S
N254 C253 1.379 . S
N254 C257 1.334 . S
N254 Tb263 2.617 . S
C255 C257 1.390 . S
C255 C258 1.339 . S
C255 H275 0.930 . S
C256 C253 1.416 . S
C256 C258 1.416 . S
C256 C262 1.448 . S
C257 N254 1.334 . S
C257 C255 1.390 . S
C257 H268 0.930 . S
C258 C255 1.339 . S
C258 C256 1.416 . S
C258 H279 0.930 . S
C259 C260 1.413 . S
C259 C261 1.427 . S
C259 C265 1.416 . S
C260 C253 1.424 . S
C260 C259 1.413 . S
C260 N264 1.361 . S
C261 C259 1.427 . S
C261 C262 1.328 . S
C261 H276 0.929 . S
C262 C256 1.448 . S
C262 C261 1.328 . S
C262 H277 0.930 . S
Tb263 N254 2.617 . S
Tb263 N264 2.572 . S
Tb263 O298 2.349 . S
Tb263 O301 2.393 . S
Tb263 O302 2.465 . S
Tb263 O303 2.387 . S
Tb263 O305 2.428 . S
Tb263 O306 2.308 . S
Tb263 C327 2.802 . S
N264 C260 1.361 . S
N264 Tb263 2.572 . S
N264 C266 1.340 . S
C265 C259 1.416 . S
C265 C267 1.332 . S
C265 H273 0.931 . S
C266 N264 1.340 . S
C266 C267 1.407 . S
C266 H272 0.930 . S
C267 C265 1.332 . S
C267 C266 1.407 . S
C267 H269 0.929 . S
H268 C257 0.930 . S
H269 C267 0.929 . S
H270 C285 0.930 . S
H271 C292 0.929 . S
H272 C266 0.930 . S
H273 C265 0.931 . S
H274 C288 0.930 . S
H275 C255 0.930 . S
H276 C261 0.929 . S
H277 C262 0.930 . S
H278 C283 0.930 . S
H279 C258 0.930 . S
H280 C291 0.931 . S
N281 Tb252 2.617 1_556 S
N281 C282 1.379 1_556 S
N281 C285 1.334 . S
C282 N281 1.379 1_554 S
C282 C284 1.416 1_554 S
C282 C290 1.424 . S
C283 H278 0.930 . S
C283 C285 1.390 . S
C283 C286 1.339 . S
C284 C282 1.416 1_556 S
C284 C286 1.416 . S
C284 C317 1.448 1_556 S
C285 H270 0.930 . S
C285 N281 1.334 . S
C285 C283 1.390 . S
C286 C283 1.339 . S
C286 C284 1.416 . S
C286 H293 0.930 . S
N287 Tb252 2.572 . S
N287 C288 1.340 . S
N287 C290 1.361 . S
C288 H274 0.930 . S
C288 N287 1.340 . S
C288 C292 1.407 . S
C289 C290 1.413 . S
C289 C291 1.416 . S
C289 C318 1.427 . S
C290 C282 1.424 . S
C290 N287 1.361 . S
C290 C289 1.413 . S
C291 H280 0.931 . S
C291 C289 1.416 . S
C291 C292 1.332 . S
C292 H271 0.929 . S
C292 C288 1.407 . S
C292 C291 1.332 . S
H293 C286 0.930 . S
H294 C317 0.930 . S
H295 C318 0.929 . S
O296 Tb252 2.465 1_556 S
O296 C316 1.264 . S
O297 Tb252 2.387 . S
O297 C308 1.264 . S
O298 Tb263 2.349 . S
O298 C308 1.243 . S
O299 Tb252 2.428 1_556 S
O299 C316 1.256 . S
O300 Tb252 2.308 . S
O300 C315 1.266 . S
O301 Tb263 2.393 . S
O301 C315 1.248 . S
O302 Tb263 2.465 . S
O302 C327 1.264 . S
O303 Tb263 2.387 . S
O303 C319 1.264 . S
O304 Tb252 2.338 1_556 S
O304 C319 1.229 1_556 S
O305 Tb263 2.428 . S
O305 C327 1.256 . S
O306 Tb263 2.308 . S
O306 C326 1.266 . S
O307 Tb252 2.399 . S
O307 C326 1.266 . S
C308 O297 1.264 . S
C308 O298 1.243 . S
C309 C312 1.399 . S
C309 C314 1.383 . S
C309 C316 1.496 . S
C310 C311 1.399 . S
C310 C314 1.389 . S
C311 C310 1.399 . S
C311 C313 1.380 . S
C311 H328 0.929 . S
C312 C309 1.399 . S
C312 C313 1.392 . S
C312 H329 0.929 . S
C313 C311 1.380 . S
C313 C312 1.392 . S
C313 H330 0.929 . S
C314 C309 1.383 . S
C314 C310 1.389 . S
C314 H331 0.931 . S
C315 O300 1.266 . S
C315 O301 1.248 . S
C316 Tb252 2.802 1_556 S
C316 O296 1.264 . S
C316 O299 1.256 . S
C316 C309 1.496 . S
C317 C284 1.448 1_554 S
C317 H294 0.930 . S
C317 C318 1.328 . S
C318 C289 1.427 . S
C318 H295 0.929 . S
C318 C317 1.328 . S
C319 O303 1.264 . S
C319 O304 1.229 1_554 S
C320 C323 1.399 . S
C320 C324 1.383 . S
C320 C327 1.496 . S
C321 C322 1.399 . S
C321 C324 1.389 . S
C322 C321 1.399 . S
C322 C325 1.380 . S
C322 H332 0.929 . S
C323 C320 1.399 . S
C323 C325 1.392 . S
C323 H333 0.929 . S
C324 C320 1.383 . S
C324 C321 1.389 . S
C324 H334 0.931 . S
C325 C322 1.380 . S
C325 C323 1.392 . S
C325 H335 0.929 . S
C326 O306 1.266 . S
C326 O307 1.266 . S
C327 Tb263 2.802 . S
C327 O302 1.264 . S
C327 O305 1.256 . S
C327 C320 1.496 . S
H328 C311 0.929 . S
H329 C312 0.929 . S
H330 C313 0.929 . S
H331 C314 0.931 . S
H332 C322 0.929 . S
H333 C323 0.929 . S
H334 C324 0.931 . S
H335 C325 0.929 . S
Tb336 N365 2.617 . S
Tb336 N371 2.572 . S
Tb336 O380 2.465 . S
Tb336 O381 2.387 . S
Tb336 O383 2.428 . S
Tb336 O384 2.308 . S
Tb336 O388 2.349 . S
Tb336 O391 2.393 . S
Tb336 C400 2.802 . S
C337 N338 1.406 . S
C337 C340 1.416 . S
C337 C344 1.424 . S
N338 C337 1.406 . S
N338 C341 1.316 1_655 S
N338 Tb347 2.610 1_655 S
C339 C341 1.390 . S
C339 C342 1.339 1_455 S
C339 H359 0.930 . S
C340 C337 1.416 . S
C340 C342 1.416 . S
C340 C346 1.448 . S
C341 N338 1.316 1_455 S
C341 C339 1.390 . S
C341 H352 0.930 . S
C342 C339 1.339 1_655 S
C342 C340 1.416 . S
C342 H363 0.930 . S
C343 C344 1.413 . S
C343 C345 1.427 . S
C343 C349 1.416 . S
C344 C337 1.424 . S
C344 C343 1.413 . S
C344 N348 1.361 . S
C345 C343 1.427 . S
C345 C346 1.328 . S
C345 H360 0.929 . S
C346 C340 1.448 . S
C346 C345 1.328 . S
C346 H361 0.930 . S
Tb347 N338 2.610 1_455 S
Tb347 N348 2.572 1_455 S
Tb347 O382 2.349 . S
Tb347 O385 2.393 . S
Tb347 O386 2.465 1_455 S
Tb347 O387 2.387 . S
Tb347 O389 2.434 . S
Tb347 O390 2.308 . S
Tb347 C411 2.802 1_455 S
N348 C344 1.361 . S
N348 Tb347 2.572 1_655 S
N348 C350 1.340 . S
C349 C343 1.416 . S
C349 C351 1.332 . S
C349 H357 0.931 . S
C350 N348 1.340 . S
C350 C351 1.407 . S
C350 H356 0.930 . S
C351 C349 1.332 . S
C351 C350 1.407 . S
C351 H353 0.929 . S
H352 C341 0.930 . S
H353 C351 0.929 . S
H354 C369 0.930 . S
H355 C376 0.929 . S
H356 C350 0.930 . S
H357 C349 0.931 . S
H358 C372 0.930 . S
H359 C339 0.930 . S
H360 C345 0.929 . S
H361 C346 0.930 . S
H362 C367 0.930 . S
H363 C342 0.930 . S
H364 C375 0.931 . S
N365 Tb336 2.617 . S
N365 C366 1.379 . S
N365 C369 1.334 . S
C366 N365 1.379 . S
C366 C368 1.416 . S
C366 C374 1.424 . S
C367 H362 0.930 . S
C367 C369 1.390 . S
C367 C370 1.339 . S
C368 C366 1.416 . S
C368 C370 1.416 . S
C368 C401 1.448 . S
C369 H354 0.930 . S
C369 N365 1.334 . S
C369 C367 1.390 . S
C370 C367 1.339 . S
C370 C368 1.416 . S
C370 H377 0.930 . S
N371 Tb336 2.572 . S
N371 C372 1.340 . S
N371 C374 1.361 . S
C372 H358 0.930 . S
C372 N371 1.340 . S
C372 C376 1.407 . S
C373 C374 1.413 . S
C373 C375 1.416 . S
C373 C402 1.427 . S
C374 C366 1.424 . S
C374 N371 1.361 . S
C374 C373 1.413 . S
C375 H364 0.931 . S
C375 C373 1.416 . S
C375 C376 1.332 . S
C376 H355 0.929 . S
C376 C372 1.407 . S
C376 C375 1.332 . S
H377 C370 0.930 . S
H378 C401 0.930 . S
H379 C402 0.929 . S
O380 Tb336 2.465 . S
O380 C400 1.264 . S
O381 Tb336 2.387 . S
O381 C392 1.264 . S
O382 Tb347 2.349 . S
O382 C392 1.243 . S
O383 Tb336 2.428 . S
O383 C400 1.256 . S
O384 Tb336 2.308 . S
O384 C399 1.266 . S
O385 Tb347 2.393 . S
O385 C399 1.248 . S
O386 Tb347 2.465 1_655 S
O386 C411 1.264 . S
O387 Tb347 2.387 . S
O387 C403 1.264 . S
O388 Tb336 2.349 . S
O388 C403 1.243 . S
O389 Tb347 2.434 . S
O389 C411 1.239 1_455 S
O390 Tb347 2.308 . S
O390 C410 1.266 . S
O391 Tb336 2.393 . S
O391 C410 1.248 . S
C392 O381 1.264 . S
C392 O382 1.243 . S
C393 C396 1.399 . S
C393 C398 1.383 . S
C393 C400 1.496 . S
C394 C395 1.399 . S
C394 C398 1.389 . S
C395 C394 1.399 . S
C395 C397 1.380 . S
C395 H412 0.929 . S
C396 C393 1.399 . S
C396 C397 1.392 . S
C396 H413 0.929 . S
C397 C395 1.380 . S
C397 C396 1.392 . S
C397 H414 0.929 . S
C398 C393 1.383 . S
C398 C394 1.389 . S
C398 H415 0.931 . S
C399 O384 1.266 . S
C399 O385 1.248 . S
C400 Tb336 2.802 . S
C400 O380 1.264 . S
C400 O383 1.256 . S
C400 C393 1.496 . S
C401 C368 1.448 . S
C401 H378 0.930 . S
C401 C402 1.328 . S
C402 C373 1.427 . S
C402 H379 0.929 . S
C402 C401 1.328 . S
C403 O387 1.264 . S
C403 O388 1.243 . S
C404 C407 1.399 . S
C404 C408 1.383 . S
C404 C411 1.496 . S
C405 C406 1.399 . S
C405 C408 1.389 . S
C406 C405 1.399 . S
C406 C409 1.380 . S
C406 H416 0.929 . S
C407 C404 1.399 . S
C407 C409 1.392 . S
C407 H417 0.929 . S
C408 C404 1.383 . S
C408 C405 1.389 . S
C408 H418 0.931 . S
C409 C406 1.380 . S
C409 C407 1.392 . S
C409 H419 0.929 . S
C410 O390 1.266 . S
C410 O391 1.248 . S
C411 Tb347 2.802 1_655 S
C411 O386 1.264 . S
C411 O389 1.239 1_655 S
C411 C404 1.496 . S
H412 C395 0.929 . S
H413 C396 0.929 . S
H414 C397 0.929 . S
H415 C398 0.931 . S
H416 C406 0.929 . S
H417 C407 0.929 . S
H418 C408 0.931 . S
H419 C409 0.929 . S
Tb420 N449 2.617 . S
Tb420 N455 2.572 . S
Tb420 O464 2.465 . S
Tb420 O465 2.387 . S
Tb420 O467 2.428 . S
Tb420 O468 2.308 . S
Tb420 O472 2.349 . S
Tb420 O475 2.393 . S
Tb420 C484 2.802 . S
C421 N422 1.379 . S
C421 C424 1.416 . S
C421 C428 1.424 . S
N422 C421 1.379 . S
N422 C425 1.334 . S
N422 Tb431 2.617 . S
C423 C425 1.390 . S
C423 C426 1.339 . S
C423 H443 0.930 . S
C424 C421 1.416 . S
C424 C426 1.416 . S
C424 C430 1.448 . S
C425 N422 1.334 . S
C425 C423 1.390 . S
C425 H436 0.930 . S
C426 C423 1.339 . S
C426 C424 1.416 . S
C426 H447 0.930 . S
C427 C428 1.413 . S
C427 C429 1.427 . S
C427 C433 1.416 . S
C428 C421 1.424 . S
C428 C427 1.413 . S
C428 N432 1.361 . S
C429 C427 1.427 . S
C429 C430 1.328 . S
C429 H444 0.929 . S
C430 C424 1.448 . S
C430 C429 1.328 . S
C430 H445 0.930 . S
Tb431 N422 2.617 . S
Tb431 N432 2.572 . S
Tb431 O466 2.349 . S
Tb431 O469 2.393 . S
Tb431 O470 2.465 . S
Tb431 O471 2.387 . S
Tb431 O473 2.428 . S
Tb431 O474 2.308 . S
Tb431 C495 2.802 . S
N432 C428 1.361 . S
N432 Tb431 2.572 . S
N432 C434 1.340 . S
C433 C427 1.416 . S
C433 C435 1.332 . S
C433 H441 0.931 . S
C434 N432 1.340 . S
C434 C435 1.407 . S
C434 H440 0.930 . S
C435 C433 1.332 . S
C435 C434 1.407 . S
C435 H437 0.929 . S
H436 C425 0.930 . S
H437 C435 0.929 . S
H438 C453 0.930 . S
H439 C460 0.929 . S
H440 C434 0.930 . S
H441 C433 0.931 . S
H442 C456 0.930 . S
H443 C423 0.930 . S
H444 C429 0.929 . S
H445 C430 0.930 . S
H446 C451 0.930 . S
H447 C426 0.930 . S
H448 C459 0.931 . S
N449 Tb420 2.617 . S
N449 C450 1.379 . S
N449 C453 1.334 . S
C450 N449 1.379 . S
C450 C452 1.416 . S
C450 C458 1.424 . S
C451 H446 0.930 . S
C451 C453 1.390 . S
C451 C454 1.339 . S
C452 C450 1.416 . S
C452 C454 1.416 . S
C452 C485 1.448 . S
C453 H438 0.930 . S
C453 N449 1.334 . S
C453 C451 1.390 . S
C454 C451 1.339 . S
C454 C452 1.416 . S
C454 H461 0.930 . S
N455 Tb420 2.572 . S
N455 C456 1.340 . S
N455 C458 1.361 . S
C456 H442 0.930 . S
C456 N455 1.340 . S
C456 C460 1.407 . S
C457 C458 1.413 . S
C457 C459 1.416 . S
C457 C486 1.427 . S
C458 C450 1.424 . S
C458 N455 1.361 . S
C458 C457 1.413 . S
C459 H448 0.931 . S
C459 C457 1.416 . S
C459 C460 1.332 . S
C460 H439 0.929 . S
C460 C456 1.407 . S
C460 C459 1.332 . S
H461 C454 0.930 . S
H462 C485 0.930 . S
H463 C486 0.929 . S
O464 Tb420 2.465 . S
O464 C484 1.264 . S
O465 Tb420 2.387 . S
O465 C476 1.264 . S
O466 Tb431 2.349 . S
O466 C476 1.243 . S
O467 Tb420 2.428 . S
O467 C484 1.256 . S
O468 Tb420 2.308 . S
O468 C483 1.266 . S
O469 Tb431 2.393 . S
O469 C483 1.248 . S
O470 Tb431 2.465 . S
O470 C495 1.264 . S
O471 Tb431 2.387 . S
O471 C487 1.264 . S
O472 Tb420 2.349 . S
O472 C487 1.243 . S
O473 Tb431 2.428 . S
O473 C495 1.256 . S
O474 Tb431 2.308 . S
O474 C494 1.266 . S
O475 Tb420 2.393 . S
O475 C494 1.248 . S
C476 O465 1.264 . S
C476 O466 1.243 . S
C477 C480 1.399 . S
C477 C482 1.383 . S
C477 C484 1.496 . S
C478 C479 1.399 . S
C478 C482 1.389 . S
C479 C478 1.399 . S
C479 C481 1.380 . S
C479 H496 0.929 . S
C480 C477 1.399 . S
C480 C481 1.392 . S
C480 H497 0.929 . S
C481 C479 1.380 . S
C481 C480 1.392 . S
C481 H498 0.929 . S
C482 C477 1.383 . S
C482 C478 1.389 . S
C482 H499 0.931 . S
C483 O468 1.266 . S
C483 O469 1.248 . S
C484 Tb420 2.802 . S
C484 O464 1.264 . S
C484 O467 1.256 . S
C484 C477 1.496 . S
C485 C452 1.448 . S
C485 H462 0.930 . S
C485 C486 1.328 . S
C486 C457 1.427 . S
C486 H463 0.929 . S
C486 C485 1.328 . S
C487 O471 1.264 . S
C487 O472 1.243 . S
C488 C491 1.399 . S
C488 C492 1.383 . S
C488 C495 1.496 . S
C489 C490 1.399 . S
C489 C492 1.389 . S
C490 C489 1.399 . S
C490 C493 1.380 . S
C490 H500 0.929 . S
C491 C488 1.399 . S
C491 C493 1.392 . S
C491 H501 0.929 . S
C492 C488 1.383 . S
C492 C489 1.389 . S
C492 H502 0.931 . S
C493 C490 1.380 . S
C493 C491 1.392 . S
C493 H503 0.929 . S
C494 O474 1.266 . S
C494 O475 1.248 . S
C495 Tb431 2.802 . S
C495 O470 1.264 . S
C495 O473 1.256 . S
C495 C488 1.496 . S
H496 C479 0.929 . S
H497 C480 0.929 . S
H498 C481 0.929 . S
H499 C482 0.931 . S
H500 C490 0.929 . S
H501 C491 0.929 . S
H502 C492 0.931 . S
H503 C493 0.929 . S
Tb504 N533 2.617 . S
Tb504 N539 2.572 . S
Tb504 O548 2.465 . S
Tb504 O549 2.387 . S
Tb504 O551 2.428 . S
Tb504 O552 2.308 . S
Tb504 O556 2.349 . S
Tb504 O559 2.393 . S
Tb504 C568 2.802 . S
C505 N506 1.379 . S
C505 C508 1.416 . S
C505 C512 1.424 . S
N506 C505 1.379 . S
N506 C509 1.334 . S
N506 Tb515 2.617 . S
C507 C509 1.390 . S
C507 C510 1.339 . S
C507 H527 0.930 . S
C508 C505 1.416 . S
C508 C510 1.416 . S
C508 C514 1.448 . S
C509 N506 1.334 . S
C509 C507 1.390 . S
C509 H520 0.930 . S
C510 C507 1.339 . S
C510 C508 1.416 . S
C510 H531 0.930 . S
C511 C512 1.413 . S
C511 C513 1.427 . S
C511 C517 1.416 . S
C512 C505 1.424 . S
C512 C511 1.413 . S
C512 N516 1.361 . S
C513 C511 1.427 . S
C513 C514 1.328 . S
C513 H528 0.929 . S
C514 C508 1.448 . S
C514 C513 1.328 . S
C514 H529 0.930 . S
Tb515 N506 2.617 . S
Tb515 N516 2.572 . S
Tb515 O550 2.349 . S
Tb515 O553 2.393 . S
Tb515 O554 2.465 . S
Tb515 O555 2.387 . S
Tb515 O557 2.428 . S
Tb515 O558 2.308 . S
Tb515 C579 2.802 . S
N516 C512 1.361 . S
N516 Tb515 2.572 . S
N516 C518 1.340 . S
C517 C511 1.416 . S
C517 C519 1.332 . S
C517 H525 0.931 . S
C518 N516 1.340 . S
C518 C519 1.407 . S
C518 H524 0.930 . S
C519 C517 1.332 . S
C519 C518 1.407 . S
C519 H521 0.929 . S
H520 C509 0.930 . S
H521 C519 0.929 . S
H522 C537 0.930 . S
H523 C544 0.929 . S
H524 C518 0.930 . S
H525 C517 0.931 . S
H526 C540 0.930 . S
H527 C507 0.930 . S
H528 C513 0.929 . S
H529 C514 0.930 . S
H530 C535 0.930 . S
H531 C510 0.930 . S
H532 C543 0.931 . S
N533 Tb504 2.617 . S
N533 C534 1.379 . S
N533 C537 1.334 . S
C534 N533 1.379 . S
C534 C536 1.416 . S
C534 C542 1.424 . S
C535 H530 0.930 . S
C535 C537 1.390 . S
C535 C538 1.339 . S
C536 C534 1.416 . S
C536 C538 1.416 . S
C536 C569 1.448 . S
C537 H522 0.930 . S
C537 N533 1.334 . S
C537 C535 1.390 . S
C538 C535 1.339 . S
C538 C536 1.416 . S
C538 H545 0.930 . S
N539 Tb504 2.572 . S
N539 C540 1.340 . S
N539 C542 1.361 . S
C540 H526 0.930 . S
C540 N539 1.340 . S
C540 C544 1.407 . S
C541 C542 1.413 . S
C541 C543 1.416 . S
C541 C570 1.427 . S
C542 C534 1.424 . S
C542 N539 1.361 . S
C542 C541 1.413 . S
C543 H532 0.931 . S
C543 C541 1.416 . S
C543 C544 1.332 . S
C544 H523 0.929 . S
C544 C540 1.407 . S
C544 C543 1.332 . S
H545 C538 0.930 . S
H546 C569 0.930 . S
H547 C570 0.929 . S
O548 Tb504 2.465 . S
O548 C568 1.264 . S
O549 Tb504 2.387 . S
O549 C560 1.264 . S
O550 Tb515 2.349 . S
O550 C560 1.243 . S
O551 Tb504 2.428 . S
O551 C568 1.256 . S
O552 Tb504 2.308 . S
O552 C567 1.266 . S
O553 Tb515 2.393 . S
O553 C567 1.248 . S
O554 Tb515 2.465 . S
O554 C579 1.264 . S
O555 Tb515 2.387 . S
O555 C571 1.264 . S
O556 Tb504 2.349 . S
O556 C571 1.243 . S
O557 Tb515 2.428 . S
O557 C579 1.256 . S
O558 Tb515 2.308 . S
O558 C578 1.266 . S
O559 Tb504 2.393 . S
O559 C578 1.248 . S
C560 O549 1.264 . S
C560 O550 1.243 . S
C561 C564 1.399 . S
C561 C566 1.383 . S
C561 C568 1.496 . S
C562 C563 1.399 . S
C562 C566 1.389 . S
C563 C562 1.399 . S
C563 C565 1.380 . S
C563 H580 0.929 . S
C564 C561 1.399 . S
C564 C565 1.392 . S
C564 H581 0.929 . S
C565 C563 1.380 . S
C565 C564 1.392 . S
C565 H582 0.929 . S
C566 C561 1.383 . S
C566 C562 1.389 . S
C566 H583 0.931 . S
C567 O552 1.266 . S
C567 O553 1.248 . S
C568 Tb504 2.802 . S
C568 O548 1.264 . S
C568 O551 1.256 . S
C568 C561 1.496 . S
C569 C536 1.448 . S
C569 H546 0.930 . S
C569 C570 1.328 . S
C570 C541 1.427 . S
C570 H547 0.929 . S
C570 C569 1.328 . S
C571 O555 1.264 . S
C571 O556 1.243 . S
C572 C575 1.399 . S
C572 C576 1.383 . S
C572 C579 1.496 . S
C573 C574 1.399 . S
C573 C576 1.389 . S
C574 C573 1.399 . S
C574 C577 1.380 . S
C574 H584 0.929 . S
C575 C572 1.399 . S
C575 C577 1.392 . S
C575 H585 0.929 . S
C576 C572 1.383 . S
C576 C573 1.389 . S
C576 H586 0.931 . S
C577 C574 1.380 . S
C577 C575 1.392 . S
C577 H587 0.929 . S
C578 O558 1.266 . S
C578 O559 1.248 . S
C579 Tb515 2.802 . S
C579 O554 1.264 . S
C579 O557 1.256 . S
C579 C572 1.496 . S
H580 C563 0.929 . S
H581 C564 0.929 . S
H582 C565 0.929 . S
H583 C566 0.931 . S
H584 C574 0.929 . S
H585 C575 0.929 . S
H586 C576 0.931 . S
H587 C577 0.929 . S
Tb588 N617 2.617 1_556 S
Tb588 N623 2.572 . S
Tb588 O632 2.465 1_556 S
Tb588 O633 2.387 . S
Tb588 O635 2.428 1_556 S
Tb588 O636 2.308 . S
Tb588 O640 2.349 1_556 S
Tb588 O643 2.383 1_556 S
Tb588 C652 2.802 1_556 S
C589 N590 1.379 . S
C589 C592 1.416 . S
C589 C596 1.424 . S
N590 C589 1.379 . S
N590 C593 1.334 . S
N590 Tb599 2.617 . S
C591 C593 1.390 . S
C591 C594 1.339 . S
C591 H611 0.930 . S
C592 C589 1.416 . S
C592 C594 1.416 . S
C592 C598 1.448 . S
C593 N590 1.334 . S
C593 C591 1.390 . S
C593 H604 0.930 . S
C594 C591 1.339 . S
C594 C592 1.416 . S
C594 H615 0.930 . S
C595 C596 1.413 . S
C595 C597 1.427 . S
C595 C601 1.416 . S
C596 C589 1.424 . S
C596 C595 1.413 . S
C596 N600 1.361 . S
C597 C595 1.427 . S
C597 C598 1.328 . S
C597 H612 0.929 . S
C598 C592 1.448 . S
C598 C597 1.328 . S
C598 H613 0.930 . S
Tb599 N590 2.617 . S
Tb599 N600 2.572 . S
Tb599 O634 2.349 . S
Tb599 O637 2.393 . S
Tb599 O638 2.465 . S
Tb599 O639 2.387 . S
Tb599 O641 2.428 . S
Tb599 O642 2.308 . S
Tb599 C663 2.802 . S
N600 C596 1.361 . S
N600 Tb599 2.572 . S
N600 C602 1.340 . S
C601 C595 1.416 . S
C601 C603 1.332 . S
C601 H609 0.931 . S
C602 N600 1.340 . S
C602 C603 1.407 . S
C602 H608 0.930 . S
C603 C601 1.332 . S
C603 C602 1.407 . S
C603 H605 0.929 . S
H604 C593 0.930 . S
H605 C603 0.929 . S
H606 C621 0.930 . S
H607 C628 0.929 . S
H608 C602 0.930 . S
H609 C601 0.931 . S
H610 C624 0.930 . S
H611 C591 0.930 . S
H612 C597 0.929 . S
H613 C598 0.930 . S
H614 C619 0.930 . S
H615 C594 0.930 . S
H616 C627 0.931 . S
N617 Tb588 2.617 1_554 S
N617 C618 1.379 1_554 S
N617 C621 1.334 . S
C618 N617 1.379 1_556 S
C618 C620 1.416 1_556 S
C618 C626 1.424 . S
C619 H614 0.930 . S
C619 C621 1.390 . S
C619 C622 1.339 . S
C620 C618 1.416 1_554 S
C620 C622 1.416 . S
C620 C653 1.448 1_554 S
C621 H606 0.930 . S
C621 N617 1.334 . S
C621 C619 1.390 . S
C622 C619 1.339 . S
C622 C620 1.416 . S
C622 H629 0.930 . S
N623 Tb588 2.572 . S
N623 C624 1.340 . S
N623 C626 1.361 . S
C624 H610 0.930 . S
C624 N623 1.340 . S
C624 C628 1.407 . S
C625 C626 1.413 . S
C625 C627 1.416 . S
C625 C654 1.427 . S
C626 C618 1.424 . S
C626 N623 1.361 . S
C626 C625 1.413 . S
C627 H616 0.931 . S
C627 C625 1.416 . S
C627 C628 1.332 . S
C628 H607 0.929 . S
C628 C624 1.407 . S
C628 C627 1.332 . S
H629 C622 0.930 . S
H630 C653 0.930 . S
H631 C654 0.929 . S
O632 Tb588 2.465 1_554 S
O632 C652 1.264 . S
O633 Tb588 2.387 . S
O633 C644 1.264 . S
O634 Tb599 2.349 . S
O634 C644 1.243 . S
O635 Tb588 2.428 1_554 S
O635 C652 1.256 . S
O636 Tb588 2.308 . S
O636 C651 1.266 . S
O637 Tb599 2.393 . S
O637 C651 1.248 . S
O638 Tb599 2.465 . S
O638 C663 1.264 . S
O639 Tb599 2.387 . S
O639 C655 1.264 . S
O640 Tb588 2.349 1_554 S
O640 C655 1.243 1_554 S
O641 Tb599 2.428 . S
O641 C663 1.256 . S
O642 Tb599 2.308 . S
O642 C662 1.266 . S
O643 Tb588 2.383 1_554 S
O643 C662 1.220 1_554 S
C644 O633 1.264 . S
C644 O634 1.243 . S
C645 C648 1.399 . S
C645 C650 1.383 . S
C645 C652 1.496 . S
C646 C647 1.399 . S
C646 C650 1.389 . S
C647 C646 1.399 . S
C647 C649 1.380 . S
C647 H664 0.929 . S
C648 C645 1.399 . S
C648 C649 1.392 . S
C648 H665 0.929 . S
C649 C647 1.380 . S
C649 C648 1.392 . S
C649 H666 0.929 . S
C650 C645 1.383 . S
C650 C646 1.389 . S
C650 H667 0.931 . S
C651 O636 1.266 . S
C651 O637 1.248 . S
C652 Tb588 2.802 1_554 S
C652 O632 1.264 . S
C652 O635 1.256 . S
C652 C645 1.496 . S
C653 C620 1.448 1_556 S
C653 H630 0.930 . S
C653 C654 1.328 . S
C654 C625 1.427 . S
C654 H631 0.929 . S
C654 C653 1.328 . S
C655 O639 1.264 . S
C655 O640 1.243 1_556 S
C656 C659 1.399 . S
C656 C660 1.383 . S
C656 C663 1.496 . S
C657 C658 1.399 . S
C657 C660 1.389 . S
C658 C657 1.399 . S
C658 C661 1.380 . S
C658 H668 0.929 . S
C659 C656 1.399 . S
C659 C661 1.392 . S
C659 H669 0.929 . S
C660 C656 1.383 . S
C660 C657 1.389 . S
C660 H670 0.931 . S
C661 C658 1.380 . S
C661 C659 1.392 . S
C661 H671 0.929 . S
C662 O642 1.266 . S
C662 O643 1.220 1_556 S
C663 Tb599 2.802 . S
C663 O638 1.264 . S
C663 O641 1.256 . S
C663 C656 1.496 . S
H664 C647 0.929 . S
H665 C648 0.929 . S
H666 C649 0.929 . S
H667 C650 0.931 . S
H668 C658 0.929 . S
H669 C659 0.929 . S
H670 C660 0.931 . S
H671 C661 0.929 . S
Tb672 N701 2.617 1_545 S
Tb672 N707 2.572 . S
Tb672 O716 2.465 1_545 S
Tb672 O717 2.387 . S
Tb672 O719 2.428 1_545 S
Tb672 O720 2.308 . S
Tb672 O724 2.349 1_545 S
Tb672 O727 2.393 1_545 S
Tb672 C736 2.802 1_545 S
C673 N674 1.379 . S
C673 C676 1.416 . S
C673 C680 1.424 . S
N674 C673 1.379 . S
N674 C677 1.334 . S
N674 Tb683 2.617 . S
C675 C677 1.390 . S
C675 C678 1.339 . S
C675 H695 0.930 . S
C676 C673 1.416 . S
C676 C678 1.416 . S
C676 C682 1.448 . S
C677 N674 1.334 . S
C677 C675 1.390 . S
C677 H688 0.930 . S
C678 C675 1.339 . S
C678 C676 1.416 . S
C678 H699 0.930 . S
C679 C680 1.413 . S
C679 C681 1.427 . S
C679 C685 1.416 . S
C680 C673 1.424 . S
C680 C679 1.413 . S
C680 N684 1.361 . S
C681 C679 1.427 . S
C681 C682 1.328 . S
C681 H696 0.929 . S
C682 C676 1.448 . S
C682 C681 1.328 . S
C682 H697 0.930 . S
Tb683 N674 2.617 . S
Tb683 N684 2.572 . S
Tb683 O718 2.349 . S
Tb683 O721 2.393 . S
Tb683 O722 2.465 . S
Tb683 O723 2.387 . S
Tb683 O725 2.428 . S
Tb683 O726 2.308 . S
Tb683 C747 2.802 . S
N684 C680 1.361 . S
N684 Tb683 2.572 . S
N684 C686 1.340 . S
C685 C679 1.416 . S
C685 C687 1.332 . S
C685 H693 0.931 . S
C686 N684 1.340 . S
C686 C687 1.407 . S
C686 H692 0.930 . S
C687 C685 1.332 . S
C687 C686 1.407 . S
C687 H689 0.929 . S
H688 C677 0.930 . S
H689 C687 0.929 . S
H690 C705 0.930 . S
H691 C712 0.929 . S
H692 C686 0.930 . S
H693 C685 0.931 . S
H694 C708 0.930 . S
H695 C675 0.930 . S
H696 C681 0.929 . S
H697 C682 0.930 . S
H698 C703 0.930 . S
H699 C678 0.930 . S
H700 C711 0.931 . S
N701 Tb672 2.617 1_565 S
N701 C702 1.364 1_565 S
N701 C705 1.334 . S
C702 N701 1.364 1_545 S
C702 C704 1.407 1_545 S
C702 C710 1.450 . S
C703 H698 0.930 . S
C703 C705 1.390 . S
C703 C706 1.339 . S
C704 C702 1.407 1_565 S
C704 C706 1.416 . S
C704 C737 1.448 1_565 S
C705 H690 0.930 . S
C705 N701 1.334 . S
C705 C703 1.390 . S
C706 C703 1.339 . S
C706 C704 1.416 . S
C706 H713 0.930 . S
N707 Tb672 2.572 . S
N707 C708 1.340 . S
N707 C710 1.361 . S
C708 H694 0.930 . S
C708 N707 1.340 . S
C708 C712 1.407 . S
C709 C710 1.413 . S
C709 C711 1.416 . S
C709 C738 1.427 . S
C710 C702 1.450 . S
C710 N707 1.361 . S
C710 C709 1.413 . S
C711 H700 0.931 . S
C711 C709 1.416 . S
C711 C712 1.332 . S
C712 H691 0.929 . S
C712 C708 1.407 . S
C712 C711 1.332 . S
H713 C706 0.930 . S
H714 C737 0.930 . S
H715 C738 0.929 . S
O716 Tb672 2.465 1_565 S
O716 C736 1.264 . S
O717 Tb672 2.387 . S
O717 C728 1.264 . S
O718 Tb683 2.349 . S
O718 C728 1.243 . S
O719 Tb672 2.428 1_565 S
O719 C736 1.256 . S
O720 Tb672 2.308 . S
O720 C735 1.266 . S
O721 Tb683 2.393 . S
O721 C735 1.248 . S
O722 Tb683 2.465 . S
O722 C747 1.264 . S
O723 Tb683 2.387 . S
O723 C739 1.264 . S
O724 Tb672 2.349 1_565 S
O724 C739 1.243 1_565 S
O725 Tb683 2.428 . S
O725 C747 1.256 . S
O726 Tb683 2.308 . S
O726 C746 1.266 . S
O727 Tb672 2.393 1_565 S
O727 C746 1.248 1_565 S
C728 O717 1.264 . S
C728 O718 1.243 . S
C729 C732 1.399 . S
C729 C734 1.383 . S
C729 C736 1.496 . S
C730 C731 1.399 . S
C730 C734 1.389 . S
C731 C730 1.399 . S
C731 C733 1.380 . S
C731 H748 0.929 . S
C732 C729 1.399 . S
C732 C733 1.392 . S
C732 H749 0.929 . S
C733 C731 1.380 . S
C733 C732 1.392 . S
C733 H750 0.929 . S
C734 C729 1.383 . S
C734 C730 1.389 . S
C734 H751 0.931 . S
C735 O720 1.266 . S
C735 O721 1.248 . S
C736 Tb672 2.802 1_565 S
C736 O716 1.264 . S
C736 O719 1.256 . S
C736 C729 1.496 . S
C737 C704 1.448 1_545 S
C737 H714 0.930 . S
C737 C738 1.328 . S
C738 C709 1.427 . S
C738 H715 0.929 . S
C738 C737 1.328 . S
C739 O723 1.264 . S
C739 O724 1.243 1_545 S
C740 C743 1.399 . S
C740 C744 1.383 . S
C740 C747 1.496 . S
C741 C742 1.399 . S
C741 C744 1.389 . S
C742 C741 1.399 . S
C742 C745 1.380 . S
C742 H752 0.929 . S
C743 C740 1.399 . S
C743 C745 1.392 . S
C743 H753 0.929 . S
C744 C740 1.383 . S
C744 C741 1.389 . S
C744 H754 0.931 . S
C745 C742 1.380 . S
C745 C743 1.392 . S
C745 H755 0.929 . S
C746 O726 1.266 . S
C746 O727 1.248 1_545 S
C747 Tb683 2.802 . S
C747 O722 1.264 . S
C747 O725 1.256 . S
C747 C740 1.496 . S
H748 C731 0.929 . S
H749 C732 0.929 . S
H750 C733 0.929 . S
H751 C734 0.931 . S
H752 C742 0.929 . S
H753 C743 0.929 . S
H754 C744 0.931 . S
H755 C745 0.929 . S
Tb756 N785 2.617 1_545 S
Tb756 N791 2.572 . S
Tb756 O800 2.465 1_545 S
Tb756 O801 2.387 . S
Tb756 O803 2.428 1_545 S
Tb756 O804 2.308 . S
Tb756 O808 2.349 1_545 S
Tb756 O811 2.383 1_545 S
Tb756 C820 2.802 1_545 S
C757 N758 1.379 . S
C757 C760 1.416 . S
C757 C764 1.424 . S
N758 C757 1.379 . S
N758 C761 1.334 . S
N758 Tb767 2.617 . S
C759 C761 1.390 . S
C759 C762 1.339 . S
C759 H779 0.930 . S
C760 C757 1.416 . S
C760 C762 1.416 . S
C760 C766 1.448 . S
C761 N758 1.334 . S
C761 C759 1.390 . S
C761 H772 0.930 . S
C762 C759 1.339 . S
C762 C760 1.416 . S
C762 H783 0.930 . S
C763 C764 1.413 . S
C763 C765 1.427 . S
C763 C769 1.416 . S
C764 C757 1.424 . S
C764 C763 1.413 . S
C764 N768 1.361 . S
C765 C763 1.427 . S
C765 C766 1.328 . S
C765 H780 0.929 . S
C766 C760 1.448 . S
C766 C765 1.328 . S
C766 H781 0.930 . S
Tb767 N758 2.617 . S
Tb767 N768 2.572 . S
Tb767 O802 2.349 . S
Tb767 O805 2.393 . S
Tb767 O806 2.465 . S
Tb767 O807 2.387 . S
Tb767 O809 2.428 . S
Tb767 O810 2.308 . S
Tb767 C831 2.802 . S
N768 C764 1.361 . S
N768 Tb767 2.572 . S
N768 C770 1.340 . S
C769 C763 1.416 . S
C769 C771 1.332 . S
C769 H777 0.931 . S
C770 N768 1.340 . S
C770 C771 1.407 . S
C770 H776 0.930 . S
C771 C769 1.332 . S
C771 C770 1.407 . S
C771 H773 0.929 . S
H772 C761 0.930 . S
H773 C771 0.929 . S
H774 C789 0.930 . S
H775 C796 0.929 . S
H776 C770 0.930 . S
H777 C769 0.931 . S
H778 C792 0.930 . S
H779 C759 0.930 . S
H780 C765 0.929 . S
H781 C766 0.930 . S
H782 C787 0.930 . S
H783 C762 0.930 . S
H784 C795 0.931 . S
N785 Tb756 2.617 1_565 S
N785 C786 1.379 1_565 S
N785 C789 1.334 . S
C786 N785 1.379 1_545 S
C786 C788 1.416 1_545 S
C786 C794 1.424 . S
C787 H782 0.930 . S
C787 C789 1.390 . S
C787 C790 1.339 . S
C788 C786 1.416 1_565 S
C788 C790 1.416 . S
C788 C821 1.448 1_565 S
C789 H774 0.930 . S
C789 N785 1.334 . S
C789 C787 1.390 . S
C790 C787 1.339 . S
C790 C788 1.416 . S
C790 H797 0.930 . S
N791 Tb756 2.572 . S
N791 C792 1.340 . S
N791 C794 1.361 . S
C792 H778 0.930 . S
C792 N791 1.340 . S
C792 C796 1.407 . S
C793 C794 1.413 . S
C793 C795 1.416 . S
C793 C822 1.427 . S
C794 C786 1.424 . S
C794 N791 1.361 . S
C794 C793 1.413 . S
C795 H784 0.931 . S
C795 C793 1.416 . S
C795 C796 1.332 . S
C796 H775 0.929 . S
C796 C792 1.407 . S
C796 C795 1.332 . S
H797 C790 0.930 . S
H798 C821 0.930 . S
H799 C822 0.929 . S
O800 Tb756 2.465 1_565 S
O800 C820 1.264 . S
O801 Tb756 2.387 . S
O801 C812 1.264 . S
O802 Tb767 2.349 . S
O802 C812 1.243 . S
O803 Tb756 2.428 1_565 S
O803 C820 1.256 . S
O804 Tb756 2.308 . S
O804 C819 1.266 . S
O805 Tb767 2.393 . S
O805 C819 1.248 . S
O806 Tb767 2.465 . S
O806 C831 1.264 . S
O807 Tb767 2.387 . S
O807 C823 1.264 . S
O808 Tb756 2.349 1_565 S
O808 C823 1.243 1_565 S
O809 Tb767 2.428 . S
O809 C831 1.256 . S
O810 Tb767 2.308 . S
O810 C830 1.266 . S
O811 Tb756 2.383 1_565 S
O811 C830 1.219 1_565 S
C812 O801 1.264 . S
C812 O802 1.243 . S
C813 C816 1.399 . S
C813 C818 1.383 . S
C813 C820 1.496 . S
C814 C815 1.399 . S
C814 C818 1.389 . S
C815 C814 1.399 . S
C815 C817 1.380 . S
C815 H832 0.929 . S
C816 C813 1.399 . S
C816 C817 1.392 . S
C816 H833 0.929 . S
C817 C815 1.380 . S
C817 C816 1.392 . S
C817 H834 0.929 . S
C818 C813 1.383 . S
C818 C814 1.389 . S
C818 H835 0.931 . S
C819 O804 1.266 . S
C819 O805 1.248 . S
C820 Tb756 2.802 1_565 S
C820 O800 1.264 . S
C820 O803 1.256 . S
C820 C813 1.496 . S
C821 C788 1.448 1_545 S
C821 H798 0.930 . S
C821 C822 1.328 . S
C822 C793 1.427 . S
C822 H799 0.929 . S
C822 C821 1.328 . S
C823 O807 1.264 . S
C823 O808 1.243 1_545 S
C824 C827 1.399 . S
C824 C828 1.383 . S
C824 C831 1.496 . S
C825 C826 1.399 . S
C825 C828 1.389 . S
C826 C825 1.399 . S
C826 C829 1.380 . S
C826 H836 0.929 . S
C827 C824 1.399 . S
C827 C829 1.392 . S
C827 H837 0.929 . S
C828 C824 1.383 . S
C828 C825 1.389 . S
C828 H838 0.931 . S
C829 C826 1.380 . S
C829 C827 1.392 . S
C829 H839 0.929 . S
C830 O810 1.266 . S
C830 O811 1.219 1_545 S
C831 Tb767 2.802 . S
C831 O806 1.264 . S
C831 O809 1.256 . S
C831 C824 1.496 . S
H832 C815 0.929 . S
H833 C816 0.929 . S
H834 C817 0.929 . S
H835 C818 0.931 . S
H836 C826 0.929 . S
H837 C827 0.929 . S
H838 C828 0.931 . S
H839 C829 0.929 . S
Tb840 N869 2.617 . S
Tb840 N875 2.572 . S
Tb840 O884 2.465 . S
Tb840 O885 2.387 . S
Tb840 O887 2.428 . S
Tb840 O888 2.308 . S
Tb840 O892 2.349 . S
Tb840 O895 2.393 . S
Tb840 C904 2.802 . S
C841 N842 1.401 . S
C841 C844 1.416 . S
C841 C848 1.424 . S
N842 C841 1.401 . S
N842 C845 1.320 1_545 S
N842 Tb851 2.611 1_545 S
C843 C845 1.390 . S
C843 C846 1.339 1_565 S
C843 H863 0.930 . S
C844 C841 1.416 . S
C844 C846 1.416 . S
C844 C850 1.448 . S
C845 N842 1.320 1_565 S
C845 C843 1.390 . S
C845 H856 0.930 . S
C846 C843 1.339 1_545 S
C846 C844 1.416 . S
C846 H867 0.930 . S
C847 C848 1.413 . S
C847 C849 1.427 . S
C847 C853 1.416 . S
C848 C841 1.424 . S
C848 C847 1.413 . S
C848 N852 1.361 . S
C849 C847 1.427 . S
C849 C850 1.328 . S
C849 H864 0.929 . S
C850 C844 1.448 . S
C850 C849 1.328 . S
C850 H865 0.930 . S
Tb851 N842 2.611 1_565 S
Tb851 N852 2.572 1_565 S
Tb851 O886 2.349 . S
Tb851 O889 2.393 . S
Tb851 O890 2.465 1_565 S
Tb851 O891 2.387 . S
Tb851 O893 2.440 . S
Tb851 O894 2.308 . S
Tb851 C915 2.802 1_565 S
N852 C848 1.361 . S
N852 Tb851 2.572 1_545 S
N852 C854 1.340 . S
C853 C847 1.416 . S
C853 C855 1.332 . S
C853 H861 0.931 . S
C854 N852 1.340 . S
C854 C855 1.407 . S
C854 H860 0.930 . S
C855 C853 1.332 . S
C855 C854 1.407 . S
C855 H857 0.929 . S
H856 C845 0.930 . S
H857 C855 0.929 . S
H858 C873 0.930 . S
H859 C880 0.929 . S
H860 C854 0.930 . S
H861 C853 0.931 . S
H862 C876 0.930 . S
H863 C843 0.930 . S
H864 C849 0.929 . S
H865 C850 0.930 . S
H866 C871 0.930 . S
H867 C846 0.930 . S
H868 C879 0.931 . S
N869 Tb840 2.617 . S
N869 C870 1.379 . S
N869 C873 1.334 . S
C870 N869 1.379 . S
C870 C872 1.416 . S
C870 C878 1.424 . S
C871 H866 0.930 . S
C871 C873 1.390 . S
C871 C874 1.339 . S
C872 C870 1.416 . S
C872 C874 1.416 . S
C872 C905 1.448 . S
C873 H858 0.930 . S
C873 N869 1.334 . S
C873 C871 1.390 . S
C874 C871 1.339 . S
C874 C872 1.416 . S
C874 H881 0.930 . S
N875 Tb840 2.572 . S
N875 C876 1.340 . S
N875 C878 1.361 . S
C876 H862 0.930 . S
C876 N875 1.340 . S
C876 C880 1.407 . S
C877 C878 1.413 . S
C877 C879 1.416 . S
C877 C906 1.427 . S
C878 C870 1.424 . S
C878 N875 1.361 . S
C878 C877 1.413 . S
C879 H868 0.931 . S
C879 C877 1.416 . S
C879 C880 1.332 . S
C880 H859 0.929 . S
C880 C876 1.407 . S
C880 C879 1.332 . S
H881 C874 0.930 . S
H882 C905 0.930 . S
H883 C906 0.929 . S
O884 Tb840 2.465 . S
O884 C904 1.264 . S
O885 Tb840 2.387 . S
O885 C896 1.264 . S
O886 Tb851 2.349 . S
O886 C896 1.243 . S
O887 Tb840 2.428 . S
O887 C904 1.256 . S
O888 Tb840 2.308 . S
O888 C903 1.266 . S
O889 Tb851 2.393 . S
O889 C903 1.248 . S
O890 Tb851 2.465 1_545 S
O890 C915 1.264 . S
O891 Tb851 2.387 . S
O891 C907 1.264 . S
O892 Tb840 2.349 . S
O892 C907 1.243 . S
O893 Tb851 2.440 . S
O893 C915 1.224 1_565 S
O894 Tb851 2.308 . S
O894 C914 1.266 . S
O895 Tb840 2.393 . S
O895 C914 1.248 . S
C896 O885 1.264 . S
C896 O886 1.243 . S
C897 C900 1.399 . S
C897 C902 1.383 . S
C897 C904 1.496 . S
C898 C899 1.399 . S
C898 C902 1.389 . S
C899 C898 1.399 . S
C899 C901 1.380 . S
C899 H916 0.929 . S
C900 C897 1.399 . S
C900 C901 1.392 . S
C900 H917 0.929 . S
C901 C899 1.380 . S
C901 C900 1.392 . S
C901 H918 0.929 . S
C902 C897 1.383 . S
C902 C898 1.389 . S
C902 H919 0.931 . S
C903 O888 1.266 . S
C903 O889 1.248 . S
C904 Tb840 2.802 . S
C904 O884 1.264 . S
C904 O887 1.256 . S
C904 C897 1.496 . S
C905 C872 1.448 . S
C905 H882 0.930 . S
C905 C906 1.328 . S
C906 C877 1.427 . S
C906 H883 0.929 . S
C906 C905 1.328 . S
C907 O891 1.264 . S
C907 O892 1.243 . S
C908 C911 1.399 . S
C908 C912 1.383 . S
C908 C915 1.496 . S
C909 C910 1.399 . S
C909 C912 1.389 . S
C910 C909 1.399 . S
C910 C913 1.380 . S
C910 H920 0.929 . S
C911 C908 1.399 . S
C911 C913 1.392 . S
C911 H921 0.929 . S
C912 C908 1.383 . S
C912 C909 1.389 . S
C912 H922 0.931 . S
C913 C910 1.380 . S
C913 C911 1.392 . S
C913 H923 0.929 . S
C914 O894 1.266 . S
C914 O895 1.248 . S
C915 Tb851 2.802 1_545 S
C915 O890 1.264 . S
C915 O893 1.224 1_545 S
C915 C908 1.496 . S
H916 C899 0.929 . S
H917 C900 0.929 . S
H918 C901 0.929 . S
H919 C902 0.931 . S
H920 C910 0.929 . S
H921 C911 0.929 . S
H922 C912 0.931 . S
H923 C913 0.929 . S
Tb924 N953 2.617 . S
Tb924 N959 2.572 . S
Tb924 O968 2.465 . S
Tb924 O969 2.387 . S
Tb924 O971 2.428 . S
Tb924 O972 2.308 . S
Tb924 O976 2.349 . S
Tb924 O979 2.393 . S
Tb924 C988 2.802 . S
C925 N926 1.396 . S
C925 C928 1.416 . S
C925 C932 1.424 . S
N926 C925 1.396 . S
N926 C929 1.322 1_545 S
N926 Tb935 2.612 1_545 S
C927 C929 1.390 . S
C927 C930 1.339 1_565 S
C927 H947 0.930 . S
C928 C925 1.416 . S
C928 C930 1.416 . S
C928 C934 1.448 . S
C929 N926 1.322 1_565 S
C929 C927 1.390 . S
C929 H940 0.930 . S
C930 C927 1.339 1_545 S
C930 C928 1.416 . S
C930 H951 0.930 . S
C931 C932 1.413 . S
C931 C933 1.427 . S
C931 C937 1.416 . S
C932 C925 1.424 . S
C932 C931 1.413 . S
C932 N936 1.361 . S
C933 C931 1.427 . S
C933 C934 1.328 . S
C933 H948 0.929 . S
C934 C928 1.448 . S
C934 C933 1.328 . S
C934 H949 0.930 . S
Tb935 N926 2.612 1_565 S
Tb935 N936 2.572 1_565 S
Tb935 O970 2.349 . S
Tb935 O973 2.393 . S
Tb935 O974 2.465 1_565 S
Tb935 O975 2.387 . S
Tb935 O977 2.441 . S
Tb935 O978 2.308 . S
Tb935 C999 2.802 1_565 S
N936 C932 1.361 . S
N936 Tb935 2.572 1_545 S
N936 C938 1.340 . S
C937 C931 1.416 . S
C937 C939 1.332 . S
C937 H945 0.931 . S
C938 N936 1.340 . S
C938 C939 1.407 . S
C938 H944 0.930 . S
C939 C937 1.332 . S
C939 C938 1.407 . S
C939 H941 0.929 . S
H940 C929 0.930 . S
H941 C939 0.929 . S
H942 C957 0.930 . S
H943 C964 0.929 . S
H944 C938 0.930 . S
H945 C937 0.931 . S
H946 C960 0.930 . S
H947 C927 0.930 . S
H948 C933 0.929 . S
H949 C934 0.930 . S
H950 C955 0.930 . S
H951 C930 0.930 . S
H952 C963 0.931 . S
N953 Tb924 2.617 . S
N953 C954 1.379 . S
N953 C957 1.334 . S
C954 N953 1.379 . S
C954 C956 1.416 . S
C954 C962 1.424 . S
C955 H950 0.930 . S
C955 C957 1.390 . S
C955 C958 1.339 . S
C956 C954 1.416 . S
C956 C958 1.416 . S
C956 C989 1.448 . S
C957 H942 0.930 . S
C957 N953 1.334 . S
C957 C955 1.390 . S
C958 C955 1.339 . S
C958 C956 1.416 . S
C958 H965 0.930 . S
N959 Tb924 2.572 . S
N959 C960 1.340 . S
N959 C962 1.361 . S
C960 H946 0.930 . S
C960 N959 1.340 . S
C960 C964 1.407 . S
C961 C962 1.413 . S
C961 C963 1.416 . S
C961 C990 1.427 . S
C962 C954 1.424 . S
C962 N959 1.361 . S
C962 C961 1.413 . S
C963 H952 0.931 . S
C963 C961 1.416 . S
C963 C964 1.332 . S
C964 H943 0.929 . S
C964 C960 1.407 . S
C964 C963 1.332 . S
H965 C958 0.930 . S
H966 C989 0.930 . S
H967 C990 0.929 . S
O968 Tb924 2.465 . S
O968 C988 1.264 . S
O969 Tb924 2.387 . S
O969 C980 1.264 . S
O970 Tb935 2.349 . S
O970 C980 1.243 . S
O971 Tb924 2.428 . S
O971 C988 1.256 . S
O972 Tb924 2.308 . S
O972 C987 1.266 . S
O973 Tb935 2.393 . S
O973 C987 1.248 . S
O974 Tb935 2.465 1_545 S
O974 C999 1.264 . S
O975 Tb935 2.387 . S
O975 C991 1.264 . S
O976 Tb924 2.349 . S
O976 C991 1.243 . S
O977 Tb935 2.441 . S
O977 C999 1.220 1_565 S
O978 Tb935 2.308 . S
O978 C998 1.266 . S
O979 Tb924 2.393 . S
O979 C998 1.248 . S
C980 O969 1.264 . S
C980 O970 1.243 . S
C981 C984 1.399 . S
C981 C986 1.383 . S
C981 C988 1.496 . S
C982 C983 1.399 . S
C982 C986 1.389 . S
C983 C982 1.399 . S
C983 C985 1.380 . S
C983 H1000 0.929 . S
C984 C981 1.399 . S
C984 C985 1.392 . S
C984 H1001 0.929 . S
C985 C983 1.380 . S
C985 C984 1.392 . S
C985 H1002 0.929 . S
C986 C981 1.383 . S
C986 C982 1.389 . S
C986 H1003 0.931 . S
C987 O972 1.266 . S
C987 O973 1.248 . S
C988 Tb924 2.802 . S
C988 O968 1.264 . S
C988 O971 1.256 . S
C988 C981 1.496 . S
C989 C956 1.448 . S
C989 H966 0.930 . S
C989 C990 1.328 . S
C990 C961 1.427 . S
C990 H967 0.929 . S
C990 C989 1.328 . S
C991 O975 1.264 . S
C991 O976 1.243 . S
C992 C995 1.399 . S
C992 C996 1.383 . S
C992 C999 1.496 . S
C993 C994 1.399 . S
C993 C996 1.389 . S
C994 C993 1.399 . S
C994 C997 1.380 . S
C994 H1004 0.929 . S
C995 C992 1.399 . S
C995 C997 1.392 . S
C995 H1005 0.929 . S
C996 C992 1.383 . S
C996 C993 1.389 . S
C996 H1006 0.931 . S
C997 C994 1.380 . S
C997 C995 1.392 . S
C997 H1007 0.929 . S
C998 O978 1.266 . S
C998 O979 1.248 . S
C999 Tb935 2.802 1_545 S
C999 O974 1.264 . S
C999 O977 1.220 1_545 S
C999 C992 1.496 . S
H1000 C983 0.929 . S
H1001 C984 0.929 . S
H1002 C985 0.929 . S
H1003 C986 0.931 . S
H1004 C994 0.929 . S
H1005 C995 0.929 . S
H1006 C996 0.931 . S
H1007 C997 0.929 . S
Tb1008 N1037 2.617 1_554 S
Tb1008 N1043 2.572 . S
Tb1008 O1052 2.465 1_554 S
Tb1008 O1053 2.387 . S
Tb1008 O1055 2.428 1_554 S
Tb1008 O1056 2.308 . S
Tb1008 O1060 2.338 1_554 S
Tb1008 O1063 2.398 . S
Tb1008 C1072 2.802 1_554 S
C1009 N1010 1.379 . S
C1009 C1012 1.416 . S
C1009 C1016 1.424 . S
N1010 C1009 1.379 . S
N1010 C1013 1.334 . S
N1010 Tb1019 2.617 . S
C1011 C1013 1.390 . S
C1011 C1014 1.339 . S
C1011 H1031 0.930 . S
C1012 C1009 1.416 . S
C1012 C1014 1.416 . S
C1012 C1018 1.448 . S
C1013 N1010 1.334 . S
C1013 C1011 1.390 . S
C1013 H1024 0.930 . S
C1014 C1011 1.339 . S
C1014 C1012 1.416 . S
C1014 H1035 0.930 . S
C1015 C1016 1.413 . S
C1015 C1017 1.427 . S
C1015 C1021 1.416 . S
C1016 C1009 1.424 . S
C1016 C1015 1.413 . S
C1016 N1020 1.361 . S
C1017 C1015 1.427 . S
C1017 C1018 1.328 . S
C1017 H1032 0.929 . S
C1018 C1012 1.448 . S
C1018 C1017 1.328 . S
C1018 H1033 0.930 . S
Tb1019 N1010 2.617 . S
Tb1019 N1020 2.572 . S
Tb1019 O1054 2.349 . S
Tb1019 O1057 2.393 . S
Tb1019 O1058 2.465 . S
Tb1019 O1059 2.387 . S
Tb1019 O1061 2.428 . S
Tb1019 O1062 2.308 . S
Tb1019 C1083 2.802 . S
N1020 C1016 1.361 . S
N1020 Tb1019 2.572 . S
N1020 C1022 1.340 . S
C1021 C1015 1.416 . S
C1021 C1023 1.332 . S
C1021 H1029 0.931 . S
C1022 N1020 1.340 . S
C1022 C1023 1.407 . S
C1022 H1028 0.930 . S
C1023 C1021 1.332 . S
C1023 C1022 1.407 . S
C1023 H1025 0.929 . S
H1024 C1013 0.930 . S
H1025 C1023 0.929 . S
H1026 C1041 0.930 . S
H1027 C1048 0.929 . S
H1028 C1022 0.930 . S
H1029 C1021 0.931 . S
H1030 C1044 0.930 . S
H1031 C1011 0.930 . S
H1032 C1017 0.929 . S
H1033 C1018 0.930 . S
H1034 C1039 0.930 . S
H1035 C1014 0.930 . S
H1036 C1047 0.931 . S
N1037 Tb1008 2.617 1_556 S
N1037 C1038 1.379 1_556 S
N1037 C1041 1.334 . S
C1038 N1037 1.379 1_554 S
C1038 C1040 1.416 1_554 S
C1038 C1046 1.424 . S
C1039 H1034 0.930 . S
C1039 C1041 1.390 . S
C1039 C1042 1.339 . S
C1040 C1038 1.416 1_556 S
C1040 C1042 1.416 . S
C1040 C1073 1.448 1_556 S
C1041 H1026 0.930 . S
C1041 N1037 1.334 . S
C1041 C1039 1.390 . S
C1042 C1039 1.339 . S
C1042 C1040 1.416 . S
C1042 H1049 0.930 . S
N1043 Tb1008 2.572 . S
N1043 C1044 1.340 . S
N1043 C1046 1.361 . S
C1044 H1030 0.930 . S
C1044 N1043 1.340 . S
C1044 C1048 1.407 . S
C1045 C1046 1.413 . S
C1045 C1047 1.416 . S
C1045 C1074 1.427 . S
C1046 C1038 1.424 . S
C1046 N1043 1.361 . S
C1046 C1045 1.413 . S
C1047 H1036 0.931 . S
C1047 C1045 1.416 . S
C1047 C1048 1.332 . S
C1048 H1027 0.929 . S
C1048 C1044 1.407 . S
C1048 C1047 1.332 . S
H1049 C1042 0.930 . S
H1050 C1073 0.930 . S
H1051 C1074 0.929 . S
O1052 Tb1008 2.465 1_556 S
O1052 C1072 1.264 . S
O1053 Tb1008 2.387 . S
O1053 C1064 1.264 . S
O1054 Tb1019 2.349 . S
O1054 C1064 1.243 . S
O1055 Tb1008 2.428 1_556 S
O1055 C1072 1.256 . S
O1056 Tb1008 2.308 . S
O1056 C1071 1.266 . S
O1057 Tb1019 2.393 . S
O1057 C1071 1.248 . S
O1058 Tb1019 2.465 . S
O1058 C1083 1.264 . S
O1059 Tb1019 2.387 . S
O1059 C1075 1.264 . S
O1060 Tb1008 2.338 1_556 S
O1060 C1075 1.229 1_556 S
O1061 Tb1019 2.428 . S
O1061 C1083 1.256 . S
O1062 Tb1019 2.308 . S
O1062 C1082 1.266 . S
O1063 Tb1008 2.398 . S
O1063 C1082 1.263 . S
C1064 O1053 1.264 . S
C1064 O1054 1.243 . S
C1065 C1068 1.399 . S
C1065 C1070 1.383 . S
C1065 C1072 1.496 . S
C1066 C1067 1.399 . S
C1066 C1070 1.389 . S
C1067 C1066 1.399 . S
C1067 C1069 1.380 . S
C1067 H1084 0.929 . S
C1068 C1065 1.399 . S
C1068 C1069 1.392 . S
C1068 H1085 0.929 . S
C1069 C1067 1.380 . S
C1069 C1068 1.392 . S
C1069 H1086 0.929 . S
C1070 C1065 1.383 . S
C1070 C1066 1.389 . S
C1070 H1087 0.931 . S
C1071 O1056 1.266 . S
C1071 O1057 1.248 . S
C1072 Tb1008 2.802 1_556 S
C1072 O1052 1.264 . S
C1072 O1055 1.256 . S
C1072 C1065 1.496 . S
C1073 C1040 1.448 1_554 S
C1073 H1050 0.930 . S
C1073 C1074 1.328 . S
C1074 C1045 1.427 . S
C1074 H1051 0.929 . S
C1074 C1073 1.328 . S
C1075 O1059 1.264 . S
C1075 O1060 1.229 1_554 S
C1076 C1079 1.399 . S
C1076 C1080 1.383 . S
C1076 C1083 1.496 . S
C1077 C1078 1.399 . S
C1077 C1080 1.389 . S
C1078 C1077 1.399 . S
C1078 C1081 1.380 . S
C1078 H1088 0.929 . S
C1079 C1076 1.399 . S
C1079 C1081 1.392 . S
C1079 H1089 0.929 . S
C1080 C1076 1.383 . S
C1080 C1077 1.389 . S
C1080 H1090 0.931 . S
C1081 C1078 1.380 . S
C1081 C1079 1.392 . S
C1081 H1091 0.929 . S
C1082 O1062 1.266 . S
C1082 O1063 1.263 . S
C1083 Tb1019 2.802 . S
C1083 O1058 1.264 . S
C1083 O1061 1.256 . S
C1083 C1076 1.496 . S
H1084 C1067 0.929 . S
H1085 C1068 0.929 . S
H1086 C1069 0.929 . S
H1087 C1070 0.931 . S
H1088 C1078 0.929 . S
H1089 C1079 0.929 . S
H1090 C1080 0.931 . S
H1091 C1081 0.929 . S
Tb1092 N1121 2.617 . S
Tb1092 N1127 2.572 . S
Tb1092 O1136 2.465 . S
Tb1092 O1137 2.387 . S
Tb1092 O1139 2.428 . S
Tb1092 O1140 2.308 . S
Tb1092 O1144 2.349 . S
Tb1092 O1147 2.393 . S
Tb1092 C1156 2.802 . S
C1093 N1094 1.407 . S
C1093 C1096 1.416 . S
C1093 C1100 1.424 . S
N1094 C1093 1.407 . S
N1094 C1097 1.315 1_455 S
N1094 Tb1103 2.610 1_455 S
C1095 C1097 1.390 . S
C1095 C1098 1.339 1_655 S
C1095 H1115 0.930 . S
C1096 C1093 1.416 . S
C1096 C1098 1.416 . S
C1096 C1102 1.448 . S
C1097 N1094 1.315 1_655 S
C1097 C1095 1.390 . S
C1097 H1108 0.930 . S
C1098 C1095 1.339 1_455 S
C1098 C1096 1.416 . S
C1098 H1119 0.930 . S
C1099 C1100 1.413 . S
C1099 C1101 1.427 . S
C1099 C1105 1.416 . S
C1100 C1093 1.424 . S
C1100 C1099 1.413 . S
C1100 N1104 1.361 . S
C1101 C1099 1.427 . S
C1101 C1102 1.328 . S
C1101 H1116 0.929 . S
C1102 C1096 1.448 . S
C1102 C1101 1.328 . S
C1102 H1117 0.930 . S
Tb1103 N1094 2.610 1_655 S
Tb1103 N1104 2.572 1_655 S
Tb1103 O1138 2.349 . S
Tb1103 O1141 2.393 . S
Tb1103 O1142 2.465 1_655 S
Tb1103 O1143 2.387 . S
Tb1103 O1145 2.433 . S
Tb1103 O1146 2.308 . S
Tb1103 C1167 2.802 1_655 S
N1104 C1100 1.361 . S
N1104 Tb1103 2.572 1_455 S
N1104 C1106 1.340 . S
C1105 C1099 1.416 . S
C1105 C1107 1.332 . S
C1105 H1113 0.931 . S
C1106 N1104 1.340 . S
C1106 C1107 1.407 . S
C1106 H1112 0.930 . S
C1107 C1105 1.332 . S
C1107 C1106 1.407 . S
C1107 H1109 0.929 . S
H1108 C1097 0.930 . S
H1109 C1107 0.929 . S
H1110 C1125 0.930 . S
H1111 C1132 0.929 . S
H1112 C1106 0.930 . S
H1113 C1105 0.931 . S
H1114 C1128 0.930 . S
H1115 C1095 0.930 . S
H1116 C1101 0.929 . S
H1117 C1102 0.930 . S
H1118 C1123 0.930 . S
H1119 C1098 0.930 . S
H1120 C1131 0.931 . S
N1121 Tb1092 2.617 . S
N1121 C1122 1.379 . S
N1121 C1125 1.334 . S
C1122 N1121 1.379 . S
C1122 C1124 1.416 . S
C1122 C1130 1.424 . S
C1123 H1118 0.930 . S
C1123 C1125 1.390 . S
C1123 C1126 1.339 . S
C1124 C1122 1.416 . S
C1124 C1126 1.416 . S
C1124 C1157 1.448 . S
C1125 H1110 0.930 . S
C1125 N1121 1.334 . S
C1125 C1123 1.390 . S
C1126 C1123 1.339 . S
C1126 C1124 1.416 . S
C1126 H1133 0.930 . S
N1127 Tb1092 2.572 . S
N1127 C1128 1.340 . S
N1127 C1130 1.361 . S
C1128 H1114 0.930 . S
C1128 N1127 1.340 . S
C1128 C1132 1.407 . S
C1129 C1130 1.413 . S
C1129 C1131 1.416 . S
C1129 C1158 1.427 . S
C1130 C1122 1.424 . S
C1130 N1127 1.361 . S
C1130 C1129 1.413 . S
C1131 H1120 0.931 . S
C1131 C1129 1.416 . S
C1131 C1132 1.332 . S
C1132 H1111 0.929 . S
C1132 C1128 1.407 . S
C1132 C1131 1.332 . S
H1133 C1126 0.930 . S
H1134 C1157 0.930 . S
H1135 C1158 0.929 . S
O1136 Tb1092 2.465 . S
O1136 C1156 1.264 . S
O1137 Tb1092 2.387 . S
O1137 C1148 1.264 . S
O1138 Tb1103 2.349 . S
O1138 C1148 1.243 . S
O1139 Tb1092 2.428 . S
O1139 C1156 1.256 . S
O1140 Tb1092 2.308 . S
O1140 C1155 1.266 . S
O1141 Tb1103 2.393 . S
O1141 C1155 1.248 . S
O1142 Tb1103 2.465 1_455 S
O1142 C1167 1.264 . S
O1143 Tb1103 2.387 . S
O1143 C1159 1.264 . S
O1144 Tb1092 2.349 . S
O1144 C1159 1.243 . S
O1145 Tb1103 2.433 . S
O1145 C1167 1.240 1_655 S
O1146 Tb1103 2.308 . S
O1146 C1166 1.266 . S
O1147 Tb1092 2.393 . S
O1147 C1166 1.248 . S
C1148 O1137 1.264 . S
C1148 O1138 1.243 . S
C1149 C1152 1.399 . S
C1149 C1154 1.383 . S
C1149 C1156 1.496 . S
C1150 C1151 1.399 . S
C1150 C1154 1.389 . S
C1151 C1150 1.399 . S
C1151 C1153 1.380 . S
C1151 H1168 0.929 . S
C1152 C1149 1.399 . S
C1152 C1153 1.392 . S
C1152 H1169 0.929 . S
C1153 C1151 1.380 . S
C1153 C1152 1.392 . S
C1153 H1170 0.929 . S
C1154 C1149 1.383 . S
C1154 C1150 1.389 . S
C1154 H1171 0.931 . S
C1155 O1140 1.266 . S
C1155 O1141 1.248 . S
C1156 Tb1092 2.802 . S
C1156 O1136 1.264 . S
C1156 O1139 1.256 . S
C1156 C1149 1.496 . S
C1157 C1124 1.448 . S
C1157 H1134 0.930 . S
C1157 C1158 1.328 . S
C1158 C1129 1.427 . S
C1158 H1135 0.929 . S
C1158 C1157 1.328 . S
C1159 O1143 1.264 . S
C1159 O1144 1.243 . S
C1160 C1163 1.399 . S
C1160 C1164 1.383 . S
C1160 C1167 1.496 . S
C1161 C1162 1.399 . S
C1161 C1164 1.389 . S
C1162 C1161 1.399 . S
C1162 C1165 1.380 . S
C1162 H1172 0.929 . S
C1163 C1160 1.399 . S
C1163 C1165 1.392 . S
C1163 H1173 0.929 . S
C1164 C1160 1.383 . S
C1164 C1161 1.389 . S
C1164 H1174 0.931 . S
C1165 C1162 1.380 . S
C1165 C1163 1.392 . S
C1165 H1175 0.929 . S
C1166 O1146 1.266 . S
C1166 O1147 1.248 . S
C1167 Tb1103 2.802 1_455 S
C1167 O1142 1.264 . S
C1167 O1145 1.240 1_455 S
C1167 C1160 1.496 . S
H1168 C1151 0.929 . S
H1169 C1152 0.929 . S
H1170 C1153 0.929 . S
H1171 C1154 0.931 . S
H1172 C1162 0.929 . S
H1173 C1163 0.929 . S
H1174 C1164 0.931 . S
H1175 C1165 0.929 . S
Tb1176 N1205 2.617 . S
Tb1176 N1211 2.572 . S
Tb1176 O1220 2.465 . S
Tb1176 O1221 2.387 . S
Tb1176 O1223 2.428 . S
Tb1176 O1224 2.308 . S
Tb1176 O1228 2.349 . S
Tb1176 O1231 2.393 . S
Tb1176 C1240 2.802 . S
C1177 N1178 1.379 . S
C1177 C1180 1.416 . S
C1177 C1184 1.424 . S
N1178 C1177 1.379 . S
N1178 C1181 1.334 . S
N1178 Tb1187 2.617 . S
C1179 C1181 1.390 . S
C1179 C1182 1.339 . S
C1179 H1199 0.930 . S
C1180 C1177 1.416 . S
C1180 C1182 1.416 . S
C1180 C1186 1.448 . S
C1181 N1178 1.334 . S
C1181 C1179 1.390 . S
C1181 H1192 0.930 . S
C1182 C1179 1.339 . S
C1182 C1180 1.416 . S
C1182 H1203 0.930 . S
C1183 C1184 1.413 . S
C1183 C1185 1.427 . S
C1183 C1189 1.416 . S
C1184 C1177 1.424 . S
C1184 C1183 1.413 . S
C1184 N1188 1.361 . S
C1185 C1183 1.427 . S
C1185 C1186 1.328 . S
C1185 H1200 0.929 . S
C1186 C1180 1.448 . S
C1186 C1185 1.328 . S
C1186 H1201 0.930 . S
Tb1187 N1178 2.617 . S
Tb1187 N1188 2.572 . S
Tb1187 O1222 2.349 . S
Tb1187 O1225 2.393 . S
Tb1187 O1226 2.465 . S
Tb1187 O1227 2.387 . S
Tb1187 O1229 2.428 . S
Tb1187 O1230 2.308 . S
Tb1187 C1251 2.802 . S
N1188 C1184 1.361 . S
N1188 Tb1187 2.572 . S
N1188 C1190 1.340 . S
C1189 C1183 1.416 . S
C1189 C1191 1.332 . S
C1189 H1197 0.931 . S
C1190 N1188 1.340 . S
C1190 C1191 1.407 . S
C1190 H1196 0.930 . S
C1191 C1189 1.332 . S
C1191 C1190 1.407 . S
C1191 H1193 0.929 . S
H1192 C1181 0.930 . S
H1193 C1191 0.929 . S
H1194 C1209 0.930 . S
H1195 C1216 0.929 . S
H1196 C1190 0.930 . S
H1197 C1189 0.931 . S
H1198 C1212 0.930 . S
H1199 C1179 0.930 . S
H1200 C1185 0.929 . S
H1201 C1186 0.930 . S
H1202 C1207 0.930 . S
H1203 C1182 0.930 . S
H1204 C1215 0.931 . S
N1205 Tb1176 2.617 . S
N1205 C1206 1.379 . S
N1205 C1209 1.334 . S
C1206 N1205 1.379 . S
C1206 C1208 1.416 . S
C1206 C1214 1.424 . S
C1207 H1202 0.930 . S
C1207 C1209 1.390 . S
C1207 C1210 1.339 . S
C1208 C1206 1.416 . S
C1208 C1210 1.416 . S
C1208 C1241 1.448 . S
C1209 H1194 0.930 . S
C1209 N1205 1.334 . S
C1209 C1207 1.390 . S
C1210 C1207 1.339 . S
C1210 C1208 1.416 . S
C1210 H1217 0.930 . S
N1211 Tb1176 2.572 . S
N1211 C1212 1.340 . S
N1211 C1214 1.361 . S
C1212 H1198 0.930 . S
C1212 N1211 1.340 . S
C1212 C1216 1.407 . S
C1213 C1214 1.413 . S
C1213 C1215 1.416 . S
C1213 C1242 1.427 . S
C1214 C1206 1.424 . S
C1214 N1211 1.361 . S
C1214 C1213 1.413 . S
C1215 H1204 0.931 . S
C1215 C1213 1.416 . S
C1215 C1216 1.332 . S
C1216 H1195 0.929 . S
C1216 C1212 1.407 . S
C1216 C1215 1.332 . S
H1217 C1210 0.930 . S
H1218 C1241 0.930 . S
H1219 C1242 0.929 . S
O1220 Tb1176 2.465 . S
O1220 C1240 1.264 . S
O1221 Tb1176 2.387 . S
O1221 C1232 1.264 . S
O1222 Tb1187 2.349 . S
O1222 C1232 1.243 . S
O1223 Tb1176 2.428 . S
O1223 C1240 1.256 . S
O1224 Tb1176 2.308 . S
O1224 C1239 1.266 . S
O1225 Tb1187 2.393 . S
O1225 C1239 1.248 . S
O1226 Tb1187 2.465 . S
O1226 C1251 1.264 . S
O1227 Tb1187 2.387 . S
O1227 C1243 1.264 . S
O1228 Tb1176 2.349 . S
O1228 C1243 1.243 . S
O1229 Tb1187 2.428 . S
O1229 C1251 1.256 . S
O1230 Tb1187 2.308 . S
O1230 C1250 1.266 . S
O1231 Tb1176 2.393 . S
O1231 C1250 1.248 . S
C1232 O1221 1.264 . S
C1232 O1222 1.243 . S
C1233 C1236 1.399 . S
C1233 C1238 1.383 . S
C1233 C1240 1.496 . S
C1234 C1235 1.399 . S
C1234 C1238 1.389 . S
C1235 C1234 1.399 . S
C1235 C1237 1.380 . S
C1235 H1252 0.929 . S
C1236 C1233 1.399 . S
C1236 C1237 1.392 . S
C1236 H1253 0.929 . S
C1237 C1235 1.380 . S
C1237 C1236 1.392 . S
C1237 H1254 0.929 . S
C1238 C1233 1.383 . S
C1238 C1234 1.389 . S
C1238 H1255 0.931 . S
C1239 O1224 1.266 . S
C1239 O1225 1.248 . S
C1240 Tb1176 2.802 . S
C1240 O1220 1.264 . S
C1240 O1223 1.256 . S
C1240 C1233 1.496 . S
C1241 C1208 1.448 . S
C1241 H1218 0.930 . S
C1241 C1242 1.328 . S
C1242 C1213 1.427 . S
C1242 H1219 0.929 . S
C1242 C1241 1.328 . S
C1243 O1227 1.264 . S
C1243 O1228 1.243 . S
C1244 C1247 1.399 . S
C1244 C1248 1.383 . S
C1244 C1251 1.496 . S
C1245 C1246 1.399 . S
C1245 C1248 1.389 . S
C1246 C1245 1.399 . S
C1246 C1249 1.380 . S
C1246 H1256 0.929 . S
C1247 C1244 1.399 . S
C1247 C1249 1.392 . S
C1247 H1257 0.929 . S
C1248 C1244 1.383 . S
C1248 C1245 1.389 . S
C1248 H1258 0.931 . S
C1249 C1246 1.380 . S
C1249 C1247 1.392 . S
C1249 H1259 0.929 . S
C1250 O1230 1.266 . S
C1250 O1231 1.248 . S
C1251 Tb1187 2.802 . S
C1251 O1226 1.264 . S
C1251 O1229 1.256 . S
C1251 C1244 1.496 . S
H1252 C1235 0.929 . S
H1253 C1236 0.929 . S
H1254 C1237 0.929 . S
H1255 C1238 0.931 . S
H1256 C1246 0.929 . S
H1257 C1247 0.929 . S
H1258 C1248 0.931 . S
H1259 C1249 0.929 . S
Tb1260 N1289 2.624 . S
Tb1260 N1295 2.572 1_655 S
Tb1260 O1304 2.465 1_655 S
Tb1260 O1305 2.387 . S
Tb1260 O1307 2.428 . S
Tb1260 O1308 2.308 . S
Tb1260 O1312 2.349 . S
Tb1260 O1315 2.393 . S
Tb1260 C1324 2.802 1_655 S
C1261 N1262 1.379 . S
C1261 C1264 1.416 . S
C1261 C1268 1.424 . S
N1262 C1261 1.379 . S
N1262 C1265 1.334 . S
N1262 Tb1271 2.617 . S
C1263 C1265 1.390 . S
C1263 C1266 1.339 . S
C1263 H1283 0.930 . S
C1264 C1261 1.416 . S
C1264 C1266 1.416 . S
C1264 C1270 1.448 . S
C1265 N1262 1.334 . S
C1265 C1263 1.390 . S
C1265 H1276 0.930 . S
C1266 C1263 1.339 . S
C1266 C1264 1.416 . S
C1266 H1287 0.930 . S
C1267 C1268 1.413 . S
C1267 C1269 1.427 . S
C1267 C1273 1.416 . S
C1268 C1261 1.424 . S
C1268 C1267 1.413 . S
C1268 N1272 1.361 . S
C1269 C1267 1.427 . S
C1269 C1270 1.328 . S
C1269 H1284 0.929 . S
C1270 C1264 1.448 . S
C1270 C1269 1.328 . S
C1270 H1285 0.930 . S
Tb1271 N1262 2.617 . S
Tb1271 N1272 2.572 . S
Tb1271 O1306 2.349 . S
Tb1271 O1309 2.393 . S
Tb1271 O1310 2.465 . S
Tb1271 O1311 2.387 . S
Tb1271 O1313 2.428 . S
Tb1271 O1314 2.308 . S
Tb1271 C1335 2.802 . S
N1272 C1268 1.361 . S
N1272 Tb1271 2.572 . S
N1272 C1274 1.340 . S
C1273 C1267 1.416 . S
C1273 C1275 1.332 . S
C1273 H1281 0.931 . S
C1274 N1272 1.340 . S
C1274 C1275 1.407 . S
C1274 H1280 0.930 . S
C1275 C1273 1.332 . S
C1275 C1274 1.407 . S
C1275 H1277 0.929 . S
H1276 C1265 0.930 . S
H1277 C1275 0.929 . S
H1278 C1293 0.930 . S
H1279 C1300 0.929 . S
H1280 C1274 0.930 . S
H1281 C1273 0.931 . S
H1282 C1296 0.930 . S
H1283 C1263 0.930 . S
H1284 C1269 0.929 . S
H1285 C1270 0.930 . S
H1286 C1291 0.930 . S
H1287 C1266 0.930 . S
H1288 C1299 0.931 . S
N1289 Tb1260 2.624 . S
N1289 C1290 1.355 1_655 S
N1289 C1293 1.352 . S
C1290 N1289 1.355 1_455 S
C1290 C1292 1.416 . S
C1290 C1298 1.424 . S
C1291 H1286 0.930 . S
C1291 C1293 1.390 . S
C1291 C1294 1.339 1_655 S
C1292 C1290 1.416 . S
C1292 C1294 1.416 . S
C1292 C1325 1.448 . S
C1293 H1278 0.930 . S
C1293 N1289 1.352 . S
C1293 C1291 1.390 . S
C1294 C1291 1.339 1_455 S
C1294 C1292 1.416 . S
C1294 H1301 0.930 . S
N1295 Tb1260 2.572 1_455 S
N1295 C1296 1.340 . S
N1295 C1298 1.361 . S
C1296 H1282 0.930 . S
C1296 N1295 1.340 . S
C1296 C1300 1.407 . S
C1297 C1298 1.413 . S
C1297 C1299 1.416 . S
C1297 C1326 1.427 . S
C1298 C1290 1.424 . S
C1298 N1295 1.361 . S
C1298 C1297 1.413 . S
C1299 H1288 0.931 . S
C1299 C1297 1.416 . S
C1299 C1300 1.332 . S
C1300 H1279 0.929 . S
C1300 C1296 1.407 . S
C1300 C1299 1.332 . S
H1301 C1294 0.930 . S
H1302 C1325 0.930 . S
H1303 C1326 0.929 . S
O1304 Tb1260 2.465 1_455 S
O1304 C1324 1.264 . S
O1305 Tb1260 2.387 . S
O1305 C1316 1.264 . S
O1306 Tb1271 2.349 . S
O1306 C1316 1.243 . S
O1307 Tb1260 2.428 . S
O1307 C1324 1.256 1_655 S
O1308 Tb1260 2.308 . S
O1308 C1323 1.266 . S
O1309 Tb1271 2.393 . S
O1309 C1323 1.248 . S
O1310 Tb1271 2.465 . S
O1310 C1335 1.264 . S
O1311 Tb1271 2.387 . S
O1311 C1327 1.264 . S
O1312 Tb1260 2.349 . S
O1312 C1327 1.243 . S
O1313 Tb1271 2.428 . S
O1313 C1335 1.256 . S
O1314 Tb1271 2.308 . S
O1314 C1334 1.266 . S
O1315 Tb1260 2.393 . S
O1315 C1334 1.248 . S
C1316 O1305 1.264 . S
C1316 O1306 1.243 . S
C1317 C1320 1.399 . S
C1317 C1322 1.383 . S
C1317 C1324 1.496 . S
C1318 C1319 1.399 . S
C1318 C1322 1.389 . S
C1319 C1318 1.399 . S
C1319 C1321 1.380 . S
C1319 H1336 0.929 . S
C1320 C1317 1.399 . S
C1320 C1321 1.392 . S
C1320 H1337 0.929 . S
C1321 C1319 1.380 . S
C1321 C1320 1.392 . S
C1321 H1338 0.929 . S
C1322 C1317 1.383 . S
C1322 C1318 1.389 . S
C1322 H1339 0.931 . S
C1323 O1308 1.266 . S
C1323 O1309 1.248 . S
C1324 Tb1260 2.802 1_455 S
C1324 O1304 1.264 . S
C1324 O1307 1.256 1_455 S
C1324 C1317 1.496 . S
C1325 C1292 1.448 . S
C1325 H1302 0.930 . S
C1325 C1326 1.328 . S
C1326 C1297 1.427 . S
C1326 H1303 0.929 . S
C1326 C1325 1.328 . S
C1327 O1311 1.264 . S
C1327 O1312 1.243 . S
C1328 C1331 1.399 . S
C1328 C1332 1.383 . S
C1328 C1335 1.496 . S
C1329 C1330 1.399 . S
C1329 C1332 1.389 . S
C1330 C1329 1.399 . S
C1330 C1333 1.380 . S
C1330 H1340 0.929 . S
C1331 C1328 1.399 . S
C1331 C1333 1.392 . S
C1331 H1341 0.929 . S
C1332 C1328 1.383 . S
C1332 C1329 1.389 . S
C1332 H1342 0.931 . S
C1333 C1330 1.380 . S
C1333 C1331 1.392 . S
C1333 H1343 0.929 . S
C1334 O1314 1.266 . S
C1334 O1315 1.248 . S
C1335 Tb1271 2.802 . S
C1335 O1310 1.264 . S
C1335 O1313 1.256 . S
C1335 C1328 1.496 . S
H1336 C1319 0.929 . S
H1337 C1320 0.929 . S
H1338 C1321 0.929 . S
H1339 C1322 0.931 . S
H1340 C1330 0.929 . S
H1341 C1331 0.929 . S
H1342 C1332 0.931 . S
H1343 C1333 0.929 . S
Tb1344 N1373 2.617 . S
Tb1344 N1379 2.572 . S
Tb1344 O1388 2.465 . S
Tb1344 O1389 2.387 . S
Tb1344 O1391 2.428 . S
Tb1344 O1392 2.308 . S
Tb1344 O1396 2.349 . S
Tb1344 O1399 2.393 . S
Tb1344 C1408 2.802 . S
C1345 N1346 1.379 . S
C1345 C1348 1.416 . S
C1345 C1352 1.424 . S
N1346 C1345 1.379 . S
N1346 C1349 1.334 . S
N1346 Tb1355 2.617 . S
C1347 C1349 1.390 . S
C1347 C1350 1.339 . S
C1347 H1367 0.930 . S
C1348 C1345 1.416 . S
C1348 C1350 1.416 . S
C1348 C1354 1.448 . S
C1349 N1346 1.334 . S
C1349 C1347 1.390 . S
C1349 H1360 0.930 . S
C1350 C1347 1.339 . S
C1350 C1348 1.416 . S
C1350 H1371 0.930 . S
C1351 C1352 1.413 . S
C1351 C1353 1.427 . S
C1351 C1357 1.416 . S
C1352 C1345 1.424 . S
C1352 C1351 1.413 . S
C1352 N1356 1.361 . S
C1353 C1351 1.427 . S
C1353 C1354 1.328 . S
C1353 H1368 0.929 . S
C1354 C1348 1.448 . S
C1354 C1353 1.328 . S
C1354 H1369 0.930 . S
Tb1355 N1346 2.617 . S
Tb1355 N1356 2.572 . S
Tb1355 O1390 2.349 . S
Tb1355 O1393 2.393 . S
Tb1355 O1394 2.465 . S
Tb1355 O1395 2.387 . S
Tb1355 O1397 2.428 . S
Tb1355 O1398 2.308 . S
Tb1355 C1419 2.802 . S
N1356 C1352 1.361 . S
N1356 Tb1355 2.572 . S
N1356 C1358 1.340 . S
C1357 C1351 1.416 . S
C1357 C1359 1.332 . S
C1357 H1365 0.931 . S
C1358 N1356 1.340 . S
C1358 C1359 1.407 . S
C1358 H1364 0.930 . S
C1359 C1357 1.332 . S
C1359 C1358 1.407 . S
C1359 H1361 0.929 . S
H1360 C1349 0.930 . S
H1361 C1359 0.929 . S
H1362 C1377 0.930 . S
H1363 C1384 0.929 . S
H1364 C1358 0.930 . S
H1365 C1357 0.931 . S
H1366 C1380 0.930 . S
H1367 C1347 0.930 . S
H1368 C1353 0.929 . S
H1369 C1354 0.930 . S
H1370 C1375 0.930 . S
H1371 C1350 0.930 . S
H1372 C1383 0.931 . S
N1373 Tb1344 2.617 . S
N1373 C1374 1.379 . S
N1373 C1377 1.334 . S
C1374 N1373 1.379 . S
C1374 C1376 1.416 . S
C1374 C1382 1.424 . S
C1375 H1370 0.930 . S
C1375 C1377 1.390 . S
C1375 C1378 1.339 . S
C1376 C1374 1.416 . S
C1376 C1378 1.416 . S
C1376 C1409 1.448 . S
C1377 H1362 0.930 . S
C1377 N1373 1.334 . S
C1377 C1375 1.390 . S
C1378 C1375 1.339 . S
C1378 C1376 1.416 . S
C1378 H1385 0.930 . S
N1379 Tb1344 2.572 . S
N1379 C1380 1.340 . S
N1379 C1382 1.361 . S
C1380 H1366 0.930 . S
C1380 N1379 1.340 . S
C1380 C1384 1.407 . S
C1381 C1382 1.413 . S
C1381 C1383 1.416 . S
C1381 C1410 1.427 . S
C1382 C1374 1.424 . S
C1382 N1379 1.361 . S
C1382 C1381 1.413 . S
C1383 H1372 0.931 . S
C1383 C1381 1.416 . S
C1383 C1384 1.332 . S
C1384 H1363 0.929 . S
C1384 C1380 1.407 . S
C1384 C1383 1.332 . S
H1385 C1378 0.930 . S
H1386 C1409 0.930 . S
H1387 C1410 0.929 . S
O1388 Tb1344 2.465 . S
O1388 C1408 1.264 . S
O1389 Tb1344 2.387 . S
O1389 C1400 1.264 . S
O1390 Tb1355 2.349 . S
O1390 C1400 1.243 . S
O1391 Tb1344 2.428 . S
O1391 C1408 1.256 . S
O1392 Tb1344 2.308 . S
O1392 C1407 1.266 . S
O1393 Tb1355 2.393 . S
O1393 C1407 1.248 . S
O1394 Tb1355 2.465 . S
O1394 C1419 1.264 . S
O1395 Tb1355 2.387 . S
O1395 C1411 1.264 . S
O1396 Tb1344 2.349 . S
O1396 C1411 1.243 . S
O1397 Tb1355 2.428 . S
O1397 C1419 1.256 . S
O1398 Tb1355 2.308 . S
O1398 C1418 1.266 . S
O1399 Tb1344 2.393 . S
O1399 C1418 1.248 . S
C1400 O1389 1.264 . S
C1400 O1390 1.243 . S
C1401 C1404 1.399 . S
C1401 C1406 1.383 . S
C1401 C1408 1.496 . S
C1402 C1403 1.399 . S
C1402 C1406 1.389 . S
C1403 C1402 1.399 . S
C1403 C1405 1.380 . S
C1403 H1420 0.929 . S
C1404 C1401 1.399 . S
C1404 C1405 1.392 . S
C1404 H1421 0.929 . S
C1405 C1403 1.380 . S
C1405 C1404 1.392 . S
C1405 H1422 0.929 . S
C1406 C1401 1.383 . S
C1406 C1402 1.389 . S
C1406 H1423 0.931 . S
C1407 O1392 1.266 . S
C1407 O1393 1.248 . S
C1408 Tb1344 2.802 . S
C1408 O1388 1.264 . S
C1408 O1391 1.256 . S
C1408 C1401 1.496 . S
C1409 C1376 1.448 . S
C1409 H1386 0.930 . S
C1409 C1410 1.328 . S
C1410 C1381 1.427 . S
C1410 H1387 0.929 . S
C1410 C1409 1.328 . S
C1411 O1395 1.264 . S
C1411 O1396 1.243 . S
C1412 C1415 1.399 . S
C1412 C1416 1.383 . S
C1412 C1419 1.496 . S
C1413 C1414 1.399 . S
C1413 C1416 1.389 . S
C1414 C1413 1.399 . S
C1414 C1417 1.380 . S
C1414 H1424 0.929 . S
C1415 C1412 1.399 . S
C1415 C1417 1.392 . S
C1415 H1425 0.929 . S
C1416 C1412 1.383 . S
C1416 C1413 1.389 . S
C1416 H1426 0.931 . S
C1417 C1414 1.380 . S
C1417 C1415 1.392 . S
C1417 H1427 0.929 . S
C1418 O1398 1.266 . S
C1418 O1399 1.248 . S
C1419 Tb1355 2.802 . S
C1419 O1394 1.264 . S
C1419 O1397 1.256 . S
C1419 C1412 1.496 . S
H1420 C1403 0.929 . S
H1421 C1404 0.929 . S
H1422 C1405 0.929 . S
H1423 C1406 0.931 . S
H1424 C1414 0.929 . S
H1425 C1415 0.929 . S
H1426 C1416 0.931 . S
H1427 C1417 0.929 . S
Tb1428 N1457 2.617 . S
Tb1428 N1463 2.572 . S
Tb1428 O1472 2.465 . S
Tb1428 O1473 2.387 . S
Tb1428 O1475 2.428 . S
Tb1428 O1476 2.308 . S
Tb1428 O1480 2.349 . S
Tb1428 O1483 2.393 . S
Tb1428 C1492 2.802 . S
C1429 N1430 1.379 . S
C1429 C1432 1.416 . S
C1429 C1436 1.424 . S
N1430 C1429 1.379 . S
N1430 C1433 1.334 . S
N1430 Tb1439 2.617 . S
C1431 C1433 1.390 . S
C1431 C1434 1.339 . S
C1431 H1451 0.930 . S
C1432 C1429 1.416 . S
C1432 C1434 1.416 . S
C1432 C1438 1.448 . S
C1433 N1430 1.334 . S
C1433 C1431 1.390 . S
C1433 H1444 0.930 . S
C1434 C1431 1.339 . S
C1434 C1432 1.416 . S
C1434 H1455 0.930 . S
C1435 C1436 1.413 . S
C1435 C1437 1.427 . S
C1435 C1441 1.416 . S
C1436 C1429 1.424 . S
C1436 C1435 1.413 . S
C1436 N1440 1.361 . S
C1437 C1435 1.427 . S
C1437 C1438 1.328 . S
C1437 H1452 0.929 . S
C1438 C1432 1.448 . S
C1438 C1437 1.328 . S
C1438 H1453 0.930 . S
Tb1439 N1430 2.617 . S
Tb1439 N1440 2.572 . S
Tb1439 O1474 2.349 . S
Tb1439 O1477 2.393 . S
Tb1439 O1478 2.465 . S
Tb1439 O1479 2.387 . S
Tb1439 O1481 2.428 . S
Tb1439 O1482 2.308 . S
Tb1439 C1503 2.802 . S
N1440 C1436 1.361 . S
N1440 Tb1439 2.572 . S
N1440 C1442 1.340 . S
C1441 C1435 1.416 . S
C1441 C1443 1.332 . S
C1441 H1449 0.931 . S
C1442 N1440 1.340 . S
C1442 C1443 1.407 . S
C1442 H1448 0.930 . S
C1443 C1441 1.332 . S
C1443 C1442 1.407 . S
C1443 H1445 0.929 . S
H1444 C1433 0.930 . S
H1445 C1443 0.929 . S
H1446 C1461 0.930 . S
H1447 C1468 0.929 . S
H1448 C1442 0.930 . S
H1449 C1441 0.931 . S
H1450 C1464 0.930 . S
H1451 C1431 0.930 . S
H1452 C1437 0.929 . S
H1453 C1438 0.930 . S
H1454 C1459 0.930 . S
H1455 C1434 0.930 . S
H1456 C1467 0.931 . S
N1457 Tb1428 2.617 . S
N1457 C1458 1.379 . S
N1457 C1461 1.334 . S
C1458 N1457 1.379 . S
C1458 C1460 1.416 . S
C1458 C1466 1.424 . S
C1459 H1454 0.930 . S
C1459 C1461 1.390 . S
C1459 C1462 1.339 . S
C1460 C1458 1.416 . S
C1460 C1462 1.416 . S
C1460 C1493 1.448 . S
C1461 H1446 0.930 . S
C1461 N1457 1.334 . S
C1461 C1459 1.390 . S
C1462 C1459 1.339 . S
C1462 C1460 1.416 . S
C1462 H1469 0.930 . S
N1463 Tb1428 2.572 . S
N1463 C1464 1.340 . S
N1463 C1466 1.361 . S
C1464 H1450 0.930 . S
C1464 N1463 1.340 . S
C1464 C1468 1.407 . S
C1465 C1466 1.413 . S
C1465 C1467 1.416 . S
C1465 C1494 1.427 . S
C1466 C1458 1.424 . S
C1466 N1463 1.361 . S
C1466 C1465 1.413 . S
C1467 H1456 0.931 . S
C1467 C1465 1.416 . S
C1467 C1468 1.332 . S
C1468 H1447 0.929 . S
C1468 C1464 1.407 . S
C1468 C1467 1.332 . S
H1469 C1462 0.930 . S
H1470 C1493 0.930 . S
H1471 C1494 0.929 . S
O1472 Tb1428 2.465 . S
O1472 C1492 1.264 . S
O1473 Tb1428 2.387 . S
O1473 C1484 1.264 . S
O1474 Tb1439 2.349 . S
O1474 C1484 1.243 . S
O1475 Tb1428 2.428 . S
O1475 C1492 1.256 . S
O1476 Tb1428 2.308 . S
O1476 C1491 1.266 . S
O1477 Tb1439 2.393 . S
O1477 C1491 1.248 . S
O1478 Tb1439 2.465 . S
O1478 C1503 1.264 . S
O1479 Tb1439 2.387 . S
O1479 C1495 1.264 . S
O1480 Tb1428 2.349 . S
O1480 C1495 1.243 . S
O1481 Tb1439 2.428 . S
O1481 C1503 1.256 . S
O1482 Tb1439 2.308 . S
O1482 C1502 1.266 . S
O1483 Tb1428 2.393 . S
O1483 C1502 1.248 . S
C1484 O1473 1.264 . S
C1484 O1474 1.243 . S
C1485 C1488 1.399 . S
C1485 C1490 1.383 . S
C1485 C1492 1.496 . S
C1486 C1487 1.399 . S
C1486 C1490 1.389 . S
C1487 C1486 1.399 . S
C1487 C1489 1.380 . S
C1487 H1504 0.929 . S
C1488 C1485 1.399 . S
C1488 C1489 1.392 . S
C1488 H1505 0.929 . S
C1489 C1487 1.380 . S
C1489 C1488 1.392 . S
C1489 H1506 0.929 . S
C1490 C1485 1.383 . S
C1490 C1486 1.389 . S
C1490 H1507 0.931 . S
C1491 O1476 1.266 . S
C1491 O1477 1.248 . S
C1492 Tb1428 2.802 . S
C1492 O1472 1.264 . S
C1492 O1475 1.256 . S
C1492 C1485 1.496 . S
C1493 C1460 1.448 . S
C1493 H1470 0.930 . S
C1493 C1494 1.328 . S
C1494 C1465 1.427 . S
C1494 H1471 0.929 . S
C1494 C1493 1.328 . S
C1495 O1479 1.264 . S
C1495 O1480 1.243 . S
C1496 C1499 1.399 . S
C1496 C1500 1.383 . S
C1496 C1503 1.496 . S
C1497 C1498 1.399 . S
C1497 C1500 1.389 . S
C1498 C1497 1.399 . S
C1498 C1501 1.380 . S
C1498 H1508 0.929 . S
C1499 C1496 1.399 . S
C1499 C1501 1.392 . S
C1499 H1509 0.929 . S
C1500 C1496 1.383 . S
C1500 C1497 1.389 . S
C1500 H1510 0.931 . S
C1501 C1498 1.380 . S
C1501 C1499 1.392 . S
C1501 H1511 0.929 . S
C1502 O1482 1.266 . S
C1502 O1483 1.248 . S
C1503 Tb1439 2.802 . S
C1503 O1478 1.264 . S
C1503 O1481 1.256 . S
C1503 C1496 1.496 . S
H1504 C1487 0.929 . S
H1505 C1488 0.929 . S
H1506 C1489 0.929 . S
H1507 C1490 0.931 . S
H1508 C1498 0.929 . S
H1509 C1499 0.929 . S
H1510 C1500 0.931 . S
H1511 C1501 0.929 . S
Tb1512 N1541 2.617 . S
Tb1512 N1547 2.572 . S
Tb1512 O1556 2.465 . S
Tb1512 O1557 2.387 . S
Tb1512 O1559 2.428 . S
Tb1512 O1560 2.308 . S
Tb1512 O1564 2.349 . S
Tb1512 O1567 2.393 . S
Tb1512 C1576 2.802 . S
C1513 N1514 1.379 1_556 S
C1513 C1516 1.416 1_556 S
C1513 C1520 1.424 . S
N1514 C1513 1.379 1_554 S
N1514 C1517 1.334 . S
N1514 Tb1523 2.617 1_554 S
C1515 C1517 1.390 . S
C1515 C1518 1.339 . S
C1515 H1535 0.930 . S
C1516 C1513 1.416 1_554 S
C1516 C1518 1.416 . S
C1516 C1522 1.448 1_554 S
C1517 N1514 1.334 . S
C1517 C1515 1.390 . S
C1517 H1528 0.930 . S
C1518 C1515 1.339 . S
C1518 C1516 1.416 . S
C1518 H1539 0.930 . S
C1519 C1520 1.413 . S
C1519 C1521 1.427 . S
C1519 C1525 1.416 . S
C1520 C1513 1.424 . S
C1520 C1519 1.413 . S
C1520 N1524 1.361 . S
C1521 C1519 1.427 . S
C1521 C1522 1.328 . S
C1521 H1536 0.929 . S
C1522 C1516 1.448 1_556 S
C1522 C1521 1.328 . S
C1522 H1537 0.930 . S
Tb1523 N1514 2.617 1_556 S
Tb1523 N1524 2.572 . S
Tb1523 O1558 2.338 1_556 S
Tb1523 O1561 2.399 . S
Tb1523 O1562 2.465 1_556 S
Tb1523 O1563 2.387 . S
Tb1523 O1565 2.428 1_556 S
Tb1523 O1566 2.308 . S
Tb1523 C1587 2.802 1_556 S
N1524 C1520 1.361 . S
N1524 Tb1523 2.572 . S
N1524 C1526 1.340 . S
C1525 C1519 1.416 . S
C1525 C1527 1.332 . S
C1525 H1533 0.931 . S
C1526 N1524 1.340 . S
C1526 C1527 1.407 . S
C1526 H1532 0.930 . S
C1527 C1525 1.332 . S
C1527 C1526 1.407 . S
C1527 H1529 0.929 . S
H1528 C1517 0.930 . S
H1529 C1527 0.929 . S
H1530 C1545 0.930 . S
H1531 C1552 0.929 . S
H1532 C1526 0.930 . S
H1533 C1525 0.931 . S
H1534 C1548 0.930 . S
H1535 C1515 0.930 . S
H1536 C1521 0.929 . S
H1537 C1522 0.930 . S
H1538 C1543 0.930 . S
H1539 C1518 0.930 . S
H1540 C1551 0.931 . S
N1541 Tb1512 2.617 . S
N1541 C1542 1.379 . S
N1541 C1545 1.334 . S
C1542 N1541 1.379 . S
C1542 C1544 1.416 . S
C1542 C1550 1.424 . S
C1543 H1538 0.930 . S
C1543 C1545 1.390 . S
C1543 C1546 1.339 . S
C1544 C1542 1.416 . S
C1544 C1546 1.416 . S
C1544 C1577 1.448 . S
C1545 H1530 0.930 . S
C1545 N1541 1.334 . S
C1545 C1543 1.390 . S
C1546 C1543 1.339 . S
C1546 C1544 1.416 . S
C1546 H1553 0.930 . S
N1547 Tb1512 2.572 . S
N1547 C1548 1.340 . S
N1547 C1550 1.361 . S
C1548 H1534 0.930 . S
C1548 N1547 1.340 . S
C1548 C1552 1.407 . S
C1549 C1550 1.413 . S
C1549 C1551 1.416 . S
C1549 C1578 1.427 . S
C1550 C1542 1.424 . S
C1550 N1547 1.361 . S
C1550 C1549 1.413 . S
C1551 H1540 0.931 . S
C1551 C1549 1.416 . S
C1551 C1552 1.332 . S
C1552 H1531 0.929 . S
C1552 C1548 1.407 . S
C1552 C1551 1.332 . S
H1553 C1546 0.930 . S
H1554 C1577 0.930 . S
H1555 C1578 0.929 . S
O1556 Tb1512 2.465 . S
O1556 C1576 1.264 . S
O1557 Tb1512 2.387 . S
O1557 C1568 1.264 . S
O1558 Tb1523 2.338 1_554 S
O1558 C1568 1.229 1_554 S
O1559 Tb1512 2.428 . S
O1559 C1576 1.256 . S
O1560 Tb1512 2.308 . S
O1560 C1575 1.266 . S
O1561 Tb1523 2.399 . S
O1561 C1575 1.266 . S
O1562 Tb1523 2.465 1_554 S
O1562 C1587 1.264 . S
O1563 Tb1523 2.387 . S
O1563 C1579 1.264 . S
O1564 Tb1512 2.349 . S
O1564 C1579 1.243 . S
O1565 Tb1523 2.428 1_554 S
O1565 C1587 1.256 . S
O1566 Tb1523 2.308 . S
O1566 C1586 1.266 . S
O1567 Tb1512 2.393 . S
O1567 C1586 1.248 . S
C1568 O1557 1.264 . S
C1568 O1558 1.229 1_556 S
C1569 C1572 1.399 . S
C1569 C1574 1.383 . S
C1569 C1576 1.496 . S
C1570 C1571 1.399 . S
C1570 C1574 1.389 . S
C1571 C1570 1.399 . S
C1571 C1573 1.380 . S
C1571 H1588 0.929 . S
C1572 C1569 1.399 . S
C1572 C1573 1.392 . S
C1572 H1589 0.929 . S
C1573 C1571 1.380 . S
C1573 C1572 1.392 . S
C1573 H1590 0.929 . S
C1574 C1569 1.383 . S
C1574 C1570 1.389 . S
C1574 H1591 0.931 . S
C1575 O1560 1.266 . S
C1575 O1561 1.266 . S
C1576 Tb1512 2.802 . S
C1576 O1556 1.264 . S
C1576 O1559 1.256 . S
C1576 C1569 1.496 . S
C1577 C1544 1.448 . S
C1577 H1554 0.930 . S
C1577 C1578 1.328 . S
C1578 C1549 1.427 . S
C1578 H1555 0.929 . S
C1578 C1577 1.328 . S
C1579 O1563 1.264 . S
C1579 O1564 1.243 . S
C1580 C1583 1.399 . S
C1580 C1584 1.383 . S
C1580 C1587 1.496 . S
C1581 C1582 1.399 . S
C1581 C1584 1.389 . S
C1582 C1581 1.399 . S
C1582 C1585 1.380 . S
C1582 H1592 0.929 . S
C1583 C1580 1.399 . S
C1583 C1585 1.392 . S
C1583 H1593 0.929 . S
C1584 C1580 1.383 . S
C1584 C1581 1.389 . S
C1584 H1594 0.931 . S
C1585 C1582 1.380 . S
C1585 C1583 1.392 . S
C1585 H1595 0.929 . S
C1586 O1566 1.266 . S
C1586 O1567 1.248 . S
C1587 Tb1523 2.802 1_554 S
C1587 O1562 1.264 . S
C1587 O1565 1.256 . S
C1587 C1580 1.496 . S
H1588 C1571 0.929 . S
H1589 C1572 0.929 . S
H1590 C1573 0.929 . S
H1591 C1574 0.931 . S
H1592 C1582 0.929 . S
H1593 C1583 0.929 . S
H1594 C1584 0.931 . S
H1595 C1585 0.929 . S
Tb1596 N1625 2.610 1_655 S
Tb1596 N1631 2.572 1_655 S
Tb1596 O1640 2.465 1_655 S
Tb1596 O1641 2.387 . S
Tb1596 O1643 2.434 . S
Tb1596 O1644 2.308 . S
Tb1596 O1648 2.349 . S
Tb1596 O1651 2.393 . S
Tb1596 C1660 2.802 1_655 S
C1597 N1598 1.379 . S
C1597 C1600 1.416 . S
C1597 C1604 1.424 . S
N1598 C1597 1.379 . S
N1598 C1601 1.334 . S
N1598 Tb1607 2.617 . S
C1599 C1601 1.390 . S
C1599 C1602 1.339 . S
C1599 H1619 0.930 . S
C1600 C1597 1.416 . S
C1600 C1602 1.416 . S
C1600 C1606 1.448 . S
C1601 N1598 1.334 . S
C1601 C1599 1.390 . S
C1601 H1612 0.930 . S
C1602 C1599 1.339 . S
C1602 C1600 1.416 . S
C1602 H1623 0.930 . S
C1603 C1604 1.413 . S
C1603 C1605 1.427 . S
C1603 C1609 1.416 . S
C1604 C1597 1.424 . S
C1604 C1603 1.413 . S
C1604 N1608 1.361 . S
C1605 C1603 1.427 . S
C1605 C1606 1.328 . S
C1605 H1620 0.929 . S
C1606 C1600 1.448 . S
C1606 C1605 1.328 . S
C1606 H1621 0.930 . S
Tb1607 N1598 2.617 . S
Tb1607 N1608 2.572 . S
Tb1607 O1642 2.349 . S
Tb1607 O1645 2.393 . S
Tb1607 O1646 2.465 . S
Tb1607 O1647 2.387 . S
Tb1607 O1649 2.428 . S
Tb1607 O1650 2.308 . S
Tb1607 C1671 2.802 . S
N1608 C1604 1.361 . S
N1608 Tb1607 2.572 . S
N1608 C1610 1.340 . S
C1609 C1603 1.416 . S
C1609 C1611 1.332 . S
C1609 H1617 0.931 . S
C1610 N1608 1.340 . S
C1610 C1611 1.407 . S
C1610 H1616 0.930 . S
C1611 C1609 1.332 . S
C1611 C1610 1.407 . S
C1611 H1613 0.929 . S
H1612 C1601 0.930 . S
H1613 C1611 0.929 . S
H1614 C1629 0.930 . S
H1615 C1636 0.929 . S
H1616 C1610 0.930 . S
H1617 C1609 0.931 . S
H1618 C1632 0.930 . S
H1619 C1599 0.930 . S
H1620 C1605 0.929 . S
H1621 C1606 0.930 . S
H1622 C1627 0.930 . S
H1623 C1602 0.930 . S
H1624 C1635 0.931 . S
N1625 Tb1596 2.610 1_455 S
N1625 C1626 1.406 . S
N1625 C1629 1.316 1_455 S
C1626 N1625 1.406 . S
C1626 C1628 1.416 . S
C1626 C1634 1.424 . S
C1627 H1622 0.930 . S
C1627 C1629 1.390 . S
C1627 C1630 1.339 1_655 S
C1628 C1626 1.416 . S
C1628 C1630 1.416 . S
C1628 C1661 1.448 . S
C1629 H1614 0.930 . S
C1629 N1625 1.316 1_655 S
C1629 C1627 1.390 . S
C1630 C1627 1.339 1_455 S
C1630 C1628 1.416 . S
C1630 H1637 0.930 . S
N1631 Tb1596 2.572 1_455 S
N1631 C1632 1.340 . S
N1631 C1634 1.361 . S
C1632 H1618 0.930 . S
C1632 N1631 1.340 . S
C1632 C1636 1.407 . S
C1633 C1634 1.413 . S
C1633 C1635 1.416 . S
C1633 C1662 1.427 . S
C1634 C1626 1.424 . S
C1634 N1631 1.361 . S
C1634 C1633 1.413 . S
C1635 H1624 0.931 . S
C1635 C1633 1.416 . S
C1635 C1636 1.332 . S
C1636 H1615 0.929 . S
C1636 C1632 1.407 . S
C1636 C1635 1.332 . S
H1637 C1630 0.930 . S
H1638 C1661 0.930 . S
H1639 C1662 0.929 . S
O1640 Tb1596 2.465 1_455 S
O1640 C1660 1.264 . S
O1641 Tb1596 2.387 . S
O1641 C1652 1.264 . S
O1642 Tb1607 2.349 . S
O1642 C1652 1.243 . S
O1643 Tb1596 2.434 . S
O1643 C1660 1.239 1_655 S
O1644 Tb1596 2.308 . S
O1644 C1659 1.266 . S
O1645 Tb1607 2.393 . S
O1645 C1659 1.248 . S
O1646 Tb1607 2.465 . S
O1646 C1671 1.264 . S
O1647 Tb1607 2.387 . S
O1647 C1663 1.264 . S
O1648 Tb1596 2.349 . S
O1648 C1663 1.243 . S
O1649 Tb1607 2.428 . S
O1649 C1671 1.256 . S
O1650 Tb1607 2.308 . S
O1650 C1670 1.266 . S
O1651 Tb1596 2.393 . S
O1651 C1670 1.248 . S
C1652 O1641 1.264 . S
C1652 O1642 1.243 . S
C1653 C1656 1.399 . S
C1653 C1658 1.383 . S
C1653 C1660 1.496 . S
C1654 C1655 1.399 . S
C1654 C1658 1.389 . S
C1655 C1654 1.399 . S
C1655 C1657 1.380 . S
C1655 H1672 0.929 . S
C1656 C1653 1.399 . S
C1656 C1657 1.392 . S
C1656 H1673 0.929 . S
C1657 C1655 1.380 . S
C1657 C1656 1.392 . S
C1657 H1674 0.929 . S
C1658 C1653 1.383 . S
C1658 C1654 1.389 . S
C1658 H1675 0.931 . S
C1659 O1644 1.266 . S
C1659 O1645 1.248 . S
C1660 Tb1596 2.802 1_455 S
C1660 O1640 1.264 . S
C1660 O1643 1.239 1_455 S
C1660 C1653 1.496 . S
C1661 C1628 1.448 . S
C1661 H1638 0.930 . S
C1661 C1662 1.328 . S
C1662 C1633 1.427 . S
C1662 H1639 0.929 . S
C1662 C1661 1.328 . S
C1663 O1647 1.264 . S
C1663 O1648 1.243 . S
C1664 C1667 1.399 . S
C1664 C1668 1.383 . S
C1664 C1671 1.496 . S
C1665 C1666 1.399 . S
C1665 C1668 1.389 . S
C1666 C1665 1.399 . S
C1666 C1669 1.380 . S
C1666 H1676 0.929 . S
C1667 C1664 1.399 . S
C1667 C1669 1.392 . S
C1667 H1677 0.929 . S
C1668 C1664 1.383 . S
C1668 C1665 1.389 . S
C1668 H1678 0.931 . S
C1669 C1666 1.380 . S
C1669 C1667 1.392 . S
C1669 H1679 0.929 . S
C1670 O1650 1.266 . S
C1670 O1651 1.248 . S
C1671 Tb1607 2.802 . S
C1671 O1646 1.264 . S
C1671 O1649 1.256 . S
C1671 C1664 1.496 . S
H1672 C1655 0.929 . S
H1673 C1656 0.929 . S
H1674 C1657 0.929 . S
H1675 C1658 0.931 . S
H1676 C1666 0.929 . S
H1677 C1667 0.929 . S
H1678 C1668 0.931 . S
H1679 C1669 0.929 . S
Tb1680 N1709 2.617 . S
Tb1680 N1715 2.572 . S
Tb1680 O1724 2.465 . S
Tb1680 O1725 2.387 . S
Tb1680 O1727 2.428 . S
Tb1680 O1728 2.308 . S
Tb1680 O1732 2.349 . S
Tb1680 O1735 2.393 . S
Tb1680 C1744 2.802 . S
C1681 N1682 1.379 . S
C1681 C1684 1.416 . S
C1681 C1688 1.424 . S
N1682 C1681 1.379 . S
N1682 C1685 1.334 . S
N1682 Tb1691 2.617 . S
C1683 C1685 1.390 . S
C1683 C1686 1.339 . S
C1683 H1703 0.930 . S
C1684 C1681 1.416 . S
C1684 C1686 1.416 . S
C1684 C1690 1.448 . S
C1685 N1682 1.334 . S
C1685 C1683 1.390 . S
C1685 H1696 0.930 . S
C1686 C1683 1.339 . S
C1686 C1684 1.416 . S
C1686 H1707 0.930 . S
C1687 C1688 1.413 . S
C1687 C1689 1.427 . S
C1687 C1693 1.416 . S
C1688 C1681 1.424 . S
C1688 C1687 1.413 . S
C1688 N1692 1.361 . S
C1689 C1687 1.427 . S
C1689 C1690 1.328 . S
C1689 H1704 0.929 . S
C1690 C1684 1.448 . S
C1690 C1689 1.328 . S
C1690 H1705 0.930 . S
Tb1691 N1682 2.617 . S
Tb1691 N1692 2.572 . S
Tb1691 O1726 2.349 . S
Tb1691 O1729 2.393 . S
Tb1691 O1730 2.465 . S
Tb1691 O1731 2.387 . S
Tb1691 O1733 2.428 . S
Tb1691 O1734 2.308 . S
Tb1691 C1755 2.802 . S
N1692 C1688 1.361 . S
N1692 Tb1691 2.572 . S
N1692 C1694 1.340 . S
C1693 C1687 1.416 . S
C1693 C1695 1.332 . S
C1693 H1701 0.931 . S
C1694 N1692 1.340 . S
C1694 C1695 1.407 . S
C1694 H1700 0.930 . S
C1695 C1693 1.332 . S
C1695 C1694 1.407 . S
C1695 H1697 0.929 . S
H1696 C1685 0.930 . S
H1697 C1695 0.929 . S
H1698 C1713 0.930 . S
H1699 C1720 0.929 . S
H1700 C1694 0.930 . S
H1701 C1693 0.931 . S
H1702 C1716 0.930 . S
H1703 C1683 0.930 . S
H1704 C1689 0.929 . S
H1705 C1690 0.930 . S
H1706 C1711 0.930 . S
H1707 C1686 0.930 . S
H1708 C1719 0.931 . S
N1709 Tb1680 2.617 . S
N1709 C1710 1.379 . S
N1709 C1713 1.334 . S
C1710 N1709 1.379 . S
C1710 C1712 1.416 . S
C1710 C1718 1.424 . S
C1711 H1706 0.930 . S
C1711 C1713 1.390 . S
C1711 C1714 1.339 . S
C1712 C1710 1.416 . S
C1712 C1714 1.416 . S
C1712 C1745 1.448 . S
C1713 H1698 0.930 . S
C1713 N1709 1.334 . S
C1713 C1711 1.390 . S
C1714 C1711 1.339 . S
C1714 C1712 1.416 . S
C1714 H1721 0.930 . S
N1715 Tb1680 2.572 . S
N1715 C1716 1.340 . S
N1715 C1718 1.361 . S
C1716 H1702 0.930 . S
C1716 N1715 1.340 . S
C1716 C1720 1.407 . S
C1717 C1718 1.413 . S
C1717 C1719 1.416 . S
C1717 C1746 1.427 . S
C1718 C1710 1.424 . S
C1718 N1715 1.361 . S
C1718 C1717 1.413 . S
C1719 H1708 0.931 . S
C1719 C1717 1.416 . S
C1719 C1720 1.332 . S
C1720 H1699 0.929 . S
C1720 C1716 1.407 . S
C1720 C1719 1.332 . S
H1721 C1714 0.930 . S
H1722 C1745 0.930 . S
H1723 C1746 0.929 . S
O1724 Tb1680 2.465 . S
O1724 C1744 1.264 . S
O1725 Tb1680 2.387 . S
O1725 C1736 1.264 . S
O1726 Tb1691 2.349 . S
O1726 C1736 1.243 . S
O1727 Tb1680 2.428 . S
O1727 C1744 1.256 . S
O1728 Tb1680 2.308 . S
O1728 C1743 1.266 . S
O1729 Tb1691 2.393 . S
O1729 C1743 1.248 . S
O1730 Tb1691 2.465 . S
O1730 C1755 1.264 . S
O1731 Tb1691 2.387 . S
O1731 C1747 1.264 . S
O1732 Tb1680 2.349 . S
O1732 C1747 1.243 . S
O1733 Tb1691 2.428 . S
O1733 C1755 1.256 . S
O1734 Tb1691 2.308 . S
O1734 C1754 1.266 . S
O1735 Tb1680 2.393 . S
O1735 C1754 1.248 . S
C1736 O1725 1.264 . S
C1736 O1726 1.243 . S
C1737 C1740 1.399 . S
C1737 C1742 1.383 . S
C1737 C1744 1.496 . S
C1738 C1739 1.399 . S
C1738 C1742 1.389 . S
C1739 C1738 1.399 . S
C1739 C1741 1.380 . S
C1739 H1756 0.929 . S
C1740 C1737 1.399 . S
C1740 C1741 1.392 . S
C1740 H1757 0.929 . S
C1741 C1739 1.380 . S
C1741 C1740 1.392 . S
C1741 H1758 0.929 . S
C1742 C1737 1.383 . S
C1742 C1738 1.389 . S
C1742 H1759 0.931 . S
C1743 O1728 1.266 . S
C1743 O1729 1.248 . S
C1744 Tb1680 2.802 . S
C1744 O1724 1.264 . S
C1744 O1727 1.256 . S
C1744 C1737 1.496 . S
C1745 C1712 1.448 . S
C1745 H1722 0.930 . S
C1745 C1746 1.328 . S
C1746 C1717 1.427 . S
C1746 H1723 0.929 . S
C1746 C1745 1.328 . S
C1747 O1731 1.264 . S
C1747 O1732 1.243 . S
C1748 C1751 1.399 . S
C1748 C1752 1.383 . S
C1748 C1755 1.496 . S
C1749 C1750 1.399 . S
C1749 C1752 1.389 . S
C1750 C1749 1.399 . S
C1750 C1753 1.380 . S
C1750 H1760 0.929 . S
C1751 C1748 1.399 . S
C1751 C1753 1.392 . S
C1751 H1761 0.929 . S
C1752 C1748 1.383 . S
C1752 C1749 1.389 . S
C1752 H1762 0.931 . S
C1753 C1750 1.380 . S
C1753 C1751 1.392 . S
C1753 H1763 0.929 . S
C1754 O1734 1.266 . S
C1754 O1735 1.248 . S
C1755 Tb1691 2.802 . S
C1755 O1730 1.264 . S
C1755 O1733 1.256 . S
C1755 C1748 1.496 . S
H1756 C1739 0.929 . S
H1757 C1740 0.929 . S
H1758 C1741 0.929 . S
H1759 C1742 0.931 . S
H1760 C1750 0.929 . S
H1761 C1751 0.929 . S
H1762 C1752 0.931 . S
H1763 C1753 0.929 . S
Tb1764 N1793 2.617 . S
Tb1764 N1799 2.572 . S
Tb1764 O1808 2.465 . S
Tb1764 O1809 2.387 . S
Tb1764 O1811 2.428 . S
Tb1764 O1812 2.308 . S
Tb1764 O1816 2.349 . S
Tb1764 O1819 2.393 . S
Tb1764 C1828 2.802 . S
C1765 N1766 1.379 . S
C1765 C1768 1.416 . S
C1765 C1772 1.424 . S
N1766 C1765 1.379 . S
N1766 C1769 1.334 . S
N1766 Tb1775 2.617 . S
C1767 C1769 1.390 . S
C1767 C1770 1.339 . S
C1767 H1787 0.930 . S
C1768 C1765 1.416 . S
C1768 C1770 1.416 . S
C1768 C1774 1.448 . S
C1769 N1766 1.334 . S
C1769 C1767 1.390 . S
C1769 H1780 0.930 . S
C1770 C1767 1.339 . S
C1770 C1768 1.416 . S
C1770 H1791 0.930 . S
C1771 C1772 1.413 . S
C1771 C1773 1.427 . S
C1771 C1777 1.416 . S
C1772 C1765 1.424 . S
C1772 C1771 1.413 . S
C1772 N1776 1.361 . S
C1773 C1771 1.427 . S
C1773 C1774 1.328 . S
C1773 H1788 0.929 . S
C1774 C1768 1.448 . S
C1774 C1773 1.328 . S
C1774 H1789 0.930 . S
Tb1775 N1766 2.617 . S
Tb1775 N1776 2.572 . S
Tb1775 O1810 2.349 . S
Tb1775 O1813 2.393 . S
Tb1775 O1814 2.465 . S
Tb1775 O1815 2.387 . S
Tb1775 O1817 2.428 . S
Tb1775 O1818 2.308 . S
Tb1775 C1839 2.802 . S
N1776 C1772 1.361 . S
N1776 Tb1775 2.572 . S
N1776 C1778 1.340 . S
C1777 C1771 1.416 . S
C1777 C1779 1.332 . S
C1777 H1785 0.931 . S
C1778 N1776 1.340 . S
C1778 C1779 1.407 . S
C1778 H1784 0.930 . S
C1779 C1777 1.332 . S
C1779 C1778 1.407 . S
C1779 H1781 0.929 . S
H1780 C1769 0.930 . S
H1781 C1779 0.929 . S
H1782 C1797 0.930 . S
H1783 C1804 0.929 . S
H1784 C1778 0.930 . S
H1785 C1777 0.931 . S
H1786 C1800 0.930 . S
H1787 C1767 0.930 . S
H1788 C1773 0.929 . S
H1789 C1774 0.930 . S
H1790 C1795 0.930 . S
H1791 C1770 0.930 . S
H1792 C1803 0.931 . S
N1793 Tb1764 2.617 . S
N1793 C1794 1.379 . S
N1793 C1797 1.334 . S
C1794 N1793 1.379 . S
C1794 C1796 1.416 . S
C1794 C1802 1.424 . S
C1795 H1790 0.930 . S
C1795 C1797 1.390 . S
C1795 C1798 1.339 . S
C1796 C1794 1.416 . S
C1796 C1798 1.416 . S
C1796 C1829 1.448 . S
C1797 H1782 0.930 . S
C1797 N1793 1.334 . S
C1797 C1795 1.390 . S
C1798 C1795 1.339 . S
C1798 C1796 1.416 . S
C1798 H1805 0.930 . S
N1799 Tb1764 2.572 . S
N1799 C1800 1.340 . S
N1799 C1802 1.361 . S
C1800 H1786 0.930 . S
C1800 N1799 1.340 . S
C1800 C1804 1.407 . S
C1801 C1802 1.413 . S
C1801 C1803 1.416 . S
C1801 C1830 1.427 . S
C1802 C1794 1.424 . S
C1802 N1799 1.361 . S
C1802 C1801 1.413 . S
C1803 H1792 0.931 . S
C1803 C1801 1.416 . S
C1803 C1804 1.332 . S
C1804 H1783 0.929 . S
C1804 C1800 1.407 . S
C1804 C1803 1.332 . S
H1805 C1798 0.930 . S
H1806 C1829 0.930 . S
H1807 C1830 0.929 . S
O1808 Tb1764 2.465 . S
O1808 C1828 1.264 . S
O1809 Tb1764 2.387 . S
O1809 C1820 1.264 . S
O1810 Tb1775 2.349 . S
O1810 C1820 1.243 . S
O1811 Tb1764 2.428 . S
O1811 C1828 1.256 . S
O1812 Tb1764 2.308 . S
O1812 C1827 1.266 . S
O1813 Tb1775 2.393 . S
O1813 C1827 1.248 . S
O1814 Tb1775 2.465 . S
O1814 C1839 1.264 . S
O1815 Tb1775 2.387 . S
O1815 C1831 1.264 . S
O1816 Tb1764 2.349 . S
O1816 C1831 1.243 . S
O1817 Tb1775 2.428 . S
O1817 C1839 1.256 . S
O1818 Tb1775 2.308 . S
O1818 C1838 1.266 . S
O1819 Tb1764 2.393 . S
O1819 C1838 1.248 . S
C1820 O1809 1.264 . S
C1820 O1810 1.243 . S
C1821 C1824 1.399 . S
C1821 C1826 1.383 . S
C1821 C1828 1.496 . S
C1822 C1823 1.399 . S
C1822 C1826 1.389 . S
C1823 C1822 1.399 . S
C1823 C1825 1.380 . S
C1823 H1840 0.929 . S
C1824 C1821 1.399 . S
C1824 C1825 1.392 . S
C1824 H1841 0.929 . S
C1825 C1823 1.380 . S
C1825 C1824 1.392 . S
C1825 H1842 0.929 . S
C1826 C1821 1.383 . S
C1826 C1822 1.389 . S
C1826 H1843 0.931 . S
C1827 O1812 1.266 . S
C1827 O1813 1.248 . S
C1828 Tb1764 2.802 . S
C1828 O1808 1.264 . S
C1828 O1811 1.256 . S
C1828 C1821 1.496 . S
C1829 C1796 1.448 . S
C1829 H1806 0.930 . S
C1829 C1830 1.328 . S
C1830 C1801 1.427 . S
C1830 H1807 0.929 . S
C1830 C1829 1.328 . S
C1831 O1815 1.264 . S
C1831 O1816 1.243 . S
C1832 C1835 1.399 . S
C1832 C1836 1.383 . S
C1832 C1839 1.496 . S
C1833 C1834 1.399 . S
C1833 C1836 1.389 . S
C1834 C1833 1.399 . S
C1834 C1837 1.380 . S
C1834 H1844 0.929 . S
C1835 C1832 1.399 . S
C1835 C1837 1.392 . S
C1835 H1845 0.929 . S
C1836 C1832 1.383 . S
C1836 C1833 1.389 . S
C1836 H1846 0.931 . S
C1837 C1834 1.380 . S
C1837 C1835 1.392 . S
C1837 H1847 0.929 . S
C1838 O1818 1.266 . S
C1838 O1819 1.248 . S
C1839 Tb1775 2.802 . S
C1839 O1814 1.264 . S
C1839 O1817 1.256 . S
C1839 C1832 1.496 . S
H1840 C1823 0.929 . S
H1841 C1824 0.929 . S
H1842 C1825 0.929 . S
H1843 C1826 0.931 . S
H1844 C1834 0.929 . S
H1845 C1835 0.929 . S
H1846 C1836 0.931 . S
H1847 C1837 0.929 . S
Tb1848 N1877 2.617 . S
Tb1848 N1883 2.572 . S
Tb1848 O1892 2.465 . S
Tb1848 O1893 2.387 . S
Tb1848 O1895 2.428 . S
Tb1848 O1896 2.308 . S
Tb1848 O1900 2.349 . S
Tb1848 O1903 2.393 . S
Tb1848 C1912 2.802 . S
C1849 N1850 1.379 1_554 S
C1849 C1852 1.416 1_554 S
C1849 C1856 1.424 . S
N1850 C1849 1.379 1_556 S
N1850 C1853 1.334 . S
N1850 Tb1859 2.617 1_556 S
C1851 C1853 1.390 . S
C1851 C1854 1.339 . S
C1851 H1871 0.930 . S
C1852 C1849 1.416 1_556 S
C1852 C1854 1.416 . S
C1852 C1858 1.448 1_556 S
C1853 N1850 1.334 . S
C1853 C1851 1.390 . S
C1853 H1864 0.930 . S
C1854 C1851 1.339 . S
C1854 C1852 1.416 . S
C1854 H1875 0.930 . S
C1855 C1856 1.413 . S
C1855 C1857 1.427 . S
C1855 C1861 1.416 . S
C1856 C1849 1.424 . S
C1856 C1855 1.413 . S
C1856 N1860 1.361 . S
C1857 C1855 1.427 . S
C1857 C1858 1.328 . S
C1857 H1872 0.929 . S
C1858 C1852 1.448 1_554 S
C1858 C1857 1.328 . S
C1858 H1873 0.930 . S
Tb1859 N1850 2.617 1_554 S
Tb1859 N1860 2.572 . S
Tb1859 O1894 2.349 1_554 S
Tb1859 O1897 2.383 1_554 S
Tb1859 O1898 2.465 1_554 S
Tb1859 O1899 2.387 . S
Tb1859 O1901 2.428 1_554 S
Tb1859 O1902 2.308 . S
Tb1859 C1923 2.802 1_554 S
N1860 C1856 1.361 . S
N1860 Tb1859 2.572 . S
N1860 C1862 1.340 . S
C1861 C1855 1.416 . S
C1861 C1863 1.332 . S
C1861 H1869 0.931 . S
C1862 N1860 1.340 . S
C1862 C1863 1.407 . S
C1862 H1868 0.930 . S
C1863 C1861 1.332 . S
C1863 C1862 1.407 . S
C1863 H1865 0.929 . S
H1864 C1853 0.930 . S
H1865 C1863 0.929 . S
H1866 C1881 0.930 . S
H1867 C1888 0.929 . S
H1868 C1862 0.930 . S
H1869 C1861 0.931 . S
H1870 C1884 0.930 . S
H1871 C1851 0.930 . S
H1872 C1857 0.929 . S
H1873 C1858 0.930 . S
H1874 C1879 0.930 . S
H1875 C1854 0.930 . S
H1876 C1887 0.931 . S
N1877 Tb1848 2.617 . S
N1877 C1878 1.379 . S
N1877 C1881 1.334 . S
C1878 N1877 1.379 . S
C1878 C1880 1.416 . S
C1878 C1886 1.424 . S
C1879 H1874 0.930 . S
C1879 C1881 1.390 . S
C1879 C1882 1.339 . S
C1880 C1878 1.416 . S
C1880 C1882 1.416 . S
C1880 C1913 1.448 . S
C1881 H1866 0.930 . S
C1881 N1877 1.334 . S
C1881 C1879 1.390 . S
C1882 C1879 1.339 . S
C1882 C1880 1.416 . S
C1882 H1889 0.930 . S
N1883 Tb1848 2.572 . S
N1883 C1884 1.340 . S
N1883 C1886 1.361 . S
C1884 H1870 0.930 . S
C1884 N1883 1.340 . S
C1884 C1888 1.407 . S
C1885 C1886 1.413 . S
C1885 C1887 1.416 . S
C1885 C1914 1.427 . S
C1886 C1878 1.424 . S
C1886 N1883 1.361 . S
C1886 C1885 1.413 . S
C1887 H1876 0.931 . S
C1887 C1885 1.416 . S
C1887 C1888 1.332 . S
C1888 H1867 0.929 . S
C1888 C1884 1.407 . S
C1888 C1887 1.332 . S
H1889 C1882 0.930 . S
H1890 C1913 0.930 . S
H1891 C1914 0.929 . S
O1892 Tb1848 2.465 . S
O1892 C1912 1.264 . S
O1893 Tb1848 2.387 . S
O1893 C1904 1.264 . S
O1894 Tb1859 2.349 1_556 S
O1894 C1904 1.243 1_556 S
O1895 Tb1848 2.428 . S
O1895 C1912 1.256 . S
O1896 Tb1848 2.308 . S
O1896 C1911 1.266 . S
O1897 Tb1859 2.383 1_556 S
O1897 C1911 1.220 1_556 S
O1898 Tb1859 2.465 1_556 S
O1898 C1923 1.264 . S
O1899 Tb1859 2.387 . S
O1899 C1915 1.264 . S
O1900 Tb1848 2.349 . S
O1900 C1915 1.243 . S
O1901 Tb1859 2.428 1_556 S
O1901 C1923 1.256 . S
O1902 Tb1859 2.308 . S
O1902 C1922 1.266 . S
O1903 Tb1848 2.393 . S
O1903 C1922 1.248 . S
C1904 O1893 1.264 . S
C1904 O1894 1.243 1_554 S
C1905 C1908 1.399 . S
C1905 C1910 1.383 . S
C1905 C1912 1.496 . S
C1906 C1907 1.399 . S
C1906 C1910 1.389 . S
C1907 C1906 1.399 . S
C1907 C1909 1.380 . S
C1907 H1924 0.929 . S
C1908 C1905 1.399 . S
C1908 C1909 1.392 . S
C1908 H1925 0.929 . S
C1909 C1907 1.380 . S
C1909 C1908 1.392 . S
C1909 H1926 0.929 . S
C1910 C1905 1.383 . S
C1910 C1906 1.389 . S
C1910 H1927 0.931 . S
C1911 O1896 1.266 . S
C1911 O1897 1.220 1_554 S
C1912 Tb1848 2.802 . S
C1912 O1892 1.264 . S
C1912 O1895 1.256 . S
C1912 C1905 1.496 . S
C1913 C1880 1.448 . S
C1913 H1890 0.930 . S
C1913 C1914 1.328 . S
C1914 C1885 1.427 . S
C1914 H1891 0.929 . S
C1914 C1913 1.328 . S
C1915 O1899 1.264 . S
C1915 O1900 1.243 . S
C1916 C1919 1.399 . S
C1916 C1920 1.383 . S
C1916 C1923 1.496 . S
C1917 C1918 1.399 . S
C1917 C1920 1.389 . S
C1918 C1917 1.399 . S
C1918 C1921 1.380 . S
C1918 H1928 0.929 . S
C1919 C1916 1.399 . S
C1919 C1921 1.392 . S
C1919 H1929 0.929 . S
C1920 C1916 1.383 . S
C1920 C1917 1.389 . S
C1920 H1930 0.931 . S
C1921 C1918 1.380 . S
C1921 C1919 1.392 . S
C1921 H1931 0.929 . S
C1922 O1902 1.266 . S
C1922 O1903 1.248 . S
C1923 Tb1859 2.802 1_556 S
C1923 O1898 1.264 . S
C1923 O1901 1.256 . S
C1923 C1916 1.496 . S
H1924 C1907 0.929 . S
H1925 C1908 0.929 . S
H1926 C1909 0.929 . S
H1927 C1910 0.931 . S
H1928 C1918 0.929 . S
H1929 C1919 0.929 . S
H1930 C1920 0.931 . S
H1931 C1921 0.929 . S
Tb1932 N1961 2.617 . S
Tb1932 N1967 2.572 . S
Tb1932 O1976 2.465 . S
Tb1932 O1977 2.387 . S
Tb1932 O1979 2.428 . S
Tb1932 O1980 2.308 . S
Tb1932 O1984 2.349 . S
Tb1932 O1987 2.393 . S
Tb1932 C1996 2.802 . S
C1933 N1934 1.364 1_565 S
C1933 C1936 1.407 1_565 S
C1933 C1940 1.450 . S
N1934 C1933 1.364 1_545 S
N1934 C1937 1.334 . S
N1934 Tb1943 2.617 1_545 S
C1935 C1937 1.390 . S
C1935 C1938 1.339 . S
C1935 H1955 0.930 . S
C1936 C1933 1.407 1_545 S
C1936 C1938 1.416 . S
C1936 C1942 1.448 1_545 S
C1937 N1934 1.334 . S
C1937 C1935 1.390 . S
C1937 H1948 0.930 . S
C1938 C1935 1.339 . S
C1938 C1936 1.416 . S
C1938 H1959 0.930 . S
C1939 C1940 1.413 . S
C1939 C1941 1.427 . S
C1939 C1945 1.416 . S
C1940 C1933 1.450 . S
C1940 C1939 1.413 . S
C1940 N1944 1.361 . S
C1941 C1939 1.427 . S
C1941 C1942 1.328 . S
C1941 H1956 0.929 . S
C1942 C1936 1.448 1_565 S
C1942 C1941 1.328 . S
C1942 H1957 0.930 . S
Tb1943 N1934 2.617 1_565 S
Tb1943 N1944 2.572 . S
Tb1943 O1978 2.349 1_565 S
Tb1943 O1981 2.393 1_565 S
Tb1943 O1982 2.465 1_565 S
Tb1943 O1983 2.387 . S
Tb1943 O1985 2.428 1_565 S
Tb1943 O1986 2.308 . S
Tb1943 C2007 2.802 1_565 S
N1944 C1940 1.361 . S
N1944 Tb1943 2.572 . S
N1944 C1946 1.340 . S
C1945 C1939 1.416 . S
C1945 C1947 1.332 . S
C1945 H1953 0.931 . S
C1946 N1944 1.340 . S
C1946 C1947 1.407 . S
C1946 H1952 0.930 . S
C1947 C1945 1.332 . S
C1947 C1946 1.407 . S
C1947 H1949 0.929 . S
H1948 C1937 0.930 . S
H1949 C1947 0.929 . S
H1950 C1965 0.930 . S
H1951 C1972 0.929 . S
H1952 C1946 0.930 . S
H1953 C1945 0.931 . S
H1954 C1968 0.930 . S
H1955 C1935 0.930 . S
H1956 C1941 0.929 . S
H1957 C1942 0.930 . S
H1958 C1963 0.930 . S
H1959 C1938 0.930 . S
H1960 C1971 0.931 . S
N1961 Tb1932 2.617 . S
N1961 C1962 1.379 . S
N1961 C1965 1.334 . S
C1962 N1961 1.379 . S
C1962 C1964 1.416 . S
C1962 C1970 1.424 . S
C1963 H1958 0.930 . S
C1963 C1965 1.390 . S
C1963 C1966 1.339 . S
C1964 C1962 1.416 . S
C1964 C1966 1.416 . S
C1964 C1997 1.448 . S
C1965 H1950 0.930 . S
C1965 N1961 1.334 . S
C1965 C1963 1.390 . S
C1966 C1963 1.339 . S
C1966 C1964 1.416 . S
C1966 H1973 0.930 . S
N1967 Tb1932 2.572 . S
N1967 C1968 1.340 . S
N1967 C1970 1.361 . S
C1968 H1954 0.930 . S
C1968 N1967 1.340 . S
C1968 C1972 1.407 . S
C1969 C1970 1.413 . S
C1969 C1971 1.416 . S
C1969 C1998 1.427 . S
C1970 C1962 1.424 . S
C1970 N1967 1.361 . S
C1970 C1969 1.413 . S
C1971 H1960 0.931 . S
C1971 C1969 1.416 . S
C1971 C1972 1.332 . S
C1972 H1951 0.929 . S
C1972 C1968 1.407 . S
C1972 C1971 1.332 . S
H1973 C1966 0.930 . S
H1974 C1997 0.930 . S
H1975 C1998 0.929 . S
O1976 Tb1932 2.465 . S
O1976 C1996 1.264 . S
O1977 Tb1932 2.387 . S
O1977 C1988 1.264 . S
O1978 Tb1943 2.349 1_545 S
O1978 C1988 1.243 1_545 S
O1979 Tb1932 2.428 . S
O1979 C1996 1.256 . S
O1980 Tb1932 2.308 . S
O1980 C1995 1.266 . S
O1981 Tb1943 2.393 1_545 S
O1981 C1995 1.248 1_545 S
O1982 Tb1943 2.465 1_545 S
O1982 C2007 1.264 . S
O1983 Tb1943 2.387 . S
O1983 C1999 1.264 . S
O1984 Tb1932 2.349 . S
O1984 C1999 1.243 . S
O1985 Tb1943 2.428 1_545 S
O1985 C2007 1.256 . S
O1986 Tb1943 2.308 . S
O1986 C2006 1.266 . S
O1987 Tb1932 2.393 . S
O1987 C2006 1.248 . S
C1988 O1977 1.264 . S
C1988 O1978 1.243 1_565 S
C1989 C1992 1.399 . S
C1989 C1994 1.383 . S
C1989 C1996 1.496 . S
C1990 C1991 1.399 . S
C1990 C1994 1.389 . S
C1991 C1990 1.399 . S
C1991 C1993 1.380 . S
C1991 H2008 0.929 . S
C1992 C1989 1.399 . S
C1992 C1993 1.392 . S
C1992 H2009 0.929 . S
C1993 C1991 1.380 . S
C1993 C1992 1.392 . S
C1993 H2010 0.929 . S
C1994 C1989 1.383 . S
C1994 C1990 1.389 . S
C1994 H2011 0.931 . S
C1995 O1980 1.266 . S
C1995 O1981 1.248 1_565 S
C1996 Tb1932 2.802 . S
C1996 O1976 1.264 . S
C1996 O1979 1.256 . S
C1996 C1989 1.496 . S
C1997 C1964 1.448 . S
C1997 H1974 0.930 . S
C1997 C1998 1.328 . S
C1998 C1969 1.427 . S
C1998 H1975 0.929 . S
C1998 C1997 1.328 . S
C1999 O1983 1.264 . S
C1999 O1984 1.243 . S
C2000 C2003 1.399 . S
C2000 C2004 1.383 . S
C2000 C2007 1.496 . S
C2001 C2002 1.399 . S
C2001 C2004 1.389 . S
C2002 C2001 1.399 . S
C2002 C2005 1.380 . S
C2002 H2012 0.929 . S
C2003 C2000 1.399 . S
C2003 C2005 1.392 . S
C2003 H2013 0.929 . S
C2004 C2000 1.383 . S
C2004 C2001 1.389 . S
C2004 H2014 0.931 . S
C2005 C2002 1.380 . S
C2005 C2003 1.392 . S
C2005 H2015 0.929 . S
C2006 O1986 1.266 . S
C2006 O1987 1.248 . S
C2007 Tb1943 2.802 1_545 S
C2007 O1982 1.264 . S
C2007 O1985 1.256 . S
C2007 C2000 1.496 . S
H2008 C1991 0.929 . S
H2009 C1992 0.929 . S
H2010 C1993 0.929 . S
H2011 C1994 0.931 . S
H2012 C2002 0.929 . S
H2013 C2003 0.929 . S
H2014 C2004 0.931 . S
H2015 C2005 0.929 . S
Tb2016 N2045 2.617 . S
Tb2016 N2051 2.572 . S
Tb2016 O2060 2.465 . S
Tb2016 O2061 2.387 . S
Tb2016 O2063 2.428 . S
Tb2016 O2064 2.308 . S
Tb2016 O2068 2.349 . S
Tb2016 O2071 2.393 . S
Tb2016 C2080 2.802 . S
C2017 N2018 1.379 1_565 S
C2017 C2020 1.416 1_565 S
C2017 C2024 1.424 . S
N2018 C2017 1.379 1_545 S
N2018 C2021 1.334 . S
N2018 Tb2027 2.617 1_545 S
C2019 C2021 1.390 . S
C2019 C2022 1.339 . S
C2019 H2039 0.930 . S
C2020 C2017 1.416 1_545 S
C2020 C2022 1.416 . S
C2020 C2026 1.448 1_545 S
C2021 N2018 1.334 . S
C2021 C2019 1.390 . S
C2021 H2032 0.930 . S
C2022 C2019 1.339 . S
C2022 C2020 1.416 . S
C2022 H2043 0.930 . S
C2023 C2024 1.413 . S
C2023 C2025 1.427 . S
C2023 C2029 1.416 . S
C2024 C2017 1.424 . S
C2024 C2023 1.413 . S
C2024 N2028 1.361 . S
C2025 C2023 1.427 . S
C2025 C2026 1.328 . S
C2025 H2040 0.929 . S
C2026 C2020 1.448 1_565 S
C2026 C2025 1.328 . S
C2026 H2041 0.930 . S
Tb2027 N2018 2.617 1_565 S
Tb2027 N2028 2.572 . S
Tb2027 O2062 2.349 1_565 S
Tb2027 O2065 2.383 1_565 S
Tb2027 O2066 2.465 1_565 S
Tb2027 O2067 2.387 . S
Tb2027 O2069 2.428 1_565 S
Tb2027 O2070 2.308 . S
Tb2027 C2091 2.802 1_565 S
N2028 C2024 1.361 . S
N2028 Tb2027 2.572 . S
N2028 C2030 1.340 . S
C2029 C2023 1.416 . S
C2029 C2031 1.332 . S
C2029 H2037 0.931 . S
C2030 N2028 1.340 . S
C2030 C2031 1.407 . S
C2030 H2036 0.930 . S
C2031 C2029 1.332 . S
C2031 C2030 1.407 . S
C2031 H2033 0.929 . S
H2032 C2021 0.930 . S
H2033 C2031 0.929 . S
H2034 C2049 0.930 . S
H2035 C2056 0.929 . S
H2036 C2030 0.930 . S
H2037 C2029 0.931 . S
H2038 C2052 0.930 . S
H2039 C2019 0.930 . S
H2040 C2025 0.929 . S
H2041 C2026 0.930 . S
H2042 C2047 0.930 . S
H2043 C2022 0.930 . S
H2044 C2055 0.931 . S
N2045 Tb2016 2.617 . S
N2045 C2046 1.379 . S
N2045 C2049 1.334 . S
C2046 N2045 1.379 . S
C2046 C2048 1.416 . S
C2046 C2054 1.424 . S
C2047 H2042 0.930 . S
C2047 C2049 1.390 . S
C2047 C2050 1.339 . S
C2048 C2046 1.416 . S
C2048 C2050 1.416 . S
C2048 C2081 1.448 . S
C2049 H2034 0.930 . S
C2049 N2045 1.334 . S
C2049 C2047 1.390 . S
C2050 C2047 1.339 . S
C2050 C2048 1.416 . S
C2050 H2057 0.930 . S
N2051 Tb2016 2.572 . S
N2051 C2052 1.340 . S
N2051 C2054 1.361 . S
C2052 H2038 0.930 . S
C2052 N2051 1.340 . S
C2052 C2056 1.407 . S
C2053 C2054 1.413 . S
C2053 C2055 1.416 . S
C2053 C2082 1.427 . S
C2054 C2046 1.424 . S
C2054 N2051 1.361 . S
C2054 C2053 1.413 . S
C2055 H2044 0.931 . S
C2055 C2053 1.416 . S
C2055 C2056 1.332 . S
C2056 H2035 0.929 . S
C2056 C2052 1.407 . S
C2056 C2055 1.332 . S
H2057 C2050 0.930 . S
H2058 C2081 0.930 . S
H2059 C2082 0.929 . S
O2060 Tb2016 2.465 . S
O2060 C2080 1.264 . S
O2061 Tb2016 2.387 . S
O2061 C2072 1.264 . S
O2062 Tb2027 2.349 1_545 S
O2062 C2072 1.243 1_545 S
O2063 Tb2016 2.428 . S
O2063 C2080 1.256 . S
O2064 Tb2016 2.308 . S
O2064 C2079 1.266 . S
O2065 Tb2027 2.383 1_545 S
O2065 C2079 1.219 1_545 S
O2066 Tb2027 2.465 1_545 S
O2066 C2091 1.264 . S
O2067 Tb2027 2.387 . S
O2067 C2083 1.264 . S
O2068 Tb2016 2.349 . S
O2068 C2083 1.243 . S
O2069 Tb2027 2.428 1_545 S
O2069 C2091 1.256 . S
O2070 Tb2027 2.308 . S
O2070 C2090 1.266 . S
O2071 Tb2016 2.393 . S
O2071 C2090 1.248 . S
C2072 O2061 1.264 . S
C2072 O2062 1.243 1_565 S
C2073 C2076 1.399 . S
C2073 C2078 1.383 . S
C2073 C2080 1.496 . S
C2074 C2075 1.399 . S
C2074 C2078 1.389 . S
C2075 C2074 1.399 . S
C2075 C2077 1.380 . S
C2075 H2092 0.929 . S
C2076 C2073 1.399 . S
C2076 C2077 1.392 . S
C2076 H2093 0.929 . S
C2077 C2075 1.380 . S
C2077 C2076 1.392 . S
C2077 H2094 0.929 . S
C2078 C2073 1.383 . S
C2078 C2074 1.389 . S
C2078 H2095 0.931 . S
C2079 O2064 1.266 . S
C2079 O2065 1.219 1_565 S
C2080 Tb2016 2.802 . S
C2080 O2060 1.264 . S
C2080 O2063 1.256 . S
C2080 C2073 1.496 . S
C2081 C2048 1.448 . S
C2081 H2058 0.930 . S
C2081 C2082 1.328 . S
C2082 C2053 1.427 . S
C2082 H2059 0.929 . S
C2082 C2081 1.328 . S
C2083 O2067 1.264 . S
C2083 O2068 1.243 . S
C2084 C2087 1.399 . S
C2084 C2088 1.383 . S
C2084 C2091 1.496 . S
C2085 C2086 1.399 . S
C2085 C2088 1.389 . S
C2086 C2085 1.399 . S
C2086 C2089 1.380 . S
C2086 H2096 0.929 . S
C2087 C2084 1.399 . S
C2087 C2089 1.392 . S
C2087 H2097 0.929 . S
C2088 C2084 1.383 . S
C2088 C2085 1.389 . S
C2088 H2098 0.931 . S
C2089 C2086 1.380 . S
C2089 C2087 1.392 . S
C2089 H2099 0.929 . S
C2090 O2070 1.266 . S
C2090 O2071 1.248 . S
C2091 Tb2027 2.802 1_545 S
C2091 O2066 1.264 . S
C2091 O2069 1.256 . S
C2091 C2084 1.496 . S
H2092 C2075 0.929 . S
H2093 C2076 0.929 . S
H2094 C2077 0.929 . S
H2095 C2078 0.931 . S
H2096 C2086 0.929 . S
H2097 C2087 0.929 . S
H2098 C2088 0.931 . S
H2099 C2089 0.929 . S
Tb2100 N2129 2.611 1_545 S
Tb2100 N2135 2.572 1_545 S
Tb2100 O2144 2.465 1_545 S
Tb2100 O2145 2.387 . S
Tb2100 O2147 2.440 . S
Tb2100 O2148 2.308 . S
Tb2100 O2152 2.349 . S
Tb2100 O2155 2.393 . S
Tb2100 C2164 2.802 1_545 S
C2101 N2102 1.379 . S
C2101 C2104 1.416 . S
C2101 C2108 1.424 . S
N2102 C2101 1.379 . S
N2102 C2105 1.334 . S
N2102 Tb2111 2.617 . S
C2103 C2105 1.390 . S
C2103 C2106 1.339 . S
C2103 H2123 0.930 . S
C2104 C2101 1.416 . S
C2104 C2106 1.416 . S
C2104 C2110 1.448 . S
C2105 N2102 1.334 . S
C2105 C2103 1.390 . S
C2105 H2116 0.930 . S
C2106 C2103 1.339 . S
C2106 C2104 1.416 . S
C2106 H2127 0.930 . S
C2107 C2108 1.413 . S
C2107 C2109 1.427 . S
C2107 C2113 1.416 . S
C2108 C2101 1.424 . S
C2108 C2107 1.413 . S
C2108 N2112 1.361 . S
C2109 C2107 1.427 . S
C2109 C2110 1.328 . S
C2109 H2124 0.929 . S
C2110 C2104 1.448 . S
C2110 C2109 1.328 . S
C2110 H2125 0.930 . S
Tb2111 N2102 2.617 . S
Tb2111 N2112 2.572 . S
Tb2111 O2146 2.349 . S
Tb2111 O2149 2.393 . S
Tb2111 O2150 2.465 . S
Tb2111 O2151 2.387 . S
Tb2111 O2153 2.428 . S
Tb2111 O2154 2.308 . S
Tb2111 C2175 2.802 . S
N2112 C2108 1.361 . S
N2112 Tb2111 2.572 . S
N2112 C2114 1.340 . S
C2113 C2107 1.416 . S
C2113 C2115 1.332 . S
C2113 H2121 0.931 . S
C2114 N2112 1.340 . S
C2114 C2115 1.407 . S
C2114 H2120 0.930 . S
C2115 C2113 1.332 . S
C2115 C2114 1.407 . S
C2115 H2117 0.929 . S
H2116 C2105 0.930 . S
H2117 C2115 0.929 . S
H2118 C2133 0.930 . S
H2119 C2140 0.929 . S
H2120 C2114 0.930 . S
H2121 C2113 0.931 . S
H2122 C2136 0.930 . S
H2123 C2103 0.930 . S
H2124 C2109 0.929 . S
H2125 C2110 0.930 . S
H2126 C2131 0.930 . S
H2127 C2106 0.930 . S
H2128 C2139 0.931 . S
N2129 Tb2100 2.611 1_565 S
N2129 C2130 1.401 . S
N2129 C2133 1.320 1_565 S
C2130 N2129 1.401 . S
C2130 C2132 1.416 . S
C2130 C2138 1.424 . S
C2131 H2126 0.930 . S
C2131 C2133 1.390 . S
C2131 C2134 1.339 1_545 S
C2132 C2130 1.416 . S
C2132 C2134 1.416 . S
C2132 C2165 1.448 . S
C2133 H2118 0.930 . S
C2133 N2129 1.320 1_545 S
C2133 C2131 1.390 . S
C2134 C2131 1.339 1_565 S
C2134 C2132 1.416 . S
C2134 H2141 0.930 . S
N2135 Tb2100 2.572 1_565 S
N2135 C2136 1.340 . S
N2135 C2138 1.361 . S
C2136 H2122 0.930 . S
C2136 N2135 1.340 . S
C2136 C2140 1.407 . S
C2137 C2138 1.413 . S
C2137 C2139 1.416 . S
C2137 C2166 1.427 . S
C2138 C2130 1.424 . S
C2138 N2135 1.361 . S
C2138 C2137 1.413 . S
C2139 H2128 0.931 . S
C2139 C2137 1.416 . S
C2139 C2140 1.332 . S
C2140 H2119 0.929 . S
C2140 C2136 1.407 . S
C2140 C2139 1.332 . S
H2141 C2134 0.930 . S
H2142 C2165 0.930 . S
H2143 C2166 0.929 . S
O2144 Tb2100 2.465 1_565 S
O2144 C2164 1.264 . S
O2145 Tb2100 2.387 . S
O2145 C2156 1.264 . S
O2146 Tb2111 2.349 . S
O2146 C2156 1.243 . S
O2147 Tb2100 2.440 . S
O2147 C2164 1.224 1_545 S
O2148 Tb2100 2.308 . S
O2148 C2163 1.266 . S
O2149 Tb2111 2.393 . S
O2149 C2163 1.248 . S
O2150 Tb2111 2.465 . S
O2150 C2175 1.264 . S
O2151 Tb2111 2.387 . S
O2151 C2167 1.264 . S
O2152 Tb2100 2.349 . S
O2152 C2167 1.243 . S
O2153 Tb2111 2.428 . S
O2153 C2175 1.256 . S
O2154 Tb2111 2.308 . S
O2154 C2174 1.266 . S
O2155 Tb2100 2.393 . S
O2155 C2174 1.248 . S
C2156 O2145 1.264 . S
C2156 O2146 1.243 . S
C2157 C2160 1.399 . S
C2157 C2162 1.383 . S
C2157 C2164 1.496 . S
C2158 C2159 1.399 . S
C2158 C2162 1.389 . S
C2159 C2158 1.399 . S
C2159 C2161 1.380 . S
C2159 H2176 0.929 . S
C2160 C2157 1.399 . S
C2160 C2161 1.392 . S
C2160 H2177 0.929 . S
C2161 C2159 1.380 . S
C2161 C2160 1.392 . S
C2161 H2178 0.929 . S
C2162 C2157 1.383 . S
C2162 C2158 1.389 . S
C2162 H2179 0.931 . S
C2163 O2148 1.266 . S
C2163 O2149 1.248 . S
C2164 Tb2100 2.802 1_565 S
C2164 O2144 1.264 . S
C2164 O2147 1.224 1_565 S
C2164 C2157 1.496 . S
C2165 C2132 1.448 . S
C2165 H2142 0.930 . S
C2165 C2166 1.328 . S
C2166 C2137 1.427 . S
C2166 H2143 0.929 . S
C2166 C2165 1.328 . S
C2167 O2151 1.264 . S
C2167 O2152 1.243 . S
C2168 C2171 1.399 . S
C2168 C2172 1.383 . S
C2168 C2175 1.496 . S
C2169 C2170 1.399 . S
C2169 C2172 1.389 . S
C2170 C2169 1.399 . S
C2170 C2173 1.380 . S
C2170 H2180 0.929 . S
C2171 C2168 1.399 . S
C2171 C2173 1.392 . S
C2171 H2181 0.929 . S
C2172 C2168 1.383 . S
C2172 C2169 1.389 . S
C2172 H2182 0.931 . S
C2173 C2170 1.380 . S
C2173 C2171 1.392 . S
C2173 H2183 0.929 . S
C2174 O2154 1.266 . S
C2174 O2155 1.248 . S
C2175 Tb2111 2.802 . S
C2175 O2150 1.264 . S
C2175 O2153 1.256 . S
C2175 C2168 1.496 . S
H2176 C2159 0.929 . S
H2177 C2160 0.929 . S
H2178 C2161 0.929 . S
H2179 C2162 0.931 . S
H2180 C2170 0.929 . S
H2181 C2171 0.929 . S
H2182 C2172 0.931 . S
H2183 C2173 0.929 . S
Tb2184 N2213 2.612 1_545 S
Tb2184 N2219 2.572 1_545 S
Tb2184 O2228 2.465 1_545 S
Tb2184 O2229 2.387 . S
Tb2184 O2231 2.441 . S
Tb2184 O2232 2.308 . S
Tb2184 O2236 2.349 . S
Tb2184 O2239 2.393 . S
Tb2184 C2248 2.802 1_545 S
C2185 N2186 1.379 . S
C2185 C2188 1.416 . S
C2185 C2192 1.424 . S
N2186 C2185 1.379 . S
N2186 C2189 1.334 . S
N2186 Tb2195 2.617 . S
C2187 C2189 1.390 . S
C2187 C2190 1.339 . S
C2187 H2207 0.930 . S
C2188 C2185 1.416 . S
C2188 C2190 1.416 . S
C2188 C2194 1.448 . S
C2189 N2186 1.334 . S
C2189 C2187 1.390 . S
C2189 H2200 0.930 . S
C2190 C2187 1.339 . S
C2190 C2188 1.416 . S
C2190 H2211 0.930 . S
C2191 C2192 1.413 . S
C2191 C2193 1.427 . S
C2191 C2197 1.416 . S
C2192 C2185 1.424 . S
C2192 C2191 1.413 . S
C2192 N2196 1.361 . S
C2193 C2191 1.427 . S
C2193 C2194 1.328 . S
C2193 H2208 0.929 . S
C2194 C2188 1.448 . S
C2194 C2193 1.328 . S
C2194 H2209 0.930 . S
Tb2195 N2186 2.617 . S
Tb2195 N2196 2.572 . S
Tb2195 O2230 2.349 . S
Tb2195 O2233 2.393 . S
Tb2195 O2234 2.465 . S
Tb2195 O2235 2.387 . S
Tb2195 O2237 2.428 . S
Tb2195 O2238 2.308 . S
Tb2195 C2259 2.802 . S
N2196 C2192 1.361 . S
N2196 Tb2195 2.572 . S
N2196 C2198 1.340 . S
C2197 C2191 1.416 . S
C2197 C2199 1.332 . S
C2197 H2205 0.931 . S
C2198 N2196 1.340 . S
C2198 C2199 1.407 . S
C2198 H2204 0.930 . S
C2199 C2197 1.332 . S
C2199 C2198 1.407 . S
C2199 H2201 0.929 . S
H2200 C2189 0.930 . S
H2201 C2199 0.929 . S
H2202 C2217 0.930 . S
H2203 C2224 0.929 . S
H2204 C2198 0.930 . S
H2205 C2197 0.931 . S
H2206 C2220 0.930 . S
H2207 C2187 0.930 . S
H2208 C2193 0.929 . S
H2209 C2194 0.930 . S
H2210 C2215 0.930 . S
H2211 C2190 0.930 . S
H2212 C2223 0.931 . S
N2213 Tb2184 2.612 1_565 S
N2213 C2214 1.396 . S
N2213 C2217 1.322 1_565 S
C2214 N2213 1.396 . S
C2214 C2216 1.416 . S
C2214 C2222 1.424 . S
C2215 H2210 0.930 . S
C2215 C2217 1.390 . S
C2215 C2218 1.339 1_545 S
C2216 C2214 1.416 . S
C2216 C2218 1.416 . S
C2216 C2249 1.448 . S
C2217 H2202 0.930 . S
C2217 N2213 1.322 1_545 S
C2217 C2215 1.390 . S
C2218 C2215 1.339 1_565 S
C2218 C2216 1.416 . S
C2218 H2225 0.930 . S
N2219 Tb2184 2.572 1_565 S
N2219 C2220 1.340 . S
N2219 C2222 1.361 . S
C2220 H2206 0.930 . S
C2220 N2219 1.340 . S
C2220 C2224 1.407 . S
C2221 C2222 1.413 . S
C2221 C2223 1.416 . S
C2221 C2250 1.427 . S
C2222 C2214 1.424 . S
C2222 N2219 1.361 . S
C2222 C2221 1.413 . S
C2223 H2212 0.931 . S
C2223 C2221 1.416 . S
C2223 C2224 1.332 . S
C2224 H2203 0.929 . S
C2224 C2220 1.407 . S
C2224 C2223 1.332 . S
H2225 C2218 0.930 . S
H2226 C2249 0.930 . S
H2227 C2250 0.929 . S
O2228 Tb2184 2.465 1_565 S
O2228 C2248 1.264 . S
O2229 Tb2184 2.387 . S
O2229 C2240 1.264 . S
O2230 Tb2195 2.349 . S
O2230 C2240 1.243 . S
O2231 Tb2184 2.441 . S
O2231 C2248 1.220 1_545 S
O2232 Tb2184 2.308 . S
O2232 C2247 1.266 . S
O2233 Tb2195 2.393 . S
O2233 C2247 1.248 . S
O2234 Tb2195 2.465 . S
O2234 C2259 1.264 . S
O2235 Tb2195 2.387 . S
O2235 C2251 1.264 . S
O2236 Tb2184 2.349 . S
O2236 C2251 1.243 . S
O2237 Tb2195 2.428 . S
O2237 C2259 1.256 . S
O2238 Tb2195 2.308 . S
O2238 C2258 1.266 . S
O2239 Tb2184 2.393 . S
O2239 C2258 1.248 . S
C2240 O2229 1.264 . S
C2240 O2230 1.243 . S
C2241 C2244 1.399 . S
C2241 C2246 1.383 . S
C2241 C2248 1.496 . S
C2242 C2243 1.399 . S
C2242 C2246 1.389 . S
C2243 C2242 1.399 . S
C2243 C2245 1.380 . S
C2243 H2260 0.929 . S
C2244 C2241 1.399 . S
C2244 C2245 1.392 . S
C2244 H2261 0.929 . S
C2245 C2243 1.380 . S
C2245 C2244 1.392 . S
C2245 H2262 0.929 . S
C2246 C2241 1.383 . S
C2246 C2242 1.389 . S
C2246 H2263 0.931 . S
C2247 O2232 1.266 . S
C2247 O2233 1.248 . S
C2248 Tb2184 2.802 1_565 S
C2248 O2228 1.264 . S
C2248 O2231 1.220 1_565 S
C2248 C2241 1.496 . S
C2249 C2216 1.448 . S
C2249 H2226 0.930 . S
C2249 C2250 1.328 . S
C2250 C2221 1.427 . S
C2250 H2227 0.929 . S
C2250 C2249 1.328 . S
C2251 O2235 1.264 . S
C2251 O2236 1.243 . S
C2252 C2255 1.399 . S
C2252 C2256 1.383 . S
C2252 C2259 1.496 . S
C2253 C2254 1.399 . S
C2253 C2256 1.389 . S
C2254 C2253 1.399 . S
C2254 C2257 1.380 . S
C2254 H2264 0.929 . S
C2255 C2252 1.399 . S
C2255 C2257 1.392 . S
C2255 H2265 0.929 . S
C2256 C2252 1.383 . S
C2256 C2253 1.389 . S
C2256 H2266 0.931 . S
C2257 C2254 1.380 . S
C2257 C2255 1.392 . S
C2257 H2267 0.929 . S
C2258 O2238 1.266 . S
C2258 O2239 1.248 . S
C2259 Tb2195 2.802 . S
C2259 O2234 1.264 . S
C2259 O2237 1.256 . S
C2259 C2252 1.496 . S
H2260 C2243 0.929 . S
H2261 C2244 0.929 . S
H2262 C2245 0.929 . S
H2263 C2246 0.931 . S
H2264 C2254 0.929 . S
H2265 C2255 0.929 . S
H2266 C2256 0.931 . S
H2267 C2257 0.929 . S
Tb2268 N2297 2.617 . S
Tb2268 N2303 2.572 . S
Tb2268 O2312 2.465 . S
Tb2268 O2313 2.387 . S
Tb2268 O2315 2.428 . S
Tb2268 O2316 2.308 . S
Tb2268 O2320 2.349 . S
Tb2268 O2323 2.393 . S
Tb2268 C2332 2.802 . S
C2269 N2270 1.379 1_556 S
C2269 C2272 1.416 1_556 S
C2269 C2276 1.424 . S
N2270 C2269 1.379 1_554 S
N2270 C2273 1.334 . S
N2270 Tb2279 2.617 1_554 S
C2271 C2273 1.390 . S
C2271 C2274 1.339 . S
C2271 H2291 0.930 . S
C2272 C2269 1.416 1_554 S
C2272 C2274 1.416 . S
C2272 C2278 1.448 1_554 S
C2273 N2270 1.334 . S
C2273 C2271 1.390 . S
C2273 H2284 0.930 . S
C2274 C2271 1.339 . S
C2274 C2272 1.416 . S
C2274 H2295 0.930 . S
C2275 C2276 1.413 . S
C2275 C2277 1.427 . S
C2275 C2281 1.416 . S
C2276 C2269 1.424 . S
C2276 C2275 1.413 . S
C2276 N2280 1.361 . S
C2277 C2275 1.427 . S
C2277 C2278 1.328 . S
C2277 H2292 0.929 . S
C2278 C2272 1.448 1_556 S
C2278 C2277 1.328 . S
C2278 H2293 0.930 . S
Tb2279 N2270 2.617 1_556 S
Tb2279 N2280 2.572 . S
Tb2279 O2314 2.338 1_556 S
Tb2279 O2317 2.398 . S
Tb2279 O2318 2.465 1_556 S
Tb2279 O2319 2.387 . S
Tb2279 O2321 2.428 1_556 S
Tb2279 O2322 2.308 . S
Tb2279 C2343 2.802 1_556 S
N2280 C2276 1.361 . S
N2280 Tb2279 2.572 . S
N2280 C2282 1.340 . S
C2281 C2275 1.416 . S
C2281 C2283 1.332 . S
C2281 H2289 0.931 . S
C2282 N2280 1.340 . S
C2282 C2283 1.407 . S
C2282 H2288 0.930 . S
C2283 C2281 1.332 . S
C2283 C2282 1.407 . S
C2283 H2285 0.929 . S
H2284 C2273 0.930 . S
H2285 C2283 0.929 . S
H2286 C2301 0.930 . S
H2287 C2308 0.929 . S
H2288 C2282 0.930 . S
H2289 C2281 0.931 . S
H2290 C2304 0.930 . S
H2291 C2271 0.930 . S
H2292 C2277 0.929 . S
H2293 C2278 0.930 . S
H2294 C2299 0.930 . S
H2295 C2274 0.930 . S
H2296 C2307 0.931 . S
N2297 Tb2268 2.617 . S
N2297 C2298 1.379 . S
N2297 C2301 1.334 . S
C2298 N2297 1.379 . S
C2298 C2300 1.416 . S
C2298 C2306 1.424 . S
C2299 H2294 0.930 . S
C2299 C2301 1.390 . S
C2299 C2302 1.339 . S
C2300 C2298 1.416 . S
C2300 C2302 1.416 . S
C2300 C2333 1.448 . S
C2301 H2286 0.930 . S
C2301 N2297 1.334 . S
C2301 C2299 1.390 . S
C2302 C2299 1.339 . S
C2302 C2300 1.416 . S
C2302 H2309 0.930 . S
N2303 Tb2268 2.572 . S
N2303 C2304 1.340 . S
N2303 C2306 1.361 . S
C2304 H2290 0.930 . S
C2304 N2303 1.340 . S
C2304 C2308 1.407 . S
C2305 C2306 1.413 . S
C2305 C2307 1.416 . S
C2305 C2334 1.427 . S
C2306 C2298 1.424 . S
C2306 N2303 1.361 . S
C2306 C2305 1.413 . S
C2307 H2296 0.931 . S
C2307 C2305 1.416 . S
C2307 C2308 1.332 . S
C2308 H2287 0.929 . S
C2308 C2304 1.407 . S
C2308 C2307 1.332 . S
H2309 C2302 0.930 . S
H2310 C2333 0.930 . S
H2311 C2334 0.929 . S
O2312 Tb2268 2.465 . S
O2312 C2332 1.264 . S
O2313 Tb2268 2.387 . S
O2313 C2324 1.264 . S
O2314 Tb2279 2.338 1_554 S
O2314 C2324 1.229 1_554 S
O2315 Tb2268 2.428 . S
O2315 C2332 1.256 . S
O2316 Tb2268 2.308 . S
O2316 C2331 1.266 . S
O2317 Tb2279 2.398 . S
O2317 C2331 1.263 . S
O2318 Tb2279 2.465 1_554 S
O2318 C2343 1.264 . S
O2319 Tb2279 2.387 . S
O2319 C2335 1.264 . S
O2320 Tb2268 2.349 . S
O2320 C2335 1.243 . S
O2321 Tb2279 2.428 1_554 S
O2321 C2343 1.256 . S
O2322 Tb2279 2.308 . S
O2322 C2342 1.266 . S
O2323 Tb2268 2.393 . S
O2323 C2342 1.248 . S
C2324 O2313 1.264 . S
C2324 O2314 1.229 1_556 S
C2325 C2328 1.399 . S
C2325 C2330 1.383 . S
C2325 C2332 1.496 . S
C2326 C2327 1.399 . S
C2326 C2330 1.389 . S
C2327 C2326 1.399 . S
C2327 C2329 1.380 . S
C2327 H2344 0.929 . S
C2328 C2325 1.399 . S
C2328 C2329 1.392 . S
C2328 H2345 0.929 . S
C2329 C2327 1.380 . S
C2329 C2328 1.392 . S
C2329 H2346 0.929 . S
C2330 C2325 1.383 . S
C2330 C2326 1.389 . S
C2330 H2347 0.931 . S
C2331 O2316 1.266 . S
C2331 O2317 1.263 . S
C2332 Tb2268 2.802 . S
C2332 O2312 1.264 . S
C2332 O2315 1.256 . S
C2332 C2325 1.496 . S
C2333 C2300 1.448 . S
C2333 H2310 0.930 . S
C2333 C2334 1.328 . S
C2334 C2305 1.427 . S
C2334 H2311 0.929 . S
C2334 C2333 1.328 . S
C2335 O2319 1.264 . S
C2335 O2320 1.243 . S
C2336 C2339 1.399 . S
C2336 C2340 1.383 . S
C2336 C2343 1.496 . S
C2337 C2338 1.399 . S
C2337 C2340 1.389 . S
C2338 C2337 1.399 . S
C2338 C2341 1.380 . S
C2338 H2348 0.929 . S
C2339 C2336 1.399 . S
C2339 C2341 1.392 . S
C2339 H2349 0.929 . S
C2340 C2336 1.383 . S
C2340 C2337 1.389 . S
C2340 H2350 0.931 . S
C2341 C2338 1.380 . S
C2341 C2339 1.392 . S
C2341 H2351 0.929 . S
C2342 O2322 1.266 . S
C2342 O2323 1.248 . S
C2343 Tb2279 2.802 1_554 S
C2343 O2318 1.264 . S
C2343 O2321 1.256 . S
C2343 C2336 1.496 . S
H2344 C2327 0.929 . S
H2345 C2328 0.929 . S
H2346 C2329 0.929 . S
H2347 C2330 0.931 . S
H2348 C2338 0.929 . S
H2349 C2339 0.929 . S
H2350 C2340 0.931 . S
H2351 C2341 0.929 . S
Tb2352 N2381 2.610 1_455 S
Tb2352 N2387 2.572 1_455 S
Tb2352 O2396 2.465 1_455 S
Tb2352 O2397 2.387 . S
Tb2352 O2399 2.433 . S
Tb2352 O2400 2.308 . S
Tb2352 O2404 2.349 . S
Tb2352 O2407 2.393 . S
Tb2352 C2416 2.802 1_455 S
C2353 N2354 1.379 . S
C2353 C2356 1.416 . S
C2353 C2360 1.424 . S
N2354 C2353 1.379 . S
N2354 C2357 1.334 . S
N2354 Tb2363 2.617 . S
C2355 C2357 1.390 . S
C2355 C2358 1.339 . S
C2355 H2375 0.930 . S
C2356 C2353 1.416 . S
C2356 C2358 1.416 . S
C2356 C2362 1.448 . S
C2357 N2354 1.334 . S
C2357 C2355 1.390 . S
C2357 H2368 0.930 . S
C2358 C2355 1.339 . S
C2358 C2356 1.416 . S
C2358 H2379 0.930 . S
C2359 C2360 1.413 . S
C2359 C2361 1.427 . S
C2359 C2365 1.416 . S
C2360 C2353 1.424 . S
C2360 C2359 1.413 . S
C2360 N2364 1.361 . S
C2361 C2359 1.427 . S
C2361 C2362 1.328 . S
C2361 H2376 0.929 . S
C2362 C2356 1.448 . S
C2362 C2361 1.328 . S
C2362 H2377 0.930 . S
Tb2363 N2354 2.617 . S
Tb2363 N2364 2.572 . S
Tb2363 O2398 2.349 . S
Tb2363 O2401 2.393 . S
Tb2363 O2402 2.465 . S
Tb2363 O2403 2.387 . S
Tb2363 O2405 2.428 . S
Tb2363 O2406 2.308 . S
Tb2363 C2427 2.802 . S
N2364 C2360 1.361 . S
N2364 Tb2363 2.572 . S
N2364 C2366 1.340 . S
C2365 C2359 1.416 . S
C2365 C2367 1.332 . S
C2365 H2373 0.931 . S
C2366 N2364 1.340 . S
C2366 C2367 1.407 . S
C2366 H2372 0.930 . S
C2367 C2365 1.332 . S
C2367 C2366 1.407 . S
C2367 H2369 0.929 . S
H2368 C2357 0.930 . S
H2369 C2367 0.929 . S
H2370 C2385 0.930 . S
H2371 C2392 0.929 . S
H2372 C2366 0.930 . S
H2373 C2365 0.931 . S
H2374 C2388 0.930 . S
H2375 C2355 0.930 . S
H2376 C2361 0.929 . S
H2377 C2362 0.930 . S
H2378 C2383 0.930 . S
H2379 C2358 0.930 . S
H2380 C2391 0.931 . S
N2381 Tb2352 2.610 1_655 S
N2381 C2382 1.407 . S
N2381 C2385 1.315 1_655 S
C2382 N2381 1.407 . S
C2382 C2384 1.416 . S
C2382 C2390 1.424 . S
C2383 H2378 0.930 . S
C2383 C2385 1.390 . S
C2383 C2386 1.339 1_455 S
C2384 C2382 1.416 . S
C2384 C2386 1.416 . S
C2384 C2417 1.448 . S
C2385 H2370 0.930 . S
C2385 N2381 1.315 1_455 S
C2385 C2383 1.390 . S
C2386 C2383 1.339 1_655 S
C2386 C2384 1.416 . S
C2386 H2393 0.930 . S
N2387 Tb2352 2.572 1_655 S
N2387 C2388 1.340 . S
N2387 C2390 1.361 . S
C2388 H2374 0.930 . S
C2388 N2387 1.340 . S
C2388 C2392 1.407 . S
C2389 C2390 1.413 . S
C2389 C2391 1.416 . S
C2389 C2418 1.427 . S
C2390 C2382 1.424 . S
C2390 N2387 1.361 . S
C2390 C2389 1.413 . S
C2391 H2380 0.931 . S
C2391 C2389 1.416 . S
C2391 C2392 1.332 . S
C2392 H2371 0.929 . S
C2392 C2388 1.407 . S
C2392 C2391 1.332 . S
H2393 C2386 0.930 . S
H2394 C2417 0.930 . S
H2395 C2418 0.929 . S
O2396 Tb2352 2.465 1_655 S
O2396 C2416 1.264 . S
O2397 Tb2352 2.387 . S
O2397 C2408 1.264 . S
O2398 Tb2363 2.349 . S
O2398 C2408 1.243 . S
O2399 Tb2352 2.433 . S
O2399 C2416 1.240 1_455 S
O2400 Tb2352 2.308 . S
O2400 C2415 1.266 . S
O2401 Tb2363 2.393 . S
O2401 C2415 1.248 . S
O2402 Tb2363 2.465 . S
O2402 C2427 1.264 . S
O2403 Tb2363 2.387 . S
O2403 C2419 1.264 . S
O2404 Tb2352 2.349 . S
O2404 C2419 1.243 . S
O2405 Tb2363 2.428 . S
O2405 C2427 1.256 . S
O2406 Tb2363 2.308 . S
O2406 C2426 1.266 . S
O2407 Tb2352 2.393 . S
O2407 C2426 1.248 . S
C2408 O2397 1.264 . S
C2408 O2398 1.243 . S
C2409 C2412 1.399 . S
C2409 C2414 1.383 . S
C2409 C2416 1.496 . S
C2410 C2411 1.399 . S
C2410 C2414 1.389 . S
C2411 C2410 1.399 . S
C2411 C2413 1.380 . S
C2411 H2428 0.929 . S
C2412 C2409 1.399 . S
C2412 C2413 1.392 . S
C2412 H2429 0.929 . S
C2413 C2411 1.380 . S
C2413 C2412 1.392 . S
C2413 H2430 0.929 . S
C2414 C2409 1.383 . S
C2414 C2410 1.389 . S
C2414 H2431 0.931 . S
C2415 O2400 1.266 . S
C2415 O2401 1.248 . S
C2416 Tb2352 2.802 1_655 S
C2416 O2396 1.264 . S
C2416 O2399 1.240 1_655 S
C2416 C2409 1.496 . S
C2417 C2384 1.448 . S
C2417 H2394 0.930 . S
C2417 C2418 1.328 . S
C2418 C2389 1.427 . S
C2418 H2395 0.929 . S
C2418 C2417 1.328 . S
C2419 O2403 1.264 . S
C2419 O2404 1.243 . S
C2420 C2423 1.399 . S
C2420 C2424 1.383 . S
C2420 C2427 1.496 . S
C2421 C2422 1.399 . S
C2421 C2424 1.389 . S
C2422 C2421 1.399 . S
C2422 C2425 1.380 . S
C2422 H2432 0.929 . S
C2423 C2420 1.399 . S
C2423 C2425 1.392 . S
C2423 H2433 0.929 . S
C2424 C2420 1.383 . S
C2424 C2421 1.389 . S
C2424 H2434 0.931 . S
C2425 C2422 1.380 . S
C2425 C2423 1.392 . S
C2425 H2435 0.929 . S
C2426 O2406 1.266 . S
C2426 O2407 1.248 . S
C2427 Tb2363 2.802 . S
C2427 O2402 1.264 . S
C2427 O2405 1.256 . S
C2427 C2420 1.496 . S
H2428 C2411 0.929 . S
H2429 C2412 0.929 . S
H2430 C2413 0.929 . S
H2431 C2414 0.931 . S
H2432 C2422 0.929 . S
H2433 C2423 0.929 . S
H2434 C2424 0.931 . S
H2435 C2425 0.929 . S
Tb2436 N2465 2.617 . S
Tb2436 N2471 2.572 . S
Tb2436 O2480 2.465 . S
Tb2436 O2481 2.387 . S
Tb2436 O2483 2.428 . S
Tb2436 O2484 2.308 . S
Tb2436 O2488 2.349 . S
Tb2436 O2491 2.393 . S
Tb2436 C2500 2.802 . S
C2437 N2438 1.379 . S
C2437 C2440 1.416 . S
C2437 C2444 1.424 . S
N2438 C2437 1.379 . S
N2438 C2441 1.334 . S
N2438 Tb2447 2.617 . S
C2439 C2441 1.390 . S
C2439 C2442 1.339 . S
C2439 H2459 0.930 . S
C2440 C2437 1.416 . S
C2440 C2442 1.416 . S
C2440 C2446 1.448 . S
C2441 N2438 1.334 . S
C2441 C2439 1.390 . S
C2441 H2452 0.930 . S
C2442 C2439 1.339 . S
C2442 C2440 1.416 . S
C2442 H2463 0.930 . S
C2443 C2444 1.413 . S
C2443 C2445 1.427 . S
C2443 C2449 1.416 . S
C2444 C2437 1.424 . S
C2444 C2443 1.413 . S
C2444 N2448 1.361 . S
C2445 C2443 1.427 . S
C2445 C2446 1.328 . S
C2445 H2460 0.929 . S
C2446 C2440 1.448 . S
C2446 C2445 1.328 . S
C2446 H2461 0.930 . S
Tb2447 N2438 2.617 . S
Tb2447 N2448 2.572 . S
Tb2447 O2482 2.349 . S
Tb2447 O2485 2.393 . S
Tb2447 O2486 2.465 . S
Tb2447 O2487 2.387 . S
Tb2447 O2489 2.428 . S
Tb2447 O2490 2.308 . S
Tb2447 C2511 2.802 . S
N2448 C2444 1.361 . S
N2448 Tb2447 2.572 . S
N2448 C2450 1.340 . S
C2449 C2443 1.416 . S
C2449 C2451 1.332 . S
C2449 H2457 0.931 . S
C2450 N2448 1.340 . S
C2450 C2451 1.407 . S
C2450 H2456 0.930 . S
C2451 C2449 1.332 . S
C2451 C2450 1.407 . S
C2451 H2453 0.929 . S
H2452 C2441 0.930 . S
H2453 C2451 0.929 . S
H2454 C2469 0.930 . S
H2455 C2476 0.929 . S
H2456 C2450 0.930 . S
H2457 C2449 0.931 . S
H2458 C2472 0.930 . S
H2459 C2439 0.930 . S
H2460 C2445 0.929 . S
H2461 C2446 0.930 . S
H2462 C2467 0.930 . S
H2463 C2442 0.930 . S
H2464 C2475 0.931 . S
N2465 Tb2436 2.617 . S
N2465 C2466 1.379 . S
N2465 C2469 1.334 . S
C2466 N2465 1.379 . S
C2466 C2468 1.416 . S
C2466 C2474 1.424 . S
C2467 H2462 0.930 . S
C2467 C2469 1.390 . S
C2467 C2470 1.339 . S
C2468 C2466 1.416 . S
C2468 C2470 1.416 . S
C2468 C2501 1.448 . S
C2469 H2454 0.930 . S
C2469 N2465 1.334 . S
C2469 C2467 1.390 . S
C2470 C2467 1.339 . S
C2470 C2468 1.416 . S
C2470 H2477 0.930 . S
N2471 Tb2436 2.572 . S
N2471 C2472 1.340 . S
N2471 C2474 1.361 . S
C2472 H2458 0.930 . S
C2472 N2471 1.340 . S
C2472 C2476 1.407 . S
C2473 C2474 1.413 . S
C2473 C2475 1.416 . S
C2473 C2502 1.427 . S
C2474 C2466 1.424 . S
C2474 N2471 1.361 . S
C2474 C2473 1.413 . S
C2475 H2464 0.931 . S
C2475 C2473 1.416 . S
C2475 C2476 1.332 . S
C2476 H2455 0.929 . S
C2476 C2472 1.407 . S
C2476 C2475 1.332 . S
H2477 C2470 0.930 . S
H2478 C2501 0.930 . S
H2479 C2502 0.929 . S
O2480 Tb2436 2.465 . S
O2480 C2500 1.264 . S
O2481 Tb2436 2.387 . S
O2481 C2492 1.264 . S
O2482 Tb2447 2.349 . S
O2482 C2492 1.243 . S
O2483 Tb2436 2.428 . S
O2483 C2500 1.256 . S
O2484 Tb2436 2.308 . S
O2484 C2499 1.266 . S
O2485 Tb2447 2.393 . S
O2485 C2499 1.248 . S
O2486 Tb2447 2.465 . S
O2486 C2511 1.264 . S
O2487 Tb2447 2.387 . S
O2487 C2503 1.264 . S
O2488 Tb2436 2.349 . S
O2488 C2503 1.243 . S
O2489 Tb2447 2.428 . S
O2489 C2511 1.256 . S
O2490 Tb2447 2.308 . S
O2490 C2510 1.266 . S
O2491 Tb2436 2.393 . S
O2491 C2510 1.248 . S
C2492 O2481 1.264 . S
C2492 O2482 1.243 . S
C2493 C2496 1.399 . S
C2493 C2498 1.383 . S
C2493 C2500 1.496 . S
C2494 C2495 1.399 . S
C2494 C2498 1.389 . S
C2495 C2494 1.399 . S
C2495 C2497 1.380 . S
C2495 H2512 0.929 . S
C2496 C2493 1.399 . S
C2496 C2497 1.392 . S
C2496 H2513 0.929 . S
C2497 C2495 1.380 . S
C2497 C2496 1.392 . S
C2497 H2514 0.929 . S
C2498 C2493 1.383 . S
C2498 C2494 1.389 . S
C2498 H2515 0.931 . S
C2499 O2484 1.266 . S
C2499 O2485 1.248 . S
C2500 Tb2436 2.802 . S
C2500 O2480 1.264 . S
C2500 O2483 1.256 . S
C2500 C2493 1.496 . S
C2501 C2468 1.448 . S
C2501 H2478 0.930 . S
C2501 C2502 1.328 . S
C2502 C2473 1.427 . S
C2502 H2479 0.929 . S
C2502 C2501 1.328 . S
C2503 O2487 1.264 . S
C2503 O2488 1.243 . S
C2504 C2507 1.399 . S
C2504 C2508 1.383 . S
C2504 C2511 1.496 . S
C2505 C2506 1.399 . S
C2505 C2508 1.389 . S
C2506 C2505 1.399 . S
C2506 C2509 1.380 . S
C2506 H2516 0.929 . S
C2507 C2504 1.399 . S
C2507 C2509 1.392 . S
C2507 H2517 0.929 . S
C2508 C2504 1.383 . S
C2508 C2505 1.389 . S
C2508 H2518 0.931 . S
C2509 C2506 1.380 . S
C2509 C2507 1.392 . S
C2509 H2519 0.929 . S
C2510 O2490 1.266 . S
C2510 O2491 1.248 . S
C2511 Tb2447 2.802 . S
C2511 O2486 1.264 . S
C2511 O2489 1.256 . S
C2511 C2504 1.496 . S
H2512 C2495 0.929 . S
H2513 C2496 0.929 . S
H2514 C2497 0.929 . S
H2515 C2498 0.931 . S
H2516 C2506 0.929 . S
H2517 C2507 0.929 . S
H2518 C2508 0.931 . S
H2519 C2509 0.929 . S
Tb2520 N2549 2.617 . S
Tb2520 N2555 2.572 . S
Tb2520 O2564 2.465 . S
Tb2520 O2565 2.387 . S
Tb2520 O2567 2.428 . S
Tb2520 O2568 2.308 . S
Tb2520 O2572 2.349 . S
Tb2520 O2575 2.393 . S
Tb2520 C2584 2.802 . S
C2521 N2522 1.379 . S
C2521 C2524 1.416 . S
C2521 C2528 1.424 . S
N2522 C2521 1.379 . S
N2522 C2525 1.334 . S
N2522 Tb2531 2.617 . S
C2523 C2525 1.390 . S
C2523 C2526 1.339 . S
C2523 H2543 0.930 . S
C2524 C2521 1.416 . S
C2524 C2526 1.416 . S
C2524 C2530 1.448 . S
C2525 N2522 1.334 . S
C2525 C2523 1.390 . S
C2525 H2536 0.930 . S
C2526 C2523 1.339 . S
C2526 C2524 1.416 . S
C2526 H2547 0.930 . S
C2527 C2528 1.413 . S
C2527 C2529 1.427 . S
C2527 C2533 1.416 . S
C2528 C2521 1.424 . S
C2528 C2527 1.413 . S
C2528 N2532 1.361 . S
C2529 C2527 1.427 . S
C2529 C2530 1.328 . S
C2529 H2544 0.929 . S
C2530 C2524 1.448 . S
C2530 C2529 1.328 . S
C2530 H2545 0.930 . S
Tb2531 N2522 2.617 . S
Tb2531 N2532 2.572 . S
Tb2531 O2566 2.349 . S
Tb2531 O2569 2.393 . S
Tb2531 O2570 2.465 . S
Tb2531 O2571 2.387 . S
Tb2531 O2573 2.428 . S
Tb2531 O2574 2.308 . S
Tb2531 C2595 2.802 . S
N2532 C2528 1.361 . S
N2532 Tb2531 2.572 . S
N2532 C2534 1.340 . S
C2533 C2527 1.416 . S
C2533 C2535 1.332 . S
C2533 H2541 0.931 . S
C2534 N2532 1.340 . S
C2534 C2535 1.407 . S
C2534 H2540 0.930 . S
C2535 C2533 1.332 . S
C2535 C2534 1.407 . S
C2535 H2537 0.929 . S
H2536 C2525 0.930 . S
H2537 C2535 0.929 . S
H2538 C2553 0.930 . S
H2539 C2560 0.929 . S
H2540 C2534 0.930 . S
H2541 C2533 0.931 . S
H2542 C2556 0.930 . S
H2543 C2523 0.930 . S
H2544 C2529 0.929 . S
H2545 C2530 0.930 . S
H2546 C2551 0.930 . S
H2547 C2526 0.930 . S
H2548 C2559 0.931 . S
N2549 Tb2520 2.617 . S
N2549 C2550 1.379 . S
N2549 C2553 1.334 . S
C2550 N2549 1.379 . S
C2550 C2552 1.416 . S
C2550 C2558 1.424 . S
C2551 H2546 0.930 . S
C2551 C2553 1.390 . S
C2551 C2554 1.339 . S
C2552 C2550 1.416 . S
C2552 C2554 1.416 . S
C2552 C2585 1.448 . S
C2553 H2538 0.930 . S
C2553 N2549 1.334 . S
C2553 C2551 1.390 . S
C2554 C2551 1.339 . S
C2554 C2552 1.416 . S
C2554 H2561 0.930 . S
N2555 Tb2520 2.572 . S
N2555 C2556 1.340 . S
N2555 C2558 1.361 . S
C2556 H2542 0.930 . S
C2556 N2555 1.340 . S
C2556 C2560 1.407 . S
C2557 C2558 1.413 . S
C2557 C2559 1.416 . S
C2557 C2586 1.427 . S
C2558 C2550 1.424 . S
C2558 N2555 1.361 . S
C2558 C2557 1.413 . S
C2559 H2548 0.931 . S
C2559 C2557 1.416 . S
C2559 C2560 1.332 . S
C2560 H2539 0.929 . S
C2560 C2556 1.407 . S
C2560 C2559 1.332 . S
H2561 C2554 0.930 . S
H2562 C2585 0.930 . S
H2563 C2586 0.929 . S
O2564 Tb2520 2.465 . S
O2564 C2584 1.264 . S
O2565 Tb2520 2.387 . S
O2565 C2576 1.264 . S
O2566 Tb2531 2.349 . S
O2566 C2576 1.243 . S
O2567 Tb2520 2.428 . S
O2567 C2584 1.256 . S
O2568 Tb2520 2.308 . S
O2568 C2583 1.266 . S
O2569 Tb2531 2.393 . S
O2569 C2583 1.248 . S
O2570 Tb2531 2.465 . S
O2570 C2595 1.264 . S
O2571 Tb2531 2.387 . S
O2571 C2587 1.264 . S
O2572 Tb2520 2.349 . S
O2572 C2587 1.243 . S
O2573 Tb2531 2.428 . S
O2573 C2595 1.256 . S
O2574 Tb2531 2.308 . S
O2574 C2594 1.266 . S
O2575 Tb2520 2.393 . S
O2575 C2594 1.248 . S
C2576 O2565 1.264 . S
C2576 O2566 1.243 . S
C2577 C2580 1.399 . S
C2577 C2582 1.383 . S
C2577 C2584 1.496 . S
C2578 C2579 1.399 . S
C2578 C2582 1.389 . S
C2579 C2578 1.399 . S
C2579 C2581 1.380 . S
C2579 H2596 0.929 . S
C2580 C2577 1.399 . S
C2580 C2581 1.392 . S
C2580 H2597 0.929 . S
C2581 C2579 1.380 . S
C2581 C2580 1.392 . S
C2581 H2598 0.929 . S
C2582 C2577 1.383 . S
C2582 C2578 1.389 . S
C2582 H2599 0.931 . S
C2583 O2568 1.266 . S
C2583 O2569 1.248 . S
C2584 Tb2520 2.802 . S
C2584 O2564 1.264 . S
C2584 O2567 1.256 . S
C2584 C2577 1.496 . S
C2585 C2552 1.448 . S
C2585 H2562 0.930 . S
C2585 C2586 1.328 . S
C2586 C2557 1.427 . S
C2586 H2563 0.929 . S
C2586 C2585 1.328 . S
C2587 O2571 1.264 . S
C2587 O2572 1.243 . S
C2588 C2591 1.399 . S
C2588 C2592 1.383 . S
C2588 C2595 1.496 . S
C2589 C2590 1.399 . S
C2589 C2592 1.389 . S
C2590 C2589 1.399 . S
C2590 C2593 1.380 . S
C2590 H2600 0.929 . S
C2591 C2588 1.399 . S
C2591 C2593 1.392 . S
C2591 H2601 0.929 . S
C2592 C2588 1.383 . S
C2592 C2589 1.389 . S
C2592 H2602 0.931 . S
C2593 C2590 1.380 . S
C2593 C2591 1.392 . S
C2593 H2603 0.929 . S
C2594 O2574 1.266 . S
C2594 O2575 1.248 . S
C2595 Tb2531 2.802 . S
C2595 O2570 1.264 . S
C2595 O2573 1.256 . S
C2595 C2588 1.496 . S
H2596 C2579 0.929 . S
H2597 C2580 0.929 . S
H2598 C2581 0.929 . S
H2599 C2582 0.931 . S
H2600 C2590 0.929 . S
H2601 C2591 0.929 . S
H2602 C2592 0.931 . S
H2603 C2593 0.929 . S
Tb2604 N2633 2.617 1_655 S
Tb2604 N2639 2.572 . S
Tb2604 O2648 2.465 1_655 S
Tb2604 O2649 2.387 . S
Tb2604 O2651 2.428 1_655 S
Tb2604 O2652 2.308 . S
Tb2604 O2656 2.349 1_655 S
Tb2604 O2659 2.394 1_655 S
Tb2604 C2668 2.802 1_655 S
C2605 N2606 1.379 . S
C2605 C2608 1.416 . S
C2605 C2612 1.424 . S
N2606 C2605 1.379 . S
N2606 C2609 1.334 . S
N2606 Tb2615 2.617 . S
C2607 C2609 1.390 . S
C2607 C2610 1.339 . S
C2607 H2627 0.930 . S
C2608 C2605 1.416 . S
C2608 C2610 1.416 . S
C2608 C2614 1.448 . S
C2609 N2606 1.334 . S
C2609 C2607 1.390 . S
C2609 H2620 0.930 . S
C2610 C2607 1.339 . S
C2610 C2608 1.416 . S
C2610 H2631 0.930 . S
C2611 C2612 1.413 . S
C2611 C2613 1.427 . S
C2611 C2617 1.416 . S
C2612 C2605 1.424 . S
C2612 C2611 1.413 . S
C2612 N2616 1.361 . S
C2613 C2611 1.427 . S
C2613 C2614 1.328 . S
C2613 H2628 0.929 . S
C2614 C2608 1.448 . S
C2614 C2613 1.328 . S
C2614 H2629 0.930 . S
Tb2615 N2606 2.617 . S
Tb2615 N2616 2.572 . S
Tb2615 O2650 2.349 . S
Tb2615 O2653 2.393 . S
Tb2615 O2654 2.465 . S
Tb2615 O2655 2.387 . S
Tb2615 O2657 2.428 . S
Tb2615 O2658 2.308 . S
Tb2615 C2679 2.802 . S
N2616 C2612 1.361 . S
N2616 Tb2615 2.572 . S
N2616 C2618 1.340 . S
C2617 C2611 1.416 . S
C2617 C2619 1.332 . S
C2617 H2625 0.931 . S
C2618 N2616 1.340 . S
C2618 C2619 1.407 . S
C2618 H2624 0.930 . S
C2619 C2617 1.332 . S
C2619 C2618 1.407 . S
C2619 H2621 0.929 . S
H2620 C2609 0.930 . S
H2621 C2619 0.929 . S
H2622 C2637 0.930 . S
H2623 C2644 0.929 . S
H2624 C2618 0.930 . S
H2625 C2617 0.931 . S
H2626 C2640 0.930 . S
H2627 C2607 0.930 . S
H2628 C2613 0.929 . S
H2629 C2614 0.930 . S
H2630 C2635 0.930 . S
H2631 C2610 0.930 . S
H2632 C2643 0.931 . S
N2633 Tb2604 2.617 1_455 S
N2633 C2634 1.379 1_455 S
N2633 C2637 1.334 . S
C2634 N2633 1.379 1_655 S
C2634 C2636 1.416 1_655 S
C2634 C2642 1.424 . S
C2635 H2630 0.930 . S
C2635 C2637 1.390 . S
C2635 C2638 1.339 . S
C2636 C2634 1.416 1_455 S
C2636 C2638 1.416 . S
C2636 C2669 1.448 1_455 S
C2637 H2622 0.930 . S
C2637 N2633 1.334 . S
C2637 C2635 1.390 . S
C2638 C2635 1.339 . S
C2638 C2636 1.416 . S
C2638 H2645 0.930 . S
N2639 Tb2604 2.572 . S
N2639 C2640 1.340 . S
N2639 C2642 1.361 . S
C2640 H2626 0.930 . S
C2640 N2639 1.340 . S
C2640 C2644 1.407 . S
C2641 C2642 1.413 . S
C2641 C2643 1.416 . S
C2641 C2670 1.427 . S
C2642 C2634 1.424 . S
C2642 N2639 1.361 . S
C2642 C2641 1.413 . S
C2643 H2632 0.931 . S
C2643 C2641 1.416 . S
C2643 C2644 1.332 . S
C2644 H2623 0.929 . S
C2644 C2640 1.407 . S
C2644 C2643 1.332 . S
H2645 C2638 0.930 . S
H2646 C2669 0.930 . S
H2647 C2670 0.929 . S
O2648 Tb2604 2.465 1_455 S
O2648 C2668 1.264 . S
O2649 Tb2604 2.387 . S
O2649 C2660 1.264 . S
O2650 Tb2615 2.349 . S
O2650 C2660 1.243 . S
O2651 Tb2604 2.428 1_455 S
O2651 C2668 1.256 . S
O2652 Tb2604 2.308 . S
O2652 C2667 1.266 . S
O2653 Tb2615 2.393 . S
O2653 C2667 1.248 . S
O2654 Tb2615 2.465 . S
O2654 C2679 1.264 . S
O2655 Tb2615 2.387 . S
O2655 C2671 1.264 . S
O2656 Tb2604 2.349 1_455 S
O2656 C2671 1.243 1_455 S
O2657 Tb2615 2.428 . S
O2657 C2679 1.256 . S
O2658 Tb2615 2.308 . S
O2658 C2678 1.266 . S
O2659 Tb2604 2.394 1_455 S
O2659 C2678 1.252 1_455 S
C2660 O2649 1.264 . S
C2660 O2650 1.243 . S
C2661 C2664 1.399 . S
C2661 C2666 1.383 . S
C2661 C2668 1.496 . S
C2662 C2663 1.399 . S
C2662 C2666 1.389 . S
C2663 C2662 1.399 . S
C2663 C2665 1.380 . S
C2663 H2680 0.929 . S
C2664 C2661 1.399 . S
C2664 C2665 1.392 . S
C2664 H2681 0.929 . S
C2665 C2663 1.380 . S
C2665 C2664 1.392 . S
C2665 H2682 0.929 . S
C2666 C2661 1.383 . S
C2666 C2662 1.389 . S
C2666 H2683 0.931 . S
C2667 O2652 1.266 . S
C2667 O2653 1.248 . S
C2668 Tb2604 2.802 1_455 S
C2668 O2648 1.264 . S
C2668 O2651 1.256 . S
C2668 C2661 1.496 . S
C2669 C2636 1.448 1_655 S
C2669 H2646 0.930 . S
C2669 C2670 1.328 . S
C2670 C2641 1.427 . S
C2670 H2647 0.929 . S
C2670 C2669 1.328 . S
C2671 O2655 1.264 . S
C2671 O2656 1.243 1_655 S
C2672 C2675 1.399 . S
C2672 C2676 1.383 . S
C2672 C2679 1.496 . S
C2673 C2674 1.399 . S
C2673 C2676 1.389 . S
C2674 C2673 1.399 . S
C2674 C2677 1.380 . S
C2674 H2684 0.929 . S
C2675 C2672 1.399 . S
C2675 C2677 1.392 . S
C2675 H2685 0.929 . S
C2676 C2672 1.383 . S
C2676 C2673 1.389 . S
C2676 H2686 0.931 . S
C2677 C2674 1.380 . S
C2677 C2675 1.392 . S
C2677 H2687 0.929 . S
C2678 O2658 1.266 . S
C2678 O2659 1.252 1_655 S
C2679 Tb2615 2.802 . S
C2679 O2654 1.264 . S
C2679 O2657 1.256 . S
C2679 C2672 1.496 . S
H2680 C2663 0.929 . S
H2681 C2664 0.929 . S
H2682 C2665 0.929 . S
H2683 C2666 0.931 . S
H2684 C2674 0.929 . S
H2685 C2675 0.929 . S
H2686 C2676 0.931 . S
H2687 C2677 0.929 . S
Tb2688 N2717 2.617 . S
Tb2688 N2723 2.572 . S
Tb2688 O2732 2.465 . S
Tb2688 O2733 2.387 . S
Tb2688 O2735 2.428 . S
Tb2688 O2736 2.308 . S
Tb2688 O2740 2.349 . S
Tb2688 O2743 2.393 . S
Tb2688 C2752 2.802 . S
C2689 N2690 1.379 . S
C2689 C2692 1.416 . S
C2689 C2696 1.424 . S
N2690 C2689 1.379 . S
N2690 C2693 1.334 . S
N2690 Tb2699 2.617 . S
C2691 C2693 1.390 . S
C2691 C2694 1.339 . S
C2691 H2711 0.930 . S
C2692 C2689 1.416 . S
C2692 C2694 1.416 . S
C2692 C2698 1.448 . S
C2693 N2690 1.334 . S
C2693 C2691 1.390 . S
C2693 H2704 0.930 . S
C2694 C2691 1.339 . S
C2694 C2692 1.416 . S
C2694 H2715 0.930 . S
C2695 C2696 1.413 . S
C2695 C2697 1.427 . S
C2695 C2701 1.416 . S
C2696 C2689 1.424 . S
C2696 C2695 1.413 . S
C2696 N2700 1.361 . S
C2697 C2695 1.427 . S
C2697 C2698 1.328 . S
C2697 H2712 0.929 . S
C2698 C2692 1.448 . S
C2698 C2697 1.328 . S
C2698 H2713 0.930 . S
Tb2699 N2690 2.617 . S
Tb2699 N2700 2.572 . S
Tb2699 O2734 2.349 . S
Tb2699 O2737 2.393 . S
Tb2699 O2738 2.465 . S
Tb2699 O2739 2.387 . S
Tb2699 O2741 2.428 . S
Tb2699 O2742 2.308 . S
Tb2699 C2763 2.802 . S
N2700 C2696 1.361 . S
N2700 Tb2699 2.572 . S
N2700 C2702 1.340 . S
C2701 C2695 1.416 . S
C2701 C2703 1.332 . S
C2701 H2709 0.931 . S
C2702 N2700 1.340 . S
C2702 C2703 1.407 . S
C2702 H2708 0.930 . S
C2703 C2701 1.332 . S
C2703 C2702 1.407 . S
C2703 H2705 0.929 . S
H2704 C2693 0.930 . S
H2705 C2703 0.929 . S
H2706 C2721 0.930 . S
H2707 C2728 0.929 . S
H2708 C2702 0.930 . S
H2709 C2701 0.931 . S
H2710 C2724 0.930 . S
H2711 C2691 0.930 . S
H2712 C2697 0.929 . S
H2713 C2698 0.930 . S
H2714 C2719 0.930 . S
H2715 C2694 0.930 . S
H2716 C2727 0.931 . S
N2717 Tb2688 2.617 . S
N2717 C2718 1.379 . S
N2717 C2721 1.334 . S
C2718 N2717 1.379 . S
C2718 C2720 1.416 . S
C2718 C2726 1.424 . S
C2719 H2714 0.930 . S
C2719 C2721 1.390 . S
C2719 C2722 1.339 . S
C2720 C2718 1.416 . S
C2720 C2722 1.416 . S
C2720 C2753 1.448 . S
C2721 H2706 0.930 . S
C2721 N2717 1.334 . S
C2721 C2719 1.390 . S
C2722 C2719 1.339 . S
C2722 C2720 1.416 . S
C2722 H2729 0.930 . S
N2723 Tb2688 2.572 . S
N2723 C2724 1.340 . S
N2723 C2726 1.361 . S
C2724 H2710 0.930 . S
C2724 N2723 1.340 . S
C2724 C2728 1.407 . S
C2725 C2726 1.413 . S
C2725 C2727 1.416 . S
C2725 C2754 1.427 . S
C2726 C2718 1.424 . S
C2726 N2723 1.361 . S
C2726 C2725 1.413 . S
C2727 H2716 0.931 . S
C2727 C2725 1.416 . S
C2727 C2728 1.332 . S
C2728 H2707 0.929 . S
C2728 C2724 1.407 . S
C2728 C2727 1.332 . S
H2729 C2722 0.930 . S
H2730 C2753 0.930 . S
H2731 C2754 0.929 . S
O2732 Tb2688 2.465 . S
O2732 C2752 1.264 . S
O2733 Tb2688 2.387 . S
O2733 C2744 1.264 . S
O2734 Tb2699 2.349 . S
O2734 C2744 1.243 . S
O2735 Tb2688 2.428 . S
O2735 C2752 1.256 . S
O2736 Tb2688 2.308 . S
O2736 C2751 1.266 . S
O2737 Tb2699 2.393 . S
O2737 C2751 1.248 . S
O2738 Tb2699 2.465 . S
O2738 C2763 1.264 . S
O2739 Tb2699 2.387 . S
O2739 C2755 1.264 . S
O2740 Tb2688 2.349 . S
O2740 C2755 1.243 . S
O2741 Tb2699 2.428 . S
O2741 C2763 1.256 . S
O2742 Tb2699 2.308 . S
O2742 C2762 1.266 . S
O2743 Tb2688 2.393 . S
O2743 C2762 1.248 . S
C2744 O2733 1.264 . S
C2744 O2734 1.243 . S
C2745 C2748 1.399 . S
C2745 C2750 1.383 . S
C2745 C2752 1.496 . S
C2746 C2747 1.399 . S
C2746 C2750 1.389 . S
C2747 C2746 1.399 . S
C2747 C2749 1.380 . S
C2747 H2764 0.929 . S
C2748 C2745 1.399 . S
C2748 C2749 1.392 . S
C2748 H2765 0.929 . S
C2749 C2747 1.380 . S
C2749 C2748 1.392 . S
C2749 H2766 0.929 . S
C2750 C2745 1.383 . S
C2750 C2746 1.389 . S
C2750 H2767 0.931 . S
C2751 O2736 1.266 . S
C2751 O2737 1.248 . S
C2752 Tb2688 2.802 . S
C2752 O2732 1.264 . S
C2752 O2735 1.256 . S
C2752 C2745 1.496 . S
C2753 C2720 1.448 . S
C2753 H2730 0.930 . S
C2753 C2754 1.328 . S
C2754 C2725 1.427 . S
C2754 H2731 0.929 . S
C2754 C2753 1.328 . S
C2755 O2739 1.264 . S
C2755 O2740 1.243 . S
C2756 C2759 1.399 . S
C2756 C2760 1.383 . S
C2756 C2763 1.496 . S
C2757 C2758 1.399 . S
C2757 C2760 1.389 . S
C2758 C2757 1.399 . S
C2758 C2761 1.380 . S
C2758 H2768 0.929 . S
C2759 C2756 1.399 . S
C2759 C2761 1.392 . S
C2759 H2769 0.929 . S
C2760 C2756 1.383 . S
C2760 C2757 1.389 . S
C2760 H2770 0.931 . S
C2761 C2758 1.380 . S
C2761 C2759 1.392 . S
C2761 H2771 0.929 . S
C2762 O2742 1.266 . S
C2762 O2743 1.248 . S
C2763 Tb2699 2.802 . S
C2763 O2738 1.264 . S
C2763 O2741 1.256 . S
C2763 C2756 1.496 . S
H2764 C2747 0.929 . S
H2765 C2748 0.929 . S
H2766 C2749 0.929 . S
H2767 C2750 0.931 . S
H2768 C2758 0.929 . S
H2769 C2759 0.929 . S
H2770 C2760 0.931 . S
H2771 C2761 0.929 . S
Tb2772 N2801 2.617 1_556 S
Tb2772 N2807 2.572 . S
Tb2772 O2816 2.465 1_556 S
Tb2772 O2817 2.387 . S
Tb2772 O2819 2.428 1_556 S
Tb2772 O2820 2.308 . S
Tb2772 O2824 2.331 1_556 S
Tb2772 O2827 2.391 . S
Tb2772 C2836 2.802 1_556 S
C2773 N2774 1.379 . S
C2773 C2776 1.416 . S
C2773 C2780 1.424 . S
N2774 C2773 1.379 . S
N2774 C2777 1.334 . S
N2774 Tb2783 2.617 . S
C2775 C2777 1.390 . S
C2775 C2778 1.339 . S
C2775 H2795 0.930 . S
C2776 C2773 1.416 . S
C2776 C2778 1.416 . S
C2776 C2782 1.448 . S
C2777 N2774 1.334 . S
C2777 C2775 1.390 . S
C2777 H2788 0.930 . S
C2778 C2775 1.339 . S
C2778 C2776 1.416 . S
C2778 H2799 0.930 . S
C2779 C2780 1.413 . S
C2779 C2781 1.427 . S
C2779 C2785 1.416 . S
C2780 C2773 1.424 . S
C2780 C2779 1.413 . S
C2780 N2784 1.361 . S
C2781 C2779 1.427 . S
C2781 C2782 1.328 . S
C2781 H2796 0.929 . S
C2782 C2776 1.448 . S
C2782 C2781 1.328 . S
C2782 H2797 0.930 . S
Tb2783 N2774 2.617 . S
Tb2783 N2784 2.572 . S
Tb2783 O2818 2.349 . S
Tb2783 O2821 2.393 . S
Tb2783 O2822 2.465 . S
Tb2783 O2823 2.387 . S
Tb2783 O2825 2.428 . S
Tb2783 O2826 2.308 . S
Tb2783 C2847 2.802 . S
N2784 C2780 1.361 . S
N2784 Tb2783 2.572 . S
N2784 C2786 1.340 . S
C2785 C2779 1.416 . S
C2785 C2787 1.332 . S
C2785 H2793 0.931 . S
C2786 N2784 1.340 . S
C2786 C2787 1.407 . S
C2786 H2792 0.930 . S
C2787 C2785 1.332 . S
C2787 C2786 1.407 . S
C2787 H2789 0.929 . S
H2788 C2777 0.930 . S
H2789 C2787 0.929 . S
H2790 C2805 0.930 . S
H2791 C2812 0.929 . S
H2792 C2786 0.930 . S
H2793 C2785 0.931 . S
H2794 C2808 0.930 . S
H2795 C2775 0.930 . S
H2796 C2781 0.929 . S
H2797 C2782 0.930 . S
H2798 C2803 0.930 . S
H2799 C2778 0.930 . S
H2800 C2811 0.931 . S
N2801 Tb2772 2.617 1_554 S
N2801 C2802 1.379 1_554 S
N2801 C2805 1.334 . S
C2802 N2801 1.379 1_556 S
C2802 C2804 1.416 1_556 S
C2802 C2810 1.424 . S
C2803 H2798 0.930 . S
C2803 C2805 1.390 . S
C2803 C2806 1.339 . S
C2804 C2802 1.416 1_554 S
C2804 C2806 1.416 . S
C2804 C2837 1.448 1_554 S
C2805 H2790 0.930 . S
C2805 N2801 1.334 . S
C2805 C2803 1.390 . S
C2806 C2803 1.339 . S
C2806 C2804 1.416 . S
C2806 H2813 0.930 . S
N2807 Tb2772 2.572 . S
N2807 C2808 1.340 . S
N2807 C2810 1.361 . S
C2808 H2794 0.930 . S
C2808 N2807 1.340 . S
C2808 C2812 1.407 . S
C2809 C2810 1.413 . S
C2809 C2811 1.416 . S
C2809 C2838 1.427 . S
C2810 C2802 1.424 . S
C2810 N2807 1.361 . S
C2810 C2809 1.413 . S
C2811 H2800 0.931 . S
C2811 C2809 1.416 . S
C2811 C2812 1.332 . S
C2812 H2791 0.929 . S
C2812 C2808 1.407 . S
C2812 C2811 1.332 . S
H2813 C2806 0.930 . S
H2814 C2837 0.930 . S
H2815 C2838 0.929 . S
O2816 Tb2772 2.465 1_554 S
O2816 C2836 1.264 . S
O2817 Tb2772 2.387 . S
O2817 C2828 1.264 . S
O2818 Tb2783 2.349 . S
O2818 C2828 1.243 . S
O2819 Tb2772 2.428 1_554 S
O2819 C2836 1.256 . S
O2820 Tb2772 2.308 . S
O2820 C2835 1.266 . S
O2821 Tb2783 2.393 . S
O2821 C2835 1.248 . S
O2822 Tb2783 2.465 . S
O2822 C2847 1.264 . S
O2823 Tb2783 2.387 . S
O2823 C2839 1.264 . S
O2824 Tb2772 2.331 1_554 S
O2824 C2839 1.220 1_554 S
O2825 Tb2783 2.428 . S
O2825 C2847 1.256 . S
O2826 Tb2783 2.308 . S
O2826 C2846 1.266 . S
O2827 Tb2772 2.391 . S
O2827 C2846 1.244 . S
C2828 O2817 1.264 . S
C2828 O2818 1.243 . S
C2829 C2832 1.399 . S
C2829 C2834 1.383 . S
C2829 C2836 1.496 . S
C2830 C2831 1.399 . S
C2830 C2834 1.389 . S
C2831 C2830 1.399 . S
C2831 C2833 1.380 . S
C2831 H2848 0.929 . S
C2832 C2829 1.399 . S
C2832 C2833 1.392 . S
C2832 H2849 0.929 . S
C2833 C2831 1.380 . S
C2833 C2832 1.392 . S
C2833 H2850 0.929 . S
C2834 C2829 1.383 . S
C2834 C2830 1.389 . S
C2834 H2851 0.931 . S
C2835 O2820 1.266 . S
C2835 O2821 1.248 . S
C2836 Tb2772 2.802 1_554 S
C2836 O2816 1.264 . S
C2836 O2819 1.256 . S
C2836 C2829 1.496 . S
C2837 C2804 1.448 1_556 S
C2837 H2814 0.930 . S
C2837 C2838 1.328 . S
C2838 C2809 1.427 . S
C2838 H2815 0.929 . S
C2838 C2837 1.328 . S
C2839 O2823 1.264 . S
C2839 O2824 1.220 1_556 S
C2840 C2843 1.399 . S
C2840 C2844 1.383 . S
C2840 C2847 1.496 . S
C2841 C2842 1.399 . S
C2841 C2844 1.389 . S
C2842 C2841 1.399 . S
C2842 C2845 1.380 . S
C2842 H2852 0.929 . S
C2843 C2840 1.399 . S
C2843 C2845 1.392 . S
C2843 H2853 0.929 . S
C2844 C2840 1.383 . S
C2844 C2841 1.389 . S
C2844 H2854 0.931 . S
C2845 C2842 1.380 . S
C2845 C2843 1.392 . S
C2845 H2855 0.929 . S
C2846 O2826 1.266 . S
C2846 O2827 1.244 . S
C2847 Tb2783 2.802 . S
C2847 O2822 1.264 . S
C2847 O2825 1.256 . S
C2847 C2840 1.496 . S
H2848 C2831 0.929 . S
H2849 C2832 0.929 . S
H2850 C2833 0.929 . S
H2851 C2834 0.931 . S
H2852 C2842 0.929 . S
H2853 C2843 0.929 . S
H2854 C2844 0.931 . S
H2855 C2845 0.929 . S
Tb2856 N2885 2.617 . S
Tb2856 N2891 2.572 . S
Tb2856 O2900 2.465 . S
Tb2856 O2901 2.387 . S
Tb2856 O2903 2.428 . S
Tb2856 O2904 2.308 . S
Tb2856 O2908 2.349 . S
Tb2856 O2911 2.393 . S
Tb2856 C2920 2.802 . S
C2857 N2858 1.379 . S
C2857 C2860 1.416 . S
C2857 C2864 1.424 . S
N2858 C2857 1.379 . S
N2858 C2861 1.334 . S
N2858 Tb2867 2.617 . S
C2859 C2861 1.390 . S
C2859 C2862 1.339 . S
C2859 H2879 0.930 . S
C2860 C2857 1.416 . S
C2860 C2862 1.416 . S
C2860 C2866 1.448 . S
C2861 N2858 1.334 . S
C2861 C2859 1.390 . S
C2861 H2872 0.930 . S
C2862 C2859 1.339 . S
C2862 C2860 1.416 . S
C2862 H2883 0.930 . S
C2863 C2864 1.413 . S
C2863 C2865 1.427 . S
C2863 C2869 1.416 . S
C2864 C2857 1.424 . S
C2864 C2863 1.413 . S
C2864 N2868 1.361 . S
C2865 C2863 1.427 . S
C2865 C2866 1.328 . S
C2865 H2880 0.929 . S
C2866 C2860 1.448 . S
C2866 C2865 1.328 . S
C2866 H2881 0.930 . S
Tb2867 N2858 2.617 . S
Tb2867 N2868 2.572 . S
Tb2867 O2902 2.349 . S
Tb2867 O2905 2.393 . S
Tb2867 O2906 2.465 . S
Tb2867 O2907 2.387 . S
Tb2867 O2909 2.428 . S
Tb2867 O2910 2.308 . S
Tb2867 C2931 2.802 . S
N2868 C2864 1.361 . S
N2868 Tb2867 2.572 . S
N2868 C2870 1.340 . S
C2869 C2863 1.416 . S
C2869 C2871 1.332 . S
C2869 H2877 0.931 . S
C2870 N2868 1.340 . S
C2870 C2871 1.407 . S
C2870 H2876 0.930 . S
C2871 C2869 1.332 . S
C2871 C2870 1.407 . S
C2871 H2873 0.929 . S
H2872 C2861 0.930 . S
H2873 C2871 0.929 . S
H2874 C2889 0.930 . S
H2875 C2896 0.929 . S
H2876 C2870 0.930 . S
H2877 C2869 0.931 . S
H2878 C2892 0.930 . S
H2879 C2859 0.930 . S
H2880 C2865 0.929 . S
H2881 C2866 0.930 . S
H2882 C2887 0.930 . S
H2883 C2862 0.930 . S
H2884 C2895 0.931 . S
N2885 Tb2856 2.617 . S
N2885 C2886 1.379 . S
N2885 C2889 1.334 . S
C2886 N2885 1.379 . S
C2886 C2888 1.416 . S
C2886 C2894 1.424 . S
C2887 H2882 0.930 . S
C2887 C2889 1.390 . S
C2887 C2890 1.339 . S
C2888 C2886 1.416 . S
C2888 C2890 1.416 . S
C2888 C2921 1.448 . S
C2889 H2874 0.930 . S
C2889 N2885 1.334 . S
C2889 C2887 1.390 . S
C2890 C2887 1.339 . S
C2890 C2888 1.416 . S
C2890 H2897 0.930 . S
N2891 Tb2856 2.572 . S
N2891 C2892 1.340 . S
N2891 C2894 1.361 . S
C2892 H2878 0.930 . S
C2892 N2891 1.340 . S
C2892 C2896 1.407 . S
C2893 C2894 1.413 . S
C2893 C2895 1.416 . S
C2893 C2922 1.427 . S
C2894 C2886 1.424 . S
C2894 N2891 1.361 . S
C2894 C2893 1.413 . S
C2895 H2884 0.931 . S
C2895 C2893 1.416 . S
C2895 C2896 1.332 . S
C2896 H2875 0.929 . S
C2896 C2892 1.407 . S
C2896 C2895 1.332 . S
H2897 C2890 0.930 . S
H2898 C2921 0.930 . S
H2899 C2922 0.929 . S
O2900 Tb2856 2.465 . S
O2900 C2920 1.264 . S
O2901 Tb2856 2.387 . S
O2901 C2912 1.264 . S
O2902 Tb2867 2.349 . S
O2902 C2912 1.243 . S
O2903 Tb2856 2.428 . S
O2903 C2920 1.256 . S
O2904 Tb2856 2.308 . S
O2904 C2919 1.266 . S
O2905 Tb2867 2.393 . S
O2905 C2919 1.248 . S
O2906 Tb2867 2.465 . S
O2906 C2931 1.264 . S
O2907 Tb2867 2.387 . S
O2907 C2923 1.264 . S
O2908 Tb2856 2.349 . S
O2908 C2923 1.243 . S
O2909 Tb2867 2.428 . S
O2909 C2931 1.256 . S
O2910 Tb2867 2.308 . S
O2910 C2930 1.266 . S
O2911 Tb2856 2.393 . S
O2911 C2930 1.248 . S
C2912 O2901 1.264 . S
C2912 O2902 1.243 . S
C2913 C2916 1.399 . S
C2913 C2918 1.383 . S
C2913 C2920 1.496 . S
C2914 C2915 1.399 . S
C2914 C2918 1.389 . S
C2915 C2914 1.399 . S
C2915 C2917 1.380 . S
C2915 H2932 0.929 . S
C2916 C2913 1.399 . S
C2916 C2917 1.392 . S
C2916 H2933 0.929 . S
C2917 C2915 1.380 . S
C2917 C2916 1.392 . S
C2917 H2934 0.929 . S
C2918 C2913 1.383 . S
C2918 C2914 1.389 . S
C2918 H2935 0.931 . S
C2919 O2904 1.266 . S
C2919 O2905 1.248 . S
C2920 Tb2856 2.802 . S
C2920 O2900 1.264 . S
C2920 O2903 1.256 . S
C2920 C2913 1.496 . S
C2921 C2888 1.448 . S
C2921 H2898 0.930 . S
C2921 C2922 1.328 . S
C2922 C2893 1.427 . S
C2922 H2899 0.929 . S
C2922 C2921 1.328 . S
C2923 O2907 1.264 . S
C2923 O2908 1.243 . S
C2924 C2927 1.399 . S
C2924 C2928 1.383 . S
C2924 C2931 1.496 . S
C2925 C2926 1.399 . S
C2925 C2928 1.389 . S
C2926 C2925 1.399 . S
C2926 C2929 1.380 . S
C2926 H2936 0.929 . S
C2927 C2924 1.399 . S
C2927 C2929 1.392 . S
C2927 H2937 0.929 . S
C2928 C2924 1.383 . S
C2928 C2925 1.389 . S
C2928 H2938 0.931 . S
C2929 C2926 1.380 . S
C2929 C2927 1.392 . S
C2929 H2939 0.929 . S
C2930 O2910 1.266 . S
C2930 O2911 1.248 . S
C2931 Tb2867 2.802 . S
C2931 O2906 1.264 . S
C2931 O2909 1.256 . S
C2931 C2924 1.496 . S
H2932 C2915 0.929 . S
H2933 C2916 0.929 . S
H2934 C2917 0.929 . S
H2935 C2918 0.931 . S
H2936 C2926 0.929 . S
H2937 C2927 0.929 . S
H2938 C2928 0.931 . S
H2939 C2929 0.929 . S
Tb2940 N2969 2.617 . S
Tb2940 N2975 2.572 . S
Tb2940 O2984 2.465 . S
Tb2940 O2985 2.387 . S
Tb2940 O2987 2.428 . S
Tb2940 O2988 2.308 . S
Tb2940 O2992 2.349 . S
Tb2940 O2995 2.393 . S
Tb2940 C3004 2.802 . S
C2941 N2942 1.379 . S
C2941 C2944 1.416 . S
C2941 C2948 1.424 . S
N2942 C2941 1.379 . S
N2942 C2945 1.334 . S
N2942 Tb2951 2.617 . S
C2943 C2945 1.390 . S
C2943 C2946 1.339 . S
C2943 H2963 0.930 . S
C2944 C2941 1.416 . S
C2944 C2946 1.416 . S
C2944 C2950 1.448 . S
C2945 N2942 1.334 . S
C2945 C2943 1.390 . S
C2945 H2956 0.930 . S
C2946 C2943 1.339 . S
C2946 C2944 1.416 . S
C2946 H2967 0.930 . S
C2947 C2948 1.413 . S
C2947 C2949 1.427 . S
C2947 C2953 1.416 . S
C2948 C2941 1.424 . S
C2948 C2947 1.413 . S
C2948 N2952 1.361 . S
C2949 C2947 1.427 . S
C2949 C2950 1.328 . S
C2949 H2964 0.929 . S
C2950 C2944 1.448 . S
C2950 C2949 1.328 . S
C2950 H2965 0.930 . S
Tb2951 N2942 2.617 . S
Tb2951 N2952 2.572 . S
Tb2951 O2986 2.349 . S
Tb2951 O2989 2.393 . S
Tb2951 O2990 2.465 . S
Tb2951 O2991 2.387 . S
Tb2951 O2993 2.428 . S
Tb2951 O2994 2.308 . S
Tb2951 C3015 2.802 . S
N2952 C2948 1.361 . S
N2952 Tb2951 2.572 . S
N2952 C2954 1.340 . S
C2953 C2947 1.416 . S
C2953 C2955 1.332 . S
C2953 H2961 0.931 . S
C2954 N2952 1.340 . S
C2954 C2955 1.407 . S
C2954 H2960 0.930 . S
C2955 C2953 1.332 . S
C2955 C2954 1.407 . S
C2955 H2957 0.929 . S
H2956 C2945 0.930 . S
H2957 C2955 0.929 . S
H2958 C2973 0.930 . S
H2959 C2980 0.929 . S
H2960 C2954 0.930 . S
H2961 C2953 0.931 . S
H2962 C2976 0.930 . S
H2963 C2943 0.930 . S
H2964 C2949 0.929 . S
H2965 C2950 0.930 . S
H2966 C2971 0.930 . S
H2967 C2946 0.930 . S
H2968 C2979 0.931 . S
N2969 Tb2940 2.617 . S
N2969 C2970 1.379 . S
N2969 C2973 1.334 . S
C2970 N2969 1.379 . S
C2970 C2972 1.416 . S
C2970 C2978 1.424 . S
C2971 H2966 0.930 . S
C2971 C2973 1.390 . S
C2971 C2974 1.339 . S
C2972 C2970 1.416 . S
C2972 C2974 1.416 . S
C2972 C3005 1.448 . S
C2973 H2958 0.930 . S
C2973 N2969 1.334 . S
C2973 C2971 1.390 . S
C2974 C2971 1.339 . S
C2974 C2972 1.416 . S
C2974 H2981 0.930 . S
N2975 Tb2940 2.572 . S
N2975 C2976 1.340 . S
N2975 C2978 1.361 . S
C2976 H2962 0.930 . S
C2976 N2975 1.340 . S
C2976 C2980 1.407 . S
C2977 C2978 1.413 . S
C2977 C2979 1.416 . S
C2977 C3006 1.427 . S
C2978 C2970 1.424 . S
C2978 N2975 1.361 . S
C2978 C2977 1.413 . S
C2979 H2968 0.931 . S
C2979 C2977 1.416 . S
C2979 C2980 1.332 . S
C2980 H2959 0.929 . S
C2980 C2976 1.407 . S
C2980 C2979 1.332 . S
H2981 C2974 0.930 . S
H2982 C3005 0.930 . S
H2983 C3006 0.929 . S
O2984 Tb2940 2.465 . S
O2984 C3004 1.264 . S
O2985 Tb2940 2.387 . S
O2985 C2996 1.264 . S
O2986 Tb2951 2.349 . S
O2986 C2996 1.243 . S
O2987 Tb2940 2.428 . S
O2987 C3004 1.256 . S
O2988 Tb2940 2.308 . S
O2988 C3003 1.266 . S
O2989 Tb2951 2.393 . S
O2989 C3003 1.248 . S
O2990 Tb2951 2.465 . S
O2990 C3015 1.264 . S
O2991 Tb2951 2.387 . S
O2991 C3007 1.264 . S
O2992 Tb2940 2.349 . S
O2992 C3007 1.243 . S
O2993 Tb2951 2.428 . S
O2993 C3015 1.256 . S
O2994 Tb2951 2.308 . S
O2994 C3014 1.266 . S
O2995 Tb2940 2.393 . S
O2995 C3014 1.248 . S
C2996 O2985 1.264 . S
C2996 O2986 1.243 . S
C2997 C3000 1.399 . S
C2997 C3002 1.383 . S
C2997 C3004 1.496 . S
C2998 C2999 1.399 . S
C2998 C3002 1.389 . S
C2999 C2998 1.399 . S
C2999 C3001 1.380 . S
C2999 H3016 0.929 . S
C3000 C2997 1.399 . S
C3000 C3001 1.392 . S
C3000 H3017 0.929 . S
C3001 C2999 1.380 . S
C3001 C3000 1.392 . S
C3001 H3018 0.929 . S
C3002 C2997 1.383 . S
C3002 C2998 1.389 . S
C3002 H3019 0.931 . S
C3003 O2988 1.266 . S
C3003 O2989 1.248 . S
C3004 Tb2940 2.802 . S
C3004 O2984 1.264 . S
C3004 O2987 1.256 . S
C3004 C2997 1.496 . S
C3005 C2972 1.448 . S
C3005 H2982 0.930 . S
C3005 C3006 1.328 . S
C3006 C2977 1.427 . S
C3006 H2983 0.929 . S
C3006 C3005 1.328 . S
C3007 O2991 1.264 . S
C3007 O2992 1.243 . S
C3008 C3011 1.399 . S
C3008 C3012 1.383 . S
C3008 C3015 1.496 . S
C3009 C3010 1.399 . S
C3009 C3012 1.389 . S
C3010 C3009 1.399 . S
C3010 C3013 1.380 . S
C3010 H3020 0.929 . S
C3011 C3008 1.399 . S
C3011 C3013 1.392 . S
C3011 H3021 0.929 . S
C3012 C3008 1.383 . S
C3012 C3009 1.389 . S
C3012 H3022 0.931 . S
C3013 C3010 1.380 . S
C3013 C3011 1.392 . S
C3013 H3023 0.929 . S
C3014 O2994 1.266 . S
C3014 O2995 1.248 . S
C3015 Tb2951 2.802 . S
C3015 O2990 1.264 . S
C3015 O2993 1.256 . S
C3015 C3008 1.496 . S
H3016 C2999 0.929 . S
H3017 C3000 0.929 . S
H3018 C3001 0.929 . S
H3019 C3002 0.931 . S
H3020 C3010 0.929 . S
H3021 C3011 0.929 . S
H3022 C3012 0.931 . S
H3023 C3013 0.929 . S
Tb3024 N3053 2.617 . S
Tb3024 N3059 2.572 . S
Tb3024 O3068 2.465 . S
Tb3024 O3069 2.387 . S
Tb3024 O3071 2.428 . S
Tb3024 O3072 2.308 . S
Tb3024 O3076 2.349 . S
Tb3024 O3079 2.393 . S
Tb3024 C3088 2.802 . S
C3025 N3026 1.379 . S
C3025 C3028 1.416 . S
C3025 C3032 1.424 . S
N3026 C3025 1.379 . S
N3026 C3029 1.334 . S
N3026 Tb3035 2.617 . S
C3027 C3029 1.390 . S
C3027 C3030 1.339 . S
C3027 H3047 0.930 . S
C3028 C3025 1.416 . S
C3028 C3030 1.416 . S
C3028 C3034 1.448 . S
C3029 N3026 1.334 . S
C3029 C3027 1.390 . S
C3029 H3040 0.930 . S
C3030 C3027 1.339 . S
C3030 C3028 1.416 . S
C3030 H3051 0.930 . S
C3031 C3032 1.413 . S
C3031 C3033 1.427 . S
C3031 C3037 1.416 . S
C3032 C3025 1.424 . S
C3032 C3031 1.413 . S
C3032 N3036 1.361 . S
C3033 C3031 1.427 . S
C3033 C3034 1.328 . S
C3033 H3048 0.929 . S
C3034 C3028 1.448 . S
C3034 C3033 1.328 . S
C3034 H3049 0.930 . S
Tb3035 N3026 2.617 . S
Tb3035 N3036 2.572 . S
Tb3035 O3070 2.349 . S
Tb3035 O3073 2.393 . S
Tb3035 O3074 2.465 . S
Tb3035 O3075 2.387 . S
Tb3035 O3077 2.428 . S
Tb3035 O3078 2.308 . S
Tb3035 C3099 2.802 . S
N3036 C3032 1.361 . S
N3036 Tb3035 2.572 . S
N3036 C3038 1.340 . S
C3037 C3031 1.416 . S
C3037 C3039 1.332 . S
C3037 H3045 0.931 . S
C3038 N3036 1.340 . S
C3038 C3039 1.407 . S
C3038 H3044 0.930 . S
C3039 C3037 1.332 . S
C3039 C3038 1.407 . S
C3039 H3041 0.929 . S
H3040 C3029 0.930 . S
H3041 C3039 0.929 . S
H3042 C3057 0.930 . S
H3043 C3064 0.929 . S
H3044 C3038 0.930 . S
H3045 C3037 0.931 . S
H3046 C3060 0.930 . S
H3047 C3027 0.930 . S
H3048 C3033 0.929 . S
H3049 C3034 0.930 . S
H3050 C3055 0.930 . S
H3051 C3030 0.930 . S
H3052 C3063 0.931 . S
N3053 Tb3024 2.617 . S
N3053 C3054 1.379 . S
N3053 C3057 1.334 . S
C3054 N3053 1.379 . S
C3054 C3056 1.416 . S
C3054 C3062 1.424 . S
C3055 H3050 0.930 . S
C3055 C3057 1.390 . S
C3055 C3058 1.339 . S
C3056 C3054 1.416 . S
C3056 C3058 1.416 . S
C3056 C3089 1.448 . S
C3057 H3042 0.930 . S
C3057 N3053 1.334 . S
C3057 C3055 1.390 . S
C3058 C3055 1.339 . S
C3058 C3056 1.416 . S
C3058 H3065 0.930 . S
N3059 Tb3024 2.572 . S
N3059 C3060 1.340 . S
N3059 C3062 1.361 . S
C3060 H3046 0.930 . S
C3060 N3059 1.340 . S
C3060 C3064 1.407 . S
C3061 C3062 1.413 . S
C3061 C3063 1.416 . S
C3061 C3090 1.427 . S
C3062 C3054 1.424 . S
C3062 N3059 1.361 . S
C3062 C3061 1.413 . S
C3063 H3052 0.931 . S
C3063 C3061 1.416 . S
C3063 C3064 1.332 . S
C3064 H3043 0.929 . S
C3064 C3060 1.407 . S
C3064 C3063 1.332 . S
H3065 C3058 0.930 . S
H3066 C3089 0.930 . S
H3067 C3090 0.929 . S
O3068 Tb3024 2.465 . S
O3068 C3088 1.264 . S
O3069 Tb3024 2.387 . S
O3069 C3080 1.264 . S
O3070 Tb3035 2.349 . S
O3070 C3080 1.243 . S
O3071 Tb3024 2.428 . S
O3071 C3088 1.256 . S
O3072 Tb3024 2.308 . S
O3072 C3087 1.266 . S
O3073 Tb3035 2.393 . S
O3073 C3087 1.248 . S
O3074 Tb3035 2.465 . S
O3074 C3099 1.264 . S
O3075 Tb3035 2.387 . S
O3075 C3091 1.264 . S
O3076 Tb3024 2.349 . S
O3076 C3091 1.243 . S
O3077 Tb3035 2.428 . S
O3077 C3099 1.256 . S
O3078 Tb3035 2.308 . S
O3078 C3098 1.266 . S
O3079 Tb3024 2.393 . S
O3079 C3098 1.248 . S
C3080 O3069 1.264 . S
C3080 O3070 1.243 . S
C3081 C3084 1.399 . S
C3081 C3086 1.383 . S
C3081 C3088 1.496 . S
C3082 C3083 1.399 . S
C3082 C3086 1.389 . S
C3083 C3082 1.399 . S
C3083 C3085 1.380 . S
C3083 H3100 0.929 . S
C3084 C3081 1.399 . S
C3084 C3085 1.392 . S
C3084 H3101 0.929 . S
C3085 C3083 1.380 . S
C3085 C3084 1.392 . S
C3085 H3102 0.929 . S
C3086 C3081 1.383 . S
C3086 C3082 1.389 . S
C3086 H3103 0.931 . S
C3087 O3072 1.266 . S
C3087 O3073 1.248 . S
C3088 Tb3024 2.802 . S
C3088 O3068 1.264 . S
C3088 O3071 1.256 . S
C3088 C3081 1.496 . S
C3089 C3056 1.448 . S
C3089 H3066 0.930 . S
C3089 C3090 1.328 . S
C3090 C3061 1.427 . S
C3090 H3067 0.929 . S
C3090 C3089 1.328 . S
C3091 O3075 1.264 . S
C3091 O3076 1.243 . S
C3092 C3095 1.399 . S
C3092 C3096 1.383 . S
C3092 C3099 1.496 . S
C3093 C3094 1.399 . S
C3093 C3096 1.389 . S
C3094 C3093 1.399 . S
C3094 C3097 1.380 . S
C3094 H3104 0.929 . S
C3095 C3092 1.399 . S
C3095 C3097 1.392 . S
C3095 H3105 0.929 . S
C3096 C3092 1.383 . S
C3096 C3093 1.389 . S
C3096 H3106 0.931 . S
C3097 C3094 1.380 . S
C3097 C3095 1.392 . S
C3097 H3107 0.929 . S
C3098 O3078 1.266 . S
C3098 O3079 1.248 . S
C3099 Tb3035 2.802 . S
C3099 O3074 1.264 . S
C3099 O3077 1.256 . S
C3099 C3092 1.496 . S
H3100 C3083 0.929 . S
H3101 C3084 0.929 . S
H3102 C3085 0.929 . S
H3103 C3086 0.931 . S
H3104 C3094 0.929 . S
H3105 C3095 0.929 . S
H3106 C3096 0.931 . S
H3107 C3097 0.929 . S
Tb3108 N3137 2.617 . S
Tb3108 N3143 2.572 . S
Tb3108 O3152 2.465 . S
Tb3108 O3153 2.387 . S
Tb3108 O3155 2.428 . S
Tb3108 O3156 2.308 . S
Tb3108 O3160 2.349 . S
Tb3108 O3163 2.393 . S
Tb3108 C3172 2.802 . S
C3109 N3110 1.379 . S
C3109 C3112 1.416 . S
C3109 C3116 1.424 . S
N3110 C3109 1.379 . S
N3110 C3113 1.334 . S
N3110 Tb3119 2.617 . S
C3111 C3113 1.390 . S
C3111 C3114 1.339 . S
C3111 H3131 0.930 . S
C3112 C3109 1.416 . S
C3112 C3114 1.416 . S
C3112 C3118 1.448 . S
C3113 N3110 1.334 . S
C3113 C3111 1.390 . S
C3113 H3124 0.930 . S
C3114 C3111 1.339 . S
C3114 C3112 1.416 . S
C3114 H3135 0.930 . S
C3115 C3116 1.413 . S
C3115 C3117 1.427 . S
C3115 C3121 1.416 . S
C3116 C3109 1.424 . S
C3116 C3115 1.413 . S
C3116 N3120 1.361 . S
C3117 C3115 1.427 . S
C3117 C3118 1.328 . S
C3117 H3132 0.929 . S
C3118 C3112 1.448 . S
C3118 C3117 1.328 . S
C3118 H3133 0.930 . S
Tb3119 N3110 2.617 . S
Tb3119 N3120 2.572 . S
Tb3119 O3154 2.349 . S
Tb3119 O3157 2.393 . S
Tb3119 O3158 2.465 . S
Tb3119 O3159 2.387 . S
Tb3119 O3161 2.428 . S
Tb3119 O3162 2.308 . S
Tb3119 C3183 2.802 . S
N3120 C3116 1.361 . S
N3120 Tb3119 2.572 . S
N3120 C3122 1.340 . S
C3121 C3115 1.416 . S
C3121 C3123 1.332 . S
C3121 H3129 0.931 . S
C3122 N3120 1.340 . S
C3122 C3123 1.407 . S
C3122 H3128 0.930 . S
C3123 C3121 1.332 . S
C3123 C3122 1.407 . S
C3123 H3125 0.929 . S
H3124 C3113 0.930 . S
H3125 C3123 0.929 . S
H3126 C3141 0.930 . S
H3127 C3148 0.929 . S
H3128 C3122 0.930 . S
H3129 C3121 0.931 . S
H3130 C3144 0.930 . S
H3131 C3111 0.930 . S
H3132 C3117 0.929 . S
H3133 C3118 0.930 . S
H3134 C3139 0.930 . S
H3135 C3114 0.930 . S
H3136 C3147 0.931 . S
N3137 Tb3108 2.617 . S
N3137 C3138 1.379 . S
N3137 C3141 1.334 . S
C3138 N3137 1.379 . S
C3138 C3140 1.416 . S
C3138 C3146 1.424 . S
C3139 H3134 0.930 . S
C3139 C3141 1.390 . S
C3139 C3142 1.339 . S
C3140 C3138 1.416 . S
C3140 C3142 1.416 . S
C3140 C3173 1.448 . S
C3141 H3126 0.930 . S
C3141 N3137 1.334 . S
C3141 C3139 1.390 . S
C3142 C3139 1.339 . S
C3142 C3140 1.416 . S
C3142 H3149 0.930 . S
N3143 Tb3108 2.572 . S
N3143 C3144 1.340 . S
N3143 C3146 1.361 . S
C3144 H3130 0.930 . S
C3144 N3143 1.340 . S
C3144 C3148 1.407 . S
C3145 C3146 1.413 . S
C3145 C3147 1.416 . S
C3145 C3174 1.427 . S
C3146 C3138 1.424 . S
C3146 N3143 1.361 . S
C3146 C3145 1.413 . S
C3147 H3136 0.931 . S
C3147 C3145 1.416 . S
C3147 C3148 1.332 . S
C3148 H3127 0.929 . S
C3148 C3144 1.407 . S
C3148 C3147 1.332 . S
H3149 C3142 0.930 . S
H3150 C3173 0.930 . S
H3151 C3174 0.929 . S
O3152 Tb3108 2.465 . S
O3152 C3172 1.264 . S
O3153 Tb3108 2.387 . S
O3153 C3164 1.264 . S
O3154 Tb3119 2.349 . S
O3154 C3164 1.243 . S
O3155 Tb3108 2.428 . S
O3155 C3172 1.256 . S
O3156 Tb3108 2.308 . S
O3156 C3171 1.266 . S
O3157 Tb3119 2.393 . S
O3157 C3171 1.248 . S
O3158 Tb3119 2.465 . S
O3158 C3183 1.264 . S
O3159 Tb3119 2.387 . S
O3159 C3175 1.264 . S
O3160 Tb3108 2.349 . S
O3160 C3175 1.243 . S
O3161 Tb3119 2.428 . S
O3161 C3183 1.256 . S
O3162 Tb3119 2.308 . S
O3162 C3182 1.266 . S
O3163 Tb3108 2.393 . S
O3163 C3182 1.248 . S
C3164 O3153 1.264 . S
C3164 O3154 1.243 . S
C3165 C3168 1.399 . S
C3165 C3170 1.383 . S
C3165 C3172 1.496 . S
C3166 C3167 1.399 . S
C3166 C3170 1.389 . S
C3167 C3166 1.399 . S
C3167 C3169 1.380 . S
C3167 H3184 0.929 . S
C3168 C3165 1.399 . S
C3168 C3169 1.392 . S
C3168 H3185 0.929 . S
C3169 C3167 1.380 . S
C3169 C3168 1.392 . S
C3169 H3186 0.929 . S
C3170 C3165 1.383 . S
C3170 C3166 1.389 . S
C3170 H3187 0.931 . S
C3171 O3156 1.266 . S
C3171 O3157 1.248 . S
C3172 Tb3108 2.802 . S
C3172 O3152 1.264 . S
C3172 O3155 1.256 . S
C3172 C3165 1.496 . S
C3173 C3140 1.448 . S
C3173 H3150 0.930 . S
C3173 C3174 1.328 . S
C3174 C3145 1.427 . S
C3174 H3151 0.929 . S
C3174 C3173 1.328 . S
C3175 O3159 1.264 . S
C3175 O3160 1.243 . S
C3176 C3179 1.399 . S
C3176 C3180 1.383 . S
C3176 C3183 1.496 . S
C3177 C3178 1.399 . S
C3177 C3180 1.389 . S
C3178 C3177 1.399 . S
C3178 C3181 1.380 . S
C3178 H3188 0.929 . S
C3179 C3176 1.399 . S
C3179 C3181 1.392 . S
C3179 H3189 0.929 . S
C3180 C3176 1.383 . S
C3180 C3177 1.389 . S
C3180 H3190 0.931 . S
C3181 C3178 1.380 . S
C3181 C3179 1.392 . S
C3181 H3191 0.929 . S
C3182 O3162 1.266 . S
C3182 O3163 1.248 . S
C3183 Tb3119 2.802 . S
C3183 O3158 1.264 . S
C3183 O3161 1.256 . S
C3183 C3176 1.496 . S
H3184 C3167 0.929 . S
H3185 C3168 0.929 . S
H3186 C3169 0.929 . S
H3187 C3170 0.931 . S
H3188 C3178 0.929 . S
H3189 C3179 0.929 . S
H3190 C3180 0.931 . S
H3191 C3181 0.929 . S
Tb3192 N3221 2.617 . S
Tb3192 N3227 2.572 . S
Tb3192 O3236 2.465 . S
Tb3192 O3237 2.387 . S
Tb3192 O3239 2.428 . S
Tb3192 O3240 2.308 . S
Tb3192 O3244 2.349 . S
Tb3192 O3247 2.393 . S
Tb3192 C3256 2.802 . S
C3193 N3194 1.379 . S
C3193 C3196 1.416 . S
C3193 C3200 1.424 . S
N3194 C3193 1.379 . S
N3194 C3197 1.334 . S
N3194 Tb3203 2.617 . S
C3195 C3197 1.390 . S
C3195 C3198 1.339 . S
C3195 H3215 0.930 . S
C3196 C3193 1.416 . S
C3196 C3198 1.416 . S
C3196 C3202 1.448 . S
C3197 N3194 1.334 . S
C3197 C3195 1.390 . S
C3197 H3208 0.930 . S
C3198 C3195 1.339 . S
C3198 C3196 1.416 . S
C3198 H3219 0.930 . S
C3199 C3200 1.413 . S
C3199 C3201 1.427 . S
C3199 C3205 1.416 . S
C3200 C3193 1.424 . S
C3200 C3199 1.413 . S
C3200 N3204 1.361 . S
C3201 C3199 1.427 . S
C3201 C3202 1.328 . S
C3201 H3216 0.929 . S
C3202 C3196 1.448 . S
C3202 C3201 1.328 . S
C3202 H3217 0.930 . S
Tb3203 N3194 2.617 . S
Tb3203 N3204 2.572 . S
Tb3203 O3238 2.349 . S
Tb3203 O3241 2.393 . S
Tb3203 O3242 2.465 . S
Tb3203 O3243 2.387 . S
Tb3203 O3245 2.428 . S
Tb3203 O3246 2.308 . S
Tb3203 C3267 2.802 . S
N3204 C3200 1.361 . S
N3204 Tb3203 2.572 . S
N3204 C3206 1.340 . S
C3205 C3199 1.416 . S
C3205 C3207 1.332 . S
C3205 H3213 0.931 . S
C3206 N3204 1.340 . S
C3206 C3207 1.407 . S
C3206 H3212 0.930 . S
C3207 C3205 1.332 . S
C3207 C3206 1.407 . S
C3207 H3209 0.929 . S
H3208 C3197 0.930 . S
H3209 C3207 0.929 . S
H3210 C3225 0.930 . S
H3211 C3232 0.929 . S
H3212 C3206 0.930 . S
H3213 C3205 0.931 . S
H3214 C3228 0.930 . S
H3215 C3195 0.930 . S
H3216 C3201 0.929 . S
H3217 C3202 0.930 . S
H3218 C3223 0.930 . S
H3219 C3198 0.930 . S
H3220 C3231 0.931 . S
N3221 Tb3192 2.617 . S
N3221 C3222 1.379 . S
N3221 C3225 1.334 . S
C3222 N3221 1.379 . S
C3222 C3224 1.416 . S
C3222 C3230 1.424 . S
C3223 H3218 0.930 . S
C3223 C3225 1.390 . S
C3223 C3226 1.339 . S
C3224 C3222 1.416 . S
C3224 C3226 1.416 . S
C3224 C3257 1.448 . S
C3225 H3210 0.930 . S
C3225 N3221 1.334 . S
C3225 C3223 1.390 . S
C3226 C3223 1.339 . S
C3226 C3224 1.416 . S
C3226 H3233 0.930 . S
N3227 Tb3192 2.572 . S
N3227 C3228 1.340 . S
N3227 C3230 1.361 . S
C3228 H3214 0.930 . S
C3228 N3227 1.340 . S
C3228 C3232 1.407 . S
C3229 C3230 1.413 . S
C3229 C3231 1.416 . S
C3229 C3258 1.427 . S
C3230 C3222 1.424 . S
C3230 N3227 1.361 . S
C3230 C3229 1.413 . S
C3231 H3220 0.931 . S
C3231 C3229 1.416 . S
C3231 C3232 1.332 . S
C3232 H3211 0.929 . S
C3232 C3228 1.407 . S
C3232 C3231 1.332 . S
H3233 C3226 0.930 . S
H3234 C3257 0.930 . S
H3235 C3258 0.929 . S
O3236 Tb3192 2.465 . S
O3236 C3256 1.264 . S
O3237 Tb3192 2.387 . S
O3237 C3248 1.264 . S
O3238 Tb3203 2.349 . S
O3238 C3248 1.243 . S
O3239 Tb3192 2.428 . S
O3239 C3256 1.256 . S
O3240 Tb3192 2.308 . S
O3240 C3255 1.266 . S
O3241 Tb3203 2.393 . S
O3241 C3255 1.248 . S
O3242 Tb3203 2.465 . S
O3242 C3267 1.264 . S
O3243 Tb3203 2.387 . S
O3243 C3259 1.264 . S
O3244 Tb3192 2.349 . S
O3244 C3259 1.243 . S
O3245 Tb3203 2.428 . S
O3245 C3267 1.256 . S
O3246 Tb3203 2.308 . S
O3246 C3266 1.266 . S
O3247 Tb3192 2.393 . S
O3247 C3266 1.248 . S
C3248 O3237 1.264 . S
C3248 O3238 1.243 . S
C3249 C3252 1.399 . S
C3249 C3254 1.383 . S
C3249 C3256 1.496 . S
C3250 C3251 1.399 . S
C3250 C3254 1.389 . S
C3251 C3250 1.399 . S
C3251 C3253 1.380 . S
C3251 H3268 0.929 . S
C3252 C3249 1.399 . S
C3252 C3253 1.392 . S
C3252 H3269 0.929 . S
C3253 C3251 1.380 . S
C3253 C3252 1.392 . S
C3253 H3270 0.929 . S
C3254 C3249 1.383 . S
C3254 C3250 1.389 . S
C3254 H3271 0.931 . S
C3255 O3240 1.266 . S
C3255 O3241 1.248 . S
C3256 Tb3192 2.802 . S
C3256 O3236 1.264 . S
C3256 O3239 1.256 . S
C3256 C3249 1.496 . S
C3257 C3224 1.448 . S
C3257 H3234 0.930 . S
C3257 C3258 1.328 . S
C3258 C3229 1.427 . S
C3258 H3235 0.929 . S
C3258 C3257 1.328 . S
C3259 O3243 1.264 . S
C3259 O3244 1.243 . S
C3260 C3263 1.399 . S
C3260 C3264 1.383 . S
C3260 C3267 1.496 . S
C3261 C3262 1.399 . S
C3261 C3264 1.389 . S
C3262 C3261 1.399 . S
C3262 C3265 1.380 . S
C3262 H3272 0.929 . S
C3263 C3260 1.399 . S
C3263 C3265 1.392 . S
C3263 H3273 0.929 . S
C3264 C3260 1.383 . S
C3264 C3261 1.389 . S
C3264 H3274 0.931 . S
C3265 C3262 1.380 . S
C3265 C3263 1.392 . S
C3265 H3275 0.929 . S
C3266 O3246 1.266 . S
C3266 O3247 1.248 . S
C3267 Tb3203 2.802 . S
C3267 O3242 1.264 . S
C3267 O3245 1.256 . S
C3267 C3260 1.496 . S
H3268 C3251 0.929 . S
H3269 C3252 0.929 . S
H3270 C3253 0.929 . S
H3271 C3254 0.931 . S
H3272 C3262 0.929 . S
H3273 C3263 0.929 . S
H3274 C3264 0.931 . S
H3275 C3265 0.929 . S
Tb3276 N3305 2.617 . S
Tb3276 N3311 2.572 . S
Tb3276 O3320 2.465 . S
Tb3276 O3321 2.387 . S
Tb3276 O3323 2.428 . S
Tb3276 O3324 2.308 . S
Tb3276 O3328 2.349 . S
Tb3276 O3331 2.393 . S
Tb3276 C3340 2.802 . S
C3277 N3278 1.379 . S
C3277 C3280 1.416 . S
C3277 C3284 1.424 . S
N3278 C3277 1.379 . S
N3278 C3281 1.334 . S
N3278 Tb3287 2.617 . S
C3279 C3281 1.390 . S
C3279 C3282 1.339 . S
C3279 H3299 0.930 . S
C3280 C3277 1.416 . S
C3280 C3282 1.416 . S
C3280 C3286 1.448 . S
C3281 N3278 1.334 . S
C3281 C3279 1.390 . S
C3281 H3292 0.930 . S
C3282 C3279 1.339 . S
C3282 C3280 1.416 . S
C3282 H3303 0.930 . S
C3283 C3284 1.413 . S
C3283 C3285 1.427 . S
C3283 C3289 1.416 . S
C3284 C3277 1.424 . S
C3284 C3283 1.413 . S
C3284 N3288 1.361 . S
C3285 C3283 1.427 . S
C3285 C3286 1.328 . S
C3285 H3300 0.929 . S
C3286 C3280 1.448 . S
C3286 C3285 1.328 . S
C3286 H3301 0.930 . S
Tb3287 N3278 2.617 . S
Tb3287 N3288 2.572 . S
Tb3287 O3322 2.349 . S
Tb3287 O3325 2.393 . S
Tb3287 O3326 2.465 . S
Tb3287 O3327 2.387 . S
Tb3287 O3329 2.428 . S
Tb3287 O3330 2.308 . S
Tb3287 C3351 2.802 . S
N3288 C3284 1.361 . S
N3288 Tb3287 2.572 . S
N3288 C3290 1.340 . S
C3289 C3283 1.416 . S
C3289 C3291 1.332 . S
C3289 H3297 0.931 . S
C3290 N3288 1.340 . S
C3290 C3291 1.407 . S
C3290 H3296 0.930 . S
C3291 C3289 1.332 . S
C3291 C3290 1.407 . S
C3291 H3293 0.929 . S
H3292 C3281 0.930 . S
H3293 C3291 0.929 . S
H3294 C3309 0.930 . S
H3295 C3316 0.929 . S
H3296 C3290 0.930 . S
H3297 C3289 0.931 . S
H3298 C3312 0.930 . S
H3299 C3279 0.930 . S
H3300 C3285 0.929 . S
H3301 C3286 0.930 . S
H3302 C3307 0.930 . S
H3303 C3282 0.930 . S
H3304 C3315 0.931 . S
N3305 Tb3276 2.617 . S
N3305 C3306 1.379 . S
N3305 C3309 1.334 . S
C3306 N3305 1.379 . S
C3306 C3308 1.416 . S
C3306 C3314 1.424 . S
C3307 H3302 0.930 . S
C3307 C3309 1.390 . S
C3307 C3310 1.339 . S
C3308 C3306 1.416 . S
C3308 C3310 1.416 . S
C3308 C3341 1.448 . S
C3309 H3294 0.930 . S
C3309 N3305 1.334 . S
C3309 C3307 1.390 . S
C3310 C3307 1.339 . S
C3310 C3308 1.416 . S
C3310 H3317 0.930 . S
N3311 Tb3276 2.572 . S
N3311 C3312 1.340 . S
N3311 C3314 1.361 . S
C3312 H3298 0.930 . S
C3312 N3311 1.340 . S
C3312 C3316 1.407 . S
C3313 C3314 1.413 . S
C3313 C3315 1.416 . S
C3313 C3342 1.427 . S
C3314 C3306 1.424 . S
C3314 N3311 1.361 . S
C3314 C3313 1.413 . S
C3315 H3304 0.931 . S
C3315 C3313 1.416 . S
C3315 C3316 1.332 . S
C3316 H3295 0.929 . S
C3316 C3312 1.407 . S
C3316 C3315 1.332 . S
H3317 C3310 0.930 . S
H3318 C3341 0.930 . S
H3319 C3342 0.929 . S
O3320 Tb3276 2.465 . S
O3320 C3340 1.264 . S
O3321 Tb3276 2.387 . S
O3321 C3332 1.264 . S
O3322 Tb3287 2.349 . S
O3322 C3332 1.243 . S
O3323 Tb3276 2.428 . S
O3323 C3340 1.256 . S
O3324 Tb3276 2.308 . S
O3324 C3339 1.266 . S
O3325 Tb3287 2.393 . S
O3325 C3339 1.248 . S
O3326 Tb3287 2.465 . S
O3326 C3351 1.264 . S
O3327 Tb3287 2.387 . S
O3327 C3343 1.264 . S
O3328 Tb3276 2.349 . S
O3328 C3343 1.243 . S
O3329 Tb3287 2.428 . S
O3329 C3351 1.256 . S
O3330 Tb3287 2.308 . S
O3330 C3350 1.266 . S
O3331 Tb3276 2.393 . S
O3331 C3350 1.248 . S
C3332 O3321 1.264 . S
C3332 O3322 1.243 . S
C3333 C3336 1.399 . S
C3333 C3338 1.383 . S
C3333 C3340 1.496 . S
C3334 C3335 1.399 . S
C3334 C3338 1.389 . S
C3335 C3334 1.399 . S
C3335 C3337 1.380 . S
C3335 H3352 0.929 . S
C3336 C3333 1.399 . S
C3336 C3337 1.392 . S
C3336 H3353 0.929 . S
C3337 C3335 1.380 . S
C3337 C3336 1.392 . S
C3337 H3354 0.929 . S
C3338 C3333 1.383 . S
C3338 C3334 1.389 . S
C3338 H3355 0.931 . S
C3339 O3324 1.266 . S
C3339 O3325 1.248 . S
C3340 Tb3276 2.802 . S
C3340 O3320 1.264 . S
C3340 O3323 1.256 . S
C3340 C3333 1.496 . S
C3341 C3308 1.448 . S
C3341 H3318 0.930 . S
C3341 C3342 1.328 . S
C3342 C3313 1.427 . S
C3342 H3319 0.929 . S
C3342 C3341 1.328 . S
C3343 O3327 1.264 . S
C3343 O3328 1.243 . S
C3344 C3347 1.399 . S
C3344 C3348 1.383 . S
C3344 C3351 1.496 . S
C3345 C3346 1.399 . S
C3345 C3348 1.389 . S
C3346 C3345 1.399 . S
C3346 C3349 1.380 . S
C3346 H3356 0.929 . S
C3347 C3344 1.399 . S
C3347 C3349 1.392 . S
C3347 H3357 0.929 . S
C3348 C3344 1.383 . S
C3348 C3345 1.389 . S
C3348 H3358 0.931 . S
C3349 C3346 1.380 . S
C3349 C3347 1.392 . S
C3349 H3359 0.929 . S
C3350 O3330 1.266 . S
C3350 O3331 1.248 . S
C3351 Tb3287 2.802 . S
C3351 O3326 1.264 . S
C3351 O3329 1.256 . S
C3351 C3344 1.496 . S
H3352 C3335 0.929 . S
H3353 C3336 0.929 . S
H3354 C3337 0.929 . S
H3355 C3338 0.931 . S
H3356 C3346 0.929 . S
H3357 C3347 0.929 . S
H3358 C3348 0.931 . S
H3359 C3349 0.929 . S
Tb3360 N3389 2.617 . S
Tb3360 N3395 2.572 . S
Tb3360 O3404 2.465 . S
Tb3360 O3405 2.387 . S
Tb3360 O3407 2.428 . S
Tb3360 O3408 2.308 . S
Tb3360 O3412 2.349 . S
Tb3360 O3415 2.393 . S
Tb3360 C3424 2.802 . S
C3361 N3362 1.379 1_455 S
C3361 C3364 1.416 1_455 S
C3361 C3368 1.424 . S
N3362 C3361 1.379 1_655 S
N3362 C3365 1.334 . S
N3362 Tb3371 2.617 1_655 S
C3363 C3365 1.390 . S
C3363 C3366 1.339 . S
C3363 H3383 0.930 . S
C3364 C3361 1.416 1_655 S
C3364 C3366 1.416 . S
C3364 C3370 1.448 1_655 S
C3365 N3362 1.334 . S
C3365 C3363 1.390 . S
C3365 H3376 0.930 . S
C3366 C3363 1.339 . S
C3366 C3364 1.416 . S
C3366 H3387 0.930 . S
C3367 C3368 1.413 . S
C3367 C3369 1.427 . S
C3367 C3373 1.416 . S
C3368 C3361 1.424 . S
C3368 C3367 1.413 . S
C3368 N3372 1.361 . S
C3369 C3367 1.427 . S
C3369 C3370 1.328 . S
C3369 H3384 0.929 . S
C3370 C3364 1.448 1_455 S
C3370 C3369 1.328 . S
C3370 H3385 0.930 . S
Tb3371 N3362 2.617 1_455 S
Tb3371 N3372 2.572 . S
Tb3371 O3406 2.349 1_455 S
Tb3371 O3409 2.394 1_455 S
Tb3371 O3410 2.465 1_455 S
Tb3371 O3411 2.387 . S
Tb3371 O3413 2.428 1_455 S
Tb3371 O3414 2.308 . S
Tb3371 C3435 2.802 1_455 S
N3372 C3368 1.361 . S
N3372 Tb3371 2.572 . S
N3372 C3374 1.340 . S
C3373 C3367 1.416 . S
C3373 C3375 1.332 . S
C3373 H3381 0.931 . S
C3374 N3372 1.340 . S
C3374 C3375 1.407 . S
C3374 H3380 0.930 . S
C3375 C3373 1.332 . S
C3375 C3374 1.407 . S
C3375 H3377 0.929 . S
H3376 C3365 0.930 . S
H3377 C3375 0.929 . S
H3378 C3393 0.930 . S
H3379 C3400 0.929 . S
H3380 C3374 0.930 . S
H3381 C3373 0.931 . S
H3382 C3396 0.930 . S
H3383 C3363 0.930 . S
H3384 C3369 0.929 . S
H3385 C3370 0.930 . S
H3386 C3391 0.930 . S
H3387 C3366 0.930 . S
H3388 C3399 0.931 . S
N3389 Tb3360 2.617 . S
N3389 C3390 1.379 . S
N3389 C3393 1.334 . S
C3390 N3389 1.379 . S
C3390 C3392 1.416 . S
C3390 C3398 1.424 . S
C3391 H3386 0.930 . S
C3391 C3393 1.390 . S
C3391 C3394 1.339 . S
C3392 C3390 1.416 . S
C3392 C3394 1.416 . S
C3392 C3425 1.448 . S
C3393 H3378 0.930 . S
C3393 N3389 1.334 . S
C3393 C3391 1.390 . S
C3394 C3391 1.339 . S
C3394 C3392 1.416 . S
C3394 H3401 0.930 . S
N3395 Tb3360 2.572 . S
N3395 C3396 1.340 . S
N3395 C3398 1.361 . S
C3396 H3382 0.930 . S
C3396 N3395 1.340 . S
C3396 C3400 1.407 . S
C3397 C3398 1.413 . S
C3397 C3399 1.416 . S
C3397 C3426 1.427 . S
C3398 C3390 1.424 . S
C3398 N3395 1.361 . S
C3398 C3397 1.413 . S
C3399 H3388 0.931 . S
C3399 C3397 1.416 . S
C3399 C3400 1.332 . S
C3400 H3379 0.929 . S
C3400 C3396 1.407 . S
C3400 C3399 1.332 . S
H3401 C3394 0.930 . S
H3402 C3425 0.930 . S
H3403 C3426 0.929 . S
O3404 Tb3360 2.465 . S
O3404 C3424 1.264 . S
O3405 Tb3360 2.387 . S
O3405 C3416 1.264 . S
O3406 Tb3371 2.349 1_655 S
O3406 C3416 1.243 1_655 S
O3407 Tb3360 2.428 . S
O3407 C3424 1.256 . S
O3408 Tb3360 2.308 . S
O3408 C3423 1.266 . S
O3409 Tb3371 2.394 1_655 S
O3409 C3423 1.252 1_655 S
O3410 Tb3371 2.465 1_655 S
O3410 C3435 1.264 . S
O3411 Tb3371 2.387 . S
O3411 C3427 1.264 . S
O3412 Tb3360 2.349 . S
O3412 C3427 1.243 . S
O3413 Tb3371 2.428 1_655 S
O3413 C3435 1.256 . S
O3414 Tb3371 2.308 . S
O3414 C3434 1.266 . S
O3415 Tb3360 2.393 . S
O3415 C3434 1.248 . S
C3416 O3405 1.264 . S
C3416 O3406 1.243 1_455 S
C3417 C3420 1.399 . S
C3417 C3422 1.383 . S
C3417 C3424 1.496 . S
C3418 C3419 1.399 . S
C3418 C3422 1.389 . S
C3419 C3418 1.399 . S
C3419 C3421 1.380 . S
C3419 H3436 0.929 . S
C3420 C3417 1.399 . S
C3420 C3421 1.392 . S
C3420 H3437 0.929 . S
C3421 C3419 1.380 . S
C3421 C3420 1.392 . S
C3421 H3438 0.929 . S
C3422 C3417 1.383 . S
C3422 C3418 1.389 . S
C3422 H3439 0.931 . S
C3423 O3408 1.266 . S
C3423 O3409 1.252 1_455 S
C3424 Tb3360 2.802 . S
C3424 O3404 1.264 . S
C3424 O3407 1.256 . S
C3424 C3417 1.496 . S
C3425 C3392 1.448 . S
C3425 H3402 0.930 . S
C3425 C3426 1.328 . S
C3426 C3397 1.427 . S
C3426 H3403 0.929 . S
C3426 C3425 1.328 . S
C3427 O3411 1.264 . S
C3427 O3412 1.243 . S
C3428 C3431 1.399 . S
C3428 C3432 1.383 . S
C3428 C3435 1.496 . S
C3429 C3430 1.399 . S
C3429 C3432 1.389 . S
C3430 C3429 1.399 . S
C3430 C3433 1.380 . S
C3430 H3440 0.929 . S
C3431 C3428 1.399 . S
C3431 C3433 1.392 . S
C3431 H3441 0.929 . S
C3432 C3428 1.383 . S
C3432 C3429 1.389 . S
C3432 H3442 0.931 . S
C3433 C3430 1.380 . S
C3433 C3431 1.392 . S
C3433 H3443 0.929 . S
C3434 O3414 1.266 . S
C3434 O3415 1.248 . S
C3435 Tb3371 2.802 1_655 S
C3435 O3410 1.264 . S
C3435 O3413 1.256 . S
C3435 C3428 1.496 . S
H3436 C3419 0.929 . S
H3437 C3420 0.929 . S
H3438 C3421 0.929 . S
H3439 C3422 0.931 . S
H3440 C3430 0.929 . S
H3441 C3431 0.929 . S
H3442 C3432 0.931 . S
H3443 C3433 0.929 . S
Tb3444 N3473 2.617 . S
Tb3444 N3479 2.572 . S
Tb3444 O3488 2.465 . S
Tb3444 O3489 2.387 . S
Tb3444 O3491 2.428 . S
Tb3444 O3492 2.308 . S
Tb3444 O3496 2.349 . S
Tb3444 O3499 2.393 . S
Tb3444 C3508 2.802 . S
C3445 N3446 1.379 . S
C3445 C3448 1.416 . S
C3445 C3452 1.424 . S
N3446 C3445 1.379 . S
N3446 C3449 1.334 . S
N3446 Tb3455 2.617 . S
C3447 C3449 1.390 . S
C3447 C3450 1.339 . S
C3447 H3467 0.930 . S
C3448 C3445 1.416 . S
C3448 C3450 1.416 . S
C3448 C3454 1.448 . S
C3449 N3446 1.334 . S
C3449 C3447 1.390 . S
C3449 H3460 0.930 . S
C3450 C3447 1.339 . S
C3450 C3448 1.416 . S
C3450 H3471 0.930 . S
C3451 C3452 1.413 . S
C3451 C3453 1.427 . S
C3451 C3457 1.416 . S
C3452 C3445 1.424 . S
C3452 C3451 1.413 . S
C3452 N3456 1.361 . S
C3453 C3451 1.427 . S
C3453 C3454 1.328 . S
C3453 H3468 0.929 . S
C3454 C3448 1.448 . S
C3454 C3453 1.328 . S
C3454 H3469 0.930 . S
Tb3455 N3446 2.617 . S
Tb3455 N3456 2.572 . S
Tb3455 O3490 2.349 . S
Tb3455 O3493 2.393 . S
Tb3455 O3494 2.465 . S
Tb3455 O3495 2.387 . S
Tb3455 O3497 2.428 . S
Tb3455 O3498 2.308 . S
Tb3455 C3519 2.802 . S
N3456 C3452 1.361 . S
N3456 Tb3455 2.572 . S
N3456 C3458 1.340 . S
C3457 C3451 1.416 . S
C3457 C3459 1.332 . S
C3457 H3465 0.931 . S
C3458 N3456 1.340 . S
C3458 C3459 1.407 . S
C3458 H3464 0.930 . S
C3459 C3457 1.332 . S
C3459 C3458 1.407 . S
C3459 H3461 0.929 . S
H3460 C3449 0.930 . S
H3461 C3459 0.929 . S
H3462 C3477 0.930 . S
H3463 C3484 0.929 . S
H3464 C3458 0.930 . S
H3465 C3457 0.931 . S
H3466 C3480 0.930 . S
H3467 C3447 0.930 . S
H3468 C3453 0.929 . S
H3469 C3454 0.930 . S
H3470 C3475 0.930 . S
H3471 C3450 0.930 . S
H3472 C3483 0.931 . S
N3473 Tb3444 2.617 . S
N3473 C3474 1.379 . S
N3473 C3477 1.334 . S
C3474 N3473 1.379 . S
C3474 C3476 1.416 . S
C3474 C3482 1.424 . S
C3475 H3470 0.930 . S
C3475 C3477 1.390 . S
C3475 C3478 1.339 . S
C3476 C3474 1.416 . S
C3476 C3478 1.416 . S
C3476 C3509 1.448 . S
C3477 H3462 0.930 . S
C3477 N3473 1.334 . S
C3477 C3475 1.390 . S
C3478 C3475 1.339 . S
C3478 C3476 1.416 . S
C3478 H3485 0.930 . S
N3479 Tb3444 2.572 . S
N3479 C3480 1.340 . S
N3479 C3482 1.361 . S
C3480 H3466 0.930 . S
C3480 N3479 1.340 . S
C3480 C3484 1.407 . S
C3481 C3482 1.413 . S
C3481 C3483 1.416 . S
C3481 C3510 1.427 . S
C3482 C3474 1.424 . S
C3482 N3479 1.361 . S
C3482 C3481 1.413 . S
C3483 H3472 0.931 . S
C3483 C3481 1.416 . S
C3483 C3484 1.332 . S
C3484 H3463 0.929 . S
C3484 C3480 1.407 . S
C3484 C3483 1.332 . S
H3485 C3478 0.930 . S
H3486 C3509 0.930 . S
H3487 C3510 0.929 . S
O3488 Tb3444 2.465 . S
O3488 C3508 1.264 . S
O3489 Tb3444 2.387 . S
O3489 C3500 1.264 . S
O3490 Tb3455 2.349 . S
O3490 C3500 1.243 . S
O3491 Tb3444 2.428 . S
O3491 C3508 1.256 . S
O3492 Tb3444 2.308 . S
O3492 C3507 1.266 . S
O3493 Tb3455 2.393 . S
O3493 C3507 1.248 . S
O3494 Tb3455 2.465 . S
O3494 C3519 1.264 . S
O3495 Tb3455 2.387 . S
O3495 C3511 1.264 . S
O3496 Tb3444 2.349 . S
O3496 C3511 1.243 . S
O3497 Tb3455 2.428 . S
O3497 C3519 1.256 . S
O3498 Tb3455 2.308 . S
O3498 C3518 1.266 . S
O3499 Tb3444 2.393 . S
O3499 C3518 1.248 . S
C3500 O3489 1.264 . S
C3500 O3490 1.243 . S
C3501 C3504 1.399 . S
C3501 C3506 1.383 . S
C3501 C3508 1.496 . S
C3502 C3503 1.399 . S
C3502 C3506 1.389 . S
C3503 C3502 1.399 . S
C3503 C3505 1.380 . S
C3503 H3520 0.929 . S
C3504 C3501 1.399 . S
C3504 C3505 1.392 . S
C3504 H3521 0.929 . S
C3505 C3503 1.380 . S
C3505 C3504 1.392 . S
C3505 H3522 0.929 . S
C3506 C3501 1.383 . S
C3506 C3502 1.389 . S
C3506 H3523 0.931 . S
C3507 O3492 1.266 . S
C3507 O3493 1.248 . S
C3508 Tb3444 2.802 . S
C3508 O3488 1.264 . S
C3508 O3491 1.256 . S
C3508 C3501 1.496 . S
C3509 C3476 1.448 . S
C3509 H3486 0.930 . S
C3509 C3510 1.328 . S
C3510 C3481 1.427 . S
C3510 H3487 0.929 . S
C3510 C3509 1.328 . S
C3511 O3495 1.264 . S
C3511 O3496 1.243 . S
C3512 C3515 1.399 . S
C3512 C3516 1.383 . S
C3512 C3519 1.496 . S
C3513 C3514 1.399 . S
C3513 C3516 1.389 . S
C3514 C3513 1.399 . S
C3514 C3517 1.380 . S
C3514 H3524 0.929 . S
C3515 C3512 1.399 . S
C3515 C3517 1.392 . S
C3515 H3525 0.929 . S
C3516 C3512 1.383 . S
C3516 C3513 1.389 . S
C3516 H3526 0.931 . S
C3517 C3514 1.380 . S
C3517 C3515 1.392 . S
C3517 H3527 0.929 . S
C3518 O3498 1.266 . S
C3518 O3499 1.248 . S
C3519 Tb3455 2.802 . S
C3519 O3494 1.264 . S
C3519 O3497 1.256 . S
C3519 C3512 1.496 . S
H3520 C3503 0.929 . S
H3521 C3504 0.929 . S
H3522 C3505 0.929 . S
H3523 C3506 0.931 . S
H3524 C3514 0.929 . S
H3525 C3515 0.929 . S
H3526 C3516 0.931 . S
H3527 C3517 0.929 . S
Tb3528 N3557 2.617 . S
Tb3528 N3563 2.572 . S
Tb3528 O3572 2.465 . S
Tb3528 O3573 2.387 . S
Tb3528 O3575 2.428 . S
Tb3528 O3576 2.308 . S
Tb3528 O3580 2.349 . S
Tb3528 O3583 2.393 . S
Tb3528 C3592 2.802 . S
C3529 N3530 1.379 1_554 S
C3529 C3532 1.416 1_554 S
C3529 C3536 1.424 . S
N3530 C3529 1.379 1_556 S
N3530 C3533 1.334 . S
N3530 Tb3539 2.617 1_556 S
C3531 C3533 1.390 . S
C3531 C3534 1.339 . S
C3531 H3551 0.930 . S
C3532 C3529 1.416 1_556 S
C3532 C3534 1.416 . S
C3532 C3538 1.448 1_556 S
C3533 N3530 1.334 . S
C3533 C3531 1.390 . S
C3533 H3544 0.930 . S
C3534 C3531 1.339 . S
C3534 C3532 1.416 . S
C3534 H3555 0.930 . S
C3535 C3536 1.413 . S
C3535 C3537 1.427 . S
C3535 C3541 1.416 . S
C3536 C3529 1.424 . S
C3536 C3535 1.413 . S
C3536 N3540 1.361 . S
C3537 C3535 1.427 . S
C3537 C3538 1.328 . S
C3537 H3552 0.929 . S
C3538 C3532 1.448 1_554 S
C3538 C3537 1.328 . S
C3538 H3553 0.930 . S
Tb3539 N3530 2.617 1_554 S
Tb3539 N3540 2.572 . S
Tb3539 O3574 2.331 1_554 S
Tb3539 O3577 2.391 . S
Tb3539 O3578 2.465 1_554 S
Tb3539 O3579 2.387 . S
Tb3539 O3581 2.428 1_554 S
Tb3539 O3582 2.308 . S
Tb3539 C3603 2.802 1_554 S
N3540 C3536 1.361 . S
N3540 Tb3539 2.572 . S
N3540 C3542 1.340 . S
C3541 C3535 1.416 . S
C3541 C3543 1.332 . S
C3541 H3549 0.931 . S
C3542 N3540 1.340 . S
C3542 C3543 1.407 . S
C3542 H3548 0.930 . S
C3543 C3541 1.332 . S
C3543 C3542 1.407 . S
C3543 H3545 0.929 . S
H3544 C3533 0.930 . S
H3545 C3543 0.929 . S
H3546 C3561 0.930 . S
H3547 C3568 0.929 . S
H3548 C3542 0.930 . S
H3549 C3541 0.931 . S
H3550 C3564 0.930 . S
H3551 C3531 0.930 . S
H3552 C3537 0.929 . S
H3553 C3538 0.930 . S
H3554 C3559 0.930 . S
H3555 C3534 0.930 . S
H3556 C3567 0.931 . S
N3557 Tb3528 2.617 . S
N3557 C3558 1.379 . S
N3557 C3561 1.334 . S
C3558 N3557 1.379 . S
C3558 C3560 1.416 . S
C3558 C3566 1.424 . S
C3559 H3554 0.930 . S
C3559 C3561 1.390 . S
C3559 C3562 1.339 . S
C3560 C3558 1.416 . S
C3560 C3562 1.416 . S
C3560 C3593 1.448 . S
C3561 H3546 0.930 . S
C3561 N3557 1.334 . S
C3561 C3559 1.390 . S
C3562 C3559 1.339 . S
C3562 C3560 1.416 . S
C3562 H3569 0.930 . S
N3563 Tb3528 2.572 . S
N3563 C3564 1.340 . S
N3563 C3566 1.361 . S
C3564 H3550 0.930 . S
C3564 N3563 1.340 . S
C3564 C3568 1.407 . S
C3565 C3566 1.413 . S
C3565 C3567 1.416 . S
C3565 C3594 1.427 . S
C3566 C3558 1.424 . S
C3566 N3563 1.361 . S
C3566 C3565 1.413 . S
C3567 H3556 0.931 . S
C3567 C3565 1.416 . S
C3567 C3568 1.332 . S
C3568 H3547 0.929 . S
C3568 C3564 1.407 . S
C3568 C3567 1.332 . S
H3569 C3562 0.930 . S
H3570 C3593 0.930 . S
H3571 C3594 0.929 . S
O3572 Tb3528 2.465 . S
O3572 C3592 1.264 . S
O3573 Tb3528 2.387 . S
O3573 C3584 1.264 . S
O3574 Tb3539 2.331 1_556 S
O3574 C3584 1.220 1_556 S
O3575 Tb3528 2.428 . S
O3575 C3592 1.256 . S
O3576 Tb3528 2.308 . S
O3576 C3591 1.266 . S
O3577 Tb3539 2.391 . S
O3577 C3591 1.244 . S
O3578 Tb3539 2.465 1_556 S
O3578 C3603 1.264 . S
O3579 Tb3539 2.387 . S
O3579 C3595 1.264 . S
O3580 Tb3528 2.349 . S
O3580 C3595 1.243 . S
O3581 Tb3539 2.428 1_556 S
O3581 C3603 1.256 . S
O3582 Tb3539 2.308 . S
O3582 C3602 1.266 . S
O3583 Tb3528 2.393 . S
O3583 C3602 1.248 . S
C3584 O3573 1.264 . S
C3584 O3574 1.220 1_554 S
C3585 C3588 1.399 . S
C3585 C3590 1.383 . S
C3585 C3592 1.496 . S
C3586 C3587 1.399 . S
C3586 C3590 1.389 . S
C3587 C3586 1.399 . S
C3587 C3589 1.380 . S
C3587 H3604 0.929 . S
C3588 C3585 1.399 . S
C3588 C3589 1.392 . S
C3588 H3605 0.929 . S
C3589 C3587 1.380 . S
C3589 C3588 1.392 . S
C3589 H3606 0.929 . S
C3590 C3585 1.383 . S
C3590 C3586 1.389 . S
C3590 H3607 0.931 . S
C3591 O3576 1.266 . S
C3591 O3577 1.244 . S
C3592 Tb3528 2.802 . S
C3592 O3572 1.264 . S
C3592 O3575 1.256 . S
C3592 C3585 1.496 . S
C3593 C3560 1.448 . S
C3593 H3570 0.930 . S
C3593 C3594 1.328 . S
C3594 C3565 1.427 . S
C3594 H3571 0.929 . S
C3594 C3593 1.328 . S
C3595 O3579 1.264 . S
C3595 O3580 1.243 . S
C3596 C3599 1.399 . S
C3596 C3600 1.383 . S
C3596 C3603 1.496 . S
C3597 C3598 1.399 . S
C3597 C3600 1.389 . S
C3598 C3597 1.399 . S
C3598 C3601 1.380 . S
C3598 H3608 0.929 . S
C3599 C3596 1.399 . S
C3599 C3601 1.392 . S
C3599 H3609 0.929 . S
C3600 C3596 1.383 . S
C3600 C3597 1.389 . S
C3600 H3610 0.931 . S
C3601 C3598 1.380 . S
C3601 C3599 1.392 . S
C3601 H3611 0.929 . S
C3602 O3582 1.266 . S
C3602 O3583 1.248 . S
C3603 Tb3539 2.802 1_556 S
C3603 O3578 1.264 . S
C3603 O3581 1.256 . S
C3603 C3596 1.496 . S
H3604 C3587 0.929 . S
H3605 C3588 0.929 . S
H3606 C3589 0.929 . S
H3607 C3590 0.931 . S
H3608 C3598 0.929 . S
H3609 C3599 0.929 . S
H3610 C3600 0.931 . S
H3611 C3601 0.929 . S
Tb3612 N3641 2.617 . S
Tb3612 N3647 2.572 . S
Tb3612 O3656 2.465 . S
Tb3612 O3657 2.387 . S
Tb3612 O3659 2.428 . S
Tb3612 O3660 2.308 . S
Tb3612 O3664 2.349 . S
Tb3612 O3667 2.393 . S
Tb3612 C3676 2.802 . S
C3613 N3614 1.379 . S
C3613 C3616 1.416 . S
C3613 C3620 1.424 . S
N3614 C3613 1.379 . S
N3614 C3617 1.334 . S
N3614 Tb3623 2.617 . S
C3615 C3617 1.390 . S
C3615 C3618 1.339 . S
C3615 H3635 0.930 . S
C3616 C3613 1.416 . S
C3616 C3618 1.416 . S
C3616 C3622 1.448 . S
C3617 N3614 1.334 . S
C3617 C3615 1.390 . S
C3617 H3628 0.930 . S
C3618 C3615 1.339 . S
C3618 C3616 1.416 . S
C3618 H3639 0.930 . S
C3619 C3620 1.413 . S
C3619 C3621 1.427 . S
C3619 C3625 1.416 . S
C3620 C3613 1.424 . S
C3620 C3619 1.413 . S
C3620 N3624 1.361 . S
C3621 C3619 1.427 . S
C3621 C3622 1.328 . S
C3621 H3636 0.929 . S
C3622 C3616 1.448 . S
C3622 C3621 1.328 . S
C3622 H3637 0.930 . S
Tb3623 N3614 2.617 . S
Tb3623 N3624 2.572 . S
Tb3623 O3658 2.349 . S
Tb3623 O3661 2.393 . S
Tb3623 O3662 2.465 . S
Tb3623 O3663 2.387 . S
Tb3623 O3665 2.428 . S
Tb3623 O3666 2.308 . S
Tb3623 C3687 2.802 . S
N3624 C3620 1.361 . S
N3624 Tb3623 2.572 . S
N3624 C3626 1.340 . S
C3625 C3619 1.416 . S
C3625 C3627 1.332 . S
C3625 H3633 0.931 . S
C3626 N3624 1.340 . S
C3626 C3627 1.407 . S
C3626 H3632 0.930 . S
C3627 C3625 1.332 . S
C3627 C3626 1.407 . S
C3627 H3629 0.929 . S
H3628 C3617 0.930 . S
H3629 C3627 0.929 . S
H3630 C3645 0.930 . S
H3631 C3652 0.929 . S
H3632 C3626 0.930 . S
H3633 C3625 0.931 . S
H3634 C3648 0.930 . S
H3635 C3615 0.930 . S
H3636 C3621 0.929 . S
H3637 C3622 0.930 . S
H3638 C3643 0.930 . S
H3639 C3618 0.930 . S
H3640 C3651 0.931 . S
N3641 Tb3612 2.617 . S
N3641 C3642 1.379 . S
N3641 C3645 1.334 . S
C3642 N3641 1.379 . S
C3642 C3644 1.416 . S
C3642 C3650 1.424 . S
C3643 H3638 0.930 . S
C3643 C3645 1.390 . S
C3643 C3646 1.339 . S
C3644 C3642 1.416 . S
C3644 C3646 1.416 . S
C3644 C3677 1.448 . S
C3645 H3630 0.930 . S
C3645 N3641 1.334 . S
C3645 C3643 1.390 . S
C3646 C3643 1.339 . S
C3646 C3644 1.416 . S
C3646 H3653 0.930 . S
N3647 Tb3612 2.572 . S
N3647 C3648 1.340 . S
N3647 C3650 1.361 . S
C3648 H3634 0.930 . S
C3648 N3647 1.340 . S
C3648 C3652 1.407 . S
C3649 C3650 1.413 . S
C3649 C3651 1.416 . S
C3649 C3678 1.427 . S
C3650 C3642 1.424 . S
C3650 N3647 1.361 . S
C3650 C3649 1.413 . S
C3651 H3640 0.931 . S
C3651 C3649 1.416 . S
C3651 C3652 1.332 . S
C3652 H3631 0.929 . S
C3652 C3648 1.407 . S
C3652 C3651 1.332 . S
H3653 C3646 0.930 . S
H3654 C3677 0.930 . S
H3655 C3678 0.929 . S
O3656 Tb3612 2.465 . S
O3656 C3676 1.264 . S
O3657 Tb3612 2.387 . S
O3657 C3668 1.264 . S
O3658 Tb3623 2.349 . S
O3658 C3668 1.243 . S
O3659 Tb3612 2.428 . S
O3659 C3676 1.256 . S
O3660 Tb3612 2.308 . S
O3660 C3675 1.266 . S
O3661 Tb3623 2.393 . S
O3661 C3675 1.248 . S
O3662 Tb3623 2.465 . S
O3662 C3687 1.264 . S
O3663 Tb3623 2.387 . S
O3663 C3679 1.264 . S
O3664 Tb3612 2.349 . S
O3664 C3679 1.243 . S
O3665 Tb3623 2.428 . S
O3665 C3687 1.256 . S
O3666 Tb3623 2.308 . S
O3666 C3686 1.266 . S
O3667 Tb3612 2.393 . S
O3667 C3686 1.248 . S
C3668 O3657 1.264 . S
C3668 O3658 1.243 . S
C3669 C3672 1.399 . S
C3669 C3674 1.383 . S
C3669 C3676 1.496 . S
C3670 C3671 1.399 . S
C3670 C3674 1.389 . S
C3671 C3670 1.399 . S
C3671 C3673 1.380 . S
C3671 H3688 0.929 . S
C3672 C3669 1.399 . S
C3672 C3673 1.392 . S
C3672 H3689 0.929 . S
C3673 C3671 1.380 . S
C3673 C3672 1.392 . S
C3673 H3690 0.929 . S
C3674 C3669 1.383 . S
C3674 C3670 1.389 . S
C3674 H3691 0.931 . S
C3675 O3660 1.266 . S
C3675 O3661 1.248 . S
C3676 Tb3612 2.802 . S
C3676 O3656 1.264 . S
C3676 O3659 1.256 . S
C3676 C3669 1.496 . S
C3677 C3644 1.448 . S
C3677 H3654 0.930 . S
C3677 C3678 1.328 . S
C3678 C3649 1.427 . S
C3678 H3655 0.929 . S
C3678 C3677 1.328 . S
C3679 O3663 1.264 . S
C3679 O3664 1.243 . S
C3680 C3683 1.399 . S
C3680 C3684 1.383 . S
C3680 C3687 1.496 . S
C3681 C3682 1.399 . S
C3681 C3684 1.389 . S
C3682 C3681 1.399 . S
C3682 C3685 1.380 . S
C3682 H3692 0.929 . S
C3683 C3680 1.399 . S
C3683 C3685 1.392 . S
C3683 H3693 0.929 . S
C3684 C3680 1.383 . S
C3684 C3681 1.389 . S
C3684 H3694 0.931 . S
C3685 C3682 1.380 . S
C3685 C3683 1.392 . S
C3685 H3695 0.929 . S
C3686 O3666 1.266 . S
C3686 O3667 1.248 . S
C3687 Tb3623 2.802 . S
C3687 O3662 1.264 . S
C3687 O3665 1.256 . S
C3687 C3680 1.496 . S
H3688 C3671 0.929 . S
H3689 C3672 0.929 . S
H3690 C3673 0.929 . S
H3691 C3674 0.931 . S
H3692 C3682 0.929 . S
H3693 C3683 0.929 . S
H3694 C3684 0.931 . S
H3695 C3685 0.929 . S
Tb3696 N3725 2.617 . S
Tb3696 N3731 2.572 . S
Tb3696 O3740 2.465 . S
Tb3696 O3741 2.387 . S
Tb3696 O3743 2.428 . S
Tb3696 O3744 2.308 . S
Tb3696 O3748 2.349 . S
Tb3696 O3751 2.393 . S
Tb3696 C3760 2.802 . S
C3697 N3698 1.379 . S
C3697 C3700 1.416 . S
C3697 C3704 1.424 . S
N3698 C3697 1.379 . S
N3698 C3701 1.334 . S
N3698 Tb3707 2.617 . S
C3699 C3701 1.390 . S
C3699 C3702 1.339 . S
C3699 H3719 0.930 . S
C3700 C3697 1.416 . S
C3700 C3702 1.416 . S
C3700 C3706 1.448 . S
C3701 N3698 1.334 . S
C3701 C3699 1.390 . S
C3701 H3712 0.930 . S
C3702 C3699 1.339 . S
C3702 C3700 1.416 . S
C3702 H3723 0.930 . S
C3703 C3704 1.413 . S
C3703 C3705 1.427 . S
C3703 C3709 1.416 . S
C3704 C3697 1.424 . S
C3704 C3703 1.413 . S
C3704 N3708 1.361 . S
C3705 C3703 1.427 . S
C3705 C3706 1.328 . S
C3705 H3720 0.929 . S
C3706 C3700 1.448 . S
C3706 C3705 1.328 . S
C3706 H3721 0.930 . S
Tb3707 N3698 2.617 . S
Tb3707 N3708 2.572 . S
Tb3707 O3742 2.349 . S
Tb3707 O3745 2.393 . S
Tb3707 O3746 2.465 . S
Tb3707 O3747 2.387 . S
Tb3707 O3749 2.428 . S
Tb3707 O3750 2.308 . S
Tb3707 C3771 2.802 . S
N3708 C3704 1.361 . S
N3708 Tb3707 2.572 . S
N3708 C3710 1.340 . S
C3709 C3703 1.416 . S
C3709 C3711 1.332 . S
C3709 H3717 0.931 . S
C3710 N3708 1.340 . S
C3710 C3711 1.407 . S
C3710 H3716 0.930 . S
C3711 C3709 1.332 . S
C3711 C3710 1.407 . S
C3711 H3713 0.929 . S
H3712 C3701 0.930 . S
H3713 C3711 0.929 . S
H3714 C3729 0.930 . S
H3715 C3736 0.929 . S
H3716 C3710 0.930 . S
H3717 C3709 0.931 . S
H3718 C3732 0.930 . S
H3719 C3699 0.930 . S
H3720 C3705 0.929 . S
H3721 C3706 0.930 . S
H3722 C3727 0.930 . S
H3723 C3702 0.930 . S
H3724 C3735 0.931 . S
N3725 Tb3696 2.617 . S
N3725 C3726 1.379 . S
N3725 C3729 1.334 . S
C3726 N3725 1.379 . S
C3726 C3728 1.416 . S
C3726 C3734 1.424 . S
C3727 H3722 0.930 . S
C3727 C3729 1.390 . S
C3727 C3730 1.339 . S
C3728 C3726 1.416 . S
C3728 C3730 1.416 . S
C3728 C3761 1.448 . S
C3729 H3714 0.930 . S
C3729 N3725 1.334 . S
C3729 C3727 1.390 . S
C3730 C3727 1.339 . S
C3730 C3728 1.416 . S
C3730 H3737 0.930 . S
N3731 Tb3696 2.572 . S
N3731 C3732 1.340 . S
N3731 C3734 1.361 . S
C3732 H3718 0.930 . S
C3732 N3731 1.340 . S
C3732 C3736 1.407 . S
C3733 C3734 1.413 . S
C3733 C3735 1.416 . S
C3733 C3762 1.427 . S
C3734 C3726 1.424 . S
C3734 N3731 1.361 . S
C3734 C3733 1.413 . S
C3735 H3724 0.931 . S
C3735 C3733 1.416 . S
C3735 C3736 1.332 . S
C3736 H3715 0.929 . S
C3736 C3732 1.407 . S
C3736 C3735 1.332 . S
H3737 C3730 0.930 . S
H3738 C3761 0.930 . S
H3739 C3762 0.929 . S
O3740 Tb3696 2.465 . S
O3740 C3760 1.264 . S
O3741 Tb3696 2.387 . S
O3741 C3752 1.264 . S
O3742 Tb3707 2.349 . S
O3742 C3752 1.243 . S
O3743 Tb3696 2.428 . S
O3743 C3760 1.256 . S
O3744 Tb3696 2.308 . S
O3744 C3759 1.266 . S
O3745 Tb3707 2.393 . S
O3745 C3759 1.248 . S
O3746 Tb3707 2.465 . S
O3746 C3771 1.264 . S
O3747 Tb3707 2.387 . S
O3747 C3763 1.264 . S
O3748 Tb3696 2.349 . S
O3748 C3763 1.243 . S
O3749 Tb3707 2.428 . S
O3749 C3771 1.256 . S
O3750 Tb3707 2.308 . S
O3750 C3770 1.266 . S
O3751 Tb3696 2.393 . S
O3751 C3770 1.248 . S
C3752 O3741 1.264 . S
C3752 O3742 1.243 . S
C3753 C3756 1.399 . S
C3753 C3758 1.383 . S
C3753 C3760 1.496 . S
C3754 C3755 1.399 . S
C3754 C3758 1.389 . S
C3755 C3754 1.399 . S
C3755 C3757 1.380 . S
C3755 H3772 0.929 . S
C3756 C3753 1.399 . S
C3756 C3757 1.392 . S
C3756 H3773 0.929 . S
C3757 C3755 1.380 . S
C3757 C3756 1.392 . S
C3757 H3774 0.929 . S
C3758 C3753 1.383 . S
C3758 C3754 1.389 . S
C3758 H3775 0.931 . S
C3759 O3744 1.266 . S
C3759 O3745 1.248 . S
C3760 Tb3696 2.802 . S
C3760 O3740 1.264 . S
C3760 O3743 1.256 . S
C3760 C3753 1.496 . S
C3761 C3728 1.448 . S
C3761 H3738 0.930 . S
C3761 C3762 1.328 . S
C3762 C3733 1.427 . S
C3762 H3739 0.929 . S
C3762 C3761 1.328 . S
C3763 O3747 1.264 . S
C3763 O3748 1.243 . S
C3764 C3767 1.399 . S
C3764 C3768 1.383 . S
C3764 C3771 1.496 . S
C3765 C3766 1.399 . S
C3765 C3768 1.389 . S
C3766 C3765 1.399 . S
C3766 C3769 1.380 . S
C3766 H3776 0.929 . S
C3767 C3764 1.399 . S
C3767 C3769 1.392 . S
C3767 H3777 0.929 . S
C3768 C3764 1.383 . S
C3768 C3765 1.389 . S
C3768 H3778 0.931 . S
C3769 C3766 1.380 . S
C3769 C3767 1.392 . S
C3769 H3779 0.929 . S
C3770 O3750 1.266 . S
C3770 O3751 1.248 . S
C3771 Tb3707 2.802 . S
C3771 O3746 1.264 . S
C3771 O3749 1.256 . S
C3771 C3764 1.496 . S
H3772 C3755 0.929 . S
H3773 C3756 0.929 . S
H3774 C3757 0.929 . S
H3775 C3758 0.931 . S
H3776 C3766 0.929 . S
H3777 C3767 0.929 . S
H3778 C3768 0.931 . S
H3779 C3769 0.929 . S
Tb3780 N3809 2.617 . S
Tb3780 N3815 2.572 . S
Tb3780 O3824 2.465 . S
Tb3780 O3825 2.387 . S
Tb3780 O3827 2.428 . S
Tb3780 O3828 2.308 . S
Tb3780 O3832 2.349 . S
Tb3780 O3835 2.393 . S
Tb3780 C3844 2.802 . S
C3781 N3782 1.379 . S
C3781 C3784 1.416 . S
C3781 C3788 1.424 . S
N3782 C3781 1.379 . S
N3782 C3785 1.334 . S
N3782 Tb3791 2.617 . S
C3783 C3785 1.390 . S
C3783 C3786 1.339 . S
C3783 H3803 0.930 . S
C3784 C3781 1.416 . S
C3784 C3786 1.416 . S
C3784 C3790 1.448 . S
C3785 N3782 1.334 . S
C3785 C3783 1.390 . S
C3785 H3796 0.930 . S
C3786 C3783 1.339 . S
C3786 C3784 1.416 . S
C3786 H3807 0.930 . S
C3787 C3788 1.413 . S
C3787 C3789 1.427 . S
C3787 C3793 1.416 . S
C3788 C3781 1.424 . S
C3788 C3787 1.413 . S
C3788 N3792 1.361 . S
C3789 C3787 1.427 . S
C3789 C3790 1.328 . S
C3789 H3804 0.929 . S
C3790 C3784 1.448 . S
C3790 C3789 1.328 . S
C3790 H3805 0.930 . S
Tb3791 N3782 2.617 . S
Tb3791 N3792 2.572 . S
Tb3791 O3826 2.349 . S
Tb3791 O3829 2.393 . S
Tb3791 O3830 2.465 . S
Tb3791 O3831 2.387 . S
Tb3791 O3833 2.428 . S
Tb3791 O3834 2.308 . S
Tb3791 C3855 2.802 . S
N3792 C3788 1.361 . S
N3792 Tb3791 2.572 . S
N3792 C3794 1.340 . S
C3793 C3787 1.416 . S
C3793 C3795 1.332 . S
C3793 H3801 0.931 . S
C3794 N3792 1.340 . S
C3794 C3795 1.407 . S
C3794 H3800 0.930 . S
C3795 C3793 1.332 . S
C3795 C3794 1.407 . S
C3795 H3797 0.929 . S
H3796 C3785 0.930 . S
H3797 C3795 0.929 . S
H3798 C3813 0.930 . S
H3799 C3820 0.929 . S
H3800 C3794 0.930 . S
H3801 C3793 0.931 . S
H3802 C3816 0.930 . S
H3803 C3783 0.930 . S
H3804 C3789 0.929 . S
H3805 C3790 0.930 . S
H3806 C3811 0.930 . S
H3807 C3786 0.930 . S
H3808 C3819 0.931 . S
N3809 Tb3780 2.617 . S
N3809 C3810 1.379 . S
N3809 C3813 1.334 . S
C3810 N3809 1.379 . S
C3810 C3812 1.416 . S
C3810 C3818 1.424 . S
C3811 H3806 0.930 . S
C3811 C3813 1.390 . S
C3811 C3814 1.339 . S
C3812 C3810 1.416 . S
C3812 C3814 1.416 . S
C3812 C3845 1.448 . S
C3813 H3798 0.930 . S
C3813 N3809 1.334 . S
C3813 C3811 1.390 . S
C3814 C3811 1.339 . S
C3814 C3812 1.416 . S
C3814 H3821 0.930 . S
N3815 Tb3780 2.572 . S
N3815 C3816 1.340 . S
N3815 C3818 1.361 . S
C3816 H3802 0.930 . S
C3816 N3815 1.340 . S
C3816 C3820 1.407 . S
C3817 C3818 1.413 . S
C3817 C3819 1.416 . S
C3817 C3846 1.427 . S
C3818 C3810 1.424 . S
C3818 N3815 1.361 . S
C3818 C3817 1.413 . S
C3819 H3808 0.931 . S
C3819 C3817 1.416 . S
C3819 C3820 1.332 . S
C3820 H3799 0.929 . S
C3820 C3816 1.407 . S
C3820 C3819 1.332 . S
H3821 C3814 0.930 . S
H3822 C3845 0.930 . S
H3823 C3846 0.929 . S
O3824 Tb3780 2.465 . S
O3824 C3844 1.264 . S
O3825 Tb3780 2.387 . S
O3825 C3836 1.264 . S
O3826 Tb3791 2.349 . S
O3826 C3836 1.243 . S
O3827 Tb3780 2.428 . S
O3827 C3844 1.256 . S
O3828 Tb3780 2.308 . S
O3828 C3843 1.266 . S
O3829 Tb3791 2.393 . S
O3829 C3843 1.248 . S
O3830 Tb3791 2.465 . S
O3830 C3855 1.264 . S
O3831 Tb3791 2.387 . S
O3831 C3847 1.264 . S
O3832 Tb3780 2.349 . S
O3832 C3847 1.243 . S
O3833 Tb3791 2.428 . S
O3833 C3855 1.256 . S
O3834 Tb3791 2.308 . S
O3834 C3854 1.266 . S
O3835 Tb3780 2.393 . S
O3835 C3854 1.248 . S
C3836 O3825 1.264 . S
C3836 O3826 1.243 . S
C3837 C3840 1.399 . S
C3837 C3842 1.383 . S
C3837 C3844 1.496 . S
C3838 C3839 1.399 . S
C3838 C3842 1.389 . S
C3839 C3838 1.399 . S
C3839 C3841 1.380 . S
C3839 H3856 0.929 . S
C3840 C3837 1.399 . S
C3840 C3841 1.392 . S
C3840 H3857 0.929 . S
C3841 C3839 1.380 . S
C3841 C3840 1.392 . S
C3841 H3858 0.929 . S
C3842 C3837 1.383 . S
C3842 C3838 1.389 . S
C3842 H3859 0.931 . S
C3843 O3828 1.266 . S
C3843 O3829 1.248 . S
C3844 Tb3780 2.802 . S
C3844 O3824 1.264 . S
C3844 O3827 1.256 . S
C3844 C3837 1.496 . S
C3845 C3812 1.448 . S
C3845 H3822 0.930 . S
C3845 C3846 1.328 . S
C3846 C3817 1.427 . S
C3846 H3823 0.929 . S
C3846 C3845 1.328 . S
C3847 O3831 1.264 . S
C3847 O3832 1.243 . S
C3848 C3851 1.399 . S
C3848 C3852 1.383 . S
C3848 C3855 1.496 . S
C3849 C3850 1.399 . S
C3849 C3852 1.389 . S
C3850 C3849 1.399 . S
C3850 C3853 1.380 . S
C3850 H3860 0.929 . S
C3851 C3848 1.399 . S
C3851 C3853 1.392 . S
C3851 H3861 0.929 . S
C3852 C3848 1.383 . S
C3852 C3849 1.389 . S
C3852 H3862 0.931 . S
C3853 C3850 1.380 . S
C3853 C3851 1.392 . S
C3853 H3863 0.929 . S
C3854 O3834 1.266 . S
C3854 O3835 1.248 . S
C3855 Tb3791 2.802 . S
C3855 O3830 1.264 . S
C3855 O3833 1.256 . S
C3855 C3848 1.496 . S
H3856 C3839 0.929 . S
H3857 C3840 0.929 . S
H3858 C3841 0.929 . S
H3859 C3842 0.931 . S
H3860 C3850 0.929 . S
H3861 C3851 0.929 . S
H3862 C3852 0.931 . S
H3863 C3853 0.929 . S
Tb3864 N3893 2.617 . S
Tb3864 N3899 2.572 . S
Tb3864 O3908 2.465 . S
Tb3864 O3909 2.387 . S
Tb3864 O3911 2.428 . S
Tb3864 O3912 2.308 . S
Tb3864 O3916 2.349 . S
Tb3864 O3919 2.393 . S
Tb3864 C3928 2.802 . S
C3865 N3866 1.379 . S
C3865 C3868 1.416 . S
C3865 C3872 1.424 . S
N3866 C3865 1.379 . S
N3866 C3869 1.334 . S
N3866 Tb3875 2.617 . S
C3867 C3869 1.390 . S
C3867 C3870 1.339 . S
C3867 H3887 0.930 . S
C3868 C3865 1.416 . S
C3868 C3870 1.416 . S
C3868 C3874 1.448 . S
C3869 N3866 1.334 . S
C3869 C3867 1.390 . S
C3869 H3880 0.930 . S
C3870 C3867 1.339 . S
C3870 C3868 1.416 . S
C3870 H3891 0.930 . S
C3871 C3872 1.413 . S
C3871 C3873 1.427 . S
C3871 C3877 1.416 . S
C3872 C3865 1.424 . S
C3872 C3871 1.413 . S
C3872 N3876 1.361 . S
C3873 C3871 1.427 . S
C3873 C3874 1.328 . S
C3873 H3888 0.929 . S
C3874 C3868 1.448 . S
C3874 C3873 1.328 . S
C3874 H3889 0.930 . S
Tb3875 N3866 2.617 . S
Tb3875 N3876 2.572 . S
Tb3875 O3910 2.349 . S
Tb3875 O3913 2.393 . S
Tb3875 O3914 2.465 . S
Tb3875 O3915 2.387 . S
Tb3875 O3917 2.428 . S
Tb3875 O3918 2.308 . S
Tb3875 C3939 2.802 . S
N3876 C3872 1.361 . S
N3876 Tb3875 2.572 . S
N3876 C3878 1.340 . S
C3877 C3871 1.416 . S
C3877 C3879 1.332 . S
C3877 H3885 0.931 . S
C3878 N3876 1.340 . S
C3878 C3879 1.407 . S
C3878 H3884 0.930 . S
C3879 C3877 1.332 . S
C3879 C3878 1.407 . S
C3879 H3881 0.929 . S
H3880 C3869 0.930 . S
H3881 C3879 0.929 . S
H3882 C3897 0.930 . S
H3883 C3904 0.929 . S
H3884 C3878 0.930 . S
H3885 C3877 0.931 . S
H3886 C3900 0.930 . S
H3887 C3867 0.930 . S
H3888 C3873 0.929 . S
H3889 C3874 0.930 . S
H3890 C3895 0.930 . S
H3891 C3870 0.930 . S
H3892 C3903 0.931 . S
N3893 Tb3864 2.617 . S
N3893 C3894 1.379 . S
N3893 C3897 1.334 . S
C3894 N3893 1.379 . S
C3894 C3896 1.416 . S
C3894 C3902 1.424 . S
C3895 H3890 0.930 . S
C3895 C3897 1.390 . S
C3895 C3898 1.339 . S
C3896 C3894 1.416 . S
C3896 C3898 1.416 . S
C3896 C3929 1.448 . S
C3897 H3882 0.930 . S
C3897 N3893 1.334 . S
C3897 C3895 1.390 . S
C3898 C3895 1.339 . S
C3898 C3896 1.416 . S
C3898 H3905 0.930 . S
N3899 Tb3864 2.572 . S
N3899 C3900 1.340 . S
N3899 C3902 1.361 . S
C3900 H3886 0.930 . S
C3900 N3899 1.340 . S
C3900 C3904 1.407 . S
C3901 C3902 1.413 . S
C3901 C3903 1.416 . S
C3901 C3930 1.427 . S
C3902 C3894 1.424 . S
C3902 N3899 1.361 . S
C3902 C3901 1.413 . S
C3903 H3892 0.931 . S
C3903 C3901 1.416 . S
C3903 C3904 1.332 . S
C3904 H3883 0.929 . S
C3904 C3900 1.407 . S
C3904 C3903 1.332 . S
H3905 C3898 0.930 . S
H3906 C3929 0.930 . S
H3907 C3930 0.929 . S
O3908 Tb3864 2.465 . S
O3908 C3928 1.264 . S
O3909 Tb3864 2.387 . S
O3909 C3920 1.264 . S
O3910 Tb3875 2.349 . S
O3910 C3920 1.243 . S
O3911 Tb3864 2.428 . S
O3911 C3928 1.256 . S
O3912 Tb3864 2.308 . S
O3912 C3927 1.266 . S
O3913 Tb3875 2.393 . S
O3913 C3927 1.248 . S
O3914 Tb3875 2.465 . S
O3914 C3939 1.264 . S
O3915 Tb3875 2.387 . S
O3915 C3931 1.264 . S
O3916 Tb3864 2.349 . S
O3916 C3931 1.243 . S
O3917 Tb3875 2.428 . S
O3917 C3939 1.256 . S
O3918 Tb3875 2.308 . S
O3918 C3938 1.266 . S
O3919 Tb3864 2.393 . S
O3919 C3938 1.248 . S
C3920 O3909 1.264 . S
C3920 O3910 1.243 . S
C3921 C3924 1.399 . S
C3921 C3926 1.383 . S
C3921 C3928 1.496 . S
C3922 C3923 1.399 . S
C3922 C3926 1.389 . S
C3923 C3922 1.399 . S
C3923 C3925 1.380 . S
C3923 H3940 0.929 . S
C3924 C3921 1.399 . S
C3924 C3925 1.392 . S
C3924 H3941 0.929 . S
C3925 C3923 1.380 . S
C3925 C3924 1.392 . S
C3925 H3942 0.929 . S
C3926 C3921 1.383 . S
C3926 C3922 1.389 . S
C3926 H3943 0.931 . S
C3927 O3912 1.266 . S
C3927 O3913 1.248 . S
C3928 Tb3864 2.802 . S
C3928 O3908 1.264 . S
C3928 O3911 1.256 . S
C3928 C3921 1.496 . S
C3929 C3896 1.448 . S
C3929 H3906 0.930 . S
C3929 C3930 1.328 . S
C3930 C3901 1.427 . S
C3930 H3907 0.929 . S
C3930 C3929 1.328 . S
C3931 O3915 1.264 . S
C3931 O3916 1.243 . S
C3932 C3935 1.399 . S
C3932 C3936 1.383 . S
C3932 C3939 1.496 . S
C3933 C3934 1.399 . S
C3933 C3936 1.389 . S
C3934 C3933 1.399 . S
C3934 C3937 1.380 . S
C3934 H3944 0.929 . S
C3935 C3932 1.399 . S
C3935 C3937 1.392 . S
C3935 H3945 0.929 . S
C3936 C3932 1.383 . S
C3936 C3933 1.389 . S
C3936 H3946 0.931 . S
C3937 C3934 1.380 . S
C3937 C3935 1.392 . S
C3937 H3947 0.929 . S
C3938 O3918 1.266 . S
C3938 O3919 1.248 . S
C3939 Tb3875 2.802 . S
C3939 O3914 1.264 . S
C3939 O3917 1.256 . S
C3939 C3932 1.496 . S
H3940 C3923 0.929 . S
H3941 C3924 0.929 . S
H3942 C3925 0.929 . S
H3943 C3926 0.931 . S
H3944 C3934 0.929 . S
H3945 C3935 0.929 . S
H3946 C3936 0.931 . S
H3947 C3937 0.929 . S
Tb3948 N3977 2.617 . S
Tb3948 N3983 2.572 . S
Tb3948 O3992 2.465 . S
Tb3948 O3993 2.387 . S
Tb3948 O3995 2.428 . S
Tb3948 O3996 2.308 . S
Tb3948 O4000 2.349 . S
Tb3948 O4003 2.393 . S
Tb3948 C4012 2.802 . S
C3949 N3950 1.379 . S
C3949 C3952 1.416 . S
C3949 C3956 1.424 . S
N3950 C3949 1.379 . S
N3950 C3953 1.334 . S
N3950 Tb3959 2.617 . S
C3951 C3953 1.390 . S
C3951 C3954 1.339 . S
C3951 H3971 0.930 . S
C3952 C3949 1.416 . S
C3952 C3954 1.416 . S
C3952 C3958 1.448 . S
C3953 N3950 1.334 . S
C3953 C3951 1.390 . S
C3953 H3964 0.930 . S
C3954 C3951 1.339 . S
C3954 C3952 1.416 . S
C3954 H3975 0.930 . S
C3955 C3956 1.413 . S
C3955 C3957 1.427 . S
C3955 C3961 1.416 . S
C3956 C3949 1.424 . S
C3956 C3955 1.413 . S
C3956 N3960 1.361 . S
C3957 C3955 1.427 . S
C3957 C3958 1.328 . S
C3957 H3972 0.929 . S
C3958 C3952 1.448 . S
C3958 C3957 1.328 . S
C3958 H3973 0.930 . S
Tb3959 N3950 2.617 . S
Tb3959 N3960 2.572 . S
Tb3959 O3994 2.349 . S
Tb3959 O3997 2.393 . S
Tb3959 O3998 2.465 . S
Tb3959 O3999 2.387 . S
Tb3959 O4001 2.428 . S
Tb3959 O4002 2.308 . S
Tb3959 C4023 2.802 . S
N3960 C3956 1.361 . S
N3960 Tb3959 2.572 . S
N3960 C3962 1.340 . S
C3961 C3955 1.416 . S
C3961 C3963 1.332 . S
C3961 H3969 0.931 . S
C3962 N3960 1.340 . S
C3962 C3963 1.407 . S
C3962 H3968 0.930 . S
C3963 C3961 1.332 . S
C3963 C3962 1.407 . S
C3963 H3965 0.929 . S
H3964 C3953 0.930 . S
H3965 C3963 0.929 . S
H3966 C3981 0.930 . S
H3967 C3988 0.929 . S
H3968 C3962 0.930 . S
H3969 C3961 0.931 . S
H3970 C3984 0.930 . S
H3971 C3951 0.930 . S
H3972 C3957 0.929 . S
H3973 C3958 0.930 . S
H3974 C3979 0.930 . S
H3975 C3954 0.930 . S
H3976 C3987 0.931 . S
N3977 Tb3948 2.617 . S
N3977 C3978 1.379 . S
N3977 C3981 1.334 . S
C3978 N3977 1.379 . S
C3978 C3980 1.416 . S
C3978 C3986 1.424 . S
C3979 H3974 0.930 . S
C3979 C3981 1.390 . S
C3979 C3982 1.339 . S
C3980 C3978 1.416 . S
C3980 C3982 1.416 . S
C3980 C4013 1.448 . S
C3981 H3966 0.930 . S
C3981 N3977 1.334 . S
C3981 C3979 1.390 . S
C3982 C3979 1.339 . S
C3982 C3980 1.416 . S
C3982 H3989 0.930 . S
N3983 Tb3948 2.572 . S
N3983 C3984 1.340 . S
N3983 C3986 1.361 . S
C3984 H3970 0.930 . S
C3984 N3983 1.340 . S
C3984 C3988 1.407 . S
C3985 C3986 1.413 . S
C3985 C3987 1.416 . S
C3985 C4014 1.427 . S
C3986 C3978 1.424 . S
C3986 N3983 1.361 . S
C3986 C3985 1.413 . S
C3987 H3976 0.931 . S
C3987 C3985 1.416 . S
C3987 C3988 1.332 . S
C3988 H3967 0.929 . S
C3988 C3984 1.407 . S
C3988 C3987 1.332 . S
H3989 C3982 0.930 . S
H3990 C4013 0.930 . S
H3991 C4014 0.929 . S
O3992 Tb3948 2.465 . S
O3992 C4012 1.264 . S
O3993 Tb3948 2.387 . S
O3993 C4004 1.264 . S
O3994 Tb3959 2.349 . S
O3994 C4004 1.243 . S
O3995 Tb3948 2.428 . S
O3995 C4012 1.256 . S
O3996 Tb3948 2.308 . S
O3996 C4011 1.266 . S
O3997 Tb3959 2.393 . S
O3997 C4011 1.248 . S
O3998 Tb3959 2.465 . S
O3998 C4023 1.264 . S
O3999 Tb3959 2.387 . S
O3999 C4015 1.264 . S
O4000 Tb3948 2.349 . S
O4000 C4015 1.243 . S
O4001 Tb3959 2.428 . S
O4001 C4023 1.256 . S
O4002 Tb3959 2.308 . S
O4002 C4022 1.266 . S
O4003 Tb3948 2.393 . S
O4003 C4022 1.248 . S
C4004 O3993 1.264 . S
C4004 O3994 1.243 . S
C4005 C4008 1.399 . S
C4005 C4010 1.383 . S
C4005 C4012 1.496 . S
C4006 C4007 1.399 . S
C4006 C4010 1.389 . S
C4007 C4006 1.399 . S
C4007 C4009 1.380 . S
C4007 H4024 0.929 . S
C4008 C4005 1.399 . S
C4008 C4009 1.392 . S
C4008 H4025 0.929 . S
C4009 C4007 1.380 . S
C4009 C4008 1.392 . S
C4009 H4026 0.929 . S
C4010 C4005 1.383 . S
C4010 C4006 1.389 . S
C4010 H4027 0.931 . S
C4011 O3996 1.266 . S
C4011 O3997 1.248 . S
C4012 Tb3948 2.802 . S
C4012 O3992 1.264 . S
C4012 O3995 1.256 . S
C4012 C4005 1.496 . S
C4013 C3980 1.448 . S
C4013 H3990 0.930 . S
C4013 C4014 1.328 . S
C4014 C3985 1.427 . S
C4014 H3991 0.929 . S
C4014 C4013 1.328 . S
C4015 O3999 1.264 . S
C4015 O4000 1.243 . S
C4016 C4019 1.399 . S
C4016 C4020 1.383 . S
C4016 C4023 1.496 . S
C4017 C4018 1.399 . S
C4017 C4020 1.389 . S
C4018 C4017 1.399 . S
C4018 C4021 1.380 . S
C4018 H4028 0.929 . S
C4019 C4016 1.399 . S
C4019 C4021 1.392 . S
C4019 H4029 0.929 . S
C4020 C4016 1.383 . S
C4020 C4017 1.389 . S
C4020 H4030 0.931 . S
C4021 C4018 1.380 . S
C4021 C4019 1.392 . S
C4021 H4031 0.929 . S
C4022 O4002 1.266 . S
C4022 O4003 1.248 . S
C4023 Tb3959 2.802 . S
C4023 O3998 1.264 . S
C4023 O4001 1.256 . S
C4023 C4016 1.496 . S
H4024 C4007 0.929 . S
H4025 C4008 0.929 . S
H4026 C4009 0.929 . S
H4027 C4010 0.931 . S
H4028 C4018 0.929 . S
H4029 C4019 0.929 . S
H4030 C4020 0.931 . S
H4031 C4021 0.929 . S
C4032 C4033 1.349 . S
C4032 C4034 1.327 . S
C4032 H4057 0.950 . S
C4033 C4032 1.349 . S
C4033 C4049 1.349 . S
C4034 C4032 1.327 . S
C4034 C4053 1.429 . S
C4034 H4058 0.950 . S
C4035 C4052 1.574 . S
C4035 C4054 1.368 . S
C4035 H4059 0.949 1_455 S
H4036 C4040 0.949 . S
C4037 C4038 1.349 . S
C4037 C4039 1.327 . S
C4037 H4060 0.950 1_455 S
C4038 C4037 1.349 . S
C4038 C4050 1.349 . S
C4039 C4037 1.327 . S
C4039 C4055 1.429 . S
C4039 H4061 0.950 1_455 S
C4040 H4036 0.949 . S
C4040 C4048 1.574 . S
C4040 C4056 1.368 . S
H4041 C4049 0.950 1_655 S
H4042 C4047 0.950 1_655 S
H4043 C4048 0.949 . S
H4044 C4050 0.950 . S
H4045 C4051 0.950 . S
H4046 C4052 0.949 1_655 S
C4047 H4042 0.950 1_455 S
C4047 C4049 1.327 . S
C4047 C4053 1.429 . S
C4048 C4040 1.574 . S
C4048 H4043 0.949 . S
C4048 C4054 1.368 . S
C4049 C4033 1.349 . S
C4049 H4041 0.950 1_455 S
C4049 C4047 1.327 . S
C4050 C4038 1.349 . S
C4050 H4044 0.950 . S
C4050 C4051 1.327 . S
C4051 H4045 0.950 . S
C4051 C4050 1.327 . S
C4051 C4055 1.429 . S
C4052 C4035 1.574 . S
C4052 H4046 0.949 1_455 S
C4052 C4056 1.368 . S
C4053 C4034 1.429 . S
C4053 C4047 1.429 . S
C4053 C4054 1.523 . S
C4054 C4035 1.368 . S
C4054 C4048 1.368 . S
C4054 C4053 1.523 . S
C4055 C4039 1.429 . S
C4055 C4051 1.429 . S
C4055 C4056 1.523 . S
C4056 C4040 1.368 . S
C4056 C4052 1.368 . S
C4056 C4055 1.523 . S
H4057 C4032 0.950 . S
H4058 C4034 0.950 . S
H4059 C4035 0.949 1_655 S
H4060 C4037 0.950 1_655 S
H4061 C4039 0.950 1_655 S
C4062 C4063 1.349 . S
C4062 C4064 1.327 . S
C4062 H4087 0.950 . S
C4063 C4062 1.349 . S
C4063 C4079 1.349 . S
C4064 C4062 1.327 . S
C4064 C4083 1.429 . S
C4064 H4088 0.950 . S
C4065 C4082 1.574 . S
C4065 C4084 1.368 . S
C4065 H4089 0.949 . S
H4066 C4070 0.949 . S
C4067 C4068 1.349 . S
C4067 C4069 1.327 . S
C4067 H4090 0.950 . S
C4068 C4067 1.349 . S
C4068 C4080 1.349 . S
C4069 C4067 1.327 . S
C4069 C4085 1.429 . S
C4069 H4091 0.950 . S
C4070 H4066 0.949 . S
C4070 C4078 1.574 . S
C4070 C4086 1.368 . S
H4071 C4079 0.950 . S
H4072 C4077 0.950 . S
H4073 C4078 0.949 . S
H4074 C4080 0.950 . S
H4075 C4081 0.950 . S
H4076 C4082 0.949 . S
C4077 H4072 0.950 . S
C4077 C4079 1.327 . S
C4077 C4083 1.429 . S
C4078 C4070 1.574 . S
C4078 H4073 0.949 . S
C4078 C4084 1.368 . S
C4079 C4063 1.349 . S
C4079 H4071 0.950 . S
C4079 C4077 1.327 . S
C4080 C4068 1.349 . S
C4080 H4074 0.950 . S
C4080 C4081 1.327 . S
C4081 H4075 0.950 . S
C4081 C4080 1.327 . S
C4081 C4085 1.429 . S
C4082 C4065 1.574 . S
C4082 H4076 0.949 . S
C4082 C4086 1.368 . S
C4083 C4064 1.429 . S
C4083 C4077 1.429 . S
C4083 C4084 1.523 . S
C4084 C4065 1.368 . S
C4084 C4078 1.368 . S
C4084 C4083 1.523 . S
C4085 C4069 1.429 . S
C4085 C4081 1.429 . S
C4085 C4086 1.523 . S
C4086 C4070 1.368 . S
C4086 C4082 1.368 . S
C4086 C4085 1.523 . S
H4087 C4062 0.950 . S
H4088 C4064 0.950 . S
H4089 C4065 0.949 . S
H4090 C4067 0.950 . S
H4091 C4069 0.950 . S
C4092 C4093 1.349 . S
C4092 C4094 1.327 . S
C4092 H4117 0.950 . S
C4093 C4092 1.349 . S
C4093 C4109 1.349 . S
C4094 C4092 1.327 . S
C4094 C4113 1.429 . S
C4094 H4118 0.950 . S
C4095 C4112 1.574 . S
C4095 C4114 1.368 . S
C4095 H4119 0.949 . S
H4096 C4100 0.949 . S
C4097 C4098 1.349 . S
C4097 C4099 1.327 . S
C4097 H4120 0.950 . S
C4098 C4097 1.349 . S
C4098 C4110 1.349 . S
C4099 C4097 1.327 . S
C4099 C4115 1.429 . S
C4099 H4121 0.950 . S
C4100 H4096 0.949 . S
C4100 C4108 1.574 . S
C4100 C4116 1.368 . S
H4101 C4109 0.950 . S
H4102 C4107 0.950 . S
H4103 C4108 0.949 . S
H4104 C4110 0.950 . S
H4105 C4111 0.950 . S
H4106 C4112 0.949 . S
C4107 H4102 0.950 . S
C4107 C4109 1.327 . S
C4107 C4113 1.429 . S
C4108 C4100 1.574 . S
C4108 H4103 0.949 . S
C4108 C4114 1.368 . S
C4109 C4093 1.349 . S
C4109 H4101 0.950 . S
C4109 C4107 1.327 . S
C4110 C4098 1.349 . S
C4110 H4104 0.950 . S
C4110 C4111 1.327 . S
C4111 H4105 0.950 . S
C4111 C4110 1.327 . S
C4111 C4115 1.429 . S
C4112 C4095 1.574 . S
C4112 H4106 0.949 . S
C4112 C4116 1.368 . S
C4113 C4094 1.429 . S
C4113 C4107 1.429 . S
C4113 C4114 1.523 . S
C4114 C4095 1.368 . S
C4114 C4108 1.368 . S
C4114 C4113 1.523 . S
C4115 C4099 1.429 . S
C4115 C4111 1.429 . S
C4115 C4116 1.523 . S
C4116 C4100 1.368 . S
C4116 C4112 1.368 . S
C4116 C4115 1.523 . S
H4117 C4092 0.950 . S
H4118 C4094 0.950 . S
H4119 C4095 0.949 . S
H4120 C4097 0.950 . S
H4121 C4099 0.950 . S
C4122 C4123 1.349 1_556 S
C4122 C4124 1.327 . S
C4122 H4147 0.950 . S
C4123 C4122 1.349 1_554 S
C4123 C4139 1.349 . S
C4124 C4122 1.327 . S
C4124 C4143 1.429 1_556 S
C4124 H4148 0.950 . S
C4125 C4142 1.574 . S
C4125 C4144 1.407 . S
C4125 H4149 0.949 . S
H4126 C4130 0.949 . S
C4127 C4128 1.316 1_554 S
C4127 C4129 1.327 . S
C4127 H4150 0.950 . S
C4128 C4127 1.316 1_556 S
C4128 C4140 1.383 . S
C4129 C4127 1.327 . S
C4129 C4145 1.426 1_554 S
C4129 H4151 0.950 . S
C4130 H4126 0.949 . S
C4130 C4138 1.574 . S
C4130 C4146 1.362 1_556 S
H4131 C4139 0.950 . S
H4132 C4137 0.950 . S
H4133 C4138 0.949 . S
H4134 C4140 0.950 . S
H4135 C4141 0.950 . S
H4136 C4142 0.949 . S
C4137 H4132 0.950 . S
C4137 C4139 1.327 . S
C4137 C4143 1.429 . S
C4138 C4130 1.574 . S
C4138 H4133 0.949 . S
C4138 C4144 1.331 1_556 S
C4139 C4123 1.349 . S
C4139 H4131 0.950 . S
C4139 C4137 1.327 . S
C4140 C4128 1.383 . S
C4140 H4134 0.950 . S
C4140 C4141 1.327 . S
C4141 H4135 0.950 . S
C4141 C4140 1.327 . S
C4141 C4145 1.431 . S
C4142 C4125 1.574 . S
C4142 H4136 0.949 . S
C4142 C4146 1.375 . S
C4143 C4124 1.429 1_554 S
C4143 C4137 1.429 . S
C4143 C4144 1.527 . S
C4144 C4125 1.407 . S
C4144 C4138 1.331 1_554 S
C4144 C4143 1.527 . S
C4145 C4129 1.426 1_556 S
C4145 C4141 1.431 . S
C4145 C4146 1.523 1_556 S
C4146 C4130 1.362 1_554 S
C4146 C4142 1.375 . S
C4146 C4145 1.523 1_554 S
H4147 C4122 0.950 . S
H4148 C4124 0.950 . S
H4149 C4125 0.949 . S
H4150 C4127 0.950 . S
H4151 C4129 0.950 . S
C4152 C4153 1.349 . S
C4152 C4154 1.327 . S
C4152 H4177 0.950 . S
C4153 C4152 1.349 . S
C4153 C4169 1.349 1_545 S
C4154 C4152 1.327 . S
C4154 C4173 1.429 . S
C4154 H4178 0.950 . S
C4155 C4172 1.574 . S
C4155 C4174 1.368 1_565 S
C4155 H4179 0.949 . S
H4156 C4160 0.949 . S
C4157 C4158 1.349 1_565 S
C4157 C4159 1.327 . S
C4157 H4180 0.950 . S
C4158 C4157 1.349 1_545 S
C4158 C4170 1.349 . S
C4159 C4157 1.327 . S
C4159 C4175 1.429 1_565 S
C4159 H4181 0.950 . S
C4160 H4156 0.949 . S
C4160 C4168 1.574 . S
C4160 C4176 1.368 . S
H4161 C4169 0.950 . S
H4162 C4167 0.950 . S
H4163 C4168 0.949 . S
H4164 C4170 0.950 . S
H4165 C4171 0.950 . S
H4166 C4172 0.949 . S
C4167 H4162 0.950 . S
C4167 C4169 1.327 . S
C4167 C4173 1.429 1_565 S
C4168 C4160 1.574 . S
C4168 H4163 0.949 . S
C4168 C4174 1.368 . S
C4169 C4153 1.349 1_565 S
C4169 H4161 0.950 . S
C4169 C4167 1.327 . S
C4170 C4158 1.349 . S
C4170 H4164 0.950 . S
C4170 C4171 1.327 . S
C4171 H4165 0.950 . S
C4171 C4170 1.327 . S
C4171 C4175 1.429 . S
C4172 C4155 1.574 . S
C4172 H4166 0.949 . S
C4172 C4176 1.368 1_565 S
C4173 C4154 1.429 . S
C4173 C4167 1.429 1_545 S
C4173 C4174 1.523 . S
C4174 C4155 1.368 1_545 S
C4174 C4168 1.368 . S
C4174 C4173 1.523 . S
C4175 C4159 1.429 1_545 S
C4175 C4171 1.429 . S
C4175 C4176 1.523 . S
C4176 C4160 1.368 . S
C4176 C4172 1.368 1_545 S
C4176 C4175 1.523 . S
H4177 C4152 0.950 . S
H4178 C4154 0.950 . S
H4179 C4155 0.949 . S
H4180 C4157 0.950 . S
H4181 C4159 0.950 . S
C4182 C4183 1.349 1_545 S
C4182 C4184 1.327 . S
C4182 H4207 0.950 . S
C4183 C4182 1.349 1_565 S
C4183 C4199 1.349 . S
C4184 C4182 1.327 . S
C4184 C4203 1.429 1_545 S
C4184 H4208 0.950 . S
C4185 C4202 1.574 . S
C4185 C4204 1.368 . S
C4185 H4209 0.949 . S
H4186 C4190 0.949 . S
C4187 C4188 1.360 . S
C4187 C4189 1.327 . S
C4187 H4210 0.950 . S
C4188 C4187 1.360 . S
C4188 C4200 1.338 1_565 S
C4189 C4187 1.327 . S
C4189 C4205 1.468 . S
C4189 H4211 0.950 . S
C4190 H4186 0.949 . S
C4190 C4198 1.574 . S
C4190 C4206 1.368 1_545 S
H4191 C4199 0.950 . S
H4192 C4197 0.950 . S
H4193 C4198 0.949 . S
H4194 C4200 0.950 . S
H4195 C4201 0.950 . S
H4196 C4202 0.949 . S
C4197 H4192 0.950 . S
C4197 C4199 1.327 . S
C4197 C4203 1.429 . S
C4198 C4190 1.574 . S
C4198 H4193 0.949 . S
C4198 C4204 1.368 1_545 S
C4199 C4183 1.349 . S
C4199 H4191 0.950 . S
C4199 C4197 1.327 . S
C4200 C4188 1.338 1_545 S
C4200 H4194 0.950 . S
C4200 C4201 1.327 . S
C4201 H4195 0.950 . S
C4201 C4200 1.327 . S
C4201 C4205 1.390 1_545 S
C4202 C4185 1.574 . S
C4202 H4196 0.949 . S
C4202 C4206 1.368 . S
C4203 C4184 1.429 1_565 S
C4203 C4197 1.429 . S
C4203 C4204 1.523 . S
C4204 C4185 1.368 . S
C4204 C4198 1.368 1_565 S
C4204 C4203 1.523 . S
C4205 C4189 1.468 . S
C4205 C4201 1.390 1_565 S
C4205 C4206 1.525 . S
C4206 C4190 1.368 1_565 S
C4206 C4202 1.368 . S
C4206 C4205 1.525 . S
H4207 C4182 0.950 . S
H4208 C4184 0.950 . S
H4209 C4185 0.949 . S
H4210 C4187 0.950 . S
H4211 C4189 0.950 . S
C4212 C4213 1.349 . S
C4212 C4214 1.327 . S
C4212 H4237 0.950 . S
C4213 C4212 1.349 . S
C4213 C4229 1.349 1_565 S
C4214 C4212 1.327 . S
C4214 C4233 1.429 . S
C4214 H4238 0.950 . S
C4215 C4232 1.574 1_554 S
C4215 C4234 1.368 1_545 S
C4215 H4239 0.949 . S
H4216 C4220 0.949 . S
C4217 C4218 1.349 1_545 S
C4217 C4219 1.327 . S
C4217 H4240 0.950 . S
C4218 C4217 1.349 1_565 S
C4218 C4230 1.349 . S
C4219 C4217 1.327 . S
C4219 C4235 1.429 1_545 S
C4219 H4241 0.950 . S
C4220 H4216 0.949 . S
C4220 C4228 1.574 1_556 S
C4220 C4236 1.368 . S
H4221 C4229 0.950 . S
H4222 C4227 0.950 . S
H4223 C4228 0.949 . S
H4224 C4230 0.950 . S
H4225 C4231 0.950 . S
H4226 C4232 0.949 . S
C4227 H4222 0.950 . S
C4227 C4229 1.327 . S
C4227 C4233 1.429 1_545 S
C4228 C4220 1.574 1_554 S
C4228 H4223 0.949 . S
C4228 C4234 1.368 . S
C4229 C4213 1.349 1_545 S
C4229 H4221 0.950 . S
C4229 C4227 1.327 . S
C4230 C4218 1.349 . S
C4230 H4224 0.950 . S
C4230 C4231 1.327 . S
C4231 H4225 0.950 . S
C4231 C4230 1.327 . S
C4231 C4235 1.429 . S
C4232 C4215 1.574 1_556 S
C4232 H4226 0.949 . S
C4232 C4236 1.368 1_545 S
C4233 C4214 1.429 . S
C4233 C4227 1.429 1_565 S
C4233 C4234 1.523 . S
C4234 C4215 1.368 1_565 S
C4234 C4228 1.368 . S
C4234 C4233 1.523 . S
C4235 C4219 1.429 1_565 S
C4235 C4231 1.429 . S
C4235 C4236 1.523 . S
C4236 C4220 1.368 . S
C4236 C4232 1.368 1_565 S
C4236 C4235 1.523 . S
H4237 C4212 0.950 . S
H4238 C4214 0.950 . S
H4239 C4215 0.949 . S
H4240 C4217 0.950 . S
H4241 C4219 0.950 . S
C4242 C4243 1.359 . S
C4242 C4244 1.327 . S
C4242 H4267 0.950 . S
C4243 C4242 1.359 . S
C4243 C4259 1.339 1_565 S
C4244 C4242 1.327 . S
C4244 C4263 1.472 . S
C4244 H4268 0.950 . S
C4245 C4262 1.574 . S
C4245 C4264 1.368 1_545 S
C4245 H4269 0.949 . S
H4246 C4250 0.949 . S
C4247 C4248 1.349 1_545 S
C4247 C4249 1.327 . S
C4247 H4270 0.950 . S
C4248 C4247 1.349 1_565 S
C4248 C4260 1.349 . S
C4249 C4247 1.327 . S
C4249 C4265 1.429 1_545 S
C4249 H4271 0.950 . S
C4250 H4246 0.949 . S
C4250 C4258 1.574 . S
C4250 C4266 1.368 . S
H4251 C4259 0.950 . S
H4252 C4257 0.950 . S
H4253 C4258 0.949 . S
H4254 C4260 0.950 . S
H4255 C4261 0.950 . S
H4256 C4262 0.949 . S
C4257 H4252 0.950 . S
C4257 C4259 1.327 . S
C4257 C4263 1.385 1_545 S
C4258 C4250 1.574 . S
C4258 H4253 0.949 . S
C4258 C4264 1.368 . S
C4259 C4243 1.339 1_545 S
C4259 H4251 0.950 . S
C4259 C4257 1.327 . S
C4260 C4248 1.349 . S
C4260 H4254 0.950 . S
C4260 C4261 1.327 . S
C4261 H4255 0.950 . S
C4261 C4260 1.327 . S
C4261 C4265 1.429 . S
C4262 C4245 1.574 . S
C4262 H4256 0.949 . S
C4262 C4266 1.368 1_545 S
C4263 C4244 1.472 . S
C4263 C4257 1.385 1_565 S
C4263 C4264 1.525 . S
C4264 C4245 1.368 1_565 S
C4264 C4258 1.368 . S
C4264 C4263 1.525 . S
C4265 C4249 1.429 1_565 S
C4265 C4261 1.429 . S
C4265 C4266 1.523 . S
C4266 C4250 1.368 . S
C4266 C4262 1.368 1_565 S
C4266 C4265 1.523 . S
H4267 C4242 0.950 . S
H4268 C4244 0.950 . S
H4269 C4245 0.949 . S
H4270 C4247 0.950 . S
H4271 C4249 0.950 . S
C4272 C4273 1.349 1_556 S
C4272 C4274 1.327 . S
C4272 H4297 0.950 . S
C4273 C4272 1.349 1_554 S
C4273 C4289 1.349 . S
C4274 C4272 1.327 . S
C4274 C4293 1.429 1_556 S
C4274 H4298 0.950 . S
C4275 C4292 1.574 . S
C4275 C4294 1.368 . S
C4275 H4299 0.949 . S
H4276 C4280 0.949 . S
C4277 C4278 1.349 . S
C4277 C4279 1.327 . S
C4277 H4300 0.950 . S
C4278 C4277 1.349 . S
C4278 C4290 1.349 1_554 S
C4279 C4277 1.327 . S
C4279 C4295 1.429 . S
C4279 H4301 0.950 . S
C4280 H4276 0.949 . S
C4280 C4288 1.574 . S
C4280 C4296 1.368 1_556 S
H4281 C4289 0.950 . S
H4282 C4287 0.950 . S
H4283 C4288 0.949 . S
H4284 C4290 0.950 . S
H4285 C4291 0.950 . S
H4286 C4292 0.949 . S
C4287 H4282 0.950 . S
C4287 C4289 1.327 . S
C4287 C4293 1.429 . S
C4288 C4280 1.574 . S
C4288 H4283 0.949 . S
C4288 C4294 1.368 1_556 S
C4289 C4273 1.349 . S
C4289 H4281 0.950 . S
C4289 C4287 1.327 . S
C4290 C4278 1.349 1_556 S
C4290 H4284 0.950 . S
C4290 C4291 1.327 . S
C4291 H4285 0.950 . S
C4291 C4290 1.327 . S
C4291 C4295 1.429 1_556 S
C4292 C4275 1.574 . S
C4292 H4286 0.949 . S
C4292 C4296 1.368 . S
C4293 C4274 1.429 1_554 S
C4293 C4287 1.429 . S
C4293 C4294 1.523 . S
C4294 C4275 1.368 . S
C4294 C4288 1.368 1_554 S
C4294 C4293 1.523 . S
C4295 C4279 1.429 . S
C4295 C4291 1.429 1_554 S
C4295 C4296 1.523 . S
C4296 C4280 1.368 1_554 S
C4296 C4292 1.368 . S
C4296 C4295 1.523 . S
H4297 C4272 0.950 . S
H4298 C4274 0.950 . S
H4299 C4275 0.949 . S
H4300 C4277 0.950 . S
H4301 C4279 0.950 . S
C4302 C4303 1.349 . S
C4302 C4304 1.327 . S
C4302 H4327 0.950 . S
C4303 C4302 1.349 . S
C4303 C4319 1.349 1_556 S
C4304 C4302 1.327 . S
C4304 C4323 1.429 . S
C4304 H4328 0.950 . S
C4305 C4322 1.574 1_655 S
C4305 C4324 1.368 1_554 S
C4305 H4329 0.949 . S
H4306 C4310 0.949 . S
C4307 C4308 1.349 1_554 S
C4307 C4309 1.327 . S
C4307 H4330 0.950 . S
C4308 C4307 1.349 1_556 S
C4308 C4320 1.349 . S
C4309 C4307 1.327 . S
C4309 C4325 1.429 1_554 S
C4309 H4331 0.950 . S
C4310 H4306 0.949 . S
C4310 C4318 1.574 1_455 S
C4310 C4326 1.368 . S
H4311 C4319 0.950 . S
H4312 C4317 0.950 . S
H4313 C4318 0.949 . S
H4314 C4320 0.950 . S
H4315 C4321 0.950 . S
H4316 C4322 0.949 . S
C4317 H4312 0.950 . S
C4317 C4319 1.327 . S
C4317 C4323 1.429 1_554 S
C4318 C4310 1.574 1_655 S
C4318 H4313 0.949 . S
C4318 C4324 1.368 . S
C4319 C4303 1.349 1_554 S
C4319 H4311 0.950 . S
C4319 C4317 1.327 . S
C4320 C4308 1.349 . S
C4320 H4314 0.950 . S
C4320 C4321 1.327 . S
C4321 H4315 0.950 . S
C4321 C4320 1.327 . S
C4321 C4325 1.429 . S
C4322 C4305 1.574 1_455 S
C4322 H4316 0.949 . S
C4322 C4326 1.368 1_554 S
C4323 C4304 1.429 . S
C4323 C4317 1.429 1_556 S
C4323 C4324 1.523 . S
C4324 C4305 1.368 1_556 S
C4324 C4318 1.368 . S
C4324 C4323 1.523 . S
C4325 C4309 1.429 1_556 S
C4325 C4321 1.429 . S
C4325 C4326 1.523 . S
C4326 C4310 1.368 . S
C4326 C4322 1.368 1_556 S
C4326 C4325 1.523 . S
H4327 C4302 0.950 . S
H4328 C4304 0.950 . S
H4329 C4305 0.949 . S
H4330 C4307 0.950 . S
H4331 C4309 0.950 . S
C4332 C4333 1.369 . S
C4332 C4334 1.327 . S
C4332 H4357 0.950 . S
C4333 C4332 1.369 . S
C4333 C4349 1.329 1_655 S
C4334 C4332 1.327 . S
C4334 C4353 1.437 . S
C4334 H4358 0.950 . S
C4335 C4352 1.574 . S
C4335 C4354 1.366 1_455 S
C4335 H4359 0.949 . S
H4336 C4340 0.949 . S
C4337 C4338 1.367 . S
C4337 C4339 1.327 . S
C4337 H4360 0.950 . S
C4338 C4337 1.367 . S
C4338 C4350 1.331 1_455 S
C4339 C4337 1.327 . S
C4339 C4355 1.435 . S
C4339 H4361 0.950 . S
C4340 H4336 0.949 . S
C4340 C4348 1.574 . S
C4340 C4356 1.368 1_655 S
H4341 C4349 0.950 . S
H4342 C4347 0.950 . S
H4343 C4348 0.949 . S
H4344 C4350 0.950 . S
H4345 C4351 0.950 . S
H4346 C4352 0.949 . S
C4347 H4342 0.950 . S
C4347 C4349 1.327 . S
C4347 C4353 1.421 1_455 S
C4348 C4340 1.574 . S
C4348 H4343 0.949 . S
C4348 C4354 1.370 . S
C4349 C4333 1.329 1_455 S
C4349 H4341 0.950 . S
C4349 C4347 1.327 . S
C4350 C4338 1.331 1_655 S
C4350 H4344 0.950 . S
C4350 C4351 1.327 . S
C4351 H4345 0.950 . S
C4351 C4350 1.327 . S
C4351 C4355 1.422 1_655 S
C4352 C4335 1.574 . S
C4352 H4346 0.949 . S
C4352 C4356 1.369 . S
C4353 C4334 1.437 . S
C4353 C4347 1.421 1_655 S
C4353 C4354 1.523 . S
C4354 C4335 1.366 1_655 S
C4354 C4348 1.370 . S
C4354 C4353 1.523 . S
C4355 C4339 1.435 . S
C4355 C4351 1.422 1_455 S
C4355 C4356 1.523 . S
C4356 C4340 1.368 1_455 S
C4356 C4352 1.369 . S
C4356 C4355 1.523 . S
H4357 C4332 0.950 . S
H4358 C4334 0.950 . S
H4359 C4335 0.949 . S
H4360 C4337 0.950 . S
H4361 C4339 0.950 . S
C4362 C4363 1.349 . S
C4362 C4364 1.327 . S
C4362 H4387 0.950 . S
C4363 C4362 1.349 . S
C4363 C4379 1.349 . S
C4364 C4362 1.327 . S
C4364 C4383 1.429 . S
C4364 H4388 0.950 . S
C4365 C4382 1.574 . S
C4365 C4384 1.368 . S
C4365 H4389 0.949 . S
H4366 C4370 0.949 . S
C4367 C4368 1.349 . S
C4367 C4369 1.327 . S
C4367 H4390 0.950 . S
C4368 C4367 1.349 . S
C4368 C4380 1.349 . S
C4369 C4367 1.327 . S
C4369 C4385 1.429 . S
C4369 H4391 0.950 . S
C4370 H4366 0.949 . S
C4370 C4378 1.574 . S
C4370 C4386 1.368 . S
H4371 C4379 0.950 . S
H4372 C4377 0.950 . S
H4373 C4378 0.949 . S
H4374 C4380 0.950 . S
H4375 C4381 0.950 . S
H4376 C4382 0.949 . S
C4377 H4372 0.950 . S
C4377 C4379 1.327 . S
C4377 C4383 1.429 . S
C4378 C4370 1.574 . S
C4378 H4373 0.949 . S
C4378 C4384 1.368 . S
C4379 C4363 1.349 . S
C4379 H4371 0.950 . S
C4379 C4377 1.327 . S
C4380 C4368 1.349 . S
C4380 H4374 0.950 . S
C4380 C4381 1.327 . S
C4381 H4375 0.950 . S
C4381 C4380 1.327 . S
C4381 C4385 1.429 . S
C4382 C4365 1.574 . S
C4382 H4376 0.949 . S
C4382 C4386 1.368 . S
C4383 C4364 1.429 . S
C4383 C4377 1.429 . S
C4383 C4384 1.523 . S
C4384 C4365 1.368 . S
C4384 C4378 1.368 . S
C4384 C4383 1.523 . S
C4385 C4369 1.429 . S
C4385 C4381 1.429 . S
C4385 C4386 1.523 . S
C4386 C4370 1.368 . S
C4386 C4382 1.368 . S
C4386 C4385 1.523 . S
H4387 C4362 0.950 . S
H4388 C4364 0.950 . S
H4389 C4365 0.949 . S
H4390 C4367 0.950 . S
H4391 C4369 0.950 . S
C4392 C4393 1.349 . S
C4392 C4394 1.327 . S
C4392 H4417 0.950 . S
C4393 C4392 1.349 . S
C4393 C4409 1.349 . S
C4394 C4392 1.327 . S
C4394 C4413 1.429 . S
C4394 H4418 0.950 . S
C4395 C4412 1.574 1_655 S
C4395 C4414 1.368 . S
C4395 H4419 0.949 . S
H4396 C4400 0.949 . S
C4397 C4398 1.349 . S
C4397 C4399 1.327 . S
C4397 H4420 0.950 . S
C4398 C4397 1.349 . S
C4398 C4410 1.349 . S
C4399 C4397 1.327 . S
C4399 C4415 1.429 . S
C4399 H4421 0.950 . S
C4400 H4396 0.949 . S
C4400 C4408 1.574 1_455 S
C4400 C4416 1.368 . S
H4401 C4409 0.950 . S
H4402 C4407 0.950 . S
H4403 C4408 0.949 . S
H4404 C4410 0.950 . S
H4405 C4411 0.950 . S
H4406 C4412 0.949 . S
C4407 H4402 0.950 . S
C4407 C4409 1.327 . S
C4407 C4413 1.429 . S
C4408 C4400 1.574 1_655 S
C4408 H4403 0.949 . S
C4408 C4414 1.368 . S
C4409 C4393 1.349 . S
C4409 H4401 0.950 . S
C4409 C4407 1.327 . S
C4410 C4398 1.349 . S
C4410 H4404 0.950 . S
C4410 C4411 1.327 . S
C4411 H4405 0.950 . S
C4411 C4410 1.327 . S
C4411 C4415 1.429 . S
C4412 C4395 1.574 1_455 S
C4412 H4406 0.949 . S
C4412 C4416 1.368 . S
C4413 C4394 1.429 . S
C4413 C4407 1.429 . S
C4413 C4414 1.523 . S
C4414 C4395 1.368 . S
C4414 C4408 1.368 . S
C4414 C4413 1.523 . S
C4415 C4399 1.429 . S
C4415 C4411 1.429 . S
C4415 C4416 1.523 . S
C4416 C4400 1.368 . S
C4416 C4412 1.368 . S
C4416 C4415 1.523 . S
H4417 C4392 0.950 . S
H4418 C4394 0.950 . S
H4419 C4395 0.949 . S
H4420 C4397 0.950 . S
H4421 C4399 0.950 . S
C4422 C4423 1.349 . S
C4422 C4424 1.327 . S
C4422 H4447 0.950 . S
C4423 C4422 1.349 . S
C4423 C4439 1.349 1_455 S
C4424 C4422 1.327 . S
C4424 C4443 1.429 . S
C4424 H4448 0.950 . S
C4425 C4442 1.574 . S
C4425 C4444 1.368 1_655 S
C4425 H4449 0.949 . S
H4426 C4430 0.949 . S
C4427 C4428 1.325 1_655 S
C4427 C4429 1.327 . S
C4427 H4450 0.950 . S
C4428 C4427 1.325 1_455 S
C4428 C4440 1.374 . S
C4429 C4427 1.327 . S
C4429 C4445 1.392 1_655 S
C4429 H4451 0.950 . S
C4430 H4426 0.949 . S
C4430 C4438 1.574 . S
C4430 C4446 1.368 . S
H4431 C4439 0.950 . S
H4432 C4437 0.950 . S
H4433 C4438 0.949 . S
H4434 C4440 0.950 . S
H4435 C4441 0.950 . S
H4436 C4442 0.949 . S
C4437 H4432 0.950 . S
C4437 C4439 1.327 . S
C4437 C4443 1.429 1_655 S
C4438 C4430 1.574 . S
C4438 H4433 0.949 . S
C4438 C4444 1.368 . S
C4439 C4423 1.349 1_655 S
C4439 H4431 0.950 . S
C4439 C4437 1.327 . S
C4440 C4428 1.374 . S
C4440 H4434 0.950 . S
C4440 C4441 1.327 . S
C4441 H4435 0.950 . S
C4441 C4440 1.327 . S
C4441 C4445 1.467 . S
C4442 C4425 1.574 . S
C4442 H4436 0.949 . S
C4442 C4446 1.368 1_655 S
C4443 C4424 1.429 . S
C4443 C4437 1.429 1_455 S
C4443 C4444 1.523 . S
C4444 C4425 1.368 1_455 S
C4444 C4438 1.368 . S
C4444 C4443 1.523 . S
C4445 C4429 1.392 1_455 S
C4445 C4441 1.467 . S
C4445 C4446 1.525 . S
C4446 C4430 1.368 . S
C4446 C4442 1.368 1_455 S
C4446 C4445 1.525 . S
H4447 C4422 0.950 . S
H4448 C4424 0.950 . S
H4449 C4425 0.949 . S
H4450 C4427 0.950 . S
H4451 C4429 0.950 . S
C4452 C4453 1.349 . S
C4452 C4454 1.327 . S
C4452 H4477 0.950 . S
C4453 C4452 1.349 . S
C4453 C4469 1.349 . S
C4454 C4452 1.327 . S
C4454 C4473 1.429 . S
C4454 H4478 0.950 . S
C4455 C4472 1.574 . S
C4455 C4474 1.368 . S
C4455 H4479 0.949 . S
H4456 C4460 0.949 . S
C4457 C4458 1.349 . S
C4457 C4459 1.327 . S
C4457 H4480 0.950 . S
C4458 C4457 1.349 . S
C4458 C4470 1.349 . S
C4459 C4457 1.327 . S
C4459 C4475 1.429 . S
C4459 H4481 0.950 . S
C4460 H4456 0.949 . S
C4460 C4468 1.574 . S
C4460 C4476 1.368 . S
H4461 C4469 0.950 . S
H4462 C4467 0.950 . S
H4463 C4468 0.949 . S
H4464 C4470 0.950 . S
H4465 C4471 0.950 . S
H4466 C4472 0.949 . S
C4467 H4462 0.950 . S
C4467 C4469 1.327 . S
C4467 C4473 1.429 . S
C4468 C4460 1.574 . S
C4468 H4463 0.949 . S
C4468 C4474 1.368 . S
C4469 C4453 1.349 . S
C4469 H4461 0.950 . S
C4469 C4467 1.327 . S
C4470 C4458 1.349 . S
C4470 H4464 0.950 . S
C4470 C4471 1.327 . S
C4471 H4465 0.950 . S
C4471 C4470 1.327 . S
C4471 C4475 1.429 . S
C4472 C4455 1.574 . S
C4472 H4466 0.949 . S
C4472 C4476 1.368 . S
C4473 C4454 1.429 . S
C4473 C4467 1.429 . S
C4473 C4474 1.523 . S
C4474 C4455 1.368 . S
C4474 C4468 1.368 . S
C4474 C4473 1.523 . S
C4475 C4459 1.429 . S
C4475 C4471 1.429 . S
C4475 C4476 1.523 . S
C4476 C4460 1.368 . S
C4476 C4472 1.368 . S
C4476 C4475 1.523 . S
H4477 C4452 0.950 . S
H4478 C4454 0.950 . S
H4479 C4455 0.949 . S
H4480 C4457 0.950 . S
H4481 C4459 0.950 . S
C4482 C4483 1.349 . S
C4482 C4484 1.327 . S
C4482 H4507 0.950 . S
C4483 C4482 1.349 . S
C4483 C4499 1.349 . S
C4484 C4482 1.327 . S
C4484 C4503 1.429 . S
C4484 H4508 0.950 . S
C4485 C4502 1.574 . S
C4485 C4504 1.368 . S
C4485 H4509 0.949 1_655 S
H4486 C4490 0.949 . S
C4487 C4488 1.349 . S
C4487 C4489 1.327 . S
C4487 H4510 0.950 1_655 S
C4488 C4487 1.349 . S
C4488 C4500 1.349 . S
C4489 C4487 1.327 . S
C4489 C4505 1.429 . S
C4489 H4511 0.950 1_655 S
C4490 H4486 0.949 . S
C4490 C4498 1.574 . S
C4490 C4506 1.368 . S
H4491 C4499 0.950 1_455 S
H4492 C4497 0.950 1_455 S
H4493 C4498 0.949 . S
H4494 C4500 0.950 . S
H4495 C4501 0.950 . S
H4496 C4502 0.949 1_455 S
C4497 H4492 0.950 1_655 S
C4497 C4499 1.327 . S
C4497 C4503 1.429 . S
C4498 C4490 1.574 . S
C4498 H4493 0.949 . S
C4498 C4504 1.368 . S
C4499 C4483 1.349 . S
C4499 H4491 0.950 1_655 S
C4499 C4497 1.327 . S
C4500 C4488 1.349 . S
C4500 H4494 0.950 . S
C4500 C4501 1.327 . S
C4501 H4495 0.950 . S
C4501 C4500 1.327 . S
C4501 C4505 1.429 . S
C4502 C4485 1.574 . S
C4502 H4496 0.949 1_655 S
C4502 C4506 1.368 . S
C4503 C4484 1.429 . S
C4503 C4497 1.429 . S
C4503 C4504 1.523 . S
C4504 C4485 1.368 . S
C4504 C4498 1.368 . S
C4504 C4503 1.523 . S
C4505 C4489 1.429 . S
C4505 C4501 1.429 . S
C4505 C4506 1.523 . S
C4506 C4490 1.368 . S
C4506 C4502 1.368 . S
C4506 C4505 1.523 . S
H4507 C4482 0.950 . S
H4508 C4484 0.950 . S
H4509 C4485 0.949 1_455 S
H4510 C4487 0.950 1_455 S
H4511 C4489 0.950 1_455 S
C4512 C4513 1.349 . S
C4512 C4514 1.327 . S
C4512 H4537 0.950 . S
C4513 C4512 1.349 . S
C4513 C4529 1.349 . S
C4514 C4512 1.327 . S
C4514 C4533 1.429 . S
C4514 H4538 0.950 . S
C4515 C4532 1.574 . S
C4515 C4534 1.368 . S
C4515 H4539 0.949 . S
H4516 C4520 0.949 . S
C4517 C4518 1.349 . S
C4517 C4519 1.327 . S
C4517 H4540 0.950 . S
C4518 C4517 1.349 . S
C4518 C4530 1.349 . S
C4519 C4517 1.327 . S
C4519 C4535 1.429 . S
C4519 H4541 0.950 . S
C4520 H4516 0.949 . S
C4520 C4528 1.574 . S
C4520 C4536 1.368 . S
H4521 C4529 0.950 . S
H4522 C4527 0.950 . S
H4523 C4528 0.949 . S
H4524 C4530 0.950 . S
H4525 C4531 0.950 . S
H4526 C4532 0.949 . S
C4527 H4522 0.950 . S
C4527 C4529 1.327 . S
C4527 C4533 1.429 . S
C4528 C4520 1.574 . S
C4528 H4523 0.949 . S
C4528 C4534 1.368 . S
C4529 C4513 1.349 . S
C4529 H4521 0.950 . S
C4529 C4527 1.327 . S
C4530 C4518 1.349 . S
C4530 H4524 0.950 . S
C4530 C4531 1.327 . S
C4531 H4525 0.950 . S
C4531 C4530 1.327 . S
C4531 C4535 1.429 . S
C4532 C4515 1.574 . S
C4532 H4526 0.949 . S
C4532 C4536 1.368 . S
C4533 C4514 1.429 . S
C4533 C4527 1.429 . S
C4533 C4534 1.523 . S
C4534 C4515 1.368 . S
C4534 C4528 1.368 . S
C4534 C4533 1.523 . S
C4535 C4519 1.429 . S
C4535 C4531 1.429 . S
C4535 C4536 1.523 . S
C4536 C4520 1.368 . S
C4536 C4532 1.368 . S
C4536 C4535 1.523 . S
H4537 C4512 0.950 . S
H4538 C4514 0.950 . S
H4539 C4515 0.949 . S
H4540 C4517 0.950 . S
H4541 C4519 0.950 . S
C4542 C4543 1.349 . S
C4542 C4544 1.327 . S
C4542 H4567 0.950 . S
C4543 C4542 1.349 . S
C4543 C4559 1.349 . S
C4544 C4542 1.327 . S
C4544 C4563 1.429 . S
C4544 H4568 0.950 . S
C4545 C4562 1.574 . S
C4545 C4564 1.368 . S
C4545 H4569 0.949 . S
H4546 C4550 0.949 . S
C4547 C4548 1.349 . S
C4547 C4549 1.327 . S
C4547 H4570 0.950 . S
C4548 C4547 1.349 . S
C4548 C4560 1.349 . S
C4549 C4547 1.327 . S
C4549 C4565 1.429 . S
C4549 H4571 0.950 . S
C4550 H4546 0.949 . S
C4550 C4558 1.574 . S
C4550 C4566 1.368 . S
H4551 C4559 0.950 . S
H4552 C4557 0.950 . S
H4553 C4558 0.949 . S
H4554 C4560 0.950 . S
H4555 C4561 0.950 . S
H4556 C4562 0.949 . S
C4557 H4552 0.950 . S
C4557 C4559 1.327 . S
C4557 C4563 1.429 . S
C4558 C4550 1.574 . S
C4558 H4553 0.949 . S
C4558 C4564 1.368 . S
C4559 C4543 1.349 . S
C4559 H4551 0.950 . S
C4559 C4557 1.327 . S
C4560 C4548 1.349 . S
C4560 H4554 0.950 . S
C4560 C4561 1.327 . S
C4561 H4555 0.950 . S
C4561 C4560 1.327 . S
C4561 C4565 1.429 . S
C4562 C4545 1.574 . S
C4562 H4556 0.949 . S
C4562 C4566 1.368 . S
C4563 C4544 1.429 . S
C4563 C4557 1.429 . S
C4563 C4564 1.523 . S
C4564 C4545 1.368 . S
C4564 C4558 1.368 . S
C4564 C4563 1.523 . S
C4565 C4549 1.429 . S
C4565 C4561 1.429 . S
C4565 C4566 1.523 . S
C4566 C4550 1.368 . S
C4566 C4562 1.368 . S
C4566 C4565 1.523 . S
H4567 C4542 0.950 . S
H4568 C4544 0.950 . S
H4569 C4545 0.949 . S
H4570 C4547 0.950 . S
H4571 C4549 0.950 . S
C4572 C4573 1.380 . S
C4572 C4574 1.327 . S
C4572 H4597 0.950 . S
C4573 C4572 1.380 . S
C4573 C4589 1.319 1_554 S
C4574 C4572 1.327 . S
C4574 C4593 1.431 . S
C4574 H4598 0.950 . S
C4575 C4592 1.574 . S
C4575 C4594 1.374 . S
C4575 H4599 0.949 . S
H4576 C4580 0.949 . S
C4577 C4578 1.349 . S
C4577 C4579 1.327 . S
C4577 H4600 0.950 . S
C4578 C4577 1.349 . S
C4578 C4590 1.349 1_556 S
C4579 C4577 1.327 . S
C4579 C4595 1.429 . S
C4579 H4601 0.950 . S
C4580 H4576 0.949 . S
C4580 C4588 1.574 . S
C4580 C4596 1.335 1_554 S
H4581 C4589 0.950 . S
H4582 C4587 0.950 . S
H4583 C4588 0.949 . S
H4584 C4590 0.950 . S
H4585 C4591 0.950 . S
H4586 C4592 0.949 . S
C4587 H4582 0.950 . S
C4587 C4589 1.327 . S
C4587 C4593 1.426 1_556 S
C4588 C4580 1.574 . S
C4588 H4583 0.949 . S
C4588 C4594 1.363 1_554 S
C4589 C4573 1.319 1_556 S
C4589 H4581 0.950 . S
C4589 C4587 1.327 . S
C4590 C4578 1.349 1_554 S
C4590 H4584 0.950 . S
C4590 C4591 1.327 . S
C4591 H4585 0.950 . S
C4591 C4590 1.327 . S
C4591 C4595 1.429 1_554 S
C4592 C4575 1.574 . S
C4592 H4586 0.949 . S
C4592 C4596 1.403 . S
C4593 C4574 1.431 . S
C4593 C4587 1.426 1_554 S
C4593 C4594 1.523 1_554 S
C4594 C4575 1.374 . S
C4594 C4588 1.363 1_556 S
C4594 C4593 1.523 1_556 S
C4595 C4579 1.429 . S
C4595 C4591 1.429 1_556 S
C4595 C4596 1.527 . S
C4596 C4580 1.335 1_556 S
C4596 C4592 1.403 . S
C4596 C4595 1.527 . S
H4597 C4572 0.950 . S
H4598 C4574 0.950 . S
H4599 C4575 0.949 . S
H4600 C4577 0.950 . S
H4601 C4579 0.950 . S
C4602 C4603 1.349 . S
C4602 C4604 1.327 . S
C4602 H4627 0.950 . S
C4603 C4602 1.349 . S
C4603 C4619 1.349 1_565 S
C4604 C4602 1.327 . S
C4604 C4623 1.429 . S
C4604 H4628 0.950 . S
C4605 C4622 1.574 . S
C4605 C4624 1.368 1_545 S
C4605 H4629 0.949 . S
H4606 C4610 0.949 . S
C4607 C4608 1.349 1_545 S
C4607 C4609 1.327 . S
C4607 H4630 0.950 . S
C4608 C4607 1.349 1_565 S
C4608 C4620 1.349 . S
C4609 C4607 1.327 . S
C4609 C4625 1.429 1_545 S
C4609 H4631 0.950 . S
C4610 H4606 0.949 . S
C4610 C4618 1.574 . S
C4610 C4626 1.368 . S
H4611 C4619 0.950 . S
H4612 C4617 0.950 . S
H4613 C4618 0.949 . S
H4614 C4620 0.950 . S
H4615 C4621 0.950 . S
H4616 C4622 0.949 . S
C4617 H4612 0.950 . S
C4617 C4619 1.327 . S
C4617 C4623 1.429 1_545 S
C4618 C4610 1.574 . S
C4618 H4613 0.949 . S
C4618 C4624 1.368 . S
C4619 C4603 1.349 1_545 S
C4619 H4611 0.950 . S
C4619 C4617 1.327 . S
C4620 C4608 1.349 . S
C4620 H4614 0.950 . S
C4620 C4621 1.327 . S
C4621 H4615 0.950 . S
C4621 C4620 1.327 . S
C4621 C4625 1.429 . S
C4622 C4605 1.574 . S
C4622 H4616 0.949 . S
C4622 C4626 1.368 1_545 S
C4623 C4604 1.429 . S
C4623 C4617 1.429 1_565 S
C4623 C4624 1.523 . S
C4624 C4605 1.368 1_565 S
C4624 C4618 1.368 . S
C4624 C4623 1.523 . S
C4625 C4609 1.429 1_565 S
C4625 C4621 1.429 . S
C4625 C4626 1.523 . S
C4626 C4610 1.368 . S
C4626 C4622 1.368 1_565 S
C4626 C4625 1.523 . S
H4627 C4602 0.950 . S
H4628 C4604 0.950 . S
H4629 C4605 0.949 . S
H4630 C4607 0.950 . S
H4631 C4609 0.950 . S
C4632 C4633 1.349 1_565 S
C4632 C4634 1.327 . S
C4632 H4657 0.950 . S
C4633 C4632 1.349 1_545 S
C4633 C4649 1.349 . S
C4634 C4632 1.327 . S
C4634 C4653 1.429 1_565 S
C4634 H4658 0.950 . S
C4635 C4652 1.574 . S
C4635 C4654 1.368 . S
C4635 H4659 0.949 . S
H4636 C4640 0.949 . S
C4637 C4638 1.360 . S
C4637 C4639 1.327 . S
C4637 H4660 0.950 . S
C4638 C4637 1.360 . S
C4638 C4650 1.338 1_545 S
C4639 C4637 1.327 . S
C4639 C4655 1.468 . S
C4639 H4661 0.950 . S
C4640 H4636 0.949 . S
C4640 C4648 1.574 . S
C4640 C4656 1.368 1_565 S
H4641 C4649 0.950 . S
H4642 C4647 0.950 . S
H4643 C4648 0.949 . S
H4644 C4650 0.950 . S
H4645 C4651 0.950 . S
H4646 C4652 0.949 . S
C4647 H4642 0.950 . S
C4647 C4649 1.327 . S
C4647 C4653 1.429 . S
C4648 C4640 1.574 . S
C4648 H4643 0.949 . S
C4648 C4654 1.368 1_565 S
C4649 C4633 1.349 . S
C4649 H4641 0.950 . S
C4649 C4647 1.327 . S
C4650 C4638 1.338 1_565 S
C4650 H4644 0.950 . S
C4650 C4651 1.327 . S
C4651 H4645 0.950 . S
C4651 C4650 1.327 . S
C4651 C4655 1.390 1_565 S
C4652 C4635 1.574 . S
C4652 H4646 0.949 . S
C4652 C4656 1.368 . S
C4653 C4634 1.429 1_545 S
C4653 C4647 1.429 . S
C4653 C4654 1.523 . S
C4654 C4635 1.368 . S
C4654 C4648 1.368 1_545 S
C4654 C4653 1.523 . S
C4655 C4639 1.468 . S
C4655 C4651 1.390 1_545 S
C4655 C4656 1.525 . S
C4656 C4640 1.368 1_545 S
C4656 C4652 1.368 . S
C4656 C4655 1.525 . S
H4657 C4632 0.950 . S
H4658 C4634 0.950 . S
H4659 C4635 0.949 . S
H4660 C4637 0.950 . S
H4661 C4639 0.950 . S
C4662 C4663 1.349 1_565 S
C4662 C4664 1.327 . S
C4662 H4687 0.950 . S
C4663 C4662 1.349 1_545 S
C4663 C4679 1.349 . S
C4664 C4662 1.327 . S
C4664 C4683 1.429 1_565 S
C4664 H4688 0.950 . S
C4665 C4682 1.574 1_556 S
C4665 C4684 1.368 . S
C4665 H4689 0.949 . S
H4666 C4670 0.949 . S
C4667 C4668 1.349 . S
C4667 C4669 1.327 . S
C4667 H4690 0.950 . S
C4668 C4667 1.349 . S
C4668 C4680 1.349 1_545 S
C4669 C4667 1.327 . S
C4669 C4685 1.429 . S
C4669 H4691 0.950 . S
C4670 H4666 0.949 . S
C4670 C4678 1.574 1_554 S
C4670 C4686 1.368 1_565 S
H4671 C4679 0.950 . S
H4672 C4677 0.950 . S
H4673 C4678 0.949 . S
H4674 C4680 0.950 . S
H4675 C4681 0.950 . S
H4676 C4682 0.949 . S
C4677 H4672 0.950 . S
C4677 C4679 1.327 . S
C4677 C4683 1.429 . S
C4678 C4670 1.574 1_556 S
C4678 H4673 0.949 . S
C4678 C4684 1.368 1_565 S
C4679 C4663 1.349 . S
C4679 H4671 0.950 . S
C4679 C4677 1.327 . S
C4680 C4668 1.349 1_565 S
C4680 H4674 0.950 . S
C4680 C4681 1.327 . S
C4681 H4675 0.950 . S
C4681 C4680 1.327 . S
C4681 C4685 1.429 1_565 S
C4682 C4665 1.574 1_554 S
C4682 H4676 0.949 . S
C4682 C4686 1.368 . S
C4683 C4664 1.429 1_545 S
C4683 C4677 1.429 . S
C4683 C4684 1.523 . S
C4684 C4665 1.368 . S
C4684 C4678 1.368 1_545 S
C4684 C4683 1.523 . S
C4685 C4669 1.429 . S
C4685 C4681 1.429 1_545 S
C4685 C4686 1.523 . S
C4686 C4670 1.368 1_545 S
C4686 C4682 1.368 . S
C4686 C4685 1.523 . S
H4687 C4662 0.950 . S
H4688 C4664 0.950 . S
H4689 C4665 0.949 . S
H4690 C4667 0.950 . S
H4691 C4669 0.950 . S
C4692 C4693 1.349 1_565 S
C4692 C4694 1.327 . S
C4692 H4717 0.950 . S
C4693 C4692 1.349 1_545 S
C4693 C4709 1.349 . S
C4694 C4692 1.327 . S
C4694 C4713 1.429 1_565 S
C4694 H4718 0.950 . S
C4695 C4712 1.574 . S
C4695 C4714 1.368 . S
C4695 H4719 0.949 . S
H4696 C4700 0.949 . S
C4697 C4698 1.358 . S
C4697 C4699 1.327 . S
C4697 H4720 0.950 . S
C4698 C4697 1.358 . S
C4698 C4710 1.340 1_545 S
C4699 C4697 1.327 . S
C4699 C4715 1.471 . S
C4699 H4721 0.950 . S
C4700 H4696 0.949 . S
C4700 C4708 1.574 . S
C4700 C4716 1.368 1_565 S
H4701 C4709 0.950 . S
H4702 C4707 0.950 . S
H4703 C4708 0.949 . S
H4704 C4710 0.950 . S
H4705 C4711 0.950 . S
H4706 C4712 0.949 . S
C4707 H4702 0.950 . S
C4707 C4709 1.327 . S
C4707 C4713 1.429 . S
C4708 C4700 1.574 . S
C4708 H4703 0.949 . S
C4708 C4714 1.368 1_565 S
C4709 C4693 1.349 . S
C4709 H4701 0.950 . S
C4709 C4707 1.327 . S
C4710 C4698 1.340 1_565 S
C4710 H4704 0.950 . S
C4710 C4711 1.327 . S
C4711 H4705 0.950 . S
C4711 C4710 1.327 . S
C4711 C4715 1.387 1_565 S
C4712 C4695 1.574 . S
C4712 H4706 0.949 . S
C4712 C4716 1.368 . S
C4713 C4694 1.429 1_545 S
C4713 C4707 1.429 . S
C4713 C4714 1.523 . S
C4714 C4695 1.368 . S
C4714 C4708 1.368 1_545 S
C4714 C4713 1.523 . S
C4715 C4699 1.471 . S
C4715 C4711 1.387 1_545 S
C4715 C4716 1.525 . S
C4716 C4700 1.368 1_545 S
C4716 C4712 1.368 . S
C4716 C4715 1.525 . S
H4717 C4692 0.950 . S
H4718 C4694 0.950 . S
H4719 C4695 0.949 . S
H4720 C4697 0.950 . S
H4721 C4699 0.950 . S
C4722 C4723 1.349 1_554 S
C4722 C4724 1.327 . S
C4722 H4747 0.950 . S
C4723 C4722 1.349 1_556 S
C4723 C4739 1.349 . S
C4724 C4722 1.327 . S
C4724 C4743 1.429 1_554 S
C4724 H4748 0.950 . S
C4725 C4742 1.574 . S
C4725 C4744 1.368 . S
C4725 H4749 0.949 . S
H4726 C4730 0.949 . S
C4727 C4728 1.349 . S
C4727 C4729 1.327 . S
C4727 H4750 0.950 . S
C4728 C4727 1.349 . S
C4728 C4740 1.349 1_556 S
C4729 C4727 1.327 . S
C4729 C4745 1.429 . S
C4729 H4751 0.950 . S
C4730 H4726 0.949 . S
C4730 C4738 1.574 . S
C4730 C4746 1.368 1_554 S
H4731 C4739 0.950 . S
H4732 C4737 0.950 . S
H4733 C4738 0.949 . S
H4734 C4740 0.950 . S
H4735 C4741 0.950 . S
H4736 C4742 0.949 . S
C4737 H4732 0.950 . S
C4737 C4739 1.327 . S
C4737 C4743 1.429 . S
C4738 C4730 1.574 . S
C4738 H4733 0.949 . S
C4738 C4744 1.368 1_554 S
C4739 C4723 1.349 . S
C4739 H4731 0.950 . S
C4739 C4737 1.327 . S
C4740 C4728 1.349 1_554 S
C4740 H4734 0.950 . S
C4740 C4741 1.327 . S
C4741 H4735 0.950 . S
C4741 C4740 1.327 . S
C4741 C4745 1.429 1_554 S
C4742 C4725 1.574 . S
C4742 H4736 0.949 . S
C4742 C4746 1.368 . S
C4743 C4724 1.429 1_556 S
C4743 C4737 1.429 . S
C4743 C4744 1.523 . S
C4744 C4725 1.368 . S
C4744 C4738 1.368 1_556 S
C4744 C4743 1.523 . S
C4745 C4729 1.429 . S
C4745 C4741 1.429 1_556 S
C4745 C4746 1.523 . S
C4746 C4730 1.368 1_556 S
C4746 C4742 1.368 . S
C4746 C4745 1.523 . S
H4747 C4722 0.950 . S
H4748 C4724 0.950 . S
H4749 C4725 0.949 . S
H4750 C4727 0.950 . S
H4751 C4729 0.950 . S
C4752 C4753 1.349 . S
C4752 C4754 1.327 . S
C4752 H4777 0.950 . S
C4753 C4752 1.349 . S
C4753 C4769 1.349 1_554 S
C4754 C4752 1.327 . S
C4754 C4773 1.429 . S
C4754 H4778 0.950 . S
C4755 C4772 1.574 1_655 S
C4755 C4774 1.368 1_556 S
C4755 H4779 0.949 . S
H4756 C4760 0.949 . S
C4757 C4758 1.349 1_556 S
C4757 C4759 1.327 . S
C4757 H4780 0.950 . S
C4758 C4757 1.349 1_554 S
C4758 C4770 1.349 . S
C4759 C4757 1.327 . S
C4759 C4775 1.429 1_556 S
C4759 H4781 0.950 . S
C4760 H4756 0.949 . S
C4760 C4768 1.574 1_455 S
C4760 C4776 1.368 . S
H4761 C4769 0.950 . S
H4762 C4767 0.950 . S
H4763 C4768 0.949 . S
H4764 C4770 0.950 . S
H4765 C4771 0.950 . S
H4766 C4772 0.949 . S
C4767 H4762 0.950 . S
C4767 C4769 1.327 . S
C4767 C4773 1.429 1_556 S
C4768 C4760 1.574 1_655 S
C4768 H4763 0.949 . S
C4768 C4774 1.368 . S
C4769 C4753 1.349 1_556 S
C4769 H4761 0.950 . S
C4769 C4767 1.327 . S
C4770 C4758 1.349 . S
C4770 H4764 0.950 . S
C4770 C4771 1.327 . S
C4771 H4765 0.950 . S
C4771 C4770 1.327 . S
C4771 C4775 1.429 . S
C4772 C4755 1.574 1_455 S
C4772 H4766 0.949 . S
C4772 C4776 1.368 1_556 S
C4773 C4754 1.429 . S
C4773 C4767 1.429 1_554 S
C4773 C4774 1.523 . S
C4774 C4755 1.368 1_554 S
C4774 C4768 1.368 . S
C4774 C4773 1.523 . S
C4775 C4759 1.429 1_554 S
C4775 C4771 1.429 . S
C4775 C4776 1.523 . S
C4776 C4760 1.368 . S
C4776 C4772 1.368 1_554 S
C4776 C4775 1.523 . S
H4777 C4752 0.950 . S
H4778 C4754 0.950 . S
H4779 C4755 0.949 . S
H4780 C4757 0.950 . S
H4781 C4759 0.950 . S
C4782 C4783 1.367 . S
C4782 C4784 1.327 . S
C4782 H4807 0.950 . S
C4783 C4782 1.367 . S
C4783 C4799 1.331 1_655 S
C4784 C4782 1.327 . S
C4784 C4803 1.435 . S
C4784 H4808 0.950 . S
C4785 C4802 1.574 . S
C4785 C4804 1.368 1_455 S
C4785 H4809 0.949 . S
H4786 C4790 0.949 . S
C4787 C4788 1.369 . S
C4787 C4789 1.327 . S
C4787 H4810 0.950 . S
C4788 C4787 1.369 . S
C4788 C4800 1.329 1_455 S
C4789 C4787 1.327 . S
C4789 C4805 1.437 . S
C4789 H4811 0.950 . S
C4790 H4786 0.949 . S
C4790 C4798 1.574 . S
C4790 C4806 1.366 1_655 S
H4791 C4799 0.950 . S
H4792 C4797 0.950 . S
H4793 C4798 0.949 . S
H4794 C4800 0.950 . S
H4795 C4801 0.950 . S
H4796 C4802 0.949 . S
C4797 H4792 0.950 . S
C4797 C4799 1.327 . S
C4797 C4803 1.422 1_455 S
C4798 C4790 1.574 . S
C4798 H4793 0.949 . S
C4798 C4804 1.369 . S
C4799 C4783 1.331 1_455 S
C4799 H4791 0.950 . S
C4799 C4797 1.327 . S
C4800 C4788 1.329 1_655 S
C4800 H4794 0.950 . S
C4800 C4801 1.327 . S
C4801 H4795 0.950 . S
C4801 C4800 1.327 . S
C4801 C4805 1.421 1_655 S
C4802 C4785 1.574 . S
C4802 H4796 0.949 . S
C4802 C4806 1.370 . S
C4803 C4784 1.435 . S
C4803 C4797 1.422 1_655 S
C4803 C4804 1.523 . S
C4804 C4785 1.368 1_655 S
C4804 C4798 1.369 . S
C4804 C4803 1.523 . S
C4805 C4789 1.437 . S
C4805 C4801 1.421 1_455 S
C4805 C4806 1.523 . S
C4806 C4790 1.366 1_455 S
C4806 C4802 1.370 . S
C4806 C4805 1.523 . S
H4807 C4782 0.950 . S
H4808 C4784 0.950 . S
H4809 C4785 0.949 . S
H4810 C4787 0.950 . S
H4811 C4789 0.950 . S
C4812 C4813 1.349 . S
C4812 C4814 1.327 . S
C4812 H4837 0.950 . S
C4813 C4812 1.349 . S
C4813 C4829 1.349 . S
C4814 C4812 1.327 . S
C4814 C4833 1.429 . S
C4814 H4838 0.950 . S
C4815 C4832 1.574 . S
C4815 C4834 1.368 . S
C4815 H4839 0.949 . S
H4816 C4820 0.949 . S
C4817 C4818 1.349 . S
C4817 C4819 1.327 . S
C4817 H4840 0.950 . S
C4818 C4817 1.349 . S
C4818 C4830 1.349 . S
C4819 C4817 1.327 . S
C4819 C4835 1.429 . S
C4819 H4841 0.950 . S
C4820 H4816 0.949 . S
C4820 C4828 1.574 . S
C4820 C4836 1.368 . S
H4821 C4829 0.950 . S
H4822 C4827 0.950 . S
H4823 C4828 0.949 . S
H4824 C4830 0.950 . S
H4825 C4831 0.950 . S
H4826 C4832 0.949 . S
C4827 H4822 0.950 . S
C4827 C4829 1.327 . S
C4827 C4833 1.429 . S
C4828 C4820 1.574 . S
C4828 H4823 0.949 . S
C4828 C4834 1.368 . S
C4829 C4813 1.349 . S
C4829 H4821 0.950 . S
C4829 C4827 1.327 . S
C4830 C4818 1.349 . S
C4830 H4824 0.950 . S
C4830 C4831 1.327 . S
C4831 H4825 0.950 . S
C4831 C4830 1.327 . S
C4831 C4835 1.429 . S
C4832 C4815 1.574 . S
C4832 H4826 0.949 . S
C4832 C4836 1.368 . S
C4833 C4814 1.429 . S
C4833 C4827 1.429 . S
C4833 C4834 1.523 . S
C4834 C4815 1.368 . S
C4834 C4828 1.368 . S
C4834 C4833 1.523 . S
C4835 C4819 1.429 . S
C4835 C4831 1.429 . S
C4835 C4836 1.523 . S
C4836 C4820 1.368 . S
C4836 C4832 1.368 . S
C4836 C4835 1.523 . S
H4837 C4812 0.950 . S
H4838 C4814 0.950 . S
H4839 C4815 0.949 . S
H4840 C4817 0.950 . S
H4841 C4819 0.950 . S
C4842 C4843 1.349 . S
C4842 C4844 1.327 . S
C4842 H4867 0.950 . S
C4843 C4842 1.349 . S
C4843 C4859 1.349 . S
C4844 C4842 1.327 . S
C4844 C4863 1.429 . S
C4844 H4868 0.950 . S
C4845 C4862 1.574 1_655 S
C4845 C4864 1.368 . S
C4845 H4869 0.949 . S
H4846 C4850 0.949 . S
C4847 C4848 1.349 . S
C4847 C4849 1.327 . S
C4847 H4870 0.950 . S
C4848 C4847 1.349 . S
C4848 C4860 1.349 . S
C4849 C4847 1.327 . S
C4849 C4865 1.429 . S
C4849 H4871 0.950 . S
C4850 H4846 0.949 . S
C4850 C4858 1.574 1_455 S
C4850 C4866 1.368 . S
H4851 C4859 0.950 . S
H4852 C4857 0.950 . S
H4853 C4858 0.949 . S
H4854 C4860 0.950 . S
H4855 C4861 0.950 . S
H4856 C4862 0.949 . S
C4857 H4852 0.950 . S
C4857 C4859 1.327 . S
C4857 C4863 1.429 . S
C4858 C4850 1.574 1_655 S
C4858 H4853 0.949 . S
C4858 C4864 1.368 . S
C4859 C4843 1.349 . S
C4859 H4851 0.950 . S
C4859 C4857 1.327 . S
C4860 C4848 1.349 . S
C4860 H4854 0.950 . S
C4860 C4861 1.327 . S
C4861 H4855 0.950 . S
C4861 C4860 1.327 . S
C4861 C4865 1.429 . S
C4862 C4845 1.574 1_455 S
C4862 H4856 0.949 . S
C4862 C4866 1.368 . S
C4863 C4844 1.429 . S
C4863 C4857 1.429 . S
C4863 C4864 1.523 . S
C4864 C4845 1.368 . S
C4864 C4858 1.368 . S
C4864 C4863 1.523 . S
C4865 C4849 1.429 . S
C4865 C4861 1.429 . S
C4865 C4866 1.523 . S
C4866 C4850 1.368 . S
C4866 C4862 1.368 . S
C4866 C4865 1.523 . S
H4867 C4842 0.950 . S
H4868 C4844 0.950 . S
H4869 C4845 0.949 . S
H4870 C4847 0.950 . S
H4871 C4849 0.950 . S
C4872 C4873 1.373 . S
C4872 C4874 1.327 . S
C4872 H4897 0.950 . S
C4873 C4872 1.373 . S
C4873 C4889 1.327 1_655 S
C4874 C4872 1.327 . S
C4874 C4893 1.465 . S
C4874 H4898 0.950 . S
C4875 C4892 1.574 . S
C4875 C4894 1.368 1_455 S
C4875 H4899 0.949 . S
H4876 C4880 0.949 . S
C4877 C4878 1.349 1_455 S
C4877 C4879 1.327 . S
C4877 H4900 0.950 . S
C4878 C4877 1.349 1_655 S
C4878 C4890 1.349 . S
C4879 C4877 1.327 . S
C4879 C4895 1.429 1_455 S
C4879 H4901 0.950 . S
C4880 H4876 0.949 . S
C4880 C4888 1.574 . S
C4880 C4896 1.368 . S
H4881 C4889 0.950 . S
H4882 C4887 0.950 . S
H4883 C4888 0.949 . S
H4884 C4890 0.950 . S
H4885 C4891 0.950 . S
H4886 C4892 0.949 . S
C4887 H4882 0.950 . S
C4887 C4889 1.327 . S
C4887 C4893 1.394 1_455 S
C4888 C4880 1.574 . S
C4888 H4883 0.949 . S
C4888 C4894 1.368 . S
C4889 C4873 1.327 1_455 S
C4889 H4881 0.950 . S
C4889 C4887 1.327 . S
C4890 C4878 1.349 . S
C4890 H4884 0.950 . S
C4890 C4891 1.327 . S
C4891 H4885 0.950 . S
C4891 C4890 1.327 . S
C4891 C4895 1.429 . S
C4892 C4875 1.574 . S
C4892 H4886 0.949 . S
C4892 C4896 1.368 1_455 S
C4893 C4874 1.465 . S
C4893 C4887 1.394 1_655 S
C4893 C4894 1.525 . S
C4894 C4875 1.368 1_655 S
C4894 C4888 1.368 . S
C4894 C4893 1.525 . S
C4895 C4879 1.429 1_655 S
C4895 C4891 1.429 . S
C4895 C4896 1.523 . S
C4896 C4880 1.368 . S
C4896 C4892 1.368 1_655 S
C4896 C4895 1.523 . S
H4897 C4872 0.950 . S
H4898 C4874 0.950 . S
H4899 C4875 0.949 . S
H4900 C4877 0.950 . S
H4901 C4879 0.950 . S
C4902 C4903 1.349 . S
C4902 C4904 1.327 . S
C4902 H4927 0.950 . S
C4903 C4902 1.349 . S
C4903 C4919 1.349 . S
C4904 C4902 1.327 . S
C4904 C4923 1.429 . S
C4904 H4928 0.950 . S
C4905 C4922 1.574 . S
C4905 C4924 1.368 . S
C4905 H4929 0.949 . S
H4906 C4910 0.949 . S
C4907 C4908 1.349 . S
C4907 C4909 1.327 . S
C4907 H4930 0.950 . S
C4908 C4907 1.349 . S
C4908 C4920 1.349 . S
C4909 C4907 1.327 . S
C4909 C4925 1.429 . S
C4909 H4931 0.950 . S
C4910 H4906 0.949 . S
C4910 C4918 1.574 . S
C4910 C4926 1.368 . S
H4911 C4919 0.950 . S
H4912 C4917 0.950 . S
H4913 C4918 0.949 . S
H4914 C4920 0.950 . S
H4915 C4921 0.950 . S
H4916 C4922 0.949 . S
C4917 H4912 0.950 . S
C4917 C4919 1.327 . S
C4917 C4923 1.429 . S
C4918 C4910 1.574 . S
C4918 H4913 0.949 . S
C4918 C4924 1.368 . S
C4919 C4903 1.349 . S
C4919 H4911 0.950 . S
C4919 C4917 1.327 . S
C4920 C4908 1.349 . S
C4920 H4914 0.950 . S
C4920 C4921 1.327 . S
C4921 H4915 0.950 . S
C4921 C4920 1.327 . S
C4921 C4925 1.429 . S
C4922 C4905 1.574 . S
C4922 H4916 0.949 . S
C4922 C4926 1.368 . S
C4923 C4904 1.429 . S
C4923 C4917 1.429 . S
C4923 C4924 1.523 . S
C4924 C4905 1.368 . S
C4924 C4918 1.368 . S
C4924 C4923 1.523 . S
C4925 C4909 1.429 . S
C4925 C4921 1.429 . S
C4925 C4926 1.523 . S
C4926 C4910 1.368 . S
C4926 C4922 1.368 . S
C4926 C4925 1.523 . S
H4927 C4902 0.950 . S
H4928 C4904 0.950 . S
H4929 C4905 0.949 . S
H4930 C4907 0.950 . S
H4931 C4909 0.950 . S
C4932 C4933 1.349 . S
C4932 C4934 1.327 . S
C4932 H4957 0.950 . S
C4933 C4932 1.349 . S
C4933 C4949 1.349 . S
C4934 C4932 1.327 . S
C4934 C4953 1.429 . S
C4934 H4958 0.950 . S
C4935 C4952 1.574 1_545 S
C4935 C4954 1.368 . S
C4935 H4959 0.949 . S
H4936 C4940 0.949 . S
C4937 C4938 1.349 . S
C4937 C4939 1.327 . S
C4937 H4960 0.950 . S
C4938 C4937 1.349 . S
C4938 C4950 1.349 . S
C4939 C4937 1.327 . S
C4939 C4955 1.429 . S
C4939 H4961 0.950 . S
C4940 H4936 0.949 . S
C4940 C4948 1.574 1_565 S
C4940 C4956 1.368 . S
H4941 C4949 0.950 . S
H4942 C4947 0.950 . S
H4943 C4948 0.949 . S
H4944 C4950 0.950 . S
H4945 C4951 0.950 . S
H4946 C4952 0.949 . S
C4947 H4942 0.950 . S
C4947 C4949 1.327 . S
C4947 C4953 1.429 . S
C4948 C4940 1.574 1_545 S
C4948 H4943 0.949 . S
C4948 C4954 1.368 . S
C4949 C4933 1.349 . S
C4949 H4941 0.950 . S
C4949 C4947 1.327 . S
C4950 C4938 1.349 . S
C4950 H4944 0.950 . S
C4950 C4951 1.327 . S
C4951 H4945 0.950 . S
C4951 C4950 1.327 . S
C4951 C4955 1.429 . S
C4952 C4935 1.574 1_565 S
C4952 H4946 0.949 . S
C4952 C4956 1.368 . S
C4953 C4934 1.429 . S
C4953 C4947 1.429 . S
C4953 C4954 1.523 . S
C4954 C4935 1.368 . S
C4954 C4948 1.368 . S
C4954 C4953 1.523 . S
C4955 C4939 1.429 . S
C4955 C4951 1.429 . S
C4955 C4956 1.523 . S
C4956 C4940 1.368 . S
C4956 C4952 1.368 . S
C4956 C4955 1.523 . S
H4957 C4932 0.950 . S
H4958 C4934 0.950 . S
H4959 C4935 0.949 . S
H4960 C4937 0.950 . S
H4961 C4939 0.950 . S
C4962 C4963 1.349 1_556 S
C4962 C4964 1.327 . S
C4962 H4987 0.950 . S
C4963 C4962 1.349 1_554 S
C4963 C4979 1.349 . S
C4964 C4962 1.327 . S
C4964 C4983 1.400 1_556 S
C4964 H4988 0.950 . S
C4965 C4982 1.574 . S
C4965 C4984 1.386 . S
C4965 H4989 0.949 . S
H4966 C4970 0.949 . S
C4967 C4968 1.349 1_554 S
C4967 C4969 1.327 . S
C4967 H4990 0.950 . S
C4968 C4967 1.349 1_556 S
C4968 C4980 1.349 . S
C4969 C4967 1.327 . S
C4969 C4985 1.414 1_554 S
C4969 H4991 0.950 . S
C4970 H4966 0.949 . S
C4970 C4978 1.574 . S
C4970 C4986 1.369 . S
H4971 C4979 0.950 . S
H4972 C4977 0.950 . S
H4973 C4978 0.949 . S
H4974 C4980 0.950 . S
H4975 C4981 0.950 . S
H4976 C4982 0.949 . S
C4977 H4972 0.950 . S
C4977 C4979 1.327 . S
C4977 C4983 1.460 . S
C4978 C4970 1.574 . S
C4978 H4973 0.949 . S
C4978 C4984 1.351 1_556 S
C4979 C4963 1.349 . S
C4979 H4971 0.950 . S
C4979 C4977 1.327 . S
C4980 C4968 1.349 . S
C4980 H4974 0.950 . S
C4980 C4981 1.327 . S
C4981 H4975 0.950 . S
C4981 C4980 1.327 . S
C4981 C4985 1.444 . S
C4982 C4965 1.574 . S
C4982 H4976 0.949 . S
C4982 C4986 1.368 1_554 S
C4983 C4964 1.400 1_554 S
C4983 C4977 1.460 . S
C4983 C4984 1.523 . S
C4984 C4965 1.386 . S
C4984 C4978 1.351 1_554 S
C4984 C4983 1.523 . S
C4985 C4969 1.414 1_556 S
C4985 C4981 1.444 . S
C4985 C4986 1.523 . S
C4986 C4970 1.369 . S
C4986 C4982 1.368 1_556 S
C4986 C4985 1.523 . S
H4987 C4962 0.950 . S
H4988 C4964 0.950 . S
H4989 C4965 0.949 . S
H4990 C4967 0.950 . S
H4991 C4969 0.950 . S
C4992 C4993 1.349 . S
C4992 C4994 1.327 . S
C4992 H5017 0.950 . S
C4993 C4992 1.349 . S
C4993 C5009 1.349 . S
C4994 C4992 1.327 . S
C4994 C5013 1.429 . S
C4994 H5018 0.950 . S
C4995 C5012 1.574 1_545 S
C4995 C5014 1.368 . S
C4995 H5019 0.949 1_655 S
H4996 C5000 0.949 . S
C4997 C4998 1.349 . S
C4997 C4999 1.327 . S
C4997 H5020 0.950 1_655 S
C4998 C4997 1.349 . S
C4998 C5010 1.349 . S
C4999 C4997 1.327 . S
C4999 C5015 1.429 . S
C4999 H5021 0.950 1_655 S
C5000 H4996 0.949 . S
C5000 C5008 1.574 1_565 S
C5000 C5016 1.368 . S
H5001 C5009 0.950 1_455 S
H5002 C5007 0.950 1_455 S
H5003 C5008 0.949 . S
H5004 C5010 0.950 . S
H5005 C5011 0.950 . S
H5006 C5012 0.949 1_455 S
C5007 H5002 0.950 1_655 S
C5007 C5009 1.327 . S
C5007 C5013 1.429 . S
C5008 C5000 1.574 1_545 S
C5008 H5003 0.949 . S
C5008 C5014 1.368 . S
C5009 C4993 1.349 . S
C5009 H5001 0.950 1_655 S
C5009 C5007 1.327 . S
C5010 C4998 1.349 . S
C5010 H5004 0.950 . S
C5010 C5011 1.327 . S
C5011 H5005 0.950 . S
C5011 C5010 1.327 . S
C5011 C5015 1.429 . S
C5012 C4995 1.574 1_565 S
C5012 H5006 0.949 1_655 S
C5012 C5016 1.368 . S
C5013 C4994 1.429 . S
C5013 C5007 1.429 . S
C5013 C5014 1.523 . S
C5014 C4995 1.368 . S
C5014 C5008 1.368 . S
C5014 C5013 1.523 . S
C5015 C4999 1.429 . S
C5015 C5011 1.429 . S
C5015 C5016 1.523 . S
C5016 C5000 1.368 . S
C5016 C5012 1.368 . S
C5016 C5015 1.523 . S
H5017 C4992 0.950 . S
H5018 C4994 0.950 . S
H5019 C4995 0.949 1_455 S
H5020 C4997 0.950 1_455 S
H5021 C4999 0.950 1_455 S
C5022 C5023 1.349 . S
C5022 C5024 1.327 . S
C5022 H5047 0.950 . S
C5023 C5022 1.349 . S
C5023 C5039 1.349 . S
C5024 C5022 1.327 . S
C5024 C5043 1.429 . S
C5024 H5048 0.950 . S
C5025 C5042 1.574 . S
C5025 C5044 1.368 . S
C5025 H5049 0.949 . S
H5026 C5030 0.949 . S
C5027 C5028 1.349 . S
C5027 C5029 1.327 . S
C5027 H5050 0.950 . S
C5028 C5027 1.349 . S
C5028 C5040 1.349 . S
C5029 C5027 1.327 . S
C5029 C5045 1.429 . S
C5029 H5051 0.950 . S
C5030 H5026 0.949 . S
C5030 C5038 1.574 . S
C5030 C5046 1.368 . S
H5031 C5039 0.950 . S
H5032 C5037 0.950 . S
H5033 C5038 0.949 . S
H5034 C5040 0.950 . S
H5035 C5041 0.950 . S
H5036 C5042 0.949 . S
C5037 H5032 0.950 . S
C5037 C5039 1.327 . S
C5037 C5043 1.429 . S
C5038 C5030 1.574 . S
C5038 H5033 0.949 . S
C5038 C5044 1.368 . S
C5039 C5023 1.349 . S
C5039 H5031 0.950 . S
C5039 C5037 1.327 . S
C5040 C5028 1.349 . S
C5040 H5034 0.950 . S
C5040 C5041 1.327 . S
C5041 H5035 0.950 . S
C5041 C5040 1.327 . S
C5041 C5045 1.429 . S
C5042 C5025 1.574 . S
C5042 H5036 0.949 . S
C5042 C5046 1.368 . S
C5043 C5024 1.429 . S
C5043 C5037 1.429 . S
C5043 C5044 1.523 . S
C5044 C5025 1.368 . S
C5044 C5038 1.368 . S
C5044 C5043 1.523 . S
C5045 C5029 1.429 . S
C5045 C5041 1.429 . S
C5045 C5046 1.523 . S
C5046 C5030 1.368 . S
C5046 C5042 1.368 . S
C5046 C5045 1.523 . S
H5047 C5022 0.950 . S
H5048 C5024 0.950 . S
H5049 C5025 0.949 . S
H5050 C5027 0.950 . S
H5051 C5029 0.950 . S
C5052 C5053 1.349 . S
C5052 C5054 1.327 . S
C5052 H5077 0.950 . S
C5053 C5052 1.349 . S
C5053 C5069 1.349 . S
C5054 C5052 1.327 . S
C5054 C5073 1.429 . S
C5054 H5078 0.950 . S
C5055 C5072 1.574 1_556 S
C5055 C5074 1.368 . S
C5055 H5079 0.949 . S
H5056 C5060 0.949 . S
C5057 C5058 1.349 . S
C5057 C5059 1.327 . S
C5057 H5080 0.950 . S
C5058 C5057 1.349 . S
C5058 C5070 1.349 . S
C5059 C5057 1.327 . S
C5059 C5075 1.429 . S
C5059 H5081 0.950 . S
C5060 H5056 0.949 . S
C5060 C5068 1.574 1_554 S
C5060 C5076 1.368 . S
H5061 C5069 0.950 . S
H5062 C5067 0.950 . S
H5063 C5068 0.949 . S
H5064 C5070 0.950 . S
H5065 C5071 0.950 . S
H5066 C5072 0.949 . S
C5067 H5062 0.950 . S
C5067 C5069 1.327 . S
C5067 C5073 1.429 . S
C5068 C5060 1.574 1_556 S
C5068 H5063 0.949 . S
C5068 C5074 1.368 . S
C5069 C5053 1.349 . S
C5069 H5061 0.950 . S
C5069 C5067 1.327 . S
C5070 C5058 1.349 . S
C5070 H5064 0.950 . S
C5070 C5071 1.327 . S
C5071 H5065 0.950 . S
C5071 C5070 1.327 . S
C5071 C5075 1.429 . S
C5072 C5055 1.574 1_554 S
C5072 H5066 0.949 . S
C5072 C5076 1.368 . S
C5073 C5054 1.429 . S
C5073 C5067 1.429 . S
C5073 C5074 1.523 . S
C5074 C5055 1.368 . S
C5074 C5068 1.368 . S
C5074 C5073 1.523 . S
C5075 C5059 1.429 . S
C5075 C5071 1.429 . S
C5075 C5076 1.523 . S
C5076 C5060 1.368 . S
C5076 C5072 1.368 . S
C5076 C5075 1.523 . S
H5077 C5052 0.950 . S
H5078 C5054 0.950 . S
H5079 C5055 0.949 . S
H5080 C5057 0.950 . S
H5081 C5059 0.950 . S
C5082 C5083 1.349 . S
C5082 C5084 1.327 . S
C5082 H5107 0.950 . S
C5083 C5082 1.349 . S
C5083 C5099 1.349 . S
C5084 C5082 1.327 . S
C5084 C5103 1.429 . S
C5084 H5108 0.950 . S
C5085 C5102 1.574 . S
C5085 C5104 1.368 . S
C5085 H5109 0.949 . S
H5086 C5090 0.949 . S
C5087 C5088 1.349 . S
C5087 C5089 1.327 . S
C5087 H5110 0.950 . S
C5088 C5087 1.349 . S
C5088 C5100 1.349 . S
C5089 C5087 1.327 . S
C5089 C5105 1.429 . S
C5089 H5111 0.950 . S
C5090 H5086 0.949 . S
C5090 C5098 1.574 . S
C5090 C5106 1.368 . S
H5091 C5099 0.950 . S
H5092 C5097 0.950 . S
H5093 C5098 0.949 . S
H5094 C5100 0.950 . S
H5095 C5101 0.950 . S
H5096 C5102 0.949 . S
C5097 H5092 0.950 . S
C5097 C5099 1.327 . S
C5097 C5103 1.429 . S
C5098 C5090 1.574 . S
C5098 H5093 0.949 . S
C5098 C5104 1.368 . S
C5099 C5083 1.349 . S
C5099 H5091 0.950 . S
C5099 C5097 1.327 . S
C5100 C5088 1.349 . S
C5100 H5094 0.950 . S
C5100 C5101 1.327 . S
C5101 H5095 0.950 . S
C5101 C5100 1.327 . S
C5101 C5105 1.429 . S
C5102 C5085 1.574 . S
C5102 H5096 0.949 . S
C5102 C5106 1.368 . S
C5103 C5084 1.429 . S
C5103 C5097 1.429 . S
C5103 C5104 1.523 . S
C5104 C5085 1.368 . S
C5104 C5098 1.368 . S
C5104 C5103 1.523 . S
C5105 C5089 1.429 . S
C5105 C5101 1.429 . S
C5105 C5106 1.523 . S
C5106 C5090 1.368 . S
C5106 C5102 1.368 . S
C5106 C5105 1.523 . S
H5107 C5082 0.950 . S
H5108 C5084 0.950 . S
H5109 C5085 0.949 . S
H5110 C5087 0.950 . S
H5111 C5089 0.950 . S
C5112 C5113 1.349 . S
C5112 C5114 1.327 . S
C5112 H5137 0.950 . S
C5113 C5112 1.349 . S
C5113 C5129 1.349 . S
C5114 C5112 1.327 . S
C5114 C5133 1.429 . S
C5114 H5138 0.950 . S
C5115 C5132 1.574 . S
C5115 C5134 1.368 . S
C5115 H5139 0.949 . S
H5116 C5120 0.949 . S
C5117 C5118 1.349 . S
C5117 C5119 1.327 . S
C5117 H5140 0.950 . S
C5118 C5117 1.349 . S
C5118 C5130 1.349 . S
C5119 C5117 1.327 . S
C5119 C5135 1.429 . S
C5119 H5141 0.950 . S
C5120 H5116 0.949 . S
C5120 C5128 1.574 . S
C5120 C5136 1.368 . S
H5121 C5129 0.950 . S
H5122 C5127 0.950 . S
H5123 C5128 0.949 . S
H5124 C5130 0.950 . S
H5125 C5131 0.950 . S
H5126 C5132 0.949 . S
C5127 H5122 0.950 . S
C5127 C5129 1.327 . S
C5127 C5133 1.429 . S
C5128 C5120 1.574 . S
C5128 H5123 0.949 . S
C5128 C5134 1.368 . S
C5129 C5113 1.349 . S
C5129 H5121 0.950 . S
C5129 C5127 1.327 . S
C5130 C5118 1.349 . S
C5130 H5124 0.950 . S
C5130 C5131 1.327 . S
C5131 H5125 0.950 . S
C5131 C5130 1.327 . S
C5131 C5135 1.429 . S
C5132 C5115 1.574 . S
C5132 H5126 0.949 . S
C5132 C5136 1.368 . S
C5133 C5114 1.429 . S
C5133 C5127 1.429 . S
C5133 C5134 1.523 . S
C5134 C5115 1.368 . S
C5134 C5128 1.368 . S
C5134 C5133 1.523 . S
C5135 C5119 1.429 . S
C5135 C5131 1.429 . S
C5135 C5136 1.523 . S
C5136 C5120 1.368 . S
C5136 C5132 1.368 . S
C5136 C5135 1.523 . S
H5137 C5112 0.950 . S
H5138 C5114 0.950 . S
H5139 C5115 0.949 . S
H5140 C5117 0.950 . S
H5141 C5119 0.950 . S
C5142 C5143 1.349 . S
C5142 C5144 1.327 . S
C5142 H5167 0.950 . S
C5143 C5142 1.349 . S
C5143 C5159 1.349 . S
C5144 C5142 1.327 . S
C5144 C5163 1.429 . S
C5144 H5168 0.950 . S
C5145 C5162 1.574 . S
C5145 C5164 1.368 . S
C5145 H5169 0.949 . S
H5146 C5150 0.949 . S
C5147 C5148 1.349 . S
C5147 C5149 1.327 . S
C5147 H5170 0.950 . S
C5148 C5147 1.349 . S
C5148 C5160 1.349 . S
C5149 C5147 1.327 . S
C5149 C5165 1.429 . S
C5149 H5171 0.950 . S
C5150 H5146 0.949 . S
C5150 C5158 1.574 . S
C5150 C5166 1.368 . S
H5151 C5159 0.950 . S
H5152 C5157 0.950 . S
H5153 C5158 0.949 . S
H5154 C5160 0.950 . S
H5155 C5161 0.950 . S
H5156 C5162 0.949 . S
C5157 H5152 0.950 . S
C5157 C5159 1.327 . S
C5157 C5163 1.429 . S
C5158 C5150 1.574 . S
C5158 H5153 0.949 . S
C5158 C5164 1.368 . S
C5159 C5143 1.349 . S
C5159 H5151 0.950 . S
C5159 C5157 1.327 . S
C5160 C5148 1.349 . S
C5160 H5154 0.950 . S
C5160 C5161 1.327 . S
C5161 H5155 0.950 . S
C5161 C5160 1.327 . S
C5161 C5165 1.429 . S
C5162 C5145 1.574 . S
C5162 H5156 0.949 . S
C5162 C5166 1.368 . S
C5163 C5144 1.429 . S
C5163 C5157 1.429 . S
C5163 C5164 1.523 . S
C5164 C5145 1.368 . S
C5164 C5158 1.368 . S
C5164 C5163 1.523 . S
C5165 C5149 1.429 . S
C5165 C5161 1.429 . S
C5165 C5166 1.523 . S
C5166 C5150 1.368 . S
C5166 C5162 1.368 . S
C5166 C5165 1.523 . S
H5167 C5142 0.950 . S
H5168 C5144 0.950 . S
H5169 C5145 0.949 . S
H5170 C5147 0.950 . S
H5171 C5149 0.950 . S
C5172 C5173 1.349 . S
C5172 C5174 1.327 . S
C5172 H5197 0.950 . S
C5173 C5172 1.349 . S
C5173 C5189 1.349 . S
C5174 C5172 1.327 . S
C5174 C5193 1.429 . S
C5174 H5198 0.950 . S
C5175 C5192 1.574 . S
C5175 C5194 1.368 . S
C5175 H5199 0.949 . S
H5176 C5180 0.949 . S
C5177 C5178 1.349 . S
C5177 C5179 1.327 . S
C5177 H5200 0.950 . S
C5178 C5177 1.349 . S
C5178 C5190 1.349 . S
C5179 C5177 1.327 . S
C5179 C5195 1.429 . S
C5179 H5201 0.950 . S
C5180 H5176 0.949 . S
C5180 C5188 1.574 . S
C5180 C5196 1.368 . S
H5181 C5189 0.950 . S
H5182 C5187 0.950 . S
H5183 C5188 0.949 . S
H5184 C5190 0.950 . S
H5185 C5191 0.950 . S
H5186 C5192 0.949 . S
C5187 H5182 0.950 . S
C5187 C5189 1.327 . S
C5187 C5193 1.429 . S
C5188 C5180 1.574 . S
C5188 H5183 0.949 . S
C5188 C5194 1.368 . S
C5189 C5173 1.349 . S
C5189 H5181 0.950 . S
C5189 C5187 1.327 . S
C5190 C5178 1.349 . S
C5190 H5184 0.950 . S
C5190 C5191 1.327 . S
C5191 H5185 0.950 . S
C5191 C5190 1.327 . S
C5191 C5195 1.429 . S
C5192 C5175 1.574 . S
C5192 H5186 0.949 . S
C5192 C5196 1.368 . S
C5193 C5174 1.429 . S
C5193 C5187 1.429 . S
C5193 C5194 1.523 . S
C5194 C5175 1.368 . S
C5194 C5188 1.368 . S
C5194 C5193 1.523 . S
C5195 C5179 1.429 . S
C5195 C5191 1.429 . S
C5195 C5196 1.523 . S
C5196 C5180 1.368 . S
C5196 C5192 1.368 . S
C5196 C5195 1.523 . S
H5197 C5172 0.950 . S
H5198 C5174 0.950 . S
H5199 C5175 0.949 . S
H5200 C5177 0.950 . S
H5201 C5179 0.950 . S
C5202 C5203 1.349 . S
C5202 C5204 1.327 . S
C5202 H5227 0.950 . S
C5203 C5202 1.349 . S
C5203 C5219 1.349 . S
C5204 C5202 1.327 . S
C5204 C5223 1.429 . S
C5204 H5228 0.950 . S
C5205 C5222 1.574 1_565 S
C5205 C5224 1.368 . S
C5205 H5229 0.949 . S
H5206 C5210 0.949 . S
C5207 C5208 1.349 . S
C5207 C5209 1.327 . S
C5207 H5230 0.950 . S
C5208 C5207 1.349 . S
C5208 C5220 1.349 . S
C5209 C5207 1.327 . S
C5209 C5225 1.429 . S
C5209 H5231 0.950 . S
C5210 H5206 0.949 . S
C5210 C5218 1.574 1_545 S
C5210 C5226 1.368 . S
H5211 C5219 0.950 . S
H5212 C5217 0.950 . S
H5213 C5218 0.949 . S
H5214 C5220 0.950 . S
H5215 C5221 0.950 . S
H5216 C5222 0.949 . S
C5217 H5212 0.950 . S
C5217 C5219 1.327 . S
C5217 C5223 1.429 . S
C5218 C5210 1.574 1_565 S
C5218 H5213 0.949 . S
C5218 C5224 1.368 . S
C5219 C5203 1.349 . S
C5219 H5211 0.950 . S
C5219 C5217 1.327 . S
C5220 C5208 1.349 . S
C5220 H5214 0.950 . S
C5220 C5221 1.327 . S
C5221 H5215 0.950 . S
C5221 C5220 1.327 . S
C5221 C5225 1.429 . S
C5222 C5205 1.574 1_545 S
C5222 H5216 0.949 . S
C5222 C5226 1.368 . S
C5223 C5204 1.429 . S
C5223 C5217 1.429 . S
C5223 C5224 1.523 . S
C5224 C5205 1.368 . S
C5224 C5218 1.368 . S
C5224 C5223 1.523 . S
C5225 C5209 1.429 . S
C5225 C5221 1.429 . S
C5225 C5226 1.523 . S
C5226 C5210 1.368 . S
C5226 C5222 1.368 . S
C5226 C5225 1.523 . S
H5227 C5202 0.950 . S
H5228 C5204 0.950 . S
H5229 C5205 0.949 . S
H5230 C5207 0.950 . S
H5231 C5209 0.950 . S
C5232 C5233 1.349 1_554 S
C5232 C5234 1.327 . S
C5232 H5257 0.950 . S
C5233 C5232 1.349 1_556 S
C5233 C5249 1.349 . S
C5234 C5232 1.327 . S
C5234 C5253 1.401 1_554 S
C5234 H5258 0.950 . S
C5235 C5252 1.574 . S
C5235 C5254 1.385 . S
C5235 H5259 0.949 . S
H5236 C5240 0.949 . S
C5237 C5238 1.349 1_556 S
C5237 C5239 1.327 . S
C5237 H5260 0.950 . S
C5238 C5237 1.349 1_554 S
C5238 C5250 1.349 . S
C5239 C5237 1.327 . S
C5239 C5255 1.414 1_556 S
C5239 H5261 0.950 . S
C5240 H5236 0.949 . S
C5240 C5248 1.574 . S
C5240 C5256 1.369 . S
H5241 C5249 0.950 . S
H5242 C5247 0.950 . S
H5243 C5248 0.949 . S
H5244 C5250 0.950 . S
H5245 C5251 0.950 . S
H5246 C5252 0.949 . S
C5247 H5242 0.950 . S
C5247 C5249 1.327 . S
C5247 C5253 1.459 . S
C5248 C5240 1.574 . S
C5248 H5243 0.949 . S
C5248 C5254 1.351 1_554 S
C5249 C5233 1.349 . S
C5249 H5241 0.950 . S
C5249 C5247 1.327 . S
C5250 C5238 1.349 . S
C5250 H5244 0.950 . S
C5250 C5251 1.327 . S
C5251 H5245 0.950 . S
C5251 C5250 1.327 . S
C5251 C5255 1.444 . S
C5252 C5235 1.574 . S
C5252 H5246 0.949 . S
C5252 C5256 1.368 1_556 S
C5253 C5234 1.401 1_556 S
C5253 C5247 1.459 . S
C5253 C5254 1.523 . S
C5254 C5235 1.385 . S
C5254 C5248 1.351 1_556 S
C5254 C5253 1.523 . S
C5255 C5239 1.414 1_554 S
C5255 C5251 1.444 . S
C5255 C5256 1.523 . S
C5256 C5240 1.369 . S
C5256 C5252 1.368 1_554 S
C5256 C5255 1.523 . S
H5257 C5232 0.950 . S
H5258 C5234 0.950 . S
H5259 C5235 0.949 . S
H5260 C5237 0.950 . S
H5261 C5239 0.950 . S
C5262 C5263 1.349 . S
C5262 C5264 1.327 . S
C5262 H5287 0.950 . S
C5263 C5262 1.349 . S
C5263 C5279 1.349 . S
C5264 C5262 1.327 . S
C5264 C5283 1.429 . S
C5264 H5288 0.950 . S
C5265 C5282 1.574 1_545 S
C5265 C5284 1.404 . S
C5265 H5289 0.920 1_455 S
H5266 C5270 0.949 . S
C5267 C5268 1.349 . S
C5267 C5269 1.327 . S
C5267 H5290 0.950 1_455 S
C5268 C5267 1.349 . S
C5268 C5280 1.349 . S
C5269 C5267 1.327 . S
C5269 C5285 1.429 . S
C5269 H5291 0.950 1_455 S
C5270 H5266 0.949 . S
C5270 C5278 1.574 1_565 S
C5270 C5286 1.368 . S
H5271 C5279 0.950 1_655 S
H5272 C5277 0.950 1_655 S
H5273 C5278 0.949 . S
H5274 C5280 0.950 . S
H5275 C5281 0.950 . S
H5276 C5282 0.922 1_655 S
C5277 H5272 0.950 1_455 S
C5277 C5279 1.327 . S
C5277 C5283 1.429 . S
C5278 C5270 1.574 1_545 S
C5278 H5273 0.949 . S
C5278 C5284 1.368 . S
C5279 C5263 1.349 . S
C5279 H5271 0.950 1_455 S
C5279 C5277 1.327 . S
C5280 C5268 1.349 . S
C5280 H5274 0.950 . S
C5280 C5281 1.327 . S
C5281 H5275 0.950 . S
C5281 C5280 1.327 . S
C5281 C5285 1.429 . S
C5282 C5265 1.574 1_565 S
C5282 H5276 0.922 1_455 S
C5282 C5286 1.401 . S
C5283 C5264 1.429 . S
C5283 C5277 1.429 . S
C5283 C5284 1.523 . S
C5284 C5265 1.404 . S
C5284 C5278 1.368 . S
C5284 C5283 1.523 . S
C5285 C5269 1.429 . S
C5285 C5281 1.429 . S
C5285 C5286 1.523 . S
C5286 C5270 1.368 . S
C5286 C5282 1.401 . S
C5286 C5285 1.523 . S
H5287 C5262 0.950 . S
H5288 C5264 0.950 . S
H5289 C5265 0.920 1_655 S
H5290 C5267 0.950 1_655 S
H5291 C5269 0.950 1_655 S
C5292 C5293 1.349 . S
C5292 C5294 1.327 . S
C5292 H5317 0.950 . S
C5293 C5292 1.349 . S
C5293 C5309 1.349 . S
C5294 C5292 1.327 . S
C5294 C5313 1.429 . S
C5294 H5318 0.950 . S
C5295 C5312 1.574 . S
C5295 C5314 1.368 . S
C5295 H5319 0.949 . S
H5296 C5300 0.949 . S
C5297 C5298 1.349 . S
C5297 C5299 1.327 . S
C5297 H5320 0.950 . S
C5298 C5297 1.349 . S
C5298 C5310 1.349 . S
C5299 C5297 1.327 . S
C5299 C5315 1.429 . S
C5299 H5321 0.950 . S
C5300 H5296 0.949 . S
C5300 C5308 1.574 . S
C5300 C5316 1.368 . S
H5301 C5309 0.950 . S
H5302 C5307 0.950 . S
H5303 C5308 0.949 . S
H5304 C5310 0.950 . S
H5305 C5311 0.950 . S
H5306 C5312 0.949 . S
C5307 H5302 0.950 . S
C5307 C5309 1.327 . S
C5307 C5313 1.429 . S
C5308 C5300 1.574 . S
C5308 H5303 0.949 . S
C5308 C5314 1.368 . S
C5309 C5293 1.349 . S
C5309 H5301 0.950 . S
C5309 C5307 1.327 . S
C5310 C5298 1.349 . S
C5310 H5304 0.950 . S
C5310 C5311 1.327 . S
C5311 H5305 0.950 . S
C5311 C5310 1.327 . S
C5311 C5315 1.429 . S
C5312 C5295 1.574 . S
C5312 H5306 0.949 . S
C5312 C5316 1.368 . S
C5313 C5294 1.429 . S
C5313 C5307 1.429 . S
C5313 C5314 1.523 . S
C5314 C5295 1.368 . S
C5314 C5308 1.368 . S
C5314 C5313 1.523 . S
C5315 C5299 1.429 . S
C5315 C5311 1.429 . S
C5315 C5316 1.523 . S
C5316 C5300 1.368 . S
C5316 C5312 1.368 . S
C5316 C5315 1.523 . S
H5317 C5292 0.950 . S
H5318 C5294 0.950 . S
H5319 C5295 0.949 . S
H5320 C5297 0.950 . S
H5321 C5299 0.950 . S
C5322 C5323 1.349 . S
C5322 C5324 1.327 . S
C5322 H5347 0.950 . S
C5323 C5322 1.349 . S
C5323 C5339 1.349 . S
C5324 C5322 1.327 . S
C5324 C5343 1.429 . S
C5324 H5348 0.950 . S
C5325 C5342 1.574 1_554 S
C5325 C5344 1.368 . S
C5325 H5349 0.949 . S
H5326 C5330 0.949 . S
C5327 C5328 1.349 . S
C5327 C5329 1.327 . S
C5327 H5350 0.950 . S
C5328 C5327 1.349 . S
C5328 C5340 1.349 . S
C5329 C5327 1.327 . S
C5329 C5345 1.429 . S
C5329 H5351 0.950 . S
C5330 H5326 0.949 . S
C5330 C5338 1.574 1_556 S
C5330 C5346 1.368 . S
H5331 C5339 0.950 . S
H5332 C5337 0.950 . S
H5333 C5338 0.949 . S
H5334 C5340 0.950 . S
H5335 C5341 0.950 . S
H5336 C5342 0.949 . S
C5337 H5332 0.950 . S
C5337 C5339 1.327 . S
C5337 C5343 1.429 . S
C5338 C5330 1.574 1_554 S
C5338 H5333 0.949 . S
C5338 C5344 1.368 . S
C5339 C5323 1.349 . S
C5339 H5331 0.950 . S
C5339 C5337 1.327 . S
C5340 C5328 1.349 . S
C5340 H5334 0.950 . S
C5340 C5341 1.327 . S
C5341 H5335 0.950 . S
C5341 C5340 1.327 . S
C5341 C5345 1.429 . S
C5342 C5325 1.574 1_556 S
C5342 H5336 0.949 . S
C5342 C5346 1.368 . S
C5343 C5324 1.429 . S
C5343 C5337 1.429 . S
C5343 C5344 1.523 . S
C5344 C5325 1.368 . S
C5344 C5338 1.368 . S
C5344 C5343 1.523 . S
C5345 C5329 1.429 . S
C5345 C5341 1.429 . S
C5345 C5346 1.523 . S
C5346 C5330 1.368 . S
C5346 C5342 1.368 . S
C5346 C5345 1.523 . S
H5347 C5322 0.950 . S
H5348 C5324 0.950 . S
H5349 C5325 0.949 . S
H5350 C5327 0.950 . S
H5351 C5329 0.950 . S
C5352 C5353 1.349 . S
C5352 C5354 1.327 . S
C5352 H5377 0.950 . S
C5353 C5352 1.349 . S
C5353 C5369 1.349 . S
C5354 C5352 1.327 . S
C5354 C5373 1.429 . S
C5354 H5378 0.950 . S
C5355 C5372 1.574 . S
C5355 C5374 1.368 . S
C5355 H5379 0.949 . S
H5356 C5360 0.949 . S
C5357 C5358 1.349 . S
C5357 C5359 1.327 . S
C5357 H5380 0.950 . S
C5358 C5357 1.349 . S
C5358 C5370 1.349 . S
C5359 C5357 1.327 . S
C5359 C5375 1.429 . S
C5359 H5381 0.950 . S
C5360 H5356 0.949 . S
C5360 C5368 1.574 . S
C5360 C5376 1.368 . S
H5361 C5369 0.950 . S
H5362 C5367 0.950 . S
H5363 C5368 0.949 . S
H5364 C5370 0.950 . S
H5365 C5371 0.950 . S
H5366 C5372 0.949 . S
C5367 H5362 0.950 . S
C5367 C5369 1.327 . S
C5367 C5373 1.429 . S
C5368 C5360 1.574 . S
C5368 H5363 0.949 . S
C5368 C5374 1.368 . S
C5369 C5353 1.349 . S
C5369 H5361 0.950 . S
C5369 C5367 1.327 . S
C5370 C5358 1.349 . S
C5370 H5364 0.950 . S
C5370 C5371 1.327 . S
C5371 H5365 0.950 . S
C5371 C5370 1.327 . S
C5371 C5375 1.429 . S
C5372 C5355 1.574 . S
C5372 H5366 0.949 . S
C5372 C5376 1.368 . S
C5373 C5354 1.429 . S
C5373 C5367 1.429 . S
C5373 C5374 1.523 . S
C5374 C5355 1.368 . S
C5374 C5368 1.368 . S
C5374 C5373 1.523 . S
C5375 C5359 1.429 . S
C5375 C5371 1.429 . S
C5375 C5376 1.523 . S
C5376 C5360 1.368 . S
C5376 C5372 1.368 . S
C5376 C5375 1.523 . S
H5377 C5352 0.950 . S
H5378 C5354 0.950 . S
H5379 C5355 0.949 . S
H5380 C5357 0.950 . S
H5381 C5359 0.950 . S
C5382 C5383 1.349 . S
C5382 C5384 1.327 . S
C5382 H5407 0.950 . S
C5383 C5382 1.349 . S
C5383 C5399 1.349 . S
C5384 C5382 1.327 . S
C5384 C5403 1.429 . S
C5384 H5408 0.950 . S
C5385 C5402 1.574 . S
C5385 C5404 1.368 . S
C5385 H5409 0.949 . S
H5386 C5390 0.949 . S
C5387 C5388 1.349 . S
C5387 C5389 1.327 . S
C5387 H5410 0.950 . S
C5388 C5387 1.349 . S
C5388 C5400 1.349 . S
C5389 C5387 1.327 . S
C5389 C5405 1.429 . S
C5389 H5411 0.950 . S
C5390 H5386 0.949 . S
C5390 C5398 1.574 . S
C5390 C5406 1.368 . S
H5391 C5399 0.950 . S
H5392 C5397 0.950 . S
H5393 C5398 0.949 . S
H5394 C5400 0.950 . S
H5395 C5401 0.950 . S
H5396 C5402 0.949 . S
C5397 H5392 0.950 . S
C5397 C5399 1.327 . S
C5397 C5403 1.429 . S
C5398 C5390 1.574 . S
C5398 H5393 0.949 . S
C5398 C5404 1.368 . S
C5399 C5383 1.349 . S
C5399 H5391 0.950 . S
C5399 C5397 1.327 . S
C5400 C5388 1.349 . S
C5400 H5394 0.950 . S
C5400 C5401 1.327 . S
C5401 H5395 0.950 . S
C5401 C5400 1.327 . S
C5401 C5405 1.429 . S
C5402 C5385 1.574 . S
C5402 H5396 0.949 . S
C5402 C5406 1.368 . S
C5403 C5384 1.429 . S
C5403 C5397 1.429 . S
C5403 C5404 1.523 . S
C5404 C5385 1.368 . S
C5404 C5398 1.368 . S
C5404 C5403 1.523 . S
C5405 C5389 1.429 . S
C5405 C5401 1.429 . S
C5405 C5406 1.523 . S
C5406 C5390 1.368 . S
C5406 C5402 1.368 . S
C5406 C5405 1.523 . S
H5407 C5382 0.950 . S
H5408 C5384 0.950 . S
H5409 C5385 0.949 . S
H5410 C5387 0.950 . S
H5411 C5389 0.950 . S
C5412 C5413 1.349 . S
C5412 C5414 1.327 . S
C5412 H5437 0.950 . S
C5413 C5412 1.349 . S
C5413 C5429 1.349 . S
C5414 C5412 1.327 . S
C5414 C5433 1.429 . S
C5414 H5438 0.950 . S
C5415 C5432 1.574 . S
C5415 C5434 1.368 . S
C5415 H5439 0.949 . S
H5416 C5420 0.949 . S
C5417 C5418 1.349 . S
C5417 C5419 1.327 . S
C5417 H5440 0.950 . S
C5418 C5417 1.349 . S
C5418 C5430 1.349 . S
C5419 C5417 1.327 . S
C5419 C5435 1.429 . S
C5419 H5441 0.950 . S
C5420 H5416 0.949 . S
C5420 C5428 1.574 . S
C5420 C5436 1.368 . S
H5421 C5429 0.950 . S
H5422 C5427 0.950 . S
H5423 C5428 0.949 . S
H5424 C5430 0.950 . S
H5425 C5431 0.950 . S
H5426 C5432 0.949 . S
C5427 H5422 0.950 . S
C5427 C5429 1.327 . S
C5427 C5433 1.429 . S
C5428 C5420 1.574 . S
C5428 H5423 0.949 . S
C5428 C5434 1.368 . S
C5429 C5413 1.349 . S
C5429 H5421 0.950 . S
C5429 C5427 1.327 . S
C5430 C5418 1.349 . S
C5430 H5424 0.950 . S
C5430 C5431 1.327 . S
C5431 H5425 0.950 . S
C5431 C5430 1.327 . S
C5431 C5435 1.429 . S
C5432 C5415 1.574 . S
C5432 H5426 0.949 . S
C5432 C5436 1.368 . S
C5433 C5414 1.429 . S
C5433 C5427 1.429 . S
C5433 C5434 1.523 . S
C5434 C5415 1.368 . S
C5434 C5428 1.368 . S
C5434 C5433 1.523 . S
C5435 C5419 1.429 . S
C5435 C5431 1.429 . S
C5435 C5436 1.523 . S
C5436 C5420 1.368 . S
C5436 C5432 1.368 . S
C5436 C5435 1.523 . S
H5437 C5412 0.950 . S
H5438 C5414 0.950 . S
H5439 C5415 0.949 . S
H5440 C5417 0.950 . S
H5441 C5419 0.950 . S
C5442 C5443 1.349 . S
C5442 C5444 1.327 . S
C5442 H5467 0.950 . S
C5443 C5442 1.349 . S
C5443 C5459 1.349 . S
C5444 C5442 1.327 . S
C5444 C5463 1.429 . S
C5444 H5468 0.950 . S
C5445 C5462 1.574 . S
C5445 C5464 1.368 . S
C5445 H5469 0.949 . S
H5446 C5450 0.949 . S
C5447 C5448 1.349 . S
C5447 C5449 1.327 . S
C5447 H5470 0.950 . S
C5448 C5447 1.349 . S
C5448 C5460 1.349 . S
C5449 C5447 1.327 . S
C5449 C5465 1.429 . S
C5449 H5471 0.950 . S
C5450 H5446 0.949 . S
C5450 C5458 1.574 . S
C5450 C5466 1.368 . S
H5451 C5459 0.950 . S
H5452 C5457 0.950 . S
H5453 C5458 0.949 . S
H5454 C5460 0.950 . S
H5455 C5461 0.950 . S
H5456 C5462 0.949 . S
C5457 H5452 0.950 . S
C5457 C5459 1.327 . S
C5457 C5463 1.429 . S
C5458 C5450 1.574 . S
C5458 H5453 0.949 . S
C5458 C5464 1.368 . S
C5459 C5443 1.349 . S
C5459 H5451 0.950 . S
C5459 C5457 1.327 . S
C5460 C5448 1.349 . S
C5460 H5454 0.950 . S
C5460 C5461 1.327 . S
C5461 H5455 0.950 . S
C5461 C5460 1.327 . S
C5461 C5465 1.429 . S
C5462 C5445 1.574 . S
C5462 H5456 0.949 . S
C5462 C5466 1.368 . S
C5463 C5444 1.429 . S
C5463 C5457 1.429 . S
C5463 C5464 1.523 . S
C5464 C5445 1.368 . S
C5464 C5458 1.368 . S
C5464 C5463 1.523 . S
C5465 C5449 1.429 . S
C5465 C5461 1.429 . S
C5465 C5466 1.523 . S
C5466 C5450 1.368 . S
C5466 C5462 1.368 . S
C5466 C5465 1.523 . S
H5467 C5442 0.950 . S
H5468 C5444 0.950 . S
H5469 C5445 0.949 . S
H5470 C5447 0.950 . S
H5471 C5449 0.950 . S
C5472 C5473 1.349 . S
C5472 C5474 1.327 . S
C5472 H5497 0.950 . S
C5473 C5472 1.349 . S
C5473 C5489 1.349 . S
C5474 C5472 1.327 . S
C5474 C5493 1.429 . S
C5474 H5498 0.950 . S
C5475 C5492 1.574 . S
C5475 C5494 1.368 . S
C5475 H5499 0.949 . S
H5476 C5480 0.949 . S
C5477 C5478 1.349 . S
C5477 C5479 1.327 . S
C5477 H5500 0.950 . S
C5478 C5477 1.349 . S
C5478 C5490 1.349 . S
C5479 C5477 1.327 . S
C5479 C5495 1.429 . S
C5479 H5501 0.950 . S
C5480 H5476 0.949 . S
C5480 C5488 1.574 . S
C5480 C5496 1.368 . S
H5481 C5489 0.950 . S
H5482 C5487 0.950 . S
H5483 C5488 0.949 . S
H5484 C5490 0.950 . S
H5485 C5491 0.950 . S
H5486 C5492 0.949 . S
C5487 H5482 0.950 . S
C5487 C5489 1.327 . S
C5487 C5493 1.429 . S
C5488 C5480 1.574 . S
C5488 H5483 0.949 . S
C5488 C5494 1.368 . S
C5489 C5473 1.349 . S
C5489 H5481 0.950 . S
C5489 C5487 1.327 . S
C5490 C5478 1.349 . S
C5490 H5484 0.950 . S
C5490 C5491 1.327 . S
C5491 H5485 0.950 . S
C5491 C5490 1.327 . S
C5491 C5495 1.429 . S
C5492 C5475 1.574 . S
C5492 H5486 0.949 . S
C5492 C5496 1.368 . S
C5493 C5474 1.429 . S
C5493 C5487 1.429 . S
C5493 C5494 1.523 . S
C5494 C5475 1.368 . S
C5494 C5488 1.368 . S
C5494 C5493 1.523 . S
C5495 C5479 1.429 . S
C5495 C5491 1.429 . S
C5495 C5496 1.523 . S
C5496 C5480 1.368 . S
C5496 C5492 1.368 . S
C5496 C5495 1.523 . S
H5497 C5472 0.950 . S
H5498 C5474 0.950 . S
H5499 C5475 0.949 . S
H5500 C5477 0.950 . S
H5501 C5479 0.950 . S
C5502 C5503 1.349 . S
C5502 C5504 1.327 . S
C5502 H5527 0.950 . S
C5503 C5502 1.349 . S
C5503 C5519 1.349 . S
C5504 C5502 1.327 . S
C5504 C5523 1.429 . S
C5504 H5528 0.950 . S
C5505 C5522 1.574 . S
C5505 C5524 1.368 . S
C5505 H5529 0.949 . S
H5506 C5510 0.949 . S
C5507 C5508 1.349 . S
C5507 C5509 1.327 . S
C5507 H5530 0.950 . S
C5508 C5507 1.349 . S
C5508 C5520 1.349 . S
C5509 C5507 1.327 . S
C5509 C5525 1.429 . S
C5509 H5531 0.950 . S
C5510 H5506 0.949 . S
C5510 C5518 1.574 . S
C5510 C5526 1.368 . S
H5511 C5519 0.950 . S
H5512 C5517 0.950 . S
H5513 C5518 0.949 . S
H5514 C5520 0.950 . S
H5515 C5521 0.950 . S
H5516 C5522 0.949 . S
C5517 H5512 0.950 . S
C5517 C5519 1.327 . S
C5517 C5523 1.429 . S
C5518 C5510 1.574 . S
C5518 H5513 0.949 . S
C5518 C5524 1.368 . S
C5519 C5503 1.349 . S
C5519 H5511 0.950 . S
C5519 C5517 1.327 . S
C5520 C5508 1.349 . S
C5520 H5514 0.950 . S
C5520 C5521 1.327 . S
C5521 H5515 0.950 . S
C5521 C5520 1.327 . S
C5521 C5525 1.429 . S
C5522 C5505 1.574 . S
C5522 H5516 0.949 . S
C5522 C5526 1.368 . S
C5523 C5504 1.429 . S
C5523 C5517 1.429 . S
C5523 C5524 1.523 . S
C5524 C5505 1.368 . S
C5524 C5518 1.368 . S
C5524 C5523 1.523 . S
C5525 C5509 1.429 . S
C5525 C5521 1.429 . S
C5525 C5526 1.523 . S
C5526 C5510 1.368 . S
C5526 C5522 1.368 . S
C5526 C5525 1.523 . S
H5527 C5502 0.950 . S
H5528 C5504 0.950 . S
H5529 C5505 0.949 . S
H5530 C5507 0.950 . S
H5531 C5509 0.950 . S
C5532 C5533 1.349 . S
C5532 C5534 1.327 . S
C5532 H5557 0.950 . S
C5533 C5532 1.349 . S
C5533 C5549 1.349 . S
C5534 C5532 1.327 . S
C5534 C5553 1.429 . S
C5534 H5558 0.950 . S
C5535 C5552 1.574 . S
C5535 C5554 1.368 . S
C5535 H5559 0.949 . S
H5536 C5540 0.949 . S
C5537 C5538 1.349 . S
C5537 C5539 1.327 . S
C5537 H5560 0.950 . S
C5538 C5537 1.349 . S
C5538 C5550 1.349 . S
C5539 C5537 1.327 . S
C5539 C5555 1.429 . S
C5539 H5561 0.950 . S
C5540 H5536 0.949 . S
C5540 C5548 1.574 . S
C5540 C5556 1.368 . S
H5541 C5549 0.950 . S
H5542 C5547 0.950 . S
H5543 C5548 0.949 . S
H5544 C5550 0.950 . S
H5545 C5551 0.950 . S
H5546 C5552 0.949 . S
C5547 H5542 0.950 . S
C5547 C5549 1.327 . S
C5547 C5553 1.429 . S
C5548 C5540 1.574 . S
C5548 H5543 0.949 . S
C5548 C5554 1.368 . S
C5549 C5533 1.349 . S
C5549 H5541 0.950 . S
C5549 C5547 1.327 . S
C5550 C5538 1.349 . S
C5550 H5544 0.950 . S
C5550 C5551 1.327 . S
C5551 H5545 0.950 . S
C5551 C5550 1.327 . S
C5551 C5555 1.429 . S
C5552 C5535 1.574 . S
C5552 H5546 0.949 . S
C5552 C5556 1.368 . S
C5553 C5534 1.429 . S
C5553 C5547 1.429 . S
C5553 C5554 1.523 . S
C5554 C5535 1.368 . S
C5554 C5548 1.368 . S
C5554 C5553 1.523 . S
C5555 C5539 1.429 . S
C5555 C5551 1.429 . S
C5555 C5556 1.523 . S
C5556 C5540 1.368 . S
C5556 C5552 1.368 . S
C5556 C5555 1.523 . S
H5557 C5532 0.950 . S
H5558 C5534 0.950 . S
H5559 C5535 0.949 . S
H5560 C5537 0.950 . S
H5561 C5539 0.950 . S
C5562 C5563 1.349 . S
C5562 C5564 1.327 . S
C5562 H5587 0.950 . S
C5563 C5562 1.349 . S
C5563 C5579 1.349 . S
C5564 C5562 1.327 . S
C5564 C5583 1.429 . S
C5564 H5588 0.950 . S
C5565 C5582 1.574 . S
C5565 C5584 1.368 . S
C5565 H5589 0.949 . S
H5566 C5570 0.949 . S
C5567 C5568 1.349 . S
C5567 C5569 1.327 . S
C5567 H5590 0.950 . S
C5568 C5567 1.349 . S
C5568 C5580 1.349 . S
C5569 C5567 1.327 . S
C5569 C5585 1.429 . S
C5569 H5591 0.950 . S
C5570 H5566 0.949 . S
C5570 C5578 1.574 . S
C5570 C5586 1.368 . S
H5571 C5579 0.950 . S
H5572 C5577 0.950 . S
H5573 C5578 0.949 . S
H5574 C5580 0.950 . S
H5575 C5581 0.950 . S
H5576 C5582 0.949 . S
C5577 H5572 0.950 . S
C5577 C5579 1.327 . S
C5577 C5583 1.429 . S
C5578 C5570 1.574 . S
C5578 H5573 0.949 . S
C5578 C5584 1.368 . S
C5579 C5563 1.349 . S
C5579 H5571 0.950 . S
C5579 C5577 1.327 . S
C5580 C5568 1.349 . S
C5580 H5574 0.950 . S
C5580 C5581 1.327 . S
C5581 H5575 0.950 . S
C5581 C5580 1.327 . S
C5581 C5585 1.429 . S
C5582 C5565 1.574 . S
C5582 H5576 0.949 . S
C5582 C5586 1.368 . S
C5583 C5564 1.429 . S
C5583 C5577 1.429 . S
C5583 C5584 1.523 . S
C5584 C5565 1.368 . S
C5584 C5578 1.368 . S
C5584 C5583 1.523 . S
C5585 C5569 1.429 . S
C5585 C5581 1.429 . S
C5585 C5586 1.523 . S
C5586 C5570 1.368 . S
C5586 C5582 1.368 . S
C5586 C5585 1.523 . S
H5587 C5562 0.950 . S
H5588 C5564 0.950 . S
H5589 C5565 0.949 . S
H5590 C5567 0.950 . S
H5591 C5569 0.950 . S
C5592 C5593 1.349 . S
C5592 C5594 1.327 . S
C5592 H5617 0.950 . S
C5593 C5592 1.349 . S
C5593 C5609 1.349 . S
C5594 C5592 1.327 . S
C5594 C5613 1.429 . S
C5594 H5618 0.950 . S
C5595 C5612 1.574 . S
C5595 C5614 1.368 . S
C5595 H5619 0.949 . S
H5596 C5600 0.949 . S
C5597 C5598 1.349 . S
C5597 C5599 1.327 . S
C5597 H5620 0.950 . S
C5598 C5597 1.349 . S
C5598 C5610 1.349 . S
C5599 C5597 1.327 . S
C5599 C5615 1.429 . S
C5599 H5621 0.950 . S
C5600 H5596 0.949 . S
C5600 C5608 1.574 . S
C5600 C5616 1.368 . S
H5601 C5609 0.950 . S
H5602 C5607 0.950 . S
H5603 C5608 0.949 . S
H5604 C5610 0.950 . S
H5605 C5611 0.950 . S
H5606 C5612 0.949 . S
C5607 H5602 0.950 . S
C5607 C5609 1.327 . S
C5607 C5613 1.429 . S
C5608 C5600 1.574 . S
C5608 H5603 0.949 . S
C5608 C5614 1.368 . S
C5609 C5593 1.349 . S
C5609 H5601 0.950 . S
C5609 C5607 1.327 . S
C5610 C5598 1.349 . S
C5610 H5604 0.950 . S
C5610 C5611 1.327 . S
C5611 H5605 0.950 . S
C5611 C5610 1.327 . S
C5611 C5615 1.429 . S
C5612 C5595 1.574 . S
C5612 H5606 0.949 . S
C5612 C5616 1.368 . S
C5613 C5594 1.429 . S
C5613 C5607 1.429 . S
C5613 C5614 1.523 . S
C5614 C5595 1.368 . S
C5614 C5608 1.368 . S
C5614 C5613 1.523 . S
C5615 C5599 1.429 . S
C5615 C5611 1.429 . S
C5615 C5616 1.523 . S
C5616 C5600 1.368 . S
C5616 C5612 1.368 . S
C5616 C5615 1.523 . S
H5617 C5592 0.950 . S
H5618 C5594 0.950 . S
H5619 C5595 0.949 . S
H5620 C5597 0.950 . S
H5621 C5599 0.950 . S
C5622 C5623 1.349 . S
C5622 C5624 1.327 . S
C5622 H5647 0.950 . S
C5623 C5622 1.349 . S
C5623 C5639 1.349 . S
C5624 C5622 1.327 . S
C5624 C5643 1.429 . S
C5624 H5648 0.950 . S
C5625 C5642 1.574 . S
C5625 C5644 1.368 . S
C5625 H5649 0.949 . S
H5626 C5630 0.949 . S
C5627 C5628 1.349 . S
C5627 C5629 1.327 . S
C5627 H5650 0.950 . S
C5628 C5627 1.349 . S
C5628 C5640 1.349 . S
C5629 C5627 1.327 . S
C5629 C5645 1.429 . S
C5629 H5651 0.950 . S
C5630 H5626 0.949 . S
C5630 C5638 1.574 . S
C5630 C5646 1.368 . S
H5631 C5639 0.950 . S
H5632 C5637 0.950 . S
H5633 C5638 0.949 . S
H5634 C5640 0.950 . S
H5635 C5641 0.950 . S
H5636 C5642 0.949 . S
C5637 H5632 0.950 . S
C5637 C5639 1.327 . S
C5637 C5643 1.429 . S
C5638 C5630 1.574 . S
C5638 H5633 0.949 . S
C5638 C5644 1.368 . S
C5639 C5623 1.349 . S
C5639 H5631 0.950 . S
C5639 C5637 1.327 . S
C5640 C5628 1.349 . S
C5640 H5634 0.950 . S
C5640 C5641 1.327 . S
C5641 H5635 0.950 . S
C5641 C5640 1.327 . S
C5641 C5645 1.429 . S
C5642 C5625 1.574 . S
C5642 H5636 0.949 . S
C5642 C5646 1.368 . S
C5643 C5624 1.429 . S
C5643 C5637 1.429 . S
C5643 C5644 1.523 . S
C5644 C5625 1.368 . S
C5644 C5638 1.368 . S
C5644 C5643 1.523 . S
C5645 C5629 1.429 . S
C5645 C5641 1.429 . S
C5645 C5646 1.523 . S
C5646 C5630 1.368 . S
C5646 C5642 1.368 . S
C5646 C5645 1.523 . S
H5647 C5622 0.950 . S
H5648 C5624 0.950 . S
H5649 C5625 0.949 . S
H5650 C5627 0.950 . S
H5651 C5629 0.950 . S
C5652 C5653 1.349 . S
C5652 C5654 1.327 . S
C5652 H5677 0.950 . S
C5653 C5652 1.349 . S
C5653 C5669 1.349 . S
C5654 C5652 1.327 . S
C5654 C5673 1.429 . S
C5654 H5678 0.950 . S
C5655 C5672 1.574 . S
C5655 C5674 1.368 . S
C5655 H5679 0.949 . S
H5656 C5660 0.949 . S
C5657 C5658 1.349 . S
C5657 C5659 1.327 . S
C5657 H5680 0.950 . S
C5658 C5657 1.349 . S
C5658 C5670 1.349 . S
C5659 C5657 1.327 . S
C5659 C5675 1.429 . S
C5659 H5681 0.950 . S
C5660 H5656 0.949 . S
C5660 C5668 1.574 . S
C5660 C5676 1.368 . S
H5661 C5669 0.950 . S
H5662 C5667 0.950 . S
H5663 C5668 0.949 . S
H5664 C5670 0.950 . S
H5665 C5671 0.950 . S
H5666 C5672 0.949 . S
C5667 H5662 0.950 . S
C5667 C5669 1.327 . S
C5667 C5673 1.429 . S
C5668 C5660 1.574 . S
C5668 H5663 0.949 . S
C5668 C5674 1.368 . S
C5669 C5653 1.349 . S
C5669 H5661 0.950 . S
C5669 C5667 1.327 . S
C5670 C5658 1.349 . S
C5670 H5664 0.950 . S
C5670 C5671 1.327 . S
C5671 H5665 0.950 . S
C5671 C5670 1.327 . S
C5671 C5675 1.429 . S
C5672 C5655 1.574 . S
C5672 H5666 0.949 . S
C5672 C5676 1.368 . S
C5673 C5654 1.429 . S
C5673 C5667 1.429 . S
C5673 C5674 1.523 . S
C5674 C5655 1.368 . S
C5674 C5668 1.368 . S
C5674 C5673 1.523 . S
C5675 C5659 1.429 . S
C5675 C5671 1.429 . S
C5675 C5676 1.523 . S
C5676 C5660 1.368 . S
C5676 C5672 1.368 . S
C5676 C5675 1.523 . S
H5677 C5652 0.950 . S
H5678 C5654 0.950 . S
H5679 C5655 0.949 . S
H5680 C5657 0.950 . S
H5681 C5659 0.950 . S
C5682 C5683 1.349 . S
C5682 C5684 1.327 . S
C5682 H5707 0.950 . S
C5683 C5682 1.349 . S
C5683 C5699 1.349 . S
C5684 C5682 1.327 . S
C5684 C5703 1.429 . S
C5684 H5708 0.950 . S
C5685 C5702 1.574 . S
C5685 C5704 1.368 . S
C5685 H5709 0.949 . S
H5686 C5690 0.949 . S
C5687 C5688 1.349 . S
C5687 C5689 1.327 . S
C5687 H5710 0.950 . S
C5688 C5687 1.349 . S
C5688 C5700 1.349 . S
C5689 C5687 1.327 . S
C5689 C5705 1.429 . S
C5689 H5711 0.950 . S
C5690 H5686 0.949 . S
C5690 C5698 1.574 . S
C5690 C5706 1.368 . S
H5691 C5699 0.950 . S
H5692 C5697 0.950 . S
H5693 C5698 0.949 . S
H5694 C5700 0.950 . S
H5695 C5701 0.950 . S
H5696 C5702 0.949 . S
C5697 H5692 0.950 . S
C5697 C5699 1.327 . S
C5697 C5703 1.429 . S
C5698 C5690 1.574 . S
C5698 H5693 0.949 . S
C5698 C5704 1.368 . S
C5699 C5683 1.349 . S
C5699 H5691 0.950 . S
C5699 C5697 1.327 . S
C5700 C5688 1.349 . S
C5700 H5694 0.950 . S
C5700 C5701 1.327 . S
C5701 H5695 0.950 . S
C5701 C5700 1.327 . S
C5701 C5705 1.429 . S
C5702 C5685 1.574 . S
C5702 H5696 0.949 . S
C5702 C5706 1.368 . S
C5703 C5684 1.429 . S
C5703 C5697 1.429 . S
C5703 C5704 1.523 . S
C5704 C5685 1.368 . S
C5704 C5698 1.368 . S
C5704 C5703 1.523 . S
C5705 C5689 1.429 . S
C5705 C5701 1.429 . S
C5705 C5706 1.523 . S
C5706 C5690 1.368 . S
C5706 C5702 1.368 . S
C5706 C5705 1.523 . S
H5707 C5682 0.950 . S
H5708 C5684 0.950 . S
H5709 C5685 0.949 . S
H5710 C5687 0.950 . S
H5711 C5689 0.950 . S
C5712 C5713 1.349 . S
C5712 C5714 1.327 . S
C5712 H5737 0.950 . S
C5713 C5712 1.349 . S
C5713 C5729 1.349 . S
C5714 C5712 1.327 . S
C5714 C5733 1.429 . S
C5714 H5738 0.950 . S
C5715 C5732 1.574 . S
C5715 C5734 1.368 . S
C5715 H5739 0.949 . S
H5716 C5720 0.949 . S
C5717 C5718 1.349 . S
C5717 C5719 1.327 . S
C5717 H5740 0.950 . S
C5718 C5717 1.349 . S
C5718 C5730 1.349 . S
C5719 C5717 1.327 . S
C5719 C5735 1.429 . S
C5719 H5741 0.950 . S
C5720 H5716 0.949 . S
C5720 C5728 1.574 . S
C5720 C5736 1.368 . S
H5721 C5729 0.950 . S
H5722 C5727 0.950 . S
H5723 C5728 0.949 . S
H5724 C5730 0.950 . S
H5725 C5731 0.950 . S
H5726 C5732 0.949 . S
C5727 H5722 0.950 . S
C5727 C5729 1.327 . S
C5727 C5733 1.429 . S
C5728 C5720 1.574 . S
C5728 H5723 0.949 . S
C5728 C5734 1.368 . S
C5729 C5713 1.349 . S
C5729 H5721 0.950 . S
C5729 C5727 1.327 . S
C5730 C5718 1.349 . S
C5730 H5724 0.950 . S
C5730 C5731 1.327 . S
C5731 H5725 0.950 . S
C5731 C5730 1.327 . S
C5731 C5735 1.429 . S
C5732 C5715 1.574 . S
C5732 H5726 0.949 . S
C5732 C5736 1.368 . S
C5733 C5714 1.429 . S
C5733 C5727 1.429 . S
C5733 C5734 1.523 . S
C5734 C5715 1.368 . S
C5734 C5728 1.368 . S
C5734 C5733 1.523 . S
C5735 C5719 1.429 . S
C5735 C5731 1.429 . S
C5735 C5736 1.523 . S
C5736 C5720 1.368 . S
C5736 C5732 1.368 . S
C5736 C5735 1.523 . S
H5737 C5712 0.950 . S
H5738 C5714 0.950 . S
H5739 C5715 0.949 . S
H5740 C5717 0.950 . S
H5741 C5719 0.950 . S
C5742 C5743 1.349 . S
C5742 C5744 1.327 . S
C5742 H5767 0.950 . S
C5743 C5742 1.349 . S
C5743 C5759 1.349 . S
C5744 C5742 1.327 . S
C5744 C5763 1.429 . S
C5744 H5768 0.950 . S
C5745 C5762 1.574 . S
C5745 C5764 1.368 . S
C5745 H5769 0.949 . S
H5746 C5750 0.949 . S
C5747 C5748 1.349 . S
C5747 C5749 1.327 . S
C5747 H5770 0.950 . S
C5748 C5747 1.349 . S
C5748 C5760 1.349 . S
C5749 C5747 1.327 . S
C5749 C5765 1.429 . S
C5749 H5771 0.950 . S
C5750 H5746 0.949 . S
C5750 C5758 1.574 . S
C5750 C5766 1.368 . S
H5751 C5759 0.950 . S
H5752 C5757 0.950 . S
H5753 C5758 0.949 . S
H5754 C5760 0.950 . S
H5755 C5761 0.950 . S
H5756 C5762 0.949 . S
C5757 H5752 0.950 . S
C5757 C5759 1.327 . S
C5757 C5763 1.429 . S
C5758 C5750 1.574 . S
C5758 H5753 0.949 . S
C5758 C5764 1.368 . S
C5759 C5743 1.349 . S
C5759 H5751 0.950 . S
C5759 C5757 1.327 . S
C5760 C5748 1.349 . S
C5760 H5754 0.950 . S
C5760 C5761 1.327 . S
C5761 H5755 0.950 . S
C5761 C5760 1.327 . S
C5761 C5765 1.429 . S
C5762 C5745 1.574 . S
C5762 H5756 0.949 . S
C5762 C5766 1.368 . S
C5763 C5744 1.429 . S
C5763 C5757 1.429 . S
C5763 C5764 1.523 . S
C5764 C5745 1.368 . S
C5764 C5758 1.368 . S
C5764 C5763 1.523 . S
C5765 C5749 1.429 . S
C5765 C5761 1.429 . S
C5765 C5766 1.523 . S
C5766 C5750 1.368 . S
C5766 C5762 1.368 . S
C5766 C5765 1.523 . S
H5767 C5742 0.950 . S
H5768 C5744 0.950 . S
H5769 C5745 0.949 . S
H5770 C5747 0.950 . S
H5771 C5749 0.950 . S
C5772 C5773 1.349 . S
C5772 C5774 1.327 . S
C5772 H5797 0.950 . S
C5773 C5772 1.349 . S
C5773 C5789 1.349 . S
C5774 C5772 1.327 . S
C5774 C5793 1.429 . S
C5774 H5798 0.950 . S
C5775 C5792 1.574 . S
C5775 C5794 1.368 . S
C5775 H5799 0.949 . S
H5776 C5780 0.949 . S
C5777 C5778 1.349 . S
C5777 C5779 1.327 . S
C5777 H5800 0.950 . S
C5778 C5777 1.349 . S
C5778 C5790 1.349 . S
C5779 C5777 1.327 . S
C5779 C5795 1.429 . S
C5779 H5801 0.950 . S
C5780 H5776 0.949 . S
C5780 C5788 1.574 . S
C5780 C5796 1.368 . S
H5781 C5789 0.950 . S
H5782 C5787 0.950 . S
H5783 C5788 0.949 . S
H5784 C5790 0.950 . S
H5785 C5791 0.950 . S
H5786 C5792 0.949 . S
C5787 H5782 0.950 . S
C5787 C5789 1.327 . S
C5787 C5793 1.429 . S
C5788 C5780 1.574 . S
C5788 H5783 0.949 . S
C5788 C5794 1.368 . S
C5789 C5773 1.349 . S
C5789 H5781 0.950 . S
C5789 C5787 1.327 . S
C5790 C5778 1.349 . S
C5790 H5784 0.950 . S
C5790 C5791 1.327 . S
C5791 H5785 0.950 . S
C5791 C5790 1.327 . S
C5791 C5795 1.429 . S
C5792 C5775 1.574 . S
C5792 H5786 0.949 . S
C5792 C5796 1.368 . S
C5793 C5774 1.429 . S
C5793 C5787 1.429 . S
C5793 C5794 1.523 . S
C5794 C5775 1.368 . S
C5794 C5788 1.368 . S
C5794 C5793 1.523 . S
C5795 C5779 1.429 . S
C5795 C5791 1.429 . S
C5795 C5796 1.523 . S
C5796 C5780 1.368 . S
C5796 C5792 1.368 . S
C5796 C5795 1.523 . S
H5797 C5772 0.950 . S
H5798 C5774 0.950 . S
H5799 C5775 0.949 . S
H5800 C5777 0.950 . S
H5801 C5779 0.950 . S
C5802 C5803 1.349 . S
C5802 C5804 1.327 . S
C5802 H5827 0.950 . S
C5803 C5802 1.349 . S
C5803 C5819 1.349 . S
C5804 C5802 1.327 . S
C5804 C5823 1.429 . S
C5804 H5828 0.950 . S
C5805 C5822 1.574 . S
C5805 C5824 1.368 . S
C5805 H5829 0.949 . S
H5806 C5810 0.949 . S
C5807 C5808 1.349 . S
C5807 C5809 1.327 . S
C5807 H5830 0.950 . S
C5808 C5807 1.349 . S
C5808 C5820 1.349 . S
C5809 C5807 1.327 . S
C5809 C5825 1.429 . S
C5809 H5831 0.950 . S
C5810 H5806 0.949 . S
C5810 C5818 1.574 . S
C5810 C5826 1.368 . S
H5811 C5819 0.950 . S
H5812 C5817 0.950 . S
H5813 C5818 0.949 . S
H5814 C5820 0.950 . S
H5815 C5821 0.950 . S
H5816 C5822 0.949 . S
C5817 H5812 0.950 . S
C5817 C5819 1.327 . S
C5817 C5823 1.429 . S
C5818 C5810 1.574 . S
C5818 H5813 0.949 . S
C5818 C5824 1.368 . S
C5819 C5803 1.349 . S
C5819 H5811 0.950 . S
C5819 C5817 1.327 . S
C5820 C5808 1.349 . S
C5820 H5814 0.950 . S
C5820 C5821 1.327 . S
C5821 H5815 0.950 . S
C5821 C5820 1.327 . S
C5821 C5825 1.429 . S
C5822 C5805 1.574 . S
C5822 H5816 0.949 . S
C5822 C5826 1.368 . S
C5823 C5804 1.429 . S
C5823 C5817 1.429 . S
C5823 C5824 1.523 . S
C5824 C5805 1.368 . S
C5824 C5818 1.368 . S
C5824 C5823 1.523 . S
C5825 C5809 1.429 . S
C5825 C5821 1.429 . S
C5825 C5826 1.523 . S
C5826 C5810 1.368 . S
C5826 C5822 1.368 . S
C5826 C5825 1.523 . S
H5827 C5802 0.950 . S
H5828 C5804 0.950 . S
H5829 C5805 0.949 . S
H5830 C5807 0.950 . S
H5831 C5809 0.950 . S
C5832 C5833 1.349 . S
C5832 C5834 1.327 . S
C5832 H5857 0.950 . S
C5833 C5832 1.349 . S
C5833 C5849 1.349 . S
C5834 C5832 1.327 . S
C5834 C5853 1.429 . S
C5834 H5858 0.950 . S
C5835 C5852 1.574 . S
C5835 C5854 1.368 . S
C5835 H5859 0.949 . S
H5836 C5840 0.949 . S
C5837 C5838 1.349 . S
C5837 C5839 1.327 . S
C5837 H5860 0.950 . S
C5838 C5837 1.349 . S
C5838 C5850 1.349 . S
C5839 C5837 1.327 . S
C5839 C5855 1.429 . S
C5839 H5861 0.950 . S
C5840 H5836 0.949 . S
C5840 C5848 1.574 . S
C5840 C5856 1.368 . S
H5841 C5849 0.950 . S
H5842 C5847 0.950 . S
H5843 C5848 0.949 . S
H5844 C5850 0.950 . S
H5845 C5851 0.950 . S
H5846 C5852 0.949 . S
C5847 H5842 0.950 . S
C5847 C5849 1.327 . S
C5847 C5853 1.429 . S
C5848 C5840 1.574 . S
C5848 H5843 0.949 . S
C5848 C5854 1.368 . S
C5849 C5833 1.349 . S
C5849 H5841 0.950 . S
C5849 C5847 1.327 . S
C5850 C5838 1.349 . S
C5850 H5844 0.950 . S
C5850 C5851 1.327 . S
C5851 H5845 0.950 . S
C5851 C5850 1.327 . S
C5851 C5855 1.429 . S
C5852 C5835 1.574 . S
C5852 H5846 0.949 . S
C5852 C5856 1.368 . S
C5853 C5834 1.429 . S
C5853 C5847 1.429 . S
C5853 C5854 1.523 . S
C5854 C5835 1.368 . S
C5854 C5848 1.368 . S
C5854 C5853 1.523 . S
C5855 C5839 1.429 . S
C5855 C5851 1.429 . S
C5855 C5856 1.523 . S
C5856 C5840 1.368 . S
C5856 C5852 1.368 . S
C5856 C5855 1.523 . S
H5857 C5832 0.950 . S
H5858 C5834 0.950 . S
H5859 C5835 0.949 . S
H5860 C5837 0.950 . S
H5861 C5839 0.950 . S
C5862 C5863 1.349 . S
C5862 C5864 1.327 . S
C5862 H5887 0.950 . S
C5863 C5862 1.349 . S
C5863 C5879 1.349 . S
C5864 C5862 1.327 . S
C5864 C5883 1.429 . S
C5864 H5888 0.950 . S
C5865 C5882 1.574 . S
C5865 C5884 1.368 . S
C5865 H5889 0.949 . S
H5866 C5870 0.949 . S
C5867 C5868 1.349 . S
C5867 C5869 1.327 . S
C5867 H5890 0.950 . S
C5868 C5867 1.349 . S
C5868 C5880 1.349 . S
C5869 C5867 1.327 . S
C5869 C5885 1.429 . S
C5869 H5891 0.950 . S
C5870 H5866 0.949 . S
C5870 C5878 1.574 . S
C5870 C5886 1.368 . S
H5871 C5879 0.950 . S
H5872 C5877 0.950 . S
H5873 C5878 0.949 . S
H5874 C5880 0.950 . S
H5875 C5881 0.950 . S
H5876 C5882 0.949 . S
C5877 H5872 0.950 . S
C5877 C5879 1.327 . S
C5877 C5883 1.429 . S
C5878 C5870 1.574 . S
C5878 H5873 0.949 . S
C5878 C5884 1.368 . S
C5879 C5863 1.349 . S
C5879 H5871 0.950 . S
C5879 C5877 1.327 . S
C5880 C5868 1.349 . S
C5880 H5874 0.950 . S
C5880 C5881 1.327 . S
C5881 H5875 0.950 . S
C5881 C5880 1.327 . S
C5881 C5885 1.429 . S
C5882 C5865 1.574 . S
C5882 H5876 0.949 . S
C5882 C5886 1.368 . S
C5883 C5864 1.429 . S
C5883 C5877 1.429 . S
C5883 C5884 1.523 . S
C5884 C5865 1.368 . S
C5884 C5878 1.368 . S
C5884 C5883 1.523 . S
C5885 C5869 1.429 . S
C5885 C5881 1.429 . S
C5885 C5886 1.523 . S
C5886 C5870 1.368 . S
C5886 C5882 1.368 . S
C5886 C5885 1.523 . S
H5887 C5862 0.950 . S
H5888 C5864 0.950 . S
H5889 C5865 0.949 . S
H5890 C5867 0.950 . S
H5891 C5869 0.950 . S
C5892 C5893 1.349 . S
C5892 C5894 1.327 . S
C5892 H5917 0.950 . S
C5893 C5892 1.349 . S
C5893 C5909 1.349 . S
C5894 C5892 1.327 . S
C5894 C5913 1.429 . S
C5894 H5918 0.950 . S
C5895 C5912 1.574 . S
C5895 C5914 1.368 . S
C5895 H5919 0.949 . S
H5896 C5900 0.949 . S
C5897 C5898 1.349 . S
C5897 C5899 1.327 . S
C5897 H5920 0.950 . S
C5898 C5897 1.349 . S
C5898 C5910 1.349 . S
C5899 C5897 1.327 . S
C5899 C5915 1.429 . S
C5899 H5921 0.950 . S
C5900 H5896 0.949 . S
C5900 C5908 1.574 . S
C5900 C5916 1.368 . S
H5901 C5909 0.950 . S
H5902 C5907 0.950 . S
H5903 C5908 0.949 . S
H5904 C5910 0.950 . S
H5905 C5911 0.950 . S
H5906 C5912 0.949 . S
C5907 H5902 0.950 . S
C5907 C5909 1.327 . S
C5907 C5913 1.429 . S
C5908 C5900 1.574 . S
C5908 H5903 0.949 . S
C5908 C5914 1.368 . S
C5909 C5893 1.349 . S
C5909 H5901 0.950 . S
C5909 C5907 1.327 . S
C5910 C5898 1.349 . S
C5910 H5904 0.950 . S
C5910 C5911 1.327 . S
C5911 H5905 0.950 . S
C5911 C5910 1.327 . S
C5911 C5915 1.429 . S
C5912 C5895 1.574 . S
C5912 H5906 0.949 . S
C5912 C5916 1.368 . S
C5913 C5894 1.429 . S
C5913 C5907 1.429 . S
C5913 C5914 1.523 . S
C5914 C5895 1.368 . S
C5914 C5908 1.368 . S
C5914 C5913 1.523 . S
C5915 C5899 1.429 . S
C5915 C5911 1.429 . S
C5915 C5916 1.523 . S
C5916 C5900 1.368 . S
C5916 C5912 1.368 . S
C5916 C5915 1.523 . S
H5917 C5892 0.950 . S
H5918 C5894 0.950 . S
H5919 C5895 0.949 . S
H5920 C5897 0.950 . S
H5921 C5899 0.950 . S
C5922 C5923 1.349 . S
C5922 C5924 1.327 . S
C5922 H5947 0.950 . S
C5923 C5922 1.349 . S
C5923 C5939 1.349 . S
C5924 C5922 1.327 . S
C5924 C5943 1.429 . S
C5924 H5948 0.950 . S
C5925 C5942 1.574 . S
C5925 C5944 1.368 . S
C5925 H5949 0.949 . S
H5926 C5930 0.949 . S
C5927 C5928 1.349 . S
C5927 C5929 1.327 . S
C5927 H5950 0.950 . S
C5928 C5927 1.349 . S
C5928 C5940 1.349 . S
C5929 C5927 1.327 . S
C5929 C5945 1.429 . S
C5929 H5951 0.950 . S
C5930 H5926 0.949 . S
C5930 C5938 1.574 . S
C5930 C5946 1.368 . S
H5931 C5939 0.950 . S
H5932 C5937 0.950 . S
H5933 C5938 0.949 . S
H5934 C5940 0.950 . S
H5935 C5941 0.950 . S
H5936 C5942 0.949 . S
C5937 H5932 0.950 . S
C5937 C5939 1.327 . S
C5937 C5943 1.429 . S
C5938 C5930 1.574 . S
C5938 H5933 0.949 . S
C5938 C5944 1.368 . S
C5939 C5923 1.349 . S
C5939 H5931 0.950 . S
C5939 C5937 1.327 . S
C5940 C5928 1.349 . S
C5940 H5934 0.950 . S
C5940 C5941 1.327 . S
C5941 H5935 0.950 . S
C5941 C5940 1.327 . S
C5941 C5945 1.429 . S
C5942 C5925 1.574 . S
C5942 H5936 0.949 . S
C5942 C5946 1.368 . S
C5943 C5924 1.429 . S
C5943 C5937 1.429 . S
C5943 C5944 1.523 . S
C5944 C5925 1.368 . S
C5944 C5938 1.368 . S
C5944 C5943 1.523 . S
C5945 C5929 1.429 . S
C5945 C5941 1.429 . S
C5945 C5946 1.523 . S
C5946 C5930 1.368 . S
C5946 C5942 1.368 . S
C5946 C5945 1.523 . S
H5947 C5922 0.950 . S
H5948 C5924 0.950 . S
H5949 C5925 0.949 . S
H5950 C5927 0.950 . S
H5951 C5929 0.950 . S
C5952 C5953 1.349 . S
C5952 C5954 1.327 . S
C5952 H5977 0.950 . S
C5953 C5952 1.349 . S
C5953 C5969 1.349 . S
C5954 C5952 1.327 . S
C5954 C5973 1.429 . S
C5954 H5978 0.950 . S
C5955 C5972 1.574 . S
C5955 C5974 1.368 . S
C5955 H5979 0.949 . S
H5956 C5960 0.949 . S
C5957 C5958 1.349 . S
C5957 C5959 1.327 . S
C5957 H5980 0.950 . S
C5958 C5957 1.349 . S
C5958 C5970 1.349 . S
C5959 C5957 1.327 . S
C5959 C5975 1.429 . S
C5959 H5981 0.950 . S
C5960 H5956 0.949 . S
C5960 C5968 1.574 . S
C5960 C5976 1.368 . S
H5961 C5969 0.950 . S
H5962 C5967 0.950 . S
H5963 C5968 0.949 . S
H5964 C5970 0.950 . S
H5965 C5971 0.950 . S
H5966 C5972 0.949 . S
C5967 H5962 0.950 . S
C5967 C5969 1.327 . S
C5967 C5973 1.429 . S
C5968 C5960 1.574 . S
C5968 H5963 0.949 . S
C5968 C5974 1.368 . S
C5969 C5953 1.349 . S
C5969 H5961 0.950 . S
C5969 C5967 1.327 . S
C5970 C5958 1.349 . S
C5970 H5964 0.950 . S
C5970 C5971 1.327 . S
C5971 H5965 0.950 . S
C5971 C5970 1.327 . S
C5971 C5975 1.429 . S
C5972 C5955 1.574 . S
C5972 H5966 0.949 . S
C5972 C5976 1.368 . S
C5973 C5954 1.429 . S
C5973 C5967 1.429 . S
C5973 C5974 1.523 . S
C5974 C5955 1.368 . S
C5974 C5968 1.368 . S
C5974 C5973 1.523 . S
C5975 C5959 1.429 . S
C5975 C5971 1.429 . S
C5975 C5976 1.523 . S
C5976 C5960 1.368 . S
C5976 C5972 1.368 . S
C5976 C5975 1.523 . S
H5977 C5952 0.950 . S
H5978 C5954 0.950 . S
H5979 C5955 0.949 . S
H5980 C5957 0.950 . S
H5981 C5959 0.950 . S
C5982 C5983 1.349 . S
C5982 C5984 1.327 . S
C5982 H6007 0.950 . S
C5983 C5982 1.349 . S
C5983 C5999 1.349 . S
C5984 C5982 1.327 . S
C5984 C6003 1.429 . S
C5984 H6008 0.950 . S
C5985 C6002 1.574 . S
C5985 C6004 1.368 . S
C5985 H6009 0.949 . S
H5986 C5990 0.949 . S
C5987 C5988 1.349 . S
C5987 C5989 1.327 . S
C5987 H6010 0.950 . S
C5988 C5987 1.349 . S
C5988 C6000 1.349 . S
C5989 C5987 1.327 . S
C5989 C6005 1.429 . S
C5989 H6011 0.950 . S
C5990 H5986 0.949 . S
C5990 C5998 1.574 . S
C5990 C6006 1.368 . S
H5991 C5999 0.950 . S
H5992 C5997 0.950 . S
H5993 C5998 0.949 . S
H5994 C6000 0.950 . S
H5995 C6001 0.950 . S
H5996 C6002 0.949 . S
C5997 H5992 0.950 . S
C5997 C5999 1.327 . S
C5997 C6003 1.429 . S
C5998 C5990 1.574 . S
C5998 H5993 0.949 . S
C5998 C6004 1.368 . S
C5999 C5983 1.349 . S
C5999 H5991 0.950 . S
C5999 C5997 1.327 . S
C6000 C5988 1.349 . S
C6000 H5994 0.950 . S
C6000 C6001 1.327 . S
C6001 H5995 0.950 . S
C6001 C6000 1.327 . S
C6001 C6005 1.429 . S
C6002 C5985 1.574 . S
C6002 H5996 0.949 . S
C6002 C6006 1.368 . S
C6003 C5984 1.429 . S
C6003 C5997 1.429 . S
C6003 C6004 1.523 . S
C6004 C5985 1.368 . S
C6004 C5998 1.368 . S
C6004 C6003 1.523 . S
C6005 C5989 1.429 . S
C6005 C6001 1.429 . S
C6005 C6006 1.523 . S
C6006 C5990 1.368 . S
C6006 C6002 1.368 . S
C6006 C6005 1.523 . S
H6007 C5982 0.950 . S
H6008 C5984 0.950 . S
H6009 C5985 0.949 . S
H6010 C5987 0.950 . S
H6011 C5989 0.950 . S
C6012 C6013 1.349 . S
C6012 C6014 1.327 . S
C6012 H6037 0.950 . S
C6013 C6012 1.349 . S
C6013 C6029 1.349 . S
C6014 C6012 1.327 . S
C6014 C6033 1.429 . S
C6014 H6038 0.950 . S
C6015 C6032 1.574 . S
C6015 C6034 1.368 . S
C6015 H6039 0.949 . S
H6016 C6020 0.949 . S
C6017 C6018 1.349 . S
C6017 C6019 1.327 . S
C6017 H6040 0.950 . S
C6018 C6017 1.349 . S
C6018 C6030 1.349 . S
C6019 C6017 1.327 . S
C6019 C6035 1.429 . S
C6019 H6041 0.950 . S
C6020 H6016 0.949 . S
C6020 C6028 1.574 . S
C6020 C6036 1.368 . S
H6021 C6029 0.950 . S
H6022 C6027 0.950 . S
H6023 C6028 0.949 . S
H6024 C6030 0.950 . S
H6025 C6031 0.950 . S
H6026 C6032 0.949 . S
C6027 H6022 0.950 . S
C6027 C6029 1.327 . S
C6027 C6033 1.429 . S
C6028 C6020 1.574 . S
C6028 H6023 0.949 . S
C6028 C6034 1.368 . S
C6029 C6013 1.349 . S
C6029 H6021 0.950 . S
C6029 C6027 1.327 . S
C6030 C6018 1.349 . S
C6030 H6024 0.950 . S
C6030 C6031 1.327 . S
C6031 H6025 0.950 . S
C6031 C6030 1.327 . S
C6031 C6035 1.429 . S
C6032 C6015 1.574 . S
C6032 H6026 0.949 . S
C6032 C6036 1.368 . S
C6033 C6014 1.429 . S
C6033 C6027 1.429 . S
C6033 C6034 1.523 . S
C6034 C6015 1.368 . S
C6034 C6028 1.368 . S
C6034 C6033 1.523 . S
C6035 C6019 1.429 . S
C6035 C6031 1.429 . S
C6035 C6036 1.523 . S
C6036 C6020 1.368 . S
C6036 C6032 1.368 . S
C6036 C6035 1.523 . S
H6037 C6012 0.950 . S
H6038 C6014 0.950 . S
H6039 C6015 0.949 . S
H6040 C6017 0.950 . S
H6041 C6019 0.950 . S
C6042 C6043 1.349 . S
C6042 C6044 1.327 . S
C6042 H6067 0.950 . S
C6043 C6042 1.349 . S
C6043 C6059 1.349 . S
C6044 C6042 1.327 . S
C6044 C6063 1.429 . S
C6044 H6068 0.950 . S
C6045 C6062 1.574 . S
C6045 C6064 1.368 . S
C6045 H6069 0.949 . S
H6046 C6050 0.949 . S
C6047 C6048 1.349 . S
C6047 C6049 1.327 . S
C6047 H6070 0.950 . S
C6048 C6047 1.349 . S
C6048 C6060 1.349 . S
C6049 C6047 1.327 . S
C6049 C6065 1.429 . S
C6049 H6071 0.950 . S
C6050 H6046 0.949 . S
C6050 C6058 1.574 . S
C6050 C6066 1.368 . S
H6051 C6059 0.950 . S
H6052 C6057 0.950 . S
H6053 C6058 0.949 . S
H6054 C6060 0.950 . S
H6055 C6061 0.950 . S
H6056 C6062 0.949 . S
C6057 H6052 0.950 . S
C6057 C6059 1.327 . S
C6057 C6063 1.429 . S
C6058 C6050 1.574 . S
C6058 H6053 0.949 . S
C6058 C6064 1.368 . S
C6059 C6043 1.349 . S
C6059 H6051 0.950 . S
C6059 C6057 1.327 . S
C6060 C6048 1.349 . S
C6060 H6054 0.950 . S
C6060 C6061 1.327 . S
C6061 H6055 0.950 . S
C6061 C6060 1.327 . S
C6061 C6065 1.429 . S
C6062 C6045 1.574 . S
C6062 H6056 0.949 . S
C6062 C6066 1.368 . S
C6063 C6044 1.429 . S
C6063 C6057 1.429 . S
C6063 C6064 1.523 . S
C6064 C6045 1.368 . S
C6064 C6058 1.368 . S
C6064 C6063 1.523 . S
C6065 C6049 1.429 . S
C6065 C6061 1.429 . S
C6065 C6066 1.523 . S
C6066 C6050 1.368 . S
C6066 C6062 1.368 . S
C6066 C6065 1.523 . S
H6067 C6042 0.950 . S
H6068 C6044 0.950 . S
H6069 C6045 0.949 . S
H6070 C6047 0.950 . S
H6071 C6049 0.950 . S
C6072 C6073 1.349 . S
C6072 C6074 1.327 . S
C6072 H6097 0.950 . S
C6073 C6072 1.349 . S
C6073 C6089 1.349 . S
C6074 C6072 1.327 . S
C6074 C6093 1.429 . S
C6074 H6098 0.950 . S
C6075 C6092 1.574 . S
C6075 C6094 1.368 . S
C6075 H6099 0.949 . S
H6076 C6080 0.949 . S
C6077 C6078 1.349 . S
C6077 C6079 1.327 . S
C6077 H6100 0.950 . S
C6078 C6077 1.349 . S
C6078 C6090 1.349 . S
C6079 C6077 1.327 . S
C6079 C6095 1.429 . S
C6079 H6101 0.950 . S
C6080 H6076 0.949 . S
C6080 C6088 1.574 . S
C6080 C6096 1.368 . S
H6081 C6089 0.950 . S
H6082 C6087 0.950 . S
H6083 C6088 0.949 . S
H6084 C6090 0.950 . S
H6085 C6091 0.950 . S
H6086 C6092 0.949 . S
C6087 H6082 0.950 . S
C6087 C6089 1.327 . S
C6087 C6093 1.429 . S
C6088 C6080 1.574 . S
C6088 H6083 0.949 . S
C6088 C6094 1.368 . S
C6089 C6073 1.349 . S
C6089 H6081 0.950 . S
C6089 C6087 1.327 . S
C6090 C6078 1.349 . S
C6090 H6084 0.950 . S
C6090 C6091 1.327 . S
C6091 H6085 0.950 . S
C6091 C6090 1.327 . S
C6091 C6095 1.429 . S
C6092 C6075 1.574 . S
C6092 H6086 0.949 . S
C6092 C6096 1.368 . S
C6093 C6074 1.429 . S
C6093 C6087 1.429 . S
C6093 C6094 1.523 . S
C6094 C6075 1.368 . S
C6094 C6088 1.368 . S
C6094 C6093 1.523 . S
C6095 C6079 1.429 . S
C6095 C6091 1.429 . S
C6095 C6096 1.523 . S
C6096 C6080 1.368 . S
C6096 C6092 1.368 . S
C6096 C6095 1.523 . S
H6097 C6072 0.950 . S
H6098 C6074 0.950 . S
H6099 C6075 0.949 . S
H6100 C6077 0.950 . S
H6101 C6079 0.950 . S
C6102 C6103 1.349 . S
C6102 C6104 1.327 . S
C6102 H6127 0.950 . S
C6103 C6102 1.349 . S
C6103 C6119 1.349 . S
C6104 C6102 1.327 . S
C6104 C6123 1.429 . S
C6104 H6128 0.950 . S
C6105 C6122 1.574 . S
C6105 C6124 1.368 . S
C6105 H6129 0.949 . S
H6106 C6110 0.949 . S
C6107 C6108 1.349 . S
C6107 C6109 1.327 . S
C6107 H6130 0.950 . S
C6108 C6107 1.349 . S
C6108 C6120 1.349 . S
C6109 C6107 1.327 . S
C6109 C6125 1.429 . S
C6109 H6131 0.950 . S
C6110 H6106 0.949 . S
C6110 C6118 1.574 . S
C6110 C6126 1.368 . S
H6111 C6119 0.950 . S
H6112 C6117 0.950 . S
H6113 C6118 0.949 . S
H6114 C6120 0.950 . S
H6115 C6121 0.950 . S
H6116 C6122 0.949 . S
C6117 H6112 0.950 . S
C6117 C6119 1.327 . S
C6117 C6123 1.429 . S
C6118 C6110 1.574 . S
C6118 H6113 0.949 . S
C6118 C6124 1.368 . S
C6119 C6103 1.349 . S
C6119 H6111 0.950 . S
C6119 C6117 1.327 . S
C6120 C6108 1.349 . S
C6120 H6114 0.950 . S
C6120 C6121 1.327 . S
C6121 H6115 0.950 . S
C6121 C6120 1.327 . S
C6121 C6125 1.429 . S
C6122 C6105 1.574 . S
C6122 H6116 0.949 . S
C6122 C6126 1.368 . S
C6123 C6104 1.429 . S
C6123 C6117 1.429 . S
C6123 C6124 1.523 . S
C6124 C6105 1.368 . S
C6124 C6118 1.368 . S
C6124 C6123 1.523 . S
C6125 C6109 1.429 . S
C6125 C6121 1.429 . S
C6125 C6126 1.523 . S
C6126 C6110 1.368 . S
C6126 C6122 1.368 . S
C6126 C6125 1.523 . S
H6127 C6102 0.950 . S
H6128 C6104 0.950 . S
H6129 C6105 0.949 . S
H6130 C6107 0.950 . S
H6131 C6109 0.950 . S
C6132 C6133 1.349 . S
C6132 C6134 1.327 . S
C6132 H6157 0.950 . S
C6133 C6132 1.349 . S
C6133 C6149 1.349 . S
C6134 C6132 1.327 . S
C6134 C6153 1.429 . S
C6134 H6158 0.950 . S
C6135 C6152 1.574 . S
C6135 C6154 1.368 . S
C6135 H6159 0.949 . S
H6136 C6140 0.949 . S
C6137 C6138 1.349 . S
C6137 C6139 1.327 . S
C6137 H6160 0.950 . S
C6138 C6137 1.349 . S
C6138 C6150 1.349 . S
C6139 C6137 1.327 . S
C6139 C6155 1.429 . S
C6139 H6161 0.950 . S
C6140 H6136 0.949 . S
C6140 C6148 1.574 . S
C6140 C6156 1.368 . S
H6141 C6149 0.950 . S
H6142 C6147 0.950 . S
H6143 C6148 0.949 . S
H6144 C6150 0.950 . S
H6145 C6151 0.950 . S
H6146 C6152 0.949 . S
C6147 H6142 0.950 . S
C6147 C6149 1.327 . S
C6147 C6153 1.429 . S
C6148 C6140 1.574 . S
C6148 H6143 0.949 . S
C6148 C6154 1.368 . S
C6149 C6133 1.349 . S
C6149 H6141 0.950 . S
C6149 C6147 1.327 . S
C6150 C6138 1.349 . S
C6150 H6144 0.950 . S
C6150 C6151 1.327 . S
C6151 H6145 0.950 . S
C6151 C6150 1.327 . S
C6151 C6155 1.429 . S
C6152 C6135 1.574 . S
C6152 H6146 0.949 . S
C6152 C6156 1.368 . S
C6153 C6134 1.429 . S
C6153 C6147 1.429 . S
C6153 C6154 1.523 . S
C6154 C6135 1.368 . S
C6154 C6148 1.368 . S
C6154 C6153 1.523 . S
C6155 C6139 1.429 . S
C6155 C6151 1.429 . S
C6155 C6156 1.523 . S
C6156 C6140 1.368 . S
C6156 C6152 1.368 . S
C6156 C6155 1.523 . S
H6157 C6132 0.950 . S
H6158 C6134 0.950 . S
H6159 C6135 0.949 . S
H6160 C6137 0.950 . S
H6161 C6139 0.950 . S
C6162 C6163 1.349 . S
C6162 C6164 1.327 . S
C6162 H6187 0.950 . S
C6163 C6162 1.349 . S
C6163 C6179 1.349 . S
C6164 C6162 1.327 . S
C6164 C6183 1.429 . S
C6164 H6188 0.950 . S
C6165 C6182 1.574 . S
C6165 C6184 1.368 . S
C6165 H6189 0.949 . S
H6166 C6170 0.949 . S
C6167 C6168 1.349 . S
C6167 C6169 1.327 . S
C6167 H6190 0.950 . S
C6168 C6167 1.349 . S
C6168 C6180 1.349 . S
C6169 C6167 1.327 . S
C6169 C6185 1.429 . S
C6169 H6191 0.950 . S
C6170 H6166 0.949 . S
C6170 C6178 1.574 . S
C6170 C6186 1.368 . S
H6171 C6179 0.950 . S
H6172 C6177 0.950 . S
H6173 C6178 0.949 . S
H6174 C6180 0.950 . S
H6175 C6181 0.950 . S
H6176 C6182 0.949 . S
C6177 H6172 0.950 . S
C6177 C6179 1.327 . S
C6177 C6183 1.429 . S
C6178 C6170 1.574 . S
C6178 H6173 0.949 . S
C6178 C6184 1.368 . S
C6179 C6163 1.349 . S
C6179 H6171 0.950 . S
C6179 C6177 1.327 . S
C6180 C6168 1.349 . S
C6180 H6174 0.950 . S
C6180 C6181 1.327 . S
C6181 H6175 0.950 . S
C6181 C6180 1.327 . S
C6181 C6185 1.429 . S
C6182 C6165 1.574 . S
C6182 H6176 0.949 . S
C6182 C6186 1.368 . S
C6183 C6164 1.429 . S
C6183 C6177 1.429 . S
C6183 C6184 1.523 . S
C6184 C6165 1.368 . S
C6184 C6178 1.368 . S
C6184 C6183 1.523 . S
C6185 C6169 1.429 . S
C6185 C6181 1.429 . S
C6185 C6186 1.523 . S
C6186 C6170 1.368 . S
C6186 C6182 1.368 . S
C6186 C6185 1.523 . S
H6187 C6162 0.950 . S
H6188 C6164 0.950 . S
H6189 C6165 0.949 . S
H6190 C6167 0.950 . S
H6191 C6169 0.950 . S
C6192 C6193 1.349 . S
C6192 C6194 1.327 . S
C6192 H6217 0.950 . S
C6193 C6192 1.349 . S
C6193 C6209 1.349 . S
C6194 C6192 1.327 . S
C6194 C6213 1.429 . S
C6194 H6218 0.950 . S
C6195 C6212 1.574 . S
C6195 C6214 1.368 . S
C6195 H6219 0.949 . S
H6196 C6200 0.949 . S
C6197 C6198 1.349 . S
C6197 C6199 1.327 . S
C6197 H6220 0.950 . S
C6198 C6197 1.349 . S
C6198 C6210 1.349 . S
C6199 C6197 1.327 . S
C6199 C6215 1.429 . S
C6199 H6221 0.950 . S
C6200 H6196 0.949 . S
C6200 C6208 1.574 . S
C6200 C6216 1.368 . S
H6201 C6209 0.950 . S
H6202 C6207 0.950 . S
H6203 C6208 0.949 . S
H6204 C6210 0.950 . S
H6205 C6211 0.950 . S
H6206 C6212 0.949 . S
C6207 H6202 0.950 . S
C6207 C6209 1.327 . S
C6207 C6213 1.429 . S
C6208 C6200 1.574 . S
C6208 H6203 0.949 . S
C6208 C6214 1.368 . S
C6209 C6193 1.349 . S
C6209 H6201 0.950 . S
C6209 C6207 1.327 . S
C6210 C6198 1.349 . S
C6210 H6204 0.950 . S
C6210 C6211 1.327 . S
C6211 H6205 0.950 . S
C6211 C6210 1.327 . S
C6211 C6215 1.429 . S
C6212 C6195 1.574 . S
C6212 H6206 0.949 . S
C6212 C6216 1.368 . S
C6213 C6194 1.429 . S
C6213 C6207 1.429 . S
C6213 C6214 1.523 . S
C6214 C6195 1.368 . S
C6214 C6208 1.368 . S
C6214 C6213 1.523 . S
C6215 C6199 1.429 . S
C6215 C6211 1.429 . S
C6215 C6216 1.523 . S
C6216 C6200 1.368 . S
C6216 C6212 1.368 . S
C6216 C6215 1.523 . S
H6217 C6192 0.950 . S
H6218 C6194 0.950 . S
H6219 C6195 0.949 . S
H6220 C6197 0.950 . S
H6221 C6199 0.950 . S
C6222 C6223 1.349 . S
C6222 C6224 1.327 . S
C6222 H6247 0.950 . S
C6223 C6222 1.349 . S
C6223 C6239 1.349 . S
C6224 C6222 1.327 . S
C6224 C6243 1.429 . S
C6224 H6248 0.950 . S
C6225 C6242 1.574 . S
C6225 C6244 1.368 . S
C6225 H6249 0.949 . S
H6226 C6230 0.949 . S
C6227 C6228 1.349 . S
C6227 C6229 1.327 . S
C6227 H6250 0.950 . S
C6228 C6227 1.349 . S
C6228 C6240 1.349 . S
C6229 C6227 1.327 . S
C6229 C6245 1.429 . S
C6229 H6251 0.950 . S
C6230 H6226 0.949 . S
C6230 C6238 1.574 . S
C6230 C6246 1.368 . S
H6231 C6239 0.950 . S
H6232 C6237 0.950 . S
H6233 C6238 0.949 . S
H6234 C6240 0.950 . S
H6235 C6241 0.950 . S
H6236 C6242 0.949 . S
C6237 H6232 0.950 . S
C6237 C6239 1.327 . S
C6237 C6243 1.429 . S
C6238 C6230 1.574 . S
C6238 H6233 0.949 . S
C6238 C6244 1.368 . S
C6239 C6223 1.349 . S
C6239 H6231 0.950 . S
C6239 C6237 1.327 . S
C6240 C6228 1.349 . S
C6240 H6234 0.950 . S
C6240 C6241 1.327 . S
C6241 H6235 0.950 . S
C6241 C6240 1.327 . S
C6241 C6245 1.429 . S
C6242 C6225 1.574 . S
C6242 H6236 0.949 . S
C6242 C6246 1.368 . S
C6243 C6224 1.429 . S
C6243 C6237 1.429 . S
C6243 C6244 1.523 . S
C6244 C6225 1.368 . S
C6244 C6238 1.368 . S
C6244 C6243 1.523 . S
C6245 C6229 1.429 . S
C6245 C6241 1.429 . S
C6245 C6246 1.523 . S
C6246 C6230 1.368 . S
C6246 C6242 1.368 . S
C6246 C6245 1.523 . S
H6247 C6222 0.950 . S
H6248 C6224 0.950 . S
H6249 C6225 0.949 . S
H6250 C6227 0.950 . S
H6251 C6229 0.950 . S
C6252 C6253 1.349 . S
C6252 C6254 1.327 . S
C6252 H6277 0.950 . S
C6253 C6252 1.349 . S
C6253 C6269 1.349 . S
C6254 C6252 1.327 . S
C6254 C6273 1.429 . S
C6254 H6278 0.950 . S
C6255 C6272 1.574 . S
C6255 C6274 1.368 . S
C6255 H6279 0.949 . S
H6256 C6260 0.949 . S
C6257 C6258 1.349 . S
C6257 C6259 1.327 . S
C6257 H6280 0.950 . S
C6258 C6257 1.349 . S
C6258 C6270 1.349 . S
C6259 C6257 1.327 . S
C6259 C6275 1.429 . S
C6259 H6281 0.950 . S
C6260 H6256 0.949 . S
C6260 C6268 1.574 . S
C6260 C6276 1.368 . S
H6261 C6269 0.950 . S
H6262 C6267 0.950 . S
H6263 C6268 0.949 . S
H6264 C6270 0.950 . S
H6265 C6271 0.950 . S
H6266 C6272 0.949 . S
C6267 H6262 0.950 . S
C6267 C6269 1.327 . S
C6267 C6273 1.429 . S
C6268 C6260 1.574 . S
C6268 H6263 0.949 . S
C6268 C6274 1.368 . S
C6269 C6253 1.349 . S
C6269 H6261 0.950 . S
C6269 C6267 1.327 . S
C6270 C6258 1.349 . S
C6270 H6264 0.950 . S
C6270 C6271 1.327 . S
C6271 H6265 0.950 . S
C6271 C6270 1.327 . S
C6271 C6275 1.429 . S
C6272 C6255 1.574 . S
C6272 H6266 0.949 . S
C6272 C6276 1.368 . S
C6273 C6254 1.429 . S
C6273 C6267 1.429 . S
C6273 C6274 1.523 . S
C6274 C6255 1.368 . S
C6274 C6268 1.368 . S
C6274 C6273 1.523 . S
C6275 C6259 1.429 . S
C6275 C6271 1.429 . S
C6275 C6276 1.523 . S
C6276 C6260 1.368 . S
C6276 C6272 1.368 . S
C6276 C6275 1.523 . S
H6277 C6252 0.950 . S
H6278 C6254 0.950 . S
H6279 C6255 0.949 . S
H6280 C6257 0.950 . S
H6281 C6259 0.950 . S
C6282 C6283 1.349 . S
C6282 C6284 1.327 . S
C6282 H6307 0.950 . S
C6283 C6282 1.349 . S
C6283 C6299 1.349 . S
C6284 C6282 1.327 . S
C6284 C6303 1.429 . S
C6284 H6308 0.950 . S
C6285 C6302 1.574 . S
C6285 C6304 1.368 . S
C6285 H6309 0.949 . S
H6286 C6290 0.949 . S
C6287 C6288 1.349 . S
C6287 C6289 1.327 . S
C6287 H6310 0.950 . S
C6288 C6287 1.349 . S
C6288 C6300 1.349 . S
C6289 C6287 1.327 . S
C6289 C6305 1.429 . S
C6289 H6311 0.950 . S
C6290 H6286 0.949 . S
C6290 C6298 1.574 . S
C6290 C6306 1.368 . S
H6291 C6299 0.950 . S
H6292 C6297 0.950 . S
H6293 C6298 0.949 . S
H6294 C6300 0.950 . S
H6295 C6301 0.950 . S
H6296 C6302 0.949 . S
C6297 H6292 0.950 . S
C6297 C6299 1.327 . S
C6297 C6303 1.429 . S
C6298 C6290 1.574 . S
C6298 H6293 0.949 . S
C6298 C6304 1.368 . S
C6299 C6283 1.349 . S
C6299 H6291 0.950 . S
C6299 C6297 1.327 . S
C6300 C6288 1.349 . S
C6300 H6294 0.950 . S
C6300 C6301 1.327 . S
C6301 H6295 0.950 . S
C6301 C6300 1.327 . S
C6301 C6305 1.429 . S
C6302 C6285 1.574 . S
C6302 H6296 0.949 . S
C6302 C6306 1.368 . S
C6303 C6284 1.429 . S
C6303 C6297 1.429 . S
C6303 C6304 1.523 . S
C6304 C6285 1.368 . S
C6304 C6298 1.368 . S
C6304 C6303 1.523 . S
C6305 C6289 1.429 . S
C6305 C6301 1.429 . S
C6305 C6306 1.523 . S
C6306 C6290 1.368 . S
C6306 C6302 1.368 . S
C6306 C6305 1.523 . S
H6307 C6282 0.950 . S
H6308 C6284 0.950 . S
H6309 C6285 0.949 . S
H6310 C6287 0.950 . S
H6311 C6289 0.950 . S
C6312 C6313 1.349 . S
C6312 C6314 1.327 . S
C6312 H6337 0.950 . S
C6313 C6312 1.349 . S
C6313 C6329 1.349 . S
C6314 C6312 1.327 . S
C6314 C6333 1.429 . S
C6314 H6338 0.950 . S
C6315 C6332 1.574 . S
C6315 C6334 1.368 . S
C6315 H6339 0.949 . S
H6316 C6320 0.949 . S
C6317 C6318 1.349 . S
C6317 C6319 1.327 . S
C6317 H6340 0.950 . S
C6318 C6317 1.349 . S
C6318 C6330 1.349 . S
C6319 C6317 1.327 . S
C6319 C6335 1.429 . S
C6319 H6341 0.950 . S
C6320 H6316 0.949 . S
C6320 C6328 1.574 . S
C6320 C6336 1.368 . S
H6321 C6329 0.950 . S
H6322 C6327 0.950 . S
H6323 C6328 0.949 . S
H6324 C6330 0.950 . S
H6325 C6331 0.950 . S
H6326 C6332 0.949 . S
C6327 H6322 0.950 . S
C6327 C6329 1.327 . S
C6327 C6333 1.429 . S
C6328 C6320 1.574 . S
C6328 H6323 0.949 . S
C6328 C6334 1.368 . S
C6329 C6313 1.349 . S
C6329 H6321 0.950 . S
C6329 C6327 1.327 . S
C6330 C6318 1.349 . S
C6330 H6324 0.950 . S
C6330 C6331 1.327 . S
C6331 H6325 0.950 . S
C6331 C6330 1.327 . S
C6331 C6335 1.429 . S
C6332 C6315 1.574 . S
C6332 H6326 0.949 . S
C6332 C6336 1.368 . S
C6333 C6314 1.429 . S
C6333 C6327 1.429 . S
C6333 C6334 1.523 . S
C6334 C6315 1.368 . S
C6334 C6328 1.368 . S
C6334 C6333 1.523 . S
C6335 C6319 1.429 . S
C6335 C6331 1.429 . S
C6335 C6336 1.523 . S
C6336 C6320 1.368 . S
C6336 C6332 1.368 . S
C6336 C6335 1.523 . S
H6337 C6312 0.950 . S
H6338 C6314 0.950 . S
H6339 C6315 0.949 . S
H6340 C6317 0.950 . S
H6341 C6319 0.950 . S
C6342 C6343 1.349 . S
C6342 C6344 1.327 . S
C6342 H6367 0.950 . S
C6343 C6342 1.349 . S
C6343 C6359 1.349 . S
C6344 C6342 1.327 . S
C6344 C6363 1.429 . S
C6344 H6368 0.950 . S
C6345 C6362 1.574 . S
C6345 C6364 1.368 . S
C6345 H6369 0.949 . S
H6346 C6350 0.949 . S
C6347 C6348 1.349 . S
C6347 C6349 1.327 . S
C6347 H6370 0.950 . S
C6348 C6347 1.349 . S
C6348 C6360 1.349 . S
C6349 C6347 1.327 . S
C6349 C6365 1.429 . S
C6349 H6371 0.950 . S
C6350 H6346 0.949 . S
C6350 C6358 1.574 . S
C6350 C6366 1.368 . S
H6351 C6359 0.950 . S
H6352 C6357 0.950 . S
H6353 C6358 0.949 . S
H6354 C6360 0.950 . S
H6355 C6361 0.950 . S
H6356 C6362 0.949 . S
C6357 H6352 0.950 . S
C6357 C6359 1.327 . S
C6357 C6363 1.429 . S
C6358 C6350 1.574 . S
C6358 H6353 0.949 . S
C6358 C6364 1.368 . S
C6359 C6343 1.349 . S
C6359 H6351 0.950 . S
C6359 C6357 1.327 . S
C6360 C6348 1.349 . S
C6360 H6354 0.950 . S
C6360 C6361 1.327 . S
C6361 H6355 0.950 . S
C6361 C6360 1.327 . S
C6361 C6365 1.429 . S
C6362 C6345 1.574 . S
C6362 H6356 0.949 . S
C6362 C6366 1.368 . S
C6363 C6344 1.429 . S
C6363 C6357 1.429 . S
C6363 C6364 1.523 . S
C6364 C6345 1.368 . S
C6364 C6358 1.368 . S
C6364 C6363 1.523 . S
C6365 C6349 1.429 . S
C6365 C6361 1.429 . S
C6365 C6366 1.523 . S
C6366 C6350 1.368 . S
C6366 C6362 1.368 . S
C6366 C6365 1.523 . S
H6367 C6342 0.950 . S
H6368 C6344 0.950 . S
H6369 C6345 0.949 . S
H6370 C6347 0.950 . S
H6371 C6349 0.950 . S
C6372 C6373 1.349 . S
C6372 C6374 1.327 . S
C6372 H6397 0.950 . S
C6373 C6372 1.349 . S
C6373 C6389 1.349 . S
C6374 C6372 1.327 . S
C6374 C6393 1.429 . S
C6374 H6398 0.950 . S
C6375 C6392 1.574 . S
C6375 C6394 1.368 . S
C6375 H6399 0.949 . S
H6376 C6380 0.949 . S
C6377 C6378 1.349 . S
C6377 C6379 1.327 . S
C6377 H6400 0.950 . S
C6378 C6377 1.349 . S
C6378 C6390 1.349 . S
C6379 C6377 1.327 . S
C6379 C6395 1.429 . S
C6379 H6401 0.950 . S
C6380 H6376 0.949 . S
C6380 C6388 1.574 . S
C6380 C6396 1.368 . S
H6381 C6389 0.950 . S
H6382 C6387 0.950 . S
H6383 C6388 0.949 . S
H6384 C6390 0.950 . S
H6385 C6391 0.950 . S
H6386 C6392 0.949 . S
C6387 H6382 0.950 . S
C6387 C6389 1.327 . S
C6387 C6393 1.429 . S
C6388 C6380 1.574 . S
C6388 H6383 0.949 . S
C6388 C6394 1.368 . S
C6389 C6373 1.349 . S
C6389 H6381 0.950 . S
C6389 C6387 1.327 . S
C6390 C6378 1.349 . S
C6390 H6384 0.950 . S
C6390 C6391 1.327 . S
C6391 H6385 0.950 . S
C6391 C6390 1.327 . S
C6391 C6395 1.429 . S
C6392 C6375 1.574 . S
C6392 H6386 0.949 . S
C6392 C6396 1.368 . S
C6393 C6374 1.429 . S
C6393 C6387 1.429 . S
C6393 C6394 1.523 . S
C6394 C6375 1.368 . S
C6394 C6388 1.368 . S
C6394 C6393 1.523 . S
C6395 C6379 1.429 . S
C6395 C6391 1.429 . S
C6395 C6396 1.523 . S
C6396 C6380 1.368 . S
C6396 C6392 1.368 . S
C6396 C6395 1.523 . S
H6397 C6372 0.950 . S
H6398 C6374 0.950 . S
H6399 C6375 0.949 . S
H6400 C6377 0.950 . S
H6401 C6379 0.950 . S
C6402 C6403 1.349 . S
C6402 C6404 1.327 . S
C6402 H6427 0.950 . S
C6403 C6402 1.349 . S
C6403 C6419 1.349 . S
C6404 C6402 1.327 . S
C6404 C6423 1.429 . S
C6404 H6428 0.950 . S
C6405 C6422 1.574 . S
C6405 C6424 1.368 . S
C6405 H6429 0.949 . S
H6406 C6410 0.949 . S
C6407 C6408 1.349 . S
C6407 C6409 1.327 . S
C6407 H6430 0.950 . S
C6408 C6407 1.349 . S
C6408 C6420 1.349 . S
C6409 C6407 1.327 . S
C6409 C6425 1.429 . S
C6409 H6431 0.950 . S
C6410 H6406 0.949 . S
C6410 C6418 1.574 . S
C6410 C6426 1.368 . S
H6411 C6419 0.950 . S
H6412 C6417 0.950 . S
H6413 C6418 0.949 . S
H6414 C6420 0.950 . S
H6415 C6421 0.950 . S
H6416 C6422 0.949 . S
C6417 H6412 0.950 . S
C6417 C6419 1.327 . S
C6417 C6423 1.429 . S
C6418 C6410 1.574 . S
C6418 H6413 0.949 . S
C6418 C6424 1.368 . S
C6419 C6403 1.349 . S
C6419 H6411 0.950 . S
C6419 C6417 1.327 . S
C6420 C6408 1.349 . S
C6420 H6414 0.950 . S
C6420 C6421 1.327 . S
C6421 H6415 0.950 . S
C6421 C6420 1.327 . S
C6421 C6425 1.429 . S
C6422 C6405 1.574 . S
C6422 H6416 0.949 . S
C6422 C6426 1.368 . S
C6423 C6404 1.429 . S
C6423 C6417 1.429 . S
C6423 C6424 1.523 . S
C6424 C6405 1.368 . S
C6424 C6418 1.368 . S
C6424 C6423 1.523 . S
C6425 C6409 1.429 . S
C6425 C6421 1.429 . S
C6425 C6426 1.523 . S
C6426 C6410 1.368 . S
C6426 C6422 1.368 . S
C6426 C6425 1.523 . S
H6427 C6402 0.950 . S
H6428 C6404 0.950 . S
H6429 C6405 0.949 . S
H6430 C6407 0.950 . S
H6431 C6409 0.950 . S
C6432 C6433 1.349 . S
C6432 C6434 1.327 . S
C6432 H6457 0.950 . S
C6433 C6432 1.349 . S
C6433 C6449 1.349 . S
C6434 C6432 1.327 . S
C6434 C6453 1.429 . S
C6434 H6458 0.950 . S
C6435 C6452 1.574 . S
C6435 C6454 1.368 . S
C6435 H6459 0.949 . S
H6436 C6440 0.949 . S
C6437 C6438 1.349 . S
C6437 C6439 1.327 . S
C6437 H6460 0.950 . S
C6438 C6437 1.349 . S
C6438 C6450 1.349 . S
C6439 C6437 1.327 . S
C6439 C6455 1.429 . S
C6439 H6461 0.950 . S
C6440 H6436 0.949 . S
C6440 C6448 1.574 . S
C6440 C6456 1.368 . S
H6441 C6449 0.950 . S
H6442 C6447 0.950 . S
H6443 C6448 0.949 . S
H6444 C6450 0.950 . S
H6445 C6451 0.950 . S
H6446 C6452 0.949 . S
C6447 H6442 0.950 . S
C6447 C6449 1.327 . S
C6447 C6453 1.429 . S
C6448 C6440 1.574 . S
C6448 H6443 0.949 . S
C6448 C6454 1.368 . S
C6449 C6433 1.349 . S
C6449 H6441 0.950 . S
C6449 C6447 1.327 . S
C6450 C6438 1.349 . S
C6450 H6444 0.950 . S
C6450 C6451 1.327 . S
C6451 H6445 0.950 . S
C6451 C6450 1.327 . S
C6451 C6455 1.429 . S
C6452 C6435 1.574 . S
C6452 H6446 0.949 . S
C6452 C6456 1.368 . S
C6453 C6434 1.429 . S
C6453 C6447 1.429 . S
C6453 C6454 1.523 . S
C6454 C6435 1.368 . S
C6454 C6448 1.368 . S
C6454 C6453 1.523 . S
C6455 C6439 1.429 . S
C6455 C6451 1.429 . S
C6455 C6456 1.523 . S
C6456 C6440 1.368 . S
C6456 C6452 1.368 . S
C6456 C6455 1.523 . S
H6457 C6432 0.950 . S
H6458 C6434 0.950 . S
H6459 C6435 0.949 . S
H6460 C6437 0.950 . S
H6461 C6439 0.950 . S
C6462 C6463 1.349 . S
C6462 C6464 1.327 . S
C6462 H6487 0.950 . S
C6463 C6462 1.349 . S
C6463 C6479 1.349 . S
C6464 C6462 1.327 . S
C6464 C6483 1.429 . S
C6464 H6488 0.950 . S
C6465 C6482 1.574 . S
C6465 C6484 1.368 . S
C6465 H6489 0.949 . S
H6466 C6470 0.949 . S
C6467 C6468 1.349 . S
C6467 C6469 1.327 . S
C6467 H6490 0.950 . S
C6468 C6467 1.349 . S
C6468 C6480 1.349 . S
C6469 C6467 1.327 . S
C6469 C6485 1.429 . S
C6469 H6491 0.950 . S
C6470 H6466 0.949 . S
C6470 C6478 1.574 . S
C6470 C6486 1.368 . S
H6471 C6479 0.950 . S
H6472 C6477 0.950 . S
H6473 C6478 0.949 . S
H6474 C6480 0.950 . S
H6475 C6481 0.950 . S
H6476 C6482 0.949 . S
C6477 H6472 0.950 . S
C6477 C6479 1.327 . S
C6477 C6483 1.429 . S
C6478 C6470 1.574 . S
C6478 H6473 0.949 . S
C6478 C6484 1.368 . S
C6479 C6463 1.349 . S
C6479 H6471 0.950 . S
C6479 C6477 1.327 . S
C6480 C6468 1.349 . S
C6480 H6474 0.950 . S
C6480 C6481 1.327 . S
C6481 H6475 0.950 . S
C6481 C6480 1.327 . S
C6481 C6485 1.429 . S
C6482 C6465 1.574 . S
C6482 H6476 0.949 . S
C6482 C6486 1.368 . S
C6483 C6464 1.429 . S
C6483 C6477 1.429 . S
C6483 C6484 1.523 . S
C6484 C6465 1.368 . S
C6484 C6478 1.368 . S
C6484 C6483 1.523 . S
C6485 C6469 1.429 . S
C6485 C6481 1.429 . S
C6485 C6486 1.523 . S
C6486 C6470 1.368 . S
C6486 C6482 1.368 . S
C6486 C6485 1.523 . S
H6487 C6462 0.950 . S
H6488 C6464 0.950 . S
H6489 C6465 0.949 . S
H6490 C6467 0.950 . S
H6491 C6469 0.950 . S
C6492 C6493 1.349 . S
C6492 C6494 1.327 . S
C6492 H6517 0.950 . S
C6493 C6492 1.349 . S
C6493 C6509 1.349 . S
C6494 C6492 1.327 . S
C6494 C6513 1.429 . S
C6494 H6518 0.950 . S
C6495 C6512 1.574 . S
C6495 C6514 1.368 . S
C6495 H6519 0.949 . S
H6496 C6500 0.949 . S
C6497 C6498 1.349 . S
C6497 C6499 1.327 . S
C6497 H6520 0.950 . S
C6498 C6497 1.349 . S
C6498 C6510 1.349 . S
C6499 C6497 1.327 . S
C6499 C6515 1.429 . S
C6499 H6521 0.950 . S
C6500 H6496 0.949 . S
C6500 C6508 1.574 . S
C6500 C6516 1.368 . S
H6501 C6509 0.950 . S
H6502 C6507 0.950 . S
H6503 C6508 0.949 . S
H6504 C6510 0.950 . S
H6505 C6511 0.950 . S
H6506 C6512 0.949 . S
C6507 H6502 0.950 . S
C6507 C6509 1.327 . S
C6507 C6513 1.429 . S
C6508 C6500 1.574 . S
C6508 H6503 0.949 . S
C6508 C6514 1.368 . S
C6509 C6493 1.349 . S
C6509 H6501 0.950 . S
C6509 C6507 1.327 . S
C6510 C6498 1.349 . S
C6510 H6504 0.950 . S
C6510 C6511 1.327 . S
C6511 H6505 0.950 . S
C6511 C6510 1.327 . S
C6511 C6515 1.429 . S
C6512 C6495 1.574 . S
C6512 H6506 0.949 . S
C6512 C6516 1.368 . S
C6513 C6494 1.429 . S
C6513 C6507 1.429 . S
C6513 C6514 1.523 . S
C6514 C6495 1.368 . S
C6514 C6508 1.368 . S
C6514 C6513 1.523 . S
C6515 C6499 1.429 . S
C6515 C6511 1.429 . S
C6515 C6516 1.523 . S
C6516 C6500 1.368 . S
C6516 C6512 1.368 . S
C6516 C6515 1.523 . S
H6517 C6492 0.950 . S
H6518 C6494 0.950 . S
H6519 C6495 0.949 . S
H6520 C6497 0.950 . S
H6521 C6499 0.950 . S
C6522 C6523 1.349 . S
C6522 C6524 1.327 . S
C6522 H6547 0.950 . S
C6523 C6522 1.349 . S
C6523 C6539 1.349 . S
C6524 C6522 1.327 . S
C6524 C6543 1.429 . S
C6524 H6548 0.950 . S
C6525 C6542 1.574 . S
C6525 C6544 1.368 . S
C6525 H6549 0.949 . S
H6526 C6530 0.949 . S
C6527 C6528 1.349 . S
C6527 C6529 1.327 . S
C6527 H6550 0.950 . S
C6528 C6527 1.349 . S
C6528 C6540 1.349 . S
C6529 C6527 1.327 . S
C6529 C6545 1.429 . S
C6529 H6551 0.950 . S
C6530 H6526 0.949 . S
C6530 C6538 1.574 . S
C6530 C6546 1.368 . S
H6531 C6539 0.950 . S
H6532 C6537 0.950 . S
H6533 C6538 0.949 . S
H6534 C6540 0.950 . S
H6535 C6541 0.950 . S
H6536 C6542 0.949 . S
C6537 H6532 0.950 . S
C6537 C6539 1.327 . S
C6537 C6543 1.429 . S
C6538 C6530 1.574 . S
C6538 H6533 0.949 . S
C6538 C6544 1.368 . S
C6539 C6523 1.349 . S
C6539 H6531 0.950 . S
C6539 C6537 1.327 . S
C6540 C6528 1.349 . S
C6540 H6534 0.950 . S
C6540 C6541 1.327 . S
C6541 H6535 0.950 . S
C6541 C6540 1.327 . S
C6541 C6545 1.429 . S
C6542 C6525 1.574 . S
C6542 H6536 0.949 . S
C6542 C6546 1.368 . S
C6543 C6524 1.429 . S
C6543 C6537 1.429 . S
C6543 C6544 1.523 . S
C6544 C6525 1.368 . S
C6544 C6538 1.368 . S
C6544 C6543 1.523 . S
C6545 C6529 1.429 . S
C6545 C6541 1.429 . S
C6545 C6546 1.523 . S
C6546 C6530 1.368 . S
C6546 C6542 1.368 . S
C6546 C6545 1.523 . S
H6547 C6522 0.950 . S
H6548 C6524 0.950 . S
H6549 C6525 0.949 . S
H6550 C6527 0.950 . S
H6551 C6529 0.950 . S
C6552 C6553 1.349 . S
C6552 C6554 1.327 . S
C6552 H6577 0.950 . S
C6553 C6552 1.349 . S
C6553 C6569 1.349 . S
C6554 C6552 1.327 . S
C6554 C6573 1.429 . S
C6554 H6578 0.950 . S
C6555 C6572 1.574 . S
C6555 C6574 1.368 . S
C6555 H6579 0.949 . S
H6556 C6560 0.949 . S
C6557 C6558 1.349 . S
C6557 C6559 1.327 . S
C6557 H6580 0.950 . S
C6558 C6557 1.349 . S
C6558 C6570 1.349 . S
C6559 C6557 1.327 . S
C6559 C6575 1.429 . S
C6559 H6581 0.950 . S
C6560 H6556 0.949 . S
C6560 C6568 1.574 . S
C6560 C6576 1.368 . S
H6561 C6569 0.950 . S
H6562 C6567 0.950 . S
H6563 C6568 0.949 . S
H6564 C6570 0.950 . S
H6565 C6571 0.950 . S
H6566 C6572 0.949 . S
C6567 H6562 0.950 . S
C6567 C6569 1.327 . S
C6567 C6573 1.429 . S
C6568 C6560 1.574 . S
C6568 H6563 0.949 . S
C6568 C6574 1.368 . S
C6569 C6553 1.349 . S
C6569 H6561 0.950 . S
C6569 C6567 1.327 . S
C6570 C6558 1.349 . S
C6570 H6564 0.950 . S
C6570 C6571 1.327 . S
C6571 H6565 0.950 . S
C6571 C6570 1.327 . S
C6571 C6575 1.429 . S
C6572 C6555 1.574 . S
C6572 H6566 0.949 . S
C6572 C6576 1.368 . S
C6573 C6554 1.429 . S
C6573 C6567 1.429 . S
C6573 C6574 1.523 . S
C6574 C6555 1.368 . S
C6574 C6568 1.368 . S
C6574 C6573 1.523 . S
C6575 C6559 1.429 . S
C6575 C6571 1.429 . S
C6575 C6576 1.523 . S
C6576 C6560 1.368 . S
C6576 C6572 1.368 . S
C6576 C6575 1.523 . S
H6577 C6552 0.950 . S
H6578 C6554 0.950 . S
H6579 C6555 0.949 . S
H6580 C6557 0.950 . S
H6581 C6559 0.950 . S
C6582 C6583 1.349 . S
C6582 C6584 1.327 . S
C6582 H6607 0.950 . S
C6583 C6582 1.349 . S
C6583 C6599 1.349 . S
C6584 C6582 1.327 . S
C6584 C6603 1.429 . S
C6584 H6608 0.950 . S
C6585 C6602 1.574 . S
C6585 C6604 1.368 . S
C6585 H6609 0.949 . S
H6586 C6590 0.949 . S
C6587 C6588 1.349 . S
C6587 C6589 1.327 . S
C6587 H6610 0.950 . S
C6588 C6587 1.349 . S
C6588 C6600 1.349 . S
C6589 C6587 1.327 . S
C6589 C6605 1.429 . S
C6589 H6611 0.950 . S
C6590 H6586 0.949 . S
C6590 C6598 1.574 . S
C6590 C6606 1.368 . S
H6591 C6599 0.950 . S
H6592 C6597 0.950 . S
H6593 C6598 0.949 . S
H6594 C6600 0.950 . S
H6595 C6601 0.950 . S
H6596 C6602 0.949 . S
C6597 H6592 0.950 . S
C6597 C6599 1.327 . S
C6597 C6603 1.429 . S
C6598 C6590 1.574 . S
C6598 H6593 0.949 . S
C6598 C6604 1.368 . S
C6599 C6583 1.349 . S
C6599 H6591 0.950 . S
C6599 C6597 1.327 . S
C6600 C6588 1.349 . S
C6600 H6594 0.950 . S
C6600 C6601 1.327 . S
C6601 H6595 0.950 . S
C6601 C6600 1.327 . S
C6601 C6605 1.429 . S
C6602 C6585 1.574 . S
C6602 H6596 0.949 . S
C6602 C6606 1.368 . S
C6603 C6584 1.429 . S
C6603 C6597 1.429 . S
C6603 C6604 1.523 . S
C6604 C6585 1.368 . S
C6604 C6598 1.368 . S
C6604 C6603 1.523 . S
C6605 C6589 1.429 . S
C6605 C6601 1.429 . S
C6605 C6606 1.523 . S
C6606 C6590 1.368 . S
C6606 C6602 1.368 . S
C6606 C6605 1.523 . S
H6607 C6582 0.950 . S
H6608 C6584 0.950 . S
H6609 C6585 0.949 . S
H6610 C6587 0.950 . S
H6611 C6589 0.950 . S
C6612 C6613 1.349 . S
C6612 C6614 1.327 . S
C6612 H6637 0.950 . S
C6613 C6612 1.349 . S
C6613 C6629 1.349 . S
C6614 C6612 1.327 . S
C6614 C6633 1.429 . S
C6614 H6638 0.950 . S
C6615 C6632 1.574 . S
C6615 C6634 1.368 . S
C6615 H6639 0.949 . S
H6616 C6620 0.949 . S
C6617 C6618 1.349 . S
C6617 C6619 1.327 . S
C6617 H6640 0.950 . S
C6618 C6617 1.349 . S
C6618 C6630 1.349 . S
C6619 C6617 1.327 . S
C6619 C6635 1.429 . S
C6619 H6641 0.950 . S
C6620 H6616 0.949 . S
C6620 C6628 1.574 . S
C6620 C6636 1.368 . S
H6621 C6629 0.950 . S
H6622 C6627 0.950 . S
H6623 C6628 0.949 . S
H6624 C6630 0.950 . S
H6625 C6631 0.950 . S
H6626 C6632 0.949 . S
C6627 H6622 0.950 . S
C6627 C6629 1.327 . S
C6627 C6633 1.429 . S
C6628 C6620 1.574 . S
C6628 H6623 0.949 . S
C6628 C6634 1.368 . S
C6629 C6613 1.349 . S
C6629 H6621 0.950 . S
C6629 C6627 1.327 . S
C6630 C6618 1.349 . S
C6630 H6624 0.950 . S
C6630 C6631 1.327 . S
C6631 H6625 0.950 . S
C6631 C6630 1.327 . S
C6631 C6635 1.429 . S
C6632 C6615 1.574 . S
C6632 H6626 0.949 . S
C6632 C6636 1.368 . S
C6633 C6614 1.429 . S
C6633 C6627 1.429 . S
C6633 C6634 1.523 . S
C6634 C6615 1.368 . S
C6634 C6628 1.368 . S
C6634 C6633 1.523 . S
C6635 C6619 1.429 . S
C6635 C6631 1.429 . S
C6635 C6636 1.523 . S
C6636 C6620 1.368 . S
C6636 C6632 1.368 . S
C6636 C6635 1.523 . S
H6637 C6612 0.950 . S
H6638 C6614 0.950 . S
H6639 C6615 0.949 . S
H6640 C6617 0.950 . S
H6641 C6619 0.950 . S
C6642 C6643 1.349 . S
C6642 C6644 1.327 . S
C6642 H6667 0.950 . S
C6643 C6642 1.349 . S
C6643 C6659 1.349 . S
C6644 C6642 1.327 . S
C6644 C6663 1.429 . S
C6644 H6668 0.950 . S
C6645 C6662 1.574 . S
C6645 C6664 1.368 . S
C6645 H6669 0.949 . S
H6646 C6650 0.949 . S
C6647 C6648 1.349 . S
C6647 C6649 1.327 . S
C6647 H6670 0.950 . S
C6648 C6647 1.349 . S
C6648 C6660 1.349 . S
C6649 C6647 1.327 . S
C6649 C6665 1.429 . S
C6649 H6671 0.950 . S
C6650 H6646 0.949 . S
C6650 C6658 1.574 . S
C6650 C6666 1.368 . S
H6651 C6659 0.950 . S
H6652 C6657 0.950 . S
H6653 C6658 0.949 . S
H6654 C6660 0.950 . S
H6655 C6661 0.950 . S
H6656 C6662 0.949 . S
C6657 H6652 0.950 . S
C6657 C6659 1.327 . S
C6657 C6663 1.429 . S
C6658 C6650 1.574 . S
C6658 H6653 0.949 . S
C6658 C6664 1.368 . S
C6659 C6643 1.349 . S
C6659 H6651 0.950 . S
C6659 C6657 1.327 . S
C6660 C6648 1.349 . S
C6660 H6654 0.950 . S
C6660 C6661 1.327 . S
C6661 H6655 0.950 . S
C6661 C6660 1.327 . S
C6661 C6665 1.429 . S
C6662 C6645 1.574 . S
C6662 H6656 0.949 . S
C6662 C6666 1.368 . S
C6663 C6644 1.429 . S
C6663 C6657 1.429 . S
C6663 C6664 1.523 . S
C6664 C6645 1.368 . S
C6664 C6658 1.368 . S
C6664 C6663 1.523 . S
C6665 C6649 1.429 . S
C6665 C6661 1.429 . S
C6665 C6666 1.523 . S
C6666 C6650 1.368 . S
C6666 C6662 1.368 . S
C6666 C6665 1.523 . S
H6667 C6642 0.950 . S
H6668 C6644 0.950 . S
H6669 C6645 0.949 . S
H6670 C6647 0.950 . S
H6671 C6649 0.950 . S
C6672 C6673 1.349 . S
C6672 C6674 1.327 . S
C6672 H6697 0.950 . S
C6673 C6672 1.349 . S
C6673 C6689 1.349 . S
C6674 C6672 1.327 . S
C6674 C6693 1.429 . S
C6674 H6698 0.950 . S
C6675 C6692 1.574 . S
C6675 C6694 1.368 . S
C6675 H6699 0.949 . S
H6676 C6680 0.949 . S
C6677 C6678 1.349 . S
C6677 C6679 1.327 . S
C6677 H6700 0.950 . S
C6678 C6677 1.349 . S
C6678 C6690 1.349 . S
C6679 C6677 1.327 . S
C6679 C6695 1.429 . S
C6679 H6701 0.950 . S
C6680 H6676 0.949 . S
C6680 C6688 1.574 . S
C6680 C6696 1.368 . S
H6681 C6689 0.950 . S
H6682 C6687 0.950 . S
H6683 C6688 0.949 . S
H6684 C6690 0.950 . S
H6685 C6691 0.950 . S
H6686 C6692 0.949 . S
C6687 H6682 0.950 . S
C6687 C6689 1.327 . S
C6687 C6693 1.429 . S
C6688 C6680 1.574 . S
C6688 H6683 0.949 . S
C6688 C6694 1.368 . S
C6689 C6673 1.349 . S
C6689 H6681 0.950 . S
C6689 C6687 1.327 . S
C6690 C6678 1.349 . S
C6690 H6684 0.950 . S
C6690 C6691 1.327 . S
C6691 H6685 0.950 . S
C6691 C6690 1.327 . S
C6691 C6695 1.429 . S
C6692 C6675 1.574 . S
C6692 H6686 0.949 . S
C6692 C6696 1.368 . S
C6693 C6674 1.429 . S
C6693 C6687 1.429 . S
C6693 C6694 1.523 . S
C6694 C6675 1.368 . S
C6694 C6688 1.368 . S
C6694 C6693 1.523 . S
C6695 C6679 1.429 . S
C6695 C6691 1.429 . S
C6695 C6696 1.523 . S
C6696 C6680 1.368 . S
C6696 C6692 1.368 . S
C6696 C6695 1.523 . S
H6697 C6672 0.950 . S
H6698 C6674 0.950 . S
H6699 C6675 0.949 . S
H6700 C6677 0.950 . S
H6701 C6679 0.950 . S
C6702 C6703 1.349 . S
C6702 C6704 1.327 . S
C6702 H6727 0.950 . S
C6703 C6702 1.349 . S
C6703 C6719 1.349 . S
C6704 C6702 1.327 . S
C6704 C6723 1.429 . S
C6704 H6728 0.950 . S
C6705 C6722 1.574 . S
C6705 C6724 1.368 . S
C6705 H6729 0.949 . S
H6706 C6710 0.949 . S
C6707 C6708 1.349 . S
C6707 C6709 1.327 . S
C6707 H6730 0.950 . S
C6708 C6707 1.349 . S
C6708 C6720 1.349 . S
C6709 C6707 1.327 . S
C6709 C6725 1.429 . S
C6709 H6731 0.950 . S
C6710 H6706 0.949 . S
C6710 C6718 1.574 . S
C6710 C6726 1.368 . S
H6711 C6719 0.950 . S
H6712 C6717 0.950 . S
H6713 C6718 0.949 . S
H6714 C6720 0.950 . S
H6715 C6721 0.950 . S
H6716 C6722 0.949 . S
C6717 H6712 0.950 . S
C6717 C6719 1.327 . S
C6717 C6723 1.429 . S
C6718 C6710 1.574 . S
C6718 H6713 0.949 . S
C6718 C6724 1.368 . S
C6719 C6703 1.349 . S
C6719 H6711 0.950 . S
C6719 C6717 1.327 . S
C6720 C6708 1.349 . S
C6720 H6714 0.950 . S
C6720 C6721 1.327 . S
C6721 H6715 0.950 . S
C6721 C6720 1.327 . S
C6721 C6725 1.429 . S
C6722 C6705 1.574 . S
C6722 H6716 0.949 . S
C6722 C6726 1.368 . S
C6723 C6704 1.429 . S
C6723 C6717 1.429 . S
C6723 C6724 1.523 . S
C6724 C6705 1.368 . S
C6724 C6718 1.368 . S
C6724 C6723 1.523 . S
C6725 C6709 1.429 . S
C6725 C6721 1.429 . S
C6725 C6726 1.523 . S
C6726 C6710 1.368 . S
C6726 C6722 1.368 . S
C6726 C6725 1.523 . S
H6727 C6702 0.950 . S
H6728 C6704 0.950 . S
H6729 C6705 0.949 . S
H6730 C6707 0.950 . S
H6731 C6709 0.950 . S
C6732 C6733 1.349 . S
C6732 C6734 1.327 . S
C6732 H6757 0.950 . S
C6733 C6732 1.349 . S
C6733 C6749 1.349 . S
C6734 C6732 1.327 . S
C6734 C6753 1.429 . S
C6734 H6758 0.950 . S
C6735 C6752 1.574 . S
C6735 C6754 1.368 . S
C6735 H6759 0.949 . S
H6736 C6740 0.949 . S
C6737 C6738 1.349 . S
C6737 C6739 1.327 . S
C6737 H6760 0.950 . S
C6738 C6737 1.349 . S
C6738 C6750 1.349 . S
C6739 C6737 1.327 . S
C6739 C6755 1.429 . S
C6739 H6761 0.950 . S
C6740 H6736 0.949 . S
C6740 C6748 1.574 . S
C6740 C6756 1.368 . S
H6741 C6749 0.950 . S
H6742 C6747 0.950 . S
H6743 C6748 0.949 . S
H6744 C6750 0.950 . S
H6745 C6751 0.950 . S
H6746 C6752 0.949 . S
C6747 H6742 0.950 . S
C6747 C6749 1.327 . S
C6747 C6753 1.429 . S
C6748 C6740 1.574 . S
C6748 H6743 0.949 . S
C6748 C6754 1.368 . S
C6749 C6733 1.349 . S
C6749 H6741 0.950 . S
C6749 C6747 1.327 . S
C6750 C6738 1.349 . S
C6750 H6744 0.950 . S
C6750 C6751 1.327 . S
C6751 H6745 0.950 . S
C6751 C6750 1.327 . S
C6751 C6755 1.429 . S
C6752 C6735 1.574 . S
C6752 H6746 0.949 . S
C6752 C6756 1.368 . S
C6753 C6734 1.429 . S
C6753 C6747 1.429 . S
C6753 C6754 1.523 . S
C6754 C6735 1.368 . S
C6754 C6748 1.368 . S
C6754 C6753 1.523 . S
C6755 C6739 1.429 . S
C6755 C6751 1.429 . S
C6755 C6756 1.523 . S
C6756 C6740 1.368 . S
C6756 C6752 1.368 . S
C6756 C6755 1.523 . S
H6757 C6732 0.950 . S
H6758 C6734 0.950 . S
H6759 C6735 0.949 . S
H6760 C6737 0.950 . S
H6761 C6739 0.950 . S
C6762 C6763 1.349 . S
C6762 C6764 1.327 . S
C6762 H6787 0.950 . S
C6763 C6762 1.349 . S
C6763 C6779 1.349 . S
C6764 C6762 1.327 . S
C6764 C6783 1.429 . S
C6764 H6788 0.950 . S
C6765 C6782 1.574 . S
C6765 C6784 1.368 . S
C6765 H6789 0.949 . S
H6766 C6770 0.949 . S
C6767 C6768 1.349 . S
C6767 C6769 1.327 . S
C6767 H6790 0.950 . S
C6768 C6767 1.349 . S
C6768 C6780 1.349 . S
C6769 C6767 1.327 . S
C6769 C6785 1.429 . S
C6769 H6791 0.950 . S
C6770 H6766 0.949 . S
C6770 C6778 1.574 . S
C6770 C6786 1.368 . S
H6771 C6779 0.950 . S
H6772 C6777 0.950 . S
H6773 C6778 0.949 . S
H6774 C6780 0.950 . S
H6775 C6781 0.950 . S
H6776 C6782 0.949 . S
C6777 H6772 0.950 . S
C6777 C6779 1.327 . S
C6777 C6783 1.429 . S
C6778 C6770 1.574 . S
C6778 H6773 0.949 . S
C6778 C6784 1.368 . S
C6779 C6763 1.349 . S
C6779 H6771 0.950 . S
C6779 C6777 1.327 . S
C6780 C6768 1.349 . S
C6780 H6774 0.950 . S
C6780 C6781 1.327 . S
C6781 H6775 0.950 . S
C6781 C6780 1.327 . S
C6781 C6785 1.429 . S
C6782 C6765 1.574 . S
C6782 H6776 0.949 . S
C6782 C6786 1.368 . S
C6783 C6764 1.429 . S
C6783 C6777 1.429 . S
C6783 C6784 1.523 . S
C6784 C6765 1.368 . S
C6784 C6778 1.368 . S
C6784 C6783 1.523 . S
C6785 C6769 1.429 . S
C6785 C6781 1.429 . S
C6785 C6786 1.523 . S
C6786 C6770 1.368 . S
C6786 C6782 1.368 . S
C6786 C6785 1.523 . S
H6787 C6762 0.950 . S
H6788 C6764 0.950 . S
H6789 C6765 0.949 . S
H6790 C6767 0.950 . S
H6791 C6769 0.950 . S
C6792 C6793 1.349 . S
C6792 C6794 1.327 . S
C6792 H6817 0.950 . S
C6793 C6792 1.349 . S
C6793 C6809 1.349 . S
C6794 C6792 1.327 . S
C6794 C6813 1.429 . S
C6794 H6818 0.950 . S
C6795 C6812 1.574 . S
C6795 C6814 1.368 . S
C6795 H6819 0.949 . S
H6796 C6800 0.949 . S
C6797 C6798 1.349 . S
C6797 C6799 1.327 . S
C6797 H6820 0.950 . S
C6798 C6797 1.349 . S
C6798 C6810 1.349 . S
C6799 C6797 1.327 . S
C6799 C6815 1.429 . S
C6799 H6821 0.950 . S
C6800 H6796 0.949 . S
C6800 C6808 1.574 . S
C6800 C6816 1.368 . S
H6801 C6809 0.950 . S
H6802 C6807 0.950 . S
H6803 C6808 0.949 . S
H6804 C6810 0.950 . S
H6805 C6811 0.950 . S
H6806 C6812 0.949 . S
C6807 H6802 0.950 . S
C6807 C6809 1.327 . S
C6807 C6813 1.429 . S
C6808 C6800 1.574 . S
C6808 H6803 0.949 . S
C6808 C6814 1.368 . S
C6809 C6793 1.349 . S
C6809 H6801 0.950 . S
C6809 C6807 1.327 . S
C6810 C6798 1.349 . S
C6810 H6804 0.950 . S
C6810 C6811 1.327 . S
C6811 H6805 0.950 . S
C6811 C6810 1.327 . S
C6811 C6815 1.429 . S
C6812 C6795 1.574 . S
C6812 H6806 0.949 . S
C6812 C6816 1.368 . S
C6813 C6794 1.429 . S
C6813 C6807 1.429 . S
C6813 C6814 1.523 . S
C6814 C6795 1.368 . S
C6814 C6808 1.368 . S
C6814 C6813 1.523 . S
C6815 C6799 1.429 . S
C6815 C6811 1.429 . S
C6815 C6816 1.523 . S
C6816 C6800 1.368 . S
C6816 C6812 1.368 . S
C6816 C6815 1.523 . S
H6817 C6792 0.950 . S
H6818 C6794 0.950 . S
H6819 C6795 0.949 . S
H6820 C6797 0.950 . S
H6821 C6799 0.950 . S
C6822 C6823 1.349 . S
C6822 C6824 1.327 . S
C6822 H6847 0.950 . S
C6823 C6822 1.349 . S
C6823 C6839 1.349 . S
C6824 C6822 1.327 . S
C6824 C6843 1.429 . S
C6824 H6848 0.950 . S
C6825 C6842 1.574 . S
C6825 C6844 1.368 . S
C6825 H6849 0.949 . S
H6826 C6830 0.949 . S
C6827 C6828 1.349 . S
C6827 C6829 1.327 . S
C6827 H6850 0.950 . S
C6828 C6827 1.349 . S
C6828 C6840 1.349 . S
C6829 C6827 1.327 . S
C6829 C6845 1.429 . S
C6829 H6851 0.950 . S
C6830 H6826 0.949 . S
C6830 C6838 1.574 . S
C6830 C6846 1.368 . S
H6831 C6839 0.950 . S
H6832 C6837 0.950 . S
H6833 C6838 0.949 . S
H6834 C6840 0.950 . S
H6835 C6841 0.950 . S
H6836 C6842 0.949 . S
C6837 H6832 0.950 . S
C6837 C6839 1.327 . S
C6837 C6843 1.429 . S
C6838 C6830 1.574 . S
C6838 H6833 0.949 . S
C6838 C6844 1.368 . S
C6839 C6823 1.349 . S
C6839 H6831 0.950 . S
C6839 C6837 1.327 . S
C6840 C6828 1.349 . S
C6840 H6834 0.950 . S
C6840 C6841 1.327 . S
C6841 H6835 0.950 . S
C6841 C6840 1.327 . S
C6841 C6845 1.429 . S
C6842 C6825 1.574 . S
C6842 H6836 0.949 . S
C6842 C6846 1.368 . S
C6843 C6824 1.429 . S
C6843 C6837 1.429 . S
C6843 C6844 1.523 . S
C6844 C6825 1.368 . S
C6844 C6838 1.368 . S
C6844 C6843 1.523 . S
C6845 C6829 1.429 . S
C6845 C6841 1.429 . S
C6845 C6846 1.523 . S
C6846 C6830 1.368 . S
C6846 C6842 1.368 . S
C6846 C6845 1.523 . S
H6847 C6822 0.950 . S
H6848 C6824 0.950 . S
H6849 C6825 0.949 . S
H6850 C6827 0.950 . S
H6851 C6829 0.950 . S
C6852 C6853 1.349 . S
C6852 C6854 1.327 . S
C6852 H6877 0.950 . S
C6853 C6852 1.349 . S
C6853 C6869 1.349 . S
C6854 C6852 1.327 . S
C6854 C6873 1.429 . S
C6854 H6878 0.950 . S
C6855 C6872 1.574 . S
C6855 C6874 1.368 . S
C6855 H6879 0.949 . S
H6856 C6860 0.949 . S
C6857 C6858 1.349 . S
C6857 C6859 1.327 . S
C6857 H6880 0.950 . S
C6858 C6857 1.349 . S
C6858 C6870 1.349 . S
C6859 C6857 1.327 . S
C6859 C6875 1.429 . S
C6859 H6881 0.950 . S
C6860 H6856 0.949 . S
C6860 C6868 1.574 . S
C6860 C6876 1.368 . S
H6861 C6869 0.950 . S
H6862 C6867 0.950 . S
H6863 C6868 0.949 . S
H6864 C6870 0.950 . S
H6865 C6871 0.950 . S
H6866 C6872 0.949 . S
C6867 H6862 0.950 . S
C6867 C6869 1.327 . S
C6867 C6873 1.429 . S
C6868 C6860 1.574 . S
C6868 H6863 0.949 . S
C6868 C6874 1.368 . S
C6869 C6853 1.349 . S
C6869 H6861 0.950 . S
C6869 C6867 1.327 . S
C6870 C6858 1.349 . S
C6870 H6864 0.950 . S
C6870 C6871 1.327 . S
C6871 H6865 0.950 . S
C6871 C6870 1.327 . S
C6871 C6875 1.429 . S
C6872 C6855 1.574 . S
C6872 H6866 0.949 . S
C6872 C6876 1.368 . S
C6873 C6854 1.429 . S
C6873 C6867 1.429 . S
C6873 C6874 1.523 . S
C6874 C6855 1.368 . S
C6874 C6868 1.368 . S
C6874 C6873 1.523 . S
C6875 C6859 1.429 . S
C6875 C6871 1.429 . S
C6875 C6876 1.523 . S
C6876 C6860 1.368 . S
C6876 C6872 1.368 . S
C6876 C6875 1.523 . S
H6877 C6852 0.950 . S
H6878 C6854 0.950 . S
H6879 C6855 0.949 . S
H6880 C6857 0.950 . S
H6881 C6859 0.950 . S
C6882 C6883 1.349 . S
C6882 C6884 1.327 . S
C6882 H6907 0.950 . S
C6883 C6882 1.349 . S
C6883 C6899 1.349 . S
C6884 C6882 1.327 . S
C6884 C6903 1.429 . S
C6884 H6908 0.950 . S
C6885 C6902 1.574 . S
C6885 C6904 1.368 . S
C6885 H6909 0.949 . S
H6886 C6890 0.949 . S
C6887 C6888 1.349 . S
C6887 C6889 1.327 . S
C6887 H6910 0.950 . S
C6888 C6887 1.349 . S
C6888 C6900 1.349 . S
C6889 C6887 1.327 . S
C6889 C6905 1.429 . S
C6889 H6911 0.950 . S
C6890 H6886 0.949 . S
C6890 C6898 1.574 . S
C6890 C6906 1.368 . S
H6891 C6899 0.950 . S
H6892 C6897 0.950 . S
H6893 C6898 0.949 . S
H6894 C6900 0.950 . S
H6895 C6901 0.950 . S
H6896 C6902 0.949 . S
C6897 H6892 0.950 . S
C6897 C6899 1.327 . S
C6897 C6903 1.429 . S
C6898 C6890 1.574 . S
C6898 H6893 0.949 . S
C6898 C6904 1.368 . S
C6899 C6883 1.349 . S
C6899 H6891 0.950 . S
C6899 C6897 1.327 . S
C6900 C6888 1.349 . S
C6900 H6894 0.950 . S
C6900 C6901 1.327 . S
C6901 H6895 0.950 . S
C6901 C6900 1.327 . S
C6901 C6905 1.429 . S
C6902 C6885 1.574 . S
C6902 H6896 0.949 . S
C6902 C6906 1.368 . S
C6903 C6884 1.429 . S
C6903 C6897 1.429 . S
C6903 C6904 1.523 . S
C6904 C6885 1.368 . S
C6904 C6898 1.368 . S
C6904 C6903 1.523 . S
C6905 C6889 1.429 . S
C6905 C6901 1.429 . S
C6905 C6906 1.523 . S
C6906 C6890 1.368 . S
C6906 C6902 1.368 . S
C6906 C6905 1.523 . S
H6907 C6882 0.950 . S
H6908 C6884 0.950 . S
H6909 C6885 0.949 . S
H6910 C6887 0.950 . S
H6911 C6889 0.950 . S
C6912 C6913 1.349 . S
C6912 C6914 1.327 . S
C6912 H6937 0.950 . S
C6913 C6912 1.349 . S
C6913 C6929 1.349 . S
C6914 C6912 1.327 . S
C6914 C6933 1.429 . S
C6914 H6938 0.950 . S
C6915 C6932 1.574 . S
C6915 C6934 1.368 . S
C6915 H6939 0.949 . S
H6916 C6920 0.949 . S
C6917 C6918 1.349 . S
C6917 C6919 1.327 . S
C6917 H6940 0.950 . S
C6918 C6917 1.349 . S
C6918 C6930 1.349 . S
C6919 C6917 1.327 . S
C6919 C6935 1.429 . S
C6919 H6941 0.950 . S
C6920 H6916 0.949 . S
C6920 C6928 1.574 . S
C6920 C6936 1.368 . S
H6921 C6929 0.950 . S
H6922 C6927 0.950 . S
H6923 C6928 0.949 . S
H6924 C6930 0.950 . S
H6925 C6931 0.950 . S
H6926 C6932 0.949 . S
C6927 H6922 0.950 . S
C6927 C6929 1.327 . S
C6927 C6933 1.429 . S
C6928 C6920 1.574 . S
C6928 H6923 0.949 . S
C6928 C6934 1.368 . S
C6929 C6913 1.349 . S
C6929 H6921 0.950 . S
C6929 C6927 1.327 . S
C6930 C6918 1.349 . S
C6930 H6924 0.950 . S
C6930 C6931 1.327 . S
C6931 H6925 0.950 . S
C6931 C6930 1.327 . S
C6931 C6935 1.429 . S
C6932 C6915 1.574 . S
C6932 H6926 0.949 . S
C6932 C6936 1.368 . S
C6933 C6914 1.429 . S
C6933 C6927 1.429 . S
C6933 C6934 1.523 . S
C6934 C6915 1.368 . S
C6934 C6928 1.368 . S
C6934 C6933 1.523 . S
C6935 C6919 1.429 . S
C6935 C6931 1.429 . S
C6935 C6936 1.523 . S
C6936 C6920 1.368 . S
C6936 C6932 1.368 . S
C6936 C6935 1.523 . S
H6937 C6912 0.950 . S
H6938 C6914 0.950 . S
H6939 C6915 0.949 . S
H6940 C6917 0.950 . S
H6941 C6919 0.950 . S
C6942 C6943 1.349 . S
C6942 C6944 1.327 . S
C6942 H6967 0.950 . S
C6943 C6942 1.349 . S
C6943 C6959 1.349 . S
C6944 C6942 1.327 . S
C6944 C6963 1.429 . S
C6944 H6968 0.950 . S
C6945 C6962 1.574 . S
C6945 C6964 1.368 . S
C6945 H6969 0.949 . S
H6946 C6950 0.949 . S
C6947 C6948 1.349 . S
C6947 C6949 1.327 . S
C6947 H6970 0.950 . S
C6948 C6947 1.349 . S
C6948 C6960 1.349 . S
C6949 C6947 1.327 . S
C6949 C6965 1.429 . S
C6949 H6971 0.950 . S
C6950 H6946 0.949 . S
C6950 C6958 1.574 . S
C6950 C6966 1.368 . S
H6951 C6959 0.950 . S
H6952 C6957 0.950 . S
H6953 C6958 0.949 . S
H6954 C6960 0.950 . S
H6955 C6961 0.950 . S
H6956 C6962 0.949 . S
C6957 H6952 0.950 . S
C6957 C6959 1.327 . S
C6957 C6963 1.429 . S
C6958 C6950 1.574 . S
C6958 H6953 0.949 . S
C6958 C6964 1.368 . S
C6959 C6943 1.349 . S
C6959 H6951 0.950 . S
C6959 C6957 1.327 . S
C6960 C6948 1.349 . S
C6960 H6954 0.950 . S
C6960 C6961 1.327 . S
C6961 H6955 0.950 . S
C6961 C6960 1.327 . S
C6961 C6965 1.429 . S
C6962 C6945 1.574 . S
C6962 H6956 0.949 . S
C6962 C6966 1.368 . S
C6963 C6944 1.429 . S
C6963 C6957 1.429 . S
C6963 C6964 1.523 . S
C6964 C6945 1.368 . S
C6964 C6958 1.368 . S
C6964 C6963 1.523 . S
C6965 C6949 1.429 . S
C6965 C6961 1.429 . S
C6965 C6966 1.523 . S
C6966 C6950 1.368 . S
C6966 C6962 1.368 . S
C6966 C6965 1.523 . S
H6967 C6942 0.950 . S
H6968 C6944 0.950 . S
H6969 C6945 0.949 . S
H6970 C6947 0.950 . S
H6971 C6949 0.950 . S
C6972 C6973 1.349 . S
C6972 C6974 1.327 . S
C6972 H6997 0.950 . S
C6973 C6972 1.349 . S
C6973 C6989 1.349 . S
C6974 C6972 1.327 . S
C6974 C6993 1.429 . S
C6974 H6998 0.950 . S
C6975 C6992 1.574 . S
C6975 C6994 1.368 . S
C6975 H6999 0.949 . S
H6976 C6980 0.949 . S
C6977 C6978 1.349 . S
C6977 C6979 1.327 . S
C6977 H7000 0.950 . S
C6978 C6977 1.349 . S
C6978 C6990 1.349 . S
C6979 C6977 1.327 . S
C6979 C6995 1.429 . S
C6979 H7001 0.950 . S
C6980 H6976 0.949 . S
C6980 C6988 1.574 . S
C6980 C6996 1.368 . S
H6981 C6989 0.950 . S
H6982 C6987 0.950 . S
H6983 C6988 0.949 . S
H6984 C6990 0.950 . S
H6985 C6991 0.950 . S
H6986 C6992 0.949 . S
C6987 H6982 0.950 . S
C6987 C6989 1.327 . S
C6987 C6993 1.429 . S
C6988 C6980 1.574 . S
C6988 H6983 0.949 . S
C6988 C6994 1.368 . S
C6989 C6973 1.349 . S
C6989 H6981 0.950 . S
C6989 C6987 1.327 . S
C6990 C6978 1.349 . S
C6990 H6984 0.950 . S
C6990 C6991 1.327 . S
C6991 H6985 0.950 . S
C6991 C6990 1.327 . S
C6991 C6995 1.429 . S
C6992 C6975 1.574 . S
C6992 H6986 0.949 . S
C6992 C6996 1.368 . S
C6993 C6974 1.429 . S
C6993 C6987 1.429 . S
C6993 C6994 1.523 . S
C6994 C6975 1.368 . S
C6994 C6988 1.368 . S
C6994 C6993 1.523 . S
C6995 C6979 1.429 . S
C6995 C6991 1.429 . S
C6995 C6996 1.523 . S
C6996 C6980 1.368 . S
C6996 C6992 1.368 . S
C6996 C6995 1.523 . S
H6997 C6972 0.950 . S
H6998 C6974 0.950 . S
H6999 C6975 0.949 . S
H7000 C6977 0.950 . S
H7001 C6979 0.950 . S
C7002 C7003 1.349 . S
C7002 C7004 1.327 . S
C7002 H7027 0.950 . S
C7003 C7002 1.349 . S
C7003 C7019 1.349 . S
C7004 C7002 1.327 . S
C7004 C7023 1.429 . S
C7004 H7028 0.950 . S
C7005 C7022 1.574 . S
C7005 C7024 1.368 . S
C7005 H7029 0.949 . S
H7006 C7010 0.949 . S
C7007 C7008 1.349 . S
C7007 C7009 1.327 . S
C7007 H7030 0.950 . S
C7008 C7007 1.349 . S
C7008 C7020 1.349 . S
C7009 C7007 1.327 . S
C7009 C7025 1.429 . S
C7009 H7031 0.950 . S
C7010 H7006 0.949 . S
C7010 C7018 1.574 . S
C7010 C7026 1.368 . S
H7011 C7019 0.950 . S
H7012 C7017 0.950 . S
H7013 C7018 0.949 . S
H7014 C7020 0.950 . S
H7015 C7021 0.950 . S
H7016 C7022 0.949 . S
C7017 H7012 0.950 . S
C7017 C7019 1.327 . S
C7017 C7023 1.429 . S
C7018 C7010 1.574 . S
C7018 H7013 0.949 . S
C7018 C7024 1.368 . S
C7019 C7003 1.349 . S
C7019 H7011 0.950 . S
C7019 C7017 1.327 . S
C7020 C7008 1.349 . S
C7020 H7014 0.950 . S
C7020 C7021 1.327 . S
C7021 H7015 0.950 . S
C7021 C7020 1.327 . S
C7021 C7025 1.429 . S
C7022 C7005 1.574 . S
C7022 H7016 0.949 . S
C7022 C7026 1.368 . S
C7023 C7004 1.429 . S
C7023 C7017 1.429 . S
C7023 C7024 1.523 . S
C7024 C7005 1.368 . S
C7024 C7018 1.368 . S
C7024 C7023 1.523 . S
C7025 C7009 1.429 . S
C7025 C7021 1.429 . S
C7025 C7026 1.523 . S
C7026 C7010 1.368 . S
C7026 C7022 1.368 . S
C7026 C7025 1.523 . S
H7027 C7002 0.950 . S
H7028 C7004 0.950 . S
H7029 C7005 0.949 . S
H7030 C7007 0.950 . S
H7031 C7009 0.950 . S
C7032 C7033 1.349 . S
C7032 C7034 1.327 . S
C7032 H7057 0.950 . S
C7033 C7032 1.349 . S
C7033 C7049 1.349 . S
C7034 C7032 1.327 . S
C7034 C7053 1.429 . S
C7034 H7058 0.950 . S
C7035 C7052 1.574 . S
C7035 C7054 1.368 . S
C7035 H7059 0.949 . S
H7036 C7040 0.949 . S
C7037 C7038 1.349 . S
C7037 C7039 1.327 . S
C7037 H7060 0.950 . S
C7038 C7037 1.349 . S
C7038 C7050 1.349 . S
C7039 C7037 1.327 . S
C7039 C7055 1.429 . S
C7039 H7061 0.950 . S
C7040 H7036 0.949 . S
C7040 C7048 1.574 . S
C7040 C7056 1.368 . S
H7041 C7049 0.950 . S
H7042 C7047 0.950 . S
H7043 C7048 0.949 . S
H7044 C7050 0.950 . S
H7045 C7051 0.950 . S
H7046 C7052 0.949 . S
C7047 H7042 0.950 . S
C7047 C7049 1.327 . S
C7047 C7053 1.429 . S
C7048 C7040 1.574 . S
C7048 H7043 0.949 . S
C7048 C7054 1.368 . S
C7049 C7033 1.349 . S
C7049 H7041 0.950 . S
C7049 C7047 1.327 . S
C7050 C7038 1.349 . S
C7050 H7044 0.950 . S
C7050 C7051 1.327 . S
C7051 H7045 0.950 . S
C7051 C7050 1.327 . S
C7051 C7055 1.429 . S
C7052 C7035 1.574 . S
C7052 H7046 0.949 . S
C7052 C7056 1.368 . S
C7053 C7034 1.429 . S
C7053 C7047 1.429 . S
C7053 C7054 1.523 . S
C7054 C7035 1.368 . S
C7054 C7048 1.368 . S
C7054 C7053 1.523 . S
C7055 C7039 1.429 . S
C7055 C7051 1.429 . S
C7055 C7056 1.523 . S
C7056 C7040 1.368 . S
C7056 C7052 1.368 . S
C7056 C7055 1.523 . S
H7057 C7032 0.950 . S
H7058 C7034 0.950 . S
H7059 C7035 0.949 . S
H7060 C7037 0.950 . S
H7061 C7039 0.950 . S
C7062 C7063 1.349 . S
C7062 C7064 1.327 . S
C7062 H7087 0.950 . S
C7063 C7062 1.349 . S
C7063 C7079 1.349 . S
C7064 C7062 1.327 . S
C7064 C7083 1.429 . S
C7064 H7088 0.950 . S
C7065 C7082 1.574 . S
C7065 C7084 1.368 . S
C7065 H7089 0.949 . S
H7066 C7070 0.949 . S
C7067 C7068 1.349 . S
C7067 C7069 1.327 . S
C7067 H7090 0.950 . S
C7068 C7067 1.349 . S
C7068 C7080 1.349 . S
C7069 C7067 1.327 . S
C7069 C7085 1.429 . S
C7069 H7091 0.950 . S
C7070 H7066 0.949 . S
C7070 C7078 1.574 . S
C7070 C7086 1.368 . S
H7071 C7079 0.950 . S
H7072 C7077 0.950 . S
H7073 C7078 0.949 . S
H7074 C7080 0.950 . S
H7075 C7081 0.950 . S
H7076 C7082 0.949 . S
C7077 H7072 0.950 . S
C7077 C7079 1.327 . S
C7077 C7083 1.429 . S
C7078 C7070 1.574 . S
C7078 H7073 0.949 . S
C7078 C7084 1.368 . S
C7079 C7063 1.349 . S
C7079 H7071 0.950 . S
C7079 C7077 1.327 . S
C7080 C7068 1.349 . S
C7080 H7074 0.950 . S
C7080 C7081 1.327 . S
C7081 H7075 0.950 . S
C7081 C7080 1.327 . S
C7081 C7085 1.429 . S
C7082 C7065 1.574 . S
C7082 H7076 0.949 . S
C7082 C7086 1.368 . S
C7083 C7064 1.429 . S
C7083 C7077 1.429 . S
C7083 C7084 1.523 . S
C7084 C7065 1.368 . S
C7084 C7078 1.368 . S
C7084 C7083 1.523 . S
C7085 C7069 1.429 . S
C7085 C7081 1.429 . S
C7085 C7086 1.523 . S
C7086 C7070 1.368 . S
C7086 C7082 1.368 . S
C7086 C7085 1.523 . S
H7087 C7062 0.950 . S
H7088 C7064 0.950 . S
H7089 C7065 0.949 . S
H7090 C7067 0.950 . S
H7091 C7069 0.950 . S
C7092 C7093 1.349 . S
C7092 C7094 1.327 . S
C7092 H7117 0.950 . S
C7093 C7092 1.349 . S
C7093 C7109 1.349 . S
C7094 C7092 1.327 . S
C7094 C7113 1.429 . S
C7094 H7118 0.950 . S
C7095 C7112 1.574 . S
C7095 C7114 1.368 . S
C7095 H7119 0.949 . S
H7096 C7100 0.949 . S
C7097 C7098 1.349 . S
C7097 C7099 1.327 . S
C7097 H7120 0.950 . S
C7098 C7097 1.349 . S
C7098 C7110 1.349 . S
C7099 C7097 1.327 . S
C7099 C7115 1.429 . S
C7099 H7121 0.950 . S
C7100 H7096 0.949 . S
C7100 C7108 1.574 . S
C7100 C7116 1.368 . S
H7101 C7109 0.950 . S
H7102 C7107 0.950 . S
H7103 C7108 0.949 . S
H7104 C7110 0.950 . S
H7105 C7111 0.950 . S
H7106 C7112 0.949 . S
C7107 H7102 0.950 . S
C7107 C7109 1.327 . S
C7107 C7113 1.429 . S
C7108 C7100 1.574 . S
C7108 H7103 0.949 . S
C7108 C7114 1.368 . S
C7109 C7093 1.349 . S
C7109 H7101 0.950 . S
C7109 C7107 1.327 . S
C7110 C7098 1.349 . S
C7110 H7104 0.950 . S
C7110 C7111 1.327 . S
C7111 H7105 0.950 . S
C7111 C7110 1.327 . S
C7111 C7115 1.429 . S
C7112 C7095 1.574 . S
C7112 H7106 0.949 . S
C7112 C7116 1.368 . S
C7113 C7094 1.429 . S
C7113 C7107 1.429 . S
C7113 C7114 1.523 . S
C7114 C7095 1.368 . S
C7114 C7108 1.368 . S
C7114 C7113 1.523 . S
C7115 C7099 1.429 . S
C7115 C7111 1.429 . S
C7115 C7116 1.523 . S
C7116 C7100 1.368 . S
C7116 C7112 1.368 . S
C7116 C7115 1.523 . S
H7117 C7092 0.950 . S
H7118 C7094 0.950 . S
H7119 C7095 0.949 . S
H7120 C7097 0.950 . S
H7121 C7099 0.950 . S
C7122 C7123 1.349 . S
C7122 C7124 1.327 . S
C7122 H7147 0.950 . S
C7123 C7122 1.349 . S
C7123 C7139 1.349 . S
C7124 C7122 1.327 . S
C7124 C7143 1.429 . S
C7124 H7148 0.950 . S
C7125 C7142 1.574 . S
C7125 C7144 1.368 . S
C7125 H7149 0.949 . S
H7126 C7130 0.949 . S
C7127 C7128 1.349 . S
C7127 C7129 1.327 . S
C7127 H7150 0.950 . S
C7128 C7127 1.349 . S
C7128 C7140 1.349 . S
C7129 C7127 1.327 . S
C7129 C7145 1.429 . S
C7129 H7151 0.950 . S
C7130 H7126 0.949 . S
C7130 C7138 1.574 . S
C7130 C7146 1.368 . S
H7131 C7139 0.950 . S
H7132 C7137 0.950 . S
H7133 C7138 0.949 . S
H7134 C7140 0.950 . S
H7135 C7141 0.950 . S
H7136 C7142 0.949 . S
C7137 H7132 0.950 . S
C7137 C7139 1.327 . S
C7137 C7143 1.429 . S
C7138 C7130 1.574 . S
C7138 H7133 0.949 . S
C7138 C7144 1.368 . S
C7139 C7123 1.349 . S
C7139 H7131 0.950 . S
C7139 C7137 1.327 . S
C7140 C7128 1.349 . S
C7140 H7134 0.950 . S
C7140 C7141 1.327 . S
C7141 H7135 0.950 . S
C7141 C7140 1.327 . S
C7141 C7145 1.429 . S
C7142 C7125 1.574 . S
C7142 H7136 0.949 . S
C7142 C7146 1.368 . S
C7143 C7124 1.429 . S
C7143 C7137 1.429 . S
C7143 C7144 1.523 . S
C7144 C7125 1.368 . S
C7144 C7138 1.368 . S
C7144 C7143 1.523 . S
C7145 C7129 1.429 . S
C7145 C7141 1.429 . S
C7145 C7146 1.523 . S
C7146 C7130 1.368 . S
C7146 C7142 1.368 . S
C7146 C7145 1.523 . S
H7147 C7122 0.950 . S
H7148 C7124 0.950 . S
H7149 C7125 0.949 . S
H7150 C7127 0.950 . S
H7151 C7129 0.950 . S
C7152 C7153 1.349 . S
C7152 C7154 1.327 . S
C7152 H7177 0.950 . S
C7153 C7152 1.349 . S
C7153 C7169 1.349 . S
C7154 C7152 1.327 . S
C7154 C7173 1.429 . S
C7154 H7178 0.950 . S
C7155 C7172 1.574 . S
C7155 C7174 1.368 . S
C7155 H7179 0.949 . S
H7156 C7160 0.949 . S
C7157 C7158 1.349 . S
C7157 C7159 1.327 . S
C7157 H7180 0.950 . S
C7158 C7157 1.349 . S
C7158 C7170 1.349 . S
C7159 C7157 1.327 . S
C7159 C7175 1.429 . S
C7159 H7181 0.950 . S
C7160 H7156 0.949 . S
C7160 C7168 1.574 . S
C7160 C7176 1.368 . S
H7161 C7169 0.950 . S
H7162 C7167 0.950 . S
H7163 C7168 0.949 . S
H7164 C7170 0.950 . S
H7165 C7171 0.950 . S
H7166 C7172 0.949 . S
C7167 H7162 0.950 . S
C7167 C7169 1.327 . S
C7167 C7173 1.429 . S
C7168 C7160 1.574 . S
C7168 H7163 0.949 . S
C7168 C7174 1.368 . S
C7169 C7153 1.349 . S
C7169 H7161 0.950 . S
C7169 C7167 1.327 . S
C7170 C7158 1.349 . S
C7170 H7164 0.950 . S
C7170 C7171 1.327 . S
C7171 H7165 0.950 . S
C7171 C7170 1.327 . S
C7171 C7175 1.429 . S
C7172 C7155 1.574 . S
C7172 H7166 0.949 . S
C7172 C7176 1.368 . S
C7173 C7154 1.429 . S
C7173 C7167 1.429 . S
C7173 C7174 1.523 . S
C7174 C7155 1.368 . S
C7174 C7168 1.368 . S
C7174 C7173 1.523 . S
C7175 C7159 1.429 . S
C7175 C7171 1.429 . S
C7175 C7176 1.523 . S
C7176 C7160 1.368 . S
C7176 C7172 1.368 . S
C7176 C7175 1.523 . S
H7177 C7152 0.950 . S
H7178 C7154 0.950 . S
H7179 C7155 0.949 . S
H7180 C7157 0.950 . S
H7181 C7159 0.950 . S
C7182 C7183 1.349 . S
C7182 C7184 1.327 . S
C7182 H7207 0.950 . S
C7183 C7182 1.349 . S
C7183 C7199 1.349 . S
C7184 C7182 1.327 . S
C7184 C7203 1.429 . S
C7184 H7208 0.950 . S
C7185 C7202 1.574 . S
C7185 C7204 1.368 . S
C7185 H7209 0.949 . S
H7186 C7190 0.949 . S
C7187 C7188 1.349 . S
C7187 C7189 1.327 . S
C7187 H7210 0.950 . S
C7188 C7187 1.349 . S
C7188 C7200 1.349 . S
C7189 C7187 1.327 . S
C7189 C7205 1.429 . S
C7189 H7211 0.950 . S
C7190 H7186 0.949 . S
C7190 C7198 1.574 . S
C7190 C7206 1.368 . S
H7191 C7199 0.950 . S
H7192 C7197 0.950 . S
H7193 C7198 0.949 . S
H7194 C7200 0.950 . S
H7195 C7201 0.950 . S
H7196 C7202 0.949 . S
C7197 H7192 0.950 . S
C7197 C7199 1.327 . S
C7197 C7203 1.429 . S
C7198 C7190 1.574 . S
C7198 H7193 0.949 . S
C7198 C7204 1.368 . S
C7199 C7183 1.349 . S
C7199 H7191 0.950 . S
C7199 C7197 1.327 . S
C7200 C7188 1.349 . S
C7200 H7194 0.950 . S
C7200 C7201 1.327 . S
C7201 H7195 0.950 . S
C7201 C7200 1.327 . S
C7201 C7205 1.429 . S
C7202 C7185 1.574 . S
C7202 H7196 0.949 . S
C7202 C7206 1.368 . S
C7203 C7184 1.429 . S
C7203 C7197 1.429 . S
C7203 C7204 1.523 . S
C7204 C7185 1.368 . S
C7204 C7198 1.368 . S
C7204 C7203 1.523 . S
C7205 C7189 1.429 . S
C7205 C7201 1.429 . S
C7205 C7206 1.523 . S
C7206 C7190 1.368 . S
C7206 C7202 1.368 . S
C7206 C7205 1.523 . S
H7207 C7182 0.950 . S
H7208 C7184 0.950 . S
H7209 C7185 0.949 . S
H7210 C7187 0.950 . S
H7211 C7189 0.950 . S
C7212 C7213 1.349 . S
C7212 C7214 1.327 . S
C7212 H7237 0.950 . S
C7213 C7212 1.349 . S
C7213 C7229 1.349 . S
C7214 C7212 1.327 . S
C7214 C7233 1.429 . S
C7214 H7238 0.950 . S
C7215 C7232 1.574 . S
C7215 C7234 1.368 . S
C7215 H7239 0.949 . S
H7216 C7220 0.949 . S
C7217 C7218 1.349 . S
C7217 C7219 1.327 . S
C7217 H7240 0.950 . S
C7218 C7217 1.349 . S
C7218 C7230 1.349 . S
C7219 C7217 1.327 . S
C7219 C7235 1.429 . S
C7219 H7241 0.950 . S
C7220 H7216 0.949 . S
C7220 C7228 1.574 . S
C7220 C7236 1.368 . S
H7221 C7229 0.950 . S
H7222 C7227 0.950 . S
H7223 C7228 0.949 . S
H7224 C7230 0.950 . S
H7225 C7231 0.950 . S
H7226 C7232 0.949 . S
C7227 H7222 0.950 . S
C7227 C7229 1.327 . S
C7227 C7233 1.429 . S
C7228 C7220 1.574 . S
C7228 H7223 0.949 . S
C7228 C7234 1.368 . S
C7229 C7213 1.349 . S
C7229 H7221 0.950 . S
C7229 C7227 1.327 . S
C7230 C7218 1.349 . S
C7230 H7224 0.950 . S
C7230 C7231 1.327 . S
C7231 H7225 0.950 . S
C7231 C7230 1.327 . S
C7231 C7235 1.429 . S
C7232 C7215 1.574 . S
C7232 H7226 0.949 . S
C7232 C7236 1.368 . S
C7233 C7214 1.429 . S
C7233 C7227 1.429 . S
C7233 C7234 1.523 . S
C7234 C7215 1.368 . S
C7234 C7228 1.368 . S
C7234 C7233 1.523 . S
C7235 C7219 1.429 . S
C7235 C7231 1.429 . S
C7235 C7236 1.523 . S
C7236 C7220 1.368 . S
C7236 C7232 1.368 . S
C7236 C7235 1.523 . S
H7237 C7212 0.950 . S
H7238 C7214 0.950 . S
H7239 C7215 0.949 . S
H7240 C7217 0.950 . S
H7241 C7219 0.950 . S
C7242 C7243 1.349 . S
C7242 C7244 1.327 . S
C7242 H7267 0.950 . S
C7243 C7242 1.349 . S
C7243 C7259 1.349 . S
C7244 C7242 1.327 . S
C7244 C7263 1.429 . S
C7244 H7268 0.950 . S
C7245 C7262 1.574 . S
C7245 C7264 1.368 . S
C7245 H7269 0.949 . S
H7246 C7250 0.949 . S
C7247 C7248 1.349 . S
C7247 C7249 1.327 . S
C7247 H7270 0.950 . S
C7248 C7247 1.349 . S
C7248 C7260 1.349 . S
C7249 C7247 1.327 . S
C7249 C7265 1.429 . S
C7249 H7271 0.950 . S
C7250 H7246 0.949 . S
C7250 C7258 1.574 . S
C7250 C7266 1.368 . S
H7251 C7259 0.950 . S
H7252 C7257 0.950 . S
H7253 C7258 0.949 . S
H7254 C7260 0.950 . S
H7255 C7261 0.950 . S
H7256 C7262 0.949 . S
C7257 H7252 0.950 . S
C7257 C7259 1.327 . S
C7257 C7263 1.429 . S
C7258 C7250 1.574 . S
C7258 H7253 0.949 . S
C7258 C7264 1.368 . S
C7259 C7243 1.349 . S
C7259 H7251 0.950 . S
C7259 C7257 1.327 . S
C7260 C7248 1.349 . S
C7260 H7254 0.950 . S
C7260 C7261 1.327 . S
C7261 H7255 0.950 . S
C7261 C7260 1.327 . S
C7261 C7265 1.429 . S
C7262 C7245 1.574 . S
C7262 H7256 0.949 . S
C7262 C7266 1.368 . S
C7263 C7244 1.429 . S
C7263 C7257 1.429 . S
C7263 C7264 1.523 . S
C7264 C7245 1.368 . S
C7264 C7258 1.368 . S
C7264 C7263 1.523 . S
C7265 C7249 1.429 . S
C7265 C7261 1.429 . S
C7265 C7266 1.523 . S
C7266 C7250 1.368 . S
C7266 C7262 1.368 . S
C7266 C7265 1.523 . S
H7267 C7242 0.950 . S
H7268 C7244 0.950 . S
H7269 C7245 0.949 . S
H7270 C7247 0.950 . S
H7271 C7249 0.950 . S
C7272 C7273 1.349 . S
C7272 C7274 1.327 . S
C7272 H7297 0.950 . S
C7273 C7272 1.349 . S
C7273 C7289 1.349 . S
C7274 C7272 1.327 . S
C7274 C7293 1.429 . S
C7274 H7298 0.950 . S
C7275 C7292 1.574 . S
C7275 C7294 1.368 . S
C7275 H7299 0.949 . S
H7276 C7280 0.949 . S
C7277 C7278 1.349 . S
C7277 C7279 1.327 . S
C7277 H7300 0.950 . S
C7278 C7277 1.349 . S
C7278 C7290 1.349 . S
C7279 C7277 1.327 . S
C7279 C7295 1.429 . S
C7279 H7301 0.950 . S
C7280 H7276 0.949 . S
C7280 C7288 1.574 . S
C7280 C7296 1.368 . S
H7281 C7289 0.950 . S
H7282 C7287 0.950 . S
H7283 C7288 0.949 . S
H7284 C7290 0.950 . S
H7285 C7291 0.950 . S
H7286 C7292 0.949 . S
C7287 H7282 0.950 . S
C7287 C7289 1.327 . S
C7287 C7293 1.429 . S
C7288 C7280 1.574 . S
C7288 H7283 0.949 . S
C7288 C7294 1.368 . S
C7289 C7273 1.349 . S
C7289 H7281 0.950 . S
C7289 C7287 1.327 . S
C7290 C7278 1.349 . S
C7290 H7284 0.950 . S
C7290 C7291 1.327 . S
C7291 H7285 0.950 . S
C7291 C7290 1.327 . S
C7291 C7295 1.429 . S
C7292 C7275 1.574 . S
C7292 H7286 0.949 . S
C7292 C7296 1.368 . S
C7293 C7274 1.429 . S
C7293 C7287 1.429 . S
C7293 C7294 1.523 . S
C7294 C7275 1.368 . S
C7294 C7288 1.368 . S
C7294 C7293 1.523 . S
C7295 C7279 1.429 . S
C7295 C7291 1.429 . S
C7295 C7296 1.523 . S
C7296 C7280 1.368 . S
C7296 C7292 1.368 . S
C7296 C7295 1.523 . S
H7297 C7272 0.950 . S
H7298 C7274 0.950 . S
H7299 C7275 0.949 . S
H7300 C7277 0.950 . S
H7301 C7279 0.950 . S
C7302 C7303 1.349 . S
C7302 C7304 1.327 . S
C7302 H7327 0.950 . S
C7303 C7302 1.349 . S
C7303 C7319 1.349 . S
C7304 C7302 1.327 . S
C7304 C7323 1.429 . S
C7304 H7328 0.950 . S
C7305 C7322 1.574 . S
C7305 C7324 1.368 . S
C7305 H7329 0.949 . S
H7306 C7310 0.949 . S
C7307 C7308 1.349 . S
C7307 C7309 1.327 . S
C7307 H7330 0.950 . S
C7308 C7307 1.349 . S
C7308 C7320 1.349 . S
C7309 C7307 1.327 . S
C7309 C7325 1.429 . S
C7309 H7331 0.950 . S
C7310 H7306 0.949 . S
C7310 C7318 1.574 . S
C7310 C7326 1.368 . S
H7311 C7319 0.950 . S
H7312 C7317 0.950 . S
H7313 C7318 0.949 . S
H7314 C7320 0.950 . S
H7315 C7321 0.950 . S
H7316 C7322 0.949 . S
C7317 H7312 0.950 . S
C7317 C7319 1.327 . S
C7317 C7323 1.429 . S
C7318 C7310 1.574 . S
C7318 H7313 0.949 . S
C7318 C7324 1.368 . S
C7319 C7303 1.349 . S
C7319 H7311 0.950 . S
C7319 C7317 1.327 . S
C7320 C7308 1.349 . S
C7320 H7314 0.950 . S
C7320 C7321 1.327 . S
C7321 H7315 0.950 . S
C7321 C7320 1.327 . S
C7321 C7325 1.429 . S
C7322 C7305 1.574 . S
C7322 H7316 0.949 . S
C7322 C7326 1.368 . S
C7323 C7304 1.429 . S
C7323 C7317 1.429 . S
C7323 C7324 1.523 . S
C7324 C7305 1.368 . S
C7324 C7318 1.368 . S
C7324 C7323 1.523 . S
C7325 C7309 1.429 . S
C7325 C7321 1.429 . S
C7325 C7326 1.523 . S
C7326 C7310 1.368 . S
C7326 C7322 1.368 . S
C7326 C7325 1.523 . S
H7327 C7302 0.950 . S
H7328 C7304 0.950 . S
H7329 C7305 0.949 . S
H7330 C7307 0.950 . S
H7331 C7309 0.950 . S
C7332 C7333 1.349 . S
C7332 C7334 1.327 . S
C7332 H7357 0.950 . S
C7333 C7332 1.349 . S
C7333 C7349 1.349 . S
C7334 C7332 1.327 . S
C7334 C7353 1.429 . S
C7334 H7358 0.950 . S
C7335 C7352 1.574 . S
C7335 C7354 1.368 . S
C7335 H7359 0.949 . S
H7336 C7340 0.949 . S
C7337 C7338 1.349 . S
C7337 C7339 1.327 . S
C7337 H7360 0.950 . S
C7338 C7337 1.349 . S
C7338 C7350 1.349 . S
C7339 C7337 1.327 . S
C7339 C7355 1.429 . S
C7339 H7361 0.950 . S
C7340 H7336 0.949 . S
C7340 C7348 1.574 . S
C7340 C7356 1.368 . S
H7341 C7349 0.950 . S
H7342 C7347 0.950 . S
H7343 C7348 0.949 . S
H7344 C7350 0.950 . S
H7345 C7351 0.950 . S
H7346 C7352 0.949 . S
C7347 H7342 0.950 . S
C7347 C7349 1.327 . S
C7347 C7353 1.429 . S
C7348 C7340 1.574 . S
C7348 H7343 0.949 . S
C7348 C7354 1.368 . S
C7349 C7333 1.349 . S
C7349 H7341 0.950 . S
C7349 C7347 1.327 . S
C7350 C7338 1.349 . S
C7350 H7344 0.950 . S
C7350 C7351 1.327 . S
C7351 H7345 0.950 . S
C7351 C7350 1.327 . S
C7351 C7355 1.429 . S
C7352 C7335 1.574 . S
C7352 H7346 0.949 . S
C7352 C7356 1.368 . S
C7353 C7334 1.429 . S
C7353 C7347 1.429 . S
C7353 C7354 1.523 . S
C7354 C7335 1.368 . S
C7354 C7348 1.368 . S
C7354 C7353 1.523 . S
C7355 C7339 1.429 . S
C7355 C7351 1.429 . S
C7355 C7356 1.523 . S
C7356 C7340 1.368 . S
C7356 C7352 1.368 . S
C7356 C7355 1.523 . S
H7357 C7332 0.950 . S
H7358 C7334 0.950 . S
H7359 C7335 0.949 . S
H7360 C7337 0.950 . S
H7361 C7339 0.950 . S
C7362 C7363 1.349 . S
C7362 C7364 1.327 . S
C7362 H7387 0.950 . S
C7363 C7362 1.349 . S
C7363 C7379 1.349 . S
C7364 C7362 1.327 . S
C7364 C7383 1.429 . S
C7364 H7388 0.950 . S
C7365 C7382 1.574 . S
C7365 C7384 1.368 . S
C7365 H7389 0.949 . S
H7366 C7370 0.949 . S
C7367 C7368 1.349 . S
C7367 C7369 1.327 . S
C7367 H7390 0.950 . S
C7368 C7367 1.349 . S
C7368 C7380 1.349 . S
C7369 C7367 1.327 . S
C7369 C7385 1.429 . S
C7369 H7391 0.950 . S
C7370 H7366 0.949 . S
C7370 C7378 1.574 . S
C7370 C7386 1.368 . S
H7371 C7379 0.950 . S
H7372 C7377 0.950 . S
H7373 C7378 0.949 . S
H7374 C7380 0.950 . S
H7375 C7381 0.950 . S
H7376 C7382 0.949 . S
C7377 H7372 0.950 . S
C7377 C7379 1.327 . S
C7377 C7383 1.429 . S
C7378 C7370 1.574 . S
C7378 H7373 0.949 . S
C7378 C7384 1.368 . S
C7379 C7363 1.349 . S
C7379 H7371 0.950 . S
C7379 C7377 1.327 . S
C7380 C7368 1.349 . S
C7380 H7374 0.950 . S
C7380 C7381 1.327 . S
C7381 H7375 0.950 . S
C7381 C7380 1.327 . S
C7381 C7385 1.429 . S
C7382 C7365 1.574 . S
C7382 H7376 0.949 . S
C7382 C7386 1.368 . S
C7383 C7364 1.429 . S
C7383 C7377 1.429 . S
C7383 C7384 1.523 . S
C7384 C7365 1.368 . S
C7384 C7378 1.368 . S
C7384 C7383 1.523 . S
C7385 C7369 1.429 . S
C7385 C7381 1.429 . S
C7385 C7386 1.523 . S
C7386 C7370 1.368 . S
C7386 C7382 1.368 . S
C7386 C7385 1.523 . S
H7387 C7362 0.950 . S
H7388 C7364 0.950 . S
H7389 C7365 0.949 . S
H7390 C7367 0.950 . S
H7391 C7369 0.950 . S
C7392 C7393 1.349 . S
C7392 C7394 1.327 . S
C7392 H7417 0.950 . S
C7393 C7392 1.349 . S
C7393 C7409 1.349 . S
C7394 C7392 1.327 . S
C7394 C7413 1.429 . S
C7394 H7418 0.950 . S
C7395 C7412 1.574 . S
C7395 C7414 1.368 . S
C7395 H7419 0.949 . S
H7396 C7400 0.949 . S
C7397 C7398 1.349 . S
C7397 C7399 1.327 . S
C7397 H7420 0.950 . S
C7398 C7397 1.349 . S
C7398 C7410 1.349 . S
C7399 C7397 1.327 . S
C7399 C7415 1.429 . S
C7399 H7421 0.950 . S
C7400 H7396 0.949 . S
C7400 C7408 1.574 . S
C7400 C7416 1.368 . S
H7401 C7409 0.950 . S
H7402 C7407 0.950 . S
H7403 C7408 0.949 . S
H7404 C7410 0.950 . S
H7405 C7411 0.950 . S
H7406 C7412 0.949 . S
C7407 H7402 0.950 . S
C7407 C7409 1.327 . S
C7407 C7413 1.429 . S
C7408 C7400 1.574 . S
C7408 H7403 0.949 . S
C7408 C7414 1.368 . S
C7409 C7393 1.349 . S
C7409 H7401 0.950 . S
C7409 C7407 1.327 . S
C7410 C7398 1.349 . S
C7410 H7404 0.950 . S
C7410 C7411 1.327 . S
C7411 H7405 0.950 . S
C7411 C7410 1.327 . S
C7411 C7415 1.429 . S
C7412 C7395 1.574 . S
C7412 H7406 0.949 . S
C7412 C7416 1.368 . S
C7413 C7394 1.429 . S
C7413 C7407 1.429 . S
C7413 C7414 1.523 . S
C7414 C7395 1.368 . S
C7414 C7408 1.368 . S
C7414 C7413 1.523 . S
C7415 C7399 1.429 . S
C7415 C7411 1.429 . S
C7415 C7416 1.523 . S
C7416 C7400 1.368 . S
C7416 C7412 1.368 . S
C7416 C7415 1.523 . S
H7417 C7392 0.950 . S
H7418 C7394 0.950 . S
H7419 C7395 0.949 . S
H7420 C7397 0.950 . S
H7421 C7399 0.950 . S
C7422 C7423 1.349 . S
C7422 C7424 1.327 . S
C7422 H7447 0.950 . S
C7423 C7422 1.349 . S
C7423 C7439 1.349 . S
C7424 C7422 1.327 . S
C7424 C7443 1.429 . S
C7424 H7448 0.950 . S
C7425 C7442 1.574 . S
C7425 C7444 1.368 . S
C7425 H7449 0.949 . S
H7426 C7430 0.949 . S
C7427 C7428 1.349 . S
C7427 C7429 1.327 . S
C7427 H7450 0.950 . S
C7428 C7427 1.349 . S
C7428 C7440 1.349 . S
C7429 C7427 1.327 . S
C7429 C7445 1.429 . S
C7429 H7451 0.950 . S
C7430 H7426 0.949 . S
C7430 C7438 1.574 . S
C7430 C7446 1.368 . S
H7431 C7439 0.950 . S
H7432 C7437 0.950 . S
H7433 C7438 0.949 . S
H7434 C7440 0.950 . S
H7435 C7441 0.950 . S
H7436 C7442 0.949 . S
C7437 H7432 0.950 . S
C7437 C7439 1.327 . S
C7437 C7443 1.429 . S
C7438 C7430 1.574 . S
C7438 H7433 0.949 . S
C7438 C7444 1.368 . S
C7439 C7423 1.349 . S
C7439 H7431 0.950 . S
C7439 C7437 1.327 . S
C7440 C7428 1.349 . S
C7440 H7434 0.950 . S
C7440 C7441 1.327 . S
C7441 H7435 0.950 . S
C7441 C7440 1.327 . S
C7441 C7445 1.429 . S
C7442 C7425 1.574 . S
C7442 H7436 0.949 . S
C7442 C7446 1.368 . S
C7443 C7424 1.429 . S
C7443 C7437 1.429 . S
C7443 C7444 1.523 . S
C7444 C7425 1.368 . S
C7444 C7438 1.368 . S
C7444 C7443 1.523 . S
C7445 C7429 1.429 . S
C7445 C7441 1.429 . S
C7445 C7446 1.523 . S
C7446 C7430 1.368 . S
C7446 C7442 1.368 . S
C7446 C7445 1.523 . S
H7447 C7422 0.950 . S
H7448 C7424 0.950 . S
H7449 C7425 0.949 . S
H7450 C7427 0.950 . S
H7451 C7429 0.950 . S
C7452 C7453 1.349 . S
C7452 C7454 1.327 . S
C7452 H7477 0.950 . S
C7453 C7452 1.349 . S
C7453 C7469 1.349 . S
C7454 C7452 1.327 . S
C7454 C7473 1.429 . S
C7454 H7478 0.950 . S
C7455 C7472 1.574 . S
C7455 C7474 1.368 . S
C7455 H7479 0.949 . S
H7456 C7460 0.949 . S
C7457 C7458 1.349 . S
C7457 C7459 1.327 . S
C7457 H7480 0.950 . S
C7458 C7457 1.349 . S
C7458 C7470 1.349 . S
C7459 C7457 1.327 . S
C7459 C7475 1.429 . S
C7459 H7481 0.950 . S
C7460 H7456 0.949 . S
C7460 C7468 1.574 . S
C7460 C7476 1.368 . S
H7461 C7469 0.950 . S
H7462 C7467 0.950 . S
H7463 C7468 0.949 . S
H7464 C7470 0.950 . S
H7465 C7471 0.950 . S
H7466 C7472 0.949 . S
C7467 H7462 0.950 . S
C7467 C7469 1.327 . S
C7467 C7473 1.429 . S
C7468 C7460 1.574 . S
C7468 H7463 0.949 . S
C7468 C7474 1.368 . S
C7469 C7453 1.349 . S
C7469 H7461 0.950 . S
C7469 C7467 1.327 . S
C7470 C7458 1.349 . S
C7470 H7464 0.950 . S
C7470 C7471 1.327 . S
C7471 H7465 0.950 . S
C7471 C7470 1.327 . S
C7471 C7475 1.429 . S
C7472 C7455 1.574 . S
C7472 H7466 0.949 . S
C7472 C7476 1.368 . S
C7473 C7454 1.429 . S
C7473 C7467 1.429 . S
C7473 C7474 1.523 . S
C7474 C7455 1.368 . S
C7474 C7468 1.368 . S
C7474 C7473 1.523 . S
C7475 C7459 1.429 . S
C7475 C7471 1.429 . S
C7475 C7476 1.523 . S
C7476 C7460 1.368 . S
C7476 C7472 1.368 . S
C7476 C7475 1.523 . S
H7477 C7452 0.950 . S
H7478 C7454 0.950 . S
H7479 C7455 0.949 . S
H7480 C7457 0.950 . S
H7481 C7459 0.950 . S
C7482 C7483 1.349 . S
C7482 C7484 1.327 . S
C7482 H7507 0.950 . S
C7483 C7482 1.349 . S
C7483 C7499 1.349 . S
C7484 C7482 1.327 . S
C7484 C7503 1.429 . S
C7484 H7508 0.950 . S
C7485 C7502 1.574 . S
C7485 C7504 1.368 . S
C7485 H7509 0.949 . S
H7486 C7490 0.949 . S
C7487 C7488 1.349 . S
C7487 C7489 1.327 . S
C7487 H7510 0.950 . S
C7488 C7487 1.349 . S
C7488 C7500 1.349 . S
C7489 C7487 1.327 . S
C7489 C7505 1.429 . S
C7489 H7511 0.950 . S
C7490 H7486 0.949 . S
C7490 C7498 1.574 . S
C7490 C7506 1.368 . S
H7491 C7499 0.950 . S
H7492 C7497 0.950 . S
H7493 C7498 0.949 . S
H7494 C7500 0.950 . S
H7495 C7501 0.950 . S
H7496 C7502 0.949 . S
C7497 H7492 0.950 . S
C7497 C7499 1.327 . S
C7497 C7503 1.429 . S
C7498 C7490 1.574 . S
C7498 H7493 0.949 . S
C7498 C7504 1.368 . S
C7499 C7483 1.349 . S
C7499 H7491 0.950 . S
C7499 C7497 1.327 . S
C7500 C7488 1.349 . S
C7500 H7494 0.950 . S
C7500 C7501 1.327 . S
C7501 H7495 0.950 . S
C7501 C7500 1.327 . S
C7501 C7505 1.429 . S
C7502 C7485 1.574 . S
C7502 H7496 0.949 . S
C7502 C7506 1.368 . S
C7503 C7484 1.429 . S
C7503 C7497 1.429 . S
C7503 C7504 1.523 . S
C7504 C7485 1.368 . S
C7504 C7498 1.368 . S
C7504 C7503 1.523 . S
C7505 C7489 1.429 . S
C7505 C7501 1.429 . S
C7505 C7506 1.523 . S
C7506 C7490 1.368 . S
C7506 C7502 1.368 . S
C7506 C7505 1.523 . S
H7507 C7482 0.950 . S
H7508 C7484 0.950 . S
H7509 C7485 0.949 . S
H7510 C7487 0.950 . S
H7511 C7489 0.950 . S
C7512 C7513 1.349 . S
C7512 C7514 1.327 . S
C7512 H7537 0.950 . S
C7513 C7512 1.349 . S
C7513 C7529 1.349 . S
C7514 C7512 1.327 . S
C7514 C7533 1.429 . S
C7514 H7538 0.950 . S
C7515 C7532 1.574 . S
C7515 C7534 1.368 . S
C7515 H7539 0.949 . S
H7516 C7520 0.949 . S
C7517 C7518 1.349 . S
C7517 C7519 1.327 . S
C7517 H7540 0.950 . S
C7518 C7517 1.349 . S
C7518 C7530 1.349 . S
C7519 C7517 1.327 . S
C7519 C7535 1.429 . S
C7519 H7541 0.950 . S
C7520 H7516 0.949 . S
C7520 C7528 1.574 . S
C7520 C7536 1.368 . S
H7521 C7529 0.950 . S
H7522 C7527 0.950 . S
H7523 C7528 0.949 . S
H7524 C7530 0.950 . S
H7525 C7531 0.950 . S
H7526 C7532 0.949 . S
C7527 H7522 0.950 . S
C7527 C7529 1.327 . S
C7527 C7533 1.429 . S
C7528 C7520 1.574 . S
C7528 H7523 0.949 . S
C7528 C7534 1.368 . S
C7529 C7513 1.349 . S
C7529 H7521 0.950 . S
C7529 C7527 1.327 . S
C7530 C7518 1.349 . S
C7530 H7524 0.950 . S
C7530 C7531 1.327 . S
C7531 H7525 0.950 . S
C7531 C7530 1.327 . S
C7531 C7535 1.429 . S
C7532 C7515 1.574 . S
C7532 H7526 0.949 . S
C7532 C7536 1.368 . S
C7533 C7514 1.429 . S
C7533 C7527 1.429 . S
C7533 C7534 1.523 . S
C7534 C7515 1.368 . S
C7534 C7528 1.368 . S
C7534 C7533 1.523 . S
C7535 C7519 1.429 . S
C7535 C7531 1.429 . S
C7535 C7536 1.523 . S
C7536 C7520 1.368 . S
C7536 C7532 1.368 . S
C7536 C7535 1.523 . S
H7537 C7512 0.950 . S
H7538 C7514 0.950 . S
H7539 C7515 0.949 . S
H7540 C7517 0.950 . S
H7541 C7519 0.950 . S
C7542 C7543 1.349 . S
C7542 C7544 1.327 . S
C7542 H7567 0.950 . S
C7543 C7542 1.349 . S
C7543 C7559 1.349 . S
C7544 C7542 1.327 . S
C7544 C7563 1.429 . S
C7544 H7568 0.950 . S
C7545 C7562 1.574 . S
C7545 C7564 1.368 . S
C7545 H7569 0.949 . S
H7546 C7550 0.949 . S
C7547 C7548 1.349 . S
C7547 C7549 1.327 . S
C7547 H7570 0.950 . S
C7548 C7547 1.349 . S
C7548 C7560 1.349 . S
C7549 C7547 1.327 . S
C7549 C7565 1.429 . S
C7549 H7571 0.950 . S
C7550 H7546 0.949 . S
C7550 C7558 1.574 . S
C7550 C7566 1.368 . S
H7551 C7559 0.950 . S
H7552 C7557 0.950 . S
H7553 C7558 0.949 . S
H7554 C7560 0.950 . S
H7555 C7561 0.950 . S
H7556 C7562 0.949 . S
C7557 H7552 0.950 . S
C7557 C7559 1.327 . S
C7557 C7563 1.429 . S
C7558 C7550 1.574 . S
C7558 H7553 0.949 . S
C7558 C7564 1.368 . S
C7559 C7543 1.349 . S
C7559 H7551 0.950 . S
C7559 C7557 1.327 . S
C7560 C7548 1.349 . S
C7560 H7554 0.950 . S
C7560 C7561 1.327 . S
C7561 H7555 0.950 . S
C7561 C7560 1.327 . S
C7561 C7565 1.429 . S
C7562 C7545 1.574 . S
C7562 H7556 0.949 . S
C7562 C7566 1.368 . S
C7563 C7544 1.429 . S
C7563 C7557 1.429 . S
C7563 C7564 1.523 . S
C7564 C7545 1.368 . S
C7564 C7558 1.368 . S
C7564 C7563 1.523 . S
C7565 C7549 1.429 . S
C7565 C7561 1.429 . S
C7565 C7566 1.523 . S
C7566 C7550 1.368 . S
C7566 C7562 1.368 . S
C7566 C7565 1.523 . S
H7567 C7542 0.950 . S
H7568 C7544 0.950 . S
H7569 C7545 0.949 . S
H7570 C7547 0.950 . S
H7571 C7549 0.950 . S
C7572 C7573 1.349 . S
C7572 C7574 1.327 . S
C7572 H7597 0.950 . S
C7573 C7572 1.349 . S
C7573 C7589 1.349 . S
C7574 C7572 1.327 . S
C7574 C7593 1.429 . S
C7574 H7598 0.950 . S
C7575 C7592 1.574 . S
C7575 C7594 1.368 . S
C7575 H7599 0.949 . S
H7576 C7580 0.949 . S
C7577 C7578 1.349 . S
C7577 C7579 1.327 . S
C7577 H7600 0.950 . S
C7578 C7577 1.349 . S
C7578 C7590 1.349 . S
C7579 C7577 1.327 . S
C7579 C7595 1.429 . S
C7579 H7601 0.950 . S
C7580 H7576 0.949 . S
C7580 C7588 1.574 . S
C7580 C7596 1.368 . S
H7581 C7589 0.950 . S
H7582 C7587 0.950 . S
H7583 C7588 0.949 . S
H7584 C7590 0.950 . S
H7585 C7591 0.950 . S
H7586 C7592 0.949 . S
C7587 H7582 0.950 . S
C7587 C7589 1.327 . S
C7587 C7593 1.429 . S
C7588 C7580 1.574 . S
C7588 H7583 0.949 . S
C7588 C7594 1.368 . S
C7589 C7573 1.349 . S
C7589 H7581 0.950 . S
C7589 C7587 1.327 . S
C7590 C7578 1.349 . S
C7590 H7584 0.950 . S
C7590 C7591 1.327 . S
C7591 H7585 0.950 . S
C7591 C7590 1.327 . S
C7591 C7595 1.429 . S
C7592 C7575 1.574 . S
C7592 H7586 0.949 . S
C7592 C7596 1.368 . S
C7593 C7574 1.429 . S
C7593 C7587 1.429 . S
C7593 C7594 1.523 . S
C7594 C7575 1.368 . S
C7594 C7588 1.368 . S
C7594 C7593 1.523 . S
C7595 C7579 1.429 . S
C7595 C7591 1.429 . S
C7595 C7596 1.523 . S
C7596 C7580 1.368 . S
C7596 C7592 1.368 . S
C7596 C7595 1.523 . S
H7597 C7572 0.950 . S
H7598 C7574 0.950 . S
H7599 C7575 0.949 . S
H7600 C7577 0.950 . S
H7601 C7579 0.950 . S
C7602 C7603 1.349 . S
C7602 C7604 1.327 . S
C7602 H7627 0.950 . S
C7603 C7602 1.349 . S
C7603 C7619 1.349 . S
C7604 C7602 1.327 . S
C7604 C7623 1.429 . S
C7604 H7628 0.950 . S
C7605 C7622 1.574 . S
C7605 C7624 1.368 . S
C7605 H7629 0.949 . S
H7606 C7610 0.949 . S
C7607 C7608 1.349 . S
C7607 C7609 1.327 . S
C7607 H7630 0.950 . S
C7608 C7607 1.349 . S
C7608 C7620 1.349 . S
C7609 C7607 1.327 . S
C7609 C7625 1.429 . S
C7609 H7631 0.950 . S
C7610 H7606 0.949 . S
C7610 C7618 1.574 . S
C7610 C7626 1.368 . S
H7611 C7619 0.950 . S
H7612 C7617 0.950 . S
H7613 C7618 0.949 . S
H7614 C7620 0.950 . S
H7615 C7621 0.950 . S
H7616 C7622 0.949 . S
C7617 H7612 0.950 . S
C7617 C7619 1.327 . S
C7617 C7623 1.429 . S
C7618 C7610 1.574 . S
C7618 H7613 0.949 . S
C7618 C7624 1.368 . S
C7619 C7603 1.349 . S
C7619 H7611 0.950 . S
C7619 C7617 1.327 . S
C7620 C7608 1.349 . S
C7620 H7614 0.950 . S
C7620 C7621 1.327 . S
C7621 H7615 0.950 . S
C7621 C7620 1.327 . S
C7621 C7625 1.429 . S
C7622 C7605 1.574 . S
C7622 H7616 0.949 . S
C7622 C7626 1.368 . S
C7623 C7604 1.429 . S
C7623 C7617 1.429 . S
C7623 C7624 1.523 . S
C7624 C7605 1.368 . S
C7624 C7618 1.368 . S
C7624 C7623 1.523 . S
C7625 C7609 1.429 . S
C7625 C7621 1.429 . S
C7625 C7626 1.523 . S
C7626 C7610 1.368 . S
C7626 C7622 1.368 . S
C7626 C7625 1.523 . S
H7627 C7602 0.950 . S
H7628 C7604 0.950 . S
H7629 C7605 0.949 . S
H7630 C7607 0.950 . S
H7631 C7609 0.950 . S
C7632 C7633 1.349 . S
C7632 C7634 1.327 . S
C7632 H7657 0.950 . S
C7633 C7632 1.349 . S
C7633 C7649 1.349 . S
C7634 C7632 1.327 . S
C7634 C7653 1.429 . S
C7634 H7658 0.950 . S
C7635 C7652 1.574 . S
C7635 C7654 1.368 . S
C7635 H7659 0.949 . S
H7636 C7640 0.949 . S
C7637 C7638 1.349 . S
C7637 C7639 1.327 . S
C7637 H7660 0.950 . S
C7638 C7637 1.349 . S
C7638 C7650 1.349 . S
C7639 C7637 1.327 . S
C7639 C7655 1.429 . S
C7639 H7661 0.950 . S
C7640 H7636 0.949 . S
C7640 C7648 1.574 . S
C7640 C7656 1.368 . S
H7641 C7649 0.950 . S
H7642 C7647 0.950 . S
H7643 C7648 0.949 . S
H7644 C7650 0.950 . S
H7645 C7651 0.950 . S
H7646 C7652 0.949 . S
C7647 H7642 0.950 . S
C7647 C7649 1.327 . S
C7647 C7653 1.429 . S
C7648 C7640 1.574 . S
C7648 H7643 0.949 . S
C7648 C7654 1.368 . S
C7649 C7633 1.349 . S
C7649 H7641 0.950 . S
C7649 C7647 1.327 . S
C7650 C7638 1.349 . S
C7650 H7644 0.950 . S
C7650 C7651 1.327 . S
C7651 H7645 0.950 . S
C7651 C7650 1.327 . S
C7651 C7655 1.429 . S
C7652 C7635 1.574 . S
C7652 H7646 0.949 . S
C7652 C7656 1.368 . S
C7653 C7634 1.429 . S
C7653 C7647 1.429 . S
C7653 C7654 1.523 . S
C7654 C7635 1.368 . S
C7654 C7648 1.368 . S
C7654 C7653 1.523 . S
C7655 C7639 1.429 . S
C7655 C7651 1.429 . S
C7655 C7656 1.523 . S
C7656 C7640 1.368 . S
C7656 C7652 1.368 . S
C7656 C7655 1.523 . S
H7657 C7632 0.950 . S
H7658 C7634 0.950 . S
H7659 C7635 0.949 . S
H7660 C7637 0.950 . S
H7661 C7639 0.950 . S
C7662 C7663 1.349 . S
C7662 C7664 1.327 . S
C7662 H7687 0.950 . S
C7663 C7662 1.349 . S
C7663 C7679 1.349 . S
C7664 C7662 1.327 . S
C7664 C7683 1.429 . S
C7664 H7688 0.950 . S
C7665 C7682 1.574 . S
C7665 C7684 1.368 . S
C7665 H7689 0.949 . S
H7666 C7670 0.949 . S
C7667 C7668 1.349 . S
C7667 C7669 1.327 . S
C7667 H7690 0.950 . S
C7668 C7667 1.349 . S
C7668 C7680 1.349 . S
C7669 C7667 1.327 . S
C7669 C7685 1.429 . S
C7669 H7691 0.950 . S
C7670 H7666 0.949 . S
C7670 C7678 1.574 . S
C7670 C7686 1.368 . S
H7671 C7679 0.950 . S
H7672 C7677 0.950 . S
H7673 C7678 0.949 . S
H7674 C7680 0.950 . S
H7675 C7681 0.950 . S
H7676 C7682 0.949 . S
C7677 H7672 0.950 . S
C7677 C7679 1.327 . S
C7677 C7683 1.429 . S
C7678 C7670 1.574 . S
C7678 H7673 0.949 . S
C7678 C7684 1.368 . S
C7679 C7663 1.349 . S
C7679 H7671 0.950 . S
C7679 C7677 1.327 . S
C7680 C7668 1.349 . S
C7680 H7674 0.950 . S
C7680 C7681 1.327 . S
C7681 H7675 0.950 . S
C7681 C7680 1.327 . S
C7681 C7685 1.429 . S
C7682 C7665 1.574 . S
C7682 H7676 0.949 . S
C7682 C7686 1.368 . S
C7683 C7664 1.429 . S
C7683 C7677 1.429 . S
C7683 C7684 1.523 . S
C7684 C7665 1.368 . S
C7684 C7678 1.368 . S
C7684 C7683 1.523 . S
C7685 C7669 1.429 . S
C7685 C7681 1.429 . S
C7685 C7686 1.523 . S
C7686 C7670 1.368 . S
C7686 C7682 1.368 . S
C7686 C7685 1.523 . S
H7687 C7662 0.950 . S
H7688 C7664 0.950 . S
H7689 C7665 0.949 . S
H7690 C7667 0.950 . S
H7691 C7669 0.950 . S
C7692 C7693 1.349 . S
C7692 C7694 1.327 . S
C7692 H7717 0.950 . S
C7693 C7692 1.349 . S
C7693 C7709 1.349 . S
C7694 C7692 1.327 . S
C7694 C7713 1.429 . S
C7694 H7718 0.950 . S
C7695 C7712 1.574 . S
C7695 C7714 1.368 . S
C7695 H7719 0.949 . S
H7696 C7700 0.949 . S
C7697 C7698 1.349 . S
C7697 C7699 1.327 . S
C7697 H7720 0.950 . S
C7698 C7697 1.349 . S
C7698 C7710 1.349 . S
C7699 C7697 1.327 . S
C7699 C7715 1.429 . S
C7699 H7721 0.950 . S
C7700 H7696 0.949 . S
C7700 C7708 1.574 . S
C7700 C7716 1.368 . S
H7701 C7709 0.950 . S
H7702 C7707 0.950 . S
H7703 C7708 0.949 . S
H7704 C7710 0.950 . S
H7705 C7711 0.950 . S
H7706 C7712 0.949 . S
C7707 H7702 0.950 . S
C7707 C7709 1.327 . S
C7707 C7713 1.429 . S
C7708 C7700 1.574 . S
C7708 H7703 0.949 . S
C7708 C7714 1.368 . S
C7709 C7693 1.349 . S
C7709 H7701 0.950 . S
C7709 C7707 1.327 . S
C7710 C7698 1.349 . S
C7710 H7704 0.950 . S
C7710 C7711 1.327 . S
C7711 H7705 0.950 . S
C7711 C7710 1.327 . S
C7711 C7715 1.429 . S
C7712 C7695 1.574 . S
C7712 H7706 0.949 . S
C7712 C7716 1.368 . S
C7713 C7694 1.429 . S
C7713 C7707 1.429 . S
C7713 C7714 1.523 . S
C7714 C7695 1.368 . S
C7714 C7708 1.368 . S
C7714 C7713 1.523 . S
C7715 C7699 1.429 . S
C7715 C7711 1.429 . S
C7715 C7716 1.523 . S
C7716 C7700 1.368 . S
C7716 C7712 1.368 . S
C7716 C7715 1.523 . S
H7717 C7692 0.950 . S
H7718 C7694 0.950 . S
H7719 C7695 0.949 . S
H7720 C7697 0.950 . S
H7721 C7699 0.950 . S
C7722 C7723 1.349 . S
C7722 C7724 1.327 . S
C7722 H7747 0.950 . S
C7723 C7722 1.349 . S
C7723 C7739 1.349 . S
C7724 C7722 1.327 . S
C7724 C7743 1.429 . S
C7724 H7748 0.950 . S
C7725 C7742 1.574 . S
C7725 C7744 1.368 . S
C7725 H7749 0.949 . S
H7726 C7730 0.949 . S
C7727 C7728 1.349 . S
C7727 C7729 1.327 . S
C7727 H7750 0.950 . S
C7728 C7727 1.349 . S
C7728 C7740 1.349 . S
C7729 C7727 1.327 . S
C7729 C7745 1.429 . S
C7729 H7751 0.950 . S
C7730 H7726 0.949 . S
C7730 C7738 1.574 . S
C7730 C7746 1.368 . S
H7731 C7739 0.950 . S
H7732 C7737 0.950 . S
H7733 C7738 0.949 . S
H7734 C7740 0.950 . S
H7735 C7741 0.950 . S
H7736 C7742 0.949 . S
C7737 H7732 0.950 . S
C7737 C7739 1.327 . S
C7737 C7743 1.429 . S
C7738 C7730 1.574 . S
C7738 H7733 0.949 . S
C7738 C7744 1.368 . S
C7739 C7723 1.349 . S
C7739 H7731 0.950 . S
C7739 C7737 1.327 . S
C7740 C7728 1.349 . S
C7740 H7734 0.950 . S
C7740 C7741 1.327 . S
C7741 H7735 0.950 . S
C7741 C7740 1.327 . S
C7741 C7745 1.429 . S
C7742 C7725 1.574 . S
C7742 H7736 0.949 . S
C7742 C7746 1.368 . S
C7743 C7724 1.429 . S
C7743 C7737 1.429 . S
C7743 C7744 1.523 . S
C7744 C7725 1.368 . S
C7744 C7738 1.368 . S
C7744 C7743 1.523 . S
C7745 C7729 1.429 . S
C7745 C7741 1.429 . S
C7745 C7746 1.523 . S
C7746 C7730 1.368 . S
C7746 C7742 1.368 . S
C7746 C7745 1.523 . S
H7747 C7722 0.950 . S
H7748 C7724 0.950 . S
H7749 C7725 0.949 . S
H7750 C7727 0.950 . S
H7751 C7729 0.950 . S
C7752 C7753 1.349 . S
C7752 C7754 1.327 . S
C7752 H7777 0.950 . S
C7753 C7752 1.349 . S
C7753 C7769 1.349 . S
C7754 C7752 1.327 . S
C7754 C7773 1.429 . S
C7754 H7778 0.950 . S
C7755 C7772 1.574 . S
C7755 C7774 1.368 . S
C7755 H7779 0.949 . S
H7756 C7760 0.949 . S
C7757 C7758 1.349 . S
C7757 C7759 1.327 . S
C7757 H7780 0.950 . S
C7758 C7757 1.349 . S
C7758 C7770 1.349 . S
C7759 C7757 1.327 . S
C7759 C7775 1.429 . S
C7759 H7781 0.950 . S
C7760 H7756 0.949 . S
C7760 C7768 1.574 . S
C7760 C7776 1.368 . S
H7761 C7769 0.950 . S
H7762 C7767 0.950 . S
H7763 C7768 0.949 . S
H7764 C7770 0.950 . S
H7765 C7771 0.950 . S
H7766 C7772 0.949 . S
C7767 H7762 0.950 . S
C7767 C7769 1.327 . S
C7767 C7773 1.429 . S
C7768 C7760 1.574 . S
C7768 H7763 0.949 . S
C7768 C7774 1.368 . S
C7769 C7753 1.349 . S
C7769 H7761 0.950 . S
C7769 C7767 1.327 . S
C7770 C7758 1.349 . S
C7770 H7764 0.950 . S
C7770 C7771 1.327 . S
C7771 H7765 0.950 . S
C7771 C7770 1.327 . S
C7771 C7775 1.429 . S
C7772 C7755 1.574 . S
C7772 H7766 0.949 . S
C7772 C7776 1.368 . S
C7773 C7754 1.429 . S
C7773 C7767 1.429 . S
C7773 C7774 1.523 . S
C7774 C7755 1.368 . S
C7774 C7768 1.368 . S
C7774 C7773 1.523 . S
C7775 C7759 1.429 . S
C7775 C7771 1.429 . S
C7775 C7776 1.523 . S
C7776 C7760 1.368 . S
C7776 C7772 1.368 . S
C7776 C7775 1.523 . S
H7777 C7752 0.950 . S
H7778 C7754 0.950 . S
H7779 C7755 0.949 . S
H7780 C7757 0.950 . S
H7781 C7759 0.950 . S
C7782 C7783 1.349 . S
C7782 C7784 1.327 . S
C7782 H7807 0.950 . S
C7783 C7782 1.349 . S
C7783 C7799 1.349 . S
C7784 C7782 1.327 . S
C7784 C7803 1.429 . S
C7784 H7808 0.950 . S
C7785 C7802 1.574 . S
C7785 C7804 1.368 . S
C7785 H7809 0.949 . S
H7786 C7790 0.949 . S
C7787 C7788 1.349 . S
C7787 C7789 1.327 . S
C7787 H7810 0.950 . S
C7788 C7787 1.349 . S
C7788 C7800 1.349 . S
C7789 C7787 1.327 . S
C7789 C7805 1.429 . S
C7789 H7811 0.950 . S
C7790 H7786 0.949 . S
C7790 C7798 1.574 . S
C7790 C7806 1.368 . S
H7791 C7799 0.950 . S
H7792 C7797 0.950 . S
H7793 C7798 0.949 . S
H7794 C7800 0.950 . S
H7795 C7801 0.950 . S
H7796 C7802 0.949 . S
C7797 H7792 0.950 . S
C7797 C7799 1.327 . S
C7797 C7803 1.429 . S
C7798 C7790 1.574 . S
C7798 H7793 0.949 . S
C7798 C7804 1.368 . S
C7799 C7783 1.349 . S
C7799 H7791 0.950 . S
C7799 C7797 1.327 . S
C7800 C7788 1.349 . S
C7800 H7794 0.950 . S
C7800 C7801 1.327 . S
C7801 H7795 0.950 . S
C7801 C7800 1.327 . S
C7801 C7805 1.429 . S
C7802 C7785 1.574 . S
C7802 H7796 0.949 . S
C7802 C7806 1.368 . S
C7803 C7784 1.429 . S
C7803 C7797 1.429 . S
C7803 C7804 1.523 . S
C7804 C7785 1.368 . S
C7804 C7798 1.368 . S
C7804 C7803 1.523 . S
C7805 C7789 1.429 . S
C7805 C7801 1.429 . S
C7805 C7806 1.523 . S
C7806 C7790 1.368 . S
C7806 C7802 1.368 . S
C7806 C7805 1.523 . S
H7807 C7782 0.950 . S
H7808 C7784 0.950 . S
H7809 C7785 0.949 . S
H7810 C7787 0.950 . S
H7811 C7789 0.950 . S
C7812 C7813 1.349 . S
C7812 C7814 1.327 . S
C7812 H7837 0.950 . S
C7813 C7812 1.349 . S
C7813 C7829 1.349 . S
C7814 C7812 1.327 . S
C7814 C7833 1.429 . S
C7814 H7838 0.950 . S
C7815 C7832 1.574 . S
C7815 C7834 1.368 . S
C7815 H7839 0.949 . S
H7816 C7820 0.949 . S
C7817 C7818 1.349 . S
C7817 C7819 1.327 . S
C7817 H7840 0.950 . S
C7818 C7817 1.349 . S
C7818 C7830 1.349 . S
C7819 C7817 1.327 . S
C7819 C7835 1.429 . S
C7819 H7841 0.950 . S
C7820 H7816 0.949 . S
C7820 C7828 1.574 . S
C7820 C7836 1.368 . S
H7821 C7829 0.950 . S
H7822 C7827 0.950 . S
H7823 C7828 0.949 . S
H7824 C7830 0.950 . S
H7825 C7831 0.950 . S
H7826 C7832 0.949 . S
C7827 H7822 0.950 . S
C7827 C7829 1.327 . S
C7827 C7833 1.429 . S
C7828 C7820 1.574 . S
C7828 H7823 0.949 . S
C7828 C7834 1.368 . S
C7829 C7813 1.349 . S
C7829 H7821 0.950 . S
C7829 C7827 1.327 . S
C7830 C7818 1.349 . S
C7830 H7824 0.950 . S
C7830 C7831 1.327 . S
C7831 H7825 0.950 . S
C7831 C7830 1.327 . S
C7831 C7835 1.429 . S
C7832 C7815 1.574 . S
C7832 H7826 0.949 . S
C7832 C7836 1.368 . S
C7833 C7814 1.429 . S
C7833 C7827 1.429 . S
C7833 C7834 1.523 . S
C7834 C7815 1.368 . S
C7834 C7828 1.368 . S
C7834 C7833 1.523 . S
C7835 C7819 1.429 . S
C7835 C7831 1.429 . S
C7835 C7836 1.523 . S
C7836 C7820 1.368 . S
C7836 C7832 1.368 . S
C7836 C7835 1.523 . S
H7837 C7812 0.950 . S
H7838 C7814 0.950 . S
H7839 C7815 0.949 . S
H7840 C7817 0.950 . S
H7841 C7819 0.950 . S
C7842 C7843 1.349 . S
C7842 C7844 1.327 . S
C7842 H7867 0.950 . S
C7843 C7842 1.349 . S
C7843 C7859 1.349 . S
C7844 C7842 1.327 . S
C7844 C7863 1.429 . S
C7844 H7868 0.950 . S
C7845 C7862 1.574 . S
C7845 C7864 1.368 . S
C7845 H7869 0.949 . S
H7846 C7850 0.949 . S
C7847 C7848 1.349 . S
C7847 C7849 1.327 . S
C7847 H7870 0.950 . S
C7848 C7847 1.349 . S
C7848 C7860 1.349 . S
C7849 C7847 1.327 . S
C7849 C7865 1.429 . S
C7849 H7871 0.950 . S
C7850 H7846 0.949 . S
C7850 C7858 1.574 . S
C7850 C7866 1.368 . S
H7851 C7859 0.950 . S
H7852 C7857 0.950 . S
H7853 C7858 0.949 . S
H7854 C7860 0.950 . S
H7855 C7861 0.950 . S
H7856 C7862 0.949 . S
C7857 H7852 0.950 . S
C7857 C7859 1.327 . S
C7857 C7863 1.429 . S
C7858 C7850 1.574 . S
C7858 H7853 0.949 . S
C7858 C7864 1.368 . S
C7859 C7843 1.349 . S
C7859 H7851 0.950 . S
C7859 C7857 1.327 . S
C7860 C7848 1.349 . S
C7860 H7854 0.950 . S
C7860 C7861 1.327 . S
C7861 H7855 0.950 . S
C7861 C7860 1.327 . S
C7861 C7865 1.429 . S
C7862 C7845 1.574 . S
C7862 H7856 0.949 . S
C7862 C7866 1.368 . S
C7863 C7844 1.429 . S
C7863 C7857 1.429 . S
C7863 C7864 1.523 . S
C7864 C7845 1.368 . S
C7864 C7858 1.368 . S
C7864 C7863 1.523 . S
C7865 C7849 1.429 . S
C7865 C7861 1.429 . S
C7865 C7866 1.523 . S
C7866 C7850 1.368 . S
C7866 C7862 1.368 . S
C7866 C7865 1.523 . S
H7867 C7842 0.950 . S
H7868 C7844 0.950 . S
H7869 C7845 0.949 . S
H7870 C7847 0.950 . S
H7871 C7849 0.950 . S
C7872 C7873 1.349 . S
C7872 C7874 1.327 . S
C7872 H7897 0.950 . S
C7873 C7872 1.349 . S
C7873 C7889 1.349 . S
C7874 C7872 1.327 . S
C7874 C7893 1.429 . S
C7874 H7898 0.950 . S
C7875 C7892 1.574 . S
C7875 C7894 1.368 . S
C7875 H7899 0.949 . S
H7876 C7880 0.949 . S
C7877 C7878 1.349 . S
C7877 C7879 1.327 . S
C7877 H7900 0.950 . S
C7878 C7877 1.349 . S
C7878 C7890 1.349 . S
C7879 C7877 1.327 . S
C7879 C7895 1.429 . S
C7879 H7901 0.950 . S
C7880 H7876 0.949 . S
C7880 C7888 1.574 . S
C7880 C7896 1.368 . S
H7881 C7889 0.950 . S
H7882 C7887 0.950 . S
H7883 C7888 0.949 . S
H7884 C7890 0.950 . S
H7885 C7891 0.950 . S
H7886 C7892 0.949 . S
C7887 H7882 0.950 . S
C7887 C7889 1.327 . S
C7887 C7893 1.429 . S
C7888 C7880 1.574 . S
C7888 H7883 0.949 . S
C7888 C7894 1.368 . S
C7889 C7873 1.349 . S
C7889 H7881 0.950 . S
C7889 C7887 1.327 . S
C7890 C7878 1.349 . S
C7890 H7884 0.950 . S
C7890 C7891 1.327 . S
C7891 H7885 0.950 . S
C7891 C7890 1.327 . S
C7891 C7895 1.429 . S
C7892 C7875 1.574 . S
C7892 H7886 0.949 . S
C7892 C7896 1.368 . S
C7893 C7874 1.429 . S
C7893 C7887 1.429 . S
C7893 C7894 1.523 . S
C7894 C7875 1.368 . S
C7894 C7888 1.368 . S
C7894 C7893 1.523 . S
C7895 C7879 1.429 . S
C7895 C7891 1.429 . S
C7895 C7896 1.523 . S
C7896 C7880 1.368 . S
C7896 C7892 1.368 . S
C7896 C7895 1.523 . S
H7897 C7872 0.950 . S
H7898 C7874 0.950 . S
H7899 C7875 0.949 . S
H7900 C7877 0.950 . S
H7901 C7879 0.950 . S
C7902 C7903 1.349 . S
C7902 C7904 1.327 . S
C7902 H7927 0.950 . S
C7903 C7902 1.349 . S
C7903 C7919 1.349 . S
C7904 C7902 1.327 . S
C7904 C7923 1.429 . S
C7904 H7928 0.950 . S
C7905 C7922 1.574 . S
C7905 C7924 1.368 . S
C7905 H7929 0.949 . S
H7906 C7910 0.949 . S
C7907 C7908 1.349 . S
C7907 C7909 1.327 . S
C7907 H7930 0.950 . S
C7908 C7907 1.349 . S
C7908 C7920 1.349 . S
C7909 C7907 1.327 . S
C7909 C7925 1.429 . S
C7909 H7931 0.950 . S
C7910 H7906 0.949 . S
C7910 C7918 1.574 . S
C7910 C7926 1.368 . S
H7911 C7919 0.950 . S
H7912 C7917 0.950 . S
H7913 C7918 0.949 . S
H7914 C7920 0.950 . S
H7915 C7921 0.950 . S
H7916 C7922 0.949 . S
C7917 H7912 0.950 . S
C7917 C7919 1.327 . S
C7917 C7923 1.429 . S
C7918 C7910 1.574 . S
C7918 H7913 0.949 . S
C7918 C7924 1.368 . S
C7919 C7903 1.349 . S
C7919 H7911 0.950 . S
C7919 C7917 1.327 . S
C7920 C7908 1.349 . S
C7920 H7914 0.950 . S
C7920 C7921 1.327 . S
C7921 H7915 0.950 . S
C7921 C7920 1.327 . S
C7921 C7925 1.429 . S
C7922 C7905 1.574 . S
C7922 H7916 0.949 . S
C7922 C7926 1.368 . S
C7923 C7904 1.429 . S
C7923 C7917 1.429 . S
C7923 C7924 1.523 . S
C7924 C7905 1.368 . S
C7924 C7918 1.368 . S
C7924 C7923 1.523 . S
C7925 C7909 1.429 . S
C7925 C7921 1.429 . S
C7925 C7926 1.523 . S
C7926 C7910 1.368 . S
C7926 C7922 1.368 . S
C7926 C7925 1.523 . S
H7927 C7902 0.950 . S
H7928 C7904 0.950 . S
H7929 C7905 0.949 . S
H7930 C7907 0.950 . S
H7931 C7909 0.950 . S
C7932 C7933 1.349 . S
C7932 C7934 1.327 . S
C7932 H7957 0.950 . S
C7933 C7932 1.349 . S
C7933 C7949 1.349 . S
C7934 C7932 1.327 . S
C7934 C7953 1.429 . S
C7934 H7958 0.950 . S
C7935 C7952 1.574 . S
C7935 C7954 1.368 . S
C7935 H7959 0.949 . S
H7936 C7940 0.949 . S
C7937 C7938 1.349 . S
C7937 C7939 1.327 . S
C7937 H7960 0.950 . S
C7938 C7937 1.349 . S
C7938 C7950 1.349 . S
C7939 C7937 1.327 . S
C7939 C7955 1.429 . S
C7939 H7961 0.950 . S
C7940 H7936 0.949 . S
C7940 C7948 1.574 . S
C7940 C7956 1.368 . S
H7941 C7949 0.950 . S
H7942 C7947 0.950 . S
H7943 C7948 0.949 . S
H7944 C7950 0.950 . S
H7945 C7951 0.950 . S
H7946 C7952 0.949 . S
C7947 H7942 0.950 . S
C7947 C7949 1.327 . S
C7947 C7953 1.429 . S
C7948 C7940 1.574 . S
C7948 H7943 0.949 . S
C7948 C7954 1.368 . S
C7949 C7933 1.349 . S
C7949 H7941 0.950 . S
C7949 C7947 1.327 . S
C7950 C7938 1.349 . S
C7950 H7944 0.950 . S
C7950 C7951 1.327 . S
C7951 H7945 0.950 . S
C7951 C7950 1.327 . S
C7951 C7955 1.429 . S
C7952 C7935 1.574 . S
C7952 H7946 0.949 . S
C7952 C7956 1.368 . S
C7953 C7934 1.429 . S
C7953 C7947 1.429 . S
C7953 C7954 1.523 . S
C7954 C7935 1.368 . S
C7954 C7948 1.368 . S
C7954 C7953 1.523 . S
C7955 C7939 1.429 . S
C7955 C7951 1.429 . S
C7955 C7956 1.523 . S
C7956 C7940 1.368 . S
C7956 C7952 1.368 . S
C7956 C7955 1.523 . S
H7957 C7932 0.950 . S
H7958 C7934 0.950 . S
H7959 C7935 0.949 . S
H7960 C7937 0.950 . S
H7961 C7939 0.950 . S
C7962 C7963 1.349 . S
C7962 C7964 1.327 . S
C7962 H7987 0.950 . S
C7963 C7962 1.349 . S
C7963 C7979 1.349 . S
C7964 C7962 1.327 . S
C7964 C7983 1.429 . S
C7964 H7988 0.950 . S
C7965 C7982 1.574 . S
C7965 C7984 1.368 . S
C7965 H7989 0.949 . S
H7966 C7970 0.949 . S
C7967 C7968 1.349 . S
C7967 C7969 1.327 . S
C7967 H7990 0.950 . S
C7968 C7967 1.349 . S
C7968 C7980 1.349 . S
C7969 C7967 1.327 . S
C7969 C7985 1.429 . S
C7969 H7991 0.950 . S
C7970 H7966 0.949 . S
C7970 C7978 1.574 . S
C7970 C7986 1.368 . S
H7971 C7979 0.950 . S
H7972 C7977 0.950 . S
H7973 C7978 0.949 . S
H7974 C7980 0.950 . S
H7975 C7981 0.950 . S
H7976 C7982 0.949 . S
C7977 H7972 0.950 . S
C7977 C7979 1.327 . S
C7977 C7983 1.429 . S
C7978 C7970 1.574 . S
C7978 H7973 0.949 . S
C7978 C7984 1.368 . S
C7979 C7963 1.349 . S
C7979 H7971 0.950 . S
C7979 C7977 1.327 . S
C7980 C7968 1.349 . S
C7980 H7974 0.950 . S
C7980 C7981 1.327 . S
C7981 H7975 0.950 . S
C7981 C7980 1.327 . S
C7981 C7985 1.429 . S
C7982 C7965 1.574 . S
C7982 H7976 0.949 . S
C7982 C7986 1.368 . S
C7983 C7964 1.429 . S
C7983 C7977 1.429 . S
C7983 C7984 1.523 . S
C7984 C7965 1.368 . S
C7984 C7978 1.368 . S
C7984 C7983 1.523 . S
C7985 C7969 1.429 . S
C7985 C7981 1.429 . S
C7985 C7986 1.523 . S
C7986 C7970 1.368 . S
C7986 C7982 1.368 . S
C7986 C7985 1.523 . S
H7987 C7962 0.950 . S
H7988 C7964 0.950 . S
H7989 C7965 0.949 . S
H7990 C7967 0.950 . S
H7991 C7969 0.950 . S
C7992 C7993 1.349 . S
C7992 C7994 1.327 . S
C7992 H8017 0.950 . S
C7993 C7992 1.349 . S
C7993 C8009 1.349 . S
C7994 C7992 1.327 . S
C7994 C8013 1.429 . S
C7994 H8018 0.950 . S
C7995 C8012 1.574 . S
C7995 C8014 1.368 . S
C7995 H8019 0.949 . S
H7996 C8000 0.949 . S
C7997 C7998 1.349 . S
C7997 C7999 1.327 . S
C7997 H8020 0.950 . S
C7998 C7997 1.349 . S
C7998 C8010 1.349 . S
C7999 C7997 1.327 . S
C7999 C8015 1.429 . S
C7999 H8021 0.950 . S
C8000 H7996 0.949 . S
C8000 C8008 1.574 . S
C8000 C8016 1.368 . S
H8001 C8009 0.950 . S
H8002 C8007 0.950 . S
H8003 C8008 0.949 . S
H8004 C8010 0.950 . S
H8005 C8011 0.950 . S
H8006 C8012 0.949 . S
C8007 H8002 0.950 . S
C8007 C8009 1.327 . S
C8007 C8013 1.429 . S
C8008 C8000 1.574 . S
C8008 H8003 0.949 . S
C8008 C8014 1.368 . S
C8009 C7993 1.349 . S
C8009 H8001 0.950 . S
C8009 C8007 1.327 . S
C8010 C7998 1.349 . S
C8010 H8004 0.950 . S
C8010 C8011 1.327 . S
C8011 H8005 0.950 . S
C8011 C8010 1.327 . S
C8011 C8015 1.429 . S
C8012 C7995 1.574 . S
C8012 H8006 0.949 . S
C8012 C8016 1.368 . S
C8013 C7994 1.429 . S
C8013 C8007 1.429 . S
C8013 C8014 1.523 . S
C8014 C7995 1.368 . S
C8014 C8008 1.368 . S
C8014 C8013 1.523 . S
C8015 C7999 1.429 . S
C8015 C8011 1.429 . S
C8015 C8016 1.523 . S
C8016 C8000 1.368 . S
C8016 C8012 1.368 . S
C8016 C8015 1.523 . S
H8017 C7992 0.950 . S
H8018 C7994 0.950 . S
H8019 C7995 0.949 . S
H8020 C7997 0.950 . S
H8021 C7999 0.950 . S
C8022 C8023 1.349 . S
C8022 C8024 1.327 . S
C8022 H8047 0.950 . S
C8023 C8022 1.349 . S
C8023 C8039 1.349 . S
C8024 C8022 1.327 . S
C8024 C8043 1.429 . S
C8024 H8048 0.950 . S
C8025 C8042 1.574 . S
C8025 C8044 1.368 . S
C8025 H8049 0.949 . S
H8026 C8030 0.949 . S
C8027 C8028 1.349 . S
C8027 C8029 1.327 . S
C8027 H8050 0.950 . S
C8028 C8027 1.349 . S
C8028 C8040 1.349 . S
C8029 C8027 1.327 . S
C8029 C8045 1.429 . S
C8029 H8051 0.950 . S
C8030 H8026 0.949 . S
C8030 C8038 1.574 . S
C8030 C8046 1.368 . S
H8031 C8039 0.950 . S
H8032 C8037 0.950 . S
H8033 C8038 0.949 . S
H8034 C8040 0.950 . S
H8035 C8041 0.950 . S
H8036 C8042 0.949 . S
C8037 H8032 0.950 . S
C8037 C8039 1.327 . S
C8037 C8043 1.429 . S
C8038 C8030 1.574 . S
C8038 H8033 0.949 . S
C8038 C8044 1.368 . S
C8039 C8023 1.349 . S
C8039 H8031 0.950 . S
C8039 C8037 1.327 . S
C8040 C8028 1.349 . S
C8040 H8034 0.950 . S
C8040 C8041 1.327 . S
C8041 H8035 0.950 . S
C8041 C8040 1.327 . S
C8041 C8045 1.429 . S
C8042 C8025 1.574 . S
C8042 H8036 0.949 . S
C8042 C8046 1.368 . S
C8043 C8024 1.429 . S
C8043 C8037 1.429 . S
C8043 C8044 1.523 . S
C8044 C8025 1.368 . S
C8044 C8038 1.368 . S
C8044 C8043 1.523 . S
C8045 C8029 1.429 . S
C8045 C8041 1.429 . S
C8045 C8046 1.523 . S
C8046 C8030 1.368 . S
C8046 C8042 1.368 . S
C8046 C8045 1.523 . S
H8047 C8022 0.950 . S
H8048 C8024 0.950 . S
H8049 C8025 0.949 . S
H8050 C8027 0.950 . S
H8051 C8029 0.950 . S
C8052 C8053 1.349 . S
C8052 C8054 1.327 . S
C8052 H8077 0.950 . S
C8053 C8052 1.349 . S
C8053 C8069 1.349 . S
C8054 C8052 1.327 . S
C8054 C8073 1.429 . S
C8054 H8078 0.950 . S
C8055 C8072 1.574 . S
C8055 C8074 1.368 . S
C8055 H8079 0.949 . S
H8056 C8060 0.949 . S
C8057 C8058 1.349 . S
C8057 C8059 1.327 . S
C8057 H8080 0.950 . S
C8058 C8057 1.349 . S
C8058 C8070 1.349 . S
C8059 C8057 1.327 . S
C8059 C8075 1.429 . S
C8059 H8081 0.950 . S
C8060 H8056 0.949 . S
C8060 C8068 1.574 . S
C8060 C8076 1.368 . S
H8061 C8069 0.950 . S
H8062 C8067 0.950 . S
H8063 C8068 0.949 . S
H8064 C8070 0.950 . S
H8065 C8071 0.950 . S
H8066 C8072 0.949 . S
C8067 H8062 0.950 . S
C8067 C8069 1.327 . S
C8067 C8073 1.429 . S
C8068 C8060 1.574 . S
C8068 H8063 0.949 . S
C8068 C8074 1.368 . S
C8069 C8053 1.349 . S
C8069 H8061 0.950 . S
C8069 C8067 1.327 . S
C8070 C8058 1.349 . S
C8070 H8064 0.950 . S
C8070 C8071 1.327 . S
C8071 H8065 0.950 . S
C8071 C8070 1.327 . S
C8071 C8075 1.429 . S
C8072 C8055 1.574 . S
C8072 H8066 0.949 . S
C8072 C8076 1.368 . S
C8073 C8054 1.429 . S
C8073 C8067 1.429 . S
C8073 C8074 1.523 . S
C8074 C8055 1.368 . S
C8074 C8068 1.368 . S
C8074 C8073 1.523 . S
C8075 C8059 1.429 . S
C8075 C8071 1.429 . S
C8075 C8076 1.523 . S
C8076 C8060 1.368 . S
C8076 C8072 1.368 . S
C8076 C8075 1.523 . S
H8077 C8052 0.950 . S
H8078 C8054 0.950 . S
H8079 C8055 0.949 . S
H8080 C8057 0.950 . S
H8081 C8059 0.950 . S
C8082 C8083 1.349 . S
C8082 C8084 1.327 . S
C8082 H8107 0.950 . S
C8083 C8082 1.349 . S
C8083 C8099 1.349 . S
C8084 C8082 1.327 . S
C8084 C8103 1.429 . S
C8084 H8108 0.950 . S
C8085 C8102 1.574 . S
C8085 C8104 1.368 . S
C8085 H8109 0.949 . S
H8086 C8090 0.949 . S
C8087 C8088 1.349 . S
C8087 C8089 1.327 . S
C8087 H8110 0.950 . S
C8088 C8087 1.349 . S
C8088 C8100 1.349 . S
C8089 C8087 1.327 . S
C8089 C8105 1.429 . S
C8089 H8111 0.950 . S
C8090 H8086 0.949 . S
C8090 C8098 1.574 . S
C8090 C8106 1.368 . S
H8091 C8099 0.950 . S
H8092 C8097 0.950 . S
H8093 C8098 0.949 . S
H8094 C8100 0.950 . S
H8095 C8101 0.950 . S
H8096 C8102 0.949 . S
C8097 H8092 0.950 . S
C8097 C8099 1.327 . S
C8097 C8103 1.429 . S
C8098 C8090 1.574 . S
C8098 H8093 0.949 . S
C8098 C8104 1.368 . S
C8099 C8083 1.349 . S
C8099 H8091 0.950 . S
C8099 C8097 1.327 . S
C8100 C8088 1.349 . S
C8100 H8094 0.950 . S
C8100 C8101 1.327 . S
C8101 H8095 0.950 . S
C8101 C8100 1.327 . S
C8101 C8105 1.429 . S
C8102 C8085 1.574 . S
C8102 H8096 0.949 . S
C8102 C8106 1.368 . S
C8103 C8084 1.429 . S
C8103 C8097 1.429 . S
C8103 C8104 1.523 . S
C8104 C8085 1.368 . S
C8104 C8098 1.368 . S
C8104 C8103 1.523 . S
C8105 C8089 1.429 . S
C8105 C8101 1.429 . S
C8105 C8106 1.523 . S
C8106 C8090 1.368 . S
C8106 C8102 1.368 . S
C8106 C8105 1.523 . S
H8107 C8082 0.950 . S
H8108 C8084 0.950 . S
H8109 C8085 0.949 . S
H8110 C8087 0.950 . S
H8111 C8089 0.950 . S
C8112 C8113 1.349 . S
C8112 C8114 1.327 . S
C8112 H8137 0.950 . S
C8113 C8112 1.349 . S
C8113 C8129 1.349 . S
C8114 C8112 1.327 . S
C8114 C8133 1.429 . S
C8114 H8138 0.950 . S
C8115 C8132 1.574 . S
C8115 C8134 1.368 . S
C8115 H8139 0.949 . S
H8116 C8120 0.949 . S
C8117 C8118 1.349 . S
C8117 C8119 1.327 . S
C8117 H8140 0.950 . S
C8118 C8117 1.349 . S
C8118 C8130 1.349 . S
C8119 C8117 1.327 . S
C8119 C8135 1.429 . S
C8119 H8141 0.950 . S
C8120 H8116 0.949 . S
C8120 C8128 1.574 . S
C8120 C8136 1.368 . S
H8121 C8129 0.950 . S
H8122 C8127 0.950 . S
H8123 C8128 0.949 . S
H8124 C8130 0.950 . S
H8125 C8131 0.950 . S
H8126 C8132 0.949 . S
C8127 H8122 0.950 . S
C8127 C8129 1.327 . S
C8127 C8133 1.429 . S
C8128 C8120 1.574 . S
C8128 H8123 0.949 . S
C8128 C8134 1.368 . S
C8129 C8113 1.349 . S
C8129 H8121 0.950 . S
C8129 C8127 1.327 . S
C8130 C8118 1.349 . S
C8130 H8124 0.950 . S
C8130 C8131 1.327 . S
C8131 H8125 0.950 . S
C8131 C8130 1.327 . S
C8131 C8135 1.429 . S
C8132 C8115 1.574 . S
C8132 H8126 0.949 . S
C8132 C8136 1.368 . S
C8133 C8114 1.429 . S
C8133 C8127 1.429 . S
C8133 C8134 1.523 . S
C8134 C8115 1.368 . S
C8134 C8128 1.368 . S
C8134 C8133 1.523 . S
C8135 C8119 1.429 . S
C8135 C8131 1.429 . S
C8135 C8136 1.523 . S
C8136 C8120 1.368 . S
C8136 C8132 1.368 . S
C8136 C8135 1.523 . S
H8137 C8112 0.950 . S
H8138 C8114 0.950 . S
H8139 C8115 0.949 . S
H8140 C8117 0.950 . S
H8141 C8119 0.950 . S
C8142 C8143 1.349 . S
C8142 C8144 1.327 . S
C8142 H8167 0.950 . S
C8143 C8142 1.349 . S
C8143 C8159 1.349 . S
C8144 C8142 1.327 . S
C8144 C8163 1.429 . S
C8144 H8168 0.950 . S
C8145 C8162 1.574 . S
C8145 C8164 1.368 . S
C8145 H8169 0.949 . S
H8146 C8150 0.949 . S
C8147 C8148 1.349 . S
C8147 C8149 1.327 . S
C8147 H8170 0.950 . S
C8148 C8147 1.349 . S
C8148 C8160 1.349 . S
C8149 C8147 1.327 . S
C8149 C8165 1.429 . S
C8149 H8171 0.950 . S
C8150 H8146 0.949 . S
C8150 C8158 1.574 . S
C8150 C8166 1.368 . S
H8151 C8159 0.950 . S
H8152 C8157 0.950 . S
H8153 C8158 0.949 . S
H8154 C8160 0.950 . S
H8155 C8161 0.950 . S
H8156 C8162 0.949 . S
C8157 H8152 0.950 . S
C8157 C8159 1.327 . S
C8157 C8163 1.429 . S
C8158 C8150 1.574 . S
C8158 H8153 0.949 . S
C8158 C8164 1.368 . S
C8159 C8143 1.349 . S
C8159 H8151 0.950 . S
C8159 C8157 1.327 . S
C8160 C8148 1.349 . S
C8160 H8154 0.950 . S
C8160 C8161 1.327 . S
C8161 H8155 0.950 . S
C8161 C8160 1.327 . S
C8161 C8165 1.429 . S
C8162 C8145 1.574 . S
C8162 H8156 0.949 . S
C8162 C8166 1.368 . S
C8163 C8144 1.429 . S
C8163 C8157 1.429 . S
C8163 C8164 1.523 . S
C8164 C8145 1.368 . S
C8164 C8158 1.368 . S
C8164 C8163 1.523 . S
C8165 C8149 1.429 . S
C8165 C8161 1.429 . S
C8165 C8166 1.523 . S
C8166 C8150 1.368 . S
C8166 C8162 1.368 . S
C8166 C8165 1.523 . S
H8167 C8142 0.950 . S
H8168 C8144 0.950 . S
H8169 C8145 0.949 . S
H8170 C8147 0.950 . S
H8171 C8149 0.950 . S
C8172 C8173 1.349 . S
C8172 C8174 1.327 . S
C8172 H8197 0.950 . S
C8173 C8172 1.349 . S
C8173 C8189 1.349 . S
C8174 C8172 1.327 . S
C8174 C8193 1.429 . S
C8174 H8198 0.950 . S
C8175 C8192 1.574 . S
C8175 C8194 1.368 . S
C8175 H8199 0.949 . S
H8176 C8180 0.949 . S
C8177 C8178 1.349 . S
C8177 C8179 1.327 . S
C8177 H8200 0.950 . S
C8178 C8177 1.349 . S
C8178 C8190 1.349 . S
C8179 C8177 1.327 . S
C8179 C8195 1.429 . S
C8179 H8201 0.950 . S
C8180 H8176 0.949 . S
C8180 C8188 1.574 . S
C8180 C8196 1.368 . S
H8181 C8189 0.950 . S
H8182 C8187 0.950 . S
H8183 C8188 0.949 . S
H8184 C8190 0.950 . S
H8185 C8191 0.950 . S
H8186 C8192 0.949 . S
C8187 H8182 0.950 . S
C8187 C8189 1.327 . S
C8187 C8193 1.429 . S
C8188 C8180 1.574 . S
C8188 H8183 0.949 . S
C8188 C8194 1.368 . S
C8189 C8173 1.349 . S
C8189 H8181 0.950 . S
C8189 C8187 1.327 . S
C8190 C8178 1.349 . S
C8190 H8184 0.950 . S
C8190 C8191 1.327 . S
C8191 H8185 0.950 . S
C8191 C8190 1.327 . S
C8191 C8195 1.429 . S
C8192 C8175 1.574 . S
C8192 H8186 0.949 . S
C8192 C8196 1.368 . S
C8193 C8174 1.429 . S
C8193 C8187 1.429 . S
C8193 C8194 1.523 . S
C8194 C8175 1.368 . S
C8194 C8188 1.368 . S
C8194 C8193 1.523 . S
C8195 C8179 1.429 . S
C8195 C8191 1.429 . S
C8195 C8196 1.523 . S
C8196 C8180 1.368 . S
C8196 C8192 1.368 . S
C8196 C8195 1.523 . S
H8197 C8172 0.950 . S
H8198 C8174 0.950 . S
H8199 C8175 0.949 . S
H8200 C8177 0.950 . S
H8201 C8179 0.950 . S
C8202 C8203 1.349 . S
C8202 C8204 1.327 . S
C8202 H8227 0.950 . S
C8203 C8202 1.349 . S
C8203 C8219 1.349 . S
C8204 C8202 1.327 . S
C8204 C8223 1.429 . S
C8204 H8228 0.950 . S
C8205 C8222 1.574 . S
C8205 C8224 1.368 . S
C8205 H8229 0.949 . S
H8206 C8210 0.949 . S
C8207 C8208 1.349 . S
C8207 C8209 1.327 . S
C8207 H8230 0.950 . S
C8208 C8207 1.349 . S
C8208 C8220 1.349 . S
C8209 C8207 1.327 . S
C8209 C8225 1.429 . S
C8209 H8231 0.950 . S
C8210 H8206 0.949 . S
C8210 C8218 1.574 . S
C8210 C8226 1.368 . S
H8211 C8219 0.950 . S
H8212 C8217 0.950 . S
H8213 C8218 0.949 . S
H8214 C8220 0.950 . S
H8215 C8221 0.950 . S
H8216 C8222 0.949 . S
C8217 H8212 0.950 . S
C8217 C8219 1.327 . S
C8217 C8223 1.429 . S
C8218 C8210 1.574 . S
C8218 H8213 0.949 . S
C8218 C8224 1.368 . S
C8219 C8203 1.349 . S
C8219 H8211 0.950 . S
C8219 C8217 1.327 . S
C8220 C8208 1.349 . S
C8220 H8214 0.950 . S
C8220 C8221 1.327 . S
C8221 H8215 0.950 . S
C8221 C8220 1.327 . S
C8221 C8225 1.429 . S
C8222 C8205 1.574 . S
C8222 H8216 0.949 . S
C8222 C8226 1.368 . S
C8223 C8204 1.429 . S
C8223 C8217 1.429 . S
C8223 C8224 1.523 . S
C8224 C8205 1.368 . S
C8224 C8218 1.368 . S
C8224 C8223 1.523 . S
C8225 C8209 1.429 . S
C8225 C8221 1.429 . S
C8225 C8226 1.523 . S
C8226 C8210 1.368 . S
C8226 C8222 1.368 . S
C8226 C8225 1.523 . S
H8227 C8202 0.950 . S
H8228 C8204 0.950 . S
H8229 C8205 0.949 . S
H8230 C8207 0.950 . S
H8231 C8209 0.950 . S
C8232 C8233 1.349 . S
C8232 C8234 1.327 . S
C8232 H8257 0.950 . S
C8233 C8232 1.349 . S
C8233 C8249 1.349 . S
C8234 C8232 1.327 . S
C8234 C8253 1.429 . S
C8234 H8258 0.950 . S
C8235 C8252 1.574 . S
C8235 C8254 1.368 . S
C8235 H8259 0.949 . S
H8236 C8240 0.949 . S
C8237 C8238 1.349 . S
C8237 C8239 1.327 . S
C8237 H8260 0.950 . S
C8238 C8237 1.349 . S
C8238 C8250 1.349 . S
C8239 C8237 1.327 . S
C8239 C8255 1.429 . S
C8239 H8261 0.950 . S
C8240 H8236 0.949 . S
C8240 C8248 1.574 . S
C8240 C8256 1.368 . S
H8241 C8249 0.950 . S
H8242 C8247 0.950 . S
H8243 C8248 0.949 . S
H8244 C8250 0.950 . S
H8245 C8251 0.950 . S
H8246 C8252 0.949 . S
C8247 H8242 0.950 . S
C8247 C8249 1.327 . S
C8247 C8253 1.429 . S
C8248 C8240 1.574 . S
C8248 H8243 0.949 . S
C8248 C8254 1.368 . S
C8249 C8233 1.349 . S
C8249 H8241 0.950 . S
C8249 C8247 1.327 . S
C8250 C8238 1.349 . S
C8250 H8244 0.950 . S
C8250 C8251 1.327 . S
C8251 H8245 0.950 . S
C8251 C8250 1.327 . S
C8251 C8255 1.429 . S
C8252 C8235 1.574 . S
C8252 H8246 0.949 . S
C8252 C8256 1.368 . S
C8253 C8234 1.429 . S
C8253 C8247 1.429 . S
C8253 C8254 1.523 . S
C8254 C8235 1.368 . S
C8254 C8248 1.368 . S
C8254 C8253 1.523 . S
C8255 C8239 1.429 . S
C8255 C8251 1.429 . S
C8255 C8256 1.523 . S
C8256 C8240 1.368 . S
C8256 C8252 1.368 . S
C8256 C8255 1.523 . S
H8257 C8232 0.950 . S
H8258 C8234 0.950 . S
H8259 C8235 0.949 . S
H8260 C8237 0.950 . S
H8261 C8239 0.950 . S
C8262 C8263 1.349 . S
C8262 C8264 1.327 . S
C8262 H8287 0.950 . S
C8263 C8262 1.349 . S
C8263 C8279 1.349 . S
C8264 C8262 1.327 . S
C8264 C8283 1.429 . S
C8264 H8288 0.950 . S
C8265 C8282 1.574 . S
C8265 C8284 1.368 . S
C8265 H8289 0.949 . S
H8266 C8270 0.949 . S
C8267 C8268 1.349 . S
C8267 C8269 1.327 . S
C8267 H8290 0.950 . S
C8268 C8267 1.349 . S
C8268 C8280 1.349 . S
C8269 C8267 1.327 . S
C8269 C8285 1.429 . S
C8269 H8291 0.950 . S
C8270 H8266 0.949 . S
C8270 C8278 1.574 . S
C8270 C8286 1.368 . S
H8271 C8279 0.950 . S
H8272 C8277 0.950 . S
H8273 C8278 0.949 . S
H8274 C8280 0.950 . S
H8275 C8281 0.950 . S
H8276 C8282 0.949 . S
C8277 H8272 0.950 . S
C8277 C8279 1.327 . S
C8277 C8283 1.429 . S
C8278 C8270 1.574 . S
C8278 H8273 0.949 . S
C8278 C8284 1.368 . S
C8279 C8263 1.349 . S
C8279 H8271 0.950 . S
C8279 C8277 1.327 . S
C8280 C8268 1.349 . S
C8280 H8274 0.950 . S
C8280 C8281 1.327 . S
C8281 H8275 0.950 . S
C8281 C8280 1.327 . S
C8281 C8285 1.429 . S
C8282 C8265 1.574 . S
C8282 H8276 0.949 . S
C8282 C8286 1.368 . S
C8283 C8264 1.429 . S
C8283 C8277 1.429 . S
C8283 C8284 1.523 . S
C8284 C8265 1.368 . S
C8284 C8278 1.368 . S
C8284 C8283 1.523 . S
C8285 C8269 1.429 . S
C8285 C8281 1.429 . S
C8285 C8286 1.523 . S
C8286 C8270 1.368 . S
C8286 C8282 1.368 . S
C8286 C8285 1.523 . S
H8287 C8262 0.950 . S
H8288 C8264 0.950 . S
H8289 C8265 0.949 . S
H8290 C8267 0.950 . S
H8291 C8269 0.950 . S
C8292 C8293 1.349 . S
C8292 C8294 1.327 . S
C8292 H8317 0.950 . S
C8293 C8292 1.349 . S
C8293 C8309 1.349 . S
C8294 C8292 1.327 . S
C8294 C8313 1.429 . S
C8294 H8318 0.950 . S
C8295 C8312 1.574 . S
C8295 C8314 1.368 . S
C8295 H8319 0.949 . S
H8296 C8300 0.949 . S
C8297 C8298 1.349 . S
C8297 C8299 1.327 . S
C8297 H8320 0.950 . S
C8298 C8297 1.349 . S
C8298 C8310 1.349 . S
C8299 C8297 1.327 . S
C8299 C8315 1.429 . S
C8299 H8321 0.950 . S
C8300 H8296 0.949 . S
C8300 C8308 1.574 . S
C8300 C8316 1.368 . S
H8301 C8309 0.950 . S
H8302 C8307 0.950 . S
H8303 C8308 0.949 . S
H8304 C8310 0.950 . S
H8305 C8311 0.950 . S
H8306 C8312 0.949 . S
C8307 H8302 0.950 . S
C8307 C8309 1.327 . S
C8307 C8313 1.429 . S
C8308 C8300 1.574 . S
C8308 H8303 0.949 . S
C8308 C8314 1.368 . S
C8309 C8293 1.349 . S
C8309 H8301 0.950 . S
C8309 C8307 1.327 . S
C8310 C8298 1.349 . S
C8310 H8304 0.950 . S
C8310 C8311 1.327 . S
C8311 H8305 0.950 . S
C8311 C8310 1.327 . S
C8311 C8315 1.429 . S
C8312 C8295 1.574 . S
C8312 H8306 0.949 . S
C8312 C8316 1.368 . S
C8313 C8294 1.429 . S
C8313 C8307 1.429 . S
C8313 C8314 1.523 . S
C8314 C8295 1.368 . S
C8314 C8308 1.368 . S
C8314 C8313 1.523 . S
C8315 C8299 1.429 . S
C8315 C8311 1.429 . S
C8315 C8316 1.523 . S
C8316 C8300 1.368 . S
C8316 C8312 1.368 . S
C8316 C8315 1.523 . S
H8317 C8292 0.950 . S
H8318 C8294 0.950 . S
H8319 C8295 0.949 . S
H8320 C8297 0.950 . S
H8321 C8299 0.950 . S
C8322 C8323 1.349 . S
C8322 C8324 1.327 . S
C8322 H8347 0.950 . S
C8323 C8322 1.349 . S
C8323 C8339 1.349 . S
C8324 C8322 1.327 . S
C8324 C8343 1.429 . S
C8324 H8348 0.950 . S
C8325 C8342 1.574 . S
C8325 C8344 1.368 . S
C8325 H8349 0.949 . S
H8326 C8330 0.949 . S
C8327 C8328 1.349 . S
C8327 C8329 1.327 . S
C8327 H8350 0.950 . S
C8328 C8327 1.349 . S
C8328 C8340 1.349 . S
C8329 C8327 1.327 . S
C8329 C8345 1.429 . S
C8329 H8351 0.950 . S
C8330 H8326 0.949 . S
C8330 C8338 1.574 . S
C8330 C8346 1.368 . S
H8331 C8339 0.950 . S
H8332 C8337 0.950 . S
H8333 C8338 0.949 . S
H8334 C8340 0.950 . S
H8335 C8341 0.950 . S
H8336 C8342 0.949 . S
C8337 H8332 0.950 . S
C8337 C8339 1.327 . S
C8337 C8343 1.429 . S
C8338 C8330 1.574 . S
C8338 H8333 0.949 . S
C8338 C8344 1.368 . S
C8339 C8323 1.349 . S
C8339 H8331 0.950 . S
C8339 C8337 1.327 . S
C8340 C8328 1.349 . S
C8340 H8334 0.950 . S
C8340 C8341 1.327 . S
C8341 H8335 0.950 . S
C8341 C8340 1.327 . S
C8341 C8345 1.429 . S
C8342 C8325 1.574 . S
C8342 H8336 0.949 . S
C8342 C8346 1.368 . S
C8343 C8324 1.429 . S
C8343 C8337 1.429 . S
C8343 C8344 1.523 . S
C8344 C8325 1.368 . S
C8344 C8338 1.368 . S
C8344 C8343 1.523 . S
C8345 C8329 1.429 . S
C8345 C8341 1.429 . S
C8345 C8346 1.523 . S
C8346 C8330 1.368 . S
C8346 C8342 1.368 . S
C8346 C8345 1.523 . S
H8347 C8322 0.950 . S
H8348 C8324 0.950 . S
H8349 C8325 0.949 . S
H8350 C8327 0.950 . S
H8351 C8329 0.950 . S
C4033 C67 2.953 . S
C4038 C403 2.950 . S
C4063 C151 2.924 . S
C4068 C487 2.923 . S
C4093 C571 2.960 . S
C4098 C242 3.061 . S
C4123 C655 2.997 1_554 S
C4128 C319 2.988 1_556 S
C4153 C746 3.126 . S
C4158 C830 3.125 . S
C4183 C823 2.981 1_565 S
C4188 C914 3.089 . S
C4213 C991 3.011 . S
C4218 C907 3.010 . S
C4243 C998 3.124 . S
C4248 C739 3.016 1_565 S
C4273 C1082 3.064 . S
C4278 C326 3.066 . S
C4303 C662 3.031 . S
C4308 C2846 3.029 . S
C4333 C410 3.022 1_655 S
C4338 C1166 3.022 1_455 S
C4363 C494 3.029 . S
C4368 C2930 3.031 . S
C4393 C158 3.064 . S
C4398 C1250 3.066 . S
C4423 C2671 2.918 1_455 S
C4428 C74 3.029 . S
C4453 C2594 3.021 . S
C4458 C235 2.918 . S
C4483 C1652 2.950 . S
C4488 C1316 2.953 . S
C4513 C1400 2.924 . S
C4518 C1736 2.923 . S
C4543 C1491 3.061 . S
C4548 C1820 2.960 . S
C4573 C1568 2.988 1_554 S
C4578 C1904 2.997 1_556 S
C4603 C2079 3.125 . S
C4608 C1995 3.126 . S
C4633 C2072 2.981 1_545 S
C4638 C2163 3.089 . S
C4663 C2240 3.011 . S
C4668 C2156 3.010 . S
C4693 C1988 3.016 1_545 S
C4698 C2247 3.124 . S
C4723 C1575 3.066 . S
C4728 C2331 3.064 . S
C4753 C3591 3.029 . S
C4758 C1911 3.031 . S
C4783 C2415 3.022 1_655 S
C4788 C1659 3.022 1_455 S
C4813 C1743 3.029 . S
C4818 C3675 3.031 . S
C4843 C2499 3.066 . S
C4848 C1407 3.064 . S
C4873 C1323 3.029 . S
C4878 C3416 2.918 1_655 S
C4903 C1484 2.918 . S
C4908 C3339 3.021 . S
C4933 C2755 2.950 . S
C4938 C2587 2.953 . S
C4963 C2839 2.923 1_554 S
C4968 C1075 2.924 1_556 S
C4993 C2678 3.061 . S
C4998 C1159 2.959 . S
C5023 C2923 2.997 . S
C5028 C1243 2.997 . S
C5053 C3014 3.126 . S
C5058 C3098 3.125 . S
C5083 C3091 2.981 . S
C5088 C3182 3.087 . S
C5113 C3259 3.011 . S
C5118 C3175 3.010 . S
C5143 C3007 3.016 . S
C5148 C3266 3.122 . S
C5173 C578 3.028 . S
C5178 C2762 3.028 . S
C5203 C3500 2.950 . S
C5208 C3332 2.953 . S
C5233 C3584 2.923 1_556 S
C5238 C2324 2.924 1_554 S
C5263 C2408 2.959 . S
C5268 C3423 3.061 . S
C5293 C3668 2.997 . S
C5298 C2492 2.997 . S
C5323 C3759 3.126 . S
C5328 C3843 3.125 . S
C5353 C3836 2.981 . S
C5358 C3927 3.087 . S
C5383 C3920 3.010 . S
C5388 C4004 3.011 . S
C5413 C4011 3.122 . S
C5418 C3752 3.016 . S
C5443 C3507 3.028 . S
C5448 C1827 3.028 . S
C5473 C56 0.556 . S
C5478 C1402 0.678 . S
C5503 C3429 0.628 . S
C5508 C140 0.588 . S
C5533 C231 0.574 . S
C5538 C1570 0.679 . S
C5563 C308 0.553 . S
C5568 C3334 0.677 . S
C5593 C392 0.570 . S
C5598 C1906 0.684 . S
C5623 C476 0.573 . S
C5628 C3502 0.684 . S
C5653 C560 0.594 . S
C5658 C1738 0.689 . S
C5683 C2410 0.688 . S
C5688 C644 0.589 . S
C5713 C735 0.595 . S
C5718 C3345 0.617 . S
C5743 C812 0.616 . S
C5748 C1413 0.647 . S
C5773 C896 0.560 . S
C5778 C3418 0.677 . S
C5803 C1581 0.604 . S
C5808 C987 0.578 . S
C5833 C3513 0.618 . S
C5838 C980 0.575 . S
C5863 C1749 0.653 . S
C5868 C728 0.625 . S
C5893 C819 0.626 . S
C5898 C2421 0.642 . S
C5923 C1917 0.611 . S
C5928 C903 0.587 . S
C5953 C3754 0.687 . S
C5958 C1071 0.606 . S
C5983 C2253 0.612 . S
C5988 C651 0.587 . S
C6013 C399 0.616 . S
C6018 C3765 0.636 . S
C6043 C483 0.616 . S
C6048 C2074 0.690 . S
C6073 C1155 0.601 . S
C6078 C2158 0.684 . S
C6103 C3933 0.617 . S
C6108 C1239 0.594 . S
C6133 C63 0.569 . S
C6138 C4006 0.673 . S
C6163 C224 0.619 . S
C6168 C3849 0.650 . S
C6193 C153 0.678 . S
C6198 C1327 0.556 . S
C6223 C1411 0.588 . S
C6228 C2662 0.628 . S
C6253 C1502 0.574 . S
C6258 C321 0.679 . S
C6283 C1579 0.553 . S
C6288 C2589 0.677 . S
C6313 C657 0.684 . S
C6318 C1663 0.570 . S
C6343 C2757 0.684 . S
C6348 C1747 0.573 . S
C6373 C489 0.689 . S
C6378 C1831 0.594 . S
C6403 C1915 0.589 . S
C6408 C1161 0.688 . S
C6433 C2006 0.595 . S
C6438 C2578 0.617 . S
C6463 C142 0.647 . S
C6468 C2083 0.616 . S
C6493 C2167 0.560 . S
C6498 C2673 0.677 . S
C6523 C310 0.604 . S
C6528 C2258 0.578 . S
C6553 C2746 0.618 . S
C6558 C2251 0.575 . S
C6583 C1999 0.625 . S
C6588 C478 0.653 . S
C6613 C2090 0.626 . S
C6618 C1150 0.642 . S
C6643 C646 0.611 . S
C6648 C2174 0.587 . S
C6673 C2342 0.606 . S
C6678 C3009 0.687 . S
C6703 C982 0.612 . S
C6708 C1922 0.587 . S
C6733 C2998 0.636 . S
C6738 C1670 0.616 . S
C6763 C1754 0.616 . S
C6768 C825 0.690 . S
C6793 C2426 0.601 . S
C6798 C909 0.684 . S
C6823 C3166 0.617 . S
C6828 C2510 0.594 . S
C6853 C1334 0.569 . S
C6858 C3261 0.673 . S
C6883 C3082 0.650 . S
C6888 C1495 0.619 . S
C6913 C2326 0.678 . S
C6918 C2576 0.556 . S
C6943 C1064 0.588 . S
C6948 C1497 0.627 . S
C6973 C2494 0.679 . S
C6978 C2667 0.574 . S
C7003 C1232 0.553 . S
C7008 C1318 0.677 . S
C7033 C2744 0.570 . S
C7038 C3670 0.684 . S
C7063 C1654 0.684 . S
C7068 C2828 0.572 . S
C7093 C1148 0.594 . S
C7098 C3586 0.689 . S
C7123 C1822 0.688 . S
C7128 C2912 0.589 . S
C7153 C3003 0.595 . S
C7158 C1329 0.617 . S
C7183 C3080 0.617 . S
C7188 C2337 0.647 . S
C7213 C3164 0.560 . S
C7218 C1486 0.677 . S
C7243 C2505 0.604 . S
C7248 C3255 0.578 . S
C7273 C1665 0.618 . S
C7278 C3248 0.574 . S
C7303 C2996 0.624 . S
C7308 C3597 0.653 . S
C7333 C1833 0.642 . S
C7338 C3087 0.626 . S
C7363 C3171 0.587 . S
C7368 C3681 0.611 . S
C7393 C147 0.606 . S
C7398 C1990 0.687 . S
C7423 C4017 0.612 . S
C7428 C2919 0.587 . S
C7453 C2751 0.616 . S
C7458 C2001 0.636 . S
C7483 C2835 0.616 . S
C7488 C3838 0.690 . S
C7513 C3922 0.684 . S
C7518 C567 0.601 . S
C7543 C2169 0.617 . S
C7548 C315 0.594 . S
C7573 C2583 0.569 . S
C7578 C2242 0.673 . S
C7603 C2085 0.650 . S
C7608 C2660 0.619 . S
C7633 C1077 0.678 . S
C7638 C3343 0.556 . S
C7663 C2335 0.588 . S
C7668 C226 0.627 . S
C7693 C1245 0.679 . S
C7698 C3434 0.574 . S
C7723 C2503 0.553 . S
C7728 C69 0.677 . S
C7753 C3511 0.570 . S
C7758 C2925 0.684 . S
C7783 C405 0.684 . S
C7788 C3595 0.572 . S
C7813 C2841 0.689 . S
C7818 C2419 0.594 . S
C7843 C573 0.688 . S
C7848 C3679 0.589 . S
C7873 C58 0.617 . S
C7878 C3770 0.595 . S
C7903 C3847 0.617 . S
C7908 C1066 0.647 . S
C7933 C237 0.677 . S
C7938 C3931 0.560 . S
C7963 C1234 0.604 . S
C7968 C4022 0.578 . S
C7993 C394 0.618 . S
C7998 C4015 0.574 . S
C8023 C2830 0.653 . S
C8028 C3763 0.624 . S
C8053 C3854 0.626 . S
C8058 C562 0.642 . S
C8083 C2914 0.611 . S
C8088 C3938 0.587 . S
C8113 C741 0.687 . S
C8118 C1418 0.606 . S
C8143 C3686 0.587 . S
C8148 C3250 0.612 . S
C8173 C3518 0.616 . S
C8178 C730 0.636 . S
C8203 C3093 0.690 . S
C8208 C3602 0.616 . S
C8233 C1838 0.601 . S
C8238 C3177 0.684 . S
C8263 C1586 0.594 . S
C8268 C898 0.617 . S
C8293 C993 0.673 . S
C8298 C3350 0.569 . S
C8323 C814 0.650 . S
C8328 C3427 0.619 . S
