# Generated by pormake.
# Topology uml, (4)-cn, num edge types: 1
# Building blocks:
#     Node 0, Type 0, BuildingBlock: QUQFOY_clean_sbu_1, # of connection points: 4
#     Node 1, Type 0, BuildingBlock: QUQFOY_clean_sbu_1, # of connection points: 4
#     Node 2, Type 0, BuildingBlock: QUQFOY_clean_sbu_1, # of connection points: 4
#     Node 3, Type 0, BuildingBlock: QUQFOY_clean_sbu_1, # of connection points: 4
#     Node 4, Type 0, BuildingBlock: QUQFOY_clean_sbu_1, # of connection points: 4
#     Node 5, Type 0, BuildingBlock: QUQFOY_clean_sbu_1, # of connection points: 4
#     Node 6, Type 0, BuildingBlock: QUQFOY_clean_sbu_1, # of connection points: 4
#     Node 7, Type 0, BuildingBlock: QUQFOY_clean_sbu_1, # of connection points: 4
#     Node 8, Type 0, BuildingBlock: QUQFOY_clean_sbu_1, # of connection points: 4
#     Node 9, Type 0, BuildingBlock: QUQFOY_clean_sbu_1, # of connection points: 4
#     Node 10, Type 0, BuildingBlock: QUQFOY_clean_sbu_1, # of connection points: 4
#     Node 11, Type 0, BuildingBlock: QUQFOY_clean_sbu_1, # of connection points: 4
#     Node 12, Type 0, BuildingBlock: QUQFOY_clean_sbu_1, # of connection points: 4
#     Node 13, Type 0, BuildingBlock: QUQFOY_clean_sbu_1, # of connection points: 4
#     Node 14, Type 0, BuildingBlock: QUQFOY_clean_sbu_1, # of connection points: 4
#     Node 15, Type 0, BuildingBlock: QUQFOY_clean_sbu_1, # of connection points: 4
#     Node 16, Type 0, BuildingBlock: QUQFOY_clean_sbu_1, # of connection points: 4
#     Node 17, Type 0, BuildingBlock: QUQFOY_clean_sbu_1, # of connection points: 4
#     Node 18, Type 0, BuildingBlock: QUQFOY_clean_sbu_1, # of connection points: 4
#     Node 19, Type 0, BuildingBlock: QUQFOY_clean_sbu_1, # of connection points: 4
#     Node 20, Type 0, BuildingBlock: QUQFOY_clean_sbu_1, # of connection points: 4
#     Node 21, Type 0, BuildingBlock: QUQFOY_clean_sbu_1, # of connection points: 4
#     Node 22, Type 0, BuildingBlock: QUQFOY_clean_sbu_1, # of connection points: 4
#     Node 23, Type 0, BuildingBlock: QUQFOY_clean_sbu_1, # of connection points: 4
#     Node 24, Type 0, BuildingBlock: QUQFOY_clean_sbu_1, # of connection points: 4
#     Node 25, Type 0, BuildingBlock: QUQFOY_clean_sbu_1, # of connection points: 4
#     Node 26, Type 0, BuildingBlock: QUQFOY_clean_sbu_1, # of connection points: 4
#     Node 27, Type 0, BuildingBlock: QUQFOY_clean_sbu_1, # of connection points: 4
#     Node 28, Type 0, BuildingBlock: QUQFOY_clean_sbu_1, # of connection points: 4
#     Node 29, Type 0, BuildingBlock: QUQFOY_clean_sbu_1, # of connection points: 4
#     Node 30, Type 0, BuildingBlock: QUQFOY_clean_sbu_1, # of connection points: 4
#     Node 31, Type 0, BuildingBlock: QUQFOY_clean_sbu_1, # of connection points: 4
#     Node 32, Type 0, BuildingBlock: QUQFOY_clean_sbu_1, # of connection points: 4
#     Node 33, Type 0, BuildingBlock: QUQFOY_clean_sbu_1, # of connection points: 4
#     Node 34, Type 0, BuildingBlock: QUQFOY_clean_sbu_1, # of connection points: 4
#     Node 35, Type 0, BuildingBlock: QUQFOY_clean_sbu_1, # of connection points: 4
#     Edge 36, Type (0, 0), BuildingBlock: XIVTED_clean_linker_0, # of connection points: 2
#     Edge 37, Type (0, 0), BuildingBlock: XIVTED_clean_linker_0, # of connection points: 2
#     Edge 38, Type (0, 0), BuildingBlock: XIVTED_clean_linker_0, # of connection points: 2
#     Edge 39, Type (0, 0), BuildingBlock: XIVTED_clean_linker_0, # of connection points: 2
#     Edge 40, Type (0, 0), BuildingBlock: XIVTED_clean_linker_0, # of connection points: 2
#     Edge 41, Type (0, 0), BuildingBlock: XIVTED_clean_linker_0, # of connection points: 2
#     Edge 42, Type (0, 0), BuildingBlock: XIVTED_clean_linker_0, # of connection points: 2
#     Edge 43, Type (0, 0), BuildingBlock: XIVTED_clean_linker_0, # of connection points: 2
#     Edge 44, Type (0, 0), BuildingBlock: XIVTED_clean_linker_0, # of connection points: 2
#     Edge 45, Type (0, 0), BuildingBlock: XIVTED_clean_linker_0, # of connection points: 2
#     Edge 46, Type (0, 0), BuildingBlock: XIVTED_clean_linker_0, # of connection points: 2
#     Edge 47, Type (0, 0), BuildingBlock: XIVTED_clean_linker_0, # of connection points: 2
#     Edge 48, Type (0, 0), BuildingBlock: XIVTED_clean_linker_0, # of connection points: 2
#     Edge 49, Type (0, 0), BuildingBlock: XIVTED_clean_linker_0, # of connection points: 2
#     Edge 50, Type (0, 0), BuildingBlock: XIVTED_clean_linker_0, # of connection points: 2
#     Edge 51, Type (0, 0), BuildingBlock: XIVTED_clean_linker_0, # of connection points: 2
#     Edge 52, Type (0, 0), BuildingBlock: XIVTED_clean_linker_0, # of connection points: 2
#     Edge 53, Type (0, 0), BuildingBlock: XIVTED_clean_linker_0, # of connection points: 2
#     Edge 54, Type (0, 0), BuildingBlock: XIVTED_clean_linker_0, # of connection points: 2
#     Edge 55, Type (0, 0), BuildingBlock: XIVTED_clean_linker_0, # of connection points: 2
#     Edge 56, Type (0, 0), BuildingBlock: XIVTED_clean_linker_0, # of connection points: 2
#     Edge 57, Type (0, 0), BuildingBlock: XIVTED_clean_linker_0, # of connection points: 2
#     Edge 58, Type (0, 0), BuildingBlock: XIVTED_clean_linker_0, # of connection points: 2
#     Edge 59, Type (0, 0), BuildingBlock: XIVTED_clean_linker_0, # of connection points: 2
#     Edge 60, Type (0, 0), BuildingBlock: XIVTED_clean_linker_0, # of connection points: 2
#     Edge 61, Type (0, 0), BuildingBlock: XIVTED_clean_linker_0, # of connection points: 2
#     Edge 62, Type (0, 0), BuildingBlock: XIVTED_clean_linker_0, # of connection points: 2
#     Edge 63, Type (0, 0), BuildingBlock: XIVTED_clean_linker_0, # of connection points: 2
#     Edge 64, Type (0, 0), BuildingBlock: XIVTED_clean_linker_0, # of connection points: 2
#     Edge 65, Type (0, 0), BuildingBlock: XIVTED_clean_linker_0, # of connection points: 2
#     Edge 66, Type (0, 0), BuildingBlock: XIVTED_clean_linker_0, # of connection points: 2
#     Edge 67, Type (0, 0), BuildingBlock: XIVTED_clean_linker_0, # of connection points: 2
#     Edge 68, Type (0, 0), BuildingBlock: XIVTED_clean_linker_0, # of connection points: 2
#     Edge 69, Type (0, 0), BuildingBlock: XIVTED_clean_linker_0, # of connection points: 2
#     Edge 70, Type (0, 0), BuildingBlock: XIVTED_clean_linker_0, # of connection points: 2
#     Edge 71, Type (0, 0), BuildingBlock: XIVTED_clean_linker_0, # of connection points: 2
#     Edge 72, Type (0, 0), BuildingBlock: XIVTED_clean_linker_0, # of connection points: 2
#     Edge 73, Type (0, 0), BuildingBlock: XIVTED_clean_linker_0, # of connection points: 2
#     Edge 74, Type (0, 0), BuildingBlock: XIVTED_clean_linker_0, # of connection points: 2
#     Edge 75, Type (0, 0), BuildingBlock: XIVTED_clean_linker_0, # of connection points: 2
#     Edge 76, Type (0, 0), BuildingBlock: XIVTED_clean_linker_0, # of connection points: 2
#     Edge 77, Type (0, 0), BuildingBlock: XIVTED_clean_linker_0, # of connection points: 2
#     Edge 78, Type (0, 0), BuildingBlock: XIVTED_clean_linker_0, # of connection points: 2
#     Edge 79, Type (0, 0), BuildingBlock: XIVTED_clean_linker_0, # of connection points: 2
#     Edge 80, Type (0, 0), BuildingBlock: XIVTED_clean_linker_0, # of connection points: 2
#     Edge 81, Type (0, 0), BuildingBlock: XIVTED_clean_linker_0, # of connection points: 2
#     Edge 82, Type (0, 0), BuildingBlock: XIVTED_clean_linker_0, # of connection points: 2
#     Edge 83, Type (0, 0), BuildingBlock: XIVTED_clean_linker_0, # of connection points: 2
#     Edge 84, Type (0, 0), BuildingBlock: XIVTED_clean_linker_0, # of connection points: 2
#     Edge 85, Type (0, 0), BuildingBlock: XIVTED_clean_linker_0, # of connection points: 2
#     Edge 86, Type (0, 0), BuildingBlock: XIVTED_clean_linker_0, # of connection points: 2
#     Edge 87, Type (0, 0), BuildingBlock: XIVTED_clean_linker_0, # of connection points: 2
#     Edge 88, Type (0, 0), BuildingBlock: XIVTED_clean_linker_0, # of connection points: 2
#     Edge 89, Type (0, 0), BuildingBlock: XIVTED_clean_linker_0, # of connection points: 2
#     Edge 90, Type (0, 0), BuildingBlock: XIVTED_clean_linker_0, # of connection points: 2
#     Edge 91, Type (0, 0), BuildingBlock: XIVTED_clean_linker_0, # of connection points: 2
#     Edge 92, Type (0, 0), BuildingBlock: XIVTED_clean_linker_0, # of connection points: 2
#     Edge 93, Type (0, 0), BuildingBlock: XIVTED_clean_linker_0, # of connection points: 2
#     Edge 94, Type (0, 0), BuildingBlock: XIVTED_clean_linker_0, # of connection points: 2
#     Edge 95, Type (0, 0), BuildingBlock: XIVTED_clean_linker_0, # of connection points: 2
#     Edge 96, Type (0, 0), BuildingBlock: XIVTED_clean_linker_0, # of connection points: 2
#     Edge 97, Type (0, 0), BuildingBlock: XIVTED_clean_linker_0, # of connection points: 2
#     Edge 98, Type (0, 0), BuildingBlock: XIVTED_clean_linker_0, # of connection points: 2
#     Edge 99, Type (0, 0), BuildingBlock: XIVTED_clean_linker_0, # of connection points: 2
#     Edge 100, Type (0, 0), BuildingBlock: XIVTED_clean_linker_0, # of connection points: 2
#     Edge 101, Type (0, 0), BuildingBlock: XIVTED_clean_linker_0, # of connection points: 2
#     Edge 102, Type (0, 0), BuildingBlock: XIVTED_clean_linker_0, # of connection points: 2
#     Edge 103, Type (0, 0), BuildingBlock: XIVTED_clean_linker_0, # of connection points: 2
#     Edge 104, Type (0, 0), BuildingBlock: XIVTED_clean_linker_0, # of connection points: 2
#     Edge 105, Type (0, 0), BuildingBlock: XIVTED_clean_linker_0, # of connection points: 2
#     Edge 106, Type (0, 0), BuildingBlock: XIVTED_clean_linker_0, # of connection points: 2
#     Edge 107, Type (0, 0), BuildingBlock: XIVTED_clean_linker_0, # of connection points: 2
# Relax obj value: 0.057
# Max RMSD: 0.193
# Mean RMSD: 0.178
data_MOF--net-uml--node1-QUQFOY_clean_sbu_1--edge1-XIVTED_clean_linker_0
_symmetry_space_group_name_H-M    P1
_symmetry_Int_Tables_number       1
_symmetry_cell_setting            triclinic
loop_
_symmetry_equiv_pos_as_xyz
'x, y, z'
_cell_length_a     100.14903
_cell_length_b     100.21479
_cell_length_c     29.037782
_cell_angle_alpha  89.980129
_cell_angle_beta   90.095397
_cell_angle_gamma 120.03476
loop_
_atom_site_label
_atom_site_type_symbol
_atom_site_fract_x
_atom_site_fract_y
_atom_site_fract_z
_atom_type_partial_charge
O0 O 0.3617 0.12686 0.1709 0.0
Cd1 Cd 0.36477 0.10797 0.17471 0.0
Cd2 Cd 0.39187 0.1289 0.13576 0.0
O3 O 0.38567 0.14501 0.15657 0.0
O4 O 0.34972 0.09425 0.2222 0.0
O5 O 0.375 0.10594 0.23197 0.0
C6 C 0.36131 0.09743 0.24863 0.0
C7 C 0.41573 0.13012 0.13731 0.0
C8 C 0.37172 0.14104 0.16595 0.0
C9 C 0.36917 0.10204 0.07829 0.0
O10 O 0.38037 0.11576 0.07993 0.0
O11 O 0.3615 0.09552 0.11443 0.0
O12 O 0.41336 0.13915 0.11117 0.0
O13 O 0.40528 0.12197 0.16743 0.0
O14 O 0.9044 0.24103 0.1676 0.0
Cd15 Cd 0.92291 0.26321 0.17137 0.0
Cd16 Cd 0.90173 0.26858 0.13203 0.0
O17 O 0.88584 0.24626 0.15346 0.0
O18 O 0.93645 0.26251 0.22082 0.0
O19 O 0.92424 0.2757 0.2272 0.0
C20 C 0.93279 0.27086 0.24573 0.0
C21 C 0.9005 0.29118 0.13365 0.0
C22 C 0.89013 0.23652 0.16284 0.0
C23 C 0.92872 0.27316 0.07485 0.0
O24 O 0.91484 0.27017 0.07625 0.0
O25 O 0.93542 0.27248 0.11131 0.0
O26 O 0.89139 0.27975 0.10766 0.0
O27 O 0.90875 0.28893 0.16357 0.0
O28 O 0.79034 0.66898 0.16875 0.0
Cd29 Cd 0.76818 0.66546 0.17233 0.0
Cd30 Cd 0.76259 0.63882 0.13303 0.0
O31 O 0.78492 0.64515 0.15439 0.0
O32 O 0.7692 0.68038 0.21981 0.0
O33 O 0.75602 0.6551 0.22951 0.0
C34 C 0.76096 0.66875 0.24619 0.0
C35 C 0.73968 0.61523 0.1355 0.0
C36 C 0.79474 0.65915 0.1639 0.0
C37 C 0.75804 0.66109 0.07559 0.0
O38 O 0.76109 0.65025 0.07691 0.0
O39 O 0.75873 0.66844 0.11208 0.0
O40 O 0.75097 0.61721 0.10947 0.0
O41 O 0.74225 0.62592 0.16507 0.0
O42 O 0.13384 0.35335 0.34204 0.0
Cd43 Cd 0.11495 0.35644 0.34078 0.0
Cd44 Cd 0.13604 0.38346 0.37464 0.0
O45 O 0.15194 0.37776 0.3485 0.0
O46 O 0.10028 0.34121 0.29477 0.0
O47 O 0.11246 0.36644 0.28401 0.0
C48 C 0.10348 0.35275 0.26811 0.0
C49 C 0.13209 0.40418 0.36496 0.0
C50 C 0.14803 0.36366 0.3421 0.0
C51 C 0.11166 0.36236 0.43861 0.0
O52 O 0.12564 0.37292 0.43479 0.0
O53 O 0.10407 0.35483 0.40327 0.0
O54 O 0.14403 0.40585 0.38728 0.0
O55 O 0.12388 0.39146 0.34252 0.0
O56 O 0.67714 0.78441 0.34537 0.0
Cd57 Cd 0.67371 0.76232 0.34264 0.0
Cd58 Cd 0.64705 0.75669 0.37817 0.0
O59 O 0.65289 0.77848 0.35343 0.0
O60 O 0.6888 0.76302 0.29611 0.0
O61 O 0.66354 0.75015 0.28544 0.0
C62 C 0.67721 0.75487 0.26936 0.0
C63 C 0.62607 0.73216 0.36861 0.0
C64 C 0.66702 0.78852 0.34672 0.0
C65 C 0.66826 0.75282 0.44021 0.0
O66 O 0.65785 0.75648 0.43745 0.0
O67 O 0.67549 0.75272 0.40428 0.0
O68 O 0.62469 0.74244 0.39168 0.0
O69 O 0.63862 0.73661 0.34536 0.0
O70 O 0.2447 0.89855 0.33698 0.0
Cd71 Cd 0.26663 0.91756 0.33476 0.0
Cd72 Cd 0.27289 0.89706 0.37116 0.0
O73 O 0.25121 0.8807 0.34629 0.0
O74 O 0.2656 0.93182 0.28845 0.0
O75 O 0.27903 0.92003 0.2778 0.0
C76 C 0.27403 0.92876 0.26181 0.0
C77 C 0.29758 0.90083 0.36317 0.0
C78 C 0.24092 0.88441 0.33884 0.0
C79 C 0.276 0.92198 0.43249 0.0
O80 O 0.27277 0.90803 0.43007 0.0
O81 O 0.27586 0.92912 0.39638 0.0
O82 O 0.28723 0.88916 0.38607 0.0
O83 O 0.29317 0.90883 0.33921 0.0
O84 O 0.67622 0.89692 0.83599 0.0
Cd85 Cd 0.67311 0.91578 0.83452 0.0
Cd86 Cd 0.64656 0.895 0.8721 0.0
O87 O 0.65207 0.87877 0.84741 0.0
O88 O 0.68829 0.93018 0.78829 0.0
O89 O 0.66304 0.91835 0.77785 0.0
C90 C 0.67675 0.92716 0.76182 0.0
C91 C 0.62561 0.89869 0.86394 0.0
C92 C 0.66606 0.88272 0.83879 0.0
C93 C 0.66867 0.92017 0.93269 0.0
O94 O 0.65786 0.90625 0.93052 0.0
O95 O 0.67584 0.92728 0.89644 0.0
O96 O 0.62436 0.88713 0.88733 0.0
O97 O 0.63796 0.90657 0.83961 0.0
O98 O 0.13327 0.78506 0.84603 0.0
Cd99 Cd 0.11453 0.76299 0.84416 0.0
Cd100 Cd 0.13567 0.7574 0.87909 0.0
O101 O 0.15154 0.779 0.85264 0.0
O102 O 0.09997 0.76355 0.79775 0.0
O103 O 0.1124 0.75076 0.78702 0.0
C104 C 0.10342 0.75545 0.77094 0.0
C105 C 0.13155 0.73262 0.87078 0.0
C106 C 0.1475 0.78909 0.84619 0.0
C107 C 0.11109 0.7539 0.9421 0.0
O108 O 0.12519 0.75771 0.93877 0.0
O109 O 0.10348 0.75352 0.90641 0.0
O110 O 0.14352 0.74293 0.89286 0.0
O111 O 0.12346 0.73711 0.84763 0.0
O112 O 0.24661 0.35476 0.83913 0.0
Cd113 Cd 0.26854 0.35773 0.83452 0.0
Cd114 Cd 0.2749 0.38467 0.87637 0.0
O115 O 0.25246 0.37853 0.8567 0.0
O116 O 0.26701 0.34291 0.78589 0.0
O117 O 0.28086 0.36821 0.77764 0.0
C118 C 0.27556 0.35461 0.76013 0.0
C119 C 0.2974 0.40872 0.87725 0.0
C120 C 0.24246 0.3647 0.846 0.0
C121 C 0.27909 0.36136 0.93075 0.0
O122 O 0.27671 0.37265 0.93043 0.0
O123 O 0.27772 0.3539 0.89395 0.0
O124 O 0.28591 0.4058 0.90369 0.0
O125 O 0.29526 0.39875 0.84561 0.0
O126 O 0.90365 0.67122 0.67191 0.0
Cd127 Cd 0.92261 0.66824 0.67344 0.0
Cd128 Cd 0.90174 0.64128 0.63881 0.0
O129 O 0.88567 0.6468 0.66448 0.0
O130 O 0.93713 0.6834 0.71978 0.0
O131 O 0.92508 0.65815 0.73005 0.0
C132 C 0.93398 0.67183 0.7462 0.0
C133 C 0.90547 0.62038 0.6474 0.0
C134 C 0.88947 0.66085 0.67124 0.0
C135 C 0.92629 0.66264 0.57569 0.0
O136 O 0.91232 0.652 0.57907 0.0
O137 O 0.93373 0.67013 0.61124 0.0
O138 O 0.89365 0.61894 0.62499 0.0
O139 O 0.91367 0.63293 0.67061 0.0
O140 O 0.35924 0.23931 0.67697 0.0
Cd141 Cd 0.36217 0.26121 0.6807 0.0
Cd142 Cd 0.38908 0.26755 0.64041 0.0
O143 O 0.38311 0.24525 0.66061 0.0
O144 O 0.34743 0.25993 0.72912 0.0
O145 O 0.37278 0.27379 0.73707 0.0
C146 C 0.3592 0.26857 0.75464 0.0
C147 C 0.41285 0.2903 0.64154 0.0
C148 C 0.36926 0.23522 0.67092 0.0
C149 C 0.36591 0.27144 0.58437 0.0
O150 O 0.37726 0.26914 0.58535 0.0
O151 O 0.35835 0.27015 0.62085 0.0
O152 O 0.41045 0.27897 0.61504 0.0
O153 O 0.4025 0.28787 0.67216 0.0
O154 O 0.79152 0.12578 0.68759 0.0
Cd155 Cd 0.76991 0.10641 0.69241 0.0
Cd156 Cd 0.7627 0.12606 0.6466 0.0
O157 O 0.78518 0.14289 0.66444 0.0
O158 O 0.77173 0.09377 0.74249 0.0
O159 O 0.75698 0.10432 0.74803 0.0
C160 C 0.76259 0.09648 0.76686 0.0
C161 C 0.74036 0.1279 0.64262 0.0
C162 C 0.79538 0.13961 0.67759 0.0
C163 C 0.75956 0.09803 0.59663 0.0
O164 O 0.76081 0.11125 0.59539 0.0
O165 O 0.76172 0.09277 0.634 0.0
O166 O 0.75189 0.13581 0.6156 0.0
O167 O 0.74235 0.12059 0.67621 0.0
O168 O 0.02592 0.45896 0.49546 0.0
Cd169 Cd 0.0294 0.44034 0.49794 0.0
Cd170 Cd 0.05612 0.46154 0.46306 0.0
O171 O 0.05021 0.47734 0.48856 0.0
O172 O 1.01428 0.42583 0.54433 0.0
O173 O 0.03953 0.43837 0.55527 0.0
C174 C 0.02586 0.42936 0.57124 0.0
C175 C 0.07699 0.45784 0.47317 0.0
C176 C 0.03605 0.47321 0.49494 0.0
C177 C 0.03514 0.4366 0.40035 0.0
O178 O 0.04543 0.45071 0.40345 0.0
O179 O 0.02789 0.42913 0.43611 0.0
O180 O 0.07851 0.46958 0.45013 0.0
O181 O 0.06435 0.44975 0.49602 0.0
O182 O 0.57063 0.57109 0.50432 0.0
Cd183 Cd 0.58955 0.59308 0.50555 0.0
Cd184 Cd 0.5686 0.5989 0.4697 0.0
O185 O 0.55253 0.57732 0.49558 0.0
O186 O 0.60408 0.59241 0.55179 0.0
O187 O 0.5921 0.60567 0.56212 0.0
C188 C 0.60098 0.60086 0.57822 0.0
C189 C 0.57246 0.62356 0.47875 0.0
C190 C 0.55643 0.56718 0.50315 0.0
C191 C 0.59338 0.60215 0.40751 0.0
O192 O 0.57938 0.59875 0.41039 0.0
O193 O 0.60074 0.60222 0.44341 0.0
O194 O 0.56071 0.61331 0.45577 0.0
O195 O 0.5805 0.61905 0.50208 0.0
O196 O 0.45918 1.0055 0.50203 0.0
Cd197 Cd 0.43732 1.00271 0.50364 0.0
Cd198 Cd 0.43096 0.97572 0.4686 0.0
O199 O 0.45254 0.98104 0.49442 0.0
O200 O 0.43825 0.01797 0.55003 0.0
O201 O 0.42482 0.99273 0.56041 0.0
C202 C 0.4298 1.00644 0.57656 0.0
C203 C 0.40609 0.95514 0.47708 0.0
C204 C 0.46288 0.99506 0.5013 0.0
C205 C 0.42799 0.99728 0.40581 0.0
O206 O 0.43127 0.98661 0.40904 0.0
O207 O 0.42808 1.00472 0.44147 0.0
O208 O 0.4163 0.95346 0.45461 0.0
O209 O 0.41074 0.96771 0.50043 0.0
O210 O 0.79785 0.68677 0.66642 0.0
Cd211 Cd 0.77848 0.68895 0.66054 0.0
Cd212 Cd 0.7986 0.71628 0.70414 0.0
O213 O 0.81528 0.71056 0.68588 0.0
O214 O 0.76567 0.67369 0.61209 0.0
O215 O 0.77621 0.69887 0.60286 0.0
C216 C 0.76839 0.68514 0.58577 0.0
C217 C 0.80057 0.74051 0.70706 0.0
C218 C 0.81181 0.69688 0.67468 0.0
C219 C 0.77079 0.69195 0.75626 0.0
O220 O 0.78419 0.70372 0.75656 0.0
O221 O 0.76512 0.68438 0.7193 0.0
O222 O 0.80866 0.73705 0.73391 0.0
O223 O 0.79297 0.73099 0.67416 0.0
O224 O 0.34394 0.11757 0.6666 0.0
Cd225 Cd 0.34134 0.09582 0.66226 0.0
Cd226 Cd 0.3141 0.08916 0.70381 0.0
O227 O 0.32013 0.11157 0.68443 0.0
O228 O 0.35649 0.09768 0.61436 0.0
O229 O 0.33124 0.08348 0.60493 0.0
C230 C 0.34496 0.08904 0.58805 0.0
C231 C 0.29002 0.06671 0.70429 0.0
C232 C 0.33392 0.12162 0.67358 0.0
C233 C 0.33769 0.08534 0.75853 0.0
O234 O 0.32614 0.08731 0.75784 0.0
O235 O 0.34536 0.08697 0.72201 0.0
O236 O 0.29296 0.07815 0.731 0.0
O237 O 0.3 0.06887 0.67268 0.0
O238 O 0.91304 0.23114 0.66434 0.0
Cd239 Cd 0.93444 0.25081 0.65922 0.0
Cd240 Cd 0.94196 0.23077 0.70355 0.0
O241 O 0.91956 0.21394 0.68523 0.0
O242 O 0.93131 0.26368 0.61259 0.0
O243 O 0.94658 0.25401 0.60069 0.0
C244 C 0.94024 0.26162 0.58518 0.0
C245 C 0.96444 0.22914 0.70691 0.0
C246 C 0.90929 0.21725 0.67313 0.0
C247 C 0.94513 0.25848 0.75543 0.0
O248 O 0.94368 0.24517 0.75579 0.0
O249 O 0.94308 0.26404 0.71846 0.0
O250 O 0.95289 0.22098 0.73363 0.0
O251 O 0.9624 0.2366 0.67385 0.0
O252 O 0.34351 0.23118 0.17101 0.0
Cd253 Cd 0.34027 0.24997 0.1674 0.0
Cd254 Cd 0.31343 0.22911 0.20694 0.0
O255 O 0.3196 0.21301 0.18592 0.0
O256 O 0.35492 0.26362 0.1191 0.0
O257 O 0.32955 0.25177 0.11105 0.0
C258 C 0.34311 0.26032 0.09354 0.0
C259 C 0.28953 0.2278 0.20619 0.0
C260 C 0.33353 0.217 0.1762 0.0
C261 C 0.33624 0.2561 0.26374 0.0
O262 O 0.32509 0.24235 0.26247 0.0
O263 O 0.34376 0.26257 0.22736 0.0
O264 O 0.29204 0.21883 0.23218 0.0
O265 O 0.29986 0.23594 0.17577 0.0
O266 O 0.79965 0.11821 0.17936 0.0
Cd267 Cd 0.7812 0.09597 0.17835 0.0
Cd268 Cd 0.8028 0.09112 0.21342 0.0
O269 O 0.81829 0.11267 0.1859 0.0
O270 O 0.76631 0.09606 0.13223 0.0
O271 O 0.77913 0.08364 0.1216 0.0
C272 C 0.76989 0.08801 0.10559 0.0
C273 C 0.79872 0.06637 0.20503 0.0
C274 C 0.81395 0.12251 0.17912 0.0
C275 C 0.77814 0.08723 0.2765 0.0
O276 O 0.79235 0.09146 0.27315 0.0
O277 O 0.77039 0.08647 0.24076 0.0
O278 O 0.81074 0.07671 0.22688 0.0
O279 O 0.79055 0.07084 0.18214 0.0
O280 O 0.91333 0.68721 0.16248 0.0
Cd281 Cd 0.93533 0.69041 0.15897 0.0
Cd282 Cd 0.94125 0.71698 0.20193 0.0
O283 O 0.91878 0.71072 0.18187 0.0
O284 O 0.93429 0.67603 0.10968 0.0
O285 O 0.94807 0.70141 0.10321 0.0
C286 C 0.94297 0.68796 0.08486 0.0
C287 C 0.96361 0.74112 0.20369 0.0
C288 C 0.90896 0.69695 0.17002 0.0
C289 C 0.94519 0.69331 0.25548 0.0
O290 O 0.94306 0.70476 0.25542 0.0
O291 O 0.94386 0.68594 0.21852 0.0
O292 O 0.95204 0.73801 0.22998 0.0
O293 O 0.96163 0.73129 0.17173 0.0
O294 O 0.57062 1.00371 1.00478 0.0
Cd295 Cd 0.58914 1.00001 0.00682 0.0
Cd296 Cd 0.56787 0.9736 0.97062 0.0
O297 O 0.55209 0.97956 0.99631 0.0
O298 O 0.60383 0.01515 0.05285 0.0
O299 O 0.59124 0.98994 0.0641 0.0
C300 C 0.60037 1.00363 0.07983 0.0
C301 C 0.57146 0.95262 0.97896 0.0
C302 C 0.55633 0.99369 1.00353 0.0
C303 C 0.5929 0.99471 0.90884 0.0
O304 O 0.57874 0.98451 0.91143 0.0
O305 O 0.60035 1.00171 0.94495 0.0
O306 O 0.55968 0.95127 0.9565 0.0
O307 O 0.57967 0.96512 1.00242 0.0
O308 O 0.02701 0.57235 0.01792 0.0
Cd309 Cd 0.03013 0.59433 0.01976 0.0
Cd310 Cd 0.05646 0.60016 0.98054 0.0
O311 O 0.05106 0.57837 1.00439 0.0
O312 O 1.01512 0.59353 0.06654 0.0
O313 O 0.04041 0.60709 0.07608 0.0
C314 C 0.02675 0.60217 0.09255 0.0
C315 C 0.07775 0.62466 0.98747 0.0
C316 C 0.03714 0.56831 0.01383 0.0
C317 C 0.03391 0.60315 0.92167 0.0
O318 O 0.04483 0.6002 0.92297 0.0
O319 O 0.0269 0.60297 0.95839 0.0
O320 O 0.07859 0.61418 0.96379 0.0
O321 O 0.06564 0.62047 0.0127 0.0
O322 O 0.45704 0.45997 0.00736 0.0
Cd323 Cd 0.43488 0.44135 0.01127 0.0
Cd324 Cd 0.42919 0.46246 0.97163 0.0
O325 O 0.45169 0.47838 0.99196 0.0
O326 O 0.43587 0.42751 0.05907 0.0
O327 O 0.42269 0.43962 0.06831 0.0
C328 C 0.42759 0.43091 0.08523 0.0
C329 C 0.40662 0.46379 0.97309 0.0
C330 C 0.46148 0.47419 1.00176 0.0
C331 C 0.42439 0.43533 0.91485 0.0
O332 O 0.42726 0.44916 0.91606 0.0
O333 O 0.42542 0.42881 0.95121 0.0
O334 O 0.41804 0.47278 0.94697 0.0
O335 O 0.4089 0.45566 1.00338 0.0
O336 O 0.69307 0.79165 0.85054 0.0
Cd337 Cd 0.69603 0.77274 0.85579 0.0
Cd338 Cd 0.7226 0.79297 0.811 0.0
O339 O 0.7165 0.8094 0.82915 0.0
O340 O 0.68156 0.75982 0.9055 0.0
O341 O 0.70693 0.7711 0.91208 0.0
C342 C 0.69345 0.76297 0.93047 0.0
C343 C 0.74685 0.79503 0.80836 0.0
C344 C 0.70282 0.80564 0.84139 0.0
C345 C 0.69843 0.76484 0.75995 0.0
O346 O 0.71001 0.77834 0.75897 0.0
O347 O 0.69116 0.75922 0.79731 0.0
O348 O 0.74337 0.80307 0.78138 0.0
O349 O 0.73735 0.78748 0.84129 0.0
O350 O 0.23747 0.90751 0.84423 0.0
Cd351 Cd 0.25634 0.92946 0.84866 0.0
Cd352 Cd 0.23587 0.93562 0.8066 0.0
O353 O 0.21948 0.91326 0.82645 0.0
O354 O 0.26973 0.92815 0.89732 0.0
O355 O 0.25821 0.94195 0.90517 0.0
C356 C 0.26659 0.93677 0.9228 0.0
C357 C 0.23474 0.9583 0.80653 0.0
C358 C 0.22335 0.9033 0.83723 0.0
C359 C 0.26325 0.93951 0.75246 0.0
O360 O 0.24961 0.93724 0.75255 0.0
O361 O 0.26936 0.93828 0.78943 0.0
O362 O 0.22597 0.94692 0.77988 0.0
O363 O 0.24252 0.95595 0.8379 0.0
O364 O 0.12406 0.33641 0.85144 0.0
Cd365 Cd 0.10229 0.33378 0.85527 0.0
Cd366 Cd 0.09567 0.30703 0.81138 0.0
O367 O 0.11807 0.31283 0.83086 0.0
O368 O 0.10374 0.34825 0.90483 0.0
O369 O 0.08942 0.32291 0.91098 0.0
C370 C 0.09481 0.33638 0.92951 0.0
C371 C 0.0731 0.28304 0.80885 0.0
C372 C 0.12812 0.32648 0.84313 0.0
C373 C 0.09241 0.33134 0.75885 0.0
O374 O 0.09408 0.31961 0.75854 0.0
O375 O 0.09405 0.33874 0.79596 0.0
O376 O 0.08463 0.28614 0.78238 0.0
O377 O 0.07521 0.29274 0.84132 0.0
O378 O 0.46611 0.02201 0.99526 0.0
Cd379 Cd 0.44737 0.02525 0.99019 0.0
Cd380 Cd 0.46793 0.0518 0.03374 0.0
O381 O 0.48417 0.04547 0.01529 0.0
O382 O 0.43422 1.01087 0.94051 0.0
O383 O 0.44589 0.03624 0.93392 0.0
C384 C 0.43757 0.02278 0.91551 0.0
C385 C 0.46985 0.07597 0.03501 0.0
C386 C 0.4802 0.03169 1.00367 0.0
C387 C 0.43997 0.02814 0.08612 0.0
O388 O 0.45357 0.03959 0.08656 0.0
O389 O 0.43408 0.02078 0.04902 0.0
O390 O 0.4781 0.07277 0.06206 0.0
O391 O 0.46219 0.06622 1.00265 0.0
O392 O 1.00973 0.45029 0.99177 0.0
Cd393 Cd 1.00703 0.42855 0.98548 0.0
Cd394 Cd 0.98037 0.4218 0.03226 0.0
O395 O 0.98651 0.44447 0.01586 0.0
O396 O 0.0215 0.43048 0.93526 0.0
O397 O 0.99616 0.41606 0.92901 0.0
C398 C 1.00963 0.42163 0.91038 0.0
C399 C 0.95589 0.39986 0.03637 0.0
C400 C 1.00005 0.45445 1.00269 0.0
C401 C 1.00506 0.41784 0.08083 0.0
O402 O 0.99325 0.41937 0.0826 0.0
O403 O 1.01235 0.41995 0.04327 0.0
O404 O 0.95993 0.41136 0.06391 0.0
O405 O 0.96496 0.40171 1.00228 0.0
O406 O 0.58018 0.56437 0.99466 0.0
Cd407 Cd 0.60215 0.58324 0.99087 0.0
Cd408 Cd 0.60814 0.5628 0.03475 0.0
O409 O 0.58566 0.54642 0.01527 0.0
O410 O 0.60097 0.59646 0.94144 0.0
O411 O 0.61491 0.58504 0.93512 0.0
C412 C 0.60973 0.59332 0.9167 0.0
C413 C 0.6307 0.56139 0.03594 0.0
C414 C 0.57583 0.55031 1.00295 0.0
C415 C 0.61195 0.59052 0.08735 0.0
O416 O 0.6099 0.57696 0.08778 0.0
O417 O 0.61061 0.59641 0.05011 0.0
O418 O 0.61929 0.55294 0.06283 0.0
O419 O 0.62844 0.56901 1.00384 0.0
O420 O 1.01043 0.56516 0.50455 0.0
Cd421 Cd 1.00722 0.58394 0.50316 0.0
Cd422 Cd 0.98075 0.56305 0.54009 0.0
O423 O 0.98622 0.54694 0.51434 0.0
O424 O 0.02243 0.5984 0.4571 0.0
O425 O 0.99717 0.58648 0.44646 0.0
C426 C 1.01089 0.59532 0.43052 0.0
C427 C 0.95984 0.56678 0.53211 0.0
C428 C 1.00026 0.55094 0.50635 0.0
C429 C 1.00276 0.58807 0.60125 0.0
O430 O 0.99206 0.5741 0.5988 0.0
O431 O 1.00983 0.59534 0.56508 0.0
O432 O 0.95854 0.55514 0.55517 0.0
O433 O 0.97222 0.57476 0.50804 0.0
O434 O 0.46341 0.44984 0.50442 0.0
Cd435 Cd 0.44424 0.42811 0.49948 0.0
Cd436 Cd 0.46475 0.42134 0.54068 0.0
O437 O 0.4812 0.44374 0.52146 0.0
O438 O 0.43106 0.43008 0.45129 0.0
O439 O 0.44211 0.4159 0.44205 0.0
C440 C 0.43403 0.42152 0.42498 0.0
C441 C 0.46631 0.39888 0.54102 0.0
C442 C 0.47749 0.45384 0.51113 0.0
C443 C 0.43737 0.4175 0.59543 0.0
O444 O 0.4509 0.41948 0.59472 0.0
O445 O 0.4313 0.41915 0.55895 0.0
O446 O 0.47484 0.41029 0.56783 0.0
O447 O 0.45849 0.40107 0.50941 0.0
O448 O 0.58043 0.02074 0.49832 0.0
Cd449 Cd 0.60201 0.02293 0.49332 0.0
Cd450 Cd 0.60921 0.04994 0.53781 0.0
O451 O 0.58685 0.04442 0.51908 0.0
O452 O 0.5998 1.00795 0.44444 0.0
O453 O 0.61458 0.03318 0.43656 0.0
C454 C 0.60877 0.01954 0.4189 0.0
C455 C 0.63177 0.07395 0.54081 0.0
C456 C 0.57662 0.03082 0.50704 0.0
C457 C 0.61224 0.02527 0.58934 0.0
O458 O 0.61079 0.03713 0.59003 0.0
O459 O 0.61037 0.01787 0.5521 0.0
O460 O 0.62027 0.07069 0.56759 0.0
O461 O 0.62965 0.06437 0.50793 0.0
O462 O 0.23912 0.3369 0.34052 0.0
Cd463 Cd 0.25818 0.33416 0.34597 0.0
Cd464 Cd 0.23768 0.30701 0.30461 0.0
O465 O 0.22128 0.31298 0.32397 0.0
O466 O 0.27128 0.34909 0.39475 0.0
O467 O 0.26 0.32381 0.40323 0.0
C468 C 0.26813 0.33744 0.42075 0.0
C469 C 0.23587 0.28287 0.30335 0.0
C470 C 0.22504 0.32683 0.33394 0.0
C471 C 0.26515 0.33053 0.25013 0.0
O472 O 0.25154 0.31909 0.25066 0.0
O473 O 0.27125 0.3381 0.2868 0.0
O474 O 0.22742 0.28596 0.27683 0.0
O475 O 0.24376 0.29275 0.33519 0.0
O476 O 0.69315 0.90629 0.34832 0.0
Cd477 Cd 0.6964 0.92829 0.35054 0.0
Cd478 Cd 0.72296 0.9341 0.31341 0.0
O479 O 0.71733 0.91228 0.33758 0.0
O480 O 0.68129 0.92746 0.39708 0.0
O481 O 0.70656 0.94078 0.40736 0.0
C482 C 0.69287 0.93588 0.42356 0.0
C483 C 0.74432 0.95848 0.32126 0.0
C484 C 0.70329 0.90222 0.34559 0.0
C485 C 0.70087 0.93731 0.25274 0.0
O486 O 0.71174 0.93428 0.25501 0.0
O487 O 0.69363 0.93715 0.2889 0.0
O488 O 0.74521 0.94799 0.2978 0.0
O489 O 0.73208 0.95435 0.34578 0.0
O490 O 0.12318 0.79316 0.35095 0.0
Cd491 Cd 0.10165 0.77377 0.35685 0.0
Cd492 Cd 0.09427 0.79345 0.31104 0.0
O493 O 0.11679 0.8103 0.3284 0.0
O494 O 0.10392 0.7613 0.40673 0.0
O495 O 0.08909 0.77171 0.41345 0.0
C496 C 0.09494 0.76403 0.43183 0.0
C497 C 0.072 0.79541 0.30661 0.0
C498 C 0.12702 0.80699 0.34097 0.0
C499 C 0.09107 0.76533 0.26121 0.0
O500 O 0.09231 0.77855 0.26003 0.0
O501 O 0.09327 0.76007 0.29852 0.0
O502 O 0.08356 0.80323 0.2796 0.0
O503 O 0.07394 0.78814 0.34045 0.0
H504 H 0.37243 0.09904 0.5435 0.0
H505 H 0.3339 0.07946 0.29308 0.0
H506 H 0.32326 0.07438 0.52015 0.0
H507 H 0.38306 0.10482 0.31655 0.0
H508 H 0.32984 0.07471 0.37576 0.0
H509 H 0.37653 0.09845 0.46082 0.0
C510 C 0.36247 0.09332 0.52108 0.0
C511 C 0.34746 0.08685 0.53889 0.0
C512 C 0.34153 0.08117 0.36284 0.0
C513 C 0.35211 0.08627 0.44378 0.0
C514 C 0.34387 0.08387 0.31552 0.0
C515 C 0.35886 0.09266 0.29775 0.0
C516 C 0.35425 0.08736 0.39285 0.0
C517 C 0.3713 0.09803 0.32864 0.0
C518 C 0.36483 0.09302 0.47376 0.0
C519 C 0.33503 0.07956 0.50803 0.0
N520 N 0.36872 0.09542 0.37466 0.0
N521 N 0.33763 0.0796 0.462 0.0
H522 H 0.92828 0.27784 0.54372 0.0
H523 H 0.92787 0.28868 0.30756 0.0
H524 H 0.95581 0.25674 0.5152 0.0
H525 H 0.94717 0.25878 0.29712 0.0
H526 H 0.93197 0.29013 0.3904 0.0
H527 H 0.92823 0.28324 0.46247 0.0
C528 C 0.93458 0.27459 0.52034 0.0
C529 C 0.94201 0.26676 0.53647 0.0
C530 C 0.93522 0.28311 0.37048 0.0
C531 C 0.9422 0.2731 0.4421 0.0
C532 C 0.93302 0.28245 0.32276 0.0
C533 C 0.937 0.27345 0.29529 0.0
C534 C 0.94122 0.27449 0.39117 0.0
C535 C 0.94381 0.26578 0.31689 0.0
C536 C 0.93463 0.27776 0.47348 0.0
C537 C 0.94992 0.26279 0.5044 0.0
N538 N 0.94555 0.26635 0.36345 0.0
N539 N 0.94967 0.26587 0.4588 0.0
H540 H 0.75149 0.6576 0.54093 0.0
H541 H 0.76992 0.69605 0.29071 0.0
H542 H 0.77512 0.70673 0.51789 0.0
H543 H 0.74691 0.64696 0.31396 0.0
H544 H 0.76911 0.70006 0.37339 0.0
H545 H 0.74694 0.65344 0.45818 0.0
C546 C 0.75557 0.66753 0.51855 0.0
C547 C 0.76381 0.68256 0.53647 0.0
C548 C 0.76409 0.6884 0.36042 0.0
C549 C 0.75874 0.67783 0.44129 0.0
C550 C 0.7645 0.68608 0.31311 0.0
C551 C 0.75857 0.67113 0.29528 0.0
C552 C 0.75775 0.67569 0.39036 0.0
C553 C 0.75167 0.65868 0.32609 0.0
C554 C 0.75299 0.66513 0.4712 0.0
C555 C 0.76876 0.69495 0.50567 0.0
N556 N 0.75159 0.66125 0.37211 0.0
N557 N 0.76628 0.69231 0.4596 0.0
H558 H 0.07989 0.31386 0.99488 0.0
H559 H 0.10898 0.37458 0.20249 0.0
H560 H 0.1039 0.36322 0.97667 0.0
H561 H 0.08663 0.32534 0.22207 0.0
H562 H 0.10384 0.3704 0.11993 0.0
H563 H 0.07891 0.31759 0.07792 0.0
C564 C 0.08475 0.32547 0.00821 0.0
C565 C 0.09211 0.33824 0.97873 0.0
C566 C 0.0999 0.36049 0.14231 0.0
C567 C 0.09115 0.34261 0.07385 0.0
C568 C 0.10279 0.36287 0.18956 0.0
C569 C 0.09836 0.3503 0.21931 0.0
C570 C 0.09257 0.34542 0.12447 0.0
C571 C 0.09034 0.33539 0.20046 0.0
C572 C 0.08424 0.3276 0.05568 0.0
C573 C 0.09821 0.35302 0.99804 0.0
N574 N 0.08785 0.33337 0.15424 0.0
N575 N 0.09772 0.35479 0.04431 0.0
H576 H 0.65526 0.73898 0.20342 0.0
H577 H 0.71598 0.77065 0.9961 0.0
H578 H 0.70456 0.76537 0.22327 0.0
H579 H 0.66659 0.74531 0.97754 0.0
H580 H 0.71224 0.76594 0.07912 0.0
H581 H 0.65938 0.73822 0.12077 0.0
C582 C 0.66696 0.74443 0.19052 0.0
C583 C 0.67957 0.75236 0.22038 0.0
C584 C 0.70222 0.76126 0.05681 0.0
C585 C 0.68439 0.75169 0.12547 0.0
C586 C 0.70436 0.76391 0.00935 0.0
C587 C 0.69158 0.75849 0.97977 0.0
C588 C 0.6872 0.75315 0.07488 0.0
C589 C 0.67679 0.74982 0.99899 0.0
C590 C 0.66931 0.74404 0.14323 0.0
C591 C 0.69448 0.75919 0.20157 0.0
N592 N 0.67501 0.74754 0.04525 0.0
N593 N 0.69647 0.75883 0.15533 0.0
H594 H 0.26401 0.94626 0.21718 0.0
H595 H 0.28504 0.92815 0.96822 0.0
H596 H 0.28944 0.92254 0.19482 0.0
H597 H 0.25868 0.95096 0.98968 0.0
H598 H 0.28975 0.92918 0.05097 0.0
H599 H 0.26497 0.95124 0.1345 0.0
C600 C 0.27 0.94228 0.195 0.0
C601 C 0.27654 0.93384 0.21302 0.0
C602 C 0.28308 0.93412 0.03762 0.0
C603 C 0.27754 0.93939 0.11805 0.0
C604 C 0.2804 0.93356 0.99026 0.0
C605 C 0.27132 0.93935 0.97193 0.0
C606 C 0.27657 0.94043 0.06711 0.0
C607 C 0.26568 0.94629 1.00226 0.0
C608 C 0.2705 0.9451 0.14771 0.0
C609 C 0.28416 0.92902 0.18252 0.0
N610 N 0.26826 0.94649 0.04838 0.0
N611 N 0.28432 0.93173 0.13655 0.0
H612 H 0.70419 0.94535 0.71779 0.0
H613 H 0.66548 0.92667 0.46783 0.0
H614 H 0.65502 0.92053 0.69451 0.0
H615 H 0.71465 0.95058 0.49103 0.0
H616 H 0.66148 0.92754 0.55049 0.0
H617 H 0.70823 0.95056 0.63527 0.0
C618 C 0.69422 0.94118 0.69544 0.0
C619 C 0.67924 0.93236 0.71315 0.0
C620 C 0.67315 0.93276 0.5375 0.0
C621 C 0.6838 0.93817 0.61831 0.0
C622 C 0.67546 0.93231 0.4902 0.0
C623 C 0.69043 0.93844 0.47241 0.0
C624 C 0.6859 0.93933 0.56742 0.0
C625 C 0.7029 0.94563 0.50317 0.0
C626 C 0.69655 0.94413 0.64823 0.0
C627 C 0.66678 0.9273 0.68243 0.0
N628 N 0.70035 0.94573 0.54916 0.0
N629 N 0.66934 0.93014 0.63652 0.0
H630 H 0.07973 0.77105 0.49774 0.0
H631 H 0.1098 0.73997 0.70461 0.0
H632 H 0.10504 0.74705 0.47875 0.0
H633 H 0.08632 0.76573 0.72497 0.0
H634 H 0.105 0.73942 0.62191 0.0
H635 H 0.07895 0.76627 0.58072 0.0
C636 C 0.08494 0.7646 0.51089 0.0
C637 C 0.09256 0.75956 0.48118 0.0
C638 C 0.10074 0.74505 0.64448 0.0
C639 C 0.09181 0.75414 0.57626 0.0
C640 C 0.10344 0.74533 0.69182 0.0
C641 C 0.09857 0.75302 0.72186 0.0
C642 C 0.09317 0.75258 0.62685 0.0
C643 C 0.09036 0.75973 0.70315 0.0
C644 C 0.08453 0.76191 0.55832 0.0
C645 C 0.09911 0.75125 0.50028 0.0
N646 N 0.08806 0.75949 0.65687 0.0
N647 N 0.09869 0.74892 0.54652 0.0
H648 H 0.26107 0.31542 0.48737 0.0
H649 H 0.29067 0.37672 0.69384 0.0
H650 H 0.28488 0.36469 0.46725 0.0
H651 H 0.26566 0.32744 0.71384 0.0
H652 H 0.2915 0.37258 0.61107 0.0
H653 H 0.26548 0.31961 0.57036 0.0
C654 C 0.26741 0.32712 0.50028 0.0
C655 C 0.2725 0.33971 0.47022 0.0
C656 C 0.28597 0.36267 0.63362 0.0
C657 C 0.27748 0.34461 0.5654 0.0
C658 C 0.28553 0.36503 0.68096 0.0
C659 C 0.27798 0.35241 0.7109 0.0
C660 C 0.27877 0.34758 0.61596 0.0
C661 C 0.27153 0.33753 0.69211 0.0
C662 C 0.26988 0.32951 0.54775 0.0
C663 C 0.28065 0.35462 0.48906 0.0
N664 N 0.27196 0.33553 0.64591 0.0
N665 N 0.28277 0.35665 0.53537 0.0
H666 H 0.92849 0.64993 0.81163 0.0
H667 H 0.95765 0.71053 0.01948 0.0
H668 H 0.95086 0.69918 0.7924 0.0
H669 H 0.93413 0.66118 0.03762 0.0
H670 H 0.95855 0.70685 0.93641 0.0
H671 H 0.93374 0.65405 0.89417 0.0
C672 C 0.9347 0.66163 0.82463 0.0
C673 C 0.93911 0.67422 0.79499 0.0
C674 C 0.95335 0.69683 0.95863 0.0
C675 C 0.94503 0.67904 0.88979 0.0
C676 C 0.95289 0.69893 0.00613 0.0
C677 C 0.94568 0.68614 0.0356 0.0
C678 C 0.94653 0.68183 0.94041 0.0
C679 C 0.9397 0.67138 0.01625 0.0
C680 C 0.93766 0.66398 0.87187 0.0
C681 C 0.94716 0.68912 0.81392 0.0
N682 N 0.94013 0.66964 0.96995 0.0
N683 N 0.94972 0.6911 0.86012 0.0
H684 H 0.32077 0.25324 0.02781 0.0
H685 H 0.38147 0.28403 0.82038 0.0
H686 H 0.37015 0.27783 0.04692 0.0
H687 H 0.3321 0.25865 0.8013 0.0
H688 H 0.37755 0.28487 0.90325 0.0
H689 H 0.32466 0.25809 0.94497 0.0
C690 C 0.33243 0.25985 0.01472 0.0
C691 C 0.34515 0.26502 0.04441 0.0
C692 C 0.36757 0.27927 0.88088 0.0
C693 C 0.3497 0.27049 0.94941 0.0
C694 C 0.36981 0.27882 0.83349 0.0
C695 C 0.35711 0.27114 0.8038 0.0
C696 C 0.35251 0.27193 0.89882 0.0
C697 C 0.34225 0.26461 0.82285 0.0
C698 C 0.33465 0.26258 0.96734 0.0
C699 C 0.35999 0.27353 0.02538 0.0
N700 N 0.34037 0.26503 0.8691 0.0
N701 N 0.36185 0.27587 0.97913 0.0
H702 H 0.7471 0.10355 0.83166 0.0
H703 H 0.77603 0.07211 0.04018 0.0
H704 H 0.77198 0.07904 0.81437 0.0
H705 H 0.75277 0.09814 0.05909 0.0
H706 H 0.77125 0.07132 0.95744 0.0
H707 H 0.74575 0.09857 0.91461 0.0
C708 C 0.75208 0.09694 0.84517 0.0
C709 C 0.75979 0.09184 0.816 0.0
C710 C 0.76703 0.07706 0.9797 0.0
C711 C 0.75839 0.08619 0.911 0.0
C712 C 0.76971 0.07747 0.02705 0.0
C713 C 0.76492 0.08533 0.05667 0.0
C714 C 0.75956 0.08463 0.96164 0.0
C715 C 0.75675 0.09202 0.03758 0.0
C716 C 0.75135 0.09414 0.89258 0.0
C717 C 0.76603 0.08332 0.83551 0.0
N718 N 0.75448 0.09167 0.99126 0.0
N719 N 0.76531 0.08088 0.88172 0.0
H720 H 0.98709 0.40669 0.8448 0.0
H721 H 0.04779 0.43553 0.63732 0.0
H722 H 0.0365 0.43107 0.86314 0.0
H723 H 0.99849 0.4126 0.6174 0.0
H724 H 0.04367 0.43084 0.72003 0.0
H725 H 0.99082 0.40566 0.76177 0.0
C726 C 0.99872 0.41164 0.8315 0.0
C727 C 1.0115 0.41909 0.86102 0.0
C728 C 0.03373 0.42668 0.69756 0.0
C729 C 1.01586 0.41806 0.76592 0.0
C730 C 0.03609 0.42931 0.65022 0.0
C731 C 0.02348 0.42457 0.62031 0.0
C732 C 0.01866 0.4193 0.71532 0.0
C733 C 1.00857 0.41653 0.63913 0.0
C734 C 1.00084 0.41109 0.78404 0.0
C735 C 0.02629 0.42531 0.84174 0.0
N736 N 1.00658 0.4143 0.68543 0.0
N737 N 0.02805 0.42476 0.7955 0.0
H738 H 0.59557 0.6173 0.64368 0.0
H739 H 0.6245 0.58554 0.85136 0.0
H740 H 0.61782 0.59032 0.6243 0.0
H741 H 0.6009 0.61128 0.86956 0.0
H742 H 0.6255 0.59025 0.76833 0.0
H743 H 0.60079 0.61834 0.72623 0.0
C744 C 0.60176 0.61178 0.65666 0.0
C745 C 0.60613 0.60359 0.62698 0.0
C746 C 0.62026 0.59502 0.79056 0.0
C747 C 0.61201 0.60459 0.72177 0.0
C748 C 0.61974 0.59238 0.83803 0.0
C749 C 0.61248 0.5979 0.86749 0.0
C750 C 0.61346 0.60322 0.77238 0.0
C751 C 0.6065 0.60668 0.84819 0.0
C752 C 0.6047 0.61234 0.70389 0.0
C753 C 0.61415 0.59669 0.64586 0.0
N754 N 0.607 0.60895 0.80191 0.0
N755 N 0.61668 0.59721 0.69206 0.0
H756 H 0.44566 0.04533 0.84991 0.0
H757 H 0.41345 0.98462 0.64223 0.0
H758 H 0.41962 0.99599 0.86823 0.0
H759 H 0.44068 0.03384 0.62272 0.0
H760 H 0.41262 0.98882 0.72482 0.0
H761 H 0.44104 0.04162 0.76681 0.0
C762 C 0.43878 0.03373 0.83658 0.0
C763 C 0.43313 0.02095 0.86613 0.0
C764 C 0.41864 0.99872 0.70245 0.0
C765 C 0.42791 0.0166 0.77092 0.0
C766 C 0.41907 0.99633 0.65518 0.0
C767 C 0.42726 1.00889 0.62544 0.0
C768 C 0.4265 0.01379 0.7203 0.0
C769 C 0.4343 0.0238 0.64432 0.0
C770 C 0.43619 0.03161 0.78907 0.0
C771 C 0.4243 1.00619 0.84682 0.0
N772 N 0.43389 0.02583 0.69054 0.0
N773 N 0.42209 1.00443 0.80051 0.0
H774 H 0.59905 0.99225 0.37375 0.0
H775 H 0.6185 0.03109 0.1242 0.0
H776 H 0.62354 0.04143 0.35174 0.0
H777 H 0.59343 0.98195 0.14727 0.0
H778 H 0.62344 0.03513 0.20693 0.0
H779 H 0.59987 0.98835 0.29109 0.0
C780 C 0.60478 1.00225 0.35161 0.0
C781 C 0.61112 0.0172 0.36977 0.0
C782 C 0.61701 0.02346 0.19387 0.0
C783 C 0.61198 0.01279 0.27466 0.0
C784 C 0.61422 0.02113 0.14654 0.0
C785 C 0.60541 1.00615 0.1287 0.0
C786 C 0.61092 1.01072 0.22373 0.0
C787 C 0.6002 0.99371 0.15942 0.0
C788 C 0.60522 1.00001 0.3043 0.0
C789 C 0.61845 0.02971 0.3393 0.0
N790 N 0.6029 0.99628 0.2054 0.0
N791 N 0.61853 0.02722 0.29322 0.0
H792 H 0.03835 0.61329 0.38631 0.0
H793 H 0.99945 0.59342 0.13672 0.0
H794 H 0.98917 0.58865 0.36323 0.0
H795 H 0.04864 0.61718 0.15953 0.0
H796 H 0.99556 0.59489 0.21915 0.0
H797 H 0.04237 0.61814 0.30363 0.0
C798 C 0.02838 0.60909 0.36397 0.0
C799 C 1.01339 0.60041 0.38177 0.0
C800 C 1.00722 0.59994 0.20612 0.0
C801 C 1.01794 0.60579 0.28679 0.0
C802 C 1.00946 0.59914 0.15896 0.0
C803 C 0.0244 0.60506 0.14115 0.0
C804 C 0.02 0.60663 0.23591 0.0
C805 C 0.03692 0.61239 0.17171 0.0
C806 C 0.03069 0.61183 0.31667 0.0
C807 C 1.00093 0.59531 0.35107 0.0
N808 N 0.03443 0.61282 0.21761 0.0
N809 N 1.00348 0.59793 0.30508 0.0
H810 H 0.43643 0.41253 0.13011 0.0
H811 H 0.41696 0.4319 0.37976 0.0
H812 H 0.41336 0.43858 0.15259 0.0
H813 H 0.44108 0.40687 0.35734 0.0
H814 H 0.41265 0.43163 0.29687 0.0
H815 H 0.43533 0.40756 0.21276 0.0
C816 C 0.43095 0.41705 0.15233 0.0
C817 C 0.42507 0.4261 0.1343 0.0
C818 C 0.41875 0.42605 0.31006 0.0
C819 C 0.42391 0.42054 0.22936 0.0
C820 C 0.42119 0.42616 0.35749 0.0
C821 C 0.42951 0.41949 0.37564 0.0
C822 C 0.42472 0.41927 0.28031 0.0
C823 C 0.43466 0.4122 0.34497 0.0
C824 C 0.43036 0.41423 0.19962 0.0
C825 C 0.41808 0.4316 0.16489 0.0
N826 N 0.43231 0.41242 0.29883 0.0
N827 N 0.41783 0.42885 0.2109 0.0
H828 H 0.31661 0.18559 0.19098 0.0
H829 H 0.38869 0.17246 0.15122 0.0
H830 H 0.36227 0.22196 0.15461 0.0
H831 H 0.34299 0.13611 0.18734 0.0
H832 H 0.3793 0.19084 0.15287 0.0
H833 H 0.32601 0.16723 0.18928 0.0
C834 C 0.32857 0.18972 0.1824 0.0
C835 C 0.33863 0.20538 0.17297 0.0
C836 C 0.37134 0.17883 0.16053 0.0
C837 C 0.34953 0.18441 0.17126 0.0
C838 C 0.37672 0.16834 0.15974 0.0
C839 C 0.36665 0.15267 0.16912 0.0
C840 C 0.35577 0.17366 0.17077 0.0
C841 C 0.35122 0.14804 0.17979 0.0
C842 C 0.33396 0.17923 0.18157 0.0
C843 C 0.35405 0.21002 0.1622 0.0
N844 N 0.34628 0.15845 0.18024 0.0
N845 N 0.35901 0.19963 0.16174 0.0
H846 H 0.8081 0.14571 0.15805 0.0
H847 H 0.8959 0.21324 0.18348 0.0
H848 H 0.84568 0.13758 0.1879 0.0
H849 H 0.85855 0.22134 0.14966 0.0
H850 H 0.87769 0.18564 0.18561 0.0
H851 H 0.82637 0.17329 0.15418 0.0
C852 C 0.82022 0.14969 0.16358 0.0
C853 C 0.82531 0.13921 0.17344 0.0
C854 C 0.87344 0.19342 0.17778 0.0
C855 C 0.8464 0.17102 0.16929 0.0
C856 C 0.88385 0.20925 0.17664 0.0
C857 C 0.8788 0.21974 0.16635 0.0
C858 C 0.85777 0.18788 0.16859 0.0
C859 C 0.863 0.21375 0.15782 0.0
C860 C 0.83066 0.1655 0.16142 0.0
C861 C 0.84119 0.14516 0.18015 0.0
N862 N 0.85307 0.19824 0.15909 0.0
N863 N 0.85114 0.16066 0.17812 0.0
H864 H 0.88557 0.66858 0.1436 0.0
H865 H 0.8181 0.68777 0.18871 0.0
H866 H 0.89388 0.71298 0.19045 0.0
H867 H 0.80986 0.643 0.1461 0.0
H868 H 0.84574 0.69715 0.18953 0.0
H869 H 0.85796 0.65924 0.14327 0.0
C870 C 0.88163 0.67644 0.15365 0.0
C871 C 0.89218 0.69165 0.16712 0.0
C872 C 0.83791 0.68526 0.18012 0.0
C873 C 0.8603 0.68086 0.167 0.0
C874 C 0.82206 0.67985 0.1797 0.0
C875 C 0.81153 0.66452 0.16724 0.0
C876 C 0.84342 0.67534 0.16788 0.0
C877 C 0.81748 0.65487 0.156 0.0
C878 C 0.86579 0.67104 0.15355 0.0
C879 C 0.88624 0.7012 0.17972 0.0
N880 N 0.833 0.66046 0.15646 0.0
N881 N 0.87072 0.69564 0.17943 0.0
H882 H 0.17965 0.38128 0.35135 0.0
H883 H 0.19365 0.30953 0.31838 0.0
H884 H 0.14322 0.33483 0.32315 0.0
H885 H 0.22963 0.35556 0.35328 0.0
H886 H 0.17503 0.31864 0.31835 0.0
H887 H 0.1983 0.37225 0.34926 0.0
C888 C 0.17557 0.36923 0.34437 0.0
C889 C 0.1598 0.35883 0.33753 0.0
C890 C 0.18701 0.32673 0.32609 0.0
C891 C 0.1811 0.34835 0.33544 0.0
C892 C 0.19764 0.32151 0.32624 0.0
C893 C 0.21327 0.33175 0.33587 0.0
C894 C 0.19202 0.34232 0.33553 0.0
C895 C 0.21773 0.34719 0.34566 0.0
C896 C 0.18622 0.36405 0.34338 0.0
C897 C 0.15523 0.3433 0.32878 0.0
N898 N 0.2072 0.35198 0.34514 0.0
N899 N 0.16579 0.33855 0.32811 0.0
H900 H 0.69591 0.81228 0.32684 0.0
H901 H 0.67453 0.87843 0.36649 0.0
H902 H 0.65006 0.80303 0.36011 0.0
H903 H 0.72023 0.88775 0.33074 0.0
H904 H 0.66554 0.85091 0.36536 0.0
H905 H 0.70494 0.83983 0.3277 0.0
C906 C 0.68768 0.81601 0.33409 0.0
C907 C 0.67216 0.80523 0.34351 0.0
C908 C 0.67755 0.85894 0.35789 0.0
C909 C 0.68255 0.83698 0.34487 0.0
C910 C 0.68274 0.87472 0.35865 0.0
C911 C 0.69821 0.88552 0.34863 0.0
C912 C 0.68785 0.85378 0.34697 0.0
C913 C 0.70824 0.87991 0.33879 0.0
C914 C 0.69289 0.8318 0.33467 0.0
C915 C 0.6621 0.81086 0.35256 0.0
N916 N 0.70287 0.86444 0.33808 0.0
N917 N 0.66748 0.82633 0.35318 0.0
H918 H 0.22706 0.85308 0.35405 0.0
H919 H 0.14087 0.83784 0.31776 0.0
H920 H 0.21671 0.88864 0.31672 0.0
H921 H 0.15139 0.80325 0.36484 0.0
H922 H 0.1686 0.85651 0.31501 0.0
H923 H 0.19935 0.83436 0.35452 0.0
C924 C 0.219 0.85694 0.34556 0.0
C925 C 0.22429 0.8725 0.33546 0.0
C926 C 0.16481 0.84483 0.32604 0.0
C927 C 0.19248 0.85113 0.33631 0.0
C928 C 0.14896 0.83417 0.32777 0.0
C929 C 0.1437 0.81891 0.3416 0.0
C930 C 0.17552 0.8402 0.33806 0.0
C931 C 0.15481 0.81485 0.35397 0.0
C932 C 0.20316 0.84626 0.34607 0.0
C933 C 0.21323 0.8768 0.3249 0.0
N934 N 0.17012 0.82539 0.3518 0.0
N935 N 0.19791 0.86622 0.32572 0.0
H936 H 0.69435 0.88742 0.81298 0.0
H937 H 0.6746 0.80112 0.86743 0.0
H938 H 0.64947 0.85151 0.85726 0.0
H939 H 0.71892 0.83646 0.81739 0.0
H940 H 0.66539 0.81946 0.8647 0.0
H941 H 0.70343 0.86895 0.81382 0.0
C942 C 0.68634 0.87561 0.82261 0.0
C943 C 0.67108 0.87106 0.83518 0.0
C944 C 0.67714 0.82325 0.85438 0.0
C945 C 0.68156 0.84977 0.83656 0.0
C946 C 0.68247 0.81277 0.85605 0.0
C947 C 0.69762 0.8172 0.8426 0.0
C948 C 0.68698 0.83836 0.83915 0.0
C949 C 0.70719 0.8325 0.82819 0.0
C950 C 0.69158 0.86506 0.82316 0.0
C951 C 0.66129 0.85556 0.84721 0.0
N952 N 0.7017 0.8425 0.82679 0.0
N953 N 0.66672 0.84551 0.84782 0.0
H954 H 0.19198 0.88878 0.82074 0.0
H955 H 0.17914 0.80351 0.85627 0.0
H956 H 0.22828 0.87948 0.85812 0.0
H957 H 0.14235 0.81283 0.82631 0.0
H958 H 0.19751 0.83129 0.85409 0.0
H959 H 0.17367 0.86097 0.82095 0.0
C960 C 0.1961 0.88094 0.82921 0.0
C961 C 0.21173 0.88656 0.83946 0.0
C962 C 0.18542 0.82724 0.84785 0.0
C963 C 0.19084 0.85464 0.83936 0.0
C964 C 0.17493 0.81135 0.84889 0.0
C965 C 0.15914 0.80576 0.84159 0.0
C966 C 0.18011 0.83764 0.83937 0.0
C967 C 0.15438 0.81655 0.83233 0.0
C968 C 0.18565 0.86504 0.82919 0.0
C969 C 0.21637 0.87576 0.85001 0.0
N970 N 0.16478 0.8319 0.8316 0.0
N971 N 0.20601 0.8604 0.84959 0.0
H972 H 0.14254 0.30994 0.82111 0.0
H973 H 0.22796 0.38126 0.86638 0.0
H974 H 0.152 0.35455 0.86979 0.0
H975 H 0.21861 0.33636 0.82102 0.0
H976 H 0.20015 0.37179 0.86657 0.0
H977 H 0.17035 0.31934 0.82085 0.0
C978 C 0.15042 0.32165 0.83202 0.0
C979 C 0.14484 0.33143 0.84546 0.0
C980 C 0.2042 0.36403 0.85648 0.0
C981 C 0.17676 0.34235 0.84486 0.0
C982 C 0.2201 0.36946 0.85619 0.0
C983 C 0.22571 0.35963 0.84371 0.0
C984 C 0.19378 0.34864 0.84418 0.0
C985 C 0.21489 0.3444 0.83099 0.0
C986 C 0.16632 0.32705 0.83171 0.0
C987 C 0.15568 0.34655 0.85907 0.0
N988 N 0.19951 0.3394 0.83164 0.0
N989 N 0.17104 0.35152 0.85831 0.0
H990 H 0.84297 0.71423 0.69389 0.0
H991 H 0.85797 0.64316 0.65972 0.0
H992 H 0.80776 0.6685 0.65324 0.0
H993 H 0.89395 0.6895 0.69131 0.0
H994 H 0.83918 0.65202 0.66068 0.0
H995 H 0.86176 0.70533 0.69522 0.0
C996 C 0.83919 0.70236 0.68502 0.0
C997 C 0.82373 0.69214 0.67341 0.0
C998 C 0.85119 0.66024 0.66756 0.0
C999 C 0.84515 0.68181 0.67527 0.0
C1000 C 0.86191 0.65515 0.66723 0.0
C1001 C 0.8776 0.66557 0.67532 0.0
C1002 C 0.85615 0.67587 0.67613 0.0
C1003 C 0.88201 0.68102 0.6847 0.0
C1004 C 0.84991 0.69726 0.68592 0.0
C1005 C 0.81953 0.67685 0.6624 0.0
N1006 N 0.87138 0.68569 0.68473 0.0
N1007 N 0.83013 0.67217 0.66371 0.0
H1008 H 0.34098 0.21141 0.69619 0.0
H1009 H 0.36212 0.14547 0.64799 0.0
H1010 H 0.38594 0.22078 0.65139 0.0
H1011 H 0.31727 0.13603 0.69416 0.0
H1012 H 0.37088 0.17295 0.64839 0.0
H1013 H 0.3322 0.18391 0.69607 0.0
C1014 C 0.34907 0.20772 0.6865 0.0
C1015 C 0.36428 0.21852 0.67371 0.0
C1016 C 0.35911 0.1649 0.65835 0.0
C1017 C 0.35415 0.18681 0.67327 0.0
C1018 C 0.35405 0.14914 0.65805 0.0
C1019 C 0.33888 0.13831 0.67112 0.0
C1020 C 0.34899 0.17003 0.67186 0.0
C1021 C 0.32903 0.14389 0.68374 0.0
C1022 C 0.344 0.19195 0.68637 0.0
C1023 C 0.37415 0.21293 0.66158 0.0
N1024 N 0.33426 0.15934 0.68389 0.0
N1025 N 0.36891 0.19748 0.66154 0.0
H1026 H 0.8093 0.17016 0.65129 0.0
H1027 H 0.89543 0.1866 0.69851 0.0
H1028 H 0.81964 0.13627 0.70596 0.0
H1029 H 0.88501 0.22057 0.64499 0.0
H1030 H 0.86773 0.16785 0.70047 0.0
H1031 H 0.837 0.18884 0.64905 0.0
C1032 C 0.81735 0.16666 0.66312 0.0
C1033 C 0.81204 0.15157 0.67882 0.0
C1034 C 0.87152 0.17941 0.68817 0.0
C1035 C 0.84386 0.1729 0.67597 0.0
C1036 C 0.88737 0.19011 0.68687 0.0
C1037 C 0.89264 0.20523 0.67163 0.0
C1038 C 0.86083 0.18384 0.67415 0.0
C1039 C 0.88156 0.20908 0.65714 0.0
C1040 C 0.83319 0.17732 0.66166 0.0
C1041 C 0.82311 0.14773 0.69352 0.0
N1042 N 0.86626 0.1985 0.65886 0.0
N1043 N 0.83842 0.15828 0.69163 0.0
H1044 H 1.00702 0.46788 0.5137 0.0
H1045 H 0.02908 0.55605 0.4858 0.0
H1046 H 0.05317 0.50483 0.48505 0.0
H1047 H 0.98311 0.51935 0.51764 0.0
H1048 H 0.03791 0.53741 0.48416 0.0
H1049 H 0.99812 0.48649 0.51533 0.0
C1050 C 1.01534 0.47993 0.50796 0.0
C1051 C 0.03092 0.48476 0.49914 0.0
C1052 C 0.02588 0.53339 0.49139 0.0
C1053 C 0.02065 0.50621 0.50069 0.0
C1054 C 0.02078 0.54404 0.49222 0.0
C1055 C 1.00528 0.53931 0.50195 0.0
C1056 C 1.01546 0.5178 0.50037 0.0
C1057 C 0.99514 0.52356 0.50991 0.0
C1058 C 1.0102 0.49056 0.50881 0.0
C1059 C 0.04108 0.50055 0.49205 0.0
N1060 N 1.00042 0.51339 0.50907 0.0
N1061 N 0.03576 0.51069 0.49283 0.0
H1062 H 0.47302 0.47784 0.48876 0.0
H1063 H 0.56113 0.54332 0.52556 0.0
H1064 H 0.50879 0.46807 0.5288 0.0
H1065 H 0.5249 0.55299 0.49078 0.0
H1066 H 0.5422 0.51587 0.52748 0.0
H1067 H 0.4919 0.50527 0.48877 0.0
C1068 C 0.48487 0.48143 0.49741 0.0
C1069 C 0.48927 0.47052 0.50882 0.0
C1070 C 0.53835 0.52397 0.51959 0.0
C1071 C 0.51107 0.50219 0.50907 0.0
C1072 C 0.54917 0.5397 0.51856 0.0
C1073 C 0.54465 0.55057 0.50787 0.0
C1074 C 0.52282 0.51893 0.50974 0.0
C1075 C 0.52895 0.54509 0.49924 0.0
C1076 C 0.49566 0.49716 0.49751 0.0
C1077 C 0.50484 0.476 0.5197 0.0
N1078 N 0.51863 0.52967 0.50017 0.0
N1079 N 0.51515 0.49143 0.5196 0.0
H1080 H 0.56283 0.04813 0.52677 0.0
H1081 H 0.47661 0.97733 0.48937 0.0
H1082 H 0.55224 1.00258 0.48425 0.0
H1083 H 0.48713 0.02359 0.52238 0.0
H1084 H 0.50428 0.98612 0.49087 0.0
H1085 H 0.53513 0.03926 0.5275 0.0
C1086 C 0.55473 0.03631 0.51735 0.0
C1087 C 0.55996 0.02613 0.50538 0.0
C1088 C 0.50051 0.99433 0.49793 0.0
C1089 C 0.52818 0.01583 0.50657 0.0
C1090 C 0.48469 0.98929 0.49729 0.0
C1091 C 0.47947 0.99971 0.50563 0.0
C1092 C 0.51123 1.00992 0.50706 0.0
C1093 C 0.49056 0.01511 0.51555 0.0
C1094 C 0.5389 0.03123 0.51792 0.0
C1095 C 0.54884 1.0109 0.49369 0.0
N1096 N 0.50585 0.01973 0.51588 0.0
N1097 N 0.53355 1.00624 0.49469 0.0
H1098 H 0.47511 1.00313 0.97949 0.0
H1099 H 0.56175 0.02244 0.02683 0.0
H1100 H 0.51127 0.04771 0.02532 0.0
H1101 H 0.52489 0.97726 0.98838 0.0
H1102 H 0.5435 0.03182 0.02681 0.0
H1103 H 0.49326 0.99367 0.98161 0.0
C1104 C 0.4869 1.011 0.98982 0.0
C1105 C 0.49162 0.0263 1.00225 0.0
C1106 C 0.53936 0.01984 0.01857 0.0
C1107 C 0.51256 0.01538 1.00498 0.0
C1108 C 0.54978 0.01443 0.01864 0.0
C1109 C 0.54489 0.99899 0.00747 0.0
C1110 C 0.52386 1.00981 0.00704 0.0
C1111 C 0.52921 0.98922 0.99729 0.0
C1112 C 0.49726 1.00553 0.99115 0.0
C1113 C 0.50708 0.03586 0.01533 0.0
N1114 N 0.51929 0.99481 0.9971 0.0
N1115 N 0.51698 0.03024 0.01639 0.0
H1116 H 1.00912 0.54464 0.04147 0.0
H1117 H 0.02793 0.47828 0.97473 0.0
H1118 H 0.05346 0.55373 0.99141 0.0
H1119 H 0.98429 0.46906 0.03133 0.0
H1120 H 0.03725 0.50582 0.97971 0.0
H1121 H 0.99993 0.51706 0.03859 0.0
C1122 C 1.017 0.54087 0.03017 0.0
C1123 C 0.03213 0.55162 0.01656 0.0
C1124 C 0.02562 0.49781 0.99099 0.0
C1125 C 0.02152 0.51983 0.01277 0.0
C1126 C 0.02023 0.48201 0.98801 0.0
C1127 C 1.00524 0.47122 1.00265 0.0
C1128 C 1.01601 0.50301 0.00873 0.0
C1129 C 0.99589 0.47688 0.01952 0.0
C1130 C 1.01169 0.52506 0.02844 0.0
C1131 C 0.04174 0.54593 1.00235 0.0
N1132 N 1.00143 0.49237 0.02216 0.0
N1133 N 0.03625 0.53045 1.0006 0.0
H1134 H 0.48483 0.46899 0.02729 0.0
H1135 H 0.55244 0.5551 0.97524 0.0
H1136 H 0.47668 0.50531 0.98165 0.0
H1137 H 0.56071 0.51936 0.02581 0.0
H1138 H 0.52481 0.5369 0.97608 0.0
H1139 H 0.5125 0.48715 0.02679 0.0
C1140 C 0.48882 0.48082 0.01734 0.0
C1141 C 0.4783 0.48558 1.00442 0.0
C1142 C 0.53263 0.53299 0.98691 0.0
C1143 C 0.51023 0.50652 1.00352 0.0
C1144 C 0.54848 0.54339 0.98634 0.0
C1145 C 0.55903 0.53881 1.00054 0.0
C1146 C 0.52712 0.5178 1.00179 0.0
C1147 C 0.55308 0.52344 0.01449 0.0
C1148 C 0.50469 0.49119 0.01701 0.0
C1149 C 0.48429 0.50109 0.99196 0.0
N1150 N 0.53754 0.51351 0.01485 0.0
N1151 N 0.49983 0.51096 0.99168 0.0
H1152 H 0.45673 0.08897 0.98107 0.0
H1153 H 0.42723 0.1155 0.19098 0.0
H1154 H 0.47517 0.09112 0.11701 0.0
H1155 H 0.43234 0.13662 0.0578 0.0
H1156 H 0.44406 0.10568 0.16528 0.0
H1157 H 0.44694 0.10575 0.00755 0.0
C1158 C 0.45903 0.09324 0.01612 0.0
C1159 C 0.46681 0.08864 0.04677 0.0
C1160 C 0.44173 0.11273 0.14206 0.0
C1161 C 0.45519 0.10737 0.07767 0.0
C1162 C 0.43216 0.11837 0.15676 0.0
C1163 C 0.42838 0.12693 0.1266 0.0
C1164 C 0.44718 0.1153 0.09649 0.0
C1165 C 0.435 0.13015 0.08238 0.0
C1166 C 0.45341 0.10278 0.03125 0.0
C1167 C 0.46931 0.09443 0.09204 0.0
N1168 N 0.44379 0.12407 0.06834 0.0
N1169 N 0.46324 0.1032 0.10637 0.0
H1170 H 0.89342 0.30117 0.05474 0.0
H1171 H 0.94148 0.39051 0.11958 0.0
H1172 H 0.91555 0.31742 0.18675 0.0
H1173 H 0.94159 0.3736 0.98301 0.0
H1174 H 0.92469 0.36398 0.14537 0.0
H1175 H 0.90377 0.32792 0.0301 0.0
C1176 C 0.90008 0.31033 0.07909 0.0
C1177 C 0.90365 0.30701 0.12296 0.0
C1178 C 0.92816 0.36613 0.10958 0.0
C1179 C 0.91548 0.33766 0.09472 0.0
C1180 C 0.93764 0.38128 0.09461 0.0
C1181 C 0.94303 0.38433 0.04897 0.0
C1182 C 0.92374 0.35391 0.07856 0.0
C1183 C 0.93775 0.37181 0.01847 0.0
C1184 C 0.90608 0.32559 0.06474 0.0
C1185 C 0.91251 0.31942 0.15267 0.0
N1186 N 0.92844 0.35714 0.03384 0.0
N1187 N 0.91816 0.3342 0.13797 0.0
H1188 H 0.71377 0.60432 0.18974 0.0
H1189 H 0.65668 0.57453 0.9815 0.0
H1190 H 0.72903 0.59843 0.05635 0.0
H1191 H 0.6409 0.55645 0.11788 0.0
H1192 H 0.68338 0.58436 0.0073 0.0
H1193 H 0.68693 0.58772 0.16478 0.0
C1194 C 0.7115 0.59927 0.15562 0.0
C1195 C 0.7237 0.60275 0.12521 0.0
C1196 C 0.67402 0.57797 0.03126 0.0
C1197 C 0.69305 0.58422 0.09593 0.0
C1198 C 0.65879 0.57233 0.01652 0.0
C1199 C 0.6465 0.5646 0.04746 0.0
C1200 C 0.67701 0.57628 0.07759 0.0
C1201 C 0.64997 0.56224 0.09268 0.0
C1202 C 0.69619 0.58984 0.14135 0.0
C1203 C 0.72003 0.596 0.08114 0.0
N1204 N 0.66489 0.56832 0.10662 0.0
N1205 N 0.70506 0.58734 0.06751 0.0
H1206 H 0.07163 0.42883 0.48975 0.0
H1207 H 0.14758 0.43403 0.39794 0.0
H1208 H 0.1063 0.47287 0.43605 0.0
H1209 H 0.10258 0.39809 0.35432 0.0
H1210 H 0.13569 0.44878 0.42723 0.0
H1211 H 0.08631 0.41726 0.45994 0.0
C1212 C 0.08254 0.43619 0.47285 0.0
C1213 C 0.08771 0.45187 0.46533 0.0
C1214 C 0.12855 0.43776 0.41056 0.0
C1215 C 0.10451 0.43859 0.43105 0.0
C1216 C 0.13529 0.42939 0.39362 0.0
C1217 C 0.12608 0.41482 0.37339 0.0
C1218 C 0.11247 0.43123 0.40862 0.0
C1219 C 0.11018 0.4093 0.36923 0.0
C1220 C 0.0908 0.42951 0.45537 0.0
C1221 C 0.10189 0.46074 0.4426 0.0
N1222 N 0.10386 0.41735 0.38752 0.0
N1223 N 0.10984 0.45397 0.42617 0.0
H1224 H 0.59638 0.71793 0.40277 0.0
H1225 H 0.60162 0.6472 0.49404 0.0
H1226 H 0.6319 0.70862 0.35707 0.0
H1227 H 0.55737 0.63781 0.44176 0.0
H1228 H 0.61315 0.67339 0.46362 0.0
H1229 H 0.58166 0.69133 0.4324 0.0
C1230 C 0.60092 0.71023 0.39805 0.0
C1231 C 0.61537 0.71551 0.37714 0.0
C1232 C 0.60087 0.66563 0.45949 0.0
C1233 C 0.59901 0.68553 0.41275 0.0
C1234 C 0.59422 0.65074 0.47733 0.0
C1235 C 0.57848 0.64023 0.47042 0.0
C1236 C 0.59171 0.67025 0.43544 0.0
C1237 C 0.56955 0.64552 0.44786 0.0
C1238 C 0.59257 0.69514 0.41519 0.0
C1239 C 0.62078 0.70507 0.3725 0.0
N1240 N 0.57629 0.66021 0.43111 0.0
N1241 N 0.61277 0.69072 0.391 0.0
H1242 H 0.31176 0.88534 0.39743 0.0
H1243 H 0.38277 0.96125 0.49034 0.0
H1244 H 0.32112 0.93033 0.35331 0.0
H1245 H 0.39148 0.92575 0.44048 0.0
H1246 H 0.35663 0.94691 0.45905 0.0
H1247 H 0.33829 0.89716 0.42789 0.0
C1248 C 0.31946 0.89761 0.39325 0.0
C1249 C 0.31422 0.90684 0.37246 0.0
C1250 C 0.36422 0.94217 0.4556 0.0
C1251 C 0.34413 0.92038 0.40906 0.0
C1252 C 0.37908 0.95023 0.47397 0.0
C1253 C 0.38939 0.94472 0.46806 0.0
C1254 C 0.35942 0.92829 0.43202 0.0
C1255 C 0.38392 0.93042 0.44585 0.0
C1256 C 0.33452 0.90432 0.41087 0.0
C1257 C 0.32465 0.92272 0.36857 0.0
N1258 N 0.36926 0.92265 0.42861 0.0
N1259 N 0.33897 0.92901 0.3875 0.0
H1260 H 0.55575 0.92289 0.94509 0.0
H1261 H 0.63109 0.92781 0.84863 0.0
H1262 H 0.60097 0.95854 0.98807 0.0
H1263 H 0.59653 0.88378 0.90258 0.0
H1264 H 0.61669 0.93947 0.88012 0.0
H1265 H 0.56742 0.90812 0.91425 0.0
C1266 C 0.56805 0.92745 0.94894 0.0
C1267 C 0.57738 0.94195 0.96951 0.0
C1268 C 0.61216 0.92721 0.88438 0.0
C1269 C 0.59074 0.92553 0.93247 0.0
C1270 C 0.62025 0.92048 0.86592 0.0
C1271 C 0.61503 0.90476 0.87296 0.0
C1272 C 0.59855 0.91815 0.90918 0.0
C1273 C 0.60097 0.89593 0.89633 0.0
C1274 C 0.57467 0.91908 0.93111 0.0
C1275 C 0.59328 0.94739 0.97299 0.0
N1276 N 0.59317 0.90274 0.91366 0.0
N1277 N 0.59948 0.93934 0.95383 0.0
H1278 H 0.10207 0.70919 0.85855 0.0
H1279 H 0.10706 0.63839 0.95069 0.0
H1280 H 0.14659 0.71823 0.90719 0.0
H1281 H 0.07234 0.64849 0.99892 0.0
H1282 H 0.12175 0.66479 0.91955 0.0
H1283 H 0.09048 0.6832 0.89056 0.0
C1284 C 0.10951 0.7056 0.87479 0.0
C1285 C 0.12537 0.71596 0.88016 0.0
C1286 C 0.11103 0.66121 0.93764 0.0
C1287 C 0.11206 0.68616 0.91698 0.0
C1288 C 0.1027 0.64623 0.95563 0.0
C1289 C 0.08848 0.64123 0.97776 0.0
C1290 C 0.10479 0.67099 0.94043 0.0
C1291 C 0.08329 0.65183 0.98261 0.0
C1292 C 0.10283 0.69082 0.89355 0.0
C1293 C 0.13433 0.71062 0.90223 0.0
N1294 N 0.09126 0.66607 0.96328 0.0
N1295 N 0.12756 0.69605 0.91986 0.0
H1296 H 0.39653 0.47014 0.89314 0.0
H1297 H 0.30723 0.42426 0.95872 0.0
H1298 H 0.38042 0.44926 0.02652 0.0
H1299 H 0.32365 0.42142 0.82382 0.0
H1300 H 0.33394 0.44081 0.98384 0.0
H1301 H 0.36974 0.4597 0.86843 0.0
C1302 C 0.3874 0.46374 0.91775 0.0
C1303 C 0.39077 0.46056 0.96208 0.0
C1304 C 0.33165 0.43679 0.94853 0.0
C1305 C 0.36006 0.44864 0.93375 0.0
C1306 C 0.31641 0.42746 0.93392 0.0
C1307 C 0.31315 0.42139 0.88898 0.0
C1308 C 0.34377 0.44041 0.91779 0.0
C1309 C 0.3256 0.42582 0.85872 0.0
C1310 C 0.37211 0.45768 0.90336 0.0
C1311 C 0.37838 0.45201 0.9921 0.0
N1312 N 0.34037 0.43503 0.87368 0.0
N1313 N 0.36357 0.44631 0.97737 0.0
H1314 H 0.88982 0.59064 0.61371 0.0
H1315 H 0.96526 0.5959 0.51715 0.0
H1316 H 0.93499 0.62637 0.65675 0.0
H1317 H 0.93073 0.55175 0.57053 0.0
H1318 H 0.95081 0.60747 0.54885 0.0
H1319 H 0.90155 0.57595 0.58282 0.0
C1320 C 0.90211 0.59524 0.61757 0.0
C1321 C 0.91142 0.60973 0.63813 0.0
C1322 C 0.9463 0.5952 0.55294 0.0
C1323 C 0.92484 0.5934 0.60107 0.0
C1324 C 0.95442 0.58852 0.53437 0.0
C1325 C 0.94923 0.5728 0.5412 0.0
C1326 C 0.93269 0.58608 0.57766 0.0
C1327 C 0.93515 0.56391 0.56445 0.0
C1328 C 0.90877 0.5869 0.59972 0.0
C1329 C 0.92732 0.61521 0.64165 0.0
N1330 N 0.92733 0.57067 0.58192 0.0
N1331 N 0.93356 0.60721 0.62247 0.0
H1332 H 0.45278 0.37283 0.48678 0.0
H1333 H 0.42442 0.31631 0.69572 0.0
H1334 H 0.47196 0.38885 0.62217 0.0
H1335 H 0.42907 0.30066 0.56146 0.0
H1336 H 0.44102 0.34304 0.67024 0.0
H1337 H 0.44311 0.34621 0.51259 0.0
C1338 C 0.45526 0.37079 0.52156 0.0
C1339 C 0.46323 0.38312 0.55226 0.0
C1340 C 0.43863 0.33372 0.64672 0.0
C1341 C 0.45175 0.3527 0.58242 0.0
C1342 C 0.4292 0.31846 0.66129 0.0
C1343 C 0.42536 0.3062 0.63078 0.0
C1344 C 0.44388 0.33673 0.60095 0.0
C1345 C 0.43178 0.30972 0.58631 0.0
C1346 C 0.44971 0.3556 0.53631 0.0
C1347 C 0.46596 0.37974 0.59717 0.0
N1348 N 0.44044 0.32464 0.57244 0.0
N1349 N 0.45996 0.36487 0.61116 0.0
H1350 H 0.64132 0.08945 0.6225 0.0
H1351 H 0.73098 0.1335 0.56009 0.0
H1352 H 0.65825 0.08657 0.48845 0.0
H1353 H 0.71388 0.11472 0.69503 0.0
H1354 H 0.70442 0.12348 0.53376 0.0
H1355 H 0.66793 0.10585 0.64859 0.0
C1356 C 0.65059 0.09259 0.59809 0.0
C1357 C 0.6475 0.08655 0.55313 0.0
C1358 C 0.70653 0.12182 0.56933 0.0
C1359 C 0.67802 0.10538 0.58307 0.0
C1360 C 0.72169 0.12765 0.58462 0.0
C1361 C 0.72471 0.12492 0.62994 0.0
C1362 C 0.69425 0.11344 0.59972 0.0
C1363 C 0.71212 0.11708 0.65985 0.0
C1364 C 0.66578 0.10185 0.61325 0.0
C1365 C 0.66007 0.09093 0.52337 0.0
N1366 N 0.69743 0.11157 0.64418 0.0
N1367 N 0.67478 0.10004 0.5389 0.0
H1368 H 0.76221 0.80104 0.72652 0.0
H1369 H 0.80678 0.75597 0.78883 0.0
H1370 H 0.7599 0.7816 0.8609 0.0
H1371 H 0.78714 0.75358 0.65459 0.0
H1372 H 0.79694 0.77264 0.81496 0.0
H1373 H 0.77867 0.79096 0.70035 0.0
C1374 C 0.7655 0.79504 0.75099 0.0
C1375 C 0.75958 0.79212 0.79606 0.0
C1376 C 0.79506 0.76869 0.77956 0.0
C1377 C 0.77848 0.78059 0.76604 0.0
C1378 C 0.80078 0.75928 0.76438 0.0
C1379 C 0.79774 0.75328 0.71936 0.0
C1380 C 0.78649 0.77242 0.74934 0.0
C1381 C 0.78974 0.75789 0.68955 0.0
C1382 C 0.77479 0.78918 0.73579 0.0
C1383 C 0.76415 0.78411 0.8259 0.0
N1384 N 0.78434 0.76714 0.70511 0.0
N1385 N 0.77328 0.77857 0.81032 0.0
H1386 H 0.24895 0.9844 0.86041 0.0
H1387 H 0.27746 0.04058 0.6504 0.0
H1388 H 0.22907 0.96849 0.72567 0.0
H1389 H 0.27429 0.0568 0.78532 0.0
H1390 H 0.26045 0.01399 0.67647 0.0
H1391 H 0.25911 1.01107 0.83438 0.0
C1392 C 0.24642 0.98648 0.82574 0.0
C1393 C 0.23811 0.97416 0.79528 0.0
C1394 C 0.26325 0.02342 0.70002 0.0
C1395 C 0.25015 1.00463 0.76484 0.0
C1396 C 0.27293 0.03859 0.68513 0.0
C1397 C 0.2773 0.05097 0.71562 0.0
C1398 C 0.25829 0.02058 0.74609 0.0
C1399 C 0.27117 0.04765 0.76047 0.0
C1400 C 0.25226 1.0017 0.81086 0.0
C1401 C 0.23533 0.97759 0.7505 0.0
N1402 N 0.26226 0.03279 0.77461 0.0
N1403 N 0.2416 0.99249 0.73635 0.0
H1404 H 0.06354 0.26759 0.72709 0.0
H1405 H 0.97386 0.22337 0.7891 0.0
H1406 H 0.04658 0.27048 0.86108 0.0
H1407 H 0.99096 0.24265 0.65462 0.0
H1408 H 1.00043 0.23344 0.81542 0.0
H1409 H 0.03692 0.25128 0.70086 0.0
C1410 C 0.05426 0.26447 0.75147 0.0
C1411 C 0.05735 0.27049 0.79646 0.0
C1412 C 0.99832 0.2352 0.77994 0.0
C1413 C 0.02682 0.25176 0.76637 0.0
C1414 C 0.98315 0.22935 0.76466 0.0
C1415 C 0.98012 0.2322 0.71948 0.0
C1416 C 1.0106 0.24371 0.74968 0.0
C1417 C 0.99272 0.24019 0.68969 0.0
C1418 C 0.03906 0.25526 0.73622 0.0
C1419 C 0.04477 0.26614 0.82616 0.0
N1420 N 1.00741 0.24571 0.70534 0.0
N1421 N 0.03006 0.25708 0.81056 0.0
H1422 H 0.27322 0.22133 0.28629 0.0
H1423 H 0.22982 0.2673 0.2219 0.0
H1424 H 0.2777 0.24227 0.15309 0.0
H1425 H 0.24933 0.27 0.35655 0.0
H1426 H 0.23977 0.25064 0.19648 0.0
H1427 H 0.25687 0.23168 0.31137 0.0
C1428 C 0.27042 0.22772 0.2618 0.0
C1429 C 0.2769 0.23096 0.21742 0.0
C1430 C 0.24159 0.25465 0.23181 0.0
C1431 C 0.25812 0.24277 0.24616 0.0
C1432 C 0.23581 0.26405 0.24659 0.0
C1433 C 0.23877 0.27012 0.29152 0.0
C1434 C 0.25011 0.25099 0.26238 0.0
C1435 C 0.24678 0.26562 0.32165 0.0
C1436 C 0.26119 0.23373 0.2764 0.0
C1437 C 0.27298 0.2395 0.18755 0.0
N1438 N 0.25221 0.25635 0.30651 0.0
N1439 N 0.26387 0.24514 0.20249 0.0
H1440 H 0.77372 0.97203 0.28519 0.0
H1441 H 0.76933 0.0429 0.19181 0.0
H1442 H 0.73919 0.98248 0.33287 0.0
H1443 H 0.81369 0.05203 0.24232 0.0
H1444 H 0.75766 0.01693 0.2239 0.0
H1445 H 0.78864 0.99844 0.25424 0.0
C1446 C 0.76945 0.97995 0.29008 0.0
C1447 C 0.75521 0.97504 0.31194 0.0
C1448 C 0.76999 0.02457 0.22728 0.0
C1449 C 0.77179 1.0048 0.27484 0.0
C1450 C 0.77672 0.03934 0.20848 0.0
C1451 C 0.79255 0.04973 0.21439 0.0
C1452 C 0.77914 0.01994 0.25128 0.0
C1453 C 0.80145 0.04441 0.23696 0.0
C1454 C 0.77791 0.99493 0.27219 0.0
C1455 C 0.75014 0.98574 0.31674 0.0
N1456 N 0.79463 0.02984 0.25464 0.0
N1457 N 0.75824 0.99997 0.2975 0.0
H1458 H 0.06275 0.80092 0.22372 0.0
H1459 H 0.973 0.75699 0.28481 0.0
H1460 H 0.04545 0.78237 0.35874 0.0
H1461 H 0.99016 0.75361 0.15167 0.0
H1462 H 0.99957 0.77352 0.31111 0.0
H1463 H 0.03623 0.79085 0.19696 0.0
C1464 C 0.05343 0.7951 0.24817 0.0
C1465 C 0.05638 0.79245 0.29364 0.0
C1466 C 0.99748 0.76939 0.2759 0.0
C1467 C 0.02597 0.78093 0.26293 0.0
C1468 C 0.98231 0.76006 0.26061 0.0
C1469 C 0.9793 0.75383 0.21587 0.0
C1470 C 1.00977 0.77281 0.24604 0.0
C1471 C 0.99192 0.75812 0.1864 0.0
C1472 C 0.03829 0.78925 0.23264 0.0
C1473 C 0.04374 0.78467 0.32344 0.0
N1474 N 1.0066 0.76729 0.20204 0.0
N1475 N 0.02909 0.77914 0.30753 0.0
H1476 H 0.38827 0.1073 0.00591 0.0
H1477 H 0.31903 0.06999 0.83041 0.0
H1478 H 0.34079 0.07933 0.04757 0.0
H1479 H 0.36675 0.09321 0.78883 0.0
H1480 H 0.32685 0.06914 0.90933 0.0
H1481 H 0.38094 0.09831 0.92703 0.0
C1482 C 0.37629 0.09907 0.99849 0.0
C1483 C 0.36504 0.09427 0.03308 0.0
C1484 C 0.33563 0.07417 0.88295 0.0
C1485 C 0.35653 0.08407 0.94258 0.0
C1486 C 0.33118 0.07469 0.83786 0.0
C1487 C 0.34231 0.08195 0.8033 0.0
C1488 C 0.35137 0.08124 0.89383 0.0
C1489 C 0.35783 0.08761 0.81458 0.0
C1490 C 0.37212 0.0939 0.95341 0.0
C1491 C 0.34978 0.0834 0.0218 0.0
N1492 N 0.36194 0.08743 0.85917 0.0
N1493 N 0.34591 0.0789 0.97723 0.0
H1494 H 0.95283 0.26938 0.04645 0.0
H1495 H 0.93704 0.27975 0.78279 0.0
H1496 H 0.92209 0.28513 1.00026 0.0
H1497 H 0.96037 0.25581 0.82895 0.0
H1498 H 0.9378 0.28868 0.86197 0.0
H1499 H 0.96185 0.27117 0.96691 0.0
C1500 C 0.94823 0.2735 0.01978 0.0
C1501 C 0.93647 0.27677 0.02965 0.0
C1502 C 0.94301 0.28171 0.85452 0.0
C1503 C 0.94663 0.27882 0.93902 0.0
C1504 C 0.94264 0.2767 0.80934 0.0
C1505 C 0.94834 0.26678 0.79966 0.0
C1506 C 0.94917 0.27678 0.8899 0.0
C1507 C 0.95553 0.26318 0.83525 0.0
C1508 C 0.95332 0.27448 0.97442 0.0
C1509 C 0.93093 0.28215 0.99389 0.0
N1510 N 0.95555 0.268 0.87889 0.0
N1511 N 0.93592 0.28282 0.9501 0.0
H1512 H 0.76125 0.68879 0.04753 0.0
H1513 H 0.74971 0.66256 0.78389 0.0
H1514 H 0.74608 0.64247 1.001 0.0
H1515 H 0.77356 0.70987 0.82974 0.0
H1516 H 0.74124 0.65437 0.86334 0.0
H1517 H 0.75887 0.6959 0.96826 0.0
C1518 C 0.75714 0.68007 0.02084 0.0
C1519 C 0.75421 0.66514 0.03052 0.0
C1520 C 0.74807 0.66656 0.85577 0.0
C1521 C 0.75146 0.6731 0.94023 0.0
C1522 C 0.75282 0.67122 0.81043 0.0
C1523 C 0.7626 0.68686 0.80059 0.0
C1524 C 0.75313 0.67766 0.89112 0.0
C1525 C 0.76628 0.69764 0.83618 0.0
C1526 C 0.75582 0.68411 0.97565 0.0
C1527 C 0.74882 0.65423 0.99477 0.0
N1528 N 0.76173 0.69284 0.87997 0.0
N1529 N 0.7478 0.65847 0.95114 0.0
H1530 H 0.07583 0.31349 0.68695 0.0
H1531 H 0.1206 0.38153 0.51259 0.0
H1532 H 0.10293 0.36097 0.72939 0.0
H1533 H 0.0867 0.33556 0.46984 0.0
H1534 H 0.11138 0.37502 0.59148 0.0
H1535 H 0.07628 0.32189 0.60791 0.0
C1536 C 0.08161 0.32574 0.67965 0.0
C1537 C 0.08958 0.33658 0.71444 0.0
C1538 C 0.10578 0.3664 0.56486 0.0
C1539 C 0.09045 0.34628 0.62389 0.0
C1540 C 0.11109 0.37007 0.51979 0.0
C1541 C 0.10461 0.35894 0.48482 0.0
C1542 C 0.09405 0.35139 0.57531 0.0
C1543 C 0.09213 0.34442 0.4959 0.0
C1544 C 0.08187 0.33053 0.63451 0.0
C1545 C 0.09673 0.35227 0.70342 0.0
N1546 N 0.08744 0.34096 0.54042 0.0
N1547 N 0.0973 0.35666 0.65878 0.0
H1548 H 0.66882 0.74438 0.73252 0.0
H1549 H 0.69501 0.75403 0.46916 0.0
H1550 H 0.71614 0.76668 0.6871 0.0
H1551 H 0.64961 0.74281 0.51524 0.0
H1552 H 0.7016 0.75121 0.54866 0.0
H1553 H 0.66046 0.73601 0.653 0.0
C1554 C 0.67743 0.74712 0.70606 0.0
C1555 C 0.69315 0.75647 0.71597 0.0
C1556 C 0.69012 0.74913 0.54112 0.0
C1557 C 0.68376 0.74713 0.62548 0.0
C1558 C 0.68637 0.75072 0.49582 0.0
C1559 C 0.67189 0.74902 0.48592 0.0
C1560 C 0.67926 0.7457 0.5764 0.0
C1561 C 0.66105 0.74461 0.52163 0.0
C1562 C 0.67268 0.74245 0.66071 0.0
C1563 C 0.70387 0.75973 0.68054 0.0
N1564 N 0.66501 0.74327 0.56536 0.0
N1565 N 0.69898 0.75526 0.63673 0.0
H1566 H 0.28479 0.93189 0.72473 0.0
H1567 H 0.2733 0.94668 0.46096 0.0
H1568 H 0.25968 0.95404 0.67875 0.0
H1569 H 0.28689 0.91431 0.50763 0.0
H1570 H 0.27566 0.95602 0.54036 0.0
H1571 H 0.29318 0.93222 0.64512 0.0
C1572 C 0.28138 0.93717 0.6981 0.0
C1573 C 0.27128 0.94264 0.70793 0.0
C1574 C 0.27836 0.94704 0.53297 0.0
C1575 C 0.28069 0.943 0.61738 0.0
C1576 C 0.27703 0.94174 0.48774 0.0
C1577 C 0.27954 0.92947 0.47806 0.0
C1578 C 0.28234 0.94008 0.56839 0.0
C1579 C 0.28448 0.92355 0.51389 0.0
C1580 C 0.28609 0.93729 0.65272 0.0
C1581 C 0.26721 0.9494 0.67229 0.0
N1582 N 0.28556 0.92879 0.55755 0.0
N1583 N 0.27176 0.94921 0.62847 0.0
H1584 H 0.71953 0.94995 0.17874 0.0
H1585 H 0.65001 0.91384 0.00681 0.0
H1586 H 0.67241 0.9314 0.22287 0.0
H1587 H 0.69693 0.9433 0.96218 0.0
H1588 H 0.65774 0.92287 0.08551 0.0
H1589 H 0.71166 0.95061 0.0997 0.0
C1590 C 0.70753 0.94622 0.17177 0.0
C1591 C 0.69652 0.94032 0.2071 0.0
C1592 C 0.66633 0.9276 0.0585 0.0
C1593 C 0.6874 0.94085 0.11665 0.0
C1594 C 0.66194 0.92239 0.01359 0.0
C1595 C 0.67294 0.92762 0.97822 0.0
C1596 C 0.68191 0.93788 0.06833 0.0
C1597 C 0.68814 0.93888 0.98862 0.0
C1598 C 0.70305 0.94666 0.12666 0.0
C1599 C 0.68121 0.9359 0.19647 0.0
N1600 N 0.69227 0.94341 0.03302 0.0
N1601 N 0.67702 0.93594 0.15191 0.0
H1602 H 0.07378 0.76548 0.18956 0.0
H1603 H 0.12012 0.74385 0.01623 0.0
H1604 H 0.10233 0.74678 0.23249 0.0
H1605 H 0.08574 0.75515 0.97278 0.0
H1606 H 0.1107 0.74086 0.09491 0.0
H1607 H 0.07444 0.75749 0.11073 0.0
C1608 C 0.07991 0.75935 0.18244 0.0
C1609 C 0.08823 0.75699 0.21729 0.0
C1610 C 0.10503 0.74377 0.0682 0.0
C1611 C 0.08935 0.74814 0.12696 0.0
C1612 C 0.11047 0.74558 0.02324 0.0
C1613 C 0.10391 0.75009 0.98814 0.0
C1614 C 0.0931 0.74676 0.07842 0.0
C1615 C 0.09124 0.75183 0.99896 0.0
C1616 C 0.0803 0.75481 0.13741 0.0
C1617 C 0.09584 0.74888 0.20649 0.0
N1618 N 0.08642 0.75045 0.04339 0.0
N1619 N 0.09651 0.74504 0.16195 0.0
H1620 H 0.28758 0.35934 0.22187 0.0
H1621 H 0.27363 0.33279 0.95851 0.0
H1622 H 0.26067 0.31214 0.17634 0.0
H1623 H 0.29287 0.37982 1.00454 0.0
H1624 H 0.27545 0.32523 0.03768 0.0
H1625 H 0.29624 0.36707 0.14229 0.0
C1626 C 0.2838 0.35058 0.19535 0.0
C1627 C 0.27314 0.33516 0.20537 0.0
C1628 C 0.27953 0.33726 0.0302 0.0
C1629 C 0.28286 0.34384 0.11468 0.0
C1630 C 0.27854 0.34156 0.98504 0.0
C1631 C 0.28277 0.35687 0.97531 0.0
C1632 C 0.28485 0.34838 0.06552 0.0
C1633 C 0.28914 0.36781 0.01086 0.0
C1634 C 0.28867 0.35498 0.14995 0.0
C1635 C 0.26863 0.32423 0.16981 0.0
N1636 N 0.28979 0.36333 0.05447 0.0
N1637 N 0.27334 0.3288 0.12596 0.0
H1638 H 0.91805 0.6434 0.50207 0.0
H1639 H 0.96126 0.71154 0.32737 0.0
H1640 H 0.9509 0.68974 0.54467 0.0
H1641 H 0.93567 0.6639 0.28535 0.0
H1642 H 0.96109 0.70339 0.40655 0.0
H1643 H 0.92736 0.65 0.42331 0.0
C1644 C 0.92735 0.65496 0.49485 0.0
C1645 C 0.9335 0.66616 0.52971 0.0
C1646 C 0.95578 0.69468 0.38002 0.0
C1647 C 0.94416 0.67382 0.43938 0.0
C1648 C 0.95587 0.69933 0.3348 0.0
C1649 C 0.94823 0.68834 0.30008 0.0
C1650 C 0.94769 0.67892 0.39078 0.0
C1651 C 0.9416 0.67271 0.31126 0.0
C1652 C 0.93273 0.65869 0.44986 0.0
C1653 C 0.94573 0.68082 0.51867 0.0
N1654 N 0.94117 0.66844 0.35596 0.0
N1655 N 0.95047 0.68433 0.4742 0.0
H1656 H 0.33723 0.26532 0.55537 0.0
H1657 H 0.36457 0.27936 0.29281 0.0
H1658 H 0.38452 0.28535 0.5111 0.0
H1659 H 0.31748 0.25058 0.3372 0.0
H1660 H 0.37182 0.28833 0.37246 0.0
H1661 H 0.32976 0.26664 0.47566 0.0
C1662 C 0.34606 0.27031 0.52909 0.0
C1663 C 0.36143 0.2749 0.53947 0.0
C1664 C 0.35985 0.28026 0.36452 0.0
C1665 C 0.35305 0.2764 0.44872 0.0
C1666 C 0.35572 0.2752 0.3191 0.0
C1667 C 0.3405 0.26397 0.30876 0.0
C1668 C 0.34863 0.27408 0.39946 0.0
C1669 C 0.32944 0.25899 0.344 0.0
C1670 C 0.34181 0.271 0.48364 0.0
C1671 C 0.37247 0.28135 0.50426 0.0
N1672 N 0.33376 0.26393 0.38786 0.0
N1673 N 0.36804 0.28172 0.46036 0.0
H1674 H 0.77019 0.07882 0.56911 0.0
H1675 H 0.75183 0.08681 0.30596 0.0
H1676 H 0.74275 0.09858 0.52421 0.0
H1677 H 0.78811 0.07858 0.35172 0.0
H1678 H 0.74252 0.08354 0.38561 0.0
H1679 H 0.77055 0.07073 0.48955 0.0
C1680 C 0.76388 0.08104 0.54277 0.0
C1681 C 0.7567 0.08963 0.55282 0.0
C1682 C 0.75238 0.08223 0.37796 0.0
C1683 C 0.75717 0.08061 0.46228 0.0
C1684 C 0.75768 0.08409 0.3326 0.0
C1685 C 0.77097 0.08335 0.32254 0.0
C1686 C 0.76038 0.07948 0.41316 0.0
C1687 C 0.77804 0.07964 0.35822 0.0
C1688 C 0.76417 0.07654 0.49739 0.0
C1689 C 0.74868 0.09224 0.51753 0.0
N1690 N 0.77276 0.07801 0.402 0.0
N1691 N 0.74931 0.08795 0.47368 0.0
H1692 H 0.03492 0.42816 0.10795 0.0
H1693 H 1.00888 0.41054 0.37118 0.0
H1694 H 0.98774 0.40103 0.15312 0.0
H1695 H 0.05375 0.44596 0.32516 0.0
H1696 H 1.00259 0.40107 0.29168 0.0
H1697 H 0.04349 0.42849 0.1874 0.0
C1698 C 0.02641 0.42189 0.13432 0.0
C1699 C 1.01063 0.41482 0.12437 0.0
C1700 C 1.01389 0.41078 0.29923 0.0
C1701 C 0.02024 0.41527 0.21485 0.0
C1702 C 1.01747 0.41616 0.34452 0.0
C1703 C 0.0317 0.42927 0.35448 0.0
C1704 C 0.02467 0.41851 0.26396 0.0
C1705 C 0.04249 0.43604 0.31876 0.0
C1706 C 0.03127 0.42217 0.17965 0.0
C1707 C 1.00003 0.40687 0.15971 0.0
N1708 N 0.0387 0.4307 0.27504 0.0
N1709 N 1.00501 0.40749 0.20352 0.0
H1710 H 0.60298 0.61104 0.11498 0.0
H1711 H 0.61877 0.60067 0.37884 0.0
H1712 H 0.62729 0.58806 0.16083 0.0
H1713 H 0.58473 0.61202 0.33203 0.0
H1714 H 0.62819 0.60342 0.29947 0.0
H1715 H 0.60277 0.61912 0.19467 0.0
C1716 C 0.60864 0.60808 0.14159 0.0
C1717 C 0.61488 0.59864 0.13171 0.0
C1718 C 0.61881 0.60553 0.30682 0.0
C1719 C 0.61461 0.60766 0.22238 0.0
C1720 C 0.61345 0.60397 0.35204 0.0
C1721 C 0.60073 0.60576 0.36172 0.0
C1722 C 0.61145 0.60901 0.27138 0.0
C1723 C 0.59434 0.61017 0.32582 0.0
C1724 C 0.60844 0.61259 0.18703 0.0
C1725 C 0.62208 0.59509 0.16734 0.0
N1726 N 0.59965 0.61149 0.28218 0.0
N1727 N 0.62157 0.59943 0.21122 0.0
H1728 H 0.41677 0.97806 0.33219 0.0
H1729 H 0.44189 0.04633 0.15773 0.0
H1730 H 0.43066 0.02446 0.37489 0.0
H1731 H 0.42 0.99872 0.11563 0.0
H1732 H 0.4338 0.03814 0.23679 0.0
H1733 H 0.41402 0.98471 0.25347 0.0
C1734 C 0.41911 0.98965 0.325 0.0
C1735 C 0.42429 1.00085 0.35988 0.0
C1736 C 0.43045 0.02944 0.21025 0.0
C1737 C 0.42125 1.00857 0.26958 0.0
C1738 C 0.43506 0.03411 0.1651 0.0
C1739 C 0.43181 0.02315 0.13041 0.0
C1740 C 0.42282 0.01368 0.22098 0.0
C1741 C 0.42281 1.00751 0.14152 0.0
C1742 C 0.41745 0.99341 0.28004 0.0
C1743 C 0.42682 0.01555 0.34888 0.0
N1744 N 0.41891 1.00322 0.18616 0.0
N1745 N 0.42557 0.01908 0.30442 0.0
H1746 H 0.61881 0.0212 0.88059 0.0
H1747 H 0.60241 0.99554 0.61652 0.0
H1748 H 0.58387 0.97626 0.83324 0.0
H1749 H 0.62806 0.04273 0.66287 0.0
H1750 H 0.60196 0.98699 0.69602 0.0
H1751 H 0.62837 0.02778 0.8013 0.0
C1752 C 0.61333 0.01265 0.85368 0.0
C1753 C 0.60032 0.99832 0.86317 0.0
C1754 C 0.60797 0.99922 0.68853 0.0
C1755 C 0.61118 1.00568 0.77295 0.0
C1756 C 0.60831 1.00407 0.64319 0.0
C1757 C 0.615 0.01983 0.63351 0.0
C1758 C 0.61446 1.01023 0.72399 0.0
C1759 C 0.6225 0.03045 0.66922 0.0
C1760 C 0.61876 0.0164 0.80852 0.0
C1761 C 0.59371 0.9876 0.82716 0.0
N1762 N 0.62185 0.02546 0.71302 0.0
N1763 N 0.59911 0.99155 0.78358 0.0
H1764 H 0.03075 0.6119 0.62971 0.0
H1765 H 1.00534 0.59763 0.89422 0.0
H1766 H 0.98446 0.5808 0.67671 0.0
H1767 H 0.05205 0.61564 0.84661 0.0
H1768 H 0.99741 0.5987 0.81485 0.0
H1769 H 0.03835 0.62054 0.70947 0.0
C1770 C 0.02214 0.60713 0.65666 0.0
C1771 C 1.00707 0.59539 0.64696 0.0
C1772 C 1.00944 0.60268 0.82206 0.0
C1773 C 1.01559 0.60519 0.73761 0.0
C1774 C 1.01395 0.60211 0.86725 0.0
C1775 C 0.02927 0.60623 0.87657 0.0
C1776 C 0.02038 0.60755 0.78643 0.0
C1777 C 0.04003 0.61203 0.84055 0.0
C1778 C 0.02647 0.61202 0.70207 0.0
C1779 C 0.99631 0.58964 0.683 0.0
N1780 N 0.03536 0.61236 0.79695 0.0
N1781 N 1.00081 0.59447 0.72683 0.0
H1782 H 0.44061 0.40203 0.66718 0.0
H1783 H 0.4104 0.44061 0.84282 0.0
H1784 H 0.41645 0.42563 0.62595 0.0
H1785 H 0.42942 0.41221 0.88445 0.0
H1786 H 0.40814 0.43127 0.76419 0.0
H1787 H 0.43225 0.40141 0.74628 0.0
C1788 C 0.43329 0.40685 0.67474 0.0
C1789 C 0.42944 0.41416 0.64024 0.0
C1790 C 0.41257 0.42684 0.79052 0.0
C1791 C 0.42005 0.41373 0.73094 0.0
C1792 C 0.41391 0.43221 0.83544 0.0
C1793 C 0.42041 0.4274 0.86992 0.0
C1794 C 0.41803 0.41678 0.7797 0.0
C1795 C 0.42448 0.4163 0.85874 0.0
C1796 C 0.4285 0.40647 0.71994 0.0
C1797 C 0.41975 0.41999 0.65166 0.0
N1798 N 0.42352 0.4116 0.81428 0.0
N1799 N 0.41565 0.41995 0.69634 0.0
loop_
_geom_bond_atom_site_label_1
_geom_bond_atom_site_label_2
_geom_bond_distance
_geom_bond_site_symmetry_2
_ccdc_geom_bond_type
O0 Cd1 2.223 . S
O0 C8 1.315 . S
Cd1 O0 2.223 . S
Cd1 O4 2.297 . S
Cd1 O5 2.439 . S
Cd1 O11 2.240 . S
Cd2 O3 2.240 . S
Cd2 O10 2.223 . S
Cd2 O12 2.297 . S
Cd2 O13 2.439 . S
O3 Cd2 2.240 . S
O3 C8 1.279 . S
O4 Cd1 2.297 . S
O4 C6 1.247 . S
O5 Cd1 2.439 . S
O5 C6 1.208 . S
C6 O4 1.247 . S
C6 O5 1.208 . S
C7 O12 1.247 . S
C7 O13 1.208 . S
C8 O0 1.315 . S
C8 O3 1.279 . S
C9 O10 1.315 . S
C9 O11 1.279 . S
O10 Cd2 2.223 . S
O10 C9 1.315 . S
O11 Cd1 2.240 . S
O11 C9 1.279 . S
O12 Cd2 2.297 . S
O12 C7 1.247 . S
O13 Cd2 2.439 . S
O13 C7 1.208 . S
O14 Cd15 2.223 . S
O14 C22 1.315 . S
Cd15 O14 2.223 . S
Cd15 O18 2.297 . S
Cd15 O19 2.439 . S
Cd15 O25 2.240 . S
Cd16 O17 2.240 . S
Cd16 O24 2.223 . S
Cd16 O26 2.297 . S
Cd16 O27 2.439 . S
O17 Cd16 2.240 . S
O17 C22 1.279 . S
O18 Cd15 2.297 . S
O18 C20 1.247 . S
O19 Cd15 2.439 . S
O19 C20 1.208 . S
C20 O18 1.247 . S
C20 O19 1.208 . S
C21 O26 1.247 . S
C21 O27 1.208 . S
C22 O14 1.315 . S
C22 O17 1.279 . S
C23 O24 1.315 . S
C23 O25 1.279 . S
O24 Cd16 2.223 . S
O24 C23 1.315 . S
O25 Cd15 2.240 . S
O25 C23 1.279 . S
O26 Cd16 2.297 . S
O26 C21 1.247 . S
O27 Cd16 2.439 . S
O27 C21 1.208 . S
O28 Cd29 2.223 . S
O28 C36 1.315 . S
Cd29 O28 2.223 . S
Cd29 O32 2.297 . S
Cd29 O33 2.439 . S
Cd29 O39 2.240 . S
Cd30 O31 2.240 . S
Cd30 O38 2.223 . S
Cd30 O40 2.297 . S
Cd30 O41 2.439 . S
O31 Cd30 2.240 . S
O31 C36 1.279 . S
O32 Cd29 2.297 . S
O32 C34 1.247 . S
O33 Cd29 2.439 . S
O33 C34 1.208 . S
C34 O32 1.247 . S
C34 O33 1.208 . S
C35 O40 1.247 . S
C35 O41 1.208 . S
C36 O28 1.315 . S
C36 O31 1.279 . S
C37 O38 1.315 . S
C37 O39 1.279 . S
O38 Cd30 2.223 . S
O38 C37 1.315 . S
O39 Cd29 2.240 . S
O39 C37 1.279 . S
O40 Cd30 2.297 . S
O40 C35 1.247 . S
O41 Cd30 2.439 . S
O41 C35 1.208 . S
O42 Cd43 2.223 . S
O42 C50 1.315 . S
Cd43 O42 2.223 . S
Cd43 O46 2.297 . S
Cd43 O47 2.439 . S
Cd43 O53 2.240 . S
Cd44 O45 2.240 . S
Cd44 O52 2.223 . S
Cd44 O54 2.297 . S
Cd44 O55 2.439 . S
O45 Cd44 2.240 . S
O45 C50 1.279 . S
O46 Cd43 2.297 . S
O46 C48 1.247 . S
O47 Cd43 2.439 . S
O47 C48 1.208 . S
C48 O46 1.247 . S
C48 O47 1.208 . S
C49 O54 1.247 . S
C49 O55 1.208 . S
C50 O42 1.315 . S
C50 O45 1.279 . S
C51 O52 1.315 . S
C51 O53 1.279 . S
O52 Cd44 2.223 . S
O52 C51 1.315 . S
O53 Cd43 2.240 . S
O53 C51 1.279 . S
O54 Cd44 2.297 . S
O54 C49 1.247 . S
O55 Cd44 2.439 . S
O55 C49 1.208 . S
O56 Cd57 2.223 . S
O56 C64 1.315 . S
Cd57 O56 2.223 . S
Cd57 O60 2.297 . S
Cd57 O61 2.439 . S
Cd57 O67 2.240 . S
Cd58 O59 2.240 . S
Cd58 O66 2.223 . S
Cd58 O68 2.297 . S
Cd58 O69 2.439 . S
O59 Cd58 2.240 . S
O59 C64 1.279 . S
O60 Cd57 2.297 . S
O60 C62 1.247 . S
O61 Cd57 2.439 . S
O61 C62 1.208 . S
C62 O60 1.247 . S
C62 O61 1.208 . S
C63 O68 1.247 . S
C63 O69 1.208 . S
C64 O56 1.315 . S
C64 O59 1.279 . S
C65 O66 1.315 . S
C65 O67 1.279 . S
O66 Cd58 2.223 . S
O66 C65 1.315 . S
O67 Cd57 2.240 . S
O67 C65 1.279 . S
O68 Cd58 2.297 . S
O68 C63 1.247 . S
O69 Cd58 2.439 . S
O69 C63 1.208 . S
O70 Cd71 2.223 . S
O70 C78 1.315 . S
Cd71 O70 2.223 . S
Cd71 O74 2.297 . S
Cd71 O75 2.439 . S
Cd71 O81 2.240 . S
Cd72 O73 2.240 . S
Cd72 O80 2.223 . S
Cd72 O82 2.297 . S
Cd72 O83 2.439 . S
O73 Cd72 2.240 . S
O73 C78 1.279 . S
O74 Cd71 2.297 . S
O74 C76 1.247 . S
O75 Cd71 2.439 . S
O75 C76 1.208 . S
C76 O74 1.247 . S
C76 O75 1.208 . S
C77 O82 1.247 . S
C77 O83 1.208 . S
C78 O70 1.315 . S
C78 O73 1.279 . S
C79 O80 1.315 . S
C79 O81 1.279 . S
O80 Cd72 2.223 . S
O80 C79 1.315 . S
O81 Cd71 2.240 . S
O81 C79 1.279 . S
O82 Cd72 2.297 . S
O82 C77 1.247 . S
O83 Cd72 2.439 . S
O83 C77 1.208 . S
O84 Cd85 2.223 . S
O84 C92 1.315 . S
Cd85 O84 2.223 . S
Cd85 O88 2.297 . S
Cd85 O89 2.439 . S
Cd85 O95 2.240 . S
Cd86 O87 2.240 . S
Cd86 O94 2.223 . S
Cd86 O96 2.297 . S
Cd86 O97 2.439 . S
O87 Cd86 2.240 . S
O87 C92 1.279 . S
O88 Cd85 2.297 . S
O88 C90 1.247 . S
O89 Cd85 2.439 . S
O89 C90 1.208 . S
C90 O88 1.247 . S
C90 O89 1.208 . S
C91 O96 1.247 . S
C91 O97 1.208 . S
C92 O84 1.315 . S
C92 O87 1.279 . S
C93 O94 1.315 . S
C93 O95 1.279 . S
O94 Cd86 2.223 . S
O94 C93 1.315 . S
O95 Cd85 2.240 . S
O95 C93 1.279 . S
O96 Cd86 2.297 . S
O96 C91 1.247 . S
O97 Cd86 2.439 . S
O97 C91 1.208 . S
O98 Cd99 2.223 . S
O98 C106 1.315 . S
Cd99 O98 2.223 . S
Cd99 O102 2.297 . S
Cd99 O103 2.439 . S
Cd99 O109 2.240 . S
Cd100 O101 2.240 . S
Cd100 O108 2.223 . S
Cd100 O110 2.297 . S
Cd100 O111 2.439 . S
O101 Cd100 2.240 . S
O101 C106 1.279 . S
O102 Cd99 2.297 . S
O102 C104 1.247 . S
O103 Cd99 2.439 . S
O103 C104 1.208 . S
C104 O102 1.247 . S
C104 O103 1.208 . S
C105 O110 1.247 . S
C105 O111 1.208 . S
C106 O98 1.315 . S
C106 O101 1.279 . S
C107 O108 1.315 . S
C107 O109 1.279 . S
O108 Cd100 2.223 . S
O108 C107 1.315 . S
O109 Cd99 2.240 . S
O109 C107 1.279 . S
O110 Cd100 2.297 . S
O110 C105 1.247 . S
O111 Cd100 2.439 . S
O111 C105 1.208 . S
O112 Cd113 2.223 . S
O112 C120 1.315 . S
Cd113 O112 2.223 . S
Cd113 O116 2.297 . S
Cd113 O117 2.439 . S
Cd113 O123 2.240 . S
Cd114 O115 2.240 . S
Cd114 O122 2.223 . S
Cd114 O124 2.297 . S
Cd114 O125 2.439 . S
O115 Cd114 2.240 . S
O115 C120 1.279 . S
O116 Cd113 2.297 . S
O116 C118 1.247 . S
O117 Cd113 2.439 . S
O117 C118 1.208 . S
C118 O116 1.247 . S
C118 O117 1.208 . S
C119 O124 1.247 . S
C119 O125 1.208 . S
C120 O112 1.315 . S
C120 O115 1.279 . S
C121 O122 1.315 . S
C121 O123 1.279 . S
O122 Cd114 2.223 . S
O122 C121 1.315 . S
O123 Cd113 2.240 . S
O123 C121 1.279 . S
O124 Cd114 2.297 . S
O124 C119 1.247 . S
O125 Cd114 2.439 . S
O125 C119 1.208 . S
O126 Cd127 2.223 . S
O126 C134 1.315 . S
Cd127 O126 2.223 . S
Cd127 O130 2.297 . S
Cd127 O131 2.439 . S
Cd127 O137 2.240 . S
Cd128 O129 2.240 . S
Cd128 O136 2.223 . S
Cd128 O138 2.297 . S
Cd128 O139 2.439 . S
O129 Cd128 2.240 . S
O129 C134 1.279 . S
O130 Cd127 2.297 . S
O130 C132 1.247 . S
O131 Cd127 2.439 . S
O131 C132 1.208 . S
C132 O130 1.247 . S
C132 O131 1.208 . S
C133 O138 1.247 . S
C133 O139 1.208 . S
C134 O126 1.315 . S
C134 O129 1.279 . S
C135 O136 1.315 . S
C135 O137 1.279 . S
O136 Cd128 2.223 . S
O136 C135 1.315 . S
O137 Cd127 2.240 . S
O137 C135 1.279 . S
O138 Cd128 2.297 . S
O138 C133 1.247 . S
O139 Cd128 2.439 . S
O139 C133 1.208 . S
O140 Cd141 2.223 . S
O140 C148 1.315 . S
Cd141 O140 2.223 . S
Cd141 O144 2.297 . S
Cd141 O145 2.439 . S
Cd141 O151 2.240 . S
Cd142 O143 2.240 . S
Cd142 O150 2.223 . S
Cd142 O152 2.297 . S
Cd142 O153 2.439 . S
O143 Cd142 2.240 . S
O143 C148 1.279 . S
O144 Cd141 2.297 . S
O144 C146 1.247 . S
O145 Cd141 2.439 . S
O145 C146 1.208 . S
C146 O144 1.247 . S
C146 O145 1.208 . S
C147 O152 1.247 . S
C147 O153 1.208 . S
C148 O140 1.315 . S
C148 O143 1.279 . S
C149 O150 1.315 . S
C149 O151 1.279 . S
O150 Cd142 2.223 . S
O150 C149 1.315 . S
O151 Cd141 2.240 . S
O151 C149 1.279 . S
O152 Cd142 2.297 . S
O152 C147 1.247 . S
O153 Cd142 2.439 . S
O153 C147 1.208 . S
O154 Cd155 2.223 . S
O154 C162 1.315 . S
Cd155 O154 2.223 . S
Cd155 O158 2.297 . S
Cd155 O159 2.439 . S
Cd155 O165 2.240 . S
Cd156 O157 2.240 . S
Cd156 O164 2.223 . S
Cd156 O166 2.297 . S
Cd156 O167 2.439 . S
O157 Cd156 2.240 . S
O157 C162 1.279 . S
O158 Cd155 2.297 . S
O158 C160 1.247 . S
O159 Cd155 2.439 . S
O159 C160 1.208 . S
C160 O158 1.247 . S
C160 O159 1.208 . S
C161 O166 1.247 . S
C161 O167 1.208 . S
C162 O154 1.315 . S
C162 O157 1.279 . S
C163 O164 1.315 . S
C163 O165 1.279 . S
O164 Cd156 2.223 . S
O164 C163 1.315 . S
O165 Cd155 2.240 . S
O165 C163 1.279 . S
O166 Cd156 2.297 . S
O166 C161 1.247 . S
O167 Cd156 2.439 . S
O167 C161 1.208 . S
O168 Cd169 2.213 . S
O168 C176 1.315 . S
Cd169 O168 2.213 . S
Cd169 O172 2.290 1_455 S
Cd169 O173 2.456 . S
Cd169 O179 2.255 . S
Cd170 O171 2.240 . S
Cd170 O178 2.223 . S
Cd170 O180 2.297 . S
Cd170 O181 2.439 . S
O171 Cd170 2.240 . S
O171 C176 1.279 . S
O172 Cd169 2.290 1_655 S
O172 C174 1.247 1_655 S
O173 Cd169 2.456 . S
O173 C174 1.208 . S
C174 O172 1.247 1_455 S
C174 O173 1.208 . S
C175 O180 1.247 . S
C175 O181 1.208 . S
C176 O168 1.315 . S
C176 O171 1.279 . S
C177 O178 1.315 . S
C177 O179 1.279 . S
O178 Cd170 2.223 . S
O178 C177 1.315 . S
O179 Cd169 2.255 . S
O179 C177 1.279 . S
O180 Cd170 2.297 . S
O180 C175 1.247 . S
O181 Cd170 2.439 . S
O181 C175 1.208 . S
O182 Cd183 2.223 . S
O182 C190 1.315 . S
Cd183 O182 2.223 . S
Cd183 O186 2.297 . S
Cd183 O187 2.439 . S
Cd183 O193 2.240 . S
Cd184 O185 2.240 . S
Cd184 O192 2.223 . S
Cd184 O194 2.297 . S
Cd184 O195 2.439 . S
O185 Cd184 2.240 . S
O185 C190 1.279 . S
O186 Cd183 2.297 . S
O186 C188 1.247 . S
O187 Cd183 2.439 . S
O187 C188 1.208 . S
C188 O186 1.247 . S
C188 O187 1.208 . S
C189 O194 1.247 . S
C189 O195 1.208 . S
C190 O182 1.315 . S
C190 O185 1.279 . S
C191 O192 1.315 . S
C191 O193 1.279 . S
O192 Cd184 2.223 . S
O192 C191 1.315 . S
O193 Cd183 2.240 . S
O193 C191 1.279 . S
O194 Cd184 2.297 . S
O194 C189 1.247 . S
O195 Cd184 2.439 . S
O195 C189 1.208 . S
O196 Cd197 2.247 . S
O196 C204 1.315 . S
Cd197 O196 2.247 . S
Cd197 O200 2.295 1_565 S
Cd197 O201 2.451 . S
Cd197 O207 2.249 . S
Cd198 O199 2.240 . S
Cd198 O206 2.223 . S
Cd198 O208 2.297 . S
Cd198 O209 2.439 . S
O199 Cd198 2.240 . S
O199 C204 1.279 . S
O200 Cd197 2.295 1_545 S
O200 C202 1.247 1_545 S
O201 Cd197 2.451 . S
O201 C202 1.208 . S
C202 O200 1.247 1_565 S
C202 O201 1.208 . S
C203 O208 1.247 . S
C203 O209 1.208 . S
C204 O196 1.315 . S
C204 O199 1.279 . S
C205 O206 1.315 . S
C205 O207 1.279 . S
O206 Cd198 2.223 . S
O206 C205 1.315 . S
O207 Cd197 2.249 . S
O207 C205 1.279 . S
O208 Cd198 2.297 . S
O208 C203 1.247 . S
O209 Cd198 2.439 . S
O209 C203 1.208 . S
O210 Cd211 2.223 . S
O210 C218 1.315 . S
Cd211 O210 2.223 . S
Cd211 O214 2.297 . S
Cd211 O215 2.439 . S
Cd211 O221 2.240 . S
Cd212 O213 2.240 . S
Cd212 O220 2.223 . S
Cd212 O222 2.297 . S
Cd212 O223 2.439 . S
O213 Cd212 2.240 . S
O213 C218 1.279 . S
O214 Cd211 2.297 . S
O214 C216 1.247 . S
O215 Cd211 2.439 . S
O215 C216 1.208 . S
C216 O214 1.247 . S
C216 O215 1.208 . S
C217 O222 1.247 . S
C217 O223 1.208 . S
C218 O210 1.315 . S
C218 O213 1.279 . S
C219 O220 1.315 . S
C219 O221 1.279 . S
O220 Cd212 2.223 . S
O220 C219 1.315 . S
O221 Cd211 2.240 . S
O221 C219 1.279 . S
O222 Cd212 2.297 . S
O222 C217 1.247 . S
O223 Cd212 2.439 . S
O223 C217 1.208 . S
O224 Cd225 2.223 . S
O224 C232 1.315 . S
Cd225 O224 2.223 . S
Cd225 O228 2.297 . S
Cd225 O229 2.439 . S
Cd225 O235 2.240 . S
Cd226 O227 2.240 . S
Cd226 O234 2.223 . S
Cd226 O236 2.297 . S
Cd226 O237 2.439 . S
O227 Cd226 2.240 . S
O227 C232 1.279 . S
O228 Cd225 2.297 . S
O228 C230 1.247 . S
O229 Cd225 2.439 . S
O229 C230 1.208 . S
C230 O228 1.247 . S
C230 O229 1.208 . S
C231 O236 1.247 . S
C231 O237 1.208 . S
C232 O224 1.315 . S
C232 O227 1.279 . S
C233 O234 1.315 . S
C233 O235 1.279 . S
O234 Cd226 2.223 . S
O234 C233 1.315 . S
O235 Cd225 2.240 . S
O235 C233 1.279 . S
O236 Cd226 2.297 . S
O236 C231 1.247 . S
O237 Cd226 2.439 . S
O237 C231 1.208 . S
O238 Cd239 2.223 . S
O238 C246 1.315 . S
Cd239 O238 2.223 . S
Cd239 O242 2.297 . S
Cd239 O243 2.439 . S
Cd239 O249 2.240 . S
Cd240 O241 2.240 . S
Cd240 O248 2.223 . S
Cd240 O250 2.297 . S
Cd240 O251 2.439 . S
O241 Cd240 2.240 . S
O241 C246 1.279 . S
O242 Cd239 2.297 . S
O242 C244 1.247 . S
O243 Cd239 2.439 . S
O243 C244 1.208 . S
C244 O242 1.247 . S
C244 O243 1.208 . S
C245 O250 1.247 . S
C245 O251 1.208 . S
C246 O238 1.315 . S
C246 O241 1.279 . S
C247 O248 1.315 . S
C247 O249 1.279 . S
O248 Cd240 2.223 . S
O248 C247 1.315 . S
O249 Cd239 2.240 . S
O249 C247 1.279 . S
O250 Cd240 2.297 . S
O250 C245 1.247 . S
O251 Cd240 2.439 . S
O251 C245 1.208 . S
O252 Cd253 2.223 . S
O252 C260 1.315 . S
Cd253 O252 2.223 . S
Cd253 O256 2.297 . S
Cd253 O257 2.439 . S
Cd253 O263 2.240 . S
Cd254 O255 2.240 . S
Cd254 O262 2.223 . S
Cd254 O264 2.297 . S
Cd254 O265 2.439 . S
O255 Cd254 2.240 . S
O255 C260 1.279 . S
O256 Cd253 2.297 . S
O256 C258 1.247 . S
O257 Cd253 2.439 . S
O257 C258 1.208 . S
C258 O256 1.247 . S
C258 O257 1.208 . S
C259 O264 1.247 . S
C259 O265 1.208 . S
C260 O252 1.315 . S
C260 O255 1.279 . S
C261 O262 1.315 . S
C261 O263 1.279 . S
O262 Cd254 2.223 . S
O262 C261 1.315 . S
O263 Cd253 2.240 . S
O263 C261 1.279 . S
O264 Cd254 2.297 . S
O264 C259 1.247 . S
O265 Cd254 2.439 . S
O265 C259 1.208 . S
O266 Cd267 2.223 . S
O266 C274 1.315 . S
Cd267 O266 2.223 . S
Cd267 O270 2.297 . S
Cd267 O271 2.439 . S
Cd267 O277 2.240 . S
Cd268 O269 2.240 . S
Cd268 O276 2.223 . S
Cd268 O278 2.297 . S
Cd268 O279 2.439 . S
O269 Cd268 2.240 . S
O269 C274 1.279 . S
O270 Cd267 2.297 . S
O270 C272 1.247 . S
O271 Cd267 2.439 . S
O271 C272 1.208 . S
C272 O270 1.247 . S
C272 O271 1.208 . S
C273 O278 1.247 . S
C273 O279 1.208 . S
C274 O266 1.315 . S
C274 O269 1.279 . S
C275 O276 1.315 . S
C275 O277 1.279 . S
O276 Cd268 2.223 . S
O276 C275 1.315 . S
O277 Cd267 2.240 . S
O277 C275 1.279 . S
O278 Cd268 2.297 . S
O278 C273 1.247 . S
O279 Cd268 2.439 . S
O279 C273 1.208 . S
O280 Cd281 2.223 . S
O280 C288 1.315 . S
Cd281 O280 2.223 . S
Cd281 O284 2.297 . S
Cd281 O285 2.439 . S
Cd281 O291 2.240 . S
Cd282 O283 2.240 . S
Cd282 O290 2.223 . S
Cd282 O292 2.297 . S
Cd282 O293 2.439 . S
O283 Cd282 2.240 . S
O283 C288 1.279 . S
O284 Cd281 2.297 . S
O284 C286 1.247 . S
O285 Cd281 2.439 . S
O285 C286 1.208 . S
C286 O284 1.247 . S
C286 O285 1.208 . S
C287 O292 1.247 . S
C287 O293 1.208 . S
C288 O280 1.315 . S
C288 O283 1.279 . S
C289 O290 1.315 . S
C289 O291 1.279 . S
O290 Cd282 2.223 . S
O290 C289 1.315 . S
O291 Cd281 2.240 . S
O291 C289 1.279 . S
O292 Cd282 2.297 . S
O292 C287 1.247 . S
O293 Cd282 2.439 . S
O293 C287 1.208 . S
O294 Cd295 2.226 . S
O294 C302 1.315 . S
Cd295 O294 2.226 . S
Cd295 O298 2.297 . S
Cd295 O299 2.439 . S
Cd295 O305 2.240 1_554 S
Cd296 O297 2.240 1_556 S
Cd296 O304 2.223 . S
Cd296 O306 2.297 . S
Cd296 O307 2.438 . S
O297 Cd296 2.240 1_554 S
O297 C302 1.286 . S
O298 Cd295 2.297 . S
O298 C300 1.247 . S
O299 Cd295 2.439 . S
O299 C300 1.208 . S
C300 O298 1.247 . S
C300 O299 1.208 . S
C301 O306 1.247 . S
C301 O307 1.207 . S
C302 O294 1.315 . S
C302 O297 1.286 . S
C303 O304 1.315 . S
C303 O305 1.279 . S
O304 Cd296 2.223 . S
O304 C303 1.315 . S
O305 Cd295 2.240 1_556 S
O305 C303 1.279 . S
O306 Cd296 2.297 . S
O306 C301 1.247 . S
O307 Cd296 2.438 . S
O307 C301 1.207 . S
O308 Cd309 2.226 . S
O308 C316 1.315 . S
Cd309 O308 2.226 . S
Cd309 O312 2.297 . S
Cd309 O313 2.439 . S
Cd309 O319 2.240 1_554 S
Cd310 O311 2.240 1_556 S
Cd310 O318 2.223 . S
Cd310 O320 2.297 . S
Cd310 O321 2.438 . S
O311 Cd310 2.240 1_554 S
O311 C316 1.286 . S
O312 Cd309 2.297 . S
O312 C314 1.247 . S
O313 Cd309 2.439 . S
O313 C314 1.208 . S
C314 O312 1.247 . S
C314 O313 1.208 . S
C315 O320 1.247 . S
C315 O321 1.207 . S
C316 O308 1.315 . S
C316 O311 1.286 . S
C317 O318 1.315 . S
C317 O319 1.279 . S
O318 Cd310 2.223 . S
O318 C317 1.315 . S
O319 Cd309 2.240 1_556 S
O319 C317 1.279 . S
O320 Cd310 2.297 . S
O320 C315 1.247 . S
O321 Cd310 2.438 . S
O321 C315 1.207 . S
O322 Cd323 2.226 . S
O322 C330 1.315 . S
Cd323 O322 2.226 . S
Cd323 O326 2.297 . S
Cd323 O327 2.439 . S
Cd323 O333 2.240 1_554 S
Cd324 O325 2.240 1_556 S
Cd324 O332 2.223 . S
Cd324 O334 2.297 . S
Cd324 O335 2.438 . S
O325 Cd324 2.240 1_554 S
O325 C330 1.286 . S
O326 Cd323 2.297 . S
O326 C328 1.247 . S
O327 Cd323 2.439 . S
O327 C328 1.208 . S
C328 O326 1.247 . S
C328 O327 1.208 . S
C329 O334 1.247 . S
C329 O335 1.207 . S
C330 O322 1.315 . S
C330 O325 1.286 . S
C331 O332 1.315 . S
C331 O333 1.279 . S
O332 Cd324 2.223 . S
O332 C331 1.315 . S
O333 Cd323 2.240 1_556 S
O333 C331 1.279 . S
O334 Cd324 2.297 . S
O334 C329 1.247 . S
O335 Cd324 2.438 . S
O335 C329 1.207 . S
O336 Cd337 2.223 . S
O336 C344 1.315 . S
Cd337 O336 2.223 . S
Cd337 O340 2.297 . S
Cd337 O341 2.439 . S
Cd337 O347 2.240 . S
Cd338 O339 2.240 . S
Cd338 O346 2.223 . S
Cd338 O348 2.297 . S
Cd338 O349 2.439 . S
O339 Cd338 2.240 . S
O339 C344 1.279 . S
O340 Cd337 2.297 . S
O340 C342 1.247 . S
O341 Cd337 2.439 . S
O341 C342 1.208 . S
C342 O340 1.247 . S
C342 O341 1.208 . S
C343 O348 1.247 . S
C343 O349 1.208 . S
C344 O336 1.315 . S
C344 O339 1.279 . S
C345 O346 1.315 . S
C345 O347 1.279 . S
O346 Cd338 2.223 . S
O346 C345 1.315 . S
O347 Cd337 2.240 . S
O347 C345 1.279 . S
O348 Cd338 2.297 . S
O348 C343 1.247 . S
O349 Cd338 2.439 . S
O349 C343 1.208 . S
O350 Cd351 2.223 . S
O350 C358 1.315 . S
Cd351 O350 2.223 . S
Cd351 O354 2.297 . S
Cd351 O355 2.439 . S
Cd351 O361 2.240 . S
Cd352 O353 2.240 . S
Cd352 O360 2.223 . S
Cd352 O362 2.297 . S
Cd352 O363 2.439 . S
O353 Cd352 2.240 . S
O353 C358 1.279 . S
O354 Cd351 2.297 . S
O354 C356 1.247 . S
O355 Cd351 2.439 . S
O355 C356 1.208 . S
C356 O354 1.247 . S
C356 O355 1.208 . S
C357 O362 1.247 . S
C357 O363 1.208 . S
C358 O350 1.315 . S
C358 O353 1.279 . S
C359 O360 1.315 . S
C359 O361 1.279 . S
O360 Cd352 2.223 . S
O360 C359 1.315 . S
O361 Cd351 2.240 . S
O361 C359 1.279 . S
O362 Cd352 2.297 . S
O362 C357 1.247 . S
O363 Cd352 2.439 . S
O363 C357 1.208 . S
O364 Cd365 2.223 . S
O364 C372 1.315 . S
Cd365 O364 2.223 . S
Cd365 O368 2.297 . S
Cd365 O369 2.439 . S
Cd365 O375 2.240 . S
Cd366 O367 2.240 . S
Cd366 O374 2.223 . S
Cd366 O376 2.297 . S
Cd366 O377 2.439 . S
O367 Cd366 2.240 . S
O367 C372 1.279 . S
O368 Cd365 2.297 . S
O368 C370 1.247 . S
O369 Cd365 2.439 . S
O369 C370 1.208 . S
C370 O368 1.247 . S
C370 O369 1.208 . S
C371 O376 1.247 . S
C371 O377 1.208 . S
C372 O364 1.315 . S
C372 O367 1.279 . S
C373 O374 1.315 . S
C373 O375 1.279 . S
O374 Cd366 2.223 . S
O374 C373 1.315 . S
O375 Cd365 2.240 . S
O375 C373 1.279 . S
O376 Cd366 2.297 . S
O376 C371 1.247 . S
O377 Cd366 2.439 . S
O377 C371 1.208 . S
O378 Cd379 2.226 . S
O378 C386 1.315 . S
Cd379 O378 2.226 . S
Cd379 O382 2.297 . S
Cd379 O383 2.439 . S
Cd379 O389 2.240 1_556 S
Cd380 O381 2.240 1_554 S
Cd380 O388 2.223 . S
Cd380 O390 2.297 . S
Cd380 O391 2.438 . S
O381 Cd380 2.240 1_556 S
O381 C386 1.286 . S
O382 Cd379 2.297 . S
O382 C384 1.247 . S
O383 Cd379 2.439 . S
O383 C384 1.208 . S
C384 O382 1.247 . S
C384 O383 1.208 . S
C385 O390 1.247 . S
C385 O391 1.207 . S
C386 O378 1.315 . S
C386 O381 1.286 . S
C387 O388 1.315 . S
C387 O389 1.279 . S
O388 Cd380 2.223 . S
O388 C387 1.315 . S
O389 Cd379 2.240 1_554 S
O389 C387 1.279 . S
O390 Cd380 2.297 . S
O390 C385 1.247 . S
O391 Cd380 2.438 . S
O391 C385 1.207 . S
O392 Cd393 2.226 . S
O392 C400 1.315 . S
Cd393 O392 2.226 . S
Cd393 O396 2.297 . S
Cd393 O397 2.439 . S
Cd393 O403 2.240 1_556 S
Cd394 O395 2.240 1_554 S
Cd394 O402 2.223 . S
Cd394 O404 2.297 . S
Cd394 O405 2.438 . S
O395 Cd394 2.240 1_556 S
O395 C400 1.286 . S
O396 Cd393 2.297 . S
O396 C398 1.247 . S
O397 Cd393 2.439 . S
O397 C398 1.208 . S
C398 O396 1.247 . S
C398 O397 1.208 . S
C399 O404 1.247 . S
C399 O405 1.207 . S
C400 O392 1.315 . S
C400 O395 1.286 . S
C401 O402 1.315 . S
C401 O403 1.279 . S
O402 Cd394 2.223 . S
O402 C401 1.315 . S
O403 Cd393 2.240 1_554 S
O403 C401 1.279 . S
O404 Cd394 2.297 . S
O404 C399 1.247 . S
O405 Cd394 2.438 . S
O405 C399 1.207 . S
O406 Cd407 2.226 . S
O406 C414 1.315 . S
Cd407 O406 2.226 . S
Cd407 O410 2.297 . S
Cd407 O411 2.439 . S
Cd407 O417 2.240 1_556 S
Cd408 O409 2.240 1_554 S
Cd408 O416 2.223 . S
Cd408 O418 2.297 . S
Cd408 O419 2.438 . S
O409 Cd408 2.240 1_556 S
O409 C414 1.286 . S
O410 Cd407 2.297 . S
O410 C412 1.247 . S
O411 Cd407 2.439 . S
O411 C412 1.208 . S
C412 O410 1.247 . S
C412 O411 1.208 . S
C413 O418 1.247 . S
C413 O419 1.207 . S
C414 O406 1.315 . S
C414 O409 1.286 . S
C415 O416 1.315 . S
C415 O417 1.279 . S
O416 Cd408 2.223 . S
O416 C415 1.315 . S
O417 Cd407 2.240 1_554 S
O417 C415 1.279 . S
O418 Cd408 2.297 . S
O418 C413 1.247 . S
O419 Cd408 2.438 . S
O419 C413 1.207 . S
O420 Cd421 2.212 . S
O420 C428 1.315 . S
Cd421 O420 2.212 . S
Cd421 O424 2.290 1_655 S
Cd421 O425 2.457 . S
Cd421 O431 2.256 . S
Cd422 O423 2.240 . S
Cd422 O430 2.223 . S
Cd422 O432 2.297 . S
Cd422 O433 2.439 . S
O423 Cd422 2.240 . S
O423 C428 1.279 . S
O424 Cd421 2.290 1_455 S
O424 C426 1.247 1_455 S
O425 Cd421 2.457 . S
O425 C426 1.208 . S
C426 O424 1.247 1_655 S
C426 O425 1.208 . S
C427 O432 1.247 . S
C427 O433 1.208 . S
C428 O420 1.315 . S
C428 O423 1.279 . S
C429 O430 1.315 . S
C429 O431 1.279 . S
O430 Cd422 2.223 . S
O430 C429 1.315 . S
O431 Cd421 2.256 . S
O431 C429 1.279 . S
O432 Cd422 2.297 . S
O432 C427 1.247 . S
O433 Cd422 2.439 . S
O433 C427 1.208 . S
O434 Cd435 2.223 . S
O434 C442 1.315 . S
Cd435 O434 2.223 . S
Cd435 O438 2.297 . S
Cd435 O439 2.439 . S
Cd435 O445 2.240 . S
Cd436 O437 2.240 . S
Cd436 O444 2.223 . S
Cd436 O446 2.297 . S
Cd436 O447 2.439 . S
O437 Cd436 2.240 . S
O437 C442 1.279 . S
O438 Cd435 2.297 . S
O438 C440 1.247 . S
O439 Cd435 2.439 . S
O439 C440 1.208 . S
C440 O438 1.247 . S
C440 O439 1.208 . S
C441 O446 1.247 . S
C441 O447 1.208 . S
C442 O434 1.315 . S
C442 O437 1.279 . S
C443 O444 1.315 . S
C443 O445 1.279 . S
O444 Cd436 2.223 . S
O444 C443 1.315 . S
O445 Cd435 2.240 . S
O445 C443 1.279 . S
O446 Cd436 2.297 . S
O446 C441 1.247 . S
O447 Cd436 2.439 . S
O447 C441 1.208 . S
O448 Cd449 2.248 . S
O448 C456 1.315 . S
Cd449 O448 2.248 . S
Cd449 O452 2.295 1_545 S
Cd449 O453 2.451 . S
Cd449 O459 2.250 . S
Cd450 O451 2.240 . S
Cd450 O458 2.223 . S
Cd450 O460 2.297 . S
Cd450 O461 2.439 . S
O451 Cd450 2.240 . S
O451 C456 1.279 . S
O452 Cd449 2.295 1_565 S
O452 C454 1.247 1_565 S
O453 Cd449 2.451 . S
O453 C454 1.208 . S
C454 O452 1.247 1_545 S
C454 O453 1.208 . S
C455 O460 1.247 . S
C455 O461 1.208 . S
C456 O448 1.315 . S
C456 O451 1.279 . S
C457 O458 1.315 . S
C457 O459 1.279 . S
O458 Cd450 2.223 . S
O458 C457 1.315 . S
O459 Cd449 2.250 . S
O459 C457 1.279 . S
O460 Cd450 2.297 . S
O460 C455 1.247 . S
O461 Cd450 2.439 . S
O461 C455 1.208 . S
O462 Cd463 2.223 . S
O462 C470 1.315 . S
Cd463 O462 2.223 . S
Cd463 O466 2.297 . S
Cd463 O467 2.439 . S
Cd463 O473 2.240 . S
Cd464 O465 2.240 . S
Cd464 O472 2.223 . S
Cd464 O474 2.297 . S
Cd464 O475 2.439 . S
O465 Cd464 2.240 . S
O465 C470 1.279 . S
O466 Cd463 2.297 . S
O466 C468 1.247 . S
O467 Cd463 2.439 . S
O467 C468 1.208 . S
C468 O466 1.247 . S
C468 O467 1.208 . S
C469 O474 1.247 . S
C469 O475 1.208 . S
C470 O462 1.315 . S
C470 O465 1.279 . S
C471 O472 1.315 . S
C471 O473 1.279 . S
O472 Cd464 2.223 . S
O472 C471 1.315 . S
O473 Cd463 2.240 . S
O473 C471 1.279 . S
O474 Cd464 2.297 . S
O474 C469 1.247 . S
O475 Cd464 2.439 . S
O475 C469 1.208 . S
O476 Cd477 2.223 . S
O476 C484 1.315 . S
Cd477 O476 2.223 . S
Cd477 O480 2.297 . S
Cd477 O481 2.439 . S
Cd477 O487 2.240 . S
Cd478 O479 2.240 . S
Cd478 O486 2.223 . S
Cd478 O488 2.297 . S
Cd478 O489 2.439 . S
O479 Cd478 2.240 . S
O479 C484 1.279 . S
O480 Cd477 2.297 . S
O480 C482 1.247 . S
O481 Cd477 2.439 . S
O481 C482 1.208 . S
C482 O480 1.247 . S
C482 O481 1.208 . S
C483 O488 1.247 . S
C483 O489 1.208 . S
C484 O476 1.315 . S
C484 O479 1.279 . S
C485 O486 1.315 . S
C485 O487 1.279 . S
O486 Cd478 2.223 . S
O486 C485 1.315 . S
O487 Cd477 2.240 . S
O487 C485 1.279 . S
O488 Cd478 2.297 . S
O488 C483 1.247 . S
O489 Cd478 2.439 . S
O489 C483 1.208 . S
O490 Cd491 2.223 . S
O490 C498 1.315 . S
Cd491 O490 2.223 . S
Cd491 O494 2.297 . S
Cd491 O495 2.439 . S
Cd491 O501 2.240 . S
Cd492 O493 2.240 . S
Cd492 O500 2.223 . S
Cd492 O502 2.297 . S
Cd492 O503 2.439 . S
O493 Cd492 2.240 . S
O493 C498 1.279 . S
O494 Cd491 2.297 . S
O494 C496 1.247 . S
O495 Cd491 2.439 . S
O495 C496 1.208 . S
C496 O494 1.247 . S
C496 O495 1.208 . S
C497 O502 1.247 . S
C497 O503 1.208 . S
C498 O490 1.315 . S
C498 O493 1.279 . S
C499 O500 1.315 . S
C499 O501 1.279 . S
O500 Cd492 2.223 . S
O500 C499 1.315 . S
O501 Cd491 2.240 . S
O501 C499 1.279 . S
O502 Cd492 2.297 . S
O502 C497 1.247 . S
O503 Cd492 2.439 . S
O503 C497 1.208 . S
H504 C510 0.930 . S
H505 C514 0.930 . S
H506 C519 0.929 . S
H507 C517 0.929 . S
H508 C512 0.929 . S
H509 C518 0.929 . S
C510 H504 0.930 . S
C510 C511 1.367 . S
C510 C518 1.378 . S
C511 C510 1.367 . S
C511 C519 1.433 . S
C512 H508 0.929 . S
C512 C514 1.378 . S
C512 C516 1.350 . S
C513 C516 1.463 . S
C513 C518 1.350 . S
C513 N521 1.427 . S
C514 H505 0.930 . S
C514 C512 1.378 . S
C514 C515 1.367 . S
C515 C514 1.367 . S
C515 C517 1.433 . S
C516 C512 1.350 . S
C516 C513 1.463 . S
C516 N520 1.427 . S
C517 H507 0.929 . S
C517 C515 1.433 . S
C517 N520 1.384 . S
C518 H509 0.929 . S
C518 C510 1.378 . S
C518 C513 1.350 . S
C519 H506 0.929 . S
C519 C511 1.433 . S
C519 N521 1.384 . S
N520 C516 1.427 . S
N520 C517 1.384 . S
N521 C513 1.427 . S
N521 C519 1.384 . S
H522 C528 0.930 . S
H523 C532 0.930 . S
H524 C537 0.929 . S
H525 C535 0.929 . S
H526 C530 0.929 . S
H527 C536 0.929 . S
C528 H522 0.930 . S
C528 C529 1.367 . S
C528 C536 1.378 . S
C529 C528 1.367 . S
C529 C537 1.433 . S
C530 H526 0.929 . S
C530 C532 1.378 . S
C530 C534 1.350 . S
C531 C534 1.463 . S
C531 C536 1.350 . S
C531 N539 1.427 . S
C532 H523 0.930 . S
C532 C530 1.378 . S
C532 C533 1.367 . S
C533 C532 1.367 . S
C533 C535 1.433 . S
C534 C530 1.350 . S
C534 C531 1.463 . S
C534 N538 1.427 . S
C535 H525 0.929 . S
C535 C533 1.433 . S
C535 N538 1.384 . S
C536 H527 0.929 . S
C536 C528 1.378 . S
C536 C531 1.350 . S
C537 H524 0.929 . S
C537 C529 1.433 . S
C537 N539 1.384 . S
N538 C534 1.427 . S
N538 C535 1.384 . S
N539 C531 1.427 . S
N539 C537 1.384 . S
H540 C546 0.930 . S
H541 C550 0.930 . S
H542 C555 0.929 . S
H543 C553 0.929 . S
H544 C548 0.929 . S
H545 C554 0.929 . S
C546 H540 0.930 . S
C546 C547 1.367 . S
C546 C554 1.378 . S
C547 C546 1.367 . S
C547 C555 1.433 . S
C548 H544 0.929 . S
C548 C550 1.378 . S
C548 C552 1.350 . S
C549 C552 1.463 . S
C549 C554 1.350 . S
C549 N557 1.427 . S
C550 H541 0.930 . S
C550 C548 1.378 . S
C550 C551 1.367 . S
C551 C550 1.367 . S
C551 C553 1.433 . S
C552 C548 1.350 . S
C552 C549 1.463 . S
C552 N556 1.427 . S
C553 H543 0.929 . S
C553 C551 1.433 . S
C553 N556 1.384 . S
C554 H545 0.929 . S
C554 C546 1.378 . S
C554 C549 1.350 . S
C555 H542 0.929 . S
C555 C547 1.433 . S
C555 N557 1.384 . S
N556 C552 1.427 . S
N556 C553 1.384 . S
N557 C549 1.427 . S
N557 C555 1.384 . S
H558 C564 0.930 1_556 S
H559 C568 0.930 . S
H560 C573 0.929 . S
H561 C571 0.929 . S
H562 C566 0.929 . S
H563 C572 0.929 . S
C564 H558 0.930 1_554 S
C564 C565 1.367 1_554 S
C564 C572 1.378 . S
C565 C564 1.367 1_556 S
C565 C573 1.433 . S
C566 H562 0.929 . S
C566 C568 1.378 . S
C566 C570 1.350 . S
C567 C570 1.463 . S
C567 C572 1.350 . S
C567 N575 1.427 . S
C568 H559 0.930 . S
C568 C566 1.378 . S
C568 C569 1.367 . S
C569 C568 1.367 . S
C569 C571 1.433 . S
C570 C566 1.350 . S
C570 C567 1.463 . S
C570 N574 1.427 . S
C571 H561 0.929 . S
C571 C569 1.433 . S
C571 N574 1.384 . S
C572 H563 0.929 . S
C572 C564 1.378 . S
C572 C567 1.350 . S
C573 H560 0.929 . S
C573 C565 1.433 . S
C573 N575 1.384 1_556 S
N574 C570 1.427 . S
N574 C571 1.384 . S
N575 C567 1.427 . S
N575 C573 1.384 1_554 S
H576 C582 0.930 . S
H577 C586 0.930 1_556 S
H578 C591 0.929 . S
H579 C589 0.929 . S
H580 C584 0.929 . S
H581 C590 0.929 . S
C582 H576 0.930 . S
C582 C583 1.367 . S
C582 C590 1.378 . S
C583 C582 1.367 . S
C583 C591 1.433 . S
C584 H580 0.929 . S
C584 C586 1.378 . S
C584 C588 1.350 . S
C585 C588 1.463 . S
C585 C590 1.350 . S
C585 N593 1.427 . S
C586 H577 0.930 1_554 S
C586 C584 1.378 . S
C586 C587 1.367 1_554 S
C587 C586 1.367 1_556 S
C587 C589 1.433 . S
C588 C584 1.350 . S
C588 C585 1.463 . S
C588 N592 1.427 . S
C589 H579 0.929 . S
C589 C587 1.433 . S
C589 N592 1.384 1_556 S
C590 H581 0.929 . S
C590 C582 1.378 . S
C590 C585 1.350 . S
C591 H578 0.929 . S
C591 C583 1.433 . S
C591 N593 1.384 . S
N592 C588 1.427 . S
N592 C589 1.384 1_554 S
N593 C585 1.427 . S
N593 C591 1.384 . S
H594 C600 0.930 . S
H595 C604 0.930 . S
H596 C609 0.929 . S
H597 C607 0.929 1_556 S
H598 C602 0.929 . S
H599 C608 0.929 . S
C600 H594 0.930 . S
C600 C601 1.367 . S
C600 C608 1.378 . S
C601 C600 1.367 . S
C601 C609 1.433 . S
C602 H598 0.929 . S
C602 C604 1.378 1_554 S
C602 C606 1.350 . S
C603 C606 1.463 . S
C603 C608 1.350 . S
C603 N611 1.427 . S
C604 H595 0.930 . S
C604 C602 1.378 1_556 S
C604 C605 1.367 . S
C605 C604 1.367 . S
C605 C607 1.433 1_556 S
C606 C602 1.350 . S
C606 C603 1.463 . S
C606 N610 1.427 . S
C607 H597 0.929 1_554 S
C607 C605 1.433 1_554 S
C607 N610 1.384 . S
C608 H599 0.929 . S
C608 C600 1.378 . S
C608 C603 1.350 . S
C609 H596 0.929 . S
C609 C601 1.433 . S
C609 N611 1.384 . S
N610 C606 1.427 . S
N610 C607 1.384 . S
N611 C603 1.427 . S
N611 C609 1.384 . S
H612 C618 0.930 . S
H613 C622 0.930 . S
H614 C627 0.929 . S
H615 C625 0.929 . S
H616 C620 0.929 . S
H617 C626 0.929 . S
C618 H612 0.930 . S
C618 C619 1.367 . S
C618 C626 1.378 . S
C619 C618 1.367 . S
C619 C627 1.433 . S
C620 H616 0.929 . S
C620 C622 1.378 . S
C620 C624 1.350 . S
C621 C624 1.463 . S
C621 C626 1.350 . S
C621 N629 1.427 . S
C622 H613 0.930 . S
C622 C620 1.378 . S
C622 C623 1.367 . S
C623 C622 1.367 . S
C623 C625 1.433 . S
C624 C620 1.350 . S
C624 C621 1.463 . S
C624 N628 1.427 . S
C625 H615 0.929 . S
C625 C623 1.433 . S
C625 N628 1.384 . S
C626 H617 0.929 . S
C626 C618 1.378 . S
C626 C621 1.350 . S
C627 H614 0.929 . S
C627 C619 1.433 . S
C627 N629 1.384 . S
N628 C624 1.427 . S
N628 C625 1.384 . S
N629 C621 1.427 . S
N629 C627 1.384 . S
H630 C636 0.930 . S
H631 C640 0.930 . S
H632 C645 0.929 . S
H633 C643 0.929 . S
H634 C638 0.929 . S
H635 C644 0.929 . S
C636 H630 0.930 . S
C636 C637 1.367 . S
C636 C644 1.378 . S
C637 C636 1.367 . S
C637 C645 1.433 . S
C638 H634 0.929 . S
C638 C640 1.378 . S
C638 C642 1.350 . S
C639 C642 1.463 . S
C639 C644 1.350 . S
C639 N647 1.427 . S
C640 H631 0.930 . S
C640 C638 1.378 . S
C640 C641 1.367 . S
C641 C640 1.367 . S
C641 C643 1.433 . S
C642 C638 1.350 . S
C642 C639 1.463 . S
C642 N646 1.427 . S
C643 H633 0.929 . S
C643 C641 1.433 . S
C643 N646 1.384 . S
C644 H635 0.929 . S
C644 C636 1.378 . S
C644 C639 1.350 . S
C645 H632 0.929 . S
C645 C637 1.433 . S
C645 N647 1.384 . S
N646 C642 1.427 . S
N646 C643 1.384 . S
N647 C639 1.427 . S
N647 C645 1.384 . S
H648 C654 0.930 . S
H649 C658 0.930 . S
H650 C663 0.929 . S
H651 C661 0.929 . S
H652 C656 0.929 . S
H653 C662 0.929 . S
C654 H648 0.930 . S
C654 C655 1.367 . S
C654 C662 1.378 . S
C655 C654 1.367 . S
C655 C663 1.433 . S
C656 H652 0.929 . S
C656 C658 1.378 . S
C656 C660 1.350 . S
C657 C660 1.463 . S
C657 C662 1.350 . S
C657 N665 1.427 . S
C658 H649 0.930 . S
C658 C656 1.378 . S
C658 C659 1.367 . S
C659 C658 1.367 . S
C659 C661 1.433 . S
C660 C656 1.350 . S
C660 C657 1.463 . S
C660 N664 1.427 . S
C661 H651 0.929 . S
C661 C659 1.433 . S
C661 N664 1.384 . S
C662 H653 0.929 . S
C662 C654 1.378 . S
C662 C657 1.350 . S
C663 H650 0.929 . S
C663 C655 1.433 . S
C663 N665 1.384 . S
N664 C660 1.427 . S
N664 C661 1.384 . S
N665 C657 1.427 . S
N665 C663 1.384 . S
H666 C672 0.930 . S
H667 C676 0.930 1_554 S
H668 C681 0.929 . S
H669 C679 0.929 . S
H670 C674 0.929 . S
H671 C680 0.929 . S
C672 H666 0.930 . S
C672 C673 1.367 . S
C672 C680 1.378 . S
C673 C672 1.367 . S
C673 C681 1.433 . S
C674 H670 0.929 . S
C674 C676 1.378 . S
C674 C678 1.350 . S
C675 C678 1.463 . S
C675 C680 1.350 . S
C675 N683 1.427 . S
C676 H667 0.930 1_556 S
C676 C674 1.378 . S
C676 C677 1.367 1_556 S
C677 C676 1.367 1_554 S
C677 C679 1.433 . S
C678 C674 1.350 . S
C678 C675 1.463 . S
C678 N682 1.427 . S
C679 H669 0.929 . S
C679 C677 1.433 . S
C679 N682 1.384 1_554 S
C680 H671 0.929 . S
C680 C672 1.378 . S
C680 C675 1.350 . S
C681 H668 0.929 . S
C681 C673 1.433 . S
C681 N683 1.384 . S
N682 C678 1.427 . S
N682 C679 1.384 1_556 S
N683 C675 1.427 . S
N683 C681 1.384 . S
H684 C690 0.925 1_554 S
H685 C694 0.930 . S
H686 C699 0.929 . S
H687 C697 0.929 . S
H688 C692 0.929 . S
H689 C698 0.929 . S
C690 H684 0.925 1_556 S
C690 C691 1.354 1_556 S
C690 C698 1.397 . S
C691 C690 1.354 1_554 S
C691 C699 1.433 . S
C692 H688 0.929 . S
C692 C694 1.378 . S
C692 C696 1.350 . S
C693 C696 1.463 . S
C693 C698 1.350 . S
C693 N701 1.427 . S
C694 H685 0.930 . S
C694 C692 1.378 . S
C694 C695 1.367 . S
C695 C694 1.367 . S
C695 C697 1.433 . S
C696 C692 1.350 . S
C696 C693 1.463 . S
C696 N700 1.427 . S
C697 H687 0.929 . S
C697 C695 1.433 . S
C697 N700 1.384 . S
C698 H689 0.929 . S
C698 C690 1.397 . S
C698 C693 1.350 . S
C699 H686 0.929 . S
C699 C691 1.433 . S
C699 N701 1.384 1_554 S
N700 C696 1.427 . S
N700 C697 1.384 . S
N701 C693 1.427 . S
N701 C699 1.384 1_556 S
H702 C708 0.930 . S
H703 C712 0.930 . S
H704 C717 0.929 . S
H705 C715 0.929 . S
H706 C710 0.929 . S
H707 C716 0.929 . S
C708 H702 0.930 . S
C708 C709 1.367 . S
C708 C716 1.378 . S
C709 C708 1.367 . S
C709 C717 1.433 . S
C710 H706 0.929 . S
C710 C712 1.378 1_556 S
C710 C714 1.350 . S
C711 C714 1.463 . S
C711 C716 1.350 . S
C711 N719 1.427 . S
C712 H703 0.930 . S
C712 C710 1.378 1_554 S
C712 C713 1.367 . S
C713 C712 1.367 . S
C713 C715 1.433 . S
C714 C710 1.350 . S
C714 C711 1.463 . S
C714 N718 1.427 . S
C715 H705 0.929 . S
C715 C713 1.433 . S
C715 N718 1.384 1_554 S
C716 H707 0.929 . S
C716 C708 1.378 . S
C716 C711 1.350 . S
C717 H704 0.929 . S
C717 C709 1.433 . S
C717 N719 1.384 . S
N718 C714 1.427 . S
N718 C715 1.384 1_556 S
N719 C711 1.427 . S
N719 C717 1.384 . S
H720 C726 0.930 . S
H721 C730 0.930 . S
H722 C735 0.929 1_455 S
H723 C733 0.929 . S
H724 C728 0.929 . S
H725 C734 0.929 . S
C726 H720 0.930 . S
C726 C727 1.367 . S
C726 C734 1.378 . S
C727 C726 1.367 . S
C727 C735 1.433 . S
C728 H724 0.929 . S
C728 C730 1.378 . S
C728 C732 1.350 1_455 S
C729 C732 1.463 . S
C729 C734 1.350 . S
C729 N737 1.426 1_655 S
C730 H721 0.930 . S
C730 C728 1.378 . S
C730 C731 1.367 . S
C731 C730 1.367 . S
C731 C733 1.433 1_455 S
C732 C728 1.350 1_655 S
C732 C729 1.463 . S
C732 N736 1.427 . S
C733 H723 0.929 . S
C733 C731 1.433 1_655 S
C733 N736 1.384 . S
C734 H725 0.929 . S
C734 C726 1.378 . S
C734 C729 1.350 . S
C735 H722 0.929 1_655 S
C735 C727 1.433 . S
C735 N737 1.381 1_655 S
N736 C732 1.427 . S
N736 C733 1.384 . S
N737 C729 1.426 1_455 S
N737 C735 1.381 1_455 S
H738 C744 0.930 . S
H739 C748 0.930 . S
H740 C753 0.929 . S
H741 C751 0.929 . S
H742 C746 0.929 . S
H743 C752 0.929 . S
C744 H738 0.930 . S
C744 C745 1.367 . S
C744 C752 1.378 . S
C745 C744 1.367 . S
C745 C753 1.433 . S
C746 H742 0.929 . S
C746 C748 1.378 . S
C746 C750 1.350 . S
C747 C750 1.463 . S
C747 C752 1.350 . S
C747 N755 1.427 . S
C748 H739 0.930 . S
C748 C746 1.378 . S
C748 C749 1.367 . S
C749 C748 1.367 . S
C749 C751 1.433 . S
C750 C746 1.350 . S
C750 C747 1.463 . S
C750 N754 1.427 . S
C751 H741 0.929 . S
C751 C749 1.433 . S
C751 N754 1.384 . S
C752 H743 0.929 . S
C752 C744 1.378 . S
C752 C747 1.350 . S
C753 H740 0.929 . S
C753 C745 1.433 . S
C753 N755 1.384 . S
N754 C750 1.427 . S
N754 C751 1.384 . S
N755 C747 1.427 . S
N755 C753 1.384 . S
H756 C762 0.930 . S
H757 C766 0.930 . S
H758 C771 0.929 1_565 S
H759 C769 0.929 . S
H760 C764 0.929 . S
H761 C770 0.929 . S
C762 H756 0.930 . S
C762 C763 1.367 . S
C762 C770 1.378 . S
C763 C762 1.367 . S
C763 C771 1.433 . S
C764 H760 0.929 . S
C764 C766 1.378 . S
C764 C768 1.350 1_565 S
C765 C768 1.463 . S
C765 C770 1.350 . S
C765 N773 1.427 1_545 S
C766 H757 0.930 . S
C766 C764 1.378 . S
C766 C767 1.367 . S
C767 C766 1.367 . S
C767 C769 1.433 1_565 S
C768 C764 1.350 1_545 S
C768 C765 1.463 . S
C768 N772 1.427 . S
C769 H759 0.929 . S
C769 C767 1.433 1_545 S
C769 N772 1.384 . S
C770 H761 0.929 . S
C770 C762 1.378 . S
C770 C765 1.350 . S
C771 H758 0.929 1_545 S
C771 C763 1.433 . S
C771 N773 1.384 1_545 S
N772 C768 1.427 . S
N772 C769 1.384 . S
N773 C765 1.427 1_565 S
N773 C771 1.384 1_565 S
H774 C780 0.930 . S
H775 C784 0.930 . S
H776 C789 0.929 . S
H777 C787 0.929 . S
H778 C782 0.929 1_545 S
H779 C788 0.929 . S
C780 H774 0.930 . S
C780 C781 1.367 1_565 S
C780 C788 1.378 . S
C781 C780 1.367 1_545 S
C781 C789 1.433 . S
C782 H778 0.929 1_565 S
C782 C784 1.378 . S
C782 C786 1.350 . S
C783 C786 1.463 . S
C783 C788 1.350 . S
C783 N791 1.427 1_565 S
C784 H775 0.930 . S
C784 C782 1.378 . S
C784 C785 1.367 . S
C785 C784 1.367 . S
C785 C787 1.433 . S
C786 C782 1.350 . S
C786 C783 1.463 . S
C786 N790 1.427 . S
C787 H777 0.929 . S
C787 C785 1.433 . S
C787 N790 1.384 . S
C788 H779 0.929 . S
C788 C780 1.378 . S
C788 C783 1.350 . S
C789 H776 0.929 . S
C789 C781 1.433 . S
C789 N791 1.384 . S
N790 C786 1.427 . S
N790 C787 1.384 . S
N791 C783 1.427 1_545 S
N791 C789 1.384 . S
H792 C798 0.930 . S
H793 C802 0.930 1_655 S
H794 C807 0.929 . S
H795 C805 0.929 . S
H796 C800 0.929 . S
H797 C806 0.929 . S
C798 H792 0.930 . S
C798 C799 1.367 1_455 S
C798 C806 1.378 . S
C799 C798 1.367 1_655 S
C799 C807 1.433 . S
C800 H796 0.929 . S
C800 C802 1.378 1_655 S
C800 C804 1.350 1_655 S
C801 C804 1.463 . S
C801 C806 1.350 . S
C801 N809 1.427 1_455 S
C802 H793 0.930 1_455 S
C802 C800 1.378 1_455 S
C802 C803 1.367 . S
C803 C802 1.367 . S
C803 C805 1.433 . S
C804 C800 1.350 1_455 S
C804 C801 1.463 . S
C804 N808 1.427 . S
C805 H795 0.929 . S
C805 C803 1.433 . S
C805 N808 1.384 . S
C806 H797 0.929 . S
C806 C798 1.378 . S
C806 C801 1.350 . S
C807 H794 0.929 . S
C807 C799 1.433 . S
C807 N809 1.384 . S
N808 C804 1.427 . S
N808 C805 1.384 . S
N809 C801 1.427 1_655 S
N809 C807 1.384 . S
H810 C816 0.930 . S
H811 C820 0.930 . S
H812 C825 0.929 . S
H813 C823 0.929 . S
H814 C818 0.929 . S
H815 C824 0.929 . S
C816 H810 0.930 . S
C816 C817 1.367 . S
C816 C824 1.378 . S
C817 C816 1.367 . S
C817 C825 1.433 . S
C818 H814 0.929 . S
C818 C820 1.378 . S
C818 C822 1.350 . S
C819 C822 1.463 . S
C819 C824 1.350 . S
C819 N827 1.427 . S
C820 H811 0.930 . S
C820 C818 1.378 . S
C820 C821 1.367 . S
C821 C820 1.367 . S
C821 C823 1.433 . S
C822 C818 1.350 . S
C822 C819 1.463 . S
C822 N826 1.427 . S
C823 H813 0.929 . S
C823 C821 1.433 . S
C823 N826 1.384 . S
C824 H815 0.929 . S
C824 C816 1.378 . S
C824 C819 1.350 . S
C825 H812 0.929 . S
C825 C817 1.433 . S
C825 N827 1.384 . S
N826 C822 1.427 . S
N826 C823 1.384 . S
N827 C819 1.427 . S
N827 C825 1.384 . S
H828 C834 0.930 . S
H829 C838 0.930 . S
H830 C843 0.929 . S
H831 C841 0.929 . S
H832 C836 0.929 . S
H833 C842 0.929 . S
C834 H828 0.930 . S
C834 C835 1.367 . S
C834 C842 1.378 . S
C835 C834 1.367 . S
C835 C843 1.433 . S
C836 H832 0.929 . S
C836 C838 1.378 . S
C836 C840 1.350 . S
C837 C840 1.463 . S
C837 C842 1.350 . S
C837 N845 1.427 . S
C838 H829 0.930 . S
C838 C836 1.378 . S
C838 C839 1.367 . S
C839 C838 1.367 . S
C839 C841 1.433 . S
C840 C836 1.350 . S
C840 C837 1.463 . S
C840 N844 1.427 . S
C841 H831 0.929 . S
C841 C839 1.433 . S
C841 N844 1.384 . S
C842 H833 0.929 . S
C842 C834 1.378 . S
C842 C837 1.350 . S
C843 H830 0.929 . S
C843 C835 1.433 . S
C843 N845 1.384 . S
N844 C840 1.427 . S
N844 C841 1.384 . S
N845 C837 1.427 . S
N845 C843 1.384 . S
H846 C852 0.930 . S
H847 C856 0.930 . S
H848 C861 0.929 . S
H849 C859 0.929 . S
H850 C854 0.929 . S
H851 C860 0.929 . S
C852 H846 0.930 . S
C852 C853 1.367 . S
C852 C860 1.378 . S
C853 C852 1.367 . S
C853 C861 1.433 . S
C854 H850 0.929 . S
C854 C856 1.378 . S
C854 C858 1.350 . S
C855 C858 1.463 . S
C855 C860 1.350 . S
C855 N863 1.427 . S
C856 H847 0.930 . S
C856 C854 1.378 . S
C856 C857 1.367 . S
C857 C856 1.367 . S
C857 C859 1.433 . S
C858 C854 1.350 . S
C858 C855 1.463 . S
C858 N862 1.427 . S
C859 H849 0.929 . S
C859 C857 1.433 . S
C859 N862 1.384 . S
C860 H851 0.929 . S
C860 C852 1.378 . S
C860 C855 1.350 . S
C861 H848 0.929 . S
C861 C853 1.433 . S
C861 N863 1.384 . S
N862 C858 1.427 . S
N862 C859 1.384 . S
N863 C855 1.427 . S
N863 C861 1.384 . S
H864 C870 0.930 . S
H865 C874 0.930 . S
H866 C879 0.929 . S
H867 C877 0.929 . S
H868 C872 0.929 . S
H869 C878 0.929 . S
C870 H864 0.930 . S
C870 C871 1.367 . S
C870 C878 1.378 . S
C871 C870 1.367 . S
C871 C879 1.433 . S
C872 H868 0.929 . S
C872 C874 1.378 . S
C872 C876 1.350 . S
C873 C876 1.463 . S
C873 C878 1.350 . S
C873 N881 1.427 . S
C874 H865 0.930 . S
C874 C872 1.378 . S
C874 C875 1.367 . S
C875 C874 1.367 . S
C875 C877 1.433 . S
C876 C872 1.350 . S
C876 C873 1.463 . S
C876 N880 1.427 . S
C877 H867 0.929 . S
C877 C875 1.433 . S
C877 N880 1.384 . S
C878 H869 0.929 . S
C878 C870 1.378 . S
C878 C873 1.350 . S
C879 H866 0.929 . S
C879 C871 1.433 . S
C879 N881 1.384 . S
N880 C876 1.427 . S
N880 C877 1.384 . S
N881 C873 1.427 . S
N881 C879 1.384 . S
H882 C888 0.930 . S
H883 C892 0.930 . S
H884 C897 0.929 . S
H885 C895 0.929 . S
H886 C890 0.929 . S
H887 C896 0.929 . S
C888 H882 0.930 . S
C888 C889 1.367 . S
C888 C896 1.378 . S
C889 C888 1.367 . S
C889 C897 1.433 . S
C890 H886 0.929 . S
C890 C892 1.378 . S
C890 C894 1.350 . S
C891 C894 1.463 . S
C891 C896 1.350 . S
C891 N899 1.427 . S
C892 H883 0.930 . S
C892 C890 1.378 . S
C892 C893 1.367 . S
C893 C892 1.367 . S
C893 C895 1.433 . S
C894 C890 1.350 . S
C894 C891 1.463 . S
C894 N898 1.427 . S
C895 H885 0.929 . S
C895 C893 1.433 . S
C895 N898 1.384 . S
C896 H887 0.929 . S
C896 C888 1.378 . S
C896 C891 1.350 . S
C897 H884 0.929 . S
C897 C889 1.433 . S
C897 N899 1.384 . S
N898 C894 1.427 . S
N898 C895 1.384 . S
N899 C891 1.427 . S
N899 C897 1.384 . S
H900 C906 0.930 . S
H901 C910 0.930 . S
H902 C915 0.929 . S
H903 C913 0.929 . S
H904 C908 0.929 . S
H905 C914 0.929 . S
C906 H900 0.930 . S
C906 C907 1.367 . S
C906 C914 1.378 . S
C907 C906 1.367 . S
C907 C915 1.433 . S
C908 H904 0.929 . S
C908 C910 1.378 . S
C908 C912 1.350 . S
C909 C912 1.463 . S
C909 C914 1.350 . S
C909 N917 1.427 . S
C910 H901 0.930 . S
C910 C908 1.378 . S
C910 C911 1.367 . S
C911 C910 1.367 . S
C911 C913 1.433 . S
C912 C908 1.350 . S
C912 C909 1.463 . S
C912 N916 1.427 . S
C913 H903 0.929 . S
C913 C911 1.433 . S
C913 N916 1.384 . S
C914 H905 0.929 . S
C914 C906 1.378 . S
C914 C909 1.350 . S
C915 H902 0.929 . S
C915 C907 1.433 . S
C915 N917 1.384 . S
N916 C912 1.427 . S
N916 C913 1.384 . S
N917 C909 1.427 . S
N917 C915 1.384 . S
H918 C924 0.930 . S
H919 C928 0.930 . S
H920 C933 0.929 . S
H921 C931 0.929 . S
H922 C926 0.929 . S
H923 C932 0.929 . S
C924 H918 0.930 . S
C924 C925 1.367 . S
C924 C932 1.378 . S
C925 C924 1.367 . S
C925 C933 1.433 . S
C926 H922 0.929 . S
C926 C928 1.378 . S
C926 C930 1.350 . S
C927 C930 1.463 . S
C927 C932 1.350 . S
C927 N935 1.427 . S
C928 H919 0.930 . S
C928 C926 1.378 . S
C928 C929 1.367 . S
C929 C928 1.367 . S
C929 C931 1.433 . S
C930 C926 1.350 . S
C930 C927 1.463 . S
C930 N934 1.427 . S
C931 H921 0.929 . S
C931 C929 1.433 . S
C931 N934 1.384 . S
C932 H923 0.929 . S
C932 C924 1.378 . S
C932 C927 1.350 . S
C933 H920 0.929 . S
C933 C925 1.433 . S
C933 N935 1.384 . S
N934 C930 1.427 . S
N934 C931 1.384 . S
N935 C927 1.427 . S
N935 C933 1.384 . S
H936 C942 0.930 . S
H937 C946 0.930 . S
H938 C951 0.929 . S
H939 C949 0.929 . S
H940 C944 0.929 . S
H941 C950 0.929 . S
C942 H936 0.930 . S
C942 C943 1.367 . S
C942 C950 1.378 . S
C943 C942 1.367 . S
C943 C951 1.433 . S
C944 H940 0.929 . S
C944 C946 1.378 . S
C944 C948 1.350 . S
C945 C948 1.463 . S
C945 C950 1.350 . S
C945 N953 1.427 . S
C946 H937 0.930 . S
C946 C944 1.378 . S
C946 C947 1.367 . S
C947 C946 1.367 . S
C947 C949 1.433 . S
C948 C944 1.350 . S
C948 C945 1.463 . S
C948 N952 1.427 . S
C949 H939 0.929 . S
C949 C947 1.433 . S
C949 N952 1.384 . S
C950 H941 0.929 . S
C950 C942 1.378 . S
C950 C945 1.350 . S
C951 H938 0.929 . S
C951 C943 1.433 . S
C951 N953 1.384 . S
N952 C948 1.427 . S
N952 C949 1.384 . S
N953 C945 1.427 . S
N953 C951 1.384 . S
H954 C960 0.930 . S
H955 C964 0.930 . S
H956 C969 0.929 . S
H957 C967 0.929 . S
H958 C962 0.929 . S
H959 C968 0.929 . S
C960 H954 0.930 . S
C960 C961 1.367 . S
C960 C968 1.378 . S
C961 C960 1.367 . S
C961 C969 1.433 . S
C962 H958 0.929 . S
C962 C964 1.378 . S
C962 C966 1.350 . S
C963 C966 1.463 . S
C963 C968 1.350 . S
C963 N971 1.427 . S
C964 H955 0.930 . S
C964 C962 1.378 . S
C964 C965 1.367 . S
C965 C964 1.367 . S
C965 C967 1.433 . S
C966 C962 1.350 . S
C966 C963 1.463 . S
C966 N970 1.427 . S
C967 H957 0.929 . S
C967 C965 1.433 . S
C967 N970 1.384 . S
C968 H959 0.929 . S
C968 C960 1.378 . S
C968 C963 1.350 . S
C969 H956 0.929 . S
C969 C961 1.433 . S
C969 N971 1.384 . S
N970 C966 1.427 . S
N970 C967 1.384 . S
N971 C963 1.427 . S
N971 C969 1.384 . S
H972 C978 0.930 . S
H973 C982 0.930 . S
H974 C987 0.929 . S
H975 C985 0.929 . S
H976 C980 0.929 . S
H977 C986 0.929 . S
C978 H972 0.930 . S
C978 C979 1.367 . S
C978 C986 1.378 . S
C979 C978 1.367 . S
C979 C987 1.433 . S
C980 H976 0.929 . S
C980 C982 1.378 . S
C980 C984 1.350 . S
C981 C984 1.463 . S
C981 C986 1.350 . S
C981 N989 1.427 . S
C982 H973 0.930 . S
C982 C980 1.378 . S
C982 C983 1.367 . S
C983 C982 1.367 . S
C983 C985 1.433 . S
C984 C980 1.350 . S
C984 C981 1.463 . S
C984 N988 1.427 . S
C985 H975 0.929 . S
C985 C983 1.433 . S
C985 N988 1.384 . S
C986 H977 0.929 . S
C986 C978 1.378 . S
C986 C981 1.350 . S
C987 H974 0.929 . S
C987 C979 1.433 . S
C987 N989 1.384 . S
N988 C984 1.427 . S
N988 C985 1.384 . S
N989 C981 1.427 . S
N989 C987 1.384 . S
H990 C996 0.930 . S
H991 C1000 0.930 . S
H992 C1005 0.929 . S
H993 C1003 0.929 . S
H994 C998 0.929 . S
H995 C1004 0.929 . S
C996 H990 0.930 . S
C996 C997 1.367 . S
C996 C1004 1.378 . S
C997 C996 1.367 . S
C997 C1005 1.433 . S
C998 H994 0.929 . S
C998 C1000 1.378 . S
C998 C1002 1.350 . S
C999 C1002 1.463 . S
C999 C1004 1.350 . S
C999 N1007 1.427 . S
C1000 H991 0.930 . S
C1000 C998 1.378 . S
C1000 C1001 1.367 . S
C1001 C1000 1.367 . S
C1001 C1003 1.433 . S
C1002 C998 1.350 . S
C1002 C999 1.463 . S
C1002 N1006 1.427 . S
C1003 H993 0.929 . S
C1003 C1001 1.433 . S
C1003 N1006 1.384 . S
C1004 H995 0.929 . S
C1004 C996 1.378 . S
C1004 C999 1.350 . S
C1005 H992 0.929 . S
C1005 C997 1.433 . S
C1005 N1007 1.384 . S
N1006 C1002 1.427 . S
N1006 C1003 1.384 . S
N1007 C999 1.427 . S
N1007 C1005 1.384 . S
H1008 C1014 0.930 . S
H1009 C1018 0.930 . S
H1010 C1023 0.929 . S
H1011 C1021 0.929 . S
H1012 C1016 0.929 . S
H1013 C1022 0.929 . S
C1014 H1008 0.930 . S
C1014 C1015 1.367 . S
C1014 C1022 1.378 . S
C1015 C1014 1.367 . S
C1015 C1023 1.433 . S
C1016 H1012 0.929 . S
C1016 C1018 1.378 . S
C1016 C1020 1.350 . S
C1017 C1020 1.463 . S
C1017 C1022 1.350 . S
C1017 N1025 1.427 . S
C1018 H1009 0.930 . S
C1018 C1016 1.378 . S
C1018 C1019 1.367 . S
C1019 C1018 1.367 . S
C1019 C1021 1.433 . S
C1020 C1016 1.350 . S
C1020 C1017 1.463 . S
C1020 N1024 1.427 . S
C1021 H1011 0.929 . S
C1021 C1019 1.433 . S
C1021 N1024 1.384 . S
C1022 H1013 0.929 . S
C1022 C1014 1.378 . S
C1022 C1017 1.350 . S
C1023 H1010 0.929 . S
C1023 C1015 1.433 . S
C1023 N1025 1.384 . S
N1024 C1020 1.427 . S
N1024 C1021 1.384 . S
N1025 C1017 1.427 . S
N1025 C1023 1.384 . S
H1026 C1032 0.930 . S
H1027 C1036 0.930 . S
H1028 C1041 0.929 . S
H1029 C1039 0.929 . S
H1030 C1034 0.929 . S
H1031 C1040 0.929 . S
C1032 H1026 0.930 . S
C1032 C1033 1.367 . S
C1032 C1040 1.378 . S
C1033 C1032 1.367 . S
C1033 C1041 1.433 . S
C1034 H1030 0.929 . S
C1034 C1036 1.378 . S
C1034 C1038 1.350 . S
C1035 C1038 1.463 . S
C1035 C1040 1.350 . S
C1035 N1043 1.427 . S
C1036 H1027 0.930 . S
C1036 C1034 1.378 . S
C1036 C1037 1.367 . S
C1037 C1036 1.367 . S
C1037 C1039 1.433 . S
C1038 C1034 1.350 . S
C1038 C1035 1.463 . S
C1038 N1042 1.427 . S
C1039 H1029 0.929 . S
C1039 C1037 1.433 . S
C1039 N1042 1.384 . S
C1040 H1031 0.929 . S
C1040 C1032 1.378 . S
C1040 C1035 1.350 . S
C1041 H1028 0.929 . S
C1041 C1033 1.433 . S
C1041 N1043 1.384 . S
N1042 C1038 1.427 . S
N1042 C1039 1.384 . S
N1043 C1035 1.427 . S
N1043 C1041 1.384 . S
H1044 C1050 0.930 . S
H1045 C1054 0.930 . S
H1046 C1059 0.929 . S
H1047 C1057 0.929 . S
H1048 C1052 0.923 1_455 S
H1049 C1058 0.924 1_655 S
C1050 H1044 0.930 . S
C1050 C1051 1.367 . S
C1050 C1058 1.383 . S
C1051 C1050 1.367 . S
C1051 C1059 1.433 . S
C1052 H1048 0.923 1_655 S
C1052 C1054 1.385 . S
C1052 C1056 1.348 . S
C1053 C1056 1.463 1_455 S
C1053 C1058 1.349 . S
C1053 N1061 1.427 . S
C1054 H1045 0.930 . S
C1054 C1052 1.385 . S
C1054 C1055 1.367 . S
C1055 C1054 1.367 . S
C1055 C1057 1.433 . S
C1056 C1052 1.348 . S
C1056 C1053 1.463 1_655 S
C1056 N1060 1.427 . S
C1057 H1047 0.929 . S
C1057 C1055 1.433 . S
C1057 N1060 1.384 . S
C1058 H1049 0.924 1_455 S
C1058 C1050 1.383 . S
C1058 C1053 1.349 . S
C1059 H1046 0.929 . S
C1059 C1051 1.433 . S
C1059 N1061 1.384 . S
N1060 C1056 1.427 . S
N1060 C1057 1.384 . S
N1061 C1053 1.427 . S
N1061 C1059 1.384 . S
H1062 C1068 0.930 . S
H1063 C1072 0.930 . S
H1064 C1077 0.929 . S
H1065 C1075 0.929 . S
H1066 C1070 0.929 . S
H1067 C1076 0.929 . S
C1068 H1062 0.930 . S
C1068 C1069 1.367 . S
C1068 C1076 1.378 . S
C1069 C1068 1.367 . S
C1069 C1077 1.433 . S
C1070 H1066 0.929 . S
C1070 C1072 1.378 . S
C1070 C1074 1.350 . S
C1071 C1074 1.463 . S
C1071 C1076 1.350 . S
C1071 N1079 1.427 . S
C1072 H1063 0.930 . S
C1072 C1070 1.378 . S
C1072 C1073 1.367 . S
C1073 C1072 1.367 . S
C1073 C1075 1.433 . S
C1074 C1070 1.350 . S
C1074 C1071 1.463 . S
C1074 N1078 1.427 . S
C1075 H1065 0.929 . S
C1075 C1073 1.433 . S
C1075 N1078 1.384 . S
C1076 H1067 0.929 . S
C1076 C1068 1.378 . S
C1076 C1071 1.350 . S
C1077 H1064 0.929 . S
C1077 C1069 1.433 . S
C1077 N1079 1.384 . S
N1078 C1074 1.427 . S
N1078 C1075 1.384 . S
N1079 C1071 1.427 . S
N1079 C1077 1.384 . S
H1080 C1086 0.930 . S
H1081 C1090 0.930 . S
H1082 C1095 0.929 1_565 S
H1083 C1093 0.929 1_545 S
H1084 C1088 0.929 . S
H1085 C1094 0.929 . S
C1086 H1080 0.930 . S
C1086 C1087 1.367 . S
C1086 C1094 1.378 . S
C1087 C1086 1.367 . S
C1087 C1095 1.433 . S
C1088 H1084 0.929 . S
C1088 C1090 1.378 . S
C1088 C1092 1.350 . S
C1089 C1092 1.463 1_545 S
C1089 C1094 1.350 . S
C1089 N1097 1.427 1_545 S
C1090 H1081 0.930 . S
C1090 C1088 1.378 . S
C1090 C1091 1.367 . S
C1091 C1090 1.367 . S
C1091 C1093 1.433 . S
C1092 C1088 1.350 . S
C1092 C1089 1.463 1_565 S
C1092 N1096 1.427 1_565 S
C1093 H1083 0.929 1_565 S
C1093 C1091 1.433 . S
C1093 N1096 1.384 1_565 S
C1094 H1085 0.929 . S
C1094 C1086 1.378 . S
C1094 C1089 1.350 . S
C1095 H1082 0.929 1_545 S
C1095 C1087 1.433 . S
C1095 N1097 1.384 1_545 S
N1096 C1092 1.427 1_545 S
N1096 C1093 1.384 1_545 S
N1097 C1089 1.427 1_565 S
N1097 C1095 1.384 1_565 S
H1098 C1104 0.930 . S
H1099 C1108 0.930 . S
H1100 C1113 0.929 . S
H1101 C1111 0.929 . S
H1102 C1106 0.992 . S
H1103 C1112 0.990 . S
C1104 H1098 0.930 . S
C1104 C1105 1.367 . S
C1104 C1112 1.306 1_545 S
C1105 C1104 1.367 . S
C1105 C1113 1.433 1_554 S
C1106 H1102 0.992 . S
C1106 C1108 1.304 1_545 S
C1106 C1110 1.367 1_545 S
C1107 C1110 1.462 1_544 S
C1107 C1112 1.366 1_545 S
C1107 N1115 1.425 1_554 S
C1108 H1099 0.930 . S
C1108 C1106 1.304 1_565 S
C1108 C1109 1.367 . S
C1109 C1108 1.367 . S
C1109 C1111 1.433 1_556 S
C1110 C1106 1.367 1_565 S
C1110 C1107 1.462 1_566 S
C1110 N1114 1.424 1_556 S
C1111 H1101 0.929 . S
C1111 C1109 1.433 1_554 S
C1111 N1114 1.384 . S
C1112 H1103 0.990 . S
C1112 C1104 1.306 1_565 S
C1112 C1107 1.366 1_565 S
C1113 H1100 0.929 . S
C1113 C1105 1.433 1_556 S
C1113 N1115 1.384 . S
N1114 C1110 1.424 1_554 S
N1114 C1111 1.384 . S
N1115 C1107 1.425 1_556 S
N1115 C1113 1.384 . S
H1116 C1122 0.930 . S
H1117 C1126 0.930 . S
H1118 C1131 0.929 . S
H1119 C1129 0.929 . S
H1120 C1124 0.929 1_455 S
H1121 C1130 0.929 1_655 S
C1122 H1116 0.930 . S
C1122 C1123 1.367 1_554 S
C1122 C1130 1.378 . S
C1123 C1122 1.367 1_556 S
C1123 C1131 1.433 . S
C1124 H1120 0.929 1_655 S
C1124 C1126 1.378 . S
C1124 C1128 1.355 . S
C1125 C1128 1.462 1_454 S
C1125 C1130 1.359 . S
C1125 N1133 1.418 1_554 S
C1126 H1117 0.930 . S
C1126 C1124 1.378 . S
C1126 C1127 1.367 1_556 S
C1127 C1126 1.367 1_554 S
C1127 C1129 1.433 . S
C1128 C1124 1.355 . S
C1128 C1125 1.462 1_656 S
C1128 N1132 1.422 1_556 S
C1129 H1119 0.929 . S
C1129 C1127 1.433 . S
C1129 N1132 1.384 . S
C1130 H1121 0.929 1_455 S
C1130 C1122 1.378 . S
C1130 C1125 1.359 . S
C1131 H1118 0.929 . S
C1131 C1123 1.433 . S
C1131 N1133 1.384 . S
N1132 C1128 1.422 1_554 S
N1132 C1129 1.384 . S
N1133 C1125 1.418 1_556 S
N1133 C1131 1.384 . S
H1134 C1140 0.930 . S
H1135 C1144 0.930 . S
H1136 C1149 0.929 . S
H1137 C1147 0.929 . S
H1138 C1142 0.929 . S
H1139 C1148 0.929 . S
C1140 H1134 0.930 . S
C1140 C1141 1.367 1_554 S
C1140 C1148 1.378 . S
C1141 C1140 1.367 1_556 S
C1141 C1149 1.433 . S
C1142 H1138 0.929 . S
C1142 C1144 1.378 . S
C1142 C1146 1.348 1_556 S
C1143 C1146 1.462 1_556 S
C1143 C1148 1.349 1_556 S
C1143 N1151 1.428 . S
C1144 H1135 0.930 . S
C1144 C1142 1.378 . S
C1144 C1145 1.367 1_556 S
C1145 C1144 1.367 1_554 S
C1145 C1147 1.433 . S
C1146 C1142 1.348 1_554 S
C1146 C1143 1.462 1_554 S
C1146 N1150 1.430 . S
C1147 H1137 0.929 . S
C1147 C1145 1.433 . S
C1147 N1150 1.384 . S
C1148 H1139 0.929 . S
C1148 C1140 1.378 . S
C1148 C1143 1.349 1_554 S
C1149 H1136 0.929 . S
C1149 C1141 1.433 . S
C1149 N1151 1.384 . S
N1150 C1146 1.430 . S
N1150 C1147 1.384 . S
N1151 C1143 1.428 . S
N1151 C1149 1.384 . S
H1152 C1158 0.930 1_556 S
H1153 C1162 0.930 . S
H1154 C1167 0.929 . S
H1155 C1165 0.929 . S
H1156 C1160 0.929 . S
H1157 C1166 0.929 1_556 S
C1158 H1152 0.930 1_554 S
C1158 C1159 1.367 . S
C1158 C1166 1.378 . S
C1159 C1158 1.367 . S
C1159 C1167 1.433 . S
C1160 H1156 0.929 . S
C1160 C1162 1.378 . S
C1160 C1164 1.350 . S
C1161 C1164 1.463 . S
C1161 C1166 1.350 . S
C1161 N1169 1.427 . S
C1162 H1153 0.930 . S
C1162 C1160 1.378 . S
C1162 C1163 1.367 . S
C1163 C1162 1.367 . S
C1163 C1165 1.433 . S
C1164 C1160 1.350 . S
C1164 C1161 1.463 . S
C1164 N1168 1.427 . S
C1165 H1155 0.929 . S
C1165 C1163 1.433 . S
C1165 N1168 1.384 . S
C1166 H1157 0.929 1_554 S
C1166 C1158 1.378 . S
C1166 C1161 1.350 . S
C1167 H1154 0.929 . S
C1167 C1159 1.433 . S
C1167 N1169 1.384 . S
N1168 C1164 1.427 . S
N1168 C1165 1.384 . S
N1169 C1161 1.427 . S
N1169 C1167 1.384 . S
H1170 C1176 0.930 . S
H1171 C1180 0.930 . S
H1172 C1185 0.929 . S
H1173 C1183 0.929 1_556 S
H1174 C1178 0.929 . S
H1175 C1184 0.929 . S
C1176 H1170 0.930 . S
C1176 C1177 1.367 . S
C1176 C1184 1.378 . S
C1177 C1176 1.367 . S
C1177 C1185 1.433 . S
C1178 H1174 0.929 . S
C1178 C1180 1.378 . S
C1178 C1182 1.350 . S
C1179 C1182 1.463 . S
C1179 C1184 1.350 . S
C1179 N1187 1.427 . S
C1180 H1171 0.930 . S
C1180 C1178 1.378 . S
C1180 C1181 1.367 . S
C1181 C1180 1.367 . S
C1181 C1183 1.433 . S
C1182 C1178 1.350 . S
C1182 C1179 1.463 . S
C1182 N1186 1.427 . S
C1183 H1173 0.929 1_554 S
C1183 C1181 1.433 . S
C1183 N1186 1.384 . S
C1184 H1175 0.929 . S
C1184 C1176 1.378 . S
C1184 C1179 1.350 . S
C1185 H1172 0.929 . S
C1185 C1177 1.433 . S
C1185 N1187 1.384 . S
N1186 C1182 1.427 . S
N1186 C1183 1.384 . S
N1187 C1179 1.427 . S
N1187 C1185 1.384 . S
H1188 C1194 0.930 . S
H1189 C1198 0.930 1_556 S
H1190 C1203 0.929 . S
H1191 C1201 0.929 . S
H1192 C1196 0.929 . S
H1193 C1202 0.929 . S
C1194 H1188 0.930 . S
C1194 C1195 1.367 . S
C1194 C1202 1.378 . S
C1195 C1194 1.367 . S
C1195 C1203 1.433 . S
C1196 H1192 0.929 . S
C1196 C1198 1.378 . S
C1196 C1200 1.350 . S
C1197 C1200 1.463 . S
C1197 C1202 1.350 . S
C1197 N1205 1.427 . S
C1198 H1189 0.930 1_554 S
C1198 C1196 1.378 . S
C1198 C1199 1.367 . S
C1199 C1198 1.367 . S
C1199 C1201 1.433 . S
C1200 C1196 1.350 . S
C1200 C1197 1.463 . S
C1200 N1204 1.427 . S
C1201 H1191 0.929 . S
C1201 C1199 1.433 . S
C1201 N1204 1.384 . S
C1202 H1193 0.929 . S
C1202 C1194 1.378 . S
C1202 C1197 1.350 . S
C1203 H1190 0.929 . S
C1203 C1195 1.433 . S
C1203 N1205 1.384 . S
N1204 C1200 1.427 . S
N1204 C1201 1.384 . S
N1205 C1197 1.427 . S
N1205 C1203 1.384 . S
H1206 C1212 0.930 . S
H1207 C1216 0.930 . S
H1208 C1221 0.929 . S
H1209 C1219 0.929 . S
H1210 C1214 0.929 . S
H1211 C1220 0.929 . S
C1212 H1206 0.930 . S
C1212 C1213 1.367 . S
C1212 C1220 1.378 . S
C1213 C1212 1.367 . S
C1213 C1221 1.433 . S
C1214 H1210 0.929 . S
C1214 C1216 1.378 . S
C1214 C1218 1.350 . S
C1215 C1218 1.463 . S
C1215 C1220 1.350 . S
C1215 N1223 1.427 . S
C1216 H1207 0.930 . S
C1216 C1214 1.378 . S
C1216 C1217 1.367 . S
C1217 C1216 1.367 . S
C1217 C1219 1.433 . S
C1218 C1214 1.350 . S
C1218 C1215 1.463 . S
C1218 N1222 1.427 . S
C1219 H1209 0.929 . S
C1219 C1217 1.433 . S
C1219 N1222 1.384 . S
C1220 H1211 0.929 . S
C1220 C1212 1.378 . S
C1220 C1215 1.350 . S
C1221 H1208 0.929 . S
C1221 C1213 1.433 . S
C1221 N1223 1.384 . S
N1222 C1218 1.427 . S
N1222 C1219 1.384 . S
N1223 C1215 1.427 . S
N1223 C1221 1.384 . S
H1224 C1230 0.930 . S
H1225 C1234 0.930 . S
H1226 C1239 0.929 . S
H1227 C1237 0.929 . S
H1228 C1232 0.929 . S
H1229 C1238 0.929 . S
C1230 H1224 0.930 . S
C1230 C1231 1.367 . S
C1230 C1238 1.378 . S
C1231 C1230 1.367 . S
C1231 C1239 1.433 . S
C1232 H1228 0.929 . S
C1232 C1234 1.378 . S
C1232 C1236 1.350 . S
C1233 C1236 1.463 . S
C1233 C1238 1.350 . S
C1233 N1241 1.427 . S
C1234 H1225 0.930 . S
C1234 C1232 1.378 . S
C1234 C1235 1.367 . S
C1235 C1234 1.367 . S
C1235 C1237 1.433 . S
C1236 C1232 1.350 . S
C1236 C1233 1.463 . S
C1236 N1240 1.427 . S
C1237 H1227 0.929 . S
C1237 C1235 1.433 . S
C1237 N1240 1.384 . S
C1238 H1229 0.929 . S
C1238 C1230 1.378 . S
C1238 C1233 1.350 . S
C1239 H1226 0.929 . S
C1239 C1231 1.433 . S
C1239 N1241 1.384 . S
N1240 C1236 1.427 . S
N1240 C1237 1.384 . S
N1241 C1233 1.427 . S
N1241 C1239 1.384 . S
H1242 C1248 0.930 . S
H1243 C1252 0.930 . S
H1244 C1257 0.929 . S
H1245 C1255 0.929 . S
H1246 C1250 0.929 . S
H1247 C1256 0.929 . S
C1248 H1242 0.930 . S
C1248 C1249 1.367 . S
C1248 C1256 1.378 . S
C1249 C1248 1.367 . S
C1249 C1257 1.433 . S
C1250 H1246 0.929 . S
C1250 C1252 1.378 . S
C1250 C1254 1.350 . S
C1251 C1254 1.463 . S
C1251 C1256 1.350 . S
C1251 N1259 1.427 . S
C1252 H1243 0.930 . S
C1252 C1250 1.378 . S
C1252 C1253 1.367 . S
C1253 C1252 1.367 . S
C1253 C1255 1.433 . S
C1254 C1250 1.350 . S
C1254 C1251 1.463 . S
C1254 N1258 1.427 . S
C1255 H1245 0.929 . S
C1255 C1253 1.433 . S
C1255 N1258 1.384 . S
C1256 H1247 0.929 . S
C1256 C1248 1.378 . S
C1256 C1251 1.350 . S
C1257 H1244 0.929 . S
C1257 C1249 1.433 . S
C1257 N1259 1.384 . S
N1258 C1254 1.427 . S
N1258 C1255 1.384 . S
N1259 C1251 1.427 . S
N1259 C1257 1.384 . S
H1260 C1266 0.930 . S
H1261 C1270 0.930 . S
H1262 C1275 0.929 . S
H1263 C1273 0.929 . S
H1264 C1268 0.929 . S
H1265 C1274 0.929 . S
C1266 H1260 0.930 . S
C1266 C1267 1.367 . S
C1266 C1274 1.378 . S
C1267 C1266 1.367 . S
C1267 C1275 1.433 . S
C1268 H1264 0.929 . S
C1268 C1270 1.378 . S
C1268 C1272 1.350 . S
C1269 C1272 1.463 . S
C1269 C1274 1.350 . S
C1269 N1277 1.427 . S
C1270 H1261 0.930 . S
C1270 C1268 1.378 . S
C1270 C1271 1.367 . S
C1271 C1270 1.367 . S
C1271 C1273 1.433 . S
C1272 C1268 1.350 . S
C1272 C1269 1.463 . S
C1272 N1276 1.427 . S
C1273 H1263 0.929 . S
C1273 C1271 1.433 . S
C1273 N1276 1.384 . S
C1274 H1265 0.929 . S
C1274 C1266 1.378 . S
C1274 C1269 1.350 . S
C1275 H1262 0.929 . S
C1275 C1267 1.433 . S
C1275 N1277 1.384 . S
N1276 C1272 1.427 . S
N1276 C1273 1.384 . S
N1277 C1269 1.427 . S
N1277 C1275 1.384 . S
H1278 C1284 0.930 . S
H1279 C1288 0.930 . S
H1280 C1293 0.929 . S
H1281 C1291 0.929 . S
H1282 C1286 0.929 . S
H1283 C1292 0.929 . S
C1284 H1278 0.930 . S
C1284 C1285 1.367 . S
C1284 C1292 1.378 . S
C1285 C1284 1.367 . S
C1285 C1293 1.433 . S
C1286 H1282 0.929 . S
C1286 C1288 1.378 . S
C1286 C1290 1.350 . S
C1287 C1290 1.463 . S
C1287 C1292 1.350 . S
C1287 N1295 1.427 . S
C1288 H1279 0.930 . S
C1288 C1286 1.378 . S
C1288 C1289 1.367 . S
C1289 C1288 1.367 . S
C1289 C1291 1.433 . S
C1290 C1286 1.350 . S
C1290 C1287 1.463 . S
C1290 N1294 1.427 . S
C1291 H1281 0.929 . S
C1291 C1289 1.433 . S
C1291 N1294 1.384 . S
C1292 H1283 0.929 . S
C1292 C1284 1.378 . S
C1292 C1287 1.350 . S
C1293 H1280 0.929 . S
C1293 C1285 1.433 . S
C1293 N1295 1.384 . S
N1294 C1290 1.427 . S
N1294 C1291 1.384 . S
N1295 C1287 1.427 . S
N1295 C1293 1.384 . S
H1296 C1302 0.930 . S
H1297 C1306 0.930 . S
H1298 C1311 0.929 1_554 S
H1299 C1309 0.929 . S
H1300 C1304 0.929 . S
H1301 C1310 0.929 . S
C1302 H1296 0.930 . S
C1302 C1303 1.367 . S
C1302 C1310 1.378 . S
C1303 C1302 1.367 . S
C1303 C1311 1.433 . S
C1304 H1300 0.929 . S
C1304 C1306 1.378 . S
C1304 C1308 1.350 . S
C1305 C1308 1.463 . S
C1305 C1310 1.350 . S
C1305 N1313 1.427 . S
C1306 H1297 0.930 . S
C1306 C1304 1.378 . S
C1306 C1307 1.367 . S
C1307 C1306 1.367 . S
C1307 C1309 1.433 . S
C1308 C1304 1.350 . S
C1308 C1305 1.463 . S
C1308 N1312 1.427 . S
C1309 H1299 0.929 . S
C1309 C1307 1.433 . S
C1309 N1312 1.384 . S
C1310 H1301 0.929 . S
C1310 C1302 1.378 . S
C1310 C1305 1.350 . S
C1311 H1298 0.929 1_556 S
C1311 C1303 1.433 . S
C1311 N1313 1.384 . S
N1312 C1308 1.427 . S
N1312 C1309 1.384 . S
N1313 C1305 1.427 . S
N1313 C1311 1.384 . S
H1314 C1320 0.930 . S
H1315 C1324 0.930 . S
H1316 C1329 0.929 . S
H1317 C1327 0.929 . S
H1318 C1322 0.929 . S
H1319 C1328 0.929 . S
C1320 H1314 0.930 . S
C1320 C1321 1.367 . S
C1320 C1328 1.378 . S
C1321 C1320 1.367 . S
C1321 C1329 1.433 . S
C1322 H1318 0.929 . S
C1322 C1324 1.378 . S
C1322 C1326 1.350 . S
C1323 C1326 1.463 . S
C1323 C1328 1.350 . S
C1323 N1331 1.427 . S
C1324 H1315 0.930 . S
C1324 C1322 1.378 . S
C1324 C1325 1.367 . S
C1325 C1324 1.367 . S
C1325 C1327 1.433 . S
C1326 C1322 1.350 . S
C1326 C1323 1.463 . S
C1326 N1330 1.427 . S
C1327 H1317 0.929 . S
C1327 C1325 1.433 . S
C1327 N1330 1.384 . S
C1328 H1319 0.929 . S
C1328 C1320 1.378 . S
C1328 C1323 1.350 . S
C1329 H1316 0.929 . S
C1329 C1321 1.433 . S
C1329 N1331 1.384 . S
N1330 C1326 1.427 . S
N1330 C1327 1.384 . S
N1331 C1323 1.427 . S
N1331 C1329 1.384 . S
H1332 C1338 0.930 . S
H1333 C1342 0.930 . S
H1334 C1347 0.929 . S
H1335 C1345 0.929 . S
H1336 C1340 0.929 . S
H1337 C1346 0.929 . S
C1338 H1332 0.930 . S
C1338 C1339 1.367 . S
C1338 C1346 1.378 . S
C1339 C1338 1.367 . S
C1339 C1347 1.433 . S
C1340 H1336 0.929 . S
C1340 C1342 1.378 . S
C1340 C1344 1.350 . S
C1341 C1344 1.463 . S
C1341 C1346 1.350 . S
C1341 N1349 1.427 . S
C1342 H1333 0.930 . S
C1342 C1340 1.378 . S
C1342 C1343 1.367 . S
C1343 C1342 1.367 . S
C1343 C1345 1.433 . S
C1344 C1340 1.350 . S
C1344 C1341 1.463 . S
C1344 N1348 1.427 . S
C1345 H1335 0.929 . S
C1345 C1343 1.433 . S
C1345 N1348 1.384 . S
C1346 H1337 0.929 . S
C1346 C1338 1.378 . S
C1346 C1341 1.350 . S
C1347 H1334 0.929 . S
C1347 C1339 1.433 . S
C1347 N1349 1.384 . S
N1348 C1344 1.427 . S
N1348 C1345 1.384 . S
N1349 C1341 1.427 . S
N1349 C1347 1.384 . S
H1350 C1356 0.930 . S
H1351 C1360 0.930 . S
H1352 C1365 0.929 . S
H1353 C1363 0.929 . S
H1354 C1358 0.929 . S
H1355 C1364 0.929 . S
C1356 H1350 0.930 . S
C1356 C1357 1.367 . S
C1356 C1364 1.378 . S
C1357 C1356 1.367 . S
C1357 C1365 1.433 . S
C1358 H1354 0.929 . S
C1358 C1360 1.378 . S
C1358 C1362 1.350 . S
C1359 C1362 1.463 . S
C1359 C1364 1.350 . S
C1359 N1367 1.427 . S
C1360 H1351 0.930 . S
C1360 C1358 1.378 . S
C1360 C1361 1.367 . S
C1361 C1360 1.367 . S
C1361 C1363 1.433 . S
C1362 C1358 1.350 . S
C1362 C1359 1.463 . S
C1362 N1366 1.427 . S
C1363 H1353 0.929 . S
C1363 C1361 1.433 . S
C1363 N1366 1.384 . S
C1364 H1355 0.929 . S
C1364 C1356 1.378 . S
C1364 C1359 1.350 . S
C1365 H1352 0.929 . S
C1365 C1357 1.433 . S
C1365 N1367 1.384 . S
N1366 C1362 1.427 . S
N1366 C1363 1.384 . S
N1367 C1359 1.427 . S
N1367 C1365 1.384 . S
H1368 C1374 0.930 . S
H1369 C1378 0.930 . S
H1370 C1383 0.929 . S
H1371 C1381 0.929 . S
H1372 C1376 0.929 . S
H1373 C1382 0.929 . S
C1374 H1368 0.930 . S
C1374 C1375 1.367 . S
C1374 C1382 1.378 . S
C1375 C1374 1.367 . S
C1375 C1383 1.433 . S
C1376 H1372 0.929 . S
C1376 C1378 1.378 . S
C1376 C1380 1.350 . S
C1377 C1380 1.463 . S
C1377 C1382 1.350 . S
C1377 N1385 1.427 . S
C1378 H1369 0.930 . S
C1378 C1376 1.378 . S
C1378 C1379 1.367 . S
C1379 C1378 1.367 . S
C1379 C1381 1.433 . S
C1380 C1376 1.350 . S
C1380 C1377 1.463 . S
C1380 N1384 1.427 . S
C1381 H1371 0.929 . S
C1381 C1379 1.433 . S
C1381 N1384 1.384 . S
C1382 H1373 0.929 . S
C1382 C1374 1.378 . S
C1382 C1377 1.350 . S
C1383 H1370 0.929 . S
C1383 C1375 1.433 . S
C1383 N1385 1.384 . S
N1384 C1380 1.427 . S
N1384 C1381 1.384 . S
N1385 C1377 1.427 . S
N1385 C1383 1.384 . S
H1386 C1392 0.930 . S
H1387 C1396 0.930 . S
H1388 C1401 0.929 . S
H1389 C1399 0.929 . S
H1390 C1394 0.929 . S
H1391 C1400 0.929 . S
C1392 H1386 0.930 . S
C1392 C1393 1.367 . S
C1392 C1400 1.378 . S
C1393 C1392 1.367 . S
C1393 C1401 1.433 . S
C1394 H1390 0.929 . S
C1394 C1396 1.378 . S
C1394 C1398 1.350 . S
C1395 C1398 1.463 1_565 S
C1395 C1400 1.350 . S
C1395 N1403 1.427 . S
C1396 H1387 0.930 . S
C1396 C1394 1.378 . S
C1396 C1397 1.367 . S
C1397 C1396 1.367 . S
C1397 C1399 1.433 . S
C1398 C1394 1.350 . S
C1398 C1395 1.463 1_545 S
C1398 N1402 1.427 . S
C1399 H1389 0.929 . S
C1399 C1397 1.433 . S
C1399 N1402 1.384 . S
C1400 H1391 0.929 . S
C1400 C1392 1.378 . S
C1400 C1395 1.350 . S
C1401 H1388 0.929 . S
C1401 C1393 1.433 . S
C1401 N1403 1.384 . S
N1402 C1398 1.427 . S
N1402 C1399 1.384 . S
N1403 C1395 1.427 . S
N1403 C1401 1.384 . S
H1404 C1410 0.930 . S
H1405 C1414 0.930 . S
H1406 C1419 0.929 . S
H1407 C1417 0.929 . S
H1408 C1412 0.929 . S
H1409 C1418 0.929 . S
C1410 H1404 0.930 . S
C1410 C1411 1.367 . S
C1410 C1418 1.378 . S
C1411 C1410 1.367 . S
C1411 C1419 1.433 . S
C1412 H1408 0.929 . S
C1412 C1414 1.378 . S
C1412 C1416 1.350 . S
C1413 C1416 1.463 1_455 S
C1413 C1418 1.350 . S
C1413 N1421 1.427 . S
C1414 H1405 0.930 . S
C1414 C1412 1.378 . S
C1414 C1415 1.367 . S
C1415 C1414 1.367 . S
C1415 C1417 1.433 . S
C1416 C1412 1.350 . S
C1416 C1413 1.463 1_655 S
C1416 N1420 1.427 . S
C1417 H1407 0.929 . S
C1417 C1415 1.433 . S
C1417 N1420 1.384 . S
C1418 H1409 0.929 . S
C1418 C1410 1.378 . S
C1418 C1413 1.350 . S
C1419 H1406 0.929 . S
C1419 C1411 1.433 . S
C1419 N1421 1.384 . S
N1420 C1416 1.427 . S
N1420 C1417 1.384 . S
N1421 C1413 1.427 . S
N1421 C1419 1.384 . S
H1422 C1428 0.930 . S
H1423 C1432 0.930 . S
H1424 C1437 0.929 . S
H1425 C1435 0.929 . S
H1426 C1430 0.929 . S
H1427 C1436 0.929 . S
C1428 H1422 0.930 . S
C1428 C1429 1.367 . S
C1428 C1436 1.378 . S
C1429 C1428 1.367 . S
C1429 C1437 1.433 . S
C1430 H1426 0.929 . S
C1430 C1432 1.378 . S
C1430 C1434 1.350 . S
C1431 C1434 1.463 . S
C1431 C1436 1.350 . S
C1431 N1439 1.427 . S
C1432 H1423 0.930 . S
C1432 C1430 1.378 . S
C1432 C1433 1.367 . S
C1433 C1432 1.367 . S
C1433 C1435 1.433 . S
C1434 C1430 1.350 . S
C1434 C1431 1.463 . S
C1434 N1438 1.427 . S
C1435 H1425 0.929 . S
C1435 C1433 1.433 . S
C1435 N1438 1.384 . S
C1436 H1427 0.929 . S
C1436 C1428 1.378 . S
C1436 C1431 1.350 . S
C1437 H1424 0.929 . S
C1437 C1429 1.433 . S
C1437 N1439 1.384 . S
N1438 C1434 1.427 . S
N1438 C1435 1.384 . S
N1439 C1431 1.427 . S
N1439 C1437 1.384 . S
H1440 C1446 0.930 . S
H1441 C1450 0.930 . S
H1442 C1455 0.929 . S
H1443 C1453 0.929 . S
H1444 C1448 0.929 . S
H1445 C1454 0.929 . S
C1446 H1440 0.930 . S
C1446 C1447 1.367 . S
C1446 C1454 1.378 . S
C1447 C1446 1.367 . S
C1447 C1455 1.433 . S
C1448 H1444 0.929 . S
C1448 C1450 1.378 . S
C1448 C1452 1.350 . S
C1449 C1452 1.463 1_565 S
C1449 C1454 1.350 . S
C1449 N1457 1.427 . S
C1450 H1441 0.930 . S
C1450 C1448 1.378 . S
C1450 C1451 1.367 . S
C1451 C1450 1.367 . S
C1451 C1453 1.433 . S
C1452 C1448 1.350 . S
C1452 C1449 1.463 1_545 S
C1452 N1456 1.427 . S
C1453 H1443 0.929 . S
C1453 C1451 1.433 . S
C1453 N1456 1.384 . S
C1454 H1445 0.929 . S
C1454 C1446 1.378 . S
C1454 C1449 1.350 . S
C1455 H1442 0.929 . S
C1455 C1447 1.433 . S
C1455 N1457 1.384 . S
N1456 C1452 1.427 . S
N1456 C1453 1.384 . S
N1457 C1449 1.427 . S
N1457 C1455 1.384 . S
H1458 C1464 0.930 . S
H1459 C1468 0.930 . S
H1460 C1473 0.929 . S
H1461 C1471 0.929 . S
H1462 C1466 0.929 . S
H1463 C1472 0.929 . S
C1464 H1458 0.930 . S
C1464 C1465 1.367 . S
C1464 C1472 1.378 . S
C1465 C1464 1.367 . S
C1465 C1473 1.433 . S
C1466 H1462 0.929 . S
C1466 C1468 1.378 . S
C1466 C1470 1.350 . S
C1467 C1470 1.463 1_455 S
C1467 C1472 1.350 . S
C1467 N1475 1.427 . S
C1468 H1459 0.930 . S
C1468 C1466 1.378 . S
C1468 C1469 1.367 . S
C1469 C1468 1.367 . S
C1469 C1471 1.433 . S
C1470 C1466 1.350 . S
C1470 C1467 1.463 1_655 S
C1470 N1474 1.427 . S
C1471 H1461 0.929 . S
C1471 C1469 1.433 . S
C1471 N1474 1.384 . S
C1472 H1463 0.929 . S
C1472 C1464 1.378 . S
C1472 C1467 1.350 . S
C1473 H1460 0.929 . S
C1473 C1465 1.433 . S
C1473 N1475 1.384 . S
N1474 C1470 1.427 . S
N1474 C1471 1.384 . S
N1475 C1467 1.427 . S
N1475 C1473 1.384 . S
H1476 C1482 0.930 1_554 S
H1477 C1486 0.930 . S
H1478 C1491 0.929 . S
H1479 C1489 0.929 . S
H1480 C1484 0.929 . S
H1481 C1490 0.929 . S
C1482 H1476 0.930 1_556 S
C1482 C1483 1.367 1_556 S
C1482 C1490 1.378 . S
C1483 C1482 1.367 1_554 S
C1483 C1491 1.433 . S
C1484 H1480 0.929 . S
C1484 C1486 1.378 . S
C1484 C1488 1.350 . S
C1485 C1488 1.463 . S
C1485 C1490 1.350 . S
C1485 N1493 1.427 . S
C1486 H1477 0.930 . S
C1486 C1484 1.378 . S
C1486 C1487 1.367 . S
C1487 C1486 1.367 . S
C1487 C1489 1.433 . S
C1488 C1484 1.350 . S
C1488 C1485 1.463 . S
C1488 N1492 1.427 . S
C1489 H1479 0.929 . S
C1489 C1487 1.433 . S
C1489 N1492 1.384 . S
C1490 H1481 0.929 . S
C1490 C1482 1.378 . S
C1490 C1485 1.350 . S
C1491 H1478 0.929 . S
C1491 C1483 1.433 . S
C1491 N1493 1.384 1_554 S
N1492 C1488 1.427 . S
N1492 C1489 1.384 . S
N1493 C1485 1.427 . S
N1493 C1491 1.384 1_556 S
H1494 C1500 0.930 . S
H1495 C1504 0.930 . S
H1496 C1509 0.938 . S
H1497 C1507 0.929 . S
H1498 C1502 0.929 . S
H1499 C1508 0.929 . S
C1500 H1494 0.930 . S
C1500 C1501 1.367 . S
C1500 C1508 1.378 1_554 S
C1501 C1500 1.367 . S
C1501 C1509 1.444 . S
C1502 H1498 0.929 . S
C1502 C1504 1.378 . S
C1502 C1506 1.350 . S
C1503 C1506 1.463 . S
C1503 C1508 1.350 . S
C1503 N1511 1.427 . S
C1504 H1495 0.930 . S
C1504 C1502 1.378 . S
C1504 C1505 1.367 . S
C1505 C1504 1.367 . S
C1505 C1507 1.433 . S
C1506 C1502 1.350 . S
C1506 C1503 1.463 . S
C1506 N1510 1.427 . S
C1507 H1497 0.929 . S
C1507 C1505 1.433 . S
C1507 N1510 1.384 . S
C1508 H1499 0.929 . S
C1508 C1500 1.378 1_556 S
C1508 C1503 1.350 . S
C1509 H1496 0.938 . S
C1509 C1501 1.444 . S
C1509 N1511 1.364 1_554 S
N1510 C1506 1.427 . S
N1510 C1507 1.384 . S
N1511 C1503 1.427 . S
N1511 C1509 1.364 1_556 S
H1512 C1518 0.930 . S
H1513 C1522 0.930 . S
H1514 C1527 0.929 . S
H1515 C1525 0.929 . S
H1516 C1520 0.929 . S
H1517 C1526 0.929 . S
C1518 H1512 0.930 . S
C1518 C1519 1.367 . S
C1518 C1526 1.378 1_554 S
C1519 C1518 1.367 . S
C1519 C1527 1.433 . S
C1520 H1516 0.929 . S
C1520 C1522 1.378 . S
C1520 C1524 1.350 . S
C1521 C1524 1.463 . S
C1521 C1526 1.350 . S
C1521 N1529 1.427 . S
C1522 H1513 0.930 . S
C1522 C1520 1.378 . S
C1522 C1523 1.367 . S
C1523 C1522 1.367 . S
C1523 C1525 1.433 . S
C1524 C1520 1.350 . S
C1524 C1521 1.463 . S
C1524 N1528 1.427 . S
C1525 H1515 0.929 . S
C1525 C1523 1.433 . S
C1525 N1528 1.384 . S
C1526 H1517 0.929 . S
C1526 C1518 1.378 1_556 S
C1526 C1521 1.350 . S
C1527 H1514 0.929 . S
C1527 C1519 1.433 . S
C1527 N1529 1.384 1_554 S
N1528 C1524 1.427 . S
N1528 C1525 1.384 . S
N1529 C1521 1.427 . S
N1529 C1527 1.384 1_556 S
H1530 C1536 0.930 . S
H1531 C1540 0.930 . S
H1532 C1545 0.929 . S
H1533 C1543 0.929 . S
H1534 C1538 0.929 . S
H1535 C1544 0.929 . S
C1536 H1530 0.930 . S
C1536 C1537 1.367 . S
C1536 C1544 1.378 . S
C1537 C1536 1.367 . S
C1537 C1545 1.433 . S
C1538 H1534 0.929 . S
C1538 C1540 1.378 . S
C1538 C1542 1.350 . S
C1539 C1542 1.463 . S
C1539 C1544 1.350 . S
C1539 N1547 1.427 . S
C1540 H1531 0.930 . S
C1540 C1538 1.378 . S
C1540 C1541 1.367 . S
C1541 C1540 1.367 . S
C1541 C1543 1.433 . S
C1542 C1538 1.350 . S
C1542 C1539 1.463 . S
C1542 N1546 1.427 . S
C1543 H1533 0.929 . S
C1543 C1541 1.433 . S
C1543 N1546 1.384 . S
C1544 H1535 0.929 . S
C1544 C1536 1.378 . S
C1544 C1539 1.350 . S
C1545 H1532 0.929 . S
C1545 C1537 1.433 . S
C1545 N1547 1.384 . S
N1546 C1542 1.427 . S
N1546 C1543 1.384 . S
N1547 C1539 1.427 . S
N1547 C1545 1.384 . S
H1548 C1554 0.930 . S
H1549 C1558 0.930 . S
H1550 C1563 0.929 . S
H1551 C1561 0.929 . S
H1552 C1556 0.929 . S
H1553 C1562 0.929 . S
C1554 H1548 0.930 . S
C1554 C1555 1.367 . S
C1554 C1562 1.378 . S
C1555 C1554 1.367 . S
C1555 C1563 1.433 . S
C1556 H1552 0.929 . S
C1556 C1558 1.378 . S
C1556 C1560 1.350 . S
C1557 C1560 1.463 . S
C1557 C1562 1.350 . S
C1557 N1565 1.427 . S
C1558 H1549 0.930 . S
C1558 C1556 1.378 . S
C1558 C1559 1.367 . S
C1559 C1558 1.367 . S
C1559 C1561 1.433 . S
C1560 C1556 1.350 . S
C1560 C1557 1.463 . S
C1560 N1564 1.427 . S
C1561 H1551 0.929 . S
C1561 C1559 1.433 . S
C1561 N1564 1.384 . S
C1562 H1553 0.929 . S
C1562 C1554 1.378 . S
C1562 C1557 1.350 . S
C1563 H1550 0.929 . S
C1563 C1555 1.433 . S
C1563 N1565 1.384 . S
N1564 C1560 1.427 . S
N1564 C1561 1.384 . S
N1565 C1557 1.427 . S
N1565 C1563 1.384 . S
H1566 C1572 0.930 . S
H1567 C1576 0.930 . S
H1568 C1581 0.929 . S
H1569 C1579 0.929 . S
H1570 C1574 0.929 . S
H1571 C1580 0.929 . S
C1572 H1566 0.930 . S
C1572 C1573 1.367 . S
C1572 C1580 1.378 . S
C1573 C1572 1.367 . S
C1573 C1581 1.433 . S
C1574 H1570 0.929 . S
C1574 C1576 1.378 . S
C1574 C1578 1.350 . S
C1575 C1578 1.463 . S
C1575 C1580 1.350 . S
C1575 N1583 1.427 . S
C1576 H1567 0.930 . S
C1576 C1574 1.378 . S
C1576 C1577 1.367 . S
C1577 C1576 1.367 . S
C1577 C1579 1.433 . S
C1578 C1574 1.350 . S
C1578 C1575 1.463 . S
C1578 N1582 1.427 . S
C1579 H1569 0.929 . S
C1579 C1577 1.433 . S
C1579 N1582 1.384 . S
C1580 H1571 0.929 . S
C1580 C1572 1.378 . S
C1580 C1575 1.350 . S
C1581 H1568 0.929 . S
C1581 C1573 1.433 . S
C1581 N1583 1.384 . S
N1582 C1578 1.427 . S
N1582 C1579 1.384 . S
N1583 C1575 1.427 . S
N1583 C1581 1.384 . S
H1584 C1590 0.930 . S
H1585 C1594 0.930 1_556 S
H1586 C1599 0.929 . S
H1587 C1597 0.929 . S
H1588 C1592 0.929 . S
H1589 C1598 0.929 . S
C1590 H1584 0.930 . S
C1590 C1591 1.367 . S
C1590 C1598 1.378 . S
C1591 C1590 1.367 . S
C1591 C1599 1.433 . S
C1592 H1588 0.929 . S
C1592 C1594 1.378 . S
C1592 C1596 1.350 . S
C1593 C1596 1.463 . S
C1593 C1598 1.350 . S
C1593 N1601 1.427 . S
C1594 H1585 0.930 1_554 S
C1594 C1592 1.378 . S
C1594 C1595 1.367 1_554 S
C1595 C1594 1.367 1_556 S
C1595 C1597 1.433 . S
C1596 C1592 1.350 . S
C1596 C1593 1.463 . S
C1596 N1600 1.427 . S
C1597 H1587 0.929 . S
C1597 C1595 1.433 . S
C1597 N1600 1.384 1_556 S
C1598 H1589 0.929 . S
C1598 C1590 1.378 . S
C1598 C1593 1.350 . S
C1599 H1586 0.929 . S
C1599 C1591 1.433 . S
C1599 N1601 1.384 . S
N1600 C1596 1.427 . S
N1600 C1597 1.384 1_554 S
N1601 C1593 1.427 . S
N1601 C1599 1.384 . S
H1602 C1608 0.930 . S
H1603 C1612 0.930 . S
H1604 C1617 0.929 . S
H1605 C1615 0.929 . S
H1606 C1610 0.929 . S
H1607 C1616 0.929 . S
C1608 H1602 0.930 . S
C1608 C1609 1.367 . S
C1608 C1616 1.378 . S
C1609 C1608 1.367 . S
C1609 C1617 1.433 . S
C1610 H1606 0.929 . S
C1610 C1612 1.378 1_554 S
C1610 C1614 1.350 . S
C1611 C1614 1.463 . S
C1611 C1616 1.350 . S
C1611 N1619 1.427 . S
C1612 H1603 0.930 . S
C1612 C1610 1.378 1_556 S
C1612 C1613 1.366 . S
C1613 C1612 1.366 . S
C1613 C1615 1.433 . S
C1614 C1610 1.350 . S
C1614 C1611 1.463 . S
C1614 N1618 1.427 . S
C1615 H1605 0.929 . S
C1615 C1613 1.433 . S
C1615 N1618 1.384 1_556 S
C1616 H1607 0.929 . S
C1616 C1608 1.378 . S
C1616 C1611 1.350 . S
C1617 H1604 0.929 . S
C1617 C1609 1.433 . S
C1617 N1619 1.384 . S
N1618 C1614 1.427 . S
N1618 C1615 1.384 1_554 S
N1619 C1611 1.427 . S
N1619 C1617 1.384 . S
H1620 C1626 0.930 . S
H1621 C1630 0.930 . S
H1622 C1635 0.929 . S
H1623 C1633 0.929 1_556 S
H1624 C1628 0.929 . S
H1625 C1634 0.929 . S
C1626 H1620 0.930 . S
C1626 C1627 1.367 . S
C1626 C1634 1.378 . S
C1627 C1626 1.367 . S
C1627 C1635 1.433 . S
C1628 H1624 0.929 . S
C1628 C1630 1.378 1_554 S
C1628 C1632 1.350 . S
C1629 C1632 1.463 . S
C1629 C1634 1.350 . S
C1629 N1637 1.427 . S
C1630 H1621 0.930 . S
C1630 C1628 1.378 1_556 S
C1630 C1631 1.367 . S
C1631 C1630 1.367 . S
C1631 C1633 1.433 1_556 S
C1632 C1628 1.350 . S
C1632 C1629 1.463 . S
C1632 N1636 1.427 . S
C1633 H1623 0.929 1_554 S
C1633 C1631 1.433 1_554 S
C1633 N1636 1.384 . S
C1634 H1625 0.929 . S
C1634 C1626 1.378 . S
C1634 C1629 1.350 . S
C1635 H1622 0.929 . S
C1635 C1627 1.433 . S
C1635 N1637 1.384 . S
N1636 C1632 1.427 . S
N1636 C1633 1.384 . S
N1637 C1629 1.427 . S
N1637 C1635 1.384 . S
H1638 C1644 0.930 . S
H1639 C1648 0.930 . S
H1640 C1653 0.929 . S
H1641 C1651 0.929 . S
H1642 C1646 0.929 . S
H1643 C1652 0.929 . S
C1644 H1638 0.930 . S
C1644 C1645 1.367 . S
C1644 C1652 1.378 . S
C1645 C1644 1.367 . S
C1645 C1653 1.433 . S
C1646 H1642 0.929 . S
C1646 C1648 1.378 . S
C1646 C1650 1.350 . S
C1647 C1650 1.463 . S
C1647 C1652 1.350 . S
C1647 N1655 1.427 . S
C1648 H1639 0.930 . S
C1648 C1646 1.378 . S
C1648 C1649 1.367 . S
C1649 C1648 1.367 . S
C1649 C1651 1.433 . S
C1650 C1646 1.350 . S
C1650 C1647 1.463 . S
C1650 N1654 1.427 . S
C1651 H1641 0.929 . S
C1651 C1649 1.433 . S
C1651 N1654 1.384 . S
C1652 H1643 0.929 . S
C1652 C1644 1.378 . S
C1652 C1647 1.350 . S
C1653 H1640 0.929 . S
C1653 C1645 1.433 . S
C1653 N1655 1.384 . S
N1654 C1650 1.427 . S
N1654 C1651 1.384 . S
N1655 C1647 1.427 . S
N1655 C1653 1.384 . S
H1656 C1662 0.930 . S
H1657 C1666 0.930 . S
H1658 C1671 0.929 . S
H1659 C1669 0.929 . S
H1660 C1664 0.929 . S
H1661 C1670 0.929 . S
C1662 H1656 0.930 . S
C1662 C1663 1.367 . S
C1662 C1670 1.378 . S
C1663 C1662 1.367 . S
C1663 C1671 1.433 . S
C1664 H1660 0.929 . S
C1664 C1666 1.378 . S
C1664 C1668 1.350 . S
C1665 C1668 1.463 . S
C1665 C1670 1.350 . S
C1665 N1673 1.427 . S
C1666 H1657 0.930 . S
C1666 C1664 1.378 . S
C1666 C1667 1.367 . S
C1667 C1666 1.367 . S
C1667 C1669 1.433 . S
C1668 C1664 1.350 . S
C1668 C1665 1.463 . S
C1668 N1672 1.427 . S
C1669 H1659 0.929 . S
C1669 C1667 1.433 . S
C1669 N1672 1.384 . S
C1670 H1661 0.929 . S
C1670 C1662 1.378 . S
C1670 C1665 1.350 . S
C1671 H1658 0.929 . S
C1671 C1663 1.433 . S
C1671 N1673 1.384 . S
N1672 C1668 1.427 . S
N1672 C1669 1.384 . S
N1673 C1665 1.427 . S
N1673 C1671 1.384 . S
H1674 C1680 0.930 . S
H1675 C1684 0.930 . S
H1676 C1689 0.929 . S
H1677 C1687 0.929 . S
H1678 C1682 0.929 . S
H1679 C1688 0.929 . S
C1680 H1674 0.930 . S
C1680 C1681 1.367 . S
C1680 C1688 1.378 . S
C1681 C1680 1.367 . S
C1681 C1689 1.433 . S
C1682 H1678 0.929 . S
C1682 C1684 1.378 . S
C1682 C1686 1.350 . S
C1683 C1686 1.463 . S
C1683 C1688 1.350 . S
C1683 N1691 1.427 . S
C1684 H1675 0.930 . S
C1684 C1682 1.378 . S
C1684 C1685 1.367 . S
C1685 C1684 1.367 . S
C1685 C1687 1.433 . S
C1686 C1682 1.350 . S
C1686 C1683 1.463 . S
C1686 N1690 1.427 . S
C1687 H1677 0.929 . S
C1687 C1685 1.433 . S
C1687 N1690 1.384 . S
C1688 H1679 0.929 . S
C1688 C1680 1.378 . S
C1688 C1683 1.350 . S
C1689 H1676 0.929 . S
C1689 C1681 1.433 . S
C1689 N1691 1.384 . S
N1690 C1686 1.427 . S
N1690 C1687 1.384 . S
N1691 C1683 1.427 . S
N1691 C1689 1.384 . S
H1692 C1698 0.930 . S
H1693 C1702 0.930 . S
H1694 C1707 0.929 . S
H1695 C1705 0.929 . S
H1696 C1700 0.908 . S
H1697 C1706 0.929 . S
C1698 H1692 0.930 . S
C1698 C1699 1.367 . S
C1698 C1706 1.378 . S
C1699 C1698 1.367 . S
C1699 C1707 1.433 . S
C1700 H1696 0.908 . S
C1700 C1702 1.362 1_655 S
C1700 C1704 1.392 . S
C1701 C1704 1.463 . S
C1701 C1706 1.350 . S
C1701 N1709 1.427 . S
C1702 H1693 0.930 . S
C1702 C1700 1.362 1_455 S
C1702 C1703 1.367 . S
C1703 C1702 1.367 . S
C1703 C1705 1.433 . S
C1704 C1700 1.392 . S
C1704 C1701 1.463 . S
C1704 N1708 1.407 . S
C1705 H1695 0.929 . S
C1705 C1703 1.433 . S
C1705 N1708 1.369 1_455 S
C1706 H1697 0.929 . S
C1706 C1698 1.378 . S
C1706 C1701 1.350 . S
C1707 H1694 0.929 . S
C1707 C1699 1.433 . S
C1707 N1709 1.384 . S
N1708 C1704 1.407 . S
N1708 C1705 1.369 1_655 S
N1709 C1701 1.427 . S
N1709 C1707 1.384 . S
H1710 C1716 0.930 . S
H1711 C1720 0.930 . S
H1712 C1725 0.929 . S
H1713 C1723 0.929 . S
H1714 C1718 0.929 . S
H1715 C1724 0.929 . S
C1716 H1710 0.930 . S
C1716 C1717 1.367 . S
C1716 C1724 1.378 . S
C1717 C1716 1.367 . S
C1717 C1725 1.433 . S
C1718 H1714 0.929 . S
C1718 C1720 1.378 . S
C1718 C1722 1.350 . S
C1719 C1722 1.463 . S
C1719 C1724 1.350 . S
C1719 N1727 1.427 . S
C1720 H1711 0.930 . S
C1720 C1718 1.378 . S
C1720 C1721 1.367 . S
C1721 C1720 1.367 . S
C1721 C1723 1.433 . S
C1722 C1718 1.350 . S
C1722 C1719 1.463 . S
C1722 N1726 1.427 . S
C1723 H1713 0.929 . S
C1723 C1721 1.433 . S
C1723 N1726 1.384 . S
C1724 H1715 0.929 . S
C1724 C1716 1.378 . S
C1724 C1719 1.350 . S
C1725 H1712 0.929 . S
C1725 C1717 1.433 . S
C1725 N1727 1.384 . S
N1726 C1722 1.427 . S
N1726 C1723 1.384 . S
N1727 C1719 1.427 . S
N1727 C1725 1.384 . S
H1728 C1734 0.930 . S
H1729 C1738 0.930 . S
H1730 C1743 0.929 . S
H1731 C1741 0.925 1_565 S
H1732 C1736 0.929 . S
H1733 C1742 0.929 . S
C1734 H1728 0.930 . S
C1734 C1735 1.367 . S
C1734 C1742 1.378 . S
C1735 C1734 1.367 . S
C1735 C1743 1.433 1_565 S
C1736 H1732 0.929 . S
C1736 C1738 1.378 . S
C1736 C1740 1.350 . S
C1737 C1740 1.463 . S
C1737 C1742 1.350 1_545 S
C1737 N1745 1.427 . S
C1738 H1729 0.930 . S
C1738 C1736 1.378 . S
C1738 C1739 1.367 . S
C1739 C1738 1.367 . S
C1739 C1741 1.433 . S
C1740 C1736 1.350 . S
C1740 C1737 1.463 . S
C1740 N1744 1.426 1_545 S
C1741 H1731 0.925 1_545 S
C1741 C1739 1.433 . S
C1741 N1744 1.381 1_545 S
C1742 H1733 0.929 . S
C1742 C1734 1.378 . S
C1742 C1737 1.350 1_565 S
C1743 H1730 0.929 . S
C1743 C1735 1.433 1_545 S
C1743 N1745 1.384 . S
N1744 C1740 1.426 1_565 S
N1744 C1741 1.381 1_565 S
N1745 C1737 1.427 . S
N1745 C1743 1.384 . S
H1746 C1752 0.967 . S
H1747 C1756 0.930 . S
H1748 C1761 0.929 . S
H1749 C1759 0.929 . S
H1750 C1754 0.929 . S
H1751 C1760 0.880 1_545 S
C1752 H1746 0.967 . S
C1752 C1753 1.367 . S
C1752 C1760 1.391 . S
C1753 C1752 1.367 . S
C1753 C1761 1.433 . S
C1754 H1750 0.929 . S
C1754 C1756 1.378 . S
C1754 C1758 1.350 . S
C1755 C1758 1.463 . S
C1755 C1760 1.387 . S
C1755 N1763 1.427 . S
C1756 H1747 0.930 . S
C1756 C1754 1.378 . S
C1756 C1757 1.367 1_565 S
C1757 C1756 1.367 1_545 S
C1757 C1759 1.433 . S
C1758 C1754 1.350 . S
C1758 C1755 1.463 . S
C1758 N1762 1.427 1_565 S
C1759 H1749 0.929 . S
C1759 C1757 1.433 . S
C1759 N1762 1.384 . S
C1760 H1751 0.880 1_565 S
C1760 C1752 1.391 . S
C1760 C1755 1.387 . S
C1761 H1748 0.929 . S
C1761 C1753 1.433 . S
C1761 N1763 1.384 . S
N1762 C1758 1.427 1_545 S
N1762 C1759 1.384 . S
N1763 C1755 1.427 . S
N1763 C1761 1.384 . S
H1764 C1770 0.930 . S
H1765 C1774 0.930 . S
H1766 C1779 0.929 . S
H1767 C1777 0.929 . S
H1768 C1772 0.929 1_655 S
H1769 C1778 0.929 . S
C1770 H1764 0.930 . S
C1770 C1771 1.367 1_455 S
C1770 C1778 1.378 . S
C1771 C1770 1.367 1_655 S
C1771 C1779 1.433 . S
C1772 H1768 0.929 1_455 S
C1772 C1774 1.378 . S
C1772 C1776 1.350 . S
C1773 C1776 1.463 . S
C1773 C1778 1.350 . S
C1773 N1781 1.427 1_455 S
C1774 H1765 0.930 . S
C1774 C1772 1.378 . S
C1774 C1775 1.367 . S
C1775 C1774 1.367 . S
C1775 C1777 1.433 . S
C1776 C1772 1.350 . S
C1776 C1773 1.463 . S
C1776 N1780 1.427 . S
C1777 H1767 0.929 . S
C1777 C1775 1.433 . S
C1777 N1780 1.384 . S
C1778 H1769 0.929 . S
C1778 C1770 1.378 . S
C1778 C1773 1.350 . S
C1779 H1766 0.929 . S
C1779 C1771 1.433 . S
C1779 N1781 1.384 . S
N1780 C1776 1.427 . S
N1780 C1777 1.384 . S
N1781 C1773 1.427 1_655 S
N1781 C1779 1.384 . S
H1782 C1788 0.930 . S
H1783 C1792 0.930 . S
H1784 C1797 0.929 . S
H1785 C1795 0.929 . S
H1786 C1790 0.929 . S
H1787 C1796 0.929 . S
C1788 H1782 0.930 . S
C1788 C1789 1.367 . S
C1788 C1796 1.378 . S
C1789 C1788 1.367 . S
C1789 C1797 1.433 . S
C1790 H1786 0.929 . S
C1790 C1792 1.378 . S
C1790 C1794 1.350 . S
C1791 C1794 1.463 . S
C1791 C1796 1.350 . S
C1791 N1799 1.427 . S
C1792 H1783 0.930 . S
C1792 C1790 1.378 . S
C1792 C1793 1.367 . S
C1793 C1792 1.367 . S
C1793 C1795 1.433 . S
C1794 C1790 1.350 . S
C1794 C1791 1.463 . S
C1794 N1798 1.427 . S
C1795 H1785 0.929 . S
C1795 C1793 1.433 . S
C1795 N1798 1.384 . S
C1796 H1787 0.929 . S
C1796 C1788 1.378 . S
C1796 C1791 1.350 . S
C1797 H1784 0.929 . S
C1797 C1789 1.433 . S
C1797 N1799 1.384 . S
N1798 C1794 1.427 . S
N1798 C1795 1.384 . S
N1799 C1791 1.427 . S
N1799 C1797 1.384 . S
C511 C230 1.238 . S
C515 C6 1.238 . S
C529 C244 1.240 . S
C533 C20 1.245 . S
C547 C216 1.243 . S
C551 C34 1.237 . S
C565 C370 1.225 . S
C569 C48 1.228 . S
C583 C62 1.226 . S
C587 C342 1.227 . S
C601 C76 1.218 . S
C605 C356 1.216 . S
C619 C90 1.240 . S
C623 C482 1.238 . S
C637 C496 1.247 . S
C641 C104 1.248 . S
C655 C468 1.248 . S
C659 C118 1.241 . S
C673 C132 1.228 . S
C677 C286 1.224 . S
C691 C258 1.227 . S
C695 C146 1.225 . S
C709 C160 1.222 . S
C713 C272 1.226 . S
C727 C398 1.175 . S
C731 C174 1.166 . S
C745 C188 1.169 . S
C749 C412 1.172 . S
C763 C384 1.174 . S
C767 C202 1.171 . S
C781 C454 1.162 . S
C785 C300 1.166 . S
C799 C426 1.166 . S
C803 C314 1.161 . S
C817 C328 1.167 . S
C821 C440 1.158 . S
C835 C260 1.262 . S
C839 C8 1.266 . S
C853 C274 1.248 . S
C857 C22 1.252 . S
C871 C288 1.240 . S
C875 C36 1.245 . S
C889 C50 1.258 . S
C893 C470 1.263 . S
C907 C64 1.255 . S
C911 C484 1.259 . S
C925 C78 1.245 . S
C929 C498 1.249 . S
C943 C92 1.245 . S
C947 C344 1.240 . S
C961 C358 1.256 . S
C965 C106 1.260 . S
C979 C372 1.261 . S
C983 C120 1.265 . S
C997 C218 1.253 . S
C1001 C134 1.249 . S
C1015 C148 1.239 . S
C1019 C232 1.243 . S
C1033 C162 1.243 . S
C1037 C246 1.247 . S
C1051 C176 1.181 . S
C1055 C428 1.181 . S
C1069 C442 1.183 . S
C1073 C190 1.183 . S
C1087 C456 1.205 . S
C1091 C204 1.205 . S
C1105 C386 1.329 1_554 S
C1109 C302 1.329 1_556 S
C1123 C316 1.333 1_556 S
C1127 C400 1.333 1_554 S
C1141 C330 1.329 1_556 S
C1145 C414 1.329 1_554 S
C1159 C385 1.424 . S
C1163 C7 1.425 . S
C1177 C21 1.416 . S
C1181 C399 1.416 . S
C1195 C35 1.424 . S
C1199 C413 1.425 . S
C1213 C175 1.386 . S
C1217 C49 1.386 . S
C1231 C63 1.386 . S
C1235 C189 1.386 . S
C1249 C77 1.388 . S
C1253 C203 1.388 . S
C1267 C301 1.418 . S
C1271 C91 1.419 . S
C1285 C105 1.420 . S
C1289 C315 1.419 . S
C1303 C329 1.416 . S
C1307 C119 1.418 . S
C1321 C133 1.390 . S
C1325 C427 1.390 . S
C1339 C441 1.390 . S
C1343 C147 1.393 . S
C1357 C455 1.384 . S
C1361 C161 1.386 . S
C1375 C343 1.392 . S
C1379 C217 1.392 . S
C1393 C357 1.401 . S
C1397 C231 1.400 . S
C1411 C371 1.394 . S
C1415 C245 1.392 . S
C1429 C259 1.392 . S
C1433 C469 1.391 . S
C1447 C483 1.398 . S
C1451 C273 1.400 . S
C1465 C497 1.392 . S
C1469 C287 1.393 . S
C1483 C9 1.406 . S
C1487 C233 1.406 . S
C1501 C23 1.415 . S
C1505 C247 1.415 . S
C1519 C37 1.412 . S
C1523 C219 1.413 . S
C1537 C373 1.438 . S
C1541 C51 1.439 . S
C1555 C345 1.441 . S
C1559 C65 1.441 . S
C1573 C359 1.444 . S
C1577 C79 1.445 . S
C1591 C485 1.406 . S
C1595 C93 1.405 . S
C1609 C499 1.410 . S
C1613 C107 1.409 . S
C1627 C471 1.420 . S
C1631 C121 1.419 . S
C1645 C135 1.437 . S
C1649 C289 1.436 . S
C1663 C149 1.449 . S
C1667 C261 1.448 . S
C1681 C163 1.444 . S
C1685 C275 1.443 . S
C1699 C401 1.496 . S
C1703 C177 1.501 . S
C1717 C415 1.503 . S
C1721 C191 1.508 . S
C1735 C205 1.494 . S
C1739 C387 1.494 . S
C1753 C303 1.501 . S
C1757 C457 1.506 . S
C1771 C429 1.501 . S
C1775 C317 1.502 . S
C1789 C443 1.493 . S
C1793 C331 1.493 . S
