# Generated by pormake.
# Topology uoj, (4)-cn, num edge types: 1
# Building blocks:
#     Node 0, Type 0, BuildingBlock: CEKHIL_clean_sbu_0, # of connection points: 4
#     Node 1, Type 0, BuildingBlock: CEKHIL_clean_sbu_0, # of connection points: 4
#     Node 2, Type 0, BuildingBlock: CEKHIL_clean_sbu_0, # of connection points: 4
#     Node 3, Type 0, BuildingBlock: CEKHIL_clean_sbu_0, # of connection points: 4
#     Node 4, Type 0, BuildingBlock: CEKHIL_clean_sbu_0, # of connection points: 4
#     Node 5, Type 0, BuildingBlock: CEKHIL_clean_sbu_0, # of connection points: 4
#     Node 6, Type 0, BuildingBlock: CEKHIL_clean_sbu_0, # of connection points: 4
#     Node 7, Type 0, BuildingBlock: CEKHIL_clean_sbu_0, # of connection points: 4
#     Edge 8, Type (0, 0), BuildingBlock: XUDNAN_clean_linker_2, # of connection points: 2
#     Edge 9, Type (0, 0), BuildingBlock: XUDNAN_clean_linker_2, # of connection points: 2
#     Edge 10, Type (0, 0), BuildingBlock: XUDNAN_clean_linker_2, # of connection points: 2
#     Edge 11, Type (0, 0), BuildingBlock: XUDNAN_clean_linker_2, # of connection points: 2
#     Edge 12, Type (0, 0), BuildingBlock: XUDNAN_clean_linker_2, # of connection points: 2
#     Edge 13, Type (0, 0), BuildingBlock: XUDNAN_clean_linker_2, # of connection points: 2
#     Edge 14, Type (0, 0), BuildingBlock: XUDNAN_clean_linker_2, # of connection points: 2
#     Edge 15, Type (0, 0), BuildingBlock: XUDNAN_clean_linker_2, # of connection points: 2
#     Edge 16, Type (0, 0), BuildingBlock: XUDNAN_clean_linker_2, # of connection points: 2
#     Edge 17, Type (0, 0), BuildingBlock: XUDNAN_clean_linker_2, # of connection points: 2
#     Edge 18, Type (0, 0), BuildingBlock: XUDNAN_clean_linker_2, # of connection points: 2
#     Edge 19, Type (0, 0), BuildingBlock: XUDNAN_clean_linker_2, # of connection points: 2
#     Edge 20, Type (0, 0), BuildingBlock: XUDNAN_clean_linker_2, # of connection points: 2
#     Edge 21, Type (0, 0), BuildingBlock: XUDNAN_clean_linker_2, # of connection points: 2
#     Edge 22, Type (0, 0), BuildingBlock: XUDNAN_clean_linker_2, # of connection points: 2
#     Edge 23, Type (0, 0), BuildingBlock: XUDNAN_clean_linker_2, # of connection points: 2
# Relax obj value: 0.110
# Max RMSD: 0.137
# Mean RMSD: 0.134
data_MOF--net-uoj--node1-CEKHIL_clean_sbu_0--edge1-XUDNAN_clean_linker_2
_symmetry_space_group_name_H-M    P1
_symmetry_Int_Tables_number       1
_symmetry_cell_setting            triclinic
loop_
_symmetry_equiv_pos_as_xyz
'x, y, z'
_cell_length_a     33.02313
_cell_length_b     32.675293
_cell_length_c     35.170406
_cell_angle_alpha  89.980375
_cell_angle_beta   90.006399
_cell_angle_gamma 88.675968
loop_
_atom_site_label
_atom_site_type_symbol
_atom_site_fract_x
_atom_site_fract_y
_atom_site_fract_z
_atom_type_partial_charge
Co0 Co 0.06747 0.29934 0.42311 0.0
O1 O 0.10582 0.33008 0.39422 0.0
O2 O 0.04203 0.31991 0.37761 0.0
C3 C 0.10793 0.24515 0.43631 0.0
O4 O 0.01953 0.26874 0.44407 0.0
Co5 Co 0.0816 0.28179 0.50879 0.0
O6 O 0.03259 0.24822 0.50392 0.0
C7 C 0.0529 0.3635 0.48505 0.0
C8 C 0.07664 0.3362 0.36994 0.0
C9 C 0.00997 0.24956 0.47455 0.0
O10 O 0.04985 0.35017 0.45087 0.0
O11 O 0.06765 0.34189 0.51232 0.0
O12 O 0.08993 0.24815 0.40351 0.0
O13 O 0.10462 0.27691 0.45814 0.0
Co14 Co 0.28192 0.92561 0.56431 0.0
O15 O 0.22885 0.90449 0.56841 0.0
O16 O 0.26685 0.90003 0.5166 0.0
C17 C 0.3043 0.90009 0.6198 0.0
O18 O 0.33924 0.94306 0.55166 0.0
Co19 Co 0.30622 0.99127 0.62253 0.0
O20 O 0.36104 0.97508 0.60431 0.0
C21 C 0.2531 0.01525 0.55946 0.0
C22 C 0.23296 0.89188 0.53372 0.0
C23 C 0.36747 0.9583 0.57211 0.0
O24 O 0.2586 0.97913 0.54587 0.0
O25 O 0.26738 0.02621 0.59163 0.0
O26 O 0.30427 0.87762 0.58939 0.0
O27 O 0.28687 0.9359 0.61676 0.0
Co28 Co 0.92222 0.70678 0.42071 0.0
O29 O 0.88311 0.67991 0.3888 0.0
O30 O 0.94782 0.68872 0.37469 0.0
C31 C 0.88468 0.76242 0.43622 0.0
O32 O 0.97125 0.73385 0.44327 0.0
Co33 Co 0.90916 0.7235 0.50688 0.0
O34 O 0.95832 0.757 0.50219 0.0
C35 C 0.93333 0.64059 0.48122 0.0
C36 C 0.91261 0.67578 0.36445 0.0
C37 C 0.98115 0.75395 0.47306 0.0
O38 O 0.93676 0.65362 0.44683 0.0
O39 O 0.92023 0.66299 0.50864 0.0
O40 O 0.90264 0.76021 0.40339 0.0
O41 O 0.886 0.72937 0.45643 0.0
Co42 Co 0.72214 0.07277 0.58331 0.0
O43 O 0.76765 0.10745 0.58649 0.0
O44 O 0.73142 0.09825 0.53426 0.0
C45 C 0.69183 0.09332 0.63726 0.0
O46 O 0.67207 0.03996 0.57092 0.0
Co47 Co 0.71421 0.00566 0.64516 0.0
O48 O 0.6598 0.00074 0.62209 0.0
C49 C 0.77103 0.99173 0.58239 0.0
C50 C 0.76204 0.11539 0.55075 0.0
C51 C 0.64977 0.01512 0.58962 0.0
O52 O 0.75853 0.02567 0.56765 0.0
O53 O 0.75901 0.97898 0.6148 0.0
O54 O 0.68704 0.11448 0.60622 0.0
O55 O 0.71859 0.06385 0.63581 0.0
Co56 Co 0.41587 0.79223 0.92965 0.0
O57 O 0.37087 0.81301 0.90044 0.0
O58 O 0.43526 0.81528 0.88267 0.0
C59 C 0.38992 0.73132 0.94386 0.0
O60 O 0.46972 0.7713 0.95091 0.0
Co61 Co 0.40591 0.77382 0.01558 0.0
O62 O 0.4571 0.74207 0.0074 0.0
C63 C 0.41803 0.85871 0.99083 0.0
C64 C 0.39727 0.82212 0.87466 0.0
C65 C 0.48045 0.74866 0.97929 0.0
O66 O 0.4217 0.84623 0.95631 0.0
O67 O 0.40925 0.835 0.01848 0.0
O68 O 0.40647 0.73759 0.91099 0.0
O69 O 0.3848 0.76335 0.96518 0.0
Co70 Co 0.78685 0.56572 0.06086 0.0
O71 O 0.80775 0.61216 0.08703 0.0
O72 O 0.80073 0.55057 0.11254 0.0
C73 C 0.73335 0.59825 0.0345 0.0
O74 O 0.76545 0.511 0.04295 0.0
Co75 Co 0.78538 0.56416 0.97317 0.0
O76 O 0.75298 0.51448 0.98023 0.0
C77 C 0.86283 0.55397 0.01262 0.0
C78 C 0.81246 0.58811 0.11614 0.0
C79 C 0.75126 0.49589 0.01202 0.0
O80 O 0.84326 0.55113 0.04398 0.0
O81 O 0.84582 0.56148 0.98062 0.0
O82 O 0.73171 0.58482 0.06925 0.0
O83 O 0.76835 0.59504 0.01802 0.0
Co84 Co 0.56938 0.19142 0.94266 0.0
O85 O 0.60636 0.15941 0.9114 0.0
O86 O 0.54423 0.17948 0.89492 0.0
C87 C 0.61358 0.23885 0.96125 0.0
O88 O 0.52292 0.22547 0.96455 0.0
Co89 Co 0.57979 0.20244 0.02958 0.0
O90 O 0.53421 0.2428 0.02524 0.0
C91 C 0.54575 0.12598 -0.00023 0.0
C92 C 0.57799 0.16091 0.88572 0.0
C93 C 0.51293 0.24475 0.99506 0.0
O94 O 0.54685 0.14044 0.96577 0.0
O95 O 0.55972 0.14487 0.02867 0.0
O96 O 0.59641 0.2412 0.92807 0.0
O97 O 0.60661 0.2061 0.98064 0.0
Co98 Co 0.21382 0.43562 0.07594 0.0
O99 O 0.17823 0.40396 0.10643 0.0
O100 O 0.20432 0.46328 0.12381 0.0
C101 C 0.25618 0.38509 0.05738 0.0
O102 O 0.25197 0.47585 0.05143 0.0
Co103 Co 0.21471 0.41949 0.98901 0.0
O104 O 0.26407 0.45303 0.99196 0.0
C105 C 0.14619 0.4649 0.02215 0.0
C106 C 0.18102 0.4328 0.13155 0.0
C107 C 0.27151 0.47673 0.01979 0.0
O108 O 0.16586 0.46532 0.05357 0.0
O109 O 0.15863 0.44513 0.99281 0.0
O110 O 0.26007 0.40175 0.09068 0.0
O111 O 0.22352 0.39539 0.03894 0.0
H112 H 0.20834 0.43071 0.20465 0.0
H113 H 0.09996 0.42787 0.13552 0.0
H114 H 0.05908 0.41309 0.19253 0.0
H115 H 0.18669 0.34624 0.25675 0.0
H116 H 0.20699 0.36328 0.30146 0.0
H117 H 0.22639 0.3832 0.25764 0.0
H118 H 0.20985 0.45723 0.28006 0.0
H119 H 0.19068 0.43752 0.32427 0.0
H120 H 0.15915 0.47074 0.29528 0.0
H121 H 0.03205 0.38875 0.25374 0.0
H122 H 0.02048 0.35474 0.31525 0.0
H123 H 0.14685 0.37011 0.34486 0.0
C124 C 0.17576 0.42864 0.20208 0.0
C125 C 0.15681 0.43122 0.16628 0.0
C126 C 0.11455 0.42654 0.16311 0.0
C127 C 0.09119 0.41831 0.19527 0.0
C128 C 0.11078 0.41452 0.2302 0.0
C129 C 0.15211 0.4196 0.23392 0.0
C130 C 0.16644 0.4081 0.27351 0.0
C131 C 0.1985 0.37313 0.27223 0.0
C132 C 0.18247 0.44564 0.29452 0.0
C133 C 0.12711 0.39408 0.2908 0.0
C134 C 0.09525 0.39894 0.26561 0.0
C135 C 0.05656 0.38542 0.27401 0.0
C136 C 0.05034 0.36595 0.30892 0.0
C137 C 0.08276 0.3598 0.33476 0.0
C138 C 0.12141 0.37473 0.32578 0.0
H139 H 0.33838 0.93927 0.68121 0.0
H140 H 0.3002 0.82096 0.64014 0.0
H141 H 0.32113 0.78915 0.70058 0.0
H142 H 0.42821 0.89834 0.73066 0.0
H143 H 0.42408 0.93412 0.76954 0.0
H144 H 0.40568 0.94843 0.72303 0.0
H145 H 0.33501 0.96573 0.75157 0.0
H146 H 0.35316 0.95145 0.79813 0.0
H147 H 0.30917 0.92741 0.77863 0.0
H148 H 0.34192 0.77042 0.76496 0.0
H149 H 0.36685 0.76418 0.83084 0.0
H150 H 0.39707 0.89263 0.83097 0.0
C151 C 0.33444 0.90674 0.6852 0.0
C152 C 0.31751 0.88249 0.65629 0.0
C153 C 0.31323 0.83996 0.662 0.0
C154 C 0.32494 0.82162 0.69621 0.0
C155 C 0.34159 0.84612 0.72415 0.0
C156 C 0.34694 0.88759 0.71909 0.0
C157 C 0.36682 0.9062 0.75378 0.0
C158 C 0.40868 0.92275 0.74364 0.0
C159 C 0.33939 0.93968 0.77158 0.0
C160 C 0.37058 0.86884 0.77937 0.0
C161 C 0.35568 0.83466 0.76144 0.0
C162 C 0.35413 0.79674 0.77924 0.0
C163 C 0.36823 0.79351 0.81652 0.0
C164 C 0.38398 0.8278 0.83535 0.0
C165 C 0.38549 0.86597 0.81669 0.0
H166 H 0.85426 0.62379 0.33779 0.0
H167 H 0.9555 0.69725 0.30252 0.0
H168 H 0.94169 0.6807 0.2356 0.0
H169 H 0.8721 0.54336 0.26457 0.0
H170 H 0.81882 0.53498 0.25789 0.0
H171 H 0.83733 0.55127 0.30353 0.0
H172 H 0.78712 0.61332 0.30212 0.0
H173 H 0.76868 0.59745 0.2564 0.0
H174 H 0.78793 0.64822 0.26242 0.0
H175 H 0.91287 0.66364 0.17319 0.0
H176 H 0.87567 0.63874 0.11734 0.0
H177 H 0.79691 0.57002 0.1912 0.0
C178 C 0.87372 0.63587 0.3159 0.0
C179 C 0.90588 0.66184 0.32519 0.0
C180 C 0.93088 0.67706 0.29598 0.0
C181 C 0.92321 0.66798 0.25789 0.0
C182 C 0.89101 0.64283 0.24952 0.0
C183 C 0.86716 0.62614 0.27757 0.0
C184 C 0.83478 0.59959 0.26036 0.0
C185 C 0.84115 0.55463 0.2723 0.0
C186 C 0.7921 0.61562 0.27096 0.0
C187 C 0.84335 0.60533 0.21832 0.0
C188 C 0.87581 0.63066 0.21292 0.0
C189 C 0.88793 0.6431 0.17692 0.0
C190 C 0.86651 0.62904 0.14545 0.0
C191 C 0.83385 0.60227 0.15014 0.0
C192 C 0.82227 0.58996 0.18699 0.0
H193 H 0.64421 0.11799 0.85794 0.0
H194 H 0.52774 0.17121 0.8249 0.0
H195 H 0.54244 0.15484 0.75791 0.0
H196 H 0.6998 0.1546 0.78213 0.0
H197 H 0.73148 0.10946 0.77576 0.0
H198 H 0.71034 0.121 0.82177 0.0
H199 H 0.67744 0.04981 0.82396 0.0
H200 H 0.69884 0.03784 0.77803 0.0
H201 H 0.64503 0.0344 0.78554 0.0
H202 H 0.57314 0.14184 0.69445 0.0
H203 H 0.61576 0.12665 0.63827 0.0
H204 H 0.71077 0.07797 0.71173 0.0
C205 C 0.62145 0.12534 0.83669 0.0
C206 C 0.58484 0.14587 0.84662 0.0
C207 C 0.55593 0.15532 0.81799 0.0
C208 C 0.56399 0.14618 0.77982 0.0
C209 C 0.6008 0.12698 0.77082 0.0
C210 C 0.6288 0.11596 0.79842 0.0
C211 C 0.66674 0.09713 0.78079 0.0
C212 C 0.70429 0.12205 0.79071 0.0
C213 C 0.67233 0.05211 0.7928 0.0
C214 C 0.65621 0.1007 0.73898 0.0
C215 C 0.61799 0.11798 0.73392 0.0
C216 C 0.60277 0.12749 0.69798 0.0
C217 C 0.62724 0.11902 0.66631 0.0
C218 C 0.66625 0.10089 0.67085 0.0
C219 C 0.68071 0.09118 0.70758 0.0
H220 H 0.23009 0.09499 0.57703 0.0
H221 H 0.22341 0.00303 0.48801 0.0
H222 H 0.18595 0.0519 0.44751 0.0
H223 H 0.12975 0.13896 0.56138 0.0
H224 H 0.14486 0.19067 0.57063 0.0
H225 H 0.17125 0.14839 0.59327 0.0
H226 H 0.23924 0.17348 0.566 0.0
H227 H 0.21305 0.21577 0.54321 0.0
H228 H 0.24425 0.18105 0.51545 0.0
H229 H 0.15026 0.11003 0.41594 0.0
H230 H 0.11676 0.1746 0.39566 0.0
H231 H 0.1455 0.22937 0.5046 0.0
C232 C 0.22072 0.08511 0.54907 0.0
C233 C 0.22987 0.04508 0.53583 0.0
C234 C 0.21689 0.03344 0.49899 0.0
C235 C 0.19555 0.06098 0.47562 0.0
C236 C 0.18721 0.10011 0.48943 0.0
C237 C 0.19917 0.11224 0.52527 0.0
C238 C 0.18601 0.1562 0.533 0.0
C239 C 0.15619 0.15868 0.56656 0.0
C240 C 0.22284 0.18321 0.5398 0.0
C241 C 0.16514 0.16678 0.49578 0.0
C242 C 0.16621 0.1339 0.47112 0.0
C243 C 0.14911 0.13604 0.43498 0.0
C244 C 0.13019 0.17284 0.42372 0.0
C245 C 0.12857 0.20692 0.44855 0.0
C246 C 0.14633 0.20379 0.48502 0.0
H247 H 0.16756 0.86176 0.56931 0.0
H248 H 0.22367 0.87072 0.45813 0.0
H249 H 0.16534 0.83487 0.42979 0.0
H250 H 0.12619 0.76131 0.55631 0.0
H251 H 0.08119 0.77393 0.58325 0.0
H252 H 0.12806 0.79854 0.59404 0.0
H253 H 0.09266 0.86957 0.58496 0.0
H254 H 0.04579 0.84521 0.5739 0.0
H255 H 0.06701 0.88101 0.54083 0.0
H256 H 0.099 0.79955 0.4143 0.0
H257 H 0.03187 0.76767 0.41274 0.0
H258 H 0.02105 0.78382 0.53489 0.0
C259 C 0.16784 0.85618 0.53895 0.0
C260 C 0.2 0.86914 0.5158 0.0
C261 C 0.19926 0.86094 0.47631 0.0
C262 C 0.16631 0.84069 0.46006 0.0
C263 C 0.1348 0.82879 0.48386 0.0
C264 C 0.13559 0.83611 0.5225 0.0
C265 C 0.09816 0.82096 0.54217 0.0
C266 C 0.10906 0.78664 0.57061 0.0
C267 C 0.07452 0.8563 0.56159 0.0
C268 C 0.07544 0.80464 0.50845 0.0
C269 C 0.09708 0.809 0.47507 0.0
C270 C 0.08192 0.79593 0.44029 0.0
C271 C 0.04376 0.77788 0.43973 0.0
C272 C 0.02112 0.77337 0.47372 0.0
C273 C 0.03737 0.78705 0.50839 0.0
H274 H 0.78994 0.91039 0.594 0.0
H275 H 0.80974 0.01132 0.51623 0.0
H276 H 0.84348 0.96382 0.47134 0.0
H277 H 0.88589 0.85321 0.57247 0.0
H278 H 0.86179 0.80446 0.57645 0.0
H279 H 0.84372 0.84732 0.60442 0.0
H280 H 0.77169 0.83824 0.57685 0.0
H281 H 0.78962 0.79588 0.54832 0.0
H282 H 0.76444 0.83915 0.52604 0.0
H283 H 0.86852 0.90461 0.43205 0.0
H284 H 0.88785 0.83807 0.40315 0.0
H285 H 0.85132 0.77601 0.50635 0.0
C286 C 0.80233 0.92276 0.56803 0.0
C287 C 0.79716 0.96462 0.55871 0.0
C288 C 0.81328 0.97937 0.52406 0.0
C289 C 0.83251 0.95264 0.49832 0.0
C290 C 0.83566 0.91133 0.50774 0.0
C291 C 0.82155 0.89651 0.54197 0.0
C292 C 0.82675 0.85043 0.54427 0.0
C293 C 0.8563 0.83814 0.5763 0.0
C294 C 0.78568 0.82973 0.54915 0.0
C295 C 0.84487 0.8416 0.50555 0.0
C296 C 0.85004 0.87714 0.48502 0.0
C297 C 0.86508 0.87658 0.448 0.0
C298 C 0.87571 0.83867 0.43176 0.0
C299 C 0.8711 0.80195 0.45253 0.0
C300 C 0.85529 0.80358 0.4898 0.0
H301 H 0.82142 0.15986 0.58209 0.0
H302 H 0.77089 0.12538 0.47317 0.0
H303 H 0.82767 0.15938 0.44043 0.0
H304 H 0.86144 0.25893 0.55272 0.0
H305 H 0.90545 0.2523 0.5826 0.0
H306 H 0.85825 0.2299 0.59616 0.0
H307 H 0.89443 0.15875 0.6007 0.0
H308 H 0.94152 0.18073 0.58658 0.0
H309 H 0.92139 0.13869 0.55994 0.0
H310 H 0.89388 0.1935 0.42055 0.0
H311 H 0.96154 0.2245 0.41559 0.0
H312 H 0.96756 0.23233 0.5386 0.0
C313 C 0.82172 0.16002 0.55129 0.0
C314 C 0.79175 0.1401 0.53011 0.0
C315 C 0.79343 0.14084 0.48989 0.0
C316 C 0.8256 0.15994 0.47113 0.0
C317 C 0.85545 0.17818 0.49312 0.0
C318 C 0.85341 0.17856 0.53237 0.0
C319 C 0.89008 0.19772 0.54997 0.0
C320 C 0.87808 0.23705 0.57163 0.0
C321 C 0.91321 0.16714 0.5758 0.0
C322 C 0.91389 0.20715 0.51461 0.0
C323 C 0.89339 0.19634 0.48197 0.0
C324 C 0.91003 0.20219 0.44597 0.0
C325 C 0.94845 0.2197 0.44343 0.0
C326 C 0.96993 0.23044 0.47674 0.0
C327 C 0.9522 0.22398 0.51262 0.0
H328 H 0.27057 0.55504 0.04742 0.0
H329 H 0.33922 0.47006 0.97634 0.0
H330 H 0.38334 0.52586 0.95618 0.0
H331 H 0.26651 0.63291 0.98347 0.0
H332 H 0.27158 0.67461 0.01655 0.0
H333 H 0.25074 0.62715 0.03223 0.0
H334 H 0.3051 0.62095 0.08514 0.0
H335 H 0.32588 0.66882 0.06995 0.0
H336 H 0.35796 0.62354 0.07281 0.0
H337 H 0.41179 0.59079 0.9354 0.0
H338 H 0.42527 0.66171 0.91665 0.0
H339 H 0.33887 0.70647 0.00072 0.0
C340 C 0.29593 0.54801 0.02884 0.0
C341 C 0.30186 0.50833 0.01364 0.0
C342 C 0.33438 0.50032 0.98834 0.0
C343 C 0.35967 0.53175 0.97688 0.0
C344 C 0.35205 0.57095 0.99106 0.0
C345 C 0.32127 0.57925 0.01678 0.0
C346 C 0.31663 0.6249 0.02398 0.0
C347 C 0.27384 0.6408 0.01341 0.0
C348 C 0.32703 0.63515 0.06544 0.0
C349 C 0.34825 0.64095 0.99692 0.0
C350 C 0.36869 0.60916 0.97873 0.0
C351 C 0.39667 0.61597 0.95 0.0
C352 C 0.40383 0.65635 0.93933 0.0
C353 C 0.3831 0.68941 0.95733 0.0
C354 C 0.3555 0.68167 0.98695 0.0
H355 H 0.65872 0.61057 0.06549 0.0
H356 H 0.7292 0.63482 0.96417 0.0
H357 H 0.67147 0.67542 0.93769 0.0
H358 H 0.56121 0.60162 0.01885 0.0
H359 H 0.5343 0.62629 0.05743 0.0
H360 H 0.58034 0.59742 0.06674 0.0
H361 H 0.61079 0.66102 0.09918 0.0
H362 H 0.56501 0.69018 0.08966 0.0
H363 H 0.613 0.7085 0.07321 0.0
H364 H 0.6064 0.71634 0.9242 0.0
H365 H 0.53936 0.75174 0.92388 0.0
H366 H 0.51357 0.69997 0.03482 0.0
C367 C 0.66195 0.62398 0.03752 0.0
C368 C 0.69835 0.6196 0.01682 0.0
C369 C 0.70144 0.63778 0.98042 0.0
C370 C 0.66888 0.6609 0.96522 0.0
C371 C 0.63362 0.66529 0.9868 0.0
C372 C 0.62998 0.64705 0.02207 0.0
C373 C 0.58955 0.65718 0.04023 0.0
C374 C 0.5649 0.61832 0.04614 0.0
C375 C 0.59494 0.68062 0.07778 0.0
C376 C 0.57101 0.68433 0.00986 0.0
C377 C 0.59669 0.68868 0.97919 0.0
C378 C 0.58599 0.71297 0.94801 0.0
C379 C 0.54791 0.73306 0.94816 0.0
C380 C 0.52114 0.72873 0.97934 0.0
C381 C 0.53316 0.70403 0.01049 0.0
H382 H 0.72162 0.45297 0.95171 0.0
H383 H 0.73885 0.44605 0.07402 0.0
H384 H 0.70752 0.378 0.07444 0.0
H385 H 0.62548 0.40765 0.94865 0.0
H386 H 0.63538 0.38047 0.90492 0.0
H387 H 0.6605 0.42767 0.9144 0.0
H388 H 0.73024 0.39104 0.9047 0.0
H389 H 0.70531 0.34366 0.89522 0.0
H390 H 0.74286 0.34603 0.9323 0.0
H391 H 0.67325 0.31049 0.06099 0.0
H392 H 0.63718 0.25097 0.03517 0.0
H393 H 0.64214 0.30411 0.92226 0.0
C394 C 0.71899 0.43728 0.97869 0.0
C395 C 0.73275 0.45498 0.01285 0.0
C396 C 0.7286 0.43316 0.04744 0.0
C397 C 0.7109 0.39446 0.04796 0.0
C398 C 0.69765 0.37802 0.01368 0.0
C399 C 0.70152 0.39883 0.97972 0.0
C400 C 0.68431 0.37508 0.94683 0.0
C401 C 0.64934 0.39916 0.92759 0.0
C402 C 0.71767 0.36325 0.91807 0.0
C403 C 0.66931 0.33793 0.96762 0.0
C404 C 0.67766 0.33982 0.00608 0.0
C405 C 0.6666 0.30873 0.03092 0.0
C406 C 0.64619 0.27505 0.01601 0.0
C407 C 0.63676 0.2731 0.97678 0.0
C408 C 0.64875 0.30488 0.95241 0.0
H409 H 0.47571 0.28119 0.05644 0.0
H410 H 0.46058 0.25879 0.93557 0.0
H411 H 0.39244 0.29125 0.93816 0.0
H412 H 0.37492 0.25948 0.08318 0.0
H413 H 0.37174 0.29883 0.11903 0.0
H414 H 0.42003 0.27538 0.1074 0.0
H415 H 0.44923 0.34666 0.09264 0.0
H416 H 0.40118 0.37037 0.1047 0.0
H417 H 0.42361 0.37976 0.05889 0.0
H418 H 0.32449 0.32427 0.95468 0.0
H419 H 0.26429 0.35879 0.9834 0.0
H420 H 0.32493 0.35861 0.09288 0.0
C421 C 0.45837 0.28348 0.03036 0.0
C422 C 0.47362 0.26742 0.99582 0.0
C423 C 0.44963 0.27085 0.96244 0.0
C424 C 0.41082 0.28917 0.96359 0.0
C425 C 0.39644 0.30389 0.99831 0.0
C426 C 0.41963 0.3015 0.031 0.0
C427 C 0.39708 0.31913 0.06483 0.0
C428 C 0.39056 0.28623 0.0954 0.0
C429 C 0.41909 0.35618 0.08121 0.0
C430 C 0.35761 0.33188 0.04607 0.0
C431 C 0.35762 0.32275 0.00774 0.0
C432 C 0.32418 0.33167 0.98467 0.0
C433 C 0.2901 0.35107 0.00121 0.0
C434 C 0.29002 0.36137 0.04029 0.0
C435 C 0.32409 0.35117 0.06289 0.0
H436 H 0.95219 0.57897 0.43098 0.0
H437 H 0.94804 0.60734 0.55162 0.0
H438 H 0.97826 0.53939 0.56609 0.0
H439 H 0.92783 0.47116 0.44099 0.0
H440 H 0.96104 0.45563 0.40271 0.0
H441 H 0.93732 0.50582 0.40228 0.0
H442 H 0.00793 0.5383 0.39609 0.0
H443 H 0.03187 0.48826 0.39695 0.0
H444 H 0.04643 0.52643 0.431 0.0
H445 H 0.01265 0.46965 0.5671 0.0
H446 H 0.04388 0.40147 0.55456 0.0
H447 H 0.02458 0.41971 0.43343 0.0
C448 C 0.95726 0.57083 0.46048 0.0
C449 C 0.9478 0.59855 0.49011 0.0
C450 C 0.95484 0.58657 0.52837 0.0
C451 C 0.97215 0.5481 0.53692 0.0
C452 C 0.98188 0.52188 0.50695 0.0
C453 C 0.97423 0.53255 0.46954 0.0
C454 C 0.98768 0.49896 0.44254 0.0
C455 C 0.9513 0.48188 0.42087 0.0
C456 C 0.02043 0.5139 0.41504 0.0
C457 C 0.00484 0.46809 0.47056 0.0
C458 C 0.00122 0.48174 0.50757 0.0
C459 C 0.01544 0.45848 0.53823 0.0
C460 C 0.03329 0.41991 0.53081 0.0
C461 C 0.03665 0.40513 0.49305 0.0
C462 C 0.02244 0.4299 0.46268 0.0
H463 H 0.59599 0.964 0.62224 0.0
H464 H 0.61338 0.03912 0.52199 0.0
H465 H 0.54462 0.02185 0.49978 0.0
H466 H 0.53271 0.88493 0.57795 0.0
H467 H 0.50177 0.88139 0.62 0.0
H468 H 0.55447 0.89393 0.62412 0.0
H469 H 0.53463 0.96013 0.66112 0.0
H470 H 0.48217 0.94758 0.65739 0.0
H471 H 0.49909 0.99626 0.64014 0.0
H472 H 0.47031 0.00273 0.49309 0.0
H473 H 0.39784 0.98879 0.5056 0.0
H474 H 0.43125 0.92822 0.6108 0.0
C475 C 0.58595 0.97627 0.59515 0.0
C476 C 0.61026 0.00284 0.57381 0.0
C477 C 0.59541 0.01852 0.53879 0.0
C478 C 0.55648 0.00868 0.52584 0.0
C479 C 0.53306 0.98291 0.54813 0.0
C480 C 0.54747 0.967 0.58208 0.0
C481 C 0.51536 0.94412 0.60331 0.0
C482 C 0.52677 0.89838 0.60651 0.0
C483 C 0.50734 0.96319 0.64278 0.0
C484 C 0.47992 0.95099 0.57686 0.0
C485 C 0.49068 0.97251 0.54464 0.0
C486 C 0.46178 0.9852 0.51782 0.0
C487 C 0.42082 0.977 0.52495 0.0
C488 C 0.40955 0.95705 0.55886 0.0
C489 C 0.43951 0.94284 0.58433 0.0
H490 H 0.51965 0.07156 0.94599 0.0
H491 H 0.52482 0.09176 0.068 0.0
H492 H 0.48726 0.02844 0.07853 0.0
H493 H 0.41914 0.02972 0.94337 0.0
H494 H 0.43199 0.99247 0.90729 0.0
H495 H 0.45804 0.04028 0.90901 0.0
H496 H 0.52711 0.00117 0.91299 0.0
H497 H 0.5013 0.95333 0.91079 0.0
H498 H 0.53515 0.96335 0.94973 0.0
H499 H 0.44993 0.96266 0.07599 0.0
H500 H 0.42129 0.89561 0.06089 0.0
H501 H 0.44098 0.91821 0.94057 0.0
C502 C 0.51287 0.06279 0.97495 0.0
C503 C 0.52518 0.08678 0.00614 0.0
C504 C 0.51588 0.07391 0.04359 0.0
C505 C 0.49428 0.03812 0.04989 0.0
C506 C 0.48222 0.01551 0.0185 0.0
C507 C 0.4915 0.02709 0.98179 0.0
C508 C 0.47662 0.99635 0.95311 0.0
C509 C 0.44454 0.01588 0.92664 0.0
C510 C 0.51216 0.97743 0.93033 0.0
C511 C 0.45805 0.96537 0.97951 0.0
C512 C 0.46111 0.97727 0.01706 0.0
C513 C 0.44722 0.95304 0.04668 0.0
C514 C 0.43087 0.91502 0.03776 0.0
C515 C 0.42887 0.90145 0.99952 0.0
C516 C 0.44181 0.9276 0.97009 0.0
H517 H 0.08317 0.45953 0.97036 0.0
H518 H 0.12095 0.52296 0.0726 0.0
H519 H 0.05447 0.55735 0.07663 0.0
H520 H 0.01795 0.54581 0.93243 0.0
H521 H 0.98027 0.51161 0.91472 0.0
H522 H 0.03274 0.49517 0.91657 0.0
H523 H 0.01309 0.4322 0.95675 0.0
H524 H 0.9607 0.44851 0.9552 0.0
H525 H 0.98524 0.43985 0.00037 0.0
H526 H 0.98311 0.57772 0.07562 0.0
H527 H 0.90942 0.58625 0.0672 0.0
H528 H 0.91568 0.51317 0.96428 0.0
C529 C 0.07771 0.4814 0.99301 0.0
C530 C 0.10736 0.48839 0.02116 0.0
C531 C 0.0988 0.5168 0.05074 0.0
C532 C 0.06112 0.53676 0.05325 0.0
C533 C 0.03226 0.52844 0.02578 0.0
C534 C 0.03998 0.50186 0.99595 0.0
C535 C 0.00228 0.49664 0.97186 0.0
C536 C 0.0087 0.51331 0.9315 0.0
C537 C 0.98959 0.45163 0.97102 0.0
C538 C 0.97205 0.52319 0.99379 0.0
C539 C 0.99033 0.54138 0.02462 0.0
C540 C 0.9685 0.56444 0.05116 0.0
C541 C 0.92671 0.56891 0.04627 0.0
C542 C 0.90721 0.55069 0.01494 0.0
C543 C 0.93019 0.52808 0.98798 0.0
loop_
_geom_bond_atom_site_label_1
_geom_bond_atom_site_label_2
_geom_bond_distance
_geom_bond_site_symmetry_2
_ccdc_geom_bond_type
Co0 O1 2.216 . S
Co0 O2 2.091 . S
Co0 O4 2.004 . S
Co0 O10 2.021 . S
Co0 O12 2.137 . S
Co0 O13 2.244 . S
O1 Co0 2.216 . S
O1 C8 1.247 . S
O2 Co0 2.091 . S
O2 C8 1.261 . S
C3 O12 1.247 . S
C3 O13 1.272 . S
O4 Co0 2.004 . S
O4 C9 1.259 . S
Co5 O6 2.061 . S
Co5 O11 2.052 . S
Co5 O13 2.135 . S
O6 Co5 2.061 . S
O6 C9 1.235 . S
C7 O10 1.238 . S
C7 O11 1.241 . S
C8 O1 1.247 . S
C8 O2 1.261 . S
C9 O4 1.259 . S
C9 O6 1.235 . S
O10 Co0 2.021 . S
O10 C7 1.238 . S
O11 Co5 2.052 . S
O11 C7 1.241 . S
O12 Co0 2.137 . S
O12 C3 1.247 . S
O13 Co0 2.244 . S
O13 C3 1.272 . S
O13 Co5 2.135 . S
Co14 O15 2.216 . S
Co14 O16 2.091 . S
Co14 O18 2.004 . S
Co14 O24 2.021 . S
Co14 O26 2.137 . S
Co14 O27 2.244 . S
O15 Co14 2.216 . S
O15 C22 1.247 . S
O16 Co14 2.091 . S
O16 C22 1.261 . S
C17 O26 1.247 . S
C17 O27 1.272 . S
O18 Co14 2.004 . S
O18 C23 1.259 . S
Co19 O20 2.061 . S
Co19 O25 2.052 1_565 S
Co19 O27 2.135 . S
O20 Co19 2.061 . S
O20 C23 1.235 . S
C21 O24 1.238 . S
C21 O25 1.241 1_565 S
C22 O15 1.247 . S
C22 O16 1.261 . S
C23 O18 1.259 . S
C23 O20 1.235 . S
O24 Co14 2.021 . S
O24 C21 1.238 . S
O25 Co19 2.052 1_545 S
O25 C21 1.241 1_545 S
O26 Co14 2.137 . S
O26 C17 1.247 . S
O27 Co14 2.244 . S
O27 C17 1.272 . S
O27 Co19 2.135 . S
Co28 O29 2.216 . S
Co28 O30 2.091 . S
Co28 O32 2.004 . S
Co28 O38 2.021 . S
Co28 O40 2.137 . S
Co28 O41 2.244 . S
O29 Co28 2.216 . S
O29 C36 1.247 . S
O30 Co28 2.091 . S
O30 C36 1.261 . S
C31 O40 1.247 . S
C31 O41 1.272 . S
O32 Co28 2.004 . S
O32 C37 1.259 . S
Co33 O34 2.061 . S
Co33 O39 2.052 . S
Co33 O41 2.135 . S
O34 Co33 2.061 . S
O34 C37 1.235 . S
C35 O38 1.238 . S
C35 O39 1.241 . S
C36 O29 1.247 . S
C36 O30 1.261 . S
C37 O32 1.259 . S
C37 O34 1.235 . S
O38 Co28 2.021 . S
O38 C35 1.238 . S
O39 Co33 2.052 . S
O39 C35 1.241 . S
O40 Co28 2.137 . S
O40 C31 1.247 . S
O41 Co28 2.244 . S
O41 C31 1.272 . S
O41 Co33 2.135 . S
Co42 O43 2.216 . S
Co42 O44 2.091 . S
Co42 O46 2.004 . S
Co42 O52 2.021 . S
Co42 O54 2.137 . S
Co42 O55 2.244 . S
O43 Co42 2.216 . S
O43 C50 1.247 . S
O44 Co42 2.091 . S
O44 C50 1.261 . S
C45 O54 1.247 . S
C45 O55 1.272 . S
O46 Co42 2.004 . S
O46 C51 1.259 . S
Co47 O48 2.061 . S
Co47 O53 2.052 1_545 S
Co47 O55 2.135 . S
O48 Co47 2.061 . S
O48 C51 1.235 . S
C49 O52 1.238 . S
C49 O53 1.241 1_545 S
C50 O43 1.247 . S
C50 O44 1.261 . S
C51 O46 1.259 . S
C51 O48 1.235 . S
O52 Co42 2.021 . S
O52 C49 1.238 . S
O53 Co47 2.052 1_565 S
O53 C49 1.241 1_565 S
O54 Co42 2.137 . S
O54 C45 1.247 . S
O55 Co42 2.244 . S
O55 C45 1.272 . S
O55 Co47 2.135 . S
Co56 O57 2.216 . S
Co56 O58 2.091 . S
Co56 O60 2.004 . S
Co56 O66 2.021 . S
Co56 O68 2.137 . S
Co56 O69 2.244 . S
O57 Co56 2.216 . S
O57 C64 1.247 . S
O58 Co56 2.091 . S
O58 C64 1.261 . S
C59 O68 1.247 . S
C59 O69 1.272 . S
O60 Co56 2.004 . S
O60 C65 1.259 . S
Co61 O62 2.061 . S
Co61 O67 2.052 . S
Co61 O69 2.135 1_554 S
O62 Co61 2.061 . S
O62 C65 1.235 1_554 S
C63 O66 1.238 . S
C63 O67 1.241 1_556 S
C64 O57 1.247 . S
C64 O58 1.261 . S
C65 O60 1.259 . S
C65 O62 1.235 1_556 S
O66 Co56 2.021 . S
O66 C63 1.238 . S
O67 Co61 2.052 . S
O67 C63 1.241 1_554 S
O68 Co56 2.137 . S
O68 C59 1.247 . S
O69 Co56 2.244 . S
O69 C59 1.272 . S
O69 Co61 2.135 1_556 S
Co70 O71 2.216 . S
Co70 O72 2.091 . S
Co70 O74 2.004 . S
Co70 O80 2.021 . S
Co70 O82 2.137 . S
Co70 O83 2.244 . S
O71 Co70 2.216 . S
O71 C78 1.247 . S
O72 Co70 2.091 . S
O72 C78 1.261 . S
C73 O82 1.247 . S
C73 O83 1.272 . S
O74 Co70 2.004 . S
O74 C79 1.259 . S
Co75 O76 2.061 . S
Co75 O81 2.052 . S
Co75 O83 2.135 1_556 S
O76 Co75 2.061 . S
O76 C79 1.235 1_556 S
C77 O80 1.238 . S
C77 O81 1.241 1_554 S
C78 O71 1.247 . S
C78 O72 1.261 . S
C79 O74 1.259 . S
C79 O76 1.235 1_554 S
O80 Co70 2.021 . S
O80 C77 1.238 . S
O81 Co75 2.052 . S
O81 C77 1.241 1_556 S
O82 Co70 2.137 . S
O82 C73 1.247 . S
O83 Co70 2.244 . S
O83 C73 1.272 . S
O83 Co75 2.135 1_554 S
Co84 O85 2.216 . S
Co84 O86 2.091 . S
Co84 O88 2.004 . S
Co84 O94 2.021 . S
Co84 O96 2.137 . S
Co84 O97 2.244 . S
O85 Co84 2.216 . S
O85 C92 1.247 . S
O86 Co84 2.091 . S
O86 C92 1.261 . S
C87 O96 1.247 . S
C87 O97 1.272 . S
O88 Co84 2.004 . S
O88 C93 1.259 . S
Co89 O90 2.061 . S
Co89 O95 2.052 . S
Co89 O97 2.135 1_554 S
O90 Co89 2.061 . S
O90 C93 1.235 1_554 S
C91 O94 1.238 . S
C91 O95 1.241 1_556 S
C92 O85 1.247 . S
C92 O86 1.261 . S
C93 O88 1.259 . S
C93 O90 1.235 1_556 S
O94 Co84 2.021 . S
O94 C91 1.238 . S
O95 Co89 2.052 . S
O95 C91 1.241 1_554 S
O96 Co84 2.137 . S
O96 C87 1.247 . S
O97 Co84 2.244 . S
O97 C87 1.272 . S
O97 Co89 2.135 1_556 S
Co98 O99 2.216 . S
Co98 O100 2.091 . S
Co98 O102 2.004 . S
Co98 O108 2.021 . S
Co98 O110 2.137 . S
Co98 O111 2.244 . S
O99 Co98 2.216 . S
O99 C106 1.247 . S
O100 Co98 2.091 . S
O100 C106 1.261 . S
C101 O110 1.247 . S
C101 O111 1.272 . S
O102 Co98 2.004 . S
O102 C107 1.259 . S
Co103 O104 2.061 . S
Co103 O109 2.052 . S
Co103 O111 2.135 1_556 S
O104 Co103 2.061 . S
O104 C107 1.235 1_556 S
C105 O108 1.238 . S
C105 O109 1.241 1_554 S
C106 O99 1.247 . S
C106 O100 1.261 . S
C107 O102 1.259 . S
C107 O104 1.235 1_554 S
O108 Co98 2.021 . S
O108 C105 1.238 . S
O109 Co103 2.052 . S
O109 C105 1.241 1_556 S
O110 Co98 2.137 . S
O110 C101 1.247 . S
O111 Co98 2.244 . S
O111 C101 1.272 . S
O111 Co103 2.135 1_554 S
H112 C124 0.930 . S
H113 C126 0.930 . S
H114 C127 0.930 . S
H115 C131 0.959 . S
H116 C131 0.959 . S
H117 C131 0.961 . S
H118 C132 0.960 . S
H119 C132 0.961 . S
H120 C132 0.959 . S
H121 C135 0.929 . S
H122 C136 0.931 . S
H123 C138 0.930 . S
C124 H112 0.930 . S
C124 C125 1.399 . S
C124 C129 1.399 . S
C125 C124 1.399 . S
C125 C126 1.376 . S
C126 H113 0.930 . S
C126 C125 1.376 . S
C126 C127 1.388 . S
C127 H114 0.930 . S
C127 C126 1.388 . S
C127 C128 1.390 . S
C128 C127 1.390 . S
C128 C129 1.394 . S
C128 C134 1.465 . S
C129 C124 1.399 . S
C129 C128 1.394 . S
C129 C130 1.516 . S
C130 C129 1.516 . S
C130 C131 1.502 . S
C130 C132 1.561 . S
C130 C133 1.526 . S
C131 H115 0.959 . S
C131 H116 0.959 . S
C131 H117 0.961 . S
C131 C130 1.502 . S
C132 H118 0.960 . S
C132 H119 0.961 . S
C132 H120 0.959 . S
C132 C130 1.561 . S
C133 C130 1.526 . S
C133 C134 1.396 . S
C133 C138 1.390 . S
C134 C128 1.465 . S
C134 C133 1.396 . S
C134 C135 1.399 . S
C135 H121 0.929 . S
C135 C134 1.399 . S
C135 C136 1.385 . S
C136 H122 0.931 . S
C136 C135 1.385 . S
C136 C137 1.389 . S
C137 C136 1.389 . S
C137 C138 1.387 . S
C138 H123 0.930 . S
C138 C133 1.390 . S
C138 C137 1.387 . S
H139 C151 0.930 . S
H140 C153 0.930 . S
H141 C154 0.930 . S
H142 C158 0.959 . S
H143 C158 0.959 . S
H144 C158 0.961 . S
H145 C159 0.960 . S
H146 C159 0.961 . S
H147 C159 0.959 . S
H148 C162 0.929 . S
H149 C163 0.931 . S
H150 C165 0.930 . S
C151 H139 0.930 . S
C151 C152 1.399 . S
C151 C156 1.399 . S
C152 C151 1.399 . S
C152 C153 1.376 . S
C153 H140 0.930 . S
C153 C152 1.376 . S
C153 C154 1.388 . S
C154 H141 0.930 . S
C154 C153 1.388 . S
C154 C155 1.390 . S
C155 C154 1.390 . S
C155 C156 1.394 . S
C155 C161 1.465 . S
C156 C151 1.399 . S
C156 C155 1.394 . S
C156 C157 1.516 . S
C157 C156 1.516 . S
C157 C158 1.502 . S
C157 C159 1.561 . S
C157 C160 1.526 . S
C158 H142 0.959 . S
C158 H143 0.959 . S
C158 H144 0.961 . S
C158 C157 1.502 . S
C159 H145 0.960 . S
C159 H146 0.961 . S
C159 H147 0.959 . S
C159 C157 1.561 . S
C160 C157 1.526 . S
C160 C161 1.396 . S
C160 C165 1.390 . S
C161 C155 1.465 . S
C161 C160 1.396 . S
C161 C162 1.399 . S
C162 H148 0.929 . S
C162 C161 1.399 . S
C162 C163 1.385 . S
C163 H149 0.931 . S
C163 C162 1.385 . S
C163 C164 1.389 . S
C164 C163 1.389 . S
C164 C165 1.387 . S
C165 H150 0.930 . S
C165 C160 1.390 . S
C165 C164 1.387 . S
H166 C178 0.930 . S
H167 C180 0.930 . S
H168 C181 0.930 . S
H169 C185 0.959 . S
H170 C185 0.959 . S
H171 C185 0.961 . S
H172 C186 0.960 . S
H173 C186 0.961 . S
H174 C186 0.959 . S
H175 C189 0.929 . S
H176 C190 0.931 . S
H177 C192 0.930 . S
C178 H166 0.930 . S
C178 C179 1.399 . S
C178 C183 1.399 . S
C179 C178 1.399 . S
C179 C180 1.376 . S
C180 H167 0.930 . S
C180 C179 1.376 . S
C180 C181 1.388 . S
C181 H168 0.930 . S
C181 C180 1.388 . S
C181 C182 1.390 . S
C182 C181 1.390 . S
C182 C183 1.394 . S
C182 C188 1.465 . S
C183 C178 1.399 . S
C183 C182 1.394 . S
C183 C184 1.516 . S
C184 C183 1.516 . S
C184 C185 1.502 . S
C184 C186 1.561 . S
C184 C187 1.526 . S
C185 H169 0.959 . S
C185 H170 0.959 . S
C185 H171 0.961 . S
C185 C184 1.502 . S
C186 H172 0.960 . S
C186 H173 0.961 . S
C186 H174 0.959 . S
C186 C184 1.561 . S
C187 C184 1.526 . S
C187 C188 1.396 . S
C187 C192 1.390 . S
C188 C182 1.465 . S
C188 C187 1.396 . S
C188 C189 1.399 . S
C189 H175 0.929 . S
C189 C188 1.399 . S
C189 C190 1.385 . S
C190 H176 0.931 . S
C190 C189 1.385 . S
C190 C191 1.389 . S
C191 C190 1.389 . S
C191 C192 1.387 . S
C192 H177 0.930 . S
C192 C187 1.390 . S
C192 C191 1.387 . S
H193 C205 0.930 . S
H194 C207 0.930 . S
H195 C208 0.930 . S
H196 C212 0.959 . S
H197 C212 0.959 . S
H198 C212 0.961 . S
H199 C213 0.960 . S
H200 C213 0.961 . S
H201 C213 0.959 . S
H202 C216 0.929 . S
H203 C217 0.931 . S
H204 C219 0.930 . S
C205 H193 0.930 . S
C205 C206 1.399 . S
C205 C210 1.399 . S
C206 C205 1.399 . S
C206 C207 1.376 . S
C207 H194 0.930 . S
C207 C206 1.376 . S
C207 C208 1.388 . S
C208 H195 0.930 . S
C208 C207 1.388 . S
C208 C209 1.390 . S
C209 C208 1.390 . S
C209 C210 1.394 . S
C209 C215 1.465 . S
C210 C205 1.399 . S
C210 C209 1.394 . S
C210 C211 1.516 . S
C211 C210 1.516 . S
C211 C212 1.502 . S
C211 C213 1.561 . S
C211 C214 1.526 . S
C212 H196 0.959 . S
C212 H197 0.959 . S
C212 H198 0.961 . S
C212 C211 1.502 . S
C213 H199 0.960 . S
C213 H200 0.961 . S
C213 H201 0.959 . S
C213 C211 1.561 . S
C214 C211 1.526 . S
C214 C215 1.396 . S
C214 C219 1.390 . S
C215 C209 1.465 . S
C215 C214 1.396 . S
C215 C216 1.399 . S
C216 H202 0.929 . S
C216 C215 1.399 . S
C216 C217 1.385 . S
C217 H203 0.931 . S
C217 C216 1.385 . S
C217 C218 1.389 . S
C218 C217 1.389 . S
C218 C219 1.387 . S
C219 H204 0.930 . S
C219 C214 1.390 . S
C219 C218 1.387 . S
H220 C232 0.930 . S
H221 C234 0.930 . S
H222 C235 0.930 . S
H223 C239 0.959 . S
H224 C239 0.959 . S
H225 C239 0.961 . S
H226 C240 0.960 . S
H227 C240 0.961 . S
H228 C240 0.959 . S
H229 C243 0.929 . S
H230 C244 0.931 . S
H231 C246 0.930 . S
C232 H220 0.930 . S
C232 C233 1.399 . S
C232 C237 1.399 . S
C233 C232 1.399 . S
C233 C234 1.376 . S
C234 H221 0.930 . S
C234 C233 1.376 . S
C234 C235 1.388 . S
C235 H222 0.930 . S
C235 C234 1.388 . S
C235 C236 1.390 . S
C236 C235 1.390 . S
C236 C237 1.394 . S
C236 C242 1.465 . S
C237 C232 1.399 . S
C237 C236 1.394 . S
C237 C238 1.516 . S
C238 C237 1.516 . S
C238 C239 1.502 . S
C238 C240 1.561 . S
C238 C241 1.526 . S
C239 H223 0.959 . S
C239 H224 0.959 . S
C239 H225 0.961 . S
C239 C238 1.502 . S
C240 H226 0.960 . S
C240 H227 0.961 . S
C240 H228 0.959 . S
C240 C238 1.561 . S
C241 C238 1.526 . S
C241 C242 1.396 . S
C241 C246 1.390 . S
C242 C236 1.465 . S
C242 C241 1.396 . S
C242 C243 1.399 . S
C243 H229 0.929 . S
C243 C242 1.399 . S
C243 C244 1.385 . S
C244 H230 0.931 . S
C244 C243 1.385 . S
C244 C245 1.389 . S
C245 C244 1.389 . S
C245 C246 1.387 . S
C246 H231 0.930 . S
C246 C241 1.390 . S
C246 C245 1.387 . S
H247 C259 0.930 . S
H248 C261 0.930 . S
H249 C262 0.930 . S
H250 C266 0.959 . S
H251 C266 0.959 . S
H252 C266 0.961 . S
H253 C267 0.960 . S
H254 C267 0.961 . S
H255 C267 0.959 . S
H256 C270 0.929 . S
H257 C271 0.931 . S
H258 C273 0.930 . S
C259 H247 0.930 . S
C259 C260 1.399 . S
C259 C264 1.399 . S
C260 C259 1.399 . S
C260 C261 1.376 . S
C261 H248 0.930 . S
C261 C260 1.376 . S
C261 C262 1.388 . S
C262 H249 0.930 . S
C262 C261 1.388 . S
C262 C263 1.390 . S
C263 C262 1.390 . S
C263 C264 1.394 . S
C263 C269 1.465 . S
C264 C259 1.399 . S
C264 C263 1.394 . S
C264 C265 1.516 . S
C265 C264 1.516 . S
C265 C266 1.502 . S
C265 C267 1.561 . S
C265 C268 1.526 . S
C266 H250 0.959 . S
C266 H251 0.959 . S
C266 H252 0.961 . S
C266 C265 1.502 . S
C267 H253 0.960 . S
C267 H254 0.961 . S
C267 H255 0.959 . S
C267 C265 1.561 . S
C268 C265 1.526 . S
C268 C269 1.396 . S
C268 C273 1.390 . S
C269 C263 1.465 . S
C269 C268 1.396 . S
C269 C270 1.399 . S
C270 H256 0.929 . S
C270 C269 1.399 . S
C270 C271 1.385 . S
C271 H257 0.931 . S
C271 C270 1.385 . S
C271 C272 1.389 . S
C272 C271 1.389 . S
C272 C273 1.387 . S
C273 H258 0.930 . S
C273 C268 1.390 . S
C273 C272 1.387 . S
H274 C286 0.930 . S
H275 C288 0.930 . S
H276 C289 0.930 . S
H277 C293 0.959 . S
H278 C293 0.959 . S
H279 C293 0.961 . S
H280 C294 0.960 . S
H281 C294 0.961 . S
H282 C294 0.959 . S
H283 C297 0.929 . S
H284 C298 0.931 . S
H285 C300 0.930 . S
C286 H274 0.930 . S
C286 C287 1.399 . S
C286 C291 1.399 . S
C287 C286 1.399 . S
C287 C288 1.376 . S
C288 H275 0.930 . S
C288 C287 1.376 . S
C288 C289 1.388 . S
C289 H276 0.930 . S
C289 C288 1.388 . S
C289 C290 1.390 . S
C290 C289 1.390 . S
C290 C291 1.394 . S
C290 C296 1.465 . S
C291 C286 1.399 . S
C291 C290 1.394 . S
C291 C292 1.516 . S
C292 C291 1.516 . S
C292 C293 1.502 . S
C292 C294 1.561 . S
C292 C295 1.526 . S
C293 H277 0.959 . S
C293 H278 0.959 . S
C293 H279 0.961 . S
C293 C292 1.502 . S
C294 H280 0.960 . S
C294 H281 0.961 . S
C294 H282 0.959 . S
C294 C292 1.561 . S
C295 C292 1.526 . S
C295 C296 1.396 . S
C295 C300 1.390 . S
C296 C290 1.465 . S
C296 C295 1.396 . S
C296 C297 1.399 . S
C297 H283 0.929 . S
C297 C296 1.399 . S
C297 C298 1.385 . S
C298 H284 0.931 . S
C298 C297 1.385 . S
C298 C299 1.389 . S
C299 C298 1.389 . S
C299 C300 1.387 . S
C300 H285 0.930 . S
C300 C295 1.390 . S
C300 C299 1.387 . S
H301 C313 0.930 . S
H302 C315 0.930 . S
H303 C316 0.930 . S
H304 C320 0.959 . S
H305 C320 0.959 . S
H306 C320 0.961 . S
H307 C321 0.960 . S
H308 C321 0.961 . S
H309 C321 0.959 . S
H310 C324 0.929 . S
H311 C325 0.931 . S
H312 C327 0.930 . S
C313 H301 0.930 . S
C313 C314 1.399 . S
C313 C318 1.399 . S
C314 C313 1.399 . S
C314 C315 1.376 . S
C315 H302 0.930 . S
C315 C314 1.376 . S
C315 C316 1.388 . S
C316 H303 0.930 . S
C316 C315 1.388 . S
C316 C317 1.390 . S
C317 C316 1.390 . S
C317 C318 1.394 . S
C317 C323 1.465 . S
C318 C313 1.399 . S
C318 C317 1.394 . S
C318 C319 1.516 . S
C319 C318 1.516 . S
C319 C320 1.502 . S
C319 C321 1.561 . S
C319 C322 1.526 . S
C320 H304 0.959 . S
C320 H305 0.959 . S
C320 H306 0.961 . S
C320 C319 1.502 . S
C321 H307 0.960 . S
C321 H308 0.961 . S
C321 H309 0.959 . S
C321 C319 1.561 . S
C322 C319 1.526 . S
C322 C323 1.396 . S
C322 C327 1.390 . S
C323 C317 1.465 . S
C323 C322 1.396 . S
C323 C324 1.399 . S
C324 H310 0.929 . S
C324 C323 1.399 . S
C324 C325 1.385 . S
C325 H311 0.931 . S
C325 C324 1.385 . S
C325 C326 1.389 . S
C326 C325 1.389 . S
C326 C327 1.387 . S
C327 H312 0.930 . S
C327 C322 1.390 . S
C327 C326 1.387 . S
H328 C340 0.930 . S
H329 C342 0.930 . S
H330 C343 0.930 . S
H331 C347 0.959 . S
H332 C347 0.959 . S
H333 C347 0.961 . S
H334 C348 0.960 . S
H335 C348 0.961 . S
H336 C348 0.959 . S
H337 C351 0.929 . S
H338 C352 0.931 . S
H339 C354 0.930 . S
C340 H328 0.930 . S
C340 C341 1.399 . S
C340 C345 1.399 . S
C341 C340 1.399 . S
C341 C342 1.376 1_554 S
C342 H329 0.930 . S
C342 C341 1.376 1_556 S
C342 C343 1.388 . S
C343 H330 0.930 . S
C343 C342 1.388 . S
C343 C344 1.390 . S
C344 C343 1.390 . S
C344 C345 1.394 1_556 S
C344 C350 1.465 . S
C345 C340 1.399 . S
C345 C344 1.394 1_554 S
C345 C346 1.516 . S
C346 C345 1.516 . S
C346 C347 1.502 . S
C346 C348 1.561 . S
C346 C349 1.526 . S
C347 H331 0.959 . S
C347 H332 0.959 . S
C347 H333 0.961 . S
C347 C346 1.502 . S
C348 H334 0.960 . S
C348 H335 0.961 . S
C348 H336 0.959 . S
C348 C346 1.561 . S
C349 C346 1.526 . S
C349 C350 1.396 1_554 S
C349 C354 1.390 . S
C350 C344 1.465 . S
C350 C349 1.396 1_556 S
C350 C351 1.399 . S
C351 H337 0.929 . S
C351 C350 1.399 . S
C351 C352 1.385 . S
C352 H338 0.931 . S
C352 C351 1.385 . S
C352 C353 1.389 . S
C353 C352 1.389 . S
C353 C354 1.387 1_556 S
C354 H339 0.930 . S
C354 C349 1.390 . S
C354 C353 1.387 1_554 S
H355 C367 0.930 . S
H356 C369 0.930 . S
H357 C370 0.930 . S
H358 C374 0.959 . S
H359 C374 0.959 . S
H360 C374 0.961 . S
H361 C375 0.960 . S
H362 C375 0.961 . S
H363 C375 0.959 . S
H364 C378 0.929 . S
H365 C379 0.931 . S
H366 C381 0.930 . S
C367 H355 0.930 . S
C367 C368 1.399 . S
C367 C372 1.399 . S
C368 C367 1.399 . S
C368 C369 1.376 1_554 S
C369 H356 0.930 . S
C369 C368 1.376 1_556 S
C369 C370 1.388 . S
C370 H357 0.930 . S
C370 C369 1.388 . S
C370 C371 1.390 . S
C371 C370 1.390 . S
C371 C372 1.394 1_556 S
C371 C377 1.465 . S
C372 C367 1.399 . S
C372 C371 1.394 1_554 S
C372 C373 1.516 . S
C373 C372 1.516 . S
C373 C374 1.502 . S
C373 C375 1.561 . S
C373 C376 1.526 . S
C374 H358 0.959 . S
C374 H359 0.959 . S
C374 H360 0.961 . S
C374 C373 1.502 . S
C375 H361 0.960 . S
C375 H362 0.961 . S
C375 H363 0.959 . S
C375 C373 1.561 . S
C376 C373 1.526 . S
C376 C377 1.396 1_554 S
C376 C381 1.390 . S
C377 C371 1.465 . S
C377 C376 1.396 1_556 S
C377 C378 1.399 . S
C378 H364 0.929 . S
C378 C377 1.399 . S
C378 C379 1.385 . S
C379 H365 0.931 . S
C379 C378 1.385 . S
C379 C380 1.389 . S
C380 C379 1.389 . S
C380 C381 1.387 1_556 S
C381 H366 0.930 . S
C381 C376 1.390 . S
C381 C380 1.387 1_554 S
H382 C394 0.930 1_556 S
H383 C396 0.930 . S
H384 C397 0.930 . S
H385 C401 0.959 . S
H386 C401 0.959 . S
H387 C401 0.961 . S
H388 C402 0.960 . S
H389 C402 0.961 . S
H390 C402 0.959 . S
H391 C405 0.929 . S
H392 C406 0.931 . S
H393 C408 0.930 . S
C394 H382 0.930 1_554 S
C394 C395 1.399 . S
C394 C399 1.399 . S
C395 C394 1.399 . S
C395 C396 1.376 . S
C396 H383 0.930 . S
C396 C395 1.376 . S
C396 C397 1.388 . S
C397 H384 0.930 . S
C397 C396 1.388 . S
C397 C398 1.390 . S
C398 C397 1.390 . S
C398 C399 1.394 . S
C398 C404 1.465 . S
C399 C394 1.399 . S
C399 C398 1.394 . S
C399 C400 1.516 1_554 S
C400 C399 1.516 1_556 S
C400 C401 1.502 . S
C400 C402 1.561 1_556 S
C400 C403 1.526 . S
C401 H385 0.959 . S
C401 H386 0.959 . S
C401 H387 0.961 . S
C401 C400 1.502 . S
C402 H388 0.960 . S
C402 H389 0.961 . S
C402 H390 0.959 . S
C402 C400 1.561 1_554 S
C403 C400 1.526 . S
C403 C404 1.396 1_556 S
C403 C408 1.390 . S
C404 C398 1.465 . S
C404 C403 1.396 1_554 S
C404 C405 1.399 . S
C405 H391 0.929 . S
C405 C404 1.399 . S
C405 C406 1.385 . S
C406 H392 0.931 . S
C406 C405 1.385 . S
C406 C407 1.389 1_554 S
C407 C406 1.389 1_556 S
C407 C408 1.387 . S
C408 H393 0.930 . S
C408 C403 1.390 . S
C408 C407 1.387 . S
H409 C421 0.930 . S
H410 C423 0.930 . S
H411 C424 0.930 . S
H412 C428 0.959 . S
H413 C428 0.959 . S
H414 C428 0.961 . S
H415 C429 0.960 . S
H416 C429 0.961 . S
H417 C429 0.959 . S
H418 C432 0.929 . S
H419 C433 0.931 . S
H420 C435 0.930 . S
C421 H409 0.930 . S
C421 C422 1.399 1_554 S
C421 C426 1.399 . S
C422 C421 1.399 1_556 S
C422 C423 1.376 . S
C423 H410 0.930 . S
C423 C422 1.376 . S
C423 C424 1.388 . S
C424 H411 0.930 . S
C424 C423 1.388 . S
C424 C425 1.390 . S
C425 C424 1.390 . S
C425 C426 1.394 1_556 S
C425 C431 1.465 . S
C426 C421 1.399 . S
C426 C425 1.394 1_554 S
C426 C427 1.516 . S
C427 C426 1.516 . S
C427 C428 1.502 . S
C427 C429 1.561 . S
C427 C430 1.526 . S
C428 H412 0.959 . S
C428 H413 0.959 . S
C428 H414 0.961 . S
C428 C427 1.502 . S
C429 H415 0.960 . S
C429 H416 0.961 . S
C429 H417 0.959 . S
C429 C427 1.561 . S
C430 C427 1.526 . S
C430 C431 1.396 1_554 S
C430 C435 1.390 . S
C431 C425 1.465 . S
C431 C430 1.396 1_556 S
C431 C432 1.399 . S
C432 H418 0.929 . S
C432 C431 1.399 . S
C432 C433 1.385 . S
C433 H419 0.931 . S
C433 C432 1.385 . S
C433 C434 1.389 1_556 S
C434 C433 1.389 1_554 S
C434 C435 1.387 . S
C435 H420 0.930 . S
C435 C430 1.390 . S
C435 C434 1.387 . S
H436 C448 0.930 . S
H437 C450 0.930 . S
H438 C451 0.930 . S
H439 C455 0.959 . S
H440 C455 0.959 . S
H441 C455 0.961 . S
H442 C456 0.960 . S
H443 C456 0.961 . S
H444 C456 0.959 . S
H445 C459 0.929 . S
H446 C460 0.931 . S
H447 C462 0.930 . S
C448 H436 0.930 . S
C448 C449 1.399 . S
C448 C453 1.399 . S
C449 C448 1.399 . S
C449 C450 1.376 . S
C450 H437 0.930 . S
C450 C449 1.376 . S
C450 C451 1.388 1_655 S
C451 H438 0.930 . S
C451 C450 1.388 1_455 S
C451 C452 1.390 . S
C452 C451 1.390 . S
C452 C453 1.394 1_455 S
C452 C458 1.465 . S
C453 C448 1.399 . S
C453 C452 1.394 1_655 S
C453 C454 1.516 . S
C454 C453 1.516 . S
C454 C455 1.502 . S
C454 C456 1.561 . S
C454 C457 1.526 1_655 S
C455 H439 0.959 . S
C455 H440 0.959 . S
C455 H441 0.961 . S
C455 C454 1.502 . S
C456 H442 0.960 . S
C456 H443 0.961 . S
C456 H444 0.959 . S
C456 C454 1.561 . S
C457 C454 1.526 1_455 S
C457 C458 1.396 . S
C457 C462 1.390 . S
C458 C452 1.465 . S
C458 C457 1.396 . S
C458 C459 1.399 . S
C459 H445 0.929 . S
C459 C458 1.399 . S
C459 C460 1.385 . S
C460 H446 0.931 . S
C460 C459 1.385 . S
C460 C461 1.389 . S
C461 C460 1.389 . S
C461 C462 1.387 . S
C462 H447 0.930 . S
C462 C457 1.390 . S
C462 C461 1.387 . S
H463 C475 0.930 . S
H464 C477 0.930 . S
H465 C478 0.930 . S
H466 C482 0.959 . S
H467 C482 0.959 . S
H468 C482 0.961 . S
H469 C483 0.960 . S
H470 C483 0.961 . S
H471 C483 0.959 . S
H472 C486 0.929 1_545 S
H473 C487 0.931 . S
H474 C489 0.930 . S
C475 H463 0.930 . S
C475 C476 1.399 . S
C475 C480 1.399 . S
C476 C475 1.399 . S
C476 C477 1.376 . S
C477 H464 0.930 . S
C477 C476 1.376 . S
C477 C478 1.388 . S
C478 H465 0.930 . S
C478 C477 1.388 . S
C478 C479 1.390 . S
C479 C478 1.390 . S
C479 C480 1.394 . S
C479 C485 1.466 1_545 S
C480 C475 1.399 . S
C480 C479 1.394 . S
C480 C481 1.516 1_545 S
C481 C480 1.516 1_565 S
C481 C482 1.502 . S
C481 C483 1.561 1_565 S
C481 C484 1.526 . S
C482 H466 0.959 . S
C482 H467 0.959 . S
C482 H468 0.961 . S
C482 C481 1.502 . S
C483 H469 0.960 . S
C483 H470 0.961 . S
C483 H471 0.959 . S
C483 C481 1.561 1_545 S
C484 C481 1.526 . S
C484 C485 1.396 . S
C484 C489 1.390 . S
C485 C479 1.466 1_565 S
C485 C484 1.396 . S
C485 C486 1.399 . S
C486 H472 0.929 1_565 S
C486 C485 1.399 . S
C486 C487 1.385 . S
C487 H473 0.931 . S
C487 C486 1.385 . S
C487 C488 1.389 . S
C488 C487 1.389 . S
C488 C489 1.387 . S
C489 H474 0.930 . S
C489 C484 1.390 . S
C489 C488 1.387 . S
H490 C502 0.930 . S
H491 C504 0.930 . S
H492 C505 0.930 . S
H493 C509 0.959 . S
H494 C509 0.959 1_565 S
H495 C509 0.961 . S
H496 C510 0.960 . S
H497 C510 0.961 . S
H498 C510 0.959 . S
H499 C513 0.929 . S
H500 C514 0.931 . S
H501 C516 0.930 . S
C502 H490 0.930 . S
C502 C503 1.399 . S
C502 C507 1.399 . S
C503 C502 1.399 . S
C503 C504 1.376 1_556 S
C504 H491 0.930 . S
C504 C503 1.376 1_554 S
C504 C505 1.388 . S
C505 H492 0.930 . S
C505 C504 1.388 . S
C505 C506 1.399 . S
C506 C505 1.399 . S
C506 C507 1.383 1_554 S
C506 C512 1.465 1_545 S
C507 C502 1.399 . S
C507 C506 1.383 1_556 S
C507 C508 1.516 1_545 S
C508 C507 1.516 1_565 S
C508 C509 1.502 1_565 S
C508 C510 1.561 . S
C508 C511 1.526 . S
C509 H493 0.959 . S
C509 H494 0.959 1_545 S
C509 H495 0.961 . S
C509 C508 1.502 1_545 S
C510 H496 0.960 . S
C510 H497 0.961 . S
C510 H498 0.959 . S
C510 C508 1.561 . S
C511 C508 1.526 . S
C511 C512 1.378 1_556 S
C511 C516 1.390 . S
C512 C506 1.465 1_565 S
C512 C511 1.378 1_554 S
C512 C513 1.413 . S
C513 H499 0.929 . S
C513 C512 1.413 . S
C513 C514 1.385 . S
C514 H500 0.931 . S
C514 C513 1.385 . S
C514 C515 1.389 1_554 S
C515 C514 1.389 1_556 S
C515 C516 1.387 . S
C516 H501 0.930 . S
C516 C511 1.390 . S
C516 C515 1.387 . S
H517 C529 0.930 . S
H518 C531 0.930 . S
H519 C532 0.930 . S
H520 C536 0.959 . S
H521 C536 0.959 1_655 S
H522 C536 0.961 . S
H523 C537 0.949 1_455 S
H524 C537 0.961 . S
H525 C537 0.959 . S
H526 C540 0.929 . S
H527 C541 0.931 . S
H528 C543 0.930 . S
C529 H517 0.930 . S
C529 C530 1.399 1_556 S
C529 C534 1.399 1_556 S
C530 C529 1.399 1_554 S
C530 C531 1.376 . S
C531 H518 0.930 . S
C531 C530 1.376 . S
C531 C532 1.388 . S
C532 H519 0.930 . S
C532 C531 1.388 . S
C532 C533 1.390 . S
C533 C532 1.390 . S
C533 C534 1.394 . S
C533 C539 1.465 1_455 S
C534 C529 1.399 1_554 S
C534 C533 1.394 . S
C534 C535 1.516 1_454 S
C535 C534 1.516 1_656 S
C535 C536 1.502 1_655 S
C535 C537 1.561 . S
C535 C538 1.526 1_556 S
C536 H520 0.959 . S
C536 H521 0.959 1_455 S
C536 H522 0.961 . S
C536 C535 1.502 1_455 S
C537 H523 0.949 1_655 S
C537 H524 0.961 . S
C537 H525 0.959 . S
C537 C535 1.561 . S
C538 C535 1.526 1_554 S
C538 C539 1.396 . S
C538 C543 1.390 1_554 S
C539 C533 1.465 1_655 S
C539 C538 1.396 . S
C539 C540 1.399 . S
C540 H526 0.929 . S
C540 C539 1.399 . S
C540 C541 1.385 . S
C541 H527 0.931 . S
C541 C540 1.385 . S
C541 C542 1.389 . S
C542 C541 1.389 . S
C542 C543 1.387 1_554 S
C543 H528 0.930 . S
C543 C538 1.390 1_556 S
C543 C542 1.387 1_556 S
C125 C106 1.555 . S
C137 C8 1.538 . S
C152 C17 1.541 . S
C164 C64 1.539 . S
C179 C36 1.555 . S
C191 C78 1.562 . S
C206 C92 1.523 . S
C218 C45 1.535 . S
C233 C21 1.386 1_545 S
C245 C3 1.369 . S
C260 C22 1.422 . S
C272 C37 1.449 1_455 S
C287 C49 1.389 1_565 S
C299 C31 1.366 . S
C314 C50 1.420 . S
C326 C9 1.448 1_655 S
C341 C107 1.490 . S
C353 C59 1.412 . S
C368 C73 1.468 . S
C380 C65 1.481 . S
C395 C79 1.499 . S
C407 C87 1.439 . S
C422 C93 1.479 . S
C434 C101 1.445 . S
C449 C35 1.030 . S
C461 C7 1.099 . S
C476 C51 1.075 . S
C488 C23 1.040 . S
C503 C91 1.092 . S
C515 C63 1.071 . S
C530 C105 1.131 . S
C542 C77 1.121 . S
