# Generated by pormake.
# Topology unp, (4)-cn, num edge types: 1
# Building blocks:
#     Node 0, Type 0, BuildingBlock: CEKHIL_clean_sbu_0, # of connection points: 4
#     Node 1, Type 0, BuildingBlock: CEKHIL_clean_sbu_0, # of connection points: 4
#     Node 2, Type 0, BuildingBlock: CEKHIL_clean_sbu_0, # of connection points: 4
#     Node 3, Type 0, BuildingBlock: CEKHIL_clean_sbu_0, # of connection points: 4
#     Node 4, Type 0, BuildingBlock: CEKHIL_clean_sbu_0, # of connection points: 4
#     Node 5, Type 0, BuildingBlock: CEKHIL_clean_sbu_0, # of connection points: 4
#     Node 6, Type 0, BuildingBlock: CEKHIL_clean_sbu_0, # of connection points: 4
#     Node 7, Type 0, BuildingBlock: CEKHIL_clean_sbu_0, # of connection points: 4
#     Node 8, Type 0, BuildingBlock: CEKHIL_clean_sbu_0, # of connection points: 4
#     Node 9, Type 0, BuildingBlock: CEKHIL_clean_sbu_0, # of connection points: 4
#     Node 10, Type 0, BuildingBlock: CEKHIL_clean_sbu_0, # of connection points: 4
#     Node 11, Type 0, BuildingBlock: CEKHIL_clean_sbu_0, # of connection points: 4
#     Node 12, Type 0, BuildingBlock: CEKHIL_clean_sbu_0, # of connection points: 4
#     Node 13, Type 0, BuildingBlock: CEKHIL_clean_sbu_0, # of connection points: 4
#     Node 14, Type 0, BuildingBlock: CEKHIL_clean_sbu_0, # of connection points: 4
#     Node 15, Type 0, BuildingBlock: CEKHIL_clean_sbu_0, # of connection points: 4
#     Node 16, Type 0, BuildingBlock: CEKHIL_clean_sbu_0, # of connection points: 4
#     Node 17, Type 0, BuildingBlock: CEKHIL_clean_sbu_0, # of connection points: 4
#     Edge 18, Type (0, 0), BuildingBlock: OJICUG_clean_linker_0, # of connection points: 2
#     Edge 19, Type (0, 0), BuildingBlock: OJICUG_clean_linker_0, # of connection points: 2
#     Edge 20, Type (0, 0), BuildingBlock: OJICUG_clean_linker_0, # of connection points: 2
#     Edge 21, Type (0, 0), BuildingBlock: OJICUG_clean_linker_0, # of connection points: 2
#     Edge 22, Type (0, 0), BuildingBlock: OJICUG_clean_linker_0, # of connection points: 2
#     Edge 23, Type (0, 0), BuildingBlock: OJICUG_clean_linker_0, # of connection points: 2
#     Edge 24, Type (0, 0), BuildingBlock: OJICUG_clean_linker_0, # of connection points: 2
#     Edge 25, Type (0, 0), BuildingBlock: OJICUG_clean_linker_0, # of connection points: 2
#     Edge 26, Type (0, 0), BuildingBlock: OJICUG_clean_linker_0, # of connection points: 2
#     Edge 27, Type (0, 0), BuildingBlock: OJICUG_clean_linker_0, # of connection points: 2
#     Edge 28, Type (0, 0), BuildingBlock: OJICUG_clean_linker_0, # of connection points: 2
#     Edge 29, Type (0, 0), BuildingBlock: OJICUG_clean_linker_0, # of connection points: 2
#     Edge 30, Type (0, 0), BuildingBlock: OJICUG_clean_linker_0, # of connection points: 2
#     Edge 31, Type (0, 0), BuildingBlock: OJICUG_clean_linker_0, # of connection points: 2
#     Edge 32, Type (0, 0), BuildingBlock: OJICUG_clean_linker_0, # of connection points: 2
#     Edge 33, Type (0, 0), BuildingBlock: OJICUG_clean_linker_0, # of connection points: 2
#     Edge 34, Type (0, 0), BuildingBlock: OJICUG_clean_linker_0, # of connection points: 2
#     Edge 35, Type (0, 0), BuildingBlock: OJICUG_clean_linker_0, # of connection points: 2
#     Edge 36, Type (0, 0), BuildingBlock: OJICUG_clean_linker_0, # of connection points: 2
#     Edge 37, Type (0, 0), BuildingBlock: OJICUG_clean_linker_0, # of connection points: 2
#     Edge 38, Type (0, 0), BuildingBlock: OJICUG_clean_linker_0, # of connection points: 2
#     Edge 39, Type (0, 0), BuildingBlock: OJICUG_clean_linker_0, # of connection points: 2
#     Edge 40, Type (0, 0), BuildingBlock: OJICUG_clean_linker_0, # of connection points: 2
#     Edge 41, Type (0, 0), BuildingBlock: OJICUG_clean_linker_0, # of connection points: 2
#     Edge 42, Type (0, 0), BuildingBlock: OJICUG_clean_linker_0, # of connection points: 2
#     Edge 43, Type (0, 0), BuildingBlock: OJICUG_clean_linker_0, # of connection points: 2
#     Edge 44, Type (0, 0), BuildingBlock: OJICUG_clean_linker_0, # of connection points: 2
#     Edge 45, Type (0, 0), BuildingBlock: OJICUG_clean_linker_0, # of connection points: 2
#     Edge 46, Type (0, 0), BuildingBlock: OJICUG_clean_linker_0, # of connection points: 2
#     Edge 47, Type (0, 0), BuildingBlock: OJICUG_clean_linker_0, # of connection points: 2
#     Edge 48, Type (0, 0), BuildingBlock: OJICUG_clean_linker_0, # of connection points: 2
#     Edge 49, Type (0, 0), BuildingBlock: OJICUG_clean_linker_0, # of connection points: 2
#     Edge 50, Type (0, 0), BuildingBlock: OJICUG_clean_linker_0, # of connection points: 2
#     Edge 51, Type (0, 0), BuildingBlock: OJICUG_clean_linker_0, # of connection points: 2
#     Edge 52, Type (0, 0), BuildingBlock: OJICUG_clean_linker_0, # of connection points: 2
#     Edge 53, Type (0, 0), BuildingBlock: OJICUG_clean_linker_0, # of connection points: 2
# Relax obj value: 0.419
# Max RMSD: 0.188
# Mean RMSD: 0.188
data_MOF--net-unp--node1-CEKHIL_clean_sbu_0--edge1-OJICUG_clean_linker_0
_symmetry_space_group_name_H-M    P1
_symmetry_Int_Tables_number       1
_symmetry_cell_setting            triclinic
loop_
_symmetry_equiv_pos_as_xyz
'x, y, z'
_cell_length_a     35.630313
_cell_length_b     35.575731
_cell_length_c     39.307613
_cell_angle_alpha  90.022997
_cell_angle_beta   89.961746
_cell_angle_gamma 119.96993
loop_
_atom_site_label
_atom_site_type_symbol
_atom_site_fract_x
_atom_site_fract_y
_atom_site_fract_z
_atom_type_partial_charge
Co0 Co 0.17496 0.14556 0.14017 0.0
O1 O 0.23538 0.16642 0.13485 0.0
O2 O 0.2069 0.20365 0.15816 0.0
C3 C 0.15804 0.07961 0.16036 0.0
O4 O 0.11448 0.13445 0.1509 0.0
Co5 Co 0.10671 0.06442 0.10055 0.0
O6 O 0.06556 0.06736 0.1333 0.0
C7 C 0.16425 0.14665 0.06499 0.0
C8 C 0.24101 0.20187 0.1489 0.0
C9 C 0.07585 0.10176 0.15021 0.0
O10 O 0.17363 0.16771 0.09323 0.0
O11 O 0.14214 0.10521 0.06314 0.0
O12 O 0.1722 0.11239 0.18115 0.0
O13 O 0.1577 0.08863 0.12878 0.0
Co14 Co 0.85158 0.03574 0.1431 0.0
O15 O 0.82915 0.07438 0.14135 0.0
O16 O 0.79245 0.00571 0.15902 0.0
C17 C 0.91569 0.08304 0.16702 0.0
O18 O 0.86416 0.98653 0.14959 0.0
Co19 Co 0.93561 0.05622 0.10416 0.0
O20 O 0.93248 0.00862 0.13297 0.0
C21 C 0.85476 0.03228 0.06705 0.0
C22 C 0.79347 0.04211 0.15294 0.0
C23 C 0.89752 0.98177 0.14805 0.0
O24 O 0.83255 0.01781 0.09461 0.0
O25 O 0.89624 0.05293 0.06635 0.0
O26 O 0.88181 0.06118 0.18624 0.0
O27 O 0.90863 0.07793 0.13485 0.0
Co28 Co 0.9616 0.81723 0.14077 0.0
O29 O 0.9214 0.75642 0.14042 0.0
O30 O 0.98937 0.78708 0.15925 0.0
C31 C 0.91516 0.837 0.16201 0.0
O32 O 0.01195 0.87859 0.1466 0.0
Co33 Co 0.9452 0.88157 0.09871 0.0
O34 O 0.99121 0.9255 0.12884 0.0
C35 C 0.96735 0.82107 0.06474 0.0
C36 C 0.9524 0.75222 0.15375 0.0
C37 C 0.01713 0.91692 0.14486 0.0
O38 O 0.98037 0.81334 0.09305 0.0
O39 O 0.9483 0.84342 0.06251 0.0
O40 O 0.93567 0.82483 0.18259 0.0
O41 O 0.92108 0.83365 0.13016 0.0
Co42 Co 0.14058 0.18003 0.85561 0.0
O43 O 0.16211 0.24104 0.85618 0.0
O44 O 0.1992 0.20957 0.83845 0.0
C45 C 0.07554 0.16174 0.83281 0.0
O46 O 0.12867 0.11827 0.84989 0.0
Co47 Co 0.05788 0.11654 0.89611 0.0
O48 O 0.06053 0.07206 0.86698 0.0
C49 C 0.13953 0.17524 0.93172 0.0
C50 C 0.19755 0.24477 0.84376 0.0
C51 C 0.09529 0.08012 0.85158 0.0
O52 O 0.16119 0.18285 0.90387 0.0
O53 O 0.09809 0.15381 0.93306 0.0
O54 O 0.10884 0.17351 0.81298 0.0
O55 O 0.08362 0.16462 0.86484 0.0
Co56 Co 0.81505 0.96557 0.85831 0.0
O57 O 0.75418 0.92686 0.86222 0.0
O58 O 0.7848 0.99345 0.84029 0.0
C59 C 0.83127 0.9163 0.8374 0.0
O60 O 0.8762 0.01438 0.84894 0.0
Co61 Co 0.88125 0.94969 0.89806 0.0
O62 O 0.92376 0.99435 0.86632 0.0
C63 C 0.82538 0.97642 0.9338 0.0
C64 C 0.7499 0.95757 0.8483 0.0
C65 C 0.91449 0.01954 0.84989 0.0
O66 O 0.81586 0.98806 0.90559 0.0
O67 O 0.84683 0.95642 0.93558 0.0
O68 O 0.8182 0.93612 0.81689 0.0
O69 O 0.83085 0.9246 0.86916 0.0
Co70 Co 0.02796 0.85051 0.85634 0.0
O71 O 0.06793 0.82969 0.85736 0.0
O72 O 0.0005 0.79283 0.83733 0.0
C73 C 0.07521 0.91696 0.83592 0.0
O74 O 0.97789 0.86178 0.84981 0.0
Co75 Co 0.04369 0.93084 0.89875 0.0
O76 O -0.00201 0.92899 0.86844 0.0
C77 C 0.02056 0.84764 0.93221 0.0
C78 C 0.03721 0.79469 0.84354 0.0
C79 C 0.97246 0.89475 0.85193 0.0
O80 O 0.00794 0.82724 0.90372 0.0
O81 O 0.03979 0.88903 0.93474 0.0
O82 O 0.05508 0.88459 0.81497 0.0
O83 O 0.06838 0.90726 0.86764 0.0
Co84 Co 0.84019 0.47174 0.47706 0.0
O85 O 0.9011 0.49337 0.47495 0.0
O86 O 0.87033 0.53119 0.49253 0.0
C87 C 0.82286 0.4076 0.50142 0.0
O88 O 0.77876 0.46012 0.48389 0.0
Co89 Co 0.77531 0.3873 0.43908 0.0
O90 O 0.7317 0.39158 0.46808 0.0
C91 C 0.83304 0.46732 0.40112 0.0
C92 C 0.90529 0.52948 0.48639 0.0
C93 C 0.74042 0.42696 0.48283 0.0
O94 O 0.84116 0.4902 0.42837 0.0
O95 O 0.81169 0.42578 0.40095 0.0
O96 O 0.83538 0.4418 0.52041 0.0
O97 O 0.82445 0.41431 0.46921 0.0
Co98 Co 0.51307 0.36298 0.47507 0.0
O99 O 0.49163 0.40252 0.47326 0.0
O100 O 0.45501 0.33489 0.49314 0.0
C101 C 0.57886 0.41044 0.49647 0.0
O102 O 0.52457 0.31319 0.48221 0.0
Co103 Co 0.59467 0.37954 0.43415 0.0
O104 O 0.59192 0.33317 0.46428 0.0
C105 C 0.51214 0.35461 0.39916 0.0
C106 C 0.45648 0.37139 0.48661 0.0
C107 C 0.55737 0.30756 0.48039 0.0
O108 O 0.49116 0.34268 0.42744 0.0
O109 O 0.55352 0.37417 0.39717 0.0
O110 O 0.54594 0.39018 0.51688 0.0
O111 O 0.57001 0.40384 0.46461 0.0
Co112 Co 0.6263 0.14969 0.47033 0.0
O113 O 0.58666 0.08955 0.46271 0.0
O114 O 0.6515 0.11615 0.48686 0.0
C115 C 0.57706 0.1655 0.49168 0.0
O116 O 0.67551 0.20955 0.48326 0.0
Co117 Co 0.6144 0.22062 0.43381 0.0
O118 O 0.65783 0.25962 0.46781 0.0
C119 C 0.64164 0.16677 0.39562 0.0
C120 C 0.6157 0.08267 0.4766 0.0
C121 C 0.68157 0.2483 0.48404 0.0
O122 O 0.65112 0.15415 0.42336 0.0
O123 O 0.62274 0.18931 0.3947 0.0
O124 O 0.59504 0.14985 0.51162 0.0
O125 O 0.58708 0.16785 0.46004 0.0
Co126 Co 0.80743 0.50897 0.19224 0.0
O127 O 0.82645 0.56864 0.20047 0.0
O128 O 0.86577 0.54381 0.17534 0.0
C129 C 0.74162 0.49187 0.17197 0.0
O130 O 0.79817 0.44977 0.17855 0.0
Co131 Co 0.72636 0.43654 0.22938 0.0
O132 O 0.7311 0.39868 0.19437 0.0
C133 C 0.8073 0.49282 0.26676 0.0
C134 C 0.86263 0.57661 0.18639 0.0
C135 C 0.76593 0.41082 0.17757 0.0
O136 O 0.82894 0.50494 0.2388 0.0
O137 O 0.76597 0.46953 0.26804 0.0
O138 O 0.77481 0.50829 0.15155 0.0
O139 O 0.75008 0.48941 0.20337 0.0
Co140 Co 0.48058 0.29441 0.19014 0.0
O141 O 0.41971 0.25503 0.19213 0.0
O142 O 0.45064 0.3234 0.17386 0.0
C143 C 0.49882 0.24786 0.16663 0.0
O144 O 0.54182 0.34426 0.18333 0.0
Co145 Co 0.54532 0.27605 0.22944 0.0
O146 O 0.58891 0.32319 0.1998 0.0
C147 C 0.48733 0.29906 0.26617 0.0
C148 C 0.41567 0.28684 0.18022 0.0
C149 C 0.58012 0.34949 0.18456 0.0
O150 O 0.47911 0.31279 0.23844 0.0
O151 O 0.50897 0.27919 0.26718 0.0
O152 O 0.48591 0.26885 0.14726 0.0
O153 O 0.49662 0.25307 0.19878 0.0
Co154 Co 0.70033 0.18961 0.18561 0.0
O155 O 0.73932 0.16792 0.19017 0.0
O156 O 0.67126 0.12958 0.1717 0.0
C157 C 0.74772 0.25266 0.16022 0.0
O158 O 0.65085 0.20114 0.17675 0.0
Co159 Co 0.71932 0.27543 0.22106 0.0
O160 O 0.67131 0.26981 0.19159 0.0
C161 C 0.69606 0.19674 0.26122 0.0
C162 C 0.70758 0.13132 0.17938 0.0
C163 C 0.64517 0.23405 0.17711 0.0
O164 O 0.68172 0.17304 0.23436 0.0
O165 O 0.71644 0.23828 0.26054 0.0
O166 O 0.72644 0.21775 0.14191 0.0
O167 O 0.74188 0.24723 0.1925 0.0
Co168 Co 0.51059 0.80958 0.80659 0.0
O169 O 0.57135 0.83086 0.80315 0.0
O170 O 0.54139 0.86922 0.8213 0.0
C171 C 0.49354 0.74588 0.83165 0.0
O172 O 0.4497 0.79871 0.81467 0.0
Co173 Co 0.44384 0.72464 0.77032 0.0
O174 O 0.40157 0.72995 0.8003 0.0
C175 C 0.50058 0.80362 0.7308 0.0
C176 C 0.57605 0.86726 0.81443 0.0
C177 C 0.41121 0.76582 0.81464 0.0
O178 O 0.51004 0.82708 0.75783 0.0
O179 O 0.47875 0.76209 0.73118 0.0
O180 O 0.50709 0.78063 0.85015 0.0
O181 O 0.49409 0.75178 0.79936 0.0
Co182 Co 0.18599 0.70157 0.80506 0.0
O183 O 0.16567 0.74138 0.79773 0.0
O184 O 0.12733 0.67617 0.82153 0.0
C185 C 0.25124 0.75036 0.82636 0.0
O186 O 0.19625 0.65207 0.81759 0.0
Co187 Co 0.26819 0.71317 0.7679 0.0
O188 O 0.2635 0.66909 0.80146 0.0
C189 C 0.18725 0.6871 0.73022 0.0
C190 C 0.1296 0.71197 0.81123 0.0
C191 C 0.22858 0.64555 0.81792 0.0
O192 O 0.16544 0.67705 0.75811 0.0
O193 O 0.22864 0.70609 0.72907 0.0
O194 O 0.21766 0.73251 0.84637 0.0
O195 O 0.24336 0.74067 0.7947 0.0
Co196 Co 0.2929 0.48751 0.80917 0.0
O197 O 0.25254 0.42746 0.8026 0.0
O198 O 0.31904 0.45388 0.82357 0.0
C199 C 0.24555 0.5041 0.83329 0.0
O200 O 0.34314 0.54757 0.82028 0.0
Co201 Co 0.27842 0.55742 0.77373 0.0
O202 O 0.3249 0.59744 0.80539 0.0
C203 C 0.30157 0.50168 0.73391 0.0
C204 C 0.28253 0.42047 0.81431 0.0
C205 C 0.34958 0.58648 0.82061 0.0
O206 O 0.31407 0.49087 0.76105 0.0
O207 O 0.28225 0.52385 0.73414 0.0
O208 O 0.2648 0.48868 0.85207 0.0
O209 O 0.25322 0.50569 0.80123 0.0
Co210 Co 0.47358 0.84118 0.52097 0.0
O211 O 0.49445 0.90205 0.5244 0.0
O212 O 0.53147 0.8725 0.50265 0.0
C213 C 0.40756 0.82314 0.50027 0.0
O214 O 0.46269 0.78037 0.51183 0.0
Co215 Co 0.39242 0.77364 0.56099 0.0
O216 O 0.3951 0.73201 0.52854 0.0
C217 C 0.47483 0.83053 0.59657 0.0
C218 C 0.52959 0.90705 0.51029 0.0
C219 C 0.42978 0.74186 0.51227 0.0
O220 O 0.49585 0.84133 0.56826 0.0
O221 O 0.43351 0.80776 0.59854 0.0
O222 O 0.44039 0.8368 0.47965 0.0
O223 O 0.41653 0.82404 0.53201 0.0
Co224 Co 0.14632 0.62364 0.52107 0.0
O225 O 0.08569 0.58437 0.52561 0.0
O226 O 0.11508 0.65212 0.50634 0.0
C227 C 0.16254 0.57616 0.49651 0.0
O228 O 0.20734 0.67324 0.5121 0.0
Co229 Co 0.21291 0.60525 0.55759 0.0
O230 O 0.25532 0.65289 0.52778 0.0
C231 C 0.15768 0.62964 0.59674 0.0
C232 C 0.08061 0.61573 0.51417 0.0
C233 C 0.24587 0.67889 0.51282 0.0
O234 O 0.14814 0.64317 0.56952 0.0
O235 O 0.17877 0.6092 0.59667 0.0
O236 O 0.14874 0.59693 0.4778 0.0
O237 O 0.16256 0.58231 0.52872 0.0
Co238 Co 0.36137 0.51786 0.52335 0.0
O239 O 0.40085 0.49711 0.53028 0.0
O240 O 0.33436 0.45812 0.50894 0.0
C241 C 0.40975 0.5814 0.49924 0.0
O242 O 0.31187 0.52841 0.51161 0.0
Co243 Co 0.37647 0.60303 0.55774 0.0
O244 O 0.33064 0.59692 0.52553 0.0
C245 C 0.35206 0.52437 0.59836 0.0
C246 C 0.37051 0.4605 0.51821 0.0
C247 C 0.30586 0.56109 0.51056 0.0
O248 O 0.33968 0.50062 0.57143 0.0
O249 O 0.37171 0.56588 0.59774 0.0
O250 O 0.39016 0.54667 0.48053 0.0
O251 O 0.40167 0.57562 0.53125 0.0
C252 C 0.34199 0.26807 0.19799 0.0
C253 C 0.37277 0.27959 0.17199 0.0
H254 H 0.2744 0.23536 0.21045 0.0
C255 C 0.35972 0.27357 0.13791 0.0
H256 H 0.35179 0.27207 0.22445 0.0
C257 C 0.31573 0.25157 0.13 0.0
C258 C 0.28481 0.23669 0.15613 0.0
H259 H 0.3832 0.28172 0.11766 0.0
H260 H 0.30586 0.24318 0.10373 0.0
C261 C 0.29799 0.24726 0.19002 0.0
C262 C 0.73638 0.05744 0.13467 0.0
C263 C 0.75745 0.04884 0.16109 0.0
H264 H 0.70154 0.08969 0.12043 0.0
C265 C 0.75295 0.05898 0.19469 0.0
H266 H 0.74035 0.0504 0.10852 0.0
C267 C 0.73195 0.08235 0.20133 0.0
C268 C 0.71452 0.09467 0.17448 0.0
H269 H 0.76976 0.05321 0.21521 0.0
H270 H 0.73263 0.09403 0.22692 0.0
C271 C 0.71431 0.07981 0.14145 0.0
C272 C 0.90248 0.6526 0.20593 0.0
C273 C 0.89696 0.62155 0.18145 0.0
H274 H 0.92672 0.71991 0.21618 0.0
C275 C 0.91844 0.63494 0.1501 0.0
H276 H 0.88616 0.64277 0.23031 0.0
C277 C 0.94107 0.67905 0.14188 0.0
C278 C 0.94328 0.70971 0.16542 0.0
H279 H 0.9142 0.61134 0.13083 0.0
H280 H 0.95379 0.68889 0.11638 0.0
C281 C 0.92582 0.69655 0.19801 0.0
C282 C 0.28067 0.36173 0.84962 0.0
C283 C 0.27343 0.37586 0.81829 0.0
H284 H 0.2612 0.30692 0.88258 0.0
C285 C 0.24915 0.34544 0.79308 0.0
H286 H 0.29898 0.38487 0.86944 0.0
C287 C 0.22867 0.30127 0.80026 0.0
C288 C 0.23179 0.28728 0.83283 0.0
H289 H 0.24324 0.3559 0.76877 0.0
H290 H 0.20692 0.27838 0.78153 0.0
C291 C 0.25927 0.31738 0.85707 0.0
C292 C 0.67535 0.93806 0.86406 0.0
C293 C 0.70692 0.94911 0.83878 0.0
H294 H 0.60743 0.90431 0.87543 0.0
C295 C 0.69471 0.94099 0.80453 0.0
H296 H 0.68447 0.94362 0.89067 0.0
C297 C 0.65094 0.9174 0.79599 0.0
C298 C 0.61935 0.90312 0.82157 0.0
H299 H 0.7188 0.9487 0.78485 0.0
H300 H 0.64186 0.90745 0.76981 0.0
C301 C 0.63153 0.91571 0.85538 0.0
C302 C 0.07464 0.71432 0.84845 0.0
C303 C 0.09429 0.72102 0.81641 0.0
H304 H 0.04016 0.73355 0.8825 0.0
C305 C 0.0861 0.74404 0.79136 0.0
H306 H 0.08101 0.69693 0.86814 0.0
C307 C 0.06182 0.7637 0.79923 0.0
C308 C 0.04639 0.76115 0.83237 0.0
H309 H 0.10108 0.74943 0.76649 0.0
H310 H 0.05889 0.78442 0.78048 0.0
C311 C 0.05128 0.73503 0.8566 0.0
C312 C 0.96256 0.56995 0.52829 0.0
C313 C 0.94834 0.56508 0.49455 0.0
H314 H 0.01743 0.59071 0.56105 0.0
C315 C 0.97837 0.58565 0.46825 0.0
H316 H 0.93971 0.55352 0.54874 0.0
C317 C 0.02269 0.60781 0.47535 0.0
C318 C 0.03692 0.60819 0.50862 0.0
H319 H 0.96772 0.58141 0.442 0.0
H320 H 0.0456 0.62036 0.45448 0.0
C321 C 0.0068 0.591 0.53527 0.0
C322 C 0.40043 0.41526 0.53834 0.0
C323 C 0.37926 0.42505 0.51276 0.0
H324 H 0.44061 0.38799 0.54983 0.0
C325 C 0.37571 0.40818 0.47994 0.0
H326 H 0.40362 0.42836 0.56375 0.0
C327 C 0.39775 0.38613 0.47183 0.0
C328 C 0.42205 0.3797 0.4968 0.0
H329 H 0.35996 0.41601 0.45984 0.0
H330 H 0.39871 0.37724 0.4456 0.0
C331 C 0.42136 0.39216 0.53046 0.0
C332 C 0.60937 0.02543 0.51592 0.0
C333 C 0.60576 0.03817 0.48289 0.0
H334 H 0.58675 0.97209 0.55085 0.0
C335 C 0.58422 0.00667 0.45771 0.0
H336 H 0.62543 0.04942 0.53573 0.0
C337 C 0.5634 0.96277 0.46609 0.0
C338 C 0.56309 0.95021 0.49986 0.0
H339 H 0.58097 0.01607 0.43214 0.0
H340 H 0.54416 0.93895 0.44693 0.0
C341 C 0.58736 0.98146 0.52454 0.0
C342 C 0.01008 0.07217 0.18689 0.0
C343 C 0.04073 0.10569 0.16626 0.0
H344 H 0.94535 0.04087 0.20662 0.0
C345 C 0.0335 0.13934 0.15629 0.0
H346 H 0.01553 0.04633 0.1953 0.0
C347 C 0.99321 0.13578 0.16217 0.0
C348 C 0.96024 0.099 0.17859 0.0
H349 H 0.05692 0.16568 0.14057 0.0
H350 H 0.98607 0.15889 0.15011 0.0
C351 C 0.97028 0.06947 0.19384 0.0
C352 C 0.8616 0.90155 0.14868 0.0
C353 C 0.89401 0.94154 0.16125 0.0
H354 H 0.84261 0.835 0.14009 0.0
C355 C 0.92602 0.94288 0.18283 0.0
H356 H 0.83643 0.89982 0.13217 0.0
C357 C 0.92826 0.90528 0.18882 0.0
C358 C 0.89979 0.86675 0.17182 0.0
H359 H 0.95085 0.97339 0.19325 0.0
H360 H 0.95555 0.9078 0.20289 0.0
C361 C 0.86478 0.8644 0.1536 0.0
C362 C 0.0913 0.02327 0.18759 0.0
C363 C 0.1302 0.03441 0.1708 0.0
H364 H 0.02346 0.97705 0.19091 0.0
C365 C 0.1337 0.00242 0.15243 0.0
H366 H 0.08789 0.0475 0.20178 0.0
C367 C 0.09719 0.96181 0.14691 0.0
C368 C 0.05674 0.95336 0.15904 0.0
H369 H 0.1634 0.01051 0.13904 0.0
H370 H 0.09974 0.93898 0.13016 0.0
C371 C 0.05433 0.98327 0.18093 0.0
C372 C 0.063 0.97301 0.80988 0.0
C373 C 0.09124 0.9623 0.82642 0.0
H374 H 0.04111 0.01906 0.80635 0.0
C375 C 0.12661 0.9945 0.84466 0.0
H376 H 0.03541 0.94858 0.79584 0.0
C377 C 0.13045 0.03507 0.85002 0.0
C378 C 0.0983 0.0433 0.8379 0.0
H379 H 0.14857 0.98673 0.85785 0.0
H380 H 0.1559 0.05816 0.86653 0.0
C381 C 0.06585 0.01301 0.81634 0.0
C382 C 0.02042 0.09321 0.80661 0.0
C383 C 0.03068 0.13268 0.82217 0.0
H384 H 0.97495 0.02485 0.80469 0.0
C385 C -0.00195 0.13632 0.83932 0.0
H386 H 0.04514 0.08973 0.79329 0.0
C387 C 0.9578 0.09957 0.84524 0.0
C388 C 0.95027 0.05879 0.83465 0.0
H389 H 0.0054 0.16649 0.85166 0.0
H390 H 0.93457 0.10237 0.86128 0.0
C391 C 0.98067 0.05606 0.81361 0.0
C392 C 0.89244 0.85945 0.85007 0.0
C393 C 0.9328 0.89149 0.83783 0.0
H394 H 0.82631 0.84189 0.85839 0.0
C395 C 0.93509 0.92395 0.81618 0.0
H396 H 0.89001 0.83401 0.86666 0.0
C397 C 0.8981 0.92706 0.80991 0.0
C398 C 0.8593 0.89919 0.82682 0.0
H399 H 0.96594 0.94866 0.80616 0.0
H400 H 0.90146 0.95483 0.79594 0.0
C401 C 0.85591 0.86359 0.84492 0.0
C402 C 0.69697 0.46385 0.48394 0.0
C403 C 0.70412 0.43103 0.49628 0.0
H404 H 0.64986 0.48337 0.47536 0.0
C405 C 0.67313 0.39885 0.51764 0.0
H406 H 0.72061 0.48912 0.46758 0.0
C407 C 0.63345 0.39685 0.52356 0.0
C408 C 0.62379 0.42573 0.50671 0.0
H409 H 0.67839 0.37362 0.52782 0.0
H410 H 0.60845 0.36936 0.53736 0.0
C411 C 0.65676 0.46091 0.48879 0.0
C412 C 0.52107 0.22742 0.48108 0.0
C413 C 0.55328 0.2673 0.49399 0.0
H414 H 0.50294 0.16132 0.47143 0.0
C415 C 0.5851 0.26851 0.51572 0.0
H416 H 0.49608 0.22584 0.46444 0.0
C417 C 0.58753 0.23096 0.52131 0.0
C418 C 0.55974 0.19283 0.50354 0.0
H419 H 0.60986 0.29897 0.5263 0.0
H420 H 0.6149 0.23353 0.5353 0.0
C421 C 0.52458 0.19039 0.48553 0.0
C422 C 0.79808 0.32994 0.49711 0.0
C423 C 0.79435 0.36312 0.51335 0.0
H424 H 0.76419 0.26625 0.47538 0.0
C425 C 0.7548 0.35322 0.52847 0.0
H426 H 0.82832 0.33698 0.48514 0.0
C427 C 0.71767 0.31345 0.52146 0.0
C428 C 0.72046 0.28269 0.50084 0.0
H429 H 0.7512 0.37831 0.54111 0.0
H430 H 0.68642 0.30823 0.52964 0.0
C431 C 0.7613 0.28968 0.49113 0.0
C432 C 0.80149 0.33001 0.16258 0.0
C433 C 0.76415 0.29667 0.14704 0.0
H434 H 0.83154 0.39376 0.18424 0.0
C435 C 0.73431 0.30657 0.13228 0.0
H436 H 0.82491 0.323 0.17419 0.0
C437 C 0.73694 0.34632 0.13952 0.0
C438 C 0.77076 0.37709 0.15987 0.0
H439 H 0.70533 0.2814 0.12009 0.0
H440 H 0.71057 0.35134 0.13196 0.0
C441 C 0.80497 0.37029 0.16876 0.0
C442 C 0.68626 0.42629 0.14284 0.0
C443 C 0.6968 0.46441 0.16073 0.0
H444 H 0.64069 0.35834 0.13793 0.0
C445 C 0.66442 0.46675 0.17942 0.0
H446 H 0.71078 0.42382 0.12832 0.0
C447 C 0.62409 0.42968 0.18425 0.0
C448 C 0.61627 0.38983 0.17107 0.0
H449 H 0.67205 0.49582 0.19364 0.0
H450 H 0.60098 0.43123 0.2013 0.0
C451 C 0.6465 0.38872 0.14879 0.0
C452 C 0.56649 0.26259 0.13787 0.0
C453 C 0.52857 0.23318 0.15513 0.0
H454 H 0.63473 0.28668 0.13247 0.0
C455 C 0.52726 0.1979 0.17225 0.0
H456 H 0.56824 0.29011 0.12461 0.0
C457 C 0.56494 0.19554 0.17622 0.0
C458 C 0.60441 0.22899 0.16373 0.0
H459 H 0.49833 0.17496 0.18588 0.0
H460 H 0.56407 0.1703 0.1922 0.0
C461 C 0.60461 0.26108 0.14285 0.0
C462 C 0.30532 0.73841 0.85588 0.0
C463 C 0.2958 0.76676 0.83804 0.0
H464 H 0.3498 0.71465 0.86095 0.0
C465 C 0.32893 0.80143 0.81983 0.0
H466 H 0.28022 0.71141 0.87004 0.0
C467 C 0.36894 0.80386 0.81528 0.0
C468 C 0.37569 0.77104 0.82826 0.0
H469 H 0.32215 0.82351 0.8057 0.0
H470 H 0.39258 0.82848 0.7985 0.0
C471 C 0.34477 0.73979 0.85022 0.0
C472 C 0.19257 0.52853 0.82998 0.0
C473 C 0.22911 0.53172 0.84628 0.0
H474 H 0.16361 0.56329 0.80845 0.0
C475 C 0.25864 0.5709 0.86199 0.0
H476 H 0.16946 0.49857 0.81758 0.0
C477 C 0.25659 0.60843 0.8552 0.0
C478 C 0.22356 0.60627 0.8344 0.0
H479 H 0.28699 0.57403 0.87478 0.0
H480 H 0.28271 0.63948 0.8637 0.0
C481 C 0.18958 0.56567 0.82431 0.0
C482 C 0.46711 0.66771 0.82847 0.0
C483 C 0.46492 0.70187 0.84449 0.0
H484 H 0.43125 0.60303 0.80878 0.0
C485 C 0.42654 0.6932 0.86105 0.0
H486 H 0.49643 0.67381 0.81542 0.0
C487 C 0.38875 0.65334 0.85587 0.0
C488 C 0.38976 0.62134 0.83559 0.0
H489 H 0.4241 0.71906 0.87351 0.0
H490 H 0.35823 0.64891 0.86523 0.0
C491 C 0.42972 0.6274 0.82432 0.0
C492 C 0.46717 0.69919 0.50759 0.0
C493 C 0.43378 0.70639 0.49692 0.0
H494 H 0.48618 0.65152 0.51521 0.0
C495 C 0.40062 0.67551 0.4762 0.0
H496 H 0.49326 0.7228 0.52336 0.0
C497 C 0.39793 0.63553 0.4699 0.0
C498 C 0.42689 0.62548 0.48606 0.0
H499 H 0.37494 0.68086 0.46725 0.0
H500 H 0.36952 0.61045 0.45705 0.0
C501 C 0.46351 0.65867 0.50244 0.0
C502 C 0.28942 0.75913 0.51268 0.0
C503 C 0.28176 0.71944 0.49925 0.0
H504 H 0.33714 0.82523 0.52257 0.0
C505 C 0.31245 0.7186 0.47732 0.0
H506 H 0.26607 0.76045 0.52959 0.0
C507 C 0.35237 0.75623 0.4719 0.0
C508 C 0.36253 0.79425 0.48982 0.0
H509 H 0.30682 0.68831 0.46639 0.0
H510 H 0.37715 0.75389 0.45764 0.0
C511 C 0.32984 0.79627 0.50832 0.0
C512 C 0.26752 0.58857 0.47411 0.0
C513 C 0.26606 0.55577 0.49488 0.0
H514 H 0.23243 0.6185 0.45507 0.0
C515 C 0.22584 0.52162 0.50545 0.0
H516 H 0.29827 0.61475 0.46518 0.0
C517 C 0.18844 0.52418 0.5002 0.0
C518 C 0.19095 0.56047 0.48384 0.0
H519 H 0.22397 0.49579 0.52126 0.0
H520 H 0.15879 0.50085 0.51282 0.0
C521 C 0.22975 0.59027 0.46783 0.0
C522 C 0.19255 0.15776 0.00621 0.0
C523 C 0.1741 0.16992 0.03254 0.0
H524 H 0.19752 0.1521 0.95235 0.0
C525 C 0.15452 0.19462 0.02495 0.0
H526 H 0.20754 0.13838 0.01167 0.0
C527 C 0.14794 0.20159 0.99105 0.0
C528 C 0.16185 0.18483 0.96462 0.0
H529 H 0.13967 0.20384 0.0449 0.0
H530 H 0.12821 0.21617 0.98553 0.0
C531 C 0.18698 0.16574 0.97233 0.0
C532 C 0.83979 0.03589 0.97343 0.0
C533 C 0.81732 0.99138 0.96625 0.0
H534 H 0.86953 0.08417 0.0123 0.0
C535 C 0.79813 0.96148 0.99295 0.0
H536 H 0.85535 0.05937 0.95321 0.0
C537 C 0.80538 0.97568 0.0267 0.0
C538 C 0.83296 0.01974 0.03392 0.0
H539 H 0.78105 0.92693 0.98781 0.0
H540 H 0.79377 0.95179 0.04692 0.0
C541 C 0.84805 0.05 0.00718 0.0
C542 C 0.96307 0.79917 0.97202 0.0
C543 C 0.00733 0.82372 0.96442 0.0
H544 H 0.91519 0.77867 0.01135 0.0
C545 C 0.03782 0.83601 0.99082 0.0
H546 H 0.93908 0.78986 0.95205 0.0
C547 C 0.02418 0.82874 0.02471 0.0
C548 C 0.98002 0.81016 0.03233 0.0
H549 H 0.07216 0.85527 0.98538 0.0
H550 H 0.04827 0.84269 0.04468 0.0
C551 C 0.94945 0.79289 0.00591 0.0
C552 C 0.81901 0.52155 0.32537 0.0
C553 C 0.8299 0.50157 0.2994 0.0
H554 H 0.81347 0.52763 0.37913 0.0
C555 C 0.85199 0.47945 0.3075 0.0
H556 H 0.80147 0.53834 0.31949 0.0
C557 C 0.8579 0.47246 0.34155 0.0
C558 C 0.8426 0.48835 0.36764 0.0
H559 H 0.86005 0.46332 0.28782 0.0
H560 H 0.87069 0.45126 0.34746 0.0
C561 C 0.82592 0.51549 0.35941 0.0
C562 C 0.46197 0.2812 0.32582 0.0
C563 C 0.47741 0.31149 0.29912 0.0
H564 H 0.4592 0.27176 0.37978 0.0
C565 C 0.49349 0.35552 0.3063 0.0
H566 H 0.44958 0.24706 0.32071 0.0
C567 C 0.49985 0.36968 0.34006 0.0
C568 C 0.489 0.33978 0.36677 0.0
H569 H 0.50593 0.37942 0.28609 0.0
H570 H 0.51716 0.40422 0.34521 0.0
C571 C 0.46721 0.29526 0.35955 0.0
C572 C 0.62732 0.13946 0.33652 0.0
C573 C 0.65719 0.16024 0.36293 0.0
H574 H 0.61697 0.13369 0.28259 0.0
C575 C 0.7014 0.18526 0.35535 0.0
H576 H 0.59296 0.12055 0.34198 0.0
C577 C 0.71494 0.19376 0.3215 0.0
C578 C 0.68449 0.17649 0.295 0.0
H579 H 0.72477 0.20215 0.37538 0.0
H580 H 0.74865 0.21666 0.31606 0.0
C581 C 0.64102 0.14702 0.30263 0.0
C582 C 0.48855 0.8598 0.65513 0.0
C583 C 0.49804 0.83895 0.62893 0.0
H584 H 0.48376 0.86604 0.70898 0.0
C585 C 0.51828 0.81495 0.63683 0.0
H586 H 0.4723 0.87793 0.64946 0.0
C587 C 0.52368 0.80716 0.6708 0.0
C588 C 0.50983 0.82417 0.69709 0.0
H589 H 0.5251 0.798 0.61703 0.0
H590 H 0.53506 0.78473 0.6765 0.0
C591 C 0.49503 0.85295 0.68911 0.0
C592 C 0.13534 0.61297 0.65708 0.0
C593 C 0.15012 0.64295 0.63016 0.0
H594 H 0.13417 0.60409 0.71108 0.0
C595 C 0.16765 0.68722 0.63718 0.0
H596 H 0.12197 0.57866 0.65209 0.0
C597 C 0.17557 0.70176 0.67083 0.0
C598 C 0.16478 0.67202 0.69763 0.0
H599 H 0.17972 0.71087 0.61678 0.0
H600 H 0.1935 0.73635 0.67577 0.0
C601 C 0.14215 0.62744 0.69074 0.0
C602 C 0.29517 0.48081 0.64045 0.0
C603 C 0.33924 0.50428 0.63203 0.0
H604 H 0.24841 0.46158 0.68059 0.0
C605 C 0.37047 0.51795 0.65796 0.0
H606 H 0.27067 0.47062 0.6208 0.0
C607 C 0.35778 0.51185 0.69207 0.0
C608 C 0.31382 0.49317 0.70042 0.0
H609 H 0.40467 0.53655 0.65185 0.0
H610 H 0.38239 0.52595 0.71166 0.0
C611 C 0.28251 0.4758 0.67454 0.0
loop_
_geom_bond_atom_site_label_1
_geom_bond_atom_site_label_2
_geom_bond_distance
_geom_bond_site_symmetry_2
_ccdc_geom_bond_type
Co0 O1 2.216 . S
Co0 O2 2.091 . S
Co0 O4 2.004 . S
Co0 O10 2.021 . S
Co0 O12 2.137 . S
Co0 O13 2.244 . S
O1 Co0 2.216 . S
O1 C8 1.247 . S
O2 Co0 2.091 . S
O2 C8 1.261 . S
C3 O12 1.247 . S
C3 O13 1.272 . S
O4 Co0 2.004 . S
O4 C9 1.259 . S
Co5 O6 2.061 . S
Co5 O11 2.052 . S
Co5 O13 2.135 . S
O6 Co5 2.061 . S
O6 C9 1.235 . S
C7 O10 1.238 . S
C7 O11 1.241 . S
C8 O1 1.247 . S
C8 O2 1.261 . S
C9 O4 1.259 . S
C9 O6 1.235 . S
O10 Co0 2.021 . S
O10 C7 1.238 . S
O11 Co5 2.052 . S
O11 C7 1.241 . S
O12 Co0 2.137 . S
O12 C3 1.247 . S
O13 Co0 2.244 . S
O13 C3 1.272 . S
O13 Co5 2.135 . S
Co14 O15 2.216 . S
Co14 O16 2.091 1_545 S
Co14 O18 2.004 1_545 S
Co14 O24 2.021 1_545 S
Co14 O26 2.137 . S
Co14 O27 2.244 . S
O15 Co14 2.216 . S
O15 C22 1.247 . S
O16 Co14 2.091 1_565 S
O16 C22 1.261 1_565 S
C17 O26 1.247 . S
C17 O27 1.272 . S
O18 Co14 2.004 1_565 S
O18 C23 1.259 . S
Co19 O20 2.061 1_545 S
Co19 O25 2.040 . S
Co19 O27 2.135 . S
O20 Co19 2.061 1_565 S
O20 C23 1.235 . S
C21 O24 1.238 . S
C21 O25 1.246 1_565 S
C22 O15 1.247 . S
C22 O16 1.261 1_545 S
C23 O18 1.259 . S
C23 O20 1.235 . S
O24 Co14 2.021 1_565 S
O24 C21 1.238 . S
O25 Co19 2.040 . S
O25 C21 1.246 1_545 S
O26 Co14 2.137 . S
O26 C17 1.247 . S
O27 Co14 2.244 . S
O27 C17 1.272 . S
O27 Co19 2.135 . S
Co28 O29 2.216 . S
Co28 O30 2.091 1_655 S
Co28 O32 2.004 1_655 S
Co28 O38 2.021 1_655 S
Co28 O40 2.137 . S
Co28 O41 2.244 . S
O29 Co28 2.216 . S
O29 C36 1.247 . S
O30 Co28 2.091 1_455 S
O30 C36 1.261 1_455 S
C31 O40 1.247 . S
C31 O41 1.272 . S
O32 Co28 2.004 1_455 S
O32 C37 1.259 . S
Co33 O34 2.055 1_655 S
Co33 O39 2.039 1_655 S
Co33 O41 2.137 . S
O34 Co33 2.055 1_455 S
O34 C37 1.235 . S
C35 O38 1.238 . S
C35 O39 1.258 . S
C36 O29 1.247 . S
C36 O30 1.261 1_655 S
C37 O32 1.259 . S
C37 O34 1.235 . S
O38 Co28 2.021 1_455 S
O38 C35 1.238 . S
O39 Co33 2.039 1_455 S
O39 C35 1.258 . S
O40 Co28 2.137 . S
O40 C31 1.247 . S
O41 Co28 2.244 . S
O41 C31 1.272 . S
O41 Co33 2.137 . S
Co42 O43 2.216 . S
Co42 O44 2.091 . S
Co42 O46 2.004 . S
Co42 O52 2.021 . S
Co42 O54 2.137 . S
Co42 O55 2.244 . S
O43 Co42 2.216 . S
O43 C50 1.247 . S
O44 Co42 2.091 . S
O44 C50 1.261 . S
C45 O54 1.247 . S
C45 O55 1.272 . S
O46 Co42 2.004 . S
O46 C51 1.259 . S
Co47 O48 2.061 . S
Co47 O53 2.052 . S
Co47 O55 2.135 . S
O48 Co47 2.061 . S
O48 C51 1.235 . S
C49 O52 1.238 . S
C49 O53 1.241 . S
C50 O43 1.247 . S
C50 O44 1.261 . S
C51 O46 1.259 . S
C51 O48 1.235 . S
O52 Co42 2.021 . S
O52 C49 1.238 . S
O53 Co47 2.052 . S
O53 C49 1.241 . S
O54 Co42 2.137 . S
O54 C45 1.247 . S
O55 Co42 2.244 . S
O55 C45 1.272 . S
O55 Co47 2.135 . S
Co56 O57 2.216 . S
Co56 O58 2.091 1_565 S
Co56 O60 2.004 1_565 S
Co56 O66 2.021 1_565 S
Co56 O68 2.137 . S
Co56 O69 2.244 . S
O57 Co56 2.216 . S
O57 C64 1.247 . S
O58 Co56 2.091 1_545 S
O58 C64 1.261 1_545 S
C59 O68 1.247 . S
C59 O69 1.272 . S
O60 Co56 2.004 1_545 S
O60 C65 1.259 . S
Co61 O62 2.054 1_565 S
Co61 O67 2.039 1_565 S
Co61 O69 2.137 . S
O62 Co61 2.054 1_545 S
O62 C65 1.235 . S
C63 O66 1.238 . S
C63 O67 1.257 . S
C64 O57 1.247 . S
C64 O58 1.261 1_565 S
C65 O60 1.259 . S
C65 O62 1.235 . S
O66 Co56 2.021 1_545 S
O66 C63 1.238 . S
O67 Co61 2.039 1_545 S
O67 C63 1.257 . S
O68 Co56 2.137 . S
O68 C59 1.247 . S
O69 Co56 2.244 . S
O69 C59 1.272 . S
O69 Co61 2.137 . S
Co70 O71 2.216 . S
Co70 O72 2.091 1_455 S
Co70 O74 2.004 1_455 S
Co70 O80 2.021 1_455 S
Co70 O82 2.137 . S
Co70 O83 2.244 . S
O71 Co70 2.216 . S
O71 C78 1.247 . S
O72 Co70 2.091 1_655 S
O72 C78 1.261 1_655 S
C73 O82 1.247 . S
C73 O83 1.272 . S
O74 Co70 2.004 1_655 S
O74 C79 1.259 . S
Co75 O76 2.061 1_455 S
Co75 O81 2.040 . S
Co75 O83 2.135 . S
O76 Co75 2.061 1_655 S
O76 C79 1.235 . S
C77 O80 1.238 . S
C77 O81 1.246 1_655 S
C78 O71 1.247 . S
C78 O72 1.261 1_455 S
C79 O74 1.259 . S
C79 O76 1.235 . S
O80 Co70 2.021 1_655 S
O80 C77 1.238 . S
O81 Co75 2.040 . S
O81 C77 1.246 1_455 S
O82 Co70 2.137 . S
O82 C73 1.247 . S
O83 Co70 2.244 . S
O83 C73 1.272 . S
O83 Co75 2.135 . S
Co84 O85 2.216 . S
Co84 O86 2.091 . S
Co84 O88 2.004 . S
Co84 O94 2.021 . S
Co84 O96 2.137 . S
Co84 O97 2.244 . S
O85 Co84 2.216 . S
O85 C92 1.247 . S
O86 Co84 2.091 . S
O86 C92 1.261 . S
C87 O96 1.247 . S
C87 O97 1.272 . S
O88 Co84 2.004 . S
O88 C93 1.259 . S
Co89 O90 2.061 . S
Co89 O95 2.052 . S
Co89 O97 2.135 . S
O90 Co89 2.061 . S
O90 C93 1.235 . S
C91 O94 1.238 . S
C91 O95 1.241 . S
C92 O85 1.247 . S
C92 O86 1.261 . S
C93 O88 1.259 . S
C93 O90 1.235 . S
O94 Co84 2.021 . S
O94 C91 1.238 . S
O95 Co89 2.052 . S
O95 C91 1.241 . S
O96 Co84 2.137 . S
O96 C87 1.247 . S
O97 Co84 2.244 . S
O97 C87 1.272 . S
O97 Co89 2.135 . S
Co98 O99 2.216 . S
Co98 O100 2.091 . S
Co98 O102 2.004 . S
Co98 O108 2.021 . S
Co98 O110 2.137 . S
Co98 O111 2.244 . S
O99 Co98 2.216 . S
O99 C106 1.247 . S
O100 Co98 2.091 . S
O100 C106 1.261 . S
C101 O110 1.247 . S
C101 O111 1.272 . S
O102 Co98 2.004 . S
O102 C107 1.259 . S
Co103 O104 2.061 . S
Co103 O109 2.052 . S
Co103 O111 2.135 . S
O104 Co103 2.061 . S
O104 C107 1.235 . S
C105 O108 1.238 . S
C105 O109 1.241 . S
C106 O99 1.247 . S
C106 O100 1.261 . S
C107 O102 1.259 . S
C107 O104 1.235 . S
O108 Co98 2.021 . S
O108 C105 1.238 . S
O109 Co103 2.052 . S
O109 C105 1.241 . S
O110 Co98 2.137 . S
O110 C101 1.247 . S
O111 Co98 2.244 . S
O111 C101 1.272 . S
O111 Co103 2.135 . S
Co112 O113 2.216 . S
Co112 O114 2.091 . S
Co112 O116 2.004 . S
Co112 O122 2.021 . S
Co112 O124 2.137 . S
Co112 O125 2.244 . S
O113 Co112 2.216 . S
O113 C120 1.247 . S
O114 Co112 2.091 . S
O114 C120 1.261 . S
C115 O124 1.247 . S
C115 O125 1.272 . S
O116 Co112 2.004 . S
O116 C121 1.259 . S
Co117 O118 2.061 . S
Co117 O123 2.052 . S
Co117 O125 2.135 . S
O118 Co117 2.061 . S
O118 C121 1.235 . S
C119 O122 1.238 . S
C119 O123 1.241 . S
C120 O113 1.247 . S
C120 O114 1.261 . S
C121 O116 1.259 . S
C121 O118 1.235 . S
O122 Co112 2.021 . S
O122 C119 1.238 . S
O123 Co117 2.052 . S
O123 C119 1.241 . S
O124 Co112 2.137 . S
O124 C115 1.247 . S
O125 Co112 2.244 . S
O125 C115 1.272 . S
O125 Co117 2.135 . S
Co126 O127 2.216 . S
Co126 O128 2.091 . S
Co126 O130 2.004 . S
Co126 O136 2.021 . S
Co126 O138 2.137 . S
Co126 O139 2.244 . S
O127 Co126 2.216 . S
O127 C134 1.247 . S
O128 Co126 2.091 . S
O128 C134 1.261 . S
C129 O138 1.247 . S
C129 O139 1.272 . S
O130 Co126 2.004 . S
O130 C135 1.259 . S
Co131 O132 2.061 . S
Co131 O137 2.052 . S
Co131 O139 2.135 . S
O132 Co131 2.061 . S
O132 C135 1.235 . S
C133 O136 1.238 . S
C133 O137 1.241 . S
C134 O127 1.247 . S
C134 O128 1.261 . S
C135 O130 1.259 . S
C135 O132 1.235 . S
O136 Co126 2.021 . S
O136 C133 1.238 . S
O137 Co131 2.052 . S
O137 C133 1.241 . S
O138 Co126 2.137 . S
O138 C129 1.247 . S
O139 Co126 2.244 . S
O139 C129 1.272 . S
O139 Co131 2.135 . S
Co140 O141 2.216 . S
Co140 O142 2.091 . S
Co140 O144 2.004 . S
Co140 O150 2.021 . S
Co140 O152 2.137 . S
Co140 O153 2.244 . S
O141 Co140 2.216 . S
O141 C148 1.247 . S
O142 Co140 2.091 . S
O142 C148 1.261 . S
C143 O152 1.247 . S
C143 O153 1.272 . S
O144 Co140 2.004 . S
O144 C149 1.259 . S
Co145 O146 2.061 . S
Co145 O151 2.052 . S
Co145 O153 2.135 . S
O146 Co145 2.061 . S
O146 C149 1.235 . S
C147 O150 1.238 . S
C147 O151 1.241 . S
C148 O141 1.247 . S
C148 O142 1.261 . S
C149 O144 1.259 . S
C149 O146 1.235 . S
O150 Co140 2.021 . S
O150 C147 1.238 . S
O151 Co145 2.052 . S
O151 C147 1.241 . S
O152 Co140 2.137 . S
O152 C143 1.247 . S
O153 Co140 2.244 . S
O153 C143 1.272 . S
O153 Co145 2.135 . S
Co154 O155 2.216 . S
Co154 O156 2.091 . S
Co154 O158 2.004 . S
Co154 O164 2.021 . S
Co154 O166 2.137 . S
Co154 O167 2.244 . S
O155 Co154 2.216 . S
O155 C162 1.247 . S
O156 Co154 2.091 . S
O156 C162 1.261 . S
C157 O166 1.247 . S
C157 O167 1.272 . S
O158 Co154 2.004 . S
O158 C163 1.259 . S
Co159 O160 2.061 . S
Co159 O165 2.052 . S
Co159 O167 2.135 . S
O160 Co159 2.061 . S
O160 C163 1.235 . S
C161 O164 1.238 . S
C161 O165 1.241 . S
C162 O155 1.247 . S
C162 O156 1.261 . S
C163 O158 1.259 . S
C163 O160 1.235 . S
O164 Co154 2.021 . S
O164 C161 1.238 . S
O165 Co159 2.052 . S
O165 C161 1.241 . S
O166 Co154 2.137 . S
O166 C157 1.247 . S
O167 Co154 2.244 . S
O167 C157 1.272 . S
O167 Co159 2.135 . S
Co168 O169 2.216 . S
Co168 O170 2.091 . S
Co168 O172 2.004 . S
Co168 O178 2.021 . S
Co168 O180 2.137 . S
Co168 O181 2.244 . S
O169 Co168 2.216 . S
O169 C176 1.247 . S
O170 Co168 2.091 . S
O170 C176 1.261 . S
C171 O180 1.247 . S
C171 O181 1.272 . S
O172 Co168 2.004 . S
O172 C177 1.259 . S
Co173 O174 2.061 . S
Co173 O179 2.052 . S
Co173 O181 2.135 . S
O174 Co173 2.061 . S
O174 C177 1.235 . S
C175 O178 1.238 . S
C175 O179 1.241 . S
C176 O169 1.247 . S
C176 O170 1.261 . S
C177 O172 1.259 . S
C177 O174 1.235 . S
O178 Co168 2.021 . S
O178 C175 1.238 . S
O179 Co173 2.052 . S
O179 C175 1.241 . S
O180 Co168 2.137 . S
O180 C171 1.247 . S
O181 Co168 2.244 . S
O181 C171 1.272 . S
O181 Co173 2.135 . S
Co182 O183 2.216 . S
Co182 O184 2.091 . S
Co182 O186 2.004 . S
Co182 O192 2.021 . S
Co182 O194 2.137 . S
Co182 O195 2.244 . S
O183 Co182 2.216 . S
O183 C190 1.247 . S
O184 Co182 2.091 . S
O184 C190 1.261 . S
C185 O194 1.247 . S
C185 O195 1.272 . S
O186 Co182 2.004 . S
O186 C191 1.259 . S
Co187 O188 2.061 . S
Co187 O193 2.052 . S
Co187 O195 2.135 . S
O188 Co187 2.061 . S
O188 C191 1.235 . S
C189 O192 1.238 . S
C189 O193 1.241 . S
C190 O183 1.247 . S
C190 O184 1.261 . S
C191 O186 1.259 . S
C191 O188 1.235 . S
O192 Co182 2.021 . S
O192 C189 1.238 . S
O193 Co187 2.052 . S
O193 C189 1.241 . S
O194 Co182 2.137 . S
O194 C185 1.247 . S
O195 Co182 2.244 . S
O195 C185 1.272 . S
O195 Co187 2.135 . S
Co196 O197 2.216 . S
Co196 O198 2.091 . S
Co196 O200 2.004 . S
Co196 O206 2.021 . S
Co196 O208 2.137 . S
Co196 O209 2.244 . S
O197 Co196 2.216 . S
O197 C204 1.247 . S
O198 Co196 2.091 . S
O198 C204 1.261 . S
C199 O208 1.247 . S
C199 O209 1.272 . S
O200 Co196 2.004 . S
O200 C205 1.259 . S
Co201 O202 2.061 . S
Co201 O207 2.052 . S
Co201 O209 2.135 . S
O202 Co201 2.061 . S
O202 C205 1.235 . S
C203 O206 1.238 . S
C203 O207 1.241 . S
C204 O197 1.247 . S
C204 O198 1.261 . S
C205 O200 1.259 . S
C205 O202 1.235 . S
O206 Co196 2.021 . S
O206 C203 1.238 . S
O207 Co201 2.052 . S
O207 C203 1.241 . S
O208 Co196 2.137 . S
O208 C199 1.247 . S
O209 Co196 2.244 . S
O209 C199 1.272 . S
O209 Co201 2.135 . S
Co210 O211 2.216 . S
Co210 O212 2.091 . S
Co210 O214 2.004 . S
Co210 O220 2.021 . S
Co210 O222 2.137 . S
Co210 O223 2.244 . S
O211 Co210 2.216 . S
O211 C218 1.247 . S
O212 Co210 2.091 . S
O212 C218 1.261 . S
C213 O222 1.247 . S
C213 O223 1.272 . S
O214 Co210 2.004 . S
O214 C219 1.259 . S
Co215 O216 2.061 . S
Co215 O221 2.052 . S
Co215 O223 2.135 . S
O216 Co215 2.061 . S
O216 C219 1.235 . S
C217 O220 1.238 . S
C217 O221 1.241 . S
C218 O211 1.247 . S
C218 O212 1.261 . S
C219 O214 1.259 . S
C219 O216 1.235 . S
O220 Co210 2.021 . S
O220 C217 1.238 . S
O221 Co215 2.052 . S
O221 C217 1.241 . S
O222 Co210 2.137 . S
O222 C213 1.247 . S
O223 Co210 2.244 . S
O223 C213 1.272 . S
O223 Co215 2.135 . S
Co224 O225 2.216 . S
Co224 O226 2.091 . S
Co224 O228 2.004 . S
Co224 O234 2.021 . S
Co224 O236 2.137 . S
Co224 O237 2.244 . S
O225 Co224 2.216 . S
O225 C232 1.247 . S
O226 Co224 2.091 . S
O226 C232 1.261 . S
C227 O236 1.247 . S
C227 O237 1.272 . S
O228 Co224 2.004 . S
O228 C233 1.259 . S
Co229 O230 2.061 . S
Co229 O235 2.052 . S
Co229 O237 2.135 . S
O230 Co229 2.061 . S
O230 C233 1.235 . S
C231 O234 1.238 . S
C231 O235 1.241 . S
C232 O225 1.247 . S
C232 O226 1.261 . S
C233 O228 1.259 . S
C233 O230 1.235 . S
O234 Co224 2.021 . S
O234 C231 1.238 . S
O235 Co229 2.052 . S
O235 C231 1.241 . S
O236 Co224 2.137 . S
O236 C227 1.247 . S
O237 Co224 2.244 . S
O237 C227 1.272 . S
O237 Co229 2.135 . S
Co238 O239 2.216 . S
Co238 O240 2.091 . S
Co238 O242 2.004 . S
Co238 O248 2.021 . S
Co238 O250 2.137 . S
Co238 O251 2.244 . S
O239 Co238 2.216 . S
O239 C246 1.247 . S
O240 Co238 2.091 . S
O240 C246 1.261 . S
C241 O250 1.247 . S
C241 O251 1.272 . S
O242 Co238 2.004 . S
O242 C247 1.259 . S
Co243 O244 2.061 . S
Co243 O249 2.052 . S
Co243 O251 2.135 . S
O244 Co243 2.061 . S
O244 C247 1.235 . S
C245 O248 1.238 . S
C245 O249 1.241 . S
C246 O239 1.247 . S
C246 O240 1.261 . S
C247 O242 1.259 . S
C247 O244 1.235 . S
O248 Co238 2.021 . S
O248 C245 1.238 . S
O249 Co243 2.052 . S
O249 C245 1.241 . S
O250 Co238 2.137 . S
O250 C241 1.247 . S
O251 Co238 2.244 . S
O251 C241 1.272 . S
O251 Co243 2.135 . S
C252 C253 1.387 . S
C252 H256 0.950 . S
C252 C261 1.390 . S
C253 C252 1.387 . S
C253 C255 1.387 . S
H254 C261 0.950 . S
C255 C253 1.387 . S
C255 C257 1.390 . S
C255 H259 0.950 . S
H256 C252 0.950 . S
C257 C255 1.390 . S
C257 C258 1.387 . S
C257 H260 0.950 . S
C258 C257 1.387 . S
C258 C261 1.387 . S
H259 C255 0.950 . S
H260 C257 0.950 . S
C261 C252 1.390 . S
C261 H254 0.950 . S
C261 C258 1.387 . S
C262 C263 1.387 . S
C262 H266 0.950 . S
C262 C271 1.390 . S
C263 C262 1.387 . S
C263 C265 1.387 . S
H264 C271 0.950 . S
C265 C263 1.387 . S
C265 C267 1.390 . S
C265 H269 0.950 . S
H266 C262 0.950 . S
C267 C265 1.390 . S
C267 C268 1.387 . S
C267 H270 0.950 . S
C268 C267 1.387 . S
C268 C271 1.387 . S
H269 C265 0.950 . S
H270 C267 0.950 . S
C271 C262 1.390 . S
C271 H264 0.950 . S
C271 C268 1.387 . S
C272 C273 1.387 . S
C272 H276 0.950 . S
C272 C281 1.390 . S
C273 C272 1.387 . S
C273 C275 1.387 . S
H274 C281 0.950 . S
C275 C273 1.387 . S
C275 C277 1.390 . S
C275 H279 0.950 . S
H276 C272 0.950 . S
C277 C275 1.390 . S
C277 C278 1.387 . S
C277 H280 0.950 1_655 S
C278 C277 1.387 . S
C278 C281 1.387 . S
H279 C275 0.950 . S
H280 C277 0.950 1_455 S
C281 C272 1.390 . S
C281 H274 0.950 . S
C281 C278 1.387 . S
C282 C283 1.387 . S
C282 H286 0.950 . S
C282 C291 1.390 . S
C283 C282 1.387 . S
C283 C285 1.387 . S
H284 C291 0.950 . S
C285 C283 1.387 . S
C285 C287 1.390 . S
C285 H289 0.950 . S
H286 C282 0.950 . S
C287 C285 1.390 . S
C287 C288 1.387 . S
C287 H290 0.950 . S
C288 C287 1.387 . S
C288 C291 1.387 . S
H289 C285 0.950 . S
H290 C287 0.950 . S
C291 C282 1.390 . S
C291 H284 0.950 . S
C291 C288 1.387 . S
C292 C293 1.387 . S
C292 H296 0.950 . S
C292 C301 1.390 . S
C293 C292 1.387 . S
C293 C295 1.387 . S
H294 C301 0.950 . S
C295 C293 1.387 . S
C295 C297 1.390 . S
C295 H299 0.950 . S
H296 C292 0.950 . S
C297 C295 1.390 . S
C297 C298 1.387 . S
C297 H300 0.950 . S
C298 C297 1.387 . S
C298 C301 1.387 . S
H299 C295 0.950 . S
H300 C297 0.950 . S
C301 C292 1.390 . S
C301 H294 0.950 . S
C301 C298 1.387 . S
C302 C303 1.387 . S
C302 H306 0.950 . S
C302 C311 1.390 . S
C303 C302 1.387 . S
C303 C305 1.387 . S
H304 C311 0.950 . S
C305 C303 1.387 . S
C305 C307 1.390 . S
C305 H309 0.950 . S
H306 C302 0.950 . S
C307 C305 1.390 . S
C307 C308 1.387 . S
C307 H310 0.950 . S
C308 C307 1.387 . S
C308 C311 1.387 . S
H309 C305 0.950 . S
H310 C307 0.950 . S
C311 C302 1.390 . S
C311 H304 0.950 . S
C311 C308 1.387 . S
C312 C313 1.387 . S
C312 H316 0.950 . S
C312 C321 1.390 1_655 S
C313 C312 1.387 . S
C313 C315 1.387 . S
H314 C321 0.950 . S
C315 C313 1.387 . S
C315 C317 1.390 1_655 S
C315 H319 0.950 . S
H316 C312 0.950 . S
C317 C315 1.390 1_455 S
C317 C318 1.387 . S
C317 H320 0.950 . S
C318 C317 1.387 . S
C318 C321 1.387 . S
H319 C315 0.950 . S
H320 C317 0.950 . S
C321 C312 1.390 1_455 S
C321 H314 0.950 . S
C321 C318 1.387 . S
C322 C323 1.387 . S
C322 H326 0.950 . S
C322 C331 1.390 . S
C323 C322 1.387 . S
C323 C325 1.387 . S
H324 C331 0.950 . S
C325 C323 1.387 . S
C325 C327 1.390 . S
C325 H329 0.950 . S
H326 C322 0.950 . S
C327 C325 1.390 . S
C327 C328 1.387 . S
C327 H330 0.950 . S
C328 C327 1.387 . S
C328 C331 1.387 . S
H329 C325 0.950 . S
H330 C327 0.950 . S
C331 C322 1.390 . S
C331 H324 0.950 . S
C331 C328 1.387 . S
C332 C333 1.387 . S
C332 H336 0.950 . S
C332 C341 1.390 1_545 S
C333 C332 1.387 . S
C333 C335 1.387 . S
H334 C341 0.950 . S
C335 C333 1.387 . S
C335 C337 1.390 1_545 S
C335 H339 0.950 . S
H336 C332 0.950 . S
C337 C335 1.390 1_565 S
C337 C338 1.387 . S
C337 H340 0.950 . S
C338 C337 1.387 . S
C338 C341 1.387 . S
H339 C335 0.950 . S
H340 C337 0.950 . S
C341 C332 1.390 1_565 S
C341 H334 0.950 . S
C341 C338 1.387 . S
C342 C343 1.387 . S
C342 H346 0.950 . S
C342 C351 1.390 1_455 S
C343 C342 1.387 . S
C343 C345 1.387 . S
H344 C351 0.950 . S
C345 C343 1.387 . S
C345 C347 1.390 1_455 S
C345 H349 0.950 . S
H346 C342 0.950 . S
C347 C345 1.390 1_655 S
C347 C348 1.387 . S
C347 H350 0.950 . S
C348 C347 1.387 . S
C348 C351 1.387 . S
H349 C345 0.950 . S
H350 C347 0.950 . S
C351 C342 1.390 1_655 S
C351 H344 0.950 . S
C351 C348 1.387 . S
C352 C353 1.387 . S
C352 H356 0.950 . S
C352 C361 1.390 . S
C353 C352 1.387 . S
C353 C355 1.387 . S
H354 C361 0.950 . S
C355 C353 1.387 . S
C355 C357 1.390 . S
C355 H359 0.950 . S
H356 C352 0.950 . S
C357 C355 1.390 . S
C357 C358 1.387 . S
C357 H360 0.950 . S
C358 C357 1.387 . S
C358 C361 1.387 . S
H359 C355 0.950 . S
H360 C357 0.950 . S
C361 C352 1.390 . S
C361 H354 0.950 . S
C361 C358 1.387 . S
C362 C363 1.387 . S
C362 H366 0.950 . S
C362 C371 1.390 1_545 S
C363 C362 1.387 . S
C363 C365 1.387 . S
H364 C371 0.950 . S
C365 C363 1.387 . S
C365 C367 1.390 1_545 S
C365 H369 0.950 . S
H366 C362 0.950 . S
C367 C365 1.390 1_565 S
C367 C368 1.387 . S
C367 H370 0.950 . S
C368 C367 1.387 . S
C368 C371 1.387 . S
H369 C365 0.950 . S
H370 C367 0.950 . S
C371 C362 1.390 1_565 S
C371 H364 0.950 . S
C371 C368 1.387 . S
C372 C373 1.387 . S
C372 H376 0.950 . S
C372 C381 1.390 1_565 S
C373 C372 1.387 . S
C373 C375 1.387 . S
H374 C381 0.950 . S
C375 C373 1.387 . S
C375 C377 1.390 1_565 S
C375 H379 0.950 . S
H376 C372 0.950 . S
C377 C375 1.390 1_545 S
C377 C378 1.387 . S
C377 H380 0.950 . S
C378 C377 1.387 . S
C378 C381 1.387 . S
H379 C375 0.950 . S
H380 C377 0.950 . S
C381 C372 1.390 1_545 S
C381 H374 0.950 . S
C381 C378 1.387 . S
C382 C383 1.387 . S
C382 H386 0.950 . S
C382 C391 1.390 1_455 S
C383 C382 1.387 . S
C383 C385 1.387 . S
H384 C391 0.950 . S
C385 C383 1.387 . S
C385 C387 1.390 1_455 S
C385 H389 0.950 . S
H386 C382 0.950 . S
C387 C385 1.390 1_655 S
C387 C388 1.387 . S
C387 H390 0.950 . S
C388 C387 1.387 . S
C388 C391 1.387 . S
H389 C385 0.950 . S
H390 C387 0.950 . S
C391 C382 1.390 1_655 S
C391 H384 0.950 . S
C391 C388 1.387 . S
C392 C393 1.387 . S
C392 H396 0.950 . S
C392 C401 1.390 . S
C393 C392 1.387 . S
C393 C395 1.387 . S
H394 C401 0.950 . S
C395 C393 1.387 . S
C395 C397 1.390 . S
C395 H399 0.950 . S
H396 C392 0.950 . S
C397 C395 1.390 . S
C397 C398 1.387 . S
C397 H400 0.950 . S
C398 C397 1.387 . S
C398 C401 1.387 . S
H399 C395 0.950 . S
H400 C397 0.950 . S
C401 C392 1.390 . S
C401 H394 0.950 . S
C401 C398 1.387 . S
C402 C403 1.387 . S
C402 H406 0.950 . S
C402 C411 1.390 . S
C403 C402 1.387 . S
C403 C405 1.387 . S
H404 C411 0.950 . S
C405 C403 1.387 . S
C405 C407 1.390 . S
C405 H409 0.950 . S
H406 C402 0.950 . S
C407 C405 1.390 . S
C407 C408 1.387 . S
C407 H410 0.950 . S
C408 C407 1.387 . S
C408 C411 1.387 . S
H409 C405 0.950 . S
H410 C407 0.950 . S
C411 C402 1.390 . S
C411 H404 0.950 . S
C411 C408 1.387 . S
C412 C413 1.387 . S
C412 H416 0.950 . S
C412 C421 1.390 . S
C413 C412 1.387 . S
C413 C415 1.387 . S
H414 C421 0.950 . S
C415 C413 1.387 . S
C415 C417 1.390 . S
C415 H419 0.950 . S
H416 C412 0.950 . S
C417 C415 1.390 . S
C417 C418 1.387 . S
C417 H420 0.950 . S
C418 C417 1.387 . S
C418 C421 1.387 . S
H419 C415 0.950 . S
H420 C417 0.950 . S
C421 C412 1.390 . S
C421 H414 0.950 . S
C421 C418 1.387 . S
C422 C423 1.387 . S
C422 H426 0.950 . S
C422 C431 1.390 . S
C423 C422 1.387 . S
C423 C425 1.387 . S
H424 C431 0.950 . S
C425 C423 1.387 . S
C425 C427 1.390 . S
C425 H429 0.950 . S
H426 C422 0.950 . S
C427 C425 1.390 . S
C427 C428 1.387 . S
C427 H430 0.950 . S
C428 C427 1.387 . S
C428 C431 1.387 . S
H429 C425 0.950 . S
H430 C427 0.950 . S
C431 C422 1.390 . S
C431 H424 0.950 . S
C431 C428 1.387 . S
C432 C433 1.387 . S
C432 H436 0.950 . S
C432 C441 1.390 . S
C433 C432 1.387 . S
C433 C435 1.387 . S
H434 C441 0.950 . S
C435 C433 1.387 . S
C435 C437 1.390 . S
C435 H439 0.950 . S
H436 C432 0.950 . S
C437 C435 1.390 . S
C437 C438 1.387 . S
C437 H440 0.950 . S
C438 C437 1.387 . S
C438 C441 1.387 . S
H439 C435 0.950 . S
H440 C437 0.950 . S
C441 C432 1.390 . S
C441 H434 0.950 . S
C441 C438 1.387 . S
C442 C443 1.387 . S
C442 H446 0.950 . S
C442 C451 1.390 . S
C443 C442 1.387 . S
C443 C445 1.387 . S
H444 C451 0.950 . S
C445 C443 1.387 . S
C445 C447 1.390 . S
C445 H449 0.950 . S
H446 C442 0.950 . S
C447 C445 1.390 . S
C447 C448 1.387 . S
C447 H450 0.950 . S
C448 C447 1.387 . S
C448 C451 1.387 . S
H449 C445 0.950 . S
H450 C447 0.950 . S
C451 C442 1.390 . S
C451 H444 0.950 . S
C451 C448 1.387 . S
C452 C453 1.387 . S
C452 H456 0.950 . S
C452 C461 1.390 . S
C453 C452 1.387 . S
C453 C455 1.387 . S
H454 C461 0.950 . S
C455 C453 1.387 . S
C455 C457 1.390 . S
C455 H459 0.950 . S
H456 C452 0.950 . S
C457 C455 1.390 . S
C457 C458 1.387 . S
C457 H460 0.950 . S
C458 C457 1.387 . S
C458 C461 1.387 . S
H459 C455 0.950 . S
H460 C457 0.950 . S
C461 C452 1.390 . S
C461 H454 0.950 . S
C461 C458 1.387 . S
C462 C463 1.387 . S
C462 H466 0.950 . S
C462 C471 1.390 . S
C463 C462 1.387 . S
C463 C465 1.387 . S
H464 C471 0.950 . S
C465 C463 1.387 . S
C465 C467 1.390 . S
C465 H469 0.950 . S
H466 C462 0.950 . S
C467 C465 1.390 . S
C467 C468 1.387 . S
C467 H470 0.950 . S
C468 C467 1.387 . S
C468 C471 1.387 . S
H469 C465 0.950 . S
H470 C467 0.950 . S
C471 C462 1.390 . S
C471 H464 0.950 . S
C471 C468 1.387 . S
C472 C473 1.387 . S
C472 H476 0.950 . S
C472 C481 1.390 . S
C473 C472 1.387 . S
C473 C475 1.387 . S
H474 C481 0.950 . S
C475 C473 1.387 . S
C475 C477 1.390 . S
C475 H479 0.950 . S
H476 C472 0.950 . S
C477 C475 1.390 . S
C477 C478 1.387 . S
C477 H480 0.950 . S
C478 C477 1.387 . S
C478 C481 1.387 . S
H479 C475 0.950 . S
H480 C477 0.950 . S
C481 C472 1.390 . S
C481 H474 0.950 . S
C481 C478 1.387 . S
C482 C483 1.387 . S
C482 H486 0.950 . S
C482 C491 1.390 . S
C483 C482 1.387 . S
C483 C485 1.387 . S
H484 C491 0.950 . S
C485 C483 1.387 . S
C485 C487 1.390 . S
C485 H489 0.950 . S
H486 C482 0.950 . S
C487 C485 1.390 . S
C487 C488 1.387 . S
C487 H490 0.950 . S
C488 C487 1.387 . S
C488 C491 1.387 . S
H489 C485 0.950 . S
H490 C487 0.950 . S
C491 C482 1.390 . S
C491 H484 0.950 . S
C491 C488 1.387 . S
C492 C493 1.387 . S
C492 H496 0.950 . S
C492 C501 1.390 . S
C493 C492 1.387 . S
C493 C495 1.387 . S
H494 C501 0.950 . S
C495 C493 1.387 . S
C495 C497 1.390 . S
C495 H499 0.950 . S
H496 C492 0.950 . S
C497 C495 1.390 . S
C497 C498 1.387 . S
C497 H500 0.950 . S
C498 C497 1.387 . S
C498 C501 1.387 . S
H499 C495 0.950 . S
H500 C497 0.950 . S
C501 C492 1.390 . S
C501 H494 0.950 . S
C501 C498 1.387 . S
C502 C503 1.387 . S
C502 H506 0.950 . S
C502 C511 1.390 . S
C503 C502 1.387 . S
C503 C505 1.387 . S
H504 C511 0.950 . S
C505 C503 1.387 . S
C505 C507 1.390 . S
C505 H509 0.950 . S
H506 C502 0.950 . S
C507 C505 1.390 . S
C507 C508 1.387 . S
C507 H510 0.950 . S
C508 C507 1.387 . S
C508 C511 1.387 . S
H509 C505 0.950 . S
H510 C507 0.950 . S
C511 C502 1.390 . S
C511 H504 0.950 . S
C511 C508 1.387 . S
C512 C513 1.387 . S
C512 H516 0.950 . S
C512 C521 1.390 . S
C513 C512 1.387 . S
C513 C515 1.387 . S
H514 C521 0.950 . S
C515 C513 1.387 . S
C515 C517 1.390 . S
C515 H519 0.950 . S
H516 C512 0.950 . S
C517 C515 1.390 . S
C517 C518 1.387 . S
C517 H520 0.950 . S
C518 C517 1.387 . S
C518 C521 1.387 . S
H519 C515 0.950 . S
H520 C517 0.950 . S
C521 C512 1.390 . S
C521 H514 0.950 . S
C521 C518 1.387 . S
C522 C523 1.387 . S
C522 H526 0.950 . S
C522 C531 1.390 1_554 S
C523 C522 1.387 . S
C523 C525 1.387 . S
H524 C531 0.950 . S
C525 C523 1.387 . S
C525 C527 1.390 1_554 S
C525 H529 0.950 . S
H526 C522 0.950 . S
C527 C525 1.390 1_556 S
C527 C528 1.387 . S
C527 H530 0.950 . S
C528 C527 1.387 . S
C528 C531 1.387 . S
H529 C525 0.950 . S
H530 C527 0.950 . S
C531 C522 1.390 1_556 S
C531 H524 0.950 . S
C531 C528 1.387 . S
C532 C533 1.387 . S
C532 H536 0.950 . S
C532 C541 1.390 1_546 S
C533 C532 1.387 . S
C533 C535 1.387 . S
H534 C541 0.950 . S
C535 C533 1.387 . S
C535 C537 1.390 1_546 S
C535 H539 0.950 . S
H536 C532 0.950 . S
C537 C535 1.390 1_564 S
C537 C538 1.387 . S
C537 H540 0.950 . S
C538 C537 1.387 . S
C538 C541 1.387 . S
H539 C535 0.950 . S
H540 C537 0.950 . S
C541 C532 1.390 1_564 S
C541 H534 0.950 . S
C541 C538 1.387 . S
C542 C543 1.387 . S
C542 H546 0.950 . S
C542 C551 1.390 1_556 S
C543 C542 1.387 . S
C543 C545 1.387 1_655 S
H544 C551 0.950 . S
C545 C543 1.387 1_455 S
C545 C547 1.390 1_556 S
C545 H549 0.950 . S
H546 C542 0.950 . S
C547 C545 1.390 1_554 S
C547 C548 1.387 . S
C547 H550 0.950 . S
C548 C547 1.387 . S
C548 C551 1.387 1_455 S
H549 C545 0.950 . S
H550 C547 0.950 . S
C551 C542 1.390 1_554 S
C551 H544 0.950 . S
C551 C548 1.387 1_655 S
C552 C553 1.387 . S
C552 H556 0.950 . S
C552 C561 1.390 . S
C553 C552 1.387 . S
C553 C555 1.387 . S
H554 C561 0.950 . S
C555 C553 1.387 . S
C555 C557 1.390 . S
C555 H559 0.950 . S
H556 C552 0.950 . S
C557 C555 1.390 . S
C557 C558 1.387 . S
C557 H560 0.950 . S
C558 C557 1.387 . S
C558 C561 1.387 . S
H559 C555 0.950 . S
H560 C557 0.950 . S
C561 C552 1.390 . S
C561 H554 0.950 . S
C561 C558 1.387 . S
C562 C563 1.387 . S
C562 H566 0.950 . S
C562 C571 1.390 . S
C563 C562 1.387 . S
C563 C565 1.387 . S
H564 C571 0.950 . S
C565 C563 1.387 . S
C565 C567 1.390 . S
C565 H569 0.950 . S
H566 C562 0.950 . S
C567 C565 1.390 . S
C567 C568 1.387 . S
C567 H570 0.950 . S
C568 C567 1.387 . S
C568 C571 1.387 . S
H569 C565 0.950 . S
H570 C567 0.950 . S
C571 C562 1.390 . S
C571 H564 0.950 . S
C571 C568 1.387 . S
C572 C573 1.387 . S
C572 H576 0.950 . S
C572 C581 1.390 . S
C573 C572 1.387 . S
C573 C575 1.387 . S
H574 C581 0.950 . S
C575 C573 1.387 . S
C575 C577 1.390 . S
C575 H579 0.950 . S
H576 C572 0.950 . S
C577 C575 1.390 . S
C577 C578 1.387 . S
C577 H580 0.950 . S
C578 C577 1.387 . S
C578 C581 1.387 . S
H579 C575 0.950 . S
H580 C577 0.950 . S
C581 C572 1.390 . S
C581 H574 0.950 . S
C581 C578 1.387 . S
C582 C583 1.387 . S
C582 H586 0.950 . S
C582 C591 1.390 . S
C583 C582 1.387 . S
C583 C585 1.387 . S
H584 C591 0.950 . S
C585 C583 1.387 . S
C585 C587 1.390 . S
C585 H589 0.950 . S
H586 C582 0.950 . S
C587 C585 1.390 . S
C587 C588 1.387 . S
C587 H590 0.950 . S
C588 C587 1.387 . S
C588 C591 1.387 . S
H589 C585 0.950 . S
H590 C587 0.950 . S
C591 C582 1.390 . S
C591 H584 0.950 . S
C591 C588 1.387 . S
C592 C593 1.387 . S
C592 H596 0.950 . S
C592 C601 1.390 . S
C593 C592 1.387 . S
C593 C595 1.387 . S
H594 C601 0.950 . S
C595 C593 1.387 . S
C595 C597 1.390 . S
C595 H599 0.950 . S
H596 C592 0.950 . S
C597 C595 1.390 . S
C597 C598 1.387 . S
C597 H600 0.950 . S
C598 C597 1.387 . S
C598 C601 1.387 . S
H599 C595 0.950 . S
H600 C597 0.950 . S
C601 C592 1.390 . S
C601 H594 0.950 . S
C601 C598 1.387 . S
C602 C603 1.387 . S
C602 H606 0.950 . S
C602 C611 1.390 . S
C603 C602 1.387 . S
C603 C605 1.387 . S
H604 C611 0.950 . S
C605 C603 1.387 . S
C605 C607 1.390 . S
C605 H609 0.950 . S
H606 C602 0.950 . S
C607 C605 1.390 . S
C607 C608 1.387 . S
C607 H610 0.950 . S
C608 C607 1.387 . S
C608 C611 1.387 . S
H609 C605 0.950 . S
H610 C607 0.950 . S
C611 C602 1.390 . S
C611 H604 0.950 . S
C611 C608 1.387 . S
C253 C148 1.313 . S
C258 C8 1.313 . S
C263 C22 1.313 . S
C268 C162 1.314 . S
C273 C134 1.314 . S
C278 C36 1.315 . S
C283 C204 1.312 . S
C288 C50 1.312 . S
C293 C64 1.313 . S
C298 C176 1.313 . S
C303 C190 1.312 . S
C308 C78 1.312 . S
C313 C92 1.314 . S
C318 C232 1.313 . S
C323 C246 1.313 . S
C328 C106 1.314 . S
C333 C120 1.312 . S
C338 C218 1.312 . S
C343 C9 1.190 . S
C348 C17 1.296 . S
C353 C23 1.193 . S
C358 C31 1.294 . S
C363 C3 1.295 . S
C368 C37 1.187 . S
C373 C73 1.295 . S
C378 C51 1.187 . S
C383 C45 1.296 . S
C388 C65 1.187 . S
C393 C79 1.193 . S
C398 C59 1.294 . S
C403 C93 1.188 . S
C408 C101 1.295 . S
C413 C107 1.189 . S
C418 C115 1.294 . S
C423 C87 1.294 . S
C428 C121 1.192 . S
C433 C157 1.295 . S
C438 C135 1.193 . S
C443 C129 1.296 . S
C448 C149 1.187 . S
C453 C143 1.295 . S
C458 C163 1.188 . S
C463 C185 1.296 . S
C468 C177 1.187 . S
C473 C199 1.294 . S
C478 C191 1.188 . S
C483 C171 1.294 . S
C488 C205 1.193 . S
C493 C219 1.193 . S
C498 C241 1.295 . S
C503 C233 1.193 . S
C508 C213 1.294 . S
C513 C247 1.187 . S
C518 C227 1.295 . S
C523 C7 1.615 . S
C528 C49 1.614 . S
C533 C63 1.614 . S
C538 C21 1.614 . S
C543 C77 1.615 . S
C548 C35 1.617 . S
C553 C133 1.617 . S
C558 C91 1.613 . S
C563 C147 1.615 . S
C568 C105 1.614 . S
C573 C119 1.616 . S
C578 C161 1.616 . S
C583 C217 1.616 . S
C588 C175 1.616 . S
C593 C231 1.614 . S
C598 C189 1.614 . S
C603 C245 1.614 . S
C608 C203 1.617 . S
