# Generated by pormake.
# Topology qdl, (4)-cn, num edge types: 1
# Building blocks:
#     Node 0, Type 0, BuildingBlock: MUDLON_clean_sbu_0, # of connection points: 4
#     Node 1, Type 0, BuildingBlock: MUDLON_clean_sbu_0, # of connection points: 4
#     Node 2, Type 0, BuildingBlock: MUDLON_clean_sbu_0, # of connection points: 4
#     Node 3, Type 0, BuildingBlock: MUDLON_clean_sbu_0, # of connection points: 4
#     Node 4, Type 0, BuildingBlock: MUDLON_clean_sbu_0, # of connection points: 4
#     Node 5, Type 0, BuildingBlock: MUDLON_clean_sbu_0, # of connection points: 4
#     Edge 6, Type (0, 0), BuildingBlock: EZIPEK_clean_linker_0, # of connection points: 2
#     Edge 7, Type (0, 0), BuildingBlock: EZIPEK_clean_linker_0, # of connection points: 2
#     Edge 8, Type (0, 0), BuildingBlock: EZIPEK_clean_linker_0, # of connection points: 2
#     Edge 9, Type (0, 0), BuildingBlock: EZIPEK_clean_linker_0, # of connection points: 2
#     Edge 10, Type (0, 0), BuildingBlock: EZIPEK_clean_linker_0, # of connection points: 2
#     Edge 11, Type (0, 0), BuildingBlock: EZIPEK_clean_linker_0, # of connection points: 2
#     Edge 12, Type (0, 0), BuildingBlock: EZIPEK_clean_linker_0, # of connection points: 2
#     Edge 13, Type (0, 0), BuildingBlock: EZIPEK_clean_linker_0, # of connection points: 2
#     Edge 14, Type (0, 0), BuildingBlock: EZIPEK_clean_linker_0, # of connection points: 2
#     Edge 15, Type (0, 0), BuildingBlock: EZIPEK_clean_linker_0, # of connection points: 2
#     Edge 16, Type (0, 0), BuildingBlock: EZIPEK_clean_linker_0, # of connection points: 2
#     Edge 17, Type (0, 0), BuildingBlock: EZIPEK_clean_linker_0, # of connection points: 2
# Relax obj value: 0.001
# Max RMSD: 0.014
# Mean RMSD: 0.012
data_MOF--net-qdl--node1-MUDLON_clean_sbu_0--edge1-EZIPEK_clean_linker_0
_symmetry_space_group_name_H-M    P1
_symmetry_Int_Tables_number       1
_symmetry_cell_setting            triclinic
loop_
_symmetry_equiv_pos_as_xyz
'x, y, z'
_cell_length_a     11.258321
_cell_length_b     11.194874
_cell_length_c     66.131369
_cell_angle_alpha  90.055312
_cell_angle_beta   90.996203
_cell_angle_gamma 119.58255
loop_
_atom_site_label
_atom_site_type_symbol
_atom_site_fract_x
_atom_site_fract_y
_atom_site_fract_z
_atom_type_partial_charge
Mg0 Mg 0.15868 0.15024 0.11057 0.0
C1 C 0.20519 0.92544 0.11006 0.0
O2 O 0.07456 0.87821 0.11308 0.0
C3 C 0.20563 0.42688 0.10107 0.0
O4 O 0.09015 0.34782 0.09134 0.0
C5 C 0.14958 0.10934 0.1543 0.0
O6 O 0.27924 0.16406 0.14987 0.0
O7 O 0.06303 0.08882 0.14015 0.0
O8 O 0.28378 0.05414 0.10861 0.0
O9 O 0.03206 0.07369 0.08308 0.0
C10 C 0.10505 0.10658 0.06736 0.0
O11 O 0.23785 0.18617 0.06948 0.0
O12 O 0.26678 0.37261 0.1103 0.0
Mg13 Mg 0.98629 0.22246 0.44674 0.0
C14 C 0.74515 0.26759 0.44089 0.0
O15 O 0.68851 0.13543 0.43696 0.0
C16 C 0.26474 0.28273 0.4493 0.0
O17 O 0.18949 0.15125 0.45308 0.0
C18 C 0.83998 0.07084 0.48574 0.0
O19 O 0.72937 0.05641 0.47652 0.0
O20 O 0.95233 0.12468 0.47643 0.0
O21 O 0.873 0.3355 0.44471 0.0
O22 O 0.95917 0.09752 0.41962 0.0
C23 C 0.92225 0.13128 0.4033 0.0
O24 O 0.8794 0.22071 0.4043 0.0
O25 O 0.20638 0.35388 0.44631 0.0
Mg26 Mg 1.01929 0.80046 0.7692 0.0
C27 C 0.79599 0.5183 0.75769 0.0
O28 O 0.76589 0.59287 0.74561 0.0
C29 C 0.2898 0.03167 0.76755 0.0
O30 O 0.20617 0.08004 0.77044 0.0
C31 C 0.98882 0.78264 0.81356 0.0
O32 O 0.99578 0.67233 0.80883 0.0
O33 O 0.99142 0.86121 0.79945 0.0
O34 O 0.90561 0.57638 0.76834 0.0
O35 O 0.95139 0.8788 0.74389 0.0
C36 C 1.00706 0.88109 0.72718 0.0
O37 O 0.09179 0.8323 0.72662 0.0
O38 O 0.24064 0.90213 0.76649 0.0
Mg39 Mg 0.03123 0.2492 0.61112 0.0
C40 C 0.30255 0.28219 0.61536 0.0
O41 O 0.2194 0.14889 0.61523 0.0
C42 C 0.80003 0.2874 0.61465 0.0
O43 O 0.75221 0.15512 0.61192 0.0
C44 C 0.89934 0.05778 0.57265 0.0
O45 O 0.83205 0.95412 0.58483 0.0
O46 O 0.98119 0.17654 0.57985 0.0
O47 O 0.25281 0.36215 0.61402 0.0
O48 O 0.95918 0.09779 0.63525 0.0
C49 C 1.01528 0.1491 0.65235 0.0
O50 O 0.10364 0.2812 0.65343 0.0
O51 O 0.92849 0.36697 0.61568 0.0
Mg52 Mg 0.04897 0.86124 0.94392 0.0
C53 C 0.31504 0.09797 0.94517 0.0
O54 O 0.22775 0.14161 0.94165 0.0
C55 C 0.8186 0.59085 0.95293 0.0
O56 O 0.7766 0.67657 0.95826 0.0
C57 C 1.0247 0.82554 0.90008 0.0
O58 O 0.05942 0.73626 0.90674 0.0
O59 O 1.00741 0.9005 0.91289 0.0
O60 O 0.27033 0.9695 0.94673 0.0
O61 O 0.99028 0.94341 0.96944 0.0
C62 C 1.0283 0.91438 0.98609 0.0
O63 O 0.08661 0.83768 0.98564 0.0
O64 O 0.9398 0.63866 0.94669 0.0
Mg65 Mg 0.174 0.05635 0.28326 0.0
C66 C 0.30871 0.35832 0.29606 0.0
O67 O 0.29739 0.31025 0.31443 0.0
C68 C 0.20467 0.81431 0.29111 0.0
O69 O 0.07516 0.77175 0.29444 0.0
C70 C 0.15477 0.04337 0.23923 0.0
O71 O 0.28616 0.10394 0.24356 0.0
O72 O 0.07087 1.00301 0.25367 0.0
O73 O 0.29322 0.28034 0.28106 0.0
O74 O 0.0346 1.01598 0.30831 0.0
C75 C 0.0761 1.012 0.32619 0.0
O76 O 0.19405 1.01624 0.32877 0.0
O77 O 0.28177 0.93931 0.2864 0.0
C78 C 0.24198 0.74779 0.12621 0.0
C79 C 0.25512 0.82643 0.10886 0.0
C80 C 0.28606 0.66319 0.08807 0.0
C81 C 0.24548 0.57214 0.10464 0.0
N82 N 0.17048 0.52127 0.13916 0.0
N83 N 0.29058 0.86321 0.07307 0.0
C84 C 0.22253 0.61358 0.1238 0.0
C85 C 0.28059 0.78707 0.08975 0.0
N86 N 0.24471 0.80092 0.14493 0.0
N87 N 0.32841 0.63008 0.07076 0.0
H88 H 0.29116 0.95651 0.07395 0.0
H89 H 0.29183 0.83111 0.05833 0.0
H90 H 0.333 0.53961 0.06926 0.0
H91 H 0.36993 0.69687 0.05869 0.0
H92 H 0.24663 0.75323 0.15836 0.0
H93 H 0.25914 0.89977 0.14693 0.0
H94 H 0.1377 0.54167 0.1527 0.0
H95 H 0.14826 0.41963 0.13773 0.0
C96 C 0.50324 0.3712 0.46245 0.0
C97 C 0.41171 0.33751 0.44572 0.0
C98 C 0.57275 0.31509 0.42386 0.0
C99 C 0.65642 0.33159 0.44113 0.0
N100 N 0.7296 0.42688 0.47469 0.0
N101 N 0.37223 0.31665 0.40974 0.0
C102 C 0.63155 0.37789 0.45972 0.0
C103 C 0.45191 0.3241 0.42607 0.0
N104 N 0.46381 0.38937 0.48109 0.0
N105 N 0.60754 0.28633 0.40555 0.0
H106 H 0.28325 0.32282 0.41117 0.0
H107 H 0.39808 0.31447 0.39478 0.0
H108 H 0.7014 0.29163 0.40338 0.0
H109 H 0.54497 0.25716 0.39266 0.0
H110 H 0.51757 0.3973 0.49446 0.0
H111 H 0.37313 0.39143 0.48319 0.0
H112 H 0.72162 0.471 0.48809 0.0
H113 H 0.82559 0.43656 0.47284 0.0
C114 C 0.64138 0.27387 0.74702 0.0
C115 C 0.68716 0.37705 0.76228 0.0
C116 C 0.49827 0.22174 0.78363 0.0
C117 C 0.43848 0.13048 0.76698 0.0
N118 N 0.45227 0.06533 0.73272 0.0
N119 N 0.65337 0.45441 0.79475 0.0
C120 C 0.51112 0.1536 0.74874 0.0
C121 C 0.61588 0.35152 0.78071 0.0
N122 N 0.72271 0.29165 0.73091 0.0
N123 N 0.44087 0.18429 0.80223 0.0
H124 H 0.73658 0.55252 0.79311 0.0
H125 H 0.59531 0.44629 0.8073 0.0
H126 H 0.35389 0.08974 0.80468 0.0
H127 H 0.4866 0.24016 0.81544 0.0
H128 H 0.70128 0.21572 0.72009 0.0
H129 H 0.81834 0.37901 0.72939 0.0
H130 H 0.49156 0.08523 0.71822 0.0
H131 H 0.36006 0.97383 0.73376 0.0
C132 C 0.53488 0.38336 0.60021 0.0
C133 C 0.45116 0.33411 0.61742 0.0
C134 C 0.62438 0.30066 0.63531 0.0
C135 C 0.70195 0.33719 0.61747 0.0
N136 N 0.75441 0.44864 0.58522 0.0
N137 N 0.43011 0.28555 0.65297 0.0
C138 C 0.66548 0.39204 0.60073 0.0
C139 C 0.50139 0.30668 0.63559 0.0
N140 N 0.48547 0.41246 0.583 0.0
N141 N 0.66573 0.25406 0.65157 0.0
H142 H 0.34051 0.29124 0.65342 0.0
H143 H 0.46474 0.27443 0.66715 0.0
H144 H 0.75908 0.25545 0.65201 0.0
H145 H 0.60692 0.21033 0.66426 0.0
H146 H 0.53386 0.43337 0.56915 0.0
H147 H 0.39203 0.41076 0.58239 0.0
H148 H 0.73948 0.49986 0.57318 0.0
H149 H 0.8496 0.45399 0.58526 0.0
C150 C 0.52291 0.27774 0.92853 0.0
C151 C 0.46262 0.2 0.94607 0.0
C152 C 0.66597 0.35632 0.96627 0.0
C153 C 0.71461 0.44528 0.94952 0.0
N154 N 0.69338 0.49376 0.91455 0.0
N155 N 0.47369 0.16155 0.98173 0.0
C156 C 0.64587 0.40533 0.93045 0.0
C157 C 0.53467 0.23634 0.96493 0.0
N158 N 0.46089 0.22966 0.91006 0.0
N159 N 0.74539 0.38817 0.98346 0.0
H160 H 0.37899 0.07189 0.98117 0.0
H161 H 0.51321 0.19124 0.99636 0.0
H162 H 0.84163 0.47587 0.98463 0.0
H163 H 0.72195 0.32315 0.99578 0.0
H164 H 0.50554 0.27295 0.89637 0.0
H165 H 0.36785 0.13917 0.90837 0.0
H166 H 0.63923 0.4797 0.90102 0.0
H167 H 0.78536 0.58611 0.91522 0.0
C168 C 0.38783 0.60939 0.30269 0.0
C169 C 0.29563 0.48321 0.29287 0.0
C170 C 0.17466 0.59326 0.2776 0.0
C171 C 0.25118 0.711 0.28999 0.0
N172 N 0.42552 0.82866 0.31575 0.0
N173 N 0.07893 0.34838 0.27494 0.0
C174 C 0.35772 0.7194 0.3028 0.0
C175 C 0.18356 0.4733 0.28122 0.0
N176 N 0.50479 0.62462 0.31166 0.0
N177 N 0.09378 0.59618 0.26217 0.0
H178 H 0.07308 0.2551 0.27851 0.0
H179 H 0.98934 0.33626 0.26815 0.0
H180 H 0.0876 0.68391 0.25872 0.0
H181 H 0.04581 0.5171 0.2515 0.0
H182 H 0.5823 0.71795 0.3174 0.0
H183 H 0.52978 0.54641 0.31172 0.0
H184 H 0.49337 0.83314 0.32703 0.0
H185 H 0.40681 0.91101 0.31616 0.0
C186 C 0.06365 0.93279 0.20507 0.0
C187 C 0.11116 0.0487 0.21812 0.0
C188 C 0.15239 0.19891 0.18911 0.0
C189 C 0.11107 0.0845 0.17589 0.0
N190 N 0.99891 0.83952 0.17084 0.0
N191 N 0.16138 0.28163 0.22336 0.0
C192 C 0.05588 0.94992 0.18377 0.0
C193 C 0.14185 0.1783 0.21033 0.0
N194 N 0.03294 0.8084 0.21301 0.0
N195 N 0.20837 0.32829 0.18139 0.0
H196 H 0.15426 0.26866 0.239 0.0
H197 H 0.17163 0.37505 0.21872 0.0
H198 H 0.21455 0.3468 0.16592 0.0
H199 H 0.2558 0.41752 0.19019 0.0
H200 H 1.0126 0.7225 0.20435 0.0
H201 H 0.03282 0.7927 0.22856 0.0
H202 H 0.9477 0.73792 0.17554 0.0
H203 H 0.99396 0.84992 0.15522 0.0
C204 C 0.81553 0.12627 0.54202 0.0
C205 C 0.86645 0.044 0.5506 0.0
C206 C 0.87385 0.95819 0.51666 0.0
C207 C 0.84183 0.05531 0.50806 0.0
N208 N 0.80435 0.24836 0.51263 0.0
N209 N 0.95302 0.88717 0.54629 0.0
C210 C 0.81756 0.14316 0.52075 0.0
C211 C 0.89676 0.96009 0.538 0.0
N212 N 0.76212 0.18599 0.5542 0.0
N213 N 0.87978 0.86274 0.50446 0.0
H214 H 0.96961 0.88494 0.56181 0.0
H215 H 0.9915 0.83622 0.53775 0.0
H216 H 0.86403 0.85938 0.48882 0.0
H217 H 0.88887 0.78037 0.50993 0.0
H218 H 0.71107 0.2358 0.54865 0.0
H219 H 0.75577 0.17317 0.56984 0.0
H220 H 0.8022 0.3249 0.52132 0.0
H221 H 0.80901 0.26743 0.49718 0.0
C222 C 0.13013 0.85833 0.84542 0.0
C223 C 1.00587 0.82577 0.83515 0.0
C224 C 0.8985 0.81744 0.86757 0.0
C225 C 1.02167 0.84549 0.87786 0.0
N226 N 0.26301 0.92366 0.87673 0.0
N227 N 0.78211 0.80324 0.83551 0.0
C228 C 0.14015 0.87608 0.86677 0.0
C229 C 0.8937 0.81602 0.84595 0.0
N230 N 0.23732 0.86733 0.83475 0.0
N231 N 0.78392 0.78324 0.8784 0.0
H232 H 0.77464 0.79809 0.81976 0.0
H233 H 0.70189 0.8084 0.84225 0.0
H234 H 0.78393 0.78484 0.89416 0.0
H235 H 0.68697 0.74572 0.87192 0.0
H236 H 0.32388 0.87182 0.84142 0.0
H237 H 0.23746 0.86394 0.81899 0.0
H238 H 0.35622 0.96353 0.86952 0.0
H239 H 0.27361 0.93348 0.89241 0.0
C240 C 0.08243 0.15133 0.03094 0.0
C241 C 0.04684 0.05483 0.04678 0.0
C242 C 0.94884 0.86799 1.02163 0.0
C243 C 1.01114 0.96496 1.00602 0.0
N244 N 0.14461 0.20179 0.99587 0.0
N245 N 0.95202 0.81856 0.05717 0.0
C246 C 0.07753 0.10773 1.01058 0.0
C247 C 0.97884 0.912 0.04219 0.0
N248 N 0.12132 0.28496 0.03546 0.0
N249 N 0.8612 0.7335 1.01672 0.0
H250 H 0.97225 0.8453 0.07242 0.0
H251 H 0.91871 0.71513 0.05433 0.0
H252 H 0.83611 0.69919 1.00175 0.0
H253 H 0.80307 0.6598 1.02733 0.0
H254 H 0.13692 0.3579 1.02452 0.0
H255 H 0.12391 0.31894 0.05025 0.0
H256 H 0.20906 0.30592 0.9989 0.0
H257 H 0.14394 0.17516 0.98077 0.0
C258 C 0.95844 0.92688 0.35947 0.0
C259 C 1.0079 0.02846 0.34421 0.0
C260 C 1.01351 0.19638 0.36827 0.0
C261 C 0.95171 0.09296 0.38313 0.0
N262 N 0.83917 0.8517 0.3912 0.0
N263 N 0.0359 0.24572 0.33267 0.0
C264 C 0.91644 0.95541 0.37828 0.0
C265 C 1.019 0.15802 0.34808 0.0
N266 N 0.95213 0.80357 0.35602 0.0
N267 N 0.07721 0.33246 0.37358 0.0
H268 H 0.03474 0.22002 0.31752 0.0
H269 H 0.03434 0.33721 0.33484 0.0
H270 H 0.09002 0.36698 0.38853 0.0
H271 H 0.13379 0.41062 0.36343 0.0
H272 H 0.9321 0.73149 0.3673 0.0
H273 H 0.97364 0.77651 0.342 0.0
H274 H 0.79995 0.74819 0.3876 0.0
H275 H 0.80337 0.86821 0.40477 0.0
C276 C 0.97295 0.12287 0.68962 0.0
C277 C 0.9847 0.06536 0.67108 0.0
C278 C 0.96059 0.86595 0.68982 0.0
C279 C 0.9804 0.93803 0.70837 0.0
N280 N 1.02447 0.14803 0.72546 0.0
N281 N 1.00882 0.88626 0.65419 0.0
C282 C 0.99006 0.06942 0.70824 0.0
C283 C 0.98191 0.93697 0.67125 0.0
N284 N 0.94354 0.22755 0.68948 0.0
N285 N 0.9196 0.72893 0.6899 0.0
H286 H 0.03153 0.93627 0.64037 0.0
H287 H 1.02207 0.80046 0.65429 0.0
H288 H 0.89766 0.67244 0.7032 0.0
H289 H 0.89219 0.66892 0.67675 0.0
H290 H 0.92273 0.26531 0.70256 0.0
H291 H 0.92458 0.26569 0.67618 0.0
H292 H 0.04707 0.25023 0.72548 0.0
H293 H 0.04381 0.11703 0.73937 0.0
loop_
_geom_bond_atom_site_label_1
_geom_bond_atom_site_label_2
_geom_bond_distance
_geom_bond_site_symmetry_2
_ccdc_geom_bond_type
Mg0 O7 2.141 . S
Mg0 O8 2.048 1_545 S
Mg0 O9 2.048 . S
Mg0 O12 2.141 . S
C1 O2 1.313 . S
C1 O8 1.195 1_455 S
O2 C1 1.313 . S
C3 O4 1.245 . S
C3 O12 1.289 1_455 S
O4 C3 1.245 . S
C5 O6 1.245 . S
C5 O7 1.289 1_455 S
O6 C5 1.245 . S
O7 Mg0 2.141 . S
O7 C5 1.289 1_655 S
O8 Mg0 2.048 1_565 S
O8 C1 1.195 1_655 S
O9 Mg0 2.048 . S
O9 C10 1.195 1_655 S
C10 O9 1.195 1_455 S
C10 O11 1.313 . S
O11 C10 1.313 . S
O12 Mg0 2.141 . S
O12 C3 1.289 1_655 S
Mg13 O20 2.141 . S
Mg13 O21 2.048 1_455 S
Mg13 O22 2.048 . S
Mg13 O25 2.141 . S
C14 O15 1.313 1_545 S
C14 O21 1.195 . S
O15 C14 1.313 1_565 S
C16 O17 1.245 1_545 S
C16 O25 1.289 . S
O17 C16 1.245 1_565 S
C18 O19 1.245 1_445 S
C18 O20 1.289 . S
O19 C18 1.245 1_665 S
O20 Mg13 2.141 . S
O20 C18 1.289 . S
O21 Mg13 2.048 1_655 S
O21 C14 1.195 . S
O22 Mg13 2.048 . S
O22 C23 1.195 . S
C23 O22 1.195 . S
C23 O24 1.313 1_445 S
O24 C23 1.313 1_665 S
O25 Mg13 2.141 . S
O25 C16 1.289 . S
Mg26 O33 2.141 . S
Mg26 O34 2.048 1_445 S
Mg26 O35 2.048 . S
Mg26 O38 2.141 . S
C27 O28 1.313 . S
C27 O34 1.195 . S
O28 C27 1.313 . S
C29 O30 1.245 . S
C29 O38 1.289 . S
O30 C29 1.245 . S
C31 O32 1.245 1_545 S
C31 O33 1.289 . S
O32 C31 1.245 1_565 S
O33 Mg26 2.141 . S
O33 C31 1.289 . S
O34 Mg26 2.048 1_665 S
O34 C27 1.195 . S
O35 Mg26 2.048 . S
O35 C36 1.195 . S
C36 O35 1.195 . S
C36 O37 1.313 1_545 S
O37 C36 1.313 1_565 S
O38 Mg26 2.141 . S
O38 C29 1.289 . S
Mg39 O46 2.141 . S
Mg39 O47 2.048 . S
Mg39 O48 2.048 . S
Mg39 O51 2.141 1_455 S
C40 O41 1.313 1_545 S
C40 O47 1.195 . S
O41 C40 1.313 1_565 S
C42 O43 1.245 . S
C42 O51 1.289 1_565 S
O43 C42 1.245 . S
C44 O45 1.245 1_455 S
C44 O46 1.289 1_565 S
O45 C44 1.245 1_655 S
O46 Mg39 2.141 . S
O46 C44 1.289 1_545 S
O47 Mg39 2.048 . S
O47 C40 1.195 . S
O48 Mg39 2.048 . S
O48 C49 1.195 . S
C49 O48 1.195 . S
C49 O50 1.313 1_445 S
O50 C49 1.313 1_665 S
O51 Mg39 2.141 1_655 S
O51 C42 1.289 1_545 S
Mg52 O59 2.141 . S
Mg52 O60 2.048 1_655 S
Mg52 O61 2.048 . S
Mg52 O64 2.141 1_545 S
C53 O54 1.313 . S
C53 O60 1.195 . S
O54 C53 1.313 . S
C55 O56 1.245 . S
C55 O64 1.289 . S
O56 C55 1.245 . S
C57 O58 1.245 1_545 S
C57 O59 1.289 1_455 S
O58 C57 1.245 1_565 S
O59 Mg52 2.141 . S
O59 C57 1.289 1_655 S
O60 Mg52 2.048 1_455 S
O60 C53 1.195 . S
O61 Mg52 2.048 . S
O61 C62 1.195 1_655 S
C62 O61 1.195 1_455 S
C62 O63 1.313 . S
O63 C62 1.313 . S
O64 Mg52 2.141 1_565 S
O64 C55 1.289 . S
Mg65 O72 2.141 . S
Mg65 O73 2.048 1_565 S
Mg65 O74 2.048 . S
Mg65 O77 2.141 . S
C66 O67 1.313 . S
C66 O73 1.195 1_455 S
O67 C66 1.313 . S
C68 O69 1.245 . S
C68 O77 1.289 1_455 S
O69 C68 1.245 . S
C70 O71 1.245 . S
C70 O72 1.289 1_445 S
O71 C70 1.245 . S
O72 Mg65 2.141 . S
O72 C70 1.289 1_665 S
O73 Mg65 2.048 1_545 S
O73 C66 1.195 1_655 S
O74 Mg65 2.048 . S
O74 C75 1.195 1_665 S
C75 O74 1.195 1_445 S
C75 O76 1.313 . S
O76 C75 1.313 . S
O77 Mg65 2.141 . S
O77 C68 1.289 1_655 S
C78 C79 1.363 1_655 S
C78 C84 1.379 . S
C78 N86 1.356 . S
C79 C78 1.363 1_455 S
C79 C85 1.363 . S
C80 C81 1.363 . S
C80 C85 1.379 . S
C80 N87 1.356 . S
C81 C80 1.363 . S
C81 C84 1.363 1_455 S
N82 C84 1.356 . S
N82 H94 0.984 . S
N82 H95 0.985 . S
N83 C85 1.356 . S
N83 H88 0.984 . S
N83 H89 0.985 . S
C84 C78 1.379 . S
C84 C81 1.363 1_655 S
C84 N82 1.356 . S
C85 C79 1.363 . S
C85 C80 1.379 . S
C85 N83 1.356 . S
N86 C78 1.356 . S
N86 H92 0.984 . S
N86 H93 0.984 . S
N87 C80 1.356 . S
N87 H90 0.984 . S
N87 H91 0.985 . S
H88 N83 0.984 . S
H89 N83 0.985 . S
H90 N87 0.984 . S
H91 N87 0.985 . S
H92 N86 0.984 . S
H93 N86 0.984 . S
H94 N82 0.984 . S
H95 N82 0.985 . S
C96 C97 1.363 1_565 S
C96 C102 1.379 . S
C96 N104 1.356 . S
C97 C96 1.363 1_545 S
C97 C103 1.363 . S
C98 C99 1.363 . S
C98 C103 1.379 . S
C98 N105 1.356 . S
C99 C98 1.363 . S
C99 C102 1.363 1_545 S
N100 C102 1.356 . S
N100 H112 0.984 . S
N100 H113 0.985 . S
N101 C103 1.356 . S
N101 H106 0.984 . S
N101 H107 0.985 . S
C102 C96 1.379 . S
C102 C99 1.363 1_565 S
C102 N100 1.356 . S
C103 C97 1.363 . S
C103 C98 1.379 . S
C103 N101 1.356 . S
N104 C96 1.356 . S
N104 H110 0.984 . S
N104 H111 0.984 . S
N105 C98 1.356 . S
N105 H108 0.984 . S
N105 H109 0.985 . S
H106 N101 0.984 . S
H107 N101 0.985 . S
H108 N105 0.984 . S
H109 N105 0.985 . S
H110 N104 0.984 . S
H111 N104 0.984 . S
H112 N100 0.984 . S
H113 N100 0.985 . S
C114 C115 1.363 . S
C114 C120 1.379 . S
C114 N122 1.356 . S
C115 C114 1.363 . S
C115 C121 1.363 . S
C116 C117 1.363 . S
C116 C121 1.379 . S
C116 N123 1.356 . S
C117 C116 1.363 . S
C117 C120 1.363 . S
N118 C120 1.356 . S
N118 H130 0.984 . S
N118 H131 0.985 . S
N119 C121 1.356 . S
N119 H124 0.984 . S
N119 H125 0.985 . S
C120 C114 1.379 . S
C120 C117 1.363 . S
C120 N118 1.356 . S
C121 C115 1.363 . S
C121 C116 1.379 . S
C121 N119 1.356 . S
N122 C114 1.356 . S
N122 H128 0.984 . S
N122 H129 0.984 . S
N123 C116 1.356 . S
N123 H126 0.984 . S
N123 H127 0.985 . S
H124 N119 0.984 . S
H125 N119 0.985 . S
H126 N123 0.984 . S
H127 N123 0.985 . S
H128 N122 0.984 . S
H129 N122 0.984 . S
H130 N118 0.984 . S
H131 N118 0.985 . S
C132 C133 1.363 . S
C132 C138 1.379 . S
C132 N140 1.356 . S
C133 C132 1.363 . S
C133 C139 1.363 1_545 S
C134 C135 1.363 1_565 S
C134 C139 1.379 . S
C134 N141 1.356 . S
C135 C134 1.363 1_545 S
C135 C138 1.363 . S
N136 C138 1.356 . S
N136 H148 0.984 . S
N136 H149 0.985 . S
N137 C139 1.356 . S
N137 H142 0.984 . S
N137 H143 0.985 . S
C138 C132 1.379 . S
C138 C135 1.363 . S
C138 N136 1.356 . S
C139 C133 1.363 1_565 S
C139 C134 1.379 . S
C139 N137 1.356 . S
N140 C132 1.356 . S
N140 H146 0.984 . S
N140 H147 0.984 . S
N141 C134 1.356 . S
N141 H144 0.984 . S
N141 H145 0.985 . S
H142 N137 0.984 . S
H143 N137 0.985 . S
H144 N141 0.984 . S
H145 N141 0.985 . S
H146 N140 0.984 . S
H147 N140 0.984 . S
H148 N136 0.984 . S
H149 N136 0.985 . S
C150 C151 1.363 . S
C150 C156 1.379 . S
C150 N158 1.356 . S
C151 C150 1.363 . S
C151 C157 1.363 . S
C152 C153 1.363 . S
C152 C157 1.379 . S
C152 N159 1.356 . S
C153 C152 1.363 . S
C153 C156 1.363 . S
N154 C156 1.356 . S
N154 H166 0.984 . S
N154 H167 0.985 . S
N155 C157 1.356 . S
N155 H160 0.984 . S
N155 H161 0.985 . S
C156 C150 1.379 . S
C156 C153 1.363 . S
C156 N154 1.356 . S
C157 C151 1.363 . S
C157 C152 1.379 . S
C157 N155 1.356 . S
N158 C150 1.356 . S
N158 H164 0.984 . S
N158 H165 0.984 . S
N159 C152 1.356 . S
N159 H162 0.984 . S
N159 H163 0.985 . S
H160 N155 0.984 . S
H161 N155 0.985 . S
H162 N159 0.984 . S
H163 N159 0.985 . S
H164 N158 0.984 . S
H165 N158 0.984 . S
H166 N154 0.984 . S
H167 N154 0.985 . S
C168 C169 1.363 . S
C168 C174 1.379 . S
C168 N176 1.356 . S
C169 C168 1.363 . S
C169 C175 1.363 1_455 S
C170 C171 1.363 1_655 S
C170 C175 1.379 . S
C170 N177 1.356 . S
C171 C170 1.363 1_455 S
C171 C174 1.363 . S
N172 C174 1.356 . S
N172 H184 0.984 . S
N172 H185 0.985 . S
N173 C175 1.356 . S
N173 H178 0.984 . S
N173 H179 0.985 . S
C174 C168 1.379 . S
C174 C171 1.363 . S
C174 N172 1.356 . S
C175 C169 1.363 1_655 S
C175 C170 1.379 . S
C175 N173 1.356 . S
N176 C168 1.356 . S
N176 H182 0.984 . S
N176 H183 0.984 . S
N177 C170 1.356 . S
N177 H180 0.984 . S
N177 H181 0.985 . S
H178 N173 0.984 . S
H179 N173 0.985 . S
H180 N177 0.984 . S
H181 N177 0.985 . S
H182 N176 0.984 . S
H183 N176 0.984 . S
H184 N172 0.984 . S
H185 N172 0.985 . S
C186 C187 1.363 1_565 S
C186 C192 1.379 . S
C186 N194 1.356 . S
C187 C186 1.363 1_545 S
C187 C193 1.363 . S
C188 C189 1.363 . S
C188 C193 1.379 . S
C188 N195 1.356 . S
C189 C188 1.363 . S
C189 C192 1.363 1_545 S
N190 C192 1.356 . S
N190 H202 0.984 . S
N190 H203 0.985 . S
N191 C193 1.356 . S
N191 H196 0.984 . S
N191 H197 0.985 . S
C192 C186 1.379 . S
C192 C189 1.363 1_565 S
C192 N190 1.356 . S
C193 C187 1.363 . S
C193 C188 1.379 . S
C193 N191 1.356 . S
N194 C186 1.356 . S
N194 H200 0.984 . S
N194 H201 0.984 . S
N195 C188 1.356 . S
N195 H198 0.984 . S
N195 H199 0.985 . S
H196 N191 0.984 . S
H197 N191 0.985 . S
H198 N195 0.984 . S
H199 N195 0.985 . S
H200 N194 0.984 . S
H201 N194 0.984 . S
H202 N190 0.984 . S
H203 N190 0.985 . S
C204 C205 1.363 . S
C204 C210 1.379 . S
C204 N212 1.356 . S
C205 C204 1.363 . S
C205 C211 1.363 1_545 S
C206 C207 1.363 1_565 S
C206 C211 1.379 . S
C206 N213 1.356 . S
C207 C206 1.363 1_545 S
C207 C210 1.363 . S
N208 C210 1.356 . S
N208 H220 0.984 . S
N208 H221 0.985 . S
N209 C211 1.356 . S
N209 H214 0.984 . S
N209 H215 0.985 . S
C210 C204 1.379 . S
C210 C207 1.363 . S
C210 N208 1.356 . S
C211 C205 1.363 1_565 S
C211 C206 1.379 . S
C211 N209 1.356 . S
N212 C204 1.356 . S
N212 H218 0.984 . S
N212 H219 0.984 . S
N213 C206 1.356 . S
N213 H216 0.984 . S
N213 H217 0.985 . S
H214 N209 0.984 . S
H215 N209 0.985 . S
H216 N213 0.984 . S
H217 N213 0.985 . S
H218 N212 0.984 . S
H219 N212 0.984 . S
H220 N208 0.984 . S
H221 N208 0.985 . S
C222 C223 1.363 . S
C222 C228 1.379 . S
C222 N230 1.356 . S
C223 C222 1.363 . S
C223 C229 1.363 1_445 S
C224 C225 1.363 1_665 S
C224 C229 1.379 . S
C224 N231 1.356 . S
C225 C224 1.363 1_445 S
C225 C228 1.363 . S
N226 C228 1.356 . S
N226 H238 0.984 . S
N226 H239 0.985 . S
N227 C229 1.356 . S
N227 H232 0.984 . S
N227 H233 0.985 . S
C228 C222 1.379 . S
C228 C225 1.363 . S
C228 N226 1.356 . S
C229 C223 1.363 1_665 S
C229 C224 1.379 . S
C229 N227 1.356 . S
N230 C222 1.356 . S
N230 H236 0.984 . S
N230 H237 0.984 . S
N231 C224 1.356 . S
N231 H234 0.984 . S
N231 H235 0.985 . S
H232 N227 0.984 . S
H233 N227 0.985 . S
H234 N231 0.984 . S
H235 N231 0.985 . S
H236 N230 0.984 . S
H237 N230 0.984 . S
H238 N226 0.984 . S
H239 N226 0.985 . S
C240 C241 1.363 . S
C240 C246 1.379 1_554 S
C240 N248 1.356 . S
C241 C240 1.363 . S
C241 C247 1.363 1_545 S
C242 C243 1.363 1_565 S
C242 C247 1.379 1_556 S
C242 N249 1.356 . S
C243 C242 1.363 1_545 S
C243 C246 1.363 . S
N244 C246 1.356 1_655 S
N244 H256 0.984 . S
N244 H257 0.985 . S
N245 C247 1.356 . S
N245 H250 0.984 . S
N245 H251 0.985 . S
C246 C240 1.379 1_556 S
C246 C243 1.363 . S
C246 N244 1.356 1_455 S
C247 C241 1.363 1_565 S
C247 C242 1.379 1_554 S
C247 N245 1.356 . S
N248 C240 1.356 . S
N248 H254 0.984 1_455 S
N248 H255 0.984 . S
N249 C242 1.356 . S
N249 H252 0.984 . S
N249 H253 0.985 . S
H250 N245 0.984 . S
H251 N245 0.985 . S
H252 N249 0.984 . S
H253 N249 0.985 . S
H254 N248 0.984 1_655 S
H255 N248 0.984 . S
H256 N244 0.984 . S
H257 N244 0.985 . S
C258 C259 1.363 1_565 S
C258 C264 1.379 . S
C258 N266 1.356 1_455 S
C259 C258 1.363 1_545 S
C259 C265 1.363 . S
C260 C261 1.363 . S
C260 C265 1.379 . S
C260 N267 1.356 . S
C261 C260 1.363 . S
C261 C264 1.363 1_545 S
N262 C264 1.356 1_655 S
N262 H274 0.984 . S
N262 H275 0.985 1_655 S
N263 C265 1.356 . S
N263 H268 0.984 . S
N263 H269 0.985 . S
C264 C258 1.379 . S
C264 C261 1.363 1_565 S
C264 N262 1.356 1_455 S
C265 C259 1.363 . S
C265 C260 1.379 . S
C265 N263 1.356 . S
N266 C258 1.356 1_655 S
N266 H272 0.984 . S
N266 H273 0.984 . S
N267 C260 1.356 . S
N267 H270 0.984 . S
N267 H271 0.985 . S
H268 N263 0.984 . S
H269 N263 0.985 . S
H270 N267 0.984 . S
H271 N267 0.985 . S
H272 N266 0.984 . S
H273 N266 0.984 . S
H274 N262 0.984 . S
H275 N262 0.985 1_455 S
C276 C277 1.363 . S
C276 C282 1.379 . S
C276 N284 1.356 . S
C277 C276 1.363 . S
C277 C283 1.363 1_445 S
C278 C279 1.363 1_665 S
C278 C283 1.379 . S
C278 N285 1.356 . S
C279 C278 1.363 1_445 S
C279 C282 1.363 . S
N280 C282 1.356 . S
N280 H292 0.984 . S
N280 H293 0.985 . S
N281 C283 1.356 . S
N281 H286 0.984 . S
N281 H287 0.985 . S
C282 C276 1.379 . S
C282 C279 1.363 . S
C282 N280 1.356 . S
C283 C277 1.363 1_665 S
C283 C278 1.379 . S
C283 N281 1.356 . S
N284 C276 1.356 . S
N284 H290 0.984 . S
N284 H291 0.984 . S
N285 C278 1.356 . S
N285 H288 0.984 . S
N285 H289 0.985 . S
H286 N281 0.984 . S
H287 N281 0.985 . S
H288 N285 0.984 . S
H289 N285 0.985 . S
H290 N284 0.984 . S
H291 N284 0.984 . S
H292 N280 0.984 . S
H293 N280 0.985 . S
C79 C1 1.493 . S
C81 C3 1.489 . S
C97 C16 1.489 . S
C99 C14 1.493 . S
C115 C27 1.493 . S
C117 C29 1.489 . S
C133 C40 1.493 . S
C135 C42 1.489 1_545 S
C151 C53 1.493 . S
C153 C55 1.489 . S
C169 C66 1.493 . S
C171 C68 1.489 . S
C187 C70 1.489 . S
C189 C5 1.491 . S
C205 C44 1.493 1_545 S
C207 C18 1.487 . S
C223 C31 1.495 . S
C225 C57 1.487 . S
C241 C10 1.496 . S
C243 C62 1.492 . S
C259 C75 1.492 . S
C261 C23 1.492 . S
C277 C49 1.495 . S
C279 C36 1.495 . S
