# Generated by pormake.
# Topology neb, (4)-cn, num edge types: 1
# Building blocks:
#     Node 0, Type 0, BuildingBlock: CEKHIL_clean_sbu_0, # of connection points: 4
#     Node 1, Type 0, BuildingBlock: CEKHIL_clean_sbu_0, # of connection points: 4
#     Node 2, Type 0, BuildingBlock: CEKHIL_clean_sbu_0, # of connection points: 4
#     Node 3, Type 0, BuildingBlock: CEKHIL_clean_sbu_0, # of connection points: 4
#     Node 4, Type 0, BuildingBlock: CEKHIL_clean_sbu_0, # of connection points: 4
#     Node 5, Type 0, BuildingBlock: CEKHIL_clean_sbu_0, # of connection points: 4
#     Node 6, Type 0, BuildingBlock: CEKHIL_clean_sbu_0, # of connection points: 4
#     Node 7, Type 0, BuildingBlock: CEKHIL_clean_sbu_0, # of connection points: 4
#     Node 8, Type 0, BuildingBlock: CEKHIL_clean_sbu_0, # of connection points: 4
#     Node 9, Type 0, BuildingBlock: CEKHIL_clean_sbu_0, # of connection points: 4
#     Node 10, Type 0, BuildingBlock: CEKHIL_clean_sbu_0, # of connection points: 4
#     Node 11, Type 0, BuildingBlock: CEKHIL_clean_sbu_0, # of connection points: 4
#     Node 12, Type 0, BuildingBlock: CEKHIL_clean_sbu_0, # of connection points: 4
#     Node 13, Type 0, BuildingBlock: CEKHIL_clean_sbu_0, # of connection points: 4
#     Node 14, Type 0, BuildingBlock: CEKHIL_clean_sbu_0, # of connection points: 4
#     Node 15, Type 0, BuildingBlock: CEKHIL_clean_sbu_0, # of connection points: 4
#     Edge 16, Type (0, 0), BuildingBlock: TEMPAE_clean_linker_10, # of connection points: 2
#     Edge 17, Type (0, 0), BuildingBlock: TEMPAE_clean_linker_10, # of connection points: 2
#     Edge 18, Type (0, 0), BuildingBlock: TEMPAE_clean_linker_10, # of connection points: 2
#     Edge 19, Type (0, 0), BuildingBlock: TEMPAE_clean_linker_10, # of connection points: 2
#     Edge 20, Type (0, 0), BuildingBlock: TEMPAE_clean_linker_10, # of connection points: 2
#     Edge 21, Type (0, 0), BuildingBlock: TEMPAE_clean_linker_10, # of connection points: 2
#     Edge 22, Type (0, 0), BuildingBlock: TEMPAE_clean_linker_10, # of connection points: 2
#     Edge 23, Type (0, 0), BuildingBlock: TEMPAE_clean_linker_10, # of connection points: 2
#     Edge 24, Type (0, 0), BuildingBlock: TEMPAE_clean_linker_10, # of connection points: 2
#     Edge 25, Type (0, 0), BuildingBlock: TEMPAE_clean_linker_10, # of connection points: 2
#     Edge 26, Type (0, 0), BuildingBlock: TEMPAE_clean_linker_10, # of connection points: 2
#     Edge 27, Type (0, 0), BuildingBlock: TEMPAE_clean_linker_10, # of connection points: 2
#     Edge 28, Type (0, 0), BuildingBlock: TEMPAE_clean_linker_10, # of connection points: 2
#     Edge 29, Type (0, 0), BuildingBlock: TEMPAE_clean_linker_10, # of connection points: 2
#     Edge 30, Type (0, 0), BuildingBlock: TEMPAE_clean_linker_10, # of connection points: 2
#     Edge 31, Type (0, 0), BuildingBlock: TEMPAE_clean_linker_10, # of connection points: 2
#     Edge 32, Type (0, 0), BuildingBlock: TEMPAE_clean_linker_10, # of connection points: 2
#     Edge 33, Type (0, 0), BuildingBlock: TEMPAE_clean_linker_10, # of connection points: 2
#     Edge 34, Type (0, 0), BuildingBlock: TEMPAE_clean_linker_10, # of connection points: 2
#     Edge 35, Type (0, 0), BuildingBlock: TEMPAE_clean_linker_10, # of connection points: 2
#     Edge 36, Type (0, 0), BuildingBlock: TEMPAE_clean_linker_10, # of connection points: 2
#     Edge 37, Type (0, 0), BuildingBlock: TEMPAE_clean_linker_10, # of connection points: 2
#     Edge 38, Type (0, 0), BuildingBlock: TEMPAE_clean_linker_10, # of connection points: 2
#     Edge 39, Type (0, 0), BuildingBlock: TEMPAE_clean_linker_10, # of connection points: 2
#     Edge 40, Type (0, 0), BuildingBlock: TEMPAE_clean_linker_10, # of connection points: 2
#     Edge 41, Type (0, 0), BuildingBlock: TEMPAE_clean_linker_10, # of connection points: 2
#     Edge 42, Type (0, 0), BuildingBlock: TEMPAE_clean_linker_10, # of connection points: 2
#     Edge 43, Type (0, 0), BuildingBlock: TEMPAE_clean_linker_10, # of connection points: 2
#     Edge 44, Type (0, 0), BuildingBlock: TEMPAE_clean_linker_10, # of connection points: 2
#     Edge 45, Type (0, 0), BuildingBlock: TEMPAE_clean_linker_10, # of connection points: 2
#     Edge 46, Type (0, 0), BuildingBlock: TEMPAE_clean_linker_10, # of connection points: 2
#     Edge 47, Type (0, 0), BuildingBlock: TEMPAE_clean_linker_10, # of connection points: 2
# Relax obj value: 0.002
# Max RMSD: 0.027
# Mean RMSD: 0.027
data_MOF--net-neb--node1-CEKHIL_clean_sbu_0--edge1-TEMPAE_clean_linker_10
_symmetry_space_group_name_H-M    P1
_symmetry_Int_Tables_number       1
_symmetry_cell_setting            triclinic
loop_
_symmetry_equiv_pos_as_xyz
'x, y, z'
_cell_length_a     41.75356
_cell_length_b     22.817036
_cell_length_c     76.711079
_cell_angle_alpha  89.981511
_cell_angle_beta   92.521888
_cell_angle_gamma 89.989966
loop_
_atom_site_label
_atom_site_type_symbol
_atom_site_fract_x
_atom_site_fract_y
_atom_site_fract_z
_atom_type_partial_charge
Co0 Co 0.12939 0.10824 0.4518 0.0
O1 O 0.1179 0.05215 0.4693 0.0
O2 O 0.08316 0.10525 0.45351 0.0
C3 C 0.16801 0.15282 0.46842 0.0
O4 O 0.13212 0.17228 0.43311 0.0
Co5 Co 0.19741 0.10892 0.43714 0.0
O6 O 0.18287 0.18037 0.42459 0.0
C7 C 0.14974 0.02269 0.4236 0.0
C8 C 0.0883 0.0671 0.46594 0.0
C9 C 0.1537 0.19681 0.42403 0.0
O10 O 0.12828 0.04471 0.43327 0.0
O11 O 0.17886 0.04026 0.42392 0.0
O12 O 0.13815 0.16675 0.46989 0.0
O13 O 0.1736 0.10931 0.45822 0.0
Co14 Co 0.12317 0.10553 0.81123 0.0
O15 O 0.13319 0.05018 0.79327 0.0
O16 O 0.16933 0.09662 0.81009 0.0
C17 C 0.08675 0.15521 0.79432 0.0
O18 O 0.12221 0.16857 0.83029 0.0
Co19 Co 0.05528 0.11646 0.82551 0.0
O20 O 0.07091 0.19371 0.83395 0.0
C21 C 0.09899 0.0234 0.8393 0.0
C22 C 0.16314 0.06145 0.79703 0.0
C23 C 0.10083 0.20261 0.8365 0.0
O24 O 0.12117 0.04107 0.82936 0.0
O25 O 0.07099 0.04637 0.83925 0.0
O26 O 0.11716 0.16573 0.79335 0.0
O27 O 0.07929 0.11266 0.80452 0.0
Co28 Co 0.87484 0.9012 0.56089 0.0
O29 O 0.88757 0.95167 0.54226 0.0
O30 O 0.92133 0.90306 0.56001 0.0
C31 C 0.83672 0.85406 0.54448 0.0
O32 O 0.87074 0.84191 0.58077 0.0
Co33 Co 0.80647 0.90501 0.57445 0.0
O34 O 0.8191 0.83337 0.58752 0.0
C35 C 0.85406 0.99218 0.58747 0.0
C36 C 0.91688 0.93741 0.54658 0.0
C37 C 0.84829 0.81755 0.58927 0.0
O38 O 0.87555 0.96913 0.57803 0.0
O39 O 0.82498 0.97439 0.58733 0.0
O40 O 0.8665 0.8381 0.54416 0.0
O41 O 0.83096 0.90016 0.55361 0.0
Co42 Co 0.87834 0.9013 0.20185 0.0
O43 O 0.86605 0.95635 0.2195 0.0
O44 O 0.83203 0.9038 0.20302 0.0
C45 C 0.91625 0.85603 0.21887 0.0
O46 O 0.88164 0.83875 0.1828 0.0
Co47 Co 0.94652 0.89775 0.18794 0.0
O48 O 0.9335 0.82014 0.17847 0.0
C49 C 0.90024 0.98681 0.17418 0.0
C50 C 0.83665 0.94129 0.21565 0.0
C51 C 0.90388 0.80803 0.17605 0.0
O52 O 0.87827 0.96608 0.18376 0.0
O53 O 0.92898 0.96707 0.1745 0.0
O54 O 0.88635 0.84117 0.21955 0.0
O55 O 0.9223 0.89993 0.20888 0.0
Co56 Co 0.12859 0.60587 0.95214 0.0
O57 O 0.117 0.54774 0.96914 0.0
O58 O 0.08242 0.60111 0.95327 0.0
C59 C 0.16607 0.65054 0.96963 0.0
O60 O 0.13077 0.67144 0.93392 0.0
Co61 Co 0.19678 0.61526 0.938 0.0
O62 O 0.1822 0.69285 0.92924 0.0
C63 C 0.15188 0.52467 0.92373 0.0
C64 C 0.08741 0.56255 0.96558 0.0
C65 C 0.15238 0.70382 0.92722 0.0
O66 O 0.12941 0.54395 0.93323 0.0
O67 O 0.18041 0.54544 0.92438 0.0
O68 O 0.13591 0.66282 0.97084 0.0
O69 O 0.17259 0.60909 0.95886 0.0
Co70 Co 0.12488 0.60906 0.31101 0.0
O71 O 0.13846 0.55227 0.29416 0.0
O72 O 0.17122 0.60795 0.31045 0.0
C73 C 0.08715 0.65172 0.29323 0.0
O74 O 0.12008 0.67345 0.32925 0.0
Co75 Co 0.05556 0.60964 0.3241 0.0
O76 O 0.06789 0.68684 0.33428 0.0
C77 C 0.1018 0.52026 0.33731 0.0
C78 C 0.16754 0.56916 0.29811 0.0
C79 C 0.09724 0.7017 0.3363 0.0
O80 O 0.12474 0.54693 0.32986 0.0
O81 O 0.07229 0.53515 0.33525 0.0
O82 O 0.11709 0.66604 0.29235 0.0
O83 O 0.08118 0.60906 0.30369 0.0
Co84 Co 0.87346 0.40098 0.06097 0.0
O85 O 0.88538 0.45227 0.04236 0.0
O86 O 0.91992 0.40532 0.06003 0.0
C87 C 0.83605 0.35266 0.04434 0.0
O88 O 0.8704 0.34135 0.08083 0.0
Co89 Co 0.80526 0.39796 0.07468 0.0
O90 O 0.81849 0.32055 0.08422 0.0
C91 C 0.85107 0.48838 0.08802 0.0
C92 C 0.91493 0.43912 0.04652 0.0
C93 C 0.84813 0.30974 0.0872 0.0
O94 O 0.87288 0.46844 0.0782 0.0
O95 O 0.82263 0.4674 0.0881 0.0
O96 O 0.86605 0.33793 0.0441 0.0
O97 O 0.82962 0.39772 0.05378 0.0
Co98 Co 0.87854 0.40095 0.70157 0.0
O99 O 0.86526 0.45428 0.71939 0.0
O100 O 0.83213 0.40067 0.70271 0.0
C101 C 0.91727 0.35702 0.71838 0.0
O102 O 0.88341 0.34007 0.68229 0.0
Co103 Co 0.94712 0.40589 0.688 0.0
O104 O 0.93566 0.32929 0.67705 0.0
C105 C 0.89961 0.49496 0.67634 0.0
C106 C 0.83611 0.43792 0.71548 0.0
C107 C 0.90647 0.31358 0.67489 0.0
O108 O 0.87729 0.46629 0.6837 0.0
O109 O 0.92933 0.48116 0.67788 0.0
O110 O 0.88765 0.34034 0.71902 0.0
O111 O 0.92236 0.40217 0.70871 0.0
Co112 Co 0.62973 0.09905 0.95224 0.0
O113 O 0.6194 0.04688 0.97097 0.0
O114 O 0.58351 0.09277 0.95386 0.0
C115 C 0.6674 0.14941 0.96815 0.0
O116 O 0.63113 0.15918 0.93235 0.0
Co117 Co 0.69765 0.10113 0.93751 0.0
O118 O 0.68174 0.16911 0.92375 0.0
C119 C 0.65173 0.00966 0.92546 0.0
C120 C 0.58953 0.05889 0.96725 0.0
C121 C 0.65224 0.18342 0.92288 0.0
O122 O 0.63002 0.03167 0.93496 0.0
O123 O 0.68041 0.02939 0.92528 0.0
O124 O 0.6372 0.1616 0.96923 0.0
O125 O 0.6739 0.10462 0.9586 0.0
Co126 Co 0.62393 0.10614 0.31169 0.0
O127 O 0.63564 0.05742 0.29249 0.0
O128 O 0.67038 0.10412 0.31006 0.0
C129 C 0.58495 0.15483 0.29625 0.0
O130 O 0.62046 0.16316 0.33213 0.0
Co131 Co 0.55601 0.09762 0.32591 0.0
O132 O 0.56953 0.16556 0.34059 0.0
C133 C 0.60322 0.00604 0.33517 0.0
C134 C 0.6652 0.07105 0.29639 0.0
C135 C 0.59842 0.18369 0.3417 0.0
O136 O 0.62528 0.03663 0.32822 0.0
O137 O 0.5735 0.0199 0.33406 0.0
O138 O 0.6147 0.17088 0.2956 0.0
O139 O 0.57992 0.10768 0.30505 0.0
Co140 Co 0.37419 0.89936 0.06153 0.0
O141 O 0.38741 0.95489 0.0442 0.0
O142 O 0.42054 0.90163 0.06102 0.0
C143 C 0.33699 0.8549 0.04388 0.0
O144 O 0.37027 0.83616 0.08027 0.0
Co145 Co 0.30539 0.89371 0.07457 0.0
O146 O 0.31839 0.81578 0.08388 0.0
C147 C 0.35066 0.98342 0.0891 0.0
C148 C 0.41662 0.93921 0.04835 0.0
C149 C 0.34804 0.80444 0.0866 0.0
O150 O 0.37329 0.96342 0.07982 0.0
O151 O 0.32202 0.96315 0.08826 0.0
O152 O 0.36692 0.83992 0.04354 0.0
O153 O 0.3305 0.89817 0.054 0.0
Co154 Co 0.37728 0.89714 0.70275 0.0
O155 O 0.36469 0.9556 0.71941 0.0
O156 O 0.33105 0.89992 0.70368 0.0
C157 C 0.41507 0.85494 0.72061 0.0
O158 O 0.38048 0.83081 0.68488 0.0
Co159 Co 0.44564 0.88935 0.68883 0.0
O160 O 0.4322 0.81043 0.68066 0.0
C161 C 0.39973 0.97718 0.67383 0.0
C162 C 0.33536 0.93922 0.71582 0.0
C163 C 0.40251 0.79855 0.67855 0.0
O164 O 0.37751 0.95804 0.68352 0.0
O165 O 0.42845 0.95727 0.67459 0.0
O166 O 0.38505 0.84155 0.72175 0.0
O167 O 0.42128 0.89601 0.70963 0.0
Co168 Co 0.6284 0.60568 0.45238 0.0
O169 O 0.61698 0.55559 0.47133 0.0
O170 O 0.58199 0.60223 0.45386 0.0
C171 C 0.66674 0.65526 0.46808 0.0
O172 O 0.63163 0.66386 0.43219 0.0
Co173 Co 0.69664 0.59856 0.43828 0.0
O174 O 0.68244 0.66565 0.42343 0.0
C175 C 0.64986 0.50693 0.42858 0.0
C176 C 0.58736 0.56885 0.46744 0.0
C177 C 0.65357 0.68397 0.42248 0.0
O178 O 0.62768 0.53724 0.4355 0.0
O179 O 0.67958 0.5207 0.42989 0.0
O180 O 0.63673 0.6693 0.46891 0.0
O181 O 0.67242 0.60888 0.45903 0.0
Co182 Co 0.62294 0.60052 0.81138 0.0
O183 O 0.63442 0.55086 0.79234 0.0
O184 O 0.66941 0.59608 0.81014 0.0
C185 C 0.5852 0.65057 0.7955 0.0
O186 O 0.61984 0.65796 0.83173 0.0
Co187 Co 0.55449 0.59817 0.82511 0.0
O188 O 0.56775 0.67295 0.83657 0.0
C189 C 0.60001 0.50435 0.83556 0.0
C190 C 0.66407 0.56322 0.79644 0.0
C191 C 0.59727 0.68593 0.83912 0.0
O192 O 0.62267 0.53167 0.82806 0.0
O193 O 0.5707 0.521 0.83461 0.0
O194 O 0.61518 0.6653 0.79509 0.0
O195 O 0.57916 0.60415 0.80442 0.0
Co196 Co 0.37527 0.39757 0.56201 0.0
O197 O 0.38731 0.45551 0.54511 0.0
O198 O 0.42153 0.40159 0.56107 0.0
C199 C 0.33791 0.35338 0.54427 0.0
O200 O 0.37231 0.33215 0.5802 0.0
Co201 Co 0.30685 0.38964 0.57565 0.0
O202 O 0.32051 0.3108 0.58386 0.0
C203 C 0.35225 0.4782 0.59063 0.0
C204 C 0.41678 0.44043 0.54881 0.0
C205 C 0.35022 0.29947 0.5863 0.0
O206 O 0.37452 0.45947 0.58092 0.0
O207 O 0.32366 0.45768 0.58996 0.0
O208 O 0.36804 0.34032 0.54344 0.0
O209 O 0.3314 0.39534 0.5549 0.0
Co210 Co 0.37871 0.40119 0.20233 0.0
O211 O 0.3691 0.4572 0.22018 0.0
O212 O 0.33259 0.40982 0.20387 0.0
C213 C 0.41569 0.35258 0.21913 0.0
O214 O 0.37934 0.33754 0.18343 0.0
Co215 Co 0.44612 0.39072 0.18751 0.0
O216 O 0.43061 0.31314 0.1793 0.0
C217 C 0.40175 0.48301 0.17391 0.0
C218 C 0.33908 0.44566 0.21674 0.0
C219 C 0.40068 0.30376 0.17704 0.0
O220 O 0.37992 0.46502 0.18401 0.0
O221 O 0.42987 0.46057 0.17381 0.0
O222 O 0.38538 0.34176 0.22037 0.0
O223 O 0.42278 0.39481 0.20873 0.0
C224 C 0.32095 0.27502 0.52307 0.0
C225 C 0.31282 0.3227 0.53353 0.0
C226 C 0.2977 0.24652 0.51236 0.0
C227 C 0.26556 0.26642 0.51201 0.0
C228 C 0.25717 0.31437 0.52262 0.0
C229 C 0.2809 0.34182 0.5333 0.0
C230 C 0.30753 0.1952 0.50138 0.0
C231 C 0.22318 0.33698 0.52256 0.0
C232 C 0.21116 0.22718 0.47262 0.0
C233 C 0.19348 0.18082 0.47922 0.0
C234 C 0.2347 0.25568 0.48318 0.0
C235 C 0.24069 0.23678 0.50063 0.0
C236 C 0.2229 0.18943 0.50723 0.0
C237 C 0.19932 0.16221 0.49643 0.0
C238 C 0.25296 0.30625 0.47572 0.0
C239 C 0.22873 0.16763 0.52568 0.0
H240 H 0.34558 0.25995 0.5232 0.0
H241 H 0.27448 0.37872 0.54133 0.0
H242 H 0.29343 0.15582 0.50467 0.0
H243 H 0.3023 0.20481 0.48736 0.0
H244 H 0.33344 0.18473 0.50328 0.0
H245 H 0.22061 0.37482 0.5315 0.0
H246 H 0.21528 0.35068 0.50917 0.0
H247 H 0.20679 0.30159 0.52652 0.0
H248 H 0.20627 0.2415 0.45928 0.0
H249 H 0.18537 0.12632 0.50143 0.0
H250 H 0.27902 0.29651 0.47635 0.0
H251 H 0.24939 0.34626 0.48362 0.0
H252 H 0.24532 0.31569 0.46195 0.0
H253 H 0.25415 0.15418 0.52779 0.0
H254 H 0.21316 0.12982 0.52871 0.0
H255 H 0.22426 0.2034 0.53506 0.0
C256 C 0.96809 0.99036 0.54124 0.0
C257 C 0.94305 0.95384 0.53526 0.0
C258 C 0.99164 0.00911 0.52987 0.0
C259 C 0.99056 0.9892 0.51232 0.0
C260 C 0.96567 0.95089 0.50645 0.0
C261 C 0.94191 0.93459 0.51791 0.0
C262 C 0.01726 0.05115 0.53651 0.0
C263 C 0.9641 0.9271 0.48807 0.0
C264 C 0.03319 0.07526 0.47752 0.0
C265 C 0.06235 0.04504 0.47682 0.0
C266 C 0.00975 0.05792 0.48912 0.0
C267 C 0.01531 0.00845 0.50003 0.0
C268 C 0.04438 0.97689 0.49901 0.0
C269 C 0.06764 0.9959 0.48757 0.0
C270 C 0.97929 0.09329 0.48995 0.0
C271 C 0.05098 0.92308 0.51006 0.0
H272 H 0.96866 0.00563 0.55464 0.0
H273 H 0.92245 0.90622 0.51336 0.0
H274 H 0.04131 0.03138 0.53523 0.0
H275 H 0.01643 0.09168 0.5285 0.0
H276 H 0.01446 0.06329 0.55039 0.0
H277 H 0.94407 0.89557 0.48582 0.0
H278 H 0.96097 0.96359 0.47859 0.0
H279 H 0.98693 0.90475 0.4853 0.0
H280 H 0.02908 0.11361 0.46939 0.0
H281 H 0.09011 0.97225 0.48709 0.0
H282 H 0.9767 0.10985 0.50342 0.0
H283 H 0.95821 0.06514 0.48672 0.0
H284 H 0.97884 0.13117 0.48084 0.0
H285 H 0.05118 0.93486 0.52409 0.0
H286 H 0.07429 0.9023 0.50732 0.0
H287 H 0.03161 0.89038 0.5077 0.0
C288 C 0.28502 0.91909 0.7311 0.0
C289 C 0.30886 0.95889 0.7266 0.0
C290 C 0.26171 0.93455 0.74296 0.0
C291 C 0.26145 0.99199 0.74998 0.0
C292 C 0.2849 0.03296 0.745 0.0
C293 C 0.30876 0.01549 0.73368 0.0
C294 C 0.23789 0.8889 0.74834 0.0
C295 C 0.28475 0.09529 0.75159 0.0
C296 C 0.18216 0.04367 0.76725 0.0
C297 C 0.1883 0.04181 0.78536 0.0
C298 C 0.20596 0.02895 0.75563 0.0
C299 C 0.23629 0.00938 0.76227 0.0
C300 C 0.24237 0.00614 0.7806 0.0
C301 C 0.21851 0.02375 0.79194 0.0
C302 C 0.19881 0.03541 0.73626 0.0
C303 C 0.27392 0.98343 0.78822 0.0
H304 H 0.2854 0.87494 0.72589 0.0
H305 H 0.32724 0.04625 0.73024 0.0
H306 H 0.23926 0.88373 0.76274 0.0
H307 H 0.21316 0.90318 0.74459 0.0
H308 H 0.24216 0.84555 0.74227 0.0
H309 H 0.30346 0.1226 0.7457 0.0
H310 H 0.26098 0.1156 0.74861 0.0
H311 H 0.28883 0.09584 0.76597 0.0
H312 H 0.15894 0.05859 0.76214 0.0
H313 H 0.22323 0.02232 0.80595 0.0
H314 H 0.20031 0.99215 0.72976 0.0
H315 H 0.21694 0.06428 0.7305 0.0
H316 H 0.17462 0.0541 0.73325 0.0
H317 H 0.27875 0.93918 0.78294 0.0
H318 H 0.27428 0.98078 0.80269 0.0
H319 H 0.29374 0.01242 0.78441 0.0
C320 C 0.06929 0.20243 0.76626 0.0
C321 C 0.0625 0.18669 0.78336 0.0
C322 C 0.04602 0.22961 0.75524 0.0
C323 C 0.01571 0.24355 0.76173 0.0
C324 C 0.00911 0.22915 0.77919 0.0
C325 C 0.03238 0.19966 0.78969 0.0
C326 C 0.05361 0.24213 0.73653 0.0
C327 C 0.97756 0.24519 0.78681 0.0
C328 C 0.96706 0.36129 0.73743 0.0
C329 C 0.94317 0.32789 0.72877 0.0
C330 C 0.99053 0.33451 0.74844 0.0
C331 C 0.99084 0.27269 0.7502 0.0
C332 C 0.96729 0.2387 0.74097 0.0
C333 C 0.94329 0.26688 0.73065 0.0
C334 C 0.01447 0.37245 0.75854 0.0
C335 C 0.96752 0.1726 0.74192 0.0
H336 H 0.09252 0.19172 0.76132 0.0
H337 H 0.02724 0.18767 0.80295 0.0
H338 H 0.03573 0.22026 0.72759 0.0
H339 H 0.05201 0.28985 0.73391 0.0
H340 H 0.07793 0.2268 0.73337 0.0
H341 H 0.97701 0.23433 0.80092 0.0
H342 H 0.97296 0.29282 0.78513 0.0
H343 H 0.95769 0.2216 0.77979 0.0
H344 H 0.96667 0.4086 0.73609 0.0
H345 H 0.92484 0.24115 0.72384 0.0
H346 H 0.03917 0.36147 0.75492 0.0
H347 H 0.01304 0.36384 0.77272 0.0
H348 H 0.01033 0.41993 0.75613 0.0
H349 H 0.9913 0.15557 0.73843 0.0
H350 H 0.94882 0.15256 0.73307 0.0
H351 H 0.96347 0.15816 0.75545 0.0
C352 C 0.80602 0.76512 0.5351 0.0
C353 C 0.81165 0.82525 0.53349 0.0
C354 C 0.7824 0.73717 0.52445 0.0
C355 C 0.76516 0.76982 0.5114 0.0
C356 C 0.77144 0.83047 0.50952 0.0
C357 C 0.79418 0.85772 0.52086 0.0
C358 C 0.77559 0.673 0.52732 0.0
C359 C 0.75444 0.86641 0.49541 0.0
C360 C 0.72409 0.68379 0.47415 0.0
C361 C 0.69198 0.68584 0.47869 0.0
C362 C 0.74815 0.71187 0.4845 0.0
C363 C 0.73995 0.74095 0.50002 0.0
C364 C 0.70754 0.74255 0.5047 0.0
C365 C 0.68391 0.71579 0.49383 0.0
C366 C 0.78228 0.71074 0.47878 0.0
C367 C 0.69787 0.77164 0.52136 0.0
H368 H 0.81965 0.74029 0.54494 0.0
H369 H 0.799 0.90418 0.51954 0.0
H370 H 0.7499 0.66688 0.53001 0.0
H371 H 0.7803 0.64771 0.51536 0.0
H372 H 0.79041 0.6544 0.53837 0.0
H373 H 0.76341 0.91221 0.49506 0.0
H374 H 0.75765 0.84594 0.48248 0.0
H375 H 0.72834 0.86746 0.4975 0.0
H376 H 0.73034 0.66086 0.4624 0.0
H377 H 0.65913 0.71694 0.49748 0.0
H378 H 0.79783 0.68763 0.48865 0.0
H379 H 0.79153 0.75616 0.47777 0.0
H380 H 0.78445 0.68859 0.46599 0.0
H381 H 0.71136 0.75195 0.53269 0.0
H382 H 0.6718 0.76729 0.5234 0.0
H383 H 0.704 0.8189 0.52112 0.0
C384 C 0.72225 0.04229 0.2913 0.0
C385 C 0.69094 0.05312 0.2848 0.0
C386 C 0.74619 0.02375 0.28012 0.0
C387 C 0.73886 0.01813 0.26194 0.0
C388 C 0.70741 0.03063 0.25533 0.0
C389 C 0.68377 0.04689 0.26686 0.0
C390 C 0.77912 0.00907 0.28778 0.0
C391 C 0.69874 0.02732 0.23603 0.0
C392 C 0.80838 0.02073 0.23128 0.0
C393 C 0.81035 0.96173 0.22641 0.0
C394 C 0.78485 0.03994 0.24255 0.0
C395 C 0.76382 0.99862 0.2498 0.0
C396 C 0.76612 0.93874 0.24506 0.0
C397 C 0.78892 0.92124 0.23313 0.0
C398 C 0.78236 0.10446 0.24662 0.0
C399 C 0.745 0.89292 0.25291 0.0
H400 H 0.7278 0.04685 0.30517 0.0
H401 H 0.65965 0.05593 0.26174 0.0
H402 H 0.78537 0.96326 0.28444 0.0
H403 H 0.7973 0.03791 0.28209 0.0
H404 H 0.78073 0.014 0.3022 0.0
H405 H 0.67374 0.04175 0.23288 0.0
H406 H 0.71527 0.05516 0.22868 0.0
H407 H 0.70148 0.98171 0.23133 0.0
H408 H 0.82509 0.05195 0.22611 0.0
H409 H 0.7909 0.8754 0.22962 0.0
H410 H 0.78721 0.11196 0.26077 0.0
H411 H 0.75765 0.12018 0.24339 0.0
H412 H 0.79944 0.1312 0.23927 0.0
H413 H 0.74759 0.89471 0.26737 0.0
H414 H 0.75091 0.8479 0.24857 0.0
H415 H 0.71949 0.90188 0.24925 0.0
C416 C 0.96565 0.85785 0.23821 0.0
C417 C 0.94164 0.82557 0.22927 0.0
C418 C 0.98893 0.82979 0.24904 0.0
C419 C 0.98895 0.76782 0.25029 0.0
C420 C 0.96517 0.735 0.24084 0.0
C421 C 0.94133 0.76444 0.23074 0.0
C422 C 0.01311 0.86649 0.25938 0.0
C423 C 0.96512 0.66885 0.24125 0.0
C424 C 0.068 0.69756 0.26527 0.0
C425 C 0.06188 0.68097 0.28238 0.0
C426 C 0.04419 0.72448 0.25454 0.0
C427 C 0.01402 0.73739 0.26137 0.0
C428 C 0.00798 0.72164 0.2788 0.0
C429 C 0.0318 0.69239 0.28899 0.0
C430 C 0.05121 0.73847 0.23585 0.0
C431 C 0.97659 0.73659 0.28678 0.0
H432 H 0.96558 0.90525 0.23718 0.0
H433 H 0.92278 0.73963 0.2237 0.0
H434 H 0.0122 0.85588 0.27347 0.0
H435 H 0.03768 0.85628 0.25537 0.0
H436 H 0.00883 0.91422 0.25761 0.0
H437 H 0.94598 0.64986 0.23246 0.0
H438 H 0.98865 0.65191 0.2373 0.0
H439 H 0.96161 0.65315 0.25471 0.0
H440 H 0.09123 0.68815 0.26013 0.0
H441 H 0.0272 0.67986 0.30228 0.0
H442 H 0.05013 0.78649 0.23368 0.0
H443 H 0.03277 0.7182 0.2269 0.0
H444 H 0.07521 0.72257 0.23228 0.0
H445 H 0.97215 0.78446 0.28577 0.0
H446 H 0.9762 0.72356 0.30072 0.0
H447 H 0.95653 0.71431 0.27952 0.0
C448 C 0.31103 0.76348 0.03252 0.0
C449 C 0.31189 0.82473 0.03324 0.0
C450 C 0.28707 0.73435 0.02242 0.0
C451 C 0.26443 0.76747 0.01223 0.0
C452 C 0.26573 0.82951 0.0127 0.0
C453 C 0.28904 0.8574 0.02353 0.0
C454 C 0.28573 0.66825 0.02283 0.0
C455 C 0.24282 0.86641 1.00156 0.0
C456 C 0.22174 0.68964 0.97397 0.0
C457 C 0.19118 0.68088 0.98032 0.0
C458 C 0.24568 0.71874 0.98409 0.0
C459 C 0.2392 0.73734 1.00121 0.0
C460 C 0.20847 0.7275 0.00777 0.0
C461 C 0.18464 0.7004 0.99711 0.0
C462 C 0.27774 0.73025 0.9764 0.0
C463 C 0.20091 0.74483 0.02614 0.0
H464 H 0.32867 0.73842 0.04017 0.0
H465 H 0.29002 0.90487 0.02402 0.0
H466 H 0.2617 0.65368 0.02672 0.0
H467 H 0.28936 0.65034 0.00963 0.0
H468 H 0.30416 0.64917 0.03206 0.0
H469 H 0.2481 0.914 1.00276 0.0
H470 H 0.2441 0.85357 0.98766 0.0
H471 H 0.21785 0.85874 1.00537 0.0
H472 H 0.22672 0.67483 0.96094 0.0
H473 H 0.16106 0.69305 1.00208 0.0
H474 H 0.297 0.70751 0.98418 0.0
H475 H 0.28317 0.77785 0.9769 0.0
H476 H 0.27846 0.71527 0.96264 0.0
H477 H 0.21841 0.72433 0.03559 0.0
H478 H 0.17635 0.73154 0.02953 0.0
H479 H 0.2031 0.79298 0.02773 0.0
C480 C 0.06254 0.48584 0.98405 0.0
C481 C 0.06127 0.54173 0.97647 0.0
C482 C 0.03897 0.46736 0.99542 0.0
C483 C 0.01432 0.50665 0.99989 0.0
C484 C 0.0132 0.56339 0.99236 0.0
C485 C 0.03631 0.5798 0.98049 0.0
C486 C 0.04035 0.40573 1.00257 0.0
C487 C 0.988 0.60732 0.99715 0.0
C488 C 0.93558 0.45115 0.01686 0.0
C489 C 0.94082 0.45612 0.03498 0.0
C490 C 0.95963 0.46563 1.00538 0.0
C491 C 0.98926 0.48813 0.01211 0.0
C492 C 0.99454 0.49395 0.03045 0.0
C493 C 0.97046 0.47657 0.0417 0.0
C494 C 0.95337 0.45643 0.98603 0.0
C495 C 0.0253 0.5197 0.03814 0.0
H496 H 0.08187 0.45638 0.98097 0.0
H497 H 0.03559 0.62342 0.97488 0.0
H498 H 0.04383 0.40683 0.01698 0.0
H499 H 0.0173 0.38295 0.9995 0.0
H500 H 0.06008 0.3797 0.99715 0.0
H501 H 0.99135 0.65053 0.99081 0.0
H502 H 0.96379 0.59064 0.99325 0.0
H503 H 0.9887 0.61365 0.01151 0.0
H504 H 0.91277 0.43455 0.01167 0.0
H505 H 0.97444 0.48056 0.05571 0.0
H506 H 0.97268 0.42917 0.98071 0.0
H507 H 0.95355 0.49914 0.97914 0.0
H508 H 0.92996 0.43473 0.98301 0.0
H509 H 0.046 0.49256 0.03451 0.0
H510 H 0.02534 0.52279 0.05259 0.0
H511 H 0.02892 0.56421 0.03273 0.0
C512 C 0.32169 0.47137 0.24638 0.0
C513 C 0.3142 0.46647 0.22844 0.0
C514 C 0.29827 0.48696 0.25813 0.0
C515 C 0.26679 0.50034 0.25172 0.0
C516 C 0.2593 0.49696 0.23351 0.0
C517 C 0.28295 0.47877 0.22212 0.0
C518 C 0.30705 0.48774 0.27744 0.0
C519 C 0.22639 0.51289 0.22607 0.0
C520 C 0.19676 0.49215 0.28194 0.0
C521 C 0.19441 0.55038 0.28751 0.0
C522 C 0.22072 0.47494 0.27065 0.0
C523 C 0.24179 0.51759 0.26412 0.0
C524 C 0.23921 0.57665 0.26961 0.0
C525 C 0.21598 0.59206 0.28153 0.0
C526 C 0.22349 0.41113 0.26575 0.0
C527 C 0.26033 0.62389 0.2625 0.0
H528 H 0.34574 0.46096 0.25135 0.0
H529 H 0.27715 0.47504 0.20825 0.0
H530 H 0.30374 0.53238 0.28277 0.0
H531 H 0.29093 0.45797 0.28441 0.0
H532 H 0.33225 0.474 0.28034 0.0
H533 H 0.22498 0.5115 0.21158 0.0
H534 H 0.2083 0.48224 0.23103 0.0
H535 H 0.21983 0.55758 0.23038 0.0
H536 H 0.17996 0.46 0.28652 0.0
H537 H 0.21373 0.63736 0.28557 0.0
H538 H 0.24833 0.39546 0.26863 0.0
H539 H 0.21837 0.40562 0.25154 0.0
H540 H 0.2067 0.38297 0.27285 0.0
H541 H 0.28587 0.6143 0.26593 0.0
H542 H 0.25451 0.66802 0.26758 0.0
H543 H 0.25761 0.62479 0.24804 0.0
C544 C 0.72213 0.19277 0.97245 0.0
C545 C 0.6922 0.17982 0.97901 0.0
C546 C 0.74576 0.22176 0.98285 0.0
C547 C 0.73969 0.2356 1.00042 0.0
C548 C 0.70963 0.22128 0.00716 0.0
C549 C 0.68601 0.19471 0.99624 0.0
C550 C 0.77701 0.2383 0.97498 0.0
C551 C 0.70259 0.23319 0.02598 0.0
C552 C 0.812 0.26146 0.03148 0.0
C553 C 0.81113 0.32238 0.03353 0.0
C554 C 0.78855 0.23244 0.02098 0.0
C555 C 0.76458 0.26554 0.01175 0.0
C556 C 0.76407 0.32732 0.01358 0.0
C557 C 0.78696 0.35487 0.02476 0.0
C558 C 0.78917 0.16638 0.01995 0.0
C559 C 0.73966 0.36442 1.00352 0.0
H560 H 0.72677 0.18139 0.95907 0.0
H561 H 0.66293 0.18394 1.00136 0.0
H562 H 0.78116 0.28613 0.97643 0.0
H563 H 0.79723 0.21567 0.982 0.0
H564 H 0.77739 0.22683 0.96091 0.0
H565 H 0.67868 0.2165 0.02941 0.0
H566 H 0.72114 0.21231 0.03473 0.0
H567 H 0.70346 0.28098 0.02858 0.0
H568 H 0.83066 0.23644 0.03837 0.0
H569 H 0.78659 0.40213 0.02622 0.0
H570 H 0.79271 0.15228 0.00634 0.0
H571 H 0.76582 0.14831 0.02378 0.0
H572 H 0.80853 0.14703 0.02853 0.0
H573 H 0.74064 0.35515 0.98935 0.0
H574 H 0.74363 0.41207 1.00567 0.0
H575 H 0.71516 0.35329 0.00745 0.0
C576 C 0.6836 0.54673 0.76671 0.0
C577 C 0.6897 0.54529 0.78482 0.0
C578 C 0.70722 0.53081 0.75513 0.0
C579 C 0.73737 0.51054 0.76181 0.0
C580 C 0.74352 0.50816 0.78015 0.0
C581 C 0.7198 0.52679 0.79146 0.0
C582 C 0.7 0.53641 0.73573 0.0
C583 C 0.77494 0.48502 0.78782 0.0
C584 C 0.78555 0.41822 0.73078 0.0
C585 C 0.80945 0.45763 0.72613 0.0
C586 C 0.76237 0.43442 0.74267 0.0
C587 C 0.76237 0.49214 0.74954 0.0
C588 C 0.78587 0.53264 0.74437 0.0
C589 C 0.80952 0.5145 0.73303 0.0
C590 C 0.73841 0.38934 0.74822 0.0
C591 C 0.78602 0.59521 0.75077 0.0
H592 H 0.66042 0.56171 0.76155 0.0
H593 H 0.72446 0.52539 0.80547 0.0
H594 H 0.71837 0.56435 0.7298 0.0
H595 H 0.70105 0.49274 0.72945 0.0
H596 H 0.67598 0.55573 0.73268 0.0
H597 H 0.77548 0.48362 0.80231 0.0
H598 H 0.77923 0.44015 0.78284 0.0
H599 H 0.79499 0.51292 0.7837 0.0
H600 H 0.78583 0.3739 0.72569 0.0
H601 H 0.82805 0.54498 0.72946 0.0
H602 H 0.71371 0.40395 0.74452 0.0
H603 H 0.73992 0.38456 0.76264 0.0
H604 H 0.74241 0.34576 0.74224 0.0
H605 H 0.76235 0.61582 0.74773 0.0
H606 H 0.80486 0.62201 0.7448 0.0
H607 H 0.7901 0.59621 0.76515 0.0
C608 C 0.53331 0.0261 0.97252 0.0
C609 C 0.56425 0.04007 0.97899 0.0
C610 C 0.50941 0.00879 0.98388 0.0
C611 C 0.5163 0.00797 1.00217 0.0
C612 C 0.54741 0.02334 0.00872 0.0
C613 C 0.57112 0.03801 0.99704 0.0
C614 C 0.47693 0.99072 0.97631 0.0
C615 C 0.55551 0.02535 0.02809 0.0
C616 C 0.4451 0.01585 0.03162 0.0
C617 C 0.44347 0.95814 0.03774 0.0
C618 C 0.46916 0.03307 0.02039 0.0
C619 C 0.49113 0.99084 0.01449 0.0
C620 C 0.48927 0.93227 0.02054 0.0
C621 C 0.46589 0.91696 0.03238 0.0
C622 C 0.4711 0.09645 0.01489 0.0
C623 C 0.51139 0.88539 0.01412 0.0
H624 H 0.528 0.0276 0.95857 0.0
H625 H 0.59493 0.04967 1.0021 0.0
H626 H 0.47094 0.94607 0.9809 0.0
H627 H 0.45823 0.02083 0.98089 0.0
H628 H 0.4759 0.99089 0.96181 0.0
H629 H 0.58034 0.04101 0.03108 0.0
H630 H 0.53857 0.05483 0.03458 0.0
H631 H 0.55291 0.98114 0.03386 0.0
H632 H 0.42767 0.04764 0.03573 0.0
H633 H 0.46423 0.87202 0.03686 0.0
H634 H 0.46643 0.1002 1.00059 0.0
H635 H 0.4956 0.11365 0.01787 0.0
H636 H 0.4536 0.12446 0.02152 0.0
H637 H 0.50927 0.88296 0.99966 0.0
H638 H 0.50602 0.8415 0.01954 0.0
H639 H 0.53665 0.89652 0.01776 0.0
C640 C 0.46938 0.30552 0.22376 0.0
C641 C 0.44017 0.32288 0.23037 0.0
C642 C 0.49271 0.27708 0.23449 0.0
C643 C 0.48716 0.26843 0.25242 0.0
C644 C 0.45786 0.28722 0.25919 0.0
C645 C 0.43442 0.31305 0.24798 0.0
C646 C 0.52308 0.25568 0.22662 0.0
C647 C 0.45149 0.28097 0.27833 0.0
C648 C 0.53368 0.15188 0.27839 0.0
C649 C 0.55916 0.1845 0.28587 0.0
C650 C 0.51035 0.17848 0.26726 0.0
C651 C 0.51191 0.23956 0.26409 0.0
C652 C 0.5371 0.27299 0.27209 0.0
C653 C 0.56081 0.24479 0.28262 0.0
C654 C 0.48451 0.14096 0.25854 0.0
C655 C 0.53897 0.33851 0.26958 0.0
H656 H 0.47368 0.31303 0.2101 0.0
H657 H 0.4119 0.32723 0.25311 0.0
H658 H 0.54412 0.27854 0.23276 0.0
H659 H 0.52628 0.20814 0.22923 0.0
H660 H 0.52295 0.26303 0.2123 0.0
H661 H 0.42811 0.30029 0.28165 0.0
H662 H 0.4516 0.23402 0.28206 0.0
H663 H 0.47082 0.30279 0.28632 0.0
H664 H 0.53264 0.10507 0.28074 0.0
H665 H 0.5805 0.26999 0.28847 0.0
H666 H 0.48508 0.1457 0.24416 0.0
H667 H 0.46055 0.15575 0.26242 0.0
H668 H 0.48729 0.09384 0.26193 0.0
H669 H 0.54236 0.34876 0.25565 0.0
H670 H 0.55897 0.35853 0.27753 0.0
H671 H 0.51614 0.35928 0.27317 0.0
C672 C 0.43418 0.81073 0.74882 0.0
C673 C 0.4403 0.8262 0.73162 0.0
C674 C 0.45797 0.78436 0.75969 0.0
C675 C 0.48813 0.77091 0.75293 0.0
C676 C 0.49421 0.78569 0.73543 0.0
C677 C 0.4704 0.81437 0.72509 0.0
C678 C 0.45091 0.77131 0.77844 0.0
C679 C 0.52559 0.77016 0.72754 0.0
C680 C 0.56068 0.74284 0.78363 0.0
C681 C 0.55998 0.68173 0.78515 0.0
C682 C 0.53701 0.77266 0.77349 0.0
C683 C 0.51301 0.74023 0.76408 0.0
C684 C 0.51262 0.6783 0.76541 0.0
C685 C 0.53573 0.6499 0.77624 0.0
C686 C 0.53751 0.83879 0.77297 0.0
C687 C 0.48818 0.64196 0.75513 0.0
H688 H 0.41096 0.8205 0.75391 0.0
H689 H 0.47502 0.82609 0.71174 0.0
H690 H 0.45165 0.72335 0.78076 0.0
H691 H 0.46951 0.79146 0.78731 0.0
H692 H 0.42704 0.78795 0.78196 0.0
H693 H 0.52614 0.78302 0.71359 0.0
H694 H 0.54572 0.79215 0.73482 0.0
H695 H 0.52978 0.72222 0.72859 0.0
H696 H 0.57942 0.76733 0.79062 0.0
H697 H 0.53549 0.60251 0.77729 0.0
H698 H 0.5141 0.85635 0.7769 0.0
H699 H 0.5411 0.85413 0.75948 0.0
H700 H 0.5568 0.8575 0.78172 0.0
H701 H 0.46368 0.65283 0.75912 0.0
H702 H 0.49212 0.59416 0.75697 0.0
H703 H 0.48916 0.65224 0.74102 0.0
C704 C 0.46582 0.4218 0.53227 0.0
C705 C 0.44299 0.46145 0.53807 0.0
C706 C 0.48857 0.43909 0.5203 0.0
C707 C 0.48935 0.49811 0.51455 0.0
C708 C 0.46694 0.53878 0.52086 0.0
C709 C 0.44354 0.5196 0.53222 0.0
C710 C 0.51124 0.39384 0.51347 0.0
C711 C 0.46776 0.60257 0.51568 0.0
C712 C 0.56861 0.5492 0.49719 0.0
C713 C 0.56178 0.5512 0.47914 0.0
C714 C 0.54503 0.53368 0.50884 0.0
C715 C 0.51409 0.51742 0.50226 0.0
C716 C 0.50714 0.51875 0.48397 0.0
C717 C 0.53092 0.53684 0.47264 0.0
C718 C 0.5532 0.53511 0.52821 0.0
C719 C 0.47482 0.49989 0.47638 0.0
H720 H 0.46499 0.37652 0.53653 0.0
H721 H 0.42578 0.55019 0.53667 0.0
H722 H 0.50905 0.39259 0.499 0.0
H723 H 0.53636 0.40585 0.51715 0.0
H724 H 0.5065 0.34925 0.51857 0.0
H725 H 0.4498 0.62912 0.52246 0.0
H726 H 0.49195 0.62101 0.51875 0.0
H727 H 0.46302 0.60696 0.5014 0.0
H728 H 0.59237 0.56109 0.50228 0.0
H729 H 0.52567 0.53821 0.45868 0.0
H730 H 0.55164 0.49035 0.53375 0.0
H731 H 0.53566 0.56283 0.5349 0.0
H732 H 0.57768 0.55244 0.53125 0.0
H733 H 0.46967 0.45435 0.4805 0.0
H734 H 0.47349 0.50187 0.46189 0.0
H735 H 0.45573 0.52825 0.4814 0.0
C736 C 0.08421 0.79836 0.34963 0.0
C737 C 0.10526 0.75082 0.34832 0.0
C738 C 0.0906 0.84369 0.36169 0.0
C739 C 0.11814 0.84041 0.37311 0.0
C740 C 0.13936 0.79223 0.3719 0.0
C741 C 0.13293 0.74849 0.35932 0.0
C742 C 0.06797 0.89524 0.36214 0.0
C743 C 0.16858 0.78635 0.38409 0.0
C744 C 0.15339 0.97805 0.39417 0.0
C745 C 0.14044 0.97682 0.41073 0.0
C746 C 0.14564 0.93484 0.38169 0.0
C747 C 0.12523 0.88804 0.38604 0.0
C748 C 0.11208 0.88649 0.40278 0.0
C749 C 0.11941 0.93156 0.41485 0.0
C750 C 0.15932 0.93932 0.36383 0.0
C751 C 0.0909 0.83654 0.40807 0.0
H752 H 0.06284 0.80032 0.3411 0.0
H753 H 0.149 0.71137 0.3585 0.0
H754 H 0.05739 0.89818 0.37512 0.0
H755 H 0.08132 0.93658 0.36012 0.0
H756 H 0.0482 0.89208 0.35201 0.0
H757 H 0.18194 0.74506 0.38192 0.0
H758 H 0.18501 0.82384 0.38229 0.0
H759 H 0.16134 0.78742 0.39783 0.0
H760 H 0.16936 0.01347 0.39089 0.0
H761 H 0.10951 0.93046 0.42767 0.0
H762 H 0.1397 0.93789 0.3536 0.0
H763 H 0.17526 0.90143 0.3616 0.0
H764 H 0.17327 0.98027 0.3622 0.0
H765 H 0.06943 0.83372 0.39907 0.0
H766 H 0.08288 0.84145 0.42161 0.0
H767 H 0.10404 0.79447 0.4071 0.0
C768 C 0.12248 0.28736 0.4155 0.0
C769 C 0.14448 0.24364 0.41143 0.0
C770 C 0.11524 0.33331 0.40369 0.0
C771 C 0.12954 0.33423 0.38725 0.0
C772 C 0.15103 0.28907 0.38294 0.0
C773 C 0.1586 0.24495 0.39518 0.0
C774 C 0.09286 0.38149 0.40894 0.0
C775 C 0.16601 0.28718 0.36538 0.0
C776 C 0.08925 0.42315 0.35043 0.0
C777 C 0.10967 0.47174 0.34957 0.0
C778 C 0.09554 0.37788 0.36253 0.0
C779 C 0.12226 0.38235 0.37449 0.0
C780 C 0.14272 0.43182 0.37382 0.0
C781 C 0.13648 0.47544 0.36116 0.0
C782 C 0.07382 0.32497 0.36237 0.0
C783 C 0.17096 0.43903 0.38662 0.0
H784 H 0.1117 0.28656 0.4281 0.0
H785 H 0.17536 0.21076 0.39191 0.0
H786 H 0.10529 0.42441 0.40846 0.0
H787 H 0.07184 0.38375 0.39962 0.0
H788 H 0.08418 0.37495 0.42229 0.0
H789 H 0.18094 0.24742 0.36375 0.0
H790 H 0.14703 0.28811 0.35479 0.0
H791 H 0.18129 0.32636 0.36373 0.0
H792 H 0.06853 0.42019 0.34145 0.0
H793 H 0.15202 0.51343 0.36069 0.0
H794 H 0.06268 0.32039 0.37516 0.0
H795 H 0.08803 0.28465 0.3603 0.0
H796 H 0.05446 0.32766 0.35199 0.0
H797 H 0.16283 0.43623 0.40017 0.0
H798 H 0.18347 0.48152 0.38498 0.0
H799 H 0.18841 0.40305 0.38493 0.0
C800 C 0.09217 0.30275 0.84844 0.0
C801 C 0.11069 0.2515 0.84823 0.0
C802 C 0.09925 0.34773 0.86048 0.0
C803 C 0.12493 0.3406 0.87298 0.0
C804 C 0.14388 0.28904 0.87275 0.0
C805 C 0.13681 0.24542 0.8602 0.0
C806 C 0.07909 0.40271 0.8599 0.0
C807 C 0.17105 0.27925 0.88608 0.0
C808 C 0.1608 0.47577 0.89525 0.0
C809 C 0.14459 0.47744 0.91089 0.0
C810 C 0.15447 0.4318 0.88278 0.0
C811 C 0.13199 0.38733 0.88621 0.0
C812 C 0.11578 0.38833 0.90207 0.0
C813 C 0.12193 0.43392 0.91412 0.0
C814 C 0.17154 0.43346 0.86583 0.0
C815 C 0.09214 0.34099 0.90637 0.0
H816 H 0.07202 0.30763 0.83914 0.0
H817 H 0.1509 0.2055 0.86022 0.0
H818 H 0.06637 0.40729 0.87221 0.0
H819 H 0.09465 0.44181 0.85873 0.0
H820 H 0.06103 0.40263 0.84882 0.0
H821 H 0.18331 0.23664 0.88423 0.0
H822 H 0.18897 0.31491 0.8853 0.0
H823 H 0.16175 0.28041 0.89941 0.0
H824 H 0.17811 0.50969 0.89259 0.0
H825 H 0.1095 0.43484 0.92624 0.0
H826 H 0.15374 0.43555 0.85467 0.0
H827 H 0.18568 0.39277 0.86431 0.0
H828 H 0.18794 0.47162 0.86506 0.0
H829 H 0.07173 0.34116 0.89662 0.0
H830 H 0.08261 0.34666 0.91956 0.0
H831 H 0.10377 0.29735 0.90571 0.0
C832 C 0.16295 0.80125 0.91368 0.0
C833 C 0.14261 0.75287 0.91546 0.0
C834 C 0.15553 0.84584 0.90153 0.0
C835 C 0.12751 0.84125 0.89052 0.0
C836 C 0.10673 0.7927 0.89235 0.0
C837 C 0.11432 0.74948 0.90496 0.0
C838 C 0.17782 0.89768 0.9004 0.0
C839 C 0.07696 0.78557 0.88065 0.0
C840 C 0.09312 0.97855 0.86865 0.0
C841 C 0.10634 0.97624 0.85215 0.0
C842 C 0.10006 0.93532 0.88128 0.0
C843 C 0.11993 0.88744 0.87717 0.0
C844 C 0.13296 0.88435 0.86042 0.0
C845 C 0.12646 0.92937 0.84821 0.0
C846 C 0.08656 0.94143 0.89914 0.0
C847 C 0.15358 0.8333 0.85537 0.0
H848 H 0.18479 0.8042 0.92182 0.0
H849 H 0.09872 0.71182 0.90612 0.0
H850 H 0.18823 0.89903 0.88736 0.0
H851 H 0.16429 0.93907 0.90198 0.0
H852 H 0.19774 0.89612 0.91048 0.0
H853 H 0.06346 0.7451 0.88362 0.0
H854 H 0.06087 0.82381 0.88205 0.0
H855 H 0.08362 0.78403 0.86681 0.0
H856 H 0.07786 0.01513 0.87183 0.0
H857 H 0.13658 0.92733 0.83545 0.0
H858 H 0.10638 0.9422 0.90926 0.0
H859 H 0.07125 0.90314 0.90192 0.0
H860 H 0.07207 0.98194 0.90036 0.0
H861 H 0.17563 0.83169 0.86396 0.0
H862 H 0.16064 0.83603 0.8416 0.0
H863 H 0.14051 0.79156 0.8572 0.0
C864 C 0.87124 0.2677 0.65145 0.0
C865 C 0.89887 0.26525 0.66249 0.0
C866 C 0.86493 0.22428 0.63875 0.0
C867 C 0.8862 0.1762 0.63744 0.0
C868 C 0.91379 0.17293 0.64884 0.0
C869 C 0.92007 0.21801 0.66101 0.0
C870 C 0.83567 0.23021 0.6266 0.0
C871 C 0.93646 0.12146 0.64833 0.0
C872 C 0.85058 0.0382 0.61673 0.0
C873 C 0.86335 0.03887 0.60012 0.0
C874 C 0.85851 0.0817 0.6291 0.0
C875 C 0.87892 0.12832 0.62459 0.0
C876 C 0.89187 0.12935 0.60779 0.0
C877 C 0.88438 0.08394 0.59584 0.0
C878 C 0.84506 0.07762 0.64702 0.0
C879 C 0.91304 0.17907 0.60233 0.0
H880 H 0.85503 0.30458 0.6524 0.0
H881 H 0.9414 0.21591 0.66958 0.0
H882 H 0.8428 0.22852 0.61284 0.0
H883 H 0.81909 0.19305 0.62855 0.0
H884 H 0.82251 0.27177 0.62867 0.0
H885 H 0.95646 0.12492 0.65832 0.0
H886 H 0.92321 0.08015 0.65055 0.0
H887 H 0.94671 0.11819 0.63528 0.0
H888 H 0.83465 0.00289 0.62016 0.0
H889 H 0.8942 0.08459 0.58299 0.0
H890 H 0.82918 0.11561 0.64925 0.0
H891 H 0.8648 0.07918 0.65718 0.0
H892 H 0.8311 0.03675 0.64878 0.0
H893 H 0.89997 0.22123 0.60328 0.0
H894 H 0.92087 0.17382 0.58876 0.0
H895 H 0.93462 0.18197 0.61124 0.0
C896 C 0.90628 0.59783 0.6661 0.0
C897 C 0.89066 0.54369 0.66446 0.0
C898 C 0.89951 0.64334 0.65414 0.0
C899 C 0.87763 0.63348 0.63979 0.0
C900 C 0.86208 0.57843 0.638 0.0
C901 C 0.86834 0.53454 0.65056 0.0
C902 C 0.91569 0.70197 0.65689 0.0
C903 C 0.83937 0.56546 0.62263 0.0
C904 C 0.83714 0.76258 0.61651 0.0
C905 C 0.85645 0.77081 0.60217 0.0
C906 C 0.84408 0.71875 0.62895 0.0
C907 C 0.87054 0.68106 0.62682 0.0
C908 C 0.89004 0.68882 0.61232 0.0
C909 C 0.88302 0.73416 0.60029 0.0
C910 C 0.82317 0.71305 0.64443 0.0
C911 C 0.91801 0.64865 0.60937 0.0
H912 H 0.92362 0.60465 0.67685 0.0
H913 H 0.85673 0.4922 0.64916 0.0
H914 H 0.93081 0.71201 0.64574 0.0
H915 H 0.89738 0.73711 0.65744 0.0
H916 H 0.931 0.70328 0.6691 0.0
H917 H 0.83018 0.51978 0.62281 0.0
H918 H 0.81868 0.59593 0.62256 0.0
H919 H 0.85171 0.57251 0.61028 0.0
H920 H 0.81676 0.79114 0.61817 0.0
H921 H 0.8979 0.74009 0.58919 0.0
H922 H 0.83808 0.71622 0.65673 0.0
H923 H 0.81142 0.66946 0.64433 0.0
H924 H 0.80427 0.74731 0.64454 0.0
H925 H 0.93567 0.65131 0.62057 0.0
H926 H 0.93036 0.6596 0.59725 0.0
H927 H 0.90959 0.60257 0.60851 0.0
C928 C 0.87961 0.58177 0.09663 0.0
C929 C 0.85932 0.53539 0.10077 0.0
C930 C 0.88651 0.62696 0.10874 0.0
C931 C 0.87372 0.62446 0.12556 0.0
C932 C 0.85388 0.57682 0.1299 0.0
C933 C 0.84652 0.53348 0.11737 0.0
C934 C 0.90712 0.67775 0.10346 0.0
C935 C 0.84064 0.57125 0.14783 0.0
C936 C 0.91592 0.71186 0.1621 0.0
C937 C 0.89508 0.75953 0.16389 0.0
C938 C 0.90909 0.66733 0.14985 0.0
C939 C 0.88117 0.67131 0.13873 0.0
C940 C 0.86004 0.71939 0.14047 0.0
C941 C 0.86702 0.76249 0.15319 0.0
C942 C 0.93172 0.61593 0.14883 0.0
C943 C 0.83036 0.72589 0.12866 0.0
H944 H 0.88943 0.58343 0.08379 0.0
H945 H 0.83117 0.49722 0.12071 0.0
H946 H 0.89391 0.71952 0.10501 0.0
H947 H 0.92906 0.68005 0.11212 0.0
H948 H 0.91434 0.67417 0.08974 0.0
H949 H 0.82654 0.5304 0.14931 0.0
H950 H 0.86055 0.5716 0.15791 0.0
H951 H 0.82499 0.60922 0.15046 0.0
H952 H 0.93758 0.70923 0.17039 0.0
H953 H 0.85104 0.79961 0.15437 0.0
H954 H 0.94187 0.61408 0.13572 0.0
H955 H 0.9185 0.57437 0.1507 0.0
H956 H 0.95181 0.61841 0.15879 0.0
H957 H 0.83708 0.72623 0.11483 0.0
H958 H 0.81692 0.76671 0.13132 0.0
H959 H 0.81418 0.68794 0.13033 0.0
C960 C 0.9062 0.03461 0.1453 0.0
C961 C 0.89201 0.03411 0.16154 0.0
C962 C 0.89904 0.07869 0.13297 0.0
C963 C 0.8779 0.12457 0.13717 0.0
C964 C 0.8637 0.12463 0.15364 0.0
C965 C 0.87051 0.07879 0.16553 0.0
C966 C 0.91387 0.07579 0.11538 0.0
C967 C 0.84165 0.1735 0.15877 0.0
C968 C 0.88392 0.26539 0.11076 0.0
C969 C 0.85678 0.26133 0.0994 0.0
C970 C 0.89077 0.22173 0.12333 0.0
C971 C 0.87052 0.17205 0.12422 0.0
C972 C 0.84354 0.16712 0.11246 0.0
C973 C 0.83676 0.21218 0.10038 0.0
C974 C 0.91938 0.22924 0.13587 0.0
C975 C 0.82191 0.11409 0.11258 0.0
H976 H 0.92255 0.99971 0.14208 0.0
H977 H 0.85966 0.07865 0.17811 0.0
H978 H 0.89477 0.07574 0.10485 0.0
H979 H 0.92893 0.11507 0.11343 0.0
H980 H 0.92895 0.03612 0.11396 0.0
H981 H 0.83338 0.16813 0.17225 0.0
H982 H 0.85415 0.21626 0.15787 0.0
H983 H 0.82035 0.1752 0.14963 0.0
H984 H 0.89924 0.30364 0.11018 0.0
H985 H 0.81584 0.20874 0.09155 0.0
H986 H 0.93652 0.19268 0.13431 0.0
H987 H 0.91155 0.22772 0.1495 0.0
H988 H 0.93212 0.27126 0.13385 0.0
H989 H 0.83616 0.07369 0.11069 0.0
H990 H 0.8025 0.11614 0.10222 0.0
H991 H 0.81084 0.11021 0.1254 0.0
C992 C 0.58431 0.78038 0.85378 0.0
C993 C 0.60562 0.73364 0.85163 0.0
C994 C 0.5913 0.82528 0.86589 0.0
C995 C 0.61989 0.8226 0.8765 0.0
C996 C 0.64136 0.77515 0.87451 0.0
C997 C 0.6342 0.7317 0.86193 0.0
C998 C 0.56827 0.87598 0.86716 0.0
C999 C 0.67176 0.77 0.88582 0.0
C1000 C 0.65474 0.96271 0.89631 0.0
C1001 C 0.64304 0.96168 0.91316 0.0
C1002 C 0.64694 0.91831 0.8842 0.0
C1003 C 0.62783 0.87048 0.88924 0.0
C1004 C 0.61621 0.86886 0.90634 0.0
C1005 C 0.62346 0.91513 0.91801 0.0
C1006 C 0.65888 0.92298 0.86595 0.0
C1007 C 0.59649 0.81788 0.91236 0.0
H1008 H 0.56228 0.78228 0.84577 0.0
H1009 H 0.65058 0.69535 0.86045 0.0
H1010 H 0.55932 0.87863 0.88053 0.0
H1011 H 0.58084 0.91777 0.86462 0.0
H1012 H 0.54737 0.87205 0.85775 0.0
H1013 H 0.68513 0.72903 0.88324 0.0
H1014 H 0.68766 0.80787 0.88349 0.0
H1015 H 0.66598 0.77098 0.8998 0.0
H1016 H 0.66956 0.99911 0.89245 0.0
H1017 H 0.61452 0.91419 0.93107 0.0
H1018 H 0.63835 0.92127 0.85627 0.0
H1019 H 0.67471 0.88533 0.86325 0.0
H1020 H 0.67242 0.96415 0.86391 0.0
H1021 H 0.57403 0.81432 0.90417 0.0
H1022 H 0.59019 0.82224 0.92622 0.0
H1023 H 0.60995 0.77639 0.91082 0.0
C1024 C 0.65613 0.22724 0.89335 0.0
C1025 C 0.64225 0.22785 0.90967 0.0
C1026 C 0.64848 0.27011 0.88073 0.0
C1027 C 0.62718 0.31596 0.88471 0.0
C1028 C 0.61292 0.31668 0.90117 0.0
C1029 C 0.62023 0.27196 0.91337 0.0
C1030 C 0.66341 0.2665 0.86318 0.0
C1031 C 0.59074 0.36563 0.90607 0.0
C1032 C 0.6353 0.45672 0.85855 0.0
C1033 C 0.60824 0.45411 0.84711 0.0
C1034 C 0.64139 0.41264 0.87107 0.0
C1035 C 0.62052 0.36375 0.87175 0.0
C1036 C 0.59373 0.36006 0.8598 0.0
C1037 C 0.58757 0.40585 0.84786 0.0
C1038 C 0.66972 0.41907 0.88385 0.0
C1039 C 0.57159 0.30773 0.85964 0.0
H1040 H 0.67293 0.19277 0.8904 0.0
H1041 H 0.60968 0.27267 0.92603 0.0
H1042 H 0.64448 0.26797 0.85257 0.0
H1043 H 0.67933 0.30474 0.8614 0.0
H1044 H 0.67771 0.22586 0.86173 0.0
H1045 H 0.58161 0.35982 0.91935 0.0
H1046 H 0.60355 0.40817 0.90558 0.0
H1047 H 0.57 0.36817 0.89656 0.0
H1048 H 0.65099 0.49452 0.85819 0.0
H1049 H 0.56662 0.40385 0.83901 0.0
H1050 H 0.68661 0.38208 0.88236 0.0
H1051 H 0.66151 0.41755 0.8974 0.0
H1052 H 0.6829 0.46077 0.88202 0.0
H1053 H 0.58555 0.26688 0.85794 0.0
H1054 H 0.55265 0.31039 0.84903 0.0
H1055 H 0.55991 0.30428 0.8723 0.0
C1056 C 0.5899 0.23231 0.37033 0.0
C1057 C 0.60668 0.22945 0.35489 0.0
C1058 C 0.59681 0.27565 0.38294 0.0
C1059 C 0.62048 0.31837 0.37985 0.0
C1060 C 0.63744 0.31591 0.36425 0.0
C1061 C 0.63067 0.27093 0.35207 0.0
C1062 C 0.57881 0.27559 0.39959 0.0
C1063 C 0.66229 0.36147 0.36026 0.0
C1064 C 0.61528 0.46237 0.40475 0.0
C1065 C 0.64068 0.45679 0.4172 0.0
C1066 C 0.6087 0.418 0.39239 0.0
C1067 C 0.62723 0.3659 0.3929 0.0
C1068 C 0.65216 0.35927 0.40589 0.0
C1069 C 0.65901 0.40531 0.41766 0.0
C1070 C 0.58255 0.42763 0.37845 0.0
C1071 C 0.67172 0.30368 0.40731 0.0
H1072 H 0.57153 0.20002 0.37267 0.0
H1073 H 0.64354 0.26916 0.34011 0.0
H1074 H 0.59599 0.27433 0.41104 0.0
H1075 H 0.56467 0.31651 0.40055 0.0
H1076 H 0.56224 0.23767 0.40036 0.0
H1077 H 0.67289 0.35409 0.34741 0.0
H1078 H 0.65129 0.40575 0.36028 0.0
H1079 H 0.68184 0.36115 0.37051 0.0
H1080 H 0.60145 0.5026 0.4042 0.0
H1081 H 0.67869 0.40104 0.42728 0.0
H1082 H 0.56402 0.39302 0.37921 0.0
H1083 H 0.59271 0.42449 0.36536 0.0
H1084 H 0.57079 0.47104 0.37964 0.0
H1085 H 0.65563 0.26525 0.40839 0.0
H1086 H 0.68893 0.30408 0.41878 0.0
H1087 H 0.68534 0.29763 0.39536 0.0
C1088 C 0.65988 0.72804 0.39308 0.0
C1089 C 0.64525 0.72923 0.40919 0.0
C1090 C 0.65316 0.77104 0.38034 0.0
C1091 C 0.63206 0.81756 0.384 0.0
C1092 C 0.61728 0.81914 0.4003 0.0
C1093 C 0.62365 0.77435 0.4126 0.0
C1094 C 0.6686 0.76658 0.36295 0.0
C1095 C 0.59527 0.86877 0.40488 0.0
C1096 C 0.63966 0.95819 0.35766 0.0
C1097 C 0.61243 0.9553 0.34634 0.0
C1098 C 0.64622 0.91389 0.37007 0.0
C1099 C 0.62561 0.86465 0.37078 0.0
C1100 C 0.5988 0.86048 0.35887 0.0
C1101 C 0.59223 0.90633 0.34701 0.0
C1102 C 0.67459 0.92076 0.3828 0.0
C1103 C 0.57686 0.80788 0.35877 0.0
H1104 H 0.67637 0.69285 0.39033 0.0
H1105 H 0.61251 0.77559 0.4251 0.0
H1106 H 0.6499 0.76687 0.35221 0.0
H1107 H 0.68427 0.80506 0.36103 0.0
H1108 H 0.68322 0.72616 0.36186 0.0
H1109 H 0.58628 0.86429 0.41823 0.0
H1110 H 0.60813 0.91116 0.40399 0.0
H1111 H 0.57444 0.87054 0.39542 0.0
H1112 H 0.65502 0.99645 0.35736 0.0
H1113 H 0.57116 0.90401 0.33826 0.0
H1114 H 0.69119 0.88315 0.38167 0.0
H1115 H 0.66628 0.92083 0.39634 0.0
H1116 H 0.68809 0.96189 0.38063 0.0
H1117 H 0.591 0.76704 0.35748 0.0
H1118 H 0.55827 0.80965 0.34797 0.0
H1119 H 0.56471 0.80521 0.37131 0.0
C1120 C 0.40905 0.20337 0.16524 0.0
C1121 C 0.39075 0.2549 0.16533 0.0
C1122 C 0.40217 0.15865 0.15308 0.0
C1123 C 0.37697 0.16637 0.14032 0.0
C1124 C 0.35822 0.21819 0.14043 0.0
C1125 C 0.36504 0.26152 0.15312 0.0
C1126 C 0.42205 0.10334 0.1538 0.0
C1127 C 0.33157 0.22861 0.12685 0.0
C1128 C 0.3809 0.07354 0.09909 0.0
C1129 C 0.35784 0.03046 0.10202 0.0
C1130 C 0.38691 0.11884 0.11127 0.0
C1131 C 0.37015 0.11993 0.12696 0.0
C1132 C 0.34728 0.07585 0.13008 0.0
C1133 C 0.34111 0.03221 0.1175 0.0
C1134 C 0.411 0.16576 0.10729 0.0
C1135 C 0.32961 0.07424 0.14684 0.0
H1136 H 0.42892 0.19814 0.1747 0.0
H1137 H 0.35117 0.30169 0.153 0.0
H1138 H 0.40624 0.06446 0.15471 0.0
H1139 H 0.43526 0.09879 0.14165 0.0
H1140 H 0.43967 0.10293 0.16509 0.0
H1141 H 0.31941 0.27137 0.12863 0.0
H1142 H 0.34136 0.22757 0.11363 0.0
H1143 H 0.31345 0.1932 0.12736 0.0
H1144 H 0.39375 0.07252 0.08711 0.0
H1145 H 0.32352 0.99859 0.11994 0.0
H1146 H 0.43106 0.16507 0.11725 0.0
H1147 H 0.39959 0.20961 0.10789 0.0
H1148 H 0.42097 0.16009 0.09421 0.0
H1149 H 0.34703 0.07171 0.15817 0.0
H1150 H 0.31299 0.03633 0.14739 0.0
H1151 H 0.3156 0.11512 0.14827 0.0
C1152 C 0.40772 0.52988 0.14481 0.0
C1153 C 0.39384 0.53023 0.16115 0.0
C1154 C 0.40027 0.57329 0.13231 0.0
C1155 C 0.37914 0.61932 0.13639 0.0
C1156 C 0.36531 0.62031 0.15295 0.0
C1157 C 0.37242 0.57519 0.16503 0.0
C1158 C 0.41476 0.56949 0.11464 0.0
C1159 C 0.34329 0.66938 0.15797 0.0
C1160 C 0.38445 0.75969 0.10975 0.0
C1161 C 0.35698 0.75569 0.09863 0.0
C1162 C 0.39172 0.71603 0.12225 0.0
C1163 C 0.37155 0.66632 0.12331 0.0
C1164 C 0.34427 0.66131 0.11175 0.0
C1165 C 0.33706 0.70646 0.09974 0.0
C1166 C 0.42062 0.7237 0.13457 0.0
C1167 C 0.32271 0.60823 0.11206 0.0
H1168 H 0.42398 0.49476 0.14165 0.0
H1169 H 0.36174 0.57572 0.17766 0.0
H1170 H 0.39546 0.56881 0.10422 0.0
H1171 H 0.42971 0.60872 0.11241 0.0
H1172 H 0.42986 0.5298 0.11332 0.0
H1173 H 0.33531 0.66475 0.17153 0.0
H1174 H 0.35568 0.71213 0.15678 0.0
H1175 H 0.32181 0.67046 0.14895 0.0
H1176 H 0.39971 0.798 0.10908 0.0
H1177 H 0.31587 0.70308 0.0911 0.0
H1178 H 0.43762 0.68691 0.13303 0.0
H1179 H 0.4131 0.72282 0.14826 0.0
H1180 H 0.43344 0.76551 0.13233 0.0
H1181 H 0.33698 0.5678 0.11028 0.0
H1182 H 0.30325 0.60989 0.10172 0.0
H1183 H 0.31171 0.6048 0.12491 0.0
C1184 C 0.413 0.69915 0.66636 0.0
C1185 C 0.39336 0.74892 0.66694 0.0
C1186 C 0.40626 0.65386 0.65435 0.0
C1187 C 0.37984 0.65933 0.64223 0.0
C1188 C 0.35983 0.70942 0.64282 0.0
C1189 C 0.36655 0.75321 0.65536 0.0
C1190 C 0.42756 0.60035 0.65456 0.0
C1191 C 0.33187 0.71758 0.62989 0.0
C1192 C 0.38195 0.56889 0.60047 0.0
C1193 C 0.35992 0.52434 0.60376 0.0
C1194 C 0.38835 0.61362 0.61278 0.0
C1195 C 0.37313 0.61261 0.62895 0.0
C1196 C 0.35145 0.56686 0.63245 0.0
C1197 C 0.34476 0.52385 0.61973 0.0
C1198 C 0.41104 0.6624 0.60837 0.0
C1199 C 0.33548 0.56303 0.6497 0.0
H1200 H 0.43371 0.69568 0.67534 0.0
H1201 H 0.3516 0.79202 0.65561 0.0
H1202 H 0.41288 0.56013 0.6558 0.0
H1203 H 0.43985 0.59708 0.64207 0.0
H1204 H 0.44601 0.60137 0.66544 0.0
H1205 H 0.31888 0.75933 0.63196 0.0
H1206 H 0.3405 0.71722 0.61641 0.0
H1207 H 0.31472 0.68076 0.6309 0.0
H1208 H 0.39358 0.56954 0.58811 0.0
H1209 H 0.32799 0.48906 0.62241 0.0
H1210 H 0.43176 0.6631 0.61793 0.0
H1211 H 0.3987 0.70531 0.60927 0.0
H1212 H 0.42018 0.65775 0.59506 0.0
H1213 H 0.35393 0.56211 0.66057 0.0
H1214 H 0.32016 0.52345 0.65063 0.0
H1215 H 0.32041 0.60236 0.65158 0.0
C1216 C 0.38541 0.25448 0.60993 0.0
C1217 C 0.35921 0.24981 0.59795 0.0
C1218 C 0.39193 0.21038 0.6224 0.0
C1219 C 0.37237 0.15961 0.62254 0.0
C1220 C 0.34657 0.15383 0.61003 0.0
C1221 C 0.34 0.19942 0.59808 0.0
C1222 C 0.4192 0.21886 0.63575 0.0
C1223 C 0.3258 0.09965 0.60933 0.0
C1224 C 0.40779 0.02417 0.64496 0.0
C1225 C 0.39195 0.02339 0.66072 0.0
C1226 C 0.40123 0.06758 0.63232 0.0
C1227 C 0.37894 0.11244 0.63571 0.0
C1228 C 0.36297 0.11211 0.65166 0.0
C1229 C 0.3693 0.06704 0.66387 0.0
C1230 C 0.41804 0.06518 0.6153 0.0
C1231 C 0.33957 0.15989 0.65593 0.0
H1232 H 0.40003 0.29375 0.61001 0.0
H1233 H 0.31977 0.19565 0.58879 0.0
H1234 H 0.40992 0.21744 0.64908 0.0
H1235 H 0.4368 0.18272 0.63483 0.0
H1236 H 0.43184 0.26118 0.63405 0.0
H1237 H 0.30779 0.10064 0.59823 0.0
H1238 H 0.34094 0.06 0.6081 0.0
H1239 H 0.313 0.09529 0.62163 0.0
H1240 H 0.42506 0.99012 0.64236 0.0
H1241 H 0.35715 0.06678 0.67607 0.0
H1242 H 0.43285 0.10506 0.61381 0.0
H1243 H 0.40011 0.06429 0.60419 0.0
H1244 H 0.43379 0.02613 0.61443 0.0
H1245 H 0.35154 0.20324 0.65541 0.0
H1246 H 0.32979 0.15418 0.66906 0.0
H1247 H 0.31931 0.16047 0.64608 0.0
loop_
_geom_bond_atom_site_label_1
_geom_bond_atom_site_label_2
_geom_bond_distance
_geom_bond_site_symmetry_2
_ccdc_geom_bond_type
Co0 O1 2.216 . S
Co0 O2 2.091 . S
Co0 O4 2.004 . S
Co0 O10 2.021 . S
Co0 O12 2.137 . S
Co0 O13 2.244 . S
O1 Co0 2.216 . S
O1 C8 1.247 . S
O2 Co0 2.091 . S
O2 C8 1.261 . S
C3 O12 1.247 . S
C3 O13 1.272 . S
O4 Co0 2.004 . S
O4 C9 1.259 . S
Co5 O6 2.061 . S
Co5 O11 2.052 . S
Co5 O13 2.135 . S
O6 Co5 2.061 . S
O6 C9 1.235 . S
C7 O10 1.238 . S
C7 O11 1.241 . S
C8 O1 1.247 . S
C8 O2 1.261 . S
C9 O4 1.259 . S
C9 O6 1.235 . S
O10 Co0 2.021 . S
O10 C7 1.238 . S
O11 Co5 2.052 . S
O11 C7 1.241 . S
O12 Co0 2.137 . S
O12 C3 1.247 . S
O13 Co0 2.244 . S
O13 C3 1.272 . S
O13 Co5 2.135 . S
Co14 O15 2.216 . S
Co14 O16 2.091 . S
Co14 O18 2.004 . S
Co14 O24 2.021 . S
Co14 O26 2.137 . S
Co14 O27 2.244 . S
O15 Co14 2.216 . S
O15 C22 1.247 . S
O16 Co14 2.091 . S
O16 C22 1.261 . S
C17 O26 1.247 . S
C17 O27 1.272 . S
O18 Co14 2.004 . S
O18 C23 1.259 . S
Co19 O20 2.061 . S
Co19 O25 2.052 . S
Co19 O27 2.135 . S
O20 Co19 2.061 . S
O20 C23 1.235 . S
C21 O24 1.238 . S
C21 O25 1.241 . S
C22 O15 1.247 . S
C22 O16 1.261 . S
C23 O18 1.259 . S
C23 O20 1.235 . S
O24 Co14 2.021 . S
O24 C21 1.238 . S
O25 Co19 2.052 . S
O25 C21 1.241 . S
O26 Co14 2.137 . S
O26 C17 1.247 . S
O27 Co14 2.244 . S
O27 C17 1.272 . S
O27 Co19 2.135 . S
Co28 O29 2.216 . S
Co28 O30 2.091 . S
Co28 O32 2.004 . S
Co28 O38 2.021 . S
Co28 O40 2.137 . S
Co28 O41 2.244 . S
O29 Co28 2.216 . S
O29 C36 1.247 . S
O30 Co28 2.091 . S
O30 C36 1.261 . S
C31 O40 1.247 . S
C31 O41 1.272 . S
O32 Co28 2.004 . S
O32 C37 1.259 . S
Co33 O34 2.061 . S
Co33 O39 2.052 . S
Co33 O41 2.135 . S
O34 Co33 2.061 . S
O34 C37 1.235 . S
C35 O38 1.238 . S
C35 O39 1.241 . S
C36 O29 1.247 . S
C36 O30 1.261 . S
C37 O32 1.259 . S
C37 O34 1.235 . S
O38 Co28 2.021 . S
O38 C35 1.238 . S
O39 Co33 2.052 . S
O39 C35 1.241 . S
O40 Co28 2.137 . S
O40 C31 1.247 . S
O41 Co28 2.244 . S
O41 C31 1.272 . S
O41 Co33 2.135 . S
Co42 O43 2.216 . S
Co42 O44 2.091 . S
Co42 O46 2.004 . S
Co42 O52 2.021 . S
Co42 O54 2.137 . S
Co42 O55 2.244 . S
O43 Co42 2.216 . S
O43 C50 1.247 . S
O44 Co42 2.091 . S
O44 C50 1.261 . S
C45 O54 1.247 . S
C45 O55 1.272 . S
O46 Co42 2.004 . S
O46 C51 1.259 . S
Co47 O48 2.061 . S
Co47 O53 2.052 . S
Co47 O55 2.135 . S
O48 Co47 2.061 . S
O48 C51 1.235 . S
C49 O52 1.238 . S
C49 O53 1.241 . S
C50 O43 1.247 . S
C50 O44 1.261 . S
C51 O46 1.259 . S
C51 O48 1.235 . S
O52 Co42 2.021 . S
O52 C49 1.238 . S
O53 Co47 2.052 . S
O53 C49 1.241 . S
O54 Co42 2.137 . S
O54 C45 1.247 . S
O55 Co42 2.244 . S
O55 C45 1.272 . S
O55 Co47 2.135 . S
Co56 O57 2.216 . S
Co56 O58 2.091 . S
Co56 O60 2.004 . S
Co56 O66 2.021 . S
Co56 O68 2.137 . S
Co56 O69 2.244 . S
O57 Co56 2.216 . S
O57 C64 1.247 . S
O58 Co56 2.091 . S
O58 C64 1.261 . S
C59 O68 1.247 . S
C59 O69 1.272 . S
O60 Co56 2.004 . S
O60 C65 1.259 . S
Co61 O62 2.061 . S
Co61 O67 2.052 . S
Co61 O69 2.135 . S
O62 Co61 2.061 . S
O62 C65 1.235 . S
C63 O66 1.238 . S
C63 O67 1.241 . S
C64 O57 1.247 . S
C64 O58 1.261 . S
C65 O60 1.259 . S
C65 O62 1.235 . S
O66 Co56 2.021 . S
O66 C63 1.238 . S
O67 Co61 2.052 . S
O67 C63 1.241 . S
O68 Co56 2.137 . S
O68 C59 1.247 . S
O69 Co56 2.244 . S
O69 C59 1.272 . S
O69 Co61 2.135 . S
Co70 O71 2.216 . S
Co70 O72 2.091 . S
Co70 O74 2.004 . S
Co70 O80 2.021 . S
Co70 O82 2.137 . S
Co70 O83 2.244 . S
O71 Co70 2.216 . S
O71 C78 1.247 . S
O72 Co70 2.091 . S
O72 C78 1.261 . S
C73 O82 1.247 . S
C73 O83 1.272 . S
O74 Co70 2.004 . S
O74 C79 1.259 . S
Co75 O76 2.061 . S
Co75 O81 2.052 . S
Co75 O83 2.135 . S
O76 Co75 2.061 . S
O76 C79 1.235 . S
C77 O80 1.238 . S
C77 O81 1.241 . S
C78 O71 1.247 . S
C78 O72 1.261 . S
C79 O74 1.259 . S
C79 O76 1.235 . S
O80 Co70 2.021 . S
O80 C77 1.238 . S
O81 Co75 2.052 . S
O81 C77 1.241 . S
O82 Co70 2.137 . S
O82 C73 1.247 . S
O83 Co70 2.244 . S
O83 C73 1.272 . S
O83 Co75 2.135 . S
Co84 O85 2.216 . S
Co84 O86 2.091 . S
Co84 O88 2.004 . S
Co84 O94 2.021 . S
Co84 O96 2.137 . S
Co84 O97 2.244 . S
O85 Co84 2.216 . S
O85 C92 1.247 . S
O86 Co84 2.091 . S
O86 C92 1.261 . S
C87 O96 1.247 . S
C87 O97 1.272 . S
O88 Co84 2.004 . S
O88 C93 1.259 . S
Co89 O90 2.061 . S
Co89 O95 2.052 . S
Co89 O97 2.135 . S
O90 Co89 2.061 . S
O90 C93 1.235 . S
C91 O94 1.238 . S
C91 O95 1.241 . S
C92 O85 1.247 . S
C92 O86 1.261 . S
C93 O88 1.259 . S
C93 O90 1.235 . S
O94 Co84 2.021 . S
O94 C91 1.238 . S
O95 Co89 2.052 . S
O95 C91 1.241 . S
O96 Co84 2.137 . S
O96 C87 1.247 . S
O97 Co84 2.244 . S
O97 C87 1.272 . S
O97 Co89 2.135 . S
Co98 O99 2.216 . S
Co98 O100 2.091 . S
Co98 O102 2.004 . S
Co98 O108 2.021 . S
Co98 O110 2.137 . S
Co98 O111 2.244 . S
O99 Co98 2.216 . S
O99 C106 1.247 . S
O100 Co98 2.091 . S
O100 C106 1.261 . S
C101 O110 1.247 . S
C101 O111 1.272 . S
O102 Co98 2.004 . S
O102 C107 1.259 . S
Co103 O104 2.061 . S
Co103 O109 2.052 . S
Co103 O111 2.135 . S
O104 Co103 2.061 . S
O104 C107 1.235 . S
C105 O108 1.238 . S
C105 O109 1.241 . S
C106 O99 1.247 . S
C106 O100 1.261 . S
C107 O102 1.259 . S
C107 O104 1.235 . S
O108 Co98 2.021 . S
O108 C105 1.238 . S
O109 Co103 2.052 . S
O109 C105 1.241 . S
O110 Co98 2.137 . S
O110 C101 1.247 . S
O111 Co98 2.244 . S
O111 C101 1.272 . S
O111 Co103 2.135 . S
Co112 O113 2.216 . S
Co112 O114 2.091 . S
Co112 O116 2.004 . S
Co112 O122 2.021 . S
Co112 O124 2.137 . S
Co112 O125 2.244 . S
O113 Co112 2.216 . S
O113 C120 1.247 . S
O114 Co112 2.091 . S
O114 C120 1.261 . S
C115 O124 1.247 . S
C115 O125 1.272 . S
O116 Co112 2.004 . S
O116 C121 1.259 . S
Co117 O118 2.061 . S
Co117 O123 2.052 . S
Co117 O125 2.135 . S
O118 Co117 2.061 . S
O118 C121 1.235 . S
C119 O122 1.238 . S
C119 O123 1.241 . S
C120 O113 1.247 . S
C120 O114 1.261 . S
C121 O116 1.259 . S
C121 O118 1.235 . S
O122 Co112 2.021 . S
O122 C119 1.238 . S
O123 Co117 2.052 . S
O123 C119 1.241 . S
O124 Co112 2.137 . S
O124 C115 1.247 . S
O125 Co112 2.244 . S
O125 C115 1.272 . S
O125 Co117 2.135 . S
Co126 O127 2.216 . S
Co126 O128 2.091 . S
Co126 O130 2.004 . S
Co126 O136 2.021 . S
Co126 O138 2.137 . S
Co126 O139 2.244 . S
O127 Co126 2.216 . S
O127 C134 1.247 . S
O128 Co126 2.091 . S
O128 C134 1.261 . S
C129 O138 1.247 . S
C129 O139 1.272 . S
O130 Co126 2.004 . S
O130 C135 1.259 . S
Co131 O132 2.061 . S
Co131 O137 2.052 . S
Co131 O139 2.135 . S
O132 Co131 2.061 . S
O132 C135 1.235 . S
C133 O136 1.238 . S
C133 O137 1.241 . S
C134 O127 1.247 . S
C134 O128 1.261 . S
C135 O130 1.259 . S
C135 O132 1.235 . S
O136 Co126 2.021 . S
O136 C133 1.238 . S
O137 Co131 2.052 . S
O137 C133 1.241 . S
O138 Co126 2.137 . S
O138 C129 1.247 . S
O139 Co126 2.244 . S
O139 C129 1.272 . S
O139 Co131 2.135 . S
Co140 O141 2.216 . S
Co140 O142 2.091 . S
Co140 O144 2.004 . S
Co140 O150 2.021 . S
Co140 O152 2.137 . S
Co140 O153 2.244 . S
O141 Co140 2.216 . S
O141 C148 1.247 . S
O142 Co140 2.091 . S
O142 C148 1.261 . S
C143 O152 1.247 . S
C143 O153 1.272 . S
O144 Co140 2.004 . S
O144 C149 1.259 . S
Co145 O146 2.061 . S
Co145 O151 2.052 . S
Co145 O153 2.135 . S
O146 Co145 2.061 . S
O146 C149 1.235 . S
C147 O150 1.238 . S
C147 O151 1.241 . S
C148 O141 1.247 . S
C148 O142 1.261 . S
C149 O144 1.259 . S
C149 O146 1.235 . S
O150 Co140 2.021 . S
O150 C147 1.238 . S
O151 Co145 2.052 . S
O151 C147 1.241 . S
O152 Co140 2.137 . S
O152 C143 1.247 . S
O153 Co140 2.244 . S
O153 C143 1.272 . S
O153 Co145 2.135 . S
Co154 O155 2.216 . S
Co154 O156 2.091 . S
Co154 O158 2.004 . S
Co154 O164 2.021 . S
Co154 O166 2.137 . S
Co154 O167 2.244 . S
O155 Co154 2.216 . S
O155 C162 1.247 . S
O156 Co154 2.091 . S
O156 C162 1.261 . S
C157 O166 1.247 . S
C157 O167 1.272 . S
O158 Co154 2.004 . S
O158 C163 1.259 . S
Co159 O160 2.061 . S
Co159 O165 2.052 . S
Co159 O167 2.135 . S
O160 Co159 2.061 . S
O160 C163 1.235 . S
C161 O164 1.238 . S
C161 O165 1.241 . S
C162 O155 1.247 . S
C162 O156 1.261 . S
C163 O158 1.259 . S
C163 O160 1.235 . S
O164 Co154 2.021 . S
O164 C161 1.238 . S
O165 Co159 2.052 . S
O165 C161 1.241 . S
O166 Co154 2.137 . S
O166 C157 1.247 . S
O167 Co154 2.244 . S
O167 C157 1.272 . S
O167 Co159 2.135 . S
Co168 O169 2.216 . S
Co168 O170 2.091 . S
Co168 O172 2.004 . S
Co168 O178 2.021 . S
Co168 O180 2.137 . S
Co168 O181 2.244 . S
O169 Co168 2.216 . S
O169 C176 1.247 . S
O170 Co168 2.091 . S
O170 C176 1.261 . S
C171 O180 1.247 . S
C171 O181 1.272 . S
O172 Co168 2.004 . S
O172 C177 1.259 . S
Co173 O174 2.061 . S
Co173 O179 2.052 . S
Co173 O181 2.135 . S
O174 Co173 2.061 . S
O174 C177 1.235 . S
C175 O178 1.238 . S
C175 O179 1.241 . S
C176 O169 1.247 . S
C176 O170 1.261 . S
C177 O172 1.259 . S
C177 O174 1.235 . S
O178 Co168 2.021 . S
O178 C175 1.238 . S
O179 Co173 2.052 . S
O179 C175 1.241 . S
O180 Co168 2.137 . S
O180 C171 1.247 . S
O181 Co168 2.244 . S
O181 C171 1.272 . S
O181 Co173 2.135 . S
Co182 O183 2.216 . S
Co182 O184 2.091 . S
Co182 O186 2.004 . S
Co182 O192 2.021 . S
Co182 O194 2.137 . S
Co182 O195 2.244 . S
O183 Co182 2.216 . S
O183 C190 1.247 . S
O184 Co182 2.091 . S
O184 C190 1.261 . S
C185 O194 1.247 . S
C185 O195 1.272 . S
O186 Co182 2.004 . S
O186 C191 1.259 . S
Co187 O188 2.061 . S
Co187 O193 2.052 . S
Co187 O195 2.135 . S
O188 Co187 2.061 . S
O188 C191 1.235 . S
C189 O192 1.238 . S
C189 O193 1.241 . S
C190 O183 1.247 . S
C190 O184 1.261 . S
C191 O186 1.259 . S
C191 O188 1.235 . S
O192 Co182 2.021 . S
O192 C189 1.238 . S
O193 Co187 2.052 . S
O193 C189 1.241 . S
O194 Co182 2.137 . S
O194 C185 1.247 . S
O195 Co182 2.244 . S
O195 C185 1.272 . S
O195 Co187 2.135 . S
Co196 O197 2.216 . S
Co196 O198 2.091 . S
Co196 O200 2.004 . S
Co196 O206 2.021 . S
Co196 O208 2.137 . S
Co196 O209 2.244 . S
O197 Co196 2.216 . S
O197 C204 1.247 . S
O198 Co196 2.091 . S
O198 C204 1.261 . S
C199 O208 1.247 . S
C199 O209 1.272 . S
O200 Co196 2.004 . S
O200 C205 1.259 . S
Co201 O202 2.061 . S
Co201 O207 2.052 . S
Co201 O209 2.135 . S
O202 Co201 2.061 . S
O202 C205 1.235 . S
C203 O206 1.238 . S
C203 O207 1.241 . S
C204 O197 1.247 . S
C204 O198 1.261 . S
C205 O200 1.259 . S
C205 O202 1.235 . S
O206 Co196 2.021 . S
O206 C203 1.238 . S
O207 Co201 2.052 . S
O207 C203 1.241 . S
O208 Co196 2.137 . S
O208 C199 1.247 . S
O209 Co196 2.244 . S
O209 C199 1.272 . S
O209 Co201 2.135 . S
Co210 O211 2.216 . S
Co210 O212 2.091 . S
Co210 O214 2.004 . S
Co210 O220 2.021 . S
Co210 O222 2.137 . S
Co210 O223 2.244 . S
O211 Co210 2.216 . S
O211 C218 1.247 . S
O212 Co210 2.091 . S
O212 C218 1.261 . S
C213 O222 1.247 . S
C213 O223 1.272 . S
O214 Co210 2.004 . S
O214 C219 1.259 . S
Co215 O216 2.061 . S
Co215 O221 2.052 . S
Co215 O223 2.135 . S
O216 Co215 2.061 . S
O216 C219 1.235 . S
C217 O220 1.238 . S
C217 O221 1.241 . S
C218 O211 1.247 . S
C218 O212 1.261 . S
C219 O214 1.259 . S
C219 O216 1.235 . S
O220 Co210 2.021 . S
O220 C217 1.238 . S
O221 Co215 2.052 . S
O221 C217 1.241 . S
O222 Co210 2.137 . S
O222 C213 1.247 . S
O223 Co210 2.244 . S
O223 C213 1.272 . S
O223 Co215 2.135 . S
C224 C225 1.391 . S
C224 C226 1.394 . S
C224 H240 0.931 . S
C225 C224 1.391 . S
C225 C229 1.376 . S
C226 C224 1.394 . S
C226 C227 1.369 . S
C226 C230 1.531 . S
C227 C226 1.369 . S
C227 C228 1.410 . S
C227 C235 1.503 . S
C228 C227 1.410 . S
C228 C229 1.392 . S
C228 C231 1.511 . S
C229 C225 1.376 . S
C229 C228 1.392 . S
C229 H241 0.929 . S
C230 C226 1.531 . S
C230 H242 0.960 . S
C230 H243 0.962 . S
C230 H244 0.960 . S
C231 C228 1.511 . S
C231 H245 0.961 . S
C231 H246 0.961 . S
C231 H247 0.961 . S
C232 C233 1.370 . S
C232 C234 1.363 . S
C232 H248 0.931 . S
C233 C232 1.370 . S
C233 C237 1.408 . S
C234 C232 1.363 . S
C234 C235 1.370 . S
C234 C238 1.524 . S
C235 C227 1.503 . S
C235 C234 1.370 . S
C235 C236 1.403 . S
C236 C235 1.403 . S
C236 C237 1.404 . S
C236 C239 1.539 . S
C237 C233 1.408 . S
C237 C236 1.404 . S
C237 H249 0.930 . S
C238 C234 1.524 . S
C238 H250 0.956 . S
C238 H251 0.961 . S
C238 H252 0.961 . S
C239 C236 1.539 . S
C239 H253 0.958 . S
C239 H254 0.961 . S
C239 H255 0.960 . S
H240 C224 0.931 . S
H241 C229 0.929 . S
H242 C230 0.960 . S
H243 C230 0.962 . S
H244 C230 0.960 . S
H245 C231 0.961 . S
H246 C231 0.961 . S
H247 C231 0.961 . S
H248 C232 0.931 . S
H249 C237 0.930 . S
H250 C238 0.956 . S
H251 C238 0.961 . S
H252 C238 0.961 . S
H253 C239 0.958 . S
H254 C239 0.961 . S
H255 C239 0.960 . S
C256 C257 1.391 . S
C256 C258 1.394 1_565 S
C256 H272 0.931 1_565 S
C257 C256 1.391 . S
C257 C261 1.376 . S
C258 C256 1.394 1_545 S
C258 C259 1.369 1_545 S
C258 C262 1.531 1_655 S
C259 C258 1.369 1_565 S
C259 C260 1.410 . S
C259 C267 1.503 1_665 S
C260 C259 1.410 . S
C260 C261 1.392 . S
C260 C263 1.511 . S
C261 C257 1.376 . S
C261 C260 1.392 . S
C261 H273 0.929 . S
C262 C258 1.531 1_455 S
C262 H274 0.960 . S
C262 H275 0.962 1_455 S
C262 H276 0.960 . S
C263 C260 1.511 . S
C263 H277 0.961 . S
C263 H278 0.961 . S
C263 H279 0.961 1_655 S
C264 C265 1.370 . S
C264 C266 1.363 . S
C264 H280 0.931 . S
C265 C264 1.370 . S
C265 C269 1.408 . S
C266 C264 1.363 . S
C266 C267 1.370 . S
C266 C270 1.524 1_455 S
C267 C259 1.503 1_445 S
C267 C266 1.370 . S
C267 C268 1.403 1_545 S
C268 C267 1.403 1_565 S
C268 C269 1.404 1_565 S
C268 C271 1.539 . S
C269 C265 1.408 . S
C269 C268 1.404 1_545 S
C269 H281 0.930 . S
C270 C266 1.524 1_655 S
C270 H282 0.956 . S
C270 H283 0.961 . S
C270 H284 0.961 . S
C271 C268 1.539 . S
C271 H285 0.958 . S
C271 H286 0.961 . S
C271 H287 0.960 . S
H272 C256 0.931 1_545 S
H273 C261 0.929 . S
H274 C262 0.960 . S
H275 C262 0.962 1_655 S
H276 C262 0.960 . S
H277 C263 0.961 . S
H278 C263 0.961 . S
H279 C263 0.961 1_455 S
H280 C264 0.931 . S
H281 C269 0.930 . S
H282 C270 0.956 . S
H283 C270 0.961 . S
H284 C270 0.961 . S
H285 C271 0.958 . S
H286 C271 0.961 . S
H287 C271 0.960 . S
C288 C289 1.391 . S
C288 C290 1.394 . S
C288 H304 0.931 . S
C289 C288 1.391 . S
C289 C293 1.376 . S
C290 C288 1.394 . S
C290 C291 1.369 . S
C290 C294 1.531 . S
C291 C290 1.369 . S
C291 C292 1.410 1_565 S
C291 C299 1.503 1_565 S
C292 C291 1.410 1_545 S
C292 C293 1.392 1_545 S
C292 C295 1.511 . S
C293 C289 1.376 . S
C293 C292 1.392 1_565 S
C293 H305 0.929 1_565 S
C294 C290 1.531 . S
C294 H306 0.960 . S
C294 H307 0.962 . S
C294 H308 0.960 . S
C295 C292 1.511 . S
C295 H309 0.961 . S
C295 H310 0.961 . S
C295 H311 0.961 . S
C296 C297 1.370 . S
C296 C298 1.363 . S
C296 H312 0.931 . S
C297 C296 1.370 . S
C297 C301 1.408 . S
C298 C296 1.363 . S
C298 C299 1.370 . S
C298 C302 1.524 . S
C299 C291 1.503 1_545 S
C299 C298 1.370 . S
C299 C300 1.403 1_545 S
C300 C299 1.403 1_565 S
C300 C301 1.404 1_565 S
C300 C303 1.539 . S
C301 C297 1.408 . S
C301 C300 1.404 1_545 S
C301 H313 0.930 . S
C302 C298 1.524 . S
C302 H314 0.956 . S
C302 H315 0.961 . S
C302 H316 0.961 . S
C303 C300 1.539 . S
C303 H317 0.958 . S
C303 H318 0.961 . S
C303 H319 0.960 . S
H304 C288 0.931 . S
H305 C293 0.929 1_545 S
H306 C294 0.960 . S
H307 C294 0.962 . S
H308 C294 0.960 . S
H309 C295 0.961 . S
H310 C295 0.961 . S
H311 C295 0.961 . S
H312 C296 0.931 . S
H313 C301 0.930 . S
H314 C302 0.956 . S
H315 C302 0.961 . S
H316 C302 0.961 . S
H317 C303 0.958 . S
H318 C303 0.961 . S
H319 C303 0.960 . S
C320 C321 1.391 . S
C320 C322 1.394 . S
C320 H336 0.931 . S
C321 C320 1.391 . S
C321 C325 1.376 . S
C322 C320 1.394 . S
C322 C323 1.369 . S
C322 C326 1.531 . S
C323 C322 1.369 . S
C323 C324 1.410 . S
C323 C331 1.503 1_455 S
C324 C323 1.410 . S
C324 C325 1.392 . S
C324 C327 1.511 1_455 S
C325 C321 1.376 . S
C325 C324 1.392 . S
C325 H337 0.929 . S
C326 C322 1.531 . S
C326 H338 0.960 . S
C326 H339 0.962 . S
C326 H340 0.960 . S
C327 C324 1.511 1_655 S
C327 H341 0.961 . S
C327 H342 0.961 . S
C327 H343 0.961 . S
C328 C329 1.370 . S
C328 C330 1.363 . S
C328 H344 0.931 . S
C329 C328 1.370 . S
C329 C333 1.408 . S
C330 C328 1.363 . S
C330 C331 1.370 . S
C330 C334 1.524 1_655 S
C331 C323 1.503 1_655 S
C331 C330 1.370 . S
C331 C332 1.403 . S
C332 C331 1.403 . S
C332 C333 1.404 . S
C332 C335 1.539 . S
C333 C329 1.408 . S
C333 C332 1.404 . S
C333 H345 0.930 . S
C334 C330 1.524 1_455 S
C334 H346 0.956 . S
C334 H347 0.961 . S
C334 H348 0.961 1_455 S
C335 C332 1.539 . S
C335 H349 0.958 . S
C335 H350 0.961 . S
C335 H351 0.960 . S
H336 C320 0.931 . S
H337 C325 0.929 . S
H338 C326 0.960 . S
H339 C326 0.962 . S
H340 C326 0.960 . S
H341 C327 0.961 . S
H342 C327 0.961 . S
H343 C327 0.961 . S
H344 C328 0.931 . S
H345 C333 0.930 . S
H346 C334 0.956 . S
H347 C334 0.961 . S
H348 C334 0.961 1_655 S
H349 C335 0.958 . S
H350 C335 0.961 . S
H351 C335 0.960 . S
C352 C353 1.391 . S
C352 C354 1.394 . S
C352 H368 0.931 . S
C353 C352 1.391 . S
C353 C357 1.376 . S
C354 C352 1.394 . S
C354 C355 1.369 . S
C354 C358 1.531 . S
C355 C354 1.369 . S
C355 C356 1.410 . S
C355 C363 1.503 . S
C356 C355 1.410 . S
C356 C357 1.392 . S
C356 C359 1.511 . S
C357 C353 1.376 . S
C357 C356 1.392 . S
C357 H369 0.929 . S
C358 C354 1.531 . S
C358 H370 0.960 . S
C358 H371 0.962 . S
C358 H372 0.960 . S
C359 C356 1.511 . S
C359 H373 0.961 . S
C359 H374 0.961 . S
C359 H375 0.961 . S
C360 C361 1.370 . S
C360 C362 1.363 . S
C360 H376 0.931 . S
C361 C360 1.370 . S
C361 C365 1.408 . S
C362 C360 1.363 . S
C362 C363 1.370 . S
C362 C366 1.524 . S
C363 C355 1.503 . S
C363 C362 1.370 . S
C363 C364 1.403 . S
C364 C363 1.403 . S
C364 C365 1.404 . S
C364 C367 1.539 . S
C365 C361 1.408 . S
C365 C364 1.404 . S
C365 H377 0.930 . S
C366 C362 1.524 . S
C366 H378 0.956 . S
C366 H379 0.961 . S
C366 H380 0.961 . S
C367 C364 1.539 . S
C367 H381 0.958 . S
C367 H382 0.961 . S
C367 H383 0.960 . S
H368 C352 0.931 . S
H369 C357 0.929 . S
H370 C358 0.960 . S
H371 C358 0.962 . S
H372 C358 0.960 . S
H373 C359 0.961 . S
H374 C359 0.961 . S
H375 C359 0.961 . S
H376 C360 0.931 . S
H377 C365 0.930 . S
H378 C366 0.956 . S
H379 C366 0.961 . S
H380 C366 0.961 . S
H381 C367 0.958 . S
H382 C367 0.961 . S
H383 C367 0.960 . S
C384 C385 1.391 . S
C384 C386 1.394 . S
C384 H400 0.931 . S
C385 C384 1.391 . S
C385 C389 1.376 . S
C386 C384 1.394 . S
C386 C387 1.369 . S
C386 C390 1.531 . S
C387 C386 1.369 . S
C387 C388 1.410 1_545 S
C387 C395 1.503 1_545 S
C388 C387 1.410 1_565 S
C388 C389 1.392 1_565 S
C388 C391 1.511 . S
C389 C385 1.376 . S
C389 C388 1.392 1_545 S
C389 H401 0.929 . S
C390 C386 1.531 . S
C390 H402 0.960 1_545 S
C390 H403 0.962 . S
C390 H404 0.960 . S
C391 C388 1.511 . S
C391 H405 0.961 . S
C391 H406 0.961 . S
C391 H407 0.961 . S
C392 C393 1.370 . S
C392 C394 1.363 1_565 S
C392 H408 0.931 1_565 S
C393 C392 1.370 . S
C393 C397 1.408 . S
C394 C392 1.363 1_545 S
C394 C395 1.370 1_545 S
C394 C398 1.524 . S
C395 C387 1.503 1_565 S
C395 C394 1.370 1_565 S
C395 C396 1.403 . S
C396 C395 1.403 . S
C396 C397 1.404 . S
C396 C399 1.539 . S
C397 C393 1.408 . S
C397 C396 1.404 . S
C397 H409 0.930 . S
C398 C394 1.524 . S
C398 H410 0.956 . S
C398 H411 0.961 . S
C398 H412 0.961 . S
C399 C396 1.539 . S
C399 H413 0.958 . S
C399 H414 0.961 . S
C399 H415 0.960 . S
H400 C384 0.931 . S
H401 C389 0.929 . S
H402 C390 0.960 1_565 S
H403 C390 0.962 . S
H404 C390 0.960 . S
H405 C391 0.961 . S
H406 C391 0.961 . S
H407 C391 0.961 . S
H408 C392 0.931 1_545 S
H409 C397 0.930 . S
H410 C398 0.956 . S
H411 C398 0.961 . S
H412 C398 0.961 . S
H413 C399 0.958 . S
H414 C399 0.961 . S
H415 C399 0.960 . S
C416 C417 1.391 . S
C416 C418 1.394 . S
C416 H432 0.931 . S
C417 C416 1.391 . S
C417 C421 1.376 . S
C418 C416 1.394 . S
C418 C419 1.369 . S
C418 C422 1.531 . S
C419 C418 1.369 . S
C419 C420 1.410 . S
C419 C427 1.503 1_655 S
C420 C419 1.410 . S
C420 C421 1.392 . S
C420 C423 1.511 . S
C421 C417 1.376 . S
C421 C420 1.392 . S
C421 H433 0.929 . S
C422 C418 1.531 . S
C422 H434 0.960 1_655 S
C422 H435 0.962 1_655 S
C422 H436 0.960 . S
C423 C420 1.511 . S
C423 H437 0.961 . S
C423 H438 0.961 . S
C423 H439 0.961 . S
C424 C425 1.370 . S
C424 C426 1.363 . S
C424 H440 0.931 . S
C425 C424 1.370 . S
C425 C429 1.408 . S
C426 C424 1.363 . S
C426 C427 1.370 . S
C426 C430 1.524 . S
C427 C419 1.503 1_455 S
C427 C426 1.370 . S
C427 C428 1.403 . S
C428 C427 1.403 . S
C428 C429 1.404 . S
C428 C431 1.539 1_455 S
C429 C425 1.408 . S
C429 C428 1.404 . S
C429 H441 0.930 . S
C430 C426 1.524 . S
C430 H442 0.956 . S
C430 H443 0.961 . S
C430 H444 0.961 . S
C431 C428 1.539 1_655 S
C431 H445 0.958 . S
C431 H446 0.961 . S
C431 H447 0.960 . S
H432 C416 0.931 . S
H433 C421 0.929 . S
H434 C422 0.960 1_455 S
H435 C422 0.962 1_455 S
H436 C422 0.960 . S
H437 C423 0.961 . S
H438 C423 0.961 . S
H439 C423 0.961 . S
H440 C424 0.931 . S
H441 C429 0.930 . S
H442 C430 0.956 . S
H443 C430 0.961 . S
H444 C430 0.961 . S
H445 C431 0.958 . S
H446 C431 0.961 . S
H447 C431 0.960 . S
C448 C449 1.391 . S
C448 C450 1.394 . S
C448 H464 0.931 . S
C449 C448 1.391 . S
C449 C453 1.376 . S
C450 C448 1.394 . S
C450 C451 1.369 . S
C450 C454 1.531 . S
C451 C450 1.369 . S
C451 C452 1.410 . S
C451 C459 1.503 1_554 S
C452 C451 1.410 . S
C452 C453 1.392 . S
C452 C455 1.511 1_554 S
C453 C449 1.376 . S
C453 C452 1.392 . S
C453 H465 0.929 . S
C454 C450 1.531 . S
C454 H466 0.960 . S
C454 H467 0.962 . S
C454 H468 0.960 . S
C455 C452 1.511 1_556 S
C455 H469 0.961 . S
C455 H470 0.961 . S
C455 H471 0.961 . S
C456 C457 1.370 . S
C456 C458 1.363 . S
C456 H472 0.931 . S
C457 C456 1.370 . S
C457 C461 1.408 . S
C458 C456 1.363 . S
C458 C459 1.370 . S
C458 C462 1.524 . S
C459 C451 1.503 1_556 S
C459 C458 1.370 . S
C459 C460 1.403 . S
C460 C459 1.403 . S
C460 C461 1.404 . S
C460 C463 1.539 1_556 S
C461 C457 1.408 . S
C461 C460 1.404 . S
C461 H473 0.930 . S
C462 C458 1.524 . S
C462 H474 0.956 . S
C462 H475 0.961 . S
C462 H476 0.961 . S
C463 C460 1.539 1_554 S
C463 H477 0.958 . S
C463 H478 0.961 . S
C463 H479 0.960 . S
H464 C448 0.931 . S
H465 C453 0.929 . S
H466 C454 0.960 . S
H467 C454 0.962 . S
H468 C454 0.960 . S
H469 C455 0.961 . S
H470 C455 0.961 . S
H471 C455 0.961 . S
H472 C456 0.931 . S
H473 C461 0.930 . S
H474 C462 0.956 . S
H475 C462 0.961 . S
H476 C462 0.961 . S
H477 C463 0.958 . S
H478 C463 0.961 . S
H479 C463 0.960 . S
C480 C481 1.391 . S
C480 C482 1.394 . S
C480 H496 0.931 . S
C481 C480 1.391 . S
C481 C485 1.376 . S
C482 C480 1.394 . S
C482 C483 1.369 . S
C482 C486 1.531 1_556 S
C483 C482 1.369 . S
C483 C484 1.410 . S
C483 C491 1.503 1_456 S
C484 C483 1.410 . S
C484 C485 1.392 . S
C484 C487 1.511 1_455 S
C485 C481 1.376 . S
C485 C484 1.392 . S
C485 H497 0.929 . S
C486 C482 1.531 1_554 S
C486 H498 0.960 . S
C486 H499 0.962 1_554 S
C486 H500 0.960 . S
C487 C484 1.511 1_655 S
C487 H501 0.961 . S
C487 H502 0.961 . S
C487 H503 0.961 1_556 S
C488 C489 1.370 . S
C488 C490 1.401 . S
C488 H504 0.931 . S
C489 C488 1.370 . S
C489 C493 1.408 . S
C490 C488 1.401 . S
C490 C491 1.395 . S
C490 C494 1.465 1_554 S
C491 C483 1.503 1_654 S
C491 C490 1.395 . S
C491 C492 1.403 . S
C492 C491 1.403 . S
C492 C493 1.404 . S
C492 C495 1.539 1_655 S
C493 C489 1.408 . S
C493 C492 1.404 . S
C493 H505 0.930 . S
C494 C490 1.465 1_556 S
C494 H506 0.956 . S
C494 H507 0.961 . S
C494 H508 0.961 . S
C495 C492 1.539 1_455 S
C495 H509 0.958 . S
C495 H510 0.961 . S
C495 H511 0.960 . S
H496 C480 0.931 . S
H497 C485 0.929 . S
H498 C486 0.960 . S
H499 C486 0.962 1_556 S
H500 C486 0.960 . S
H501 C487 0.961 . S
H502 C487 0.961 . S
H503 C487 0.961 1_554 S
H504 C488 0.931 . S
H505 C493 0.930 . S
H506 C494 0.956 . S
H507 C494 0.961 . S
H508 C494 0.961 . S
H509 C495 0.958 . S
H510 C495 0.961 . S
H511 C495 0.960 . S
C512 C513 1.391 . S
C512 C514 1.394 . S
C512 H528 0.931 . S
C513 C512 1.391 . S
C513 C517 1.376 . S
C514 C512 1.394 . S
C514 C515 1.369 . S
C514 C518 1.531 . S
C515 C514 1.369 . S
C515 C516 1.410 . S
C515 C523 1.503 . S
C516 C515 1.410 . S
C516 C517 1.392 . S
C516 C519 1.511 . S
C517 C513 1.376 . S
C517 C516 1.392 . S
C517 H529 0.929 . S
C518 C514 1.531 . S
C518 H530 0.960 . S
C518 H531 0.962 . S
C518 H532 0.960 . S
C519 C516 1.511 . S
C519 H533 0.961 . S
C519 H534 0.961 . S
C519 H535 0.961 . S
C520 C521 1.370 . S
C520 C522 1.363 . S
C520 H536 0.931 . S
C521 C520 1.370 . S
C521 C525 1.408 . S
C522 C520 1.363 . S
C522 C523 1.370 . S
C522 C526 1.524 . S
C523 C515 1.503 . S
C523 C522 1.370 . S
C523 C524 1.403 . S
C524 C523 1.403 . S
C524 C525 1.404 . S
C524 C527 1.539 . S
C525 C521 1.408 . S
C525 C524 1.404 . S
C525 H537 0.930 . S
C526 C522 1.524 . S
C526 H538 0.956 . S
C526 H539 0.961 . S
C526 H540 0.961 . S
C527 C524 1.539 . S
C527 H541 0.958 . S
C527 H542 0.961 . S
C527 H543 0.960 . S
H528 C512 0.931 . S
H529 C517 0.929 . S
H530 C518 0.960 . S
H531 C518 0.962 . S
H532 C518 0.960 . S
H533 C519 0.961 . S
H534 C519 0.961 . S
H535 C519 0.961 . S
H536 C520 0.931 . S
H537 C525 0.930 . S
H538 C526 0.956 . S
H539 C526 0.961 . S
H540 C526 0.961 . S
H541 C527 0.958 . S
H542 C527 0.961 . S
H543 C527 0.960 . S
C544 C545 1.391 . S
C544 C546 1.394 . S
C544 H560 0.931 . S
C545 C544 1.391 . S
C545 C549 1.376 . S
C546 C544 1.394 . S
C546 C547 1.369 . S
C546 C550 1.531 . S
C547 C546 1.369 . S
C547 C548 1.436 . S
C547 C555 1.503 1_556 S
C548 C547 1.436 . S
C548 C549 1.433 . S
C548 C551 1.448 1_556 S
C549 C545 1.376 . S
C549 C548 1.433 . S
C549 H561 0.929 . S
C550 C546 1.531 . S
C550 H562 0.960 . S
C550 H563 0.962 . S
C550 H564 0.960 . S
C551 C548 1.448 1_554 S
C551 H565 0.961 . S
C551 H566 0.961 . S
C551 H567 0.961 . S
C552 C553 1.370 . S
C552 C554 1.363 . S
C552 H568 0.931 . S
C553 C552 1.370 . S
C553 C557 1.408 . S
C554 C552 1.363 . S
C554 C555 1.370 . S
C554 C558 1.524 . S
C555 C547 1.503 1_554 S
C555 C554 1.370 . S
C555 C556 1.403 . S
C556 C555 1.403 . S
C556 C557 1.404 . S
C556 C559 1.563 . S
C557 C553 1.408 . S
C557 C556 1.404 . S
C557 H569 0.930 . S
C558 C554 1.524 . S
C558 H570 0.956 1_554 S
C558 H571 0.961 . S
C558 H572 0.961 . S
C559 C556 1.563 . S
C559 H573 0.907 1_554 S
C559 H574 1.002 . S
C559 H575 0.951 1_554 S
H560 C544 0.931 . S
H561 C549 0.929 . S
H562 C550 0.960 . S
H563 C550 0.962 . S
H564 C550 0.960 . S
H565 C551 0.961 . S
H566 C551 0.961 . S
H567 C551 0.961 . S
H568 C552 0.931 . S
H569 C557 0.930 . S
H570 C558 0.956 1_556 S
H571 C558 0.961 . S
H572 C558 0.961 . S
H573 C559 0.907 1_556 S
H574 C559 1.002 . S
H575 C559 0.951 1_556 S
C576 C577 1.391 . S
C576 C578 1.394 . S
C576 H592 0.931 . S
C577 C576 1.391 . S
C577 C581 1.376 . S
C578 C576 1.394 . S
C578 C579 1.369 . S
C578 C582 1.531 . S
C579 C578 1.369 . S
C579 C580 1.410 . S
C579 C587 1.503 . S
C580 C579 1.410 . S
C580 C581 1.392 . S
C580 C583 1.511 . S
C581 C577 1.376 . S
C581 C580 1.392 . S
C581 H593 0.929 . S
C582 C578 1.531 . S
C582 H594 0.960 . S
C582 H595 0.962 . S
C582 H596 0.960 . S
C583 C580 1.511 . S
C583 H597 0.961 . S
C583 H598 0.961 . S
C583 H599 0.961 . S
C584 C585 1.370 . S
C584 C586 1.363 . S
C584 H600 0.931 . S
C585 C584 1.370 . S
C585 C589 1.408 . S
C586 C584 1.363 . S
C586 C587 1.370 . S
C586 C590 1.524 . S
C587 C579 1.503 . S
C587 C586 1.370 . S
C587 C588 1.403 . S
C588 C587 1.403 . S
C588 C589 1.404 . S
C588 C591 1.539 . S
C589 C585 1.408 . S
C589 C588 1.404 . S
C589 H601 0.930 . S
C590 C586 1.524 . S
C590 H602 0.956 . S
C590 H603 0.961 . S
C590 H604 0.961 . S
C591 C588 1.539 . S
C591 H605 0.958 . S
C591 H606 0.961 . S
C591 H607 0.960 . S
H592 C576 0.931 . S
H593 C581 0.929 . S
H594 C582 0.960 . S
H595 C582 0.962 . S
H596 C582 0.960 . S
H597 C583 0.961 . S
H598 C583 0.961 . S
H599 C583 0.961 . S
H600 C584 0.931 . S
H601 C589 0.930 . S
H602 C590 0.956 . S
H603 C590 0.961 . S
H604 C590 0.961 . S
H605 C591 0.958 . S
H606 C591 0.961 . S
H607 C591 0.960 . S
C608 C609 1.391 . S
C608 C610 1.394 . S
C608 H624 0.931 . S
C609 C608 1.391 . S
C609 C613 1.376 . S
C610 C608 1.394 . S
C610 C611 1.372 . S
C610 C614 1.531 . S
C611 C610 1.372 . S
C611 C612 1.412 . S
C611 C619 1.499 1_546 S
C612 C611 1.412 . S
C612 C613 1.392 . S
C612 C615 1.511 1_546 S
C613 C609 1.376 . S
C613 C612 1.392 . S
C613 H625 0.929 . S
C614 C610 1.531 . S
C614 H626 0.960 1_545 S
C614 H627 0.962 . S
C614 H628 0.961 . S
C615 C612 1.511 1_564 S
C615 H629 0.961 1_565 S
C615 H630 0.961 . S
C615 H631 0.961 . S
C616 C617 1.370 . S
C616 C618 1.363 1_565 S
C616 H632 0.931 1_565 S
C617 C616 1.370 . S
C617 C621 1.408 . S
C618 C616 1.363 1_545 S
C618 C619 1.370 1_545 S
C618 C622 1.524 . S
C619 C611 1.499 1_564 S
C619 C618 1.370 1_565 S
C619 C620 1.403 . S
C620 C619 1.403 . S
C620 C621 1.404 . S
C620 C623 1.539 1_554 S
C621 C617 1.408 . S
C621 C620 1.404 . S
C621 H633 0.930 . S
C622 C618 1.524 . S
C622 H634 0.956 . S
C622 H635 0.961 . S
C622 H636 0.961 . S
C623 C620 1.539 1_556 S
C623 H637 0.958 . S
C623 H638 0.961 1_556 S
C623 H639 0.960 . S
H624 C608 0.931 . S
H625 C613 0.929 . S
H626 C614 0.960 1_565 S
H627 C614 0.962 . S
H628 C614 0.961 . S
H629 C615 0.961 1_545 S
H630 C615 0.961 . S
H631 C615 0.961 . S
H632 C616 0.931 1_545 S
H633 C621 0.930 . S
H634 C622 0.956 . S
H635 C622 0.961 . S
H636 C622 0.961 . S
H637 C623 0.958 . S
H638 C623 0.961 1_554 S
H639 C623 0.960 . S
C640 C641 1.391 . S
C640 C642 1.394 . S
C640 H656 0.931 . S
C641 C640 1.391 . S
C641 C645 1.376 . S
C642 C640 1.394 . S
C642 C643 1.369 . S
C642 C646 1.531 . S
C643 C642 1.369 . S
C643 C644 1.410 . S
C643 C651 1.503 . S
C644 C643 1.410 . S
C644 C645 1.392 . S
C644 C647 1.511 . S
C645 C641 1.376 . S
C645 C644 1.392 . S
C645 H657 0.929 . S
C646 C642 1.531 . S
C646 H658 0.960 . S
C646 H659 0.962 . S
C646 H660 0.960 . S
C647 C644 1.511 . S
C647 H661 0.961 . S
C647 H662 0.961 . S
C647 H663 0.961 . S
C648 C649 1.370 . S
C648 C650 1.363 . S
C648 H664 0.931 . S
C649 C648 1.370 . S
C649 C653 1.408 . S
C650 C648 1.363 . S
C650 C651 1.370 . S
C650 C654 1.524 . S
C651 C643 1.503 . S
C651 C650 1.370 . S
C651 C652 1.403 . S
C652 C651 1.403 . S
C652 C653 1.404 . S
C652 C655 1.539 . S
C653 C649 1.408 . S
C653 C652 1.404 . S
C653 H665 0.930 . S
C654 C650 1.524 . S
C654 H666 0.956 . S
C654 H667 0.961 . S
C654 H668 0.961 . S
C655 C652 1.539 . S
C655 H669 0.958 . S
C655 H670 0.961 . S
C655 H671 0.960 . S
H656 C640 0.931 . S
H657 C645 0.929 . S
H658 C646 0.960 . S
H659 C646 0.962 . S
H660 C646 0.960 . S
H661 C647 0.961 . S
H662 C647 0.961 . S
H663 C647 0.961 . S
H664 C648 0.931 . S
H665 C653 0.930 . S
H666 C654 0.956 . S
H667 C654 0.961 . S
H668 C654 0.961 . S
H669 C655 0.958 . S
H670 C655 0.961 . S
H671 C655 0.960 . S
C672 C673 1.391 . S
C672 C674 1.394 . S
C672 H688 0.931 . S
C673 C672 1.391 . S
C673 C677 1.376 . S
C674 C672 1.394 . S
C674 C675 1.369 . S
C674 C678 1.531 . S
C675 C674 1.369 . S
C675 C676 1.410 . S
C675 C683 1.503 . S
C676 C675 1.410 . S
C676 C677 1.392 . S
C676 C679 1.511 . S
C677 C673 1.376 . S
C677 C676 1.392 . S
C677 H689 0.929 . S
C678 C674 1.531 . S
C678 H690 0.960 . S
C678 H691 0.962 . S
C678 H692 0.960 . S
C679 C676 1.511 . S
C679 H693 0.961 . S
C679 H694 0.961 . S
C679 H695 0.961 . S
C680 C681 1.370 . S
C680 C682 1.363 . S
C680 H696 0.931 . S
C681 C680 1.370 . S
C681 C685 1.408 . S
C682 C680 1.363 . S
C682 C683 1.370 . S
C682 C686 1.524 . S
C683 C675 1.503 . S
C683 C682 1.370 . S
C683 C684 1.403 . S
C684 C683 1.403 . S
C684 C685 1.404 . S
C684 C687 1.539 . S
C685 C681 1.408 . S
C685 C684 1.404 . S
C685 H697 0.930 . S
C686 C682 1.524 . S
C686 H698 0.956 . S
C686 H699 0.961 . S
C686 H700 0.961 . S
C687 C684 1.539 . S
C687 H701 0.958 . S
C687 H702 0.961 . S
C687 H703 0.960 . S
H688 C672 0.931 . S
H689 C677 0.929 . S
H690 C678 0.960 . S
H691 C678 0.962 . S
H692 C678 0.960 . S
H693 C679 0.961 . S
H694 C679 0.961 . S
H695 C679 0.961 . S
H696 C680 0.931 . S
H697 C685 0.930 . S
H698 C686 0.956 . S
H699 C686 0.961 . S
H700 C686 0.961 . S
H701 C687 0.958 . S
H702 C687 0.961 . S
H703 C687 0.960 . S
C704 C705 1.391 . S
C704 C706 1.394 . S
C704 H720 0.931 . S
C705 C704 1.391 . S
C705 C709 1.376 . S
C706 C704 1.394 . S
C706 C707 1.369 . S
C706 C710 1.531 . S
C707 C706 1.369 . S
C707 C708 1.410 . S
C707 C715 1.503 . S
C708 C707 1.410 . S
C708 C709 1.392 . S
C708 C711 1.511 . S
C709 C705 1.376 . S
C709 C708 1.392 . S
C709 H721 0.929 . S
C710 C706 1.531 . S
C710 H722 0.960 . S
C710 H723 0.962 . S
C710 H724 0.960 . S
C711 C708 1.511 . S
C711 H725 0.961 . S
C711 H726 0.961 . S
C711 H727 0.961 . S
C712 C713 1.370 . S
C712 C714 1.363 . S
C712 H728 0.931 . S
C713 C712 1.370 . S
C713 C717 1.408 . S
C714 C712 1.363 . S
C714 C715 1.370 . S
C714 C718 1.524 . S
C715 C707 1.503 . S
C715 C714 1.370 . S
C715 C716 1.403 . S
C716 C715 1.403 . S
C716 C717 1.404 . S
C716 C719 1.539 . S
C717 C713 1.408 . S
C717 C716 1.404 . S
C717 H729 0.930 . S
C718 C714 1.524 . S
C718 H730 0.956 . S
C718 H731 0.961 . S
C718 H732 0.961 . S
C719 C716 1.539 . S
C719 H733 0.958 . S
C719 H734 0.961 . S
C719 H735 0.960 . S
H720 C704 0.931 . S
H721 C709 0.929 . S
H722 C710 0.960 . S
H723 C710 0.962 . S
H724 C710 0.960 . S
H725 C711 0.961 . S
H726 C711 0.961 . S
H727 C711 0.961 . S
H728 C712 0.931 . S
H729 C717 0.930 . S
H730 C718 0.956 . S
H731 C718 0.961 . S
H732 C718 0.961 . S
H733 C719 0.958 . S
H734 C719 0.961 . S
H735 C719 0.960 . S
C736 C737 1.391 . S
C736 C738 1.394 . S
C736 H752 0.931 . S
C737 C736 1.391 . S
C737 C741 1.376 . S
C738 C736 1.394 . S
C738 C739 1.369 . S
C738 C742 1.531 . S
C739 C738 1.369 . S
C739 C740 1.410 . S
C739 C747 1.503 . S
C740 C739 1.410 . S
C740 C741 1.392 . S
C740 C743 1.511 . S
C741 C737 1.376 . S
C741 C740 1.392 . S
C741 H753 0.929 . S
C742 C738 1.531 . S
C742 H754 0.960 . S
C742 H755 0.962 . S
C742 H756 0.960 . S
C743 C740 1.511 . S
C743 H757 0.961 . S
C743 H758 0.961 . S
C743 H759 0.961 . S
C744 C745 1.370 1_545 S
C744 C746 1.363 1_545 S
C744 H760 0.931 . S
C745 C744 1.370 1_565 S
C745 C749 1.419 . S
C746 C744 1.363 1_565 S
C746 C747 1.370 . S
C746 C750 1.524 . S
C747 C739 1.503 . S
C747 C746 1.370 . S
C747 C748 1.403 . S
C748 C747 1.403 . S
C748 C749 1.404 . S
C748 C751 1.539 . S
C749 C745 1.419 . S
C749 C748 1.404 . S
C749 H761 0.930 . S
C750 C746 1.524 . S
C750 H762 0.956 . S
C750 H763 0.961 . S
C750 H764 0.961 . S
C751 C748 1.539 . S
C751 H765 0.958 . S
C751 H766 0.961 . S
C751 H767 0.960 . S
H752 C736 0.931 . S
H753 C741 0.929 . S
H754 C742 0.960 . S
H755 C742 0.962 . S
H756 C742 0.960 . S
H757 C743 0.961 . S
H758 C743 0.961 . S
H759 C743 0.961 . S
H760 C744 0.931 . S
H761 C749 0.930 . S
H762 C750 0.956 . S
H763 C750 0.961 . S
H764 C750 0.961 . S
H765 C751 0.958 . S
H766 C751 0.961 . S
H767 C751 0.960 . S
C768 C769 1.391 . S
C768 C770 1.394 . S
C768 H784 0.931 . S
C769 C768 1.391 . S
C769 C773 1.376 . S
C770 C768 1.394 . S
C770 C771 1.369 . S
C770 C774 1.531 . S
C771 C770 1.369 . S
C771 C772 1.410 . S
C771 C779 1.503 . S
C772 C771 1.410 . S
C772 C773 1.392 . S
C772 C775 1.511 . S
C773 C769 1.376 . S
C773 C772 1.392 . S
C773 H785 0.929 . S
C774 C770 1.531 . S
C774 H786 0.960 . S
C774 H787 0.962 . S
C774 H788 0.960 . S
C775 C772 1.511 . S
C775 H789 0.961 . S
C775 H790 0.961 . S
C775 H791 0.961 . S
C776 C777 1.370 . S
C776 C778 1.363 . S
C776 H792 0.931 . S
C777 C776 1.370 . S
C777 C781 1.408 . S
C778 C776 1.363 . S
C778 C779 1.370 . S
C778 C782 1.524 . S
C779 C771 1.503 . S
C779 C778 1.370 . S
C779 C780 1.403 . S
C780 C779 1.403 . S
C780 C781 1.404 . S
C780 C783 1.539 . S
C781 C777 1.408 . S
C781 C780 1.404 . S
C781 H793 0.930 . S
C782 C778 1.524 . S
C782 H794 0.956 . S
C782 H795 0.961 . S
C782 H796 0.961 . S
C783 C780 1.539 . S
C783 H797 0.958 . S
C783 H798 0.961 . S
C783 H799 0.960 . S
H784 C768 0.931 . S
H785 C773 0.929 . S
H786 C774 0.960 . S
H787 C774 0.962 . S
H788 C774 0.960 . S
H789 C775 0.961 . S
H790 C775 0.961 . S
H791 C775 0.961 . S
H792 C776 0.931 . S
H793 C781 0.930 . S
H794 C782 0.956 . S
H795 C782 0.961 . S
H796 C782 0.961 . S
H797 C783 0.958 . S
H798 C783 0.961 . S
H799 C783 0.960 . S
C800 C801 1.391 . S
C800 C802 1.394 . S
C800 H816 0.931 . S
C801 C800 1.391 . S
C801 C805 1.376 . S
C802 C800 1.394 . S
C802 C803 1.369 . S
C802 C806 1.531 . S
C803 C802 1.369 . S
C803 C804 1.410 . S
C803 C811 1.503 . S
C804 C803 1.410 . S
C804 C805 1.392 . S
C804 C807 1.511 . S
C805 C801 1.376 . S
C805 C804 1.392 . S
C805 H817 0.929 . S
C806 C802 1.531 . S
C806 H818 0.960 . S
C806 H819 0.962 . S
C806 H820 0.960 . S
C807 C804 1.511 . S
C807 H821 0.961 . S
C807 H822 0.961 . S
C807 H823 0.961 . S
C808 C809 1.370 . S
C808 C810 1.363 . S
C808 H824 0.931 . S
C809 C808 1.370 . S
C809 C813 1.408 . S
C810 C808 1.363 . S
C810 C811 1.370 . S
C810 C814 1.524 . S
C811 C803 1.503 . S
C811 C810 1.370 . S
C811 C812 1.403 . S
C812 C811 1.403 . S
C812 C813 1.404 . S
C812 C815 1.539 . S
C813 C809 1.408 . S
C813 C812 1.404 . S
C813 H825 0.930 . S
C814 C810 1.524 . S
C814 H826 0.956 . S
C814 H827 0.961 . S
C814 H828 0.961 . S
C815 C812 1.539 . S
C815 H829 0.958 . S
C815 H830 0.961 . S
C815 H831 0.960 . S
H816 C800 0.931 . S
H817 C805 0.929 . S
H818 C806 0.960 . S
H819 C806 0.962 . S
H820 C806 0.960 . S
H821 C807 0.961 . S
H822 C807 0.961 . S
H823 C807 0.961 . S
H824 C808 0.931 . S
H825 C813 0.930 . S
H826 C814 0.956 . S
H827 C814 0.961 . S
H828 C814 0.961 . S
H829 C815 0.958 . S
H830 C815 0.961 . S
H831 C815 0.960 . S
C832 C833 1.391 . S
C832 C834 1.394 . S
C832 H848 0.931 . S
C833 C832 1.391 . S
C833 C837 1.376 . S
C834 C832 1.394 . S
C834 C835 1.369 . S
C834 C838 1.531 . S
C835 C834 1.369 . S
C835 C836 1.410 . S
C835 C843 1.503 . S
C836 C835 1.410 . S
C836 C837 1.392 . S
C836 C839 1.511 . S
C837 C833 1.376 . S
C837 C836 1.392 . S
C837 H849 0.929 . S
C838 C834 1.531 . S
C838 H850 0.960 . S
C838 H851 0.962 . S
C838 H852 0.960 . S
C839 C836 1.511 . S
C839 H853 0.961 . S
C839 H854 0.961 . S
C839 H855 0.961 . S
C840 C841 1.369 1_545 S
C840 C842 1.363 1_545 S
C840 H856 0.931 . S
C841 C840 1.369 1_565 S
C841 C845 1.421 . S
C842 C840 1.363 1_565 S
C842 C843 1.370 . S
C842 C846 1.524 . S
C843 C835 1.503 . S
C843 C842 1.370 . S
C843 C844 1.403 . S
C844 C843 1.403 . S
C844 C845 1.404 . S
C844 C847 1.539 . S
C845 C841 1.421 . S
C845 C844 1.404 . S
C845 H857 0.930 . S
C846 C842 1.524 . S
C846 H858 0.956 . S
C846 H859 0.961 . S
C846 H860 0.961 1_565 S
C847 C844 1.539 . S
C847 H861 0.958 . S
C847 H862 0.961 . S
C847 H863 0.960 . S
H848 C832 0.931 . S
H849 C837 0.929 . S
H850 C838 0.960 . S
H851 C838 0.962 . S
H852 C838 0.960 . S
H853 C839 0.961 . S
H854 C839 0.961 . S
H855 C839 0.961 . S
H856 C840 0.931 . S
H857 C845 0.930 . S
H858 C846 0.956 . S
H859 C846 0.961 . S
H860 C846 0.961 1_545 S
H861 C847 0.958 . S
H862 C847 0.961 . S
H863 C847 0.960 . S
C864 C865 1.391 . S
C864 C866 1.394 . S
C864 H880 0.931 . S
C865 C864 1.391 . S
C865 C869 1.376 . S
C866 C864 1.394 . S
C866 C867 1.369 . S
C866 C870 1.531 . S
C867 C866 1.369 . S
C867 C868 1.410 . S
C867 C875 1.503 . S
C868 C867 1.410 . S
C868 C869 1.392 . S
C868 C871 1.511 . S
C869 C865 1.376 . S
C869 C868 1.392 . S
C869 H881 0.929 . S
C870 C866 1.531 . S
C870 H882 0.960 . S
C870 H883 0.962 . S
C870 H884 0.960 . S
C871 C868 1.511 . S
C871 H885 0.961 . S
C871 H886 0.961 . S
C871 H887 0.961 . S
C872 C873 1.370 1_565 S
C872 C874 1.363 1_565 S
C872 H888 0.931 . S
C873 C872 1.370 1_545 S
C873 C877 1.417 . S
C874 C872 1.363 1_545 S
C874 C875 1.370 . S
C874 C878 1.524 . S
C875 C867 1.503 . S
C875 C874 1.370 . S
C875 C876 1.403 . S
C876 C875 1.403 . S
C876 C877 1.404 . S
C876 C879 1.539 . S
C877 C873 1.417 . S
C877 C876 1.404 . S
C877 H889 0.930 . S
C878 C874 1.524 . S
C878 H890 0.956 . S
C878 H891 0.961 . S
C878 H892 0.961 1_545 S
C879 C876 1.539 . S
C879 H893 0.958 . S
C879 H894 0.961 . S
C879 H895 0.960 . S
H880 C864 0.931 . S
H881 C869 0.929 . S
H882 C870 0.960 . S
H883 C870 0.962 . S
H884 C870 0.960 . S
H885 C871 0.961 . S
H886 C871 0.961 . S
H887 C871 0.961 . S
H888 C872 0.931 . S
H889 C877 0.930 . S
H890 C878 0.956 . S
H891 C878 0.961 . S
H892 C878 0.961 1_565 S
H893 C879 0.958 . S
H894 C879 0.961 . S
H895 C879 0.960 . S
C896 C897 1.391 . S
C896 C898 1.394 . S
C896 H912 0.931 . S
C897 C896 1.391 . S
C897 C901 1.376 . S
C898 C896 1.394 . S
C898 C899 1.369 . S
C898 C902 1.531 . S
C899 C898 1.369 . S
C899 C900 1.410 . S
C899 C907 1.503 . S
C900 C899 1.410 . S
C900 C901 1.392 . S
C900 C903 1.511 . S
C901 C897 1.376 . S
C901 C900 1.392 . S
C901 H913 0.929 . S
C902 C898 1.531 . S
C902 H914 0.960 . S
C902 H915 0.962 . S
C902 H916 0.960 . S
C903 C900 1.511 . S
C903 H917 0.961 . S
C903 H918 0.961 . S
C903 H919 0.961 . S
C904 C905 1.370 . S
C904 C906 1.363 . S
C904 H920 0.931 . S
C905 C904 1.370 . S
C905 C909 1.408 . S
C906 C904 1.363 . S
C906 C907 1.370 . S
C906 C910 1.524 . S
C907 C899 1.503 . S
C907 C906 1.370 . S
C907 C908 1.403 . S
C908 C907 1.403 . S
C908 C909 1.404 . S
C908 C911 1.539 . S
C909 C905 1.408 . S
C909 C908 1.404 . S
C909 H921 0.930 . S
C910 C906 1.524 . S
C910 H922 0.956 . S
C910 H923 0.961 . S
C910 H924 0.961 . S
C911 C908 1.539 . S
C911 H925 0.958 . S
C911 H926 0.961 . S
C911 H927 0.960 . S
H912 C896 0.931 . S
H913 C901 0.929 . S
H914 C902 0.960 . S
H915 C902 0.962 . S
H916 C902 0.960 . S
H917 C903 0.961 . S
H918 C903 0.961 . S
H919 C903 0.961 . S
H920 C904 0.931 . S
H921 C909 0.930 . S
H922 C910 0.956 . S
H923 C910 0.961 . S
H924 C910 0.961 . S
H925 C911 0.958 . S
H926 C911 0.961 . S
H927 C911 0.960 . S
C928 C929 1.391 . S
C928 C930 1.394 . S
C928 H944 0.931 . S
C929 C928 1.391 . S
C929 C933 1.376 . S
C930 C928 1.394 . S
C930 C931 1.369 . S
C930 C934 1.531 . S
C931 C930 1.369 . S
C931 C932 1.410 . S
C931 C939 1.503 . S
C932 C931 1.410 . S
C932 C933 1.392 . S
C932 C935 1.511 . S
C933 C929 1.376 . S
C933 C932 1.392 . S
C933 H945 0.929 . S
C934 C930 1.531 . S
C934 H946 0.960 . S
C934 H947 0.962 . S
C934 H948 0.960 . S
C935 C932 1.511 . S
C935 H949 0.961 . S
C935 H950 0.961 . S
C935 H951 0.961 . S
C936 C937 1.370 . S
C936 C938 1.363 . S
C936 H952 0.931 . S
C937 C936 1.370 . S
C937 C941 1.408 . S
C938 C936 1.363 . S
C938 C939 1.370 . S
C938 C942 1.524 . S
C939 C931 1.503 . S
C939 C938 1.370 . S
C939 C940 1.403 . S
C940 C939 1.403 . S
C940 C941 1.404 . S
C940 C943 1.539 . S
C941 C937 1.408 . S
C941 C940 1.404 . S
C941 H953 0.930 . S
C942 C938 1.524 . S
C942 H954 0.956 . S
C942 H955 0.961 . S
C942 H956 0.961 . S
C943 C940 1.539 . S
C943 H957 0.958 . S
C943 H958 0.961 . S
C943 H959 0.960 . S
H944 C928 0.931 . S
H945 C933 0.929 . S
H946 C934 0.960 . S
H947 C934 0.962 . S
H948 C934 0.960 . S
H949 C935 0.961 . S
H950 C935 0.961 . S
H951 C935 0.961 . S
H952 C936 0.931 . S
H953 C941 0.930 . S
H954 C942 0.956 . S
H955 C942 0.961 . S
H956 C942 0.961 . S
H957 C943 0.958 . S
H958 C943 0.961 . S
H959 C943 0.960 . S
C960 C961 1.391 . S
C960 C962 1.394 1_565 S
C960 H976 0.931 . S
C961 C960 1.391 . S
C961 C965 1.376 1_565 S
C962 C960 1.394 1_545 S
C962 C963 1.369 . S
C962 C966 1.531 . S
C963 C962 1.369 . S
C963 C964 1.410 . S
C963 C971 1.503 . S
C964 C963 1.410 . S
C964 C965 1.392 . S
C964 C967 1.511 . S
C965 C961 1.376 1_545 S
C965 C964 1.392 . S
C965 H977 0.929 . S
C966 C962 1.531 . S
C966 H978 0.960 . S
C966 H979 0.962 . S
C966 H980 0.960 1_545 S
C967 C964 1.511 . S
C967 H981 0.961 . S
C967 H982 0.961 . S
C967 H983 0.961 . S
C968 C969 1.370 . S
C968 C970 1.363 . S
C968 H984 0.931 . S
C969 C968 1.370 . S
C969 C973 1.408 . S
C970 C968 1.363 . S
C970 C971 1.370 . S
C970 C974 1.524 . S
C971 C963 1.503 . S
C971 C970 1.370 . S
C971 C972 1.403 . S
C972 C971 1.403 . S
C972 C973 1.404 . S
C972 C975 1.539 . S
C973 C969 1.408 . S
C973 C972 1.404 . S
C973 H985 0.930 . S
C974 C970 1.524 . S
C974 H986 0.956 . S
C974 H987 0.961 . S
C974 H988 0.961 . S
C975 C972 1.539 . S
C975 H989 0.958 . S
C975 H990 0.961 . S
C975 H991 0.960 . S
H976 C960 0.931 . S
H977 C965 0.929 . S
H978 C966 0.960 . S
H979 C966 0.962 . S
H980 C966 0.960 1_565 S
H981 C967 0.961 . S
H982 C967 0.961 . S
H983 C967 0.961 . S
H984 C968 0.931 . S
H985 C973 0.930 . S
H986 C974 0.956 . S
H987 C974 0.961 . S
H988 C974 0.961 . S
H989 C975 0.958 . S
H990 C975 0.961 . S
H991 C975 0.960 . S
C992 C993 1.391 . S
C992 C994 1.394 . S
C992 H1008 0.931 . S
C993 C992 1.391 . S
C993 C997 1.376 . S
C994 C992 1.394 . S
C994 C995 1.369 . S
C994 C998 1.531 . S
C995 C994 1.369 . S
C995 C996 1.410 . S
C995 C1003 1.503 . S
C996 C995 1.410 . S
C996 C997 1.392 . S
C996 C999 1.511 . S
C997 C993 1.376 . S
C997 C996 1.392 . S
C997 H1009 0.929 . S
C998 C994 1.531 . S
C998 H1010 0.960 . S
C998 H1011 0.962 . S
C998 H1012 0.960 . S
C999 C996 1.511 . S
C999 H1013 0.961 . S
C999 H1014 0.961 . S
C999 H1015 0.961 . S
C1000 C1001 1.369 1_545 S
C1000 C1002 1.363 1_545 S
C1000 H1016 0.931 . S
C1001 C1000 1.369 1_565 S
C1001 C1005 1.422 . S
C1002 C1000 1.363 1_565 S
C1002 C1003 1.370 . S
C1002 C1006 1.524 . S
C1003 C995 1.503 . S
C1003 C1002 1.370 . S
C1003 C1004 1.403 . S
C1004 C1003 1.403 . S
C1004 C1005 1.404 . S
C1004 C1007 1.539 . S
C1005 C1001 1.422 . S
C1005 C1004 1.404 . S
C1005 H1017 0.930 . S
C1006 C1002 1.524 . S
C1006 H1018 0.956 . S
C1006 H1019 0.961 . S
C1006 H1020 0.961 1_565 S
C1007 C1004 1.539 . S
C1007 H1021 0.958 . S
C1007 H1022 0.961 . S
C1007 H1023 0.960 . S
H1008 C992 0.931 . S
H1009 C997 0.929 . S
H1010 C998 0.960 . S
H1011 C998 0.962 . S
H1012 C998 0.960 . S
H1013 C999 0.961 . S
H1014 C999 0.961 . S
H1015 C999 0.961 . S
H1016 C1000 0.931 . S
H1017 C1005 0.930 . S
H1018 C1006 0.956 . S
H1019 C1006 0.961 . S
H1020 C1006 0.961 1_545 S
H1021 C1007 0.958 . S
H1022 C1007 0.961 . S
H1023 C1007 0.960 . S
C1024 C1025 1.391 . S
C1024 C1026 1.394 . S
C1024 H1040 0.931 . S
C1025 C1024 1.391 . S
C1025 C1029 1.376 . S
C1026 C1024 1.394 . S
C1026 C1027 1.369 . S
C1026 C1030 1.531 . S
C1027 C1026 1.369 . S
C1027 C1028 1.410 . S
C1027 C1035 1.503 . S
C1028 C1027 1.410 . S
C1028 C1029 1.392 . S
C1028 C1031 1.511 . S
C1029 C1025 1.376 . S
C1029 C1028 1.392 . S
C1029 H1041 0.929 . S
C1030 C1026 1.531 . S
C1030 H1042 0.960 . S
C1030 H1043 0.962 . S
C1030 H1044 0.960 . S
C1031 C1028 1.511 . S
C1031 H1045 0.961 . S
C1031 H1046 0.961 . S
C1031 H1047 0.961 . S
C1032 C1033 1.370 . S
C1032 C1034 1.363 . S
C1032 H1048 0.931 . S
C1033 C1032 1.370 . S
C1033 C1037 1.408 . S
C1034 C1032 1.363 . S
C1034 C1035 1.370 . S
C1034 C1038 1.524 . S
C1035 C1027 1.503 . S
C1035 C1034 1.370 . S
C1035 C1036 1.403 . S
C1036 C1035 1.403 . S
C1036 C1037 1.404 . S
C1036 C1039 1.539 . S
C1037 C1033 1.408 . S
C1037 C1036 1.404 . S
C1037 H1049 0.930 . S
C1038 C1034 1.524 . S
C1038 H1050 0.956 . S
C1038 H1051 0.961 . S
C1038 H1052 0.961 . S
C1039 C1036 1.539 . S
C1039 H1053 0.958 . S
C1039 H1054 0.961 . S
C1039 H1055 0.960 . S
H1040 C1024 0.931 . S
H1041 C1029 0.929 . S
H1042 C1030 0.960 . S
H1043 C1030 0.962 . S
H1044 C1030 0.960 . S
H1045 C1031 0.961 . S
H1046 C1031 0.961 . S
H1047 C1031 0.961 . S
H1048 C1032 0.931 . S
H1049 C1037 0.930 . S
H1050 C1038 0.956 . S
H1051 C1038 0.961 . S
H1052 C1038 0.961 . S
H1053 C1039 0.958 . S
H1054 C1039 0.961 . S
H1055 C1039 0.960 . S
C1056 C1057 1.391 . S
C1056 C1058 1.394 . S
C1056 H1072 0.931 . S
C1057 C1056 1.391 . S
C1057 C1061 1.376 . S
C1058 C1056 1.394 . S
C1058 C1059 1.369 . S
C1058 C1062 1.531 . S
C1059 C1058 1.369 . S
C1059 C1060 1.410 . S
C1059 C1067 1.503 . S
C1060 C1059 1.410 . S
C1060 C1061 1.392 . S
C1060 C1063 1.511 . S
C1061 C1057 1.376 . S
C1061 C1060 1.392 . S
C1061 H1073 0.929 . S
C1062 C1058 1.531 . S
C1062 H1074 0.960 . S
C1062 H1075 0.962 . S
C1062 H1076 0.960 . S
C1063 C1060 1.511 . S
C1063 H1077 0.961 . S
C1063 H1078 0.961 . S
C1063 H1079 0.961 . S
C1064 C1065 1.370 . S
C1064 C1066 1.363 . S
C1064 H1080 0.931 . S
C1065 C1064 1.370 . S
C1065 C1069 1.408 . S
C1066 C1064 1.363 . S
C1066 C1067 1.370 . S
C1066 C1070 1.524 . S
C1067 C1059 1.503 . S
C1067 C1066 1.370 . S
C1067 C1068 1.403 . S
C1068 C1067 1.403 . S
C1068 C1069 1.404 . S
C1068 C1071 1.539 . S
C1069 C1065 1.408 . S
C1069 C1068 1.404 . S
C1069 H1081 0.930 . S
C1070 C1066 1.524 . S
C1070 H1082 0.956 . S
C1070 H1083 0.961 . S
C1070 H1084 0.961 . S
C1071 C1068 1.539 . S
C1071 H1085 0.958 . S
C1071 H1086 0.961 . S
C1071 H1087 0.960 . S
H1072 C1056 0.931 . S
H1073 C1061 0.929 . S
H1074 C1062 0.960 . S
H1075 C1062 0.962 . S
H1076 C1062 0.960 . S
H1077 C1063 0.961 . S
H1078 C1063 0.961 . S
H1079 C1063 0.961 . S
H1080 C1064 0.931 . S
H1081 C1069 0.930 . S
H1082 C1070 0.956 . S
H1083 C1070 0.961 . S
H1084 C1070 0.961 . S
H1085 C1071 0.958 . S
H1086 C1071 0.961 . S
H1087 C1071 0.960 . S
C1088 C1089 1.391 . S
C1088 C1090 1.394 . S
C1088 H1104 0.931 . S
C1089 C1088 1.391 . S
C1089 C1093 1.376 . S
C1090 C1088 1.394 . S
C1090 C1091 1.369 . S
C1090 C1094 1.531 . S
C1091 C1090 1.369 . S
C1091 C1092 1.410 . S
C1091 C1099 1.503 . S
C1092 C1091 1.410 . S
C1092 C1093 1.392 . S
C1092 C1095 1.511 . S
C1093 C1089 1.376 . S
C1093 C1092 1.392 . S
C1093 H1105 0.929 . S
C1094 C1090 1.531 . S
C1094 H1106 0.960 . S
C1094 H1107 0.962 . S
C1094 H1108 0.960 . S
C1095 C1092 1.511 . S
C1095 H1109 0.961 . S
C1095 H1110 0.961 . S
C1095 H1111 0.961 . S
C1096 C1097 1.370 . S
C1096 C1098 1.363 . S
C1096 H1112 0.931 1_565 S
C1097 C1096 1.370 . S
C1097 C1101 1.410 . S
C1098 C1096 1.363 . S
C1098 C1099 1.370 . S
C1098 C1102 1.524 . S
C1099 C1091 1.503 . S
C1099 C1098 1.370 . S
C1099 C1100 1.403 . S
C1100 C1099 1.403 . S
C1100 C1101 1.404 . S
C1100 C1103 1.539 . S
C1101 C1097 1.410 . S
C1101 C1100 1.404 . S
C1101 H1113 0.930 . S
C1102 C1098 1.524 . S
C1102 H1114 0.956 . S
C1102 H1115 0.961 . S
C1102 H1116 0.961 . S
C1103 C1100 1.539 . S
C1103 H1117 0.958 . S
C1103 H1118 0.961 . S
C1103 H1119 0.960 . S
H1104 C1088 0.931 . S
H1105 C1093 0.929 . S
H1106 C1094 0.960 . S
H1107 C1094 0.962 . S
H1108 C1094 0.960 . S
H1109 C1095 0.961 . S
H1110 C1095 0.961 . S
H1111 C1095 0.961 . S
H1112 C1096 0.931 1_545 S
H1113 C1101 0.930 . S
H1114 C1102 0.956 . S
H1115 C1102 0.961 . S
H1116 C1102 0.961 . S
H1117 C1103 0.958 . S
H1118 C1103 0.961 . S
H1119 C1103 0.960 . S
C1120 C1121 1.391 . S
C1120 C1122 1.394 . S
C1120 H1136 0.931 . S
C1121 C1120 1.391 . S
C1121 C1125 1.376 . S
C1122 C1120 1.394 . S
C1122 C1123 1.369 . S
C1122 C1126 1.531 . S
C1123 C1122 1.369 . S
C1123 C1124 1.410 . S
C1123 C1131 1.503 . S
C1124 C1123 1.410 . S
C1124 C1125 1.392 . S
C1124 C1127 1.511 . S
C1125 C1121 1.376 . S
C1125 C1124 1.392 . S
C1125 H1137 0.929 . S
C1126 C1122 1.531 . S
C1126 H1138 0.960 . S
C1126 H1139 0.962 . S
C1126 H1140 0.960 . S
C1127 C1124 1.511 . S
C1127 H1141 0.961 . S
C1127 H1142 0.961 . S
C1127 H1143 0.961 . S
C1128 C1129 1.370 1_545 S
C1128 C1130 1.363 . S
C1128 H1144 0.931 . S
C1129 C1128 1.370 1_565 S
C1129 C1133 1.408 . S
C1130 C1128 1.363 . S
C1130 C1131 1.370 . S
C1130 C1134 1.524 . S
C1131 C1123 1.503 . S
C1131 C1130 1.370 . S
C1131 C1132 1.403 . S
C1132 C1131 1.403 . S
C1132 C1133 1.404 1_545 S
C1132 C1135 1.539 . S
C1133 C1129 1.408 . S
C1133 C1132 1.404 1_565 S
C1133 H1145 0.930 . S
C1134 C1130 1.524 . S
C1134 H1146 0.956 . S
C1134 H1147 0.961 . S
C1134 H1148 0.961 . S
C1135 C1132 1.539 . S
C1135 H1149 0.958 . S
C1135 H1150 0.961 . S
C1135 H1151 0.960 . S
H1136 C1120 0.931 . S
H1137 C1125 0.929 . S
H1138 C1126 0.960 . S
H1139 C1126 0.962 . S
H1140 C1126 0.960 . S
H1141 C1127 0.961 . S
H1142 C1127 0.961 . S
H1143 C1127 0.961 . S
H1144 C1128 0.931 . S
H1145 C1133 0.930 . S
H1146 C1134 0.956 . S
H1147 C1134 0.961 . S
H1148 C1134 0.961 . S
H1149 C1135 0.958 . S
H1150 C1135 0.961 . S
H1151 C1135 0.960 . S
C1152 C1153 1.391 . S
C1152 C1154 1.394 . S
C1152 H1168 0.931 . S
C1153 C1152 1.391 . S
C1153 C1157 1.376 . S
C1154 C1152 1.394 . S
C1154 C1155 1.369 . S
C1154 C1158 1.531 . S
C1155 C1154 1.369 . S
C1155 C1156 1.410 . S
C1155 C1163 1.503 . S
C1156 C1155 1.410 . S
C1156 C1157 1.392 . S
C1156 C1159 1.511 . S
C1157 C1153 1.376 . S
C1157 C1156 1.392 . S
C1157 H1169 0.929 . S
C1158 C1154 1.531 . S
C1158 H1170 0.960 . S
C1158 H1171 0.962 . S
C1158 H1172 0.960 . S
C1159 C1156 1.511 . S
C1159 H1173 0.961 . S
C1159 H1174 0.961 . S
C1159 H1175 0.961 . S
C1160 C1161 1.370 . S
C1160 C1162 1.363 . S
C1160 H1176 0.931 . S
C1161 C1160 1.370 . S
C1161 C1165 1.408 . S
C1162 C1160 1.363 . S
C1162 C1163 1.370 . S
C1162 C1166 1.524 . S
C1163 C1155 1.503 . S
C1163 C1162 1.370 . S
C1163 C1164 1.403 . S
C1164 C1163 1.403 . S
C1164 C1165 1.404 . S
C1164 C1167 1.539 . S
C1165 C1161 1.408 . S
C1165 C1164 1.404 . S
C1165 H1177 0.930 . S
C1166 C1162 1.524 . S
C1166 H1178 0.956 . S
C1166 H1179 0.961 . S
C1166 H1180 0.961 . S
C1167 C1164 1.539 . S
C1167 H1181 0.958 . S
C1167 H1182 0.961 . S
C1167 H1183 0.960 . S
H1168 C1152 0.931 . S
H1169 C1157 0.929 . S
H1170 C1158 0.960 . S
H1171 C1158 0.962 . S
H1172 C1158 0.960 . S
H1173 C1159 0.961 . S
H1174 C1159 0.961 . S
H1175 C1159 0.961 . S
H1176 C1160 0.931 . S
H1177 C1165 0.930 . S
H1178 C1166 0.956 . S
H1179 C1166 0.961 . S
H1180 C1166 0.961 . S
H1181 C1167 0.958 . S
H1182 C1167 0.961 . S
H1183 C1167 0.960 . S
C1184 C1185 1.391 . S
C1184 C1186 1.394 . S
C1184 H1200 0.931 . S
C1185 C1184 1.391 . S
C1185 C1189 1.376 . S
C1186 C1184 1.394 . S
C1186 C1187 1.369 . S
C1186 C1190 1.531 . S
C1187 C1186 1.369 . S
C1187 C1188 1.410 . S
C1187 C1195 1.503 . S
C1188 C1187 1.410 . S
C1188 C1189 1.392 . S
C1188 C1191 1.511 . S
C1189 C1185 1.376 . S
C1189 C1188 1.392 . S
C1189 H1201 0.929 . S
C1190 C1186 1.531 . S
C1190 H1202 0.960 . S
C1190 H1203 0.962 . S
C1190 H1204 0.960 . S
C1191 C1188 1.511 . S
C1191 H1205 0.961 . S
C1191 H1206 0.961 . S
C1191 H1207 0.961 . S
C1192 C1193 1.370 . S
C1192 C1194 1.363 . S
C1192 H1208 0.931 . S
C1193 C1192 1.370 . S
C1193 C1197 1.408 . S
C1194 C1192 1.363 . S
C1194 C1195 1.370 . S
C1194 C1198 1.524 . S
C1195 C1187 1.503 . S
C1195 C1194 1.370 . S
C1195 C1196 1.403 . S
C1196 C1195 1.403 . S
C1196 C1197 1.404 . S
C1196 C1199 1.539 . S
C1197 C1193 1.408 . S
C1197 C1196 1.404 . S
C1197 H1209 0.930 . S
C1198 C1194 1.524 . S
C1198 H1210 0.956 . S
C1198 H1211 0.961 . S
C1198 H1212 0.961 . S
C1199 C1196 1.539 . S
C1199 H1213 0.958 . S
C1199 H1214 0.961 . S
C1199 H1215 0.960 . S
H1200 C1184 0.931 . S
H1201 C1189 0.929 . S
H1202 C1190 0.960 . S
H1203 C1190 0.962 . S
H1204 C1190 0.960 . S
H1205 C1191 0.961 . S
H1206 C1191 0.961 . S
H1207 C1191 0.961 . S
H1208 C1192 0.931 . S
H1209 C1197 0.930 . S
H1210 C1198 0.956 . S
H1211 C1198 0.961 . S
H1212 C1198 0.961 . S
H1213 C1199 0.958 . S
H1214 C1199 0.961 . S
H1215 C1199 0.960 . S
C1216 C1217 1.391 . S
C1216 C1218 1.394 . S
C1216 H1232 0.931 . S
C1217 C1216 1.391 . S
C1217 C1221 1.376 . S
C1218 C1216 1.394 . S
C1218 C1219 1.369 . S
C1218 C1222 1.531 . S
C1219 C1218 1.369 . S
C1219 C1220 1.410 . S
C1219 C1227 1.503 . S
C1220 C1219 1.410 . S
C1220 C1221 1.392 . S
C1220 C1223 1.511 . S
C1221 C1217 1.376 . S
C1221 C1220 1.392 . S
C1221 H1233 0.929 . S
C1222 C1218 1.531 . S
C1222 H1234 0.960 . S
C1222 H1235 0.962 . S
C1222 H1236 0.960 . S
C1223 C1220 1.511 . S
C1223 H1237 0.961 . S
C1223 H1238 0.961 . S
C1223 H1239 0.961 . S
C1224 C1225 1.370 1_545 S
C1224 C1226 1.363 . S
C1224 H1240 0.931 1_545 S
C1225 C1224 1.370 1_565 S
C1225 C1229 1.408 1_565 S
C1226 C1224 1.363 . S
C1226 C1227 1.370 . S
C1226 C1230 1.524 . S
C1227 C1219 1.503 . S
C1227 C1226 1.370 . S
C1227 C1228 1.403 . S
C1228 C1227 1.403 . S
C1228 C1229 1.404 . S
C1228 C1231 1.539 . S
C1229 C1225 1.408 1_545 S
C1229 C1228 1.404 . S
C1229 H1241 0.930 . S
C1230 C1226 1.524 . S
C1230 H1242 0.956 . S
C1230 H1243 0.961 . S
C1230 H1244 0.961 . S
C1231 C1228 1.539 . S
C1231 H1245 0.958 . S
C1231 H1246 0.961 . S
C1231 H1247 0.960 . S
H1232 C1216 0.931 . S
H1233 C1221 0.929 . S
H1234 C1222 0.960 . S
H1235 C1222 0.962 . S
H1236 C1222 0.960 . S
H1237 C1223 0.961 . S
H1238 C1223 0.961 . S
H1239 C1223 0.961 . S
H1240 C1224 0.931 1_565 S
H1241 C1229 0.930 . S
H1242 C1230 0.956 . S
H1243 C1230 0.961 . S
H1244 C1230 0.961 . S
H1245 C1231 0.958 . S
H1246 C1231 0.961 . S
H1247 C1231 0.960 . S
C225 C199 1.489 . S
C233 C3 1.493 . S
C257 C36 1.493 . S
C265 C8 1.497 . S
C289 C162 1.491 . S
C297 C22 1.498 . S
C321 C17 1.496 . S
C329 C101 1.491 . S
C353 C31 1.498 . S
C361 C171 1.490 . S
C385 C134 1.496 . S
C393 C50 1.496 . S
C417 C45 1.483 . S
C425 C73 1.497 . S
C449 C143 1.498 . S
C457 C59 1.490 . S
C481 C64 1.491 . S
C489 C92 1.498 . S
C513 C218 1.496 . S
C521 C78 1.496 . S
C545 C115 1.483 . S
C553 C87 1.497 . S
C577 C190 1.491 . S
C585 C106 1.498 . S
C609 C120 1.496 . S
C617 C148 1.496 . S
C641 C213 1.498 . S
C649 C129 1.490 . S
C673 C157 1.484 . S
C681 C185 1.495 . S
C705 C204 1.492 . S
C713 C176 1.497 . S
C737 C79 1.409 . S
C745 C7 1.416 1_565 S
C769 C9 1.415 . S
C777 C77 1.420 . S
C801 C23 1.408 . S
C809 C63 1.427 . S
C833 C65 1.419 . S
C841 C21 1.410 1_565 S
C865 C107 1.410 . S
C873 C35 1.420 1_545 S
C897 C105 1.393 . S
C905 C37 1.434 . S
C929 C91 1.397 . S
C937 C51 1.434 . S
C961 C49 1.430 . S
C969 C93 1.418 . S
C993 C191 1.417 . S
C1001 C119 1.411 1_565 S
C1025 C121 1.427 . S
C1033 C189 1.418 . S
C1057 C135 1.423 . S
C1065 C175 1.420 . S
C1089 C177 1.431 . S
C1097 C133 1.415 1_565 S
C1121 C219 1.440 . S
C1129 C147 1.409 . S
C1153 C217 1.428 . S
C1161 C149 1.418 . S
C1185 C163 1.438 . S
C1193 C203 1.409 . S
C1217 C205 1.404 . S
C1225 C161 1.428 . S
