# Generated by pormake.
# Topology vme, (6)-cn, num edge types: 1
# Building blocks:
#     Node 0, Type 0, BuildingBlock: VOLQOD_clean_sbu_1, # of connection points: 6
#     Node 1, Type 0, BuildingBlock: VOLQOD_clean_sbu_1, # of connection points: 6
#     Node 2, Type 0, BuildingBlock: VOLQOD_clean_sbu_1, # of connection points: 6
#     Node 3, Type 0, BuildingBlock: VOLQOD_clean_sbu_1, # of connection points: 6
#     Edge 4, Type (0, 0), BuildingBlock: EZIPEK_clean_linker_0, # of connection points: 2
#     Edge 5, Type (0, 0), BuildingBlock: EZIPEK_clean_linker_0, # of connection points: 2
#     Edge 6, Type (0, 0), BuildingBlock: EZIPEK_clean_linker_0, # of connection points: 2
#     Edge 7, Type (0, 0), BuildingBlock: EZIPEK_clean_linker_0, # of connection points: 2
#     Edge 8, Type (0, 0), BuildingBlock: EZIPEK_clean_linker_0, # of connection points: 2
#     Edge 9, Type (0, 0), BuildingBlock: EZIPEK_clean_linker_0, # of connection points: 2
#     Edge 10, Type (0, 0), BuildingBlock: EZIPEK_clean_linker_0, # of connection points: 2
#     Edge 11, Type (0, 0), BuildingBlock: EZIPEK_clean_linker_0, # of connection points: 2
#     Edge 12, Type (0, 0), BuildingBlock: EZIPEK_clean_linker_0, # of connection points: 2
#     Edge 13, Type (0, 0), BuildingBlock: EZIPEK_clean_linker_0, # of connection points: 2
#     Edge 14, Type (0, 0), BuildingBlock: EZIPEK_clean_linker_0, # of connection points: 2
#     Edge 15, Type (0, 0), BuildingBlock: EZIPEK_clean_linker_0, # of connection points: 2
# Relax obj value: 0.302
# Max RMSD: 0.247
# Mean RMSD: 0.247
data_MOF--net-vme--node1-VOLQOD_clean_sbu_1--edge1-EZIPEK_clean_linker_0
_symmetry_space_group_name_H-M    P1
_symmetry_Int_Tables_number       1
_symmetry_cell_setting            triclinic
loop_
_symmetry_equiv_pos_as_xyz
'x, y, z'
_cell_length_a     20.750691
_cell_length_b     20.834608
_cell_length_c     22.099611
_cell_angle_alpha  90.061866
_cell_angle_beta   114.3234
_cell_angle_gamma 90.119326
loop_
_atom_site_label
_atom_site_type_symbol
_atom_site_fract_x
_atom_site_fract_y
_atom_site_fract_z
_atom_type_partial_charge
O0 O 0.05665 0.40718 0.39764 0.0
Zn1 Zn 0.087 0.36948 0.33151 0.0
O2 O 0.1882 0.3699 0.37036 0.0
Zn3 Zn 0.22527 0.28486 0.37835 0.0
Zn4 Zn 0.22424 0.41249 0.4541 0.0
Zn5 Zn 0.21603 0.42235 0.3156 0.0
O6 O 0.27852 0.27956 0.31804 0.0
O7 O 0.23019 0.36306 0.25072 0.0
O8 O 0.04541 0.28087 0.30963 0.0
O9 O 0.14306 0.22176 0.34179 0.0
O10 O 0.27541 0.26001 0.47733 0.0
O11 O 0.24869 0.34603 0.52233 0.0
O12 O 0.31387 0.45959 0.4708 0.0
O13 O 0.0467 0.42956 0.2531 0.0
O14 O 0.31129 0.46047 0.36928 0.0
O15 O 0.14071 0.49178 0.27829 0.0
C16 C 0.08425 0.44932 0.44269 0.0
C17 C 0.26395 0.30994 0.26347 0.0
C18 C 0.27187 0.28918 0.52693 0.0
C19 C 0.07588 0.22664 0.3181 0.0
C20 C 0.34246 0.47204 0.43116 0.0
C21 C 0.07361 0.48445 0.25302 0.0
O22 O 0.14939 0.46473 0.46491 0.0
O23 O 0.92493 0.8975 0.09749 0.0
Zn24 Zn 0.90338 0.86586 0.17201 0.0
O25 O 0.80257 0.86336 0.1413 0.0
Zn26 Zn 0.76765 0.77881 0.14514 0.0
Zn27 Zn 0.76179 0.88981 0.05218 0.0
Zn28 Zn 0.77326 0.92834 0.18526 0.0
O29 O 0.72951 0.782 0.21935 0.0
O30 O 0.75373 0.88351 0.25584 0.0
O31 O 0.94713 0.77778 0.19758 0.0
O32 O 0.8507 0.719 0.17744 0.0
O33 O 0.71166 0.74253 0.04844 0.0
O34 O 0.74872 0.81528 0.99608 0.0
O35 O 0.6657 0.92383 0.02961 0.0
O36 O 0.9469 0.93425 0.24281 0.0
O37 O 0.68063 0.96909 0.12482 0.0
O38 O 0.85155 -0.00531 0.22094 0.0
C39 C 0.89181 0.93614 0.05037 0.0
C40 C 0.73429 0.82647 0.26167 0.0
C41 C 0.72173 0.76112 0.99747 0.0
C42 C 0.91713 0.72369 0.19467 0.0
C43 C 0.64182 0.95658 0.06423 0.0
C44 C 0.91864 0.9881 0.24488 0.0
O45 O 0.82619 0.94773 0.03152 0.0
O46 O 0.92987 0.58528 0.59933 0.0
Zn47 Zn 0.90429 0.61149 0.6726 0.0
O48 O 0.80344 0.62543 0.63691 0.0
Zn49 Zn 0.78066 0.71395 0.64717 0.0
Zn50 Zn 0.76204 0.60192 0.54466 0.0
Zn51 Zn 0.76457 0.56769 0.68064 0.0
O52 O 0.74288 0.71686 0.72172 0.0
O53 O 0.75372 0.61432 0.7545 0.0
O54 O 0.96007 0.69338 0.70936 0.0
O55 O 0.87228 0.7644 0.68041 0.0
O56 O 0.72324 0.75564 0.55408 0.0
O57 O 0.74045 0.68004 0.4911 0.0
O58 O 0.66877 0.5584 0.51928 0.0
O59 O 0.93302 0.53196 0.73065 0.0
O60 O 0.66721 0.54043 0.61784 0.0
O61 O 0.82801 0.49032 0.71401 0.0
C62 C 0.89596 0.55825 0.54363 0.0
C63 C 0.74156 0.673 0.76222 0.0
C64 C 0.72143 0.73628 0.49817 0.0
C65 C 0.93805 0.75117 0.70384 0.0
C66 C 0.63741 0.53937 0.55473 0.0
C67 C 0.89486 0.48511 0.73402 0.0
O68 O 0.82888 0.55366 0.51775 0.0
O69 O 0.04639 0.07883 0.8886 0.0
Zn70 Zn 0.08254 0.10794 0.82347 0.0
O71 O 0.18305 0.1192 0.86875 0.0
Zn72 Zn 0.21055 0.20802 0.87354 0.0
Zn73 Zn 0.21986 0.07607 0.95285 0.0
Zn74 Zn 0.22541 0.07363 0.82167 0.0
O75 O 0.26062 0.22313 0.81087 0.0
O76 O 0.23339 0.13059 0.75438 0.0
O77 O 0.03189 0.19255 0.78709 0.0
O78 O 0.12179 0.26057 0.83509 0.0
O79 O 0.25638 0.23674 0.97163 0.0
O80 O 0.25733 0.14333 0.02098 0.0
O81 O 0.30157 0.01602 0.96704 0.0
O82 O 0.05978 0.02973 0.76352 0.0
O83 O 0.32377 0.05271 0.88404 0.0
O84 O 0.16765 0.99347 0.78353 0.0
C85 C 0.07434 0.04701 0.94208 0.0
C86 C 0.25587 0.18819 0.76132 0.0
C87 C 0.26723 0.20368 0.02375 0.0
C88 C 0.05615 0.24967 0.8016 0.0
C89 C 0.34404 0.02399 0.9394 0.0
C90 C 0.10095 0.98491 0.76181 0.0
O91 O 0.14065 0.03617 0.97005 0.0
C92 C 0.00358 0.06859 0.23327 0.0
C93 C 0.96382 0.04645 0.26859 0.0
C94 C -0.00296 0.14428 0.33743 0.0
C95 C 0.03239 0.16739 0.29873 0.0
N96 N 0.04999 0.16096 0.19817 0.0
N97 N 0.91924 0.06419 0.35219 0.0
C98 C 0.03041 0.1321 0.24353 0.0
C99 C 0.95938 0.08481 0.32002 0.0
N100 N 0.01665 0.02934 0.1901 0.0
N101 N 0.00054 0.17874 0.39135 0.0
H102 H 0.89632 0.01861 0.34494 0.0
H103 H 0.9065 0.09261 0.38441 0.0
H104 H 0.02377 0.2241 0.40282 0.0
H105 H 0.98317 0.16177 0.42633 0.0
H106 H 0.05241 0.04103 0.16975 0.0
H107 H -0.00299 0.98305 0.17852 0.0
H108 H 0.0422 0.14016 0.15278 0.0
H109 H 0.06685 0.20865 0.20265 0.0
C110 C 0.03631 0.58702 0.18671 0.0
C111 C 0.02695 0.54227 0.23103 0.0
C112 C 0.95327 0.62073 0.25673 0.0
C113 C 0.9591 0.66361 0.2097 0.0
N114 N 0.99242 0.68188 0.11854 0.0
N115 N 0.95758 0.51135 0.29263 0.0
C116 C -0.00289 0.64543 0.17164 0.0
C117 C 0.97947 0.55725 0.26106 0.0
N118 N 0.08174 0.57328 0.15797 0.0
N119 N 0.92429 0.64136 0.29887 0.0
H120 H 0.97203 0.46354 0.29631 0.0
H121 H 0.91758 0.5189 0.30875 0.0
H122 H 0.90725 0.68838 0.29919 0.0
H123 H 0.9235 0.6141 0.338 0.0
H124 H 0.09813 0.60716 0.13261 0.0
H125 H 0.1052 0.52841 0.16154 0.0
H126 H 0.01216 0.6674 0.08436 0.0
H127 H 0.96313 0.72412 0.1048 0.0
C128 C 0.0196 0.90646 0.6785 0.0
C129 C 0.07071 0.91918 0.74362 0.0
C130 C 0.04081 0.81715 0.7823 0.0
C131 C 0.98908 0.80519 0.71734 0.0
N132 N 0.94683 0.82666 0.60023 0.0
N133 N 0.14359 0.87842 0.85323 0.0
C134 C 0.98374 0.84636 0.66435 0.0
C135 C 0.08615 0.87161 0.79401 0.0
N136 N 0.00447 0.95216 0.63032 0.0
N137 N 0.04409 0.77857 0.8335 0.0
H138 H 0.17606 0.91881 0.86614 0.0
H139 H 0.16217 0.84186 0.88824 0.0
H140 H 0.01163 0.73852 0.82683 0.0
H141 H 0.07552 0.78846 0.88318 0.0
H142 H 0.96167 0.9488 0.58422 0.0
H143 H 0.03285 -0.00498 0.63776 0.0
H144 H 0.94849 0.85095 0.55975 0.0
H145 H 0.92086 0.78245 0.58791 0.0
C146 C 0.97569 0.40857 0.81968 0.0
C147 C 0.92829 0.42093 0.75316 0.0
C148 C 0.96167 0.31897 0.71774 0.0
C149 C 0.00723 0.3055 0.78463 0.0
N150 N 0.0429 0.32897 0.90104 0.0
N151 N 0.86337 0.38096 0.64152 0.0
C152 C 0.00993 0.34788 0.83621 0.0
C153 C 0.91687 0.3737 0.70316 0.0
N154 N 0.98845 0.45499 0.86702 0.0
N155 N 0.9643 0.28207 0.66761 0.0
H156 H 0.8312 0.42141 0.62723 0.0
H157 H 0.84723 0.34443 0.60612 0.0
H158 H -0.003 0.24213 0.67593 0.0
H159 H 0.93868 0.29423 0.61761 0.0
H160 H 0.02873 0.45189 0.9146 0.0
H161 H 0.96126 0.49849 0.85747 0.0
H162 H 0.04104 0.35506 0.9405 0.0
H163 H 0.06602 0.28387 0.91502 0.0
C164 C 0.97889 0.57292 0.48944 0.0
C165 C 0.93739 0.53118 0.50979 0.0
C166 C 0.00082 0.4382 0.49583 0.0
C167 C 0.03844 0.47901 0.47043 0.0
N168 N 0.0586 0.58383 0.43483 0.0
N169 N 0.89783 0.42402 0.51902 0.0
C170 C 0.02661 0.5462 0.46524 0.0
C171 C 0.94464 0.46374 0.50849 0.0
N172 N 0.97221 0.63797 0.4931 0.0
N173 N 0.02123 0.37569 0.51102 0.0
H174 H 0.85565 0.44084 0.52842 0.0
H175 H 0.89656 0.37453 0.51184 0.0
H176 H 0.06429 0.35574 0.50495 0.0
H177 H 0.00052 0.34559 0.53623 0.0
H178 H 0.00663 0.67109 0.48697 0.0
H179 H 0.93337 0.65913 0.50502 0.0
H180 H 0.04798 0.63237 0.42478 0.0
H181 H 0.09247 0.56579 0.41487 0.0
C182 C 0.96683 0.92558 0.98845 0.0
C183 C 0.93156 0.96612 0.0163 0.0
C184 C 0.98463 0.0607 0.98966 0.0
C185 C 0.02693 0.01942 0.96973 0.0
N186 N 0.06321 0.91223 0.95551 0.0
N187 N 0.91068 0.07149 0.05004 0.0
C188 C 0.0197 0.95175 0.97097 0.0
C189 C 0.94075 0.03362 0.01812 0.0
N190 N 0.94738 0.86244 0.97599 0.0
N191 N 0.98642 0.12567 0.98159 0.0
H192 H 0.87855 0.05355 0.07202 0.0
H193 H 0.92187 0.12011 0.05959 0.0
H194 H 0.02098 0.14821 0.96502 0.0
H195 H 0.95057 0.15726 0.98742 0.0
H196 H 0.96585 0.83197 0.94928 0.0
H197 H 0.90702 0.84202 0.98628 0.0
H198 H 0.06685 0.86309 0.96485 0.0
H199 H 0.0995 0.92879 0.93784 0.0
C200 C 0.22015 0.21307 0.10971 0.0
C201 C 0.26951 0.23509 0.08505 0.0
C202 C 0.3199 0.3074 0.18111 0.0
C203 C 0.27574 0.27859 0.20868 0.0
N204 N 0.19997 0.18932 0.20656 0.0
N205 N 0.37268 0.29819 0.10126 0.0
C206 C 0.23167 0.22641 0.17575 0.0
C207 C 0.32137 0.28111 0.12178 0.0
N208 N 0.15923 0.18273 0.06872 0.0
N209 N 0.36017 0.35955 0.21159 0.0
H210 H 0.37451 0.27971 0.05811 0.0
H211 H 0.41582 0.32698 0.12922 0.0
H212 H 0.36336 0.37714 0.257 0.0
H213 H 0.38768 0.38683 0.1905 0.0
H214 H 0.11926 0.17056 0.08371 0.0
H215 H 0.14459 0.17743 0.01781 0.0
H216 H 0.1751 0.14603 0.18616 0.0
H217 H 0.20469 0.19734 0.25465 0.0
C218 C 0.6597 0.77899 0.31757 0.0
C219 C 0.72181 0.81173 0.32238 0.0
C220 C 0.75633 0.8245 0.44251 0.0
C221 C 0.70467 0.77914 0.43974 0.0
N222 N 0.60337 0.71512 0.37432 0.0
N223 N 0.83571 0.85738 0.39365 0.0
C224 C 0.65451 0.75771 0.37685 0.0
C225 C 0.77139 0.83333 0.38588 0.0
N226 N 0.60512 0.76975 0.25689 0.0
N227 N 0.79242 0.85786 0.49972 0.0
H228 H 0.85281 0.85906 0.35547 0.0
H229 H 0.87557 0.86861 0.43987 0.0
H230 H 0.78213 0.85225 0.54178 0.0
H231 H 0.82592 0.89615 0.50241 0.0
H232 H 0.5562 0.75114 0.25078 0.0
H233 H 0.60634 0.78646 0.21291 0.0
H234 H 0.57052 0.69114 0.33119 0.0
H235 H 0.59609 0.70219 0.41674 0.0
C236 C 0.65845 0.73694 0.87654 0.0
C237 C 0.71067 0.71917 0.93968 0.0
C238 C 0.78244 0.67218 0.88647 0.0
C239 C 0.73014 0.6896 0.82287 0.0
N240 N 0.61106 0.72468 0.75659 0.0
N241 N 0.81181 0.6552 0.00367 0.0
C242 C 0.66572 0.71771 0.8176 0.0
C243 C 0.76864 0.68106 0.94391 0.0
N244 N 0.60345 0.77471 0.87342 0.0
N245 N 0.84734 0.65131 0.89269 0.0
H246 H 0.80258 0.66158 0.04626 0.0
H247 H 0.85182 0.62249 0.0095 0.0
H248 H 0.86123 0.64705 0.85257 0.0
H249 H 0.88992 0.6443 0.93827 0.0
H250 H 0.56825 0.79644 0.83 0.0
H251 H 0.59512 0.78622 0.91565 0.0
H252 H 0.56056 0.73914 0.74986 0.0
H253 H 0.61457 0.71099 0.71263 0.0
C254 C 0.33096 0.22934 0.70421 0.0
C255 C 0.26337 0.21707 0.7036 0.0
C256 C 0.20766 0.23393 0.5837 0.0
C257 C 0.27378 0.25289 0.58494 0.0
N258 N 0.39771 0.27484 0.64613 0.0
N259 N 0.13628 0.22065 0.64598 0.0
C260 C 0.33551 0.25221 0.64521 0.0
C261 C 0.20139 0.22299 0.64416 0.0
N262 N 0.39043 0.21773 0.76048 0.0
N263 N 0.15063 0.22623 0.52435 0.0
H264 H 0.12952 0.21408 0.68982 0.0
H265 H 0.08943 0.23181 0.60546 0.0
H266 H 0.15313 0.23389 0.47873 0.0
H267 H 0.10308 0.20609 0.52034 0.0
H268 H 0.44134 0.2194 0.76228 0.0
H269 H 0.38844 0.20267 0.8047 0.0
H270 H 0.44298 0.28227 0.68956 0.0
H271 H 0.40275 0.28902 0.60298 0.0
C272 C 0.43775 0.55221 0.48897 0.0
C273 C 0.41749 0.49099 0.45931 0.0
C274 C 0.54125 0.46367 0.48688 0.0
C275 C 0.56191 0.52255 0.52168 0.0
N276 N 0.53218 0.62205 0.56028 0.0
N277 N 0.44873 0.38436 0.4376 0.0
C278 C 0.51079 0.56661 0.52413 0.0
C279 C 0.46883 0.44568 0.45979 0.0
N280 N 0.38704 0.59717 0.48138 0.0
N281 N 0.59087 0.42505 0.47966 0.0
H282 H 0.39627 0.36879 0.41763 0.0
H283 H 0.48428 0.34718 0.4437 0.0
H284 H 0.64496 0.43498 0.50188 0.0
H285 H 0.5783 0.38543 0.4481 0.0
H286 H 0.39806 0.64496 0.4957 0.0
H287 H 0.33306 0.58793 0.45576 0.0
H288 H 0.49825 0.65229 0.57079 0.0
H289 H 0.58494 0.63656 0.5832 0.0
C290 C 0.45641 0.0047 0.04335 0.0
C291 C 0.41926 0.00346 0.97295 0.0
C292 C 0.53175 0.98711 0.96464 0.0
C293 C 0.56611 0.97604 0.03409 0.0
N294 N 0.54956 0.95299 0.13479 0.0
N295 N 0.42249 0.97079 0.86878 0.0
C296 C 0.52533 0.97845 0.07242 0.0
C297 C 0.45706 0.98766 0.93405 0.0
N298 N 0.42885 0.03354 0.08292 0.0
N299 N 0.56949 -0.00048 0.92788 0.0
H300 H 0.3679 0.96381 0.84587 0.0
H301 H 0.44924 0.95525 0.84053 0.0
H302 H 0.62415 0.00633 0.9491 0.0
H303 H 0.54517 0.01164 0.87769 0.0
H304 H 0.45769 0.03838 0.13408 0.0
H305 H 0.38242 0.06023 0.06466 0.0
H306 H 0.51819 0.95074 0.16145 0.0
H307 H 0.59586 0.92631 0.15601 0.0
loop_
_geom_bond_atom_site_label_1
_geom_bond_atom_site_label_2
_geom_bond_distance
_geom_bond_site_symmetry_2
_ccdc_geom_bond_type
O0 Zn1 1.953 . S
O0 C16 1.225 . S
Zn1 O0 1.953 . S
Zn1 O2 1.949 . S
Zn1 O8 1.919 . S
Zn1 O13 1.924 . S
O2 Zn1 1.949 . S
O2 Zn3 1.923 . S
O2 Zn4 1.950 . S
O2 Zn5 1.945 . S
Zn3 O2 1.923 . S
Zn3 O6 1.933 . S
Zn3 O9 1.941 . S
Zn3 O10 1.965 . S
Zn4 O2 1.950 . S
Zn4 O11 1.938 . S
Zn4 O12 1.906 . S
Zn4 O22 1.953 . S
Zn5 O2 1.945 . S
Zn5 O7 1.932 . S
Zn5 O14 1.977 . S
Zn5 O15 1.910 . S
O6 Zn3 1.933 . S
O6 C17 1.226 . S
O7 Zn5 1.932 . S
O7 C17 1.307 . S
O8 Zn1 1.919 . S
O8 C19 1.253 . S
O9 Zn3 1.941 . S
O9 C19 1.283 . S
O10 Zn3 1.965 . S
O10 C18 1.303 . S
O11 Zn4 1.938 . S
O11 C18 1.247 . S
O12 Zn4 1.906 . S
O12 C20 1.304 . S
O13 Zn1 1.924 . S
O13 C21 1.311 . S
O14 Zn5 1.977 . S
O14 C20 1.272 . S
O15 Zn5 1.910 . S
O15 C21 1.231 . S
C16 O0 1.225 . S
C16 O22 1.298 . S
C17 O6 1.226 . S
C17 O7 1.307 . S
C18 O10 1.303 . S
C18 O11 1.247 . S
C19 O8 1.253 . S
C19 O9 1.283 . S
C20 O12 1.304 . S
C20 O14 1.272 . S
C21 O13 1.311 . S
C21 O15 1.231 . S
O22 Zn4 1.953 . S
O22 C16 1.298 . S
O23 Zn24 1.953 . S
O23 C39 1.225 . S
Zn24 O23 1.953 . S
Zn24 O25 1.949 . S
Zn24 O31 1.919 . S
Zn24 O36 1.924 . S
O25 Zn24 1.949 . S
O25 Zn26 1.923 . S
O25 Zn27 1.950 . S
O25 Zn28 1.945 . S
Zn26 O25 1.923 . S
Zn26 O29 1.933 . S
Zn26 O32 1.941 . S
Zn26 O33 1.965 . S
Zn27 O25 1.950 . S
Zn27 O34 1.938 1_554 S
Zn27 O35 1.906 . S
Zn27 O45 1.953 1_554 S
Zn28 O25 1.945 . S
Zn28 O30 1.932 . S
Zn28 O37 1.977 . S
Zn28 O38 1.910 . S
O29 Zn26 1.933 . S
O29 C40 1.226 . S
O30 Zn28 1.932 . S
O30 C40 1.307 . S
O31 Zn24 1.919 . S
O31 C42 1.253 . S
O32 Zn26 1.941 . S
O32 C42 1.283 . S
O33 Zn26 1.965 . S
O33 C41 1.303 1_554 S
O34 Zn27 1.938 1_556 S
O34 C41 1.247 . S
O35 Zn27 1.906 . S
O35 C43 1.304 . S
O36 Zn24 1.924 . S
O36 C44 1.311 1_565 S
O37 Zn28 1.977 . S
O37 C43 1.272 . S
O38 Zn28 1.910 . S
O38 C44 1.231 1_565 S
C39 O23 1.225 . S
C39 O45 1.298 1_554 S
C40 O29 1.226 . S
C40 O30 1.307 . S
C41 O33 1.303 1_556 S
C41 O34 1.247 . S
C42 O31 1.253 . S
C42 O32 1.283 . S
C43 O35 1.304 . S
C43 O37 1.272 . S
C44 O36 1.311 1_545 S
C44 O38 1.231 1_545 S
O45 Zn27 1.953 1_556 S
O45 C39 1.298 1_556 S
O46 Zn47 1.953 . S
O46 C62 1.225 . S
Zn47 O46 1.953 . S
Zn47 O48 1.949 . S
Zn47 O54 1.919 . S
Zn47 O59 1.924 . S
O48 Zn47 1.949 . S
O48 Zn49 1.923 . S
O48 Zn50 1.950 . S
O48 Zn51 1.945 . S
Zn49 O48 1.923 . S
Zn49 O52 1.933 . S
Zn49 O55 1.941 . S
Zn49 O56 1.965 . S
Zn50 O48 1.950 . S
Zn50 O57 1.938 . S
Zn50 O58 1.906 . S
Zn50 O68 1.953 . S
Zn51 O48 1.945 . S
Zn51 O53 1.932 . S
Zn51 O60 1.977 . S
Zn51 O61 1.910 . S
O52 Zn49 1.933 . S
O52 C63 1.226 . S
O53 Zn51 1.932 . S
O53 C63 1.307 . S
O54 Zn47 1.919 . S
O54 C65 1.253 . S
O55 Zn49 1.941 . S
O55 C65 1.283 . S
O56 Zn49 1.965 . S
O56 C64 1.303 . S
O57 Zn50 1.938 . S
O57 C64 1.247 . S
O58 Zn50 1.906 . S
O58 C66 1.304 . S
O59 Zn47 1.924 . S
O59 C67 1.311 . S
O60 Zn51 1.977 . S
O60 C66 1.272 . S
O61 Zn51 1.910 . S
O61 C67 1.231 . S
C62 O46 1.225 . S
C62 O68 1.298 . S
C63 O52 1.226 . S
C63 O53 1.307 . S
C64 O56 1.303 . S
C64 O57 1.247 . S
C65 O54 1.253 . S
C65 O55 1.283 . S
C66 O58 1.304 . S
C66 O60 1.272 . S
C67 O59 1.311 . S
C67 O61 1.231 . S
O68 Zn50 1.953 . S
O68 C62 1.298 . S
O69 Zn70 1.953 . S
O69 C85 1.225 . S
Zn70 O69 1.953 . S
Zn70 O71 1.949 . S
Zn70 O77 1.919 . S
Zn70 O82 1.924 . S
O71 Zn70 1.949 . S
O71 Zn72 1.923 . S
O71 Zn73 1.950 . S
O71 Zn74 1.945 . S
Zn72 O71 1.923 . S
Zn72 O75 1.933 . S
Zn72 O78 1.941 . S
Zn72 O79 1.965 . S
Zn73 O71 1.950 . S
Zn73 O80 1.938 1_556 S
Zn73 O81 1.906 . S
Zn73 O91 1.953 1_556 S
Zn74 O71 1.945 . S
Zn74 O76 1.932 . S
Zn74 O83 1.977 . S
Zn74 O84 1.910 . S
O75 Zn72 1.933 . S
O75 C86 1.226 . S
O76 Zn74 1.932 . S
O76 C86 1.307 . S
O77 Zn70 1.919 . S
O77 C88 1.253 . S
O78 Zn72 1.941 . S
O78 C88 1.283 . S
O79 Zn72 1.965 . S
O79 C87 1.303 1_556 S
O80 Zn73 1.938 1_554 S
O80 C87 1.247 . S
O81 Zn73 1.906 . S
O81 C89 1.304 . S
O82 Zn70 1.924 . S
O82 C90 1.311 1_545 S
O83 Zn74 1.977 . S
O83 C89 1.272 . S
O84 Zn74 1.910 . S
O84 C90 1.231 1_545 S
C85 O69 1.225 . S
C85 O91 1.298 1_556 S
C86 O75 1.226 . S
C86 O76 1.307 . S
C87 O79 1.303 1_554 S
C87 O80 1.247 . S
C88 O77 1.253 . S
C88 O78 1.283 . S
C89 O81 1.304 . S
C89 O83 1.272 . S
C90 O82 1.311 1_565 S
C90 O84 1.231 1_565 S
O91 Zn73 1.953 1_554 S
O91 C85 1.298 1_554 S
C92 C93 1.363 . S
C92 C98 1.379 1_655 S
C92 N100 1.356 . S
C93 C92 1.363 . S
C93 C99 1.363 . S
C94 C95 1.363 1_655 S
C94 C99 1.379 . S
C94 N101 1.356 . S
C95 C94 1.363 1_455 S
C95 C98 1.363 . S
N96 C98 1.356 . S
N96 H108 0.984 . S
N96 H109 0.985 . S
N97 C99 1.356 . S
N97 H102 0.984 . S
N97 H103 0.985 . S
C98 C92 1.379 1_455 S
C98 C95 1.363 . S
C98 N96 1.356 . S
C99 C93 1.363 . S
C99 C94 1.379 . S
C99 N97 1.356 . S
N100 C92 1.356 . S
N100 H106 0.984 1_655 S
N100 H107 0.984 . S
N101 C94 1.356 . S
N101 H104 0.984 . S
N101 H105 0.985 . S
H102 N97 0.984 . S
H103 N97 0.985 . S
H104 N101 0.984 . S
H105 N101 0.985 . S
H106 N100 0.984 1_455 S
H107 N100 0.984 . S
H108 N96 0.984 . S
H109 N96 0.985 . S
C110 C111 1.363 . S
C110 C116 1.379 . S
C110 N118 1.356 . S
C111 C110 1.363 . S
C111 C117 1.363 . S
C112 C113 1.363 . S
C112 C117 1.379 1_655 S
C112 N119 1.356 . S
C113 C112 1.363 . S
C113 C116 1.363 1_655 S
N114 C116 1.356 . S
N114 H126 0.984 . S
N114 H127 0.985 . S
N115 C117 1.356 . S
N115 H120 0.984 . S
N115 H121 0.985 1_455 S
C116 C110 1.379 . S
C116 C113 1.363 1_455 S
C116 N114 1.356 . S
C117 C111 1.363 . S
C117 C112 1.379 1_455 S
C117 N115 1.356 . S
N118 C110 1.356 . S
N118 H124 0.984 . S
N118 H125 0.984 . S
N119 C112 1.356 . S
N119 H122 0.984 . S
N119 H123 0.985 . S
H120 N115 0.984 . S
H121 N115 0.985 1_655 S
H122 N119 0.984 . S
H123 N119 0.985 . S
H124 N118 0.984 . S
H125 N118 0.984 . S
H126 N114 0.984 . S
H127 N114 0.985 . S
C128 C129 1.363 . S
C128 C134 1.379 1_455 S
C128 N136 1.356 . S
C129 C128 1.363 . S
C129 C135 1.363 . S
C130 C131 1.363 1_455 S
C130 C135 1.379 . S
C130 N137 1.356 . S
C131 C130 1.363 1_655 S
C131 C134 1.363 . S
N132 C134 1.356 . S
N132 H144 0.984 . S
N132 H145 0.985 . S
N133 C135 1.356 . S
N133 H138 0.984 . S
N133 H139 0.985 . S
C134 C128 1.379 1_655 S
C134 C131 1.363 . S
C134 N132 1.356 . S
C135 C129 1.363 . S
C135 C130 1.379 . S
C135 N133 1.356 . S
N136 C128 1.356 . S
N136 H142 0.984 1_455 S
N136 H143 0.984 . S
N137 C130 1.356 . S
N137 H140 0.984 . S
N137 H141 0.985 . S
H138 N133 0.984 . S
H139 N133 0.985 . S
H140 N137 0.984 . S
H141 N137 0.985 . S
H142 N136 0.984 1_655 S
H143 N136 0.984 . S
H144 N132 0.984 . S
H145 N132 0.985 . S
C146 C147 1.363 . S
C146 C152 1.379 1_655 S
C146 N154 1.356 1_655 S
C147 C146 1.363 . S
C147 C153 1.363 . S
C148 C149 1.363 1_655 S
C148 C153 1.379 . S
C148 N155 1.356 . S
C149 C148 1.363 1_455 S
C149 C152 1.363 . S
N150 C152 1.356 . S
N150 H162 0.984 . S
N150 H163 0.985 . S
N151 C153 1.356 . S
N151 H156 0.984 . S
N151 H157 0.985 . S
C152 C146 1.379 1_455 S
C152 C149 1.363 . S
C152 N150 1.356 . S
C153 C147 1.363 . S
C153 C148 1.379 . S
C153 N151 1.356 . S
N154 C146 1.356 1_455 S
N154 H160 0.984 . S
N154 H161 0.984 1_455 S
N155 C148 1.356 . S
N155 H158 0.984 . S
N155 H159 0.985 . S
H156 N151 0.984 . S
H157 N151 0.985 . S
H158 N155 0.984 . S
H159 N155 0.985 . S
H160 N154 0.984 . S
H161 N154 0.984 1_655 S
H162 N150 0.984 . S
H163 N150 0.985 . S
C164 C165 1.363 . S
C164 C170 1.379 1_655 S
C164 N172 1.356 . S
C165 C164 1.363 . S
C165 C171 1.363 . S
C166 C167 1.363 . S
C166 C171 1.379 1_455 S
C166 N173 1.356 . S
C167 C166 1.363 . S
C167 C170 1.363 . S
N168 C170 1.356 . S
N168 H180 0.984 . S
N168 H181 0.985 . S
N169 C171 1.356 . S
N169 H174 0.984 . S
N169 H175 0.985 . S
C170 C164 1.379 1_455 S
C170 C167 1.363 . S
C170 N168 1.356 . S
C171 C165 1.363 . S
C171 C166 1.379 1_655 S
C171 N169 1.356 . S
N172 C164 1.356 . S
N172 H178 0.984 . S
N172 H179 0.984 . S
N173 C166 1.356 . S
N173 H176 0.984 . S
N173 H177 0.985 . S
H174 N169 0.984 . S
H175 N169 0.985 . S
H176 N173 0.984 . S
H177 N173 0.985 . S
H178 N172 0.984 . S
H179 N172 0.984 . S
H180 N168 0.984 . S
H181 N168 0.985 . S
C182 C183 1.363 1_554 S
C182 C188 1.379 1_655 S
C182 N190 1.356 . S
C183 C182 1.363 1_556 S
C183 C189 1.363 1_565 S
C184 C185 1.363 1_556 S
C184 C189 1.379 1_455 S
C184 N191 1.356 . S
C185 C184 1.363 1_554 S
C185 C188 1.363 1_545 S
N186 C188 1.356 . S
N186 H198 0.984 . S
N186 H199 0.985 . S
N187 C189 1.356 . S
N187 H192 0.984 . S
N187 H193 0.985 . S
C188 C182 1.379 1_455 S
C188 C185 1.363 1_565 S
C188 N186 1.356 . S
C189 C183 1.363 1_545 S
C189 C184 1.379 1_655 S
C189 N187 1.356 . S
N190 C182 1.356 . S
N190 H196 0.984 . S
N190 H197 0.984 . S
N191 C184 1.356 . S
N191 H194 0.984 . S
N191 H195 0.985 . S
H192 N187 0.984 . S
H193 N187 0.985 . S
H194 N191 0.984 . S
H195 N191 0.985 . S
H196 N190 0.984 . S
H197 N190 0.984 . S
H198 N186 0.984 . S
H199 N186 0.985 . S
C200 C201 1.363 . S
C200 C206 1.379 . S
C200 N208 1.356 . S
C201 C200 1.363 . S
C201 C207 1.363 . S
C202 C203 1.363 . S
C202 C207 1.379 . S
C202 N209 1.356 . S
C203 C202 1.363 . S
C203 C206 1.363 . S
N204 C206 1.356 . S
N204 H216 0.984 . S
N204 H217 0.985 . S
N205 C207 1.356 . S
N205 H210 0.984 . S
N205 H211 0.985 . S
C206 C200 1.379 . S
C206 C203 1.363 . S
C206 N204 1.356 . S
C207 C201 1.363 . S
C207 C202 1.379 . S
C207 N205 1.356 . S
N208 C200 1.356 . S
N208 H214 0.984 . S
N208 H215 0.984 . S
N209 C202 1.356 . S
N209 H212 0.984 . S
N209 H213 0.985 . S
H210 N205 0.984 . S
H211 N205 0.985 . S
H212 N209 0.984 . S
H213 N209 0.985 . S
H214 N208 0.984 . S
H215 N208 0.984 . S
H216 N204 0.984 . S
H217 N204 0.985 . S
C218 C219 1.363 . S
C218 C224 1.379 . S
C218 N226 1.356 . S
C219 C218 1.363 . S
C219 C225 1.363 . S
C220 C221 1.363 . S
C220 C225 1.379 . S
C220 N227 1.356 . S
C221 C220 1.363 . S
C221 C224 1.363 . S
N222 C224 1.356 . S
N222 H234 0.984 . S
N222 H235 0.985 . S
N223 C225 1.356 . S
N223 H228 0.984 . S
N223 H229 0.985 . S
C224 C218 1.379 . S
C224 C221 1.363 . S
C224 N222 1.356 . S
C225 C219 1.363 . S
C225 C220 1.379 . S
C225 N223 1.356 . S
N226 C218 1.356 . S
N226 H232 0.984 . S
N226 H233 0.984 . S
N227 C220 1.356 . S
N227 H230 0.984 . S
N227 H231 0.985 . S
H228 N223 0.984 . S
H229 N223 0.985 . S
H230 N227 0.984 . S
H231 N227 0.985 . S
H232 N226 0.984 . S
H233 N226 0.984 . S
H234 N222 0.984 . S
H235 N222 0.985 . S
C236 C237 1.363 . S
C236 C242 1.379 . S
C236 N244 1.356 . S
C237 C236 1.363 . S
C237 C243 1.363 . S
C238 C239 1.363 . S
C238 C243 1.379 . S
C238 N245 1.356 . S
C239 C238 1.363 . S
C239 C242 1.363 . S
N240 C242 1.356 . S
N240 H252 0.984 . S
N240 H253 0.985 . S
N241 C243 1.356 . S
N241 H246 0.984 . S
N241 H247 0.985 . S
C242 C236 1.379 . S
C242 C239 1.363 . S
C242 N240 1.356 . S
C243 C237 1.363 . S
C243 C238 1.379 . S
C243 N241 1.356 . S
N244 C236 1.356 . S
N244 H250 0.984 . S
N244 H251 0.984 . S
N245 C238 1.356 . S
N245 H248 0.984 . S
N245 H249 0.985 . S
H246 N241 0.984 . S
H247 N241 0.985 . S
H248 N245 0.984 . S
H249 N245 0.985 . S
H250 N244 0.984 . S
H251 N244 0.984 . S
H252 N240 0.984 . S
H253 N240 0.985 . S
C254 C255 1.363 . S
C254 C260 1.379 . S
C254 N262 1.356 . S
C255 C254 1.363 . S
C255 C261 1.363 . S
C256 C257 1.363 . S
C256 C261 1.379 . S
C256 N263 1.356 . S
C257 C256 1.363 . S
C257 C260 1.363 . S
N258 C260 1.356 . S
N258 H270 0.984 . S
N258 H271 0.985 . S
N259 C261 1.356 . S
N259 H264 0.984 . S
N259 H265 0.985 . S
C260 C254 1.379 . S
C260 C257 1.363 . S
C260 N258 1.356 . S
C261 C255 1.363 . S
C261 C256 1.379 . S
C261 N259 1.356 . S
N262 C254 1.356 . S
N262 H268 0.984 . S
N262 H269 0.984 . S
N263 C256 1.356 . S
N263 H266 0.984 . S
N263 H267 0.985 . S
H264 N259 0.984 . S
H265 N259 0.985 . S
H266 N263 0.984 . S
H267 N263 0.985 . S
H268 N262 0.984 . S
H269 N262 0.984 . S
H270 N258 0.984 . S
H271 N258 0.985 . S
C272 C273 1.363 . S
C272 C278 1.379 . S
C272 N280 1.356 . S
C273 C272 1.363 . S
C273 C279 1.363 . S
C274 C275 1.363 . S
C274 C279 1.379 . S
C274 N281 1.356 . S
C275 C274 1.363 . S
C275 C278 1.363 . S
N276 C278 1.356 . S
N276 H288 0.984 . S
N276 H289 0.985 . S
N277 C279 1.356 . S
N277 H282 0.984 . S
N277 H283 0.985 . S
C278 C272 1.379 . S
C278 C275 1.363 . S
C278 N276 1.356 . S
C279 C273 1.363 . S
C279 C274 1.379 . S
C279 N277 1.356 . S
N280 C272 1.356 . S
N280 H286 0.984 . S
N280 H287 0.984 . S
N281 C274 1.356 . S
N281 H284 0.984 . S
N281 H285 0.985 . S
H282 N277 0.984 . S
H283 N277 0.985 . S
H284 N281 0.984 . S
H285 N281 0.985 . S
H286 N280 0.984 . S
H287 N280 0.984 . S
H288 N276 0.984 . S
H289 N276 0.985 . S
C290 C291 1.363 1_554 S
C290 C296 1.379 . S
C290 N298 1.356 . S
C291 C290 1.363 1_556 S
C291 C297 1.363 1_545 S
C292 C293 1.363 1_556 S
C292 C297 1.379 . S
C292 N299 1.356 . S
C293 C292 1.363 1_554 S
C293 C296 1.363 1_565 S
N294 C296 1.356 . S
N294 H306 0.984 . S
N294 H307 0.985 1_545 S
N295 C297 1.356 . S
N295 H300 0.985 1_565 S
N295 H301 0.984 . S
C296 C290 1.379 . S
C296 C293 1.363 1_545 S
C296 N294 1.356 . S
C297 C291 1.363 1_565 S
C297 C292 1.379 . S
C297 N295 1.356 . S
N298 C290 1.356 . S
N298 H304 0.984 . S
N298 H305 0.984 . S
N299 C292 1.356 . S
N299 H302 0.984 . S
N299 H303 0.985 . S
H300 N295 0.985 1_545 S
H301 N295 0.984 . S
H302 N299 0.984 . S
H303 N299 0.985 . S
H304 N298 0.984 . S
H305 N298 0.984 . S
H306 N294 0.984 . S
H307 N294 0.985 1_565 S
C93 C44 1.705 . S
C95 C19 1.634 . S
C111 C21 1.705 . S
C113 C42 1.634 . S
C129 C90 1.705 . S
C131 C65 1.634 . S
C147 C67 1.705 . S
C149 C88 1.634 . S
C165 C62 1.101 . S
C167 C16 1.101 . S
C183 C39 1.101 1_556 S
C185 C85 1.101 1_554 S
C201 C87 1.667 . S
C203 C17 1.655 . S
C219 C40 1.655 . S
C221 C64 1.667 . S
C237 C41 1.667 . S
C239 C63 1.655 . S
C255 C86 1.655 . S
C257 C18 1.667 . S
C273 C20 1.402 . S
C275 C66 1.402 . S
C291 C89 1.402 . S
C293 C43 1.402 . S
