# Generated by pormake.
# Topology uoc, (4)-cn, num edge types: 1
# Building blocks:
#     Node 0, Type 0, BuildingBlock: NAHDIM_clean_sbu_0, # of connection points: 4
#     Node 1, Type 0, BuildingBlock: NAHDIM_clean_sbu_0, # of connection points: 4
#     Node 2, Type 0, BuildingBlock: NAHDIM_clean_sbu_0, # of connection points: 4
#     Node 3, Type 0, BuildingBlock: NAHDIM_clean_sbu_0, # of connection points: 4
#     Node 4, Type 0, BuildingBlock: NAHDIM_clean_sbu_0, # of connection points: 4
#     Node 5, Type 0, BuildingBlock: NAHDIM_clean_sbu_0, # of connection points: 4
#     Node 6, Type 0, BuildingBlock: NAHDIM_clean_sbu_0, # of connection points: 4
#     Node 7, Type 0, BuildingBlock: NAHDIM_clean_sbu_0, # of connection points: 4
#     Edge 8, Type (0, 0), BuildingBlock: UVAHIK_clean_linker_0, # of connection points: 2
#     Edge 9, Type (0, 0), BuildingBlock: UVAHIK_clean_linker_0, # of connection points: 2
#     Edge 10, Type (0, 0), BuildingBlock: UVAHIK_clean_linker_0, # of connection points: 2
#     Edge 11, Type (0, 0), BuildingBlock: UVAHIK_clean_linker_0, # of connection points: 2
#     Edge 12, Type (0, 0), BuildingBlock: UVAHIK_clean_linker_0, # of connection points: 2
#     Edge 13, Type (0, 0), BuildingBlock: UVAHIK_clean_linker_0, # of connection points: 2
#     Edge 14, Type (0, 0), BuildingBlock: UVAHIK_clean_linker_0, # of connection points: 2
#     Edge 15, Type (0, 0), BuildingBlock: UVAHIK_clean_linker_0, # of connection points: 2
#     Edge 16, Type (0, 0), BuildingBlock: UVAHIK_clean_linker_0, # of connection points: 2
#     Edge 17, Type (0, 0), BuildingBlock: UVAHIK_clean_linker_0, # of connection points: 2
#     Edge 18, Type (0, 0), BuildingBlock: UVAHIK_clean_linker_0, # of connection points: 2
#     Edge 19, Type (0, 0), BuildingBlock: UVAHIK_clean_linker_0, # of connection points: 2
#     Edge 20, Type (0, 0), BuildingBlock: UVAHIK_clean_linker_0, # of connection points: 2
#     Edge 21, Type (0, 0), BuildingBlock: UVAHIK_clean_linker_0, # of connection points: 2
#     Edge 22, Type (0, 0), BuildingBlock: UVAHIK_clean_linker_0, # of connection points: 2
#     Edge 23, Type (0, 0), BuildingBlock: UVAHIK_clean_linker_0, # of connection points: 2
# Relax obj value: 0.203
# Max RMSD: 0.200
# Mean RMSD: 0.200
data_MOF--net-uoc--node1-NAHDIM_clean_sbu_0--edge1-UVAHIK_clean_linker_0
_symmetry_space_group_name_H-M    P1
_symmetry_Int_Tables_number       1
_symmetry_cell_setting            triclinic
loop_
_symmetry_equiv_pos_as_xyz
'x, y, z'
_cell_length_a     34.601152
_cell_length_b     34.591206
_cell_length_c     67.953016
_cell_angle_alpha  90.070383
_cell_angle_beta   89.934583
_cell_angle_gamma 94.084775
loop_
_atom_site_label
_atom_site_type_symbol
_atom_site_fract_x
_atom_site_fract_y
_atom_site_fract_z
_atom_type_partial_charge
C0 C 0.08343 0.33067 0.10132 0.0
O1 O 0.08699 0.3129 0.08438 0.0
O2 O 0.1704 0.27751 0.09425 0.0
Zn3 Zn 0.13057 0.27084 0.1156 0.0
O4 O 0.15805 0.26725 0.14147 0.0
C5 C 0.10962 0.19317 0.10249 0.0
O6 O 0.14642 0.19487 0.09755 0.0
O7 O 0.0991 0.3174 0.11655 0.0
C8 C 0.16718 0.23585 0.14932 0.0
O9 O 0.15819 0.20273 0.14042 0.0
C10 C 0.18647 0.3101 0.08909 0.0
O11 O 0.17694 0.34182 0.09796 0.0
O12 O 0.09591 0.22253 0.11047 0.0
C13 C 0.81138 0.58754 0.38054 0.0
O14 O 0.79442 0.59299 0.39753 0.0
O15 O 0.75817 0.67449 0.38609 0.0
Zn16 Zn 0.75076 0.63283 0.36565 0.0
O17 O 0.74457 0.65614 0.33897 0.0
C18 C 0.67047 0.61486 0.37131 0.0
O19 O 0.67042 0.65178 0.3668 0.0
O20 O 0.79728 0.60135 0.36503 0.0
C21 C 0.739 0.69155 0.33592 0.0
O22 O 0.7371 0.71532 0.35093 0.0
C23 C 0.7908 0.69206 0.38995 0.0
O24 O 0.82167 0.68321 0.38011 0.0
O25 O 0.70259 0.59924 0.37197 0.0
C26 C 0.39886 0.15941 0.61876 0.0
O27 O 0.38481 0.1653 0.63639 0.0
O28 O 0.3165 0.22637 0.59188 0.0
Zn29 Zn 0.36261 0.23023 0.60967 0.0
O30 O 0.34514 0.2319 0.63778 0.0
C31 C 0.38068 0.30952 0.59803 0.0
O32 O 0.34287 0.30905 0.59615 0.0
O33 O 0.39339 0.18357 0.60513 0.0
C34 C 0.32235 0.2559 0.64454 0.0
O35 O 0.30853 0.28155 0.63272 0.0
C36 C 0.29812 0.19418 0.58793 0.0
O37 O 0.3089 0.16233 0.59615 0.0
O38 O 0.39586 0.27889 0.60348 0.0
C39 C 0.68695 0.89811 0.84985 0.0
O40 O 0.68359 0.86669 0.83892 0.0
O41 O 0.75691 0.83287 0.88022 0.0
Zn42 Zn 0.76182 0.87043 0.8577 0.0
O43 O 0.76014 0.8422 0.83192 0.0
C44 C 0.82797 0.91489 0.87491 0.0
O45 O 0.808 0.91109 0.89134 0.0
O46 O 0.7184 0.90628 0.8591 0.0
C47 C 0.76206 0.80585 0.82994 0.0
O48 O 0.76458 0.784 0.84562 0.0
C49 C 0.72473 0.81556 0.88519 0.0
O50 O 0.69335 0.82184 0.87519 0.0
O51 O 0.81351 0.90058 0.85911 0.0
C52 C 0.59354 0.81081 0.5858 0.0
O53 O 0.60247 0.79869 0.56815 0.0
O54 O 0.67546 0.7533 0.57758 0.0
Zn55 Zn 0.63633 0.74637 0.59924 0.0
O56 O 0.66467 0.7426 0.62486 0.0
C57 C 0.61565 0.66825 0.58698 0.0
O58 O 0.65259 0.66978 0.58231 0.0
O59 O 0.6045 0.79265 0.60081 0.0
C60 C 0.66822 0.7115 0.63443 0.0
O61 O 0.65259 0.67852 0.62755 0.0
C62 C 0.69527 0.78497 0.57422 0.0
O63 O 0.6901 0.81545 0.58521 0.0
O64 O 0.60171 0.69801 0.5944 0.0
C65 C 0.3588 0.12523 0.87992 0.0
O66 O 0.36448 0.1617 0.88527 0.0
O67 O 0.28991 0.17837 0.90416 0.0
Zn68 Zn 0.28096 0.14639 0.87974 0.0
O69 O 0.28104 0.18054 0.85589 0.0
C70 C 0.21682 0.0933 0.86829 0.0
O71 O 0.23751 0.09068 0.85218 0.0
O72 O 0.32441 0.11121 0.87674 0.0
C73 C 0.25071 0.19106 0.8475 0.0
O74 O 0.21647 0.18008 0.85474 0.0
C75 C 0.29661 0.21498 0.90433 0.0
O76 O 0.29755 0.23424 0.88767 0.0
O77 O 0.2299 0.11507 0.88219 0.0
C78 C 0.90231 0.69188 0.11553 0.0
O79 O 0.89751 0.70778 0.13285 0.0
O80 O 0.81681 0.74945 0.08058 0.0
Zn81 Zn 0.85558 0.75287 0.10244 0.0
O82 O 0.82748 0.75118 0.12836 0.0
C83 C 0.87589 0.83267 0.093 0.0
O84 O 0.83938 0.83116 0.08755 0.0
O85 O 0.88771 0.70681 0.10043 0.0
C86 C 0.81788 0.78112 0.1375 0.0
O87 O 0.82627 0.81555 0.12988 0.0
C88 C 0.80107 0.71715 0.07476 0.0
O89 O 0.80975 0.6851 0.08356 0.0
O90 O 0.8897 0.80236 0.09983 0.0
C91 C 0.17152 0.40448 0.36769 0.0
O92 O 0.18822 0.40065 0.35049 0.0
O93 O 0.2293 0.31807 0.40211 0.0
Zn94 Zn 0.23208 0.35745 0.38055 0.0
O95 O 0.23036 0.3296 0.35465 0.0
C96 C 0.31158 0.38096 0.39049 0.0
O97 O 0.31094 0.34579 0.39782 0.0
O98 O 0.18574 0.38904 0.38274 0.0
C99 C 0.26005 0.3165 0.34674 0.0
O100 O 0.29365 0.32108 0.35572 0.0
C101 C 0.1972 0.30014 0.40665 0.0
O102 O 0.16572 0.30763 0.39699 0.0
O103 O 0.28111 0.39233 0.38258 0.0
C104 C 0.22987 0.2783 0.06579 0.0
C105 C 0.21363 0.31208 0.07232 0.0
C106 C 0.25232 0.27881 0.04875 0.0
C107 C 0.25823 0.32635 0.00166 0.0
H108 H 0.34353 0.26093 -0.00587 0.0
C109 C 0.30069 0.27607 0.9244 0.0
C110 C 0.30151 0.23555 0.92331 0.0
C111 C 0.30168 0.29478 0.94268 0.0
C112 C 0.31995 0.27959 -0.004 0.0
H113 H 0.20961 0.37337 0.06669 0.0
H114 H 0.24849 0.37405 0.03651 0.0
H115 H 0.32408 0.27785 0.02741 0.0
H116 H 0.30628 0.18315 0.9404 0.0
H117 H 0.30762 0.21552 0.97208 0.0
H118 H 0.25234 0.32602 0.97035 0.0
C119 C 0.24387 0.34727 0.04471 0.0
C120 C 0.30889 0.28931 0.01503 0.0
C121 C 0.22172 0.34687 0.06196 0.0
C122 C 0.3053 0.21438 0.94073 0.0
C123 C 0.30653 0.23303 0.95892 0.0
C124 C 0.26922 0.31653 0.98262 0.0
C125 C 0.25875 0.31304 0.03776 0.0
C126 C 0.27676 0.31125 0.01804 0.0
C127 C 0.30389 0.27331 0.96014 0.0
C128 C 0.29898 0.29152 0.97966 0.0
H129 H 0.22436 0.25111 0.07354 0.0
H130 H 0.26291 0.25183 0.04363 0.0
H131 H 0.23321 0.34313 0.00354 0.0
H132 H 0.29798 0.29319 0.9112 0.0
H133 H 0.2998 0.32589 0.94318 0.0
C134 C 0.7346 0.6795 0.29977 0.0
C135 C 0.73611 0.70583 0.31554 0.0
C136 C 0.73424 0.69273 0.28042 0.0
C137 C 0.76685 0.77634 0.25075 0.0
H138 H 0.7097 0.71923 0.20967 0.0
C139 C 0.79294 0.81 0.16846 0.0
C140 C 0.79915 0.77713 0.15701 0.0
C141 C 0.77758 0.8059 0.18743 0.0
C142 C 0.72578 0.73551 0.22099 0.0
H143 H 0.73715 0.7667 0.32343 0.0
H144 H 0.73668 0.78989 0.28944 0.0
H145 H 0.69584 0.70392 0.24413 0.0
H146 H 0.79285 0.71427 0.1562 0.0
H147 H 0.76637 0.70717 0.18925 0.0
H148 H 0.79779 0.80693 0.22762 0.0
C149 C 0.73597 0.75899 0.29214 0.0
C150 C 0.71785 0.72677 0.24069 0.0
C151 C 0.73613 0.7457 0.31157 0.0
C152 C 0.78852 0.74018 0.16465 0.0
C153 C 0.77302 0.73611 0.18354 0.0
C154 C 0.77477 0.7851 0.23104 0.0
C155 C 0.73547 0.73261 0.27637 0.0
C156 C 0.73916 0.74625 0.25575 0.0
C157 C 0.76788 0.76888 0.19524 0.0
C158 C 0.75514 0.76393 0.21596 0.0
H159 H 0.73441 0.64858 0.30232 0.0
H160 H 0.73443 0.67169 0.2686 0.0
H161 H 0.784 0.79162 0.26202 0.0
H162 H 0.80071 0.83888 0.16295 0.0
H163 H 0.77366 0.83166 0.19608 0.0
C164 C 0.25725 0.15708 0.56292 0.0
C165 C 0.26863 0.19238 0.57222 0.0
C166 C 0.23475 0.15663 0.54582 0.0
C167 C 0.17857 0.21842 0.51309 0.0
H168 H 0.23372 0.16948 0.47123 0.0
C169 C 0.2293 0.26123 0.4319 0.0
C170 C 0.1951 0.27334 0.42356 0.0
C171 C 0.22793 0.23917 0.44906 0.0
C172 C 0.21761 0.18285 0.48276 0.0
H173 H 0.26247 0.25435 0.57204 0.0
H174 H 0.22363 0.25362 0.54233 0.0
H175 H 0.24707 0.15379 0.50535 0.0
H176 H 0.13243 0.2702 0.42606 0.0
H177 H 0.13015 0.23193 0.45636 0.0
H178 H 0.15145 0.24984 0.49049 0.0
C179 C 0.23185 0.22624 0.54813 0.0
C180 C 0.22494 0.17359 0.50232 0.0
C181 C 0.2545 0.22673 0.56508 0.0
C182 C 0.1593 0.26141 0.43221 0.0
C183 C 0.15796 0.23958 0.44955 0.0
C184 C 0.17121 0.22767 0.49352 0.0
C185 C 0.22295 0.19141 0.5379 0.0
C186 C 0.20699 0.19281 0.5177 0.0
C187 C 0.19235 0.22891 0.45834 0.0
C188 C 0.19219 0.21146 0.47823 0.0
H189 H 0.2675 0.13009 0.56817 0.0
H190 H 0.22803 0.12933 0.53832 0.0
H191 H 0.16389 0.23325 0.52466 0.0
H192 H 0.25731 0.26973 0.4255 0.0
H193 H 0.255 0.23192 0.45562 0.0
C194 C 0.75636 0.74833 0.80734 0.0
C195 C 0.76145 0.78867 0.81004 0.0
C196 C 0.75426 0.7326 0.78835 0.0
C197 C 0.77673 0.75559 0.73631 0.0
H198 H 0.68588 0.6873 0.72465 0.0
C199 C 0.70567 0.74828 0.66062 0.0
C200 C 0.68803 0.71305 0.65369 0.0
C201 C 0.72199 0.7507 0.67935 0.0
C202 C 0.71191 0.7056 0.72769 0.0
H203 H 0.76948 0.84404 0.79504 0.0
H204 H 0.76583 0.81668 0.76211 0.0
H205 H 0.70159 0.70376 0.75875 0.0
H206 H 0.67505 0.65231 0.66068 0.0
H207 H 0.70369 0.65663 0.69355 0.0
H208 H 0.7863 0.7586 0.70523 0.0
C209 C 0.76369 0.79715 0.77458 0.0
C210 C 0.72087 0.71504 0.74722 0.0
C211 C 0.7654 0.81285 0.79347 0.0
C212 C 0.68825 0.67994 0.66565 0.0
C213 C 0.70453 0.6824 0.68448 0.0
C214 C 0.76787 0.74607 0.71681 0.0
C215 C 0.75774 0.75694 0.77181 0.0
C216 C 0.75255 0.74124 0.75165 0.0
C217 C 0.72108 0.71797 0.69161 0.0
C218 C 0.73456 0.72213 0.71225 0.0
H219 H 0.75327 0.72897 0.81984 0.0
H220 H 0.74972 0.70148 0.7866 0.0
H221 H 0.80175 0.77533 0.73937 0.0
H222 H 0.70611 0.77432 0.65176 0.0
H223 H 0.73396 0.77868 0.68451 0.0
C224 C 0.22027 0.28945 0.31866 0.0
C225 C 0.25687 0.29792 0.32718 0.0
C226 C 0.21706 0.27421 0.29969 0.0
C227 C 0.26953 0.27459 0.2534 0.0
H228 H 0.18565 0.20021 0.23821 0.0
C229 C 0.19912 0.27239 0.1773 0.0
C230 C 0.18637 0.23676 0.16873 0.0
C231 C 0.215 0.2737 0.19615 0.0
C232 C 0.20967 0.22048 0.24221 0.0
H233 H 0.31881 0.29591 0.32274 0.0
H234 H 0.31311 0.26948 0.28939 0.0
H235 H 0.19953 0.21161 0.273 0.0
H236 H 0.18157 0.17442 0.17294 0.0
H237 H 0.20917 0.17683 0.20606 0.0
H238 H 0.27892 0.2843 0.2226 0.0
C239 C 0.28698 0.27477 0.29745 0.0
C240 C 0.21737 0.22726 0.26212 0.0
C241 C 0.2902 0.28978 0.31654 0.0
C242 C 0.19097 0.20234 0.17918 0.0
C243 C 0.20667 0.20369 0.19814 0.0
C244 C 0.26175 0.26791 0.23349 0.0
C245 C 0.25037 0.26727 0.28877 0.0
C246 C 0.24657 0.25525 0.2679 0.0
C247 C 0.21836 0.23944 0.20689 0.0
C248 C 0.23097 0.24167 0.22771 0.0
H249 H 0.19403 0.29525 0.3265 0.0
H250 H 0.18847 0.26926 0.2933 0.0
H251 H 0.29212 0.29646 0.25742 0.0
H252 H 0.19616 0.29942 0.1696 0.0
H253 H 0.22324 0.30173 0.2026 0.0
C254 C 0.73316 0.75368 0.54825 0.0
C255 C 0.7219 0.78768 0.55723 0.0
C256 C 0.7549 0.75556 0.53098 0.0
C257 C 0.76597 0.81416 0.48729 0.0
H258 H 0.83714 0.73676 0.47351 0.0
C259 C 0.83015 0.72926 0.41555 0.0
C260 C 0.79413 0.71941 0.40664 0.0
C261 C 0.83214 0.75054 0.43309 0.0
C262 C 0.81811 0.75931 0.47708 0.0
H263 H 0.72619 0.85047 0.55573 0.0
H264 H 0.76386 0.8537 0.52514 0.0
H265 H 0.82367 0.74946 0.50801 0.0
H266 H 0.73246 0.72667 0.40817 0.0
H267 H 0.73585 0.76341 0.43864 0.0
H268 H 0.75887 0.82255 0.45633 0.0
C269 C 0.75586 0.82564 0.5316 0.0
C270 C 0.81013 0.7663 0.49686 0.0
C271 C 0.73438 0.82377 0.54908 0.0
C272 C 0.76059 0.73349 0.4148 0.0
C273 C 0.76262 0.75497 0.43217 0.0
C274 C 0.77394 0.80715 0.46751 0.0
C275 C 0.76565 0.79147 0.52218 0.0
C276 C 0.7824 0.79225 0.5021 0.0
C277 C 0.79822 0.76268 0.44185 0.0
C278 C 0.79847 0.77816 0.46221 0.0
H279 H 0.72423 0.72545 0.55427 0.0
H280 H 0.76143 0.72866 0.52395 0.0
H281 H 0.74447 0.83436 0.49086 0.0
H282 H 0.85652 0.71893 0.40953 0.0
H283 H 0.85999 0.75626 0.44018 0.0
C284 C 0.29195 0.28474 0.6742 0.0
C285 C 0.31251 0.2553 0.6657 0.0
C286 C 0.28413 0.28456 0.69441 0.0
C287 C 0.31846 0.24364 0.74089 0.0
H288 H 0.21819 0.26695 0.76149 0.0
C289 C 0.28941 0.23143 0.8232 0.0
C290 C 0.25429 0.21126 0.82844 0.0
C291 C 0.2951 0.24563 0.80414 0.0
C292 C 0.24634 0.26035 0.75595 0.0
H293 H 0.33995 0.20202 0.67161 0.0
H294 H 0.32574 0.20133 0.70657 0.0
H295 H 0.23083 0.27244 0.72617 0.0
H296 H 0.19672 0.19209 0.8183 0.0
H297 H 0.20706 0.21558 0.78477 0.0
H298 H 0.33352 0.22949 0.77025 0.0
C299 C 0.31647 0.2251 0.6978 0.0
C300 C 0.25369 0.26387 0.73576 0.0
C301 C 0.3244 0.22536 0.67771 0.0
C302 C 0.2241 0.20756 0.81463 0.0
C303 C 0.23 0.22123 0.79544 0.0
C304 C 0.31108 0.23991 0.76096 0.0
C305 C 0.29669 0.25491 0.70645 0.0
C306 C 0.2896 0.25474 0.72798 0.0
C307 C 0.26604 0.2393 0.7898 0.0
C308 C 0.27474 0.24761 0.76874 0.0
H309 H 0.28242 0.30823 0.66531 0.0
H310 H 0.26898 0.30802 0.70066 0.0
H311 H 0.34669 0.23711 0.73542 0.0
H312 H 0.31296 0.23523 0.83368 0.0
H313 H 0.32282 0.26038 0.80046 0.0
C314 C 0.7644 0.75004 0.04887 0.0
C315 C 0.77682 0.71565 0.05688 0.0
C316 C 0.74616 0.74975 0.03059 0.0
C317 C 0.74866 0.69791 0.98449 0.0
H318 H 0.674 0.77088 0.96941 0.0
C319 C 0.68641 0.77826 0.9111 0.0
C320 C 0.72245 0.79065 0.90284 0.0
C321 C 0.68457 0.75812 0.92895 0.0
C322 C 0.69424 0.74968 0.97333 0.0
H323 H 0.77763 0.65353 0.05264 0.0
H324 H 0.74595 0.65314 0.02047 0.0
H325 H 0.68253 0.75563 0.00408 0.0
H326 H 0.78473 0.78969 0.90615 0.0
H327 H 0.78155 0.75487 0.9372 0.0
H328 H 0.76158 0.69327 0.9538 0.0
C329 C 0.75053 0.6803 0.02837 0.0
C330 C 0.69935 0.74122 -0.0068 0.0
C331 C 0.76856 0.68055 0.04678 0.0
C332 C 0.75652 0.78077 0.9122 0.0
C333 C 0.75468 0.76044 0.92991 0.0
C334 C 0.74361 0.70643 0.96463 0.0
C335 C 0.74011 0.71509 0.01987 0.0
C336 C 0.72782 0.71659 -0.00098 0.0
C337 C 0.71874 0.74968 0.93871 0.0
C338 C 0.71759 0.73371 0.95894 0.0
H339 H 0.77008 0.77751 0.05637 0.0
H340 H 0.73893 0.77713 0.02437 0.0
H341 H 0.77093 0.67891 -0.0115 0.0
H342 H 0.65963 0.7853 0.90417 0.0
H343 H 0.65649 0.74998 0.93535 0.0
C344 C 0.04456 0.15658 0.10113 0.0
C345 C 0.08508 0.15679 0.09985 0.0
C346 C 0.0215 0.12195 0.09913 0.0
C347 C 0.02439 0.01959 0.08209 0.0
H348 H 0.93246 0.00413 0.11463 0.0
C349 C 0.94033 0.87055 0.09429 0.0
C350 C 0.89985 0.86976 0.09229 0.0
C351 C 0.96275 0.9058 0.09412 0.0
C352 C 0.95789 0.00821 0.10535 0.0
H353 H 0.13327 0.12089 0.09552 0.0
H354 H 0.09332 0.0604 0.09274 0.0
H355 H 0.97198 0.06517 0.11656 0.0
H356 H 0.85116 0.90526 0.0885 0.0
H357 H 0.89036 0.96683 0.08857 0.0
H358 H 0.01069 0.96186 0.07144 0.0
C359 C 0.07909 0.08702 0.09471 0.0
C360 C 0.98049 0.04326 0.10636 0.0
C361 C 0.10208 0.12172 0.09644 0.0
C362 C 0.88229 0.90489 0.09003 0.0
C363 C 0.90465 0.94014 0.09017 0.0
C364 C 0.00206 0.98433 0.08131 0.0
C365 C 0.03848 0.08662 0.09608 0.0
C366 C 0.01405 0.04946 0.09474 0.0
C367 C 0.94506 0.94092 0.09226 0.0
C368 C 0.9686 0.97835 0.09291 0.0
H369 H 0.0306 0.18322 0.10359 0.0
H370 H 0.99034 0.12297 0.09988 0.0
H371 H 0.04958 0.02349 0.07265 0.0
H372 H 0.95469 0.84394 0.09601 0.0
H373 H 0.99386 0.90567 0.09588 0.0
C374 C 0.11847 0.44023 0.35264 0.0
C375 C 0.13555 0.42495 0.36941 0.0
C376 C 0.08373 0.4583 0.35417 0.0
C377 C 0.99808 0.46379 0.3862 0.0
H378 H 0.9826 0.55658 0.3561 0.0
C379 C 0.86455 0.55347 0.39665 0.0
C380 C 0.8477 0.56749 0.37952 0.0
C381 C 0.89966 0.53587 0.39568 0.0
C382 C 0.98634 0.53045 0.36445 0.0
H383 H 0.12985 0.41718 0.401 0.0
H384 H 0.06953 0.44912 0.40368 0.0
H385 H 0.04434 0.527 0.354 0.0
H386 H 0.8542 0.5735 0.34786 0.0
H387 H 0.91513 0.54256 0.34618 0.0
H388 H 0.94002 0.46729 0.39664 0.0
C389 C 0.08268 0.44662 0.3893 0.0
C390 C 0.02171 0.51351 0.36324 0.0
C391 C 0.11739 0.42854 0.38777 0.0
C392 C 0.86645 0.56314 0.36137 0.0
C393 C 0.90152 0.54563 0.3604 0.0
C394 C 0.9627 0.48078 0.38742 0.0
C395 C 0.06533 0.46151 0.3725 0.0
C396 C 0.02795 0.47991 0.37405 0.0
C397 C 0.91866 0.53203 0.37755 0.0
C398 C 0.95639 0.51421 0.3765 0.0
H399 H 0.13164 0.43785 0.33827 0.0
H400 H 0.07089 0.46905 0.34091 0.0
H401 H 0.00175 0.43759 0.39449 0.0
H402 H 0.85089 0.55644 0.41087 0.0
H403 H 0.91231 0.52598 0.40918 0.0
C404 C 0.38824 0.38129 0.59297 0.0
C405 C 0.40513 0.34569 0.59457 0.0
C406 C 0.41137 0.41572 0.59049 0.0
C407 C 0.51225 0.45715 0.59739 0.0
H408 H 0.47699 0.54125 0.56594 0.0
C409 C 0.60867 0.59655 0.58152 0.0
C410 C 0.59145 0.63143 0.58523 0.0
C411 C 0.5862 0.56137 0.58115 0.0
C412 C 0.48709 0.51802 0.57483 0.0
H413 H 0.45947 0.3181 0.59426 0.0
H414 H 0.49978 0.37795 0.58934 0.0
H415 H 0.43762 0.47994 0.56779 0.0
H416 H 0.53699 0.65691 0.59085 0.0
H417 H 0.4977 0.59539 0.58997 0.0
H418 H 0.56193 0.49524 0.60422 0.0
C419 C 0.46872 0.37951 0.59053 0.0
C420 C 0.46451 0.48294 0.57596 0.0
C421 C 0.4456 0.34513 0.59324 0.0
C422 C 0.55113 0.63051 0.588 0.0
C423 C 0.5286 0.59535 0.5874 0.0
C424 C 0.53499 0.49205 0.59607 0.0
C425 C 0.45194 0.41531 0.58933 0.0
C426 C 0.47665 0.45215 0.5874 0.0
C427 C 0.54601 0.5604 0.58424 0.0
C428 C 0.5225 0.52292 0.5849 0.0
H429 H 0.35714 0.38272 0.59404 0.0
H430 H 0.39742 0.44274 0.58995 0.0
H431 H 0.52223 0.43444 0.60665 0.0
H432 H 0.63966 0.59626 0.57932 0.0
H433 H 0.60029 0.53486 0.5785 0.0
C434 C 0.65777 0.95751 0.86263 0.0
C435 C 0.65369 0.9223 0.85225 0.0
C436 C 0.62594 0.97962 0.86543 0.0
C437 C 0.5271 0.99311 0.84664 0.0
H438 H 0.51487 0.044 0.89692 0.0
C439 C 0.3871 0.06419 0.86868 0.0
C440 C 0.39213 0.10124 0.87722 0.0
C441 C 0.41888 0.04209 0.86569 0.0
C442 C 0.51807 0.03018 0.88276 0.0
H443 H 0.61298 0.88273 0.83664 0.0
H444 H 0.55741 0.92082 0.84186 0.0
H445 H 0.57075 0.00623 0.89139 0.0
H446 H 0.43437 0.14394 0.88953 0.0
H447 H 0.48972 0.10525 0.88439 0.0
H448 H 0.47404 0.01674 0.83816 0.0
C449 C 0.58531 0.9318 0.84752 0.0
C450 C 0.55015 0.00865 0.87954 0.0
C451 C 0.61718 0.90984 0.84461 0.0
C452 C 0.4295 0.11552 0.8829 0.0
C453 C 0.4612 0.09329 0.88006 0.0
C454 C 0.49488 0.01442 0.84991 0.0
C455 C 0.58925 0.96691 0.85803 0.0
C456 C 0.55513 0.98992 0.86142 0.0
C457 C 0.45625 0.05644 0.87134 0.0
C458 C 0.4901 0.03326 0.86798 0.0
H459 H 0.68556 0.96801 0.86863 0.0
H460 H 0.63018 0.00683 0.87331 0.0
H461 H 0.5303 0.97959 0.8324 0.0
H462 H 0.35866 0.05237 0.86414 0.0
H463 H 0.41417 0.01361 0.8591 0.0
C464 C 0.93766 0.63837 0.13043 0.0
C465 C 0.92266 0.65584 0.11371 0.0
C466 C 0.9555 0.60351 0.1288 0.0
C467 C 0.96037 0.5181 0.09659 0.0
H468 H 0.05334 0.50184 0.12637 0.0
C469 C 0.04871 0.3838 0.08555 0.0
C470 C 0.06342 0.367 0.10254 0.0
C471 C 0.03127 0.41899 0.08669 0.0
C472 C 0.02714 0.50576 0.11812 0.0
H473 H 0.91513 0.65066 0.08208 0.0
H474 H 0.94659 0.59008 0.07923 0.0
H475 H 0.02414 0.56375 0.12872 0.0
H476 H 0.0707 0.37363 0.13412 0.0
H477 H 0.03992 0.43462 0.13611 0.0
H478 H 0.96333 0.46005 0.08604 0.0
C479 C 0.94409 0.60306 0.09365 0.0
C480 C 0.01043 0.54125 0.11946 0.0
C481 C 0.92629 0.63793 0.09528 0.0
C482 C 0.05984 0.38586 0.12072 0.0
C483 C 0.04242 0.42097 0.12186 0.0
C484 C 0.97708 0.48258 0.09526 0.0
C485 C 0.9587 0.58534 0.11041 0.0
C486 C 0.9768 0.5478 0.10875 0.0
C487 C 0.02819 0.4381 0.10484 0.0
C488 C 0.01058 0.47596 0.10606 0.0
H489 H 0.93524 0.65134 0.14486 0.0
H490 H 0.96607 0.59038 0.14203 0.0
H491 H 0.93414 0.52203 0.08837 0.0
H492 H 0.0511 0.37007 0.07131 0.0
H493 H 0.02093 0.43161 0.07328 0.0
C494 C 0.34801 0.44486 0.38399 0.0
C495 C 0.3479 0.40626 0.39043 0.0
C496 C 0.38257 0.46827 0.38315 0.0
C497 C 0.48421 0.47615 0.40103 0.0
H498 H 0.50061 0.54387 0.35589 0.0
C499 C 0.63332 0.55282 0.38095 0.0
C500 C 0.63354 0.5917 0.37492 0.0
C501 C 0.59829 0.53081 0.38383 0.0
C502 C 0.4963 0.52542 0.36869 0.0
H503 H 0.38396 0.36211 0.40125 0.0
H504 H 0.44434 0.40268 0.3994 0.0
H505 H 0.43982 0.50442 0.35915 0.0
H506 H 0.59715 0.63809 0.36743 0.0
H507 H 0.53615 0.59965 0.37241 0.0
H508 H 0.54116 0.49683 0.41032 0.0
C509 C 0.41764 0.41512 0.39532 0.0
C510 C 0.46141 0.50285 0.3706 0.0
C511 C 0.38302 0.39177 0.39628 0.0
C512 C 0.59802 0.60819 0.37203 0.0
C513 C 0.56305 0.58613 0.37478 0.0
C514 C 0.51924 0.49858 0.39905 0.0
C515 C 0.41788 0.45357 0.38859 0.0
C516 C 0.4549 0.47795 0.38679 0.0
C517 C 0.5628 0.54716 0.3806 0.0
C518 C 0.52561 0.52347 0.38286 0.0
H519 H 0.32139 0.45701 0.37951 0.0
H520 H 0.38157 0.49795 0.37823 0.0
H521 H 0.47997 0.45771 0.41382 0.0
H522 H 0.6602 0.53928 0.38333 0.0
H523 H 0.599 0.50075 0.38816 0.0
C524 C 0.42737 0.09881 0.63006 0.0
C525 C 0.41998 0.12453 0.61475 0.0
C526 C 0.44679 0.06555 0.62631 0.0
C527 C 0.46994 0.99828 0.58677 0.0
H528 H 0.54866 0.96857 0.62324 0.0
C529 C 0.56468 0.86963 0.57214 0.0
C530 C 0.57255 0.84628 0.58836 0.0
C531 C 0.54623 0.90396 0.57479 0.0
C532 C 0.52644 0.9762 0.61302 0.0
H533 H 0.42721 0.1355 0.58348 0.0
H534 H 0.46128 0.07737 0.57697 0.0
H535 H 0.51657 0.028 0.62892 0.0
H536 H 0.56645 0.84019 0.62001 0.0
H537 H 0.53379 0.89951 0.62457 0.0
H538 H 0.47954 0.94623 0.57098 0.0
C539 C 0.45177 0.08287 0.59184 0.0
C540 C 0.50811 0.0103 0.61627 0.0
C541 C 0.43247 0.11627 0.5956 0.0
C542 C 0.56106 0.85764 0.60721 0.0
C543 C 0.54255 0.89182 0.60985 0.0
C544 C 0.48821 0.96405 0.58355 0.0
C545 C 0.45915 0.05717 0.60716 0.0
C546 C 0.47947 0.02159 0.60327 0.0
C547 C 0.53522 0.91559 0.59371 0.0
C548 C 0.51647 0.95247 0.59673 0.0
H549 H 0.41805 0.10423 0.64496 0.0
H550 H 0.4516 0.04605 0.63838 0.0
H551 H 0.44767 0.00602 0.57661 0.0
H552 H 0.57327 0.86175 0.55743 0.0
H553 H 0.54134 0.92179 0.56207 0.0
C554 C 0.88399 0.95064 0.89206 0.0
C555 C 0.86763 0.93403 0.87483 0.0
C556 C 0.92193 0.9676 0.89198 0.0
C557 C 0.01404 0.96644 0.86481 0.0
H558 H 0.03893 0.06546 0.89024 0.0
C559 C 0.16106 0.05309 0.85357 0.0
C560 C 0.17777 0.07308 0.86981 0.0
C561 C 0.12357 0.03533 0.85477 0.0
C562 C 0.0326 0.03753 0.8833 0.0
H563 H 0.87818 0.9226 0.84393 0.0
H564 H 0.94411 0.95221 0.84381 0.0
H565 H 0.97266 0.03631 0.89138 0.0
H566 H 0.16846 0.08951 0.90019 0.0
H567 H 0.10337 0.05795 0.90238 0.0
H568 H 0.07388 0.96747 0.85678 0.0
C569 C 0.9278 0.95178 0.85744 0.0
C570 C 0.99461 0.02088 0.88394 0.0
C571 C 0.88989 0.93503 0.85749 0.0
C572 C 0.15637 0.07448 0.88737 0.0
C573 C 0.11894 0.05659 0.88859 0.0
C574 C 0.05204 0.98298 0.86425 0.0
C575 C 0.94432 0.96807 0.87469 0.0
C576 C 0.98486 0.98529 0.87457 0.0
C577 C 0.10198 0.03701 0.87227 0.0
C578 C 0.06175 0.01886 0.87337 0.0
H579 H 0.86763 0.95032 0.90567 0.0
H580 H 0.93399 0.97969 0.90554 0.0
H581 H 0.00755 0.93866 0.85774 0.0
H582 H 0.17668 0.05162 0.8398 0.0
H583 H 0.11122 0.02096 0.84182 0.0
loop_
_geom_bond_atom_site_label_1
_geom_bond_atom_site_label_2
_geom_bond_distance
_geom_bond_site_symmetry_2
_ccdc_geom_bond_type
C0 O1 1.160 . S
C0 O7 1.185 . S
O1 C0 1.160 . S
O2 Zn3 1.899 . S
O2 C10 1.284 . S
Zn3 O2 1.899 . S
Zn3 O4 2.032 . S
Zn3 O7 2.086 . S
Zn3 O12 1.977 . S
O4 Zn3 2.032 . S
O4 C8 1.278 . S
C5 O6 1.203 . S
C5 O12 1.267 . S
O6 C5 1.203 . S
O7 C0 1.185 . S
O7 Zn3 2.086 . S
C8 O4 1.278 . S
C8 O9 1.211 . S
O9 C8 1.211 . S
C10 O2 1.284 . S
C10 O11 1.273 . S
O11 C10 1.273 . S
O12 Zn3 1.977 . S
O12 C5 1.267 . S
C13 O14 1.160 . S
C13 O20 1.185 . S
O14 C13 1.160 . S
O15 Zn16 1.899 . S
O15 C23 1.284 . S
Zn16 O15 1.899 . S
Zn16 O17 2.032 . S
Zn16 O20 2.086 . S
Zn16 O25 1.977 . S
O17 Zn16 2.032 . S
O17 C21 1.278 . S
C18 O19 1.203 . S
C18 O25 1.267 . S
O19 C18 1.203 . S
O20 C13 1.185 . S
O20 Zn16 2.086 . S
C21 O17 1.278 . S
C21 O22 1.211 . S
O22 C21 1.211 . S
C23 O15 1.284 . S
C23 O24 1.273 . S
O24 C23 1.273 . S
O25 Zn16 1.977 . S
O25 C18 1.267 . S
C26 O27 1.160 . S
C26 O33 1.185 . S
O27 C26 1.160 . S
O28 Zn29 1.899 . S
O28 C36 1.284 . S
Zn29 O28 1.899 . S
Zn29 O30 2.032 . S
Zn29 O33 2.086 . S
Zn29 O38 1.977 . S
O30 Zn29 2.032 . S
O30 C34 1.278 . S
C31 O32 1.203 . S
C31 O38 1.267 . S
O32 C31 1.203 . S
O33 C26 1.185 . S
O33 Zn29 2.086 . S
C34 O30 1.278 . S
C34 O35 1.211 . S
O35 C34 1.211 . S
C36 O28 1.284 . S
C36 O37 1.273 . S
O37 C36 1.273 . S
O38 Zn29 1.977 . S
O38 C31 1.267 . S
C39 O40 1.160 . S
C39 O46 1.185 . S
O40 C39 1.160 . S
O41 Zn42 1.899 . S
O41 C49 1.284 . S
Zn42 O41 1.899 . S
Zn42 O43 2.032 . S
Zn42 O46 2.086 . S
Zn42 O51 1.977 . S
O43 Zn42 2.032 . S
O43 C47 1.278 . S
C44 O45 1.203 . S
C44 O51 1.267 . S
O45 C44 1.203 . S
O46 C39 1.185 . S
O46 Zn42 2.086 . S
C47 O43 1.278 . S
C47 O48 1.211 . S
O48 C47 1.211 . S
C49 O41 1.284 . S
C49 O50 1.273 . S
O50 C49 1.273 . S
O51 Zn42 1.977 . S
O51 C44 1.267 . S
C52 O53 1.160 . S
C52 O59 1.185 . S
O53 C52 1.160 . S
O54 Zn55 1.899 . S
O54 C62 1.284 . S
Zn55 O54 1.899 . S
Zn55 O56 2.032 . S
Zn55 O59 2.086 . S
Zn55 O64 1.977 . S
O56 Zn55 2.032 . S
O56 C60 1.278 . S
C57 O58 1.203 . S
C57 O64 1.267 . S
O58 C57 1.203 . S
O59 C52 1.185 . S
O59 Zn55 2.086 . S
C60 O56 1.278 . S
C60 O61 1.211 . S
O61 C60 1.211 . S
C62 O54 1.284 . S
C62 O63 1.273 . S
O63 C62 1.273 . S
O64 Zn55 1.977 . S
O64 C57 1.267 . S
C65 O66 1.160 . S
C65 O72 1.185 . S
O66 C65 1.160 . S
O67 Zn68 1.899 . S
O67 C75 1.284 . S
Zn68 O67 1.899 . S
Zn68 O69 2.032 . S
Zn68 O72 2.086 . S
Zn68 O77 1.977 . S
O69 Zn68 2.032 . S
O69 C73 1.278 . S
C70 O71 1.203 . S
C70 O77 1.267 . S
O71 C70 1.203 . S
O72 C65 1.185 . S
O72 Zn68 2.086 . S
C73 O69 1.278 . S
C73 O74 1.211 . S
O74 C73 1.211 . S
C75 O67 1.284 . S
C75 O76 1.273 . S
O76 C75 1.273 . S
O77 Zn68 1.977 . S
O77 C70 1.267 . S
C78 O79 1.160 . S
C78 O85 1.185 . S
O79 C78 1.160 . S
O80 Zn81 1.899 . S
O80 C88 1.284 . S
Zn81 O80 1.899 . S
Zn81 O82 2.032 . S
Zn81 O85 2.086 . S
Zn81 O90 1.977 . S
O82 Zn81 2.032 . S
O82 C86 1.278 . S
C83 O84 1.203 . S
C83 O90 1.267 . S
O84 C83 1.203 . S
O85 C78 1.185 . S
O85 Zn81 2.086 . S
C86 O82 1.278 . S
C86 O87 1.211 . S
O87 C86 1.211 . S
C88 O80 1.284 . S
C88 O89 1.273 . S
O89 C88 1.273 . S
O90 Zn81 1.977 . S
O90 C83 1.267 . S
C91 O92 1.160 . S
C91 O98 1.185 . S
O92 C91 1.160 . S
O93 Zn94 1.899 . S
O93 C101 1.284 . S
Zn94 O93 1.899 . S
Zn94 O95 2.032 . S
Zn94 O98 2.086 . S
Zn94 O103 1.977 . S
O95 Zn94 2.032 . S
O95 C99 1.278 . S
C96 O97 1.203 . S
C96 O103 1.267 . S
O97 C96 1.203 . S
O98 C91 1.185 . S
O98 Zn94 2.086 . S
C99 O95 1.278 . S
C99 O100 1.211 . S
O100 C99 1.211 . S
C101 O93 1.284 . S
C101 O102 1.273 . S
O102 C101 1.273 . S
O103 Zn94 1.977 . S
O103 C96 1.267 . S
C104 C105 1.349 . S
C104 C106 1.327 . S
C104 H129 0.950 . S
C105 C104 1.349 . S
C105 C121 1.349 . S
C106 C104 1.327 . S
C106 C125 1.429 . S
C106 H130 0.950 . S
C107 C124 1.574 1_554 S
C107 C126 1.368 . S
C107 H131 0.949 . S
H108 C112 0.949 . S
C109 C110 1.349 . S
C109 C111 1.327 . S
C109 H132 0.950 . S
C110 C109 1.349 . S
C110 C122 1.349 . S
C111 C109 1.327 . S
C111 C127 1.429 . S
C111 H133 0.950 . S
C112 H108 0.949 . S
C112 C120 1.574 1_556 S
C112 C128 1.368 . S
H113 C121 0.950 . S
H114 C119 0.950 . S
H115 C120 0.949 . S
H116 C122 0.950 . S
H117 C123 0.950 . S
H118 C124 0.949 . S
C119 H114 0.950 . S
C119 C121 1.327 . S
C119 C125 1.429 . S
C120 C112 1.574 1_554 S
C120 H115 0.949 . S
C120 C126 1.368 . S
C121 C105 1.349 . S
C121 H113 0.950 . S
C121 C119 1.327 . S
C122 C110 1.349 . S
C122 H116 0.950 . S
C122 C123 1.327 . S
C123 H117 0.950 . S
C123 C122 1.327 . S
C123 C127 1.429 . S
C124 C107 1.574 1_556 S
C124 H118 0.949 . S
C124 C128 1.368 . S
C125 C106 1.429 . S
C125 C119 1.429 . S
C125 C126 1.523 . S
C126 C107 1.368 . S
C126 C120 1.368 . S
C126 C125 1.523 . S
C127 C111 1.429 . S
C127 C123 1.429 . S
C127 C128 1.523 . S
C128 C112 1.368 . S
C128 C124 1.368 . S
C128 C127 1.523 . S
H129 C104 0.950 . S
H130 C106 0.950 . S
H131 C107 0.949 . S
H132 C109 0.950 . S
H133 C111 0.950 . S
C134 C135 1.349 . S
C134 C136 1.327 . S
C134 H159 0.950 . S
C135 C134 1.349 . S
C135 C151 1.349 . S
C136 C134 1.327 . S
C136 C155 1.429 . S
C136 H160 0.950 . S
C137 C154 1.574 . S
C137 C156 1.368 . S
C137 H161 0.949 . S
H138 C142 0.949 . S
C139 C140 1.349 . S
C139 C141 1.327 . S
C139 H162 0.950 . S
C140 C139 1.349 . S
C140 C152 1.349 . S
C141 C139 1.327 . S
C141 C157 1.429 . S
C141 H163 0.950 . S
C142 H138 0.949 . S
C142 C150 1.574 . S
C142 C158 1.368 . S
H143 C151 0.950 . S
H144 C149 0.950 . S
H145 C150 0.949 . S
H146 C152 0.950 . S
H147 C153 0.950 . S
H148 C154 0.949 . S
C149 H144 0.950 . S
C149 C151 1.327 . S
C149 C155 1.429 . S
C150 C142 1.574 . S
C150 H145 0.949 . S
C150 C156 1.368 . S
C151 C135 1.349 . S
C151 H143 0.950 . S
C151 C149 1.327 . S
C152 C140 1.349 . S
C152 H146 0.950 . S
C152 C153 1.327 . S
C153 H147 0.950 . S
C153 C152 1.327 . S
C153 C157 1.429 . S
C154 C137 1.574 . S
C154 H148 0.949 . S
C154 C158 1.368 . S
C155 C136 1.429 . S
C155 C149 1.429 . S
C155 C156 1.523 . S
C156 C137 1.368 . S
C156 C150 1.368 . S
C156 C155 1.523 . S
C157 C141 1.429 . S
C157 C153 1.429 . S
C157 C158 1.523 . S
C158 C142 1.368 . S
C158 C154 1.368 . S
C158 C157 1.523 . S
H159 C134 0.950 . S
H160 C136 0.950 . S
H161 C137 0.949 . S
H162 C139 0.950 . S
H163 C141 0.950 . S
C164 C165 1.349 . S
C164 C166 1.327 . S
C164 H189 0.950 . S
C165 C164 1.349 . S
C165 C181 1.349 . S
C166 C164 1.327 . S
C166 C185 1.429 . S
C166 H190 0.950 . S
C167 C184 1.574 . S
C167 C186 1.368 . S
C167 H191 0.949 . S
H168 C172 0.949 . S
C169 C170 1.349 . S
C169 C171 1.327 . S
C169 H192 0.950 . S
C170 C169 1.349 . S
C170 C182 1.349 . S
C171 C169 1.327 . S
C171 C187 1.429 . S
C171 H193 0.950 . S
C172 H168 0.949 . S
C172 C180 1.574 . S
C172 C188 1.368 . S
H173 C181 0.950 . S
H174 C179 0.950 . S
H175 C180 0.949 . S
H176 C182 0.950 . S
H177 C183 0.950 . S
H178 C184 0.949 . S
C179 H174 0.950 . S
C179 C181 1.327 . S
C179 C185 1.429 . S
C180 C172 1.574 . S
C180 H175 0.949 . S
C180 C186 1.368 . S
C181 C165 1.349 . S
C181 H173 0.950 . S
C181 C179 1.327 . S
C182 C170 1.349 . S
C182 H176 0.950 . S
C182 C183 1.327 . S
C183 H177 0.950 . S
C183 C182 1.327 . S
C183 C187 1.429 . S
C184 C167 1.574 . S
C184 H178 0.949 . S
C184 C188 1.368 . S
C185 C166 1.429 . S
C185 C179 1.429 . S
C185 C186 1.523 . S
C186 C167 1.368 . S
C186 C180 1.368 . S
C186 C185 1.523 . S
C187 C171 1.429 . S
C187 C183 1.429 . S
C187 C188 1.523 . S
C188 C172 1.368 . S
C188 C184 1.368 . S
C188 C187 1.523 . S
H189 C164 0.950 . S
H190 C166 0.950 . S
H191 C167 0.949 . S
H192 C169 0.950 . S
H193 C171 0.950 . S
C194 C195 1.349 . S
C194 C196 1.327 . S
C194 H219 0.950 . S
C195 C194 1.349 . S
C195 C211 1.349 . S
C196 C194 1.327 . S
C196 C215 1.429 . S
C196 H220 0.950 . S
C197 C214 1.574 . S
C197 C216 1.368 . S
C197 H221 0.949 . S
H198 C202 0.949 . S
C199 C200 1.349 . S
C199 C201 1.327 . S
C199 H222 0.950 . S
C200 C199 1.349 . S
C200 C212 1.349 . S
C201 C199 1.327 . S
C201 C217 1.429 . S
C201 H223 0.950 . S
C202 H198 0.949 . S
C202 C210 1.574 . S
C202 C218 1.368 . S
H203 C211 0.950 . S
H204 C209 0.950 . S
H205 C210 0.949 . S
H206 C212 0.950 . S
H207 C213 0.950 . S
H208 C214 0.949 . S
C209 H204 0.950 . S
C209 C211 1.327 . S
C209 C215 1.429 . S
C210 C202 1.574 . S
C210 H205 0.949 . S
C210 C216 1.368 . S
C211 C195 1.349 . S
C211 H203 0.950 . S
C211 C209 1.327 . S
C212 C200 1.349 . S
C212 H206 0.950 . S
C212 C213 1.327 . S
C213 H207 0.950 . S
C213 C212 1.327 . S
C213 C217 1.429 . S
C214 C197 1.574 . S
C214 H208 0.949 . S
C214 C218 1.368 . S
C215 C196 1.429 . S
C215 C209 1.429 . S
C215 C216 1.523 . S
C216 C197 1.368 . S
C216 C210 1.368 . S
C216 C215 1.523 . S
C217 C201 1.429 . S
C217 C213 1.429 . S
C217 C218 1.523 . S
C218 C202 1.368 . S
C218 C214 1.368 . S
C218 C217 1.523 . S
H219 C194 0.950 . S
H220 C196 0.950 . S
H221 C197 0.949 . S
H222 C199 0.950 . S
H223 C201 0.950 . S
C224 C225 1.349 . S
C224 C226 1.327 . S
C224 H249 0.950 . S
C225 C224 1.349 . S
C225 C241 1.349 . S
C226 C224 1.327 . S
C226 C245 1.429 . S
C226 H250 0.950 . S
C227 C244 1.574 . S
C227 C246 1.368 . S
C227 H251 0.949 . S
H228 C232 0.949 . S
C229 C230 1.349 . S
C229 C231 1.327 . S
C229 H252 0.950 . S
C230 C229 1.349 . S
C230 C242 1.349 . S
C231 C229 1.327 . S
C231 C247 1.429 . S
C231 H253 0.950 . S
C232 H228 0.949 . S
C232 C240 1.574 . S
C232 C248 1.368 . S
H233 C241 0.950 . S
H234 C239 0.950 . S
H235 C240 0.949 . S
H236 C242 0.950 . S
H237 C243 0.950 . S
H238 C244 0.949 . S
C239 H234 0.950 . S
C239 C241 1.327 . S
C239 C245 1.429 . S
C240 C232 1.574 . S
C240 H235 0.949 . S
C240 C246 1.368 . S
C241 C225 1.349 . S
C241 H233 0.950 . S
C241 C239 1.327 . S
C242 C230 1.349 . S
C242 H236 0.950 . S
C242 C243 1.327 . S
C243 H237 0.950 . S
C243 C242 1.327 . S
C243 C247 1.429 . S
C244 C227 1.574 . S
C244 H238 0.949 . S
C244 C248 1.368 . S
C245 C226 1.429 . S
C245 C239 1.429 . S
C245 C246 1.523 . S
C246 C227 1.368 . S
C246 C240 1.368 . S
C246 C245 1.523 . S
C247 C231 1.429 . S
C247 C243 1.429 . S
C247 C248 1.523 . S
C248 C232 1.368 . S
C248 C244 1.368 . S
C248 C247 1.523 . S
H249 C224 0.950 . S
H250 C226 0.950 . S
H251 C227 0.949 . S
H252 C229 0.950 . S
H253 C231 0.950 . S
C254 C255 1.349 . S
C254 C256 1.327 . S
C254 H279 0.950 . S
C255 C254 1.349 . S
C255 C271 1.349 . S
C256 C254 1.327 . S
C256 C275 1.429 . S
C256 H280 0.950 . S
C257 C274 1.574 . S
C257 C276 1.368 . S
C257 H281 0.949 . S
H258 C262 0.949 . S
C259 C260 1.349 . S
C259 C261 1.327 . S
C259 H282 0.950 . S
C260 C259 1.349 . S
C260 C272 1.349 . S
C261 C259 1.327 . S
C261 C277 1.429 . S
C261 H283 0.950 . S
C262 H258 0.949 . S
C262 C270 1.574 . S
C262 C278 1.368 . S
H263 C271 0.950 . S
H264 C269 0.950 . S
H265 C270 0.949 . S
H266 C272 0.950 . S
H267 C273 0.950 . S
H268 C274 0.949 . S
C269 H264 0.950 . S
C269 C271 1.327 . S
C269 C275 1.429 . S
C270 C262 1.574 . S
C270 H265 0.949 . S
C270 C276 1.368 . S
C271 C255 1.349 . S
C271 H263 0.950 . S
C271 C269 1.327 . S
C272 C260 1.349 . S
C272 H266 0.950 . S
C272 C273 1.327 . S
C273 H267 0.950 . S
C273 C272 1.327 . S
C273 C277 1.429 . S
C274 C257 1.574 . S
C274 H268 0.949 . S
C274 C278 1.368 . S
C275 C256 1.429 . S
C275 C269 1.429 . S
C275 C276 1.523 . S
C276 C257 1.368 . S
C276 C270 1.368 . S
C276 C275 1.523 . S
C277 C261 1.429 . S
C277 C273 1.429 . S
C277 C278 1.523 . S
C278 C262 1.368 . S
C278 C274 1.368 . S
C278 C277 1.523 . S
H279 C254 0.950 . S
H280 C256 0.950 . S
H281 C257 0.949 . S
H282 C259 0.950 . S
H283 C261 0.950 . S
C284 C285 1.349 . S
C284 C286 1.327 . S
C284 H309 0.950 . S
C285 C284 1.349 . S
C285 C301 1.349 . S
C286 C284 1.327 . S
C286 C305 1.429 . S
C286 H310 0.950 . S
C287 C304 1.574 . S
C287 C306 1.368 . S
C287 H311 0.949 . S
H288 C292 0.949 . S
C289 C290 1.349 . S
C289 C291 1.327 . S
C289 H312 0.950 . S
C290 C289 1.349 . S
C290 C302 1.349 . S
C291 C289 1.327 . S
C291 C307 1.429 . S
C291 H313 0.950 . S
C292 H288 0.949 . S
C292 C300 1.574 . S
C292 C308 1.368 . S
H293 C301 0.950 . S
H294 C299 0.950 . S
H295 C300 0.949 . S
H296 C302 0.950 . S
H297 C303 0.950 . S
H298 C304 0.949 . S
C299 H294 0.950 . S
C299 C301 1.327 . S
C299 C305 1.429 . S
C300 C292 1.574 . S
C300 H295 0.949 . S
C300 C306 1.368 . S
C301 C285 1.349 . S
C301 H293 0.950 . S
C301 C299 1.327 . S
C302 C290 1.349 . S
C302 H296 0.950 . S
C302 C303 1.327 . S
C303 H297 0.950 . S
C303 C302 1.327 . S
C303 C307 1.429 . S
C304 C287 1.574 . S
C304 H298 0.949 . S
C304 C308 1.368 . S
C305 C286 1.429 . S
C305 C299 1.429 . S
C305 C306 1.523 . S
C306 C287 1.368 . S
C306 C300 1.368 . S
C306 C305 1.523 . S
C307 C291 1.429 . S
C307 C303 1.429 . S
C307 C308 1.523 . S
C308 C292 1.368 . S
C308 C304 1.368 . S
C308 C307 1.523 . S
H309 C284 0.950 . S
H310 C286 0.950 . S
H311 C287 0.949 . S
H312 C289 0.950 . S
H313 C291 0.950 . S
C314 C315 1.349 . S
C314 C316 1.327 . S
C314 H339 0.950 . S
C315 C314 1.349 . S
C315 C331 1.349 . S
C316 C314 1.327 . S
C316 C335 1.429 . S
C316 H340 0.950 . S
C317 C334 1.574 1_554 S
C317 C336 1.368 . S
C317 H341 0.949 . S
H318 C322 0.949 . S
C319 C320 1.349 . S
C319 C321 1.327 . S
C319 H342 0.950 . S
C320 C319 1.349 . S
C320 C332 1.349 . S
C321 C319 1.327 . S
C321 C337 1.429 . S
C321 H343 0.950 . S
C322 H318 0.949 . S
C322 C330 1.574 1_556 S
C322 C338 1.368 . S
H323 C331 0.950 . S
H324 C329 0.950 . S
H325 C330 0.949 . S
H326 C332 0.950 . S
H327 C333 0.950 . S
H328 C334 0.949 . S
C329 H324 0.950 . S
C329 C331 1.327 . S
C329 C335 1.429 . S
C330 C322 1.574 1_554 S
C330 H325 0.949 . S
C330 C336 1.368 . S
C331 C315 1.349 . S
C331 H323 0.950 . S
C331 C329 1.327 . S
C332 C320 1.349 . S
C332 H326 0.950 . S
C332 C333 1.327 . S
C333 H327 0.950 . S
C333 C332 1.327 . S
C333 C337 1.429 . S
C334 C317 1.574 1_556 S
C334 H328 0.949 . S
C334 C338 1.368 . S
C335 C316 1.429 . S
C335 C329 1.429 . S
C335 C336 1.523 . S
C336 C317 1.368 . S
C336 C330 1.368 . S
C336 C335 1.523 . S
C337 C321 1.429 . S
C337 C333 1.429 . S
C337 C338 1.523 . S
C338 C322 1.368 . S
C338 C334 1.368 . S
C338 C337 1.523 . S
H339 C314 0.950 . S
H340 C316 0.950 . S
H341 C317 0.949 . S
H342 C319 0.950 . S
H343 C321 0.950 . S
C344 C345 1.349 . S
C344 C346 1.327 . S
C344 H369 0.950 . S
C345 C344 1.349 . S
C345 C361 1.349 . S
C346 C344 1.327 . S
C346 C365 1.429 . S
C346 H370 0.950 . S
C347 C364 1.574 1_545 S
C347 C366 1.368 . S
C347 H371 0.949 . S
H348 C352 0.949 . S
C349 C350 1.349 . S
C349 C351 1.327 . S
C349 H372 0.950 . S
C350 C349 1.349 . S
C350 C362 1.349 . S
C351 C349 1.327 . S
C351 C367 1.429 . S
C351 H373 0.950 . S
C352 H348 0.949 . S
C352 C360 1.574 1_565 S
C352 C368 1.368 . S
H353 C361 0.950 . S
H354 C359 0.950 . S
H355 C360 0.949 . S
H356 C362 0.950 . S
H357 C363 0.950 . S
H358 C364 0.949 . S
C359 H354 0.950 . S
C359 C361 1.327 . S
C359 C365 1.429 . S
C360 C352 1.574 1_545 S
C360 H355 0.949 . S
C360 C366 1.368 1_655 S
C361 C345 1.349 . S
C361 H353 0.950 . S
C361 C359 1.327 . S
C362 C350 1.349 . S
C362 H356 0.950 . S
C362 C363 1.327 . S
C363 H357 0.950 . S
C363 C362 1.327 . S
C363 C367 1.429 . S
C364 C347 1.574 1_565 S
C364 H358 0.949 . S
C364 C368 1.368 1_455 S
C365 C346 1.429 . S
C365 C359 1.429 . S
C365 C366 1.523 . S
C366 C347 1.368 . S
C366 C360 1.368 1_455 S
C366 C365 1.523 . S
C367 C351 1.429 . S
C367 C363 1.429 . S
C367 C368 1.523 . S
C368 C352 1.368 . S
C368 C364 1.368 1_655 S
C368 C367 1.523 . S
H369 C344 0.950 . S
H370 C346 0.950 . S
H371 C347 0.949 . S
H372 C349 0.950 . S
H373 C351 0.950 . S
C374 C375 1.349 . S
C374 C376 1.327 . S
C374 H399 0.950 . S
C375 C374 1.349 . S
C375 C391 1.349 . S
C376 C374 1.327 . S
C376 C395 1.429 . S
C376 H400 0.950 . S
C377 C394 1.574 1_455 S
C377 C396 1.368 . S
C377 H401 0.949 . S
H378 C382 0.949 . S
C379 C380 1.349 . S
C379 C381 1.327 . S
C379 H402 0.950 . S
C380 C379 1.349 . S
C380 C392 1.349 . S
C381 C379 1.327 . S
C381 C397 1.429 . S
C381 H403 0.950 . S
C382 H378 0.949 . S
C382 C390 1.574 1_655 S
C382 C398 1.368 . S
H383 C391 0.950 . S
H384 C389 0.950 . S
H385 C390 0.949 . S
H386 C392 0.950 . S
H387 C393 0.950 . S
H388 C394 0.949 . S
C389 H384 0.950 . S
C389 C391 1.327 . S
C389 C395 1.429 . S
C390 C382 1.574 1_455 S
C390 H385 0.949 . S
C390 C396 1.368 . S
C391 C375 1.349 . S
C391 H383 0.950 . S
C391 C389 1.327 . S
C392 C380 1.349 . S
C392 H386 0.950 . S
C392 C393 1.327 . S
C393 H387 0.950 . S
C393 C392 1.327 . S
C393 C397 1.429 . S
C394 C377 1.574 1_655 S
C394 H388 0.949 . S
C394 C398 1.368 . S
C395 C376 1.429 . S
C395 C389 1.429 . S
C395 C396 1.523 . S
C396 C377 1.368 . S
C396 C390 1.368 . S
C396 C395 1.523 . S
C397 C381 1.429 . S
C397 C393 1.429 . S
C397 C398 1.523 . S
C398 C382 1.368 . S
C398 C394 1.368 . S
C398 C397 1.523 . S
H399 C374 0.950 . S
H400 C376 0.950 . S
H401 C377 0.949 . S
H402 C379 0.950 . S
H403 C381 0.950 . S
C404 C405 1.349 . S
C404 C406 1.327 . S
C404 H429 0.950 . S
C405 C404 1.349 . S
C405 C421 1.349 . S
C406 C404 1.327 . S
C406 C425 1.429 . S
C406 H430 0.950 . S
C407 C424 1.574 . S
C407 C426 1.368 . S
C407 H431 0.949 . S
H408 C412 0.949 . S
C409 C410 1.349 . S
C409 C411 1.327 . S
C409 H432 0.950 . S
C410 C409 1.349 . S
C410 C422 1.349 . S
C411 C409 1.327 . S
C411 C427 1.429 . S
C411 H433 0.950 . S
C412 H408 0.949 . S
C412 C420 1.574 . S
C412 C428 1.368 . S
H413 C421 0.950 . S
H414 C419 0.950 . S
H415 C420 0.949 . S
H416 C422 0.950 . S
H417 C423 0.950 . S
H418 C424 0.949 . S
C419 H414 0.950 . S
C419 C421 1.327 . S
C419 C425 1.429 . S
C420 C412 1.574 . S
C420 H415 0.949 . S
C420 C426 1.368 . S
C421 C405 1.349 . S
C421 H413 0.950 . S
C421 C419 1.327 . S
C422 C410 1.349 . S
C422 H416 0.950 . S
C422 C423 1.327 . S
C423 H417 0.950 . S
C423 C422 1.327 . S
C423 C427 1.429 . S
C424 C407 1.574 . S
C424 H418 0.949 . S
C424 C428 1.368 . S
C425 C406 1.429 . S
C425 C419 1.429 . S
C425 C426 1.523 . S
C426 C407 1.368 . S
C426 C420 1.368 . S
C426 C425 1.523 . S
C427 C411 1.429 . S
C427 C423 1.429 . S
C427 C428 1.523 . S
C428 C412 1.368 . S
C428 C424 1.368 . S
C428 C427 1.523 . S
H429 C404 0.950 . S
H430 C406 0.950 . S
H431 C407 0.949 . S
H432 C409 0.950 . S
H433 C411 0.950 . S
C434 C435 1.349 . S
C434 C436 1.327 . S
C434 H459 0.950 . S
C435 C434 1.349 . S
C435 C451 1.349 . S
C436 C434 1.327 . S
C436 C455 1.429 . S
C436 H460 0.950 . S
C437 C454 1.574 . S
C437 C456 1.368 . S
C437 H461 0.949 . S
H438 C442 0.949 . S
C439 C440 1.349 . S
C439 C441 1.327 . S
C439 H462 0.950 . S
C440 C439 1.349 . S
C440 C452 1.349 . S
C441 C439 1.327 . S
C441 C457 1.429 . S
C441 H463 0.950 . S
C442 H438 0.949 . S
C442 C450 1.574 . S
C442 C458 1.368 . S
H443 C451 0.950 . S
H444 C449 0.950 . S
H445 C450 0.949 . S
H446 C452 0.950 . S
H447 C453 0.950 . S
H448 C454 0.949 . S
C449 H444 0.950 . S
C449 C451 1.327 . S
C449 C455 1.429 . S
C450 C442 1.574 . S
C450 H445 0.949 . S
C450 C456 1.368 1_545 S
C451 C435 1.349 . S
C451 H443 0.950 . S
C451 C449 1.327 . S
C452 C440 1.349 . S
C452 H446 0.950 . S
C452 C453 1.327 . S
C453 H447 0.950 . S
C453 C452 1.327 . S
C453 C457 1.429 . S
C454 C437 1.574 . S
C454 H448 0.949 . S
C454 C458 1.368 1_565 S
C455 C436 1.429 . S
C455 C449 1.429 . S
C455 C456 1.523 . S
C456 C437 1.368 . S
C456 C450 1.368 1_565 S
C456 C455 1.523 . S
C457 C441 1.429 . S
C457 C453 1.429 . S
C457 C458 1.523 . S
C458 C442 1.368 . S
C458 C454 1.368 1_545 S
C458 C457 1.523 . S
H459 C434 0.950 . S
H460 C436 0.950 . S
H461 C437 0.949 . S
H462 C439 0.950 . S
H463 C441 0.950 . S
C464 C465 1.349 . S
C464 C466 1.327 . S
C464 H489 0.950 . S
C465 C464 1.349 . S
C465 C481 1.349 . S
C466 C464 1.327 . S
C466 C485 1.429 . S
C466 H490 0.950 . S
C467 C484 1.574 . S
C467 C486 1.368 1_455 S
C467 H491 0.949 . S
H468 C472 0.949 . S
C469 C470 1.349 . S
C469 C471 1.327 . S
C469 H492 0.950 . S
C470 C469 1.349 . S
C470 C482 1.349 . S
C471 C469 1.327 . S
C471 C487 1.429 . S
C471 H493 0.950 . S
C472 H468 0.949 . S
C472 C480 1.574 . S
C472 C488 1.368 1_655 S
H473 C481 0.950 . S
H474 C479 0.950 . S
H475 C480 0.949 . S
H476 C482 0.950 . S
H477 C483 0.950 . S
H478 C484 0.949 . S
C479 H474 0.950 . S
C479 C481 1.327 . S
C479 C485 1.429 . S
C480 C472 1.574 . S
C480 H475 0.949 . S
C480 C486 1.368 . S
C481 C465 1.349 . S
C481 H473 0.950 . S
C481 C479 1.327 . S
C482 C470 1.349 . S
C482 H476 0.950 . S
C482 C483 1.327 . S
C483 H477 0.950 . S
C483 C482 1.327 . S
C483 C487 1.429 . S
C484 C467 1.574 . S
C484 H478 0.949 . S
C484 C488 1.368 . S
C485 C466 1.429 . S
C485 C479 1.429 . S
C485 C486 1.523 . S
C486 C467 1.368 1_655 S
C486 C480 1.368 . S
C486 C485 1.523 . S
C487 C471 1.429 . S
C487 C483 1.429 . S
C487 C488 1.523 . S
C488 C472 1.368 1_455 S
C488 C484 1.368 . S
C488 C487 1.523 . S
H489 C464 0.950 . S
H490 C466 0.950 . S
H491 C467 0.949 . S
H492 C469 0.950 . S
H493 C471 0.950 . S
C494 C495 1.349 . S
C494 C496 1.327 . S
C494 H519 0.950 . S
C495 C494 1.349 . S
C495 C511 1.349 . S
C496 C494 1.327 . S
C496 C515 1.429 . S
C496 H520 0.950 . S
C497 C514 1.574 . S
C497 C516 1.368 . S
C497 H521 0.949 . S
H498 C502 0.949 . S
C499 C500 1.349 . S
C499 C501 1.327 . S
C499 H522 0.950 . S
C500 C499 1.349 . S
C500 C512 1.349 . S
C501 C499 1.327 . S
C501 C517 1.429 . S
C501 H523 0.950 . S
C502 H498 0.949 . S
C502 C510 1.574 . S
C502 C518 1.368 . S
H503 C511 0.950 . S
H504 C509 0.950 . S
H505 C510 0.949 . S
H506 C512 0.950 . S
H507 C513 0.950 . S
H508 C514 0.949 . S
C509 H504 0.950 . S
C509 C511 1.327 . S
C509 C515 1.429 . S
C510 C502 1.574 . S
C510 H505 0.949 . S
C510 C516 1.368 . S
C511 C495 1.349 . S
C511 H503 0.950 . S
C511 C509 1.327 . S
C512 C500 1.349 . S
C512 H506 0.950 . S
C512 C513 1.327 . S
C513 H507 0.950 . S
C513 C512 1.327 . S
C513 C517 1.429 . S
C514 C497 1.574 . S
C514 H508 0.949 . S
C514 C518 1.368 . S
C515 C496 1.429 . S
C515 C509 1.429 . S
C515 C516 1.523 . S
C516 C497 1.368 . S
C516 C510 1.368 . S
C516 C515 1.523 . S
C517 C501 1.429 . S
C517 C513 1.429 . S
C517 C518 1.523 . S
C518 C502 1.368 . S
C518 C514 1.368 . S
C518 C517 1.523 . S
H519 C494 0.950 . S
H520 C496 0.950 . S
H521 C497 0.949 . S
H522 C499 0.950 . S
H523 C501 0.950 . S
C524 C525 1.349 . S
C524 C526 1.327 . S
C524 H549 0.950 . S
C525 C524 1.349 . S
C525 C541 1.349 . S
C526 C524 1.327 . S
C526 C545 1.429 . S
C526 H550 0.950 . S
C527 C544 1.574 1_545 S
C527 C546 1.368 . S
C527 H551 0.949 . S
H528 C532 0.949 . S
C529 C530 1.349 . S
C529 C531 1.327 . S
C529 H552 0.950 . S
C530 C529 1.349 . S
C530 C542 1.349 . S
C531 C529 1.327 . S
C531 C547 1.429 . S
C531 H553 0.950 . S
C532 H528 0.949 . S
C532 C540 1.574 1_565 S
C532 C548 1.368 . S
H533 C541 0.950 . S
H534 C539 0.950 . S
H535 C540 0.949 . S
H536 C542 0.950 . S
H537 C543 0.950 . S
H538 C544 0.949 . S
C539 H534 0.950 . S
C539 C541 1.327 . S
C539 C545 1.429 . S
C540 C532 1.574 1_545 S
C540 H535 0.949 . S
C540 C546 1.368 . S
C541 C525 1.349 . S
C541 H533 0.950 . S
C541 C539 1.327 . S
C542 C530 1.349 . S
C542 H536 0.950 . S
C542 C543 1.327 . S
C543 H537 0.950 . S
C543 C542 1.327 . S
C543 C547 1.429 . S
C544 C527 1.574 1_565 S
C544 H538 0.949 . S
C544 C548 1.368 . S
C545 C526 1.429 . S
C545 C539 1.429 . S
C545 C546 1.523 . S
C546 C527 1.368 . S
C546 C540 1.368 . S
C546 C545 1.523 . S
C547 C531 1.429 . S
C547 C543 1.429 . S
C547 C548 1.523 . S
C548 C532 1.368 . S
C548 C544 1.368 . S
C548 C547 1.523 . S
H549 C524 0.950 . S
H550 C526 0.950 . S
H551 C527 0.949 . S
H552 C529 0.950 . S
H553 C531 0.950 . S
C554 C555 1.349 . S
C554 C556 1.327 . S
C554 H579 0.950 . S
C555 C554 1.349 . S
C555 C571 1.349 . S
C556 C554 1.327 . S
C556 C575 1.429 . S
C556 H580 0.950 . S
C557 C574 1.574 1_655 S
C557 C576 1.368 1_545 S
C557 H581 0.949 . S
H558 C562 0.949 . S
C559 C560 1.349 . S
C559 C561 1.327 . S
C559 H582 0.950 . S
C560 C559 1.349 . S
C560 C572 1.349 . S
C561 C559 1.327 . S
C561 C577 1.429 . S
C561 H583 0.950 . S
C562 H558 0.949 . S
C562 C570 1.574 1_455 S
C562 C578 1.368 1_565 S
H563 C571 0.950 . S
H564 C569 0.950 . S
H565 C570 0.949 . S
H566 C572 0.950 . S
H567 C573 0.950 . S
H568 C574 0.949 . S
C569 H564 0.950 . S
C569 C571 1.327 . S
C569 C575 1.429 . S
C570 C562 1.574 1_655 S
C570 H565 0.949 . S
C570 C576 1.368 . S
C571 C555 1.349 . S
C571 H563 0.950 . S
C571 C569 1.327 . S
C572 C560 1.349 . S
C572 H566 0.950 . S
C572 C573 1.327 . S
C573 H567 0.950 . S
C573 C572 1.327 . S
C573 C577 1.429 . S
C574 C557 1.574 1_455 S
C574 H568 0.949 . S
C574 C578 1.368 . S
C575 C556 1.429 . S
C575 C569 1.429 . S
C575 C576 1.523 . S
C576 C557 1.368 1_565 S
C576 C570 1.368 . S
C576 C575 1.523 . S
C577 C561 1.429 . S
C577 C573 1.429 . S
C577 C578 1.523 . S
C578 C562 1.368 1_545 S
C578 C574 1.368 . S
C578 C577 1.523 . S
H579 C554 0.950 . S
H580 C556 0.950 . S
H581 C557 0.949 . S
H582 C559 0.950 . S
H583 C561 0.950 . S
C105 C10 0.827 . S
C110 C75 0.827 . S
C135 C21 0.828 . S
C140 C86 0.828 . S
C165 C36 0.827 . S
C170 C101 0.827 . S
C195 C47 0.828 . S
C200 C60 0.828 . S
C225 C99 0.828 . S
C230 C8 0.828 . S
C255 C62 0.827 . S
C260 C23 0.827 . S
C285 C34 0.828 . S
C290 C73 0.828 . S
C315 C88 0.827 . S
C320 C49 0.827 . S
C345 C5 1.514 . S
C350 C83 1.514 . S
C375 C91 1.534 . S
C380 C13 1.534 . S
C405 C31 1.514 . S
C410 C57 1.514 . S
C435 C39 1.534 . S
C440 C65 1.534 . S
C465 C78 1.534 . S
C470 C0 1.534 . S
C495 C96 1.514 . S
C500 C18 1.514 . S
C525 C26 1.534 . S
C530 C52 1.534 . S
C555 C44 1.514 . S
C560 C70 1.514 . S
