# Generated by pormake.
# Topology ums, (4)-cn, num edge types: 1
# Building blocks:
#     Node 0, Type 0, BuildingBlock: ICAMEG_clean_sbu_1, # of connection points: 4
#     Node 1, Type 0, BuildingBlock: ICAMEG_clean_sbu_1, # of connection points: 4
#     Node 2, Type 0, BuildingBlock: ICAMEG_clean_sbu_1, # of connection points: 4
#     Node 3, Type 0, BuildingBlock: ICAMEG_clean_sbu_1, # of connection points: 4
#     Node 4, Type 0, BuildingBlock: ICAMEG_clean_sbu_1, # of connection points: 4
#     Node 5, Type 0, BuildingBlock: ICAMEG_clean_sbu_1, # of connection points: 4
#     Node 6, Type 0, BuildingBlock: ICAMEG_clean_sbu_1, # of connection points: 4
#     Node 7, Type 0, BuildingBlock: ICAMEG_clean_sbu_1, # of connection points: 4
#     Node 8, Type 0, BuildingBlock: ICAMEG_clean_sbu_1, # of connection points: 4
#     Node 9, Type 0, BuildingBlock: ICAMEG_clean_sbu_1, # of connection points: 4
#     Node 10, Type 0, BuildingBlock: ICAMEG_clean_sbu_1, # of connection points: 4
#     Node 11, Type 0, BuildingBlock: ICAMEG_clean_sbu_1, # of connection points: 4
#     Node 12, Type 0, BuildingBlock: ICAMEG_clean_sbu_1, # of connection points: 4
#     Node 13, Type 0, BuildingBlock: ICAMEG_clean_sbu_1, # of connection points: 4
#     Node 14, Type 0, BuildingBlock: ICAMEG_clean_sbu_1, # of connection points: 4
#     Node 15, Type 0, BuildingBlock: ICAMEG_clean_sbu_1, # of connection points: 4
#     Node 16, Type 0, BuildingBlock: ICAMEG_clean_sbu_1, # of connection points: 4
#     Node 17, Type 0, BuildingBlock: ICAMEG_clean_sbu_1, # of connection points: 4
#     Node 18, Type 0, BuildingBlock: ICAMEG_clean_sbu_1, # of connection points: 4
#     Node 19, Type 0, BuildingBlock: ICAMEG_clean_sbu_1, # of connection points: 4
#     Node 20, Type 0, BuildingBlock: ICAMEG_clean_sbu_1, # of connection points: 4
#     Node 21, Type 0, BuildingBlock: ICAMEG_clean_sbu_1, # of connection points: 4
#     Node 22, Type 0, BuildingBlock: ICAMEG_clean_sbu_1, # of connection points: 4
#     Node 23, Type 0, BuildingBlock: ICAMEG_clean_sbu_1, # of connection points: 4
#     Node 24, Type 0, BuildingBlock: ICAMEG_clean_sbu_1, # of connection points: 4
#     Node 25, Type 0, BuildingBlock: ICAMEG_clean_sbu_1, # of connection points: 4
#     Node 26, Type 0, BuildingBlock: ICAMEG_clean_sbu_1, # of connection points: 4
#     Node 27, Type 0, BuildingBlock: ICAMEG_clean_sbu_1, # of connection points: 4
#     Node 28, Type 0, BuildingBlock: ICAMEG_clean_sbu_1, # of connection points: 4
#     Node 29, Type 0, BuildingBlock: ICAMEG_clean_sbu_1, # of connection points: 4
#     Node 30, Type 0, BuildingBlock: ICAMEG_clean_sbu_1, # of connection points: 4
#     Node 31, Type 0, BuildingBlock: ICAMEG_clean_sbu_1, # of connection points: 4
#     Node 32, Type 0, BuildingBlock: ICAMEG_clean_sbu_1, # of connection points: 4
#     Node 33, Type 0, BuildingBlock: ICAMEG_clean_sbu_1, # of connection points: 4
#     Node 34, Type 0, BuildingBlock: ICAMEG_clean_sbu_1, # of connection points: 4
#     Node 35, Type 0, BuildingBlock: ICAMEG_clean_sbu_1, # of connection points: 4
#     Edge 36, Type (0, 0), BuildingBlock: UVAHIK_clean_linker_0, # of connection points: 2
#     Edge 37, Type (0, 0), BuildingBlock: UVAHIK_clean_linker_0, # of connection points: 2
#     Edge 38, Type (0, 0), BuildingBlock: UVAHIK_clean_linker_0, # of connection points: 2
#     Edge 39, Type (0, 0), BuildingBlock: UVAHIK_clean_linker_0, # of connection points: 2
#     Edge 40, Type (0, 0), BuildingBlock: UVAHIK_clean_linker_0, # of connection points: 2
#     Edge 41, Type (0, 0), BuildingBlock: UVAHIK_clean_linker_0, # of connection points: 2
#     Edge 42, Type (0, 0), BuildingBlock: UVAHIK_clean_linker_0, # of connection points: 2
#     Edge 43, Type (0, 0), BuildingBlock: UVAHIK_clean_linker_0, # of connection points: 2
#     Edge 44, Type (0, 0), BuildingBlock: UVAHIK_clean_linker_0, # of connection points: 2
#     Edge 45, Type (0, 0), BuildingBlock: UVAHIK_clean_linker_0, # of connection points: 2
#     Edge 46, Type (0, 0), BuildingBlock: UVAHIK_clean_linker_0, # of connection points: 2
#     Edge 47, Type (0, 0), BuildingBlock: UVAHIK_clean_linker_0, # of connection points: 2
#     Edge 48, Type (0, 0), BuildingBlock: UVAHIK_clean_linker_0, # of connection points: 2
#     Edge 49, Type (0, 0), BuildingBlock: UVAHIK_clean_linker_0, # of connection points: 2
#     Edge 50, Type (0, 0), BuildingBlock: UVAHIK_clean_linker_0, # of connection points: 2
#     Edge 51, Type (0, 0), BuildingBlock: UVAHIK_clean_linker_0, # of connection points: 2
#     Edge 52, Type (0, 0), BuildingBlock: UVAHIK_clean_linker_0, # of connection points: 2
#     Edge 53, Type (0, 0), BuildingBlock: UVAHIK_clean_linker_0, # of connection points: 2
#     Edge 54, Type (0, 0), BuildingBlock: UVAHIK_clean_linker_0, # of connection points: 2
#     Edge 55, Type (0, 0), BuildingBlock: UVAHIK_clean_linker_0, # of connection points: 2
#     Edge 56, Type (0, 0), BuildingBlock: UVAHIK_clean_linker_0, # of connection points: 2
#     Edge 57, Type (0, 0), BuildingBlock: UVAHIK_clean_linker_0, # of connection points: 2
#     Edge 58, Type (0, 0), BuildingBlock: UVAHIK_clean_linker_0, # of connection points: 2
#     Edge 59, Type (0, 0), BuildingBlock: UVAHIK_clean_linker_0, # of connection points: 2
#     Edge 60, Type (0, 0), BuildingBlock: UVAHIK_clean_linker_0, # of connection points: 2
#     Edge 61, Type (0, 0), BuildingBlock: UVAHIK_clean_linker_0, # of connection points: 2
#     Edge 62, Type (0, 0), BuildingBlock: UVAHIK_clean_linker_0, # of connection points: 2
#     Edge 63, Type (0, 0), BuildingBlock: UVAHIK_clean_linker_0, # of connection points: 2
#     Edge 64, Type (0, 0), BuildingBlock: UVAHIK_clean_linker_0, # of connection points: 2
#     Edge 65, Type (0, 0), BuildingBlock: UVAHIK_clean_linker_0, # of connection points: 2
#     Edge 66, Type (0, 0), BuildingBlock: UVAHIK_clean_linker_0, # of connection points: 2
#     Edge 67, Type (0, 0), BuildingBlock: UVAHIK_clean_linker_0, # of connection points: 2
#     Edge 68, Type (0, 0), BuildingBlock: UVAHIK_clean_linker_0, # of connection points: 2
#     Edge 69, Type (0, 0), BuildingBlock: UVAHIK_clean_linker_0, # of connection points: 2
#     Edge 70, Type (0, 0), BuildingBlock: UVAHIK_clean_linker_0, # of connection points: 2
#     Edge 71, Type (0, 0), BuildingBlock: UVAHIK_clean_linker_0, # of connection points: 2
#     Edge 72, Type (0, 0), BuildingBlock: UVAHIK_clean_linker_0, # of connection points: 2
#     Edge 73, Type (0, 0), BuildingBlock: UVAHIK_clean_linker_0, # of connection points: 2
#     Edge 74, Type (0, 0), BuildingBlock: UVAHIK_clean_linker_0, # of connection points: 2
#     Edge 75, Type (0, 0), BuildingBlock: UVAHIK_clean_linker_0, # of connection points: 2
#     Edge 76, Type (0, 0), BuildingBlock: UVAHIK_clean_linker_0, # of connection points: 2
#     Edge 77, Type (0, 0), BuildingBlock: UVAHIK_clean_linker_0, # of connection points: 2
#     Edge 78, Type (0, 0), BuildingBlock: UVAHIK_clean_linker_0, # of connection points: 2
#     Edge 79, Type (0, 0), BuildingBlock: UVAHIK_clean_linker_0, # of connection points: 2
#     Edge 80, Type (0, 0), BuildingBlock: UVAHIK_clean_linker_0, # of connection points: 2
#     Edge 81, Type (0, 0), BuildingBlock: UVAHIK_clean_linker_0, # of connection points: 2
#     Edge 82, Type (0, 0), BuildingBlock: UVAHIK_clean_linker_0, # of connection points: 2
#     Edge 83, Type (0, 0), BuildingBlock: UVAHIK_clean_linker_0, # of connection points: 2
#     Edge 84, Type (0, 0), BuildingBlock: UVAHIK_clean_linker_0, # of connection points: 2
#     Edge 85, Type (0, 0), BuildingBlock: UVAHIK_clean_linker_0, # of connection points: 2
#     Edge 86, Type (0, 0), BuildingBlock: UVAHIK_clean_linker_0, # of connection points: 2
#     Edge 87, Type (0, 0), BuildingBlock: UVAHIK_clean_linker_0, # of connection points: 2
#     Edge 88, Type (0, 0), BuildingBlock: UVAHIK_clean_linker_0, # of connection points: 2
#     Edge 89, Type (0, 0), BuildingBlock: UVAHIK_clean_linker_0, # of connection points: 2
#     Edge 90, Type (0, 0), BuildingBlock: UVAHIK_clean_linker_0, # of connection points: 2
#     Edge 91, Type (0, 0), BuildingBlock: UVAHIK_clean_linker_0, # of connection points: 2
#     Edge 92, Type (0, 0), BuildingBlock: UVAHIK_clean_linker_0, # of connection points: 2
#     Edge 93, Type (0, 0), BuildingBlock: UVAHIK_clean_linker_0, # of connection points: 2
#     Edge 94, Type (0, 0), BuildingBlock: UVAHIK_clean_linker_0, # of connection points: 2
#     Edge 95, Type (0, 0), BuildingBlock: UVAHIK_clean_linker_0, # of connection points: 2
#     Edge 96, Type (0, 0), BuildingBlock: UVAHIK_clean_linker_0, # of connection points: 2
#     Edge 97, Type (0, 0), BuildingBlock: UVAHIK_clean_linker_0, # of connection points: 2
#     Edge 98, Type (0, 0), BuildingBlock: UVAHIK_clean_linker_0, # of connection points: 2
#     Edge 99, Type (0, 0), BuildingBlock: UVAHIK_clean_linker_0, # of connection points: 2
#     Edge 100, Type (0, 0), BuildingBlock: UVAHIK_clean_linker_0, # of connection points: 2
#     Edge 101, Type (0, 0), BuildingBlock: UVAHIK_clean_linker_0, # of connection points: 2
#     Edge 102, Type (0, 0), BuildingBlock: UVAHIK_clean_linker_0, # of connection points: 2
#     Edge 103, Type (0, 0), BuildingBlock: UVAHIK_clean_linker_0, # of connection points: 2
#     Edge 104, Type (0, 0), BuildingBlock: UVAHIK_clean_linker_0, # of connection points: 2
#     Edge 105, Type (0, 0), BuildingBlock: UVAHIK_clean_linker_0, # of connection points: 2
#     Edge 106, Type (0, 0), BuildingBlock: UVAHIK_clean_linker_0, # of connection points: 2
#     Edge 107, Type (0, 0), BuildingBlock: UVAHIK_clean_linker_0, # of connection points: 2
# Relax obj value: 0.194
# Max RMSD: 0.180
# Mean RMSD: 0.180
data_MOF--net-ums--node1-ICAMEG_clean_sbu_1--edge1-UVAHIK_clean_linker_0
_symmetry_space_group_name_H-M    P1
_symmetry_Int_Tables_number       1
_symmetry_cell_setting            triclinic
loop_
_symmetry_equiv_pos_as_xyz
'x, y, z'
_cell_length_a     137.53395
_cell_length_b     137.62041
_cell_length_c     32.326465
_cell_angle_alpha  89.962255
_cell_angle_beta   90.001753
_cell_angle_gamma 119.99322
loop_
_atom_site_label
_atom_site_type_symbol
_atom_site_fract_x
_atom_site_fract_y
_atom_site_fract_z
_atom_type_partial_charge
Co0 Co 0.17079 0.2703 0.23976 0.0
Co1 Co 0.17671 0.25209 0.18887 0.0
O2 O 0.17482 0.25855 0.23984 0.0
C3 C 0.15184 0.26076 0.29951 0.0
O4 O 0.14538 0.26078 0.26959 0.0
C5 C 0.19912 0.25731 0.22362 0.0
O6 O 0.20319 0.26811 0.21792 0.0
O7 O 0.18783 0.26733 0.16821 0.0
O8 O 0.17962 0.27715 0.18821 0.0
H9 H 0.18009 0.24956 0.03495 0.0
H10 H 0.18091 0.26647 0.31462 0.0
O11 O 0.16207 0.26375 0.29224 0.0
H12 H 0.2066 0.30582 0.27488 0.0
H13 H 0.16395 0.29944 0.30657 0.0
H14 H 0.16337 0.28069 0.17591 0.0
H15 H 0.18943 0.29408 0.23455 0.0
H16 H 0.16935 0.28484 0.30534 0.0
O17 O 0.18888 0.25031 0.21562 0.0
H18 H 0.17732 0.25737 0.0996 0.0
H19 H 0.18086 0.23323 0.16991 0.0
H20 H 0.15795 0.29527 0.17572 0.0
H21 H 0.19795 0.27795 0.35608 0.0
H22 H 0.15821 0.30475 0.24141 0.0
H23 H 0.21094 0.29777 0.33624 0.0
O24 O 0.15731 0.26078 0.20491 0.0
H25 H 0.1593 0.22146 0.29539 0.0
H26 H 0.15661 0.23232 0.15231 0.0
H27 H 0.14248 0.21363 0.17797 0.0
H28 H 0.1438 0.20808 0.24998 0.0
H29 H 0.17319 0.24012 0.26855 0.0
H30 H 0.18379 0.22524 0.10605 0.0
H31 H 0.18336 0.23338 0.03793 0.0
O32 O 0.16442 0.25334 0.16094 0.0
C33 C 0.18679 0.27603 0.16684 0.0
C34 C 0.18026 0.24592 0.06444 0.0
C35 C 0.18236 0.23228 0.10434 0.0
N36 N 0.17885 0.24572 0.13849 0.0
C37 C 0.17867 0.25028 0.10115 0.0
C38 C 0.18072 0.23686 0.14042 0.0
C39 C 0.18211 0.23685 0.06613 0.0
C40 C 0.18648 0.27511 0.30599 0.0
N41 N 0.18412 0.27961 0.2724 0.0
C42 C 0.19613 0.28157 0.3295 0.0
C43 C 0.20342 0.29268 0.31832 0.0
C44 C 0.201 0.2972 0.28389 0.0
C45 C 0.19127 0.2905 0.26112 0.0
C46 C 0.1638 0.29537 0.27776 0.0
C47 C 0.16352 0.28478 0.20462 0.0
C48 C 0.16683 0.28708 0.27687 0.0
N49 N 0.16666 0.2819 0.24058 0.0
C50 C 0.16044 0.29303 0.20432 0.0
C51 C 0.16058 0.29834 0.24119 0.0
C52 C 0.15692 0.25575 0.17123 0.0
C53 C 0.15864 0.22378 0.26395 0.0
C54 C 0.15719 0.23 0.18375 0.0
C55 C 0.14919 0.21939 0.19807 0.0
C56 C 0.14994 0.21628 0.23846 0.0
N57 N 0.16572 0.2373 0.20888 0.0
C58 C 0.16649 0.23432 0.24855 0.0
Co59 Co 0.72793 0.89967 0.22539 0.0
Co60 Co 0.74485 0.92239 0.16318 0.0
O61 O 0.74052 0.91507 0.21782 0.0
C62 C 0.74586 0.90119 0.28499 0.0
O63 O 0.75359 0.91102 0.27116 0.0
C64 C 0.74214 0.93942 0.21088 0.0
O65 O 0.73277 0.93142 0.22698 0.0
O66 O 0.7291 0.91875 0.15152 0.0
O67 O 0.719 0.90214 0.1829 0.0
H68 H 0.74073 0.92488 0.00972 0.0
H69 H 0.73751 0.9153 0.29693 0.0
O70 O 0.73607 0.89622 0.26922 0.0
H71 H 0.69738 0.90389 0.29419 0.0
H72 H 0.70088 0.86563 0.30763 0.0
H73 H 0.71265 0.8817 0.16792 0.0
H74 H 0.70519 0.89646 0.24276 0.0
H75 H 0.71651 0.88498 0.29843 0.0
O76 O 0.74803 0.93706 0.18705 0.0
H77 H 0.73557 0.91595 0.07851 0.0
H78 H 0.76336 0.94441 0.13251 0.0
H79 H 0.69691 0.86234 0.17575 0.0
H80 H 0.73002 0.92279 0.34927 0.0
H81 H 0.69093 0.85418 0.24601 0.0
H82 H 0.70981 0.91712 0.34811 0.0
O83 O 0.73413 0.89386 0.1823 0.0
H84 H 0.77965 0.93747 0.25025 0.0
H85 H 0.76252 0.92035 0.11644 0.0
H86 H 0.78189 0.9248 0.13143 0.0
H87 H 0.7906 0.93347 0.19877 0.0
H88 H 0.76023 0.93268 0.23412 0.0
H89 H 0.76876 0.9537 0.0644 0.0
H90 H 0.75743 0.9439 0.00236 0.0
O91 O 0.74196 0.90808 0.13688 0.0
C92 C 0.7198 0.90991 0.15934 0.0
C93 C 0.74575 0.92923 0.0365 0.0
C94 C 0.76147 0.9454 0.0672 0.0
N95 N 0.74918 0.92962 0.10946 0.0
C96 C 0.74288 0.9242 0.07551 0.0
C97 C 0.75835 0.94012 0.10571 0.0
C98 C 0.75511 0.9399 0.0324 0.0
C99 C 0.72869 0.91263 0.29651 0.0
N100 N 0.72179 0.90529 0.26708 0.0
C101 C 0.7245 0.91697 0.32611 0.0
C102 C 0.71316 0.91381 0.32539 0.0
C103 C 0.70619 0.90639 0.29514 0.0
C104 C 0.71068 0.90222 0.26603 0.0
C105 C 0.7034 0.86909 0.27685 0.0
C106 C 0.71008 0.87823 0.19861 0.0
C107 C 0.71227 0.88003 0.27143 0.0
N108 N 0.71548 0.88449 0.23265 0.0
C109 C 0.70117 0.86725 0.20284 0.0
C110 C 0.69782 0.86268 0.24227 0.0
C111 C 0.7386 0.89795 0.14729 0.0
C112 C 0.77595 0.93367 0.22084 0.0
C113 C 0.76618 0.92393 0.14601 0.0
C114 C 0.77719 0.92653 0.15423 0.0
C115 C 0.78208 0.93141 0.19197 0.0
N116 N 0.76019 0.92611 0.17455 0.0
C117 C 0.76496 0.93096 0.2115 0.0
Co118 Co 0.09877 0.82231 0.24339 0.0
Co119 Co 0.07729 0.82371 0.19277 0.0
O120 O 0.08465 0.82254 0.24293 0.0
C121 C 0.10356 0.84126 0.30044 0.0
O122 O 0.09929 0.84518 0.27322 0.0
C123 C 0.05931 0.80234 0.22847 0.0
O124 O 0.06671 0.79905 0.23318 0.0
O125 O 0.07898 0.81173 0.16427 0.0
O126 O 0.0937 0.81192 0.19552 0.0
H127 H 0.07324 0.82701 0.0397 0.0
H128 H 0.08496 0.81702 0.31944 0.0
O129 O 0.10408 0.83248 0.29256 0.0
H130 H 0.08804 0.78342 0.29178 0.0
H131 H 0.13098 0.82081 0.31121 0.0
H132 H 0.11446 0.82315 0.17879 0.0
H133 H 0.09739 0.79998 0.24623 0.0
H134 H 0.11311 0.82094 0.30994 0.0
O135 O 0.06232 0.81208 0.21443 0.0
H136 H 0.08244 0.82558 0.10304 0.0
H137 H 0.0562 0.82426 0.17658 0.0
H138 H 0.13229 0.82294 0.17863 0.0
H139 H 0.07557 0.80069 0.36606 0.0
H140 H 0.14067 0.82177 0.2452 0.0
H141 H 0.07705 0.78372 0.35227 0.0
O142 O 0.10614 0.83552 0.20486 0.0
H143 H 0.06745 0.84068 0.31167 0.0
H144 H 0.0818 0.84654 0.16873 0.0
H145 H 0.08022 0.86159 0.20392 0.0
H146 H 0.07298 0.85869 0.27592 0.0
H147 H 0.06927 0.8259 0.27537 0.0
H148 H 0.04666 0.82556 0.11399 0.0
H149 H 0.05521 0.827 0.04494 0.0
O150 O 0.09192 0.83528 0.16972 0.0
C151 C 0.08597 0.80827 0.1684 0.0
C152 C 0.06944 0.82642 0.06961 0.0
C153 C 0.05452 0.82558 0.1113 0.0
N154 N 0.06989 0.82489 0.14349 0.0
C155 C 0.07462 0.82563 0.1056 0.0
C156 C 0.05994 0.82481 0.14663 0.0
C157 C 0.05932 0.8264 0.07257 0.0
C158 C 0.08571 0.8097 0.31341 0.0
N159 N 0.09173 0.80946 0.28019 0.0
C160 C 0.08034 0.80046 0.33984 0.0
C161 C 0.08117 0.79094 0.33206 0.0
C162 C 0.08733 0.79076 0.29812 0.0
C163 C 0.09258 0.80015 0.27236 0.0
C164 C 0.12741 0.82132 0.28201 0.0
C165 C 0.11803 0.82259 0.20787 0.0
C166 C 0.11732 0.82144 0.2811 0.0
N167 N 0.11273 0.82203 0.24431 0.0
C168 C 0.12814 0.8225 0.20759 0.0
C169 C 0.13284 0.82185 0.24496 0.0
C170 C 0.10234 0.83922 0.17652 0.0
C171 C 0.07061 0.84204 0.28028 0.0
C172 C 0.07872 0.84526 0.20012 0.0
C173 C 0.0778 0.85378 0.21985 0.0
C174 C 0.07372 0.85215 0.26023 0.0
N175 N 0.07565 0.83537 0.21999 0.0
C176 C 0.07163 0.83369 0.25955 0.0
Co177 Co 0.27089 0.16969 0.27455 0.0
Co178 Co 0.25812 0.18035 0.3351 0.0
O179 O 0.25985 0.17459 0.28182 0.0
C180 C 0.2512 0.15438 0.21936 0.0
O181 O 0.24547 0.1593 0.22943 0.0
C182 C 0.25963 0.19883 0.28144 0.0
O183 O 0.26998 0.20177 0.27118 0.0
O184 O 0.27425 0.19211 0.33427 0.0
O185 O 0.28164 0.18172 0.31284 0.0
H186 H 0.26931 0.19507 0.47983 0.0
H187 H 0.26201 0.17685 0.20304 0.0
O188 O 0.26078 0.15744 0.23533 0.0
H189 H 0.30317 0.19958 0.1926 0.0
H190 H 0.29269 0.15541 0.19476 0.0
H191 H 0.28565 0.16622 0.33213 0.0
H192 H 0.29437 0.18583 0.24881 0.0
H193 H 0.27918 0.1621 0.20296 0.0
O194 O 0.25397 0.19051 0.30532 0.0
H195 H 0.27114 0.18737 0.41329 0.0
H196 H 0.24164 0.18642 0.36857 0.0
H197 H 0.29932 0.15968 0.32523 0.0
H198 H 0.27044 0.19034 0.14613 0.0
H199 H 0.30291 0.15422 0.25615 0.0
H200 H 0.29119 0.20187 0.14051 0.0
O201 O 0.26405 0.15903 0.32158 0.0
H202 H 0.21949 0.15741 0.27456 0.0
H203 H 0.24303 0.16363 0.3978 0.0
H204 H 0.22316 0.1487 0.39884 0.0
H205 H 0.21124 0.14552 0.33694 0.0
H206 H 0.23943 0.17218 0.27469 0.0
H207 H 0.23955 0.1942 0.43451 0.0
H208 H 0.25342 0.19853 0.49077 0.0
O209 O 0.26199 0.17021 0.3667 0.0
C210 C 0.28262 0.19068 0.32844 0.0
C211 C 0.26319 0.19317 0.45561 0.0
C212 C 0.24649 0.1927 0.43015 0.0
N213 N 0.25645 0.18634 0.38722 0.0
C214 C 0.26416 0.18878 0.41791 0.0
C215 C 0.24773 0.18832 0.39285 0.0
C216 C 0.25428 0.19513 0.46171 0.0
C217 C 0.27101 0.1816 0.20061 0.0
N218 N 0.27763 0.18025 0.22887 0.0
C219 C 0.27576 0.18934 0.16837 0.0
C220 C 0.28739 0.19583 0.16529 0.0
C221 C 0.29411 0.19454 0.19448 0.0
C222 C 0.28906 0.18672 0.22628 0.0
C223 C 0.29121 0.15778 0.22502 0.0
C224 C 0.28722 0.16392 0.30193 0.0
C225 C 0.28354 0.16154 0.22988 0.0
N226 N 0.28168 0.16462 0.26797 0.0
C227 C 0.29494 0.1602 0.29823 0.0
C228 C 0.29694 0.15712 0.25947 0.0
C229 C 0.26248 0.16141 0.35818 0.0
C230 C 0.2246 0.1587 0.30172 0.0
C231 C 0.23793 0.16224 0.37058 0.0
C232 C 0.22667 0.1538 0.37144 0.0
C233 C 0.21998 0.15203 0.33671 0.0
N234 N 0.24242 0.16874 0.33609 0.0
C235 C 0.2359 0.16707 0.30199 0.0
Co236 Co 0.82892 0.09777 0.28048 0.0
Co237 Co 0.81847 0.07247 0.32988 0.0
O238 O 0.82284 0.0814 0.2785 0.0
C239 C 0.84113 0.09425 0.20814 0.0
O240 O 0.8362 0.08336 0.2138 0.0
C241 C 0.80105 0.05732 0.26679 0.0
O242 O 0.80498 0.06496 0.23758 0.0
O243 O 0.808 0.07802 0.34335 0.0
O244 O 0.81916 0.09622 0.32891 0.0
H245 H 0.8103 0.06673 0.48224 0.0
H246 H 0.81881 0.08532 0.20175 0.0
O247 O 0.83908 0.10039 0.23196 0.0
H248 H 0.79766 0.10444 0.23576 0.0
H249 H 0.84277 0.13627 0.2201 0.0
H250 H 0.83654 0.1145 0.34836 0.0
H251 H 0.81301 0.10653 0.28086 0.0
H252 H 0.8347 0.11575 0.21743 0.0
O253 O 0.80568 0.05925 0.3022 0.0
H254 H 0.81596 0.0775 0.4171 0.0
H255 H 0.81128 0.04871 0.35171 0.0
H256 H 0.84455 0.13499 0.35243 0.0
H257 H 0.80367 0.08316 0.15554 0.0
H258 H 0.84772 0.14602 0.28797 0.0
H259 H 0.79293 0.09274 0.17242 0.0
O260 O 0.84106 0.09948 0.31843 0.0
H261 H 0.83589 0.05626 0.23579 0.0
H262 H 0.83602 0.07024 0.37625 0.0
H263 H 0.84919 0.06361 0.35914 0.0
H264 H 0.84915 0.05651 0.28849 0.0
H265 H 0.82297 0.06308 0.2541 0.0
H266 H 0.80547 0.0376 0.41608 0.0
H267 H 0.80501 0.04663 0.48199 0.0
O268 O 0.83091 0.08515 0.36122 0.0
C269 C 0.81037 0.08821 0.34525 0.0
C270 C 0.81051 0.06271 0.45374 0.0
C271 C 0.80778 0.04636 0.4166 0.0
N272 N 0.81405 0.06378 0.38069 0.0
C273 C 0.81373 0.06878 0.41677 0.0
C274 C 0.81106 0.05269 0.38023 0.0
C275 C 0.80753 0.05143 0.45357 0.0
C276 C 0.81435 0.08966 0.20915 0.0
N277 N 0.81696 0.09616 0.24383 0.0
C278 C 0.8057 0.08834 0.18292 0.0
C279 C 0.79966 0.09369 0.19244 0.0
C280 C 0.80231 0.10026 0.22797 0.0
C281 C 0.81101 0.10138 0.25346 0.0
C282 C 0.84141 0.13155 0.2484 0.0
C283 C 0.83783 0.11922 0.32018 0.0
C284 C 0.83687 0.11993 0.24709 0.0
N285 N 0.83508 0.11391 0.28274 0.0
C286 C 0.84239 0.13083 0.32267 0.0
C287 C 0.84418 0.13702 0.2865 0.0
C288 C 0.83975 0.09439 0.35273 0.0
C289 C 0.83596 0.05929 0.26673 0.0
C290 C 0.83598 0.06722 0.34537 0.0
C291 C 0.84344 0.06345 0.33591 0.0
C292 C 0.84341 0.05945 0.29629 0.0
N293 N 0.82865 0.067 0.31626 0.0
C294 C 0.82861 0.06313 0.27734 0.0
Co295 Co 0.89962 0.72808 0.2689 0.0
Co296 Co 0.92435 0.74552 0.31705 0.0
O297 O 0.91559 0.73919 0.26689 0.0
C298 C 0.89947 0.7442 0.20734 0.0
O299 O 0.90357 0.75216 0.2354 0.0
C300 C 0.94083 0.73949 0.28084 0.0
O301 O 0.93417 0.72884 0.28941 0.0
O302 O 0.91979 0.73015 0.33771 0.0
O303 O 0.90151 0.72136 0.3209 0.0
H304 H 0.93131 0.74825 0.47033 0.0
H305 H 0.91292 0.73054 0.19335 0.0
O306 O 0.89739 0.73434 0.21619 0.0
H307 H 0.89735 0.69118 0.23706 0.0
H308 H 0.86246 0.70027 0.20602 0.0
H309 H 0.88227 0.71877 0.3348 0.0
H310 H 0.89308 0.70394 0.27634 0.0
H311 H 0.88273 0.71404 0.20512 0.0
O312 O 0.93785 0.74671 0.28856 0.0
H313 H 0.92018 0.74053 0.40667 0.0
H314 H 0.94777 0.76384 0.33388 0.0
H315 H 0.86202 0.705 0.33712 0.0
H316 H 0.91732 0.71803 0.15292 0.0
H317 H 0.85198 0.69564 0.2724 0.0
H318 H 0.90952 0.6982 0.17477 0.0
O319 O 0.89657 0.73837 0.30288 0.0
H320 H 0.93746 0.7759 0.20955 0.0
H321 H 0.92506 0.76575 0.35412 0.0
H322 H 0.92988 0.78449 0.3282 0.0
H323 H 0.93615 0.78967 0.25543 0.0
H324 H 0.93247 0.75722 0.23668 0.0
H325 H 0.95923 0.77173 0.39673 0.0
H326 H 0.95098 0.76396 0.46559 0.0
O327 O 0.91121 0.74486 0.34632 0.0
C328 C 0.90979 0.72191 0.34061 0.0
C329 C 0.93499 0.75172 0.44051 0.0
C330 C 0.95066 0.76489 0.3992 0.0
N331 N 0.93329 0.75177 0.36662 0.0
C332 C 0.92872 0.7474 0.40436 0.0
C333 C 0.94414 0.76037 0.36371 0.0
C334 C 0.94603 0.76053 0.43783 0.0
C335 C 0.90943 0.7219 0.20286 0.0
N336 N 0.90269 0.71797 0.237 0.0
C337 C 0.91197 0.71486 0.17992 0.0
C338 C 0.90761 0.70374 0.19223 0.0
C339 C 0.90078 0.6998 0.22717 0.0
C340 C 0.89841 0.70707 0.24933 0.0
C341 C 0.86675 0.70428 0.23443 0.0
C342 C 0.87798 0.7147 0.30652 0.0
C343 C 0.87822 0.71211 0.2341 0.0
N344 N 0.8837 0.71717 0.26991 0.0
C345 C 0.8665 0.70693 0.30802 0.0
C346 C 0.86087 0.70169 0.27169 0.0
C347 C 0.90151 0.74321 0.33646 0.0
C348 C 0.93476 0.77375 0.24134 0.0
C349 C 0.92774 0.76792 0.32239 0.0
C350 C 0.93049 0.77856 0.30791 0.0
C351 C 0.93401 0.78147 0.26709 0.0
N352 N 0.92852 0.7604 0.29699 0.0
C353 C 0.93195 0.76319 0.25691 0.0
Co354 Co 0.83096 0.73415 0.76653 0.0
Co355 Co 0.82402 0.75025 0.82684 0.0
O356 O 0.82665 0.74561 0.77291 0.0
C357 C 0.85072 0.74577 0.71141 0.0
O358 O 0.85661 0.7445 0.74072 0.0
C359 C 0.80246 0.74529 0.786 0.0
O360 O 0.7998 0.73481 0.78007 0.0
O361 O 0.81303 0.73435 0.84144 0.0
O362 O 0.8215 0.72544 0.81454 0.0
H363 H 0.8193 0.74791 0.98132 0.0
H364 H 0.82178 0.74046 0.69493 0.0
O365 O 0.8404 0.74264 0.71752 0.0
H366 H 0.79594 0.69998 0.7157 0.0
H367 H 0.83913 0.70788 0.68465 0.0
H368 H 0.83789 0.72188 0.8238 0.0
H369 H 0.81249 0.71031 0.76059 0.0
H370 H 0.83345 0.72214 0.69386 0.0
O371 O 0.81176 0.75223 0.80274 0.0
H372 H 0.82293 0.74238 0.91303 0.0
H373 H 0.81889 0.76786 0.85514 0.0
H374 H 0.84358 0.70759 0.81601 0.0
H375 H 0.80538 0.73043 0.64904 0.0
H376 H 0.84423 0.7005 0.74602 0.0
H377 H 0.79231 0.71004 0.65934 0.0
O378 O 0.84389 0.74248 0.80505 0.0
H379 H 0.84138 0.78386 0.73299 0.0
H380 H 0.84332 0.7693 0.87023 0.0
H381 H 0.85717 0.7888 0.85169 0.0
H382 H 0.85623 0.79621 0.78264 0.0
H383 H 0.82777 0.76436 0.75272 0.0
H384 H 0.81511 0.77359 0.92274 0.0
H385 H 0.81535 0.76362 0.98647 0.0
O386 O 0.8364 0.7487 0.85249 0.0
C387 C 0.81416 0.72574 0.83773 0.0
C388 C 0.8192 0.75234 0.95378 0.0
C389 C 0.81683 0.76674 0.9209 0.0
N390 N 0.8212 0.75484 0.88016 0.0
C391 C 0.82128 0.74927 0.91504 0.0
C392 C 0.81895 0.76344 0.88269 0.0
C393 C 0.81698 0.76115 0.95665 0.0
C394 C 0.81619 0.73157 0.69937 0.0
N395 N 0.81815 0.72597 0.73019 0.0
C396 C 0.80689 0.72594 0.67339 0.0
C397 C 0.79956 0.71451 0.67922 0.0
C398 C 0.80158 0.70886 0.71084 0.0
C399 C 0.81096 0.71476 0.73623 0.0
C400 C 0.83888 0.7109 0.7153 0.0
C401 C 0.83813 0.71882 0.79325 0.0
C402 C 0.83568 0.71898 0.72072 0.0
N403 N 0.83534 0.72284 0.75936 0.0
C404 C 0.84137 0.71073 0.78903 0.0
C405 C 0.84174 0.70676 0.74975 0.0
C406 C 0.84403 0.74667 0.84043 0.0
C407 C 0.84188 0.78073 0.76317 0.0
C408 C 0.84293 0.77242 0.84002 0.0
C409 C 0.85076 0.78349 0.82975 0.0
C410 C 0.85021 0.78765 0.79102 0.0
N411 N 0.83477 0.76568 0.81257 0.0
C412 C 0.83419 0.7697 0.77453 0.0
Co413 Co 0.27212 0.1 0.79211 0.0
Co414 Co 0.25519 0.07494 0.8386 0.0
O415 O 0.26039 0.08416 0.7885 0.0
C416 C 0.25668 0.09869 0.72232 0.0
O417 O 0.24963 0.08803 0.72927 0.0
C418 C 0.2583 0.05833 0.78829 0.0
O419 O 0.26919 0.06518 0.78643 0.0
O420 O 0.27076 0.07819 0.84908 0.0
O421 O 0.27957 0.09678 0.83944 0.0
H422 H 0.25752 0.06623 0.98803 0.0
H423 H 0.2679 0.08716 0.71336 0.0
O424 O 0.26541 0.10414 0.74467 0.0
H425 H 0.30803 0.1023 0.74383 0.0
H426 H 0.30004 0.13804 0.73548 0.0
H427 H 0.28293 0.11586 0.86174 0.0
H428 H 0.29624 0.10627 0.79022 0.0
H429 H 0.28573 0.11799 0.73075 0.0
O430 O 0.25191 0.06133 0.80567 0.0
H431 H 0.26353 0.07784 0.92484 0.0
H432 H 0.23627 0.05199 0.85805 0.0
H433 H 0.29728 0.13586 0.86786 0.0
H434 H 0.27941 0.08312 0.66591 0.0
H435 H 0.30594 0.14709 0.80442 0.0
H436 H 0.29964 0.09069 0.68099 0.0
O437 O 0.26261 0.10275 0.83137 0.0
H438 H 0.22107 0.06364 0.75053 0.0
H439 H 0.23749 0.07585 0.88946 0.0
H440 H 0.21835 0.07229 0.87589 0.0
H441 H 0.21 0.06611 0.80602 0.0
H442 H 0.24025 0.06741 0.76534 0.0
H443 H 0.23003 0.04007 0.92039 0.0
H444 H 0.24066 0.0472 0.98604 0.0
O445 O 0.25796 0.08817 0.87346 0.0
C446 C 0.27938 0.08791 0.85211 0.0
C447 C 0.2528 0.06305 0.95964 0.0
C448 C 0.23738 0.04836 0.92167 0.0
N449 N 0.25021 0.06564 0.88788 0.0
C450 C 0.25615 0.06959 0.92379 0.0
C451 C 0.24097 0.05514 0.88644 0.0
C452 C 0.24334 0.05236 0.9585 0.0
C453 C 0.27671 0.09066 0.71988 0.0
N454 N 0.2814 0.09716 0.75415 0.0
C455 C 0.28319 0.08827 0.69299 0.0
C456 C 0.29453 0.0925 0.70151 0.0
C457 C 0.29924 0.09902 0.73673 0.0
C458 C 0.29251 0.10125 0.76287 0.0
C459 C 0.29634 0.13323 0.76335 0.0
C460 C 0.2867 0.12067 0.83399 0.0
C461 C 0.28821 0.12188 0.76088 0.0
N462 N 0.28354 0.11573 0.79596 0.0
C463 C 0.2948 0.132 0.83765 0.0
C464 C 0.29965 0.1383 0.80204 0.0
C465 C 0.25891 0.09771 0.8658 0.0
C466 C 0.22462 0.06635 0.78108 0.0
C467 C 0.23398 0.07328 0.85885 0.0
C468 C 0.2231 0.07122 0.85141 0.0
C469 C 0.21842 0.06774 0.81222 0.0
N470 N 0.24003 0.07194 0.82809 0.0
C471 C 0.23547 0.06849 0.78966 0.0
Co472 Co 0.91981 0.18092 0.83304 0.0
Co473 Co 0.8979 0.169 0.76429 0.0
O474 O 0.91371 0.17505 0.77828 0.0
C475 C 0.93913 0.20322 0.81308 0.0
O476 O 0.93467 0.20744 0.83818 0.0
C477 C 0.8919 0.14722 0.72564 0.0
O478 O 0.88425 0.1424 0.75461 0.0
O479 O 0.89336 0.15844 0.81243 0.0
O480 O 0.90584 0.16924 0.8607 0.0
H481 H 0.85729 0.15528 0.79566 0.0
H482 H 0.93292 0.1753 0.77474 0.0
O483 O 0.93401 0.19269 0.80601 0.0
H484 H 0.92677 0.15158 0.8974 0.0
H485 H 0.94999 0.19636 0.94238 0.0
H486 H 0.91103 0.18604 0.90861 0.0
H487 H 0.91943 0.16465 0.89527 0.0
H488 H 0.94204 0.18869 0.87372 0.0
O489 O 0.89876 0.15775 0.72721 0.0
H490 H 0.87735 0.16318 0.81222 0.0
H491 H 0.88465 0.16156 0.68558 0.0
H492 H 0.91864 0.19365 0.97766 0.0
H493 H 0.94053 0.16244 0.7758 0.0
H494 H 0.93825 0.19887 0.99492 0.0
H495 H 0.93746 0.15046 0.83744 0.0
O496 O 0.91345 0.1911 0.83071 0.0
H497 H 0.92135 0.189 0.6399 0.0
H498 H 0.89069 0.1847 0.73083 0.0
H499 H 0.8968 0.19819 0.67311 0.0
H500 H 0.91221 0.20037 0.62699 0.0
H501 H 0.91508 0.17573 0.69842 0.0
H502 H 0.86466 0.15359 0.66769 0.0
H503 H 0.85083 0.15041 0.72295 0.0
O504 O 0.89684 0.18037 0.79972 0.0
C505 C 0.89681 0.16045 0.84984 0.0
C506 C 0.86323 0.15663 0.77131 0.0
C507 C 0.86737 0.15568 0.69949 0.0
N508 N 0.88217 0.16284 0.74994 0.0
C509 C 0.87461 0.16111 0.7805 0.0
C510 C 0.87868 0.16019 0.70982 0.0
C511 C 0.85962 0.1539 0.73051 0.0
C512 C 0.93162 0.17018 0.80181 0.0
N513 N 0.92581 0.1708 0.835 0.0
C514 C 0.93592 0.16288 0.80217 0.0
C515 C 0.93418 0.15615 0.83674 0.0
C516 C 0.92818 0.15678 0.87039 0.0
C517 C 0.92401 0.16417 0.86894 0.0
C518 C 0.94143 0.1941 0.93526 0.0
C519 C 0.91956 0.18826 0.91592 0.0
C520 C 0.93688 0.18975 0.89645 0.0
N521 N 0.92606 0.18688 0.88723 0.0
C522 C 0.92383 0.19258 0.95506 0.0
C523 C 0.93484 0.19551 0.96472 0.0
C524 C 0.9037 0.1891 0.81995 0.0
C525 C 0.91462 0.18813 0.65976 0.0
C526 C 0.89747 0.18569 0.71127 0.0
C527 C 0.90086 0.1933 0.67844 0.0
C528 C 0.9095 0.19451 0.65255 0.0
N529 N 0.90251 0.17943 0.7181 0.0
C530 C 0.91101 0.1806 0.6929 0.0
Co531 Co 0.74519 0.8213 0.67206 0.0
Co532 Co 0.72422 0.82493 0.71099 0.0
O533 O 0.73681 0.82231 0.71883 0.0
C534 C 0.74021 0.80045 0.71734 0.0
O535 O 0.72944 0.79701 0.715 0.0
C536 C 0.73766 0.84146 0.77616 0.0
O537 O 0.74639 0.84556 0.75134 0.0
O538 O 0.734 0.83889 0.67921 0.0
O539 O 0.74336 0.83281 0.64019 0.0
H540 H 0.6992 0.83494 0.63037 0.0
H541 H 0.75513 0.82585 0.75595 0.0
O542 O 0.74745 0.80997 0.70282 0.0
H543 H 0.78186 0.85788 0.67068 0.0
H544 H 0.77629 0.81772 0.60495 0.0
H545 H 0.74215 0.82015 0.5811 0.0
H546 H 0.76466 0.84246 0.6398 0.0
H547 H 0.76584 0.8195 0.66369 0.0
O548 O 0.72822 0.83343 0.76432 0.0
H549 H 0.7148 0.83116 0.63987 0.0
H550 H 0.70715 0.82495 0.76783 0.0
H551 H 0.7524 0.81848 0.52143 0.0
H552 H 0.77229 0.84105 0.78806 0.0
H553 H 0.7696 0.81725 0.5332 0.0
H554 H 0.78578 0.85722 0.74534 0.0
O555 O 0.73101 0.80905 0.64799 0.0
H556 H 0.71487 0.79741 0.82738 0.0
H557 H 0.70146 0.80511 0.69673 0.0
H558 H 0.68959 0.78729 0.73332 0.0
H559 H 0.69627 0.78335 0.79924 0.0
H560 H 0.72655 0.81507 0.78945 0.0
H561 H 0.69151 0.82873 0.75976 0.0
H562 H 0.68743 0.83372 0.6906 0.0
O563 O 0.71972 0.81624 0.65795 0.0
C564 C 0.74013 0.83985 0.64806 0.0
C565 C 0.70088 0.83274 0.66064 0.0
C566 C 0.69657 0.82927 0.73327 0.0
N567 N 0.71185 0.82777 0.7043 0.0
C568 C 0.70969 0.83056 0.66619 0.0
C569 C 0.70546 0.82716 0.73767 0.0
C570 C 0.69428 0.83206 0.69445 0.0
C571 C 0.76101 0.83283 0.73711 0.0
N572 N 0.75891 0.83326 0.69603 0.0
C573 C 0.77069 0.84142 0.75548 0.0
C574 C 0.77824 0.8505 0.7315 0.0
C575 C 0.77605 0.85088 0.68963 0.0
C576 C 0.76627 0.84214 0.67233 0.0
C577 C 0.76882 0.81827 0.59942 0.0
C578 C 0.74966 0.81968 0.58643 0.0
C579 C 0.76285 0.81925 0.63256 0.0
N580 N 0.75344 0.82001 0.62578 0.0
C581 C 0.75542 0.81871 0.55254 0.0
C582 C 0.76506 0.81801 0.55917 0.0
C583 C 0.72191 0.80912 0.64163 0.0
C584 C 0.71186 0.79904 0.79876 0.0
C585 C 0.70445 0.80346 0.72533 0.0
C586 C 0.69767 0.79335 0.74596 0.0
C587 C 0.70143 0.79115 0.78293 0.0
N588 N 0.71468 0.81115 0.74103 0.0
C589 C 0.71841 0.80905 0.77723 0.0
Co590 Co 0.17551 0.89913 0.73874 0.0
Co591 Co 0.17527 0.92216 0.69698 0.0
O592 O 0.17599 0.91354 0.74398 0.0
C593 C 0.15743 0.89419 0.80065 0.0
O594 O 0.15351 0.89919 0.77689 0.0
C595 C 0.19674 0.93936 0.7351 0.0
O596 O 0.20047 0.93226 0.73291 0.0
O597 O 0.18736 0.921 0.66694 0.0
O598 O 0.18551 0.90469 0.68966 0.0
H599 H 0.17324 0.93019 0.54651 0.0
H600 H 0.18212 0.91174 0.81782 0.0
O601 O 0.1658 0.89332 0.78904 0.0
H602 H 0.2142 0.90707 0.77859 0.0
H603 H 0.17579 0.86491 0.79264 0.0
H604 H 0.17334 0.88438 0.6684 0.0
H605 H 0.19723 0.89922 0.73502 0.0
H606 H 0.17661 0.88316 0.79868 0.0
O607 O 0.1868 0.93644 0.72353 0.0
H608 H 0.17407 0.91934 0.60581 0.0
H609 H 0.17519 0.94373 0.68917 0.0
H610 H 0.17258 0.86619 0.66092 0.0
H611 H 0.19889 0.91964 0.86251 0.0
H612 H 0.1738 0.85632 0.72335 0.0
H613 H 0.2151 0.91736 0.84292 0.0
O614 O 0.16198 0.89301 0.70194 0.0
H615 H 0.1576 0.92932 0.82055 0.0
H616 H 0.15268 0.91848 0.67343 0.0
H617 H 0.13748 0.91941 0.71039 0.0
H618 H 0.1399 0.92488 0.7845 0.0
H619 H 0.17254 0.92818 0.78244 0.0
H620 H 0.17448 0.95489 0.63074 0.0
H621 H 0.17345 0.94811 0.5588 0.0
O622 O 0.16376 0.90823 0.66929 0.0
C623 C 0.18992 0.91328 0.66628 0.0
C624 C 0.17366 0.93321 0.57772 0.0
C625 C 0.17437 0.94709 0.62499 0.0
N626 N 0.17459 0.93085 0.65092 0.0
C627 C 0.17409 0.92709 0.61143 0.0
C628 C 0.1748 0.94074 0.65794 0.0
C629 C 0.17379 0.94327 0.58464 0.0
C630 C 0.18911 0.91065 0.80921 0.0
N631 N 0.18869 0.90501 0.77387 0.0
C632 C 0.1986 0.91517 0.83459 0.0
C633 C 0.20769 0.91389 0.82356 0.0
C634 C 0.2072 0.90813 0.78748 0.0
C635 C 0.19757 0.90372 0.76287 0.0
C636 C 0.17525 0.86912 0.76521 0.0
C637 C 0.17392 0.88016 0.6957 0.0
C638 C 0.17566 0.87945 0.76845 0.0
N639 N 0.17504 0.88485 0.73392 0.0
C640 C 0.17347 0.86985 0.69128 0.0
C641 C 0.17414 0.86431 0.72632 0.0
C642 C 0.15904 0.89764 0.67417 0.0
C643 C 0.15645 0.92694 0.78825 0.0
C644 C 0.15376 0.92079 0.70571 0.0
C645 C 0.14515 0.92135 0.72645 0.0
C646 C 0.14652 0.92443 0.76802 0.0
N647 N 0.16348 0.92326 0.72575 0.0
C648 C 0.16489 0.92631 0.76649 0.0
Co649 Co 0.09716 0.27336 0.74898 0.0
Co650 Co 0.0746 0.25267 0.69521 0.0
O651 O 0.08235 0.25982 0.7467 0.0
C652 C 0.10097 0.25777 0.80256 0.0
O653 O 0.09791 0.25046 0.77231 0.0
C654 C 0.05724 0.25599 0.73726 0.0
O655 O 0.06485 0.26652 0.74391 0.0
O656 O 0.07693 0.26722 0.67288 0.0
O657 O 0.09318 0.28014 0.70219 0.0
H658 H 0.06973 0.24905 0.54088 0.0
H659 H 0.08259 0.26491 0.8233 0.0
O660 O 0.10126 0.26707 0.79729 0.0
H661 H 0.09035 0.30369 0.80389 0.0
H662 H 0.1309 0.30425 0.82151 0.0
H663 H 0.11385 0.28799 0.68649 0.0
H664 H 0.09854 0.29562 0.75669 0.0
H665 H 0.11211 0.28739 0.81775 0.0
O666 O 0.05993 0.2494 0.71963 0.0
H667 H 0.07945 0.25791 0.606 0.0
H668 H 0.05295 0.23198 0.67539 0.0
H669 H 0.13262 0.30492 0.68884 0.0
H670 H 0.07432 0.27268 0.8715 0.0
H671 H 0.14127 0.31315 0.75673 0.0
H672 H 0.07815 0.29219 0.86186 0.0
O673 O 0.10363 0.26688 0.70914 0.0
H674 H 0.06411 0.22298 0.80398 0.0
H675 H 0.07806 0.2344 0.66162 0.0
H676 H 0.07581 0.2167 0.68944 0.0
H677 H 0.06876 0.21087 0.76111 0.0
H678 H 0.06659 0.24066 0.77498 0.0
H679 H 0.04289 0.22289 0.61103 0.0
H680 H 0.0513 0.2314 0.54314 0.0
O681 O 0.08889 0.25562 0.66934 0.0
C682 C 0.08501 0.27726 0.67721 0.0
C683 C 0.06598 0.24525 0.57026 0.0
C684 C 0.05091 0.23057 0.60964 0.0
N685 N 0.06679 0.24546 0.64446 0.0
C686 C 0.07146 0.25022 0.60725 0.0
C687 C 0.05663 0.23578 0.64599 0.0
C688 C 0.05564 0.23535 0.57156 0.0
C689 C 0.08433 0.27342 0.81899 0.0
N690 N 0.091 0.27979 0.78708 0.0
C691 C 0.07961 0.27777 0.84635 0.0
C692 C 0.08176 0.28871 0.8409 0.0
C693 C 0.08859 0.29517 0.80837 0.0
C694 C 0.09317 0.29054 0.78163 0.0
C695 C 0.12722 0.30074 0.79174 0.0
C696 C 0.11753 0.29156 0.71614 0.0
C697 C 0.11659 0.29117 0.78941 0.0
N698 N 0.11186 0.28674 0.75191 0.0
C699 C 0.12817 0.30113 0.71728 0.0
C700 C 0.13302 0.30574 0.75538 0.0
C701 C 0.09934 0.26062 0.67741 0.0
C702 C 0.06717 0.22541 0.77268 0.0
C703 C 0.07505 0.23195 0.69287 0.0
C704 C 0.07375 0.2219 0.70843 0.0
C705 C 0.06979 0.21863 0.74863 0.0
N706 N 0.07244 0.23855 0.71662 0.0
C707 C 0.06856 0.2354 0.75606 0.0
Co708 Co 0.83447 0.59781 0.56379 0.0
Co709 Co 0.84559 0.58679 0.49622 0.0
O710 O 0.84052 0.58787 0.55194 0.0
C711 C 0.81366 0.58318 0.61041 0.0
O712 O 0.8082 0.58502 0.58094 0.0
C713 C 0.86441 0.58943 0.55023 0.0
O714 O 0.86319 0.59644 0.57412 0.0
O715 O 0.85586 0.60332 0.49477 0.0
O716 O 0.84478 0.60917 0.5227 0.0
H717 H 0.85548 0.59835 0.34774 0.0
H718 H 0.84246 0.58967 0.63365 0.0
O719 O 0.82415 0.58681 0.60638 0.0
H720 H 0.86567 0.63091 0.63822 0.0
H721 H 0.82098 0.6182 0.65626 0.0
H722 H 0.82707 0.61073 0.51219 0.0
H723 H 0.85104 0.62166 0.585 0.0
H724 H 0.8288 0.6059 0.64122 0.0
O725 O 0.85798 0.58485 0.51941 0.0
H726 H 0.84886 0.59923 0.41779 0.0
H727 H 0.85353 0.57236 0.45681 0.0
H728 H 0.81926 0.6231 0.52588 0.0
H729 H 0.85686 0.59859 0.68792 0.0
H730 H 0.81616 0.62691 0.59835 0.0
H731 H 0.86862 0.61936 0.69033 0.0
O732 O 0.82292 0.59033 0.51947 0.0
H733 H 0.82817 0.54866 0.56207 0.0
H734 H 0.82871 0.56984 0.43817 0.0
H735 H 0.81576 0.54941 0.44093 0.0
H736 H 0.81546 0.53867 0.50318 0.0
H737 H 0.84091 0.56914 0.55815 0.0
H738 H 0.86029 0.57125 0.38729 0.0
H739 H 0.86125 0.58428 0.33212 0.0
O740 O 0.83336 0.58851 0.47025 0.0
C741 C 0.85352 0.61099 0.50262 0.0
C742 C 0.85506 0.5926 0.37148 0.0
C743 C 0.85777 0.5774 0.39369 0.0
N744 N 0.85072 0.5858 0.44128 0.0
C745 C 0.8513 0.59304 0.41118 0.0
C746 C 0.85396 0.57809 0.43303 0.0
C747 C 0.85831 0.58471 0.36275 0.0
C748 C 0.84745 0.59871 0.63478 0.0
N749 N 0.84587 0.60512 0.60621 0.0
C750 C 0.85563 0.60372 0.66546 0.0
C751 C 0.86224 0.61537 0.66675 0.0
C752 C 0.8606 0.62185 0.63748 0.0
C753 C 0.85234 0.61655 0.60726 0.0
C754 C 0.82229 0.61661 0.62455 0.0
C755 C 0.82575 0.61234 0.54382 0.0
C756 C 0.82671 0.60965 0.61582 0.0
N757 N 0.82839 0.60758 0.57582 0.0
C758 C 0.82133 0.61936 0.55138 0.0
C759 C 0.81959 0.62149 0.59205 0.0
C760 C 0.82448 0.58844 0.48209 0.0
C761 C 0.82823 0.55325 0.53476 0.0
C762 C 0.82858 0.56525 0.46547 0.0
C763 C 0.82125 0.55367 0.4668 0.0
C764 C 0.8211 0.54765 0.50172 0.0
N765 N 0.83557 0.57067 0.49795 0.0
C766 C 0.83545 0.56483 0.53233 0.0
Co767 Co 0.39383 0.23348 0.54792 0.0
Co768 Co 0.41423 0.25763 0.50381 0.0
O769 O 0.40655 0.24872 0.55247 0.0
C770 C 0.40817 0.23043 0.60981 0.0
O771 O 0.41646 0.2345 0.58301 0.0
C772 C 0.40999 0.27418 0.54785 0.0
O773 O 0.39915 0.26704 0.54652 0.0
O774 O 0.39977 0.25549 0.4817 0.0
O775 O 0.38844 0.23723 0.49615 0.0
H776 H 0.41936 0.26629 0.3517 0.0
H777 H 0.39767 0.24637 0.62559 0.0
O778 O 0.39873 0.2294 0.60019 0.0
H779 H 0.35979 0.2369 0.57907 0.0
H780 H 0.36195 0.19757 0.60481 0.0
H781 H 0.38308 0.2172 0.47938 0.0
H782 H 0.37094 0.23063 0.53925 0.0
H783 H 0.37776 0.217 0.60891 0.0
O784 O 0.41697 0.27153 0.53343 0.0
H785 H 0.40992 0.25494 0.41349 0.0
H786 H 0.43481 0.27989 0.49097 0.0
H787 H 0.36728 0.1978 0.47386 0.0
H788 H 0.38676 0.25272 0.66658 0.0
H789 H 0.35659 0.18785 0.53688 0.0
H790 H 0.36768 0.24801 0.64331 0.0
O791 O 0.40292 0.22886 0.51374 0.0
H792 H 0.44298 0.26603 0.6146 0.0
H793 H 0.43305 0.25532 0.46857 0.0
H794 H 0.45065 0.2573 0.49639 0.0
H795 H 0.45572 0.26271 0.56989 0.0
H796 H 0.42542 0.26388 0.58557 0.0
H797 H 0.44447 0.29156 0.43005 0.0
H798 H 0.43677 0.28474 0.35978 0.0
O799 O 0.41186 0.244 0.47297 0.0
C800 C 0.39059 0.24625 0.47749 0.0
C801 C 0.42282 0.26933 0.38215 0.0
C802 C 0.4369 0.28352 0.42612 0.0
N803 N 0.42186 0.26671 0.45575 0.0
C804 C 0.41752 0.26293 0.41724 0.0
C805 C 0.43138 0.27689 0.46051 0.0
C806 C 0.43258 0.27969 0.3867 0.0
C807 C 0.38934 0.24421 0.61545 0.0
N808 N 0.38493 0.23808 0.58021 0.0
C809 C 0.38321 0.24786 0.63871 0.0
C810 C 0.37252 0.24522 0.62561 0.0
C811 C 0.36808 0.23899 0.58957 0.0
C812 C 0.37445 0.23548 0.56711 0.0
C813 C 0.36653 0.20182 0.57712 0.0
C814 C 0.37844 0.21295 0.50692 0.0
C815 C 0.37551 0.21281 0.57926 0.0
N816 N 0.3813 0.21825 0.54438 0.0
C817 C 0.36951 0.20195 0.50361 0.0
C818 C 0.36353 0.19637 0.53899 0.0
C819 C 0.40851 0.23373 0.48119 0.0
C820 C 0.44088 0.2637 0.5825 0.0
C821 C 0.43518 0.25765 0.50061 0.0
C822 C 0.44517 0.25878 0.51617 0.0
C823 C 0.44801 0.26182 0.55741 0.0
N824 N 0.42824 0.25953 0.52539 0.0
C825 C 0.43096 0.2625 0.56586 0.0
Co826 Co 0.76994 0.16257 0.56559 0.0
Co827 Co 0.74502 0.1562 0.52184 0.0
O828 O 0.75412 0.15823 0.57087 0.0
C829 C 0.77071 0.17787 0.63291 0.0
O830 O 0.76544 0.18146 0.609 0.0
C831 C 0.72874 0.13427 0.56164 0.0
O832 O 0.7357 0.13047 0.55604 0.0
O833 O 0.7487 0.14483 0.50033 0.0
O834 O 0.76721 0.15434 0.51204 0.0
H835 H 0.73682 0.15206 0.36939 0.0
H836 H 0.75723 0.15125 0.6416 0.0
O837 O 0.77314 0.17064 0.61965 0.0
H838 H 0.77142 0.12711 0.58809 0.0
H839 H 0.80747 0.17021 0.61955 0.0
H840 H 0.78648 0.17082 0.49686 0.0
H841 H 0.77585 0.14466 0.55227 0.0
H842 H 0.78737 0.16425 0.62483 0.0
O843 O 0.73147 0.14425 0.55125 0.0
H844 H 0.74832 0.15504 0.43173 0.0
H845 H 0.72186 0.15222 0.50786 0.0
H846 H 0.80655 0.17676 0.49017 0.0
H847 H 0.7527 0.13381 0.6787 0.0
H848 H 0.81719 0.17648 0.55181 0.0
H849 H 0.75979 0.12159 0.65188 0.0
O850 O 0.77296 0.17631 0.53439 0.0
H851 H 0.73378 0.17446 0.63175 0.0
H852 H 0.74514 0.17629 0.48599 0.0
H853 H 0.74127 0.19074 0.51326 0.0
H854 H 0.73552 0.18987 0.58662 0.0
H855 H 0.73782 0.16023 0.60328 0.0
H856 H 0.71003 0.1491 0.44638 0.0
H857 H 0.71752 0.14906 0.37651 0.0
O858 O 0.75823 0.16834 0.49138 0.0
C859 C 0.75853 0.14627 0.49534 0.0
C860 C 0.73347 0.15209 0.39965 0.0
C861 C 0.71843 0.15042 0.44287 0.0
N862 N 0.7358 0.15389 0.47335 0.0
C863 C 0.73995 0.1538 0.43506 0.0
C864 C 0.72516 0.15216 0.47758 0.0
C865 C 0.72264 0.1504 0.40367 0.0
C866 C 0.76042 0.14602 0.62993 0.0
N867 N 0.76684 0.149 0.59491 0.0
C868 C 0.7578 0.13614 0.651 0.0
C869 C 0.76177 0.12928 0.63591 0.0
C870 C 0.76829 0.13237 0.60013 0.0
C871 C 0.77076 0.14231 0.57992 0.0
C872 C 0.80293 0.17036 0.59246 0.0
C873 C 0.79103 0.17062 0.52381 0.0
C874 C 0.79155 0.16703 0.59528 0.0
N875 N 0.78573 0.16714 0.56114 0.0
C876 C 0.80241 0.17402 0.51984 0.0
C877 C 0.80837 0.17387 0.55444 0.0
C878 C 0.76798 0.17635 0.50109 0.0
C879 C 0.73625 0.17492 0.59971 0.0
C880 C 0.74269 0.17587 0.51798 0.0
C881 C 0.74048 0.18407 0.53323 0.0
C882 C 0.73724 0.18357 0.57438 0.0
N883 N 0.74167 0.1674 0.54299 0.0
C884 C 0.73852 0.16686 0.58338 0.0
Co885 Co 0.93653 0.5062 0.59269 0.0
Co886 Co 0.92176 0.51166 0.66746 0.0
O887 O 0.9245 0.50905 0.61005 0.0
C888 C 0.92408 0.48461 0.54789 0.0
O889 O 0.9279 0.48033 0.57541 0.0
C890 C 0.92481 0.53199 0.62355 0.0
O891 O 0.93309 0.53226 0.60246 0.0
O892 O 0.93804 0.52259 0.67661 0.0
O893 O 0.94732 0.51781 0.63134 0.0
H894 H 0.92912 0.51546 0.82046 0.0
H895 H 0.92378 0.51106 0.5301 0.0
O896 O 0.92595 0.49461 0.55228 0.0
H897 H 0.96322 0.54081 0.5123 0.0
H898 H 0.95969 0.49933 0.48831 0.0
H899 H 0.95397 0.5035 0.63639 0.0
H900 H 0.95808 0.52596 0.56451 0.0
H901 H 0.94468 0.50297 0.51075 0.0
O902 O 0.91942 0.52428 0.64998 0.0
H903 H 0.93226 0.51213 0.74798 0.0
H904 H 0.90543 0.51684 0.70867 0.0
H905 H 0.96913 0.49992 0.61529 0.0
H906 H 0.92856 0.52566 0.47711 0.0
H907 H 0.97206 0.4978 0.54076 0.0
H908 H 0.9484 0.5407 0.46805 0.0
O909 O 0.93235 0.49451 0.63692 0.0
H910 H 0.88534 0.49505 0.58944 0.0
H911 H 0.90412 0.49227 0.7151 0.0
H912 H 0.88408 0.47862 0.7039 0.0
H913 H 0.87454 0.47999 0.64073 0.0
H914 H 0.90542 0.50845 0.60169 0.0
H915 H 0.90206 0.52032 0.78067 0.0
H916 H 0.91392 0.51959 0.83717 0.0
O917 O 0.92381 0.49908 0.68643 0.0
C918 C 0.9471 0.52374 0.66117 0.0
C919 C 0.92387 0.51576 0.79612 0.0
C920 C 0.9087 0.51851 0.77378 0.0
N921 N 0.919 0.51422 0.72418 0.0
C922 C 0.92559 0.51386 0.75505 0.0
C923 C 0.91067 0.51656 0.73306 0.0
C924 C 0.91535 0.51809 0.80547 0.0
C925 C 0.93245 0.51751 0.52611 0.0
N926 N 0.94064 0.51764 0.55042 0.0
C927 C 0.9351 0.52578 0.49615 0.0
C928 C 0.94622 0.53423 0.49113 0.0
C929 C 0.95454 0.53431 0.51598 0.0
C930 C 0.95157 0.52591 0.54566 0.0
C931 C 0.9585 0.50023 0.52088 0.0
C932 C 0.95519 0.50259 0.60391 0.0
C933 C 0.94999 0.50227 0.53379 0.0
N934 N 0.94842 0.50342 0.57488 0.0
C935 C 0.96379 0.50056 0.59214 0.0
C936 C 0.96543 0.49937 0.55032 0.0
C937 C 0.92762 0.49301 0.67221 0.0
C938 C 0.8894 0.49437 0.61708 0.0
C939 C 0.90006 0.49285 0.68737 0.0
C940 C 0.88869 0.48513 0.68129 0.0
C941 C 0.88335 0.48591 0.64586 0.0
N942 N 0.90593 0.50112 0.65901 0.0
C943 C 0.90075 0.50194 0.62421 0.0
Co944 Co 0.49729 0.43319 0.60411 0.0
Co945 Co 0.48882 0.40991 0.66484 0.0
O946 O 0.49328 0.41746 0.611 0.0
C947 C 0.51255 0.42977 0.54503 0.0
O948 O 0.50829 0.41919 0.5553 0.0
C949 C 0.46949 0.39257 0.61544 0.0
O950 O 0.46627 0.39986 0.60663 0.0
O951 O 0.47672 0.41374 0.66984 0.0
O952 O 0.48555 0.43131 0.64509 0.0
H953 H 0.47713 0.40595 0.81402 0.0
H954 H 0.48989 0.41701 0.53313 0.0
O955 O 0.50921 0.43592 0.56223 0.0
H956 H 0.46533 0.4335 0.52915 0.0
H957 H 0.50868 0.46879 0.52434 0.0
H958 H 0.50053 0.45118 0.66241 0.0
H959 H 0.47995 0.4393 0.58248 0.0
H960 H 0.50316 0.44886 0.53227 0.0
O961 O 0.47832 0.39547 0.63666 0.0
H962 H 0.48315 0.41555 0.74662 0.0
H963 H 0.48427 0.38762 0.69624 0.0
H964 H 0.5059 0.4711 0.6558 0.0
H965 H 0.47552 0.41111 0.47902 0.0
H966 H 0.51002 0.48003 0.58637 0.0
H967 H 0.46307 0.41934 0.47667 0.0
O968 O 0.50875 0.43774 0.64892 0.0
H969 H 0.51116 0.39517 0.59249 0.0
H970 H 0.50719 0.41228 0.72069 0.0
H971 H 0.52251 0.40798 0.71479 0.0
H972 H 0.52456 0.39933 0.65037 0.0
H973 H 0.49603 0.39973 0.59951 0.0
H974 H 0.47817 0.37769 0.76302 0.0
H975 H 0.4746 0.38688 0.82255 0.0
O976 O 0.49927 0.42401 0.69491 0.0
C977 C 0.47741 0.42323 0.66429 0.0
C978 C 0.4787 0.40188 0.78837 0.0
C979 C 0.47927 0.38601 0.75972 0.0
N980 N 0.48418 0.4022 0.71764 0.0
C981 C 0.48215 0.40728 0.75015 0.0
C982 C 0.48271 0.39167 0.72197 0.0
C983 C 0.47727 0.39117 0.79312 0.0
C984 C 0.48472 0.42083 0.53212 0.0
N985 N 0.48603 0.42873 0.56063 0.0
C986 C 0.47649 0.41737 0.50146 0.0
C987 C 0.46949 0.42196 0.50021 0.0
C988 C 0.47076 0.4299 0.52963 0.0
C989 C 0.47907 0.43316 0.55983 0.0
C990 C 0.50689 0.46498 0.55475 0.0
C991 C 0.50224 0.45499 0.63206 0.0
C992 C 0.5038 0.45371 0.55947 0.0
N993 N 0.50145 0.44883 0.59777 0.0
C994 C 0.50531 0.46628 0.62853 0.0
C995 C 0.50763 0.47129 0.58957 0.0
C996 C 0.50738 0.43367 0.6853 0.0
C997 C 0.51036 0.39895 0.62071 0.0
C998 C 0.50808 0.40863 0.69237 0.0
C999 C 0.51675 0.40615 0.68931 0.0
C1000 C 0.51788 0.40129 0.65318 0.0
N1001 N 0.50076 0.40633 0.66034 0.0
C1002 C 0.5018 0.40153 0.62489 0.0
Co1003 Co 0.57068 0.06071 0.5854 0.0
Co1004 Co 0.59079 0.07536 0.65974 0.0
O1005 O 0.58519 0.07317 0.60285 0.0
C1006 C 0.56029 0.07242 0.54339 0.0
O1007 O 0.55228 0.06806 0.57127 0.0
C1008 C 0.60971 0.07543 0.61481 0.0
O1009 O 0.60258 0.06563 0.59889 0.0
O1010 O 0.58768 0.0596 0.66309 0.0
O1011 O 0.57251 0.05006 0.62236 0.0
H1012 H 0.58977 0.06549 0.81006 0.0
H1013 H 0.58832 0.07467 0.52453 0.0
O1014 O 0.5688 0.07109 0.54662 0.0
H1015 H 0.57955 0.03585 0.49776 0.0
H1016 H 0.54053 0.0371 0.48195 0.0
H1017 H 0.55133 0.04234 0.62922 0.0
H1018 H 0.56938 0.03988 0.55167 0.0
H1019 H 0.55897 0.05263 0.50385 0.0
O1020 O 0.60628 0.08046 0.63859 0.0
H1021 H 0.58259 0.06278 0.73863 0.0
H1022 H 0.61152 0.09299 0.70119 0.0
H1023 H 0.53283 0.02664 0.60863 0.0
H1024 H 0.59859 0.07102 0.46983 0.0
H1025 H 0.52733 0.02396 0.53453 0.0
H1026 H 0.59426 0.0515 0.45628 0.0
O1027 O 0.5629 0.0641 0.63096 0.0
H1028 H 0.60558 0.11327 0.59404 0.0
H1029 H 0.58563 0.08965 0.71449 0.0
H1030 H 0.58899 0.10899 0.71073 0.0
H1031 H 0.59907 0.12096 0.65024 0.0
H1032 H 0.60195 0.09384 0.59887 0.0
H1033 H 0.61905 0.096 0.77215 0.0
H1034 H 0.60814 0.08221 0.82721 0.0
O1035 O 0.57558 0.07038 0.68245 0.0
C1036 C 0.57965 0.05048 0.64862 0.0
C1037 C 0.5946 0.07157 0.78636 0.0
C1038 C 0.61104 0.08868 0.76507 0.0
N1039 N 0.5966 0.07772 0.71578 0.0
C1040 C 0.59056 0.07009 0.74587 0.0
C1041 C 0.60674 0.08692 0.72491 0.0
C1042 C 0.60491 0.08095 0.79596 0.0
C1043 C 0.58636 0.06614 0.51876 0.0
N1044 N 0.57833 0.05749 0.54163 0.0
C1045 C 0.59222 0.06413 0.48777 0.0
C1046 C 0.58979 0.05318 0.4802 0.0
C1047 C 0.58156 0.0444 0.50351 0.0
C1048 C 0.57589 0.04673 0.53426 0.0
C1049 C 0.54283 0.03818 0.51434 0.0
C1050 C 0.549 0.0412 0.5969 0.0
C1051 C 0.55325 0.04697 0.52694 0.0
N1052 N 0.55622 0.04839 0.56781 0.0
C1053 C 0.53852 0.03231 0.58543 0.0
C1054 C 0.53543 0.03081 0.54385 0.0
C1055 C 0.56574 0.06696 0.66853 0.0
C1056 C 0.60121 0.10815 0.6206 0.0
C1057 C 0.58998 0.09479 0.68796 0.0
C1058 C 0.59188 0.10574 0.68606 0.0
C1059 C 0.59754 0.11245 0.65212 0.0
N1060 N 0.59364 0.09065 0.657 0.0
C1061 C 0.59915 0.09716 0.62356 0.0
Co1062 Co 0.49392 0.05908 0.09995 0.0
Co1063 Co 0.48825 0.07847 0.14217 0.0
O1064 O 0.4908 0.07148 0.09372 0.0
C1065 C 0.50842 0.07304 0.02812 0.0
O1066 O 0.50677 0.08138 0.03723 0.0
C1067 C 0.46774 0.07464 0.09578 0.0
O1068 O 0.46369 0.06374 0.09676 0.0
O1069 O 0.47575 0.06363 0.16024 0.0
O1070 O 0.48384 0.05318 0.14945 0.0
H1071 H 0.48106 0.08127 0.29291 0.0
H1072 H 0.48545 0.06278 0.02018 0.0
O1073 O 0.50413 0.06419 0.05028 0.0
H1074 H 0.45798 0.02409 0.06157 0.0
H1075 H 0.50023 0.02805 0.04924 0.0
H1076 H 0.49887 0.04874 0.17154 0.0
H1077 H 0.47457 0.03569 0.10487 0.0
H1078 H 0.49596 0.04336 0.04163 0.0
O1079 O 0.47749 0.08132 0.10996 0.0
H1080 H 0.48466 0.0729 0.23154 0.0
H1081 H 0.48575 0.09859 0.15537 0.0
H1082 H 0.50308 0.03343 0.18055 0.0
H1083 H 0.46906 0.05143 0.97577 0.0
H1084 H 0.50378 0.02297 0.11912 0.0
H1085 H 0.45517 0.03193 0.99639 0.0
O1086 O 0.50693 0.06852 0.13667 0.0
H1087 H 0.50966 0.10952 0.03994 0.0
H1088 H 0.50852 0.0969 0.18355 0.0
H1089 H 0.52418 0.1152 0.1613 0.0
H1090 H 0.52481 0.12164 0.08904 0.0
H1091 H 0.49424 0.09119 0.06334 0.0
H1092 H 0.48206 0.10717 0.21585 0.0
H1093 H 0.47973 0.09853 0.28527 0.0
O1094 O 0.49905 0.07607 0.17617 0.0
C1095 C 0.47621 0.0547 0.16524 0.0
C1096 C 0.48209 0.08513 0.26284 0.0
C1097 C 0.48264 0.09966 0.21959 0.0
N1098 N 0.4855 0.08529 0.18995 0.0
C1099 C 0.48416 0.08044 0.22799 0.0
C1100 C 0.48471 0.09475 0.18543 0.0
C1101 C 0.48134 0.09481 0.25853 0.0
C1102 C 0.47955 0.05427 0.02914 0.0
N1103 N 0.4811 0.04987 0.06478 0.0
C1104 C 0.47024 0.04789 0.00395 0.0
C1105 C 0.46243 0.03696 0.01558 0.0
C1106 C 0.46401 0.03256 0.05213 0.0
C1107 C 0.47342 0.03918 0.07653 0.0
C1108 C 0.49994 0.03254 0.07626 0.0
C1109 C 0.49911 0.0442 0.14466 0.0
C1110 C 0.49756 0.04124 0.07214 0.0
N1111 N 0.49712 0.04692 0.10614 0.0
C1112 C 0.50152 0.03555 0.14995 0.0
C1113 C 0.50192 0.02969 0.11547 0.0
C1114 C 0.50664 0.07351 0.16954 0.0
C1115 C 0.50949 0.1068 0.07149 0.0
C1116 C 0.5088 0.09957 0.15191 0.0
C1117 C 0.51765 0.10998 0.13956 0.0
C1118 C 0.51799 0.1136 0.09904 0.0
N1119 N 0.50051 0.09293 0.12466 0.0
C1120 C 0.50076 0.09645 0.08495 0.0
Co1121 Co 0.94177 0.4351 0.1095 0.0
Co1122 Co 0.92182 0.40966 0.14624 0.0
O1123 O 0.92991 0.41959 0.10014 0.0
C1124 C 0.9279 0.43729 0.04346 0.0
O1125 O 0.91894 0.43127 0.06621 0.0
C1126 C 0.92748 0.39384 0.10299 0.0
O1127 O 0.93821 0.40061 0.1099 0.0
O1128 O 0.93627 0.41229 0.17036 0.0
O1129 O 0.94655 0.43095 0.16193 0.0
H1130 H 0.91491 0.39833 0.29592 0.0
H1131 H 0.94051 0.42388 0.02977 0.0
O1132 O 0.93755 0.43968 0.05677 0.0
H1133 H 0.97798 0.43508 0.08626 0.0
H1134 H 0.97314 0.473 0.06517 0.0
H1135 H 0.95005 0.4502 0.1824 0.0
H1136 H 0.96507 0.43949 0.12394 0.0
H1137 H 0.95845 0.45327 0.05477 0.0
O1138 O 0.92023 0.39653 0.11396 0.0
H1139 H 0.92479 0.41094 0.23732 0.0
H1140 H 0.90185 0.38667 0.15285 0.0
H1141 H 0.96469 0.46986 0.19421 0.0
H1142 H 0.95321 0.4194 0.99085 0.0
H1143 H 0.97637 0.48141 0.13533 0.0
H1144 H 0.97208 0.425 0.01914 0.0
O1145 O 0.93122 0.43815 0.14177 0.0
H1146 H 0.89428 0.40144 0.03095 0.0
H1147 H 0.90179 0.41013 0.17947 0.0
H1148 H 0.88417 0.40752 0.14929 0.0
H1149 H 0.88031 0.40312 0.07452 0.0
H1150 H 0.91184 0.40423 0.06233 0.0
H1151 H 0.8918 0.37375 0.2105 0.0
H1152 H 0.89829 0.37959 0.28266 0.0
O1153 O 0.9229 0.42242 0.17967 0.0
C1154 C 0.94489 0.42178 0.178 0.0
C1155 C 0.91198 0.39571 0.26462 0.0
C1156 C 0.89902 0.38191 0.21667 0.0
N1157 N 0.91385 0.39959 0.19174 0.0
C1158 C 0.91752 0.40283 0.23132 0.0
C1159 C 0.90476 0.38925 0.18415 0.0
C1160 C 0.90266 0.38519 0.25716 0.0
C1161 C 0.94875 0.42642 0.0421 0.0
N1162 N 0.95207 0.432 0.07894 0.0
C1163 C 0.95588 0.42383 0.02 0.0
C1164 C 0.96647 0.42696 0.03591 0.0
C1165 C 0.96978 0.43262 0.07357 0.0
C1166 C 0.96243 0.43507 0.0948 0.0
C1167 C 0.96812 0.46805 0.09107 0.0
C1168 C 0.95512 0.45514 0.15664 0.0
C1169 C 0.95977 0.45688 0.08536 0.0
N1170 N 0.95343 0.45057 0.11798 0.0
C1171 C 0.96339 0.46628 0.16351 0.0
C1172 C 0.96993 0.47276 0.13045 0.0
C1173 C 0.92546 0.43258 0.17306 0.0
C1174 C 0.89585 0.40333 0.06359 0.0
C1175 C 0.9002 0.40827 0.14687 0.0
C1176 C 0.89019 0.40677 0.12998 0.0
C1177 C 0.88803 0.40429 0.08804 0.0
N1178 N 0.90782 0.4073 0.1227 0.0
C1179 C 0.90576 0.40487 0.08155 0.0
Co1180 Co 0.59178 0.51367 0.16674 0.0
Co1181 Co 0.568 0.50386 0.10919 0.0
O1182 O 0.58403 0.50875 0.11333 0.0
C1183 C 0.6084 0.53244 0.11351 0.0
O1184 O 0.60055 0.53459 0.10139 0.0
C1185 C 0.5718 0.48985 0.04492 0.0
O1186 O 0.5826 0.4946 0.05241 0.0
O1187 O 0.56464 0.49226 0.15243 0.0
O1188 O 0.57789 0.50305 0.19802 0.0
H1189 H 0.52991 0.49238 0.16789 0.0
H1190 H 0.60168 0.50625 0.10124 0.0
O1191 O 0.60605 0.52428 0.13782 0.0
H1192 H 0.59527 0.48106 0.21943 0.0
H1193 H 0.62444 0.52569 0.26405 0.0
H1194 H 0.5861 0.51953 0.248 0.0
H1195 H 0.59053 0.49609 0.22452 0.0
H1196 H 0.61437 0.51899 0.19782 0.0
O1197 O 0.56557 0.49253 0.06539 0.0
H1198 H 0.55018 0.49895 0.17098 0.0
H1199 H 0.55153 0.49767 0.03991 0.0
H1200 H 0.59583 0.52615 0.3149 0.0
H1201 H 0.60664 0.49139 0.09493 0.0
H1202 H 0.61514 0.52928 0.32324 0.0
H1203 H 0.60341 0.47865 0.15429 0.0
O1204 O 0.58752 0.5255 0.17032 0.0
H1205 H 0.58799 0.52732 0.98399 0.0
H1206 H 0.56028 0.52027 0.09337 0.0
H1207 H 0.56469 0.53514 0.04213 0.0
H1208 H 0.57859 0.53871 0.98669 0.0
H1209 H 0.58348 0.51269 0.03611 0.0
H1210 H 0.53125 0.49096 0.03548 0.0
H1211 H 0.52031 0.48834 0.09977 0.0
O1212 O 0.56948 0.51497 0.15232 0.0
C1213 C 0.56879 0.49414 0.18877 0.0
C1214 C 0.53459 0.49353 0.13965 0.0
C1215 C 0.53534 0.49271 0.06534 0.0
N1216 N 0.55206 0.49877 0.10568 0.0
C1217 C 0.54608 0.49727 0.1412 0.0
C1218 C 0.54682 0.49647 0.06807 0.0
C1219 C 0.52921 0.49125 0.10142 0.0
C1220 C 0.60028 0.50076 0.12723 0.0
N1221 N 0.59578 0.50202 0.16311 0.0
C1222 C 0.60309 0.49235 0.12347 0.0
C1223 C 0.60127 0.4852 0.15678 0.0
C1224 C 0.5967 0.48655 0.19332 0.0
C1225 C 0.59399 0.49505 0.19595 0.0
C1226 C 0.61602 0.52435 0.26082 0.0
C1227 C 0.59448 0.52082 0.25144 0.0
C1228 C 0.61028 0.52057 0.22335 0.0
N1229 N 0.59962 0.5188 0.21911 0.0
C1230 C 0.59996 0.52459 0.28937 0.0
C1231 C 0.6108 0.52635 0.29402 0.0
C1232 C 0.57759 0.52392 0.16749 0.0
C1233 C 0.58182 0.52576 0.00771 0.0
C1234 C 0.5663 0.52171 0.06933 0.0
C1235 C 0.56877 0.53016 0.04037 0.0
C1236 C 0.57657 0.53217 0.0093 0.0
N1237 N 0.57137 0.51532 0.06732 0.0
C1238 C 0.57914 0.51737 0.03722 0.0
Co1239 Co 0.41273 0.15545 0.00519 0.0
Co1240 Co 0.39206 0.15907 0.04841 0.0
O1241 O 0.40491 0.15667 0.05361 0.0
C1242 C 0.40863 0.13468 0.04947 0.0
O1243 O 0.39779 0.13098 0.04906 0.0
C1244 C 0.40665 0.17583 0.11132 0.0
O1245 O 0.41537 0.17833 0.08776 0.0
O1246 O 0.40104 0.17264 0.01371 0.0
O1247 O 0.41039 0.16671 0.97395 0.0
H1248 H 0.36521 0.1674 0.97215 0.0
H1249 H 0.42387 0.16024 0.08697 0.0
O1250 O 0.41551 0.14432 0.03491 0.0
H1251 H 0.4492 0.19217 0.99844 0.0
H1252 H 0.44315 0.15188 0.93224 0.0
H1253 H 0.40854 0.15383 0.91483 0.0
H1254 H 0.43163 0.17663 0.97033 0.0
H1255 H 0.43339 0.15384 0.9929 0.0
O1256 O 0.39685 0.16845 0.09981 0.0
H1257 H 0.38114 0.16404 0.97881 0.0
H1258 H 0.37585 0.15956 0.10854 0.0
H1259 H 0.4181 0.15198 0.85329 0.0
H1260 H 0.44145 0.17554 0.11627 0.0
H1261 H 0.43553 0.15099 0.8618 0.0
H1262 H 0.45423 0.19168 0.07192 0.0
O1263 O 0.39832 0.14303 0.98315 0.0
H1264 H 0.38532 0.13342 0.1691 0.0
H1265 H 0.36928 0.13882 0.04057 0.0
H1266 H 0.35834 0.12154 0.08131 0.0
H1267 H 0.36634 0.11876 0.14617 0.0
H1268 H 0.39604 0.15053 0.12712 0.0
H1269 H 0.3599 0.16295 0.10331 0.0
H1270 H 0.35446 0.16688 0.03471 0.0
O1271 O 0.38671 0.14965 0.99731 0.0
C1272 C 0.40684 0.17349 0.98169 0.0
C1273 C 0.36748 0.16568 0.00221 0.0
C1274 C 0.36451 0.1632 0.07582 0.0
N1275 N 0.37941 0.16157 0.044 0.0
C1276 C 0.37648 0.16375 0.00617 0.0
C1277 C 0.37357 0.16132 0.07861 0.0
C1278 C 0.36146 0.1654 0.03732 0.0
C1279 C 0.42944 0.16719 0.06739 0.0
N1280 N 0.42671 0.16755 0.027 0.0
C1281 C 0.43936 0.17585 0.08419 0.0
C1282 C 0.44652 0.18491 0.05931 0.0
C1283 C 0.44369 0.1852 0.0181 0.0
C1284 C 0.4337 0.1764 0.00239 0.0
C1285 C 0.43557 0.15232 0.92813 0.0
C1286 C 0.41616 0.15347 0.91876 0.0
C1287 C 0.42999 0.1534 0.96236 0.0
N1288 N 0.42045 0.15403 0.95738 0.0
C1289 C 0.42152 0.15239 0.88381 0.0
C1290 C 0.4313 0.15183 0.88861 0.0
C1291 C 0.389 0.14282 0.97917 0.0
C1292 C 0.38173 0.13455 0.14097 0.0
C1293 C 0.37284 0.13767 0.0687 0.0
C1294 C 0.36659 0.12787 0.09168 0.0
C1295 C 0.37108 0.12632 0.12806 0.0
N1296 N 0.38327 0.14571 0.08159 0.0
C1297 C 0.38774 0.14424 0.11717 0.0
Co1298 Co 0.8419 0.23655 0.07226 0.0
Co1299 Co 0.84094 0.25791 0.01874 0.0
O1300 O 0.84227 0.25097 0.06985 0.0
C1301 C 0.82404 0.23371 0.13184 0.0
O1302 O 0.82116 0.23937 0.10683 0.0
C1303 C 0.86302 0.27578 0.05037 0.0
O1304 O 0.866 0.26818 0.05594 0.0
O1305 O 0.85221 0.25522 0.98949 0.0
O1306 O 0.85192 0.24079 0.02344 0.0
H1307 H 0.83614 0.2602 0.86557 0.0
H1308 H 0.84809 0.25104 0.14664 0.0
O1309 O 0.83196 0.23191 0.12217 0.0
H1310 H 0.8809 0.24669 0.11737 0.0
H1311 H 0.84276 0.20449 0.14407 0.0
H1312 H 0.83997 0.21993 0.00975 0.0
H1313 H 0.86398 0.23732 0.07363 0.0
H1314 H 0.84327 0.22264 0.1405 0.0
O1315 O 0.85322 0.27293 0.03726 0.0
H1316 H 0.83788 0.25158 0.93001 0.0
H1317 H 0.84117 0.27924 0.99957 0.0
H1318 H 0.83954 0.2018 0.01187 0.0
H1319 H 0.86481 0.26047 0.19144 0.0
H1320 H 0.84093 0.19396 0.07942 0.0
H1321 H 0.88138 0.25834 0.17684 0.0
O1322 O 0.8284 0.22918 0.03527 0.0
H1323 H 0.82633 0.27064 0.13695 0.0
H1324 H 0.81809 0.25392 0.99751 0.0
H1325 H 0.80393 0.25679 0.03358 0.0
H1326 H 0.80802 0.26522 0.10381 0.0
H1327 H 0.84021 0.26751 0.09989 0.0
H1328 H 0.83958 0.28821 0.93583 0.0
H1329 H 0.837 0.27865 0.86822 0.0
O1330 O 0.8287 0.24322 0.99873 0.0
C1331 C 0.85542 0.24807 0.99467 0.0
C1332 C 0.83724 0.26444 0.89484 0.0
C1333 C 0.83919 0.28017 0.93427 0.0
N1334 N 0.83957 0.26488 0.96855 0.0
C1335 C 0.8382 0.25959 0.93146 0.0
C1336 C 0.84011 0.27506 0.97025 0.0
C1337 C 0.83773 0.27479 0.89635 0.0
C1338 C 0.85523 0.25 0.14031 0.0
N1339 N 0.85503 0.2436 0.1077 0.0
C1340 C 0.86469 0.25539 0.16569 0.0
C1341 C 0.87399 0.2542 0.15745 0.0
C1342 C 0.87373 0.24767 0.12408 0.0
C1343 C 0.86413 0.24241 0.09937 0.0
C1344 C 0.84215 0.20782 0.11446 0.0
C1345 C 0.84063 0.2166 0.03924 0.0
C1346 C 0.84239 0.21807 0.11225 0.0
N1347 N 0.84167 0.22235 0.07494 0.0
C1348 C 0.84035 0.20632 0.04026 0.0
C1349 C 0.84113 0.20192 0.07817 0.0
C1350 C 0.82456 0.23285 0.007 0.0
C1351 C 0.82446 0.26697 0.10634 0.0
C1352 C 0.8199 0.25752 0.02815 0.0
C1353 C 0.81187 0.25917 0.04837 0.0
C1354 C 0.81418 0.26392 0.08775 0.0
N1355 N 0.82996 0.26053 0.04659 0.0
C1356 C 0.8323 0.26522 0.08515 0.0
Co1357 Co 0.76953 0.60635 0.05426 0.0
Co1358 Co 0.74406 0.59132 0.00754 0.0
O1359 O 0.7532 0.59648 0.05773 0.0
C1360 C 0.76723 0.58943 0.118 0.0
O1361 O 0.76038 0.58116 0.09378 0.0
C1362 C 0.72576 0.59599 0.02539 0.0
O1363 O 0.72903 0.60233 0.99213 0.0
O1364 O 0.75 0.60727 0.99092 0.0
O1365 O 0.76822 0.61383 0.00317 0.0
H1366 H 0.73707 0.59174 0.85518 0.0
H1367 H 0.75732 0.60524 0.13129 0.0
O1368 O 0.77148 0.59955 0.10603 0.0
H1369 H 0.77685 0.64508 0.08999 0.0
H1370 H 0.80821 0.63122 0.11267 0.0
H1371 H 0.78625 0.61393 0.98626 0.0
H1372 H 0.77886 0.63113 0.0487 0.0
H1373 H 0.78763 0.61925 0.11607 0.0
O1374 O 0.73134 0.59142 0.03797 0.0
H1375 H 0.74832 0.5978 0.91922 0.0
H1376 H 0.72021 0.57412 0.98894 0.0
H1377 H 0.8068 0.62591 0.98144 0.0
H1378 H 0.75519 0.61894 0.17384 0.0
H1379 H 0.81794 0.63466 0.04496 0.0
H1380 H 0.76498 0.63901 0.15318 0.0
O1381 O 0.77075 0.59507 0.01928 0.0
H1382 H 0.72809 0.55955 0.10966 0.0
H1383 H 0.74138 0.57063 0.96643 0.0
H1384 H 0.73475 0.5512 0.989 0.0
H1385 H 0.728 0.54553 0.06107 0.0
H1386 H 0.73494 0.57894 0.08591 0.0
H1387 H 0.70865 0.56784 0.9257 0.0
H1388 H 0.71708 0.57666 0.85819 0.0
O1389 O 0.75643 0.5909 0.97613 0.0
C1390 C 0.76026 0.61489 0.98781 0.0
C1391 C 0.7333 0.58783 0.88441 0.0
C1392 C 0.71735 0.57441 0.92397 0.0
N1393 N 0.73494 0.58631 0.95775 0.0
C1394 C 0.73963 0.59122 0.92076 0.0
C1395 C 0.72394 0.578 0.95967 0.0
C1396 C 0.72209 0.57936 0.88612 0.0
C1397 C 0.76165 0.61397 0.12224 0.0
N1398 N 0.76821 0.61737 0.08757 0.0
C1399 C 0.7604 0.62168 0.1464 0.0
C1400 C 0.76589 0.63295 0.13478 0.0
C1401 C 0.77255 0.63635 0.09933 0.0
C1402 C 0.77362 0.62841 0.07597 0.0
C1403 C 0.80346 0.62746 0.08477 0.0
C1404 C 0.79102 0.61773 0.01404 0.0
C1405 C 0.7918 0.62064 0.08652 0.0
N1406 N 0.78572 0.61591 0.05138 0.0
C1407 C 0.80266 0.62449 0.01112 0.0
C1408 C 0.8089 0.62939 0.04677 0.0
C1409 C 0.76555 0.59104 0.98527 0.0
C1410 C 0.73098 0.56191 0.07815 0.0
C1411 C 0.73853 0.56826 0.9979 0.0
C1412 C 0.73474 0.55723 0.01047 0.0
C1413 C 0.73095 0.55405 0.05089 0.0
N1414 N 0.73851 0.57591 0.02479 0.0
C1415 C 0.73483 0.57286 0.06448 0.0
Co1416 Co 0.50717 0.9403 0.9052 0.0
Co1417 Co 0.51236 0.92115 0.85449 0.0
O1418 O 0.50966 0.92742 0.9049 0.0
C1419 C 0.49047 0.92382 0.96734 0.0
O1420 O 0.49308 0.91612 0.95828 0.0
C1421 C 0.53311 0.92577 0.90049 0.0
O1422 O 0.53641 0.93651 0.90153 0.0
O1423 O 0.52432 0.93626 0.83584 0.0
O1424 O 0.51936 0.94815 0.86352 0.0
H1425 H 0.5184 0.91935 0.70199 0.0
H1426 H 0.51282 0.93183 0.98156 0.0
O1427 O 0.49499 0.93315 0.94804 0.0
H1428 H 0.54065 0.97216 0.97519 0.0
H1429 H 0.49927 0.96895 0.97016 0.0
H1430 H 0.50602 0.95472 0.83964 0.0
H1431 H 0.52602 0.96341 0.92173 0.0
H1432 H 0.50279 0.95305 0.97053 0.0
O1433 O 0.52373 0.91878 0.88434 0.0
H1434 H 0.51484 0.92706 0.76532 0.0
H1435 H 0.51588 0.90181 0.83761 0.0
H1436 H 0.50267 0.97073 0.83794 0.0
H1437 H 0.52717 0.94025 0.03587 0.0
H1438 H 0.49925 0.97794 0.90354 0.0
H1439 H 0.54126 0.96057 0.03296 0.0
O1440 O 0.49559 0.93341 0.86048 0.0
H1441 H 0.49286 0.88918 0.95491 0.0
H1442 H 0.49206 0.90254 0.81407 0.0
H1443 H 0.47712 0.88379 0.83592 0.0
H1444 H 0.47748 0.87698 0.90676 0.0
H1445 H 0.50754 0.90795 0.93203 0.0
H1446 H 0.51954 0.89388 0.77509 0.0
H1447 H 0.52078 0.90264 0.70664 0.0
O1448 O 0.50108 0.92323 0.82343 0.0
C1449 C 0.52562 0.94603 0.84063 0.0
C1450 C 0.51785 0.91545 0.73162 0.0
C1451 C 0.5185 0.90116 0.77266 0.0
N1452 N 0.51509 0.91486 0.80511 0.0
C1453 C 0.51582 0.91976 0.76759 0.0
C1454 C 0.51645 0.9057 0.80797 0.0
C1455 C 0.51919 0.90607 0.73426 0.0
C1456 C 0.51878 0.94068 0.98014 0.0
N1457 N 0.51843 0.94711 0.94856 0.0
C1458 C 0.52696 0.94541 0.01098 0.0
C1459 C 0.53487 0.9568 0.0093 0.0
C1460 C 0.53453 0.9633 0.9769 0.0
C1461 C 0.52624 0.95828 0.94663 0.0
C1462 C 0.50076 0.96589 0.94137 0.0
C1463 C 0.50462 0.95787 0.86834 0.0
C1464 C 0.50272 0.95686 0.94136 0.0
N1465 N 0.50468 0.953 0.90513 0.0
C1466 C 0.50269 0.96691 0.86717 0.0
C1467 C 0.50076 0.97094 0.90399 0.0
C1468 C 0.49483 0.92749 0.82891 0.0
C1469 C 0.49261 0.89205 0.92396 0.0
C1470 C 0.49221 0.8997 0.84512 0.0
C1471 C 0.48376 0.88905 0.85723 0.0
C1472 C 0.48398 0.88522 0.89695 0.0
N1473 N 0.50064 0.90637 0.87183 0.0
C1474 C 0.50093 0.90266 0.91076 0.0
Co1475 Co 0.06452 0.57006 0.89383 0.0
Co1476 Co 0.0812 0.59383 0.83507 0.0
O1477 O 0.0766 0.58585 0.88853 0.0
C1478 C 0.08259 0.57233 0.95413 0.0
O1479 O 0.08934 0.58291 0.94475 0.0
C1480 C 0.07729 0.60971 0.88599 0.0
O1481 O 0.06867 0.60136 0.90451 0.0
O1482 O 0.06539 0.58935 0.82134 0.0
O1483 O 0.05519 0.5727 0.85318 0.0
H1484 H 0.07852 0.59768 0.68149 0.0
H1485 H 0.07331 0.58539 0.96737 0.0
O1486 O 0.07319 0.56661 0.9358 0.0
H1487 H 0.03247 0.57049 0.96733 0.0
H1488 H 0.03903 0.53419 0.97015 0.0
H1489 H 0.04966 0.5527 0.83378 0.0
H1490 H 0.04125 0.56482 0.91335 0.0
H1491 H 0.05393 0.554 0.96421 0.0
O1492 O 0.08318 0.60794 0.86009 0.0
H1493 H 0.07301 0.58796 0.7488 0.0
H1494 H 0.09912 0.61665 0.80851 0.0
H1495 H 0.03463 0.53291 0.83839 0.0
H1496 H 0.06486 0.59111 0.02216 0.0
H1497 H 0.02923 0.52353 0.90696 0.0
H1498 H 0.04428 0.58368 0.02247 0.0
O1499 O 0.0712 0.56522 0.84869 0.0
H1500 H 0.11532 0.61011 0.92624 0.0
H1501 H 0.09983 0.59296 0.79063 0.0
H1502 H 0.11937 0.59843 0.80788 0.0
H1503 H 0.12725 0.60711 0.87609 0.0
H1504 H 0.09576 0.60437 0.90788 0.0
H1505 H 0.10485 0.62671 0.74192 0.0
H1506 H 0.09455 0.6172 0.67776 0.0
O1507 O 0.07947 0.58024 0.80727 0.0
C1508 C 0.05613 0.5805 0.8294 0.0
C1509 C 0.0831 0.6019 0.70921 0.0
C1510 C 0.09787 0.6182 0.74313 0.0
N1511 N 0.08579 0.60169 0.78252 0.0
C1512 C 0.08003 0.59643 0.7474 0.0
C1513 C 0.09457 0.61246 0.78077 0.0
C1514 C 0.09209 0.61286 0.70715 0.0
C1515 C 0.06435 0.58189 0.96754 0.0
N1516 N 0.0578 0.57452 0.93754 0.0
C1517 C 0.05961 0.58527 0.99856 0.0
C1518 C 0.04807 0.58112 0.99866 0.0
C1519 C 0.04144 0.57372 0.96776 0.0
C1520 C 0.04648 0.57053 0.93725 0.0
C1521 C 0.0413 0.53819 0.9401 0.0
C1522 C 0.04731 0.5487 0.86375 0.0
C1523 C 0.04976 0.5494 0.93651 0.0
N1524 N 0.05262 0.55453 0.89867 0.0
C1525 C 0.03882 0.53748 0.86616 0.0
C1526 C 0.0358 0.53221 0.90464 0.0
C1527 C 0.07618 0.57001 0.81511 0.0
C1528 C 0.11198 0.60634 0.89641 0.0
C1529 C 0.10315 0.59662 0.82053 0.0
C1530 C 0.11425 0.59976 0.83004 0.0
C1531 C 0.11867 0.60464 0.86829 0.0
N1532 N 0.09664 0.5983 0.84831 0.0
C1533 C 0.10093 0.6031 0.88581 0.0
Co1534 Co 0.43406 0.49636 0.90393 0.0
Co1535 Co 0.41144 0.48837 0.83981 0.0
O1536 O 0.41853 0.49278 0.8945 0.0
C1537 C 0.4307 0.51218 0.96008 0.0
O1538 O 0.42023 0.50812 0.94853 0.0
C1539 C 0.39402 0.47006 0.89169 0.0
O1540 O 0.40172 0.46797 0.90607 0.0
O1541 O 0.41489 0.47598 0.83688 0.0
O1542 O 0.43218 0.48436 0.86424 0.0
H1543 H 0.40862 0.4764 0.69136 0.0
H1544 H 0.41734 0.48969 0.97302 0.0
O1545 O 0.43678 0.50853 0.94459 0.0
H1546 H 0.43252 0.46408 0.98311 0.0
H1547 H 0.46868 0.50696 0.98894 0.0
H1548 H 0.45238 0.49885 0.84874 0.0
H1549 H 0.43919 0.47856 0.92888 0.0
H1550 H 0.44899 0.50201 0.97791 0.0
O1551 O 0.39666 0.47808 0.86633 0.0
H1552 H 0.4176 0.48233 0.7598 0.0
H1553 H 0.38966 0.48437 0.80481 0.0
H1554 H 0.47207 0.50363 0.85847 0.0
H1555 H 0.41059 0.47549 0.028 0.0
H1556 H 0.48034 0.50774 0.92898 0.0
H1557 H 0.41815 0.4625 0.03341 0.0
O1558 O 0.43935 0.50771 0.85848 0.0
H1559 H 0.39679 0.51142 0.90706 0.0
H1560 H 0.41485 0.50687 0.78258 0.0
H1561 H 0.41097 0.5225 0.78612 0.0
H1562 H 0.40185 0.52484 0.84866 0.0
H1563 H 0.40094 0.49597 0.90241 0.0
H1564 H 0.38034 0.47838 0.73695 0.0
H1565 H 0.38986 0.47439 0.67959 0.0
O1566 O 0.42591 0.49852 0.81116 0.0
C1567 C 0.42418 0.47637 0.84425 0.0
C1568 C 0.40441 0.47816 0.71606 0.0
C1569 C 0.38853 0.47925 0.74166 0.0
N1570 N 0.40422 0.48381 0.78616 0.0
C1571 C 0.40947 0.48155 0.75485 0.0
C1572 C 0.39385 0.48263 0.78004 0.0
C1573 C 0.39388 0.47702 0.70949 0.0
C1574 C 0.42089 0.4843 0.9754 0.0
N1575 N 0.42889 0.48522 0.94808 0.0
C1576 C 0.41693 0.47616 0.00653 0.0
C1577 C 0.42115 0.46886 0.00949 0.0
C1578 C 0.42921 0.46974 0.98129 0.0
C1579 C 0.43296 0.47797 0.95057 0.0
C1580 C 0.46516 0.50517 0.95808 0.0
C1581 C 0.45589 0.50055 0.87955 0.0
C1582 C 0.45403 0.50241 0.95161 0.0
N1583 N 0.44951 0.50007 0.91272 0.0
C1584 C 0.46706 0.50329 0.88486 0.0
C1585 C 0.4717 0.5056 0.92442 0.0
C1586 C 0.43563 0.50637 0.82156 0.0
C1587 C 0.40077 0.51049 0.87965 0.0
C1588 C 0.41098 0.50789 0.81009 0.0
C1589 C 0.40875 0.51673 0.81182 0.0
C1590 C 0.40362 0.51803 0.84689 0.0
N1591 N 0.40818 0.50054 0.84239 0.0
C1592 C 0.40312 0.50175 0.87681 0.0
Co1593 Co 0.61134 0.84423 0.94703 0.0
Co1594 Co 0.58957 0.84667 0.98755 0.0
O1595 O 0.59797 0.84572 0.94047 0.0
C1596 C 0.59713 0.82634 0.88699 0.0
O1597 O 0.58839 0.82375 0.9105 0.0
C1598 C 0.59334 0.8672 0.94252 0.0
O1599 O 0.60421 0.87104 0.94296 0.0
O1600 O 0.60353 0.85944 0.01091 0.0
O1601 O 0.61638 0.85441 0.99599 0.0
H1602 H 0.58269 0.84992 0.13822 0.0
H1603 H 0.60646 0.85105 0.86614 0.0
O1604 O 0.60683 0.83414 0.89762 0.0
H1605 H 0.64356 0.88214 0.90755 0.0
H1606 H 0.64456 0.84176 0.89504 0.0
H1607 H 0.62316 0.8412 0.01832 0.0
H1608 H 0.63352 0.86537 0.95163 0.0
H1609 H 0.62787 0.8439 0.88807 0.0
O1610 O 0.58656 0.85748 0.9567 0.0
H1611 H 0.59302 0.84847 0.07836 0.0
H1612 H 0.56833 0.84738 0.99653 0.0
H1613 H 0.63984 0.8391 0.02672 0.0
H1614 H 0.61628 0.86763 0.82088 0.0
H1615 H 0.65066 0.83937 0.96478 0.0
H1616 H 0.63496 0.88334 0.84157 0.0
O1617 O 0.60312 0.83101 0.98436 0.0
H1618 H 0.56216 0.82582 0.87355 0.0
H1619 H 0.57082 0.8252 0.02117 0.0
H1620 H 0.55381 0.80925 0.99153 0.0
H1621 H 0.54937 0.80951 0.91718 0.0
H1622 H 0.57917 0.84153 0.90443 0.0
H1623 H 0.5578 0.84894 0.05546 0.0
H1624 H 0.56496 0.85017 0.12695 0.0
O1625 O 0.59216 0.8358 0.02004 0.0
C1626 C 0.61328 0.86058 0.01437 0.0
C1627 C 0.57948 0.84936 0.10723 0.0
C1628 C 0.56551 0.84882 0.06078 0.0
N1629 N 0.58124 0.84775 0.03402 0.0
C1630 C 0.58527 0.8485 0.07323 0.0
C1631 C 0.57152 0.84797 0.02752 0.0
C1632 C 0.56953 0.84951 0.10088 0.0
C1633 C 0.61463 0.8578 0.87515 0.0
N1634 N 0.61943 0.8572 0.91134 0.0
C1635 C 0.62013 0.86719 0.84948 0.0
C1636 C 0.63061 0.876 0.86114 0.0
C1637 C 0.63544 0.87534 0.89815 0.0
C1638 C 0.6297 0.86583 0.92302 0.0
C1639 C 0.63991 0.84163 0.92226 0.0
C1640 C 0.62785 0.84137 0.99122 0.0
C1641 C 0.63044 0.8428 0.9185 0.0
N1642 N 0.62456 0.8427 0.95276 0.0
C1643 C 0.63728 0.84015 0.99617 0.0
C1644 C 0.64334 0.8403 0.9614 0.0
C1645 C 0.59667 0.82974 0.0148 0.0
C1646 C 0.564 0.82561 0.90599 0.0
C1647 C 0.56901 0.82533 0.98876 0.0
C1648 C 0.55933 0.8163 0.97217 0.0
C1649 C 0.55683 0.81646 0.93047 0.0
N1650 N 0.576 0.83426 0.96454 0.0
C1651 C 0.57359 0.8345 0.92368 0.0
Co1652 Co 0.16307 0.76724 0.93188 0.0
Co1653 Co 0.15236 0.74498 0.99981 0.0
O1654 O 0.15818 0.75148 0.9448 0.0
C1655 C 0.17921 0.76245 0.88286 0.0
O1656 O 0.17413 0.75177 0.89272 0.0
C1657 C 0.13471 0.72789 0.94478 0.0
O1658 O 0.13464 0.73591 0.92301 0.0
O1659 O 0.14085 0.74967 0.99678 0.0
O1660 O 0.15046 0.76644 0.96559 0.0
H1661 H 0.13843 0.7447 0.14379 0.0
H1662 H 0.15641 0.74935 0.86709 0.0
O1663 O 0.17588 0.76893 0.89692 0.0
H1664 H 0.13474 0.76802 0.83496 0.0
H1665 H 0.17829 0.80173 0.8418 0.0
H1666 H 0.1654 0.78635 0.98172 0.0
H1667 H 0.14772 0.77423 0.89403 0.0
H1668 H 0.17165 0.78181 0.85651 0.0
O1669 O 0.14155 0.73022 0.9746 0.0
H1670 H 0.14594 0.75277 0.0751 0.0
H1671 H 0.14609 0.72309 0.04019 0.0
H1672 H 0.17182 0.80629 0.96816 0.0
H1673 H 0.14376 0.74306 0.80734 0.0
H1674 H 0.17833 0.81411 0.89778 0.0
H1675 H 0.13274 0.75236 0.7908 0.0
O1676 O 0.17334 0.77232 0.98076 0.0
H1677 H 0.17417 0.7274 0.9452 0.0
H1678 H 0.16922 0.74723 0.06313 0.0
H1679 H 0.1838 0.74184 0.06642 0.0
H1680 H 0.18633 0.73182 0.0072 0.0
H1681 H 0.15975 0.73306 0.94305 0.0
H1682 H 0.1385 0.71467 0.10837 0.0
H1683 H 0.13465 0.72552 0.1608 0.0
O1684 O 0.16289 0.75933 0.02785 0.0
C1685 C 0.14193 0.75903 0.98545 0.0
C1686 C 0.1401 0.73991 0.12125 0.0
C1687 C 0.14012 0.72305 0.10136 0.0
N1688 N 0.14653 0.73845 0.05374 0.0
C1689 C 0.14438 0.74444 0.08233 0.0
C1690 C 0.1444 0.72785 0.06276 0.0
C1691 C 0.13797 0.72914 0.13076 0.0
C1692 C 0.15192 0.75367 0.85994 0.0
N1693 N 0.15309 0.76236 0.88396 0.0
C1694 C 0.14463 0.74996 0.82609 0.0
C1695 C 0.13843 0.75516 0.8169 0.0
C1696 C 0.13954 0.76393 0.84166 0.0
C1697 C 0.1469 0.76739 0.87526 0.0
C1698 C 0.17545 0.79842 0.87257 0.0
C1699 C 0.16814 0.78966 0.95093 0.0
C1700 C 0.17173 0.78715 0.88116 0.0
N1701 N 0.16805 0.78288 0.9199 0.0
C1702 C 0.1718 0.80097 0.94347 0.0
C1703 C 0.17547 0.80536 0.90399 0.0
C1704 C 0.17132 0.76871 0.01788 0.0
C1705 C 0.17314 0.73176 0.97121 0.0
C1706 C 0.17032 0.74295 0.03709 0.0
C1707 C 0.17856 0.73988 0.03921 0.0
C1708 C 0.17997 0.73425 0.00599 0.0
N1709 N 0.16365 0.74048 0.00285 0.0
C1710 C 0.16498 0.73496 0.9702 0.0
Co1711 Co 0.23329 0.39612 0.93109 0.0
Co1712 Co 0.25709 0.408 0.98994 0.0
O1713 O 0.24951 0.40599 0.93686 0.0
C1714 C 0.22647 0.41027 0.88452 0.0
O1715 O 0.21983 0.40906 0.91571 0.0
C1716 C 0.27589 0.4044 0.96846 0.0
O1717 O 0.27193 0.39646 0.99665 0.0
O1718 O 0.25073 0.39148 0.99413 0.0
O1719 O 0.23308 0.38542 0.97353 0.0
H1720 H 0.25973 0.39869 0.13837 0.0
H1721 H 0.24798 0.40262 0.85714 0.0
O1722 O 0.23319 0.40644 0.88728 0.0
H1723 H 0.22849 0.36128 0.86089 0.0
H1724 H 0.19707 0.37481 0.85139 0.0
H1725 H 0.21436 0.38452 0.98989 0.0
H1726 H 0.2247 0.37179 0.91402 0.0
H1727 H 0.21754 0.38695 0.85905 0.0
O1728 O 0.27058 0.40955 0.95988 0.0
H1729 H 0.25036 0.39655 0.07119 0.0
H1730 H 0.28024 0.42364 0.02151 0.0
H1731 H 0.19385 0.37233 0.98362 0.0
H1732 H 0.25191 0.39243 0.80303 0.0
H1733 H 0.18507 0.3674 0.91397 0.0
H1734 H 0.24215 0.37161 0.80473 0.0
O1735 O 0.23065 0.40463 0.97559 0.0
H1736 H 0.276 0.44506 0.91577 0.0
H1737 H 0.25833 0.4258 0.04643 0.0
H1738 H 0.26561 0.44614 0.04012 0.0
H1739 H 0.27457 0.45592 0.97449 0.0
H1740 H 0.26847 0.42469 0.92323 0.0
H1741 H 0.28993 0.42607 0.08812 0.0
H1742 H 0.27966 0.41354 0.14715 0.0
O1743 O 0.24388 0.40666 0.0209 0.0
C1744 C 0.24051 0.38377 0.99042 0.0
C1745 C 0.26429 0.40421 0.1129 0.0
C1746 C 0.28124 0.41958 0.0847 0.0
N1747 N 0.26473 0.40998 0.0425 0.0
C1748 C 0.25903 0.40304 0.07479 0.0
C1749 C 0.27571 0.41817 0.04707 0.0
C1750 C 0.27547 0.41254 0.1178 0.0
C1751 C 0.24364 0.39356 0.85793 0.0
N1752 N 0.23607 0.38782 0.88861 0.0
C1753 C 0.24592 0.38783 0.82728 0.0
C1754 C 0.24045 0.37615 0.82827 0.0
C1755 C 0.23279 0.37036 0.85978 0.0
C1756 C 0.23071 0.37636 0.88989 0.0
C1757 C 0.20079 0.37689 0.8819 0.0
C1758 C 0.21061 0.38242 0.95947 0.0
C1759 C 0.21238 0.38377 0.88645 0.0
N1760 N 0.21715 0.38645 0.92491 0.0
C1761 C 0.19899 0.37551 0.95611 0.0
C1762 C 0.19407 0.37274 0.91703 0.0
C1763 C 0.23492 0.40681 0.01183 0.0
C1764 C 0.27214 0.4409 0.94457 0.0
C1765 C 0.26215 0.42997 0.01767 0.0
C1766 C 0.2663 0.4415 0.01433 0.0
C1767 C 0.27133 0.44698 0.97751 0.0
N1768 N 0.26304 0.42407 0.98529 0.0
C1769 C 0.2679 0.42938 0.94902 0.0
Co1770 Co 0.16161 0.39334 0.42461 0.0
Co1771 Co 0.1505 0.40703 0.48076 0.0
O1772 O 0.15601 0.40395 0.42901 0.0
C1773 C 0.17729 0.41308 0.37003 0.0
O1774 O 0.17191 0.41853 0.37711 0.0
C1775 C 0.12785 0.40265 0.45853 0.0
O1776 O 0.12413 0.39532 0.48888 0.0
O1777 O 0.14041 0.39066 0.4907 0.0
O1778 O 0.14901 0.38234 0.46004 0.0
H1779 H 0.13956 0.40138 0.63094 0.0
H1780 H 0.15472 0.40202 0.35143 0.0
O1781 O 0.1744 0.40376 0.38785 0.0
H1782 H 0.13481 0.36097 0.33514 0.0
H1783 H 0.17874 0.37295 0.35264 0.0
H1784 H 0.16432 0.37862 0.48472 0.0
H1785 H 0.14726 0.36988 0.3947 0.0
H1786 H 0.17122 0.38585 0.35675 0.0
O1787 O 0.13826 0.40768 0.44898 0.0
H1788 H 0.14642 0.39768 0.56569 0.0
H1789 H 0.14294 0.42319 0.50525 0.0
H1790 H 0.17163 0.36552 0.48181 0.0
H1791 H 0.14256 0.39349 0.29118 0.0
H1792 H 0.17892 0.36263 0.41541 0.0
H1793 H 0.13244 0.37279 0.28257 0.0
O1794 O 0.17153 0.40015 0.47396 0.0
H1795 H 0.16723 0.44238 0.39599 0.0
H1796 H 0.16761 0.42612 0.53149 0.0
H1797 H 0.18036 0.44628 0.51912 0.0
H1798 H 0.18019 0.45456 0.45102 0.0
H1799 H 0.15474 0.42221 0.40943 0.0
H1800 H 0.13602 0.42715 0.56982 0.0
H1801 H 0.1343 0.41621 0.63328 0.0
O1802 O 0.16251 0.40654 0.51333 0.0
C1803 C 0.14115 0.38203 0.48191 0.0
C1804 C 0.14027 0.40621 0.6035 0.0
C1805 C 0.13829 0.42067 0.5692 0.0
N1806 N 0.14509 0.41021 0.53169 0.0
C1807 C 0.14416 0.40415 0.56646 0.0
C1808 C 0.14221 0.41839 0.53273 0.0
C1809 C 0.13733 0.41453 0.60479 0.0
C1810 C 0.15058 0.39306 0.3479 0.0
N1811 N 0.15198 0.38654 0.37651 0.0
C1812 C 0.14359 0.38825 0.31368 0.0
C1813 C 0.1379 0.37664 0.3089 0.0
C1814 C 0.13922 0.37001 0.33838 0.0
C1815 C 0.14629 0.37512 0.37217 0.0
C1816 C 0.17557 0.37413 0.38174 0.0
C1817 C 0.16739 0.37733 0.45563 0.0
C1818 C 0.17134 0.38146 0.38431 0.0
N1819 N 0.16724 0.38293 0.42091 0.0
C1820 C 0.17156 0.36994 0.45421 0.0
C1821 C 0.17566 0.36833 0.41696 0.0
C1822 C 0.17038 0.40437 0.50747 0.0
C1823 C 0.16737 0.43888 0.42581 0.0
C1824 C 0.16756 0.42961 0.5016 0.0
C1825 C 0.17476 0.44106 0.49487 0.0
C1826 C 0.17465 0.4457 0.45668 0.0
N1827 N 0.16044 0.42296 0.47117 0.0
C1828 C 0.16028 0.42746 0.43367 0.0
Co1829 Co 0.61065 0.76933 0.44764 0.0
Co1830 Co 0.59023 0.74509 0.49058 0.0
O1831 O 0.59763 0.75426 0.44207 0.0
C1832 C 0.59629 0.77297 0.38781 0.0
O1833 O 0.58797 0.76837 0.41438 0.0
C1834 C 0.59325 0.72848 0.4414 0.0
O1835 O 0.60409 0.73558 0.43976 0.0
O1836 O 0.60472 0.74653 0.50876 0.0
O1837 O 0.61607 0.76497 0.49805 0.0
H1838 H 0.5866 0.73535 0.64174 0.0
H1839 H 0.60629 0.757 0.36835 0.0
O1840 O 0.6058 0.77407 0.3968 0.0
H1841 H 0.64402 0.76518 0.41168 0.0
H1842 H 0.64291 0.80534 0.39312 0.0
H1843 H 0.62185 0.78496 0.51762 0.0
H1844 H 0.63337 0.77162 0.45369 0.0
H1845 H 0.62679 0.78612 0.38759 0.0
O1846 O 0.58667 0.73123 0.45882 0.0
H1847 H 0.5956 0.74698 0.58006 0.0
H1848 H 0.56932 0.72311 0.50399 0.0
H1849 H 0.63796 0.80414 0.52457 0.0
H1850 H 0.61673 0.75054 0.32509 0.0
H1851 H 0.64861 0.81446 0.46202 0.0
H1852 H 0.63572 0.75459 0.34678 0.0
O1853 O 0.60186 0.77391 0.48367 0.0
H1854 H 0.56053 0.73837 0.38589 0.0
H1855 H 0.57224 0.74781 0.53139 0.0
H1856 H 0.55462 0.74662 0.50788 0.0
H1857 H 0.54865 0.74185 0.43466 0.0
H1858 H 0.57815 0.73974 0.41066 0.0
H1859 H 0.5601 0.71116 0.56478 0.0
H1860 H 0.56872 0.7173 0.6343 0.0
O1861 O 0.59338 0.75863 0.5239 0.0
C1862 C 0.61404 0.7556 0.51335 0.0
C1863 C 0.58275 0.7326 0.61163 0.0
C1864 C 0.56788 0.71902 0.56843 0.0
N1865 N 0.58295 0.73578 0.53854 0.0
C1866 C 0.58779 0.73917 0.57661 0.0
C1867 C 0.57315 0.72581 0.53411 0.0
C1868 C 0.57272 0.72247 0.60743 0.0
C1869 C 0.6146 0.7589 0.37777 0.0
N1870 N 0.61923 0.76473 0.41339 0.0
C1871 C 0.62045 0.75518 0.35323 0.0
C1872 C 0.6311 0.75744 0.36544 0.0
C1873 C 0.63577 0.76339 0.40185 0.0
C1874 C 0.62968 0.76699 0.42556 0.0
C1875 C 0.63835 0.80092 0.42061 0.0
C1876 C 0.62647 0.78937 0.49026 0.0
C1877 C 0.62919 0.79005 0.41766 0.0
N1878 N 0.62342 0.78439 0.45228 0.0
C1879 C 0.63557 0.80024 0.49439 0.0
C1880 C 0.64154 0.80604 0.45928 0.0
C1881 C 0.59658 0.76892 0.51655 0.0
C1882 C 0.56303 0.74043 0.41789 0.0
C1883 C 0.56972 0.74577 0.49945 0.0
C1884 C 0.55972 0.74508 0.48634 0.0
C1885 C 0.55637 0.7424 0.44526 0.0
N1886 N 0.57619 0.74381 0.47243 0.0
C1887 C 0.57297 0.74118 0.43211 0.0
Co1888 Co 0.25513 0.84787 0.49537 0.0
Co1889 Co 0.22979 0.83527 0.4464 0.0
O1890 O 0.24619 0.84197 0.44486 0.0
C1891 C 0.27335 0.87006 0.46911 0.0
O1892 O 0.26991 0.87416 0.4987 0.0
C1893 C 0.2345 0.82252 0.37999 0.0
O1894 O 0.24535 0.8281 0.38705 0.0
O1895 O 0.22885 0.82437 0.489 0.0
O1896 O 0.24268 0.8363 0.5306 0.0
H1897 H 0.19248 0.81971 0.51787 0.0
H1898 H 0.26532 0.84231 0.42521 0.0
O1899 O 0.26792 0.85955 0.46144 0.0
H1900 H 0.26446 0.81839 0.54039 0.0
H1901 H 0.29018 0.86321 0.5824 0.0
H1902 H 0.25046 0.8534 0.57884 0.0
H1903 H 0.25741 0.83154 0.55002 0.0
H1904 H 0.27892 0.85545 0.51905 0.0
O1905 O 0.22777 0.82427 0.4016 0.0
H1906 H 0.21309 0.82861 0.5141 0.0
H1907 H 0.21158 0.82697 0.38285 0.0
H1908 H 0.2614 0.86111 0.64289 0.0
H1909 H 0.27259 0.82936 0.41436 0.0
H1910 H 0.28142 0.86607 0.64493 0.0
H1911 H 0.27216 0.81726 0.47219 0.0
O1912 O 0.24901 0.85816 0.50175 0.0
H1913 H 0.24433 0.85857 0.31663 0.0
H1914 H 0.21928 0.84955 0.43707 0.0
H1915 H 0.22063 0.86353 0.38642 0.0
H1916 H 0.23316 0.86808 0.32546 0.0
H1917 H 0.24288 0.8448 0.36825 0.0
H1918 H 0.19094 0.81796 0.38525 0.0
H1919 H 0.18126 0.81432 0.45312 0.0
O1920 O 0.23085 0.84599 0.49066 0.0
C1921 C 0.23387 0.82686 0.52383 0.0
C1922 C 0.1966 0.82128 0.48811 0.0
C1923 C 0.19574 0.82028 0.41368 0.0
N1924 N 0.21355 0.82838 0.44831 0.0
C1925 C 0.20828 0.82635 0.48577 0.0
C1926 C 0.20743 0.82536 0.41253 0.0
C1927 C 0.19031 0.81825 0.45177 0.0
C1928 C 0.26515 0.83711 0.45056 0.0
N1929 N 0.2609 0.83766 0.48811 0.0
C1930 C 0.26926 0.82978 0.44422 0.0
C1931 C 0.269 0.82298 0.47667 0.0
C1932 C 0.26467 0.8236 0.51491 0.0
C1933 C 0.26063 0.83103 0.52011 0.0
C1934 C 0.28147 0.86106 0.58193 0.0
C1935 C 0.25915 0.85552 0.57953 0.0
C1936 C 0.27504 0.85666 0.54616 0.0
N1937 N 0.26402 0.85393 0.54531 0.0
C1938 C 0.26531 0.85989 0.61587 0.0
C1939 C 0.27654 0.86267 0.61699 0.0
C1940 C 0.23874 0.85556 0.50223 0.0
C1941 C 0.23875 0.85657 0.34284 0.0
C1942 C 0.22474 0.85142 0.4106 0.0
C1943 C 0.22547 0.85937 0.38201 0.0
C1944 C 0.2325 0.86193 0.34785 0.0
N1945 N 0.23078 0.84608 0.40525 0.0
C1946 C 0.23782 0.84868 0.3721 0.0
Co1947 Co 0.07739 0.48723 0.32566 0.0
Co1948 Co 0.06492 0.49681 0.39216 0.0
O1949 O 0.07594 0.49212 0.38092 0.0
C1950 C 0.0761 0.46855 0.37656 0.0
O1951 O 0.06666 0.46697 0.39282 0.0
C1952 C 0.07821 0.51777 0.43984 0.0
O1953 O 0.07602 0.52303 0.41057 0.0
O1954 O 0.07188 0.50854 0.34794 0.0
O1955 O 0.07364 0.49804 0.29882 0.0
H1956 H 0.03716 0.50885 0.35292 0.0
H1957 H 0.09603 0.49452 0.38568 0.0
O1958 O 0.08141 0.4764 0.3505 0.0
H1959 H 0.11245 0.51953 0.26523 0.0
H1960 H 0.09524 0.47489 0.21725 0.0
H1961 H 0.06407 0.48174 0.24835 0.0
H1962 H 0.09253 0.50471 0.26517 0.0
H1963 H 0.09356 0.48157 0.28621 0.0
O1964 O 0.07527 0.50746 0.43529 0.0
H1965 H 0.05086 0.50261 0.3399 0.0
H1966 H 0.05574 0.5014 0.46913 0.0
H1967 H 0.06549 0.47516 0.17886 0.0
H1968 H 0.11603 0.50918 0.38688 0.0
H1969 H 0.08117 0.4717 0.16294 0.0
H1970 H 0.12435 0.52182 0.32636 0.0
O1971 O 0.06121 0.47557 0.32618 0.0
H1972 H 0.06594 0.47454 0.51368 0.0
H1973 H 0.04145 0.47917 0.41392 0.0
H1974 H 0.03303 0.46412 0.46604 0.0
H1975 H 0.0453 0.46175 0.51654 0.0
H1976 H 0.07402 0.48939 0.46064 0.0
H1977 H 0.04214 0.50766 0.48353 0.0
H1978 H 0.03272 0.51142 0.42517 0.0
O1979 O 0.05411 0.48594 0.35067 0.0
C1980 C 0.0734 0.50679 0.31032 0.0
C1981 C 0.04121 0.50724 0.37861 0.0
C1982 C 0.044 0.50658 0.45191 0.0
N1983 N 0.05412 0.50166 0.40367 0.0
C1984 C 0.04898 0.50371 0.37143 0.0
C1985 C 0.05171 0.50304 0.44355 0.0
C1986 C 0.03872 0.50868 0.41916 0.0
C1987 C 0.09961 0.49995 0.35914 0.0
N1988 N 0.09313 0.49872 0.32535 0.0
C1989 C 0.11093 0.50825 0.36003 0.0
C1990 C 0.1156 0.51534 0.32608 0.0
C1991 C 0.10892 0.51407 0.29178 0.0
C1992 C 0.09764 0.50568 0.29197 0.0
C1993 C 0.08839 0.4764 0.22378 0.0
C1994 C 0.07095 0.48031 0.24158 0.0
C1995 C 0.08737 0.48015 0.2628 0.0
N1996 N 0.07877 0.48213 0.27119 0.0
C1997 C 0.0717 0.47656 0.20222 0.0
C1998 C 0.08049 0.47461 0.19332 0.0
C1999 C 0.05296 0.47711 0.33317 0.0
C2000 C 0.0605 0.4755 0.49191 0.0
C2001 C 0.04686 0.47816 0.43554 0.0
C2002 C 0.04203 0.46964 0.46512 0.0
C2003 C 0.04892 0.46832 0.49346 0.0
N2004 N 0.05822 0.48519 0.43424 0.0
C2005 C 0.06503 0.48393 0.46189 0.0
Co2006 Co 0.50598 0.56774 0.38709 0.0
Co2007 Co 0.51381 0.59281 0.34066 0.0
O2008 O 0.51028 0.58362 0.39071 0.0
C2009 C 0.49246 0.56926 0.45873 0.0
O2010 O 0.49599 0.57989 0.45155 0.0
C2011 C 0.53457 0.60955 0.38622 0.0
O2012 O 0.53879 0.60286 0.38434 0.0
O2013 O 0.52579 0.5893 0.32655 0.0
O2014 O 0.51623 0.5708 0.33863 0.0
H2015 H 0.523 0.6014 0.18986 0.0
H2016 H 0.51523 0.58067 0.4653 0.0
O2017 O 0.49554 0.56375 0.43575 0.0
H2018 H 0.5398 0.56528 0.43131 0.0
H2019 H 0.49616 0.52978 0.44375 0.0
H2020 H 0.50025 0.55169 0.31763 0.0
H2021 H 0.52378 0.5614 0.38645 0.0
H2022 H 0.50202 0.54986 0.44839 0.0
O2023 O 0.52474 0.60639 0.37264 0.0
H2024 H 0.51807 0.5898 0.25295 0.0
H2025 H 0.51792 0.61586 0.3228 0.0
H2026 H 0.49449 0.53167 0.31158 0.0
H2027 H 0.53105 0.58463 0.5112 0.0
H2028 H 0.4924 0.52057 0.37495 0.0
H2029 H 0.5435 0.57692 0.49435 0.0
O2030 O 0.49343 0.56493 0.34909 0.0
H2031 H 0.49267 0.6048 0.4349 0.0
H2032 H 0.49464 0.59204 0.29425 0.0
H2033 H 0.47947 0.59593 0.31171 0.0
H2034 H 0.47842 0.60238 0.38246 0.0
H2035 H 0.50764 0.6007 0.41625 0.0
H2036 H 0.52295 0.62777 0.26055 0.0
H2037 H 0.52547 0.62053 0.19342 0.0
O2038 O 0.50281 0.57964 0.30694 0.0
C2039 C 0.52454 0.57953 0.32313 0.0
C2040 C 0.52188 0.60463 0.21889 0.0
C2041 C 0.52187 0.61944 0.25858 0.0
N2042 N 0.51761 0.6021 0.29145 0.0
C2043 C 0.51906 0.59809 0.25471 0.0
C2044 C 0.51904 0.61266 0.29375 0.0
C2045 C 0.52328 0.61537 0.22092 0.0
C2046 C 0.52045 0.57711 0.458 0.0
N2047 N 0.51837 0.57059 0.42364 0.0
C2048 C 0.52947 0.57946 0.48402 0.0
C2049 C 0.53646 0.57515 0.47451 0.0
C2050 C 0.53439 0.56862 0.43916 0.0
C2051 C 0.52529 0.56645 0.41389 0.0
C2052 C 0.49705 0.53453 0.4159 0.0
C2053 C 0.49942 0.54694 0.34534 0.0
C2054 C 0.50034 0.5459 0.41834 0.0
N2055 N 0.50154 0.55197 0.38328 0.0
C2056 C 0.49613 0.53559 0.34173 0.0
C2057 C 0.49495 0.52937 0.37729 0.0
C2058 C 0.49446 0.56996 0.31484 0.0
C2059 C 0.49302 0.60198 0.40398 0.0
C2060 C 0.49419 0.59473 0.32524 0.0
C2061 C 0.48561 0.59698 0.33488 0.0
C2062 C 0.48503 0.60061 0.37456 0.0
N2063 N 0.50198 0.59606 0.35432 0.0
C2064 C 0.50149 0.59966 0.39322 0.0
Co2065 Co 0.43073 0.93827 0.40903 0.0
Co2066 Co 0.40967 0.92468 0.33854 0.0
O2067 O 0.41553 0.92648 0.39492 0.0
C2068 C 0.43945 0.9258 0.45603 0.0
O2069 O 0.44712 0.92871 0.42713 0.0
C2070 C 0.39131 0.92479 0.38658 0.0
O2071 O 0.39875 0.93435 0.40327 0.0
O2072 O 0.4132 0.94058 0.33766 0.0
O2073 O 0.43012 0.94884 0.36792 0.0
H2074 H 0.41016 0.93594 0.19028 0.0
H2075 H 0.41365 0.92743 0.47495 0.0
O2076 O 0.4316 0.9281 0.45173 0.0
H2077 H 0.42571 0.96767 0.48337 0.0
H2078 H 0.4625 0.96217 0.50632 0.0
H2079 H 0.45074 0.95402 0.3604 0.0
H2080 H 0.43412 0.96083 0.43199 0.0
H2081 H 0.44325 0.9475 0.48834 0.0
O2082 O 0.39438 0.91981 0.36104 0.0
H2083 H 0.41762 0.93797 0.26108 0.0
H2084 H 0.38866 0.90757 0.29696 0.0
H2085 H 0.47005 0.9688 0.37702 0.0
H2086 H 0.40512 0.93393 0.52719 0.0
H2087 H 0.47604 0.97296 0.45044 0.0
H2088 H 0.41112 0.95418 0.53155 0.0
O2089 O 0.43695 0.93257 0.36547 0.0
H2090 H 0.39445 0.88632 0.40082 0.0
H2091 H 0.41392 0.91031 0.28061 0.0
H2092 H 0.4101 0.89079 0.28202 0.0
H2093 H 0.40026 0.87864 0.34239 0.0
H2094 H 0.39854 0.90593 0.39833 0.0
H2095 H 0.38086 0.90525 0.22663 0.0
H2096 H 0.39166 0.91948 0.17267 0.0
O2097 O 0.42473 0.92937 0.31416 0.0
C2098 C 0.42252 0.94927 0.34672 0.0
C2099 C 0.4054 0.92966 0.21348 0.0
C2100 C 0.38894 0.91245 0.2339 0.0
N2101 N 0.40363 0.92285 0.28303 0.0
C2102 C 0.40959 0.93075 0.2536 0.0
C2103 C 0.3934 0.91382 0.27369 0.0
C2104 C 0.39501 0.92043 0.20363 0.0
C2105 C 0.41638 0.93627 0.47689 0.0
N2106 N 0.42441 0.94374 0.45053 0.0
C2107 C 0.41149 0.9399 0.50644 0.0
C2108 C 0.41485 0.95126 0.50883 0.0
C2109 C 0.42303 0.95883 0.48179 0.0
C2110 C 0.42773 0.95489 0.45263 0.0
C2111 C 0.45999 0.96044 0.47421 0.0
C2112 C 0.45328 0.95578 0.39242 0.0
C2113 C 0.44911 0.95213 0.46383 0.0
N2114 N 0.44587 0.94989 0.42332 0.0
C2115 C 0.46423 0.96416 0.40164 0.0
C2116 C 0.46758 0.96649 0.44284 0.0
C2117 C 0.43408 0.9308 0.32748 0.0
C2118 C 0.39872 0.89152 0.37431 0.0
C2119 C 0.40968 0.90509 0.30709 0.0
C2120 C 0.40752 0.89404 0.30766 0.0
C2121 C 0.40199 0.88722 0.34153 0.0
N2122 N 0.40641 0.90924 0.3393 0.0
C2123 C 0.40103 0.90262 0.37267 0.0
C2124 C 0.24285 0.20099 0.27141 0.0
C2125 C 0.25452 0.20555 0.26803 0.0
C2126 C 0.23793 0.20747 0.2626 0.0
C2127 C 0.24365 0.23637 0.26139 0.0
H2128 H 0.21514 0.22314 0.20365 0.0
C2129 C 0.21835 0.25944 0.2291 0.0
C2130 C 0.20664 0.25283 0.23364 0.0
C2131 C 0.22516 0.25456 0.2323 0.0
C2132 C 0.22306 0.22694 0.22012 0.0
H2133 H 0.27017 0.22048 0.252 0.0
H2134 H 0.26149 0.23193 0.23671 0.0
H2135 H 0.22536 0.21297 0.2076 0.0
H2136 H 0.19299 0.2361 0.24789 0.0
H2137 H 0.20481 0.22772 0.25407 0.0
H2138 H 0.24117 0.25027 0.27458 0.0
C2139 C 0.2562 0.22329 0.24627 0.0
C2140 C 0.22893 0.22112 0.22222 0.0
C2141 C 0.26115 0.21672 0.25469 0.0
C2142 C 0.20197 0.24142 0.24369 0.0
C2143 C 0.20874 0.23658 0.24692 0.0
C2144 C 0.23774 0.24222 0.25932 0.0
C2145 C 0.24454 0.21873 0.25043 0.0
C2146 C 0.23915 0.22564 0.2437 0.0
C2147 C 0.22036 0.243 0.24006 0.0
C2148 C 0.22724 0.23742 0.23954 0.0
H2149 H 0.23749 0.19241 0.28157 0.0
H2150 H 0.22894 0.20375 0.26659 0.0
H2151 H 0.25148 0.24004 0.27837 0.0
H2152 H 0.22221 0.26825 0.22125 0.0
H2153 H 0.2341 0.25973 0.22694 0.0
C2154 C 0.78499 0.03931 0.29146 0.0
C2155 C 0.79182 0.04582 0.25855 0.0
C2156 C 0.77733 0.02793 0.28608 0.0
C2157 C 0.76391 0.00522 0.20677 0.0
H2158 H 0.76305 0.98646 0.29799 0.0
C2159 C 0.75284 0.95936 0.18811 0.0
C2160 C 0.7457 0.95138 0.21726 0.0
C2161 C 0.7565 0.97071 0.19343 0.0
C2162 C 0.76304 0.99158 0.27254 0.0
H2163 H 0.79568 0.04566 0.19375 0.0
H2164 H 0.78256 0.02563 0.18446 0.0
H2165 H 0.77313 0.00675 0.30585 0.0
H2166 H 0.73667 0.94906 0.27467 0.0
H2167 H 0.74337 0.96915 0.28468 0.0
H2168 H 0.7543 0.98994 0.17287 0.0
C2169 C 0.7829 0.02936 0.2143 0.0
C2170 C 0.7688 0.00324 0.27698 0.0
C2171 C 0.79046 0.04084 0.21954 0.0
C2172 C 0.74218 0.95502 0.25177 0.0
C2173 C 0.74602 0.96649 0.25749 0.0
C2174 C 0.75826 0.99356 0.2022 0.0
C2175 C 0.77644 0.02269 0.24784 0.0
C2176 C 0.76947 0.01025 0.24396 0.0
C2177 C 0.75322 0.97443 0.22831 0.0
C2178 C 0.75792 0.98664 0.23483 0.0
H2179 H 0.78578 0.04298 0.3218 0.0
H2180 H 0.77229 0.02319 0.31231 0.0
H2181 H 0.76404 0.0103 0.18095 0.0
H2182 H 0.75563 0.95684 0.16093 0.0
H2183 H 0.76215 0.97664 0.17072 0.0
C2184 C 0.95766 0.7371 0.27134 0.0
C2185 C 0.95246 0.7436 0.26648 0.0
C2186 C 0.96914 0.74172 0.26288 0.0
C2187 C 0.99315 0.76555 0.20987 0.0
H2188 H 0.01132 0.76281 0.29583 0.0
C2189 C 0.03943 0.79811 0.22855 0.0
C2190 C 0.04718 0.79444 0.23506 0.0
C2191 C 0.02792 0.7906 0.23046 0.0
C2192 C 0.00635 0.76351 0.27126 0.0
H2193 H 0.95507 0.75983 0.24704 0.0
H2194 H 0.9749 0.76779 0.23223 0.0
H2195 H 0.99083 0.75158 0.2998 0.0
H2196 H 0.04889 0.78001 0.25031 0.0
H2197 H 0.02863 0.76681 0.25404 0.0
H2198 H 0.0086 0.77772 0.18201 0.0
C2199 C 0.97019 0.75915 0.24245 0.0
C2200 C 0.99463 0.75707 0.27345 0.0
C2201 C 0.95881 0.75459 0.25119 0.0
C2202 C 0.04313 0.7831 0.24509 0.0
C2203 C 0.03155 0.77555 0.24723 0.0
C2204 C 0.00482 0.77199 0.20775 0.0
C2205 C 0.97555 0.75285 0.2489 0.0
C2206 C 0.9879 0.75827 0.24337 0.0
C2207 C 0.02384 0.7792 0.23907 0.0
C2208 C 0.01155 0.77129 0.23903 0.0
H2209 H 0.953 0.72861 0.28321 0.0
H2210 H 0.97302 0.73664 0.26784 0.0
H2211 H 0.98821 0.7665 0.18578 0.0
H2212 H 0.04221 0.80679 0.22115 0.0
H2213 H 0.0222 0.79372 0.225 0.0
C2214 C 0.7979 0.76062 0.78063 0.0
C2215 C 0.79435 0.74914 0.77724 0.0
C2216 C 0.79024 0.76439 0.7774 0.0
C2217 C 0.76279 0.75798 0.73813 0.0
H2218 H 0.76662 0.78062 0.81828 0.0
C2219 C 0.73722 0.78126 0.73298 0.0
C2220 C 0.74418 0.79299 0.73334 0.0
C2221 C 0.74158 0.77428 0.74321 0.0
C2222 C 0.76541 0.77427 0.7958 0.0
H2223 H 0.78 0.73265 0.76582 0.0
H2224 H 0.7665 0.73934 0.75975 0.0
H2225 H 0.77762 0.77127 0.82482 0.0
H2226 H 0.76099 0.80661 0.74644 0.0
H2227 H 0.7685 0.79452 0.76478 0.0
H2228 H 0.7508 0.76131 0.7084 0.0
C2229 C 0.77527 0.74536 0.76522 0.0
C2230 C 0.77172 0.76894 0.79945 0.0
C2231 C 0.78299 0.74155 0.76862 0.0
C2232 C 0.75541 0.7976 0.74582 0.0
C2233 C 0.7597 0.79067 0.75654 0.0
C2234 C 0.75644 0.76334 0.73448 0.0
C2235 C 0.77881 0.7568 0.77062 0.0
C2236 C 0.77078 0.76104 0.76986 0.0
C2237 C 0.75291 0.77895 0.75469 0.0
C2238 C 0.75798 0.77181 0.76252 0.0
H2239 H 0.80661 0.76674 0.78668 0.0
H2240 H 0.79329 0.77329 0.78056 0.0
H2241 H 0.7619 0.75192 0.71489 0.0
H2242 H 0.72854 0.77747 0.72324 0.0
H2243 H 0.73616 0.76527 0.74168 0.0
C2244 C 0.24158 0.03957 0.77487 0.0
C2245 C 0.25333 0.0464 0.77624 0.0
C2246 C 0.23662 0.02798 0.77077 0.0
C2247 C 0.24094 0.0047 0.74043 0.0
H2248 H 0.21621 0.98802 0.81643 0.0
C2249 C 0.21603 0.95588 0.74739 0.0
C2250 C 0.2043 0.9512 0.74692 0.0
C2251 C 0.22308 0.96741 0.75405 0.0
C2252 C 0.22308 0.99254 0.79492 0.0
H2253 H 0.26908 0.04644 0.77177 0.0
H2254 H 0.26033 0.02602 0.76429 0.0
H2255 H 0.22653 0.00842 0.81887 0.0
H2256 H 0.19079 0.95488 0.75458 0.0
H2257 H 0.203 0.97482 0.76622 0.0
H2258 H 0.23726 0.98873 0.71592 0.0
C2259 C 0.25501 0.02973 0.7666 0.0
C2260 C 0.22897 0.00423 0.79625 0.0
C2261 C 0.26001 0.04141 0.77079 0.0
C2262 C 0.19978 0.9582 0.7547 0.0
C2263 C 0.2068 0.96964 0.76162 0.0
C2264 C 0.23499 0.99294 0.73902 0.0
C2265 C 0.24326 0.02288 0.76792 0.0
C2266 C 0.23778 0.01045 0.76837 0.0
C2267 C 0.21853 0.97442 0.76086 0.0
C2268 C 0.22581 0.98676 0.76562 0.0
H2269 H 0.23617 0.04313 0.77844 0.0
H2270 H 0.22755 0.02295 0.77079 0.0
H2271 H 0.2477 0.00929 0.7186 0.0
H2272 H 0.21976 0.95071 0.74134 0.0
H2273 H 0.23209 0.97084 0.7536 0.0
C2274 C 0.04155 0.25882 0.76332 0.0
C2275 C 0.04524 0.25178 0.74663 0.0
C2276 C 0.03005 0.25484 0.76901 0.0
C2277 C 0.00246 0.2331 0.73011 0.0
H2278 H 0.99053 0.2373 0.83292 0.0
C2279 C 0.95614 0.20556 0.77592 0.0
C2280 C 0.95085 0.21031 0.79868 0.0
C2281 C 0.96757 0.21185 0.76653 0.0
C2282 C 0.99373 0.23622 0.8037 0.0
H2283 H 0.03972 0.23493 0.72413 0.0
H2284 H 0.01987 0.2281 0.73402 0.0
H2285 H 0.01084 0.24611 0.82365 0.0
H2286 H 0.95335 0.22558 0.82794 0.0
H2287 H 0.97328 0.23662 0.811 0.0
H2288 H 0.98543 0.22313 0.71019 0.0
C2289 C 0.0258 0.23672 0.74212 0.0
C2290 C 0.00536 0.24125 0.79847 0.0
C2291 C 0.03722 0.24064 0.73673 0.0
C2292 C 0.95717 0.22164 0.81046 0.0
C2293 C 0.96861 0.22795 0.80103 0.0
C2294 C 0.99086 0.22812 0.73523 0.0
C2295 C 0.02206 0.2438 0.75777 0.0
C2296 C 0.00983 0.23952 0.76198 0.0
C2297 C 0.97399 0.22307 0.77955 0.0
C2298 C 0.98634 0.2294 0.77243 0.0
H2299 H 0.04751 0.26743 0.77131 0.0
H2300 H 0.0274 0.26047 0.7812 0.0
H2301 H 0.00567 0.2318 0.70129 0.0
H2302 H 0.95156 0.19684 0.76646 0.0
H2303 H 0.97145 0.20777 0.75039 0.0
C2304 C 0.87618 0.58536 0.59877 0.0
C2305 C 0.87322 0.58654 0.55833 0.0
C2306 C 0.8835 0.58119 0.60557 0.0
C2307 C 0.89434 0.56466 0.55082 0.0
H2308 H 0.91338 0.57192 0.64755 0.0
C2309 C 0.92322 0.54594 0.57816 0.0
C2310 C 0.9213 0.54039 0.61634 0.0
C2311 C 0.91889 0.55308 0.57061 0.0
C2312 C 0.90812 0.56986 0.62031 0.0
H2313 H 0.87614 0.58512 0.49334 0.0
H2314 H 0.88931 0.57852 0.50493 0.0
H2315 H 0.90311 0.58189 0.63509 0.0
H2316 H 0.91386 0.53838 0.67719 0.0
H2317 H 0.90654 0.55099 0.66422 0.0
H2318 H 0.89946 0.55272 0.536 0.0
C2319 C 0.88564 0.58023 0.5316 0.0
C2320 C 0.90216 0.5755 0.6133 0.0
C2321 C 0.87816 0.58412 0.52489 0.0
C2322 C 0.91542 0.54249 0.64736 0.0
C2323 C 0.91129 0.54976 0.64009 0.0
C2324 C 0.90043 0.55919 0.55749 0.0
C2325 C 0.88816 0.57835 0.57199 0.0
C2326 C 0.89507 0.57288 0.57867 0.0
C2327 C 0.91279 0.55496 0.60141 0.0
C2328 C 0.90727 0.56162 0.59254 0.0
H2329 H 0.87243 0.58713 0.62506 0.0
H2330 H 0.88512 0.57978 0.63713 0.0
H2331 H 0.88878 0.56216 0.52438 0.0
H2332 H 0.9277 0.54445 0.55369 0.0
H2333 H 0.92018 0.55701 0.54054 0.0
C2334 C 0.40744 0.2907 0.56255 0.0
C2335 C 0.4143 0.28581 0.56233 0.0
C2336 C 0.41203 0.30214 0.57138 0.0
C2337 C 0.43646 0.32625 0.61983 0.0
H2338 H 0.43155 0.34452 0.54043 0.0
C2339 C 0.46673 0.37331 0.60932 0.0
C2340 C 0.46236 0.38055 0.60495 0.0
C2341 C 0.45984 0.36176 0.60476 0.0
C2342 C 0.43287 0.33953 0.56322 0.0
H2343 H 0.4312 0.28893 0.57289 0.0
H2344 H 0.43911 0.30872 0.58884 0.0
H2345 H 0.4209 0.32404 0.53455 0.0
H2346 H 0.44738 0.38136 0.5906 0.0
H2347 H 0.43524 0.36103 0.58275 0.0
H2348 H 0.44849 0.34162 0.64827 0.0
C2349 C 0.43022 0.30378 0.58209 0.0
C2350 C 0.42676 0.32781 0.5599 0.0
C2351 C 0.42569 0.29245 0.57276 0.0
C2352 C 0.451 0.376 0.59409 0.0
C2353 C 0.44406 0.36436 0.58963 0.0
C2354 C 0.4425 0.33791 0.62325 0.0
C2355 C 0.4235 0.30881 0.58084 0.0
C2356 C 0.42872 0.32108 0.58757 0.0
C2357 C 0.44836 0.35711 0.59593 0.0
C2358 C 0.44102 0.34471 0.59433 0.0
H2359 H 0.39864 0.2858 0.55441 0.0
H2360 H 0.40665 0.30579 0.57044 0.0
H2361 H 0.438 0.32127 0.64203 0.0
H2362 H 0.47548 0.37654 0.61716 0.0
H2363 H 0.46351 0.35645 0.60863 0.0
C2364 C 0.71191 0.11503 0.56959 0.0
C2365 C 0.71709 0.1267 0.57548 0.0
C2366 C 0.7004 0.10814 0.57721 0.0
C2367 C 0.67628 0.10711 0.63138 0.0
H2368 H 0.65832 0.0878 0.54153 0.0
C2369 C 0.62928 0.09153 0.62102 0.0
C2370 C 0.62195 0.08046 0.6081 0.0
C2371 C 0.64087 0.09613 0.61816 0.0
C2372 C 0.66321 0.093 0.56721 0.0
H2373 H 0.71442 0.1402 0.59585 0.0
H2374 H 0.69449 0.1282 0.60983 0.0
H2375 H 0.67881 0.09737 0.53739 0.0
H2376 H 0.62108 0.06564 0.58102 0.0
H2377 H 0.64145 0.07368 0.57638 0.0
H2378 H 0.66079 0.10287 0.66117 0.0
C2379 C 0.69926 0.12436 0.59916 0.0
C2380 C 0.67494 0.09847 0.56485 0.0
C2381 C 0.71067 0.13125 0.59099 0.0
C2382 C 0.6265 0.0742 0.59115 0.0
C2383 C 0.63817 0.07881 0.58847 0.0
C2384 C 0.66459 0.10159 0.63389 0.0
C2385 C 0.69394 0.11277 0.59156 0.0
C2386 C 0.68159 0.10579 0.59648 0.0
C2387 C 0.64549 0.08978 0.60256 0.0
C2388 C 0.6579 0.0947 0.60137 0.0
H2389 H 0.71662 0.1113 0.55741 0.0
H2390 H 0.69651 0.09922 0.57133 0.0
H2391 H 0.6812 0.11256 0.65651 0.0
H2392 H 0.62606 0.09665 0.63381 0.0
H2393 H 0.64623 0.10471 0.62824 0.0
C2394 C 0.46522 0.09107 0.08207 0.0
C2395 C 0.46048 0.07937 0.08495 0.0
C2396 C 0.4584 0.09587 0.07934 0.0
C2397 C 0.43025 0.09098 0.05494 0.0
H2398 H 0.4391 0.11621 0.12899 0.0
C2399 C 0.40609 0.11559 0.06436 0.0
C2400 C 0.41306 0.1273 0.06227 0.0
C2401 C 0.41071 0.10865 0.07107 0.0
C2402 C 0.43652 0.10921 0.10805 0.0
H2403 H 0.44482 0.0635 0.08449 0.0
H2404 H 0.43285 0.07196 0.07925 0.0
H2405 H 0.44943 0.10613 0.12955 0.0
H2406 H 0.43027 0.14094 0.0674 0.0
H2407 H 0.43825 0.12895 0.07912 0.0
H2408 H 0.4175 0.09429 0.03272 0.0
C2409 C 0.44188 0.07737 0.07941 0.0
C2410 C 0.44246 0.10344 0.10831 0.0
C2411 C 0.44874 0.07254 0.08231 0.0
C2412 C 0.42465 0.13195 0.06877 0.0
C2413 C 0.42923 0.12506 0.07573 0.0
C2414 C 0.42431 0.0968 0.05456 0.0
C2415 C 0.44666 0.08911 0.07928 0.0
C2416 C 0.43958 0.09445 0.08107 0.0
C2417 C 0.42236 0.11333 0.07631 0.0
C2418 C 0.42757 0.10616 0.08043 0.0
H2419 H 0.47423 0.0966 0.08347 0.0
H2420 H 0.46233 0.10493 0.07822 0.0
H2421 H 0.42785 0.08407 0.03365 0.0
H2422 H 0.39713 0.11175 0.0593 0.0
H2423 H 0.40519 0.09964 0.0717 0.0
C2424 C 0.88254 0.29171 0.0653 0.0
C2425 C 0.87122 0.28789 0.05552 0.0
C2426 C 0.89033 0.30324 0.06672 0.0
C2427 C 0.89448 0.3302 0.02671 0.0
H2428 H 0.91506 0.34387 0.11844 0.0
C2429 C 0.91233 0.37612 0.0721 0.0
C2430 C 0.92336 0.38235 0.08717 0.0
C2431 C 0.9077 0.36478 0.06259 0.0
C2432 C 0.90953 0.34017 0.09216 0.0
H2433 H 0.85918 0.29323 0.04104 0.0
H2434 H 0.87264 0.31314 0.04368 0.0
H2435 H 0.90354 0.32342 0.11441 0.0
H2436 H 0.93833 0.38165 0.10267 0.0
H2437 H 0.93017 0.36169 0.08609 0.0
H2438 H 0.90017 0.34688 0.00502 0.0
C2439 C 0.87558 0.30728 0.04949 0.0
C2440 C 0.90292 0.32846 0.08993 0.0
C2441 C 0.86783 0.29583 0.04829 0.0
C2442 C 0.92983 0.37708 0.09093 0.0
C2443 C 0.92513 0.36564 0.08179 0.0
C2444 C 0.90106 0.34186 0.02891 0.0
C2445 C 0.88694 0.31113 0.05807 0.0
C2446 C 0.89507 0.32338 0.05785 0.0
C2447 C 0.91394 0.35934 0.06815 0.0
C2448 C 0.90841 0.34699 0.06231 0.0
H2449 H 0.88542 0.28581 0.07106 0.0
H2450 H 0.89903 0.30598 0.07351 0.0
H2451 H 0.8887 0.32652 1.00107 0.0
H2452 H 0.90712 0.37993 0.06882 0.0
H2453 H 0.89902 0.36016 0.05262 0.0
C2454 C 0.62385 0.55001 0.08034 0.0
C2455 C 0.62035 0.54001 0.1025 0.0
C2456 C 0.63531 0.55746 0.0734 0.0
C2457 C 0.66314 0.56513 0.11607 0.0
H2458 H 0.67464 0.57786 0.00793 0.0
C2459 C 0.70949 0.58318 0.07038 0.0
C2460 C 0.71439 0.59217 0.04224 0.0
C2461 C 0.69814 0.57833 0.08087 0.0
C2462 C 0.67157 0.57456 0.03856 0.0
H2463 H 0.62617 0.52981 0.13333 0.0
H2464 H 0.64595 0.54269 0.12122 0.0
H2465 H 0.65441 0.56641 0.01856 0.0
H2466 H 0.71137 0.60353 0.00508 0.0
H2467 H 0.69163 0.59518 0.024 0.0
H2468 H 0.68025 0.57313 0.13608 0.0
C2469 C 0.6399 0.54491 0.10983 0.0
C2470 C 0.65997 0.56797 0.04456 0.0
C2471 C 0.62852 0.53748 0.11652 0.0
C2472 C 0.70784 0.59657 0.02665 0.0
C2473 C 0.6965 0.59173 0.03722 0.0
C2474 C 0.67472 0.57174 0.11015 0.0
C2475 C 0.64345 0.55505 0.08876 0.0
C2476 C 0.65565 0.56298 0.08316 0.0
C2477 C 0.69143 0.58236 0.06361 0.0
C2478 C 0.6791 0.57635 0.0711 0.0
H2479 H 0.61777 0.55221 0.06913 0.0
H2480 H 0.63781 0.56522 0.05697 0.0
H2481 H 0.66005 0.56157 0.14641 0.0
H2482 H 0.71426 0.57954 0.08285 0.0
H2483 H 0.69451 0.57106 0.10098 0.0
C2484 C 0.53624 0.91006 0.92026 0.0
C2485 C 0.54067 0.92161 0.91378 0.0
C2486 C 0.54331 0.90572 0.92751 0.0
C2487 C 0.57167 0.91115 0.906 0.0
H2488 H 0.56271 0.88603 0.98072 0.0
C2489 C 0.59578 0.88638 0.93071 0.0
C2490 C 0.5888 0.87465 0.93245 0.0
C2491 C 0.5911 0.89338 0.92876 0.0
C2492 C 0.56531 0.89302 0.95964 0.0
H2493 H 0.556 0.93774 0.91117 0.0
H2494 H 0.56847 0.93009 0.92395 0.0
H2495 H 0.55255 0.8963 0.9813 0.0
H2496 H 0.57148 0.86109 0.93024 0.0
H2497 H 0.56342 0.87323 0.9267 0.0
H2498 H 0.58436 0.90766 0.88397 0.0
C2499 C 0.55948 0.92442 0.92318 0.0
C2500 C 0.55951 0.89892 0.96002 0.0
C2501 C 0.55235 0.9288 0.91624 0.0
C2502 C 0.57711 0.87008 0.92955 0.0
C2503 C 0.57247 0.87704 0.92778 0.0
C2504 C 0.57754 0.90525 0.90575 0.0
C2505 C 0.55502 0.91281 0.92835 0.0
C2506 C 0.56239 0.90783 0.93236 0.0
C2507 C 0.57938 0.88875 0.92872 0.0
C2508 C 0.57417 0.89591 0.9317 0.0
H2509 H 0.52728 0.90429 0.91861 0.0
H2510 H 0.5396 0.89673 0.93082 0.0
H2511 H 0.57405 0.91795 0.88416 0.0
H2512 H 0.60481 0.89016 0.93293 0.0
H2513 H 0.59661 0.9024 0.92931 0.0
C2514 C 0.08282 0.62836 0.85657 0.0
C2515 C 0.0799 0.62139 0.89147 0.0
C2516 C 0.08664 0.63978 0.86079 0.0
C2517 C 0.09044 0.66201 0.93634 0.0
H2518 H 0.11467 0.68096 0.86151 0.0
C2519 C 0.12357 0.70811 0.96898 0.0
C2520 C 0.12652 0.71596 0.93673 0.0
C2521 C 0.11624 0.69673 0.96197 0.0
C2522 C 0.1078 0.67579 0.88218 0.0
H2523 H 0.07828 0.62071 0.95807 0.0
H2524 H 0.08551 0.6409 0.96601 0.0
H2525 H 0.10504 0.66073 0.85314 0.0
H2526 H 0.12393 0.71807 0.87202 0.0
H2527 H 0.11126 0.69795 0.85934 0.0
H2528 H 0.09379 0.67724 0.96671 0.0
C2529 C 0.08456 0.6375 0.93512 0.0
C2530 C 0.10221 0.66415 0.8774 0.0
C2531 C 0.08045 0.62595 0.93073 0.0
C2532 C 0.1218 0.7122 0.89738 0.0
C2533 C 0.1146 0.70072 0.89015 0.0
C2534 C 0.09617 0.67367 0.9415 0.0
C2535 C 0.08796 0.64462 0.90017 0.0
C2536 C 0.09349 0.65707 0.90453 0.0
C2537 C 0.11181 0.69288 0.9224 0.0
C2538 C 0.10496 0.68066 0.91463 0.0
H2539 H 0.08231 0.62499 0.82584 0.0
H2540 H 0.08878 0.64485 0.83303 0.0
H2541 H 0.08367 0.65689 0.95742 0.0
H2542 H 0.12698 0.71075 0.99978 0.0
H2543 H 0.11434 0.69087 0.98726 0.0
C2544 C 0.29417 0.4045 0.96764 0.0
C2545 C 0.28754 0.40894 0.95327 0.0
C2546 C 0.30563 0.40982 0.95842 0.0
C2547 C 0.32763 0.43107 0.88984 0.0
H2548 H 0.34745 0.43571 0.98238 0.0
C2549 C 0.37397 0.46519 0.8865 0.0
C2550 C 0.38199 0.46259 0.90162 0.0
C2551 C 0.36254 0.45783 0.89238 0.0
C2552 C 0.34204 0.43435 0.95608 0.0
H2553 H 0.28766 0.42217 0.91623 0.0
H2554 H 0.30761 0.43142 0.90028 0.0
H2555 H 0.32719 0.4239 0.9911 0.0
H2556 H 0.38425 0.45032 0.93594 0.0
H2557 H 0.36416 0.43739 0.94632 0.0
H2558 H 0.34245 0.44168 0.85504 0.0
C2559 C 0.30396 0.4238 0.9185 0.0
C2560 C 0.33042 0.42757 0.96102 0.0
C2561 C 0.29251 0.4185 0.92777 0.0
C2562 C 0.37829 0.45258 0.92392 0.0
C2563 C 0.36679 0.44518 0.92989 0.0
C2564 C 0.33922 0.43785 0.88492 0.0
C2565 C 0.31071 0.41967 0.9345 0.0
C2566 C 0.32307 0.42601 0.92813 0.0
C2567 C 0.35879 0.44766 0.91356 0.0
C2568 C 0.34655 0.43973 0.91818 0.0
H2569 H 0.29061 0.39713 0.98725 0.0
H2570 H 0.31056 0.40633 0.97065 0.0
H2571 H 0.32222 0.42988 0.86369 0.0
H2572 H 0.3765 0.47288 0.86951 0.0
H2573 H 0.35662 0.46012 0.88026 0.0
C2574 C 0.09069 0.46294 0.36882 0.0
C2575 C 0.0804 0.46084 0.38585 0.0
C2576 C 0.09457 0.45543 0.37484 0.0
C2577 C 0.09194 0.43268 0.44211 0.0
H2578 H 0.10617 0.42676 0.34948 0.0
C2579 C 0.10966 0.4027 0.45742 0.0
C2580 C 0.12062 0.40691 0.44213 0.0
C2581 C 0.10347 0.40792 0.44736 0.0
C2582 C 0.10226 0.42836 0.37568 0.0
H2583 H 0.06624 0.44926 0.42342 0.0
H2584 H 0.07307 0.43606 0.43398 0.0
H2585 H 0.09783 0.43861 0.33965 0.0
H2586 H 0.13343 0.41956 0.40245 0.0
H2587 H 0.12266 0.42864 0.385 0.0
H2588 H 0.09655 0.42258 0.47831 0.0
C2589 C 0.07812 0.44358 0.416 0.0
C2590 C 0.0975 0.43516 0.37009 0.0
C2591 C 0.0742 0.45113 0.40991 0.0
C2592 C 0.12501 0.41607 0.41474 0.0
C2593 C 0.11881 0.42127 0.40464 0.0
C2594 C 0.09671 0.42586 0.4477 0.0
C2595 C 0.08828 0.44559 0.39805 0.0
C2596 C 0.09247 0.43757 0.40341 0.0
C2597 C 0.10809 0.41743 0.42167 0.0
C2598 C 0.10209 0.42378 0.4147 0.0
H2599 H 0.09576 0.47038 0.35041 0.0
H2600 H 0.10256 0.45737 0.3614 0.0
H2601 H 0.08822 0.43445 0.46847 0.0
H2602 H 0.10599 0.39563 0.47846 0.0
H2603 H 0.09516 0.40464 0.46042 0.0
C2604 C 0.55346 0.6266 0.39914 0.0
C2605 C 0.54169 0.6215 0.39771 0.0
C2606 C 0.56013 0.63829 0.40285 0.0
C2607 C 0.55867 0.66368 0.37954 0.0
H2608 H 0.58462 0.67925 0.45101 0.0
C2609 C 0.5769 0.70979 0.4238 0.0
C2610 C 0.58858 0.71672 0.4277 0.0
C2611 C 0.57221 0.69836 0.41596 0.0
C2612 C 0.57751 0.67502 0.43034 0.0
H2613 H 0.5277 0.62458 0.40213 0.0
H2614 H 0.53927 0.64478 0.40904 0.0
H2615 H 0.57442 0.6587 0.44856 0.0
H2616 H 0.60454 0.71713 0.42516 0.0
H2617 H 0.59628 0.69702 0.41126 0.0
H2618 H 0.56159 0.67988 0.36166 0.0
C2619 C 0.54338 0.63984 0.40624 0.0
C2620 C 0.57165 0.66326 0.42907 0.0
C2621 C 0.53674 0.62823 0.40259 0.0
C2622 C 0.59551 0.71201 0.42215 0.0
C2623 C 0.59079 0.70049 0.41459 0.0
C2624 C 0.5645 0.67538 0.38075 0.0
C2625 C 0.55514 0.64504 0.40511 0.0
C2626 C 0.562 0.65748 0.4044 0.0
C2627 C 0.57907 0.69353 0.41192 0.0
C2628 C 0.57383 0.68118 0.40686 0.0
H2629 H 0.55753 0.62165 0.39539 0.0
H2630 H 0.56918 0.64207 0.40202 0.0
H2631 H 0.55144 0.65948 0.35937 0.0
H2632 H 0.57132 0.71315 0.42788 0.0
H2633 H 0.56315 0.69322 0.41458 0.0
C2634 C 0.37145 0.90934 0.37886 0.0
C2635 C 0.37917 0.91992 0.39508 0.0
C2636 C 0.35994 0.90488 0.38451 0.0
C2637 C 0.33904 0.90695 0.44965 0.0
H2638 H 0.319 0.89066 0.35889 0.0
C2639 C 0.29128 0.88841 0.46369 0.0
C2640 C 0.28473 0.87713 0.45157 0.0
C2641 C 0.30264 0.8946 0.45306 0.0
C2642 C 0.32449 0.89515 0.38456 0.0
H2643 H 0.38084 0.93404 0.43056 0.0
H2644 H 0.36064 0.92625 0.44022 0.0
H2645 H 0.33926 0.89963 0.34904 0.0
H2646 H 0.28483 0.86371 0.41671 0.0
H2647 H 0.30463 0.87452 0.39813 0.0
H2648 H 0.32425 0.90236 0.48528 0.0
C2649 C 0.36354 0.92139 0.42335 0.0
C2650 C 0.33609 0.90027 0.37898 0.0
C2651 C 0.37511 0.92586 0.41776 0.0
C2652 C 0.28963 0.87238 0.42652 0.0
C2653 C 0.30098 0.87859 0.4158 0.0
C2654 C 0.32743 0.90186 0.45518 0.0
C2655 C 0.35582 0.91088 0.40642 0.0
C2656 C 0.34351 0.90609 0.41165 0.0
C2657 C 0.30769 0.88967 0.42992 0.0
C2658 C 0.32002 0.89578 0.42286 0.0
H2659 H 0.37427 0.90448 0.36151 0.0
H2660 H 0.35426 0.89667 0.37187 0.0
H2661 H 0.34449 0.91125 0.4756 0.0
H2662 H 0.28777 0.89236 0.48279 0.0
H2663 H 0.30753 0.90318 0.46376 0.0
C2664 C 0.10777 0.24763 0.8488 0.0
C2665 C 0.10424 0.25553 0.8436 0.0
C2666 C 0.11172 0.24638 0.88734 0.0
C2667 C 0.12361 0.26216 0.98511 0.0
H2668 H 0.11952 0.23377 0.02482 0.0
C2669 C 0.14161 0.25878 0.14234 0.0
C2670 C 0.14804 0.25345 0.14024 0.0
C2671 C 0.13455 0.25789 0.10948 0.0
C2672 C 0.12072 0.24176 0.01412 0.0
H2673 H 0.10146 0.26783 0.87532 0.0
H2674 H 0.10796 0.26543 0.94219 0.0
H2675 H 0.11054 0.23436 0.96035 0.0
H2676 H 0.15155 0.24244 0.1028 0.0
H2677 H 0.13922 0.2408 0.04634 0.0
H2678 H 0.13384 0.26955 0.03861 0.0
C2679 C 0.10809 0.26046 0.91646 0.0
C2680 C 0.11563 0.24211 0.97704 0.0
C2681 C 0.1043 0.26179 0.87804 0.0
C2682 C 0.14674 0.24668 0.10565 0.0
C2683 C 0.13962 0.24569 0.07319 0.0
C2684 C 0.12861 0.26178 0.02224 0.0
C2685 C 0.11211 0.25293 0.92152 0.0
C2686 C 0.1171 0.25234 0.96182 0.0
C2687 C 0.13366 0.25151 0.07416 0.0
C2688 C 0.12734 0.25161 0.03697 0.0
H2689 H 0.10783 0.24269 0.82283 0.0
H2690 H 0.11482 0.24056 0.88993 0.0
H2691 H 0.12515 0.27024 0.97408 0.0
H2692 H 0.14237 0.26404 0.16848 0.0
H2693 H 0.12996 0.26238 0.11129 0.0
C2694 C 0.73316 0.87888 0.11811 0.0
C2695 C 0.73962 0.89066 0.11583 0.0
C2696 C 0.73344 0.87222 0.08579 0.0
C2697 C 0.75021 0.87235 0.99669 0.0
H2698 H 0.72172 0.85237 0.94435 0.0
C2699 C 0.74755 0.85663 0.82919 0.0
C2700 C 0.73861 0.84603 0.81836 0.0
C2701 C 0.74804 0.86106 0.86862 0.0
C2702 C 0.72976 0.85771 0.95891 0.0
H2703 H 0.75164 0.90455 0.07798 0.0
H2704 H 0.75239 0.893 0.02307 0.0
H2705 H 0.72205 0.86142 0.00949 0.0
H2706 H 0.72342 0.83154 0.84097 0.0
H2707 H 0.72446 0.83904 0.90985 0.0
H2708 H 0.75798 0.86871 0.94637 0.0
C2709 C 0.74709 0.88892 0.04964 0.0
C2710 C 0.72992 0.8629 0.9963 0.0
C2711 C 0.74664 0.89555 0.08128 0.0
C2712 C 0.73035 0.83981 0.84815 0.0
C2713 C 0.73092 0.84415 0.88768 0.0
C2714 C 0.75006 0.86705 0.9596 0.0
C2715 C 0.74038 0.87721 0.05116 0.0
C2716 C 0.74015 0.87045 0.01507 0.0
C2717 C 0.73967 0.85491 0.89835 0.0
C2718 C 0.73984 0.85984 0.93968 0.0
H2719 H 0.7276 0.87484 0.1441 0.0
H2720 H 0.72816 0.86319 0.08764 0.0
H2721 H 0.75822 0.87809 0.01072 0.0
H2722 H 0.75403 0.86163 0.80687 0.0
H2723 H 0.75482 0.86944 0.87533 0.0
C2724 C 0.12093 0.84931 0.13934 0.0
C2725 C 0.1102 0.84783 0.14692 0.0
C2726 C 0.12734 0.85583 0.10577 0.0
C2727 C 0.12953 0.87667 0.02687 0.0
H2728 H 0.14162 0.86228 0.95745 0.0
C2729 C 0.14291 0.88988 0.85617 0.0
C2730 C 0.15251 0.88976 0.84205 0.0
C2731 C 0.13844 0.88561 0.89541 0.0
C2732 C 0.13844 0.86652 0.97667 0.0
H2733 H 0.09819 0.8527 0.1267 0.0
H2734 H 0.10929 0.86401 0.06894 0.0
H2735 H 0.13345 0.85409 0.02419 0.0
H2736 H 0.16509 0.88529 0.85872 0.0
H2737 H 0.15742 0.87806 0.92662 0.0
H2738 H 0.13441 0.88903 0.97899 0.0
C2739 C 0.1128 0.86017 0.08867 0.0
C2740 C 0.13379 0.86183 0.01509 0.0
C2741 C 0.10638 0.85361 0.12185 0.0
C2742 C 0.1576 0.88541 0.86823 0.0
C2743 C 0.15317 0.8812 0.90728 0.0
C2744 C 0.13422 0.88138 0.98843 0.0
C2745 C 0.1232 0.8611 0.07941 0.0
C2746 C 0.12917 0.86678 0.04053 0.0
C2747 C 0.14349 0.88116 0.92136 0.0
C2748 C 0.13866 0.87632 0.96267 0.0
H2749 H 0.12412 0.84496 0.15793 0.0
H2750 H 0.1354 0.85651 0.09977 0.0
H2751 H 0.12615 0.88075 0.04588 0.0
H2752 H 0.1388 0.89318 0.83685 0.0
H2753 H 0.1309 0.88562 0.9051 0.0
C2754 C 0.24979 0.09802 0.6498 0.0
C2755 C 0.25554 0.10425 0.68495 0.0
C2756 C 0.25008 0.10348 0.61279 0.0
C2757 C 0.26712 0.13119 0.56103 0.0
H2758 H 0.24212 0.12002 0.48443 0.0
C2759 C 0.26383 0.15836 0.43358 0.0
C2760 C 0.26164 0.15405 0.3931 0.0
C2761 C 0.26302 0.1516 0.46702 0.0
C2762 C 0.2492 0.12315 0.5054 0.0
H2763 H 0.26552 0.12105 0.70968 0.0
H2764 H 0.26561 0.13053 0.64622 0.0
H2765 H 0.24032 0.10961 0.54813 0.0
H2766 H 0.25674 0.13916 0.35611 0.0
H2767 H 0.25507 0.12719 0.41532 0.0
H2768 H 0.2758 0.14494 0.51907 0.0
C2769 C 0.26125 0.12145 0.64635 0.0
C2770 C 0.24819 0.11719 0.54187 0.0
C2771 C 0.26111 0.11601 0.68298 0.0
C2772 C 0.25853 0.14274 0.38691 0.0
C2773 C 0.25751 0.13588 0.42069 0.0
C2774 C 0.26805 0.13719 0.52503 0.0
C2775 C 0.25602 0.11529 0.61037 0.0
C2776 C 0.2571 0.12124 0.5705 0.0
C2777 C 0.25984 0.1403 0.461 0.0
C2778 C 0.25906 0.13331 0.49712 0.0
H2779 H 0.2455 0.08894 0.65031 0.0
H2780 H 0.246 0.09844 0.58576 0.0
H2781 H 0.2743 0.13441 0.58152 0.0
H2782 H 0.26627 0.16703 0.43952 0.0
H2783 H 0.26478 0.15519 0.49781 0.0
C2784 C 0.84681 0.09403 0.42371 0.0
C2785 C 0.84828 0.0997 0.38594 0.0
C2786 C 0.85412 0.09922 0.45673 0.0
C2787 C 0.87354 0.12728 0.49829 0.0
H2788 H 0.87963 0.11009 0.57887 0.0
C2789 C 0.89651 0.14722 0.65059 0.0
C2790 C 0.89066 0.14122 0.68613 0.0
C2791 C 0.8937 0.14216 0.61159 0.0
C2792 C 0.87802 0.115 0.5566 0.0
H2793 H 0.85893 0.11522 0.35306 0.0
H2794 H 0.87185 0.12426 0.41083 0.0
H2795 H 0.87059 0.10142 0.51347 0.0
H2796 H 0.87785 0.12496 0.70874 0.0
H2797 H 0.87304 0.11612 0.64075 0.0
H2798 H 0.8808 0.1408 0.54178 0.0
C2799 C 0.86489 0.11581 0.4149 0.0
C2800 C 0.87281 0.11004 0.51915 0.0
C2801 C 0.85753 0.1106 0.38167 0.0
C2802 C 0.88251 0.12983 0.68206 0.0
C2803 C 0.87977 0.12475 0.64306 0.0
C2804 C 0.87883 0.13227 0.53559 0.0
C2805 C 0.86317 0.11023 0.45307 0.0
C2806 C 0.87021 0.11601 0.49 0.0
C2807 C 0.88507 0.13097 0.60726 0.0
C2808 C 0.88087 0.1261 0.5656 0.0
H2809 H 0.8398 0.08564 0.42838 0.0
H2810 H 0.85238 0.0947 0.48573 0.0
H2811 H 0.87155 0.1321 0.47693 0.0
H2812 H 0.90286 0.15601 0.65249 0.0
H2813 H 0.89804 0.14712 0.58464 0.0
C2814 C 0.86695 0.75324 0.66216 0.0
C2815 C 0.8554 0.74879 0.66904 0.0
C2816 C 0.87118 0.75471 0.62189 0.0
C2817 C 0.86277 0.74262 0.51897 0.0
H2818 H 0.89119 0.76808 0.48556 0.0
C2819 C 0.88405 0.74264 0.36417 0.0
C2820 C 0.89556 0.74628 0.36761 0.0
C2821 C 0.87838 0.74456 0.39643 0.0
C2822 C 0.88326 0.76088 0.4944 0.0
H2823 H 0.83928 0.74276 0.63888 0.0
H2824 H 0.84669 0.74523 0.5686 0.0
H2825 H 0.88281 0.76857 0.55147 0.0
H2826 H 0.91019 0.7552 0.40721 0.0
H2827 H 0.9004 0.75836 0.46278 0.0
H2828 H 0.86346 0.73468 0.46301 0.0
C2829 C 0.85245 0.74758 0.59443 0.0
C2830 C 0.87845 0.76119 0.53214 0.0
C2831 C 0.84823 0.74624 0.6347 0.0
C2832 C 0.90133 0.75226 0.40322 0.0
C2833 C 0.89571 0.75417 0.4352 0.0
C2834 C 0.86763 0.74227 0.48136 0.0
C2835 C 0.86394 0.75165 0.58761 0.0
C2836 C 0.8683 0.75196 0.54529 0.0
C2837 C 0.88412 0.7502 0.43265 0.0
C2838 C 0.87809 0.75127 0.46913 0.0
H2839 H 0.87269 0.75529 0.68791 0.0
H2840 H 0.88006 0.75778 0.61765 0.0
H2841 H 0.85498 0.73533 0.52842 0.0
H2842 H 0.87934 0.73801 0.33721 0.0
H2843 H 0.86947 0.74147 0.39326 0.0
C2844 C 0.85937 0.74329 0.86658 0.0
C2845 C 0.85295 0.74861 0.87067 0.0
C2846 C 0.86666 0.74402 0.89832 0.0
C2847 C 0.88174 0.76006 0.99144 0.0
H2848 H 0.87592 0.73137 0.03457 0.0
C2849 C 0.89443 0.75498 0.15737 0.0
C2850 C 0.89682 0.74636 0.16514 0.0
C2851 C 0.89082 0.75616 0.11808 0.0
C2852 C 0.87789 0.7395 0.0226 0.0
H2853 H 0.84962 0.75931 0.91065 0.0
H2854 H 0.86248 0.76081 0.96486 0.0
H2855 H 0.86711 0.73207 0.97031 0.0
H2856 H 0.89802 0.73266 0.13732 0.0
H2857 H 0.89225 0.73499 0.06876 0.0
H2858 H 0.89251 0.76753 0.04367 0.0
C2859 C 0.86185 0.75603 0.93735 0.0
C2860 C 0.8728 0.73987 0.98568 0.0
C2861 C 0.85444 0.75513 0.90617 0.0
C2862 C 0.89607 0.73929 0.13244 0.0
C2863 C 0.89267 0.74059 0.09312 0.0
C2864 C 0.88697 0.75971 0.02813 0.0
C2865 C 0.86784 0.75029 0.93426 0.0
C2866 C 0.87449 0.75013 0.97014 0.0
C2867 C 0.88972 0.74885 0.08556 0.0
C2868 C 0.88495 0.7494 0.04468 0.0
H2869 H 0.85843 0.73819 0.83973 0.0
H2870 H 0.87122 0.73953 0.89514 0.0
H2871 H 0.88324 0.76809 0.97998 0.0
H2872 H 0.89489 0.76053 0.18203 0.0
H2873 H 0.88851 0.76254 0.11374 0.0
C2874 C 0.25461 0.11243 0.89182 0.0
C2875 C 0.25615 0.10323 0.89951 0.0
C2876 C 0.25181 0.11738 0.92417 0.0
C2877 C 0.2415 0.11216 0.03383 0.0
H2878 H 0.25501 0.14451 0.03777 0.0
C2879 C 0.25073 0.13825 0.1827 0.0
C2880 C 0.24777 0.14665 0.18379 0.0
C2881 C 0.24929 0.13212 0.14659 0.0
C2882 C 0.25103 0.13545 0.03673 0.0
H2883 H 0.25615 0.09217 0.94745 0.0
H2884 H 0.25178 0.10097 0.00343 0.0
H2885 H 0.25764 0.13569 0.97659 0.0
H2886 H 0.24081 0.1551 0.14836 0.0
H2887 H 0.23859 0.14452 0.08447 0.0
H2888 H 0.23553 0.11207 0.0952 0.0
C2889 C 0.25229 0.10418 0.97243 0.0
C2890 C 0.25251 0.13037 0.00163 0.0
C2891 C 0.25493 0.09917 0.9402 0.0
C2892 C 0.243 0.14856 0.14847 0.0
C2893 C 0.24182 0.14259 0.11192 0.0
C2894 C 0.2402 0.11725 0.06912 0.0
C2895 C 0.25061 0.1133 0.96497 0.0
C2896 C 0.24799 0.11866 1.0001 0.0
C2897 C 0.24512 0.13445 0.11056 0.0
C2898 C 0.24513 0.12895 0.07118 0.0
H2899 H 0.25544 0.11572 0.86078 0.0
H2900 H 0.25049 0.12432 0.91709 0.0
H2901 H 0.2376 0.1031 0.03343 0.0
H2902 H 0.2545 0.13668 0.20943 0.0
H2903 H 0.25199 0.12595 0.14623 0.0
C2904 C 0.8459 0.09342 0.13342 0.0
C2905 C 0.84775 0.09953 0.17026 0.0
C2906 C 0.85081 0.09898 0.09618 0.0
C2907 C 0.86241 0.12729 0.04976 0.0
H2908 H 0.87432 0.11632 0.96451 0.0
C2909 C 0.89217 0.156 0.92462 0.0
C2910 C 0.8901 0.15244 0.88315 0.0
C2911 C 0.88618 0.14867 0.95669 0.0
C2912 C 0.87088 0.11939 0.98787 0.0
H2913 H 0.85682 0.11612 0.19752 0.0
H2914 H 0.86561 0.12569 0.13347 0.0
H2915 H 0.86597 0.10507 0.02711 0.0
H2916 H 0.88008 0.13825 0.84307 0.0
H2917 H 0.86962 0.12527 0.89983 0.0
H2918 H 0.86757 0.14171 0.01134 0.0
C2919 C 0.86007 0.11669 0.1327 0.0
C2920 C 0.86611 0.11297 0.02371 0.0
C2921 C 0.85512 0.11118 0.16959 0.0
C2922 C 0.88185 0.14127 0.87463 0.0
C2923 C 0.87592 0.13383 0.90705 0.0
C2924 C 0.86722 0.1337 0.01431 0.0
C2925 C 0.8577 0.11074 0.09523 0.0
C2926 C 0.86205 0.11698 0.05554 0.0
C2927 C 0.87799 0.13751 0.94838 0.0
C2928 C 0.87172 0.12995 0.98336 0.0
H2929 H 0.8402 0.08444 0.13294 0.0
H2930 H 0.8488 0.09413 0.06792 0.0
H2931 H 0.85905 0.1305 0.07292 0.0
H2932 H 0.89844 0.16452 0.93252 0.0
H2933 H 0.88805 0.15171 0.98823 0.0
C2934 C 0.73967 0.8852 0.3341 0.0
C2935 C 0.74765 0.89626 0.32304 0.0
C2936 C 0.74022 0.8808 0.37229 0.0
C2937 C 0.75847 0.88349 0.45921 0.0
H2938 H 0.73001 0.86647 0.51646 0.0
C2939 C 0.73793 0.85566 0.6191 0.0
C2940 C 0.74298 0.84895 0.61751 0.0
C2941 C 0.73979 0.86337 0.58747 0.0
C2942 C 0.73807 0.87134 0.50135 0.0
H2943 H 0.76282 0.91119 0.34286 0.0
H2944 H 0.76384 0.90338 0.41003 0.0
H2945 H 0.73089 0.87612 0.45225 0.0
H2946 H 0.75437 0.84552 0.58213 0.0
H2947 H 0.75754 0.85884 0.52746 0.0
H2948 H 0.7656 0.87854 0.50817 0.0
C2949 C 0.75712 0.89819 0.38888 0.0
C2950 C 0.73854 0.87676 0.46423 0.0
C2951 C 0.75655 0.90264 0.35042 0.0
C2952 C 0.75032 0.85052 0.58454 0.0
C2953 C 0.75221 0.85824 0.55317 0.0
C2954 C 0.75798 0.87801 0.49636 0.0
C2955 C 0.74877 0.88731 0.40057 0.0
C2956 C 0.74868 0.88266 0.4422 0.0
C2957 C 0.7468 0.8646 0.55373 0.0
C2958 C 0.74772 0.87167 0.51741 0.0
H2959 H 0.73279 0.87996 0.31359 0.0
H2960 H 0.73383 0.8723 0.37988 0.0
H2961 H 0.7664 0.88799 0.44297 0.0
H2962 H 0.73226 0.85471 0.64402 0.0
H2963 H 0.73558 0.86823 0.58903 0.0
C2964 C 0.11133 0.84186 0.37095 0.0
C2965 C 0.10771 0.84681 0.34113 0.0
C2966 C 0.11539 0.84697 0.40925 0.0
C2967 C 0.12827 0.8744 0.46086 0.0
H2968 H 0.12142 0.85659 0.56102 0.0
C2969 C 0.14574 0.89547 0.61741 0.0
C2970 C 0.15041 0.8906 0.64311 0.0
C2971 C 0.1391 0.88965 0.58353 0.0
C2972 C 0.12349 0.86167 0.53331 0.0
H2973 H 0.10536 0.86098 0.32864 0.0
H2974 H 0.1125 0.86996 0.39584 0.0
H2975 H 0.11253 0.84755 0.49584 0.0
H2976 H 0.15121 0.87548 0.6543 0.0
H2977 H 0.1397 0.86533 0.59458 0.0
H2978 H 0.13939 0.88847 0.4979 0.0
C2979 C 0.11226 0.86213 0.38924 0.0
C2980 C 0.11837 0.8565 0.49594 0.0
C2981 C 0.10814 0.85697 0.35081 0.0
C2982 C 0.14773 0.87948 0.63529 0.0
C2983 C 0.14112 0.87366 0.60101 0.0
C2984 C 0.13339 0.87956 0.49814 0.0
C2985 C 0.11597 0.85719 0.41888 0.0
C2986 C 0.12079 0.86279 0.45917 0.0
C2987 C 0.13699 0.87881 0.57404 0.0
C2988 C 0.13112 0.87326 0.53484 0.0
H2989 H 0.11111 0.83401 0.36474 0.0
H2990 H 0.11832 0.84301 0.43101 0.0
H2991 H 0.13047 0.87946 0.43307 0.0
H2992 H 0.14752 0.90398 0.62254 0.0
H2993 H 0.13583 0.89378 0.56413 0.0
C2994 C 0.11839 0.26605 0.64684 0.0
C2995 C 0.10661 0.25931 0.64644 0.0
C2996 C 0.12485 0.26538 0.61441 0.0
C2997 C 0.12279 0.24759 0.52302 0.0
H2998 H 0.14634 0.27551 0.47696 0.0
C2999 C 0.13624 0.25343 0.35157 0.0
C3000 C 0.14779 0.25903 0.34284 0.0
C3001 C 0.13244 0.25267 0.39224 0.0
C3002 C 0.13988 0.26763 0.4898 0.0
H3003 H 0.09253 0.24636 0.6118 0.0
H3004 H 0.10357 0.24539 0.55617 0.0
H3005 H 0.13774 0.27567 0.54295 0.0
H3006 H 0.16442 0.2682 0.37003 0.0
H3007 H 0.15773 0.26709 0.44097 0.0
H3008 H 0.12451 0.23968 0.4686 0.0
C3009 C 0.10794 0.25104 0.58154 0.0
C3010 C 0.13498 0.2677 0.52775 0.0
C3011 C 0.10155 0.25168 0.61363 0.0
C3012 C 0.15546 0.26374 0.37576 0.0
C3013 C 0.15165 0.26318 0.41633 0.0
C3014 C 0.12755 0.24755 0.48487 0.0
C3015 C 0.11967 0.25794 0.58106 0.0
C3016 C 0.12615 0.25772 0.54432 0.0
C3017 C 0.1401 0.2577 0.42492 0.0
C3018 C 0.13596 0.2576 0.46744 0.0
H3019 H 0.12257 0.27205 0.67149 0.0
H3020 H 0.13388 0.27078 0.61524 0.0
H3021 H 0.11623 0.23969 0.53526 0.0
H3022 H 0.13013 0.24974 0.3269 0.0
H3023 H 0.12348 0.24847 0.39797 0.0
C3024 C 0.81769 0.58408 0.409 0.0
C3025 C 0.81592 0.58636 0.4499 0.0
C3026 C 0.81002 0.58243 0.37781 0.0
C3027 C 0.7905 0.57433 0.31921 0.0
H3028 H 0.77972 0.59543 0.31169 0.0
C3029 C 0.7666 0.57638 0.17441 0.0
C3030 C 0.77022 0.5873 0.15988 0.0
C3031 C 0.7699 0.57469 0.21363 0.0
C3032 C 0.78265 0.58945 0.31331 0.0
H3033 H 0.8045 0.58857 0.48986 0.0
H3034 H 0.791 0.58563 0.43495 0.0
H3035 H 0.78984 0.59525 0.37328 0.0
H3036 H 0.77993 0.60498 0.1759 0.0
H3037 H 0.78578 0.60206 0.243 0.0
H3038 H 0.78392 0.56899 0.25826 0.0
C3039 C 0.79842 0.58518 0.42727 0.0
C3040 C 0.78834 0.58926 0.34893 0.0
C3041 C 0.80614 0.58682 0.45878 0.0
C3042 C 0.77699 0.59643 0.1858 0.0
C3043 C 0.78026 0.59476 0.22473 0.0
C3044 C 0.78486 0.57456 0.28354 0.0
C3045 C 0.80031 0.58299 0.38634 0.0
C3046 C 0.79266 0.58194 0.35176 0.0
C3047 C 0.77684 0.58389 0.23917 0.0
C3048 C 0.78118 0.58237 0.27957 0.0
H3049 H 0.82513 0.58373 0.40062 0.0
H3050 H 0.81192 0.58103 0.34661 0.0
H3051 H 0.79352 0.56842 0.32069 0.0
H3052 H 0.76133 0.56916 0.15535 0.0
H3053 H 0.76705 0.56619 0.2239 0.0
C3054 C 0.39869 0.18072 0.17203 0.0
C3055 C 0.40805 0.18134 0.15199 0.0
C3056 C 0.39979 0.18566 0.21073 0.0
C3057 C 0.4025 0.19182 0.30101 0.0
H3058 H 0.42896 0.22036 0.32524 0.0
C3059 C 0.40602 0.21548 0.45323 0.0
C3060 C 0.41046 0.22712 0.44924 0.0
C3061 C 0.40696 0.20925 0.42071 0.0
C3062 C 0.42147 0.21241 0.31897 0.0
H3063 H 0.42591 0.18754 0.15713 0.0
H3064 H 0.42781 0.19593 0.22538 0.0
H3065 H 0.42788 0.21091 0.26054 0.0
H3066 H 0.41975 0.24135 0.40818 0.0
H3067 H 0.42107 0.23059 0.35185 0.0
H3068 H 0.39579 0.19366 0.35818 0.0
C3069 C 0.41964 0.19184 0.21075 0.0
C3070 C 0.42092 0.20689 0.28197 0.0
C3071 C 0.41856 0.187 0.17164 0.0
C3072 C 0.41619 0.23241 0.41259 0.0
C3073 C 0.41705 0.22621 0.38016 0.0
C3074 C 0.40299 0.19741 0.33775 0.0
C3075 C 0.41025 0.19124 0.23086 0.0
C3076 C 0.41132 0.19662 0.27202 0.0
C3077 C 0.41232 0.21452 0.3834 0.0
C3078 C 0.41239 0.20791 0.34687 0.0
H3079 H 0.39048 0.1765 0.15762 0.0
H3080 H 0.39241 0.18525 0.2245 0.0
H3081 H 0.39508 0.18379 0.29504 0.0
H3082 H 0.40157 0.21112 0.48103 0.0
H3083 H 0.40336 0.20029 0.42465 0.0
C3084 C 0.81961 0.22134 0.19371 0.0
C3085 C 0.81837 0.22954 0.17226 0.0
C3086 C 0.81469 0.21754 0.23245 0.0
C3087 C 0.7925 0.21608 0.30174 0.0
H3088 H 0.80739 0.20667 0.38074 0.0
C3089 C 0.78539 0.19346 0.47436 0.0
C3090 C 0.77402 0.18528 0.46965 0.0
C3091 C 0.79124 0.20094 0.44205 0.0
C3092 C 0.80317 0.20944 0.35955 0.0
H3093 H 0.81096 0.24021 0.1748 0.0
H3094 H 0.80251 0.23374 0.24317 0.0
H3095 H 0.81696 0.21597 0.3173 0.0
H3096 H 0.75978 0.17896 0.42771 0.0
H3097 H 0.76993 0.19162 0.37179 0.0
H3098 H 0.77881 0.20977 0.34447 0.0
C3099 C 0.80715 0.2301 0.22962 0.0
C3100 C 0.8086 0.21462 0.32265 0.0
C3101 C 0.81201 0.23383 0.19045 0.0
C3102 C 0.76854 0.1851 0.43263 0.0
C3103 C 0.77437 0.19249 0.40043 0.0
C3104 C 0.78712 0.21102 0.3389 0.0
C3105 C 0.80847 0.22193 0.25123 0.0
C3106 C 0.80321 0.21769 0.29263 0.0
C3107 C 0.78586 0.20039 0.40428 0.0
C3108 C 0.79224 0.20731 0.36778 0.0
H3109 H 0.82435 0.21776 0.18045 0.0
H3110 H 0.81565 0.21103 0.24738 0.0
H3111 H 0.78805 0.2183 0.27951 0.0
H3112 H 0.78987 0.19387 0.50247 0.0
H3113 H 0.80004 0.20703 0.44645 0.0
C3114 C 0.91638 0.47717 0.71994 0.0
C3115 C 0.9266 0.48399 0.69965 0.0
C3116 C 0.91575 0.47026 0.75262 0.0
C3117 C 0.93126 0.45867 0.80984 0.0
H3118 H 0.91407 0.45999 0.90269 0.0
C3119 C 0.93661 0.44707 0.97681 0.0
C3120 C 0.92698 0.44127 0.00175 0.0
C3121 C 0.93593 0.45099 0.93767 0.0
C3122 C 0.91876 0.45937 0.87691 0.0
H3123 H 0.94407 0.48854 0.69592 0.0
H3124 H 0.9431 0.47658 0.75383 0.0
H3125 H 0.91409 0.46883 0.83762 0.0
H3126 H 0.90905 0.4349 0.00459 0.0
H3127 H 0.90786 0.44179 0.93607 0.0
H3128 H 0.93615 0.44944 0.8499 0.0
C3129 C 0.93549 0.47642 0.7441 0.0
C3130 C 0.91877 0.46443 0.83944 0.0
C3131 C 0.93607 0.48327 0.71088 0.0
C3132 C 0.91663 0.43938 0.98632 0.0
C3133 C 0.91596 0.44336 0.94711 0.0
C3134 C 0.93128 0.45363 0.84748 0.0
C3135 C 0.92539 0.47014 0.7663 0.0
C3136 C 0.92505 0.46421 0.80541 0.0
C3137 C 0.92562 0.44926 0.92239 0.0
C3138 C 0.92509 0.45399 0.88156 0.0
H3139 H 0.90892 0.47748 0.71142 0.0
H3140 H 0.90776 0.46529 0.76807 0.0
H3141 H 0.93608 0.45822 0.78422 0.0
H3142 H 0.94473 0.44867 0.98758 0.0
H3143 H 0.94356 0.45563 0.91976 0.0
C3144 C 0.55525 0.47511 0.00713 0.0
C3145 C 0.56682 0.4828 0.00782 0.0
C3146 C 0.54989 0.46997 0.97027 0.0
C3147 C 0.55411 0.46457 0.86083 0.0
H3148 H 0.52485 0.46201 0.84866 0.0
C3149 C 0.5261 0.44924 0.71086 0.0
C3150 C 0.51518 0.44038 0.71897 0.0
C3151 C 0.5334 0.45516 0.74362 0.0
C3152 C 0.53302 0.46269 0.85158 0.0
H3153 H 0.58198 0.49076 0.9708 0.0
H3154 H 0.57254 0.48189 0.9058 0.0
H3155 H 0.5358 0.47045 0.9108 0.0
H3156 H 0.50334 0.43093 0.76785 0.0
H3157 H 0.51587 0.44133 0.82424 0.0
H3158 H 0.55119 0.45681 0.80091 0.0
C3159 C 0.56763 0.47972 0.93398 0.0
C3160 C 0.53927 0.46744 0.88736 0.0
C3161 C 0.57305 0.48478 0.97122 0.0
C3162 C 0.51169 0.43767 0.76034 0.0
C3163 C 0.51885 0.44366 0.79276 0.0
C3164 C 0.54786 0.45989 0.82463 0.0
C3165 C 0.55591 0.47254 0.93288 0.0
C3166 C 0.54977 0.46817 0.89305 0.0
C3167 C 0.52977 0.45244 0.78486 0.0
C3168 C 0.53714 0.45868 0.8202 0.0
H3169 H 0.55024 0.47335 0.03495 0.0
H3170 H 0.54092 0.46421 0.97094 0.0
H3171 H 0.56216 0.46502 0.86414 0.0
H3172 H 0.52906 0.45149 0.67933 0.0
H3173 H 0.54178 0.46193 0.73678 0.0
C3174 C 0.55679 0.06119 0.73748 0.0
C3175 C 0.55733 0.06609 0.69883 0.0
C3176 C 0.55 0.06149 0.7689 0.0
C3177 C 0.53928 0.07859 0.81014 0.0
H3178 H 0.52008 0.05226 0.87576 0.0
C3179 C 0.51538 0.08035 0.95639 0.0
C3180 C 0.51422 0.07316 0.98928 0.0
C3181 C 0.51985 0.07956 0.91836 0.0
C3182 C 0.52551 0.05974 0.85816 0.0
H3183 H 0.55115 0.07505 0.66231 0.0
H3184 H 0.53937 0.07586 0.7182 0.0
H3185 H 0.52873 0.05032 0.81293 0.0
H3186 H 0.51731 0.05985 0.00865 0.0
H3187 H 0.52546 0.05877 0.94345 0.0
H3188 H 0.53654 0.08812 0.85634 0.0
C3189 C 0.54411 0.07165 0.72372 0.0
C3190 C 0.53037 0.05858 0.8219 0.0
C3191 C 0.55075 0.07111 0.69176 0.0
C3192 C 0.51798 0.06545 0.98382 0.0
C3193 C 0.52255 0.06475 0.94614 0.0
C3194 C 0.53454 0.07978 0.84683 0.0
C3195 C 0.54377 0.06691 0.76269 0.0
C3196 C 0.53745 0.06801 0.79789 0.0
C3197 C 0.52336 0.07163 0.91254 0.0
C3198 C 0.52777 0.07039 0.87181 0.0
H3199 H 0.56181 0.0573 0.74367 0.0
H3200 H 0.54997 0.05786 0.79868 0.0
H3201 H 0.54481 0.08601 0.79238 0.0
H3202 H 0.5125 0.08634 0.95953 0.0
H3203 H 0.52026 0.08495 0.89322 0.0
C3204 C 0.52317 0.07274 0.20018 0.0
C3205 C 0.51481 0.07575 0.20341 0.0
C3206 C 0.53028 0.07429 0.23375 0.0
C3207 C 0.53923 0.08864 0.3369 0.0
H3208 H 0.5459 0.065 0.3612 0.0
C3209 C 0.54945 0.07883 0.49997 0.0
C3210 C 0.55813 0.0763 0.50346 0.0
C3211 C 0.54616 0.08066 0.46113 0.0
C3212 C 0.54424 0.07175 0.35452 0.0
H3213 H 0.50757 0.08293 0.24461 0.0
H3214 H 0.51955 0.08525 0.30261 0.0
H3215 H 0.53644 0.06446 0.29671 0.0
H3216 H 0.57044 0.07411 0.46885 0.0
H3217 H 0.56452 0.07711 0.4011 0.0
H3218 H 0.54651 0.09556 0.39595 0.0
C3219 C 0.5209 0.08198 0.27409 0.0
C3220 C 0.53885 0.07148 0.31743 0.0
C3221 C 0.5139 0.08052 0.24066 0.0
C3222 C 0.56376 0.0761 0.46736 0.0
C3223 C 0.56033 0.07773 0.42849 0.0
C3224 C 0.54445 0.08881 0.37423 0.0
C3225 C 0.52915 0.07883 0.27135 0.0
C3226 C 0.53606 0.0798 0.30845 0.0
C3227 C 0.55135 0.07981 0.42494 0.0
C3228 C 0.54685 0.08028 0.3837 0.0
H3229 H 0.52412 0.06905 0.17199 0.0
H3230 H 0.53662 0.07188 0.23027 0.0
H3231 H 0.5375 0.09536 0.33072 0.0
H3232 H 0.54494 0.07903 0.52715 0.0
H3233 H 0.53917 0.0822 0.45928 0.0
C3234 C 0.92584 0.4497 0.20328 0.0
C3235 C 0.92244 0.43823 0.20564 0.0
C3236 C 0.92385 0.45507 0.23639 0.0
C3237 C 0.90807 0.44927 0.33683 0.0
H3238 H 0.93234 0.47883 0.36618 0.0
C3239 C 0.91709 0.46766 0.50245 0.0
C3240 C 0.92019 0.479 0.50723 0.0
C3241 C 0.9153 0.46287 0.46301 0.0
C3242 C 0.92541 0.47064 0.35807 0.0
H3243 H 0.91393 0.42337 0.24443 0.0
H3244 H 0.91086 0.43269 0.30181 0.0
H3245 H 0.93319 0.47032 0.30125 0.0
H3246 H 0.9234 0.49408 0.47429 0.0
H3247 H 0.92048 0.48574 0.40551 0.0
H3248 H 0.90066 0.44941 0.39508 0.0
C3249 C 0.91482 0.43758 0.27431 0.0
C3250 C 0.92587 0.46576 0.32069 0.0
C3251 C 0.9167 0.43222 0.24127 0.0
C3252 C 0.92097 0.4853 0.47179 0.0
C3253 C 0.91938 0.48057 0.43234 0.0
C3254 C 0.90772 0.45408 0.37449 0.0
C3255 C 0.91849 0.44911 0.2727 0.0
C3256 C 0.91732 0.45489 0.30991 0.0
C3257 C 0.91676 0.46938 0.42752 0.0
C3258 C 0.91647 0.46474 0.38579 0.0
H3259 H 0.93026 0.45459 0.1763 0.0
H3260 H 0.92665 0.46393 0.23368 0.0
H3261 H 0.90118 0.44102 0.32925 0.0
H3262 H 0.91643 0.46259 0.52909 0.0
H3263 H 0.91335 0.45424 0.46019 0.0
C3264 C 0.52769 0.44596 0.50665 0.0
C3265 C 0.52 0.4344 0.50872 0.0
C3266 C 0.53364 0.45077 0.4703 0.0
C3267 C 0.53092 0.44822 0.35984 0.0
H3268 H 0.56292 0.46934 0.35933 0.0
C3269 C 0.55444 0.47489 0.21464 0.0
C3270 C 0.56284 0.48602 0.22261 0.0
C3271 C 0.5494 0.46725 0.24734 0.0
C3272 C 0.55395 0.46354 0.35892 0.0
H3273 H 0.51258 0.41876 0.47461 0.0
H3274 H 0.52286 0.4273 0.41026 0.0
H3275 H 0.5541 0.45834 0.42131 0.0
H3276 H 0.57222 0.49791 0.27136 0.0
H3277 H 0.5633 0.48487 0.32762 0.0
H3278 H 0.53063 0.45386 0.2983 0.0
C3279 C 0.52436 0.43255 0.43716 0.0
C3280 C 0.54894 0.45719 0.39436 0.0
C3281 C 0.51858 0.42768 0.47399 0.0
C3282 C 0.56589 0.48938 0.26388 0.0
C3283 C 0.56082 0.48183 0.29632 0.0
C3284 C 0.53591 0.45472 0.32446 0.0
C3285 C 0.53185 0.44417 0.43493 0.0
C3286 C 0.53735 0.44964 0.39548 0.0
C3287 C 0.55263 0.47062 0.28861 0.0
C3288 C 0.54745 0.46269 0.32397 0.0
H3289 H 0.52889 0.45134 0.5329 0.0
H3290 H 0.5393 0.45976 0.46929 0.0
H3291 H 0.52194 0.4425 0.36007 0.0
H3292 H 0.55192 0.47203 0.18319 0.0
H3293 H 0.54314 0.45868 0.2402 0.0
C3294 C 0.40187 0.2254 0.68304 0.0
C3295 C 0.40952 0.22681 0.65153 0.0
C3296 C 0.40258 0.22136 0.72189 0.0
C3297 C 0.4211 0.21555 0.78948 0.0
H3298 H 0.3928 0.19459 0.84135 0.0
C3299 C 0.41635 0.18406 0.91711 0.0
C3300 C 0.40883 0.18208 0.94985 0.0
C3301 C 0.41735 0.19111 0.88435 0.0
C3302 C 0.40078 0.20057 0.82763 0.0
H3303 H 0.42407 0.22534 0.63641 0.0
H3304 H 0.4251 0.21791 0.70395 0.0
H3305 H 0.39278 0.20359 0.77664 0.0
H3306 H 0.39674 0.18635 0.97431 0.0
H3307 H 0.3984 0.19858 0.91656 0.0
H3308 H 0.42903 0.21208 0.84001 0.0
C3309 C 0.41869 0.22015 0.69893 0.0
C3310 C 0.40079 0.20576 0.79046 0.0
C3311 C 0.41807 0.22435 0.66009 0.0
C3312 C 0.40262 0.18767 0.94967 0.0
C3313 C 0.40352 0.19463 0.9165 0.0
C3314 C 0.42108 0.21026 0.82651 0.0
C3315 C 0.41084 0.21846 0.7302 0.0
C3316 C 0.41094 0.21328 0.77068 0.0
C3317 C 0.41077 0.19628 0.88318 0.0
C3318 C 0.41091 0.20265 0.84583 0.0
H3319 H 0.39527 0.22737 0.67768 0.0
H3320 H 0.39657 0.22047 0.74537 0.0
H3321 H 0.42909 0.22142 0.77562 0.0
H3322 H 0.42126 0.17989 0.91603 0.0
H3323 H 0.42293 0.19212 0.85898 0.0
C3324 C 0.77789 0.17674 0.70271 0.0
C3325 C 0.77402 0.18211 0.67575 0.0
C3326 C 0.78157 0.18086 0.7425 0.0
C3327 C 0.78134 0.2 0.82304 0.0
H3328 H 0.80837 0.20042 0.86009 0.0
C3329 C 0.80985 0.22859 0.95345 0.0
C3330 C 0.81559 0.22482 0.97894 0.0
C3331 C 0.80299 0.22193 0.9213 0.0
C3332 C 0.80069 0.20018 0.85067 0.0
H3333 H 0.77073 0.19589 0.67005 0.0
H3334 H 0.7774 0.20327 0.73956 0.0
H3335 H 0.80014 0.19202 0.79381 0.0
H3336 H 0.81803 0.21073 0.99206 0.0
H3337 H 0.80598 0.19903 0.93574 0.0
H3338 H 0.78214 0.20848 0.87964 0.0
C3339 C 0.77743 0.19575 0.72995 0.0
C3340 C 0.79597 0.19537 0.81251 0.0
C3341 C 0.77367 0.19157 0.69001 0.0
C3342 C 0.81373 0.2139 0.97307 0.0
C3343 C 0.80691 0.20724 0.94055 0.0
C3344 C 0.7861 0.20485 0.86124 0.0
C3345 C 0.78157 0.19052 0.75649 0.0
C3346 C 0.78629 0.1953 0.79797 0.0
C3347 C 0.80172 0.21132 0.91357 0.0
C3348 C 0.7959 0.2051 0.87531 0.0
H3349 H 0.77814 0.16933 0.69305 0.0
H3350 H 0.78445 0.17646 0.7623 0.0
H3351 H 0.77378 0.19994 0.81316 0.0
H3352 H 0.81103 0.23694 0.95706 0.0
H3353 H 0.79921 0.22539 0.90103 0.0
C3354 C 0.76456 0.58232 0.91635 0.0
C3355 C 0.77059 0.58723 0.95292 0.0
C3356 C 0.76946 0.57962 0.88386 0.0
C3357 C 0.79704 0.58763 0.83909 0.0
H3358 H 0.77917 0.56237 0.76682 0.0
C3359 C 0.81518 0.5813 0.68709 0.0
C3360 C 0.80847 0.57972 0.65204 0.0
C3361 C 0.81076 0.58017 0.72697 0.0
C3362 C 0.78427 0.56946 0.78669 0.0
H3363 H 0.78646 0.59283 0.9842 0.0
H3364 H 0.79503 0.58802 0.92725 0.0
H3365 H 0.77124 0.56415 0.832 0.0
H3366 H 0.79166 0.575 0.63161 0.0
H3367 H 0.78395 0.57293 0.70102 0.0
H3368 H 0.80998 0.59306 0.79331 0.0
C3369 C 0.7865 0.58637 0.92379 0.0
C3370 C 0.77973 0.5705 0.82405 0.0
C3371 C 0.78157 0.58906 0.95655 0.0
C3372 C 0.79707 0.57628 0.65786 0.0
C3373 C 0.79263 0.57506 0.69772 0.0
C3374 C 0.8016 0.58656 0.80181 0.0
C3375 C 0.78054 0.58174 0.8868 0.0
C3376 C 0.78594 0.57976 0.85021 0.0
C3377 C 0.79951 0.57732 0.73274 0.0
C3378 C 0.79517 0.57761 0.77468 0.0
H3379 H 0.75611 0.58081 0.91215 0.0
H3380 H 0.76465 0.57627 0.85573 0.0
H3381 H 0.80203 0.59494 0.85814 0.0
H3382 H 0.824 0.58397 0.68387 0.0
H3383 H 0.81624 0.58183 0.7533 0.0
C3384 C 0.43681 0.92444 0.53297 0.0
C3385 C 0.44151 0.92252 0.49738 0.0
C3386 C 0.44034 0.92335 0.57244 0.0
C3387 C 0.45452 0.91112 0.63113 0.0
H3388 H 0.46616 0.93781 0.69938 0.0
C3389 C 0.48634 0.9197 0.7598 0.0
C3390 C 0.48658 0.92561 0.79568 0.0
C3391 C 0.47911 0.91825 0.72721 0.0
C3392 C 0.46274 0.93018 0.6813 0.0
H3393 H 0.4531 0.91732 0.47545 0.0
H3394 H 0.45901 0.9151 0.54442 0.0
H3395 H 0.45624 0.93667 0.63537 0.0
H3396 H 0.47913 0.93445 0.82541 0.0
H3397 H 0.46623 0.93167 0.76851 0.0
H3398 H 0.46094 0.90457 0.67675 0.0
C3399 C 0.45268 0.91756 0.5417 0.0
C3400 C 0.45708 0.92955 0.6445 0.0
C3401 C 0.44931 0.91884 0.50221 0.0
C3402 C 0.47919 0.92986 0.79828 0.0
C3403 C 0.47184 0.92832 0.76552 0.0
C3404 C 0.46002 0.91167 0.66816 0.0
C3405 C 0.44847 0.92011 0.57716 0.0
C3406 C 0.45317 0.92014 0.61855 0.0
C3407 C 0.47176 0.92254 0.72942 0.0
C3408 C 0.46451 0.92135 0.69316 0.0
H3409 H 0.43083 0.92735 0.53041 0.0
H3410 H 0.4369 0.92529 0.59927 0.0
H3411 H 0.45145 0.9037 0.61199 0.0
H3412 H 0.49192 0.91633 0.75627 0.0
H3413 H 0.47955 0.91399 0.69971 0.0
C3414 C 0.08377 0.56919 0.74579 0.0
C3415 C 0.07814 0.5636 0.78227 0.0
C3416 C 0.0853 0.56343 0.71343 0.0
C3417 C 0.07371 0.53529 0.66787 0.0
H3418 H 0.10014 0.5508 0.59825 0.0
C3419 C 0.07917 0.51592 0.51672 0.0
C3420 C 0.08135 0.52281 0.48172 0.0
C3421 C 0.08022 0.52027 0.55661 0.0
C3422 C 0.09273 0.54635 0.61744 0.0
H3423 H 0.06983 0.54745 0.81312 0.0
H3424 H 0.07265 0.5373 0.75619 0.0
H3425 H 0.09931 0.55914 0.66374 0.0
H3426 H 0.08691 0.53981 0.46142 0.0
H3427 H 0.08903 0.54746 0.53115 0.0
H3428 H 0.06715 0.52252 0.62113 0.0
C3429 C 0.07578 0.54621 0.75287 0.0
C3430 C 0.09222 0.55113 0.65493 0.0
C3431 C 0.07422 0.55203 0.78559 0.0
C3432 C 0.0852 0.53428 0.48766 0.0
C3433 C 0.08642 0.53867 0.5276 0.0
C3434 C 0.07429 0.53044 0.63052 0.0
C3435 C 0.08132 0.55186 0.71629 0.0
C3436 C 0.08255 0.54585 0.68002 0.0
C3437 C 0.08366 0.53165 0.56245 0.0
C3438 C 0.08368 0.53608 0.60439 0.0
H3439 H 0.08686 0.57806 0.74158 0.0
H3440 H 0.08934 0.56805 0.68553 0.0
H3441 H 0.06611 0.53101 0.68612 0.0
H3442 H 0.07613 0.50702 0.51336 0.0
H3443 H 0.07813 0.51469 0.58291 0.0
C3444 C 0.451 0.52512 0.79579 0.0
C3445 C 0.44286 0.51387 0.7882 0.0
C3446 C 0.45725 0.53218 0.76295 0.0
C3447 C 0.46749 0.53161 0.65949 0.0
H3448 H 0.46616 0.55851 0.63503 0.0
C3449 C 0.48029 0.55205 0.5 0.0
C3450 C 0.48615 0.5638 0.49697 0.0
C3451 C 0.4754 0.54676 0.53732 0.0
C3452 C 0.46679 0.55114 0.64171 0.0
H3453 H 0.43513 0.50113 0.74061 0.0
H3454 H 0.44618 0.51329 0.68403 0.0
H3455 H 0.45772 0.54807 0.69889 0.0
H3456 H 0.49122 0.57924 0.53053 0.0
H3457 H 0.48288 0.57 0.59624 0.0
H3458 H 0.47659 0.53458 0.60305 0.0
C3459 C 0.44765 0.51671 0.71507 0.0
C3460 C 0.46195 0.54517 0.6783 0.0
C3461 C 0.44129 0.50977 0.7475 0.0
C3462 C 0.48669 0.57016 0.53184 0.0
C3463 C 0.48191 0.56485 0.56951 0.0
C3464 C 0.47243 0.53762 0.62336 0.0
C3465 C 0.45562 0.52799 0.72233 0.0
C3466 C 0.46204 0.53521 0.68695 0.0
C3467 C 0.47639 0.55307 0.57292 0.0
C3468 C 0.47189 0.54729 0.61333 0.0
H3469 H 0.45235 0.52851 0.82683 0.0
H3470 H 0.46338 0.54086 0.76925 0.0
H3471 H 0.46777 0.52402 0.66572 0.0
H3472 H 0.47961 0.54691 0.47359 0.0
H3473 H 0.47093 0.53768 0.53826 0.0
C3474 C 0.58634 0.81862 0.07729 0.0
C3475 C 0.59486 0.82147 0.04772 0.0
C3476 C 0.58533 0.81193 0.1113 0.0
C3477 C 0.595 0.79318 0.15578 0.0
H3478 H 0.58784 0.80234 0.25951 0.0
C3479 C 0.60309 0.77997 0.31619 0.0
C3480 C 0.59486 0.77704 0.34703 0.0
C3481 C 0.60211 0.78421 0.27813 0.0
C3482 C 0.58969 0.79957 0.23074 0.0
H3483 H 0.60879 0.81915 0.0303 0.0
H3484 H 0.60725 0.80773 0.09048 0.0
H3485 H 0.58812 0.81188 0.19583 0.0
H3486 H 0.57902 0.77608 0.36165 0.0
H3487 H 0.57737 0.78364 0.29508 0.0
H3488 H 0.59695 0.78111 0.19141 0.0
C3489 C 0.60119 0.8105 0.08686 0.0
C3490 C 0.58983 0.80502 0.19407 0.0
C3491 C 0.60211 0.81709 0.05235 0.0
C3492 C 0.58552 0.77828 0.33862 0.0
C3493 C 0.58459 0.78265 0.30058 0.0
C3494 C 0.59496 0.78779 0.1926 0.0
C3495 C 0.59292 0.80803 0.11726 0.0
C3496 C 0.59251 0.80193 0.15604 0.0
C3497 C 0.59292 0.78572 0.27002 0.0
C3498 C 0.59235 0.79096 0.23051 0.0
H3499 H 0.58056 0.82176 0.07481 0.0
H3500 H 0.57867 0.80997 0.13333 0.0
H3501 H 0.59695 0.79045 0.12711 0.0
H3502 H 0.61039 0.77908 0.3215 0.0
H3503 H 0.60872 0.7866 0.25544 0.0
C3504 C 0.21857 0.80751 0.34006 0.0
C3505 C 0.23002 0.81561 0.34226 0.0
C3506 C 0.21382 0.80207 0.30285 0.0
C3507 C 0.2166 0.80641 0.19171 0.0
H3508 H 0.19479 0.77463 0.18796 0.0
C3509 C 0.1904 0.78338 0.0442 0.0
C3510 C 0.17912 0.7753 0.05175 0.0
C3511 C 0.19787 0.78849 0.07732 0.0
C3512 C 0.2008 0.78354 0.18849 0.0
H3513 H 0.24553 0.82421 0.30733 0.0
H3514 H 0.23712 0.81475 0.24177 0.0
H3515 H 0.20576 0.78269 0.25055 0.0
H3516 H 0.16672 0.76677 0.10003 0.0
H3517 H 0.17953 0.77575 0.15696 0.0
H3518 H 0.2113 0.80732 0.13008 0.0
C3519 C 0.23188 0.81259 0.2691 0.0
C3520 C 0.20712 0.78813 0.2243 0.0
C3521 C 0.23671 0.81792 0.30666 0.0
C3522 C 0.17538 0.77282 0.09294 0.0
C3523 C 0.18277 0.77792 0.12573 0.0
C3524 C 0.21019 0.80182 0.15582 0.0
C3525 C 0.22036 0.80472 0.26676 0.0
C3526 C 0.21488 0.79966 0.2267 0.0
C3527 C 0.19417 0.7856 0.11849 0.0
C3528 C 0.20199 0.79038 0.15426 0.0
H3529 H 0.2132 0.80559 0.36692 0.0
H3530 H 0.20489 0.79612 0.30194 0.0
H3531 H 0.22248 0.81535 0.19281 0.0
H3532 H 0.19354 0.78546 0.01282 0.0
H3533 H 0.2066 0.7944 0.07069 0.0
C3534 C 0.2329 0.40961 0.08701 0.0
C3535 C 0.2291 0.40903 0.04614 0.0
C3536 C 0.22733 0.41116 0.12009 0.0
C3537 C 0.20956 0.42213 0.15328 0.0
H3538 H 0.2012 0.40026 0.24146 0.0
C3539 C 0.18314 0.42028 0.29783 0.0
C3540 C 0.18512 0.41616 0.33478 0.0
C3541 C 0.18889 0.42061 0.26151 0.0
C3542 C 0.20364 0.40658 0.21758 0.0
H3543 H 0.2166 0.41 0.00817 0.0
H3544 H 0.20691 0.41292 0.0667 0.0
H3545 H 0.21007 0.39839 0.1794 0.0
H3546 H 0.19523 0.41005 0.36369 0.0
H3547 H 0.20567 0.41121 0.30137 0.0
H3548 H 0.2034 0.43052 0.19212 0.0
C3549 C 0.21421 0.41209 0.0726 0.0
C3550 C 0.20862 0.40542 0.1818 0.0
C3551 C 0.21973 0.41037 0.03922 0.0
C3552 C 0.19351 0.4132 0.33555 0.0
C3553 C 0.19937 0.41372 0.29961 0.0
C3554 C 0.20467 0.42339 0.18952 0.0
C3555 C 0.21789 0.41231 0.11337 0.0
C3556 C 0.21176 0.41324 0.1495 0.0
C3557 C 0.1968 0.41695 0.26168 0.0
C3558 C 0.2018 0.4157 0.22243 0.0
H3559 H 0.2401 0.40868 0.09379 0.0
H3560 H 0.2304 0.41142 0.15117 0.0
H3561 H 0.21196 0.42829 0.12881 0.0
H3562 H 0.17661 0.42248 0.29627 0.0
H3563 H 0.18665 0.42312 0.23295 0.0
C3564 C 0.22891 0.41156 0.80739 0.0
C3565 C 0.22417 0.41336 0.84313 0.0
C3566 C 0.2252 0.41245 0.76803 0.0
C3567 C 0.20909 0.42306 0.71036 0.0
H3568 H 0.20086 0.39745 0.639 0.0
C3569 C 0.17706 0.41139 0.57924 0.0
C3570 C 0.17838 0.40681 0.54217 0.0
C3571 C 0.18422 0.41343 0.6127 0.0
C3572 C 0.2033 0.40477 0.65808 0.0
H3573 H 0.21231 0.4182 0.86521 0.0
H3574 H 0.20593 0.41985 0.79658 0.0
H3575 H 0.21087 0.39929 0.70338 0.0
H3576 H 0.18847 0.40089 0.51142 0.0
H3577 H 0.20111 0.40458 0.57007 0.0
H3578 H 0.20138 0.42848 0.66544 0.0
C3579 C 0.2125 0.41773 0.79901 0.0
C3580 C 0.20903 0.40583 0.69507 0.0
C3581 C 0.21614 0.41675 0.83842 0.0
C3582 C 0.18719 0.40442 0.53943 0.0
C3583 C 0.19441 0.40649 0.57313 0.0
C3584 C 0.20341 0.42204 0.67329 0.0
C3585 C 0.21675 0.41527 0.76341 0.0
C3586 C 0.21179 0.41486 0.72206 0.0
C3587 C 0.19298 0.41099 0.61025 0.0
C3588 C 0.2002 0.41275 0.64712 0.0
H3589 H 0.23512 0.40893 0.80976 0.0
H3590 H 0.22876 0.41066 0.74119 0.0
H3591 H 0.21125 0.4302 0.73015 0.0
H3592 H 0.17035 0.41329 0.58285 0.0
H3593 H 0.18269 0.41668 0.64096 0.0
C3594 C 0.58534 0.81445 0.82771 0.0
C3595 C 0.59586 0.82056 0.84702 0.0
C3596 C 0.5844 0.80951 0.7889 0.0
C3597 C 0.60176 0.81022 0.69848 0.0
H3598 H 0.57613 0.78098 0.67528 0.0
C3599 C 0.59868 0.78689 0.54571 0.0
C3600 C 0.59477 0.77534 0.54961 0.0
C3601 C 0.59763 0.79293 0.57868 0.0
C3602 C 0.58339 0.78913 0.68127 0.0
H3603 H 0.61359 0.82605 0.84123 0.0
H3604 H 0.6119 0.81715 0.77486 0.0
H3605 H 0.57689 0.79032 0.73995 0.0
H3606 H 0.58639 0.76106 0.59116 0.0
H3607 H 0.58487 0.77152 0.64823 0.0
H3608 H 0.60858 0.80873 0.64099 0.0
C3609 C 0.60441 0.81645 0.78867 0.0
C3610 C 0.58374 0.79457 0.71824 0.0
C3611 C 0.60536 0.82149 0.82706 0.0
C3612 C 0.58952 0.76994 0.58679 0.0
C3613 C 0.58854 0.77595 0.61964 0.0
C3614 C 0.60146 0.80472 0.66174 0.0
C3615 C 0.59394 0.81048 0.76879 0.0
C3616 C 0.59305 0.8051 0.72778 0.0
C3617 C 0.59268 0.78755 0.61633 0.0
C3618 C 0.59238 0.79399 0.653 0.0
H3619 H 0.57788 0.81368 0.84216 0.0
H3620 H 0.57621 0.80508 0.77444 0.0
H3621 H 0.60894 0.81844 0.70418 0.0
H3622 H 0.60274 0.79132 0.51751 0.0
H3623 H 0.60078 0.80182 0.57475 0.0
C3624 C 0.19637 0.7779 0.85078 0.0
C3625 C 0.18734 0.76688 0.84851 0.0
C3626 C 0.20246 0.78337 0.81537 0.0
C3627 C 0.20655 0.77983 0.70286 0.0
H3628 H 0.21391 0.81095 0.69946 0.0
C3629 C 0.21962 0.80814 0.55419 0.0
C3630 C 0.22903 0.81892 0.55913 0.0
C3631 C 0.21492 0.80098 0.58839 0.0
C3632 C 0.21198 0.80229 0.70002 0.0
H3633 H 0.17784 0.75272 0.80795 0.0
H3634 H 0.18826 0.76236 0.7455 0.0
H3635 H 0.20549 0.79992 0.7613 0.0
H3636 H 0.24099 0.83047 0.60401 0.0
H3637 H 0.23273 0.81813 0.66306 0.0
H3638 H 0.21279 0.7823 0.64046 0.0
C3639 C 0.19087 0.76673 0.77479 0.0
C3640 C 0.20723 0.79595 0.73567 0.0
C3641 C 0.18491 0.76116 0.81059 0.0
C3642 C 0.23372 0.82227 0.59885 0.0
C3643 C 0.22898 0.81521 0.63286 0.0
C3644 C 0.21121 0.78617 0.6668 0.0
C3645 C 0.19944 0.77806 0.77648 0.0
C3646 C 0.20457 0.78467 0.73793 0.0
C3647 C 0.21946 0.80455 0.62816 0.0
C3648 C 0.21408 0.79751 0.66527 0.0
H3649 H 0.19838 0.78248 0.8797 0.0
H3650 H 0.20924 0.79195 0.81828 0.0
H3651 H 0.20466 0.77119 0.70341 0.0
H3652 H 0.2158 0.80527 0.52407 0.0
H3653 H 0.20755 0.79281 0.58396 0.0
C3654 C 0.07989 0.55553 0.99318 0.0
C3655 C 0.08479 0.56725 0.99071 0.0
C3656 C 0.08057 0.55043 0.02957 0.0
C3657 C 0.0821 0.55364 0.14103 0.0
H3658 H 0.08894 0.52954 0.13777 0.0
C3659 C 0.07905 0.52637 0.28553 0.0
C3660 C 0.0748 0.51491 0.27739 0.0
C3661 C 0.08143 0.53398 0.25277 0.0
C3662 C 0.08691 0.53619 0.13926 0.0
H3663 H 0.09436 0.58283 0.02437 0.0
H3664 H 0.09538 0.57383 0.08865 0.0
H3665 H 0.0915 0.54065 0.07588 0.0
H3666 H 0.06903 0.50237 0.22873 0.0
H3667 H 0.07284 0.51539 0.17262 0.0
H3668 H 0.07704 0.54883 0.20405 0.0
C3669 C 0.09112 0.56865 0.06207 0.0
C3670 C 0.08845 0.5426 0.10381 0.0
C3671 C 0.09063 0.57379 0.02522 0.0
C3672 C 0.07251 0.51117 0.2362 0.0
C3673 C 0.07478 0.51868 0.20382 0.0
C3674 C 0.08044 0.54713 0.17658 0.0
C3675 C 0.086 0.55691 0.06466 0.0
C3676 C 0.08582 0.55122 0.10397 0.0
C3677 C 0.07954 0.53022 0.21141 0.0
C3678 C 0.08253 0.53811 0.17574 0.0
H3679 H 0.07528 0.55026 0.96719 0.0
H3680 H 0.07647 0.54136 0.03073 0.0
H3681 H 0.07996 0.56022 0.14194 0.0
H3682 H 0.08092 0.5295 0.31694 0.0
H3683 H 0.08507 0.54281 0.25975 0.0
C3684 C 0.42835 0.51822 0.03067 0.0
C3685 C 0.43517 0.51973 0.9961 0.0
C3686 C 0.43311 0.5241 0.0674 0.0
C3687 C 0.45655 0.54914 0.11076 0.0
H3688 H 0.45579 0.53112 0.20435 0.0
C3689 C 0.48893 0.56828 0.24053 0.0
C3690 C 0.48616 0.56424 0.28128 0.0
C3691 C 0.48138 0.56303 0.20824 0.0
C3692 C 0.4559 0.53632 0.17901 0.0
H3693 H 0.45213 0.52886 0.97206 0.0
H3694 H 0.46032 0.53953 0.03553 0.0
H3695 H 0.44457 0.52198 0.14288 0.0
H3696 H 0.47318 0.55151 0.32002 0.0
H3697 H 0.45975 0.54249 0.26357 0.0
H3698 H 0.46771 0.56348 0.14639 0.0
C3699 C 0.45136 0.53369 0.03442 0.0
C3700 C 0.44949 0.53106 0.14376 0.0
C3701 C 0.44669 0.52761 0.99819 0.0
C3702 C 0.47558 0.55481 0.28895 0.0
C3703 C 0.4679 0.54962 0.25651 0.0
C3704 C 0.46277 0.55441 0.1462 0.0
C3705 C 0.44467 0.53181 0.06962 0.0
C3706 C 0.45001 0.53742 0.10898 0.0
C3707 C 0.47071 0.55367 0.21564 0.0
C3708 C 0.46285 0.54807 0.18034 0.0
H3709 H 0.41948 0.51207 0.03002 0.0
H3710 H 0.4278 0.52252 0.09425 0.0
H3711 H 0.457 0.55421 0.08437 0.0
H3712 H 0.49705 0.57543 0.23322 0.0
H3713 H 0.48405 0.56623 0.17723 0.0
C3714 C 0.47928 0.92983 0.00982 0.0
C3715 C 0.48384 0.92278 0.00486 0.0
C3716 C 0.47454 0.93027 0.04742 0.0
C3717 C 0.46372 0.91589 0.14818 0.0
H3718 H 0.46966 0.94551 0.18052 0.0
C3719 C 0.4484 0.92574 0.30351 0.0
C3720 C 0.44191 0.93085 0.29619 0.0
C3721 C 0.45474 0.92478 0.27136 0.0
C3722 C 0.46799 0.9372 0.172 0.0
H3723 H 0.48661 0.91029 0.03504 0.0
H3724 H 0.47844 0.91116 0.10122 0.0
H3725 H 0.47785 0.94324 0.11707 0.0
H3726 H 0.4373 0.93936 0.25044 0.0
H3727 H 0.44855 0.938 0.19515 0.0
H3728 H 0.4538 0.90993 0.20358 0.0
C3729 C 0.47843 0.91628 0.07579 0.0
C3730 C 0.47258 0.93586 0.13544 0.0
C3731 C 0.4831 0.91577 0.03784 0.0
C3732 C 0.44221 0.93535 0.25691 0.0
C3733 C 0.44868 0.93461 0.22529 0.0
C3734 C 0.4592 0.91725 0.18515 0.0
C3735 C 0.47436 0.92377 0.08133 0.0
C3736 C 0.47024 0.92515 0.12235 0.0
C3737 C 0.45488 0.92918 0.23192 0.0
C3738 C 0.46106 0.92789 0.19677 0.0
H3739 H 0.47963 0.93526 0.98488 0.0
H3740 H 0.47118 0.93587 0.05006 0.0
H3741 H 0.46173 0.90752 0.13908 0.0
H3742 H 0.44823 0.92213 0.33348 0.0
H3743 H 0.45948 0.92057 0.27718 0.0
C3744 C 0.22556 0.36393 0.00312 0.0
C3745 C 0.23693 0.3723 0.00575 0.0
C3746 C 0.22206 0.35297 0.01537 0.0
C3747 C 0.22931 0.33586 0.0812 0.0
H3748 H 0.20553 0.31176 0.01781 0.0
C3749 C 0.20556 0.28921 0.13555 0.0
C3750 C 0.19402 0.28538 0.13912 0.0
C3751 C 0.21254 0.29912 0.11374 0.0
C3752 C 0.21226 0.31839 0.03557 0.0
H3753 H 0.2535 0.37568 0.02431 0.0
H3754 H 0.2473 0.35638 0.04594 0.0
H3755 H 0.21482 0.33085 0.99067 0.0
H3756 H 0.1806 0.28844 0.12125 0.0
H3757 H 0.19265 0.30544 0.08233 0.0
H3758 H 0.22643 0.32332 0.12669 0.0
C3759 C 0.24115 0.3584 0.03419 0.0
C3760 C 0.21753 0.32932 0.02022 0.0
C3761 C 0.24469 0.36944 0.02177 0.0
C3762 C 0.18948 0.29124 0.11896 0.0
C3763 C 0.19636 0.30093 0.09654 0.0
C3764 C 0.22407 0.32486 0.09646 0.0
C3765 C 0.2298 0.35002 0.03063 0.0
C3766 C 0.22578 0.33825 0.04363 0.0
C3767 C 0.20798 0.30511 0.09439 0.0
C3768 C 0.2152 0.31612 0.07446 0.0
H3769 H 0.2193 0.36579 0.99139 0.0
H3770 H 0.21321 0.3468 0.01327 0.0
H3771 H 0.23562 0.34255 0.09999 0.0
H3772 H 0.20925 0.28486 0.15118 0.0
H3773 H 0.22148 0.3022 0.11251 0.0
C3774 C 0.70858 0.91698 0.12012 0.0
C3775 C 0.7091 0.90851 0.14287 0.0
C3776 C 0.69814 0.91561 0.10798 0.0
C3777 C 0.66847 0.90027 0.13793 0.0
H3778 H 0.66068 0.89831 0.02186 0.0
C3779 C 0.62659 0.86743 0.07279 0.0
C3780 C 0.6219 0.86986 0.0387 0.0
C3781 C 0.63671 0.87571 0.08959 0.0
C3782 C 0.66275 0.89913 0.05447 0.0
H3783 H 0.69897 0.89179 0.16901 0.0
H3784 H 0.68115 0.88962 0.14874 0.0
H3785 H 0.68041 0.90675 0.04212 0.0
H3786 H 0.62378 0.88274 0.99567 0.0
H3787 H 0.64167 0.8973 0.02486 0.0
H3788 H 0.65083 0.89198 0.1503 0.0
C3789 C 0.68872 0.89735 0.14076 0.0
C3790 C 0.67405 0.90396 0.06599 0.0
C3791 C 0.69901 0.89861 0.1522 0.0
C3792 C 0.62716 0.8808 0.02271 0.0
C3793 C 0.63742 0.88907 0.03907 0.0
C3794 C 0.65722 0.89547 0.12648 0.0
C3795 C 0.68813 0.90586 0.1191 0.0
C3796 C 0.67692 0.90402 0.10767 0.0
C3797 C 0.64244 0.8865 0.07196 0.0
C3798 C 0.65421 0.89432 0.08452 0.0
H3799 H 0.71618 0.92469 0.11229 0.0
H3800 H 0.69787 0.92223 0.09078 0.0
H3801 H 0.67051 0.90034 0.17035 0.0
H3802 H 0.62277 0.85896 0.08484 0.0
H3803 H 0.64045 0.8734 0.11445 0.0
C3804 C 0.12546 0.75616 0.02876 0.0
C3805 C 0.13307 0.76172 0.99634 0.0
C3806 C 0.11773 0.75946 0.04062 0.0
C3807 C 0.11376 0.78421 0.03249 0.0
H3808 H 0.08502 0.7643 0.08358 0.0
C3809 C 0.08737 0.80195 0.09769 0.0
C3810 C 0.08554 0.79972 0.14014 0.0
C3811 C 0.09027 0.79545 0.07289 0.0
C3812 C 0.09298 0.76992 0.06896 0.0
H3813 H 0.13809 0.77474 0.94986 0.0
H3814 H 0.12432 0.77993 0.96845 0.0
H3815 H 0.09609 0.75654 0.05404 0.0
H3816 H 0.08416 0.78847 0.18946 0.0
H3817 H 0.08904 0.77701 0.14623 0.0
H3818 H 0.11074 0.79757 0.04773 0.0
C3819 C 0.12456 0.77336 0.98608 0.0
C3820 C 0.09938 0.76551 0.05241 0.0
C3821 C 0.13242 0.77028 0.975 0.0
C3822 C 0.08558 0.79032 0.15672 0.0
C3823 C 0.08831 0.78374 0.13192 0.0
C3824 C 0.10731 0.78857 0.0484 0.0
C3825 C 0.11731 0.76825 0.0198 0.0
C3826 C 0.10996 0.77264 0.03459 0.0
C3827 C 0.09122 0.78657 0.09025 0.0
C3828 C 0.09696 0.78152 0.06749 0.0
H3829 H 0.12575 0.74955 0.04594 0.0
H3830 H 0.11239 0.75539 0.06704 0.0
H3831 H 0.12196 0.79005 0.02008 0.0
H3832 H 0.08749 0.80925 0.08444 0.0
H3833 H 0.09242 0.79776 0.04075 0.0
C3834 C 0.30328 0.19816 0.3321 0.0
C3835 C 0.29407 0.19969 0.33982 0.0
C3836 C 0.31416 0.20661 0.34088 0.0
C3837 C 0.33064 0.23024 0.40796 0.0
H3838 H 0.35426 0.23488 0.33107 0.0
C3839 C 0.37749 0.25292 0.45557 0.0
C3840 C 0.38177 0.24564 0.4502 0.0
C3841 C 0.36751 0.25068 0.43578 0.0
C3842 C 0.34777 0.23381 0.35264 0.0
H3843 H 0.28914 0.21131 0.36388 0.0
H3844 H 0.30836 0.22612 0.38024 0.0
H3845 H 0.33468 0.22436 0.30909 0.0
H3846 H 0.37952 0.23078 0.41874 0.0
H3847 H 0.3624 0.22708 0.38321 0.0
H3848 H 0.34375 0.23916 0.45226 0.0
C3849 C 0.30702 0.21835 0.36672 0.0
C3850 C 0.33657 0.22777 0.34014 0.0
C3851 C 0.29604 0.20988 0.35741 0.0
C3852 C 0.3764 0.23655 0.42296 0.0
C3853 C 0.36662 0.23447 0.40259 0.0
C3854 C 0.34188 0.23632 0.42049 0.0
C3855 C 0.31619 0.21682 0.35804 0.0
C3856 C 0.32788 0.22545 0.36828 0.0
C3857 C 0.36188 0.2413 0.40972 0.0
C3858 C 0.3505 0.23769 0.39349 0.0
H3859 H 0.30215 0.19041 0.31914 0.0
H3860 H 0.32102 0.20506 0.33486 0.0
H3861 H 0.32411 0.22856 0.43029 0.0
H3862 H 0.38144 0.25988 0.47703 0.0
H3863 H 0.364 0.25605 0.44184 0.0
C3864 C 0.75207 0.1266 0.47102 0.0
C3865 C 0.76028 0.13806 0.4719 0.0
C3866 C 0.75491 0.11862 0.45772 0.0
C3867 C 0.77855 0.1147 0.46344 0.0
H3868 H 0.76903 0.09552 0.36664 0.0
C3869 C 0.80703 0.10206 0.38254 0.0
C3870 C 0.80276 0.09114 0.3672 0.0
C3871 C 0.7999 0.1054 0.39979 0.0
C3872 C 0.77157 0.10062 0.39436 0.0
H3873 H 0.77749 0.15021 0.45591 0.0
H3874 H 0.78235 0.13636 0.43304 0.0
H3875 H 0.75939 0.1059 0.38523 0.0
H3876 H 0.78766 0.07505 0.35843 0.0
H3877 H 0.77503 0.08101 0.38843 0.0
H3878 H 0.791 0.10991 0.47191 0.0
C3879 C 0.77383 0.13354 0.44306 0.0
C3880 C 0.76608 0.10655 0.40485 0.0
C3881 C 0.77102 0.14145 0.45607 0.0
C3882 C 0.79118 0.0835 0.37032 0.0
C3883 C 0.78396 0.08692 0.38717 0.0
C3884 C 0.78398 0.10879 0.45314 0.0
C3885 C 0.76595 0.12206 0.44528 0.0
C3886 C 0.76985 0.11396 0.43855 0.0
C3887 C 0.78828 0.09793 0.40187 0.0
C3888 C 0.78087 0.10206 0.41753 0.0
H3889 H 0.74374 0.12376 0.48322 0.0
H3890 H 0.74871 0.10978 0.45954 0.0
H3891 H 0.78152 0.12031 0.48983 0.0
H3892 H 0.81591 0.10814 0.38063 0.0
H3893 H 0.80346 0.11399 0.41029 0.0
C3894 C 0.91344 0.70666 0.36396 0.0
C3895 C 0.90728 0.71226 0.36718 0.0
C3896 C 0.90918 0.69591 0.38108 0.0
C3897 C 0.88155 0.67185 0.40498 0.0
H3898 H 0.8974 0.65928 0.46311 0.0
C3899 C 0.85789 0.63077 0.49296 0.0
C3900 C 0.86099 0.62255 0.48716 0.0
C3901 C 0.86462 0.64163 0.47811 0.0
C3902 C 0.89293 0.66268 0.44644 0.0
H3903 H 0.89251 0.71162 0.39358 0.0
H3904 H 0.88533 0.69318 0.42459 0.0
H3905 H 0.90766 0.67896 0.44009 0.0
H3906 H 0.87381 0.61945 0.46186 0.0
H3907 H 0.88566 0.63864 0.43574 0.0
H3908 H 0.86685 0.65577 0.41151 0.0
C3909 C 0.89321 0.69682 0.40789 0.0
C3910 C 0.89878 0.67391 0.43338 0.0
C3911 C 0.89736 0.70742 0.39052 0.0
C3912 C 0.87115 0.62557 0.4667 0.0
C3913 C 0.87797 0.63654 0.45195 0.0
C3914 C 0.87575 0.66073 0.41799 0.0
C3915 C 0.89877 0.69071 0.4017 0.0
C3916 C 0.89305 0.67867 0.41344 0.0
C3917 C 0.87466 0.64462 0.45707 0.0
C3918 C 0.8813 0.65608 0.43969 0.0
H3919 H 0.92105 0.7102 0.34568 0.0
H3920 H 0.91366 0.6914 0.37591 0.0
H3921 H 0.87696 0.67515 0.38849 0.0
H3922 H 0.85018 0.62884 0.50874 0.0
H3923 H 0.86194 0.64772 0.48309 0.0
C3924 C 0.79541 0.71185 0.86808 0.0
C3925 C 0.80682 0.71547 0.86138 0.0
C3926 C 0.78837 0.70134 0.88624 0.0
C3927 C 0.78911 0.6795 0.94996 0.0
H3928 H 0.76333 0.65779 0.88699 0.0
C3929 C 0.77467 0.6333 0.95893 0.0
C3930 C 0.76334 0.62578 0.96815 0.0
C3931 C 0.77816 0.64432 0.94771 0.0
C3932 C 0.77038 0.66382 0.90527 0.0
H3933 H 0.81992 0.71126 0.86994 0.0
H3934 H 0.80781 0.69321 0.90207 0.0
H3935 H 0.77284 0.67772 0.86751 0.0
H3936 H 0.74666 0.62377 0.96991 0.0
H3937 H 0.75284 0.64319 0.94928 0.0
H3938 H 0.78706 0.66563 0.98642 0.0
C3939 C 0.80422 0.69836 0.89326 0.0
C3940 C 0.77579 0.6752 0.89427 0.0
C3941 C 0.81116 0.70867 0.87462 0.0
C3942 C 0.75545 0.62935 0.96302 0.0
C3943 C 0.75897 0.64046 0.9514 0.0
C3944 C 0.78376 0.6682 0.96081 0.0
C3945 C 0.79274 0.69449 0.89878 0.0
C3946 C 0.78548 0.68306 0.91557 0.0
C3947 C 0.77043 0.64812 0.94509 0.0
C3948 C 0.77463 0.66019 0.93758 0.0
H3949 H 0.79187 0.71692 0.8578 0.0
H3950 H 0.77953 0.69854 0.89017 0.0
H3951 H 0.79645 0.68541 0.96731 0.0
H3952 H 0.78097 0.63082 0.96197 0.0
H3953 H 0.78701 0.64999 0.94203 0.0
C3954 C 0.37526 0.12262 0.96858 0.0
C3955 C 0.37984 0.13379 0.95554 0.0
C3956 C 0.36468 0.11441 0.95441 0.0
C3957 C 0.34269 0.10739 0.87672 0.0
H3958 H 0.32169 0.09705 0.96856 0.0
C3959 C 0.29413 0.08243 0.85692 0.0
C3960 C 0.28978 0.08922 0.87021 0.0
C3961 C 0.30501 0.08507 0.86819 0.0
C3962 C 0.32748 0.09967 0.94271 0.0
H3963 H 0.37746 0.14512 0.91603 0.0
H3964 H 0.35922 0.13069 0.88965 0.0
H3965 H 0.34192 0.10673 0.98219 0.0
H3966 H 0.29303 0.10367 0.90704 0.0
H3967 H 0.31183 0.10796 0.92836 0.0
H3968 H 0.32821 0.10068 0.8373 0.0
C3969 C 0.36373 0.12826 0.9109 0.0
C3970 C 0.33901 0.10515 0.95044 0.0
C3971 C 0.37414 0.1365 0.92587 0.0
C3972 C 0.29619 0.09827 0.89672 0.0
C3973 C 0.30691 0.10071 0.90891 0.0
C3974 C 0.33113 0.10168 0.86897 0.0
C3975 C 0.35871 0.11725 0.92629 0.0
C3976 C 0.34671 0.10939 0.91754 0.0
C3977 C 0.31152 0.09432 0.89386 0.0
C3978 C 0.32346 0.09812 0.90195 0.0
H3979 H 0.37942 0.12042 0.99217 0.0
H3980 H 0.36093 0.10599 0.96686 0.0
H3981 H 0.34848 0.11064 0.85091 0.0
H3982 H 0.28938 0.07551 0.83591 0.0
H3983 H 0.30846 0.08009 0.85607 0.0
C3984 C 0.89026 0.19631 0.8139 0.0
C3985 C 0.90004 0.19722 0.8314 0.0
C3986 C 0.88671 0.20387 0.82437 0.0
C3987 C 0.89563 0.23114 0.8782 0.0
H3988 H 0.86346 0.21886 0.88702 0.0
C3989 C 0.87312 0.24813 0.98087 0.0
C3990 C 0.86334 0.24761 0.96548 0.0
C3991 C 0.87909 0.24446 0.95677 0.0
C3992 C 0.87247 0.22249 0.88391 0.0
H3993 H 0.91369 0.2068 0.87421 0.0
H3994 H 0.90717 0.21965 0.89422 0.0
H3995 H 0.87068 0.20706 0.86232 0.0
H3996 H 0.85237 0.2435 0.91251 0.0
H3997 H 0.86274 0.23689 0.87021 0.0
H3998 H 0.89726 0.24639 0.90269 0.0
C3999 C 0.90246 0.21333 0.87108 0.0
C4000 C 0.87664 0.21572 0.86968 0.0
C4001 C 0.90616 0.20589 0.85989 0.0
C4002 C 0.86001 0.24413 0.92464 0.0
C4003 C 0.86587 0.24026 0.9007 0.0
C4004 C 0.89143 0.23787 0.89316 0.0
C4005 C 0.89264 0.21239 0.85358 0.0
C4006 C 0.88829 0.2199 0.86691 0.0
C4007 C 0.87521 0.24 0.9172 0.0
C4008 C 0.8798 0.23356 0.89642 0.0
H4009 H 0.88528 0.18974 0.792 0.0
H4010 H 0.87925 0.20297 0.80947 0.0
H4011 H 0.90464 0.23473 0.87583 0.0
H4012 H 0.87574 0.25069 0.01252 0.0
H4013 H 0.88618 0.24427 0.97039 0.0
C4014 C 0.70878 0.7888 0.62971 0.0
C4015 C 0.7128 0.8 0.61801 0.0
C4016 C 0.69827 0.78036 0.61588 0.0
C4017 C 0.67572 0.77287 0.54047 0.0
H4018 H 0.65513 0.76159 0.63343 0.0
C4019 C 0.6277 0.74884 0.51833 0.0
C4020 C 0.6234 0.75542 0.53431 0.0
C4021 C 0.63833 0.75088 0.53047 0.0
C4022 C 0.6608 0.76446 0.60723 0.0
H4023 H 0.70951 0.81113 0.58088 0.0
H4024 H 0.69143 0.79631 0.55502 0.0
H4025 H 0.67542 0.77166 0.64587 0.0
H4026 H 0.62634 0.76874 0.57684 0.0
H4027 H 0.64467 0.77193 0.59969 0.0
H4028 H 0.6611 0.76613 0.50193 0.0
C4029 C 0.6963 0.79406 0.57508 0.0
C4030 C 0.67238 0.77016 0.61428 0.0
C4031 C 0.70663 0.80252 0.58978 0.0
C4032 C 0.62945 0.76346 0.56471 0.0
C4033 C 0.63991 0.76528 0.57767 0.0
C4034 C 0.66415 0.76697 0.53337 0.0
C4035 C 0.69184 0.78299 0.5893 0.0
C4036 C 0.67992 0.77478 0.58103 0.0
C4037 C 0.64462 0.75931 0.55952 0.0
C4038 C 0.6566 0.76309 0.56678 0.0
H4039 H 0.71331 0.78672 0.6521 0.0
H4040 H 0.69495 0.77189 0.6274 0.0
H4041 H 0.68139 0.77642 0.51442 0.0
H4042 H 0.62326 0.74277 0.49415 0.0
H4043 H 0.64185 0.74624 0.51589 0.0
C4044 C 0.20811 0.91426 0.65616 0.0
C4045 C 0.19878 0.91421 0.63859 0.0
C4046 C 0.21479 0.91143 0.6325 0.0
C4047 C 0.21083 0.89326 0.54388 0.0
H4048 H 0.24087 0.90016 0.57442 0.0
C4049 C 0.22456 0.86059 0.52623 0.0
C4050 C 0.23571 0.86399 0.51556 0.0
C4051 C 0.22137 0.86852 0.53519 0.0
C4052 C 0.23254 0.89822 0.56487 0.0
H4053 H 0.18959 0.91221 0.58202 0.0
H4054 H 0.20154 0.90761 0.5397 0.0
H4055 H 0.23399 0.91255 0.59634 0.0
H4056 H 0.25227 0.87841 0.50607 0.0
H4057 H 0.24666 0.89229 0.52111 0.0
H4058 H 0.20941 0.87902 0.51205 0.0
C4059 C 0.20357 0.90958 0.57208 0.0
C4060 C 0.22855 0.90528 0.57782 0.0
C4061 C 0.19683 0.91237 0.59603 0.0
C4062 C 0.24364 0.87551 0.51467 0.0
C4063 C 0.24042 0.88347 0.52323 0.0
C4064 C 0.21487 0.8863 0.5305 0.0
C4065 C 0.21226 0.90848 0.59059 0.0
C4066 C 0.21747 0.90264 0.56895 0.0
C4067 C 0.2292 0.88007 0.53318 0.0
C4068 C 0.2256 0.88842 0.54227 0.0
H4069 H 0.20976 0.9157 0.689 0.0
H4070 H 0.22131 0.91062 0.64815 0.0
H4071 H 0.20223 0.89086 0.53654 0.0
H4072 H 0.21824 0.85178 0.52743 0.0
H4073 H 0.21273 0.86554 0.5439 0.0
C4074 C 0.12698 0.36973 0.53517 0.0
C4075 C 0.13238 0.37093 0.49709 0.0
C4076 C 0.11935 0.35902 0.55039 0.0
C4077 C 0.11231 0.32941 0.53725 0.0
H4078 H 0.08709 0.32309 0.60819 0.0
C4079 C 0.08574 0.28582 0.60845 0.0
C4080 C 0.08534 0.28626 0.65169 0.0
C4081 C 0.08883 0.29548 0.58491 0.0
C4082 C 0.09407 0.32473 0.58818 0.0
H4083 H 0.13336 0.36193 0.44377 0.0
H4084 H 0.11988 0.34348 0.46913 0.0
H4085 H 0.09791 0.3416 0.57606 0.0
H4086 H 0.08673 0.29664 0.70412 0.0
H4087 H 0.09204 0.31345 0.66329 0.0
H4088 H 0.1086 0.31265 0.5497 0.0
C4089 C 0.12184 0.35068 0.48834 0.0
C4090 C 0.10032 0.33535 0.57004 0.0
C4091 C 0.12957 0.3613 0.47364 0.0
C4092 C 0.08712 0.29616 0.67081 0.0
C4093 C 0.09006 0.30576 0.64737 0.0
C4094 C 0.10601 0.3188 0.55496 0.0
C4095 C 0.11684 0.34934 0.52742 0.0
C4096 C 0.10963 0.33788 0.5448 0.0
C4097 C 0.09141 0.30565 0.60435 0.0
C4098 C 0.09693 0.31639 0.58113 0.0
H4099 H 0.12896 0.37702 0.55387 0.0
H4100 H 0.11574 0.35834 0.58075 0.0
H4101 H 0.11955 0.33107 0.51884 0.0
H4102 H 0.08446 0.27827 0.59312 0.0
H4103 H 0.0897 0.29514 0.55173 0.0
C4104 C 0.04376 0.57745 0.76872 0.0
C4105 C 0.04571 0.57906 0.81134 0.0
C4106 C 0.03303 0.57396 0.75285 0.0
C4107 C 0.00341 0.55892 0.78781 0.0
H4108 H 0.99775 0.56512 0.67616 0.0
C4109 C 0.95875 0.53754 0.71672 0.0
C4110 C 0.95805 0.53233 0.67854 0.0
C4111 C 0.96923 0.54514 0.73365 0.0
C4112 C 0.99921 0.56336 0.7075 0.0
H4113 H 0.03846 0.57917 0.87057 0.0
H4114 H 0.01989 0.57354 0.84299 0.0
H4115 H 0.01674 0.57548 0.7044 0.0
H4116 H 0.9679 0.53127 0.62799 0.0
H4117 H 0.98598 0.54456 0.65707 0.0
H4118 H 0.9859 0.54671 0.79061 0.0
C4119 C 0.02642 0.57454 0.82176 0.0
C4120 C 0.0101 0.56924 0.72361 0.0
C4121 C 0.03706 0.57784 0.83759 0.0
C4122 C 0.96805 0.53513 0.65729 0.0
C4123 C 0.97846 0.54282 0.67385 0.0
C4124 C 0.99252 0.55314 0.77185 0.0
C4125 C 0.02414 0.57216 0.77939 0.0
C4126 C 0.01239 0.56691 0.76366 0.0
C4127 C 0.97918 0.5478 0.71239 0.0
C4128 C 0.99036 0.55511 0.73121 0.0
H4129 H 0.05033 0.57825 0.74808 0.0
H4130 H 0.0316 0.57211 0.72014 0.0
H4131 H 0.00483 0.55671 0.81847 0.0
H4132 H 0.95122 0.53555 0.73397 0.0
H4133 H 0.96956 0.54888 0.76347 0.0
C4134 C 0.43566 0.46693 0.84039 0.0
C4135 C 0.42608 0.46737 0.82807 0.0
C4136 C 0.43789 0.45887 0.82418 0.0
C4137 C 0.43413 0.44295 0.7311 0.0
H4138 H 0.44764 0.42927 0.79727 0.0
C4139 C 0.46029 0.4176 0.70857 0.0
C4140 C 0.46856 0.42526 0.68131 0.0
C4141 C 0.45231 0.41995 0.72559 0.0
C4142 C 0.44368 0.43282 0.77839 0.0
H4143 H 0.41124 0.45952 0.78917 0.0
H4144 H 0.41534 0.44553 0.75992 0.0
H4145 H 0.43834 0.43827 0.83137 0.0
H4146 H 0.47479 0.44133 0.65041 0.0
H4147 H 0.46087 0.44523 0.67922 0.0
H4148 H 0.43999 0.43801 0.67816 0.0
C4149 C 0.42102 0.4514 0.78266 0.0
C4150 C 0.43844 0.43805 0.79788 0.0
C4151 C 0.41868 0.45941 0.79942 0.0
C4152 C 0.46851 0.43515 0.67085 0.0
C4153 C 0.46047 0.43739 0.68723 0.0
C4154 C 0.43945 0.43781 0.71162 0.0
C4155 C 0.43069 0.45111 0.79477 0.0
C4156 C 0.43399 0.44353 0.77444 0.0
C4157 C 0.45235 0.42989 0.71504 0.0
C4158 C 0.44465 0.43307 0.73511 0.0
H4159 H 0.44163 0.47295 0.86203 0.0
H4160 H 0.44553 0.45901 0.8335 0.0
H4161 H 0.43082 0.44714 0.71223 0.0
H4162 H 0.46011 0.40992 0.71741 0.0
H4163 H 0.44615 0.41405 0.74714 0.0
C4164 C 0.5409 0.96596 0.83885 0.0
C4165 C 0.53483 0.95558 0.81869 0.0
C4166 C 0.5486 0.97548 0.81719 0.0
C4167 C 0.55219 0.9873 0.71547 0.0
H4168 H 0.58037 0.01107 0.75915 0.0
C4169 C 0.57381 0.03034 0.63762 0.0
C4170 C 0.57814 0.03969 0.66395 0.0
C4171 C 0.57101 0.01978 0.65287 0.0
C4172 C 0.57249 0.00455 0.74661 0.0
H4173 H 0.53248 0.94684 0.76064 0.0
H4174 H 0.54585 0.96367 0.72211 0.0
H4175 H 0.57105 0.9927 0.79281 0.0
H4176 H 0.58349 0.04542 0.72661 0.0
H4177 H 0.57809 0.02689 0.75396 0.0
H4178 H 0.5531 0.99917 0.67109 0.0
C4179 C 0.54464 0.96437 0.75486 0.0
C4180 C 0.56721 0.99401 0.76571 0.0
C4181 C 0.53704 0.95476 0.77684 0.0
C4182 C 0.58014 0.03836 0.70558 0.0
C4183 C 0.5771 0.02772 0.72115 0.0
C4184 C 0.55737 0.99785 0.69672 0.0
C4185 C 0.5503 0.97486 0.77471 0.0
C4186 C 0.55689 0.98536 0.7508 0.0
C4187 C 0.57221 0.01823 0.69516 0.0
C4188 C 0.56748 0.0067 0.7125 0.0
H4189 H 0.5395 0.96678 0.87124 0.0
H4190 H 0.55276 0.98345 0.83326 0.0
H4191 H 0.54415 0.98086 0.70373 0.0
H4192 H 0.5724 0.03113 0.60525 0.0
H4193 H 0.56762 0.01278 0.63158 0.0
C4194 C 0.47147 0.0407 0.22093 0.0
C4195 C 0.46784 0.04564 0.19136 0.0
C4196 C 0.46372 0.03111 0.2421 0.0
C4197 C 0.43783 0.00575 0.22711 0.0
H4198 H 0.4402 0.00185 0.34478 0.0
C4199 C 0.41747 0.96176 0.30564 0.0
C4200 C 0.42496 0.96045 0.3316 0.0
C4201 C 0.42014 0.97244 0.2912 0.0
C4202 C 0.43939 0.0028 0.3119 0.0
H4203 H 0.45336 0.04463 0.16071 0.0
H4204 H 0.43967 0.02743 0.19712 0.0
H4205 H 0.44967 0.02068 0.31508 0.0
H4206 H 0.44113 0.96942 0.36256 0.0
H4207 H 0.4457 0.98773 0.33754 0.0
H4208 H 0.42822 0.98781 0.22341 0.0
C4209 C 0.44852 0.03118 0.20442 0.0
C4210 C 0.44476 0.01357 0.29501 0.0
C4211 C 0.4563 0.04101 0.18389 0.0
C4212 C 0.43508 0.97004 0.34297 0.0
C4213 C 0.43768 0.98062 0.32884 0.0
C4214 C 0.43253 0.99492 0.24398 0.0
C4215 C 0.4522 0.0261 0.23341 0.0
C4216 C 0.44439 0.01511 0.25227 0.0
C4217 C 0.43028 0.98198 0.30279 0.0
C4218 C 0.43367 0.99332 0.28629 0.0
H4219 H 0.48034 0.04412 0.22689 0.0
H4220 H 0.46679 0.02728 0.26389 0.0
H4221 H 0.43749 0.00673 0.19398 0.0
H4222 H 0.40962 0.95455 0.29618 0.0
H4223 H 0.41428 0.97322 0.27106 0.0
C4224 C 0.03238 0.47012 0.3288 0.0
C4225 C 0.04147 0.46842 0.32077 0.0
C4226 C 0.02145 0.46191 0.31913 0.0
C4227 C 0.00489 0.43856 0.25017 0.0
H4228 H 0.98105 0.43391 0.32595 0.0
C4229 C 0.95821 0.41545 0.20072 0.0
C4230 C 0.95368 0.42252 0.20586 0.0
C4231 C 0.96819 0.41786 0.22096 0.0
C4232 C 0.98761 0.43501 0.30465 0.0
H4233 H 0.04613 0.45673 0.29532 0.0
H4234 H 0.02686 0.44234 0.27763 0.0
H4235 H 0.00056 0.44444 0.34866 0.0
H4236 H 0.95546 0.43716 0.2377 0.0
H4237 H 0.97259 0.44118 0.27385 0.0
H4238 H 0.9919 0.42958 0.2055 0.0
C4239 C 0.02832 0.45007 0.29192 0.0
C4240 C 0.99876 0.44106 0.31756 0.0
C4241 C 0.03933 0.45831 0.30202 0.0
C4242 C 0.95879 0.43155 0.2335 0.0
C4243 C 0.96857 0.43382 0.25426 0.0
C4244 C 0.99368 0.43246 0.23724 0.0
C4245 C 0.01926 0.45176 0.30086 0.0
C4246 C 0.00754 0.44334 0.28989 0.0
C4247 C 0.97358 0.42723 0.24725 0.0
C4248 C 0.98498 0.43106 0.26383 0.0
H4249 H 0.03365 0.47783 0.34274 0.0
H4250 H 0.0147 0.4636 0.32543 0.0
H4251 H 0.01147 0.4402 0.22816 0.0
H4252 H 0.95447 0.40852 0.17907 0.0
H4253 H 0.97189 0.41266 0.21503 0.0
C4254 C 0.58341 0.54302 0.19782 0.0
C4255 C 0.57504 0.53262 0.18216 0.0
C4256 C 0.58076 0.55127 0.2093 0.0
C4257 C 0.55966 0.55969 0.18895 0.0
H4258 H 0.56494 0.57161 0.30047 0.0
C4259 C 0.52891 0.56807 0.27578 0.0
C4260 C 0.53272 0.57789 0.2992 0.0
C4261 C 0.53652 0.56569 0.25641 0.0
C4262 C 0.56366 0.56859 0.26888 0.0
H4263 H 0.55723 0.52268 0.16777 0.0
H4264 H 0.55278 0.53694 0.18704 0.0
H4265 H 0.57423 0.56135 0.27656 0.0
H4266 H 0.54743 0.59302 0.32046 0.0
H4267 H 0.56091 0.58863 0.28718 0.0
H4268 H 0.54854 0.56623 0.18205 0.0
C4269 C 0.5614 0.53882 0.18992 0.0
C4270 C 0.56896 0.56273 0.25524 0.0
C4271 C 0.56398 0.53061 0.17904 0.0
C4272 C 0.54431 0.58544 0.3022 0.0
C4273 C 0.55199 0.58292 0.28345 0.0
C4274 C 0.55437 0.56549 0.20256 0.0
C4275 C 0.56974 0.54928 0.20467 0.0
C4276 C 0.56657 0.55777 0.21582 0.0
C4277 C 0.54812 0.57297 0.26059 0.0
C4278 C 0.55592 0.56954 0.24323 0.0
H4279 H 0.592 0.54482 0.20079 0.0
H4280 H 0.58732 0.55925 0.22097 0.0
H4281 H 0.55783 0.55611 0.15814 0.0
H4282 H 0.52001 0.56211 0.27302 0.0
H4283 H 0.53331 0.55789 0.23944 0.0
loop_
_geom_bond_atom_site_label_1
_geom_bond_atom_site_label_2
_geom_bond_distance
_geom_bond_site_symmetry_2
_ccdc_geom_bond_type
Co0 O2 2.143 . S
Co0 O8 2.074 . S
Co0 O11 2.093 . S
Co0 O24 2.097 . S
Co0 N41 2.151 . S
Co0 N49 2.214 . S
Co1 O2 2.160 . S
Co1 O7 2.058 . S
Co1 O17 2.057 . S
Co1 O32 2.037 . S
Co1 N36 2.145 . S
Co1 N57 2.257 . S
O2 Co0 2.143 . S
O2 Co1 2.160 . S
C3 O4 1.278 . S
C3 O11 1.224 . S
O4 C3 1.278 . S
C5 O6 1.245 . S
C5 O17 1.232 . S
O6 C5 1.245 . S
O7 Co1 2.058 . S
O7 C33 1.269 . S
O8 Co0 2.074 . S
O8 C33 1.257 . S
H9 C34 0.930 . S
H10 C40 0.930 . S
O11 Co0 2.093 . S
O11 C3 1.224 . S
H12 C44 0.929 . S
H13 C46 0.930 . S
H14 C47 0.930 . S
H15 C45 0.929 . S
H16 C48 0.928 . S
O17 Co1 2.057 . S
O17 C5 1.232 . S
H18 C37 0.929 . S
H19 C38 0.929 . S
H20 C50 0.931 . S
H21 C42 0.929 . S
H22 C51 0.930 . S
H23 C43 0.931 . S
O24 Co0 2.097 . S
O24 C52 1.214 . S
H25 C53 0.929 . S
H26 C54 0.929 . S
H27 C55 0.930 . S
H28 C56 0.929 . S
H29 C58 0.930 . S
H30 C35 0.930 . S
H31 C39 0.930 . S
O32 Co1 2.037 . S
O32 C52 1.234 . S
C33 O7 1.269 . S
C33 O8 1.257 . S
C34 H9 0.930 . S
C34 C37 1.388 . S
C34 C39 1.418 . S
C35 H30 0.930 . S
C35 C38 1.404 . S
C35 C39 1.353 . S
N36 Co1 2.145 . S
N36 C37 1.397 . S
N36 C38 1.334 . S
C37 H18 0.929 . S
C37 C34 1.388 . S
C37 N36 1.397 . S
C38 H19 0.929 . S
C38 C35 1.404 . S
C38 N36 1.334 . S
C39 H31 0.930 . S
C39 C34 1.418 . S
C39 C35 1.353 . S
C40 H10 0.930 . S
C40 N41 1.330 . S
C40 C42 1.446 . S
N41 Co0 2.151 . S
N41 C40 1.330 . S
N41 C45 1.418 . S
C42 H21 0.929 . S
C42 C40 1.446 . S
C42 C43 1.332 . S
C43 H23 0.931 . S
C43 C42 1.332 . S
C43 C44 1.267 . S
C44 H12 0.929 . S
C44 C43 1.267 . S
C44 C45 1.251 . S
C45 H15 0.929 . S
C45 N41 1.418 . S
C45 C44 1.251 . S
C46 H13 0.930 . S
C46 C48 1.406 . S
C46 C51 1.261 . S
C47 H14 0.930 . S
C47 N49 1.325 . S
C47 C50 1.357 . S
C48 H16 0.928 . S
C48 C46 1.406 . S
C48 N49 1.261 . S
N49 Co0 2.214 . S
N49 C47 1.325 . S
N49 C48 1.261 . S
C50 H20 0.931 . S
C50 C47 1.357 . S
C50 C51 1.312 . S
C51 H22 0.930 . S
C51 C46 1.261 . S
C51 C50 1.312 . S
C52 O24 1.214 . S
C52 O32 1.234 . S
C53 H25 0.929 . S
C53 C56 1.391 . S
C53 C58 1.391 . S
C54 H26 0.929 . S
C54 C55 1.390 . S
C54 N57 1.391 . S
C55 H27 0.930 . S
C55 C54 1.390 . S
C55 C56 1.392 . S
C56 H28 0.929 . S
C56 C53 1.391 . S
C56 C55 1.392 . S
N57 Co1 2.257 . S
N57 C54 1.391 . S
N57 C58 1.388 . S
C58 H29 0.930 . S
C58 C53 1.391 . S
C58 N57 1.388 . S
Co59 O61 2.143 . S
Co59 O67 2.074 . S
Co59 O70 2.093 . S
Co59 O83 2.097 . S
Co59 N100 2.151 . S
Co59 N108 2.214 . S
Co60 O61 2.160 . S
Co60 O66 2.058 . S
Co60 O76 2.057 . S
Co60 O91 2.037 . S
Co60 N95 2.145 . S
Co60 N116 2.257 . S
O61 Co59 2.143 . S
O61 Co60 2.160 . S
C62 O63 1.278 . S
C62 O70 1.224 . S
O63 C62 1.278 . S
C64 O65 1.245 . S
C64 O76 1.232 . S
O65 C64 1.245 . S
O66 Co60 2.058 . S
O66 C92 1.269 . S
O67 Co59 2.074 . S
O67 C92 1.257 . S
H68 C93 0.930 . S
H69 C99 0.930 . S
O70 Co59 2.093 . S
O70 C62 1.224 . S
H71 C103 0.929 . S
H72 C105 0.930 . S
H73 C106 0.930 . S
H74 C104 0.929 . S
H75 C107 0.928 . S
O76 Co60 2.057 . S
O76 C64 1.232 . S
H77 C96 0.929 . S
H78 C97 0.929 . S
H79 C109 0.931 . S
H80 C101 0.929 . S
H81 C110 0.930 . S
H82 C102 0.931 . S
O83 Co59 2.097 . S
O83 C111 1.214 . S
H84 C112 0.929 . S
H85 C113 0.929 . S
H86 C114 0.930 . S
H87 C115 0.929 . S
H88 C117 0.930 . S
H89 C94 0.930 . S
H90 C98 0.930 . S
O91 Co60 2.037 . S
O91 C111 1.234 . S
C92 O66 1.269 . S
C92 O67 1.257 . S
C93 H68 0.930 . S
C93 C96 1.388 . S
C93 C98 1.418 . S
C94 H89 0.930 . S
C94 C97 1.404 . S
C94 C98 1.353 . S
N95 Co60 2.145 . S
N95 C96 1.397 . S
N95 C97 1.334 . S
C96 H77 0.929 . S
C96 C93 1.388 . S
C96 N95 1.397 . S
C97 H78 0.929 . S
C97 C94 1.404 . S
C97 N95 1.334 . S
C98 H90 0.930 . S
C98 C93 1.418 . S
C98 C94 1.353 . S
C99 H69 0.930 . S
C99 N100 1.330 . S
C99 C101 1.446 . S
N100 Co59 2.151 . S
N100 C99 1.330 . S
N100 C104 1.418 . S
C101 H80 0.929 . S
C101 C99 1.446 . S
C101 C102 1.332 . S
C102 H82 0.931 . S
C102 C101 1.332 . S
C102 C103 1.267 . S
C103 H71 0.929 . S
C103 C102 1.267 . S
C103 C104 1.251 . S
C104 H74 0.929 . S
C104 N100 1.418 . S
C104 C103 1.251 . S
C105 H72 0.930 . S
C105 C107 1.406 . S
C105 C110 1.261 . S
C106 H73 0.930 . S
C106 N108 1.325 . S
C106 C109 1.357 . S
C107 H75 0.928 . S
C107 C105 1.406 . S
C107 N108 1.261 . S
N108 Co59 2.214 . S
N108 C106 1.325 . S
N108 C107 1.261 . S
C109 H79 0.931 . S
C109 C106 1.357 . S
C109 C110 1.312 . S
C110 H81 0.930 . S
C110 C105 1.261 . S
C110 C109 1.312 . S
C111 O83 1.214 . S
C111 O91 1.234 . S
C112 H84 0.929 . S
C112 C115 1.391 . S
C112 C117 1.391 . S
C113 H85 0.929 . S
C113 C114 1.390 . S
C113 N116 1.391 . S
C114 H86 0.930 . S
C114 C113 1.390 . S
C114 C115 1.392 . S
C115 H87 0.929 . S
C115 C112 1.391 . S
C115 C114 1.392 . S
N116 Co60 2.257 . S
N116 C113 1.391 . S
N116 C117 1.388 . S
C117 H88 0.930 . S
C117 C112 1.391 . S
C117 N116 1.388 . S
Co118 O120 2.143 . S
Co118 O126 2.074 . S
Co118 O129 2.093 . S
Co118 O142 2.097 . S
Co118 N159 2.151 . S
Co118 N167 2.214 . S
Co119 O120 2.160 . S
Co119 O125 2.058 . S
Co119 O135 2.057 . S
Co119 O150 2.037 . S
Co119 N154 2.145 . S
Co119 N175 2.257 . S
O120 Co118 2.143 . S
O120 Co119 2.160 . S
C121 O122 1.278 . S
C121 O129 1.224 . S
O122 C121 1.278 . S
C123 O124 1.245 . S
C123 O135 1.232 . S
O124 C123 1.245 . S
O125 Co119 2.058 . S
O125 C151 1.269 . S
O126 Co118 2.074 . S
O126 C151 1.257 . S
H127 C152 0.930 . S
H128 C158 0.930 . S
O129 Co118 2.093 . S
O129 C121 1.224 . S
H130 C162 0.929 . S
H131 C164 0.930 . S
H132 C165 0.930 . S
H133 C163 0.929 . S
H134 C166 0.928 . S
O135 Co119 2.057 . S
O135 C123 1.232 . S
H136 C155 0.929 . S
H137 C156 0.929 . S
H138 C168 0.931 . S
H139 C160 0.929 . S
H140 C169 0.930 . S
H141 C161 0.931 . S
O142 Co118 2.097 . S
O142 C170 1.214 . S
H143 C171 0.929 . S
H144 C172 0.929 . S
H145 C173 0.930 . S
H146 C174 0.929 . S
H147 C176 0.930 . S
H148 C153 0.930 . S
H149 C157 0.930 . S
O150 Co119 2.037 . S
O150 C170 1.234 . S
C151 O125 1.269 . S
C151 O126 1.257 . S
C152 H127 0.930 . S
C152 C155 1.388 . S
C152 C157 1.418 . S
C153 H148 0.930 . S
C153 C156 1.404 . S
C153 C157 1.353 . S
N154 Co119 2.145 . S
N154 C155 1.397 . S
N154 C156 1.334 . S
C155 H136 0.929 . S
C155 C152 1.388 . S
C155 N154 1.397 . S
C156 H137 0.929 . S
C156 C153 1.404 . S
C156 N154 1.334 . S
C157 H149 0.930 . S
C157 C152 1.418 . S
C157 C153 1.353 . S
C158 H128 0.930 . S
C158 N159 1.330 . S
C158 C160 1.446 . S
N159 Co118 2.151 . S
N159 C158 1.330 . S
N159 C163 1.418 . S
C160 H139 0.929 . S
C160 C158 1.446 . S
C160 C161 1.332 . S
C161 H141 0.931 . S
C161 C160 1.332 . S
C161 C162 1.267 . S
C162 H130 0.929 . S
C162 C161 1.267 . S
C162 C163 1.251 . S
C163 H133 0.929 . S
C163 N159 1.418 . S
C163 C162 1.251 . S
C164 H131 0.930 . S
C164 C166 1.406 . S
C164 C169 1.261 . S
C165 H132 0.930 . S
C165 N167 1.325 . S
C165 C168 1.357 . S
C166 H134 0.928 . S
C166 C164 1.406 . S
C166 N167 1.261 . S
N167 Co118 2.214 . S
N167 C165 1.325 . S
N167 C166 1.261 . S
C168 H138 0.931 . S
C168 C165 1.357 . S
C168 C169 1.312 . S
C169 H140 0.930 . S
C169 C164 1.261 . S
C169 C168 1.312 . S
C170 O142 1.214 . S
C170 O150 1.234 . S
C171 H143 0.929 . S
C171 C174 1.391 . S
C171 C176 1.391 . S
C172 H144 0.929 . S
C172 C173 1.390 . S
C172 N175 1.391 . S
C173 H145 0.930 . S
C173 C172 1.390 . S
C173 C174 1.392 . S
C174 H146 0.929 . S
C174 C171 1.391 . S
C174 C173 1.392 . S
N175 Co119 2.257 . S
N175 C172 1.391 . S
N175 C176 1.388 . S
C176 H147 0.930 . S
C176 C171 1.391 . S
C176 N175 1.388 . S
Co177 O179 2.143 . S
Co177 O185 2.074 . S
Co177 O188 2.093 . S
Co177 O201 2.097 . S
Co177 N218 2.151 . S
Co177 N226 2.214 . S
Co178 O179 2.160 . S
Co178 O184 2.058 . S
Co178 O194 2.057 . S
Co178 O209 2.037 . S
Co178 N213 2.145 . S
Co178 N234 2.257 . S
O179 Co177 2.143 . S
O179 Co178 2.160 . S
C180 O181 1.278 . S
C180 O188 1.224 . S
O181 C180 1.278 . S
C182 O183 1.245 . S
C182 O194 1.232 . S
O183 C182 1.245 . S
O184 Co178 2.058 . S
O184 C210 1.269 . S
O185 Co177 2.074 . S
O185 C210 1.257 . S
H186 C211 0.930 . S
H187 C217 0.930 . S
O188 Co177 2.093 . S
O188 C180 1.224 . S
H189 C221 0.929 . S
H190 C223 0.930 . S
H191 C224 0.930 . S
H192 C222 0.929 . S
H193 C225 0.928 . S
O194 Co178 2.057 . S
O194 C182 1.232 . S
H195 C214 0.929 . S
H196 C215 0.929 . S
H197 C227 0.931 . S
H198 C219 0.929 . S
H199 C228 0.930 . S
H200 C220 0.931 . S
O201 Co177 2.097 . S
O201 C229 1.214 . S
H202 C230 0.929 . S
H203 C231 0.929 . S
H204 C232 0.930 . S
H205 C233 0.929 . S
H206 C235 0.930 . S
H207 C212 0.930 . S
H208 C216 0.930 . S
O209 Co178 2.037 . S
O209 C229 1.234 . S
C210 O184 1.269 . S
C210 O185 1.257 . S
C211 H186 0.930 . S
C211 C214 1.388 . S
C211 C216 1.418 . S
C212 H207 0.930 . S
C212 C215 1.404 . S
C212 C216 1.353 . S
N213 Co178 2.145 . S
N213 C214 1.397 . S
N213 C215 1.334 . S
C214 H195 0.929 . S
C214 C211 1.388 . S
C214 N213 1.397 . S
C215 H196 0.929 . S
C215 C212 1.404 . S
C215 N213 1.334 . S
C216 H208 0.930 . S
C216 C211 1.418 . S
C216 C212 1.353 . S
C217 H187 0.930 . S
C217 N218 1.330 . S
C217 C219 1.446 . S
N218 Co177 2.151 . S
N218 C217 1.330 . S
N218 C222 1.418 . S
C219 H198 0.929 . S
C219 C217 1.446 . S
C219 C220 1.332 . S
C220 H200 0.931 . S
C220 C219 1.332 . S
C220 C221 1.267 . S
C221 H189 0.929 . S
C221 C220 1.267 . S
C221 C222 1.251 . S
C222 H192 0.929 . S
C222 N218 1.418 . S
C222 C221 1.251 . S
C223 H190 0.930 . S
C223 C225 1.406 . S
C223 C228 1.261 . S
C224 H191 0.930 . S
C224 N226 1.325 . S
C224 C227 1.357 . S
C225 H193 0.928 . S
C225 C223 1.406 . S
C225 N226 1.261 . S
N226 Co177 2.214 . S
N226 C224 1.325 . S
N226 C225 1.261 . S
C227 H197 0.931 . S
C227 C224 1.357 . S
C227 C228 1.312 . S
C228 H199 0.930 . S
C228 C223 1.261 . S
C228 C227 1.312 . S
C229 O201 1.214 . S
C229 O209 1.234 . S
C230 H202 0.929 . S
C230 C233 1.391 . S
C230 C235 1.391 . S
C231 H203 0.929 . S
C231 C232 1.390 . S
C231 N234 1.391 . S
C232 H204 0.930 . S
C232 C231 1.390 . S
C232 C233 1.392 . S
C233 H205 0.929 . S
C233 C230 1.391 . S
C233 C232 1.392 . S
N234 Co178 2.257 . S
N234 C231 1.391 . S
N234 C235 1.388 . S
C235 H206 0.930 . S
C235 C230 1.391 . S
C235 N234 1.388 . S
Co236 O238 2.143 . S
Co236 O244 2.074 . S
Co236 O247 2.093 . S
Co236 O260 2.097 . S
Co236 N277 2.151 . S
Co236 N285 2.214 . S
Co237 O238 2.160 . S
Co237 O243 2.058 . S
Co237 O253 2.057 . S
Co237 O268 2.037 . S
Co237 N272 2.145 . S
Co237 N293 2.257 . S
O238 Co236 2.143 . S
O238 Co237 2.160 . S
C239 O240 1.278 . S
C239 O247 1.224 . S
O240 C239 1.278 . S
C241 O242 1.245 . S
C241 O253 1.232 . S
O242 C241 1.245 . S
O243 Co237 2.058 . S
O243 C269 1.269 . S
O244 Co236 2.074 . S
O244 C269 1.257 . S
H245 C270 0.930 . S
H246 C276 0.930 . S
O247 Co236 2.093 . S
O247 C239 1.224 . S
H248 C280 0.929 . S
H249 C282 0.930 . S
H250 C283 0.930 . S
H251 C281 0.929 . S
H252 C284 0.928 . S
O253 Co237 2.057 . S
O253 C241 1.232 . S
H254 C273 0.929 . S
H255 C274 0.929 . S
H256 C286 0.931 . S
H257 C278 0.929 . S
H258 C287 0.930 . S
H259 C279 0.931 . S
O260 Co236 2.097 . S
O260 C288 1.214 . S
H261 C289 0.929 . S
H262 C290 0.929 . S
H263 C291 0.930 . S
H264 C292 0.929 . S
H265 C294 0.930 . S
H266 C271 0.930 . S
H267 C275 0.930 . S
O268 Co237 2.037 . S
O268 C288 1.234 . S
C269 O243 1.269 . S
C269 O244 1.257 . S
C270 H245 0.930 . S
C270 C273 1.388 . S
C270 C275 1.418 . S
C271 H266 0.930 . S
C271 C274 1.404 . S
C271 C275 1.353 . S
N272 Co237 2.145 . S
N272 C273 1.397 . S
N272 C274 1.334 . S
C273 H254 0.929 . S
C273 C270 1.388 . S
C273 N272 1.397 . S
C274 H255 0.929 . S
C274 C271 1.404 . S
C274 N272 1.334 . S
C275 H267 0.930 . S
C275 C270 1.418 . S
C275 C271 1.353 . S
C276 H246 0.930 . S
C276 N277 1.330 . S
C276 C278 1.446 . S
N277 Co236 2.151 . S
N277 C276 1.330 . S
N277 C281 1.418 . S
C278 H257 0.929 . S
C278 C276 1.446 . S
C278 C279 1.332 . S
C279 H259 0.931 . S
C279 C278 1.332 . S
C279 C280 1.267 . S
C280 H248 0.929 . S
C280 C279 1.267 . S
C280 C281 1.251 . S
C281 H251 0.929 . S
C281 N277 1.418 . S
C281 C280 1.251 . S
C282 H249 0.930 . S
C282 C284 1.406 . S
C282 C287 1.261 . S
C283 H250 0.930 . S
C283 N285 1.325 . S
C283 C286 1.357 . S
C284 H252 0.928 . S
C284 C282 1.406 . S
C284 N285 1.261 . S
N285 Co236 2.214 . S
N285 C283 1.325 . S
N285 C284 1.261 . S
C286 H256 0.931 . S
C286 C283 1.357 . S
C286 C287 1.312 . S
C287 H258 0.930 . S
C287 C282 1.261 . S
C287 C286 1.312 . S
C288 O260 1.214 . S
C288 O268 1.234 . S
C289 H261 0.929 . S
C289 C292 1.391 . S
C289 C294 1.391 . S
C290 H262 0.929 . S
C290 C291 1.390 . S
C290 N293 1.391 . S
C291 H263 0.930 . S
C291 C290 1.390 . S
C291 C292 1.392 . S
C292 H264 0.929 . S
C292 C289 1.391 . S
C292 C291 1.392 . S
N293 Co237 2.257 . S
N293 C290 1.391 . S
N293 C294 1.388 . S
C294 H265 0.930 . S
C294 C289 1.391 . S
C294 N293 1.388 . S
Co295 O297 2.143 . S
Co295 O303 2.074 . S
Co295 O306 2.093 . S
Co295 O319 2.097 . S
Co295 N336 2.151 . S
Co295 N344 2.214 . S
Co296 O297 2.160 . S
Co296 O302 2.058 . S
Co296 O312 2.057 . S
Co296 O327 2.037 . S
Co296 N331 2.145 . S
Co296 N352 2.257 . S
O297 Co295 2.143 . S
O297 Co296 2.160 . S
C298 O299 1.278 . S
C298 O306 1.224 . S
O299 C298 1.278 . S
C300 O301 1.245 . S
C300 O312 1.232 . S
O301 C300 1.245 . S
O302 Co296 2.058 . S
O302 C328 1.269 . S
O303 Co295 2.074 . S
O303 C328 1.257 . S
H304 C329 0.930 . S
H305 C335 0.930 . S
O306 Co295 2.093 . S
O306 C298 1.224 . S
H307 C339 0.929 . S
H308 C341 0.930 . S
H309 C342 0.930 . S
H310 C340 0.929 . S
H311 C343 0.928 . S
O312 Co296 2.057 . S
O312 C300 1.232 . S
H313 C332 0.929 . S
H314 C333 0.929 . S
H315 C345 0.931 . S
H316 C337 0.929 . S
H317 C346 0.930 . S
H318 C338 0.931 . S
O319 Co295 2.097 . S
O319 C347 1.214 . S
H320 C348 0.929 . S
H321 C349 0.929 . S
H322 C350 0.930 . S
H323 C351 0.929 . S
H324 C353 0.930 . S
H325 C330 0.930 . S
H326 C334 0.930 . S
O327 Co296 2.037 . S
O327 C347 1.234 . S
C328 O302 1.269 . S
C328 O303 1.257 . S
C329 H304 0.930 . S
C329 C332 1.388 . S
C329 C334 1.418 . S
C330 H325 0.930 . S
C330 C333 1.404 . S
C330 C334 1.353 . S
N331 Co296 2.145 . S
N331 C332 1.397 . S
N331 C333 1.334 . S
C332 H313 0.929 . S
C332 C329 1.388 . S
C332 N331 1.397 . S
C333 H314 0.929 . S
C333 C330 1.404 . S
C333 N331 1.334 . S
C334 H326 0.930 . S
C334 C329 1.418 . S
C334 C330 1.353 . S
C335 H305 0.930 . S
C335 N336 1.330 . S
C335 C337 1.446 . S
N336 Co295 2.151 . S
N336 C335 1.330 . S
N336 C340 1.418 . S
C337 H316 0.929 . S
C337 C335 1.446 . S
C337 C338 1.332 . S
C338 H318 0.931 . S
C338 C337 1.332 . S
C338 C339 1.267 . S
C339 H307 0.929 . S
C339 C338 1.267 . S
C339 C340 1.251 . S
C340 H310 0.929 . S
C340 N336 1.418 . S
C340 C339 1.251 . S
C341 H308 0.930 . S
C341 C343 1.406 . S
C341 C346 1.261 . S
C342 H309 0.930 . S
C342 N344 1.325 . S
C342 C345 1.357 . S
C343 H311 0.928 . S
C343 C341 1.406 . S
C343 N344 1.261 . S
N344 Co295 2.214 . S
N344 C342 1.325 . S
N344 C343 1.261 . S
C345 H315 0.931 . S
C345 C342 1.357 . S
C345 C346 1.312 . S
C346 H317 0.930 . S
C346 C341 1.261 . S
C346 C345 1.312 . S
C347 O319 1.214 . S
C347 O327 1.234 . S
C348 H320 0.929 . S
C348 C351 1.391 . S
C348 C353 1.391 . S
C349 H321 0.929 . S
C349 C350 1.390 . S
C349 N352 1.391 . S
C350 H322 0.930 . S
C350 C349 1.390 . S
C350 C351 1.392 . S
C351 H323 0.929 . S
C351 C348 1.391 . S
C351 C350 1.392 . S
N352 Co296 2.257 . S
N352 C349 1.391 . S
N352 C353 1.388 . S
C353 H324 0.930 . S
C353 C348 1.391 . S
C353 N352 1.388 . S
Co354 O356 2.143 . S
Co354 O362 2.074 . S
Co354 O365 2.093 . S
Co354 O378 2.097 . S
Co354 N395 2.151 . S
Co354 N403 2.214 . S
Co355 O356 2.160 . S
Co355 O361 2.058 . S
Co355 O371 2.057 . S
Co355 O386 2.037 . S
Co355 N390 2.145 . S
Co355 N411 2.257 . S
O356 Co354 2.143 . S
O356 Co355 2.160 . S
C357 O358 1.278 . S
C357 O365 1.224 . S
O358 C357 1.278 . S
C359 O360 1.245 . S
C359 O371 1.232 . S
O360 C359 1.245 . S
O361 Co355 2.058 . S
O361 C387 1.269 . S
O362 Co354 2.074 . S
O362 C387 1.257 . S
H363 C388 0.930 . S
H364 C394 0.930 . S
O365 Co354 2.093 . S
O365 C357 1.224 . S
H366 C398 0.929 . S
H367 C400 0.930 . S
H368 C401 0.930 . S
H369 C399 0.929 . S
H370 C402 0.928 . S
O371 Co355 2.057 . S
O371 C359 1.232 . S
H372 C391 0.929 . S
H373 C392 0.929 . S
H374 C404 0.931 . S
H375 C396 0.929 . S
H376 C405 0.930 . S
H377 C397 0.931 . S
O378 Co354 2.097 . S
O378 C406 1.214 . S
H379 C407 0.929 . S
H380 C408 0.929 . S
H381 C409 0.930 . S
H382 C410 0.929 . S
H383 C412 0.930 . S
H384 C389 0.930 . S
H385 C393 0.930 . S
O386 Co355 2.037 . S
O386 C406 1.234 . S
C387 O361 1.269 . S
C387 O362 1.257 . S
C388 H363 0.930 . S
C388 C391 1.388 . S
C388 C393 1.418 . S
C389 H384 0.930 . S
C389 C392 1.404 . S
C389 C393 1.353 . S
N390 Co355 2.145 . S
N390 C391 1.397 . S
N390 C392 1.334 . S
C391 H372 0.929 . S
C391 C388 1.388 . S
C391 N390 1.397 . S
C392 H373 0.929 . S
C392 C389 1.404 . S
C392 N390 1.334 . S
C393 H385 0.930 . S
C393 C388 1.418 . S
C393 C389 1.353 . S
C394 H364 0.930 . S
C394 N395 1.330 . S
C394 C396 1.446 . S
N395 Co354 2.151 . S
N395 C394 1.330 . S
N395 C399 1.418 . S
C396 H375 0.929 . S
C396 C394 1.446 . S
C396 C397 1.332 . S
C397 H377 0.931 . S
C397 C396 1.332 . S
C397 C398 1.267 . S
C398 H366 0.929 . S
C398 C397 1.267 . S
C398 C399 1.251 . S
C399 H369 0.929 . S
C399 N395 1.418 . S
C399 C398 1.251 . S
C400 H367 0.930 . S
C400 C402 1.406 . S
C400 C405 1.261 . S
C401 H368 0.930 . S
C401 N403 1.325 . S
C401 C404 1.357 . S
C402 H370 0.928 . S
C402 C400 1.406 . S
C402 N403 1.261 . S
N403 Co354 2.214 . S
N403 C401 1.325 . S
N403 C402 1.261 . S
C404 H374 0.931 . S
C404 C401 1.357 . S
C404 C405 1.312 . S
C405 H376 0.930 . S
C405 C400 1.261 . S
C405 C404 1.312 . S
C406 O378 1.214 . S
C406 O386 1.234 . S
C407 H379 0.929 . S
C407 C410 1.391 . S
C407 C412 1.391 . S
C408 H380 0.929 . S
C408 C409 1.390 . S
C408 N411 1.391 . S
C409 H381 0.930 . S
C409 C408 1.390 . S
C409 C410 1.392 . S
C410 H382 0.929 . S
C410 C407 1.391 . S
C410 C409 1.392 . S
N411 Co355 2.257 . S
N411 C408 1.391 . S
N411 C412 1.388 . S
C412 H383 0.930 . S
C412 C407 1.391 . S
C412 N411 1.388 . S
Co413 O415 2.143 . S
Co413 O421 2.074 . S
Co413 O424 2.093 . S
Co413 O437 2.097 . S
Co413 N454 2.151 . S
Co413 N462 2.214 . S
Co414 O415 2.160 . S
Co414 O420 2.058 . S
Co414 O430 2.057 . S
Co414 O445 2.037 . S
Co414 N449 2.145 . S
Co414 N470 2.257 . S
O415 Co413 2.143 . S
O415 Co414 2.160 . S
C416 O417 1.278 . S
C416 O424 1.224 . S
O417 C416 1.278 . S
C418 O419 1.245 . S
C418 O430 1.232 . S
O419 C418 1.245 . S
O420 Co414 2.058 . S
O420 C446 1.269 . S
O421 Co413 2.074 . S
O421 C446 1.257 . S
H422 C447 0.930 . S
H423 C453 0.930 . S
O424 Co413 2.093 . S
O424 C416 1.224 . S
H425 C457 0.929 . S
H426 C459 0.930 . S
H427 C460 0.930 . S
H428 C458 0.929 . S
H429 C461 0.928 . S
O430 Co414 2.057 . S
O430 C418 1.232 . S
H431 C450 0.929 . S
H432 C451 0.929 . S
H433 C463 0.931 . S
H434 C455 0.929 . S
H435 C464 0.930 . S
H436 C456 0.931 . S
O437 Co413 2.097 . S
O437 C465 1.214 . S
H438 C466 0.929 . S
H439 C467 0.929 . S
H440 C468 0.930 . S
H441 C469 0.929 . S
H442 C471 0.930 . S
H443 C448 0.930 . S
H444 C452 0.930 . S
O445 Co414 2.037 . S
O445 C465 1.234 . S
C446 O420 1.269 . S
C446 O421 1.257 . S
C447 H422 0.930 . S
C447 C450 1.388 . S
C447 C452 1.418 . S
C448 H443 0.930 . S
C448 C451 1.404 . S
C448 C452 1.353 . S
N449 Co414 2.145 . S
N449 C450 1.397 . S
N449 C451 1.334 . S
C450 H431 0.929 . S
C450 C447 1.388 . S
C450 N449 1.397 . S
C451 H432 0.929 . S
C451 C448 1.404 . S
C451 N449 1.334 . S
C452 H444 0.930 . S
C452 C447 1.418 . S
C452 C448 1.353 . S
C453 H423 0.930 . S
C453 N454 1.330 . S
C453 C455 1.446 . S
N454 Co413 2.151 . S
N454 C453 1.330 . S
N454 C458 1.418 . S
C455 H434 0.929 . S
C455 C453 1.446 . S
C455 C456 1.332 . S
C456 H436 0.931 . S
C456 C455 1.332 . S
C456 C457 1.267 . S
C457 H425 0.929 . S
C457 C456 1.267 . S
C457 C458 1.251 . S
C458 H428 0.929 . S
C458 N454 1.418 . S
C458 C457 1.251 . S
C459 H426 0.930 . S
C459 C461 1.406 . S
C459 C464 1.261 . S
C460 H427 0.930 . S
C460 N462 1.325 . S
C460 C463 1.357 . S
C461 H429 0.928 . S
C461 C459 1.406 . S
C461 N462 1.261 . S
N462 Co413 2.214 . S
N462 C460 1.325 . S
N462 C461 1.261 . S
C463 H433 0.931 . S
C463 C460 1.357 . S
C463 C464 1.312 . S
C464 H435 0.930 . S
C464 C459 1.261 . S
C464 C463 1.312 . S
C465 O437 1.214 . S
C465 O445 1.234 . S
C466 H438 0.929 . S
C466 C469 1.391 . S
C466 C471 1.391 . S
C467 H439 0.929 . S
C467 C468 1.390 . S
C467 N470 1.391 . S
C468 H440 0.930 . S
C468 C467 1.390 . S
C468 C469 1.392 . S
C469 H441 0.929 . S
C469 C466 1.391 . S
C469 C468 1.392 . S
N470 Co414 2.257 . S
N470 C467 1.391 . S
N470 C471 1.388 . S
C471 H442 0.930 . S
C471 C466 1.391 . S
C471 N470 1.388 . S
Co472 O474 2.143 . S
Co472 O480 2.074 . S
Co472 O483 2.093 . S
Co472 O496 2.097 . S
Co472 N513 2.151 . S
Co472 N521 2.214 . S
Co473 O474 2.160 . S
Co473 O479 2.058 . S
Co473 O489 2.057 . S
Co473 O504 2.037 . S
Co473 N508 2.145 . S
Co473 N529 2.257 . S
O474 Co472 2.143 . S
O474 Co473 2.160 . S
C475 O476 1.278 . S
C475 O483 1.224 . S
O476 C475 1.278 . S
C477 O478 1.245 . S
C477 O489 1.232 . S
O478 C477 1.245 . S
O479 Co473 2.058 . S
O479 C505 1.269 . S
O480 Co472 2.074 . S
O480 C505 1.257 . S
H481 C506 0.930 . S
H482 C512 0.930 . S
O483 Co472 2.093 . S
O483 C475 1.224 . S
H484 C516 0.929 . S
H485 C518 0.930 . S
H486 C519 0.930 . S
H487 C517 0.929 . S
H488 C520 0.928 . S
O489 Co473 2.057 . S
O489 C477 1.232 . S
H490 C509 0.929 . S
H491 C510 0.929 . S
H492 C522 0.931 . S
H493 C514 0.929 . S
H494 C523 0.930 1_554 S
H495 C515 0.931 . S
O496 Co472 2.097 . S
O496 C524 1.214 . S
H497 C525 0.929 . S
H498 C526 0.929 . S
H499 C527 0.930 . S
H500 C528 0.929 . S
H501 C530 0.930 . S
H502 C507 0.930 . S
H503 C511 0.930 . S
O504 Co473 2.037 . S
O504 C524 1.234 . S
C505 O479 1.269 . S
C505 O480 1.257 . S
C506 H481 0.930 . S
C506 C509 1.388 . S
C506 C511 1.418 . S
C507 H502 0.930 . S
C507 C510 1.404 . S
C507 C511 1.353 . S
N508 Co473 2.145 . S
N508 C509 1.397 . S
N508 C510 1.334 . S
C509 H490 0.929 . S
C509 C506 1.388 . S
C509 N508 1.397 . S
C510 H491 0.929 . S
C510 C507 1.404 . S
C510 N508 1.334 . S
C511 H503 0.930 . S
C511 C506 1.418 . S
C511 C507 1.353 . S
C512 H482 0.930 . S
C512 N513 1.330 . S
C512 C514 1.446 . S
N513 Co472 2.151 . S
N513 C512 1.330 . S
N513 C517 1.418 . S
C514 H493 0.929 . S
C514 C512 1.446 . S
C514 C515 1.332 . S
C515 H495 0.931 . S
C515 C514 1.332 . S
C515 C516 1.267 . S
C516 H484 0.929 . S
C516 C515 1.267 . S
C516 C517 1.251 . S
C517 H487 0.929 . S
C517 N513 1.418 . S
C517 C516 1.251 . S
C518 H485 0.930 . S
C518 C520 1.406 . S
C518 C523 1.261 . S
C519 H486 0.930 . S
C519 N521 1.325 . S
C519 C522 1.357 . S
C520 H488 0.928 . S
C520 C518 1.406 . S
C520 N521 1.261 . S
N521 Co472 2.214 . S
N521 C519 1.325 . S
N521 C520 1.261 . S
C522 H492 0.931 . S
C522 C519 1.357 . S
C522 C523 1.312 . S
C523 H494 0.930 1_556 S
C523 C518 1.261 . S
C523 C522 1.312 . S
C524 O496 1.214 . S
C524 O504 1.234 . S
C525 H497 0.929 . S
C525 C528 1.391 . S
C525 C530 1.391 . S
C526 H498 0.929 . S
C526 C527 1.390 . S
C526 N529 1.391 . S
C527 H499 0.930 . S
C527 C526 1.390 . S
C527 C528 1.392 . S
C528 H500 0.929 . S
C528 C525 1.391 . S
C528 C527 1.392 . S
N529 Co473 2.257 . S
N529 C526 1.391 . S
N529 C530 1.388 . S
C530 H501 0.930 . S
C530 C525 1.391 . S
C530 N529 1.388 . S
Co531 O533 2.143 . S
Co531 O539 2.074 . S
Co531 O542 2.093 . S
Co531 O555 2.097 . S
Co531 N572 2.151 . S
Co531 N580 2.214 . S
Co532 O533 2.160 . S
Co532 O538 2.058 . S
Co532 O548 2.057 . S
Co532 O563 2.037 . S
Co532 N567 2.145 . S
Co532 N588 2.257 . S
O533 Co531 2.143 . S
O533 Co532 2.160 . S
C534 O535 1.278 . S
C534 O542 1.224 . S
O535 C534 1.278 . S
C536 O537 1.245 . S
C536 O548 1.232 . S
O537 C536 1.245 . S
O538 Co532 2.058 . S
O538 C564 1.269 . S
O539 Co531 2.074 . S
O539 C564 1.257 . S
H540 C565 0.930 . S
H541 C571 0.930 . S
O542 Co531 2.093 . S
O542 C534 1.224 . S
H543 C575 0.929 . S
H544 C577 0.930 . S
H545 C578 0.930 . S
H546 C576 0.929 . S
H547 C579 0.928 . S
O548 Co532 2.057 . S
O548 C536 1.232 . S
H549 C568 0.929 . S
H550 C569 0.929 . S
H551 C581 0.931 . S
H552 C573 0.929 . S
H553 C582 0.930 . S
H554 C574 0.931 . S
O555 Co531 2.097 . S
O555 C583 1.214 . S
H556 C584 0.929 . S
H557 C585 0.929 . S
H558 C586 0.930 . S
H559 C587 0.929 . S
H560 C589 0.930 . S
H561 C566 0.930 . S
H562 C570 0.930 . S
O563 Co532 2.037 . S
O563 C583 1.234 . S
C564 O538 1.269 . S
C564 O539 1.257 . S
C565 H540 0.930 . S
C565 C568 1.388 . S
C565 C570 1.418 . S
C566 H561 0.930 . S
C566 C569 1.404 . S
C566 C570 1.353 . S
N567 Co532 2.145 . S
N567 C568 1.397 . S
N567 C569 1.334 . S
C568 H549 0.929 . S
C568 C565 1.388 . S
C568 N567 1.397 . S
C569 H550 0.929 . S
C569 C566 1.404 . S
C569 N567 1.334 . S
C570 H562 0.930 . S
C570 C565 1.418 . S
C570 C566 1.353 . S
C571 H541 0.930 . S
C571 N572 1.330 . S
C571 C573 1.446 . S
N572 Co531 2.151 . S
N572 C571 1.330 . S
N572 C576 1.418 . S
C573 H552 0.929 . S
C573 C571 1.446 . S
C573 C574 1.332 . S
C574 H554 0.931 . S
C574 C573 1.332 . S
C574 C575 1.267 . S
C575 H543 0.929 . S
C575 C574 1.267 . S
C575 C576 1.251 . S
C576 H546 0.929 . S
C576 N572 1.418 . S
C576 C575 1.251 . S
C577 H544 0.930 . S
C577 C579 1.406 . S
C577 C582 1.261 . S
C578 H545 0.930 . S
C578 N580 1.325 . S
C578 C581 1.357 . S
C579 H547 0.928 . S
C579 C577 1.406 . S
C579 N580 1.261 . S
N580 Co531 2.214 . S
N580 C578 1.325 . S
N580 C579 1.261 . S
C581 H551 0.931 . S
C581 C578 1.357 . S
C581 C582 1.312 . S
C582 H553 0.930 . S
C582 C577 1.261 . S
C582 C581 1.312 . S
C583 O555 1.214 . S
C583 O563 1.234 . S
C584 H556 0.929 . S
C584 C587 1.391 . S
C584 C589 1.391 . S
C585 H557 0.929 . S
C585 C586 1.390 . S
C585 N588 1.391 . S
C586 H558 0.930 . S
C586 C585 1.390 . S
C586 C587 1.392 . S
C587 H559 0.929 . S
C587 C584 1.391 . S
C587 C586 1.392 . S
N588 Co532 2.257 . S
N588 C585 1.391 . S
N588 C589 1.388 . S
C589 H560 0.930 . S
C589 C584 1.391 . S
C589 N588 1.388 . S
Co590 O592 2.143 . S
Co590 O598 2.074 . S
Co590 O601 2.093 . S
Co590 O614 2.097 . S
Co590 N631 2.151 . S
Co590 N639 2.214 . S
Co591 O592 2.160 . S
Co591 O597 2.058 . S
Co591 O607 2.057 . S
Co591 O622 2.037 . S
Co591 N626 2.145 . S
Co591 N647 2.257 . S
O592 Co590 2.143 . S
O592 Co591 2.160 . S
C593 O594 1.278 . S
C593 O601 1.224 . S
O594 C593 1.278 . S
C595 O596 1.245 . S
C595 O607 1.232 . S
O596 C595 1.245 . S
O597 Co591 2.058 . S
O597 C623 1.269 . S
O598 Co590 2.074 . S
O598 C623 1.257 . S
H599 C624 0.930 . S
H600 C630 0.930 . S
O601 Co590 2.093 . S
O601 C593 1.224 . S
H602 C634 0.929 . S
H603 C636 0.930 . S
H604 C637 0.930 . S
H605 C635 0.929 . S
H606 C638 0.928 . S
O607 Co591 2.057 . S
O607 C595 1.232 . S
H608 C627 0.929 . S
H609 C628 0.929 . S
H610 C640 0.931 . S
H611 C632 0.929 . S
H612 C641 0.930 . S
H613 C633 0.931 . S
O614 Co590 2.097 . S
O614 C642 1.214 . S
H615 C643 0.929 . S
H616 C644 0.929 . S
H617 C645 0.930 . S
H618 C646 0.929 . S
H619 C648 0.930 . S
H620 C625 0.930 . S
H621 C629 0.930 . S
O622 Co591 2.037 . S
O622 C642 1.234 . S
C623 O597 1.269 . S
C623 O598 1.257 . S
C624 H599 0.930 . S
C624 C627 1.388 . S
C624 C629 1.418 . S
C625 H620 0.930 . S
C625 C628 1.404 . S
C625 C629 1.353 . S
N626 Co591 2.145 . S
N626 C627 1.397 . S
N626 C628 1.334 . S
C627 H608 0.929 . S
C627 C624 1.388 . S
C627 N626 1.397 . S
C628 H609 0.929 . S
C628 C625 1.404 . S
C628 N626 1.334 . S
C629 H621 0.930 . S
C629 C624 1.418 . S
C629 C625 1.353 . S
C630 H600 0.930 . S
C630 N631 1.330 . S
C630 C632 1.446 . S
N631 Co590 2.151 . S
N631 C630 1.330 . S
N631 C635 1.418 . S
C632 H611 0.929 . S
C632 C630 1.446 . S
C632 C633 1.332 . S
C633 H613 0.931 . S
C633 C632 1.332 . S
C633 C634 1.267 . S
C634 H602 0.929 . S
C634 C633 1.267 . S
C634 C635 1.251 . S
C635 H605 0.929 . S
C635 N631 1.418 . S
C635 C634 1.251 . S
C636 H603 0.930 . S
C636 C638 1.406 . S
C636 C641 1.261 . S
C637 H604 0.930 . S
C637 N639 1.325 . S
C637 C640 1.357 . S
C638 H606 0.928 . S
C638 C636 1.406 . S
C638 N639 1.261 . S
N639 Co590 2.214 . S
N639 C637 1.325 . S
N639 C638 1.261 . S
C640 H610 0.931 . S
C640 C637 1.357 . S
C640 C641 1.312 . S
C641 H612 0.930 . S
C641 C636 1.261 . S
C641 C640 1.312 . S
C642 O614 1.214 . S
C642 O622 1.234 . S
C643 H615 0.929 . S
C643 C646 1.391 . S
C643 C648 1.391 . S
C644 H616 0.929 . S
C644 C645 1.390 . S
C644 N647 1.391 . S
C645 H617 0.930 . S
C645 C644 1.390 . S
C645 C646 1.392 . S
C646 H618 0.929 . S
C646 C643 1.391 . S
C646 C645 1.392 . S
N647 Co591 2.257 . S
N647 C644 1.391 . S
N647 C648 1.388 . S
C648 H619 0.930 . S
C648 C643 1.391 . S
C648 N647 1.388 . S
Co649 O651 2.143 . S
Co649 O657 2.074 . S
Co649 O660 2.093 . S
Co649 O673 2.097 . S
Co649 N690 2.151 . S
Co649 N698 2.214 . S
Co650 O651 2.160 . S
Co650 O656 2.058 . S
Co650 O666 2.057 . S
Co650 O681 2.037 . S
Co650 N685 2.145 . S
Co650 N706 2.257 . S
O651 Co649 2.143 . S
O651 Co650 2.160 . S
C652 O653 1.278 . S
C652 O660 1.224 . S
O653 C652 1.278 . S
C654 O655 1.245 . S
C654 O666 1.232 . S
O655 C654 1.245 . S
O656 Co650 2.058 . S
O656 C682 1.269 . S
O657 Co649 2.074 . S
O657 C682 1.257 . S
H658 C683 0.930 . S
H659 C689 0.930 . S
O660 Co649 2.093 . S
O660 C652 1.224 . S
H661 C693 0.929 . S
H662 C695 0.930 . S
H663 C696 0.930 . S
H664 C694 0.929 . S
H665 C697 0.928 . S
O666 Co650 2.057 . S
O666 C654 1.232 . S
H667 C686 0.929 . S
H668 C687 0.929 . S
H669 C699 0.931 . S
H670 C691 0.929 . S
H671 C700 0.930 . S
H672 C692 0.931 . S
O673 Co649 2.097 . S
O673 C701 1.214 . S
H674 C702 0.929 . S
H675 C703 0.929 . S
H676 C704 0.930 . S
H677 C705 0.929 . S
H678 C707 0.930 . S
H679 C684 0.930 . S
H680 C688 0.930 . S
O681 Co650 2.037 . S
O681 C701 1.234 . S
C682 O656 1.269 . S
C682 O657 1.257 . S
C683 H658 0.930 . S
C683 C686 1.388 . S
C683 C688 1.418 . S
C684 H679 0.930 . S
C684 C687 1.404 . S
C684 C688 1.353 . S
N685 Co650 2.145 . S
N685 C686 1.397 . S
N685 C687 1.334 . S
C686 H667 0.929 . S
C686 C683 1.388 . S
C686 N685 1.397 . S
C687 H668 0.929 . S
C687 C684 1.404 . S
C687 N685 1.334 . S
C688 H680 0.930 . S
C688 C683 1.418 . S
C688 C684 1.353 . S
C689 H659 0.930 . S
C689 N690 1.330 . S
C689 C691 1.446 . S
N690 Co649 2.151 . S
N690 C689 1.330 . S
N690 C694 1.418 . S
C691 H670 0.929 . S
C691 C689 1.446 . S
C691 C692 1.332 . S
C692 H672 0.931 . S
C692 C691 1.332 . S
C692 C693 1.267 . S
C693 H661 0.929 . S
C693 C692 1.267 . S
C693 C694 1.251 . S
C694 H664 0.929 . S
C694 N690 1.418 . S
C694 C693 1.251 . S
C695 H662 0.930 . S
C695 C697 1.406 . S
C695 C700 1.261 . S
C696 H663 0.930 . S
C696 N698 1.325 . S
C696 C699 1.357 . S
C697 H665 0.928 . S
C697 C695 1.406 . S
C697 N698 1.261 . S
N698 Co649 2.214 . S
N698 C696 1.325 . S
N698 C697 1.261 . S
C699 H669 0.931 . S
C699 C696 1.357 . S
C699 C700 1.312 . S
C700 H671 0.930 . S
C700 C695 1.261 . S
C700 C699 1.312 . S
C701 O673 1.214 . S
C701 O681 1.234 . S
C702 H674 0.929 . S
C702 C705 1.391 . S
C702 C707 1.391 . S
C703 H675 0.929 . S
C703 C704 1.390 . S
C703 N706 1.391 . S
C704 H676 0.930 . S
C704 C703 1.390 . S
C704 C705 1.392 . S
C705 H677 0.929 . S
C705 C702 1.391 . S
C705 C704 1.392 . S
N706 Co650 2.257 . S
N706 C703 1.391 . S
N706 C707 1.388 . S
C707 H678 0.930 . S
C707 C702 1.391 . S
C707 N706 1.388 . S
Co708 O710 2.143 . S
Co708 O716 2.074 . S
Co708 O719 2.093 . S
Co708 O732 2.097 . S
Co708 N749 2.151 . S
Co708 N757 2.214 . S
Co709 O710 2.160 . S
Co709 O715 2.058 . S
Co709 O725 2.057 . S
Co709 O740 2.037 . S
Co709 N744 2.145 . S
Co709 N765 2.257 . S
O710 Co708 2.143 . S
O710 Co709 2.160 . S
C711 O712 1.278 . S
C711 O719 1.224 . S
O712 C711 1.278 . S
C713 O714 1.245 . S
C713 O725 1.232 . S
O714 C713 1.245 . S
O715 Co709 2.058 . S
O715 C741 1.269 . S
O716 Co708 2.074 . S
O716 C741 1.257 . S
H717 C742 0.930 . S
H718 C748 0.930 . S
O719 Co708 2.093 . S
O719 C711 1.224 . S
H720 C752 0.929 . S
H721 C754 0.930 . S
H722 C755 0.930 . S
H723 C753 0.929 . S
H724 C756 0.928 . S
O725 Co709 2.057 . S
O725 C713 1.232 . S
H726 C745 0.929 . S
H727 C746 0.929 . S
H728 C758 0.931 . S
H729 C750 0.929 . S
H730 C759 0.930 . S
H731 C751 0.931 . S
O732 Co708 2.097 . S
O732 C760 1.214 . S
H733 C761 0.929 . S
H734 C762 0.929 . S
H735 C763 0.930 . S
H736 C764 0.929 . S
H737 C766 0.930 . S
H738 C743 0.930 . S
H739 C747 0.930 . S
O740 Co709 2.037 . S
O740 C760 1.234 . S
C741 O715 1.269 . S
C741 O716 1.257 . S
C742 H717 0.930 . S
C742 C745 1.388 . S
C742 C747 1.418 . S
C743 H738 0.930 . S
C743 C746 1.404 . S
C743 C747 1.353 . S
N744 Co709 2.145 . S
N744 C745 1.397 . S
N744 C746 1.334 . S
C745 H726 0.929 . S
C745 C742 1.388 . S
C745 N744 1.397 . S
C746 H727 0.929 . S
C746 C743 1.404 . S
C746 N744 1.334 . S
C747 H739 0.930 . S
C747 C742 1.418 . S
C747 C743 1.353 . S
C748 H718 0.930 . S
C748 N749 1.330 . S
C748 C750 1.446 . S
N749 Co708 2.151 . S
N749 C748 1.330 . S
N749 C753 1.418 . S
C750 H729 0.929 . S
C750 C748 1.446 . S
C750 C751 1.332 . S
C751 H731 0.931 . S
C751 C750 1.332 . S
C751 C752 1.267 . S
C752 H720 0.929 . S
C752 C751 1.267 . S
C752 C753 1.251 . S
C753 H723 0.929 . S
C753 N749 1.418 . S
C753 C752 1.251 . S
C754 H721 0.930 . S
C754 C756 1.406 . S
C754 C759 1.261 . S
C755 H722 0.930 . S
C755 N757 1.325 . S
C755 C758 1.357 . S
C756 H724 0.928 . S
C756 C754 1.406 . S
C756 N757 1.261 . S
N757 Co708 2.214 . S
N757 C755 1.325 . S
N757 C756 1.261 . S
C758 H728 0.931 . S
C758 C755 1.357 . S
C758 C759 1.312 . S
C759 H730 0.930 . S
C759 C754 1.261 . S
C759 C758 1.312 . S
C760 O732 1.214 . S
C760 O740 1.234 . S
C761 H733 0.929 . S
C761 C764 1.391 . S
C761 C766 1.391 . S
C762 H734 0.929 . S
C762 C763 1.390 . S
C762 N765 1.391 . S
C763 H735 0.930 . S
C763 C762 1.390 . S
C763 C764 1.392 . S
C764 H736 0.929 . S
C764 C761 1.391 . S
C764 C763 1.392 . S
N765 Co709 2.257 . S
N765 C762 1.391 . S
N765 C766 1.388 . S
C766 H737 0.930 . S
C766 C761 1.391 . S
C766 N765 1.388 . S
Co767 O769 2.143 . S
Co767 O775 2.074 . S
Co767 O778 2.093 . S
Co767 O791 2.097 . S
Co767 N808 2.151 . S
Co767 N816 2.214 . S
Co768 O769 2.160 . S
Co768 O774 2.058 . S
Co768 O784 2.057 . S
Co768 O799 2.037 . S
Co768 N803 2.145 . S
Co768 N824 2.257 . S
O769 Co767 2.143 . S
O769 Co768 2.160 . S
C770 O771 1.278 . S
C770 O778 1.224 . S
O771 C770 1.278 . S
C772 O773 1.245 . S
C772 O784 1.232 . S
O773 C772 1.245 . S
O774 Co768 2.058 . S
O774 C800 1.269 . S
O775 Co767 2.074 . S
O775 C800 1.257 . S
H776 C801 0.930 . S
H777 C807 0.930 . S
O778 Co767 2.093 . S
O778 C770 1.224 . S
H779 C811 0.929 . S
H780 C813 0.930 . S
H781 C814 0.930 . S
H782 C812 0.929 . S
H783 C815 0.928 . S
O784 Co768 2.057 . S
O784 C772 1.232 . S
H785 C804 0.929 . S
H786 C805 0.929 . S
H787 C817 0.931 . S
H788 C809 0.929 . S
H789 C818 0.930 . S
H790 C810 0.931 . S
O791 Co767 2.097 . S
O791 C819 1.214 . S
H792 C820 0.929 . S
H793 C821 0.929 . S
H794 C822 0.930 . S
H795 C823 0.929 . S
H796 C825 0.930 . S
H797 C802 0.930 . S
H798 C806 0.930 . S
O799 Co768 2.037 . S
O799 C819 1.234 . S
C800 O774 1.269 . S
C800 O775 1.257 . S
C801 H776 0.930 . S
C801 C804 1.388 . S
C801 C806 1.418 . S
C802 H797 0.930 . S
C802 C805 1.404 . S
C802 C806 1.353 . S
N803 Co768 2.145 . S
N803 C804 1.397 . S
N803 C805 1.334 . S
C804 H785 0.929 . S
C804 C801 1.388 . S
C804 N803 1.397 . S
C805 H786 0.929 . S
C805 C802 1.404 . S
C805 N803 1.334 . S
C806 H798 0.930 . S
C806 C801 1.418 . S
C806 C802 1.353 . S
C807 H777 0.930 . S
C807 N808 1.330 . S
C807 C809 1.446 . S
N808 Co767 2.151 . S
N808 C807 1.330 . S
N808 C812 1.418 . S
C809 H788 0.929 . S
C809 C807 1.446 . S
C809 C810 1.332 . S
C810 H790 0.931 . S
C810 C809 1.332 . S
C810 C811 1.267 . S
C811 H779 0.929 . S
C811 C810 1.267 . S
C811 C812 1.251 . S
C812 H782 0.929 . S
C812 N808 1.418 . S
C812 C811 1.251 . S
C813 H780 0.930 . S
C813 C815 1.406 . S
C813 C818 1.261 . S
C814 H781 0.930 . S
C814 N816 1.325 . S
C814 C817 1.357 . S
C815 H783 0.928 . S
C815 C813 1.406 . S
C815 N816 1.261 . S
N816 Co767 2.214 . S
N816 C814 1.325 . S
N816 C815 1.261 . S
C817 H787 0.931 . S
C817 C814 1.357 . S
C817 C818 1.312 . S
C818 H789 0.930 . S
C818 C813 1.261 . S
C818 C817 1.312 . S
C819 O791 1.214 . S
C819 O799 1.234 . S
C820 H792 0.929 . S
C820 C823 1.391 . S
C820 C825 1.391 . S
C821 H793 0.929 . S
C821 C822 1.390 . S
C821 N824 1.391 . S
C822 H794 0.930 . S
C822 C821 1.390 . S
C822 C823 1.392 . S
C823 H795 0.929 . S
C823 C820 1.391 . S
C823 C822 1.392 . S
N824 Co768 2.257 . S
N824 C821 1.391 . S
N824 C825 1.388 . S
C825 H796 0.930 . S
C825 C820 1.391 . S
C825 N824 1.388 . S
Co826 O828 2.143 . S
Co826 O834 2.074 . S
Co826 O837 2.093 . S
Co826 O850 2.097 . S
Co826 N867 2.151 . S
Co826 N875 2.214 . S
Co827 O828 2.160 . S
Co827 O833 2.058 . S
Co827 O843 2.057 . S
Co827 O858 2.037 . S
Co827 N862 2.145 . S
Co827 N883 2.257 . S
O828 Co826 2.143 . S
O828 Co827 2.160 . S
C829 O830 1.278 . S
C829 O837 1.224 . S
O830 C829 1.278 . S
C831 O832 1.245 . S
C831 O843 1.232 . S
O832 C831 1.245 . S
O833 Co827 2.058 . S
O833 C859 1.269 . S
O834 Co826 2.074 . S
O834 C859 1.257 . S
H835 C860 0.930 . S
H836 C866 0.930 . S
O837 Co826 2.093 . S
O837 C829 1.224 . S
H838 C870 0.929 . S
H839 C872 0.930 . S
H840 C873 0.930 . S
H841 C871 0.929 . S
H842 C874 0.928 . S
O843 Co827 2.057 . S
O843 C831 1.232 . S
H844 C863 0.929 . S
H845 C864 0.929 . S
H846 C876 0.931 . S
H847 C868 0.929 . S
H848 C877 0.930 . S
H849 C869 0.931 . S
O850 Co826 2.097 . S
O850 C878 1.214 . S
H851 C879 0.929 . S
H852 C880 0.929 . S
H853 C881 0.930 . S
H854 C882 0.929 . S
H855 C884 0.930 . S
H856 C861 0.930 . S
H857 C865 0.930 . S
O858 Co827 2.037 . S
O858 C878 1.234 . S
C859 O833 1.269 . S
C859 O834 1.257 . S
C860 H835 0.930 . S
C860 C863 1.388 . S
C860 C865 1.418 . S
C861 H856 0.930 . S
C861 C864 1.404 . S
C861 C865 1.353 . S
N862 Co827 2.145 . S
N862 C863 1.397 . S
N862 C864 1.334 . S
C863 H844 0.929 . S
C863 C860 1.388 . S
C863 N862 1.397 . S
C864 H845 0.929 . S
C864 C861 1.404 . S
C864 N862 1.334 . S
C865 H857 0.930 . S
C865 C860 1.418 . S
C865 C861 1.353 . S
C866 H836 0.930 . S
C866 N867 1.330 . S
C866 C868 1.446 . S
N867 Co826 2.151 . S
N867 C866 1.330 . S
N867 C871 1.418 . S
C868 H847 0.929 . S
C868 C866 1.446 . S
C868 C869 1.332 . S
C869 H849 0.931 . S
C869 C868 1.332 . S
C869 C870 1.267 . S
C870 H838 0.929 . S
C870 C869 1.267 . S
C870 C871 1.251 . S
C871 H841 0.929 . S
C871 N867 1.418 . S
C871 C870 1.251 . S
C872 H839 0.930 . S
C872 C874 1.406 . S
C872 C877 1.261 . S
C873 H840 0.930 . S
C873 N875 1.325 . S
C873 C876 1.357 . S
C874 H842 0.928 . S
C874 C872 1.406 . S
C874 N875 1.261 . S
N875 Co826 2.214 . S
N875 C873 1.325 . S
N875 C874 1.261 . S
C876 H846 0.931 . S
C876 C873 1.357 . S
C876 C877 1.312 . S
C877 H848 0.930 . S
C877 C872 1.261 . S
C877 C876 1.312 . S
C878 O850 1.214 . S
C878 O858 1.234 . S
C879 H851 0.929 . S
C879 C882 1.391 . S
C879 C884 1.391 . S
C880 H852 0.929 . S
C880 C881 1.390 . S
C880 N883 1.391 . S
C881 H853 0.930 . S
C881 C880 1.390 . S
C881 C882 1.392 . S
C882 H854 0.929 . S
C882 C879 1.391 . S
C882 C881 1.392 . S
N883 Co827 2.257 . S
N883 C880 1.391 . S
N883 C884 1.388 . S
C884 H855 0.930 . S
C884 C879 1.391 . S
C884 N883 1.388 . S
Co885 O887 2.143 . S
Co885 O893 2.074 . S
Co885 O896 2.093 . S
Co885 O909 2.097 . S
Co885 N926 2.151 . S
Co885 N934 2.214 . S
Co886 O887 2.160 . S
Co886 O892 2.058 . S
Co886 O902 2.057 . S
Co886 O917 2.037 . S
Co886 N921 2.145 . S
Co886 N942 2.257 . S
O887 Co885 2.143 . S
O887 Co886 2.160 . S
C888 O889 1.278 . S
C888 O896 1.224 . S
O889 C888 1.278 . S
C890 O891 1.245 . S
C890 O902 1.232 . S
O891 C890 1.245 . S
O892 Co886 2.058 . S
O892 C918 1.269 . S
O893 Co885 2.074 . S
O893 C918 1.257 . S
H894 C919 0.930 . S
H895 C925 0.930 . S
O896 Co885 2.093 . S
O896 C888 1.224 . S
H897 C929 0.929 . S
H898 C931 0.930 . S
H899 C932 0.930 . S
H900 C930 0.929 . S
H901 C933 0.928 . S
O902 Co886 2.057 . S
O902 C890 1.232 . S
H903 C922 0.929 . S
H904 C923 0.929 . S
H905 C935 0.931 . S
H906 C927 0.929 . S
H907 C936 0.930 . S
H908 C928 0.931 . S
O909 Co885 2.097 . S
O909 C937 1.214 . S
H910 C938 0.929 . S
H911 C939 0.929 . S
H912 C940 0.930 . S
H913 C941 0.929 . S
H914 C943 0.930 . S
H915 C920 0.930 . S
H916 C924 0.930 . S
O917 Co886 2.037 . S
O917 C937 1.234 . S
C918 O892 1.269 . S
C918 O893 1.257 . S
C919 H894 0.930 . S
C919 C922 1.388 . S
C919 C924 1.418 . S
C920 H915 0.930 . S
C920 C923 1.404 . S
C920 C924 1.353 . S
N921 Co886 2.145 . S
N921 C922 1.397 . S
N921 C923 1.334 . S
C922 H903 0.929 . S
C922 C919 1.388 . S
C922 N921 1.397 . S
C923 H904 0.929 . S
C923 C920 1.404 . S
C923 N921 1.334 . S
C924 H916 0.930 . S
C924 C919 1.418 . S
C924 C920 1.353 . S
C925 H895 0.930 . S
C925 N926 1.330 . S
C925 C927 1.446 . S
N926 Co885 2.151 . S
N926 C925 1.330 . S
N926 C930 1.418 . S
C927 H906 0.929 . S
C927 C925 1.446 . S
C927 C928 1.332 . S
C928 H908 0.931 . S
C928 C927 1.332 . S
C928 C929 1.267 . S
C929 H897 0.929 . S
C929 C928 1.267 . S
C929 C930 1.251 . S
C930 H900 0.929 . S
C930 N926 1.418 . S
C930 C929 1.251 . S
C931 H898 0.930 . S
C931 C933 1.406 . S
C931 C936 1.261 . S
C932 H899 0.930 . S
C932 N934 1.325 . S
C932 C935 1.357 . S
C933 H901 0.928 . S
C933 C931 1.406 . S
C933 N934 1.261 . S
N934 Co885 2.214 . S
N934 C932 1.325 . S
N934 C933 1.261 . S
C935 H905 0.931 . S
C935 C932 1.357 . S
C935 C936 1.312 . S
C936 H907 0.930 . S
C936 C931 1.261 . S
C936 C935 1.312 . S
C937 O909 1.214 . S
C937 O917 1.234 . S
C938 H910 0.929 . S
C938 C941 1.391 . S
C938 C943 1.391 . S
C939 H911 0.929 . S
C939 C940 1.390 . S
C939 N942 1.391 . S
C940 H912 0.930 . S
C940 C939 1.390 . S
C940 C941 1.392 . S
C941 H913 0.929 . S
C941 C938 1.391 . S
C941 C940 1.392 . S
N942 Co886 2.257 . S
N942 C939 1.391 . S
N942 C943 1.388 . S
C943 H914 0.930 . S
C943 C938 1.391 . S
C943 N942 1.388 . S
Co944 O946 2.143 . S
Co944 O952 2.074 . S
Co944 O955 2.093 . S
Co944 O968 2.097 . S
Co944 N985 2.151 . S
Co944 N993 2.214 . S
Co945 O946 2.160 . S
Co945 O951 2.058 . S
Co945 O961 2.057 . S
Co945 O976 2.037 . S
Co945 N980 2.145 . S
Co945 N1001 2.257 . S
O946 Co944 2.143 . S
O946 Co945 2.160 . S
C947 O948 1.278 . S
C947 O955 1.224 . S
O948 C947 1.278 . S
C949 O950 1.245 . S
C949 O961 1.232 . S
O950 C949 1.245 . S
O951 Co945 2.058 . S
O951 C977 1.269 . S
O952 Co944 2.074 . S
O952 C977 1.257 . S
H953 C978 0.930 . S
H954 C984 0.930 . S
O955 Co944 2.093 . S
O955 C947 1.224 . S
H956 C988 0.929 . S
H957 C990 0.930 . S
H958 C991 0.930 . S
H959 C989 0.929 . S
H960 C992 0.928 . S
O961 Co945 2.057 . S
O961 C949 1.232 . S
H962 C981 0.929 . S
H963 C982 0.929 . S
H964 C994 0.931 . S
H965 C986 0.929 . S
H966 C995 0.930 . S
H967 C987 0.931 . S
O968 Co944 2.097 . S
O968 C996 1.214 . S
H969 C997 0.929 . S
H970 C998 0.929 . S
H971 C999 0.930 . S
H972 C1000 0.929 . S
H973 C1002 0.930 . S
H974 C979 0.930 . S
H975 C983 0.930 . S
O976 Co945 2.037 . S
O976 C996 1.234 . S
C977 O951 1.269 . S
C977 O952 1.257 . S
C978 H953 0.930 . S
C978 C981 1.388 . S
C978 C983 1.418 . S
C979 H974 0.930 . S
C979 C982 1.404 . S
C979 C983 1.353 . S
N980 Co945 2.145 . S
N980 C981 1.397 . S
N980 C982 1.334 . S
C981 H962 0.929 . S
C981 C978 1.388 . S
C981 N980 1.397 . S
C982 H963 0.929 . S
C982 C979 1.404 . S
C982 N980 1.334 . S
C983 H975 0.930 . S
C983 C978 1.418 . S
C983 C979 1.353 . S
C984 H954 0.930 . S
C984 N985 1.330 . S
C984 C986 1.446 . S
N985 Co944 2.151 . S
N985 C984 1.330 . S
N985 C989 1.418 . S
C986 H965 0.929 . S
C986 C984 1.446 . S
C986 C987 1.332 . S
C987 H967 0.931 . S
C987 C986 1.332 . S
C987 C988 1.267 . S
C988 H956 0.929 . S
C988 C987 1.267 . S
C988 C989 1.251 . S
C989 H959 0.929 . S
C989 N985 1.418 . S
C989 C988 1.251 . S
C990 H957 0.930 . S
C990 C992 1.406 . S
C990 C995 1.261 . S
C991 H958 0.930 . S
C991 N993 1.325 . S
C991 C994 1.357 . S
C992 H960 0.928 . S
C992 C990 1.406 . S
C992 N993 1.261 . S
N993 Co944 2.214 . S
N993 C991 1.325 . S
N993 C992 1.261 . S
C994 H964 0.931 . S
C994 C991 1.357 . S
C994 C995 1.312 . S
C995 H966 0.930 . S
C995 C990 1.261 . S
C995 C994 1.312 . S
C996 O968 1.214 . S
C996 O976 1.234 . S
C997 H969 0.929 . S
C997 C1000 1.391 . S
C997 C1002 1.391 . S
C998 H970 0.929 . S
C998 C999 1.390 . S
C998 N1001 1.391 . S
C999 H971 0.930 . S
C999 C998 1.390 . S
C999 C1000 1.392 . S
C1000 H972 0.929 . S
C1000 C997 1.391 . S
C1000 C999 1.392 . S
N1001 Co945 2.257 . S
N1001 C998 1.391 . S
N1001 C1002 1.388 . S
C1002 H973 0.930 . S
C1002 C997 1.391 . S
C1002 N1001 1.388 . S
Co1003 O1005 2.143 . S
Co1003 O1011 2.074 . S
Co1003 O1014 2.093 . S
Co1003 O1027 2.097 . S
Co1003 N1044 2.151 . S
Co1003 N1052 2.214 . S
Co1004 O1005 2.160 . S
Co1004 O1010 2.058 . S
Co1004 O1020 2.057 . S
Co1004 O1035 2.037 . S
Co1004 N1039 2.145 . S
Co1004 N1060 2.257 . S
O1005 Co1003 2.143 . S
O1005 Co1004 2.160 . S
C1006 O1007 1.278 . S
C1006 O1014 1.224 . S
O1007 C1006 1.278 . S
C1008 O1009 1.245 . S
C1008 O1020 1.232 . S
O1009 C1008 1.245 . S
O1010 Co1004 2.058 . S
O1010 C1036 1.269 . S
O1011 Co1003 2.074 . S
O1011 C1036 1.257 . S
H1012 C1037 0.930 . S
H1013 C1043 0.930 . S
O1014 Co1003 2.093 . S
O1014 C1006 1.224 . S
H1015 C1047 0.929 . S
H1016 C1049 0.930 . S
H1017 C1050 0.930 . S
H1018 C1048 0.929 . S
H1019 C1051 0.928 . S
O1020 Co1004 2.057 . S
O1020 C1008 1.232 . S
H1021 C1040 0.929 . S
H1022 C1041 0.929 . S
H1023 C1053 0.931 . S
H1024 C1045 0.929 . S
H1025 C1054 0.930 . S
H1026 C1046 0.931 . S
O1027 Co1003 2.097 . S
O1027 C1055 1.214 . S
H1028 C1056 0.929 . S
H1029 C1057 0.929 . S
H1030 C1058 0.930 . S
H1031 C1059 0.929 . S
H1032 C1061 0.930 . S
H1033 C1038 0.930 . S
H1034 C1042 0.930 . S
O1035 Co1004 2.037 . S
O1035 C1055 1.234 . S
C1036 O1010 1.269 . S
C1036 O1011 1.257 . S
C1037 H1012 0.930 . S
C1037 C1040 1.388 . S
C1037 C1042 1.418 . S
C1038 H1033 0.930 . S
C1038 C1041 1.404 . S
C1038 C1042 1.353 . S
N1039 Co1004 2.145 . S
N1039 C1040 1.397 . S
N1039 C1041 1.334 . S
C1040 H1021 0.929 . S
C1040 C1037 1.388 . S
C1040 N1039 1.397 . S
C1041 H1022 0.929 . S
C1041 C1038 1.404 . S
C1041 N1039 1.334 . S
C1042 H1034 0.930 . S
C1042 C1037 1.418 . S
C1042 C1038 1.353 . S
C1043 H1013 0.930 . S
C1043 N1044 1.330 . S
C1043 C1045 1.446 . S
N1044 Co1003 2.151 . S
N1044 C1043 1.330 . S
N1044 C1048 1.418 . S
C1045 H1024 0.929 . S
C1045 C1043 1.446 . S
C1045 C1046 1.332 . S
C1046 H1026 0.931 . S
C1046 C1045 1.332 . S
C1046 C1047 1.267 . S
C1047 H1015 0.929 . S
C1047 C1046 1.267 . S
C1047 C1048 1.251 . S
C1048 H1018 0.929 . S
C1048 N1044 1.418 . S
C1048 C1047 1.251 . S
C1049 H1016 0.930 . S
C1049 C1051 1.406 . S
C1049 C1054 1.261 . S
C1050 H1017 0.930 . S
C1050 N1052 1.325 . S
C1050 C1053 1.357 . S
C1051 H1019 0.928 . S
C1051 C1049 1.406 . S
C1051 N1052 1.261 . S
N1052 Co1003 2.214 . S
N1052 C1050 1.325 . S
N1052 C1051 1.261 . S
C1053 H1023 0.931 . S
C1053 C1050 1.357 . S
C1053 C1054 1.312 . S
C1054 H1025 0.930 . S
C1054 C1049 1.261 . S
C1054 C1053 1.312 . S
C1055 O1027 1.214 . S
C1055 O1035 1.234 . S
C1056 H1028 0.929 . S
C1056 C1059 1.391 . S
C1056 C1061 1.391 . S
C1057 H1029 0.929 . S
C1057 C1058 1.390 . S
C1057 N1060 1.391 . S
C1058 H1030 0.930 . S
C1058 C1057 1.390 . S
C1058 C1059 1.392 . S
C1059 H1031 0.929 . S
C1059 C1056 1.391 . S
C1059 C1058 1.392 . S
N1060 Co1004 2.257 . S
N1060 C1057 1.391 . S
N1060 C1061 1.388 . S
C1061 H1032 0.930 . S
C1061 C1056 1.391 . S
C1061 N1060 1.388 . S
Co1062 O1064 2.143 . S
Co1062 O1070 2.074 . S
Co1062 O1073 2.093 . S
Co1062 O1086 2.097 . S
Co1062 N1103 2.151 . S
Co1062 N1111 2.214 . S
Co1063 O1064 2.160 . S
Co1063 O1069 2.058 . S
Co1063 O1079 2.057 . S
Co1063 O1094 2.037 . S
Co1063 N1098 2.145 . S
Co1063 N1119 2.257 . S
O1064 Co1062 2.143 . S
O1064 Co1063 2.160 . S
C1065 O1066 1.278 . S
C1065 O1073 1.224 . S
O1066 C1065 1.278 . S
C1067 O1068 1.245 . S
C1067 O1079 1.232 . S
O1068 C1067 1.245 . S
O1069 Co1063 2.058 . S
O1069 C1095 1.269 . S
O1070 Co1062 2.074 . S
O1070 C1095 1.257 . S
H1071 C1096 0.930 . S
H1072 C1102 0.930 . S
O1073 Co1062 2.093 . S
O1073 C1065 1.224 . S
H1074 C1106 0.929 . S
H1075 C1108 0.930 . S
H1076 C1109 0.930 . S
H1077 C1107 0.929 . S
H1078 C1110 0.928 . S
O1079 Co1063 2.057 . S
O1079 C1067 1.232 . S
H1080 C1099 0.929 . S
H1081 C1100 0.929 . S
H1082 C1112 0.931 . S
H1083 C1104 0.929 . S
H1084 C1113 0.930 . S
H1085 C1105 0.931 . S
O1086 Co1062 2.097 . S
O1086 C1114 1.214 . S
H1087 C1115 0.929 . S
H1088 C1116 0.929 . S
H1089 C1117 0.930 . S
H1090 C1118 0.929 . S
H1091 C1120 0.930 . S
H1092 C1097 0.930 . S
H1093 C1101 0.930 . S
O1094 Co1063 2.037 . S
O1094 C1114 1.234 . S
C1095 O1069 1.269 . S
C1095 O1070 1.257 . S
C1096 H1071 0.930 . S
C1096 C1099 1.388 . S
C1096 C1101 1.418 . S
C1097 H1092 0.930 . S
C1097 C1100 1.404 . S
C1097 C1101 1.353 . S
N1098 Co1063 2.145 . S
N1098 C1099 1.397 . S
N1098 C1100 1.334 . S
C1099 H1080 0.929 . S
C1099 C1096 1.388 . S
C1099 N1098 1.397 . S
C1100 H1081 0.929 . S
C1100 C1097 1.404 . S
C1100 N1098 1.334 . S
C1101 H1093 0.930 . S
C1101 C1096 1.418 . S
C1101 C1097 1.353 . S
C1102 H1072 0.930 . S
C1102 N1103 1.330 . S
C1102 C1104 1.446 1_554 S
N1103 Co1062 2.151 . S
N1103 C1102 1.330 . S
N1103 C1107 1.418 . S
C1104 H1083 0.929 . S
C1104 C1102 1.446 1_556 S
C1104 C1105 1.332 . S
C1105 H1085 0.931 . S
C1105 C1104 1.332 . S
C1105 C1106 1.267 1_556 S
C1106 H1074 0.929 . S
C1106 C1105 1.267 1_554 S
C1106 C1107 1.251 . S
C1107 H1077 0.929 . S
C1107 N1103 1.418 . S
C1107 C1106 1.251 . S
C1108 H1075 0.930 . S
C1108 C1110 1.406 . S
C1108 C1113 1.261 . S
C1109 H1076 0.930 . S
C1109 N1111 1.325 . S
C1109 C1112 1.357 . S
C1110 H1078 0.928 . S
C1110 C1108 1.406 . S
C1110 N1111 1.261 . S
N1111 Co1062 2.214 . S
N1111 C1109 1.325 . S
N1111 C1110 1.261 . S
C1112 H1082 0.931 . S
C1112 C1109 1.357 . S
C1112 C1113 1.312 . S
C1113 H1084 0.930 . S
C1113 C1108 1.261 . S
C1113 C1112 1.312 . S
C1114 O1086 1.214 . S
C1114 O1094 1.234 . S
C1115 H1087 0.929 . S
C1115 C1118 1.391 . S
C1115 C1120 1.391 . S
C1116 H1088 0.929 . S
C1116 C1117 1.390 . S
C1116 N1119 1.391 . S
C1117 H1089 0.930 . S
C1117 C1116 1.390 . S
C1117 C1118 1.392 . S
C1118 H1090 0.929 . S
C1118 C1115 1.391 . S
C1118 C1117 1.392 . S
N1119 Co1063 2.257 . S
N1119 C1116 1.391 . S
N1119 C1120 1.388 . S
C1120 H1091 0.930 . S
C1120 C1115 1.391 . S
C1120 N1119 1.388 . S
Co1121 O1123 2.143 . S
Co1121 O1129 2.074 . S
Co1121 O1132 2.093 . S
Co1121 O1145 2.097 . S
Co1121 N1162 2.151 . S
Co1121 N1170 2.214 . S
Co1122 O1123 2.160 . S
Co1122 O1128 2.058 . S
Co1122 O1138 2.057 . S
Co1122 O1153 2.037 . S
Co1122 N1157 2.145 . S
Co1122 N1178 2.257 . S
O1123 Co1121 2.143 . S
O1123 Co1122 2.160 . S
C1124 O1125 1.278 . S
C1124 O1132 1.224 . S
O1125 C1124 1.278 . S
C1126 O1127 1.245 . S
C1126 O1138 1.232 . S
O1127 C1126 1.245 . S
O1128 Co1122 2.058 . S
O1128 C1154 1.269 . S
O1129 Co1121 2.074 . S
O1129 C1154 1.257 . S
H1130 C1155 0.930 . S
H1131 C1161 0.930 . S
O1132 Co1121 2.093 . S
O1132 C1124 1.224 . S
H1133 C1165 0.929 . S
H1134 C1167 0.930 . S
H1135 C1168 0.930 . S
H1136 C1166 0.929 . S
H1137 C1169 0.928 . S
O1138 Co1122 2.057 . S
O1138 C1126 1.232 . S
H1139 C1158 0.929 . S
H1140 C1159 0.929 . S
H1141 C1171 0.931 . S
H1142 C1163 0.929 . S
H1143 C1172 0.930 . S
H1144 C1164 0.931 . S
O1145 Co1121 2.097 . S
O1145 C1173 1.214 . S
H1146 C1174 0.929 . S
H1147 C1175 0.929 . S
H1148 C1176 0.930 . S
H1149 C1177 0.929 . S
H1150 C1179 0.930 . S
H1151 C1156 0.930 . S
H1152 C1160 0.930 . S
O1153 Co1122 2.037 . S
O1153 C1173 1.234 . S
C1154 O1128 1.269 . S
C1154 O1129 1.257 . S
C1155 H1130 0.930 . S
C1155 C1158 1.388 . S
C1155 C1160 1.418 . S
C1156 H1151 0.930 . S
C1156 C1159 1.404 . S
C1156 C1160 1.353 . S
N1157 Co1122 2.145 . S
N1157 C1158 1.397 . S
N1157 C1159 1.334 . S
C1158 H1139 0.929 . S
C1158 C1155 1.388 . S
C1158 N1157 1.397 . S
C1159 H1140 0.929 . S
C1159 C1156 1.404 . S
C1159 N1157 1.334 . S
C1160 H1152 0.930 . S
C1160 C1155 1.418 . S
C1160 C1156 1.353 . S
C1161 H1131 0.930 . S
C1161 N1162 1.330 . S
C1161 C1163 1.446 1_554 S
N1162 Co1121 2.151 . S
N1162 C1161 1.330 . S
N1162 C1166 1.418 . S
C1163 H1142 0.929 . S
C1163 C1161 1.446 1_556 S
C1163 C1164 1.332 . S
C1164 H1144 0.931 . S
C1164 C1163 1.332 . S
C1164 C1165 1.267 1_556 S
C1165 H1133 0.929 . S
C1165 C1164 1.267 1_554 S
C1165 C1166 1.251 . S
C1166 H1136 0.929 . S
C1166 N1162 1.418 . S
C1166 C1165 1.251 . S
C1167 H1134 0.930 . S
C1167 C1169 1.406 . S
C1167 C1172 1.261 . S
C1168 H1135 0.930 . S
C1168 N1170 1.325 . S
C1168 C1171 1.357 . S
C1169 H1137 0.928 . S
C1169 C1167 1.406 . S
C1169 N1170 1.261 . S
N1170 Co1121 2.214 . S
N1170 C1168 1.325 . S
N1170 C1169 1.261 . S
C1171 H1141 0.931 . S
C1171 C1168 1.357 . S
C1171 C1172 1.312 . S
C1172 H1143 0.930 . S
C1172 C1167 1.261 . S
C1172 C1171 1.312 . S
C1173 O1145 1.214 . S
C1173 O1153 1.234 . S
C1174 H1146 0.929 . S
C1174 C1177 1.391 . S
C1174 C1179 1.391 . S
C1175 H1147 0.929 . S
C1175 C1176 1.390 . S
C1175 N1178 1.391 . S
C1176 H1148 0.930 . S
C1176 C1175 1.390 . S
C1176 C1177 1.392 . S
C1177 H1149 0.929 . S
C1177 C1174 1.391 . S
C1177 C1176 1.392 . S
N1178 Co1122 2.257 . S
N1178 C1175 1.391 . S
N1178 C1179 1.388 . S
C1179 H1150 0.930 . S
C1179 C1174 1.391 . S
C1179 N1178 1.388 . S
Co1180 O1182 2.143 . S
Co1180 O1188 2.074 . S
Co1180 O1191 2.093 . S
Co1180 O1204 2.097 . S
Co1180 N1221 2.151 . S
Co1180 N1229 2.214 . S
Co1181 O1182 2.160 . S
Co1181 O1187 2.058 . S
Co1181 O1197 2.057 . S
Co1181 O1212 2.037 . S
Co1181 N1216 2.145 . S
Co1181 N1237 2.257 . S
O1182 Co1180 2.143 . S
O1182 Co1181 2.160 . S
C1183 O1184 1.278 . S
C1183 O1191 1.224 . S
O1184 C1183 1.278 . S
C1185 O1186 1.245 . S
C1185 O1197 1.232 . S
O1186 C1185 1.245 . S
O1187 Co1181 2.058 . S
O1187 C1213 1.269 . S
O1188 Co1180 2.074 . S
O1188 C1213 1.257 . S
H1189 C1214 0.930 . S
H1190 C1220 0.930 . S
O1191 Co1180 2.093 . S
O1191 C1183 1.224 . S
H1192 C1224 0.929 . S
H1193 C1226 0.930 . S
H1194 C1227 0.930 . S
H1195 C1225 0.929 . S
H1196 C1228 0.928 . S
O1197 Co1181 2.057 . S
O1197 C1185 1.232 . S
H1198 C1217 0.929 . S
H1199 C1218 0.929 . S
H1200 C1230 0.931 . S
H1201 C1222 0.929 . S
H1202 C1231 0.930 . S
H1203 C1223 0.931 . S
O1204 Co1180 2.097 . S
O1204 C1232 1.214 . S
H1205 C1233 0.929 . S
H1206 C1234 0.929 . S
H1207 C1235 0.930 . S
H1208 C1236 0.929 . S
H1209 C1238 0.930 . S
H1210 C1215 0.930 . S
H1211 C1219 0.930 . S
O1212 Co1181 2.037 . S
O1212 C1232 1.234 . S
C1213 O1187 1.269 . S
C1213 O1188 1.257 . S
C1214 H1189 0.930 . S
C1214 C1217 1.388 . S
C1214 C1219 1.418 . S
C1215 H1210 0.930 . S
C1215 C1218 1.404 . S
C1215 C1219 1.353 . S
N1216 Co1181 2.145 . S
N1216 C1217 1.397 . S
N1216 C1218 1.334 . S
C1217 H1198 0.929 . S
C1217 C1214 1.388 . S
C1217 N1216 1.397 . S
C1218 H1199 0.929 . S
C1218 C1215 1.404 . S
C1218 N1216 1.334 . S
C1219 H1211 0.930 . S
C1219 C1214 1.418 . S
C1219 C1215 1.353 . S
C1220 H1190 0.930 . S
C1220 N1221 1.330 . S
C1220 C1222 1.446 . S
N1221 Co1180 2.151 . S
N1221 C1220 1.330 . S
N1221 C1225 1.418 . S
C1222 H1201 0.929 . S
C1222 C1220 1.446 . S
C1222 C1223 1.332 . S
C1223 H1203 0.931 . S
C1223 C1222 1.332 . S
C1223 C1224 1.267 . S
C1224 H1192 0.929 . S
C1224 C1223 1.267 . S
C1224 C1225 1.251 . S
C1225 H1195 0.929 . S
C1225 N1221 1.418 . S
C1225 C1224 1.251 . S
C1226 H1193 0.930 . S
C1226 C1228 1.406 . S
C1226 C1231 1.261 . S
C1227 H1194 0.930 . S
C1227 N1229 1.325 . S
C1227 C1230 1.357 . S
C1228 H1196 0.928 . S
C1228 C1226 1.406 . S
C1228 N1229 1.261 . S
N1229 Co1180 2.214 . S
N1229 C1227 1.325 . S
N1229 C1228 1.261 . S
C1230 H1200 0.931 . S
C1230 C1227 1.357 . S
C1230 C1231 1.312 . S
C1231 H1202 0.930 . S
C1231 C1226 1.261 . S
C1231 C1230 1.312 . S
C1232 O1204 1.214 . S
C1232 O1212 1.234 . S
C1233 H1205 0.929 . S
C1233 C1236 1.391 . S
C1233 C1238 1.391 1_556 S
C1234 H1206 0.929 . S
C1234 C1235 1.390 . S
C1234 N1237 1.391 . S
C1235 H1207 0.930 . S
C1235 C1234 1.390 . S
C1235 C1236 1.392 1_554 S
C1236 H1208 0.929 . S
C1236 C1233 1.391 . S
C1236 C1235 1.392 1_556 S
N1237 Co1181 2.257 . S
N1237 C1234 1.391 . S
N1237 C1238 1.388 . S
C1238 H1209 0.930 . S
C1238 C1233 1.391 1_554 S
C1238 N1237 1.388 . S
Co1239 O1241 2.143 . S
Co1239 O1247 2.074 1_554 S
Co1239 O1250 2.093 . S
Co1239 O1263 2.097 1_554 S
Co1239 N1280 2.151 . S
Co1239 N1288 2.214 1_554 S
Co1240 O1241 2.160 . S
Co1240 O1246 2.058 . S
Co1240 O1256 2.057 . S
Co1240 O1271 2.037 . S
Co1240 N1275 2.145 . S
Co1240 N1296 2.257 . S
O1241 Co1239 2.143 . S
O1241 Co1240 2.160 . S
C1242 O1243 1.278 . S
C1242 O1250 1.224 . S
O1243 C1242 1.278 . S
C1244 O1245 1.245 . S
C1244 O1256 1.232 . S
O1245 C1244 1.245 . S
O1246 Co1240 2.058 . S
O1246 C1272 1.269 1_554 S
O1247 Co1239 2.074 1_556 S
O1247 C1272 1.257 . S
H1248 C1273 0.930 . S
H1249 C1279 0.930 . S
O1250 Co1239 2.093 . S
O1250 C1242 1.224 . S
H1251 C1283 0.929 . S
H1252 C1285 0.930 . S
H1253 C1286 0.930 . S
H1254 C1284 0.929 . S
H1255 C1287 0.928 . S
O1256 Co1240 2.057 . S
O1256 C1244 1.232 . S
H1257 C1276 0.929 . S
H1258 C1277 0.929 . S
H1259 C1289 0.931 . S
H1260 C1281 0.929 . S
H1261 C1290 0.930 . S
H1262 C1282 0.931 . S
O1263 Co1239 2.097 1_556 S
O1263 C1291 1.214 1_556 S
H1264 C1292 0.929 . S
H1265 C1293 0.929 . S
H1266 C1294 0.930 . S
H1267 C1295 0.929 . S
H1268 C1297 0.930 . S
H1269 C1274 0.930 . S
H1270 C1278 0.930 . S
O1271 Co1240 2.037 . S
O1271 C1291 1.234 . S
C1272 O1246 1.269 1_556 S
C1272 O1247 1.257 . S
C1273 H1248 0.930 . S
C1273 C1276 1.388 . S
C1273 C1278 1.418 . S
C1274 H1269 0.930 . S
C1274 C1277 1.404 . S
C1274 C1278 1.353 . S
N1275 Co1240 2.145 . S
N1275 C1276 1.397 . S
N1275 C1277 1.334 . S
C1276 H1257 0.929 . S
C1276 C1273 1.388 . S
C1276 N1275 1.397 . S
C1277 H1258 0.929 . S
C1277 C1274 1.404 . S
C1277 N1275 1.334 . S
C1278 H1270 0.930 . S
C1278 C1273 1.418 . S
C1278 C1274 1.353 . S
C1279 H1249 0.930 . S
C1279 N1280 1.346 . S
C1279 C1281 1.446 . S
N1280 Co1239 2.151 . S
N1280 C1279 1.346 . S
N1280 C1284 1.399 1_554 S
C1281 H1260 0.929 . S
C1281 C1279 1.446 . S
C1281 C1282 1.332 1_554 S
C1282 H1262 0.931 . S
C1282 C1281 1.332 1_556 S
C1282 C1283 1.267 . S
C1283 H1251 0.929 . S
C1283 C1282 1.267 . S
C1283 C1284 1.251 . S
C1284 H1254 0.929 . S
C1284 N1280 1.399 1_556 S
C1284 C1283 1.251 . S
C1285 H1252 0.930 . S
C1285 C1287 1.406 . S
C1285 C1290 1.261 . S
C1286 H1253 0.930 . S
C1286 N1288 1.325 . S
C1286 C1289 1.357 . S
C1287 H1255 0.928 . S
C1287 C1285 1.406 . S
C1287 N1288 1.261 . S
N1288 Co1239 2.214 1_556 S
N1288 C1286 1.325 . S
N1288 C1287 1.261 . S
C1289 H1259 0.931 . S
C1289 C1286 1.357 . S
C1289 C1290 1.312 . S
C1290 H1261 0.930 . S
C1290 C1285 1.261 . S
C1290 C1289 1.312 . S
C1291 O1263 1.214 1_554 S
C1291 O1271 1.234 . S
C1292 H1264 0.929 . S
C1292 C1295 1.391 . S
C1292 C1297 1.391 . S
C1293 H1265 0.929 . S
C1293 C1294 1.390 . S
C1293 N1296 1.391 . S
C1294 H1266 0.930 . S
C1294 C1293 1.390 . S
C1294 C1295 1.392 . S
C1295 H1267 0.929 . S
C1295 C1292 1.391 . S
C1295 C1294 1.392 . S
N1296 Co1240 2.257 . S
N1296 C1293 1.391 . S
N1296 C1297 1.388 . S
C1297 H1268 0.930 . S
C1297 C1292 1.391 . S
C1297 N1296 1.388 . S
Co1298 O1300 2.143 . S
Co1298 O1306 2.074 . S
Co1298 O1309 2.093 . S
Co1298 O1322 2.097 . S
Co1298 N1339 2.151 . S
Co1298 N1347 2.214 . S
Co1299 O1300 2.160 . S
Co1299 O1305 2.058 1_554 S
Co1299 O1315 2.057 . S
Co1299 O1330 2.037 1_554 S
Co1299 N1334 2.145 1_554 S
Co1299 N1355 2.257 . S
O1300 Co1298 2.143 . S
O1300 Co1299 2.160 . S
C1301 O1302 1.278 . S
C1301 O1309 1.224 . S
O1302 C1301 1.278 . S
C1303 O1304 1.245 . S
C1303 O1315 1.232 . S
O1304 C1303 1.245 . S
O1305 Co1299 2.058 1_556 S
O1305 C1331 1.269 1_556 S
O1306 Co1298 2.074 . S
O1306 C1331 1.257 . S
H1307 C1332 0.930 . S
H1308 C1338 0.930 . S
O1309 Co1298 2.093 . S
O1309 C1301 1.224 . S
H1310 C1342 0.929 . S
H1311 C1344 0.930 . S
H1312 C1345 0.930 . S
H1313 C1343 0.929 . S
H1314 C1346 0.928 . S
O1315 Co1299 2.057 . S
O1315 C1303 1.232 . S
H1316 C1335 0.929 . S
H1317 C1336 0.929 . S
H1318 C1348 0.931 1_556 S
H1319 C1340 0.929 . S
H1320 C1349 0.930 . S
H1321 C1341 0.931 . S
O1322 Co1298 2.097 . S
O1322 C1350 1.214 1_554 S
H1323 C1351 0.929 . S
H1324 C1352 0.929 . S
H1325 C1353 0.930 . S
H1326 C1354 0.929 . S
H1327 C1356 0.930 . S
H1328 C1333 0.930 . S
H1329 C1337 0.930 . S
O1330 Co1299 2.037 1_556 S
O1330 C1350 1.234 . S
C1331 O1305 1.269 1_554 S
C1331 O1306 1.257 . S
C1332 H1307 0.930 . S
C1332 C1335 1.388 . S
C1332 C1337 1.418 . S
C1333 H1328 0.930 . S
C1333 C1336 1.404 . S
C1333 C1337 1.353 . S
N1334 Co1299 2.145 1_556 S
N1334 C1335 1.397 . S
N1334 C1336 1.334 . S
C1335 H1316 0.929 . S
C1335 C1332 1.388 . S
C1335 N1334 1.397 . S
C1336 H1317 0.929 . S
C1336 C1333 1.404 . S
C1336 N1334 1.334 . S
C1337 H1329 0.930 . S
C1337 C1332 1.418 . S
C1337 C1333 1.353 . S
C1338 H1308 0.930 . S
C1338 N1339 1.330 . S
C1338 C1340 1.446 . S
N1339 Co1298 2.151 . S
N1339 C1338 1.330 . S
N1339 C1343 1.418 . S
C1340 H1319 0.929 . S
C1340 C1338 1.446 . S
C1340 C1341 1.332 . S
C1341 H1321 0.931 . S
C1341 C1340 1.332 . S
C1341 C1342 1.267 . S
C1342 H1310 0.929 . S
C1342 C1341 1.267 . S
C1342 C1343 1.251 . S
C1343 H1313 0.929 . S
C1343 N1339 1.418 . S
C1343 C1342 1.251 . S
C1344 H1311 0.930 . S
C1344 C1346 1.406 . S
C1344 C1349 1.261 . S
C1345 H1312 0.930 . S
C1345 N1347 1.325 . S
C1345 C1348 1.357 . S
C1346 H1314 0.928 . S
C1346 C1344 1.406 . S
C1346 N1347 1.261 . S
N1347 Co1298 2.214 . S
N1347 C1345 1.325 . S
N1347 C1346 1.261 . S
C1348 H1318 0.931 1_554 S
C1348 C1345 1.357 . S
C1348 C1349 1.312 . S
C1349 H1320 0.930 . S
C1349 C1344 1.261 . S
C1349 C1348 1.312 . S
C1350 O1322 1.214 1_556 S
C1350 O1330 1.234 . S
C1351 H1323 0.929 . S
C1351 C1354 1.391 . S
C1351 C1356 1.391 . S
C1352 H1324 0.929 . S
C1352 C1353 1.390 . S
C1352 N1355 1.391 1_556 S
C1353 H1325 0.930 . S
C1353 C1352 1.390 . S
C1353 C1354 1.392 1_556 S
C1354 H1326 0.929 . S
C1354 C1351 1.391 . S
C1354 C1353 1.392 1_554 S
N1355 Co1299 2.257 . S
N1355 C1352 1.391 1_554 S
N1355 C1356 1.388 . S
C1356 H1327 0.930 . S
C1356 C1351 1.391 . S
C1356 N1355 1.388 . S
Co1357 O1359 2.143 . S
Co1357 O1365 2.074 . S
Co1357 O1368 2.093 . S
Co1357 O1381 2.097 . S
Co1357 N1398 2.151 . S
Co1357 N1406 2.214 . S
Co1358 O1359 2.160 . S
Co1358 O1364 2.058 1_554 S
Co1358 O1374 2.057 . S
Co1358 O1389 2.037 1_554 S
Co1358 N1393 2.145 1_554 S
Co1358 N1414 2.257 . S
O1359 Co1357 2.143 . S
O1359 Co1358 2.160 . S
C1360 O1361 1.278 . S
C1360 O1368 1.224 . S
O1361 C1360 1.278 . S
C1362 O1363 1.245 . S
C1362 O1374 1.232 . S
O1363 C1362 1.245 . S
O1364 Co1358 2.058 1_556 S
O1364 C1390 1.269 1_556 S
O1365 Co1357 2.074 . S
O1365 C1390 1.257 . S
H1366 C1391 0.930 . S
H1367 C1397 0.930 . S
O1368 Co1357 2.093 . S
O1368 C1360 1.224 . S
H1369 C1401 0.929 . S
H1370 C1403 0.930 . S
H1371 C1404 0.930 . S
H1372 C1402 0.929 . S
H1373 C1405 0.928 . S
O1374 Co1358 2.057 . S
O1374 C1362 1.232 . S
H1375 C1394 0.929 . S
H1376 C1395 0.929 . S
H1377 C1407 0.931 1_556 S
H1378 C1399 0.929 . S
H1379 C1408 0.930 . S
H1380 C1400 0.931 . S
O1381 Co1357 2.097 . S
O1381 C1409 1.214 1_554 S
H1382 C1410 0.929 . S
H1383 C1411 0.929 . S
H1384 C1412 0.930 . S
H1385 C1413 0.929 . S
H1386 C1415 0.930 . S
H1387 C1392 0.930 . S
H1388 C1396 0.930 . S
O1389 Co1358 2.037 1_556 S
O1389 C1409 1.234 . S
C1390 O1364 1.269 1_554 S
C1390 O1365 1.257 . S
C1391 H1366 0.930 . S
C1391 C1394 1.388 . S
C1391 C1396 1.418 . S
C1392 H1387 0.930 . S
C1392 C1395 1.404 . S
C1392 C1396 1.353 . S
N1393 Co1358 2.145 1_556 S
N1393 C1394 1.397 . S
N1393 C1395 1.334 . S
C1394 H1375 0.929 . S
C1394 C1391 1.388 . S
C1394 N1393 1.397 . S
C1395 H1376 0.929 . S
C1395 C1392 1.404 . S
C1395 N1393 1.334 . S
C1396 H1388 0.930 . S
C1396 C1391 1.418 . S
C1396 C1392 1.353 . S
C1397 H1367 0.930 . S
C1397 N1398 1.330 . S
C1397 C1399 1.446 . S
N1398 Co1357 2.151 . S
N1398 C1397 1.330 . S
N1398 C1402 1.418 . S
C1399 H1378 0.929 . S
C1399 C1397 1.446 . S
C1399 C1400 1.332 . S
C1400 H1380 0.931 . S
C1400 C1399 1.332 . S
C1400 C1401 1.267 . S
C1401 H1369 0.929 . S
C1401 C1400 1.267 . S
C1401 C1402 1.251 . S
C1402 H1372 0.929 . S
C1402 N1398 1.418 . S
C1402 C1401 1.251 . S
C1403 H1370 0.930 . S
C1403 C1405 1.406 . S
C1403 C1408 1.261 . S
C1404 H1371 0.930 . S
C1404 N1406 1.325 . S
C1404 C1407 1.357 . S
C1405 H1373 0.928 . S
C1405 C1403 1.406 . S
C1405 N1406 1.261 . S
N1406 Co1357 2.214 . S
N1406 C1404 1.325 . S
N1406 C1405 1.261 . S
C1407 H1377 0.931 1_554 S
C1407 C1404 1.357 . S
C1407 C1408 1.312 . S
C1408 H1379 0.930 . S
C1408 C1403 1.261 . S
C1408 C1407 1.312 . S
C1409 O1381 1.214 1_556 S
C1409 O1389 1.234 . S
C1410 H1382 0.929 . S
C1410 C1413 1.391 . S
C1410 C1415 1.391 . S
C1411 H1383 0.929 . S
C1411 C1412 1.390 . S
C1411 N1414 1.391 1_556 S
C1412 H1384 0.930 . S
C1412 C1411 1.390 . S
C1412 C1413 1.392 1_556 S
C1413 H1385 0.929 . S
C1413 C1410 1.391 . S
C1413 C1412 1.392 1_554 S
N1414 Co1358 2.257 . S
N1414 C1411 1.391 1_554 S
N1414 C1415 1.388 . S
C1415 H1386 0.930 . S
C1415 C1410 1.391 . S
C1415 N1414 1.388 . S
Co1416 O1418 2.143 . S
Co1416 O1424 2.074 . S
Co1416 O1427 2.093 . S
Co1416 O1440 2.097 . S
Co1416 N1457 2.151 . S
Co1416 N1465 2.214 . S
Co1417 O1418 2.160 . S
Co1417 O1423 2.058 . S
Co1417 O1433 2.057 . S
Co1417 O1448 2.037 . S
Co1417 N1452 2.145 . S
Co1417 N1473 2.257 . S
O1418 Co1416 2.143 . S
O1418 Co1417 2.160 . S
C1419 O1420 1.278 . S
C1419 O1427 1.224 . S
O1420 C1419 1.278 . S
C1421 O1422 1.245 . S
C1421 O1433 1.232 . S
O1422 C1421 1.245 . S
O1423 Co1417 2.058 . S
O1423 C1449 1.269 . S
O1424 Co1416 2.074 . S
O1424 C1449 1.257 . S
H1425 C1450 0.930 . S
H1426 C1456 0.930 . S
O1427 Co1416 2.093 . S
O1427 C1419 1.224 . S
H1428 C1460 0.929 . S
H1429 C1462 0.930 . S
H1430 C1463 0.930 . S
H1431 C1461 0.929 . S
H1432 C1464 0.928 . S
O1433 Co1417 2.057 . S
O1433 C1421 1.232 . S
H1434 C1453 0.929 . S
H1435 C1454 0.929 . S
H1436 C1466 0.931 . S
H1437 C1458 0.929 . S
H1438 C1467 0.930 . S
H1439 C1459 0.931 . S
O1440 Co1416 2.097 . S
O1440 C1468 1.214 . S
H1441 C1469 0.929 . S
H1442 C1470 0.929 . S
H1443 C1471 0.930 . S
H1444 C1472 0.929 . S
H1445 C1474 0.930 . S
H1446 C1451 0.930 . S
H1447 C1455 0.930 . S
O1448 Co1417 2.037 . S
O1448 C1468 1.234 . S
C1449 O1423 1.269 . S
C1449 O1424 1.257 . S
C1450 H1425 0.930 . S
C1450 C1453 1.388 . S
C1450 C1455 1.418 . S
C1451 H1446 0.930 . S
C1451 C1454 1.404 . S
C1451 C1455 1.353 . S
N1452 Co1417 2.145 . S
N1452 C1453 1.397 . S
N1452 C1454 1.334 . S
C1453 H1434 0.929 . S
C1453 C1450 1.388 . S
C1453 N1452 1.397 . S
C1454 H1435 0.929 . S
C1454 C1451 1.404 . S
C1454 N1452 1.334 . S
C1455 H1447 0.930 . S
C1455 C1450 1.418 . S
C1455 C1451 1.353 . S
C1456 H1426 0.930 . S
C1456 N1457 1.330 . S
C1456 C1458 1.446 1_556 S
N1457 Co1416 2.151 . S
N1457 C1456 1.330 . S
N1457 C1461 1.418 . S
C1458 H1437 0.929 . S
C1458 C1456 1.446 1_554 S
C1458 C1459 1.332 . S
C1459 H1439 0.931 . S
C1459 C1458 1.332 . S
C1459 C1460 1.267 1_554 S
C1460 H1428 0.929 . S
C1460 C1459 1.267 1_556 S
C1460 C1461 1.251 . S
C1461 H1431 0.929 . S
C1461 N1457 1.418 . S
C1461 C1460 1.251 . S
C1462 H1429 0.930 . S
C1462 C1464 1.406 . S
C1462 C1467 1.261 . S
C1463 H1430 0.930 . S
C1463 N1465 1.325 . S
C1463 C1466 1.357 . S
C1464 H1432 0.928 . S
C1464 C1462 1.406 . S
C1464 N1465 1.261 . S
N1465 Co1416 2.214 . S
N1465 C1463 1.325 . S
N1465 C1464 1.261 . S
C1466 H1436 0.931 . S
C1466 C1463 1.357 . S
C1466 C1467 1.312 . S
C1467 H1438 0.930 . S
C1467 C1462 1.261 . S
C1467 C1466 1.312 . S
C1468 O1440 1.214 . S
C1468 O1448 1.234 . S
C1469 H1441 0.929 . S
C1469 C1472 1.391 . S
C1469 C1474 1.391 . S
C1470 H1442 0.929 . S
C1470 C1471 1.390 . S
C1470 N1473 1.391 . S
C1471 H1443 0.930 . S
C1471 C1470 1.390 . S
C1471 C1472 1.392 . S
C1472 H1444 0.929 . S
C1472 C1469 1.391 . S
C1472 C1471 1.392 . S
N1473 Co1417 2.257 . S
N1473 C1470 1.391 . S
N1473 C1474 1.388 . S
C1474 H1445 0.930 . S
C1474 C1469 1.391 . S
C1474 N1473 1.388 . S
Co1475 O1477 2.143 . S
Co1475 O1483 2.074 . S
Co1475 O1486 2.093 . S
Co1475 O1499 2.097 . S
Co1475 N1516 2.151 . S
Co1475 N1524 2.214 . S
Co1476 O1477 2.160 . S
Co1476 O1482 2.058 . S
Co1476 O1492 2.057 . S
Co1476 O1507 2.037 . S
Co1476 N1511 2.145 . S
Co1476 N1532 2.257 . S
O1477 Co1475 2.143 . S
O1477 Co1476 2.160 . S
C1478 O1479 1.278 . S
C1478 O1486 1.224 . S
O1479 C1478 1.278 . S
C1480 O1481 1.245 . S
C1480 O1492 1.232 . S
O1481 C1480 1.245 . S
O1482 Co1476 2.058 . S
O1482 C1508 1.269 . S
O1483 Co1475 2.074 . S
O1483 C1508 1.257 . S
H1484 C1509 0.930 . S
H1485 C1515 0.930 . S
O1486 Co1475 2.093 . S
O1486 C1478 1.224 . S
H1487 C1519 0.929 . S
H1488 C1521 0.930 . S
H1489 C1522 0.930 . S
H1490 C1520 0.929 . S
H1491 C1523 0.928 . S
O1492 Co1476 2.057 . S
O1492 C1480 1.232 . S
H1493 C1512 0.929 . S
H1494 C1513 0.929 . S
H1495 C1525 0.931 . S
H1496 C1517 0.929 . S
H1497 C1526 0.930 . S
H1498 C1518 0.931 . S
O1499 Co1475 2.097 . S
O1499 C1527 1.214 . S
H1500 C1528 0.929 . S
H1501 C1529 0.929 . S
H1502 C1530 0.930 . S
H1503 C1531 0.929 . S
H1504 C1533 0.930 . S
H1505 C1510 0.930 . S
H1506 C1514 0.930 . S
O1507 Co1476 2.037 . S
O1507 C1527 1.234 . S
C1508 O1482 1.269 . S
C1508 O1483 1.257 . S
C1509 H1484 0.930 . S
C1509 C1512 1.388 . S
C1509 C1514 1.418 . S
C1510 H1505 0.930 . S
C1510 C1513 1.404 . S
C1510 C1514 1.353 . S
N1511 Co1476 2.145 . S
N1511 C1512 1.397 . S
N1511 C1513 1.334 . S
C1512 H1493 0.929 . S
C1512 C1509 1.388 . S
C1512 N1511 1.397 . S
C1513 H1494 0.929 . S
C1513 C1510 1.404 . S
C1513 N1511 1.334 . S
C1514 H1506 0.930 . S
C1514 C1509 1.418 . S
C1514 C1510 1.353 . S
C1515 H1485 0.930 . S
C1515 N1516 1.330 . S
C1515 C1517 1.446 1_556 S
N1516 Co1475 2.151 . S
N1516 C1515 1.330 . S
N1516 C1520 1.418 . S
C1517 H1496 0.929 . S
C1517 C1515 1.446 1_554 S
C1517 C1518 1.332 . S
C1518 H1498 0.931 . S
C1518 C1517 1.332 . S
C1518 C1519 1.267 1_554 S
C1519 H1487 0.929 . S
C1519 C1518 1.267 1_556 S
C1519 C1520 1.251 . S
C1520 H1490 0.929 . S
C1520 N1516 1.418 . S
C1520 C1519 1.251 . S
C1521 H1488 0.930 . S
C1521 C1523 1.406 . S
C1521 C1526 1.261 . S
C1522 H1489 0.930 . S
C1522 N1524 1.325 . S
C1522 C1525 1.357 . S
C1523 H1491 0.928 . S
C1523 C1521 1.406 . S
C1523 N1524 1.261 . S
N1524 Co1475 2.214 . S
N1524 C1522 1.325 . S
N1524 C1523 1.261 . S
C1525 H1495 0.931 . S
C1525 C1522 1.357 . S
C1525 C1526 1.312 . S
C1526 H1497 0.930 . S
C1526 C1521 1.261 . S
C1526 C1525 1.312 . S
C1527 O1499 1.214 . S
C1527 O1507 1.234 . S
C1528 H1500 0.929 . S
C1528 C1531 1.391 . S
C1528 C1533 1.391 . S
C1529 H1501 0.929 . S
C1529 C1530 1.390 . S
C1529 N1532 1.391 . S
C1530 H1502 0.930 . S
C1530 C1529 1.390 . S
C1530 C1531 1.392 . S
C1531 H1503 0.929 . S
C1531 C1528 1.391 . S
C1531 C1530 1.392 . S
N1532 Co1476 2.257 . S
N1532 C1529 1.391 . S
N1532 C1533 1.388 . S
C1533 H1504 0.930 . S
C1533 C1528 1.391 . S
C1533 N1532 1.388 . S
Co1534 O1536 2.143 . S
Co1534 O1542 2.074 . S
Co1534 O1545 2.093 . S
Co1534 O1558 2.097 . S
Co1534 N1575 2.151 . S
Co1534 N1583 2.214 . S
Co1535 O1536 2.160 . S
Co1535 O1541 2.058 . S
Co1535 O1551 2.057 . S
Co1535 O1566 2.037 . S
Co1535 N1570 2.145 . S
Co1535 N1591 2.257 . S
O1536 Co1534 2.143 . S
O1536 Co1535 2.160 . S
C1537 O1538 1.278 . S
C1537 O1545 1.224 . S
O1538 C1537 1.278 . S
C1539 O1540 1.245 . S
C1539 O1551 1.232 . S
O1540 C1539 1.245 . S
O1541 Co1535 2.058 . S
O1541 C1567 1.269 . S
O1542 Co1534 2.074 . S
O1542 C1567 1.257 . S
H1543 C1568 0.930 . S
H1544 C1574 0.930 . S
O1545 Co1534 2.093 . S
O1545 C1537 1.224 . S
H1546 C1578 0.929 . S
H1547 C1580 0.930 . S
H1548 C1581 0.930 . S
H1549 C1579 0.929 . S
H1550 C1582 0.928 . S
O1551 Co1535 2.057 . S
O1551 C1539 1.232 . S
H1552 C1571 0.929 . S
H1553 C1572 0.929 . S
H1554 C1584 0.931 . S
H1555 C1576 0.929 . S
H1556 C1585 0.930 . S
H1557 C1577 0.931 . S
O1558 Co1534 2.097 . S
O1558 C1586 1.214 . S
H1559 C1587 0.929 . S
H1560 C1588 0.929 . S
H1561 C1589 0.930 . S
H1562 C1590 0.929 . S
H1563 C1592 0.930 . S
H1564 C1569 0.930 . S
H1565 C1573 0.930 . S
O1566 Co1535 2.037 . S
O1566 C1586 1.234 . S
C1567 O1541 1.269 . S
C1567 O1542 1.257 . S
C1568 H1543 0.930 . S
C1568 C1571 1.388 . S
C1568 C1573 1.418 . S
C1569 H1564 0.930 . S
C1569 C1572 1.404 . S
C1569 C1573 1.353 . S
N1570 Co1535 2.145 . S
N1570 C1571 1.397 . S
N1570 C1572 1.334 . S
C1571 H1552 0.929 . S
C1571 C1568 1.388 . S
C1571 N1570 1.397 . S
C1572 H1553 0.929 . S
C1572 C1569 1.404 . S
C1572 N1570 1.334 . S
C1573 H1565 0.930 . S
C1573 C1568 1.418 . S
C1573 C1569 1.353 . S
C1574 H1544 0.930 . S
C1574 N1575 1.330 . S
C1574 C1576 1.446 1_556 S
N1575 Co1534 2.151 . S
N1575 C1574 1.330 . S
N1575 C1579 1.418 . S
C1576 H1555 0.929 . S
C1576 C1574 1.446 1_554 S
C1576 C1577 1.332 . S
C1577 H1557 0.931 . S
C1577 C1576 1.332 . S
C1577 C1578 1.267 1_554 S
C1578 H1546 0.929 . S
C1578 C1577 1.267 1_556 S
C1578 C1579 1.251 . S
C1579 H1549 0.929 . S
C1579 N1575 1.418 . S
C1579 C1578 1.251 . S
C1580 H1547 0.930 . S
C1580 C1582 1.406 . S
C1580 C1585 1.261 . S
C1581 H1548 0.930 . S
C1581 N1583 1.325 . S
C1581 C1584 1.357 . S
C1582 H1550 0.928 . S
C1582 C1580 1.406 . S
C1582 N1583 1.261 . S
N1583 Co1534 2.214 . S
N1583 C1581 1.325 . S
N1583 C1582 1.261 . S
C1584 H1554 0.931 . S
C1584 C1581 1.357 . S
C1584 C1585 1.312 . S
C1585 H1556 0.930 . S
C1585 C1580 1.261 . S
C1585 C1584 1.312 . S
C1586 O1558 1.214 . S
C1586 O1566 1.234 . S
C1587 H1559 0.929 . S
C1587 C1590 1.391 . S
C1587 C1592 1.391 . S
C1588 H1560 0.929 . S
C1588 C1589 1.390 . S
C1588 N1591 1.391 . S
C1589 H1561 0.930 . S
C1589 C1588 1.390 . S
C1589 C1590 1.392 . S
C1590 H1562 0.929 . S
C1590 C1587 1.391 . S
C1590 C1589 1.392 . S
N1591 Co1535 2.257 . S
N1591 C1588 1.391 . S
N1591 C1592 1.388 . S
C1592 H1563 0.930 . S
C1592 C1587 1.391 . S
C1592 N1591 1.388 . S
Co1593 O1595 2.143 . S
Co1593 O1601 2.074 . S
Co1593 O1604 2.093 . S
Co1593 O1617 2.097 . S
Co1593 N1634 2.151 . S
Co1593 N1642 2.214 . S
Co1594 O1595 2.160 . S
Co1594 O1600 2.058 1_556 S
Co1594 O1610 2.057 . S
Co1594 O1625 2.037 1_556 S
Co1594 N1629 2.145 1_556 S
Co1594 N1650 2.257 . S
O1595 Co1593 2.143 . S
O1595 Co1594 2.160 . S
C1596 O1597 1.278 . S
C1596 O1604 1.224 . S
O1597 C1596 1.278 . S
C1598 O1599 1.245 . S
C1598 O1610 1.232 . S
O1599 C1598 1.245 . S
O1600 Co1594 2.058 1_554 S
O1600 C1626 1.269 1_554 S
O1601 Co1593 2.074 . S
O1601 C1626 1.257 . S
H1602 C1627 0.930 . S
H1603 C1633 0.930 . S
O1604 Co1593 2.093 . S
O1604 C1596 1.224 . S
H1605 C1637 0.929 . S
H1606 C1639 0.930 . S
H1607 C1640 0.930 . S
H1608 C1638 0.929 . S
H1609 C1641 0.928 . S
O1610 Co1594 2.057 . S
O1610 C1598 1.232 . S
H1611 C1630 0.929 . S
H1612 C1631 0.929 . S
H1613 C1643 0.931 1_554 S
H1614 C1635 0.929 . S
H1615 C1644 0.930 . S
H1616 C1636 0.931 . S
O1617 Co1593 2.097 . S
O1617 C1645 1.214 1_556 S
H1618 C1646 0.929 . S
H1619 C1647 0.929 . S
H1620 C1648 0.930 . S
H1621 C1649 0.929 . S
H1622 C1651 0.930 . S
H1623 C1628 0.930 . S
H1624 C1632 0.930 . S
O1625 Co1594 2.037 1_554 S
O1625 C1645 1.234 . S
C1626 O1600 1.269 1_556 S
C1626 O1601 1.257 . S
C1627 H1602 0.930 . S
C1627 C1630 1.388 . S
C1627 C1632 1.418 . S
C1628 H1623 0.930 . S
C1628 C1631 1.404 . S
C1628 C1632 1.353 . S
N1629 Co1594 2.145 1_554 S
N1629 C1630 1.397 . S
N1629 C1631 1.334 . S
C1630 H1611 0.929 . S
C1630 C1627 1.388 . S
C1630 N1629 1.397 . S
C1631 H1612 0.929 . S
C1631 C1628 1.404 . S
C1631 N1629 1.334 . S
C1632 H1624 0.930 . S
C1632 C1627 1.418 . S
C1632 C1628 1.353 . S
C1633 H1603 0.930 . S
C1633 N1634 1.330 . S
C1633 C1635 1.446 . S
N1634 Co1593 2.151 . S
N1634 C1633 1.330 . S
N1634 C1638 1.418 . S
C1635 H1614 0.929 . S
C1635 C1633 1.446 . S
C1635 C1636 1.332 . S
C1636 H1616 0.931 . S
C1636 C1635 1.332 . S
C1636 C1637 1.267 . S
C1637 H1605 0.929 . S
C1637 C1636 1.267 . S
C1637 C1638 1.251 . S
C1638 H1608 0.929 . S
C1638 N1634 1.418 . S
C1638 C1637 1.251 . S
C1639 H1606 0.930 . S
C1639 C1641 1.406 . S
C1639 C1644 1.261 . S
C1640 H1607 0.930 . S
C1640 N1642 1.325 . S
C1640 C1643 1.357 . S
C1641 H1609 0.928 . S
C1641 C1639 1.406 . S
C1641 N1642 1.261 . S
N1642 Co1593 2.214 . S
N1642 C1640 1.325 . S
N1642 C1641 1.261 . S
C1643 H1613 0.931 1_556 S
C1643 C1640 1.357 . S
C1643 C1644 1.312 . S
C1644 H1615 0.930 . S
C1644 C1639 1.261 . S
C1644 C1643 1.312 . S
C1645 O1617 1.214 1_554 S
C1645 O1625 1.234 . S
C1646 H1618 0.929 . S
C1646 C1649 1.391 . S
C1646 C1651 1.391 . S
C1647 H1619 0.929 . S
C1647 C1648 1.390 . S
C1647 N1650 1.391 1_554 S
C1648 H1620 0.930 . S
C1648 C1647 1.390 . S
C1648 C1649 1.392 1_554 S
C1649 H1621 0.929 . S
C1649 C1646 1.391 . S
C1649 C1648 1.392 1_556 S
N1650 Co1594 2.257 . S
N1650 C1647 1.391 1_556 S
N1650 C1651 1.388 . S
C1651 H1622 0.930 . S
C1651 C1646 1.391 . S
C1651 N1650 1.388 . S
Co1652 O1654 2.143 . S
Co1652 O1660 2.074 . S
Co1652 O1663 2.093 . S
Co1652 O1676 2.097 . S
Co1652 N1693 2.151 . S
Co1652 N1701 2.214 . S
Co1653 O1654 2.160 . S
Co1653 O1659 2.058 1_556 S
Co1653 O1669 2.057 . S
Co1653 O1684 2.037 1_556 S
Co1653 N1688 2.145 1_556 S
Co1653 N1709 2.257 . S
O1654 Co1652 2.143 . S
O1654 Co1653 2.160 . S
C1655 O1656 1.278 . S
C1655 O1663 1.224 . S
O1656 C1655 1.278 . S
C1657 O1658 1.245 . S
C1657 O1669 1.232 . S
O1658 C1657 1.245 . S
O1659 Co1653 2.058 1_554 S
O1659 C1685 1.269 1_554 S
O1660 Co1652 2.074 . S
O1660 C1685 1.257 . S
H1661 C1686 0.930 . S
H1662 C1692 0.930 . S
O1663 Co1652 2.093 . S
O1663 C1655 1.224 . S
H1664 C1696 0.929 . S
H1665 C1698 0.930 . S
H1666 C1699 0.930 . S
H1667 C1697 0.929 . S
H1668 C1700 0.928 . S
O1669 Co1653 2.057 . S
O1669 C1657 1.232 . S
H1670 C1689 0.929 . S
H1671 C1690 0.929 . S
H1672 C1702 0.931 1_554 S
H1673 C1694 0.929 . S
H1674 C1703 0.930 . S
H1675 C1695 0.931 . S
O1676 Co1652 2.097 . S
O1676 C1704 1.214 1_556 S
H1677 C1705 0.929 . S
H1678 C1706 0.929 . S
H1679 C1707 0.930 . S
H1680 C1708 0.929 . S
H1681 C1710 0.930 . S
H1682 C1687 0.930 . S
H1683 C1691 0.930 . S
O1684 Co1653 2.037 1_554 S
O1684 C1704 1.234 . S
C1685 O1659 1.269 1_556 S
C1685 O1660 1.257 . S
C1686 H1661 0.930 . S
C1686 C1689 1.388 . S
C1686 C1691 1.418 . S
C1687 H1682 0.930 . S
C1687 C1690 1.404 . S
C1687 C1691 1.353 . S
N1688 Co1653 2.145 1_554 S
N1688 C1689 1.397 . S
N1688 C1690 1.334 . S
C1689 H1670 0.929 . S
C1689 C1686 1.388 . S
C1689 N1688 1.397 . S
C1690 H1671 0.929 . S
C1690 C1687 1.404 . S
C1690 N1688 1.334 . S
C1691 H1683 0.930 . S
C1691 C1686 1.418 . S
C1691 C1687 1.353 . S
C1692 H1662 0.930 . S
C1692 N1693 1.330 . S
C1692 C1694 1.446 . S
N1693 Co1652 2.151 . S
N1693 C1692 1.330 . S
N1693 C1697 1.418 . S
C1694 H1673 0.929 . S
C1694 C1692 1.446 . S
C1694 C1695 1.332 . S
C1695 H1675 0.931 . S
C1695 C1694 1.332 . S
C1695 C1696 1.267 . S
C1696 H1664 0.929 . S
C1696 C1695 1.267 . S
C1696 C1697 1.251 . S
C1697 H1667 0.929 . S
C1697 N1693 1.418 . S
C1697 C1696 1.251 . S
C1698 H1665 0.930 . S
C1698 C1700 1.406 . S
C1698 C1703 1.261 . S
C1699 H1666 0.930 . S
C1699 N1701 1.325 . S
C1699 C1702 1.357 . S
C1700 H1668 0.928 . S
C1700 C1698 1.406 . S
C1700 N1701 1.261 . S
N1701 Co1652 2.214 . S
N1701 C1699 1.325 . S
N1701 C1700 1.261 . S
C1702 H1672 0.931 1_556 S
C1702 C1699 1.357 . S
C1702 C1703 1.312 . S
C1703 H1674 0.930 . S
C1703 C1698 1.261 . S
C1703 C1702 1.312 . S
C1704 O1676 1.214 1_554 S
C1704 O1684 1.234 . S
C1705 H1677 0.929 . S
C1705 C1708 1.391 . S
C1705 C1710 1.391 . S
C1706 H1678 0.929 . S
C1706 C1707 1.390 . S
C1706 N1709 1.391 1_554 S
C1707 H1679 0.930 . S
C1707 C1706 1.390 . S
C1707 C1708 1.392 1_554 S
C1708 H1680 0.929 . S
C1708 C1705 1.391 . S
C1708 C1707 1.392 1_556 S
N1709 Co1653 2.257 . S
N1709 C1706 1.391 1_556 S
N1709 C1710 1.388 . S
C1710 H1681 0.930 . S
C1710 C1705 1.391 . S
C1710 N1709 1.388 . S
Co1711 O1713 2.143 . S
Co1711 O1719 2.074 . S
Co1711 O1722 2.093 . S
Co1711 O1735 2.097 . S
Co1711 N1752 2.151 . S
Co1711 N1760 2.214 . S
Co1712 O1713 2.160 . S
Co1712 O1718 2.058 1_556 S
Co1712 O1728 2.057 . S
Co1712 O1743 2.037 1_556 S
Co1712 N1747 2.145 1_556 S
Co1712 N1768 2.257 . S
O1713 Co1711 2.143 . S
O1713 Co1712 2.160 . S
C1714 O1715 1.278 . S
C1714 O1722 1.224 . S
O1715 C1714 1.278 . S
C1716 O1717 1.245 . S
C1716 O1728 1.232 . S
O1717 C1716 1.245 . S
O1718 Co1712 2.058 1_554 S
O1718 C1744 1.269 1_554 S
O1719 Co1711 2.074 . S
O1719 C1744 1.257 . S
H1720 C1745 0.930 . S
H1721 C1751 0.930 . S
O1722 Co1711 2.093 . S
O1722 C1714 1.224 . S
H1723 C1755 0.929 . S
H1724 C1757 0.930 . S
H1725 C1758 0.930 . S
H1726 C1756 0.929 . S
H1727 C1759 0.928 . S
O1728 Co1712 2.057 . S
O1728 C1716 1.232 . S
H1729 C1748 0.929 . S
H1730 C1749 0.929 . S
H1731 C1761 0.931 1_554 S
H1732 C1753 0.929 . S
H1733 C1762 0.930 . S
H1734 C1754 0.931 . S
O1735 Co1711 2.097 . S
O1735 C1763 1.214 1_556 S
H1736 C1764 0.929 . S
H1737 C1765 0.929 . S
H1738 C1766 0.930 . S
H1739 C1767 0.929 . S
H1740 C1769 0.930 . S
H1741 C1746 0.930 . S
H1742 C1750 0.930 . S
O1743 Co1712 2.037 1_554 S
O1743 C1763 1.234 . S
C1744 O1718 1.269 1_556 S
C1744 O1719 1.257 . S
C1745 H1720 0.930 . S
C1745 C1748 1.388 . S
C1745 C1750 1.418 . S
C1746 H1741 0.930 . S
C1746 C1749 1.404 . S
C1746 C1750 1.353 . S
N1747 Co1712 2.145 1_554 S
N1747 C1748 1.397 . S
N1747 C1749 1.334 . S
C1748 H1729 0.929 . S
C1748 C1745 1.388 . S
C1748 N1747 1.397 . S
C1749 H1730 0.929 . S
C1749 C1746 1.404 . S
C1749 N1747 1.334 . S
C1750 H1742 0.930 . S
C1750 C1745 1.418 . S
C1750 C1746 1.353 . S
C1751 H1721 0.930 . S
C1751 N1752 1.330 . S
C1751 C1753 1.446 . S
N1752 Co1711 2.151 . S
N1752 C1751 1.330 . S
N1752 C1756 1.418 . S
C1753 H1732 0.929 . S
C1753 C1751 1.446 . S
C1753 C1754 1.332 . S
C1754 H1734 0.931 . S
C1754 C1753 1.332 . S
C1754 C1755 1.267 . S
C1755 H1723 0.929 . S
C1755 C1754 1.267 . S
C1755 C1756 1.251 . S
C1756 H1726 0.929 . S
C1756 N1752 1.418 . S
C1756 C1755 1.251 . S
C1757 H1724 0.930 . S
C1757 C1759 1.406 . S
C1757 C1762 1.261 . S
C1758 H1725 0.930 . S
C1758 N1760 1.325 . S
C1758 C1761 1.357 . S
C1759 H1727 0.928 . S
C1759 C1757 1.406 . S
C1759 N1760 1.261 . S
N1760 Co1711 2.214 . S
N1760 C1758 1.325 . S
N1760 C1759 1.261 . S
C1761 H1731 0.931 1_556 S
C1761 C1758 1.357 . S
C1761 C1762 1.312 . S
C1762 H1733 0.930 . S
C1762 C1757 1.261 . S
C1762 C1761 1.312 . S
C1763 O1735 1.214 1_554 S
C1763 O1743 1.234 . S
C1764 H1736 0.929 . S
C1764 C1767 1.391 . S
C1764 C1769 1.391 . S
C1765 H1737 0.929 . S
C1765 C1766 1.390 . S
C1765 N1768 1.391 1_554 S
C1766 H1738 0.930 . S
C1766 C1765 1.390 . S
C1766 C1767 1.392 1_554 S
C1767 H1739 0.929 . S
C1767 C1764 1.391 . S
C1767 C1766 1.392 1_556 S
N1768 Co1712 2.257 . S
N1768 C1765 1.391 1_556 S
N1768 C1769 1.388 . S
C1769 H1740 0.930 . S
C1769 C1764 1.391 . S
C1769 N1768 1.388 . S
Co1770 O1772 2.143 . S
Co1770 O1778 2.074 . S
Co1770 O1781 2.093 . S
Co1770 O1794 2.097 . S
Co1770 N1811 2.151 . S
Co1770 N1819 2.214 . S
Co1771 O1772 2.160 . S
Co1771 O1777 2.058 . S
Co1771 O1787 2.057 . S
Co1771 O1802 2.037 . S
Co1771 N1806 2.145 . S
Co1771 N1827 2.257 . S
O1772 Co1770 2.143 . S
O1772 Co1771 2.160 . S
C1773 O1774 1.278 . S
C1773 O1781 1.224 . S
O1774 C1773 1.278 . S
C1775 O1776 1.245 . S
C1775 O1787 1.232 . S
O1776 C1775 1.245 . S
O1777 Co1771 2.058 . S
O1777 C1803 1.269 . S
O1778 Co1770 2.074 . S
O1778 C1803 1.257 . S
H1779 C1804 0.930 . S
H1780 C1810 0.930 . S
O1781 Co1770 2.093 . S
O1781 C1773 1.224 . S
H1782 C1814 0.929 . S
H1783 C1816 0.930 . S
H1784 C1817 0.930 . S
H1785 C1815 0.929 . S
H1786 C1818 0.928 . S
O1787 Co1771 2.057 . S
O1787 C1775 1.232 . S
H1788 C1807 0.929 . S
H1789 C1808 0.929 . S
H1790 C1820 0.931 . S
H1791 C1812 0.929 . S
H1792 C1821 0.930 . S
H1793 C1813 0.931 . S
O1794 Co1770 2.097 . S
O1794 C1822 1.214 . S
H1795 C1823 0.929 . S
H1796 C1824 0.929 . S
H1797 C1825 0.930 . S
H1798 C1826 0.929 . S
H1799 C1828 0.930 . S
H1800 C1805 0.930 . S
H1801 C1809 0.930 . S
O1802 Co1771 2.037 . S
O1802 C1822 1.234 . S
C1803 O1777 1.269 . S
C1803 O1778 1.257 . S
C1804 H1779 0.930 . S
C1804 C1807 1.388 . S
C1804 C1809 1.418 . S
C1805 H1800 0.930 . S
C1805 C1808 1.404 . S
C1805 C1809 1.353 . S
N1806 Co1771 2.145 . S
N1806 C1807 1.397 . S
N1806 C1808 1.334 . S
C1807 H1788 0.929 . S
C1807 C1804 1.388 . S
C1807 N1806 1.397 . S
C1808 H1789 0.929 . S
C1808 C1805 1.404 . S
C1808 N1806 1.334 . S
C1809 H1801 0.930 . S
C1809 C1804 1.418 . S
C1809 C1805 1.353 . S
C1810 H1780 0.930 . S
C1810 N1811 1.330 . S
C1810 C1812 1.446 . S
N1811 Co1770 2.151 . S
N1811 C1810 1.330 . S
N1811 C1815 1.418 . S
C1812 H1791 0.929 . S
C1812 C1810 1.446 . S
C1812 C1813 1.332 . S
C1813 H1793 0.931 . S
C1813 C1812 1.332 . S
C1813 C1814 1.267 . S
C1814 H1782 0.929 . S
C1814 C1813 1.267 . S
C1814 C1815 1.251 . S
C1815 H1785 0.929 . S
C1815 N1811 1.418 . S
C1815 C1814 1.251 . S
C1816 H1783 0.930 . S
C1816 C1818 1.406 . S
C1816 C1821 1.261 . S
C1817 H1784 0.930 . S
C1817 N1819 1.325 . S
C1817 C1820 1.357 . S
C1818 H1786 0.928 . S
C1818 C1816 1.406 . S
C1818 N1819 1.261 . S
N1819 Co1770 2.214 . S
N1819 C1817 1.325 . S
N1819 C1818 1.261 . S
C1820 H1790 0.931 . S
C1820 C1817 1.357 . S
C1820 C1821 1.312 . S
C1821 H1792 0.930 . S
C1821 C1816 1.261 . S
C1821 C1820 1.312 . S
C1822 O1794 1.214 . S
C1822 O1802 1.234 . S
C1823 H1795 0.929 . S
C1823 C1826 1.391 . S
C1823 C1828 1.391 . S
C1824 H1796 0.929 . S
C1824 C1825 1.390 . S
C1824 N1827 1.391 . S
C1825 H1797 0.930 . S
C1825 C1824 1.390 . S
C1825 C1826 1.392 . S
C1826 H1798 0.929 . S
C1826 C1823 1.391 . S
C1826 C1825 1.392 . S
N1827 Co1771 2.257 . S
N1827 C1824 1.391 . S
N1827 C1828 1.388 . S
C1828 H1799 0.930 . S
C1828 C1823 1.391 . S
C1828 N1827 1.388 . S
Co1829 O1831 2.143 . S
Co1829 O1837 2.074 . S
Co1829 O1840 2.093 . S
Co1829 O1853 2.097 . S
Co1829 N1870 2.151 . S
Co1829 N1878 2.214 . S
Co1830 O1831 2.160 . S
Co1830 O1836 2.058 . S
Co1830 O1846 2.057 . S
Co1830 O1861 2.037 . S
Co1830 N1865 2.145 . S
Co1830 N1886 2.257 . S
O1831 Co1829 2.143 . S
O1831 Co1830 2.160 . S
C1832 O1833 1.278 . S
C1832 O1840 1.224 . S
O1833 C1832 1.278 . S
C1834 O1835 1.245 . S
C1834 O1846 1.232 . S
O1835 C1834 1.245 . S
O1836 Co1830 2.058 . S
O1836 C1862 1.269 . S
O1837 Co1829 2.074 . S
O1837 C1862 1.257 . S
H1838 C1863 0.930 . S
H1839 C1869 0.930 . S
O1840 Co1829 2.093 . S
O1840 C1832 1.224 . S
H1841 C1873 0.929 . S
H1842 C1875 0.930 . S
H1843 C1876 0.930 . S
H1844 C1874 0.929 . S
H1845 C1877 0.928 . S
O1846 Co1830 2.057 . S
O1846 C1834 1.232 . S
H1847 C1866 0.929 . S
H1848 C1867 0.929 . S
H1849 C1879 0.931 . S
H1850 C1871 0.929 . S
H1851 C1880 0.930 . S
H1852 C1872 0.931 . S
O1853 Co1829 2.097 . S
O1853 C1881 1.214 . S
H1854 C1882 0.929 . S
H1855 C1883 0.929 . S
H1856 C1884 0.930 . S
H1857 C1885 0.929 . S
H1858 C1887 0.930 . S
H1859 C1864 0.930 . S
H1860 C1868 0.930 . S
O1861 Co1830 2.037 . S
O1861 C1881 1.234 . S
C1862 O1836 1.269 . S
C1862 O1837 1.257 . S
C1863 H1838 0.930 . S
C1863 C1866 1.388 . S
C1863 C1868 1.418 . S
C1864 H1859 0.930 . S
C1864 C1867 1.404 . S
C1864 C1868 1.353 . S
N1865 Co1830 2.145 . S
N1865 C1866 1.397 . S
N1865 C1867 1.334 . S
C1866 H1847 0.929 . S
C1866 C1863 1.388 . S
C1866 N1865 1.397 . S
C1867 H1848 0.929 . S
C1867 C1864 1.404 . S
C1867 N1865 1.334 . S
C1868 H1860 0.930 . S
C1868 C1863 1.418 . S
C1868 C1864 1.353 . S
C1869 H1839 0.930 . S
C1869 N1870 1.330 . S
C1869 C1871 1.446 . S
N1870 Co1829 2.151 . S
N1870 C1869 1.330 . S
N1870 C1874 1.418 . S
C1871 H1850 0.929 . S
C1871 C1869 1.446 . S
C1871 C1872 1.332 . S
C1872 H1852 0.931 . S
C1872 C1871 1.332 . S
C1872 C1873 1.267 . S
C1873 H1841 0.929 . S
C1873 C1872 1.267 . S
C1873 C1874 1.251 . S
C1874 H1844 0.929 . S
C1874 N1870 1.418 . S
C1874 C1873 1.251 . S
C1875 H1842 0.930 . S
C1875 C1877 1.406 . S
C1875 C1880 1.261 . S
C1876 H1843 0.930 . S
C1876 N1878 1.325 . S
C1876 C1879 1.357 . S
C1877 H1845 0.928 . S
C1877 C1875 1.406 . S
C1877 N1878 1.261 . S
N1878 Co1829 2.214 . S
N1878 C1876 1.325 . S
N1878 C1877 1.261 . S
C1879 H1849 0.931 . S
C1879 C1876 1.357 . S
C1879 C1880 1.312 . S
C1880 H1851 0.930 . S
C1880 C1875 1.261 . S
C1880 C1879 1.312 . S
C1881 O1853 1.214 . S
C1881 O1861 1.234 . S
C1882 H1854 0.929 . S
C1882 C1885 1.391 . S
C1882 C1887 1.391 . S
C1883 H1855 0.929 . S
C1883 C1884 1.390 . S
C1883 N1886 1.391 . S
C1884 H1856 0.930 . S
C1884 C1883 1.390 . S
C1884 C1885 1.392 . S
C1885 H1857 0.929 . S
C1885 C1882 1.391 . S
C1885 C1884 1.392 . S
N1886 Co1830 2.257 . S
N1886 C1883 1.391 . S
N1886 C1887 1.388 . S
C1887 H1858 0.930 . S
C1887 C1882 1.391 . S
C1887 N1886 1.388 . S
Co1888 O1890 2.143 . S
Co1888 O1896 2.074 . S
Co1888 O1899 2.093 . S
Co1888 O1912 2.097 . S
Co1888 N1929 2.151 . S
Co1888 N1937 2.214 . S
Co1889 O1890 2.160 . S
Co1889 O1895 2.058 . S
Co1889 O1905 2.057 . S
Co1889 O1920 2.037 . S
Co1889 N1924 2.145 . S
Co1889 N1945 2.257 . S
O1890 Co1888 2.143 . S
O1890 Co1889 2.160 . S
C1891 O1892 1.278 . S
C1891 O1899 1.224 . S
O1892 C1891 1.278 . S
C1893 O1894 1.245 . S
C1893 O1905 1.232 . S
O1894 C1893 1.245 . S
O1895 Co1889 2.058 . S
O1895 C1921 1.269 . S
O1896 Co1888 2.074 . S
O1896 C1921 1.257 . S
H1897 C1922 0.930 . S
H1898 C1928 0.930 . S
O1899 Co1888 2.093 . S
O1899 C1891 1.224 . S
H1900 C1932 0.929 . S
H1901 C1934 0.930 . S
H1902 C1935 0.930 . S
H1903 C1933 0.929 . S
H1904 C1936 0.928 . S
O1905 Co1889 2.057 . S
O1905 C1893 1.232 . S
H1906 C1925 0.929 . S
H1907 C1926 0.929 . S
H1908 C1938 0.931 . S
H1909 C1930 0.929 . S
H1910 C1939 0.930 . S
H1911 C1931 0.931 . S
O1912 Co1888 2.097 . S
O1912 C1940 1.214 . S
H1913 C1941 0.929 . S
H1914 C1942 0.929 . S
H1915 C1943 0.930 . S
H1916 C1944 0.929 . S
H1917 C1946 0.930 . S
H1918 C1923 0.930 . S
H1919 C1927 0.930 . S
O1920 Co1889 2.037 . S
O1920 C1940 1.234 . S
C1921 O1895 1.269 . S
C1921 O1896 1.257 . S
C1922 H1897 0.930 . S
C1922 C1925 1.388 . S
C1922 C1927 1.418 . S
C1923 H1918 0.930 . S
C1923 C1926 1.404 . S
C1923 C1927 1.353 . S
N1924 Co1889 2.145 . S
N1924 C1925 1.397 . S
N1924 C1926 1.334 . S
C1925 H1906 0.929 . S
C1925 C1922 1.388 . S
C1925 N1924 1.397 . S
C1926 H1907 0.929 . S
C1926 C1923 1.404 . S
C1926 N1924 1.334 . S
C1927 H1919 0.930 . S
C1927 C1922 1.418 . S
C1927 C1923 1.353 . S
C1928 H1898 0.930 . S
C1928 N1929 1.330 . S
C1928 C1930 1.446 . S
N1929 Co1888 2.151 . S
N1929 C1928 1.330 . S
N1929 C1933 1.418 . S
C1930 H1909 0.929 . S
C1930 C1928 1.446 . S
C1930 C1931 1.332 . S
C1931 H1911 0.931 . S
C1931 C1930 1.332 . S
C1931 C1932 1.267 . S
C1932 H1900 0.929 . S
C1932 C1931 1.267 . S
C1932 C1933 1.251 . S
C1933 H1903 0.929 . S
C1933 N1929 1.418 . S
C1933 C1932 1.251 . S
C1934 H1901 0.930 . S
C1934 C1936 1.406 . S
C1934 C1939 1.261 . S
C1935 H1902 0.930 . S
C1935 N1937 1.325 . S
C1935 C1938 1.357 . S
C1936 H1904 0.928 . S
C1936 C1934 1.406 . S
C1936 N1937 1.261 . S
N1937 Co1888 2.214 . S
N1937 C1935 1.325 . S
N1937 C1936 1.261 . S
C1938 H1908 0.931 . S
C1938 C1935 1.357 . S
C1938 C1939 1.312 . S
C1939 H1910 0.930 . S
C1939 C1934 1.261 . S
C1939 C1938 1.312 . S
C1940 O1912 1.214 . S
C1940 O1920 1.234 . S
C1941 H1913 0.929 . S
C1941 C1944 1.391 . S
C1941 C1946 1.391 . S
C1942 H1914 0.929 . S
C1942 C1943 1.390 . S
C1942 N1945 1.391 . S
C1943 H1915 0.930 . S
C1943 C1942 1.390 . S
C1943 C1944 1.392 . S
C1944 H1916 0.929 . S
C1944 C1941 1.391 . S
C1944 C1943 1.392 . S
N1945 Co1889 2.257 . S
N1945 C1942 1.391 . S
N1945 C1946 1.388 . S
C1946 H1917 0.930 . S
C1946 C1941 1.391 . S
C1946 N1945 1.388 . S
Co1947 O1949 2.143 . S
Co1947 O1955 2.074 . S
Co1947 O1958 2.093 . S
Co1947 O1971 2.097 . S
Co1947 N1988 2.151 . S
Co1947 N1996 2.214 . S
Co1948 O1949 2.160 . S
Co1948 O1954 2.058 . S
Co1948 O1964 2.057 . S
Co1948 O1979 2.037 . S
Co1948 N1983 2.145 . S
Co1948 N2004 2.257 . S
O1949 Co1947 2.143 . S
O1949 Co1948 2.160 . S
C1950 O1951 1.278 . S
C1950 O1958 1.224 . S
O1951 C1950 1.278 . S
C1952 O1953 1.245 . S
C1952 O1964 1.232 . S
O1953 C1952 1.245 . S
O1954 Co1948 2.058 . S
O1954 C1980 1.269 . S
O1955 Co1947 2.074 . S
O1955 C1980 1.257 . S
H1956 C1981 0.930 . S
H1957 C1987 0.930 . S
O1958 Co1947 2.093 . S
O1958 C1950 1.224 . S
H1959 C1991 0.929 . S
H1960 C1993 0.930 . S
H1961 C1994 0.930 . S
H1962 C1992 0.929 . S
H1963 C1995 0.928 . S
O1964 Co1948 2.057 . S
O1964 C1952 1.232 . S
H1965 C1984 0.929 . S
H1966 C1985 0.929 . S
H1967 C1997 0.931 . S
H1968 C1989 0.929 . S
H1969 C1998 0.930 . S
H1970 C1990 0.931 . S
O1971 Co1947 2.097 . S
O1971 C1999 1.214 . S
H1972 C2000 0.929 . S
H1973 C2001 0.929 . S
H1974 C2002 0.930 . S
H1975 C2003 0.929 . S
H1976 C2005 0.930 . S
H1977 C1982 0.930 . S
H1978 C1986 0.930 . S
O1979 Co1948 2.037 . S
O1979 C1999 1.234 . S
C1980 O1954 1.269 . S
C1980 O1955 1.257 . S
C1981 H1956 0.930 . S
C1981 C1984 1.388 . S
C1981 C1986 1.418 . S
C1982 H1977 0.930 . S
C1982 C1985 1.404 . S
C1982 C1986 1.353 . S
N1983 Co1948 2.145 . S
N1983 C1984 1.397 . S
N1983 C1985 1.334 . S
C1984 H1965 0.929 . S
C1984 C1981 1.388 . S
C1984 N1983 1.397 . S
C1985 H1966 0.929 . S
C1985 C1982 1.404 . S
C1985 N1983 1.334 . S
C1986 H1978 0.930 . S
C1986 C1981 1.418 . S
C1986 C1982 1.353 . S
C1987 H1957 0.930 . S
C1987 N1988 1.330 . S
C1987 C1989 1.446 . S
N1988 Co1947 2.151 . S
N1988 C1987 1.330 . S
N1988 C1992 1.418 . S
C1989 H1968 0.929 . S
C1989 C1987 1.446 . S
C1989 C1990 1.332 . S
C1990 H1970 0.931 . S
C1990 C1989 1.332 . S
C1990 C1991 1.267 . S
C1991 H1959 0.929 . S
C1991 C1990 1.267 . S
C1991 C1992 1.251 . S
C1992 H1962 0.929 . S
C1992 N1988 1.418 . S
C1992 C1991 1.251 . S
C1993 H1960 0.930 . S
C1993 C1995 1.406 . S
C1993 C1998 1.261 . S
C1994 H1961 0.930 . S
C1994 N1996 1.325 . S
C1994 C1997 1.357 . S
C1995 H1963 0.928 . S
C1995 C1993 1.406 . S
C1995 N1996 1.261 . S
N1996 Co1947 2.214 . S
N1996 C1994 1.325 . S
N1996 C1995 1.261 . S
C1997 H1967 0.931 . S
C1997 C1994 1.357 . S
C1997 C1998 1.312 . S
C1998 H1969 0.930 . S
C1998 C1993 1.261 . S
C1998 C1997 1.312 . S
C1999 O1971 1.214 . S
C1999 O1979 1.234 . S
C2000 H1972 0.929 . S
C2000 C2003 1.391 . S
C2000 C2005 1.391 . S
C2001 H1973 0.929 . S
C2001 C2002 1.390 . S
C2001 N2004 1.391 . S
C2002 H1974 0.930 . S
C2002 C2001 1.390 . S
C2002 C2003 1.392 . S
C2003 H1975 0.929 . S
C2003 C2000 1.391 . S
C2003 C2002 1.392 . S
N2004 Co1948 2.257 . S
N2004 C2001 1.391 . S
N2004 C2005 1.388 . S
C2005 H1976 0.930 . S
C2005 C2000 1.391 . S
C2005 N2004 1.388 . S
Co2006 O2008 2.143 . S
Co2006 O2014 2.074 . S
Co2006 O2017 2.093 . S
Co2006 O2030 2.097 . S
Co2006 N2047 2.151 . S
Co2006 N2055 2.214 . S
Co2007 O2008 2.160 . S
Co2007 O2013 2.058 . S
Co2007 O2023 2.057 . S
Co2007 O2038 2.037 . S
Co2007 N2042 2.145 . S
Co2007 N2063 2.257 . S
O2008 Co2006 2.143 . S
O2008 Co2007 2.160 . S
C2009 O2010 1.278 . S
C2009 O2017 1.224 . S
O2010 C2009 1.278 . S
C2011 O2012 1.245 . S
C2011 O2023 1.232 . S
O2012 C2011 1.245 . S
O2013 Co2007 2.058 . S
O2013 C2039 1.269 . S
O2014 Co2006 2.074 . S
O2014 C2039 1.257 . S
H2015 C2040 0.930 . S
H2016 C2046 0.930 . S
O2017 Co2006 2.093 . S
O2017 C2009 1.224 . S
H2018 C2050 0.929 . S
H2019 C2052 0.930 . S
H2020 C2053 0.930 . S
H2021 C2051 0.929 . S
H2022 C2054 0.928 . S
O2023 Co2007 2.057 . S
O2023 C2011 1.232 . S
H2024 C2043 0.929 . S
H2025 C2044 0.929 . S
H2026 C2056 0.931 . S
H2027 C2048 0.929 . S
H2028 C2057 0.930 . S
H2029 C2049 0.931 . S
O2030 Co2006 2.097 . S
O2030 C2058 1.214 . S
H2031 C2059 0.929 . S
H2032 C2060 0.929 . S
H2033 C2061 0.930 . S
H2034 C2062 0.929 . S
H2035 C2064 0.930 . S
H2036 C2041 0.930 . S
H2037 C2045 0.930 . S
O2038 Co2007 2.037 . S
O2038 C2058 1.234 . S
C2039 O2013 1.269 . S
C2039 O2014 1.257 . S
C2040 H2015 0.930 . S
C2040 C2043 1.388 . S
C2040 C2045 1.418 . S
C2041 H2036 0.930 . S
C2041 C2044 1.404 . S
C2041 C2045 1.353 . S
N2042 Co2007 2.145 . S
N2042 C2043 1.397 . S
N2042 C2044 1.334 . S
C2043 H2024 0.929 . S
C2043 C2040 1.388 . S
C2043 N2042 1.397 . S
C2044 H2025 0.929 . S
C2044 C2041 1.404 . S
C2044 N2042 1.334 . S
C2045 H2037 0.930 . S
C2045 C2040 1.418 . S
C2045 C2041 1.353 . S
C2046 H2016 0.930 . S
C2046 N2047 1.330 . S
C2046 C2048 1.446 . S
N2047 Co2006 2.151 . S
N2047 C2046 1.330 . S
N2047 C2051 1.418 . S
C2048 H2027 0.929 . S
C2048 C2046 1.446 . S
C2048 C2049 1.332 . S
C2049 H2029 0.931 . S
C2049 C2048 1.332 . S
C2049 C2050 1.267 . S
C2050 H2018 0.929 . S
C2050 C2049 1.267 . S
C2050 C2051 1.251 . S
C2051 H2021 0.929 . S
C2051 N2047 1.418 . S
C2051 C2050 1.251 . S
C2052 H2019 0.930 . S
C2052 C2054 1.406 . S
C2052 C2057 1.261 . S
C2053 H2020 0.930 . S
C2053 N2055 1.325 . S
C2053 C2056 1.357 . S
C2054 H2022 0.928 . S
C2054 C2052 1.406 . S
C2054 N2055 1.261 . S
N2055 Co2006 2.214 . S
N2055 C2053 1.325 . S
N2055 C2054 1.261 . S
C2056 H2026 0.931 . S
C2056 C2053 1.357 . S
C2056 C2057 1.312 . S
C2057 H2028 0.930 . S
C2057 C2052 1.261 . S
C2057 C2056 1.312 . S
C2058 O2030 1.214 . S
C2058 O2038 1.234 . S
C2059 H2031 0.929 . S
C2059 C2062 1.391 . S
C2059 C2064 1.391 . S
C2060 H2032 0.929 . S
C2060 C2061 1.390 . S
C2060 N2063 1.391 . S
C2061 H2033 0.930 . S
C2061 C2060 1.390 . S
C2061 C2062 1.392 . S
C2062 H2034 0.929 . S
C2062 C2059 1.391 . S
C2062 C2061 1.392 . S
N2063 Co2007 2.257 . S
N2063 C2060 1.391 . S
N2063 C2064 1.388 . S
C2064 H2035 0.930 . S
C2064 C2059 1.391 . S
C2064 N2063 1.388 . S
Co2065 O2067 2.143 . S
Co2065 O2073 2.074 . S
Co2065 O2076 2.093 . S
Co2065 O2089 2.097 . S
Co2065 N2106 2.151 . S
Co2065 N2114 2.214 . S
Co2066 O2067 2.160 . S
Co2066 O2072 2.058 . S
Co2066 O2082 2.057 . S
Co2066 O2097 2.037 . S
Co2066 N2101 2.145 . S
Co2066 N2122 2.257 . S
O2067 Co2065 2.143 . S
O2067 Co2066 2.160 . S
C2068 O2069 1.278 . S
C2068 O2076 1.224 . S
O2069 C2068 1.278 . S
C2070 O2071 1.245 . S
C2070 O2082 1.232 . S
O2071 C2070 1.245 . S
O2072 Co2066 2.058 . S
O2072 C2098 1.269 . S
O2073 Co2065 2.074 . S
O2073 C2098 1.257 . S
H2074 C2099 0.930 . S
H2075 C2105 0.930 . S
O2076 Co2065 2.093 . S
O2076 C2068 1.224 . S
H2077 C2109 0.929 . S
H2078 C2111 0.930 . S
H2079 C2112 0.930 . S
H2080 C2110 0.929 . S
H2081 C2113 0.928 . S
O2082 Co2066 2.057 . S
O2082 C2070 1.232 . S
H2083 C2102 0.929 . S
H2084 C2103 0.929 . S
H2085 C2115 0.931 . S
H2086 C2107 0.929 . S
H2087 C2116 0.930 . S
H2088 C2108 0.931 . S
O2089 Co2065 2.097 . S
O2089 C2117 1.214 . S
H2090 C2118 0.929 . S
H2091 C2119 0.929 . S
H2092 C2120 0.930 . S
H2093 C2121 0.929 . S
H2094 C2123 0.930 . S
H2095 C2100 0.930 . S
H2096 C2104 0.930 . S
O2097 Co2066 2.037 . S
O2097 C2117 1.234 . S
C2098 O2072 1.269 . S
C2098 O2073 1.257 . S
C2099 H2074 0.930 . S
C2099 C2102 1.388 . S
C2099 C2104 1.418 . S
C2100 H2095 0.930 . S
C2100 C2103 1.404 . S
C2100 C2104 1.353 . S
N2101 Co2066 2.145 . S
N2101 C2102 1.397 . S
N2101 C2103 1.334 . S
C2102 H2083 0.929 . S
C2102 C2099 1.388 . S
C2102 N2101 1.397 . S
C2103 H2084 0.929 . S
C2103 C2100 1.404 . S
C2103 N2101 1.334 . S
C2104 H2096 0.930 . S
C2104 C2099 1.418 . S
C2104 C2100 1.353 . S
C2105 H2075 0.930 . S
C2105 N2106 1.330 . S
C2105 C2107 1.446 . S
N2106 Co2065 2.151 . S
N2106 C2105 1.330 . S
N2106 C2110 1.418 . S
C2107 H2086 0.929 . S
C2107 C2105 1.446 . S
C2107 C2108 1.332 . S
C2108 H2088 0.931 . S
C2108 C2107 1.332 . S
C2108 C2109 1.267 . S
C2109 H2077 0.929 . S
C2109 C2108 1.267 . S
C2109 C2110 1.251 . S
C2110 H2080 0.929 . S
C2110 N2106 1.418 . S
C2110 C2109 1.251 . S
C2111 H2078 0.930 . S
C2111 C2113 1.406 . S
C2111 C2116 1.261 . S
C2112 H2079 0.930 . S
C2112 N2114 1.325 . S
C2112 C2115 1.357 . S
C2113 H2081 0.928 . S
C2113 C2111 1.406 . S
C2113 N2114 1.261 . S
N2114 Co2065 2.214 . S
N2114 C2112 1.325 . S
N2114 C2113 1.261 . S
C2115 H2085 0.931 . S
C2115 C2112 1.357 . S
C2115 C2116 1.312 . S
C2116 H2087 0.930 . S
C2116 C2111 1.261 . S
C2116 C2115 1.312 . S
C2117 O2089 1.214 . S
C2117 O2097 1.234 . S
C2118 H2090 0.929 . S
C2118 C2121 1.391 . S
C2118 C2123 1.391 . S
C2119 H2091 0.929 . S
C2119 C2120 1.390 . S
C2119 N2122 1.391 . S
C2120 H2092 0.930 . S
C2120 C2119 1.390 . S
C2120 C2121 1.392 . S
C2121 H2093 0.929 . S
C2121 C2118 1.391 . S
C2121 C2120 1.392 . S
N2122 Co2066 2.257 . S
N2122 C2119 1.391 . S
N2122 C2123 1.388 . S
C2123 H2094 0.930 . S
C2123 C2118 1.391 . S
C2123 N2122 1.388 . S
C2124 C2125 1.349 . S
C2124 C2126 1.327 . S
C2124 H2149 0.950 . S
C2125 C2124 1.349 . S
C2125 C2141 1.349 . S
C2126 C2124 1.327 . S
C2126 C2145 1.429 . S
C2126 H2150 0.950 . S
C2127 C2144 1.574 . S
C2127 C2146 1.368 . S
C2127 H2151 0.949 . S
H2128 C2132 0.949 . S
C2129 C2130 1.349 . S
C2129 C2131 1.327 . S
C2129 H2152 0.950 . S
C2130 C2129 1.349 . S
C2130 C2142 1.349 . S
C2131 C2129 1.327 . S
C2131 C2147 1.429 . S
C2131 H2153 0.950 . S
C2132 H2128 0.949 . S
C2132 C2140 1.574 . S
C2132 C2148 1.368 . S
H2133 C2141 0.950 . S
H2134 C2139 0.950 . S
H2135 C2140 0.949 . S
H2136 C2142 0.950 . S
H2137 C2143 0.950 . S
H2138 C2144 0.949 . S
C2139 H2134 0.950 . S
C2139 C2141 1.327 . S
C2139 C2145 1.429 . S
C2140 C2132 1.574 . S
C2140 H2135 0.949 . S
C2140 C2146 1.368 . S
C2141 C2125 1.349 . S
C2141 H2133 0.950 . S
C2141 C2139 1.327 . S
C2142 C2130 1.349 . S
C2142 H2136 0.950 . S
C2142 C2143 1.327 . S
C2143 H2137 0.950 . S
C2143 C2142 1.327 . S
C2143 C2147 1.429 . S
C2144 C2127 1.574 . S
C2144 H2138 0.949 . S
C2144 C2148 1.368 . S
C2145 C2126 1.429 . S
C2145 C2139 1.429 . S
C2145 C2146 1.523 . S
C2146 C2127 1.368 . S
C2146 C2140 1.368 . S
C2146 C2145 1.523 . S
C2147 C2131 1.429 . S
C2147 C2143 1.429 . S
C2147 C2148 1.523 . S
C2148 C2132 1.368 . S
C2148 C2144 1.368 . S
C2148 C2147 1.523 . S
H2149 C2124 0.950 . S
H2150 C2126 0.950 . S
H2151 C2127 0.949 . S
H2152 C2129 0.950 . S
H2153 C2131 0.950 . S
C2154 C2155 1.349 . S
C2154 C2156 1.327 . S
C2154 H2179 0.950 . S
C2155 C2154 1.349 . S
C2155 C2171 1.349 . S
C2156 C2154 1.327 . S
C2156 C2175 1.429 . S
C2156 H2180 0.950 . S
C2157 C2174 1.574 1_545 S
C2157 C2176 1.368 . S
C2157 H2181 0.949 . S
H2158 C2162 0.949 . S
C2159 C2160 1.349 . S
C2159 C2161 1.327 . S
C2159 H2182 0.950 . S
C2160 C2159 1.349 . S
C2160 C2172 1.349 . S
C2161 C2159 1.327 . S
C2161 C2177 1.429 . S
C2161 H2183 0.950 . S
C2162 H2158 0.949 . S
C2162 C2170 1.574 1_565 S
C2162 C2178 1.368 . S
H2163 C2171 0.950 . S
H2164 C2169 0.950 . S
H2165 C2170 0.949 . S
H2166 C2172 0.950 . S
H2167 C2173 0.950 . S
H2168 C2174 0.949 . S
C2169 H2164 0.950 . S
C2169 C2171 1.327 . S
C2169 C2175 1.429 . S
C2170 C2162 1.574 1_545 S
C2170 H2165 0.949 . S
C2170 C2176 1.368 . S
C2171 C2155 1.349 . S
C2171 H2163 0.950 . S
C2171 C2169 1.327 . S
C2172 C2160 1.349 . S
C2172 H2166 0.950 . S
C2172 C2173 1.327 . S
C2173 H2167 0.950 . S
C2173 C2172 1.327 . S
C2173 C2177 1.429 . S
C2174 C2157 1.574 1_565 S
C2174 H2168 0.949 . S
C2174 C2178 1.368 . S
C2175 C2156 1.429 . S
C2175 C2169 1.429 . S
C2175 C2176 1.523 . S
C2176 C2157 1.368 . S
C2176 C2170 1.368 . S
C2176 C2175 1.523 . S
C2177 C2161 1.429 . S
C2177 C2173 1.429 . S
C2177 C2178 1.523 . S
C2178 C2162 1.368 . S
C2178 C2174 1.368 . S
C2178 C2177 1.523 . S
H2179 C2154 0.950 . S
H2180 C2156 0.950 . S
H2181 C2157 0.949 . S
H2182 C2159 0.950 . S
H2183 C2161 0.950 . S
C2184 C2185 1.349 . S
C2184 C2186 1.327 . S
C2184 H2209 0.950 . S
C2185 C2184 1.349 . S
C2185 C2201 1.349 . S
C2186 C2184 1.327 . S
C2186 C2205 1.429 . S
C2186 H2210 0.950 . S
C2187 C2204 1.574 1_655 S
C2187 C2206 1.368 . S
C2187 H2211 0.949 . S
H2188 C2192 0.949 . S
C2189 C2190 1.349 . S
C2189 C2191 1.327 . S
C2189 H2212 0.950 . S
C2190 C2189 1.349 . S
C2190 C2202 1.349 . S
C2191 C2189 1.327 . S
C2191 C2207 1.429 . S
C2191 H2213 0.950 . S
C2192 H2188 0.949 . S
C2192 C2200 1.574 1_455 S
C2192 C2208 1.368 . S
H2193 C2201 0.950 . S
H2194 C2199 0.950 . S
H2195 C2200 0.949 . S
H2196 C2202 0.950 . S
H2197 C2203 0.950 . S
H2198 C2204 0.949 . S
C2199 H2194 0.950 . S
C2199 C2201 1.327 . S
C2199 C2205 1.429 . S
C2200 C2192 1.574 1_655 S
C2200 H2195 0.949 . S
C2200 C2206 1.368 . S
C2201 C2185 1.349 . S
C2201 H2193 0.950 . S
C2201 C2199 1.327 . S
C2202 C2190 1.349 . S
C2202 H2196 0.950 . S
C2202 C2203 1.327 . S
C2203 H2197 0.950 . S
C2203 C2202 1.327 . S
C2203 C2207 1.429 . S
C2204 C2187 1.574 1_455 S
C2204 H2198 0.949 . S
C2204 C2208 1.368 . S
C2205 C2186 1.429 . S
C2205 C2199 1.429 . S
C2205 C2206 1.523 . S
C2206 C2187 1.368 . S
C2206 C2200 1.368 . S
C2206 C2205 1.523 . S
C2207 C2191 1.429 . S
C2207 C2203 1.429 . S
C2207 C2208 1.523 . S
C2208 C2192 1.368 . S
C2208 C2204 1.368 . S
C2208 C2207 1.523 . S
H2209 C2184 0.950 . S
H2210 C2186 0.950 . S
H2211 C2187 0.949 . S
H2212 C2189 0.950 . S
H2213 C2191 0.950 . S
C2214 C2215 1.349 . S
C2214 C2216 1.327 . S
C2214 H2239 0.950 . S
C2215 C2214 1.349 . S
C2215 C2231 1.349 . S
C2216 C2214 1.327 . S
C2216 C2235 1.429 . S
C2216 H2240 0.950 . S
C2217 C2234 1.574 . S
C2217 C2236 1.368 . S
C2217 H2241 0.949 . S
H2218 C2222 0.949 . S
C2219 C2220 1.349 . S
C2219 C2221 1.327 . S
C2219 H2242 0.950 . S
C2220 C2219 1.349 . S
C2220 C2232 1.349 . S
C2221 C2219 1.327 . S
C2221 C2237 1.429 . S
C2221 H2243 0.950 . S
C2222 H2218 0.949 . S
C2222 C2230 1.574 . S
C2222 C2238 1.368 . S
H2223 C2231 0.950 . S
H2224 C2229 0.950 . S
H2225 C2230 0.949 . S
H2226 C2232 0.950 . S
H2227 C2233 0.950 . S
H2228 C2234 0.949 . S
C2229 H2224 0.950 . S
C2229 C2231 1.327 . S
C2229 C2235 1.429 . S
C2230 C2222 1.574 . S
C2230 H2225 0.949 . S
C2230 C2236 1.368 . S
C2231 C2215 1.349 . S
C2231 H2223 0.950 . S
C2231 C2229 1.327 . S
C2232 C2220 1.349 . S
C2232 H2226 0.950 . S
C2232 C2233 1.327 . S
C2233 H2227 0.950 . S
C2233 C2232 1.327 . S
C2233 C2237 1.429 . S
C2234 C2217 1.574 . S
C2234 H2228 0.949 . S
C2234 C2238 1.368 . S
C2235 C2216 1.429 . S
C2235 C2229 1.429 . S
C2235 C2236 1.523 . S
C2236 C2217 1.368 . S
C2236 C2230 1.368 . S
C2236 C2235 1.523 . S
C2237 C2221 1.429 . S
C2237 C2233 1.429 . S
C2237 C2238 1.523 . S
C2238 C2222 1.368 . S
C2238 C2234 1.368 . S
C2238 C2237 1.523 . S
H2239 C2214 0.950 . S
H2240 C2216 0.950 . S
H2241 C2217 0.949 . S
H2242 C2219 0.950 . S
H2243 C2221 0.950 . S
C2244 C2245 1.349 . S
C2244 C2246 1.327 . S
C2244 H2269 0.950 . S
C2245 C2244 1.349 . S
C2245 C2261 1.349 . S
C2246 C2244 1.327 . S
C2246 C2265 1.429 . S
C2246 H2270 0.950 . S
C2247 C2264 1.574 1_545 S
C2247 C2266 1.368 . S
C2247 H2271 0.949 . S
H2248 C2252 0.949 . S
C2249 C2250 1.349 . S
C2249 C2251 1.327 . S
C2249 H2272 0.950 . S
C2250 C2249 1.349 . S
C2250 C2262 1.349 . S
C2251 C2249 1.327 . S
C2251 C2267 1.429 . S
C2251 H2273 0.950 . S
C2252 H2248 0.949 . S
C2252 C2260 1.574 1_565 S
C2252 C2268 1.368 . S
H2253 C2261 0.950 . S
H2254 C2259 0.950 . S
H2255 C2260 0.949 . S
H2256 C2262 0.950 . S
H2257 C2263 0.950 . S
H2258 C2264 0.949 . S
C2259 H2254 0.950 . S
C2259 C2261 1.327 . S
C2259 C2265 1.429 . S
C2260 C2252 1.574 1_545 S
C2260 H2255 0.949 . S
C2260 C2266 1.368 . S
C2261 C2245 1.349 . S
C2261 H2253 0.950 . S
C2261 C2259 1.327 . S
C2262 C2250 1.349 . S
C2262 H2256 0.950 . S
C2262 C2263 1.327 . S
C2263 H2257 0.950 . S
C2263 C2262 1.327 . S
C2263 C2267 1.429 . S
C2264 C2247 1.574 1_565 S
C2264 H2258 0.949 . S
C2264 C2268 1.368 . S
C2265 C2246 1.429 . S
C2265 C2259 1.429 . S
C2265 C2266 1.523 . S
C2266 C2247 1.368 . S
C2266 C2260 1.368 . S
C2266 C2265 1.523 . S
C2267 C2251 1.429 . S
C2267 C2263 1.429 . S
C2267 C2268 1.523 . S
C2268 C2252 1.368 . S
C2268 C2264 1.368 . S
C2268 C2267 1.523 . S
H2269 C2244 0.950 . S
H2270 C2246 0.950 . S
H2271 C2247 0.949 . S
H2272 C2249 0.950 . S
H2273 C2251 0.950 . S
C2274 C2275 1.349 . S
C2274 C2276 1.327 . S
C2274 H2299 0.950 . S
C2275 C2274 1.349 . S
C2275 C2291 1.349 . S
C2276 C2274 1.327 . S
C2276 C2295 1.429 . S
C2276 H2300 0.950 . S
C2277 C2294 1.574 1_455 S
C2277 C2296 1.368 . S
C2277 H2301 0.949 . S
H2278 C2282 0.949 . S
C2279 C2280 1.349 . S
C2279 C2281 1.327 . S
C2279 H2302 0.950 . S
C2280 C2279 1.349 . S
C2280 C2292 1.349 . S
C2281 C2279 1.327 . S
C2281 C2297 1.429 . S
C2281 H2303 0.950 . S
C2282 H2278 0.949 . S
C2282 C2290 1.574 1_655 S
C2282 C2298 1.368 . S
H2283 C2291 0.950 . S
H2284 C2289 0.950 . S
H2285 C2290 0.949 . S
H2286 C2292 0.950 . S
H2287 C2293 0.950 . S
H2288 C2294 0.949 . S
C2289 H2284 0.950 . S
C2289 C2291 1.327 . S
C2289 C2295 1.429 . S
C2290 C2282 1.574 1_455 S
C2290 H2285 0.949 . S
C2290 C2296 1.368 . S
C2291 C2275 1.349 . S
C2291 H2283 0.950 . S
C2291 C2289 1.327 . S
C2292 C2280 1.349 . S
C2292 H2286 0.950 . S
C2292 C2293 1.327 . S
C2293 H2287 0.950 . S
C2293 C2292 1.327 . S
C2293 C2297 1.429 . S
C2294 C2277 1.574 1_655 S
C2294 H2288 0.949 . S
C2294 C2298 1.368 . S
C2295 C2276 1.429 . S
C2295 C2289 1.429 . S
C2295 C2296 1.523 . S
C2296 C2277 1.368 . S
C2296 C2290 1.368 . S
C2296 C2295 1.523 . S
C2297 C2281 1.429 . S
C2297 C2293 1.429 . S
C2297 C2298 1.523 . S
C2298 C2282 1.368 . S
C2298 C2294 1.368 . S
C2298 C2297 1.523 . S
H2299 C2274 0.950 . S
H2300 C2276 0.950 . S
H2301 C2277 0.949 . S
H2302 C2279 0.950 . S
H2303 C2281 0.950 . S
C2304 C2305 1.349 . S
C2304 C2306 1.327 . S
C2304 H2329 0.950 . S
C2305 C2304 1.349 . S
C2305 C2321 1.349 . S
C2306 C2304 1.327 . S
C2306 C2325 1.429 . S
C2306 H2330 0.950 . S
C2307 C2324 1.574 . S
C2307 C2326 1.368 . S
C2307 H2331 0.949 . S
H2308 C2312 0.949 . S
C2309 C2310 1.349 . S
C2309 C2311 1.327 . S
C2309 H2332 0.950 . S
C2310 C2309 1.349 . S
C2310 C2322 1.349 . S
C2311 C2309 1.327 . S
C2311 C2327 1.429 . S
C2311 H2333 0.950 . S
C2312 H2308 0.949 . S
C2312 C2320 1.574 . S
C2312 C2328 1.368 . S
H2313 C2321 0.950 . S
H2314 C2319 0.950 . S
H2315 C2320 0.949 . S
H2316 C2322 0.950 . S
H2317 C2323 0.950 . S
H2318 C2324 0.949 . S
C2319 H2314 0.950 . S
C2319 C2321 1.327 . S
C2319 C2325 1.429 . S
C2320 C2312 1.574 . S
C2320 H2315 0.949 . S
C2320 C2326 1.368 . S
C2321 C2305 1.349 . S
C2321 H2313 0.950 . S
C2321 C2319 1.327 . S
C2322 C2310 1.349 . S
C2322 H2316 0.950 . S
C2322 C2323 1.327 . S
C2323 H2317 0.950 . S
C2323 C2322 1.327 . S
C2323 C2327 1.429 . S
C2324 C2307 1.574 . S
C2324 H2318 0.949 . S
C2324 C2328 1.368 . S
C2325 C2306 1.429 . S
C2325 C2319 1.429 . S
C2325 C2326 1.523 . S
C2326 C2307 1.368 . S
C2326 C2320 1.368 . S
C2326 C2325 1.523 . S
C2327 C2311 1.429 . S
C2327 C2323 1.429 . S
C2327 C2328 1.523 . S
C2328 C2312 1.368 . S
C2328 C2324 1.368 . S
C2328 C2327 1.523 . S
H2329 C2304 0.950 . S
H2330 C2306 0.950 . S
H2331 C2307 0.949 . S
H2332 C2309 0.950 . S
H2333 C2311 0.950 . S
C2334 C2335 1.349 . S
C2334 C2336 1.327 . S
C2334 H2359 0.950 . S
C2335 C2334 1.349 . S
C2335 C2351 1.349 . S
C2336 C2334 1.327 . S
C2336 C2355 1.429 . S
C2336 H2360 0.950 . S
C2337 C2354 1.574 . S
C2337 C2356 1.368 . S
C2337 H2361 0.949 . S
H2338 C2342 0.949 . S
C2339 C2340 1.349 . S
C2339 C2341 1.327 . S
C2339 H2362 0.950 . S
C2340 C2339 1.349 . S
C2340 C2352 1.349 . S
C2341 C2339 1.327 . S
C2341 C2357 1.429 . S
C2341 H2363 0.950 . S
C2342 H2338 0.949 . S
C2342 C2350 1.574 . S
C2342 C2358 1.368 . S
H2343 C2351 0.950 . S
H2344 C2349 0.950 . S
H2345 C2350 0.949 . S
H2346 C2352 0.950 . S
H2347 C2353 0.950 . S
H2348 C2354 0.949 . S
C2349 H2344 0.950 . S
C2349 C2351 1.327 . S
C2349 C2355 1.429 . S
C2350 C2342 1.574 . S
C2350 H2345 0.949 . S
C2350 C2356 1.368 . S
C2351 C2335 1.349 . S
C2351 H2343 0.950 . S
C2351 C2349 1.327 . S
C2352 C2340 1.349 . S
C2352 H2346 0.950 . S
C2352 C2353 1.327 . S
C2353 H2347 0.950 . S
C2353 C2352 1.327 . S
C2353 C2357 1.429 . S
C2354 C2337 1.574 . S
C2354 H2348 0.949 . S
C2354 C2358 1.368 . S
C2355 C2336 1.429 . S
C2355 C2349 1.429 . S
C2355 C2356 1.523 . S
C2356 C2337 1.368 . S
C2356 C2350 1.368 . S
C2356 C2355 1.523 . S
C2357 C2341 1.429 . S
C2357 C2353 1.429 . S
C2357 C2358 1.523 . S
C2358 C2342 1.368 . S
C2358 C2354 1.368 . S
C2358 C2357 1.523 . S
H2359 C2334 0.950 . S
H2360 C2336 0.950 . S
H2361 C2337 0.949 . S
H2362 C2339 0.950 . S
H2363 C2341 0.950 . S
C2364 C2365 1.349 . S
C2364 C2366 1.327 . S
C2364 H2389 0.950 . S
C2365 C2364 1.349 . S
C2365 C2381 1.349 . S
C2366 C2364 1.327 . S
C2366 C2385 1.429 . S
C2366 H2390 0.950 . S
C2367 C2384 1.574 . S
C2367 C2386 1.368 . S
C2367 H2391 0.949 . S
H2368 C2372 0.949 . S
C2369 C2370 1.349 . S
C2369 C2371 1.327 . S
C2369 H2392 0.950 . S
C2370 C2369 1.349 . S
C2370 C2382 1.349 . S
C2371 C2369 1.327 . S
C2371 C2387 1.429 . S
C2371 H2393 0.950 . S
C2372 H2368 0.949 . S
C2372 C2380 1.574 . S
C2372 C2388 1.368 . S
H2373 C2381 0.950 . S
H2374 C2379 0.950 . S
H2375 C2380 0.949 . S
H2376 C2382 0.950 . S
H2377 C2383 0.950 . S
H2378 C2384 0.949 . S
C2379 H2374 0.950 . S
C2379 C2381 1.327 . S
C2379 C2385 1.429 . S
C2380 C2372 1.574 . S
C2380 H2375 0.949 . S
C2380 C2386 1.368 . S
C2381 C2365 1.349 . S
C2381 H2373 0.950 . S
C2381 C2379 1.327 . S
C2382 C2370 1.349 . S
C2382 H2376 0.950 . S
C2382 C2383 1.327 . S
C2383 H2377 0.950 . S
C2383 C2382 1.327 . S
C2383 C2387 1.429 . S
C2384 C2367 1.574 . S
C2384 H2378 0.949 . S
C2384 C2388 1.368 . S
C2385 C2366 1.429 . S
C2385 C2379 1.429 . S
C2385 C2386 1.523 . S
C2386 C2367 1.368 . S
C2386 C2380 1.368 . S
C2386 C2385 1.523 . S
C2387 C2371 1.429 . S
C2387 C2383 1.429 . S
C2387 C2388 1.523 . S
C2388 C2372 1.368 . S
C2388 C2384 1.368 . S
C2388 C2387 1.523 . S
H2389 C2364 0.950 . S
H2390 C2366 0.950 . S
H2391 C2367 0.949 . S
H2392 C2369 0.950 . S
H2393 C2371 0.950 . S
C2394 C2395 1.349 . S
C2394 C2396 1.327 . S
C2394 H2419 0.950 . S
C2395 C2394 1.349 . S
C2395 C2411 1.349 . S
C2396 C2394 1.327 . S
C2396 C2415 1.429 . S
C2396 H2420 0.950 . S
C2397 C2414 1.574 . S
C2397 C2416 1.368 . S
C2397 H2421 0.949 . S
H2398 C2402 0.949 . S
C2399 C2400 1.349 . S
C2399 C2401 1.327 . S
C2399 H2422 0.950 . S
C2400 C2399 1.349 . S
C2400 C2412 1.349 . S
C2401 C2399 1.327 . S
C2401 C2417 1.429 . S
C2401 H2423 0.950 . S
C2402 H2398 0.949 . S
C2402 C2410 1.574 . S
C2402 C2418 1.368 . S
H2403 C2411 0.950 . S
H2404 C2409 0.950 . S
H2405 C2410 0.949 . S
H2406 C2412 0.950 . S
H2407 C2413 0.950 . S
H2408 C2414 0.949 . S
C2409 H2404 0.950 . S
C2409 C2411 1.327 . S
C2409 C2415 1.429 . S
C2410 C2402 1.574 . S
C2410 H2405 0.949 . S
C2410 C2416 1.368 . S
C2411 C2395 1.349 . S
C2411 H2403 0.950 . S
C2411 C2409 1.327 . S
C2412 C2400 1.349 . S
C2412 H2406 0.950 . S
C2412 C2413 1.327 . S
C2413 H2407 0.950 . S
C2413 C2412 1.327 . S
C2413 C2417 1.429 . S
C2414 C2397 1.574 . S
C2414 H2408 0.949 . S
C2414 C2418 1.368 . S
C2415 C2396 1.429 . S
C2415 C2409 1.429 . S
C2415 C2416 1.523 . S
C2416 C2397 1.368 . S
C2416 C2410 1.368 . S
C2416 C2415 1.523 . S
C2417 C2401 1.429 . S
C2417 C2413 1.429 . S
C2417 C2418 1.523 . S
C2418 C2402 1.368 . S
C2418 C2414 1.368 . S
C2418 C2417 1.523 . S
H2419 C2394 0.950 . S
H2420 C2396 0.950 . S
H2421 C2397 0.949 . S
H2422 C2399 0.950 . S
H2423 C2401 0.950 . S
C2424 C2425 1.349 . S
C2424 C2426 1.327 . S
C2424 H2449 0.950 . S
C2425 C2424 1.349 . S
C2425 C2441 1.349 . S
C2426 C2424 1.327 . S
C2426 C2445 1.429 . S
C2426 H2450 0.950 . S
C2427 C2444 1.574 . S
C2427 C2446 1.368 . S
C2427 H2451 0.949 . S
H2428 C2432 0.949 . S
C2429 C2430 1.349 . S
C2429 C2431 1.327 . S
C2429 H2452 0.950 . S
C2430 C2429 1.349 . S
C2430 C2442 1.349 . S
C2431 C2429 1.327 . S
C2431 C2447 1.429 . S
C2431 H2453 0.950 . S
C2432 H2428 0.949 . S
C2432 C2440 1.574 . S
C2432 C2448 1.368 . S
H2433 C2441 0.950 . S
H2434 C2439 0.950 . S
H2435 C2440 0.949 . S
H2436 C2442 0.950 . S
H2437 C2443 0.950 . S
H2438 C2444 0.949 . S
C2439 H2434 0.950 . S
C2439 C2441 1.327 . S
C2439 C2445 1.429 . S
C2440 C2432 1.574 . S
C2440 H2435 0.949 . S
C2440 C2446 1.368 . S
C2441 C2425 1.349 . S
C2441 H2433 0.950 . S
C2441 C2439 1.327 . S
C2442 C2430 1.349 . S
C2442 H2436 0.950 . S
C2442 C2443 1.327 . S
C2443 H2437 0.950 . S
C2443 C2442 1.327 . S
C2443 C2447 1.429 . S
C2444 C2427 1.574 . S
C2444 H2438 0.949 . S
C2444 C2448 1.368 . S
C2445 C2426 1.429 . S
C2445 C2439 1.429 . S
C2445 C2446 1.523 . S
C2446 C2427 1.368 . S
C2446 C2440 1.368 . S
C2446 C2445 1.523 . S
C2447 C2431 1.429 . S
C2447 C2443 1.429 . S
C2447 C2448 1.523 . S
C2448 C2432 1.368 . S
C2448 C2444 1.368 . S
C2448 C2447 1.523 . S
H2449 C2424 0.950 . S
H2450 C2426 0.950 . S
H2451 C2427 0.949 . S
H2452 C2429 0.950 . S
H2453 C2431 0.950 . S
C2454 C2455 1.349 . S
C2454 C2456 1.327 . S
C2454 H2479 0.950 . S
C2455 C2454 1.349 . S
C2455 C2471 1.349 . S
C2456 C2454 1.327 . S
C2456 C2475 1.429 . S
C2456 H2480 0.950 . S
C2457 C2474 1.574 . S
C2457 C2476 1.368 . S
C2457 H2481 0.949 . S
H2458 C2462 0.949 . S
C2459 C2460 1.349 . S
C2459 C2461 1.327 . S
C2459 H2482 0.950 . S
C2460 C2459 1.349 . S
C2460 C2472 1.349 . S
C2461 C2459 1.327 . S
C2461 C2477 1.429 . S
C2461 H2483 0.950 . S
C2462 H2458 0.949 . S
C2462 C2470 1.574 . S
C2462 C2478 1.368 . S
H2463 C2471 0.950 . S
H2464 C2469 0.950 . S
H2465 C2470 0.949 . S
H2466 C2472 0.950 . S
H2467 C2473 0.950 . S
H2468 C2474 0.949 . S
C2469 H2464 0.950 . S
C2469 C2471 1.327 . S
C2469 C2475 1.429 . S
C2470 C2462 1.574 . S
C2470 H2465 0.949 . S
C2470 C2476 1.368 . S
C2471 C2455 1.349 . S
C2471 H2463 0.950 . S
C2471 C2469 1.327 . S
C2472 C2460 1.349 . S
C2472 H2466 0.950 . S
C2472 C2473 1.327 . S
C2473 H2467 0.950 . S
C2473 C2472 1.327 . S
C2473 C2477 1.429 . S
C2474 C2457 1.574 . S
C2474 H2468 0.949 . S
C2474 C2478 1.368 . S
C2475 C2456 1.429 . S
C2475 C2469 1.429 . S
C2475 C2476 1.523 . S
C2476 C2457 1.368 . S
C2476 C2470 1.368 . S
C2476 C2475 1.523 . S
C2477 C2461 1.429 . S
C2477 C2473 1.429 . S
C2477 C2478 1.523 . S
C2478 C2462 1.368 . S
C2478 C2474 1.368 . S
C2478 C2477 1.523 . S
H2479 C2454 0.950 . S
H2480 C2456 0.950 . S
H2481 C2457 0.949 . S
H2482 C2459 0.950 . S
H2483 C2461 0.950 . S
C2484 C2485 1.349 . S
C2484 C2486 1.327 . S
C2484 H2509 0.950 . S
C2485 C2484 1.349 . S
C2485 C2501 1.349 . S
C2486 C2484 1.327 . S
C2486 C2505 1.429 . S
C2486 H2510 0.950 . S
C2487 C2504 1.574 . S
C2487 C2506 1.368 . S
C2487 H2511 0.949 . S
H2488 C2492 0.949 . S
C2489 C2490 1.349 . S
C2489 C2491 1.327 . S
C2489 H2512 0.950 . S
C2490 C2489 1.349 . S
C2490 C2502 1.349 . S
C2491 C2489 1.327 . S
C2491 C2507 1.429 . S
C2491 H2513 0.950 . S
C2492 H2488 0.949 . S
C2492 C2500 1.574 . S
C2492 C2508 1.368 . S
H2493 C2501 0.950 . S
H2494 C2499 0.950 . S
H2495 C2500 0.949 . S
H2496 C2502 0.950 . S
H2497 C2503 0.950 . S
H2498 C2504 0.949 . S
C2499 H2494 0.950 . S
C2499 C2501 1.327 . S
C2499 C2505 1.429 . S
C2500 C2492 1.574 . S
C2500 H2495 0.949 . S
C2500 C2506 1.368 . S
C2501 C2485 1.349 . S
C2501 H2493 0.950 . S
C2501 C2499 1.327 . S
C2502 C2490 1.349 . S
C2502 H2496 0.950 . S
C2502 C2503 1.327 . S
C2503 H2497 0.950 . S
C2503 C2502 1.327 . S
C2503 C2507 1.429 . S
C2504 C2487 1.574 . S
C2504 H2498 0.949 . S
C2504 C2508 1.368 . S
C2505 C2486 1.429 . S
C2505 C2499 1.429 . S
C2505 C2506 1.523 . S
C2506 C2487 1.368 . S
C2506 C2500 1.368 . S
C2506 C2505 1.523 . S
C2507 C2491 1.429 . S
C2507 C2503 1.429 . S
C2507 C2508 1.523 . S
C2508 C2492 1.368 . S
C2508 C2504 1.368 . S
C2508 C2507 1.523 . S
H2509 C2484 0.950 . S
H2510 C2486 0.950 . S
H2511 C2487 0.949 . S
H2512 C2489 0.950 . S
H2513 C2491 0.950 . S
C2514 C2515 1.349 . S
C2514 C2516 1.327 . S
C2514 H2539 0.950 . S
C2515 C2514 1.349 . S
C2515 C2531 1.349 . S
C2516 C2514 1.327 . S
C2516 C2535 1.429 . S
C2516 H2540 0.950 . S
C2517 C2534 1.574 . S
C2517 C2536 1.368 . S
C2517 H2541 0.949 . S
H2518 C2522 0.949 . S
C2519 C2520 1.349 . S
C2519 C2521 1.327 . S
C2519 H2542 0.950 . S
C2520 C2519 1.349 . S
C2520 C2532 1.349 . S
C2521 C2519 1.327 . S
C2521 C2537 1.429 . S
C2521 H2543 0.950 . S
C2522 H2518 0.949 . S
C2522 C2530 1.574 . S
C2522 C2538 1.368 . S
H2523 C2531 0.950 . S
H2524 C2529 0.950 . S
H2525 C2530 0.949 . S
H2526 C2532 0.950 . S
H2527 C2533 0.950 . S
H2528 C2534 0.949 . S
C2529 H2524 0.950 . S
C2529 C2531 1.327 . S
C2529 C2535 1.429 . S
C2530 C2522 1.574 . S
C2530 H2525 0.949 . S
C2530 C2536 1.368 . S
C2531 C2515 1.349 . S
C2531 H2523 0.950 . S
C2531 C2529 1.327 . S
C2532 C2520 1.349 . S
C2532 H2526 0.950 . S
C2532 C2533 1.327 . S
C2533 H2527 0.950 . S
C2533 C2532 1.327 . S
C2533 C2537 1.429 . S
C2534 C2517 1.574 . S
C2534 H2528 0.949 . S
C2534 C2538 1.368 . S
C2535 C2516 1.429 . S
C2535 C2529 1.429 . S
C2535 C2536 1.523 . S
C2536 C2517 1.368 . S
C2536 C2530 1.368 . S
C2536 C2535 1.523 . S
C2537 C2521 1.429 . S
C2537 C2533 1.429 . S
C2537 C2538 1.523 . S
C2538 C2522 1.368 . S
C2538 C2534 1.368 . S
C2538 C2537 1.523 . S
H2539 C2514 0.950 . S
H2540 C2516 0.950 . S
H2541 C2517 0.949 . S
H2542 C2519 0.950 . S
H2543 C2521 0.950 . S
C2544 C2545 1.349 . S
C2544 C2546 1.327 . S
C2544 H2569 0.950 . S
C2545 C2544 1.349 . S
C2545 C2561 1.349 . S
C2546 C2544 1.327 . S
C2546 C2565 1.429 . S
C2546 H2570 0.950 . S
C2547 C2564 1.574 . S
C2547 C2566 1.368 . S
C2547 H2571 0.949 . S
H2548 C2552 0.949 . S
C2549 C2550 1.349 . S
C2549 C2551 1.327 . S
C2549 H2572 0.950 . S
C2550 C2549 1.349 . S
C2550 C2562 1.349 . S
C2551 C2549 1.327 . S
C2551 C2567 1.429 . S
C2551 H2573 0.950 . S
C2552 H2548 0.949 . S
C2552 C2560 1.574 . S
C2552 C2568 1.368 . S
H2553 C2561 0.950 . S
H2554 C2559 0.950 . S
H2555 C2560 0.949 . S
H2556 C2562 0.950 . S
H2557 C2563 0.950 . S
H2558 C2564 0.949 . S
C2559 H2554 0.950 . S
C2559 C2561 1.327 . S
C2559 C2565 1.429 . S
C2560 C2552 1.574 . S
C2560 H2555 0.949 . S
C2560 C2566 1.368 . S
C2561 C2545 1.349 . S
C2561 H2553 0.950 . S
C2561 C2559 1.327 . S
C2562 C2550 1.349 . S
C2562 H2556 0.950 . S
C2562 C2563 1.327 . S
C2563 H2557 0.950 . S
C2563 C2562 1.327 . S
C2563 C2567 1.429 . S
C2564 C2547 1.574 . S
C2564 H2558 0.949 . S
C2564 C2568 1.368 . S
C2565 C2546 1.429 . S
C2565 C2559 1.429 . S
C2565 C2566 1.523 . S
C2566 C2547 1.368 . S
C2566 C2560 1.368 . S
C2566 C2565 1.523 . S
C2567 C2551 1.429 . S
C2567 C2563 1.429 . S
C2567 C2568 1.523 . S
C2568 C2552 1.368 . S
C2568 C2564 1.368 . S
C2568 C2567 1.523 . S
H2569 C2544 0.950 . S
H2570 C2546 0.950 . S
H2571 C2547 0.949 . S
H2572 C2549 0.950 . S
H2573 C2551 0.950 . S
C2574 C2575 1.349 . S
C2574 C2576 1.327 . S
C2574 H2599 0.950 . S
C2575 C2574 1.349 . S
C2575 C2591 1.349 . S
C2576 C2574 1.327 . S
C2576 C2595 1.429 . S
C2576 H2600 0.950 . S
C2577 C2594 1.574 . S
C2577 C2596 1.368 . S
C2577 H2601 0.949 . S
H2578 C2582 0.949 . S
C2579 C2580 1.349 . S
C2579 C2581 1.327 . S
C2579 H2602 0.950 . S
C2580 C2579 1.349 . S
C2580 C2592 1.349 . S
C2581 C2579 1.327 . S
C2581 C2597 1.429 . S
C2581 H2603 0.950 . S
C2582 H2578 0.949 . S
C2582 C2590 1.574 . S
C2582 C2598 1.368 . S
H2583 C2591 0.950 . S
H2584 C2589 0.950 . S
H2585 C2590 0.949 . S
H2586 C2592 0.950 . S
H2587 C2593 0.950 . S
H2588 C2594 0.949 . S
C2589 H2584 0.950 . S
C2589 C2591 1.327 . S
C2589 C2595 1.429 . S
C2590 C2582 1.574 . S
C2590 H2585 0.949 . S
C2590 C2596 1.368 . S
C2591 C2575 1.349 . S
C2591 H2583 0.950 . S
C2591 C2589 1.327 . S
C2592 C2580 1.349 . S
C2592 H2586 0.950 . S
C2592 C2593 1.327 . S
C2593 H2587 0.950 . S
C2593 C2592 1.327 . S
C2593 C2597 1.429 . S
C2594 C2577 1.574 . S
C2594 H2588 0.949 . S
C2594 C2598 1.368 . S
C2595 C2576 1.429 . S
C2595 C2589 1.429 . S
C2595 C2596 1.523 . S
C2596 C2577 1.368 . S
C2596 C2590 1.368 . S
C2596 C2595 1.523 . S
C2597 C2581 1.429 . S
C2597 C2593 1.429 . S
C2597 C2598 1.523 . S
C2598 C2582 1.368 . S
C2598 C2594 1.368 . S
C2598 C2597 1.523 . S
H2599 C2574 0.950 . S
H2600 C2576 0.950 . S
H2601 C2577 0.949 . S
H2602 C2579 0.950 . S
H2603 C2581 0.950 . S
C2604 C2605 1.349 . S
C2604 C2606 1.327 . S
C2604 H2629 0.950 . S
C2605 C2604 1.349 . S
C2605 C2621 1.349 . S
C2606 C2604 1.327 . S
C2606 C2625 1.429 . S
C2606 H2630 0.950 . S
C2607 C2624 1.574 . S
C2607 C2626 1.368 . S
C2607 H2631 0.949 . S
H2608 C2612 0.949 . S
C2609 C2610 1.349 . S
C2609 C2611 1.327 . S
C2609 H2632 0.950 . S
C2610 C2609 1.349 . S
C2610 C2622 1.349 . S
C2611 C2609 1.327 . S
C2611 C2627 1.429 . S
C2611 H2633 0.950 . S
C2612 H2608 0.949 . S
C2612 C2620 1.574 . S
C2612 C2628 1.368 . S
H2613 C2621 0.950 . S
H2614 C2619 0.950 . S
H2615 C2620 0.949 . S
H2616 C2622 0.950 . S
H2617 C2623 0.950 . S
H2618 C2624 0.949 . S
C2619 H2614 0.950 . S
C2619 C2621 1.327 . S
C2619 C2625 1.429 . S
C2620 C2612 1.574 . S
C2620 H2615 0.949 . S
C2620 C2626 1.368 . S
C2621 C2605 1.349 . S
C2621 H2613 0.950 . S
C2621 C2619 1.327 . S
C2622 C2610 1.349 . S
C2622 H2616 0.950 . S
C2622 C2623 1.327 . S
C2623 H2617 0.950 . S
C2623 C2622 1.327 . S
C2623 C2627 1.429 . S
C2624 C2607 1.574 . S
C2624 H2618 0.949 . S
C2624 C2628 1.368 . S
C2625 C2606 1.429 . S
C2625 C2619 1.429 . S
C2625 C2626 1.523 . S
C2626 C2607 1.368 . S
C2626 C2620 1.368 . S
C2626 C2625 1.523 . S
C2627 C2611 1.429 . S
C2627 C2623 1.429 . S
C2627 C2628 1.523 . S
C2628 C2612 1.368 . S
C2628 C2624 1.368 . S
C2628 C2627 1.523 . S
H2629 C2604 0.950 . S
H2630 C2606 0.950 . S
H2631 C2607 0.949 . S
H2632 C2609 0.950 . S
H2633 C2611 0.950 . S
C2634 C2635 1.349 . S
C2634 C2636 1.327 . S
C2634 H2659 0.950 . S
C2635 C2634 1.349 . S
C2635 C2651 1.349 . S
C2636 C2634 1.327 . S
C2636 C2655 1.429 . S
C2636 H2660 0.950 . S
C2637 C2654 1.574 . S
C2637 C2656 1.368 . S
C2637 H2661 0.949 . S
H2638 C2642 0.949 . S
C2639 C2640 1.349 . S
C2639 C2641 1.327 . S
C2639 H2662 0.950 . S
C2640 C2639 1.349 . S
C2640 C2652 1.349 . S
C2641 C2639 1.327 . S
C2641 C2657 1.429 . S
C2641 H2663 0.950 . S
C2642 H2638 0.949 . S
C2642 C2650 1.574 . S
C2642 C2658 1.368 . S
H2643 C2651 0.950 . S
H2644 C2649 0.950 . S
H2645 C2650 0.949 . S
H2646 C2652 0.950 . S
H2647 C2653 0.950 . S
H2648 C2654 0.949 . S
C2649 H2644 0.950 . S
C2649 C2651 1.327 . S
C2649 C2655 1.429 . S
C2650 C2642 1.574 . S
C2650 H2645 0.949 . S
C2650 C2656 1.368 . S
C2651 C2635 1.349 . S
C2651 H2643 0.950 . S
C2651 C2649 1.327 . S
C2652 C2640 1.349 . S
C2652 H2646 0.950 . S
C2652 C2653 1.327 . S
C2653 H2647 0.950 . S
C2653 C2652 1.327 . S
C2653 C2657 1.429 . S
C2654 C2637 1.574 . S
C2654 H2648 0.949 . S
C2654 C2658 1.368 . S
C2655 C2636 1.429 . S
C2655 C2649 1.429 . S
C2655 C2656 1.523 . S
C2656 C2637 1.368 . S
C2656 C2650 1.368 . S
C2656 C2655 1.523 . S
C2657 C2641 1.429 . S
C2657 C2653 1.429 . S
C2657 C2658 1.523 . S
C2658 C2642 1.368 . S
C2658 C2654 1.368 . S
C2658 C2657 1.523 . S
H2659 C2634 0.950 . S
H2660 C2636 0.950 . S
H2661 C2637 0.949 . S
H2662 C2639 0.950 . S
H2663 C2641 0.950 . S
C2664 C2665 1.349 . S
C2664 C2666 1.327 . S
C2664 H2689 0.950 . S
C2665 C2664 1.349 . S
C2665 C2681 1.349 . S
C2666 C2664 1.327 . S
C2666 C2685 1.429 . S
C2666 H2690 0.950 . S
C2667 C2684 1.574 1_556 S
C2667 C2686 1.368 . S
C2667 H2691 0.949 . S
H2668 C2672 0.949 . S
C2669 C2670 1.349 . S
C2669 C2671 1.327 . S
C2669 H2692 0.950 . S
C2670 C2669 1.349 . S
C2670 C2682 1.349 . S
C2671 C2669 1.327 . S
C2671 C2687 1.429 . S
C2671 H2693 0.950 . S
C2672 H2668 0.949 . S
C2672 C2680 1.574 . S
C2672 C2688 1.368 1_556 S
H2673 C2681 0.950 . S
H2674 C2679 0.950 . S
H2675 C2680 0.949 . S
H2676 C2682 0.950 . S
H2677 C2683 0.950 . S
H2678 C2684 0.949 . S
C2679 H2674 0.950 . S
C2679 C2681 1.327 . S
C2679 C2685 1.429 . S
C2680 C2672 1.574 . S
C2680 H2675 0.949 . S
C2680 C2686 1.368 . S
C2681 C2665 1.349 . S
C2681 H2673 0.950 . S
C2681 C2679 1.327 . S
C2682 C2670 1.349 . S
C2682 H2676 0.950 . S
C2682 C2683 1.327 . S
C2683 H2677 0.950 . S
C2683 C2682 1.327 . S
C2683 C2687 1.429 . S
C2684 C2667 1.574 1_554 S
C2684 H2678 0.949 . S
C2684 C2688 1.368 . S
C2685 C2666 1.429 . S
C2685 C2679 1.429 . S
C2685 C2686 1.523 . S
C2686 C2667 1.368 . S
C2686 C2680 1.368 . S
C2686 C2685 1.523 . S
C2687 C2671 1.429 . S
C2687 C2683 1.429 . S
C2687 C2688 1.523 . S
C2688 C2672 1.368 1_554 S
C2688 C2684 1.368 . S
C2688 C2687 1.523 . S
H2689 C2664 0.950 . S
H2690 C2666 0.950 . S
H2691 C2667 0.949 . S
H2692 C2669 0.950 . S
H2693 C2671 0.950 . S
C2694 C2695 1.349 . S
C2694 C2696 1.327 . S
C2694 H2719 0.950 . S
C2695 C2694 1.349 . S
C2695 C2711 1.349 . S
C2696 C2694 1.327 . S
C2696 C2715 1.429 . S
C2696 H2720 0.950 . S
C2697 C2714 1.574 . S
C2697 C2716 1.368 1_556 S
C2697 H2721 0.949 1_556 S
H2698 C2702 0.949 . S
C2699 C2700 1.349 . S
C2699 C2701 1.327 . S
C2699 H2722 0.950 . S
C2700 C2699 1.349 . S
C2700 C2712 1.349 . S
C2701 C2699 1.327 . S
C2701 C2717 1.429 . S
C2701 H2723 0.950 . S
C2702 H2698 0.949 . S
C2702 C2710 1.574 . S
C2702 C2718 1.368 . S
H2703 C2711 0.950 . S
H2704 C2709 0.950 . S
H2705 C2710 0.949 1_554 S
H2706 C2712 0.950 . S
H2707 C2713 0.950 . S
H2708 C2714 0.949 . S
C2709 H2704 0.950 . S
C2709 C2711 1.327 . S
C2709 C2715 1.429 . S
C2710 C2702 1.574 . S
C2710 H2705 0.949 1_556 S
C2710 C2716 1.368 1_556 S
C2711 C2695 1.349 . S
C2711 H2703 0.950 . S
C2711 C2709 1.327 . S
C2712 C2700 1.349 . S
C2712 H2706 0.950 . S
C2712 C2713 1.327 . S
C2713 H2707 0.950 . S
C2713 C2712 1.327 . S
C2713 C2717 1.429 . S
C2714 C2697 1.574 . S
C2714 H2708 0.949 . S
C2714 C2718 1.368 . S
C2715 C2696 1.429 . S
C2715 C2709 1.429 . S
C2715 C2716 1.523 . S
C2716 C2697 1.368 1_554 S
C2716 C2710 1.368 1_554 S
C2716 C2715 1.523 . S
C2717 C2701 1.429 . S
C2717 C2713 1.429 . S
C2717 C2718 1.523 . S
C2718 C2702 1.368 . S
C2718 C2714 1.368 . S
C2718 C2717 1.523 . S
H2719 C2694 0.950 . S
H2720 C2696 0.950 . S
H2721 C2697 0.949 1_554 S
H2722 C2699 0.950 . S
H2723 C2701 0.950 . S
C2724 C2725 1.349 . S
C2724 C2726 1.327 . S
C2724 H2749 0.950 . S
C2725 C2724 1.349 . S
C2725 C2741 1.349 . S
C2726 C2724 1.327 . S
C2726 C2745 1.429 . S
C2726 H2750 0.950 . S
C2727 C2744 1.574 . S
C2727 C2746 1.368 1_556 S
C2727 H2751 0.949 1_556 S
H2728 C2732 0.949 . S
C2729 C2730 1.349 . S
C2729 C2731 1.327 . S
C2729 H2752 0.950 . S
C2730 C2729 1.349 . S
C2730 C2742 1.349 . S
C2731 C2729 1.327 . S
C2731 C2747 1.429 . S
C2731 H2753 0.950 . S
C2732 H2728 0.949 . S
C2732 C2740 1.574 . S
C2732 C2748 1.368 . S
H2733 C2741 0.950 . S
H2734 C2739 0.950 . S
H2735 C2740 0.949 1_554 S
H2736 C2742 0.950 . S
H2737 C2743 0.950 . S
H2738 C2744 0.949 . S
C2739 H2734 0.950 . S
C2739 C2741 1.327 . S
C2739 C2745 1.429 . S
C2740 C2732 1.574 . S
C2740 H2735 0.949 1_556 S
C2740 C2746 1.368 1_556 S
C2741 C2725 1.349 . S
C2741 H2733 0.950 . S
C2741 C2739 1.327 . S
C2742 C2730 1.349 . S
C2742 H2736 0.950 . S
C2742 C2743 1.327 . S
C2743 H2737 0.950 . S
C2743 C2742 1.327 . S
C2743 C2747 1.429 . S
C2744 C2727 1.574 . S
C2744 H2738 0.949 . S
C2744 C2748 1.368 . S
C2745 C2726 1.429 . S
C2745 C2739 1.429 . S
C2745 C2746 1.523 . S
C2746 C2727 1.368 1_554 S
C2746 C2740 1.368 1_554 S
C2746 C2745 1.523 . S
C2747 C2731 1.429 . S
C2747 C2743 1.429 . S
C2747 C2748 1.523 . S
C2748 C2732 1.368 . S
C2748 C2744 1.368 . S
C2748 C2747 1.523 . S
H2749 C2724 0.950 . S
H2750 C2726 0.950 . S
H2751 C2727 0.949 1_554 S
H2752 C2729 0.950 . S
H2753 C2731 0.950 . S
C2754 C2755 1.349 . S
C2754 C2756 1.327 . S
C2754 H2779 0.950 . S
C2755 C2754 1.349 . S
C2755 C2771 1.349 . S
C2756 C2754 1.327 . S
C2756 C2775 1.429 . S
C2756 H2780 0.950 . S
C2757 C2774 1.574 . S
C2757 C2776 1.368 . S
C2757 H2781 0.949 . S
H2758 C2762 0.949 . S
C2759 C2760 1.349 . S
C2759 C2761 1.327 . S
C2759 H2782 0.950 . S
C2760 C2759 1.349 . S
C2760 C2772 1.349 . S
C2761 C2759 1.327 . S
C2761 C2777 1.429 . S
C2761 H2783 0.950 . S
C2762 H2758 0.949 . S
C2762 C2770 1.574 . S
C2762 C2778 1.368 . S
H2763 C2771 0.950 . S
H2764 C2769 0.950 . S
H2765 C2770 0.949 . S
H2766 C2772 0.950 . S
H2767 C2773 0.950 . S
H2768 C2774 0.949 . S
C2769 H2764 0.950 . S
C2769 C2771 1.327 . S
C2769 C2775 1.429 . S
C2770 C2762 1.574 . S
C2770 H2765 0.949 . S
C2770 C2776 1.368 . S
C2771 C2755 1.349 . S
C2771 H2763 0.950 . S
C2771 C2769 1.327 . S
C2772 C2760 1.349 . S
C2772 H2766 0.950 . S
C2772 C2773 1.327 . S
C2773 H2767 0.950 . S
C2773 C2772 1.327 . S
C2773 C2777 1.429 . S
C2774 C2757 1.574 . S
C2774 H2768 0.949 . S
C2774 C2778 1.368 . S
C2775 C2756 1.429 . S
C2775 C2769 1.429 . S
C2775 C2776 1.523 . S
C2776 C2757 1.368 . S
C2776 C2770 1.368 . S
C2776 C2775 1.523 . S
C2777 C2761 1.429 . S
C2777 C2773 1.429 . S
C2777 C2778 1.523 . S
C2778 C2762 1.368 . S
C2778 C2774 1.368 . S
C2778 C2777 1.523 . S
H2779 C2754 0.950 . S
H2780 C2756 0.950 . S
H2781 C2757 0.949 . S
H2782 C2759 0.950 . S
H2783 C2761 0.950 . S
C2784 C2785 1.349 . S
C2784 C2786 1.327 . S
C2784 H2809 0.950 . S
C2785 C2784 1.349 . S
C2785 C2801 1.349 . S
C2786 C2784 1.327 . S
C2786 C2805 1.429 . S
C2786 H2810 0.950 . S
C2787 C2804 1.574 . S
C2787 C2806 1.368 . S
C2787 H2811 0.949 . S
H2788 C2792 0.949 . S
C2789 C2790 1.349 . S
C2789 C2791 1.327 . S
C2789 H2812 0.950 . S
C2790 C2789 1.349 . S
C2790 C2802 1.349 . S
C2791 C2789 1.327 . S
C2791 C2807 1.429 . S
C2791 H2813 0.950 . S
C2792 H2788 0.949 . S
C2792 C2800 1.574 . S
C2792 C2808 1.368 . S
H2793 C2801 0.950 . S
H2794 C2799 0.950 . S
H2795 C2800 0.949 . S
H2796 C2802 0.950 . S
H2797 C2803 0.950 . S
H2798 C2804 0.949 . S
C2799 H2794 0.950 . S
C2799 C2801 1.327 . S
C2799 C2805 1.429 . S
C2800 C2792 1.574 . S
C2800 H2795 0.949 . S
C2800 C2806 1.368 . S
C2801 C2785 1.349 . S
C2801 H2793 0.950 . S
C2801 C2799 1.327 . S
C2802 C2790 1.349 . S
C2802 H2796 0.950 . S
C2802 C2803 1.327 . S
C2803 H2797 0.950 . S
C2803 C2802 1.327 . S
C2803 C2807 1.429 . S
C2804 C2787 1.574 . S
C2804 H2798 0.949 . S
C2804 C2808 1.368 . S
C2805 C2786 1.429 . S
C2805 C2799 1.429 . S
C2805 C2806 1.523 . S
C2806 C2787 1.368 . S
C2806 C2800 1.368 . S
C2806 C2805 1.523 . S
C2807 C2791 1.429 . S
C2807 C2803 1.429 . S
C2807 C2808 1.523 . S
C2808 C2792 1.368 . S
C2808 C2804 1.368 . S
C2808 C2807 1.523 . S
H2809 C2784 0.950 . S
H2810 C2786 0.950 . S
H2811 C2787 0.949 . S
H2812 C2789 0.950 . S
H2813 C2791 0.950 . S
C2814 C2815 1.349 . S
C2814 C2816 1.327 . S
C2814 H2839 0.950 . S
C2815 C2814 1.349 . S
C2815 C2831 1.349 . S
C2816 C2814 1.327 . S
C2816 C2835 1.429 . S
C2816 H2840 0.950 . S
C2817 C2834 1.574 . S
C2817 C2836 1.368 . S
C2817 H2841 0.949 . S
H2818 C2822 0.949 . S
C2819 C2820 1.349 . S
C2819 C2821 1.327 . S
C2819 H2842 0.950 . S
C2820 C2819 1.349 . S
C2820 C2832 1.349 . S
C2821 C2819 1.327 . S
C2821 C2837 1.429 . S
C2821 H2843 0.950 . S
C2822 H2818 0.949 . S
C2822 C2830 1.574 . S
C2822 C2838 1.368 . S
H2823 C2831 0.950 . S
H2824 C2829 0.950 . S
H2825 C2830 0.949 . S
H2826 C2832 0.950 . S
H2827 C2833 0.950 . S
H2828 C2834 0.949 . S
C2829 H2824 0.950 . S
C2829 C2831 1.327 . S
C2829 C2835 1.429 . S
C2830 C2822 1.574 . S
C2830 H2825 0.949 . S
C2830 C2836 1.368 . S
C2831 C2815 1.349 . S
C2831 H2823 0.950 . S
C2831 C2829 1.327 . S
C2832 C2820 1.349 . S
C2832 H2826 0.950 . S
C2832 C2833 1.327 . S
C2833 H2827 0.950 . S
C2833 C2832 1.327 . S
C2833 C2837 1.429 . S
C2834 C2817 1.574 . S
C2834 H2828 0.949 . S
C2834 C2838 1.368 . S
C2835 C2816 1.429 . S
C2835 C2829 1.429 . S
C2835 C2836 1.523 . S
C2836 C2817 1.368 . S
C2836 C2830 1.368 . S
C2836 C2835 1.523 . S
C2837 C2821 1.429 . S
C2837 C2833 1.429 . S
C2837 C2838 1.523 . S
C2838 C2822 1.368 . S
C2838 C2834 1.368 . S
C2838 C2837 1.523 . S
H2839 C2814 0.950 . S
H2840 C2816 0.950 . S
H2841 C2817 0.949 . S
H2842 C2819 0.950 . S
H2843 C2821 0.950 . S
C2844 C2845 1.349 . S
C2844 C2846 1.327 . S
C2844 H2869 0.950 . S
C2845 C2844 1.349 . S
C2845 C2861 1.349 . S
C2846 C2844 1.327 . S
C2846 C2865 1.429 . S
C2846 H2870 0.950 . S
C2847 C2864 1.574 . S
C2847 C2866 1.368 1_554 S
C2847 H2871 0.949 1_554 S
H2848 C2852 0.949 . S
C2849 C2850 1.349 . S
C2849 C2851 1.327 . S
C2849 H2872 0.950 . S
C2850 C2849 1.349 . S
C2850 C2862 1.349 . S
C2851 C2849 1.327 . S
C2851 C2867 1.429 . S
C2851 H2873 0.950 . S
C2852 H2848 0.949 . S
C2852 C2860 1.574 . S
C2852 C2868 1.368 . S
H2853 C2861 0.950 . S
H2854 C2859 0.950 . S
H2855 C2860 0.949 1_556 S
H2856 C2862 0.950 . S
H2857 C2863 0.950 . S
H2858 C2864 0.949 . S
C2859 H2854 0.950 . S
C2859 C2861 1.327 . S
C2859 C2865 1.429 . S
C2860 C2852 1.574 . S
C2860 H2855 0.949 1_554 S
C2860 C2866 1.368 1_554 S
C2861 C2845 1.349 . S
C2861 H2853 0.950 . S
C2861 C2859 1.327 . S
C2862 C2850 1.349 . S
C2862 H2856 0.950 . S
C2862 C2863 1.327 . S
C2863 H2857 0.950 . S
C2863 C2862 1.327 . S
C2863 C2867 1.429 . S
C2864 C2847 1.574 . S
C2864 H2858 0.949 . S
C2864 C2868 1.368 . S
C2865 C2846 1.429 . S
C2865 C2859 1.429 . S
C2865 C2866 1.523 . S
C2866 C2847 1.368 1_556 S
C2866 C2860 1.368 1_556 S
C2866 C2865 1.523 . S
C2867 C2851 1.429 . S
C2867 C2863 1.429 . S
C2867 C2868 1.523 . S
C2868 C2852 1.368 . S
C2868 C2864 1.368 . S
C2868 C2867 1.523 . S
H2869 C2844 0.950 . S
H2870 C2846 0.950 . S
H2871 C2847 0.949 1_556 S
H2872 C2849 0.950 . S
H2873 C2851 0.950 . S
C2874 C2875 1.349 . S
C2874 C2876 1.327 . S
C2874 H2899 0.950 . S
C2875 C2874 1.349 . S
C2875 C2891 1.349 . S
C2876 C2874 1.327 . S
C2876 C2895 1.429 . S
C2876 H2900 0.950 . S
C2877 C2894 1.574 . S
C2877 C2896 1.368 1_554 S
C2877 H2901 0.949 . S
H2878 C2882 0.949 . S
C2879 C2880 1.349 . S
C2879 C2881 1.327 . S
C2879 H2902 0.950 . S
C2880 C2879 1.349 . S
C2880 C2892 1.349 . S
C2881 C2879 1.327 . S
C2881 C2897 1.429 . S
C2881 H2903 0.950 . S
C2882 H2878 0.949 . S
C2882 C2890 1.574 1_554 S
C2882 C2898 1.368 . S
H2883 C2891 0.950 . S
H2884 C2889 0.950 . S
H2885 C2890 0.949 . S
H2886 C2892 0.950 . S
H2887 C2893 0.950 . S
H2888 C2894 0.949 . S
C2889 H2884 0.950 . S
C2889 C2891 1.327 . S
C2889 C2895 1.429 . S
C2890 C2882 1.574 1_556 S
C2890 H2885 0.949 . S
C2890 C2896 1.368 . S
C2891 C2875 1.349 . S
C2891 H2883 0.950 . S
C2891 C2889 1.327 . S
C2892 C2880 1.349 . S
C2892 H2886 0.950 . S
C2892 C2893 1.327 . S
C2893 H2887 0.950 . S
C2893 C2892 1.327 . S
C2893 C2897 1.429 . S
C2894 C2877 1.574 . S
C2894 H2888 0.949 . S
C2894 C2898 1.368 . S
C2895 C2876 1.429 . S
C2895 C2889 1.429 . S
C2895 C2896 1.523 . S
C2896 C2877 1.368 1_556 S
C2896 C2890 1.368 . S
C2896 C2895 1.523 . S
C2897 C2881 1.429 . S
C2897 C2893 1.429 . S
C2897 C2898 1.523 . S
C2898 C2882 1.368 . S
C2898 C2894 1.368 . S
C2898 C2897 1.523 . S
H2899 C2874 0.950 . S
H2900 C2876 0.950 . S
H2901 C2877 0.949 . S
H2902 C2879 0.950 . S
H2903 C2881 0.950 . S
C2904 C2905 1.349 . S
C2904 C2906 1.327 . S
C2904 H2929 0.950 . S
C2905 C2904 1.349 . S
C2905 C2921 1.349 . S
C2906 C2904 1.327 . S
C2906 C2925 1.429 . S
C2906 H2930 0.950 . S
C2907 C2924 1.574 . S
C2907 C2926 1.368 . S
C2907 H2931 0.949 . S
H2908 C2912 0.949 . S
C2909 C2910 1.349 . S
C2909 C2911 1.327 . S
C2909 H2932 0.950 . S
C2910 C2909 1.349 . S
C2910 C2922 1.349 . S
C2911 C2909 1.327 . S
C2911 C2927 1.429 . S
C2911 H2933 0.950 . S
C2912 H2908 0.949 . S
C2912 C2920 1.574 1_556 S
C2912 C2928 1.368 . S
H2913 C2921 0.950 . S
H2914 C2919 0.950 . S
H2915 C2920 0.949 . S
H2916 C2922 0.950 . S
H2917 C2923 0.950 . S
H2918 C2924 0.949 . S
C2919 H2914 0.950 . S
C2919 C2921 1.327 . S
C2919 C2925 1.429 . S
C2920 C2912 1.574 1_554 S
C2920 H2915 0.949 . S
C2920 C2926 1.368 . S
C2921 C2905 1.349 . S
C2921 H2913 0.950 . S
C2921 C2919 1.327 . S
C2922 C2910 1.349 . S
C2922 H2916 0.950 . S
C2922 C2923 1.327 . S
C2923 H2917 0.950 . S
C2923 C2922 1.327 . S
C2923 C2927 1.429 . S
C2924 C2907 1.574 . S
C2924 H2918 0.949 . S
C2924 C2928 1.368 1_554 S
C2925 C2906 1.429 . S
C2925 C2919 1.429 . S
C2925 C2926 1.523 . S
C2926 C2907 1.368 . S
C2926 C2920 1.368 . S
C2926 C2925 1.523 . S
C2927 C2911 1.429 . S
C2927 C2923 1.429 . S
C2927 C2928 1.523 . S
C2928 C2912 1.368 . S
C2928 C2924 1.368 1_556 S
C2928 C2927 1.523 . S
H2929 C2904 0.950 . S
H2930 C2906 0.950 . S
H2931 C2907 0.949 . S
H2932 C2909 0.950 . S
H2933 C2911 0.950 . S
C2934 C2935 1.349 . S
C2934 C2936 1.327 . S
C2934 H2959 0.950 . S
C2935 C2934 1.349 . S
C2935 C2951 1.349 . S
C2936 C2934 1.327 . S
C2936 C2955 1.429 . S
C2936 H2960 0.950 . S
C2937 C2954 1.574 . S
C2937 C2956 1.368 . S
C2937 H2961 0.949 . S
H2938 C2942 0.949 . S
C2939 C2940 1.349 . S
C2939 C2941 1.327 . S
C2939 H2962 0.950 . S
C2940 C2939 1.349 . S
C2940 C2952 1.349 . S
C2941 C2939 1.327 . S
C2941 C2957 1.429 . S
C2941 H2963 0.950 . S
C2942 H2938 0.949 . S
C2942 C2950 1.574 . S
C2942 C2958 1.368 . S
H2943 C2951 0.950 . S
H2944 C2949 0.950 . S
H2945 C2950 0.949 . S
H2946 C2952 0.950 . S
H2947 C2953 0.950 . S
H2948 C2954 0.949 . S
C2949 H2944 0.950 . S
C2949 C2951 1.327 . S
C2949 C2955 1.429 . S
C2950 C2942 1.574 . S
C2950 H2945 0.949 . S
C2950 C2956 1.368 . S
C2951 C2935 1.349 . S
C2951 H2943 0.950 . S
C2951 C2949 1.327 . S
C2952 C2940 1.349 . S
C2952 H2946 0.950 . S
C2952 C2953 1.327 . S
C2953 H2947 0.950 . S
C2953 C2952 1.327 . S
C2953 C2957 1.429 . S
C2954 C2937 1.574 . S
C2954 H2948 0.949 . S
C2954 C2958 1.368 . S
C2955 C2936 1.429 . S
C2955 C2949 1.429 . S
C2955 C2956 1.523 . S
C2956 C2937 1.368 . S
C2956 C2950 1.368 . S
C2956 C2955 1.523 . S
C2957 C2941 1.429 . S
C2957 C2953 1.429 . S
C2957 C2958 1.523 . S
C2958 C2942 1.368 . S
C2958 C2954 1.368 . S
C2958 C2957 1.523 . S
H2959 C2934 0.950 . S
H2960 C2936 0.950 . S
H2961 C2937 0.949 . S
H2962 C2939 0.950 . S
H2963 C2941 0.950 . S
C2964 C2965 1.349 . S
C2964 C2966 1.327 . S
C2964 H2989 0.950 . S
C2965 C2964 1.349 . S
C2965 C2981 1.349 . S
C2966 C2964 1.327 . S
C2966 C2985 1.429 . S
C2966 H2990 0.950 . S
C2967 C2984 1.574 . S
C2967 C2986 1.368 . S
C2967 H2991 0.949 . S
H2968 C2972 0.949 . S
C2969 C2970 1.349 . S
C2969 C2971 1.327 . S
C2969 H2992 0.950 . S
C2970 C2969 1.349 . S
C2970 C2982 1.349 . S
C2971 C2969 1.327 . S
C2971 C2987 1.429 . S
C2971 H2993 0.950 . S
C2972 H2968 0.949 . S
C2972 C2980 1.574 . S
C2972 C2988 1.368 . S
H2973 C2981 0.950 . S
H2974 C2979 0.950 . S
H2975 C2980 0.949 . S
H2976 C2982 0.950 . S
H2977 C2983 0.950 . S
H2978 C2984 0.949 . S
C2979 H2974 0.950 . S
C2979 C2981 1.327 . S
C2979 C2985 1.429 . S
C2980 C2972 1.574 . S
C2980 H2975 0.949 . S
C2980 C2986 1.368 . S
C2981 C2965 1.349 . S
C2981 H2973 0.950 . S
C2981 C2979 1.327 . S
C2982 C2970 1.349 . S
C2982 H2976 0.950 . S
C2982 C2983 1.327 . S
C2983 H2977 0.950 . S
C2983 C2982 1.327 . S
C2983 C2987 1.429 . S
C2984 C2967 1.574 . S
C2984 H2978 0.949 . S
C2984 C2988 1.368 . S
C2985 C2966 1.429 . S
C2985 C2979 1.429 . S
C2985 C2986 1.523 . S
C2986 C2967 1.368 . S
C2986 C2980 1.368 . S
C2986 C2985 1.523 . S
C2987 C2971 1.429 . S
C2987 C2983 1.429 . S
C2987 C2988 1.523 . S
C2988 C2972 1.368 . S
C2988 C2984 1.368 . S
C2988 C2987 1.523 . S
H2989 C2964 0.950 . S
H2990 C2966 0.950 . S
H2991 C2967 0.949 . S
H2992 C2969 0.950 . S
H2993 C2971 0.950 . S
C2994 C2995 1.349 . S
C2994 C2996 1.327 . S
C2994 H3019 0.950 . S
C2995 C2994 1.349 . S
C2995 C3011 1.349 . S
C2996 C2994 1.327 . S
C2996 C3015 1.429 . S
C2996 H3020 0.950 . S
C2997 C3014 1.574 . S
C2997 C3016 1.368 . S
C2997 H3021 0.949 . S
H2998 C3002 0.949 . S
C2999 C3000 1.349 . S
C2999 C3001 1.327 . S
C2999 H3022 0.950 . S
C3000 C2999 1.349 . S
C3000 C3012 1.349 . S
C3001 C2999 1.327 . S
C3001 C3017 1.429 . S
C3001 H3023 0.950 . S
C3002 H2998 0.949 . S
C3002 C3010 1.574 . S
C3002 C3018 1.368 . S
H3003 C3011 0.950 . S
H3004 C3009 0.950 . S
H3005 C3010 0.949 . S
H3006 C3012 0.950 . S
H3007 C3013 0.950 . S
H3008 C3014 0.949 . S
C3009 H3004 0.950 . S
C3009 C3011 1.327 . S
C3009 C3015 1.429 . S
C3010 C3002 1.574 . S
C3010 H3005 0.949 . S
C3010 C3016 1.368 . S
C3011 C2995 1.349 . S
C3011 H3003 0.950 . S
C3011 C3009 1.327 . S
C3012 C3000 1.349 . S
C3012 H3006 0.950 . S
C3012 C3013 1.327 . S
C3013 H3007 0.950 . S
C3013 C3012 1.327 . S
C3013 C3017 1.429 . S
C3014 C2997 1.574 . S
C3014 H3008 0.949 . S
C3014 C3018 1.368 . S
C3015 C2996 1.429 . S
C3015 C3009 1.429 . S
C3015 C3016 1.523 . S
C3016 C2997 1.368 . S
C3016 C3010 1.368 . S
C3016 C3015 1.523 . S
C3017 C3001 1.429 . S
C3017 C3013 1.429 . S
C3017 C3018 1.523 . S
C3018 C3002 1.368 . S
C3018 C3014 1.368 . S
C3018 C3017 1.523 . S
H3019 C2994 0.950 . S
H3020 C2996 0.950 . S
H3021 C2997 0.949 . S
H3022 C2999 0.950 . S
H3023 C3001 0.950 . S
C3024 C3025 1.349 . S
C3024 C3026 1.327 . S
C3024 H3049 0.950 . S
C3025 C3024 1.349 . S
C3025 C3041 1.349 . S
C3026 C3024 1.327 . S
C3026 C3045 1.429 . S
C3026 H3050 0.950 . S
C3027 C3044 1.574 . S
C3027 C3046 1.368 . S
C3027 H3051 0.949 . S
H3028 C3032 0.949 . S
C3029 C3030 1.349 . S
C3029 C3031 1.327 . S
C3029 H3052 0.950 . S
C3030 C3029 1.349 . S
C3030 C3042 1.349 . S
C3031 C3029 1.327 . S
C3031 C3047 1.429 . S
C3031 H3053 0.950 . S
C3032 H3028 0.949 . S
C3032 C3040 1.574 . S
C3032 C3048 1.368 . S
H3033 C3041 0.950 . S
H3034 C3039 0.950 . S
H3035 C3040 0.949 . S
H3036 C3042 0.950 . S
H3037 C3043 0.950 . S
H3038 C3044 0.949 . S
C3039 H3034 0.950 . S
C3039 C3041 1.327 . S
C3039 C3045 1.429 . S
C3040 C3032 1.574 . S
C3040 H3035 0.949 . S
C3040 C3046 1.368 . S
C3041 C3025 1.349 . S
C3041 H3033 0.950 . S
C3041 C3039 1.327 . S
C3042 C3030 1.349 . S
C3042 H3036 0.950 . S
C3042 C3043 1.327 . S
C3043 H3037 0.950 . S
C3043 C3042 1.327 . S
C3043 C3047 1.429 . S
C3044 C3027 1.574 . S
C3044 H3038 0.949 . S
C3044 C3048 1.368 . S
C3045 C3026 1.429 . S
C3045 C3039 1.429 . S
C3045 C3046 1.523 . S
C3046 C3027 1.368 . S
C3046 C3040 1.368 . S
C3046 C3045 1.523 . S
C3047 C3031 1.429 . S
C3047 C3043 1.429 . S
C3047 C3048 1.523 . S
C3048 C3032 1.368 . S
C3048 C3044 1.368 . S
C3048 C3047 1.523 . S
H3049 C3024 0.950 . S
H3050 C3026 0.950 . S
H3051 C3027 0.949 . S
H3052 C3029 0.950 . S
H3053 C3031 0.950 . S
C3054 C3055 1.349 . S
C3054 C3056 1.327 . S
C3054 H3079 0.950 . S
C3055 C3054 1.349 . S
C3055 C3071 1.349 . S
C3056 C3054 1.327 . S
C3056 C3075 1.429 . S
C3056 H3080 0.950 . S
C3057 C3074 1.574 . S
C3057 C3076 1.368 . S
C3057 H3081 0.949 . S
H3058 C3062 0.949 . S
C3059 C3060 1.349 . S
C3059 C3061 1.327 . S
C3059 H3082 0.950 . S
C3060 C3059 1.349 . S
C3060 C3072 1.349 . S
C3061 C3059 1.327 . S
C3061 C3077 1.429 . S
C3061 H3083 0.950 . S
C3062 H3058 0.949 . S
C3062 C3070 1.574 . S
C3062 C3078 1.368 . S
H3063 C3071 0.950 . S
H3064 C3069 0.950 . S
H3065 C3070 0.949 . S
H3066 C3072 0.950 . S
H3067 C3073 0.950 . S
H3068 C3074 0.949 . S
C3069 H3064 0.950 . S
C3069 C3071 1.327 . S
C3069 C3075 1.429 . S
C3070 C3062 1.574 . S
C3070 H3065 0.949 . S
C3070 C3076 1.368 . S
C3071 C3055 1.349 . S
C3071 H3063 0.950 . S
C3071 C3069 1.327 . S
C3072 C3060 1.349 . S
C3072 H3066 0.950 . S
C3072 C3073 1.327 . S
C3073 H3067 0.950 . S
C3073 C3072 1.327 . S
C3073 C3077 1.429 . S
C3074 C3057 1.574 . S
C3074 H3068 0.949 . S
C3074 C3078 1.368 . S
C3075 C3056 1.429 . S
C3075 C3069 1.429 . S
C3075 C3076 1.523 . S
C3076 C3057 1.368 . S
C3076 C3070 1.368 . S
C3076 C3075 1.523 . S
C3077 C3061 1.429 . S
C3077 C3073 1.429 . S
C3077 C3078 1.523 . S
C3078 C3062 1.368 . S
C3078 C3074 1.368 . S
C3078 C3077 1.523 . S
H3079 C3054 0.950 . S
H3080 C3056 0.950 . S
H3081 C3057 0.949 . S
H3082 C3059 0.950 . S
H3083 C3061 0.950 . S
C3084 C3085 1.349 . S
C3084 C3086 1.327 . S
C3084 H3109 0.950 . S
C3085 C3084 1.349 . S
C3085 C3101 1.349 . S
C3086 C3084 1.327 . S
C3086 C3105 1.429 . S
C3086 H3110 0.950 . S
C3087 C3104 1.574 . S
C3087 C3106 1.368 . S
C3087 H3111 0.949 . S
H3088 C3092 0.949 . S
C3089 C3090 1.349 . S
C3089 C3091 1.327 . S
C3089 H3112 0.950 . S
C3090 C3089 1.349 . S
C3090 C3102 1.349 . S
C3091 C3089 1.327 . S
C3091 C3107 1.429 . S
C3091 H3113 0.950 . S
C3092 H3088 0.949 . S
C3092 C3100 1.574 . S
C3092 C3108 1.368 . S
H3093 C3101 0.950 . S
H3094 C3099 0.950 . S
H3095 C3100 0.949 . S
H3096 C3102 0.950 . S
H3097 C3103 0.950 . S
H3098 C3104 0.949 . S
C3099 H3094 0.950 . S
C3099 C3101 1.327 . S
C3099 C3105 1.429 . S
C3100 C3092 1.574 . S
C3100 H3095 0.949 . S
C3100 C3106 1.368 . S
C3101 C3085 1.349 . S
C3101 H3093 0.950 . S
C3101 C3099 1.327 . S
C3102 C3090 1.349 . S
C3102 H3096 0.950 . S
C3102 C3103 1.327 . S
C3103 H3097 0.950 . S
C3103 C3102 1.327 . S
C3103 C3107 1.429 . S
C3104 C3087 1.574 . S
C3104 H3098 0.949 . S
C3104 C3108 1.368 . S
C3105 C3086 1.429 . S
C3105 C3099 1.429 . S
C3105 C3106 1.523 . S
C3106 C3087 1.368 . S
C3106 C3100 1.368 . S
C3106 C3105 1.523 . S
C3107 C3091 1.429 . S
C3107 C3103 1.429 . S
C3107 C3108 1.523 . S
C3108 C3092 1.368 . S
C3108 C3104 1.368 . S
C3108 C3107 1.523 . S
H3109 C3084 0.950 . S
H3110 C3086 0.950 . S
H3111 C3087 0.949 . S
H3112 C3089 0.950 . S
H3113 C3091 0.950 . S
C3114 C3115 1.349 . S
C3114 C3116 1.327 . S
C3114 H3139 0.950 . S
C3115 C3114 1.349 . S
C3115 C3131 1.349 . S
C3116 C3114 1.327 . S
C3116 C3135 1.429 . S
C3116 H3140 0.950 . S
C3117 C3134 1.574 . S
C3117 C3136 1.368 . S
C3117 H3141 0.949 . S
H3118 C3122 0.949 . S
C3119 C3120 1.349 . S
C3119 C3121 1.327 . S
C3119 H3142 0.950 1_556 S
C3120 C3119 1.349 . S
C3120 C3132 1.349 . S
C3121 C3119 1.327 . S
C3121 C3137 1.429 . S
C3121 H3143 0.950 . S
C3122 H3118 0.949 . S
C3122 C3130 1.574 . S
C3122 C3138 1.368 . S
H3123 C3131 0.950 . S
H3124 C3129 0.950 . S
H3125 C3130 0.949 . S
H3126 C3132 0.950 . S
H3127 C3133 0.950 . S
H3128 C3134 0.949 . S
C3129 H3124 0.950 . S
C3129 C3131 1.327 . S
C3129 C3135 1.429 . S
C3130 C3122 1.574 . S
C3130 H3125 0.949 . S
C3130 C3136 1.368 . S
C3131 C3115 1.349 . S
C3131 H3123 0.950 . S
C3131 C3129 1.327 . S
C3132 C3120 1.349 . S
C3132 H3126 0.950 . S
C3132 C3133 1.327 . S
C3133 H3127 0.950 . S
C3133 C3132 1.327 . S
C3133 C3137 1.429 . S
C3134 C3117 1.574 . S
C3134 H3128 0.949 . S
C3134 C3138 1.368 . S
C3135 C3116 1.429 . S
C3135 C3129 1.429 . S
C3135 C3136 1.523 . S
C3136 C3117 1.368 . S
C3136 C3130 1.368 . S
C3136 C3135 1.523 . S
C3137 C3121 1.429 . S
C3137 C3133 1.429 . S
C3137 C3138 1.523 . S
C3138 C3122 1.368 . S
C3138 C3134 1.368 . S
C3138 C3137 1.523 . S
H3139 C3114 0.950 . S
H3140 C3116 0.950 . S
H3141 C3117 0.949 . S
H3142 C3119 0.950 1_554 S
H3143 C3121 0.950 . S
C3144 C3145 1.349 . S
C3144 C3146 1.327 . S
C3144 H3169 0.950 1_556 S
C3145 C3144 1.349 . S
C3145 C3161 1.349 . S
C3146 C3144 1.327 . S
C3146 C3165 1.429 . S
C3146 H3170 0.950 . S
C3147 C3164 1.574 . S
C3147 C3166 1.368 . S
C3147 H3171 0.949 . S
H3148 C3152 0.949 . S
C3149 C3150 1.349 . S
C3149 C3151 1.327 . S
C3149 H3172 0.950 . S
C3150 C3149 1.349 . S
C3150 C3162 1.349 . S
C3151 C3149 1.327 . S
C3151 C3167 1.429 . S
C3151 H3173 0.950 . S
C3152 H3148 0.949 . S
C3152 C3160 1.574 . S
C3152 C3168 1.368 . S
H3153 C3161 0.950 . S
H3154 C3159 0.950 . S
H3155 C3160 0.949 . S
H3156 C3162 0.950 . S
H3157 C3163 0.950 . S
H3158 C3164 0.949 . S
C3159 H3154 0.950 . S
C3159 C3161 1.327 . S
C3159 C3165 1.429 . S
C3160 C3152 1.574 . S
C3160 H3155 0.949 . S
C3160 C3166 1.368 . S
C3161 C3145 1.349 . S
C3161 H3153 0.950 . S
C3161 C3159 1.327 . S
C3162 C3150 1.349 . S
C3162 H3156 0.950 . S
C3162 C3163 1.327 . S
C3163 H3157 0.950 . S
C3163 C3162 1.327 . S
C3163 C3167 1.429 . S
C3164 C3147 1.574 . S
C3164 H3158 0.949 . S
C3164 C3168 1.368 . S
C3165 C3146 1.429 . S
C3165 C3159 1.429 . S
C3165 C3166 1.523 . S
C3166 C3147 1.368 . S
C3166 C3160 1.368 . S
C3166 C3165 1.523 . S
C3167 C3151 1.429 . S
C3167 C3163 1.429 . S
C3167 C3168 1.523 . S
C3168 C3152 1.368 . S
C3168 C3164 1.368 . S
C3168 C3167 1.523 . S
H3169 C3144 0.950 1_554 S
H3170 C3146 0.950 . S
H3171 C3147 0.949 . S
H3172 C3149 0.950 . S
H3173 C3151 0.950 . S
C3174 C3175 1.349 . S
C3174 C3176 1.327 . S
C3174 H3199 0.950 . S
C3175 C3174 1.349 . S
C3175 C3191 1.349 . S
C3176 C3174 1.327 . S
C3176 C3195 1.429 . S
C3176 H3200 0.950 . S
C3177 C3194 1.574 . S
C3177 C3196 1.368 . S
C3177 H3201 0.949 . S
H3178 C3182 0.949 . S
C3179 C3180 1.349 . S
C3179 C3181 1.327 . S
C3179 H3202 0.950 . S
C3180 C3179 1.349 . S
C3180 C3192 1.349 . S
C3181 C3179 1.327 . S
C3181 C3197 1.429 . S
C3181 H3203 0.950 . S
C3182 H3178 0.949 . S
C3182 C3190 1.574 . S
C3182 C3198 1.368 . S
H3183 C3191 0.950 . S
H3184 C3189 0.950 . S
H3185 C3190 0.949 . S
H3186 C3192 0.950 1_554 S
H3187 C3193 0.950 . S
H3188 C3194 0.949 . S
C3189 H3184 0.950 . S
C3189 C3191 1.327 . S
C3189 C3195 1.429 . S
C3190 C3182 1.574 . S
C3190 H3185 0.949 . S
C3190 C3196 1.368 . S
C3191 C3175 1.349 . S
C3191 H3183 0.950 . S
C3191 C3189 1.327 . S
C3192 C3180 1.349 . S
C3192 H3186 0.950 1_556 S
C3192 C3193 1.327 . S
C3193 H3187 0.950 . S
C3193 C3192 1.327 . S
C3193 C3197 1.429 . S
C3194 C3177 1.574 . S
C3194 H3188 0.949 . S
C3194 C3198 1.368 . S
C3195 C3176 1.429 . S
C3195 C3189 1.429 . S
C3195 C3196 1.523 . S
C3196 C3177 1.368 . S
C3196 C3190 1.368 . S
C3196 C3195 1.523 . S
C3197 C3181 1.429 . S
C3197 C3193 1.429 . S
C3197 C3198 1.523 . S
C3198 C3182 1.368 . S
C3198 C3194 1.368 . S
C3198 C3197 1.523 . S
H3199 C3174 0.950 . S
H3200 C3176 0.950 . S
H3201 C3177 0.949 . S
H3202 C3179 0.950 . S
H3203 C3181 0.950 . S
C3204 C3205 1.349 . S
C3204 C3206 1.327 . S
C3204 H3229 0.950 . S
C3205 C3204 1.349 . S
C3205 C3221 1.349 . S
C3206 C3204 1.327 . S
C3206 C3225 1.429 . S
C3206 H3230 0.950 . S
C3207 C3224 1.574 . S
C3207 C3226 1.368 . S
C3207 H3231 0.949 . S
H3208 C3212 0.949 . S
C3209 C3210 1.349 . S
C3209 C3211 1.327 . S
C3209 H3232 0.950 . S
C3210 C3209 1.349 . S
C3210 C3222 1.349 . S
C3211 C3209 1.327 . S
C3211 C3227 1.429 . S
C3211 H3233 0.950 . S
C3212 H3208 0.949 . S
C3212 C3220 1.574 . S
C3212 C3228 1.368 . S
H3213 C3221 0.950 . S
H3214 C3219 0.950 . S
H3215 C3220 0.949 . S
H3216 C3222 0.950 . S
H3217 C3223 0.950 . S
H3218 C3224 0.949 . S
C3219 H3214 0.950 . S
C3219 C3221 1.327 . S
C3219 C3225 1.429 . S
C3220 C3212 1.574 . S
C3220 H3215 0.949 . S
C3220 C3226 1.368 . S
C3221 C3205 1.349 . S
C3221 H3213 0.950 . S
C3221 C3219 1.327 . S
C3222 C3210 1.349 . S
C3222 H3216 0.950 . S
C3222 C3223 1.327 . S
C3223 H3217 0.950 . S
C3223 C3222 1.327 . S
C3223 C3227 1.429 . S
C3224 C3207 1.574 . S
C3224 H3218 0.949 . S
C3224 C3228 1.368 . S
C3225 C3206 1.429 . S
C3225 C3219 1.429 . S
C3225 C3226 1.523 . S
C3226 C3207 1.368 . S
C3226 C3220 1.368 . S
C3226 C3225 1.523 . S
C3227 C3211 1.429 . S
C3227 C3223 1.429 . S
C3227 C3228 1.523 . S
C3228 C3212 1.368 . S
C3228 C3224 1.368 . S
C3228 C3227 1.523 . S
H3229 C3204 0.950 . S
H3230 C3206 0.950 . S
H3231 C3207 0.949 . S
H3232 C3209 0.950 . S
H3233 C3211 0.950 . S
C3234 C3235 1.349 . S
C3234 C3236 1.327 . S
C3234 H3259 0.950 . S
C3235 C3234 1.349 . S
C3235 C3251 1.349 . S
C3236 C3234 1.327 . S
C3236 C3255 1.429 . S
C3236 H3260 0.950 . S
C3237 C3254 1.574 . S
C3237 C3256 1.368 . S
C3237 H3261 0.949 . S
H3238 C3242 0.949 . S
C3239 C3240 1.349 . S
C3239 C3241 1.327 . S
C3239 H3262 0.950 . S
C3240 C3239 1.349 . S
C3240 C3252 1.349 . S
C3241 C3239 1.327 . S
C3241 C3257 1.429 . S
C3241 H3263 0.950 . S
C3242 H3238 0.949 . S
C3242 C3250 1.574 . S
C3242 C3258 1.368 . S
H3243 C3251 0.950 . S
H3244 C3249 0.950 . S
H3245 C3250 0.949 . S
H3246 C3252 0.950 . S
H3247 C3253 0.950 . S
H3248 C3254 0.949 . S
C3249 H3244 0.950 . S
C3249 C3251 1.327 . S
C3249 C3255 1.429 . S
C3250 C3242 1.574 . S
C3250 H3245 0.949 . S
C3250 C3256 1.368 . S
C3251 C3235 1.349 . S
C3251 H3243 0.950 . S
C3251 C3249 1.327 . S
C3252 C3240 1.349 . S
C3252 H3246 0.950 . S
C3252 C3253 1.327 . S
C3253 H3247 0.950 . S
C3253 C3252 1.327 . S
C3253 C3257 1.429 . S
C3254 C3237 1.574 . S
C3254 H3248 0.949 . S
C3254 C3258 1.368 . S
C3255 C3236 1.429 . S
C3255 C3249 1.429 . S
C3255 C3256 1.523 . S
C3256 C3237 1.368 . S
C3256 C3250 1.368 . S
C3256 C3255 1.523 . S
C3257 C3241 1.429 . S
C3257 C3253 1.429 . S
C3257 C3258 1.523 . S
C3258 C3242 1.368 . S
C3258 C3254 1.368 . S
C3258 C3257 1.523 . S
H3259 C3234 0.950 . S
H3260 C3236 0.950 . S
H3261 C3237 0.949 . S
H3262 C3239 0.950 . S
H3263 C3241 0.950 . S
C3264 C3265 1.349 . S
C3264 C3266 1.327 . S
C3264 H3289 0.950 . S
C3265 C3264 1.349 . S
C3265 C3281 1.349 . S
C3266 C3264 1.327 . S
C3266 C3285 1.429 . S
C3266 H3290 0.950 . S
C3267 C3284 1.574 . S
C3267 C3286 1.368 . S
C3267 H3291 0.949 . S
H3268 C3272 0.949 . S
C3269 C3270 1.349 . S
C3269 C3271 1.327 . S
C3269 H3292 0.950 . S
C3270 C3269 1.349 . S
C3270 C3282 1.349 . S
C3271 C3269 1.327 . S
C3271 C3287 1.429 . S
C3271 H3293 0.950 . S
C3272 H3268 0.949 . S
C3272 C3280 1.574 . S
C3272 C3288 1.368 . S
H3273 C3281 0.950 . S
H3274 C3279 0.950 . S
H3275 C3280 0.949 . S
H3276 C3282 0.950 . S
H3277 C3283 0.950 . S
H3278 C3284 0.949 . S
C3279 H3274 0.950 . S
C3279 C3281 1.327 . S
C3279 C3285 1.429 . S
C3280 C3272 1.574 . S
C3280 H3275 0.949 . S
C3280 C3286 1.368 . S
C3281 C3265 1.349 . S
C3281 H3273 0.950 . S
C3281 C3279 1.327 . S
C3282 C3270 1.349 . S
C3282 H3276 0.950 . S
C3282 C3283 1.327 . S
C3283 H3277 0.950 . S
C3283 C3282 1.327 . S
C3283 C3287 1.429 . S
C3284 C3267 1.574 . S
C3284 H3278 0.949 . S
C3284 C3288 1.368 . S
C3285 C3266 1.429 . S
C3285 C3279 1.429 . S
C3285 C3286 1.523 . S
C3286 C3267 1.368 . S
C3286 C3280 1.368 . S
C3286 C3285 1.523 . S
C3287 C3271 1.429 . S
C3287 C3283 1.429 . S
C3287 C3288 1.523 . S
C3288 C3272 1.368 . S
C3288 C3284 1.368 . S
C3288 C3287 1.523 . S
H3289 C3264 0.950 . S
H3290 C3266 0.950 . S
H3291 C3267 0.949 . S
H3292 C3269 0.950 . S
H3293 C3271 0.950 . S
C3294 C3295 1.349 . S
C3294 C3296 1.327 . S
C3294 H3319 0.950 . S
C3295 C3294 1.349 . S
C3295 C3311 1.349 . S
C3296 C3294 1.327 . S
C3296 C3315 1.429 . S
C3296 H3320 0.950 . S
C3297 C3314 1.574 . S
C3297 C3316 1.368 . S
C3297 H3321 0.949 . S
H3298 C3302 0.949 . S
C3299 C3300 1.349 . S
C3299 C3301 1.327 . S
C3299 H3322 0.950 . S
C3300 C3299 1.349 . S
C3300 C3312 1.349 . S
C3301 C3299 1.327 . S
C3301 C3317 1.429 . S
C3301 H3323 0.950 . S
C3302 H3298 0.949 . S
C3302 C3310 1.574 . S
C3302 C3318 1.368 . S
H3303 C3311 0.950 . S
H3304 C3309 0.950 . S
H3305 C3310 0.949 . S
H3306 C3312 0.950 . S
H3307 C3313 0.950 . S
H3308 C3314 0.949 . S
C3309 H3304 0.950 . S
C3309 C3311 1.327 . S
C3309 C3315 1.429 . S
C3310 C3302 1.574 . S
C3310 H3305 0.949 . S
C3310 C3316 1.368 . S
C3311 C3295 1.349 . S
C3311 H3303 0.950 . S
C3311 C3309 1.327 . S
C3312 C3300 1.349 . S
C3312 H3306 0.950 . S
C3312 C3313 1.327 . S
C3313 H3307 0.950 . S
C3313 C3312 1.327 . S
C3313 C3317 1.429 . S
C3314 C3297 1.574 . S
C3314 H3308 0.949 . S
C3314 C3318 1.368 . S
C3315 C3296 1.429 . S
C3315 C3309 1.429 . S
C3315 C3316 1.523 . S
C3316 C3297 1.368 . S
C3316 C3310 1.368 . S
C3316 C3315 1.523 . S
C3317 C3301 1.429 . S
C3317 C3313 1.429 . S
C3317 C3318 1.523 . S
C3318 C3302 1.368 . S
C3318 C3314 1.368 . S
C3318 C3317 1.523 . S
H3319 C3294 0.950 . S
H3320 C3296 0.950 . S
H3321 C3297 0.949 . S
H3322 C3299 0.950 . S
H3323 C3301 0.950 . S
C3324 C3325 1.349 . S
C3324 C3326 1.327 . S
C3324 H3349 0.950 . S
C3325 C3324 1.349 . S
C3325 C3341 1.349 . S
C3326 C3324 1.327 . S
C3326 C3345 1.429 . S
C3326 H3350 0.950 . S
C3327 C3344 1.574 . S
C3327 C3346 1.368 . S
C3327 H3351 0.949 . S
H3328 C3332 0.949 . S
C3329 C3330 1.349 . S
C3329 C3331 1.327 . S
C3329 H3352 0.950 . S
C3330 C3329 1.349 . S
C3330 C3342 1.349 . S
C3331 C3329 1.327 . S
C3331 C3347 1.429 . S
C3331 H3353 0.950 . S
C3332 H3328 0.949 . S
C3332 C3340 1.574 . S
C3332 C3348 1.368 . S
H3333 C3341 0.950 . S
H3334 C3339 0.950 . S
H3335 C3340 0.949 . S
H3336 C3342 0.950 . S
H3337 C3343 0.950 . S
H3338 C3344 0.949 . S
C3339 H3334 0.950 . S
C3339 C3341 1.327 . S
C3339 C3345 1.429 . S
C3340 C3332 1.574 . S
C3340 H3335 0.949 . S
C3340 C3346 1.368 . S
C3341 C3325 1.349 . S
C3341 H3333 0.950 . S
C3341 C3339 1.327 . S
C3342 C3330 1.349 . S
C3342 H3336 0.950 . S
C3342 C3343 1.327 . S
C3343 H3337 0.950 . S
C3343 C3342 1.327 . S
C3343 C3347 1.429 . S
C3344 C3327 1.574 . S
C3344 H3338 0.949 . S
C3344 C3348 1.368 . S
C3345 C3326 1.429 . S
C3345 C3339 1.429 . S
C3345 C3346 1.523 . S
C3346 C3327 1.368 . S
C3346 C3340 1.368 . S
C3346 C3345 1.523 . S
C3347 C3331 1.429 . S
C3347 C3343 1.429 . S
C3347 C3348 1.523 . S
C3348 C3332 1.368 . S
C3348 C3344 1.368 . S
C3348 C3347 1.523 . S
H3349 C3324 0.950 . S
H3350 C3326 0.950 . S
H3351 C3327 0.949 . S
H3352 C3329 0.950 . S
H3353 C3331 0.950 . S
C3354 C3355 1.349 . S
C3354 C3356 1.327 . S
C3354 H3379 0.950 . S
C3355 C3354 1.349 . S
C3355 C3371 1.349 . S
C3356 C3354 1.327 . S
C3356 C3375 1.429 . S
C3356 H3380 0.950 . S
C3357 C3374 1.574 . S
C3357 C3376 1.368 . S
C3357 H3381 0.949 . S
H3358 C3362 0.949 . S
C3359 C3360 1.349 . S
C3359 C3361 1.327 . S
C3359 H3382 0.950 . S
C3360 C3359 1.349 . S
C3360 C3372 1.349 . S
C3361 C3359 1.327 . S
C3361 C3377 1.429 . S
C3361 H3383 0.950 . S
C3362 H3358 0.949 . S
C3362 C3370 1.574 . S
C3362 C3378 1.368 . S
H3363 C3371 0.950 . S
H3364 C3369 0.950 . S
H3365 C3370 0.949 . S
H3366 C3372 0.950 . S
H3367 C3373 0.950 . S
H3368 C3374 0.949 . S
C3369 H3364 0.950 . S
C3369 C3371 1.327 . S
C3369 C3375 1.429 . S
C3370 C3362 1.574 . S
C3370 H3365 0.949 . S
C3370 C3376 1.368 . S
C3371 C3355 1.349 . S
C3371 H3363 0.950 . S
C3371 C3369 1.327 . S
C3372 C3360 1.349 . S
C3372 H3366 0.950 . S
C3372 C3373 1.327 . S
C3373 H3367 0.950 . S
C3373 C3372 1.327 . S
C3373 C3377 1.429 . S
C3374 C3357 1.574 . S
C3374 H3368 0.949 . S
C3374 C3378 1.368 . S
C3375 C3356 1.429 . S
C3375 C3369 1.429 . S
C3375 C3376 1.523 . S
C3376 C3357 1.368 . S
C3376 C3370 1.368 . S
C3376 C3375 1.523 . S
C3377 C3361 1.429 . S
C3377 C3373 1.429 . S
C3377 C3378 1.523 . S
C3378 C3362 1.368 . S
C3378 C3374 1.368 . S
C3378 C3377 1.523 . S
H3379 C3354 0.950 . S
H3380 C3356 0.950 . S
H3381 C3357 0.949 . S
H3382 C3359 0.950 . S
H3383 C3361 0.950 . S
C3384 C3385 1.349 . S
C3384 C3386 1.327 . S
C3384 H3409 0.950 . S
C3385 C3384 1.349 . S
C3385 C3401 1.349 . S
C3386 C3384 1.327 . S
C3386 C3405 1.429 . S
C3386 H3410 0.950 . S
C3387 C3404 1.574 . S
C3387 C3406 1.368 . S
C3387 H3411 0.949 . S
H3388 C3392 0.949 . S
C3389 C3390 1.349 . S
C3389 C3391 1.327 . S
C3389 H3412 0.950 . S
C3390 C3389 1.349 . S
C3390 C3402 1.349 . S
C3391 C3389 1.327 . S
C3391 C3407 1.429 . S
C3391 H3413 0.950 . S
C3392 H3388 0.949 . S
C3392 C3400 1.574 . S
C3392 C3408 1.368 . S
H3393 C3401 0.950 . S
H3394 C3399 0.950 . S
H3395 C3400 0.949 . S
H3396 C3402 0.950 . S
H3397 C3403 0.950 . S
H3398 C3404 0.949 . S
C3399 H3394 0.950 . S
C3399 C3401 1.327 . S
C3399 C3405 1.429 . S
C3400 C3392 1.574 . S
C3400 H3395 0.949 . S
C3400 C3406 1.368 . S
C3401 C3385 1.349 . S
C3401 H3393 0.950 . S
C3401 C3399 1.327 . S
C3402 C3390 1.349 . S
C3402 H3396 0.950 . S
C3402 C3403 1.327 . S
C3403 H3397 0.950 . S
C3403 C3402 1.327 . S
C3403 C3407 1.429 . S
C3404 C3387 1.574 . S
C3404 H3398 0.949 . S
C3404 C3408 1.368 . S
C3405 C3386 1.429 . S
C3405 C3399 1.429 . S
C3405 C3406 1.523 . S
C3406 C3387 1.368 . S
C3406 C3400 1.368 . S
C3406 C3405 1.523 . S
C3407 C3391 1.429 . S
C3407 C3403 1.429 . S
C3407 C3408 1.523 . S
C3408 C3392 1.368 . S
C3408 C3404 1.368 . S
C3408 C3407 1.523 . S
H3409 C3384 0.950 . S
H3410 C3386 0.950 . S
H3411 C3387 0.949 . S
H3412 C3389 0.950 . S
H3413 C3391 0.950 . S
C3414 C3415 1.349 . S
C3414 C3416 1.327 . S
C3414 H3439 0.950 . S
C3415 C3414 1.349 . S
C3415 C3431 1.349 . S
C3416 C3414 1.327 . S
C3416 C3435 1.429 . S
C3416 H3440 0.950 . S
C3417 C3434 1.574 . S
C3417 C3436 1.368 . S
C3417 H3441 0.949 . S
H3418 C3422 0.949 . S
C3419 C3420 1.349 . S
C3419 C3421 1.327 . S
C3419 H3442 0.950 . S
C3420 C3419 1.349 . S
C3420 C3432 1.349 . S
C3421 C3419 1.327 . S
C3421 C3437 1.429 . S
C3421 H3443 0.950 . S
C3422 H3418 0.949 . S
C3422 C3430 1.574 . S
C3422 C3438 1.368 . S
H3423 C3431 0.950 . S
H3424 C3429 0.950 . S
H3425 C3430 0.949 . S
H3426 C3432 0.950 . S
H3427 C3433 0.950 . S
H3428 C3434 0.949 . S
C3429 H3424 0.950 . S
C3429 C3431 1.327 . S
C3429 C3435 1.429 . S
C3430 C3422 1.574 . S
C3430 H3425 0.949 . S
C3430 C3436 1.368 . S
C3431 C3415 1.349 . S
C3431 H3423 0.950 . S
C3431 C3429 1.327 . S
C3432 C3420 1.349 . S
C3432 H3426 0.950 . S
C3432 C3433 1.327 . S
C3433 H3427 0.950 . S
C3433 C3432 1.327 . S
C3433 C3437 1.429 . S
C3434 C3417 1.574 . S
C3434 H3428 0.949 . S
C3434 C3438 1.368 . S
C3435 C3416 1.429 . S
C3435 C3429 1.429 . S
C3435 C3436 1.523 . S
C3436 C3417 1.368 . S
C3436 C3430 1.368 . S
C3436 C3435 1.523 . S
C3437 C3421 1.429 . S
C3437 C3433 1.429 . S
C3437 C3438 1.523 . S
C3438 C3422 1.368 . S
C3438 C3434 1.368 . S
C3438 C3437 1.523 . S
H3439 C3414 0.950 . S
H3440 C3416 0.950 . S
H3441 C3417 0.949 . S
H3442 C3419 0.950 . S
H3443 C3421 0.950 . S
C3444 C3445 1.349 . S
C3444 C3446 1.327 . S
C3444 H3469 0.950 . S
C3445 C3444 1.349 . S
C3445 C3461 1.349 . S
C3446 C3444 1.327 . S
C3446 C3465 1.429 . S
C3446 H3470 0.950 . S
C3447 C3464 1.574 . S
C3447 C3466 1.368 . S
C3447 H3471 0.949 . S
H3448 C3452 0.949 . S
C3449 C3450 1.349 . S
C3449 C3451 1.327 . S
C3449 H3472 0.950 . S
C3450 C3449 1.349 . S
C3450 C3462 1.349 . S
C3451 C3449 1.327 . S
C3451 C3467 1.429 . S
C3451 H3473 0.950 . S
C3452 H3448 0.949 . S
C3452 C3460 1.574 . S
C3452 C3468 1.368 . S
H3453 C3461 0.950 . S
H3454 C3459 0.950 . S
H3455 C3460 0.949 . S
H3456 C3462 0.950 . S
H3457 C3463 0.950 . S
H3458 C3464 0.949 . S
C3459 H3454 0.950 . S
C3459 C3461 1.327 . S
C3459 C3465 1.429 . S
C3460 C3452 1.574 . S
C3460 H3455 0.949 . S
C3460 C3466 1.368 . S
C3461 C3445 1.349 . S
C3461 H3453 0.950 . S
C3461 C3459 1.327 . S
C3462 C3450 1.349 . S
C3462 H3456 0.950 . S
C3462 C3463 1.327 . S
C3463 H3457 0.950 . S
C3463 C3462 1.327 . S
C3463 C3467 1.429 . S
C3464 C3447 1.574 . S
C3464 H3458 0.949 . S
C3464 C3468 1.368 . S
C3465 C3446 1.429 . S
C3465 C3459 1.429 . S
C3465 C3466 1.523 . S
C3466 C3447 1.368 . S
C3466 C3460 1.368 . S
C3466 C3465 1.523 . S
C3467 C3451 1.429 . S
C3467 C3463 1.429 . S
C3467 C3468 1.523 . S
C3468 C3452 1.368 . S
C3468 C3464 1.368 . S
C3468 C3467 1.523 . S
H3469 C3444 0.950 . S
H3470 C3446 0.950 . S
H3471 C3447 0.949 . S
H3472 C3449 0.950 . S
H3473 C3451 0.950 . S
C3474 C3475 1.349 . S
C3474 C3476 1.327 . S
C3474 H3499 0.950 . S
C3475 C3474 1.349 . S
C3475 C3491 1.349 . S
C3476 C3474 1.327 . S
C3476 C3495 1.429 . S
C3476 H3500 0.950 . S
C3477 C3494 1.574 . S
C3477 C3496 1.368 . S
C3477 H3501 0.949 . S
H3478 C3482 0.949 . S
C3479 C3480 1.349 . S
C3479 C3481 1.327 . S
C3479 H3502 0.950 . S
C3480 C3479 1.349 . S
C3480 C3492 1.349 . S
C3481 C3479 1.327 . S
C3481 C3497 1.429 . S
C3481 H3503 0.950 . S
C3482 H3478 0.949 . S
C3482 C3490 1.574 . S
C3482 C3498 1.368 . S
H3483 C3491 0.950 . S
H3484 C3489 0.950 . S
H3485 C3490 0.949 . S
H3486 C3492 0.950 . S
H3487 C3493 0.950 . S
H3488 C3494 0.949 . S
C3489 H3484 0.950 . S
C3489 C3491 1.327 . S
C3489 C3495 1.429 . S
C3490 C3482 1.574 . S
C3490 H3485 0.949 . S
C3490 C3496 1.368 . S
C3491 C3475 1.349 . S
C3491 H3483 0.950 . S
C3491 C3489 1.327 . S
C3492 C3480 1.349 . S
C3492 H3486 0.950 . S
C3492 C3493 1.327 . S
C3493 H3487 0.950 . S
C3493 C3492 1.327 . S
C3493 C3497 1.429 . S
C3494 C3477 1.574 . S
C3494 H3488 0.949 . S
C3494 C3498 1.368 . S
C3495 C3476 1.429 . S
C3495 C3489 1.429 . S
C3495 C3496 1.523 . S
C3496 C3477 1.368 . S
C3496 C3490 1.368 . S
C3496 C3495 1.523 . S
C3497 C3481 1.429 . S
C3497 C3493 1.429 . S
C3497 C3498 1.523 . S
C3498 C3482 1.368 . S
C3498 C3494 1.368 . S
C3498 C3497 1.523 . S
H3499 C3474 0.950 . S
H3500 C3476 0.950 . S
H3501 C3477 0.949 . S
H3502 C3479 0.950 . S
H3503 C3481 0.950 . S
C3504 C3505 1.349 . S
C3504 C3506 1.327 . S
C3504 H3529 0.950 . S
C3505 C3504 1.349 . S
C3505 C3521 1.349 . S
C3506 C3504 1.327 . S
C3506 C3525 1.429 . S
C3506 H3530 0.950 . S
C3507 C3524 1.574 . S
C3507 C3526 1.368 . S
C3507 H3531 0.949 . S
H3508 C3512 0.949 . S
C3509 C3510 1.349 . S
C3509 C3511 1.327 . S
C3509 H3532 0.950 . S
C3510 C3509 1.349 . S
C3510 C3522 1.349 . S
C3511 C3509 1.327 . S
C3511 C3527 1.429 . S
C3511 H3533 0.950 . S
C3512 H3508 0.949 . S
C3512 C3520 1.574 . S
C3512 C3528 1.368 . S
H3513 C3521 0.950 . S
H3514 C3519 0.950 . S
H3515 C3520 0.949 . S
H3516 C3522 0.950 . S
H3517 C3523 0.950 . S
H3518 C3524 0.949 . S
C3519 H3514 0.950 . S
C3519 C3521 1.327 . S
C3519 C3525 1.429 . S
C3520 C3512 1.574 . S
C3520 H3515 0.949 . S
C3520 C3526 1.368 . S
C3521 C3505 1.349 . S
C3521 H3513 0.950 . S
C3521 C3519 1.327 . S
C3522 C3510 1.349 . S
C3522 H3516 0.950 . S
C3522 C3523 1.327 . S
C3523 H3517 0.950 . S
C3523 C3522 1.327 . S
C3523 C3527 1.429 . S
C3524 C3507 1.574 . S
C3524 H3518 0.949 . S
C3524 C3528 1.368 . S
C3525 C3506 1.429 . S
C3525 C3519 1.429 . S
C3525 C3526 1.523 . S
C3526 C3507 1.368 . S
C3526 C3520 1.368 . S
C3526 C3525 1.523 . S
C3527 C3511 1.429 . S
C3527 C3523 1.429 . S
C3527 C3528 1.523 . S
C3528 C3512 1.368 . S
C3528 C3524 1.368 . S
C3528 C3527 1.523 . S
H3529 C3504 0.950 . S
H3530 C3506 0.950 . S
H3531 C3507 0.949 . S
H3532 C3509 0.950 . S
H3533 C3511 0.950 . S
C3534 C3535 1.349 . S
C3534 C3536 1.327 . S
C3534 H3559 0.950 . S
C3535 C3534 1.349 . S
C3535 C3551 1.349 . S
C3536 C3534 1.327 . S
C3536 C3555 1.429 . S
C3536 H3560 0.950 . S
C3537 C3554 1.574 . S
C3537 C3556 1.368 . S
C3537 H3561 0.949 . S
H3538 C3542 0.949 . S
C3539 C3540 1.349 . S
C3539 C3541 1.327 . S
C3539 H3562 0.950 . S
C3540 C3539 1.349 . S
C3540 C3552 1.349 . S
C3541 C3539 1.327 . S
C3541 C3557 1.429 . S
C3541 H3563 0.950 . S
C3542 H3538 0.949 . S
C3542 C3550 1.574 . S
C3542 C3558 1.368 . S
H3543 C3551 0.950 . S
H3544 C3549 0.950 . S
H3545 C3550 0.949 . S
H3546 C3552 0.950 . S
H3547 C3553 0.950 . S
H3548 C3554 0.949 . S
C3549 H3544 0.950 . S
C3549 C3551 1.327 . S
C3549 C3555 1.429 . S
C3550 C3542 1.574 . S
C3550 H3545 0.949 . S
C3550 C3556 1.368 . S
C3551 C3535 1.349 . S
C3551 H3543 0.950 . S
C3551 C3549 1.327 . S
C3552 C3540 1.349 . S
C3552 H3546 0.950 . S
C3552 C3553 1.327 . S
C3553 H3547 0.950 . S
C3553 C3552 1.327 . S
C3553 C3557 1.429 . S
C3554 C3537 1.574 . S
C3554 H3548 0.949 . S
C3554 C3558 1.368 . S
C3555 C3536 1.429 . S
C3555 C3549 1.429 . S
C3555 C3556 1.523 . S
C3556 C3537 1.368 . S
C3556 C3550 1.368 . S
C3556 C3555 1.523 . S
C3557 C3541 1.429 . S
C3557 C3553 1.429 . S
C3557 C3558 1.523 . S
C3558 C3542 1.368 . S
C3558 C3554 1.368 . S
C3558 C3557 1.523 . S
H3559 C3534 0.950 . S
H3560 C3536 0.950 . S
H3561 C3537 0.949 . S
H3562 C3539 0.950 . S
H3563 C3541 0.950 . S
C3564 C3565 1.349 . S
C3564 C3566 1.327 . S
C3564 H3589 0.950 . S
C3565 C3564 1.349 . S
C3565 C3581 1.349 . S
C3566 C3564 1.327 . S
C3566 C3585 1.429 . S
C3566 H3590 0.950 . S
C3567 C3584 1.574 . S
C3567 C3586 1.368 . S
C3567 H3591 0.949 . S
H3568 C3572 0.949 . S
C3569 C3570 1.349 . S
C3569 C3571 1.327 . S
C3569 H3592 0.950 . S
C3570 C3569 1.349 . S
C3570 C3582 1.349 . S
C3571 C3569 1.327 . S
C3571 C3587 1.429 . S
C3571 H3593 0.950 . S
C3572 H3568 0.949 . S
C3572 C3580 1.574 . S
C3572 C3588 1.368 . S
H3573 C3581 0.950 . S
H3574 C3579 0.950 . S
H3575 C3580 0.949 . S
H3576 C3582 0.950 . S
H3577 C3583 0.950 . S
H3578 C3584 0.949 . S
C3579 H3574 0.950 . S
C3579 C3581 1.327 . S
C3579 C3585 1.429 . S
C3580 C3572 1.574 . S
C3580 H3575 0.949 . S
C3580 C3586 1.368 . S
C3581 C3565 1.349 . S
C3581 H3573 0.950 . S
C3581 C3579 1.327 . S
C3582 C3570 1.349 . S
C3582 H3576 0.950 . S
C3582 C3583 1.327 . S
C3583 H3577 0.950 . S
C3583 C3582 1.327 . S
C3583 C3587 1.429 . S
C3584 C3567 1.574 . S
C3584 H3578 0.949 . S
C3584 C3588 1.368 . S
C3585 C3566 1.429 . S
C3585 C3579 1.429 . S
C3585 C3586 1.523 . S
C3586 C3567 1.368 . S
C3586 C3580 1.368 . S
C3586 C3585 1.523 . S
C3587 C3571 1.429 . S
C3587 C3583 1.429 . S
C3587 C3588 1.523 . S
C3588 C3572 1.368 . S
C3588 C3584 1.368 . S
C3588 C3587 1.523 . S
H3589 C3564 0.950 . S
H3590 C3566 0.950 . S
H3591 C3567 0.949 . S
H3592 C3569 0.950 . S
H3593 C3571 0.950 . S
C3594 C3595 1.349 . S
C3594 C3596 1.327 . S
C3594 H3619 0.950 . S
C3595 C3594 1.349 . S
C3595 C3611 1.349 . S
C3596 C3594 1.327 . S
C3596 C3615 1.429 . S
C3596 H3620 0.950 . S
C3597 C3614 1.574 . S
C3597 C3616 1.368 . S
C3597 H3621 0.949 . S
H3598 C3602 0.949 . S
C3599 C3600 1.349 . S
C3599 C3601 1.327 . S
C3599 H3622 0.950 . S
C3600 C3599 1.349 . S
C3600 C3612 1.349 . S
C3601 C3599 1.327 . S
C3601 C3617 1.429 . S
C3601 H3623 0.950 . S
C3602 H3598 0.949 . S
C3602 C3610 1.574 . S
C3602 C3618 1.368 . S
H3603 C3611 0.950 . S
H3604 C3609 0.950 . S
H3605 C3610 0.949 . S
H3606 C3612 0.950 . S
H3607 C3613 0.950 . S
H3608 C3614 0.949 . S
C3609 H3604 0.950 . S
C3609 C3611 1.327 . S
C3609 C3615 1.429 . S
C3610 C3602 1.574 . S
C3610 H3605 0.949 . S
C3610 C3616 1.368 . S
C3611 C3595 1.349 . S
C3611 H3603 0.950 . S
C3611 C3609 1.327 . S
C3612 C3600 1.349 . S
C3612 H3606 0.950 . S
C3612 C3613 1.327 . S
C3613 H3607 0.950 . S
C3613 C3612 1.327 . S
C3613 C3617 1.429 . S
C3614 C3597 1.574 . S
C3614 H3608 0.949 . S
C3614 C3618 1.368 . S
C3615 C3596 1.429 . S
C3615 C3609 1.429 . S
C3615 C3616 1.523 . S
C3616 C3597 1.368 . S
C3616 C3610 1.368 . S
C3616 C3615 1.523 . S
C3617 C3601 1.429 . S
C3617 C3613 1.429 . S
C3617 C3618 1.523 . S
C3618 C3602 1.368 . S
C3618 C3614 1.368 . S
C3618 C3617 1.523 . S
H3619 C3594 0.950 . S
H3620 C3596 0.950 . S
H3621 C3597 0.949 . S
H3622 C3599 0.950 . S
H3623 C3601 0.950 . S
C3624 C3625 1.349 . S
C3624 C3626 1.327 . S
C3624 H3649 0.950 . S
C3625 C3624 1.349 . S
C3625 C3641 1.349 . S
C3626 C3624 1.327 . S
C3626 C3645 1.429 . S
C3626 H3650 0.950 . S
C3627 C3644 1.574 . S
C3627 C3646 1.368 . S
C3627 H3651 0.949 . S
H3628 C3632 0.949 . S
C3629 C3630 1.349 . S
C3629 C3631 1.327 . S
C3629 H3652 0.950 . S
C3630 C3629 1.349 . S
C3630 C3642 1.349 . S
C3631 C3629 1.327 . S
C3631 C3647 1.429 . S
C3631 H3653 0.950 . S
C3632 H3628 0.949 . S
C3632 C3640 1.574 . S
C3632 C3648 1.368 . S
H3633 C3641 0.950 . S
H3634 C3639 0.950 . S
H3635 C3640 0.949 . S
H3636 C3642 0.950 . S
H3637 C3643 0.950 . S
H3638 C3644 0.949 . S
C3639 H3634 0.950 . S
C3639 C3641 1.327 . S
C3639 C3645 1.429 . S
C3640 C3632 1.574 . S
C3640 H3635 0.949 . S
C3640 C3646 1.368 . S
C3641 C3625 1.349 . S
C3641 H3633 0.950 . S
C3641 C3639 1.327 . S
C3642 C3630 1.349 . S
C3642 H3636 0.950 . S
C3642 C3643 1.327 . S
C3643 H3637 0.950 . S
C3643 C3642 1.327 . S
C3643 C3647 1.429 . S
C3644 C3627 1.574 . S
C3644 H3638 0.949 . S
C3644 C3648 1.368 . S
C3645 C3626 1.429 . S
C3645 C3639 1.429 . S
C3645 C3646 1.523 . S
C3646 C3627 1.368 . S
C3646 C3640 1.368 . S
C3646 C3645 1.523 . S
C3647 C3631 1.429 . S
C3647 C3643 1.429 . S
C3647 C3648 1.523 . S
C3648 C3632 1.368 . S
C3648 C3644 1.368 . S
C3648 C3647 1.523 . S
H3649 C3624 0.950 . S
H3650 C3626 0.950 . S
H3651 C3627 0.949 . S
H3652 C3629 0.950 . S
H3653 C3631 0.950 . S
C3654 C3655 1.349 . S
C3654 C3656 1.327 . S
C3654 H3679 0.950 1_554 S
C3655 C3654 1.349 . S
C3655 C3671 1.349 . S
C3656 C3654 1.327 . S
C3656 C3675 1.429 . S
C3656 H3680 0.950 . S
C3657 C3674 1.574 . S
C3657 C3676 1.368 . S
C3657 H3681 0.949 . S
H3658 C3662 0.949 . S
C3659 C3660 1.349 . S
C3659 C3661 1.327 . S
C3659 H3682 0.950 . S
C3660 C3659 1.349 . S
C3660 C3672 1.349 . S
C3661 C3659 1.327 . S
C3661 C3677 1.429 . S
C3661 H3683 0.950 . S
C3662 H3658 0.949 . S
C3662 C3670 1.574 . S
C3662 C3678 1.368 . S
H3663 C3671 0.950 . S
H3664 C3669 0.950 . S
H3665 C3670 0.949 . S
H3666 C3672 0.950 . S
H3667 C3673 0.950 . S
H3668 C3674 0.949 . S
C3669 H3664 0.950 . S
C3669 C3671 1.327 . S
C3669 C3675 1.429 . S
C3670 C3662 1.574 . S
C3670 H3665 0.949 . S
C3670 C3676 1.368 . S
C3671 C3655 1.349 . S
C3671 H3663 0.950 . S
C3671 C3669 1.327 . S
C3672 C3660 1.349 . S
C3672 H3666 0.950 . S
C3672 C3673 1.327 . S
C3673 H3667 0.950 . S
C3673 C3672 1.327 . S
C3673 C3677 1.429 . S
C3674 C3657 1.574 . S
C3674 H3668 0.949 . S
C3674 C3678 1.368 . S
C3675 C3656 1.429 . S
C3675 C3669 1.429 . S
C3675 C3676 1.523 . S
C3676 C3657 1.368 . S
C3676 C3670 1.368 . S
C3676 C3675 1.523 . S
C3677 C3661 1.429 . S
C3677 C3673 1.429 . S
C3677 C3678 1.523 . S
C3678 C3662 1.368 . S
C3678 C3674 1.368 . S
C3678 C3677 1.523 . S
H3679 C3654 0.950 1_556 S
H3680 C3656 0.950 . S
H3681 C3657 0.949 . S
H3682 C3659 0.950 . S
H3683 C3661 0.950 . S
C3684 C3685 1.349 . S
C3684 C3686 1.327 . S
C3684 H3709 0.950 . S
C3685 C3684 1.349 . S
C3685 C3701 1.351 . S
C3686 C3684 1.327 . S
C3686 C3705 1.429 . S
C3686 H3710 0.950 . S
C3687 C3704 1.574 . S
C3687 C3706 1.368 . S
C3687 H3711 0.949 . S
H3688 C3692 0.949 . S
C3689 C3690 1.349 . S
C3689 C3691 1.327 . S
C3689 H3712 0.950 . S
C3690 C3689 1.349 . S
C3690 C3702 1.349 . S
C3691 C3689 1.327 . S
C3691 C3707 1.429 . S
C3691 H3713 0.950 . S
C3692 H3688 0.949 . S
C3692 C3700 1.574 . S
C3692 C3708 1.368 . S
H3693 C3701 0.934 1_556 S
H3694 C3699 0.950 . S
H3695 C3700 0.949 . S
H3696 C3702 0.950 . S
H3697 C3703 0.950 . S
H3698 C3704 0.949 . S
C3699 H3694 0.950 . S
C3699 C3701 1.340 . S
C3699 C3705 1.429 . S
C3700 C3692 1.574 . S
C3700 H3695 0.949 . S
C3700 C3706 1.368 . S
C3701 C3685 1.351 . S
C3701 H3693 0.934 1_554 S
C3701 C3699 1.340 . S
C3702 C3690 1.349 . S
C3702 H3696 0.950 . S
C3702 C3703 1.327 . S
C3703 H3697 0.950 . S
C3703 C3702 1.327 . S
C3703 C3707 1.429 . S
C3704 C3687 1.574 . S
C3704 H3698 0.949 . S
C3704 C3708 1.368 . S
C3705 C3686 1.429 . S
C3705 C3699 1.429 . S
C3705 C3706 1.523 . S
C3706 C3687 1.368 . S
C3706 C3700 1.368 . S
C3706 C3705 1.523 . S
C3707 C3691 1.429 . S
C3707 C3703 1.429 . S
C3707 C3708 1.523 . S
C3708 C3692 1.368 . S
C3708 C3704 1.368 . S
C3708 C3707 1.523 . S
H3709 C3684 0.950 . S
H3710 C3686 0.950 . S
H3711 C3687 0.949 . S
H3712 C3689 0.950 . S
H3713 C3691 0.950 . S
C3714 C3715 1.349 . S
C3714 C3716 1.327 . S
C3714 H3739 0.950 1_554 S
C3715 C3714 1.349 . S
C3715 C3731 1.349 . S
C3716 C3714 1.327 . S
C3716 C3735 1.429 . S
C3716 H3740 0.950 . S
C3717 C3734 1.574 . S
C3717 C3736 1.368 . S
C3717 H3741 0.949 . S
H3718 C3722 0.949 . S
C3719 C3720 1.349 . S
C3719 C3721 1.327 . S
C3719 H3742 0.950 . S
C3720 C3719 1.349 . S
C3720 C3732 1.349 . S
C3721 C3719 1.327 . S
C3721 C3737 1.429 . S
C3721 H3743 0.950 . S
C3722 H3718 0.949 . S
C3722 C3730 1.574 . S
C3722 C3738 1.368 . S
H3723 C3731 0.950 . S
H3724 C3729 0.950 . S
H3725 C3730 0.949 . S
H3726 C3732 0.950 . S
H3727 C3733 0.950 . S
H3728 C3734 0.949 . S
C3729 H3724 0.950 . S
C3729 C3731 1.327 . S
C3729 C3735 1.429 . S
C3730 C3722 1.574 . S
C3730 H3725 0.949 . S
C3730 C3736 1.368 . S
C3731 C3715 1.349 . S
C3731 H3723 0.950 . S
C3731 C3729 1.327 . S
C3732 C3720 1.349 . S
C3732 H3726 0.950 . S
C3732 C3733 1.327 . S
C3733 H3727 0.950 . S
C3733 C3732 1.327 . S
C3733 C3737 1.429 . S
C3734 C3717 1.574 . S
C3734 H3728 0.949 . S
C3734 C3738 1.368 . S
C3735 C3716 1.429 . S
C3735 C3729 1.429 . S
C3735 C3736 1.523 . S
C3736 C3717 1.368 . S
C3736 C3730 1.368 . S
C3736 C3735 1.523 . S
C3737 C3721 1.429 . S
C3737 C3733 1.429 . S
C3737 C3738 1.523 . S
C3738 C3722 1.368 . S
C3738 C3734 1.368 . S
C3738 C3737 1.523 . S
H3739 C3714 0.950 1_556 S
H3740 C3716 0.950 . S
H3741 C3717 0.949 . S
H3742 C3719 0.950 . S
H3743 C3721 0.950 . S
C3744 C3745 1.349 . S
C3744 C3746 1.327 . S
C3744 H3769 0.950 . S
C3745 C3744 1.349 . S
C3745 C3761 1.349 . S
C3746 C3744 1.327 . S
C3746 C3765 1.429 . S
C3746 H3770 0.950 . S
C3747 C3764 1.574 . S
C3747 C3766 1.368 . S
C3747 H3771 0.949 . S
H3748 C3752 0.949 . S
C3749 C3750 1.349 . S
C3749 C3751 1.327 . S
C3749 H3772 0.950 . S
C3750 C3749 1.349 . S
C3750 C3762 1.349 . S
C3751 C3749 1.327 . S
C3751 C3767 1.429 . S
C3751 H3773 0.950 . S
C3752 H3748 0.949 . S
C3752 C3760 1.574 . S
C3752 C3768 1.368 . S
H3753 C3761 0.950 1_556 S
H3754 C3759 0.950 . S
H3755 C3760 0.949 . S
H3756 C3762 0.950 . S
H3757 C3763 0.950 . S
H3758 C3764 0.949 . S
C3759 H3754 0.950 . S
C3759 C3761 1.327 . S
C3759 C3765 1.429 . S
C3760 C3752 1.574 . S
C3760 H3755 0.949 . S
C3760 C3766 1.368 . S
C3761 C3745 1.349 . S
C3761 H3753 0.950 1_554 S
C3761 C3759 1.327 . S
C3762 C3750 1.349 . S
C3762 H3756 0.950 . S
C3762 C3763 1.327 . S
C3763 H3757 0.950 . S
C3763 C3762 1.327 . S
C3763 C3767 1.429 . S
C3764 C3747 1.574 . S
C3764 H3758 0.949 . S
C3764 C3768 1.368 . S
C3765 C3746 1.429 . S
C3765 C3759 1.429 . S
C3765 C3766 1.523 . S
C3766 C3747 1.368 . S
C3766 C3760 1.368 . S
C3766 C3765 1.523 . S
C3767 C3751 1.429 . S
C3767 C3763 1.429 . S
C3767 C3768 1.523 . S
C3768 C3752 1.368 . S
C3768 C3764 1.368 . S
C3768 C3767 1.523 . S
H3769 C3744 0.950 . S
H3770 C3746 0.950 . S
H3771 C3747 0.949 . S
H3772 C3749 0.950 . S
H3773 C3751 0.950 . S
C3774 C3775 1.349 . S
C3774 C3776 1.327 . S
C3774 H3799 0.950 . S
C3775 C3774 1.349 . S
C3775 C3791 1.349 . S
C3776 C3774 1.327 . S
C3776 C3795 1.429 . S
C3776 H3800 0.950 . S
C3777 C3794 1.574 . S
C3777 C3796 1.368 . S
C3777 H3801 0.949 . S
H3778 C3782 0.949 . S
C3779 C3780 1.349 . S
C3779 C3781 1.327 . S
C3779 H3802 0.950 . S
C3780 C3779 1.349 . S
C3780 C3792 1.349 1_554 S
C3781 C3779 1.327 . S
C3781 C3797 1.429 . S
C3781 H3803 0.950 . S
C3782 H3778 0.949 . S
C3782 C3790 1.574 . S
C3782 C3798 1.368 . S
H3783 C3791 0.950 . S
H3784 C3789 0.950 . S
H3785 C3790 0.949 . S
H3786 C3792 0.950 . S
H3787 C3793 0.950 1_556 S
H3788 C3794 0.949 . S
C3789 H3784 0.950 . S
C3789 C3791 1.327 . S
C3789 C3795 1.429 . S
C3790 C3782 1.574 . S
C3790 H3785 0.949 . S
C3790 C3796 1.368 . S
C3791 C3775 1.349 . S
C3791 H3783 0.950 . S
C3791 C3789 1.327 . S
C3792 C3780 1.349 1_556 S
C3792 H3786 0.950 . S
C3792 C3793 1.327 1_556 S
C3793 H3787 0.950 1_554 S
C3793 C3792 1.327 1_554 S
C3793 C3797 1.429 . S
C3794 C3777 1.574 . S
C3794 H3788 0.949 . S
C3794 C3798 1.368 . S
C3795 C3776 1.429 . S
C3795 C3789 1.429 . S
C3795 C3796 1.523 . S
C3796 C3777 1.368 . S
C3796 C3790 1.368 . S
C3796 C3795 1.523 . S
C3797 C3781 1.429 . S
C3797 C3793 1.429 . S
C3797 C3798 1.523 . S
C3798 C3782 1.368 . S
C3798 C3794 1.368 . S
C3798 C3797 1.523 . S
H3799 C3774 0.950 . S
H3800 C3776 0.950 . S
H3801 C3777 0.949 . S
H3802 C3779 0.950 . S
H3803 C3781 0.950 . S
C3804 C3805 1.349 . S
C3804 C3806 1.327 . S
C3804 H3829 0.950 . S
C3805 C3804 1.349 . S
C3805 C3821 1.349 1_554 S
C3806 C3804 1.327 . S
C3806 C3825 1.429 . S
C3806 H3830 0.950 . S
C3807 C3824 1.574 . S
C3807 C3826 1.368 . S
C3807 H3831 0.949 . S
H3808 C3812 0.949 . S
C3809 C3810 1.349 . S
C3809 C3811 1.327 . S
C3809 H3832 0.950 . S
C3810 C3809 1.349 . S
C3810 C3822 1.349 . S
C3811 C3809 1.327 . S
C3811 C3827 1.429 . S
C3811 H3833 0.950 . S
C3812 H3808 0.949 . S
C3812 C3820 1.574 . S
C3812 C3828 1.368 . S
H3813 C3821 0.950 . S
H3814 C3819 0.950 1_556 S
H3815 C3820 0.949 . S
H3816 C3822 0.950 . S
H3817 C3823 0.950 . S
H3818 C3824 0.949 . S
C3819 H3814 0.950 1_554 S
C3819 C3821 1.327 1_554 S
C3819 C3825 1.429 . S
C3820 C3812 1.574 . S
C3820 H3815 0.949 . S
C3820 C3826 1.368 . S
C3821 C3805 1.349 1_556 S
C3821 H3813 0.950 . S
C3821 C3819 1.327 1_556 S
C3822 C3810 1.349 . S
C3822 H3816 0.950 . S
C3822 C3823 1.327 . S
C3823 H3817 0.950 . S
C3823 C3822 1.327 . S
C3823 C3827 1.429 . S
C3824 C3807 1.574 . S
C3824 H3818 0.949 . S
C3824 C3828 1.368 . S
C3825 C3806 1.429 . S
C3825 C3819 1.429 . S
C3825 C3826 1.523 . S
C3826 C3807 1.368 . S
C3826 C3820 1.368 . S
C3826 C3825 1.523 . S
C3827 C3811 1.429 . S
C3827 C3823 1.429 . S
C3827 C3828 1.523 . S
C3828 C3812 1.368 . S
C3828 C3824 1.368 . S
C3828 C3827 1.523 . S
H3829 C3804 0.950 . S
H3830 C3806 0.950 . S
H3831 C3807 0.949 . S
H3832 C3809 0.950 . S
H3833 C3811 0.950 . S
C3834 C3835 1.349 . S
C3834 C3836 1.327 . S
C3834 H3859 0.950 . S
C3835 C3834 1.349 . S
C3835 C3851 1.349 . S
C3836 C3834 1.327 . S
C3836 C3855 1.429 . S
C3836 H3860 0.950 . S
C3837 C3854 1.574 . S
C3837 C3856 1.368 . S
C3837 H3861 0.949 . S
H3838 C3842 0.949 . S
C3839 C3840 1.349 . S
C3839 C3841 1.327 . S
C3839 H3862 0.950 . S
C3840 C3839 1.349 . S
C3840 C3852 1.349 . S
C3841 C3839 1.327 . S
C3841 C3857 1.429 . S
C3841 H3863 0.950 . S
C3842 H3838 0.949 . S
C3842 C3850 1.574 . S
C3842 C3858 1.368 . S
H3843 C3851 0.950 . S
H3844 C3849 0.950 . S
H3845 C3850 0.949 . S
H3846 C3852 0.950 . S
H3847 C3853 0.950 . S
H3848 C3854 0.949 . S
C3849 H3844 0.950 . S
C3849 C3851 1.327 . S
C3849 C3855 1.429 . S
C3850 C3842 1.574 . S
C3850 H3845 0.949 . S
C3850 C3856 1.368 . S
C3851 C3835 1.349 . S
C3851 H3843 0.950 . S
C3851 C3849 1.327 . S
C3852 C3840 1.349 . S
C3852 H3846 0.950 . S
C3852 C3853 1.327 . S
C3853 H3847 0.950 . S
C3853 C3852 1.327 . S
C3853 C3857 1.429 . S
C3854 C3837 1.574 . S
C3854 H3848 0.949 . S
C3854 C3858 1.368 . S
C3855 C3836 1.429 . S
C3855 C3849 1.429 . S
C3855 C3856 1.523 . S
C3856 C3837 1.368 . S
C3856 C3850 1.368 . S
C3856 C3855 1.523 . S
C3857 C3841 1.429 . S
C3857 C3853 1.429 . S
C3857 C3858 1.523 . S
C3858 C3842 1.368 . S
C3858 C3854 1.368 . S
C3858 C3857 1.523 . S
H3859 C3834 0.950 . S
H3860 C3836 0.950 . S
H3861 C3837 0.949 . S
H3862 C3839 0.950 . S
H3863 C3841 0.950 . S
C3864 C3865 1.349 . S
C3864 C3866 1.327 . S
C3864 H3889 0.950 . S
C3865 C3864 1.349 . S
C3865 C3881 1.349 . S
C3866 C3864 1.327 . S
C3866 C3885 1.429 . S
C3866 H3890 0.950 . S
C3867 C3884 1.574 . S
C3867 C3886 1.368 . S
C3867 H3891 0.949 . S
H3868 C3872 0.949 . S
C3869 C3870 1.349 . S
C3869 C3871 1.327 . S
C3869 H3892 0.950 . S
C3870 C3869 1.349 . S
C3870 C3882 1.349 . S
C3871 C3869 1.327 . S
C3871 C3887 1.429 . S
C3871 H3893 0.950 . S
C3872 H3868 0.949 . S
C3872 C3880 1.574 . S
C3872 C3888 1.368 . S
H3873 C3881 0.950 . S
H3874 C3879 0.950 . S
H3875 C3880 0.949 . S
H3876 C3882 0.950 . S
H3877 C3883 0.950 . S
H3878 C3884 0.949 . S
C3879 H3874 0.950 . S
C3879 C3881 1.327 . S
C3879 C3885 1.429 . S
C3880 C3872 1.574 . S
C3880 H3875 0.949 . S
C3880 C3886 1.368 . S
C3881 C3865 1.349 . S
C3881 H3873 0.950 . S
C3881 C3879 1.327 . S
C3882 C3870 1.349 . S
C3882 H3876 0.950 . S
C3882 C3883 1.327 . S
C3883 H3877 0.950 . S
C3883 C3882 1.327 . S
C3883 C3887 1.429 . S
C3884 C3867 1.574 . S
C3884 H3878 0.949 . S
C3884 C3888 1.368 . S
C3885 C3866 1.429 . S
C3885 C3879 1.429 . S
C3885 C3886 1.523 . S
C3886 C3867 1.368 . S
C3886 C3880 1.368 . S
C3886 C3885 1.523 . S
C3887 C3871 1.429 . S
C3887 C3883 1.429 . S
C3887 C3888 1.523 . S
C3888 C3872 1.368 . S
C3888 C3884 1.368 . S
C3888 C3887 1.523 . S
H3889 C3864 0.950 . S
H3890 C3866 0.950 . S
H3891 C3867 0.949 . S
H3892 C3869 0.950 . S
H3893 C3871 0.950 . S
C3894 C3895 1.349 . S
C3894 C3896 1.327 . S
C3894 H3919 0.950 . S
C3895 C3894 1.349 . S
C3895 C3911 1.349 . S
C3896 C3894 1.327 . S
C3896 C3915 1.429 . S
C3896 H3920 0.950 . S
C3897 C3914 1.574 . S
C3897 C3916 1.368 . S
C3897 H3921 0.949 . S
H3898 C3902 0.949 . S
C3899 C3900 1.349 . S
C3899 C3901 1.327 . S
C3899 H3922 0.950 . S
C3900 C3899 1.349 . S
C3900 C3912 1.349 . S
C3901 C3899 1.327 . S
C3901 C3917 1.429 . S
C3901 H3923 0.950 . S
C3902 H3898 0.949 . S
C3902 C3910 1.574 . S
C3902 C3918 1.368 . S
H3903 C3911 0.950 . S
H3904 C3909 0.950 . S
H3905 C3910 0.949 . S
H3906 C3912 0.950 . S
H3907 C3913 0.950 . S
H3908 C3914 0.949 . S
C3909 H3904 0.950 . S
C3909 C3911 1.327 . S
C3909 C3915 1.429 . S
C3910 C3902 1.574 . S
C3910 H3905 0.949 . S
C3910 C3916 1.368 . S
C3911 C3895 1.349 . S
C3911 H3903 0.950 . S
C3911 C3909 1.327 . S
C3912 C3900 1.349 . S
C3912 H3906 0.950 . S
C3912 C3913 1.327 . S
C3913 H3907 0.950 . S
C3913 C3912 1.327 . S
C3913 C3917 1.429 . S
C3914 C3897 1.574 . S
C3914 H3908 0.949 . S
C3914 C3918 1.368 . S
C3915 C3896 1.429 . S
C3915 C3909 1.429 . S
C3915 C3916 1.523 . S
C3916 C3897 1.368 . S
C3916 C3910 1.368 . S
C3916 C3915 1.523 . S
C3917 C3901 1.429 . S
C3917 C3913 1.429 . S
C3917 C3918 1.523 . S
C3918 C3902 1.368 . S
C3918 C3914 1.368 . S
C3918 C3917 1.523 . S
H3919 C3894 0.950 . S
H3920 C3896 0.950 . S
H3921 C3897 0.949 . S
H3922 C3899 0.950 . S
H3923 C3901 0.950 . S
C3924 C3925 1.349 . S
C3924 C3926 1.327 . S
C3924 H3949 0.950 . S
C3925 C3924 1.349 . S
C3925 C3941 1.349 . S
C3926 C3924 1.327 . S
C3926 C3945 1.429 . S
C3926 H3950 0.950 . S
C3927 C3944 1.574 . S
C3927 C3946 1.368 . S
C3927 H3951 0.949 . S
H3928 C3932 0.949 . S
C3929 C3930 1.349 . S
C3929 C3931 1.327 . S
C3929 H3952 0.950 . S
C3930 C3929 1.349 . S
C3930 C3942 1.349 . S
C3931 C3929 1.327 . S
C3931 C3947 1.429 . S
C3931 H3953 0.950 . S
C3932 H3928 0.949 . S
C3932 C3940 1.574 . S
C3932 C3948 1.368 . S
H3933 C3941 0.950 . S
H3934 C3939 0.950 . S
H3935 C3940 0.949 . S
H3936 C3942 0.950 1_554 S
H3937 C3943 0.950 . S
H3938 C3944 0.949 . S
C3939 H3934 0.950 . S
C3939 C3941 1.327 . S
C3939 C3945 1.429 . S
C3940 C3932 1.574 . S
C3940 H3935 0.949 . S
C3940 C3946 1.368 . S
C3941 C3925 1.349 . S
C3941 H3933 0.950 . S
C3941 C3939 1.327 . S
C3942 C3930 1.349 . S
C3942 H3936 0.950 1_556 S
C3942 C3943 1.327 . S
C3943 H3937 0.950 . S
C3943 C3942 1.327 . S
C3943 C3947 1.429 . S
C3944 C3927 1.574 . S
C3944 H3938 0.949 . S
C3944 C3948 1.368 . S
C3945 C3926 1.429 . S
C3945 C3939 1.429 . S
C3945 C3946 1.523 . S
C3946 C3927 1.368 . S
C3946 C3940 1.368 . S
C3946 C3945 1.523 . S
C3947 C3931 1.429 . S
C3947 C3943 1.429 . S
C3947 C3948 1.523 . S
C3948 C3932 1.368 . S
C3948 C3944 1.368 . S
C3948 C3947 1.523 . S
H3949 C3924 0.950 . S
H3950 C3926 0.950 . S
H3951 C3927 0.949 . S
H3952 C3929 0.950 . S
H3953 C3931 0.950 . S
C3954 C3955 1.349 1_554 S
C3954 C3956 1.327 1_554 S
C3954 H3979 0.950 . S
C3955 C3954 1.349 1_556 S
C3955 C3971 1.349 . S
C3956 C3954 1.327 1_556 S
C3956 C3975 1.429 . S
C3956 H3980 0.950 1_556 S
C3957 C3974 1.574 . S
C3957 C3976 1.368 . S
C3957 H3981 0.949 . S
H3958 C3962 0.949 . S
C3959 C3960 1.349 . S
C3959 C3961 1.327 . S
C3959 H3982 0.950 . S
C3960 C3959 1.349 . S
C3960 C3972 1.349 . S
C3961 C3959 1.327 . S
C3961 C3977 1.429 . S
C3961 H3983 0.950 . S
C3962 H3958 0.949 . S
C3962 C3970 1.574 . S
C3962 C3978 1.368 . S
H3963 C3971 0.950 . S
H3964 C3969 0.950 . S
H3965 C3970 0.949 . S
H3966 C3972 0.950 . S
H3967 C3973 0.950 . S
H3968 C3974 0.949 . S
C3969 H3964 0.950 . S
C3969 C3971 1.327 . S
C3969 C3975 1.429 . S
C3970 C3962 1.574 . S
C3970 H3965 0.949 . S
C3970 C3976 1.368 . S
C3971 C3955 1.349 . S
C3971 H3963 0.950 . S
C3971 C3969 1.327 . S
C3972 C3960 1.349 . S
C3972 H3966 0.950 . S
C3972 C3973 1.327 . S
C3973 H3967 0.950 . S
C3973 C3972 1.327 . S
C3973 C3977 1.429 . S
C3974 C3957 1.574 . S
C3974 H3968 0.949 . S
C3974 C3978 1.368 . S
C3975 C3956 1.429 . S
C3975 C3969 1.429 . S
C3975 C3976 1.523 . S
C3976 C3957 1.368 . S
C3976 C3970 1.368 . S
C3976 C3975 1.523 . S
C3977 C3961 1.429 . S
C3977 C3973 1.429 . S
C3977 C3978 1.523 . S
C3978 C3962 1.368 . S
C3978 C3974 1.368 . S
C3978 C3977 1.523 . S
H3979 C3954 0.950 . S
H3980 C3956 0.950 1_554 S
H3981 C3957 0.949 . S
H3982 C3959 0.950 . S
H3983 C3961 0.950 . S
C3984 C3985 1.349 . S
C3984 C3986 1.327 . S
C3984 H4009 0.950 . S
C3985 C3984 1.349 . S
C3985 C4001 1.349 . S
C3986 C3984 1.327 . S
C3986 C4005 1.429 . S
C3986 H4010 0.950 . S
C3987 C4004 1.574 . S
C3987 C4006 1.368 . S
C3987 H4011 0.949 . S
H3988 C3992 0.949 . S
C3989 C3990 1.349 1_554 S
C3989 C3991 1.327 1_554 S
C3989 H4012 0.950 . S
C3990 C3989 1.349 1_556 S
C3990 C4002 1.349 . S
C3991 C3989 1.327 1_556 S
C3991 C4007 1.429 . S
C3991 H4013 0.950 . S
C3992 H3988 0.949 . S
C3992 C4000 1.574 . S
C3992 C4008 1.368 . S
H3993 C4001 0.950 . S
H3994 C3999 0.950 . S
H3995 C4000 0.949 . S
H3996 C4002 0.950 . S
H3997 C4003 0.950 . S
H3998 C4004 0.949 . S
C3999 H3994 0.950 . S
C3999 C4001 1.327 . S
C3999 C4005 1.429 . S
C4000 C3992 1.574 . S
C4000 H3995 0.949 . S
C4000 C4006 1.368 . S
C4001 C3985 1.349 . S
C4001 H3993 0.950 . S
C4001 C3999 1.327 . S
C4002 C3990 1.349 . S
C4002 H3996 0.950 . S
C4002 C4003 1.327 . S
C4003 H3997 0.950 . S
C4003 C4002 1.327 . S
C4003 C4007 1.429 . S
C4004 C3987 1.574 . S
C4004 H3998 0.949 . S
C4004 C4008 1.368 . S
C4005 C3986 1.429 . S
C4005 C3999 1.429 . S
C4005 C4006 1.523 . S
C4006 C3987 1.368 . S
C4006 C4000 1.368 . S
C4006 C4005 1.523 . S
C4007 C3991 1.429 . S
C4007 C4003 1.429 . S
C4007 C4008 1.523 . S
C4008 C3992 1.368 . S
C4008 C4004 1.368 . S
C4008 C4007 1.523 . S
H4009 C3984 0.950 . S
H4010 C3986 0.950 . S
H4011 C3987 0.949 . S
H4012 C3989 0.950 . S
H4013 C3991 0.950 . S
C4014 C4015 1.349 . S
C4014 C4016 1.327 . S
C4014 H4039 0.950 . S
C4015 C4014 1.349 . S
C4015 C4031 1.349 . S
C4016 C4014 1.327 . S
C4016 C4035 1.429 . S
C4016 H4040 0.950 . S
C4017 C4034 1.574 . S
C4017 C4036 1.368 . S
C4017 H4041 0.949 . S
H4018 C4022 0.949 . S
C4019 C4020 1.349 . S
C4019 C4021 1.327 . S
C4019 H4042 0.950 . S
C4020 C4019 1.349 . S
C4020 C4032 1.349 . S
C4021 C4019 1.327 . S
C4021 C4037 1.429 . S
C4021 H4043 0.950 . S
C4022 H4018 0.949 . S
C4022 C4030 1.574 . S
C4022 C4038 1.368 . S
H4023 C4031 0.950 . S
H4024 C4029 0.950 . S
H4025 C4030 0.949 . S
H4026 C4032 0.950 . S
H4027 C4033 0.950 . S
H4028 C4034 0.949 . S
C4029 H4024 0.950 . S
C4029 C4031 1.327 . S
C4029 C4035 1.429 . S
C4030 C4022 1.574 . S
C4030 H4025 0.949 . S
C4030 C4036 1.368 . S
C4031 C4015 1.349 . S
C4031 H4023 0.950 . S
C4031 C4029 1.327 . S
C4032 C4020 1.349 . S
C4032 H4026 0.950 . S
C4032 C4033 1.327 . S
C4033 H4027 0.950 . S
C4033 C4032 1.327 . S
C4033 C4037 1.429 . S
C4034 C4017 1.574 . S
C4034 H4028 0.949 . S
C4034 C4038 1.368 . S
C4035 C4016 1.429 . S
C4035 C4029 1.429 . S
C4035 C4036 1.523 . S
C4036 C4017 1.368 . S
C4036 C4030 1.368 . S
C4036 C4035 1.523 . S
C4037 C4021 1.429 . S
C4037 C4033 1.429 . S
C4037 C4038 1.523 . S
C4038 C4022 1.368 . S
C4038 C4034 1.368 . S
C4038 C4037 1.523 . S
H4039 C4014 0.950 . S
H4040 C4016 0.950 . S
H4041 C4017 0.949 . S
H4042 C4019 0.950 . S
H4043 C4021 0.950 . S
C4044 C4045 1.349 . S
C4044 C4046 1.327 . S
C4044 H4069 0.950 . S
C4045 C4044 1.349 . S
C4045 C4061 1.349 . S
C4046 C4044 1.327 . S
C4046 C4065 1.429 . S
C4046 H4070 0.950 . S
C4047 C4064 1.574 . S
C4047 C4066 1.368 . S
C4047 H4071 0.949 . S
H4048 C4052 0.949 . S
C4049 C4050 1.349 . S
C4049 C4051 1.327 . S
C4049 H4072 0.950 . S
C4050 C4049 1.349 . S
C4050 C4062 1.349 . S
C4051 C4049 1.327 . S
C4051 C4067 1.429 . S
C4051 H4073 0.950 . S
C4052 H4048 0.949 . S
C4052 C4060 1.574 . S
C4052 C4068 1.368 . S
H4053 C4061 0.950 . S
H4054 C4059 0.950 . S
H4055 C4060 0.949 . S
H4056 C4062 0.950 . S
H4057 C4063 0.950 . S
H4058 C4064 0.949 . S
C4059 H4054 0.950 . S
C4059 C4061 1.327 . S
C4059 C4065 1.429 . S
C4060 C4052 1.574 . S
C4060 H4055 0.949 . S
C4060 C4066 1.368 . S
C4061 C4045 1.349 . S
C4061 H4053 0.950 . S
C4061 C4059 1.327 . S
C4062 C4050 1.349 . S
C4062 H4056 0.950 . S
C4062 C4063 1.327 . S
C4063 H4057 0.950 . S
C4063 C4062 1.327 . S
C4063 C4067 1.429 . S
C4064 C4047 1.574 . S
C4064 H4058 0.949 . S
C4064 C4068 1.368 . S
C4065 C4046 1.429 . S
C4065 C4059 1.429 . S
C4065 C4066 1.523 . S
C4066 C4047 1.368 . S
C4066 C4060 1.368 . S
C4066 C4065 1.523 . S
C4067 C4051 1.429 . S
C4067 C4063 1.429 . S
C4067 C4068 1.523 . S
C4068 C4052 1.368 . S
C4068 C4064 1.368 . S
C4068 C4067 1.523 . S
H4069 C4044 0.950 . S
H4070 C4046 0.950 . S
H4071 C4047 0.949 . S
H4072 C4049 0.950 . S
H4073 C4051 0.950 . S
C4074 C4075 1.349 . S
C4074 C4076 1.327 . S
C4074 H4099 0.950 . S
C4075 C4074 1.349 . S
C4075 C4091 1.349 . S
C4076 C4074 1.327 . S
C4076 C4095 1.429 . S
C4076 H4100 0.950 . S
C4077 C4094 1.574 . S
C4077 C4096 1.368 . S
C4077 H4101 0.949 . S
H4078 C4082 0.949 . S
C4079 C4080 1.349 . S
C4079 C4081 1.327 . S
C4079 H4102 0.950 . S
C4080 C4079 1.349 . S
C4080 C4092 1.349 . S
C4081 C4079 1.327 . S
C4081 C4097 1.429 . S
C4081 H4103 0.950 . S
C4082 H4078 0.949 . S
C4082 C4090 1.574 . S
C4082 C4098 1.368 . S
H4083 C4091 0.950 . S
H4084 C4089 0.950 . S
H4085 C4090 0.949 . S
H4086 C4092 0.950 . S
H4087 C4093 0.950 . S
H4088 C4094 0.949 . S
C4089 H4084 0.950 . S
C4089 C4091 1.327 . S
C4089 C4095 1.429 . S
C4090 C4082 1.574 . S
C4090 H4085 0.949 . S
C4090 C4096 1.368 . S
C4091 C4075 1.349 . S
C4091 H4083 0.950 . S
C4091 C4089 1.327 . S
C4092 C4080 1.349 . S
C4092 H4086 0.950 . S
C4092 C4093 1.327 . S
C4093 H4087 0.950 . S
C4093 C4092 1.327 . S
C4093 C4097 1.429 . S
C4094 C4077 1.574 . S
C4094 H4088 0.949 . S
C4094 C4098 1.368 . S
C4095 C4076 1.429 . S
C4095 C4089 1.429 . S
C4095 C4096 1.523 . S
C4096 C4077 1.368 . S
C4096 C4090 1.368 . S
C4096 C4095 1.523 . S
C4097 C4081 1.429 . S
C4097 C4093 1.429 . S
C4097 C4098 1.523 . S
C4098 C4082 1.368 . S
C4098 C4094 1.368 . S
C4098 C4097 1.523 . S
H4099 C4074 0.950 . S
H4100 C4076 0.950 . S
H4101 C4077 0.949 . S
H4102 C4079 0.950 . S
H4103 C4081 0.950 . S
C4104 C4105 1.349 . S
C4104 C4106 1.327 . S
C4104 H4129 0.950 . S
C4105 C4104 1.349 . S
C4105 C4121 1.349 . S
C4106 C4104 1.327 . S
C4106 C4125 1.429 . S
C4106 H4130 0.950 . S
C4107 C4124 1.574 1_455 S
C4107 C4126 1.368 . S
C4107 H4131 0.949 . S
H4108 C4112 0.949 . S
C4109 C4110 1.349 . S
C4109 C4111 1.327 . S
C4109 H4132 0.950 . S
C4110 C4109 1.349 . S
C4110 C4122 1.349 . S
C4111 C4109 1.327 . S
C4111 C4127 1.429 . S
C4111 H4133 0.950 . S
C4112 H4108 0.949 . S
C4112 C4120 1.574 1_655 S
C4112 C4128 1.368 . S
H4113 C4121 0.950 . S
H4114 C4119 0.950 . S
H4115 C4120 0.949 . S
H4116 C4122 0.950 . S
H4117 C4123 0.950 . S
H4118 C4124 0.949 . S
C4119 H4114 0.950 . S
C4119 C4121 1.327 . S
C4119 C4125 1.429 . S
C4120 C4112 1.574 1_455 S
C4120 H4115 0.949 . S
C4120 C4126 1.368 . S
C4121 C4105 1.349 . S
C4121 H4113 0.950 . S
C4121 C4119 1.327 . S
C4122 C4110 1.349 . S
C4122 H4116 0.950 . S
C4122 C4123 1.327 . S
C4123 H4117 0.950 . S
C4123 C4122 1.327 . S
C4123 C4127 1.429 . S
C4124 C4107 1.574 1_655 S
C4124 H4118 0.949 . S
C4124 C4128 1.368 . S
C4125 C4106 1.429 . S
C4125 C4119 1.429 . S
C4125 C4126 1.523 . S
C4126 C4107 1.368 . S
C4126 C4120 1.368 . S
C4126 C4125 1.523 . S
C4127 C4111 1.429 . S
C4127 C4123 1.429 . S
C4127 C4128 1.523 . S
C4128 C4112 1.368 . S
C4128 C4124 1.368 . S
C4128 C4127 1.523 . S
H4129 C4104 0.950 . S
H4130 C4106 0.950 . S
H4131 C4107 0.949 . S
H4132 C4109 0.950 . S
H4133 C4111 0.950 . S
C4134 C4135 1.349 . S
C4134 C4136 1.327 . S
C4134 H4159 0.950 . S
C4135 C4134 1.349 . S
C4135 C4151 1.349 . S
C4136 C4134 1.327 . S
C4136 C4155 1.429 . S
C4136 H4160 0.950 . S
C4137 C4154 1.574 . S
C4137 C4156 1.368 . S
C4137 H4161 0.949 . S
H4138 C4142 0.949 . S
C4139 C4140 1.349 . S
C4139 C4141 1.327 . S
C4139 H4162 0.950 . S
C4140 C4139 1.349 . S
C4140 C4152 1.349 . S
C4141 C4139 1.327 . S
C4141 C4157 1.429 . S
C4141 H4163 0.950 . S
C4142 H4138 0.949 . S
C4142 C4150 1.574 . S
C4142 C4158 1.368 . S
H4143 C4151 0.950 . S
H4144 C4149 0.950 . S
H4145 C4150 0.949 . S
H4146 C4152 0.950 . S
H4147 C4153 0.950 . S
H4148 C4154 0.949 . S
C4149 H4144 0.950 . S
C4149 C4151 1.327 . S
C4149 C4155 1.429 . S
C4150 C4142 1.574 . S
C4150 H4145 0.949 . S
C4150 C4156 1.368 . S
C4151 C4135 1.349 . S
C4151 H4143 0.950 . S
C4151 C4149 1.327 . S
C4152 C4140 1.349 . S
C4152 H4146 0.950 . S
C4152 C4153 1.327 . S
C4153 H4147 0.950 . S
C4153 C4152 1.327 . S
C4153 C4157 1.429 . S
C4154 C4137 1.574 . S
C4154 H4148 0.949 . S
C4154 C4158 1.368 . S
C4155 C4136 1.429 . S
C4155 C4149 1.429 . S
C4155 C4156 1.523 . S
C4156 C4137 1.368 . S
C4156 C4150 1.368 . S
C4156 C4155 1.523 . S
C4157 C4141 1.429 . S
C4157 C4153 1.429 . S
C4157 C4158 1.523 . S
C4158 C4142 1.368 . S
C4158 C4154 1.368 . S
C4158 C4157 1.523 . S
H4159 C4134 0.950 . S
H4160 C4136 0.950 . S
H4161 C4137 0.949 . S
H4162 C4139 0.950 . S
H4163 C4141 0.950 . S
C4164 C4165 1.349 . S
C4164 C4166 1.327 . S
C4164 H4189 0.950 . S
C4165 C4164 1.349 . S
C4165 C4181 1.349 . S
C4166 C4164 1.327 . S
C4166 C4185 1.429 . S
C4166 H4190 0.950 . S
C4167 C4184 1.574 1_565 S
C4167 C4186 1.368 . S
C4167 H4191 0.949 . S
H4168 C4172 0.949 . S
C4169 C4170 1.349 . S
C4169 C4171 1.327 . S
C4169 H4192 0.950 . S
C4170 C4169 1.349 . S
C4170 C4182 1.349 . S
C4171 C4169 1.327 . S
C4171 C4187 1.429 . S
C4171 H4193 0.950 . S
C4172 H4168 0.949 . S
C4172 C4180 1.574 1_545 S
C4172 C4188 1.368 . S
H4173 C4181 0.950 . S
H4174 C4179 0.950 . S
H4175 C4180 0.949 . S
H4176 C4182 0.950 . S
H4177 C4183 0.950 . S
H4178 C4184 0.949 . S
C4179 H4174 0.950 . S
C4179 C4181 1.327 . S
C4179 C4185 1.429 . S
C4180 C4172 1.574 1_565 S
C4180 H4175 0.949 . S
C4180 C4186 1.368 . S
C4181 C4165 1.349 . S
C4181 H4173 0.950 . S
C4181 C4179 1.327 . S
C4182 C4170 1.349 . S
C4182 H4176 0.950 . S
C4182 C4183 1.327 . S
C4183 H4177 0.950 . S
C4183 C4182 1.327 . S
C4183 C4187 1.429 . S
C4184 C4167 1.574 1_545 S
C4184 H4178 0.949 . S
C4184 C4188 1.368 . S
C4185 C4166 1.429 . S
C4185 C4179 1.429 . S
C4185 C4186 1.523 . S
C4186 C4167 1.368 . S
C4186 C4180 1.368 . S
C4186 C4185 1.523 . S
C4187 C4171 1.429 . S
C4187 C4183 1.429 . S
C4187 C4188 1.523 . S
C4188 C4172 1.368 . S
C4188 C4184 1.368 . S
C4188 C4187 1.523 . S
H4189 C4164 0.950 . S
H4190 C4166 0.950 . S
H4191 C4167 0.949 . S
H4192 C4169 0.950 . S
H4193 C4171 0.950 . S
C4194 C4195 1.349 . S
C4194 C4196 1.327 . S
C4194 H4219 0.950 . S
C4195 C4194 1.349 . S
C4195 C4211 1.349 . S
C4196 C4194 1.327 . S
C4196 C4215 1.429 . S
C4196 H4220 0.950 . S
C4197 C4214 1.574 1_545 S
C4197 C4216 1.368 . S
C4197 H4221 0.949 . S
H4198 C4202 0.949 . S
C4199 C4200 1.349 . S
C4199 C4201 1.327 . S
C4199 H4222 0.950 . S
C4200 C4199 1.349 . S
C4200 C4212 1.349 . S
C4201 C4199 1.327 . S
C4201 C4217 1.429 . S
C4201 H4223 0.950 . S
C4202 H4198 0.949 . S
C4202 C4210 1.574 1_565 S
C4202 C4218 1.368 . S
H4203 C4211 0.950 . S
H4204 C4209 0.950 . S
H4205 C4210 0.949 . S
H4206 C4212 0.950 . S
H4207 C4213 0.950 . S
H4208 C4214 0.949 . S
C4209 H4204 0.950 . S
C4209 C4211 1.327 . S
C4209 C4215 1.429 . S
C4210 C4202 1.574 1_545 S
C4210 H4205 0.949 . S
C4210 C4216 1.368 . S
C4211 C4195 1.349 . S
C4211 H4203 0.950 . S
C4211 C4209 1.327 . S
C4212 C4200 1.349 . S
C4212 H4206 0.950 . S
C4212 C4213 1.327 . S
C4213 H4207 0.950 . S
C4213 C4212 1.327 . S
C4213 C4217 1.429 . S
C4214 C4197 1.574 1_565 S
C4214 H4208 0.949 . S
C4214 C4218 1.368 . S
C4215 C4196 1.429 . S
C4215 C4209 1.429 . S
C4215 C4216 1.523 . S
C4216 C4197 1.368 . S
C4216 C4210 1.368 . S
C4216 C4215 1.523 . S
C4217 C4201 1.429 . S
C4217 C4213 1.429 . S
C4217 C4218 1.523 . S
C4218 C4202 1.368 . S
C4218 C4214 1.368 . S
C4218 C4217 1.523 . S
H4219 C4194 0.950 . S
H4220 C4196 0.950 . S
H4221 C4197 0.949 . S
H4222 C4199 0.950 . S
H4223 C4201 0.950 . S
C4224 C4225 1.349 . S
C4224 C4226 1.327 . S
C4224 H4249 0.950 . S
C4225 C4224 1.349 . S
C4225 C4241 1.349 . S
C4226 C4224 1.327 . S
C4226 C4245 1.429 . S
C4226 H4250 0.950 . S
C4227 C4244 1.574 1_455 S
C4227 C4246 1.368 . S
C4227 H4251 0.949 . S
H4228 C4232 0.949 . S
C4229 C4230 1.349 . S
C4229 C4231 1.327 . S
C4229 H4252 0.950 . S
C4230 C4229 1.349 . S
C4230 C4242 1.349 . S
C4231 C4229 1.327 . S
C4231 C4247 1.429 . S
C4231 H4253 0.950 . S
C4232 H4228 0.949 . S
C4232 C4240 1.574 1_655 S
C4232 C4248 1.368 . S
H4233 C4241 0.950 . S
H4234 C4239 0.950 . S
H4235 C4240 0.949 . S
H4236 C4242 0.950 . S
H4237 C4243 0.950 . S
H4238 C4244 0.949 . S
C4239 H4234 0.950 . S
C4239 C4241 1.327 . S
C4239 C4245 1.429 . S
C4240 C4232 1.574 1_455 S
C4240 H4235 0.949 . S
C4240 C4246 1.368 . S
C4241 C4225 1.349 . S
C4241 H4233 0.950 . S
C4241 C4239 1.327 . S
C4242 C4230 1.349 . S
C4242 H4236 0.950 . S
C4242 C4243 1.327 . S
C4243 H4237 0.950 . S
C4243 C4242 1.327 . S
C4243 C4247 1.429 . S
C4244 C4227 1.574 1_655 S
C4244 H4238 0.949 . S
C4244 C4248 1.368 . S
C4245 C4226 1.429 . S
C4245 C4239 1.429 . S
C4245 C4246 1.523 . S
C4246 C4227 1.368 . S
C4246 C4240 1.368 . S
C4246 C4245 1.523 . S
C4247 C4231 1.429 . S
C4247 C4243 1.429 . S
C4247 C4248 1.523 . S
C4248 C4232 1.368 . S
C4248 C4244 1.368 . S
C4248 C4247 1.523 . S
H4249 C4224 0.950 . S
H4250 C4226 0.950 . S
H4251 C4227 0.949 . S
H4252 C4229 0.950 . S
H4253 C4231 0.950 . S
C4254 C4255 1.349 . S
C4254 C4256 1.327 . S
C4254 H4279 0.950 . S
C4255 C4254 1.349 . S
C4255 C4271 1.349 . S
C4256 C4254 1.327 . S
C4256 C4275 1.429 . S
C4256 H4280 0.950 . S
C4257 C4274 1.574 . S
C4257 C4276 1.368 . S
C4257 H4281 0.949 . S
H4258 C4262 0.949 . S
C4259 C4260 1.349 . S
C4259 C4261 1.327 . S
C4259 H4282 0.950 . S
C4260 C4259 1.349 . S
C4260 C4272 1.349 . S
C4261 C4259 1.327 . S
C4261 C4277 1.429 . S
C4261 H4283 0.950 . S
C4262 H4258 0.949 . S
C4262 C4270 1.574 . S
C4262 C4278 1.368 . S
H4263 C4271 0.950 . S
H4264 C4269 0.950 . S
H4265 C4270 0.949 . S
H4266 C4272 0.950 . S
H4267 C4273 0.950 . S
H4268 C4274 0.949 . S
C4269 H4264 0.950 . S
C4269 C4271 1.327 . S
C4269 C4275 1.429 . S
C4270 C4262 1.574 . S
C4270 H4265 0.949 . S
C4270 C4276 1.368 . S
C4271 C4255 1.349 . S
C4271 H4263 0.950 . S
C4271 C4269 1.327 . S
C4272 C4260 1.349 . S
C4272 H4266 0.950 . S
C4272 C4273 1.327 . S
C4273 H4267 0.950 . S
C4273 C4272 1.327 . S
C4273 C4277 1.429 . S
C4274 C4257 1.574 . S
C4274 H4268 0.949 . S
C4274 C4278 1.368 . S
C4275 C4256 1.429 . S
C4275 C4269 1.429 . S
C4275 C4276 1.523 . S
C4276 C4257 1.368 . S
C4276 C4270 1.368 . S
C4276 C4275 1.523 . S
C4277 C4261 1.429 . S
C4277 C4273 1.429 . S
C4277 C4278 1.523 . S
C4278 C4262 1.368 . S
C4278 C4274 1.368 . S
C4278 C4277 1.523 . S
H4279 C4254 0.950 . S
H4280 C4256 0.950 . S
H4281 C4257 0.949 . S
H4282 C4259 0.950 . S
H4283 C4261 0.950 . S
C2125 C182 1.174 . S
C2130 C5 1.174 . S
C2155 C241 1.174 . S
C2160 C64 1.174 . S
C2185 C300 1.174 . S
C2190 C123 1.174 . S
C2215 C359 1.172 . S
C2220 C534 1.163 . S
C2245 C418 1.173 . S
C2250 C595 1.173 . S
C2275 C654 1.171 . S
C2280 C475 1.162 . S
C2305 C713 1.174 . S
C2310 C890 1.174 . S
C2335 C772 1.174 . S
C2340 C949 1.174 . S
C2365 C831 1.174 . S
C2370 C1008 1.174 . S
C2395 C1067 1.171 . S
C2400 C1242 1.163 . S
C2425 C1303 1.173 . S
C2430 C1126 1.173 . S
C2455 C1183 1.162 . S
C2460 C1362 1.171 . S
C2485 C1421 1.174 . S
C2490 C1598 1.174 . S
C2515 C1480 1.174 . S
C2520 C1657 1.174 . S
C2545 C1716 1.173 . S
C2550 C1539 1.173 . S
C2575 C1950 1.163 . S
C2580 C1775 1.172 . S
C2605 C2011 1.173 . S
C2610 C1834 1.173 . S
C2635 C2070 1.171 . S
C2640 C1891 1.162 . S
C2665 C652 1.707 . S
C2670 C52 1.745 . S
C2695 C111 1.739 . S
C2700 C536 1.720 . S
C2725 C170 1.744 . S
C2730 C593 1.706 . S
C2755 C416 1.706 . S
C2760 C229 1.744 . S
C2785 C288 1.739 . S
C2790 C477 1.720 . S
C2815 C357 1.708 . S
C2820 C347 1.745 . S
C2845 C406 1.747 . S
C2850 C298 1.709 . S
C2875 C465 1.748 . S
C2880 C180 1.711 . S
C2905 C239 1.705 . S
C2910 C505 1.740 . S
C2935 C62 1.705 . S
C2940 C564 1.739 . S
C2965 C121 1.711 . S
C2970 C642 1.748 . S
C2995 C701 1.747 . S
C3000 C3 1.710 . S
C3025 C760 1.745 . S
C3030 C1360 1.707 . S
C3055 C1244 1.720 . S
C3060 C819 1.739 . S
C3085 C1301 1.706 . S
C3090 C878 1.744 . S
C3115 C937 1.744 . S
C3120 C1124 1.707 1_556 S
C3145 C1185 1.720 1_556 S
C3150 C996 1.739 . S
C3175 C1055 1.744 . S
C3180 C1065 1.707 1_556 S
C3205 C1114 1.747 . S
C3210 C1006 1.710 . S
C3235 C1173 1.748 . S
C3240 C888 1.710 . S
C3265 C947 1.705 . S
C3270 C1213 1.740 . S
C3295 C770 1.705 . S
C3300 C1272 1.740 . S
C3325 C829 1.711 . S
C3330 C1350 1.748 . S
C3355 C1409 1.747 . S
C3360 C711 1.710 . S
C3385 C2068 1.708 . S
C3390 C1468 1.745 . S
C3415 C1527 1.739 . S
C3420 C1952 1.720 . S
C3445 C1586 1.744 . S
C3450 C2009 1.706 . S
C3475 C1645 1.744 . S
C3480 C1832 1.706 . S
C3505 C1893 1.720 . S
C3510 C1704 1.739 . S
C3535 C1763 1.745 . S
C3540 C1773 1.708 . S
C3565 C1714 1.709 . S
C3570 C1822 1.747 . S
C3595 C1596 1.711 . S
C3600 C1881 1.748 . S
C3625 C1655 1.705 . S
C3630 C1921 1.740 . S
C3655 C1478 1.705 1_554 S
C3660 C1980 1.740 . S
C3685 C1537 1.711 1_554 S
C3690 C2058 1.748 . S
C3715 C1419 1.709 1_554 S
C3720 C2117 1.747 . S
C3745 C1744 1.171 1_554 S
C3750 C33 1.171 . S
C3775 C92 1.174 . S
C3780 C1626 1.174 1_554 S
C3805 C1685 1.174 1_554 S
C3810 C151 1.174 . S
C3835 C210 1.174 . S
C3840 C800 1.174 . S
C3865 C859 1.174 . S
C3870 C269 1.174 . S
C3895 C328 1.171 . S
C3900 C741 1.171 . S
C3925 C387 1.171 . S
C3930 C1390 1.171 1_556 S
C3955 C1291 1.174 1_556 S
C3960 C446 1.171 . S
C3985 C524 1.173 . S
C3990 C1331 1.170 1_556 S
C4015 C583 1.173 . S
C4020 C1862 1.171 . S
C4045 C623 1.170 . S
C4050 C1940 1.173 . S
C4075 C1803 1.171 . S
C4080 C682 1.171 . S
C4105 C1508 1.174 . S
C4110 C918 1.174 . S
C4135 C1567 1.174 . S
C4140 C977 1.174 . S
C4165 C1449 1.170 . S
C4170 C1036 1.170 . S
C4195 C1095 1.170 . S
C4200 C2098 1.170 . S
C4225 C1999 1.173 . S
C4230 C1154 1.171 . S
C4255 C1232 1.173 . S
C4260 C2039 1.170 . S
