# Generated by pormake.
# Topology wkf, (6)-cn, num edge types: 1
# Building blocks:
#     Node 0, Type 0, BuildingBlock: CUKXOW_clean_sbu_0, # of connection points: 6
#     Node 1, Type 0, BuildingBlock: CUKXOW_clean_sbu_0, # of connection points: 6
#     Node 2, Type 0, BuildingBlock: CUKXOW_clean_sbu_0, # of connection points: 6
#     Node 3, Type 0, BuildingBlock: CUKXOW_clean_sbu_0, # of connection points: 6
#     Node 4, Type 0, BuildingBlock: CUKXOW_clean_sbu_0, # of connection points: 6
#     Node 5, Type 0, BuildingBlock: CUKXOW_clean_sbu_0, # of connection points: 6
#     Node 6, Type 0, BuildingBlock: CUKXOW_clean_sbu_0, # of connection points: 6
#     Node 7, Type 0, BuildingBlock: CUKXOW_clean_sbu_0, # of connection points: 6
#     Node 8, Type 0, BuildingBlock: CUKXOW_clean_sbu_0, # of connection points: 6
#     Node 9, Type 0, BuildingBlock: CUKXOW_clean_sbu_0, # of connection points: 6
#     Node 10, Type 0, BuildingBlock: CUKXOW_clean_sbu_0, # of connection points: 6
#     Node 11, Type 0, BuildingBlock: CUKXOW_clean_sbu_0, # of connection points: 6
#     Edge 12, Type (0, 0), BuildingBlock: UVAHIK_clean_linker_0, # of connection points: 2
#     Edge 13, Type (0, 0), BuildingBlock: UVAHIK_clean_linker_0, # of connection points: 2
#     Edge 14, Type (0, 0), BuildingBlock: UVAHIK_clean_linker_0, # of connection points: 2
#     Edge 15, Type (0, 0), BuildingBlock: UVAHIK_clean_linker_0, # of connection points: 2
#     Edge 16, Type (0, 0), BuildingBlock: UVAHIK_clean_linker_0, # of connection points: 2
#     Edge 17, Type (0, 0), BuildingBlock: UVAHIK_clean_linker_0, # of connection points: 2
#     Edge 18, Type (0, 0), BuildingBlock: UVAHIK_clean_linker_0, # of connection points: 2
#     Edge 19, Type (0, 0), BuildingBlock: UVAHIK_clean_linker_0, # of connection points: 2
#     Edge 20, Type (0, 0), BuildingBlock: UVAHIK_clean_linker_0, # of connection points: 2
#     Edge 21, Type (0, 0), BuildingBlock: UVAHIK_clean_linker_0, # of connection points: 2
#     Edge 22, Type (0, 0), BuildingBlock: UVAHIK_clean_linker_0, # of connection points: 2
#     Edge 23, Type (0, 0), BuildingBlock: UVAHIK_clean_linker_0, # of connection points: 2
#     Edge 24, Type (0, 0), BuildingBlock: UVAHIK_clean_linker_0, # of connection points: 2
#     Edge 25, Type (0, 0), BuildingBlock: UVAHIK_clean_linker_0, # of connection points: 2
#     Edge 26, Type (0, 0), BuildingBlock: UVAHIK_clean_linker_0, # of connection points: 2
#     Edge 27, Type (0, 0), BuildingBlock: UVAHIK_clean_linker_0, # of connection points: 2
#     Edge 28, Type (0, 0), BuildingBlock: UVAHIK_clean_linker_0, # of connection points: 2
#     Edge 29, Type (0, 0), BuildingBlock: UVAHIK_clean_linker_0, # of connection points: 2
#     Edge 30, Type (0, 0), BuildingBlock: UVAHIK_clean_linker_0, # of connection points: 2
#     Edge 31, Type (0, 0), BuildingBlock: UVAHIK_clean_linker_0, # of connection points: 2
#     Edge 32, Type (0, 0), BuildingBlock: UVAHIK_clean_linker_0, # of connection points: 2
#     Edge 33, Type (0, 0), BuildingBlock: UVAHIK_clean_linker_0, # of connection points: 2
#     Edge 34, Type (0, 0), BuildingBlock: UVAHIK_clean_linker_0, # of connection points: 2
#     Edge 35, Type (0, 0), BuildingBlock: UVAHIK_clean_linker_0, # of connection points: 2
#     Edge 36, Type (0, 0), BuildingBlock: UVAHIK_clean_linker_0, # of connection points: 2
#     Edge 37, Type (0, 0), BuildingBlock: UVAHIK_clean_linker_0, # of connection points: 2
#     Edge 38, Type (0, 0), BuildingBlock: UVAHIK_clean_linker_0, # of connection points: 2
#     Edge 39, Type (0, 0), BuildingBlock: UVAHIK_clean_linker_0, # of connection points: 2
#     Edge 40, Type (0, 0), BuildingBlock: UVAHIK_clean_linker_0, # of connection points: 2
#     Edge 41, Type (0, 0), BuildingBlock: UVAHIK_clean_linker_0, # of connection points: 2
#     Edge 42, Type (0, 0), BuildingBlock: UVAHIK_clean_linker_0, # of connection points: 2
#     Edge 43, Type (0, 0), BuildingBlock: UVAHIK_clean_linker_0, # of connection points: 2
#     Edge 44, Type (0, 0), BuildingBlock: UVAHIK_clean_linker_0, # of connection points: 2
#     Edge 45, Type (0, 0), BuildingBlock: UVAHIK_clean_linker_0, # of connection points: 2
#     Edge 46, Type (0, 0), BuildingBlock: UVAHIK_clean_linker_0, # of connection points: 2
#     Edge 47, Type (0, 0), BuildingBlock: UVAHIK_clean_linker_0, # of connection points: 2
# Relax obj value: 0.113
# Max RMSD: 0.281
# Mean RMSD: 0.281
data_MOF--net-wkf--node1-CUKXOW_clean_sbu_0--edge1-UVAHIK_clean_linker_0
_symmetry_space_group_name_H-M    P1
_symmetry_Int_Tables_number       1
_symmetry_cell_setting            triclinic
loop_
_symmetry_equiv_pos_as_xyz
'x, y, z'
_cell_length_a     34.648238
_cell_length_b     34.558592
_cell_length_c     98.836968
_cell_angle_alpha  90.043862
_cell_angle_beta   89.898122
_cell_angle_gamma 120.01916
loop_
_atom_site_label
_atom_site_type_symbol
_atom_site_fract_x
_atom_site_fract_y
_atom_site_fract_z
_atom_type_partial_charge
Tb0 Tb 0.34023 0.14885 0.39188 0.0
C1 C 0.33197 0.05772 0.40196 0.0
Tb2 Tb 0.40116 0.11794 0.37947 0.0
O3 O 0.29671 0.12746 0.37401 0.0
O4 O 0.33258 0.09589 0.37945 0.0
O5 O 0.32637 0.09203 0.40499 0.0
C6 C 0.44246 0.08277 0.3656 0.0
O7 O 0.35541 0.05861 0.39119 0.0
C8 C 0.43576 0.1749 0.39991 0.0
C9 C 0.40018 0.20354 0.36723 0.0
O10 O 0.44755 0.09279 0.37834 0.0
O11 O 0.41476 0.09374 0.36044 0.0
O12 O 0.44504 0.14379 0.39715 0.0
O13 O 0.40977 0.17348 0.39085 0.0
O14 O 0.41349 0.17351 0.36568 0.0
O15 O 0.37451 0.20248 0.37741 0.0
C16 C 0.31271 0.18442 0.41095 0.0
O17 O 0.35216 0.18915 0.41002 0.0
O18 O 0.28836 0.15986 0.40094 0.0
C19 C 0.30883 0.09881 0.37033 0.0
Tb20 Tb 0.19211 0.34296 0.5599 0.0
C21 C 0.27957 0.33669 0.56561 0.0
Tb22 Tb 0.27729 0.40341 0.54444 0.0
O23 O 0.16163 0.29884 0.54232 0.0
O24 O 0.23049 0.33452 0.54491 0.0
O25 O 0.23933 0.32739 0.56973 0.0
C26 C 0.34675 0.44596 0.52763 0.0
O27 O 0.2993 0.36242 0.55495 0.0
C28 C 0.2674 0.436 0.56767 0.0
C29 C 0.18981 0.40847 0.53846 0.0
O30 O 0.33962 0.46265 0.53845 0.0
O31 O 0.31373 0.40562 0.52597 0.0
O32 O 0.3051 0.44246 0.5629 0.0
O33 O 0.23786 0.41249 0.5592 0.0
O34 O 0.22844 0.41498 0.53345 0.0
O35 O 0.17331 0.38708 0.55007 0.0
C36 C 0.13748 0.30841 0.58109 0.0
O37 O 0.12478 0.30235 0.56852 0.0
O38 O 0.18036 0.3339 0.58163 0.0
C39 C 0.20001 0.31086 0.53673 0.0
Tb40 Tb 0.87169 0.23202 0.73098 0.0
C41 C 0.96992 0.31153 0.73605 0.0
Tb42 Tb 0.90809 0.31724 0.71326 0.0
O43 O 0.87261 0.19389 0.7131 0.0
O44 O 0.91731 0.26188 0.71497 0.0
O45 O 0.93633 0.27326 0.74062 0.0
C46 C 0.95766 0.38932 0.69817 0.0
O47 O 0.96653 0.33267 0.72531 0.0
C48 C 0.84976 0.30936 0.73132 0.0
C49 C 0.81271 0.23592 0.70769 0.0
O50 O 0.95026 0.38924 0.71104 0.0
O51 O 0.9363 0.3485 0.69361 0.0
O52 O 0.85826 0.33274 0.72035 0.0
O53 O 0.87781 0.29634 0.7327 0.0
O54 O 0.84896 0.26908 0.70189 0.0
O55 O 0.81303 0.22049 0.71995 0.0
C56 C 0.84156 0.17224 0.75113 0.0
O57 O 0.8285 0.20074 0.74857 0.0
O58 O 0.87155 0.17729 0.74231 0.0
C59 C 0.90409 0.22917 0.70714 0.0
Tb60 Tb 0.65459 0.85717 0.89364 0.0
C61 C 0.668 0.95253 0.90023 0.0
Tb62 Tb 0.59855 0.88896 0.87778 0.0
O63 O 0.69418 0.86481 0.87512 0.0
O64 O 0.66485 0.90358 0.87835 0.0
O65 O 0.67524 0.91995 0.90414 0.0
C66 C 0.56765 0.93548 0.86487 0.0
O67 O 0.64151 0.94823 0.88992 0.0
C68 C 0.55368 0.82683 0.89561 0.0
C69 C 0.59109 0.7967 0.87055 0.0
O70 O 0.56322 0.92619 0.87769 0.0
O71 O 0.58914 0.91786 0.85911 0.0
O72 O 0.5361 0.83441 0.88513 0.0
O73 O 0.59389 0.85762 0.89678 0.0
O74 O 0.58981 0.83183 0.86543 0.0
O75 O 0.60998 0.79816 0.88233 0.0
C76 C 0.68545 0.82617 0.9131 0.0
O77 O 0.71008 0.85843 0.9048 0.0
O78 O 0.6438 0.81135 0.91032 0.0
C79 C 0.68583 0.89438 0.86986 0.0
Tb80 Tb 0.80562 0.64993 0.05859 0.0
C81 C 0.72068 0.66165 0.06319 0.0
Tb82 Tb 0.7204 0.59207 0.04252 0.0
O83 O 0.83826 0.69381 0.04099 0.0
O84 O 0.76949 0.66009 0.04331 0.0
O85 O 0.75949 0.66846 0.06792 0.0
C86 C 0.65061 0.55236 0.02571 0.0
O87 O 0.70158 0.63657 0.05237 0.0
C88 C 0.72628 0.55887 0.06613 0.0
C89 C 0.80532 0.58203 0.03746 0.0
O90 O 0.65555 0.53564 0.03686 0.0
O91 O 0.68614 0.59083 0.02368 0.0
O92 O 0.68964 0.55344 0.06087 0.0
O93 O 0.757 0.58122 0.05782 0.0
O94 O 0.7686 0.57848 0.0319 0.0
O95 O 0.82106 0.6022 0.04928 0.0
C96 C 0.86073 0.68337 0.07976 0.0
O97 O 0.87324 0.68789 0.06717 0.0
O98 O 0.81761 0.66003 0.08034 0.0
C99 C 0.80049 0.68315 0.03523 0.0
Tb100 Tb 0.14844 0.7784 0.22662 0.0
C101 C 0.04682 0.70968 0.23307 0.0
Tb102 Tb 0.10085 0.68929 0.21045 0.0
O103 O 0.14459 0.81526 0.20875 0.0
O104 O 0.09825 0.74842 0.21188 0.0
O105 O 0.08231 0.74925 0.23569 0.0
C106 C 0.04388 0.61387 0.19795 0.0
O107 O 0.04683 0.68197 0.22371 0.0
C108 C 0.16161 0.69482 0.22717 0.0
C109 C 0.19819 0.76368 0.20278 0.0
O110 O 0.05434 0.61795 0.21065 0.0
O111 O 0.06609 0.65268 0.19201 0.0
O112 O 0.1479 0.66879 0.21672 0.0
O113 O 0.13741 0.71233 0.22874 0.0
O114 O 0.15902 0.73271 0.19771 0.0
O115 O 0.20256 0.78046 0.21513 0.0
C116 C 0.18326 0.83377 0.24781 0.0
O117 O 0.18089 0.84598 0.23555 0.0
O118 O 0.16677 0.79088 0.248 0.0
C119 C 0.11085 0.77982 0.20358 0.0
Tb120 Tb 0.85289 0.66012 0.44904 0.0
C121 C 0.94552 0.66895 0.44597 0.0
Tb122 Tb 0.8752 0.60425 0.4683 0.0
O123 O 0.90694 0.72201 0.45834 0.0
O124 O 0.87222 0.66316 0.46934 0.0
O125 O 0.91334 0.6708 0.43935 0.0
C126 C 0.9165 0.5721 0.48338 0.0
O127 O 0.93857 0.64831 0.45782 0.0
C128 C 0.8182 0.55861 0.44937 0.0
C129 C 0.78633 0.60551 0.47337 0.0
O130 O 0.89941 0.55784 0.47151 0.0
O131 O 0.90934 0.60417 0.48705 0.0
O132 O 0.81949 0.54259 0.46111 0.0
O133 O 0.85129 0.59791 0.44815 0.0
O134 O 0.81659 0.59737 0.47903 0.0
O135 O 0.79276 0.62603 0.46147 0.0
C136 C 0.81617 0.68336 0.42921 0.0
O137 O 0.8179 0.64678 0.42973 0.0
O138 O 0.83478 0.70695 0.43999 0.0
C139 C 0.90412 0.7024 0.46985 0.0
Tb140 Tb 0.24014 0.86649 0.609 0.0
C141 C 0.31185 0.96767 0.60764 0.0
Tb142 Tb 0.32364 0.90164 0.62745 0.0
O143 O 0.2178 0.90764 0.62015 0.0
O144 O 0.25685 0.88543 0.62935 0.0
O145 O 0.28016 0.93334 0.60094 0.0
C146 C 0.39669 0.9508 0.64204 0.0
O147 O 0.32937 0.96282 0.61898 0.0
C148 C 0.32249 0.85279 0.60716 0.0
C149 C 0.24673 0.80236 0.63102 0.0
O150 O 0.39528 0.94458 0.62909 0.0
O151 O 0.3565 0.9286 0.64703 0.0
O152 O 0.34511 0.85884 0.61816 0.0
O153 O 0.30618 0.87847 0.60726 0.0
O154 O 0.28079 0.83708 0.63717 0.0
O155 O 0.22905 0.8059 0.61943 0.0
C156 C 0.18519 0.83127 0.58788 0.0
O157 O 0.17248 0.82822 0.60044 0.0
O158 O 0.22835 0.8532 0.58738 0.0
C159 C 0.24036 0.91012 0.63096 0.0
Tb160 Tb 0.35809 0.21372 0.77694 0.0
C161 C 0.3513 0.3015 0.77169 0.0
Tb162 Tb 0.41075 0.29658 0.79497 0.0
O163 O 0.31033 0.17861 0.79345 0.0
O164 O 0.34349 0.24817 0.79177 0.0
O165 O 0.3441 0.2623 0.76705 0.0
C166 C 0.44161 0.36255 0.81327 0.0
O167 O 0.37346 0.31936 0.78304 0.0
C168 C 0.45181 0.29284 0.77287 0.0
C169 C 0.41432 0.20789 0.80095 0.0
O170 O 0.4651 0.3576 0.80392 0.0
O171 O 0.4012 0.32903 0.81272 0.0
O172 O 0.45736 0.32956 0.77825 0.0
O173 O 0.42571 0.26121 0.78039 0.0
O174 O 0.41823 0.2454 0.80616 0.0
O175 O 0.39715 0.1927 0.78875 0.0
C176 C 0.33439 0.16243 0.75473 0.0
O177 O 0.31264 0.15158 0.76614 0.0
O178 O 0.36941 0.20173 0.75595 0.0
C179 C 0.31822 0.21579 0.7992 0.0
Tb180 Tb 0.14942 0.33925 0.94683 0.0
C181 C 0.05711 0.33496 0.94095 0.0
Tb182 Tb 0.12456 0.39889 0.96322 0.0
O183 O 0.13269 0.29278 0.964 0.0
O184 O 0.10108 0.33017 0.96132 0.0
O185 O 0.0889 0.32772 0.93626 0.0
C186 C 0.09406 0.43875 0.97987 0.0
O187 O 0.06218 0.35747 0.95234 0.0
C188 C 0.17201 0.43513 0.94104 0.0
C189 C 0.21405 0.39734 0.97029 0.0
O190 O 0.10981 0.45186 0.96781 0.0
O191 O 0.09709 0.40373 0.98289 0.0
O192 O 0.14221 0.44369 0.94581 0.0
O193 O 0.1748 0.4087 0.94915 0.0
O194 O 0.1838 0.40799 0.97456 0.0
O195 O 0.20919 0.37493 0.95888 0.0
C196 C 0.17685 0.3123 0.92536 0.0
O197 O 0.17641 0.34948 0.92636 0.0
O198 O 0.16179 0.28982 0.93656 0.0
C199 C 0.10573 0.30465 0.96934 0.0
Tb200 Tb 0.77861 0.13139 0.11033 0.0
C201 C 0.69563 0.03741 0.10251 0.0
Tb202 Tb 0.68945 0.09893 0.12493 0.0
O203 O 0.80716 0.11637 0.12797 0.0
O204 O 0.73858 0.0801 0.1241 0.0
O205 O 0.73375 0.07215 0.09841 0.0
C206 C 0.61614 0.06264 0.14038 0.0
O207 O 0.67562 0.03886 0.11381 0.0
C208 C 0.70343 0.15032 0.10345 0.0
C209 C 0.77568 0.18909 0.13456 0.0
O210 O 0.6185 0.07447 0.12785 0.0
O211 O 0.65572 0.07266 0.14447 0.0
O212 O 0.66468 0.11872 0.1074 0.0
O213 O 0.73118 0.15259 0.11201 0.0
O214 O 0.73394 0.15735 0.13745 0.0
O215 O 0.79783 0.1879 0.1237 0.0
C216 C 0.83963 0.16408 0.09059 0.0
O217 O 0.84076 0.14168 0.101 0.0
O218 O 0.80454 0.16825 0.09143 0.0
C219 C 0.76821 0.08672 0.13264 0.0
Tb220 Tb 0.64813 0.80056 0.28205 0.0
C221 C 0.66082 0.71666 0.27566 0.0
Tb222 Tb 0.59532 0.71332 0.29843 0.0
O223 O 0.6943 0.83414 0.29902 0.0
O224 O 0.66209 0.76499 0.29653 0.0
O225 O 0.66761 0.75653 0.27192 0.0
C226 C 0.56279 0.64478 0.31585 0.0
O227 O 0.63635 0.6949 0.28635 0.0
C228 C 0.55789 0.71952 0.27586 0.0
C229 C 0.5853 0.79762 0.30522 0.0
O230 O 0.53939 0.65354 0.30746 0.0
O231 O 0.60427 0.67566 0.31476 0.0
O232 O 0.55209 0.68215 0.2808 0.0
O233 O 0.58121 0.74982 0.28411 0.0
O234 O 0.58477 0.76156 0.31033 0.0
O235 O 0.60187 0.81384 0.29305 0.0
C236 C 0.67229 0.8523 0.26007 0.0
O237 O 0.68348 0.86694 0.2724 0.0
O238 O 0.64762 0.80917 0.26025 0.0
C239 C 0.68578 0.79633 0.30447 0.0
C240 C 0.22352 0.90931 0.25892 0.0
C241 C 0.19812 0.8626 0.25995 0.0
C242 C 0.23677 0.93593 0.27062 0.0
C243 C 0.24514 0.92785 0.30831 0.0
H244 H 0.25864 0.04605 0.30776 0.0
C245 C 0.31064 0.04198 0.35514 0.0
C246 C 0.29595 0.07248 0.35765 0.0
C247 C 0.30014 0.01802 0.34302 0.0
C248 C 0.25444 0.01287 0.3082 0.0
H249 H 0.16566 0.80708 0.2739 0.0
H250 H 0.1864 0.85292 0.2941 0.0
H251 H 0.23664 1.00127 0.28727 0.0
H252 H 0.25732 0.10074 0.34965 0.0
H253 H 0.23646 0.05695 0.32881 0.0
H254 H 0.25998 0.93797 0.32937 0.0
C255 C 0.19807 0.86949 0.28444 0.0
C256 C 0.24256 0.98735 0.2963 0.0
C257 C 0.18575 0.84302 0.27281 0.0
C258 C 0.26941 0.07767 0.34793 0.0
C259 C 0.25791 0.05285 0.3359 0.0
C260 C 0.25605 0.95289 0.32023 0.0
C261 C 0.22411 0.9164 0.28358 0.0
C262 C 0.23768 0.94436 0.29617 0.0
C263 C 0.2733 0.02274 0.33321 0.0
C264 C 0.2611 0.99592 0.32039 0.0
H265 H 0.23354 0.92521 0.2491 0.0
H266 H 0.25735 0.97175 0.26946 0.0
H267 H 0.24276 0.89542 0.30869 0.0
H268 H 0.33048 0.03663 0.36254 0.0
H269 H 0.31357 0.99608 0.34135 0.0
C270 C 0.17267 0.27706 0.51379 0.0
C271 C 0.2073 0.29684 0.5233 0.0
C272 C 0.18071 0.26586 0.50086 0.0
C273 C 0.27233 0.29468 0.47665 0.0
H274 H 0.19333 0.17948 0.46037 0.0
C275 C 0.3284 0.22668 0.43252 0.0
C276 C 0.29777 0.2012 0.4224 0.0
C277 C 0.31466 0.24035 0.44393 0.0
C278 C 0.21534 0.21212 0.46465 0.0
H279 H 0.27671 0.31819 0.52705 0.0
H280 H 0.29098 0.29951 0.50452 0.0
H281 H 0.17386 0.19868 0.48217 0.0
H282 H 0.22881 0.1706 0.41613 0.0
H283 H 0.20457 0.19504 0.43613 0.0
H284 H 0.31396 0.30825 0.45927 0.0
C285 C 0.25784 0.29337 0.50689 0.0
C286 C 0.20422 0.22304 0.47717 0.0
C287 C 0.2497 0.30414 0.5198 0.0
C288 C 0.25311 0.1903 0.42379 0.0
C289 C 0.23923 0.20402 0.43527 0.0
C290 C 0.2833 0.28391 0.46415 0.0
C291 C 0.22359 0.2745 0.49722 0.0
C292 C 0.23309 0.26408 0.48343 0.0
C293 C 0.26986 0.229 0.44553 0.0
C294 C 0.25548 0.24211 0.45811 0.0
H295 H 0.13962 0.27095 0.51627 0.0
H296 H 0.15367 0.25139 0.49362 0.0
H297 H 0.29481 0.32696 0.48108 0.0
H298 H 0.36304 0.2354 0.43175 0.0
H299 H 0.33905 0.25881 0.4517 0.0
C300 C 0.96091 0.27182 0.68959 0.0
C301 C 0.92394 0.23145 0.69374 0.0
C302 C 0.98068 0.27535 0.67704 0.0
C303 C 0.96452 0.22056 0.64351 0.0
H304 H 0.09261 0.29864 0.64205 0.0
C305 C 0.06406 0.27955 0.59297 0.0
C306 C 0.10874 0.29003 0.5931 0.0
C307 C 0.03896 0.26684 0.60497 0.0
C308 C 0.05695 0.27601 0.64221 0.0
H309 H 0.87878 0.16271 0.68809 0.0
H310 H 0.91469 0.16817 0.66617 0.0
H311 H 0.05435 0.28589 0.66339 0.0
H312 H 0.16144 0.29245 0.60544 0.0
H313 H 0.11743 0.26792 0.62606 0.0
H314 H 0.96777 0.20945 0.62229 0.0
C315 C 0.92758 0.19759 0.67251 0.0
C316 C 0.03474 0.26936 0.6545 0.0
C317 C 0.90722 0.19429 0.68509 0.0
C318 C 0.1272 0.28522 0.60515 0.0
C319 C 0.10197 0.27151 0.617 0.0
C320 C 0.98696 0.22672 0.63116 0.0
C321 C 0.96485 0.23818 0.66839 0.0
C322 C 0.98816 0.24224 0.65531 0.0
C323 C 0.05797 0.26358 0.61722 0.0
C324 C 0.03352 0.25489 0.63034 0.0
H325 H 0.97499 0.30086 0.69613 0.0
H326 H 0.00855 0.30746 0.67416 0.0
H327 H 0.9286 0.1996 0.64372 0.0
H328 H 0.04919 0.28311 0.58377 0.0
H329 H 0.00536 0.26135 0.60471 0.0
C330 C 0.79757 0.14229 0.77241 0.0
C331 C 0.82623 0.14073 0.76265 0.0
C332 C 0.78444 0.11398 0.78365 0.0
C333 C 0.77178 0.00855 0.79674 0.0
H334 H 0.77563 0.06184 0.8316 0.0
C335 C 0.72808 0.90943 0.84782 0.0
C336 C 0.70341 0.91936 0.85706 0.0
C337 C 0.74535 0.9351 0.836 0.0
C338 C 0.77388 0.04621 0.82194 0.0
H339 H 0.86291 0.10776 0.7568 0.0
H340 H 0.83955 0.05778 0.77647 0.0
H341 H 0.80026 0.10854 0.81148 0.0
H342 H 0.67749 0.96375 0.86119 0.0
H343 H 0.70586 0.00696 0.84064 0.0
H344 H 0.7444 0.94591 0.80725 0.0
C345 C 0.82731 0.08096 0.77541 0.0
C346 C 0.78809 0.07308 0.8104 0.0
C347 C 0.8408 0.10965 0.7642 0.0
C348 C 0.69601 0.95493 0.85423 0.0
C349 C 0.71289 0.98021 0.84249 0.0
C350 C 0.75717 0.98145 0.80833 0.0
C351 C 0.79942 0.08322 0.78535 0.0
C352 C 0.78656 0.05452 0.79764 0.0
C353 C 0.73829 0.97114 0.83328 0.0
C354 C 0.75728 0.99988 0.82105 0.0
H355 H 0.78571 0.16582 0.77145 0.0
H356 H 0.76243 0.11612 0.79103 0.0
H357 H 0.77014 0.99328 0.78703 0.0
H358 H 0.73434 0.88223 0.84979 0.0
H359 H 0.76493 0.92731 0.82915 0.0
C360 C 0.74727 0.82721 0.92661 0.0
C361 C 0.70155 0.81039 0.92449 0.0
C362 C 0.76196 0.81288 0.93773 0.0
C363 C 0.7211 0.72279 0.96386 0.0
H364 H 0.825 0.80852 0.984 0.0
C365 C 0.75181 0.69292 0.01876 0.0
C366 C 0.79414 0.6998 0.02213 0.0
C367 C 0.74421 0.70619 0.00621 0.0
C368 C 0.79626 0.78413 0.97837 0.0
H369 H 0.63534 0.76566 0.93227 0.0
H370 H 0.66064 0.74161 0.95175 0.0
H371 H 0.80446 0.83168 0.96312 0.0
H372 H 0.86235 0.72789 0.01526 0.0
H373 H 0.84926 0.75241 0.99321 0.0
H374 H 0.71194 0.67583 0.97941 0.0
C375 C 0.68539 0.76492 0.94474 0.0
C376 C 0.78449 0.7973 0.96638 0.0
C377 C 0.67081 0.77896 0.93361 0.0
C378 C 0.82933 0.72193 0.01286 0.0
C379 C 0.82185 0.73593 1.0003 0.0
C380 C 0.73255 0.70986 0.97589 0.0
C381 C 0.73116 0.78163 0.94698 0.0
C382 C 0.74623 0.76698 0.9591 0.0
C383 C 0.77898 0.7275 0.99678 0.0
C384 C 0.76978 0.74055 0.98339 0.0
H385 H 0.77167 0.85149 0.91971 0.0
H386 H 0.7974 0.82613 0.93903 0.0
H387 H 0.69215 0.69813 0.95837 0.0
H388 H 0.72438 0.67727 0.02586 0.0
H389 H 0.71106 0.70012 0.0039 0.0
C390 C 0.04977 0.73548 0.18739 0.0
C391 C 0.08849 0.77582 0.1905 0.0
C392 C 0.02788 0.72988 0.17512 0.0
C393 C 0.04007 0.7775 0.14051 0.0
H394 H 0.91178 0.70034 0.14103 0.0
C395 C 0.93466 0.71167 0.09127 0.0
C396 C 0.89003 0.70141 0.09169 0.0
C397 C 0.9608 0.72538 0.10303 0.0
C398 C 0.94747 0.72268 0.14062 0.0
H399 H 0.13443 0.8425 0.18326 0.0
H400 H 0.09488 0.83358 0.16185 0.0
H401 H 0.95289 0.71731 0.16191 0.0
H402 H 0.83841 0.69989 0.10442 0.0
H403 H 0.88418 0.7261 0.12463 0.0
H404 H 0.03403 0.78435 0.11919 0.0
C405 C 0.08218 0.80564 0.16879 0.0
C406 C 0.97136 0.73175 0.15267 0.0
C407 C 0.10467 0.81097 0.18109 0.0
C408 C 0.87258 0.70696 0.10387 0.0
C409 C 0.89886 0.72165 0.11551 0.0
C410 C 0.01595 0.76899 0.12841 0.0
C411 C 0.04327 0.76497 0.16567 0.0
C412 C 0.01809 0.75856 0.1528 0.0
C413 C 0.94304 0.72995 0.1154 0.0
C414 C 0.96925 0.74104 0.12827 0.0
H415 H 0.03606 0.70797 0.1945 0.0
H416 H 0.99884 0.69769 0.17306 0.0
H417 H 0.07602 0.79813 0.14016 0.0
H418 H 0.94884 0.70756 0.08197 0.0
H419 H 0.9944 0.73094 0.10249 0.0
C420 C 0.17544 0.82977 0.56289 0.0
C421 C 0.15619 0.81663 0.5758 0.0
C422 C 0.14876 0.81874 0.55135 0.0
C423 C 0.03244 0.7817 0.54047 0.0
H424 H 0.07287 0.75758 0.50653 0.0
C425 C 0.91793 0.70136 0.49441 0.0
C426 C 0.9339 0.72077 0.48165 0.0
C427 C 0.94577 0.71576 0.50569 0.0
C428 C 0.06144 0.76479 0.5159 0.0
H429 H 0.09396 0.78075 0.58676 0.0
H430 H 0.04702 0.75984 0.56655 0.0
H431 H 0.11885 0.77417 0.52674 0.0
H432 H 0.99154 0.77022 0.4706 0.0
H433 H 0.04107 0.7952 0.49047 0.0
H434 H 0.97425 0.77063 0.52963 0.0
C435 C 0.08281 0.77982 0.56533 0.0
C436 C 0.08777 0.77435 0.52752 0.0
C437 C 0.10963 0.7914 0.57693 0.0
C438 C 0.97838 0.75513 0.48037 0.0
C439 C 0.00667 0.76909 0.49168 0.0
C440 C 0.0059 0.77154 0.5289 0.0
C441 C 0.10201 0.79372 0.55237 0.0
C442 C 0.07366 0.78293 0.53999 0.0
C443 C 0.99053 0.74948 0.50446 0.0
C444 C 0.02007 0.76291 0.5165 0.0
H445 H 0.21129 0.84955 0.56171 0.0
H446 H 0.16494 0.83083 0.54166 0.0
H447 H 0.02075 0.78903 0.54976 0.0
H448 H 0.88377 0.67466 0.49566 0.0
H449 H 0.93254 0.69967 0.51534 0.0
C450 C 0.23249 0.9684 0.64406 0.0
C451 C 0.24492 0.9355 0.6435 0.0
C452 C 0.23827 0.99262 0.65605 0.0
C453 C 0.25498 0.98846 0.69313 0.0
H454 H 0.30349 0.11662 0.69162 0.0
C455 C 0.28139 0.09426 0.74149 0.0
C456 C 0.32102 0.13566 0.74214 0.0
C457 C 0.26879 0.06965 0.72941 0.0
C458 C 0.29008 0.08086 0.69223 0.0
H459 H 0.2722 0.90147 0.65504 0.0
H460 H 0.28295 0.94381 0.67569 0.0
H461 H 0.28753 0.074 0.67064 0.0
H462 H 0.37859 0.18378 0.73072 0.0
H463 H 0.35709 0.14078 0.70977 0.0
H464 H 0.25882 0.99538 0.71468 0.0
C465 C 0.26836 0.95088 0.66704 0.0
C466 C 0.28041 0.05633 0.68019 0.0
C467 C 0.26269 0.92693 0.65512 0.0
C468 C 0.34779 0.15198 0.73051 0.0
C469 C 0.33524 0.12746 0.71846 0.0
C470 C 0.26459 0.01294 0.70516 0.0
C471 C 0.25627 0.98408 0.6677 0.0
C472 C 0.26334 0.00988 0.68047 0.0
C473 C 0.29555 0.08596 0.71772 0.0
C474 C 0.28283 0.05956 0.70489 0.0
H475 H 0.21871 0.97566 0.63524 0.0
H476 H 0.22831 0.01774 0.65622 0.0
H477 H 0.24126 0.95265 0.69376 0.0
H478 H 0.26002 0.08098 0.75028 0.0
H479 H 0.23779 0.03806 0.7292 0.0
C480 C 0.18875 0.25652 0.91232 0.0
C481 C 0.19185 0.29855 0.9132 0.0
C482 C 0.20277 0.24421 0.90056 0.0
C483 C 0.27481 0.29357 0.87042 0.0
H484 H 0.20215 0.17696 0.85408 0.0
C485 C 0.30163 0.26053 0.81545 0.0
C486 C 0.30063 0.22043 0.81235 0.0
C487 C 0.28833 0.2671 0.82816 0.0
C488 C 0.2231 0.20945 0.85862 0.0
H489 H 0.21181 0.36056 0.90255 0.0
H490 H 0.23597 0.33925 0.88216 0.0
H491 H 0.17991 0.19395 0.87582 0.0
H492 H 0.28319 0.15485 0.81988 0.0
H493 H 0.25958 0.1662 0.84229 0.0
H494 H 0.3177 0.30943 0.85325 0.0
C495 C 0.22331 0.31586 0.89052 0.0
C496 C 0.21038 0.21916 0.87107 0.0
C497 C 0.20919 0.32799 0.90218 0.0
C498 C 0.28436 0.18615 0.82205 0.0
C499 C 0.27085 0.19267 0.83484 0.0
C500 C 0.28746 0.2839 0.85803 0.0
C501 C 0.22042 0.2739 0.88955 0.0
C502 C 0.23566 0.26168 0.87698 0.0
C503 C 0.27343 0.23358 0.83811 0.0
C504 C 0.26134 0.24206 0.85183 0.0
H505 H 0.17543 0.23318 0.92068 0.0
H506 H 0.20031 0.21173 0.90015 0.0
H507 H 0.2956 0.32629 0.87484 0.0
H508 H 0.31298 0.28711 0.80803 0.0
H509 H 0.28969 0.29857 0.83019 0.0
C510 C 0.86494 0.20298 0.06841 0.0
C511 C 0.87082 0.17942 0.079 0.0
C512 C 0.89211 0.21514 0.05694 0.0
C513 C 0.99916 0.23166 0.04356 0.0
H514 H 0.9407 0.21797 0.00903 0.0
C515 C 0.09028 0.26351 0.99147 0.0
C516 C 0.08035 0.28776 0.98208 0.0
C517 C 0.06587 0.24828 0.00356 0.0
C518 C 0.95764 0.2223 0.01859 0.0
H519 H 0.91036 0.15096 0.0861 0.0
H520 H 0.958 0.17205 0.06593 0.0
H521 H 0.89671 0.19603 0.02971 0.0
H522 H 0.03701 0.31473 0.97787 0.0
H523 H 0.99507 0.28883 0.99884 0.0
H524 H 0.06025 0.25822 0.0323 0.0
C525 C 0.9325 0.18137 0.06655 0.0
C526 C 0.93241 0.2098 0.03046 0.0
C527 C 0.90518 0.16917 0.07807 0.0
C528 C 0.04562 0.29632 0.98494 0.0
C529 C 0.02127 0.28109 0.99692 0.0
C530 C 0.0245 0.24418 0.03162 0.0
C531 C 0.9258 0.20392 0.05575 0.0
C532 C 0.95288 0.215 0.04313 0.0
C533 C 0.03089 0.25673 0.00637 0.0
C534 C 0.00407 0.24033 0.01902 0.0
H535 H 0.83888 0.21157 0.0689 0.0
H536 H 0.88661 0.23331 0.04897 0.0
H537 H 0.016 0.2363 0.05315 0.0
H538 H 0.11694 0.2565 0.9895 0.0
H539 H 0.07393 0.22939 0.0106 0.0
C540 C 0.70062 0.92515 0.24771 0.0
C541 C 0.68572 0.87921 0.24756 0.0
C542 C 0.71072 0.94922 0.23554 0.0
C543 C 0.69101 0.9305 0.1983 0.0
H544 H 0.78315 0.05494 0.19597 0.0
C545 C 0.71649 0.03059 0.14937 0.0
C546 C 0.75975 0.0639 0.14584 0.0
C547 C 0.70785 0.0099 0.16202 0.0
C548 C 0.75766 0.02002 0.19636 0.0
H549 H 0.6716 0.82271 0.23479 0.0
H550 H 0.69122 0.86456 0.21379 0.0
H551 H 0.76925 0.01568 0.21744 0.0
H552 H 0.82832 0.10083 0.15257 0.0
H553 H 0.81395 0.06304 0.1744 0.0
H554 H 0.68095 0.93379 0.17716 0.0
C555 C 0.69335 0.88208 0.22309 0.0
C556 C 0.74915 0.99763 0.20878 0.0
C557 C 0.68245 0.85804 0.23517 0.0
C558 C 0.79455 0.07541 0.15508 0.0
C559 C 0.78613 0.05404 0.16767 0.0
C560 C 0.7 0.95257 0.18588 0.0
C561 C 0.7068 0.92785 0.22303 0.0
C562 C 0.71576 0.95246 0.20992 0.0
C563 C 0.74257 0.02105 0.17135 0.0
C564 C 0.73336 0.99771 0.1847 0.0
H565 H 0.70329 0.94217 0.25717 0.0
H566 H 0.72054 0.98426 0.23594 0.0
H567 H 0.66434 0.89606 0.19874 0.0
H568 H 0.68915 0.02045 0.14235 0.0
H569 H 0.67374 0.98536 0.16448 0.0
C570 C 0.78037 0.66812 0.40654 0.0
C571 C 0.79894 0.69701 0.41762 0.0
C572 C 0.76626 0.68142 0.39514 0.0
C573 C 0.78319 0.78157 0.37677 0.0
H574 H 0.67767 0.69505 0.35744 0.0
C575 C 0.71565 0.82249 0.32787 0.0
C576 C 0.70174 0.79004 0.31765 0.0
C577 C 0.72717 0.814 0.34069 0.0
C578 C 0.70736 0.71956 0.36269 0.0
H579 H 0.81684 0.76224 0.4256 0.0
H580 H 0.79171 0.78558 0.40564 0.0
H581 H 0.69651 0.67452 0.37897 0.0
H582 H 0.69184 0.72483 0.3124 0.0
H583 H 0.71136 0.70981 0.33465 0.0
H584 H 0.79404 0.82647 0.36033 0.0
C585 C 0.78848 0.75275 0.40573 0.0
C586 C 0.71818 0.70778 0.37502 0.0
C587 C 0.80257 0.73932 0.41718 0.0
C588 C 0.70121 0.74988 0.32024 0.0
C589 C 0.7124 0.7413 0.33298 0.0
C590 C 0.77223 0.79344 0.36441 0.0
C591 C 0.77034 0.72399 0.39454 0.0
C592 C 0.75672 0.73828 0.38209 0.0
C593 C 0.72482 0.77289 0.34343 0.0
C594 C 0.7347 0.7622 0.3571 0.0
H595 H 0.77736 0.63536 0.40658 0.0
H596 H 0.75315 0.65867 0.38664 0.0
H597 H 0.8133 0.80576 0.3819 0.0
H598 H 0.71641 0.85379 0.32608 0.0
H599 H 0.73667 0.839 0.34854 0.0
C600 C 0.541 0.83575 0.30485 0.0
C601 C 0.56369 0.81904 0.31243 0.0
C602 C 0.52555 0.86175 0.31095 0.0
C603 C 0.50353 0.89855 0.34392 0.0
H604 H 0.52038 1.0001 0.32256 0.0
C605 C 0.48509 0.04252 0.36641 0.0
C606 C 0.45969 0.05632 0.35892 0.0
C607 C 0.49769 0.01346 0.36078 0.0
C608 C 0.51508 0.97169 0.32859 0.0
H609 H 0.58649 0.81463 0.33242 0.0
H610 H 0.56032 0.86143 0.3432 0.0
H611 H 0.54121 0.94803 0.31314 0.0
H612 H 0.42828 0.05146 0.33958 0.0
H613 H 0.45099 1.00094 0.32957 0.0
H614 H 0.4782 0.92311 0.35948 0.0
C615 C 0.55388 0.8538 0.33253 0.0
C616 C 0.52687 0.94168 0.3232 0.0
C617 C 0.56887 0.82703 0.32641 0.0
C618 C 0.44816 0.04156 0.34553 0.0
C619 C 0.46111 0.01267 0.33983 0.0
C620 C 0.49206 0.92886 0.34936 0.0
C621 C 0.53308 0.87244 0.32477 0.0
C622 C 0.52095 0.90451 0.33074 0.0
C623 C 0.48542 0.9978 0.34748 0.0
C624 C 0.49759 0.96565 0.34173 0.0
H625 H 0.53594 0.82942 0.29407 0.0
H626 H 0.50841 0.87422 0.30474 0.0
H627 H 0.49807 0.87011 0.34996 0.0
H628 H 0.49441 0.05337 0.37678 0.0
H629 H 0.51698 0.00314 0.36684 0.0
C630 C 0.425 0.50745 0.5246 0.0
C631 C 0.39004 0.46552 0.52059 0.0
C632 C 0.46804 0.52344 0.51957 0.0
C633 C 0.54016 0.48434 0.5045 0.0
H634 H 0.61669 0.60997 0.49625 0.0
C635 C 0.72846 0.56176 0.49125 0.0
C636 C 0.7431 0.59129 0.48018 0.0
C637 C 0.68602 0.54673 0.49685 0.0
C638 C 0.59574 0.57473 0.49848 0.0
H639 H 0.3721 0.40796 0.50784 0.0
H640 H 0.44734 0.43634 0.49878 0.0
H641 H 0.54028 0.58305 0.50346 0.0
H642 H 0.72469 0.62863 0.4665 0.0
H643 H 0.65163 0.60243 0.4761 0.0
H644 H 0.59557 0.47601 0.49913 0.0
C645 C 0.44164 0.45653 0.50601 0.0
C646 C 0.55199 0.55936 0.50272 0.0
C647 C 0.39848 0.44052 0.51105 0.0
C648 C 0.71476 0.60593 0.47502 0.0
C649 C 0.67276 0.59113 0.4806 0.0
C650 C 0.58404 0.49976 0.50024 0.0
C651 C 0.47709 0.49785 0.5104 0.0
C652 C 0.52354 0.51394 0.50572 0.0
C653 C 0.6577 0.56126 0.49154 0.0
C654 C 0.6122 0.54509 0.49706 0.0
H655 H 0.41946 0.52726 0.53202 0.0
H656 H 0.49453 0.55517 0.52328 0.0
H657 H 0.51935 0.44925 0.50694 0.0
H658 H 0.74937 0.54969 0.49542 0.0
H659 H 0.67542 0.52388 0.50534 0.0
C660 C 0.20129 0.71935 0.62953 0.0
C661 C 0.22525 0.75787 0.63748 0.0
C662 C 0.17645 0.67744 0.63556 0.0
C663 C 0.1018 0.60026 0.65054 0.0
H664 H 0.13643 0.56709 0.6839 0.0
C665 C 0.99493 0.42758 0.67648 0.0
C666 C 0.98873 0.42952 0.69045 0.0
C667 C 0.02575 0.466 0.66947 0.0
C668 C 0.1263 0.576 0.67459 0.0
H669 H 0.2434 0.78259 0.65797 0.0
H670 H 0.19902 0.70948 0.6686 0.0
H671 H 0.18856 0.63696 0.67268 0.0
H672 H 0.00971 0.47272 0.70807 0.0
H673 H 0.06339 0.53944 0.69587 0.0
H674 H 0.03953 0.53917 0.65249 0.0
C675 C 0.20001 0.71145 0.65767 0.0
C676 C 0.1561 0.6161 0.66818 0.0
C677 C 0.22539 0.75343 0.65159 0.0
C678 C 0.01377 0.47029 0.69728 0.0
C679 C 0.04477 0.50842 0.69033 0.0
C680 C 0.07219 0.55999 0.65688 0.0
C681 C 0.17445 0.67304 0.64973 0.0
C682 C 0.14404 0.62905 0.65616 0.0
C683 C 0.0512 0.50673 0.67636 0.0
C684 C 0.08388 0.54774 0.66907 0.0
H685 H 0.20113 0.72166 0.6186 0.0
H686 H 0.15824 0.64854 0.62911 0.0
H687 H 0.09093 0.60941 0.64143 0.0
H688 H 0.97615 0.39645 0.67101 0.0
H689 H 0.03017 0.46373 0.6587 0.0
C690 C 0.43877 0.18681 0.82234 0.0
C691 C 0.43314 0.18374 0.80823 0.0
C692 C 0.45539 0.16232 0.82898 0.0
C693 C 0.5211 0.10668 0.82332 0.0
H694 H 0.45529 0.03198 0.85377 0.0
C695 C 0.55616 0.97105 0.84431 0.0
C696 C 0.55287 0.96419 0.85834 0.0
C697 C 0.54261 0.99915 0.8384 0.0
C698 C 0.47456 0.05313 0.84542 0.0
H699 H 0.44188 0.15386 0.78999 0.0
H700 H 0.47109 0.11191 0.80151 0.0
H701 H 0.43185 0.08117 0.84362 0.0
H702 H 0.53351 0.98159 0.87725 0.0
H703 H 0.51116 0.03131 0.86707 0.0
H704 H 0.56413 0.0792 0.82514 0.0
C705 C 0.46253 0.13288 0.80746 0.0
C706 C 0.46104 0.08131 0.83961 0.0
C707 C 0.44538 0.15666 0.80089 0.0
C708 C 0.53605 0.98597 0.86636 0.0
C709 C 0.52296 0.01431 0.86051 0.0
C710 C 0.53494 0.07888 0.82921 0.0
C711 C 0.46743 0.13514 0.82157 0.0
C712 C 0.48389 0.10801 0.82842 0.0
C713 C 0.5259 0.02124 0.84644 0.0
C714 C 0.51162 0.05141 0.84026 0.0
H715 H 0.42961 0.2074 0.82825 0.0
H716 H 0.45904 0.16477 0.83988 0.0
H717 H 0.53959 0.12726 0.81477 0.0
H718 H 0.56904 0.95461 0.83791 0.0
H719 H 0.54479 0.00315 0.82751 0.0
C720 C 0.28762 0.40147 0.97264 0.0
C721 C 0.25728 0.41424 0.97741 0.0
C722 C 0.33008 0.41956 0.97816 0.0
C723 C 0.39795 0.47173 0.00792 0.0
H724 H 0.4957 0.50978 0.9824 0.0
C725 C 0.56943 0.49771 0.02364 0.0
C726 C 0.60748 0.53596 0.01877 0.0
C727 C 0.52722 0.48562 0.0186 0.0
C728 C 0.46892 0.49971 0.98967 0.0
H729 H 0.24769 0.45507 0.99219 0.0
H730 H 0.32261 0.48646 1.0021 0.0
H731 H 0.42066 0.48535 0.97412 0.0
H732 H 0.6315 0.59094 0.00456 0.0
H733 H 0.5576 0.56938 0.99556 0.0
H734 H 0.44623 0.48554 0.02347 0.0
C735 C 0.31301 0.46253 0.99392 0.0
C736 C 0.42589 0.48546 0.98493 0.0
C737 C 0.27018 0.44455 0.98827 0.0
C738 C 0.60274 0.56103 0.0084 0.0
C739 C 0.56044 0.54877 0.0033 0.0
C740 C 0.44103 0.48568 0.01267 0.0
C741 C 0.34363 0.45079 0.98869 0.0
C742 C 0.3898 0.47058 0.99398 0.0
C743 C 0.5221 0.51141 0.00854 0.0
C744 C 0.47687 0.49917 0.00357 0.0
H745 H 0.27901 0.37782 0.96442 0.0
H746 H 0.35248 0.40904 0.97413 0.0
H747 H 0.37079 0.46032 0.01511 0.0
H748 H 0.57209 0.47782 0.03166 0.0
H749 H 0.49849 0.45617 0.02266 0.0
C750 C 0.99054 0.53267 0.19979 0.0
C751 C 0.01161 0.57107 0.19166 0.0
C752 C 0.96113 0.49127 0.19416 0.0
C753 C 0.88969 0.43438 0.16496 0.0
H754 H 0.90955 0.33762 0.17556 0.0
C755 C 0.77482 0.2484 0.14901 0.0
C756 C 0.79831 0.22939 0.14307 0.0
C757 C 0.79793 0.28976 0.15562 0.0
C758 C 0.9035 0.36427 0.17256 0.0
H759 H 0.01749 0.59678 0.17133 0.0
H760 H 0.96574 0.52358 0.16133 0.0
H761 H 0.9558 0.41184 0.18516 0.0
H762 H 0.86381 0.23746 0.13976 0.0
H763 H 0.90383 0.30868 0.15156 0.0
H764 H 0.83758 0.38641 0.15218 0.0
C765 C 0.97205 0.52584 0.17211 0.0
C766 C 0.92981 0.40669 0.17808 0.0
C767 C 1.00178 0.56756 0.17778 0.0
C768 C 0.84491 0.25144 0.14425 0.0
C769 C 0.8678 0.29212 0.15102 0.0
C770 C 0.86294 0.39162 0.15951 0.0
C771 C 0.95203 0.48721 0.18024 0.0
C772 C 0.92341 0.44228 0.1743 0.0
C773 C 0.84468 0.31203 0.15661 0.0
C774 C 0.86999 0.35633 0.16317 0.0
H775 H 0.99712 0.53445 0.21055 0.0
H776 H 0.94567 0.46226 0.20071 0.0
H777 H 0.88387 0.46116 0.16194 0.0
H778 H 0.7389 0.2322 0.14811 0.0
H779 H 0.77939 0.30441 0.15992 0.0
C780 C 0.94887 0.5225 0.48491 0.0
C781 C 0.9454 0.5583 0.49023 0.0
C782 C 0.97963 0.51177 0.49017 0.0
C783 C 0.04729 0.52392 0.52012 0.0
H784 H 0.10895 0.48678 0.49505 0.0
C785 C 0.12451 0.42003 0.53724 0.0
C786 C 0.16606 0.42928 0.53201 0.0
C787 C 0.10252 0.44117 0.53207 0.0
C788 C 0.09254 0.49767 0.50218 0.0
H789 H 0.97069 0.61061 0.50536 0.0
H790 H 0.02482 0.59173 0.51469 0.0
H791 H 0.06142 0.51452 0.48637 0.0
H792 H 0.21668 0.46761 0.517 0.0
H793 H 0.17772 0.50471 0.50782 0.0
H794 H 0.07827 0.50692 0.53593 0.0
C795 C 0.0035 0.57184 0.50646 0.0
C796 C 0.06487 0.51305 0.49722 0.0
C797 C 0.9725 0.58259 0.50117 0.0
C798 C 0.1847 0.45968 0.52123 0.0
C799 C 0.16243 0.48093 0.51599 0.0
C800 C 0.07494 0.50854 0.52508 0.0
C801 C 0.00783 0.5367 0.50086 0.0
C802 C 0.04102 0.52524 0.50614 0.0
C803 C 0.12133 0.47223 0.5215 0.0
C804 C 0.09694 0.49413 0.51617 0.0
H805 H 0.92827 0.50313 0.47649 0.0
H806 H 0.98127 0.48382 0.48585 0.0
H807 H 0.02942 0.53301 0.52727 0.0
H808 H 0.10878 0.3965 0.54545 0.0
H809 H 0.0704 0.4328 0.5363 0.0
C810 C 0.43753 0.98908 0.66331 0.0
C811 C 0.43781 0.9812 0.64939 0.0
C812 C 0.47706 0.01954 0.66986 0.0
C813 C 0.58942 0.11568 0.6631 0.0
H814 H 0.62038 0.08339 0.69725 0.0
C815 C 0.76685 0.21125 0.68644 0.0
C816 C 0.76953 0.21463 0.7006 0.0
C817 C 0.72533 0.18603 0.68013 0.0
C818 C 0.61199 0.09329 0.68781 0.0
H819 H 0.47923 0.99847 0.63142 0.0
H820 H 0.54782 0.05103 0.64282 0.0
H821 H 0.54906 0.03271 0.68676 0.0
H822 H 0.731 0.19731 0.71919 0.0
H823 H 0.65912 0.15465 0.70825 0.0
H824 H 0.65253 0.17619 0.66411 0.0
C825 C 0.51729 0.03438 0.64867 0.0
C826 C 0.57107 0.06419 0.68182 0.0
C827 C 0.47804 0.00396 0.64217 0.0
C828 C 0.73005 0.19456 0.70826 0.0
C829 C 0.6888 0.1699 0.702 0.0
C830 C 0.63033 0.1449 0.66912 0.0
C831 C 0.51728 0.0427 0.66256 0.0
C832 C 0.5595 0.07488 0.66934 0.0
C833 C 0.68595 0.16423 0.6879 0.0
C834 C 0.64217 0.13394 0.68152 0.0
H835 H 0.40684 0.97206 0.66907 0.0
H836 H 0.47606 0.02548 0.68059 0.0
H837 H 0.58114 0.12506 0.65355 0.0
H838 H 0.79683 0.22635 0.68032 0.0
H839 H 0.72425 0.18218 0.66925 0.0
C840 C 0.55997 0.71448 0.87113 0.0
C841 C 0.56925 0.75272 0.86359 0.0
C842 C 0.54146 0.67269 0.86506 0.0
C843 C 0.53048 0.61717 0.8326 0.0
H844 H 0.44789 0.5127 0.85328 0.0
C845 C 0.49866 0.44103 0.81916 0.0
C846 C 0.45506 0.40489 0.82047 0.0
C847 C 0.5097 0.48328 0.82411 0.0
C848 C 0.47049 0.54134 0.84725 0.0
H849 H 0.56522 0.77656 0.84368 0.0
H850 H 0.53239 0.70247 0.83288 0.0
H851 H 0.46849 0.58677 0.86153 0.0
H852 H 0.38902 0.38418 0.82823 0.0
H853 H 0.40798 0.45784 0.83674 0.0
H854 H 0.53198 0.57156 0.81821 0.0
C855 C 0.53998 0.70547 0.84358 0.0
C856 C 0.48266 0.58396 0.85205 0.0
C857 C 0.55852 0.74779 0.84975 0.0
C858 C 0.42304 0.41137 0.82721 0.0
C859 C 0.43397 0.45369 0.83207 0.0
C860 C 0.51809 0.5744 0.82773 0.0
C861 C 0.53136 0.66746 0.85122 0.0
C862 C 0.51365 0.62246 0.84498 0.0
C863 C 0.47728 0.49042 0.83039 0.0
C864 C 0.48861 0.53593 0.83514 0.0
H865 H 0.56733 0.71661 0.88184 0.0
H866 H 0.53614 0.64454 0.87123 0.0
H867 H 0.55455 0.64605 0.82692 0.0
H868 H 0.52397 0.43696 0.81398 0.0
H869 H 0.54363 0.51042 0.82292 0.0
C870 C 0.83671 0.56288 0.01732 0.0
C871 C 0.82783 0.5598 0.03124 0.0
C872 C 0.86365 0.54692 0.01197 0.0
C873 C 0.94802 0.51607 0.02314 0.0
H874 H 0.93608 0.47345 0.98627 0.0
C875 C 0.04759 0.43657 0.99974 0.0
C876 C 0.06779 0.45498 0.98724 0.0
C877 C 0.01817 0.44848 0.00568 0.0
C878 C 0.93978 0.48535 0.99659 0.0
H879 H 0.83724 0.53508 0.05036 0.0
H880 H 0.88172 0.50502 0.04102 0.0
H881 H 0.88227 0.49283 0.99521 0.0
H882 H 0.07397 0.50092 0.97132 0.0
H883 H 0.0223 0.52097 0.98155 0.0
H884 H 0.00503 0.50733 0.02451 0.0
C885 C 0.87011 0.52159 0.03423 0.0
C886 C 0.90911 0.49677 1.00171 0.0
C887 C 0.84417 0.53841 0.03959 0.0
C888 C 0.05898 0.48623 0.98098 0.0
C889 C 0.02914 0.49748 0.98677 0.0
C890 C 0.97816 0.50385 0.01809 0.0
C891 C 0.88144 0.52675 0.02041 0.0
C892 C 0.91299 0.51273 0.01503 0.0
C893 C 0.00796 0.47829 0.99906 0.0
C894 C 0.97463 0.48889 0.00472 0.0
H895 H 0.82473 0.57959 0.01071 0.0
H896 H 0.87185 0.55201 1.00131 0.0
H897 H 0.95299 0.52914 0.03334 0.0
H898 H 0.05358 0.41217 0.00473 0.0
H899 H 1.00222 0.43324 0.01518 0.0
C900 C 0.53331 0.02315 0.14128 0.0
C901 C 0.57384 0.0343 0.1476 0.0
C902 C 0.49281 0.99173 0.14706 0.0
C903 C 0.43996 0.9349 0.17897 0.0
H904 H 0.35038 0.84549 0.15532 0.0
C905 C 0.27926 0.79211 0.20113 0.0
C906 C 0.2393 0.78213 0.19466 0.0
C907 C 0.32015 0.81841 0.19473 0.0
C908 C 0.37484 0.87042 0.16204 0.0
H909 H 0.60394 0.0223 0.16509 0.0
H910 H 0.53288 0.96745 0.17535 0.0
H911 H 0.42171 0.90237 0.14594 0.0
H912 H 0.21027 0.7897 0.17621 0.0
H913 H 0.28212 0.8366 0.16496 0.0
H914 H 0.39312 0.90373 0.19504 0.0
C915 C 0.53246 0.98315 0.16591 0.0
C916 C 0.41573 0.90303 0.15667 0.0
C917 C 0.57312 0.01457 0.16007 0.0
C918 C 0.24069 0.79657 0.18132 0.0
C919 C 0.28186 0.82353 0.17493 0.0
C920 C 0.39908 0.90248 0.18433 0.0
C921 C 0.49188 0.97078 0.15933 0.0
C922 C 0.44871 0.93573 0.16508 0.0
C923 C 0.32213 0.83604 0.18177 0.0
C924 C 0.36596 0.86975 0.17595 0.0
H925 H 0.53289 0.03786 0.13164 0.0
H926 H 0.46216 0.98359 0.14187 0.0
H927 H 0.46436 0.95996 0.18569 0.0
H928 H 0.27898 0.781 0.2114 0.0
H929 H 0.35033 0.82617 0.20015 0.0
C930 C 0.50138 0.56914 0.32254 0.0
C931 C 0.54683 0.60141 0.32268 0.0
C932 C 0.48697 0.5256 0.327 0.0
C933 C 0.52291 0.4551 0.34571 0.0
H934 H 0.42615 0.35967 0.32553 0.0
C935 C 0.46375 0.26823 0.3555 0.0
C936 C 0.41798 0.24306 0.35837 0.0
C937 C 0.4817 0.31092 0.34975 0.0
C938 C 0.45326 0.38599 0.33123 0.0
H939 H 0.61279 0.61415 0.32801 0.0
H940 H 0.58795 0.53805 0.33553 0.0
H941 H 0.45269 0.43717 0.31928 0.0
H942 H 0.35475 0.2412 0.35687 0.0
H943 H 0.38568 0.31477 0.34643 0.0
H944 H 0.52347 0.40344 0.35757 0.0
C945 C 0.56314 0.54625 0.33221 0.0
C946 C 0.46824 0.43048 0.32775 0.0
C947 C 0.57746 0.58994 0.32788 0.0
C948 C 0.39012 0.25992 0.35466 0.0
C949 C 0.40783 0.302 0.34869 0.0
C950 C 0.50822 0.41051 0.34908 0.0
C951 C 0.51779 0.51319 0.33154 0.0
C952 C 0.5028 0.46573 0.33508 0.0
C953 C 0.45396 0.32854 0.34656 0.0
C954 C 0.47283 0.37552 0.342 0.0
H955 H 0.47705 0.57716 0.31861 0.0
H956 H 0.45166 0.50148 0.32667 0.0
H957 H 0.54924 0.4812 0.35168 0.0
H958 H 0.48596 0.25618 0.35848 0.0
H959 H 0.51736 0.33063 0.34815 0.0
C960 C 0.02829 0.70938 0.44978 0.0
C961 C 0.99195 0.69741 0.44106 0.0
C962 C 0.07125 0.74289 0.44609 0.0
C963 C 0.14011 0.81206 0.41705 0.0
H964 H 0.20252 0.90201 0.4446 0.0
C965 C 0.30252 0.97524 0.4045 0.0
C966 C 0.30397 0.01454 0.40906 0.0
C967 C 0.27059 0.93345 0.40957 0.0
C968 C 0.18559 0.8772 0.43679 0.0
H969 H 0.97294 0.70947 0.42129 0.0
H970 H 0.04746 0.76758 0.41491 0.0
H971 H 0.13463 0.83302 0.4505 0.0
H972 H 0.27462 0.04067 0.42318 0.0
H973 H 0.21901 0.96809 0.4319 0.0
H974 H 0.18976 0.85713 0.40319 0.0
C975 C 0.04299 0.7511 0.42457 0.0
C976 C 0.1469 0.83734 0.44021 0.0
C977 C 1.00008 0.71781 0.42827 0.0
C978 C 0.27451 0.01119 0.41939 0.0
C979 C 0.24263 0.96943 0.42446 0.0
C980 C 0.17879 0.85189 0.41364 0.0
C981 C 0.07892 0.76499 0.43358 0.0
C982 C 0.12309 0.80467 0.43031 0.0
C983 C 0.23941 0.92991 0.41934 0.0
C984 C 0.20152 0.88542 0.4234 0.0
H985 H 0.0233 0.69454 0.45974 0.0
H986 H 0.09827 0.7523 0.4532 0.0
H987 H 0.12295 0.78743 0.40921 0.0
H988 H 0.32481 0.97647 0.3966 0.0
H989 H 0.26962 0.90378 0.40557 0.0
C990 C 0.33729 0.31307 0.56616 0.0
C991 C 0.29982 0.31229 0.57197 0.0
C992 C 0.35204 0.2846 0.57095 0.0
C993 C 0.34811 0.19569 0.5753 0.0
H994 H 0.33743 0.15834 0.61276 0.0
C995 C 0.30767 0.0196 0.59084 0.0
C996 C 0.32517 0.01335 0.60292 0.0
C997 C 0.31607 0.06205 0.58709 0.0
C998 C 0.34141 0.16881 0.60228 0.0
H999 H 0.25043 0.28318 0.58798 0.0
H1000 H 0.27569 0.23344 0.59616 0.0
H1001 H 0.33324 0.22473 0.60705 0.0
H1002 H 0.36703 0.04735 0.62024 0.0
H1003 H 0.38189 0.12159 0.61361 0.0
H1004 H 0.35556 0.13937 0.5705 0.0
C1005 C 0.29396 0.25613 0.58797 0.0
C1006 C 0.33851 0.20661 0.59899 0.0
C1007 C 0.27921 0.28449 0.58319 0.0
C1008 C 0.35287 0.05091 0.61088 0.0
C1009 C 0.36121 0.09344 0.60713 0.0
C1010 C 0.35106 0.15794 0.57858 0.0
C1011 C 0.32973 0.2549 0.58167 0.0
C1012 C 0.34045 0.21968 0.58543 0.0
C1013 C 0.3422 0.09935 0.59532 0.0
C1014 C 0.34635 0.14326 0.59206 0.0
H1015 H 0.35415 0.33427 0.55755 0.0
H1016 H 0.38012 0.28492 0.566 0.0
H1017 H 0.34945 0.20458 0.56474 0.0
H1018 H 0.28627 0.9915 0.58444 0.0
H1019 H 0.30041 0.06525 0.57801 0.0
C1020 C 0.32659 0.35816 0.77192 0.0
C1021 C 0.32663 0.32173 0.76555 0.0
C1022 C 0.29588 0.37104 0.76813 0.0
C1023 C 0.21261 0.35733 0.74248 0.0
H1024 H 0.14255 0.3552 0.77346 0.0
C1025 C 0.02164 0.30518 0.75243 0.0
C1026 C 0.01483 0.32829 0.74187 0.0
C1027 C 0.06481 0.31611 0.75616 0.0
C1028 C 0.16204 0.35629 0.76474 0.0
H1029 H 0.29741 0.27322 0.74933 0.0
H1030 H 0.24399 0.29596 0.74269 0.0
H1031 H 0.21178 0.3542 0.77698 0.0
H1032 H 0.04823 0.38342 0.72767 0.0
H1033 H 0.12329 0.40205 0.73415 0.0
H1034 H 0.16188 0.35752 0.73023 0.0
C1035 C 0.26755 0.31431 0.75066 0.0
C1036 C 0.20183 0.35612 0.76674 0.0
C1037 C 0.29807 0.30117 0.75451 0.0
C1038 C 0.05213 0.36457 0.73577 0.0
C1039 C 0.09521 0.37522 0.73942 0.0
C1040 C 0.17305 0.35796 0.74048 0.0
C1041 C 0.26497 0.34811 0.75782 0.0
C1042 C 0.22688 0.35547 0.75562 0.0
C1043 C 0.10191 0.35019 0.74934 0.0
C1044 C 0.14682 0.35627 0.75159 0.0
H1045 H 0.34843 0.37513 0.78038 0.0
H1046 H 0.29501 0.39767 0.77367 0.0
H1047 H 0.2314 0.35701 0.73375 0.0
H1048 H 0.99371 0.27722 0.75739 0.0
H1049 H 0.06903 0.29612 0.76381 0.0
C1050 C 0.69882 0.03546 0.90003 0.0
C1051 C 0.69572 0.99744 0.90629 0.0
C1052 C 0.73099 0.07835 0.90418 0.0
C1053 C 0.82513 0.15744 0.90735 0.0
H1054 H 0.86217 0.18949 0.94462 0.0
C1055 C 0.00481 0.28325 0.92332 0.0
C1056 C 0.01196 0.30931 0.93497 0.0
C1057 C 0.96156 0.25236 0.91918 0.0
C1058 C 0.8519 0.1815 0.93416 0.0
H1059 H 0.72191 0.97485 0.92248 0.0
H1060 H 0.77775 0.04949 0.92972 0.0
H1061 H 0.79254 0.12103 0.93966 0.0
H1062 H 0.97901 0.32569 0.95083 0.0
H1063 H 0.90362 0.27186 0.94356 0.0
H1064 H 0.88513 0.21728 0.90184 0.0
C1065 C 0.75539 0.04621 0.92159 0.0
C1066 C 0.81221 0.14203 0.93133 0.0
C1067 C 0.72346 0.00334 0.91738 0.0
C1068 C 0.97481 0.306 0.94184 0.0
C1069 C 0.93154 0.27492 0.93774 0.0
C1070 C 0.86494 0.19681 0.91018 0.0
C1071 C 0.76045 0.08416 0.91477 0.0
C1072 C 0.79892 0.12902 0.91789 0.0
C1073 C 0.92448 0.24676 0.92663 0.0
C1074 C 0.8793 0.20873 0.92361 0.0
H1075 H 0.67794 0.03223 0.89146 0.0
H1076 H 0.7337 0.10698 0.89885 0.0
H1077 H 0.81603 0.14821 0.89688 0.0
H1078 H 0.03262 0.28505 0.91774 0.0
H1079 H 0.95732 0.23102 0.91062 0.0
C1080 C 0.7037 0.98957 0.08496 0.0
C1081 C 0.68043 0.99344 0.09606 0.0
C1082 C 0.69543 0.94758 0.08065 0.0
C1083 C 0.66072 0.83817 0.09509 0.0
H1084 H 0.66814 0.80592 0.058 0.0
C1085 C 0.72204 0.71711 0.07982 0.0
C1086 C 0.70214 0.68888 0.06865 0.0
C1087 C 0.70911 0.74793 0.08362 0.0
C1088 C 0.66532 0.81407 0.06841 0.0
H1089 H 0.62753 0.95593 0.11059 0.0
H1090 H 0.6132 0.88281 0.10303 0.0
H1091 H 0.66233 0.87226 0.06262 0.0
H1092 H 0.65104 0.66904 0.05323 0.0
H1093 H 0.62868 0.72288 0.05989 0.0
H1094 H 0.66503 0.78073 0.1009 0.0
C1095 C 0.63829 0.91232 0.09782 0.0
C1096 C 0.66238 0.85224 0.07104 0.0
C1097 C 0.64638 0.95427 0.10208 0.0
C1098 C 0.66729 0.69042 0.06185 0.0
C1099 C 0.65459 0.72144 0.06559 0.0
C1100 C 0.66398 0.80019 0.09246 0.0
C1101 C 0.66379 0.90864 0.08737 0.0
C1102 C 0.66091 0.86517 0.08442 0.0
C1103 C 0.67616 0.75128 0.0763 0.0
C1104 C 0.66719 0.78824 0.0791 0.0
H1105 H 0.73 0.01902 0.08004 0.0
H1106 H 0.71577 0.94586 0.0726 0.0
H1107 H 0.66011 0.84751 0.10552 0.0
H1108 H 0.74886 0.71671 0.08532 0.0
H1109 H 0.72654 0.77068 0.09187 0.0
C1110 C 0.71066 0.71984 0.25692 0.0
C1111 C 0.68814 0.7002 0.26904 0.0
C1112 C 0.74407 0.712 0.25217 0.0
C1113 C 0.83617 0.72436 0.25296 0.0
H1114 H 0.84005 0.61421 0.2544 0.0
C1115 C 1.00207 0.72813 0.24895 0.0
C1116 C 0.00382 0.69901 0.23936 0.0
C1117 C 0.96114 0.72238 0.25324 0.0
C1118 C 0.83932 0.64515 0.25392 0.0
H1119 H 0.68025 0.65383 0.28505 0.0
H1120 H 0.73903 0.64059 0.27682 0.0
H1121 H 0.76968 0.61278 0.25889 0.0
H1122 H 0.96376 0.63902 0.22751 0.0
H1123 H 0.89232 0.62927 0.23497 0.0
H1124 H 0.90535 0.75684 0.24796 0.0
C1125 C 0.73072 0.66188 0.27096 0.0
C1126 C 0.79918 0.64436 0.25654 0.0
C1127 C 0.69705 0.66956 0.27569 0.0
C1128 C 0.96367 0.66223 0.23486 0.0
C1129 C 0.92266 0.6565 0.23916 0.0
C1130 C 0.87611 0.72518 0.25044 0.0
C1131 C 0.75583 0.68458 0.25948 0.0
C1132 C 0.79725 0.68403 0.25606 0.0
C1133 C 0.92106 0.68741 0.24804 0.0
C1134 C 0.87826 0.68571 0.25096 0.0
H1135 H 0.70409 0.74307 0.25144 0.0
H1136 H 0.76214 0.72908 0.2431 0.0
H1137 H 0.83605 0.75564 0.25275 0.0
H1138 H 0.03229 0.75647 0.25278 0.0
H1139 H 0.96087 0.74618 0.26032 0.0
C1140 C 0.73644 0.52065 0.44789 0.0
C1141 C 0.77731 0.53677 0.44113 0.0
C1142 C 0.69703 0.48737 0.44219 0.0
C1143 C 0.64113 0.41902 0.41218 0.0
H1144 H 0.58225 0.32517 0.43901 0.0
C1145 C 0.47115 0.25783 0.40265 0.0
C1146 C 0.46933 0.21749 0.40617 0.0
C1147 C 0.5073 0.2989 0.40663 0.0
C1148 C 0.59827 0.35095 0.43139 0.0
H1149 H 0.80875 0.53247 0.42272 0.0
H1150 H 0.7391 0.47323 0.41261 0.0
H1151 H 0.64793 0.39528 0.44528 0.0
H1152 H 0.50287 0.1885 0.41707 0.0
H1153 H 0.56545 0.26015 0.42432 0.0
H1154 H 0.59124 0.37399 0.39826 0.0
C1155 C 0.73774 0.48721 0.42229 0.0
C1156 C 0.63571 0.39133 0.435 0.0
C1157 C 0.77752 0.52129 0.42801 0.0
C1158 C 0.50327 0.21901 0.41428 0.0
C1159 C 0.53914 0.26005 0.41839 0.0
C1160 C 0.60317 0.37856 0.40858 0.0
C1161 C 0.69753 0.46844 0.42968 0.0
C1162 C 0.65757 0.42591 0.42547 0.0
C1163 C 0.54204 0.30049 0.41437 0.0
C1164 C 0.58146 0.34404 0.41816 0.0
H1165 H 0.73522 0.53111 0.45811 0.0
H1166 H 0.66652 0.47427 0.44802 0.0
H1167 H 0.65732 0.445 0.40463 0.0
H1168 H 0.44557 0.25779 0.39636 0.0
H1169 H 0.50827 0.32945 0.40355 0.0
C1170 C 0.26924 0.78335 0.5943 0.0
C1171 C 0.31292 0.81527 0.59804 0.0
C1172 C 0.25933 0.74024 0.59039 0.0
C1173 C 0.3025 0.66545 0.59792 0.0
H1174 H 0.22703 0.58955 0.56907 0.0
C1175 C 0.30448 0.50804 0.5804 0.0
C1176 C 0.26531 0.47183 0.57525 0.0
C1177 C 0.30507 0.54706 0.58448 0.0
C1178 C 0.24754 0.61005 0.57734 0.0
H1179 H 0.38113 0.82926 0.59899 0.0
H1180 H 0.36431 0.75527 0.59172 0.0
H1181 H 0.23837 0.66505 0.57175 0.0
H1182 H 0.19505 0.44656 0.57145 0.0
H1183 H 0.19598 0.51455 0.57874 0.0
H1184 H 0.31199 0.61109 0.60355 0.0
C1185 C 0.33739 0.76261 0.59227 0.0
C1186 C 0.25416 0.65333 0.57881 0.0
C1187 C 0.3471 0.80518 0.59625 0.0
C1188 C 0.22587 0.47407 0.57528 0.0
C1189 C 0.22649 0.51319 0.57932 0.0
C1190 C 0.29574 0.62234 0.59651 0.0
C1191 C 0.29312 0.72894 0.59008 0.0
C1192 C 0.28268 0.68183 0.5889 0.0
C1193 C 0.26645 0.55068 0.58354 0.0
C1194 C 0.26902 0.59441 0.58603 0.0
H1195 H 0.24219 0.79004 0.59556 0.0
H1196 H 0.22492 0.71498 0.58863 0.0
H1197 H 0.3237 0.68625 0.60604 0.0
H1198 H 0.33538 0.50732 0.5805 0.0
H1199 H 0.33653 0.5753 0.58761 0.0
C1200 C 0.52691 0.33118 0.762 0.0
C1201 C 0.48805 0.29137 0.76547 0.0
C1202 C 0.56523 0.33043 0.75803 0.0
C1203 C 0.61823 0.26185 0.76262 0.0
H1204 H 0.70324 0.34462 0.73663 0.0
C1205 C 0.77853 0.26277 0.74384 0.0
C1206 C 0.81531 0.30485 0.74089 0.0
C1207 C 0.73857 0.25923 0.74839 0.0
C1208 C 0.68007 0.32169 0.74405 0.0
H1209 H 0.4575 0.21923 0.76639 0.0
H1210 H 0.52419 0.21784 0.75919 0.0
H1211 H 0.63157 0.34064 0.73939 0.0
H1212 H 0.84087 0.37617 0.74151 0.0
H1213 H 0.77202 0.37024 0.74994 0.0
H1214 H 0.66701 0.2428 0.76717 0.0
C1215 C 0.52545 0.24973 0.75989 0.0
C1216 C 0.63892 0.3193 0.74559 0.0
C1217 C 0.48712 0.2505 0.76386 0.0
C1218 C 0.81299 0.34334 0.74381 0.0
C1219 C 0.7734 0.33991 0.74844 0.0
C1220 C 0.65946 0.26412 0.76103 0.0
C1221 C 0.56536 0.28981 0.75739 0.0
C1222 C 0.60768 0.28974 0.75499 0.0
C1223 C 0.73509 0.29781 0.75005 0.0
C1224 C 0.69105 0.29456 0.75187 0.0
H1225 H 0.52859 0.36317 0.76315 0.0
H1226 H 0.59544 0.36195 0.75622 0.0
H1227 H 0.59513 0.23912 0.77009 0.0
H1228 H 0.77899 0.23255 0.74141 0.0
H1229 H 0.70956 0.22632 0.74955 0.0
C1230 C 0.4864 0.78945 0.90968 0.0
C1231 C 0.52622 0.79192 0.90544 0.0
C1232 C 0.45118 0.74939 0.9145 0.0
C1233 C 0.41335 0.63598 0.92665 0.0
H1234 H 0.30822 0.60705 0.90539 0.0
C1235 C 0.25036 0.46671 0.93276 0.0
C1236 C 0.21122 0.46933 0.93355 0.0
C1237 C 0.29029 0.5034 0.9283 0.0
C1238 C 0.33703 0.61465 0.91152 0.0
H1239 H 0.56148 0.75519 0.90368 0.0
H1240 H 0.50001 0.68501 0.91245 0.0
H1241 H 0.3764 0.67797 0.90187 0.0
H1242 H 0.18246 0.51119 0.92947 0.0
H1243 H 0.25176 0.57512 0.92189 0.0
H1244 H 0.37353 0.57318 0.93662 0.0
C1245 C 0.49629 0.7143 0.9121 0.0
C1246 C 0.37613 0.65531 0.9095 0.0
C1247 C 0.53169 0.75464 0.90723 0.0
C1248 C 0.21208 0.50816 0.92896 0.0
C1249 C 0.25194 0.54484 0.92458 0.0
C1250 C 0.37391 0.59534 0.92881 0.0
C1251 C 0.45499 0.71086 0.9151 0.0
C1252 C 0.41444 0.66673 0.91718 0.0
C1253 C 0.29186 0.54343 0.92455 0.0
C1254 C 0.33503 0.58447 0.9214 0.0
H1255 H 0.48118 0.81758 0.90821 0.0
H1256 H 0.41991 0.74778 0.91694 0.0
H1257 H 0.44253 0.64397 0.93266 0.0
H1258 H 0.25065 0.4371 0.9362 0.0
H1259 H 0.32015 0.50076 0.92814 0.0
C1260 C 0.67097 0.19301 0.09268 0.0
C1261 C 0.7087 0.19087 0.09673 0.0
C1262 C 0.67466 0.23406 0.08938 0.0
C1263 C 0.75239 0.3509 0.08003 0.0
H1264 H 0.66907 0.37504 0.09932 0.0
C1265 C 0.76667 0.52343 0.07648 0.0
C1266 C 0.72645 0.523 0.0742 0.0
C1267 C 0.76635 0.48478 0.08083 0.0
C1268 C 0.69235 0.36879 0.09375 0.0
H1269 H 0.78031 0.22943 0.09953 0.0
H1270 H 0.78686 0.30093 0.09344 0.0
H1271 H 0.6641 0.30249 0.10172 0.0
H1272 H 0.65452 0.48304 0.07581 0.0
H1273 H 0.65381 0.41567 0.08318 0.0
H1274 H 0.77999 0.4166 0.07175 0.0
C1275 C 0.75442 0.27097 0.09295 0.0
C1276 C 0.68942 0.32716 0.09512 0.0
C1277 C 0.75067 0.22999 0.09639 0.0
C1278 C 0.68608 0.4844 0.07746 0.0
C1279 C 0.68573 0.44568 0.08171 0.0
C1280 C 0.75504 0.3924 0.07854 0.0
C1281 C 0.71622 0.27362 0.0899 0.0
C1282 C 0.71923 0.3177 0.08821 0.0
C1283 C 0.72579 0.44487 0.08295 0.0
C1284 C 0.72491 0.40185 0.08533 0.0
H1285 H 0.63819 0.16342 0.09282 0.0
H1286 H 0.64478 0.23507 0.08684 0.0
H1287 H 0.77571 0.34443 0.07456 0.0
H1288 H 0.79832 0.55288 0.07416 0.0
H1289 H 0.79789 0.48577 0.08204 0.0
C1290 C 0.52621 0.76354 0.26573 0.0
C1291 C 0.52457 0.7223 0.26729 0.0
C1292 C 0.48989 0.76536 0.26037 0.0
C1293 C 0.38528 0.70169 0.24127 0.0
H1294 H 0.34239 0.76455 0.26377 0.0
C1295 C 0.20742 0.66486 0.23606 0.0
C1296 C 0.19983 0.70101 0.23528 0.0
C1297 C 0.2482 0.67105 0.24045 0.0
C1298 C 0.35426 0.74739 0.25729 0.0
H1299 H 0.48538 0.65118 0.26345 0.0
H1300 H 0.42212 0.65436 0.25385 0.0
H1301 H 0.41401 0.76987 0.26885 0.0
H1302 H 0.22781 0.7716 0.23938 0.0
H1303 H 0.30013 0.78286 0.24697 0.0
H1304 H 0.32571 0.67892 0.22976 0.0
C1305 C 0.4513 0.68525 0.2569 0.0
C1306 C 0.39525 0.75048 0.26017 0.0
C1307 C 0.4875 0.68338 0.26237 0.0
C1308 C 0.23271 0.74312 0.23995 0.0
C1309 C 0.27415 0.74954 0.24423 0.0
C1310 C 0.34455 0.69879 0.23836 0.0
C1311 C 0.45153 0.72605 0.25629 0.0
C1312 C 0.41069 0.72688 0.25234 0.0
C1313 C 0.28279 0.7138 0.24397 0.0
C1314 C 0.328 0.72064 0.24654 0.0
H1315 H 0.5546 0.7942 0.26931 0.0
H1316 H 0.49129 0.79735 0.2598 0.0
H1317 H 0.39668 0.68379 0.23494 0.0
H1318 H 0.1824 0.63193 0.23262 0.0
H1319 H 0.25322 0.64252 0.24058 0.0
loop_
_geom_bond_atom_site_label_1
_geom_bond_atom_site_label_2
_geom_bond_distance
_geom_bond_site_symmetry_2
_ccdc_geom_bond_type
Tb0 O3 2.453 . S
Tb0 O4 2.596 . S
Tb0 O5 2.374 . S
Tb0 O13 2.343 . S
Tb0 O15 2.353 . S
Tb0 O17 2.427 . S
Tb0 O18 2.513 . S
C1 O5 1.251 . S
C1 O7 1.263 . S
Tb2 O4 2.343 . S
Tb2 O7 2.353 . S
Tb2 O10 2.427 . S
Tb2 O11 2.513 . S
Tb2 O12 2.453 . S
Tb2 O13 2.596 . S
Tb2 O14 2.374 . S
O3 Tb0 2.453 . S
O3 C19 1.245 . S
O4 Tb0 2.596 . S
O4 Tb2 2.343 . S
O4 C19 1.259 . S
O5 Tb0 2.374 . S
O5 C1 1.251 . S
C6 O10 1.275 . S
C6 O11 1.246 . S
O7 C1 1.263 . S
O7 Tb2 2.353 . S
C8 O12 1.245 . S
C8 O13 1.259 . S
C9 O14 1.250 . S
C9 O15 1.263 . S
O10 Tb2 2.427 . S
O10 C6 1.275 . S
O11 Tb2 2.513 . S
O11 C6 1.246 . S
O12 Tb2 2.453 . S
O12 C8 1.245 . S
O13 Tb0 2.343 . S
O13 Tb2 2.596 . S
O13 C8 1.259 . S
O14 Tb2 2.374 . S
O14 C9 1.250 . S
O15 Tb0 2.353 . S
O15 C9 1.263 . S
C16 O17 1.275 . S
C16 O18 1.246 . S
O17 Tb0 2.427 . S
O17 C16 1.275 . S
O18 Tb0 2.513 . S
O18 C16 1.246 . S
C19 O3 1.245 . S
C19 O4 1.259 . S
Tb20 O23 2.453 . S
Tb20 O24 2.596 . S
Tb20 O25 2.374 . S
Tb20 O33 2.343 . S
Tb20 O35 2.353 . S
Tb20 O37 2.427 . S
Tb20 O38 2.513 . S
C21 O25 1.251 . S
C21 O27 1.263 . S
Tb22 O24 2.343 . S
Tb22 O27 2.353 . S
Tb22 O30 2.427 . S
Tb22 O31 2.513 . S
Tb22 O32 2.453 . S
Tb22 O33 2.596 . S
Tb22 O34 2.374 . S
O23 Tb20 2.453 . S
O23 C39 1.245 . S
O24 Tb20 2.596 . S
O24 Tb22 2.343 . S
O24 C39 1.259 . S
O25 Tb20 2.374 . S
O25 C21 1.251 . S
C26 O30 1.275 . S
C26 O31 1.246 . S
O27 C21 1.263 . S
O27 Tb22 2.353 . S
C28 O32 1.245 . S
C28 O33 1.259 . S
C29 O34 1.250 . S
C29 O35 1.263 . S
O30 Tb22 2.427 . S
O30 C26 1.275 . S
O31 Tb22 2.513 . S
O31 C26 1.246 . S
O32 Tb22 2.453 . S
O32 C28 1.245 . S
O33 Tb20 2.343 . S
O33 Tb22 2.596 . S
O33 C28 1.259 . S
O34 Tb22 2.374 . S
O34 C29 1.250 . S
O35 Tb20 2.353 . S
O35 C29 1.263 . S
C36 O37 1.275 . S
C36 O38 1.246 . S
O37 Tb20 2.427 . S
O37 C36 1.275 . S
O38 Tb20 2.513 . S
O38 C36 1.246 . S
C39 O23 1.245 . S
C39 O24 1.259 . S
Tb40 O43 2.453 . S
Tb40 O44 2.596 . S
Tb40 O45 2.374 . S
Tb40 O53 2.343 . S
Tb40 O55 2.353 . S
Tb40 O57 2.427 . S
Tb40 O58 2.513 . S
C41 O45 1.251 . S
C41 O47 1.263 . S
Tb42 O44 2.343 . S
Tb42 O47 2.353 . S
Tb42 O50 2.427 . S
Tb42 O51 2.513 . S
Tb42 O52 2.453 . S
Tb42 O53 2.596 . S
Tb42 O54 2.374 . S
O43 Tb40 2.453 . S
O43 C59 1.245 . S
O44 Tb40 2.596 . S
O44 Tb42 2.343 . S
O44 C59 1.259 . S
O45 Tb40 2.374 . S
O45 C41 1.251 . S
C46 O50 1.275 . S
C46 O51 1.246 . S
O47 C41 1.263 . S
O47 Tb42 2.353 . S
C48 O52 1.245 . S
C48 O53 1.259 . S
C49 O54 1.250 . S
C49 O55 1.263 . S
O50 Tb42 2.427 . S
O50 C46 1.275 . S
O51 Tb42 2.513 . S
O51 C46 1.246 . S
O52 Tb42 2.453 . S
O52 C48 1.245 . S
O53 Tb40 2.343 . S
O53 Tb42 2.596 . S
O53 C48 1.259 . S
O54 Tb42 2.374 . S
O54 C49 1.250 . S
O55 Tb40 2.353 . S
O55 C49 1.263 . S
C56 O57 1.275 . S
C56 O58 1.246 . S
O57 Tb40 2.427 . S
O57 C56 1.275 . S
O58 Tb40 2.513 . S
O58 C56 1.246 . S
C59 O43 1.245 . S
C59 O44 1.259 . S
Tb60 O63 2.453 . S
Tb60 O64 2.596 . S
Tb60 O65 2.374 . S
Tb60 O73 2.343 . S
Tb60 O75 2.353 . S
Tb60 O77 2.427 . S
Tb60 O78 2.513 . S
C61 O65 1.251 . S
C61 O67 1.263 . S
Tb62 O64 2.343 . S
Tb62 O67 2.353 . S
Tb62 O70 2.427 . S
Tb62 O71 2.513 . S
Tb62 O72 2.453 . S
Tb62 O73 2.596 . S
Tb62 O74 2.374 . S
O63 Tb60 2.453 . S
O63 C79 1.245 . S
O64 Tb60 2.596 . S
O64 Tb62 2.343 . S
O64 C79 1.259 . S
O65 Tb60 2.374 . S
O65 C61 1.251 . S
C66 O70 1.275 . S
C66 O71 1.246 . S
O67 C61 1.263 . S
O67 Tb62 2.353 . S
C68 O72 1.245 . S
C68 O73 1.259 . S
C69 O74 1.250 . S
C69 O75 1.263 . S
O70 Tb62 2.427 . S
O70 C66 1.275 . S
O71 Tb62 2.513 . S
O71 C66 1.246 . S
O72 Tb62 2.453 . S
O72 C68 1.245 . S
O73 Tb60 2.343 . S
O73 Tb62 2.596 . S
O73 C68 1.259 . S
O74 Tb62 2.374 . S
O74 C69 1.250 . S
O75 Tb60 2.353 . S
O75 C69 1.263 . S
C76 O77 1.275 . S
C76 O78 1.246 . S
O77 Tb60 2.427 . S
O77 C76 1.275 . S
O78 Tb60 2.513 . S
O78 C76 1.246 . S
C79 O63 1.245 . S
C79 O64 1.259 . S
Tb80 O83 2.453 . S
Tb80 O84 2.596 . S
Tb80 O85 2.374 . S
Tb80 O93 2.343 . S
Tb80 O95 2.353 . S
Tb80 O97 2.427 . S
Tb80 O98 2.513 . S
C81 O85 1.251 . S
C81 O87 1.263 . S
Tb82 O84 2.343 . S
Tb82 O87 2.353 . S
Tb82 O90 2.427 . S
Tb82 O91 2.513 . S
Tb82 O92 2.453 . S
Tb82 O93 2.596 . S
Tb82 O94 2.374 . S
O83 Tb80 2.453 . S
O83 C99 1.245 . S
O84 Tb80 2.596 . S
O84 Tb82 2.343 . S
O84 C99 1.259 . S
O85 Tb80 2.374 . S
O85 C81 1.251 . S
C86 O90 1.275 . S
C86 O91 1.246 . S
O87 C81 1.263 . S
O87 Tb82 2.353 . S
C88 O92 1.245 . S
C88 O93 1.259 . S
C89 O94 1.250 . S
C89 O95 1.263 . S
O90 Tb82 2.427 . S
O90 C86 1.275 . S
O91 Tb82 2.513 . S
O91 C86 1.246 . S
O92 Tb82 2.453 . S
O92 C88 1.245 . S
O93 Tb80 2.343 . S
O93 Tb82 2.596 . S
O93 C88 1.259 . S
O94 Tb82 2.374 . S
O94 C89 1.250 . S
O95 Tb80 2.353 . S
O95 C89 1.263 . S
C96 O97 1.275 . S
C96 O98 1.246 . S
O97 Tb80 2.427 . S
O97 C96 1.275 . S
O98 Tb80 2.513 . S
O98 C96 1.246 . S
C99 O83 1.245 . S
C99 O84 1.259 . S
Tb100 O103 2.453 . S
Tb100 O104 2.596 . S
Tb100 O105 2.374 . S
Tb100 O113 2.343 . S
Tb100 O115 2.353 . S
Tb100 O117 2.427 . S
Tb100 O118 2.513 . S
C101 O105 1.251 . S
C101 O107 1.263 . S
Tb102 O104 2.343 . S
Tb102 O107 2.353 . S
Tb102 O110 2.427 . S
Tb102 O111 2.513 . S
Tb102 O112 2.453 . S
Tb102 O113 2.596 . S
Tb102 O114 2.374 . S
O103 Tb100 2.453 . S
O103 C119 1.245 . S
O104 Tb100 2.596 . S
O104 Tb102 2.343 . S
O104 C119 1.259 . S
O105 Tb100 2.374 . S
O105 C101 1.251 . S
C106 O110 1.275 . S
C106 O111 1.246 . S
O107 C101 1.263 . S
O107 Tb102 2.353 . S
C108 O112 1.245 . S
C108 O113 1.259 . S
C109 O114 1.250 . S
C109 O115 1.263 . S
O110 Tb102 2.427 . S
O110 C106 1.275 . S
O111 Tb102 2.513 . S
O111 C106 1.246 . S
O112 Tb102 2.453 . S
O112 C108 1.245 . S
O113 Tb100 2.343 . S
O113 Tb102 2.596 . S
O113 C108 1.259 . S
O114 Tb102 2.374 . S
O114 C109 1.250 . S
O115 Tb100 2.353 . S
O115 C109 1.263 . S
C116 O117 1.275 . S
C116 O118 1.246 . S
O117 Tb100 2.427 . S
O117 C116 1.275 . S
O118 Tb100 2.513 . S
O118 C116 1.246 . S
C119 O103 1.245 . S
C119 O104 1.259 . S
Tb120 O123 2.453 . S
Tb120 O124 2.596 . S
Tb120 O125 2.374 . S
Tb120 O133 2.343 . S
Tb120 O135 2.353 . S
Tb120 O137 2.427 . S
Tb120 O138 2.513 . S
C121 O125 1.251 . S
C121 O127 1.263 . S
Tb122 O124 2.343 . S
Tb122 O127 2.353 . S
Tb122 O130 2.427 . S
Tb122 O131 2.513 . S
Tb122 O132 2.453 . S
Tb122 O133 2.596 . S
Tb122 O134 2.374 . S
O123 Tb120 2.453 . S
O123 C139 1.245 . S
O124 Tb120 2.596 . S
O124 Tb122 2.343 . S
O124 C139 1.259 . S
O125 Tb120 2.374 . S
O125 C121 1.251 . S
C126 O130 1.275 . S
C126 O131 1.246 . S
O127 C121 1.263 . S
O127 Tb122 2.353 . S
C128 O132 1.245 . S
C128 O133 1.259 . S
C129 O134 1.250 . S
C129 O135 1.263 . S
O130 Tb122 2.427 . S
O130 C126 1.275 . S
O131 Tb122 2.513 . S
O131 C126 1.246 . S
O132 Tb122 2.453 . S
O132 C128 1.245 . S
O133 Tb120 2.343 . S
O133 Tb122 2.596 . S
O133 C128 1.259 . S
O134 Tb122 2.374 . S
O134 C129 1.250 . S
O135 Tb120 2.353 . S
O135 C129 1.263 . S
C136 O137 1.275 . S
C136 O138 1.246 . S
O137 Tb120 2.427 . S
O137 C136 1.275 . S
O138 Tb120 2.513 . S
O138 C136 1.246 . S
C139 O123 1.245 . S
C139 O124 1.259 . S
Tb140 O143 2.453 . S
Tb140 O144 2.596 . S
Tb140 O145 2.374 . S
Tb140 O153 2.343 . S
Tb140 O155 2.353 . S
Tb140 O157 2.427 . S
Tb140 O158 2.513 . S
C141 O145 1.251 . S
C141 O147 1.263 . S
Tb142 O144 2.343 . S
Tb142 O147 2.353 . S
Tb142 O150 2.427 . S
Tb142 O151 2.513 . S
Tb142 O152 2.453 . S
Tb142 O153 2.596 . S
Tb142 O154 2.374 . S
O143 Tb140 2.453 . S
O143 C159 1.245 . S
O144 Tb140 2.596 . S
O144 Tb142 2.343 . S
O144 C159 1.259 . S
O145 Tb140 2.374 . S
O145 C141 1.251 . S
C146 O150 1.275 . S
C146 O151 1.246 . S
O147 C141 1.263 . S
O147 Tb142 2.353 . S
C148 O152 1.245 . S
C148 O153 1.259 . S
C149 O154 1.250 . S
C149 O155 1.263 . S
O150 Tb142 2.427 . S
O150 C146 1.275 . S
O151 Tb142 2.513 . S
O151 C146 1.246 . S
O152 Tb142 2.453 . S
O152 C148 1.245 . S
O153 Tb140 2.343 . S
O153 Tb142 2.596 . S
O153 C148 1.259 . S
O154 Tb142 2.374 . S
O154 C149 1.250 . S
O155 Tb140 2.353 . S
O155 C149 1.263 . S
C156 O157 1.275 . S
C156 O158 1.246 . S
O157 Tb140 2.427 . S
O157 C156 1.275 . S
O158 Tb140 2.513 . S
O158 C156 1.246 . S
C159 O143 1.245 . S
C159 O144 1.259 . S
Tb160 O163 2.453 . S
Tb160 O164 2.596 . S
Tb160 O165 2.374 . S
Tb160 O173 2.343 . S
Tb160 O175 2.353 . S
Tb160 O177 2.427 . S
Tb160 O178 2.513 . S
C161 O165 1.251 . S
C161 O167 1.263 . S
Tb162 O164 2.343 . S
Tb162 O167 2.353 . S
Tb162 O170 2.427 . S
Tb162 O171 2.513 . S
Tb162 O172 2.453 . S
Tb162 O173 2.596 . S
Tb162 O174 2.374 . S
O163 Tb160 2.453 . S
O163 C179 1.245 . S
O164 Tb160 2.596 . S
O164 Tb162 2.343 . S
O164 C179 1.259 . S
O165 Tb160 2.374 . S
O165 C161 1.251 . S
C166 O170 1.275 . S
C166 O171 1.246 . S
O167 C161 1.263 . S
O167 Tb162 2.353 . S
C168 O172 1.245 . S
C168 O173 1.259 . S
C169 O174 1.250 . S
C169 O175 1.263 . S
O170 Tb162 2.427 . S
O170 C166 1.275 . S
O171 Tb162 2.513 . S
O171 C166 1.246 . S
O172 Tb162 2.453 . S
O172 C168 1.245 . S
O173 Tb160 2.343 . S
O173 Tb162 2.596 . S
O173 C168 1.259 . S
O174 Tb162 2.374 . S
O174 C169 1.250 . S
O175 Tb160 2.353 . S
O175 C169 1.263 . S
C176 O177 1.275 . S
C176 O178 1.246 . S
O177 Tb160 2.427 . S
O177 C176 1.275 . S
O178 Tb160 2.513 . S
O178 C176 1.246 . S
C179 O163 1.245 . S
C179 O164 1.259 . S
Tb180 O183 2.453 . S
Tb180 O184 2.596 . S
Tb180 O185 2.374 . S
Tb180 O193 2.343 . S
Tb180 O195 2.353 . S
Tb180 O197 2.427 . S
Tb180 O198 2.513 . S
C181 O185 1.251 . S
C181 O187 1.263 . S
Tb182 O184 2.343 . S
Tb182 O187 2.353 . S
Tb182 O190 2.427 . S
Tb182 O191 2.513 . S
Tb182 O192 2.453 . S
Tb182 O193 2.596 . S
Tb182 O194 2.374 . S
O183 Tb180 2.453 . S
O183 C199 1.245 . S
O184 Tb180 2.596 . S
O184 Tb182 2.343 . S
O184 C199 1.259 . S
O185 Tb180 2.374 . S
O185 C181 1.251 . S
C186 O190 1.275 . S
C186 O191 1.246 . S
O187 C181 1.263 . S
O187 Tb182 2.353 . S
C188 O192 1.245 . S
C188 O193 1.259 . S
C189 O194 1.250 . S
C189 O195 1.263 . S
O190 Tb182 2.427 . S
O190 C186 1.275 . S
O191 Tb182 2.513 . S
O191 C186 1.246 . S
O192 Tb182 2.453 . S
O192 C188 1.245 . S
O193 Tb180 2.343 . S
O193 Tb182 2.596 . S
O193 C188 1.259 . S
O194 Tb182 2.374 . S
O194 C189 1.250 . S
O195 Tb180 2.353 . S
O195 C189 1.263 . S
C196 O197 1.275 . S
C196 O198 1.246 . S
O197 Tb180 2.427 . S
O197 C196 1.275 . S
O198 Tb180 2.513 . S
O198 C196 1.246 . S
C199 O183 1.245 . S
C199 O184 1.259 . S
Tb200 O203 2.453 . S
Tb200 O204 2.596 . S
Tb200 O205 2.374 . S
Tb200 O213 2.343 . S
Tb200 O215 2.353 . S
Tb200 O217 2.427 . S
Tb200 O218 2.513 . S
C201 O205 1.251 . S
C201 O207 1.263 . S
Tb202 O204 2.343 . S
Tb202 O207 2.353 . S
Tb202 O210 2.427 . S
Tb202 O211 2.513 . S
Tb202 O212 2.453 . S
Tb202 O213 2.596 . S
Tb202 O214 2.374 . S
O203 Tb200 2.453 . S
O203 C219 1.245 . S
O204 Tb200 2.596 . S
O204 Tb202 2.343 . S
O204 C219 1.259 . S
O205 Tb200 2.374 . S
O205 C201 1.251 . S
C206 O210 1.275 . S
C206 O211 1.246 . S
O207 C201 1.263 . S
O207 Tb202 2.353 . S
C208 O212 1.245 . S
C208 O213 1.259 . S
C209 O214 1.250 . S
C209 O215 1.263 . S
O210 Tb202 2.427 . S
O210 C206 1.275 . S
O211 Tb202 2.513 . S
O211 C206 1.246 . S
O212 Tb202 2.453 . S
O212 C208 1.245 . S
O213 Tb200 2.343 . S
O213 Tb202 2.596 . S
O213 C208 1.259 . S
O214 Tb202 2.374 . S
O214 C209 1.250 . S
O215 Tb200 2.353 . S
O215 C209 1.263 . S
C216 O217 1.275 . S
C216 O218 1.246 . S
O217 Tb200 2.427 . S
O217 C216 1.275 . S
O218 Tb200 2.513 . S
O218 C216 1.246 . S
C219 O203 1.245 . S
C219 O204 1.259 . S
Tb220 O223 2.453 . S
Tb220 O224 2.596 . S
Tb220 O225 2.374 . S
Tb220 O233 2.343 . S
Tb220 O235 2.353 . S
Tb220 O237 2.427 . S
Tb220 O238 2.513 . S
C221 O225 1.251 . S
C221 O227 1.263 . S
Tb222 O224 2.343 . S
Tb222 O227 2.353 . S
Tb222 O230 2.427 . S
Tb222 O231 2.513 . S
Tb222 O232 2.453 . S
Tb222 O233 2.596 . S
Tb222 O234 2.374 . S
O223 Tb220 2.453 . S
O223 C239 1.245 . S
O224 Tb220 2.596 . S
O224 Tb222 2.343 . S
O224 C239 1.259 . S
O225 Tb220 2.374 . S
O225 C221 1.251 . S
C226 O230 1.275 . S
C226 O231 1.246 . S
O227 C221 1.263 . S
O227 Tb222 2.353 . S
C228 O232 1.245 . S
C228 O233 1.259 . S
C229 O234 1.250 . S
C229 O235 1.263 . S
O230 Tb222 2.427 . S
O230 C226 1.275 . S
O231 Tb222 2.513 . S
O231 C226 1.246 . S
O232 Tb222 2.453 . S
O232 C228 1.245 . S
O233 Tb220 2.343 . S
O233 Tb222 2.596 . S
O233 C228 1.259 . S
O234 Tb222 2.374 . S
O234 C229 1.250 . S
O235 Tb220 2.353 . S
O235 C229 1.263 . S
C236 O237 1.275 . S
C236 O238 1.246 . S
O237 Tb220 2.427 . S
O237 C236 1.275 . S
O238 Tb220 2.513 . S
O238 C236 1.246 . S
C239 O223 1.245 . S
C239 O224 1.259 . S
C240 C241 1.349 . S
C240 C242 1.327 . S
C240 H265 0.950 . S
C241 C240 1.349 . S
C241 C257 1.349 . S
C242 C240 1.327 . S
C242 C261 1.429 . S
C242 H266 0.950 . S
C243 C260 1.574 . S
C243 C262 1.368 . S
C243 H267 0.949 . S
H244 C248 0.949 . S
C245 C246 1.349 1_565 S
C245 C247 1.327 . S
C245 H268 0.950 . S
C246 C245 1.349 1_545 S
C246 C258 1.349 . S
C247 C245 1.327 . S
C247 C263 1.429 . S
C247 H269 0.950 . S
C248 H244 0.949 . S
C248 C256 1.574 . S
C248 C264 1.368 . S
H249 C257 0.950 . S
H250 C255 0.950 . S
H251 C256 0.949 . S
H252 C258 0.950 . S
H253 C259 0.950 1_545 S
H254 C260 0.949 . S
C255 H250 0.950 . S
C255 C257 1.327 . S
C255 C261 1.429 . S
C256 C248 1.574 . S
C256 H251 0.949 . S
C256 C262 1.368 . S
C257 C241 1.349 . S
C257 H249 0.950 . S
C257 C255 1.327 . S
C258 C246 1.349 . S
C258 H252 0.950 . S
C258 C259 1.327 1_545 S
C259 H253 0.950 1_565 S
C259 C258 1.327 1_565 S
C259 C263 1.429 . S
C260 C243 1.574 . S
C260 H254 0.949 . S
C260 C264 1.368 . S
C261 C242 1.429 . S
C261 C255 1.429 . S
C261 C262 1.523 . S
C262 C243 1.368 . S
C262 C256 1.368 . S
C262 C261 1.523 . S
C263 C247 1.429 . S
C263 C259 1.429 . S
C263 C264 1.523 . S
C264 C248 1.368 . S
C264 C260 1.368 . S
C264 C263 1.523 . S
H265 C240 0.950 . S
H266 C242 0.950 . S
H267 C243 0.949 . S
H268 C245 0.950 . S
H269 C247 0.950 . S
C270 C271 1.349 . S
C270 C272 1.327 . S
C270 H295 0.950 . S
C271 C270 1.349 . S
C271 C287 1.349 . S
C272 C270 1.327 . S
C272 C291 1.429 . S
C272 H296 0.950 . S
C273 C290 1.574 . S
C273 C292 1.368 . S
C273 H297 0.949 . S
H274 C278 0.949 . S
C275 C276 1.349 . S
C275 C277 1.327 . S
C275 H298 0.950 . S
C276 C275 1.349 . S
C276 C288 1.349 . S
C277 C275 1.327 . S
C277 C293 1.429 . S
C277 H299 0.950 . S
C278 H274 0.949 . S
C278 C286 1.574 . S
C278 C294 1.368 . S
H279 C287 0.950 . S
H280 C285 0.950 . S
H281 C286 0.949 . S
H282 C288 0.950 . S
H283 C289 0.950 . S
H284 C290 0.949 . S
C285 H280 0.950 . S
C285 C287 1.327 . S
C285 C291 1.429 . S
C286 C278 1.574 . S
C286 H281 0.949 . S
C286 C292 1.368 . S
C287 C271 1.349 . S
C287 H279 0.950 . S
C287 C285 1.327 . S
C288 C276 1.349 . S
C288 H282 0.950 . S
C288 C289 1.327 . S
C289 H283 0.950 . S
C289 C288 1.327 . S
C289 C293 1.429 . S
C290 C273 1.574 . S
C290 H284 0.949 . S
C290 C294 1.368 . S
C291 C272 1.429 . S
C291 C285 1.429 . S
C291 C292 1.523 . S
C292 C273 1.368 . S
C292 C286 1.368 . S
C292 C291 1.523 . S
C293 C277 1.429 . S
C293 C289 1.429 . S
C293 C294 1.523 . S
C294 C278 1.368 . S
C294 C290 1.368 . S
C294 C293 1.523 . S
H295 C270 0.950 . S
H296 C272 0.950 . S
H297 C273 0.949 . S
H298 C275 0.950 . S
H299 C277 0.950 . S
C300 C301 1.349 1_455 S
C300 C302 1.327 . S
C300 H325 0.950 . S
C301 C300 1.349 1_655 S
C301 C317 1.349 . S
C302 C300 1.327 . S
C302 C321 1.429 . S
C302 H326 0.950 . S
C303 C320 1.574 . S
C303 C322 1.368 . S
C303 H327 0.949 . S
H304 C308 0.949 . S
C305 C306 1.349 . S
C305 C307 1.327 . S
C305 H328 0.950 . S
C306 C305 1.349 . S
C306 C318 1.349 . S
C307 C305 1.327 . S
C307 C323 1.429 . S
C307 H329 0.950 . S
C308 H304 0.949 . S
C308 C316 1.574 . S
C308 C324 1.368 . S
H309 C317 0.950 . S
H310 C315 0.950 . S
H311 C316 0.949 . S
H312 C318 0.950 . S
H313 C319 0.950 . S
H314 C320 0.949 . S
C315 H310 0.950 . S
C315 C317 1.327 . S
C315 C321 1.429 1_655 S
C316 C308 1.574 . S
C316 H311 0.949 . S
C316 C322 1.368 . S
C317 C301 1.349 . S
C317 H309 0.950 . S
C317 C315 1.327 . S
C318 C306 1.349 . S
C318 H312 0.950 . S
C318 C319 1.327 . S
C319 H313 0.950 . S
C319 C318 1.327 . S
C319 C323 1.429 . S
C320 C303 1.574 . S
C320 H314 0.949 . S
C320 C324 1.368 . S
C321 C302 1.429 . S
C321 C315 1.429 1_455 S
C321 C322 1.523 . S
C322 C303 1.368 . S
C322 C316 1.368 . S
C322 C321 1.523 . S
C323 C307 1.429 . S
C323 C319 1.429 . S
C323 C324 1.523 . S
C324 C308 1.368 . S
C324 C320 1.368 . S
C324 C323 1.523 . S
H325 C300 0.950 . S
H326 C302 0.950 . S
H327 C303 0.949 . S
H328 C305 0.950 . S
H329 C307 0.950 . S
C330 C331 1.349 . S
C330 C332 1.327 . S
C330 H355 0.950 . S
C331 C330 1.349 . S
C331 C347 1.349 . S
C332 C330 1.327 . S
C332 C351 1.429 . S
C332 H356 0.950 . S
C333 C350 1.574 . S
C333 C352 1.368 . S
C333 H357 0.949 . S
H334 C338 0.949 . S
C335 C336 1.349 . S
C335 C337 1.327 1_565 S
C335 H358 0.950 . S
C336 C335 1.349 . S
C336 C348 1.349 1_565 S
C337 C335 1.327 1_545 S
C337 C353 1.429 . S
C337 H359 0.950 1_545 S
C338 H334 0.949 . S
C338 C346 1.574 . S
C338 C354 1.368 . S
H339 C347 0.950 . S
H340 C345 0.950 . S
H341 C346 0.949 . S
H342 C348 0.950 . S
H343 C349 0.950 . S
H344 C350 0.949 . S
C345 H340 0.950 . S
C345 C347 1.327 . S
C345 C351 1.429 . S
C346 C338 1.574 . S
C346 H341 0.949 . S
C346 C352 1.368 . S
C347 C331 1.349 . S
C347 H339 0.950 . S
C347 C345 1.327 . S
C348 C336 1.349 1_545 S
C348 H342 0.950 . S
C348 C349 1.327 . S
C349 H343 0.950 . S
C349 C348 1.327 . S
C349 C353 1.429 . S
C350 C333 1.574 . S
C350 H344 0.949 . S
C350 C354 1.368 . S
C351 C332 1.429 . S
C351 C345 1.429 . S
C351 C352 1.523 . S
C352 C333 1.368 . S
C352 C346 1.368 . S
C352 C351 1.523 . S
C353 C337 1.429 . S
C353 C349 1.429 . S
C353 C354 1.523 . S
C354 C338 1.368 . S
C354 C350 1.368 . S
C354 C353 1.523 . S
H355 C330 0.950 . S
H356 C332 0.950 . S
H357 C333 0.949 . S
H358 C335 0.950 . S
H359 C337 0.950 1_565 S
C360 C361 1.349 . S
C360 C362 1.327 . S
C360 H385 0.950 . S
C361 C360 1.349 . S
C361 C377 1.349 . S
C362 C360 1.327 . S
C362 C381 1.429 . S
C362 H386 0.950 . S
C363 C380 1.574 . S
C363 C382 1.368 . S
C363 H387 0.949 . S
H364 C368 0.949 . S
C365 C366 1.349 . S
C365 C367 1.327 . S
C365 H388 0.950 . S
C366 C365 1.349 . S
C366 C378 1.349 . S
C367 C365 1.327 . S
C367 C383 1.429 1_554 S
C367 H389 0.950 . S
C368 H364 0.949 . S
C368 C376 1.574 . S
C368 C384 1.368 . S
H369 C377 0.950 . S
H370 C375 0.950 . S
H371 C376 0.949 . S
H372 C378 0.950 . S
H373 C379 0.950 . S
H374 C380 0.949 . S
C375 H370 0.950 . S
C375 C377 1.327 . S
C375 C381 1.429 . S
C376 C368 1.574 . S
C376 H371 0.949 . S
C376 C382 1.368 . S
C377 C361 1.349 . S
C377 H369 0.950 . S
C377 C375 1.327 . S
C378 C366 1.349 . S
C378 H372 0.950 . S
C378 C379 1.327 1_554 S
C379 H373 0.950 . S
C379 C378 1.327 1_556 S
C379 C383 1.429 . S
C380 C363 1.574 . S
C380 H374 0.949 . S
C380 C384 1.368 . S
C381 C362 1.429 . S
C381 C375 1.429 . S
C381 C382 1.523 . S
C382 C363 1.368 . S
C382 C376 1.368 . S
C382 C381 1.523 . S
C383 C367 1.429 1_556 S
C383 C379 1.429 . S
C383 C384 1.523 . S
C384 C368 1.368 . S
C384 C380 1.368 . S
C384 C383 1.523 . S
H385 C360 0.950 . S
H386 C362 0.950 . S
H387 C363 0.949 . S
H388 C365 0.950 . S
H389 C367 0.950 . S
C390 C391 1.349 1_655 S
C390 C392 1.327 . S
C390 H415 0.950 . S
C391 C390 1.349 1_455 S
C391 C407 1.349 . S
C392 C390 1.327 . S
C392 C411 1.429 . S
C392 H416 0.950 . S
C393 C410 1.574 . S
C393 C412 1.368 . S
C393 H417 0.949 . S
H394 C398 0.949 . S
C395 C396 1.349 . S
C395 C397 1.327 . S
C395 H418 0.950 . S
C396 C395 1.349 . S
C396 C408 1.349 . S
C397 C395 1.327 . S
C397 C413 1.429 . S
C397 H419 0.950 . S
C398 H394 0.949 . S
C398 C406 1.574 . S
C398 C414 1.368 . S
H399 C407 0.950 . S
H400 C405 0.948 1_455 S
H401 C406 0.949 . S
H402 C408 0.950 . S
H403 C409 0.950 . S
H404 C410 0.949 . S
C405 H400 0.948 1_655 S
C405 C407 1.316 1_655 S
C405 C411 1.442 . S
C406 C398 1.574 . S
C406 H401 0.949 . S
C406 C412 1.368 . S
C407 C391 1.349 . S
C407 H399 0.950 . S
C407 C405 1.316 1_455 S
C408 C396 1.349 . S
C408 H402 0.950 . S
C408 C409 1.327 . S
C409 H403 0.950 . S
C409 C408 1.327 . S
C409 C413 1.429 . S
C410 C393 1.574 . S
C410 H404 0.949 . S
C410 C414 1.368 . S
C411 C392 1.429 . S
C411 C405 1.442 . S
C411 C412 1.523 . S
C412 C393 1.368 . S
C412 C406 1.368 . S
C412 C411 1.523 . S
C413 C397 1.429 . S
C413 C409 1.429 . S
C413 C414 1.523 . S
C414 C398 1.368 . S
C414 C410 1.368 . S
C414 C413 1.523 . S
H415 C390 0.950 . S
H416 C392 0.950 . S
H417 C393 0.949 . S
H418 C395 0.950 . S
H419 C397 0.950 . S
C420 C421 1.349 . S
C420 C422 1.327 . S
C420 H445 0.950 . S
C421 C420 1.349 . S
C421 C437 1.349 . S
C422 C420 1.327 . S
C422 C441 1.429 . S
C422 H446 0.950 . S
C423 C440 1.574 . S
C423 C442 1.368 . S
C423 H447 0.949 . S
H424 C428 0.949 . S
C425 C426 1.349 . S
C425 C427 1.327 . S
C425 H448 0.950 . S
C426 C425 1.349 . S
C426 C438 1.349 1_655 S
C427 C425 1.327 . S
C427 C443 1.429 1_655 S
C427 H449 0.950 . S
C428 H424 0.949 . S
C428 C436 1.574 . S
C428 C444 1.368 . S
H429 C437 0.950 . S
H430 C435 0.950 . S
H431 C436 0.949 . S
H432 C438 0.950 . S
H433 C439 0.950 . S
H434 C440 0.949 . S
C435 H430 0.950 . S
C435 C437 1.327 . S
C435 C441 1.429 . S
C436 C428 1.574 . S
C436 H431 0.949 . S
C436 C442 1.368 . S
C437 C421 1.349 . S
C437 H429 0.950 . S
C437 C435 1.327 . S
C438 C426 1.349 1_455 S
C438 H432 0.950 . S
C438 C439 1.327 . S
C439 H433 0.950 . S
C439 C438 1.327 . S
C439 C443 1.429 . S
C440 C423 1.574 . S
C440 H434 0.949 . S
C440 C444 1.368 . S
C441 C422 1.429 . S
C441 C435 1.429 . S
C441 C442 1.523 . S
C442 C423 1.368 . S
C442 C436 1.368 . S
C442 C441 1.523 . S
C443 C427 1.429 1_455 S
C443 C439 1.429 . S
C443 C444 1.523 . S
C444 C428 1.368 . S
C444 C440 1.368 . S
C444 C443 1.523 . S
H445 C420 0.950 . S
H446 C422 0.950 . S
H447 C423 0.949 . S
H448 C425 0.950 . S
H449 C427 0.950 . S
C450 C451 1.349 1_545 S
C450 C452 1.327 . S
C450 H475 0.950 . S
C451 C450 1.349 1_565 S
C451 C467 1.349 . S
C452 C450 1.327 . S
C452 C471 1.429 . S
C452 H476 0.950 . S
C453 C470 1.574 . S
C453 C472 1.368 . S
C453 H477 0.949 . S
H454 C458 0.949 . S
C455 C456 1.349 . S
C455 C457 1.327 . S
C455 H478 0.950 . S
C456 C455 1.349 . S
C456 C468 1.349 . S
C457 C455 1.327 . S
C457 C473 1.429 . S
C457 H479 0.950 . S
C458 H454 0.949 . S
C458 C466 1.574 . S
C458 C474 1.368 . S
H459 C467 0.950 . S
H460 C465 0.950 1_565 S
H461 C466 0.949 . S
H462 C468 0.950 . S
H463 C469 0.950 . S
H464 C470 0.949 . S
C465 H460 0.950 1_545 S
C465 C467 1.327 1_545 S
C465 C471 1.429 . S
C466 C458 1.574 . S
C466 H461 0.949 . S
C466 C472 1.368 . S
C467 C451 1.349 . S
C467 H459 0.950 . S
C467 C465 1.327 1_565 S
C468 C456 1.349 . S
C468 H462 0.950 . S
C468 C469 1.327 . S
C469 H463 0.950 . S
C469 C468 1.327 . S
C469 C473 1.429 . S
C470 C453 1.574 . S
C470 H464 0.949 . S
C470 C474 1.368 . S
C471 C452 1.429 . S
C471 C465 1.429 . S
C471 C472 1.523 . S
C472 C453 1.368 . S
C472 C466 1.368 . S
C472 C471 1.523 . S
C473 C457 1.429 . S
C473 C469 1.429 . S
C473 C474 1.523 . S
C474 C458 1.368 . S
C474 C470 1.368 . S
C474 C473 1.523 . S
H475 C450 0.950 . S
H476 C452 0.950 . S
H477 C453 0.949 . S
H478 C455 0.950 . S
H479 C457 0.950 . S
C480 C481 1.349 . S
C480 C482 1.327 . S
C480 H505 0.950 . S
C481 C480 1.349 . S
C481 C497 1.349 . S
C482 C480 1.327 . S
C482 C501 1.429 . S
C482 H506 0.950 . S
C483 C500 1.574 . S
C483 C502 1.368 . S
C483 H507 0.949 . S
H484 C488 0.949 . S
C485 C486 1.349 . S
C485 C487 1.327 . S
C485 H508 0.950 . S
C486 C485 1.349 . S
C486 C498 1.349 . S
C487 C485 1.327 . S
C487 C503 1.429 . S
C487 H509 0.950 . S
C488 H484 0.949 . S
C488 C496 1.574 . S
C488 C504 1.368 . S
H489 C497 0.950 . S
H490 C495 0.950 . S
H491 C496 0.949 . S
H492 C498 0.950 . S
H493 C499 0.950 . S
H494 C500 0.949 . S
C495 H490 0.950 . S
C495 C497 1.327 . S
C495 C501 1.429 . S
C496 C488 1.574 . S
C496 H491 0.949 . S
C496 C502 1.368 . S
C497 C481 1.349 . S
C497 H489 0.950 . S
C497 C495 1.327 . S
C498 C486 1.349 . S
C498 H492 0.950 . S
C498 C499 1.327 . S
C499 H493 0.950 . S
C499 C498 1.327 . S
C499 C503 1.429 . S
C500 C483 1.574 . S
C500 H494 0.949 . S
C500 C504 1.368 . S
C501 C482 1.429 . S
C501 C495 1.429 . S
C501 C502 1.523 . S
C502 C483 1.368 . S
C502 C496 1.368 . S
C502 C501 1.523 . S
C503 C487 1.429 . S
C503 C499 1.429 . S
C503 C504 1.523 . S
C504 C488 1.368 . S
C504 C500 1.368 . S
C504 C503 1.523 . S
H505 C480 0.950 . S
H506 C482 0.950 . S
H507 C483 0.949 . S
H508 C485 0.950 . S
H509 C487 0.950 . S
C510 C511 1.349 . S
C510 C512 1.327 . S
C510 H535 0.950 . S
C511 C510 1.349 . S
C511 C527 1.349 . S
C512 C510 1.327 . S
C512 C531 1.429 . S
C512 H536 0.950 . S
C513 C530 1.574 . S
C513 C532 1.368 . S
C513 H537 0.949 . S
H514 C518 0.949 . S
C515 C516 1.349 . S
C515 C517 1.327 1_556 S
C515 H538 0.950 . S
C516 C515 1.349 . S
C516 C528 1.349 1_455 S
C517 C515 1.327 1_554 S
C517 C533 1.429 1_455 S
C517 H539 0.950 . S
C518 H514 0.949 . S
C518 C526 1.574 . S
C518 C534 1.368 . S
H519 C527 0.950 . S
H520 C525 0.950 . S
H521 C526 0.949 . S
H522 C528 0.950 . S
H523 C529 0.950 . S
H524 C530 0.949 . S
C525 H520 0.950 . S
C525 C527 1.327 . S
C525 C531 1.429 . S
C526 C518 1.574 . S
C526 H521 0.949 . S
C526 C532 1.368 . S
C527 C511 1.349 . S
C527 H519 0.950 . S
C527 C525 1.327 . S
C528 C516 1.349 1_655 S
C528 H522 0.950 . S
C528 C529 1.327 . S
C529 H523 0.950 . S
C529 C528 1.327 . S
C529 C533 1.429 1_556 S
C530 C513 1.574 . S
C530 H524 0.949 . S
C530 C534 1.368 . S
C531 C512 1.429 . S
C531 C525 1.429 . S
C531 C532 1.523 . S
C532 C513 1.368 . S
C532 C526 1.368 . S
C532 C531 1.523 . S
C533 C517 1.429 1_655 S
C533 C529 1.429 1_554 S
C533 C534 1.523 . S
C534 C518 1.368 . S
C534 C530 1.368 . S
C534 C533 1.523 . S
H535 C510 0.950 . S
H536 C512 0.950 . S
H537 C513 0.949 . S
H538 C515 0.950 . S
H539 C517 0.950 . S
C540 C541 1.349 . S
C540 C542 1.327 . S
C540 H565 0.950 . S
C541 C540 1.349 . S
C541 C557 1.349 . S
C542 C540 1.327 . S
C542 C561 1.429 . S
C542 H566 0.950 . S
C543 C560 1.574 . S
C543 C562 1.368 . S
C543 H567 0.949 . S
H544 C548 0.949 . S
C545 C546 1.349 1_565 S
C545 C547 1.327 . S
C545 H568 0.950 . S
C546 C545 1.349 1_545 S
C546 C558 1.349 . S
C547 C545 1.327 . S
C547 C563 1.429 . S
C547 H569 0.950 . S
C548 H544 0.949 . S
C548 C556 1.574 . S
C548 C564 1.368 . S
H549 C557 0.950 . S
H550 C555 0.950 . S
H551 C556 0.949 . S
H552 C558 0.950 . S
H553 C559 0.950 . S
H554 C560 0.949 . S
C555 H550 0.950 . S
C555 C557 1.327 . S
C555 C561 1.429 . S
C556 C548 1.574 . S
C556 H551 0.949 . S
C556 C562 1.368 . S
C557 C541 1.349 . S
C557 H549 0.950 . S
C557 C555 1.327 . S
C558 C546 1.349 . S
C558 H552 0.950 . S
C558 C559 1.328 . S
C559 H553 0.950 . S
C559 C558 1.328 . S
C559 C563 1.428 1_545 S
C560 C543 1.574 . S
C560 H554 0.949 . S
C560 C564 1.368 . S
C561 C542 1.429 . S
C561 C555 1.429 . S
C561 C562 1.523 . S
C562 C543 1.368 . S
C562 C556 1.368 . S
C562 C561 1.523 . S
C563 C547 1.429 . S
C563 C559 1.428 1_565 S
C563 C564 1.523 . S
C564 C548 1.368 . S
C564 C560 1.368 . S
C564 C563 1.523 . S
H565 C540 0.950 . S
H566 C542 0.950 . S
H567 C543 0.949 . S
H568 C545 0.950 . S
H569 C547 0.950 . S
C570 C571 1.349 . S
C570 C572 1.327 . S
C570 H595 0.950 . S
C571 C570 1.349 . S
C571 C587 1.349 . S
C572 C570 1.327 . S
C572 C591 1.429 . S
C572 H596 0.950 . S
C573 C590 1.574 . S
C573 C592 1.368 . S
C573 H597 0.949 . S
H574 C578 0.949 . S
C575 C576 1.349 . S
C575 C577 1.327 . S
C575 H598 0.950 . S
C576 C575 1.349 . S
C576 C588 1.349 . S
C577 C575 1.327 . S
C577 C593 1.429 . S
C577 H599 0.950 . S
C578 H574 0.949 . S
C578 C586 1.574 . S
C578 C594 1.368 . S
H579 C587 0.950 . S
H580 C585 0.950 . S
H581 C586 0.949 . S
H582 C588 0.950 . S
H583 C589 0.950 . S
H584 C590 0.949 . S
C585 H580 0.950 . S
C585 C587 1.327 . S
C585 C591 1.429 . S
C586 C578 1.574 . S
C586 H581 0.949 . S
C586 C592 1.368 . S
C587 C571 1.349 . S
C587 H579 0.950 . S
C587 C585 1.327 . S
C588 C576 1.349 . S
C588 H582 0.950 . S
C588 C589 1.327 . S
C589 H583 0.950 . S
C589 C588 1.327 . S
C589 C593 1.429 . S
C590 C573 1.574 . S
C590 H584 0.949 . S
C590 C594 1.368 . S
C591 C572 1.429 . S
C591 C585 1.429 . S
C591 C592 1.523 . S
C592 C573 1.368 . S
C592 C586 1.368 . S
C592 C591 1.523 . S
C593 C577 1.429 . S
C593 C589 1.429 . S
C593 C594 1.523 . S
C594 C578 1.368 . S
C594 C590 1.368 . S
C594 C593 1.523 . S
H595 C570 0.950 . S
H596 C572 0.950 . S
H597 C573 0.949 . S
H598 C575 0.950 . S
H599 C577 0.950 . S
C600 C601 1.349 . S
C600 C602 1.327 . S
C600 H625 0.950 . S
C601 C600 1.349 . S
C601 C617 1.349 . S
C602 C600 1.327 . S
C602 C621 1.429 . S
C602 H626 0.950 . S
C603 C620 1.574 . S
C603 C622 1.368 . S
C603 H627 0.949 . S
H604 C608 0.949 . S
C605 C606 1.349 . S
C605 C607 1.327 . S
C605 H628 0.950 . S
C606 C605 1.349 . S
C606 C618 1.349 . S
C607 C605 1.327 . S
C607 C623 1.429 . S
C607 H629 0.950 . S
C608 H604 0.949 . S
C608 C616 1.574 . S
C608 C624 1.368 . S
H609 C617 0.950 . S
H610 C615 0.950 . S
H611 C616 0.949 . S
H612 C618 0.950 1_545 S
H613 C619 0.950 . S
H614 C620 0.949 . S
C615 H610 0.950 . S
C615 C617 1.327 . S
C615 C621 1.429 . S
C616 C608 1.574 . S
C616 H611 0.949 . S
C616 C622 1.368 . S
C617 C601 1.349 . S
C617 H609 0.950 . S
C617 C615 1.327 . S
C618 C606 1.349 . S
C618 H612 0.950 1_565 S
C618 C619 1.327 . S
C619 H613 0.950 . S
C619 C618 1.327 . S
C619 C623 1.429 . S
C620 C603 1.574 . S
C620 H614 0.949 . S
C620 C624 1.368 . S
C621 C602 1.429 . S
C621 C615 1.429 . S
C621 C622 1.523 . S
C622 C603 1.368 . S
C622 C616 1.368 . S
C622 C621 1.523 . S
C623 C607 1.429 . S
C623 C619 1.429 . S
C623 C624 1.523 . S
C624 C608 1.368 . S
C624 C620 1.368 . S
C624 C623 1.523 . S
H625 C600 0.950 . S
H626 C602 0.950 . S
H627 C603 0.949 . S
H628 C605 0.950 . S
H629 C607 0.950 . S
C630 C631 1.349 . S
C630 C632 1.327 . S
C630 H655 0.950 . S
C631 C630 1.349 . S
C631 C647 1.349 . S
C632 C630 1.327 . S
C632 C651 1.429 . S
C632 H656 0.950 . S
C633 C650 1.574 . S
C633 C652 1.368 . S
C633 H657 0.949 . S
H634 C638 0.949 . S
C635 C636 1.349 . S
C635 C637 1.327 . S
C635 H658 0.950 . S
C636 C635 1.349 . S
C636 C648 1.349 . S
C637 C635 1.327 . S
C637 C653 1.429 . S
C637 H659 0.950 . S
C638 H634 0.949 . S
C638 C646 1.574 . S
C638 C654 1.368 . S
H639 C647 0.950 . S
H640 C645 0.950 . S
H641 C646 0.949 . S
H642 C648 0.950 . S
H643 C649 0.950 . S
H644 C650 0.949 . S
C645 H640 0.950 . S
C645 C647 1.327 . S
C645 C651 1.429 . S
C646 C638 1.574 . S
C646 H641 0.949 . S
C646 C652 1.368 . S
C647 C631 1.349 . S
C647 H639 0.950 . S
C647 C645 1.327 . S
C648 C636 1.349 . S
C648 H642 0.950 . S
C648 C649 1.327 . S
C649 H643 0.950 . S
C649 C648 1.327 . S
C649 C653 1.429 . S
C650 C633 1.574 . S
C650 H644 0.949 . S
C650 C654 1.368 . S
C651 C632 1.429 . S
C651 C645 1.429 . S
C651 C652 1.523 . S
C652 C633 1.368 . S
C652 C646 1.368 . S
C652 C651 1.523 . S
C653 C637 1.429 . S
C653 C649 1.429 . S
C653 C654 1.523 . S
C654 C638 1.368 . S
C654 C650 1.368 . S
C654 C653 1.523 . S
H655 C630 0.950 . S
H656 C632 0.950 . S
H657 C633 0.949 . S
H658 C635 0.950 . S
H659 C637 0.950 . S
C660 C661 1.349 . S
C660 C662 1.327 . S
C660 H685 0.950 . S
C661 C660 1.349 . S
C661 C677 1.349 . S
C662 C660 1.327 . S
C662 C681 1.429 . S
C662 H686 0.950 . S
C663 C680 1.574 . S
C663 C682 1.368 . S
C663 H687 0.949 . S
H664 C668 0.949 . S
C665 C666 1.349 . S
C665 C667 1.327 . S
C665 H688 0.950 1_455 S
C666 C665 1.349 . S
C666 C678 1.349 . S
C667 C665 1.327 . S
C667 C683 1.429 . S
C667 H689 0.950 . S
C668 H664 0.949 . S
C668 C676 1.574 . S
C668 C684 1.368 . S
H669 C677 0.950 . S
H670 C675 0.950 . S
H671 C676 0.949 . S
H672 C678 0.950 . S
H673 C679 0.950 . S
H674 C680 0.949 . S
C675 H670 0.950 . S
C675 C677 1.327 . S
C675 C681 1.429 . S
C676 C668 1.574 . S
C676 H671 0.949 . S
C676 C682 1.368 . S
C677 C661 1.349 . S
C677 H669 0.950 . S
C677 C675 1.327 . S
C678 C666 1.349 . S
C678 H672 0.950 . S
C678 C679 1.327 . S
C679 H673 0.950 . S
C679 C678 1.327 . S
C679 C683 1.429 . S
C680 C663 1.574 . S
C680 H674 0.949 . S
C680 C684 1.368 . S
C681 C662 1.429 . S
C681 C675 1.429 . S
C681 C682 1.523 . S
C682 C663 1.368 . S
C682 C676 1.368 . S
C682 C681 1.523 . S
C683 C667 1.429 . S
C683 C679 1.429 . S
C683 C684 1.523 . S
C684 C668 1.368 . S
C684 C680 1.368 . S
C684 C683 1.523 . S
H685 C660 0.950 . S
H686 C662 0.950 . S
H687 C663 0.949 . S
H688 C665 0.950 1_655 S
H689 C667 0.950 . S
C690 C691 1.349 . S
C690 C692 1.327 . S
C690 H715 0.950 . S
C691 C690 1.349 . S
C691 C707 1.349 . S
C692 C690 1.327 . S
C692 C711 1.429 . S
C692 H716 0.950 . S
C693 C710 1.574 . S
C693 C712 1.368 . S
C693 H717 0.949 . S
H694 C698 0.949 . S
C695 C696 1.349 . S
C695 C697 1.327 . S
C695 H718 0.950 . S
C696 C695 1.349 . S
C696 C708 1.349 . S
C697 C695 1.327 . S
C697 C713 1.429 . S
C697 H719 0.950 . S
C698 H694 0.949 . S
C698 C706 1.574 . S
C698 C714 1.368 . S
H699 C707 0.950 . S
H700 C705 0.950 . S
H701 C706 0.949 . S
H702 C708 0.950 . S
H703 C709 0.950 . S
H704 C710 0.949 . S
C705 H700 0.950 . S
C705 C707 1.327 . S
C705 C711 1.429 . S
C706 C698 1.574 . S
C706 H701 0.949 . S
C706 C712 1.368 . S
C707 C691 1.349 . S
C707 H699 0.950 . S
C707 C705 1.327 . S
C708 C696 1.349 . S
C708 H702 0.950 . S
C708 C709 1.327 . S
C709 H703 0.950 . S
C709 C708 1.327 . S
C709 C713 1.429 . S
C710 C693 1.574 . S
C710 H704 0.949 . S
C710 C714 1.368 . S
C711 C692 1.429 . S
C711 C705 1.429 . S
C711 C712 1.523 . S
C712 C693 1.368 . S
C712 C706 1.368 . S
C712 C711 1.523 . S
C713 C697 1.429 . S
C713 C709 1.429 . S
C713 C714 1.523 . S
C714 C698 1.368 . S
C714 C710 1.368 . S
C714 C713 1.523 . S
H715 C690 0.950 . S
H716 C692 0.950 . S
H717 C693 0.949 . S
H718 C695 0.950 . S
H719 C697 0.950 . S
C720 C721 1.349 . S
C720 C722 1.327 . S
C720 H745 0.950 . S
C721 C720 1.349 . S
C721 C737 1.349 . S
C722 C720 1.327 . S
C722 C741 1.429 . S
C722 H746 0.950 . S
C723 C740 1.574 . S
C723 C742 1.368 . S
C723 H747 0.949 . S
H724 C728 0.949 . S
C725 C726 1.349 . S
C725 C727 1.327 . S
C725 H748 0.950 . S
C726 C725 1.349 . S
C726 C738 1.349 . S
C727 C725 1.327 . S
C727 C743 1.429 . S
C727 H749 0.950 . S
C728 H724 0.949 . S
C728 C736 1.574 . S
C728 C744 1.368 . S
H729 C737 0.950 . S
H730 C735 0.950 . S
H731 C736 0.949 . S
H732 C738 0.950 . S
H733 C739 0.950 . S
H734 C740 0.949 1_554 S
C735 H730 0.950 . S
C735 C737 1.327 . S
C735 C741 1.429 . S
C736 C728 1.574 . S
C736 H731 0.949 . S
C736 C742 1.368 . S
C737 C721 1.349 . S
C737 H729 0.950 . S
C737 C735 1.327 . S
C738 C726 1.349 . S
C738 H732 0.950 . S
C738 C739 1.327 . S
C739 H733 0.950 . S
C739 C738 1.327 . S
C739 C743 1.429 . S
C740 C723 1.574 . S
C740 H734 0.949 1_556 S
C740 C744 1.368 . S
C741 C722 1.429 . S
C741 C735 1.429 . S
C741 C742 1.523 . S
C742 C723 1.368 . S
C742 C736 1.368 . S
C742 C741 1.523 . S
C743 C727 1.429 . S
C743 C739 1.429 . S
C743 C744 1.523 1_554 S
C744 C728 1.368 . S
C744 C740 1.368 . S
C744 C743 1.523 1_556 S
H745 C720 0.950 . S
H746 C722 0.950 . S
H747 C723 0.949 . S
H748 C725 0.950 . S
H749 C727 0.950 . S
C750 C751 1.349 . S
C750 C752 1.327 . S
C750 H775 0.950 . S
C751 C750 1.349 . S
C751 C767 1.349 . S
C752 C750 1.327 . S
C752 C771 1.429 . S
C752 H776 0.950 . S
C753 C770 1.574 . S
C753 C772 1.368 . S
C753 H777 0.949 . S
H754 C758 0.949 . S
C755 C756 1.349 . S
C755 C757 1.327 . S
C755 H778 0.950 . S
C756 C755 1.349 . S
C756 C768 1.349 . S
C757 C755 1.327 . S
C757 C773 1.429 . S
C757 H779 0.950 . S
C758 H754 0.949 . S
C758 C766 1.574 . S
C758 C774 1.368 . S
H759 C767 0.950 1_455 S
H760 C765 0.950 . S
H761 C766 0.949 . S
H762 C768 0.950 . S
H763 C769 0.950 . S
H764 C770 0.949 . S
C765 H760 0.950 . S
C765 C767 1.327 . S
C765 C771 1.429 . S
C766 C758 1.574 . S
C766 H761 0.949 . S
C766 C772 1.368 . S
C767 C751 1.349 . S
C767 H759 0.950 1_655 S
C767 C765 1.327 . S
C768 C756 1.349 . S
C768 H762 0.950 . S
C768 C769 1.327 . S
C769 H763 0.950 . S
C769 C768 1.327 . S
C769 C773 1.429 . S
C770 C753 1.574 . S
C770 H764 0.949 . S
C770 C774 1.368 . S
C771 C752 1.429 . S
C771 C765 1.429 . S
C771 C772 1.523 . S
C772 C753 1.368 . S
C772 C766 1.368 . S
C772 C771 1.523 . S
C773 C757 1.429 . S
C773 C769 1.429 . S
C773 C774 1.523 . S
C774 C758 1.368 . S
C774 C770 1.368 . S
C774 C773 1.523 . S
H775 C750 0.950 . S
H776 C752 0.950 . S
H777 C753 0.949 . S
H778 C755 0.950 . S
H779 C757 0.950 . S
C780 C781 1.349 . S
C780 C782 1.327 . S
C780 H805 0.957 . S
C781 C780 1.349 . S
C781 C797 1.349 . S
C782 C780 1.327 . S
C782 C801 1.429 . S
C782 H806 0.950 . S
C783 C800 1.574 . S
C783 C802 1.368 . S
C783 H807 0.949 . S
H784 C788 0.949 . S
C785 C786 1.349 . S
C785 C787 1.327 . S
C785 H808 0.950 . S
C786 C785 1.349 . S
C786 C798 1.349 . S
C787 C785 1.327 . S
C787 C803 1.429 . S
C787 H809 0.950 . S
C788 H784 0.949 . S
C788 C796 1.574 . S
C788 C804 1.368 . S
H789 C797 0.950 . S
H790 C795 0.950 . S
H791 C796 0.949 . S
H792 C798 0.950 . S
H793 C799 0.950 . S
H794 C800 0.949 . S
C795 H790 0.950 . S
C795 C797 1.327 . S
C795 C801 1.429 . S
C796 C788 1.574 . S
C796 H791 0.949 . S
C796 C802 1.368 . S
C797 C781 1.349 . S
C797 H789 0.950 . S
C797 C795 1.327 . S
C798 C786 1.349 . S
C798 H792 0.950 . S
C798 C799 1.327 . S
C799 H793 0.950 . S
C799 C798 1.327 . S
C799 C803 1.429 . S
C800 C783 1.574 . S
C800 H794 0.949 . S
C800 C804 1.368 . S
C801 C782 1.429 . S
C801 C795 1.429 . S
C801 C802 1.523 . S
C802 C783 1.368 . S
C802 C796 1.368 . S
C802 C801 1.523 . S
C803 C787 1.429 . S
C803 C799 1.429 . S
C803 C804 1.523 . S
C804 C788 1.368 . S
C804 C800 1.368 . S
C804 C803 1.523 . S
H805 C780 0.957 . S
H806 C782 0.950 . S
H807 C783 0.949 . S
H808 C785 0.950 . S
H809 C787 0.950 . S
C810 C811 1.335 1_565 S
C810 C812 1.321 1_565 S
C810 H835 0.970 . S
C811 C810 1.335 1_545 S
C811 C827 1.349 . S
C812 C810 1.321 1_545 S
C812 C831 1.429 . S
C812 H836 0.950 . S
C813 C830 1.574 . S
C813 C832 1.368 . S
C813 H837 0.949 . S
H814 C818 0.949 . S
C815 C816 1.349 . S
C815 C817 1.327 . S
C815 H838 0.950 . S
C816 C815 1.349 . S
C816 C828 1.349 . S
C817 C815 1.327 . S
C817 C833 1.429 . S
C817 H839 0.950 . S
C818 H814 0.949 . S
C818 C826 1.574 . S
C818 C834 1.368 . S
H819 C827 0.950 . S
H820 C825 0.950 . S
H821 C826 0.949 . S
H822 C828 0.950 . S
H823 C829 0.950 . S
H824 C830 0.949 . S
C825 H820 0.950 . S
C825 C827 1.327 . S
C825 C831 1.429 . S
C826 C818 1.574 . S
C826 H821 0.949 . S
C826 C832 1.368 . S
C827 C811 1.349 . S
C827 H819 0.950 . S
C827 C825 1.327 . S
C828 C816 1.349 . S
C828 H822 0.950 . S
C828 C829 1.327 . S
C829 H823 0.950 . S
C829 C828 1.327 . S
C829 C833 1.429 . S
C830 C813 1.574 . S
C830 H824 0.949 . S
C830 C834 1.368 . S
C831 C812 1.429 . S
C831 C825 1.429 . S
C831 C832 1.523 . S
C832 C813 1.368 . S
C832 C826 1.368 . S
C832 C831 1.523 . S
C833 C817 1.429 . S
C833 C829 1.429 . S
C833 C834 1.523 . S
C834 C818 1.368 . S
C834 C830 1.368 . S
C834 C833 1.523 . S
H835 C810 0.970 . S
H836 C812 0.950 . S
H837 C813 0.949 . S
H838 C815 0.950 . S
H839 C817 0.950 . S
C840 C841 1.349 . S
C840 C842 1.327 . S
C840 H865 0.950 . S
C841 C840 1.349 . S
C841 C857 1.349 . S
C842 C840 1.327 . S
C842 C861 1.429 . S
C842 H866 0.950 . S
C843 C860 1.574 . S
C843 C862 1.368 . S
C843 H867 0.949 . S
H844 C848 0.949 . S
C845 C846 1.349 . S
C845 C847 1.327 . S
C845 H868 0.950 . S
C846 C845 1.349 . S
C846 C858 1.349 . S
C847 C845 1.327 . S
C847 C863 1.429 . S
C847 H869 0.950 . S
C848 H844 0.949 . S
C848 C856 1.574 . S
C848 C864 1.368 . S
H849 C857 0.950 . S
H850 C855 0.950 . S
H851 C856 0.949 . S
H852 C858 0.950 . S
H853 C859 0.950 . S
H854 C860 0.949 . S
C855 H850 0.950 . S
C855 C857 1.327 . S
C855 C861 1.429 . S
C856 C848 1.574 . S
C856 H851 0.949 . S
C856 C862 1.368 . S
C857 C841 1.349 . S
C857 H849 0.950 . S
C857 C855 1.327 . S
C858 C846 1.349 . S
C858 H852 0.950 . S
C858 C859 1.327 . S
C859 H853 0.950 . S
C859 C858 1.327 . S
C859 C863 1.429 . S
C860 C843 1.574 . S
C860 H854 0.949 . S
C860 C864 1.368 . S
C861 C842 1.429 . S
C861 C855 1.429 . S
C861 C862 1.523 . S
C862 C843 1.368 . S
C862 C856 1.368 . S
C862 C861 1.523 . S
C863 C847 1.429 . S
C863 C859 1.429 . S
C863 C864 1.523 . S
C864 C848 1.368 . S
C864 C860 1.368 . S
C864 C863 1.523 . S
H865 C840 0.950 . S
H866 C842 0.950 . S
H867 C843 0.949 . S
H868 C845 0.950 . S
H869 C847 0.950 . S
C870 C871 1.349 . S
C870 C872 1.327 . S
C870 H895 0.950 . S
C871 C870 1.349 . S
C871 C887 1.349 . S
C872 C870 1.327 . S
C872 C891 1.429 . S
C872 H896 0.950 . S
C873 C890 1.574 . S
C873 C892 1.368 . S
C873 H897 0.949 . S
H874 C878 0.949 . S
C875 C876 1.349 . S
C875 C877 1.327 1_556 S
C875 H898 0.950 1_656 S
C876 C875 1.349 . S
C876 C888 1.349 . S
C877 C875 1.327 1_554 S
C877 C893 1.429 1_554 S
C877 H899 0.950 . S
C878 H874 0.949 . S
C878 C886 1.577 . S
C878 C894 1.368 1_556 S
H879 C887 0.950 . S
H880 C885 0.950 . S
H881 C886 0.953 . S
H882 C888 0.950 . S
H883 C889 0.950 . S
H884 C890 0.949 . S
C885 H880 0.950 . S
C885 C887 1.327 . S
C885 C891 1.429 . S
C886 C878 1.577 . S
C886 H881 0.953 . S
C886 C892 1.361 1_556 S
C887 C871 1.349 . S
C887 H879 0.950 . S
C887 C885 1.327 . S
C888 C876 1.349 . S
C888 H882 0.950 . S
C888 C889 1.327 . S
C889 H883 0.950 . S
C889 C888 1.327 . S
C889 C893 1.429 . S
C890 C873 1.574 . S
C890 H884 0.949 . S
C890 C894 1.368 . S
C891 C872 1.429 . S
C891 C885 1.429 . S
C891 C892 1.523 . S
C892 C873 1.368 . S
C892 C886 1.361 1_554 S
C892 C891 1.523 . S
C893 C877 1.429 1_556 S
C893 C889 1.429 . S
C893 C894 1.523 1_556 S
C894 C878 1.368 1_554 S
C894 C890 1.368 . S
C894 C893 1.523 1_554 S
H895 C870 0.950 . S
H896 C872 0.950 . S
H897 C873 0.949 . S
H898 C875 0.950 1_454 S
H899 C877 0.950 . S
C900 C901 1.333 1_545 S
C900 C902 1.321 1_545 S
C900 H925 0.972 . S
C901 C900 1.333 1_565 S
C901 C917 1.349 . S
C902 C900 1.321 1_565 S
C902 C921 1.429 . S
C902 H926 0.950 . S
C903 C920 1.574 . S
C903 C922 1.368 . S
C903 H927 0.949 . S
H904 C908 0.949 . S
C905 C906 1.349 . S
C905 C907 1.327 . S
C905 H928 0.950 . S
C906 C905 1.349 . S
C906 C918 1.349 . S
C907 C905 1.327 . S
C907 C923 1.429 . S
C907 H929 0.950 . S
C908 H904 0.949 . S
C908 C916 1.574 . S
C908 C924 1.368 . S
H909 C917 0.950 . S
H910 C915 0.950 . S
H911 C916 0.949 . S
H912 C918 0.950 . S
H913 C919 0.950 . S
H914 C920 0.949 . S
C915 H910 0.950 . S
C915 C917 1.327 . S
C915 C921 1.429 . S
C916 C908 1.574 . S
C916 H911 0.949 . S
C916 C922 1.368 . S
C917 C901 1.349 . S
C917 H909 0.950 . S
C917 C915 1.327 . S
C918 C906 1.349 . S
C918 H912 0.950 . S
C918 C919 1.327 . S
C919 H913 0.950 . S
C919 C918 1.327 . S
C919 C923 1.429 . S
C920 C903 1.574 . S
C920 H914 0.949 . S
C920 C924 1.368 . S
C921 C902 1.429 . S
C921 C915 1.429 . S
C921 C922 1.523 . S
C922 C903 1.368 . S
C922 C916 1.368 . S
C922 C921 1.523 . S
C923 C907 1.429 . S
C923 C919 1.429 . S
C923 C924 1.523 . S
C924 C908 1.368 . S
C924 C920 1.368 . S
C924 C923 1.523 . S
H925 C900 0.972 . S
H926 C902 0.950 . S
H927 C903 0.949 . S
H928 C905 0.950 . S
H929 C907 0.950 . S
C930 C931 1.349 . S
C930 C932 1.327 . S
C930 H955 0.950 . S
C931 C930 1.349 . S
C931 C947 1.349 . S
C932 C930 1.327 . S
C932 C951 1.429 . S
C932 H956 0.950 . S
C933 C950 1.574 . S
C933 C952 1.368 . S
C933 H957 0.949 . S
H934 C938 0.949 . S
C935 C936 1.349 . S
C935 C937 1.327 . S
C935 H958 0.950 . S
C936 C935 1.349 . S
C936 C948 1.349 . S
C937 C935 1.327 . S
C937 C953 1.429 . S
C937 H959 0.950 . S
C938 H934 0.949 . S
C938 C946 1.574 . S
C938 C954 1.368 . S
H939 C947 0.950 . S
H940 C945 0.950 . S
H941 C946 0.949 . S
H942 C948 0.950 . S
H943 C949 0.950 . S
H944 C950 0.949 . S
C945 H940 0.950 . S
C945 C947 1.327 . S
C945 C951 1.429 . S
C946 C938 1.574 . S
C946 H941 0.949 . S
C946 C952 1.368 . S
C947 C931 1.349 . S
C947 H939 0.950 . S
C947 C945 1.327 . S
C948 C936 1.349 . S
C948 H942 0.950 . S
C948 C949 1.327 . S
C949 H943 0.950 . S
C949 C948 1.327 . S
C949 C953 1.429 . S
C950 C933 1.574 . S
C950 H944 0.949 . S
C950 C954 1.368 . S
C951 C932 1.429 . S
C951 C945 1.429 . S
C951 C952 1.523 . S
C952 C933 1.368 . S
C952 C946 1.368 . S
C952 C951 1.523 . S
C953 C937 1.429 . S
C953 C949 1.429 . S
C953 C954 1.523 . S
C954 C938 1.368 . S
C954 C950 1.368 . S
C954 C953 1.523 . S
H955 C930 0.950 . S
H956 C932 0.950 . S
H957 C933 0.949 . S
H958 C935 0.950 . S
H959 C937 0.950 . S
C960 C961 1.349 . S
C960 C962 1.327 . S
C960 H985 0.950 . S
C961 C960 1.349 . S
C961 C977 1.349 . S
C962 C960 1.327 . S
C962 C981 1.429 . S
C962 H986 0.950 . S
C963 C980 1.574 . S
C963 C982 1.368 . S
C963 H987 0.949 . S
H964 C968 0.949 . S
C965 C966 1.349 . S
C965 C967 1.327 . S
C965 H988 0.950 . S
C966 C965 1.349 . S
C966 C978 1.349 . S
C967 C965 1.327 . S
C967 C983 1.429 . S
C967 H989 0.950 . S
C968 H964 0.949 . S
C968 C976 1.574 . S
C968 C984 1.368 . S
H969 C977 0.950 . S
H970 C975 0.950 . S
H971 C976 0.949 . S
H972 C978 0.950 . S
H973 C979 0.950 . S
H974 C980 0.949 . S
C975 H970 0.950 . S
C975 C977 1.327 . S
C975 C981 1.429 . S
C976 C968 1.574 . S
C976 H971 0.949 . S
C976 C982 1.368 . S
C977 C961 1.349 . S
C977 H969 0.950 . S
C977 C975 1.327 . S
C978 C966 1.349 . S
C978 H972 0.950 . S
C978 C979 1.327 . S
C979 H973 0.950 . S
C979 C978 1.327 . S
C979 C983 1.429 . S
C980 C963 1.574 . S
C980 H974 0.949 . S
C980 C984 1.368 . S
C981 C962 1.429 . S
C981 C975 1.429 . S
C981 C982 1.523 . S
C982 C963 1.368 . S
C982 C976 1.368 . S
C982 C981 1.523 . S
C983 C967 1.429 . S
C983 C979 1.429 . S
C983 C984 1.523 . S
C984 C968 1.368 . S
C984 C980 1.368 . S
C984 C983 1.523 . S
H985 C960 0.950 . S
H986 C962 0.950 . S
H987 C963 0.949 . S
H988 C965 0.950 . S
H989 C967 0.950 . S
C990 C991 1.349 . S
C990 C992 1.327 . S
C990 H1015 0.950 . S
C991 C990 1.349 . S
C991 C1007 1.349 . S
C992 C990 1.327 . S
C992 C1011 1.429 . S
C992 H1016 0.950 . S
C993 C1010 1.574 . S
C993 C1012 1.368 . S
C993 H1017 0.949 . S
H994 C998 0.949 . S
C995 C996 1.349 . S
C995 C997 1.327 . S
C995 H1018 0.950 . S
C996 C995 1.349 . S
C996 C1008 1.349 . S
C997 C995 1.327 . S
C997 C1013 1.429 . S
C997 H1019 0.950 . S
C998 H994 0.949 . S
C998 C1006 1.574 . S
C998 C1014 1.368 . S
H999 C1007 0.950 . S
H1000 C1005 0.950 . S
H1001 C1006 0.949 . S
H1002 C1008 0.950 . S
H1003 C1009 0.950 . S
H1004 C1010 0.949 . S
C1005 H1000 0.950 . S
C1005 C1007 1.327 . S
C1005 C1011 1.429 . S
C1006 C998 1.574 . S
C1006 H1001 0.949 . S
C1006 C1012 1.368 . S
C1007 C991 1.349 . S
C1007 H999 0.950 . S
C1007 C1005 1.327 . S
C1008 C996 1.349 . S
C1008 H1002 0.950 . S
C1008 C1009 1.327 . S
C1009 H1003 0.950 . S
C1009 C1008 1.327 . S
C1009 C1013 1.429 . S
C1010 C993 1.574 . S
C1010 H1004 0.949 . S
C1010 C1014 1.368 . S
C1011 C992 1.429 . S
C1011 C1005 1.429 . S
C1011 C1012 1.523 . S
C1012 C993 1.368 . S
C1012 C1006 1.368 . S
C1012 C1011 1.523 . S
C1013 C997 1.429 . S
C1013 C1009 1.429 . S
C1013 C1014 1.523 . S
C1014 C998 1.368 . S
C1014 C1010 1.368 . S
C1014 C1013 1.523 . S
H1015 C990 0.950 . S
H1016 C992 0.950 . S
H1017 C993 0.949 . S
H1018 C995 0.950 . S
H1019 C997 0.950 . S
C1020 C1021 1.349 . S
C1020 C1022 1.327 . S
C1020 H1045 0.950 . S
C1021 C1020 1.349 . S
C1021 C1037 1.349 . S
C1022 C1020 1.327 . S
C1022 C1041 1.429 . S
C1022 H1046 0.950 . S
C1023 C1040 1.574 . S
C1023 C1042 1.368 . S
C1023 H1047 0.949 . S
H1024 C1028 0.949 . S
C1025 C1026 1.349 . S
C1025 C1027 1.327 . S
C1025 H1048 0.950 1_455 S
C1026 C1025 1.349 . S
C1026 C1038 1.349 . S
C1027 C1025 1.327 . S
C1027 C1043 1.429 . S
C1027 H1049 0.950 . S
C1028 H1024 0.949 . S
C1028 C1036 1.574 . S
C1028 C1044 1.368 . S
H1029 C1037 0.950 . S
H1030 C1035 0.950 . S
H1031 C1036 0.949 . S
H1032 C1038 0.950 . S
H1033 C1039 0.950 . S
H1034 C1040 0.949 . S
C1035 H1030 0.950 . S
C1035 C1037 1.327 . S
C1035 C1041 1.429 . S
C1036 C1028 1.574 . S
C1036 H1031 0.949 . S
C1036 C1042 1.368 . S
C1037 C1021 1.349 . S
C1037 H1029 0.950 . S
C1037 C1035 1.327 . S
C1038 C1026 1.349 . S
C1038 H1032 0.950 . S
C1038 C1039 1.327 . S
C1039 H1033 0.950 . S
C1039 C1038 1.327 . S
C1039 C1043 1.429 . S
C1040 C1023 1.574 . S
C1040 H1034 0.949 . S
C1040 C1044 1.368 . S
C1041 C1022 1.429 . S
C1041 C1035 1.429 . S
C1041 C1042 1.523 . S
C1042 C1023 1.368 . S
C1042 C1036 1.368 . S
C1042 C1041 1.523 . S
C1043 C1027 1.429 . S
C1043 C1039 1.429 . S
C1043 C1044 1.523 . S
C1044 C1028 1.368 . S
C1044 C1040 1.368 . S
C1044 C1043 1.523 . S
H1045 C1020 0.950 . S
H1046 C1022 0.950 . S
H1047 C1023 0.949 . S
H1048 C1025 0.950 1_655 S
H1049 C1027 0.950 . S
C1050 C1051 1.349 . S
C1050 C1052 1.327 . S
C1050 H1075 0.950 . S
C1051 C1050 1.349 . S
C1051 C1067 1.349 . S
C1052 C1050 1.327 . S
C1052 C1071 1.429 . S
C1052 H1076 0.950 . S
C1053 C1070 1.574 . S
C1053 C1072 1.368 . S
C1053 H1077 0.949 . S
H1054 C1058 0.949 . S
C1055 C1056 1.349 . S
C1055 C1057 1.327 . S
C1055 H1078 0.950 . S
C1056 C1055 1.349 . S
C1056 C1068 1.349 . S
C1057 C1055 1.327 . S
C1057 C1073 1.429 . S
C1057 H1079 0.950 . S
C1058 H1054 0.949 . S
C1058 C1066 1.574 . S
C1058 C1074 1.368 . S
H1059 C1067 0.950 1_565 S
H1060 C1065 0.950 . S
H1061 C1066 0.949 . S
H1062 C1068 0.950 . S
H1063 C1069 0.950 . S
H1064 C1070 0.949 . S
C1065 H1060 0.950 . S
C1065 C1067 1.327 . S
C1065 C1071 1.429 . S
C1066 C1058 1.574 . S
C1066 H1061 0.949 . S
C1066 C1072 1.368 . S
C1067 C1051 1.349 . S
C1067 H1059 0.950 1_545 S
C1067 C1065 1.327 . S
C1068 C1056 1.349 . S
C1068 H1062 0.950 . S
C1068 C1069 1.327 . S
C1069 H1063 0.950 . S
C1069 C1068 1.327 . S
C1069 C1073 1.429 . S
C1070 C1053 1.574 . S
C1070 H1064 0.949 . S
C1070 C1074 1.368 . S
C1071 C1052 1.429 . S
C1071 C1065 1.429 . S
C1071 C1072 1.523 . S
C1072 C1053 1.368 . S
C1072 C1066 1.368 . S
C1072 C1071 1.523 . S
C1073 C1057 1.429 . S
C1073 C1069 1.429 . S
C1073 C1074 1.523 . S
C1074 C1058 1.368 . S
C1074 C1070 1.368 . S
C1074 C1073 1.523 . S
H1075 C1050 0.950 . S
H1076 C1052 0.950 . S
H1077 C1053 0.949 . S
H1078 C1055 0.950 . S
H1079 C1057 0.950 . S
C1080 C1081 1.349 . S
C1080 C1082 1.327 . S
C1080 H1105 0.950 . S
C1081 C1080 1.349 . S
C1081 C1097 1.349 . S
C1082 C1080 1.327 . S
C1082 C1101 1.429 . S
C1082 H1106 0.950 . S
C1083 C1100 1.574 . S
C1083 C1102 1.368 . S
C1083 H1107 0.949 . S
H1084 C1088 0.949 . S
C1085 C1086 1.349 . S
C1085 C1087 1.327 . S
C1085 H1108 0.950 . S
C1086 C1085 1.349 . S
C1086 C1098 1.349 . S
C1087 C1085 1.327 . S
C1087 C1103 1.429 . S
C1087 H1109 0.950 . S
C1088 H1084 0.949 . S
C1088 C1096 1.574 . S
C1088 C1104 1.368 . S
H1089 C1097 0.950 . S
H1090 C1095 0.950 . S
H1091 C1096 0.949 . S
H1092 C1098 0.950 . S
H1093 C1099 0.950 . S
H1094 C1100 0.949 . S
C1095 H1090 0.950 . S
C1095 C1097 1.327 . S
C1095 C1101 1.429 . S
C1096 C1088 1.574 . S
C1096 H1091 0.949 . S
C1096 C1102 1.368 . S
C1097 C1081 1.349 . S
C1097 H1089 0.950 . S
C1097 C1095 1.327 . S
C1098 C1086 1.349 . S
C1098 H1092 0.950 . S
C1098 C1099 1.327 . S
C1099 H1093 0.950 . S
C1099 C1098 1.327 . S
C1099 C1103 1.429 . S
C1100 C1083 1.574 . S
C1100 H1094 0.949 . S
C1100 C1104 1.368 . S
C1101 C1082 1.429 . S
C1101 C1095 1.429 . S
C1101 C1102 1.523 . S
C1102 C1083 1.368 . S
C1102 C1096 1.368 . S
C1102 C1101 1.523 . S
C1103 C1087 1.429 . S
C1103 C1099 1.429 . S
C1103 C1104 1.523 . S
C1104 C1088 1.368 . S
C1104 C1100 1.368 . S
C1104 C1103 1.523 . S
H1105 C1080 0.950 . S
H1106 C1082 0.950 . S
H1107 C1083 0.949 . S
H1108 C1085 0.950 . S
H1109 C1087 0.950 . S
C1110 C1111 1.349 . S
C1110 C1112 1.327 . S
C1110 H1135 0.950 . S
C1111 C1110 1.349 . S
C1111 C1127 1.349 . S
C1112 C1110 1.327 . S
C1112 C1131 1.429 . S
C1112 H1136 0.950 . S
C1113 C1130 1.574 . S
C1113 C1132 1.368 . S
C1113 H1137 0.949 . S
H1114 C1118 0.949 . S
C1115 C1116 1.349 . S
C1115 C1117 1.327 . S
C1115 H1138 0.950 1_655 S
C1116 C1115 1.349 . S
C1116 C1128 1.349 . S
C1117 C1115 1.327 . S
C1117 C1133 1.429 . S
C1117 H1139 0.950 . S
C1118 H1114 0.949 . S
C1118 C1126 1.574 . S
C1118 C1134 1.368 . S
H1119 C1127 0.950 . S
H1120 C1125 0.950 . S
H1121 C1126 0.949 . S
H1122 C1128 0.950 . S
H1123 C1129 0.950 . S
H1124 C1130 0.949 . S
C1125 H1120 0.950 . S
C1125 C1127 1.327 . S
C1125 C1131 1.429 . S
C1126 C1118 1.574 . S
C1126 H1121 0.949 . S
C1126 C1132 1.368 . S
C1127 C1111 1.349 . S
C1127 H1119 0.950 . S
C1127 C1125 1.327 . S
C1128 C1116 1.349 . S
C1128 H1122 0.950 . S
C1128 C1129 1.327 . S
C1129 H1123 0.950 . S
C1129 C1128 1.327 . S
C1129 C1133 1.429 . S
C1130 C1113 1.574 . S
C1130 H1124 0.949 . S
C1130 C1134 1.368 . S
C1131 C1112 1.429 . S
C1131 C1125 1.429 . S
C1131 C1132 1.523 . S
C1132 C1113 1.368 . S
C1132 C1126 1.368 . S
C1132 C1131 1.523 . S
C1133 C1117 1.429 . S
C1133 C1129 1.429 . S
C1133 C1134 1.523 . S
C1134 C1118 1.368 . S
C1134 C1130 1.368 . S
C1134 C1133 1.523 . S
H1135 C1110 0.950 . S
H1136 C1112 0.950 . S
H1137 C1113 0.949 . S
H1138 C1115 0.950 1_455 S
H1139 C1117 0.950 . S
C1140 C1141 1.349 . S
C1140 C1142 1.327 . S
C1140 H1165 0.950 . S
C1141 C1140 1.349 . S
C1141 C1157 1.349 . S
C1142 C1140 1.327 . S
C1142 C1161 1.429 . S
C1142 H1166 0.950 . S
C1143 C1160 1.574 . S
C1143 C1162 1.368 . S
C1143 H1167 0.949 . S
H1144 C1148 0.949 . S
C1145 C1146 1.349 . S
C1145 C1147 1.327 . S
C1145 H1168 0.950 . S
C1146 C1145 1.349 . S
C1146 C1158 1.349 . S
C1147 C1145 1.327 . S
C1147 C1163 1.429 . S
C1147 H1169 0.950 . S
C1148 H1144 0.949 . S
C1148 C1156 1.574 . S
C1148 C1164 1.368 . S
H1149 C1157 0.950 . S
H1150 C1155 0.950 . S
H1151 C1156 0.949 . S
H1152 C1158 0.950 . S
H1153 C1159 0.950 . S
H1154 C1160 0.949 . S
C1155 H1150 0.950 . S
C1155 C1157 1.327 . S
C1155 C1161 1.429 . S
C1156 C1148 1.574 . S
C1156 H1151 0.949 . S
C1156 C1162 1.368 . S
C1157 C1141 1.349 . S
C1157 H1149 0.950 . S
C1157 C1155 1.327 . S
C1158 C1146 1.349 . S
C1158 H1152 0.950 . S
C1158 C1159 1.327 . S
C1159 H1153 0.950 . S
C1159 C1158 1.327 . S
C1159 C1163 1.429 . S
C1160 C1143 1.574 . S
C1160 H1154 0.949 . S
C1160 C1164 1.368 . S
C1161 C1142 1.429 . S
C1161 C1155 1.429 . S
C1161 C1162 1.523 . S
C1162 C1143 1.368 . S
C1162 C1156 1.368 . S
C1162 C1161 1.523 . S
C1163 C1147 1.429 . S
C1163 C1159 1.429 . S
C1163 C1164 1.523 . S
C1164 C1148 1.368 . S
C1164 C1160 1.368 . S
C1164 C1163 1.523 . S
H1165 C1140 0.950 . S
H1166 C1142 0.950 . S
H1167 C1143 0.949 . S
H1168 C1145 0.950 . S
H1169 C1147 0.950 . S
C1170 C1171 1.349 . S
C1170 C1172 1.327 . S
C1170 H1195 0.950 . S
C1171 C1170 1.349 . S
C1171 C1187 1.349 . S
C1172 C1170 1.327 . S
C1172 C1191 1.429 . S
C1172 H1196 0.950 . S
C1173 C1190 1.574 . S
C1173 C1192 1.368 . S
C1173 H1197 0.949 . S
H1174 C1178 0.949 . S
C1175 C1176 1.349 . S
C1175 C1177 1.327 . S
C1175 H1198 0.950 . S
C1176 C1175 1.349 . S
C1176 C1188 1.349 . S
C1177 C1175 1.327 . S
C1177 C1193 1.429 . S
C1177 H1199 0.950 . S
C1178 H1174 0.949 . S
C1178 C1186 1.574 . S
C1178 C1194 1.368 . S
H1179 C1187 0.950 . S
H1180 C1185 0.950 . S
H1181 C1186 0.949 . S
H1182 C1188 0.950 . S
H1183 C1189 0.950 . S
H1184 C1190 0.949 . S
C1185 H1180 0.950 . S
C1185 C1187 1.327 . S
C1185 C1191 1.429 . S
C1186 C1178 1.574 . S
C1186 H1181 0.949 . S
C1186 C1192 1.368 . S
C1187 C1171 1.349 . S
C1187 H1179 0.950 . S
C1187 C1185 1.327 . S
C1188 C1176 1.349 . S
C1188 H1182 0.950 . S
C1188 C1189 1.327 . S
C1189 H1183 0.950 . S
C1189 C1188 1.327 . S
C1189 C1193 1.429 . S
C1190 C1173 1.574 . S
C1190 H1184 0.949 . S
C1190 C1194 1.368 . S
C1191 C1172 1.429 . S
C1191 C1185 1.429 . S
C1191 C1192 1.523 . S
C1192 C1173 1.368 . S
C1192 C1186 1.368 . S
C1192 C1191 1.523 . S
C1193 C1177 1.429 . S
C1193 C1189 1.429 . S
C1193 C1194 1.523 . S
C1194 C1178 1.368 . S
C1194 C1190 1.368 . S
C1194 C1193 1.523 . S
H1195 C1170 0.950 . S
H1196 C1172 0.950 . S
H1197 C1173 0.949 . S
H1198 C1175 0.950 . S
H1199 C1177 0.950 . S
C1200 C1201 1.349 . S
C1200 C1202 1.327 . S
C1200 H1225 0.950 . S
C1201 C1200 1.349 . S
C1201 C1217 1.349 . S
C1202 C1200 1.327 . S
C1202 C1221 1.429 . S
C1202 H1226 0.950 . S
C1203 C1220 1.574 . S
C1203 C1222 1.368 . S
C1203 H1227 0.949 . S
H1204 C1208 0.949 . S
C1205 C1206 1.349 . S
C1205 C1207 1.327 . S
C1205 H1228 0.950 . S
C1206 C1205 1.349 . S
C1206 C1218 1.349 . S
C1207 C1205 1.327 . S
C1207 C1223 1.429 . S
C1207 H1229 0.950 . S
C1208 H1204 0.949 . S
C1208 C1216 1.574 . S
C1208 C1224 1.368 . S
H1209 C1217 0.950 . S
H1210 C1215 0.950 . S
H1211 C1216 0.949 . S
H1212 C1218 0.950 . S
H1213 C1219 0.950 . S
H1214 C1220 0.949 . S
C1215 H1210 0.950 . S
C1215 C1217 1.327 . S
C1215 C1221 1.429 . S
C1216 C1208 1.574 . S
C1216 H1211 0.949 . S
C1216 C1222 1.368 . S
C1217 C1201 1.349 . S
C1217 H1209 0.950 . S
C1217 C1215 1.327 . S
C1218 C1206 1.349 . S
C1218 H1212 0.950 . S
C1218 C1219 1.327 . S
C1219 H1213 0.950 . S
C1219 C1218 1.327 . S
C1219 C1223 1.429 . S
C1220 C1203 1.574 . S
C1220 H1214 0.949 . S
C1220 C1224 1.368 . S
C1221 C1202 1.429 . S
C1221 C1215 1.429 . S
C1221 C1222 1.523 . S
C1222 C1203 1.368 . S
C1222 C1216 1.368 . S
C1222 C1221 1.523 . S
C1223 C1207 1.429 . S
C1223 C1219 1.429 . S
C1223 C1224 1.523 . S
C1224 C1208 1.368 . S
C1224 C1220 1.368 . S
C1224 C1223 1.523 . S
H1225 C1200 0.950 . S
H1226 C1202 0.950 . S
H1227 C1203 0.949 . S
H1228 C1205 0.950 . S
H1229 C1207 0.950 . S
C1230 C1231 1.349 . S
C1230 C1232 1.327 . S
C1230 H1255 0.950 . S
C1231 C1230 1.349 . S
C1231 C1247 1.349 . S
C1232 C1230 1.327 . S
C1232 C1251 1.429 . S
C1232 H1256 0.950 . S
C1233 C1250 1.574 . S
C1233 C1252 1.368 . S
C1233 H1257 0.949 . S
H1234 C1238 0.949 . S
C1235 C1236 1.349 . S
C1235 C1237 1.327 . S
C1235 H1258 0.950 . S
C1236 C1235 1.349 . S
C1236 C1248 1.349 . S
C1237 C1235 1.327 . S
C1237 C1253 1.429 . S
C1237 H1259 0.950 . S
C1238 H1234 0.949 . S
C1238 C1246 1.574 . S
C1238 C1254 1.368 . S
H1239 C1247 0.950 . S
H1240 C1245 0.950 . S
H1241 C1246 0.949 . S
H1242 C1248 0.950 . S
H1243 C1249 0.950 . S
H1244 C1250 0.949 . S
C1245 H1240 0.950 . S
C1245 C1247 1.327 . S
C1245 C1251 1.429 . S
C1246 C1238 1.574 . S
C1246 H1241 0.949 . S
C1246 C1252 1.368 . S
C1247 C1231 1.349 . S
C1247 H1239 0.950 . S
C1247 C1245 1.327 . S
C1248 C1236 1.349 . S
C1248 H1242 0.950 . S
C1248 C1249 1.327 . S
C1249 H1243 0.950 . S
C1249 C1248 1.327 . S
C1249 C1253 1.429 . S
C1250 C1233 1.574 . S
C1250 H1244 0.949 . S
C1250 C1254 1.368 . S
C1251 C1232 1.429 . S
C1251 C1245 1.429 . S
C1251 C1252 1.523 . S
C1252 C1233 1.368 . S
C1252 C1246 1.368 . S
C1252 C1251 1.523 . S
C1253 C1237 1.429 . S
C1253 C1249 1.429 . S
C1253 C1254 1.523 . S
C1254 C1238 1.368 . S
C1254 C1250 1.368 . S
C1254 C1253 1.523 . S
H1255 C1230 0.950 . S
H1256 C1232 0.950 . S
H1257 C1233 0.949 . S
H1258 C1235 0.950 . S
H1259 C1237 0.950 . S
C1260 C1261 1.349 . S
C1260 C1262 1.327 . S
C1260 H1285 0.950 . S
C1261 C1260 1.349 . S
C1261 C1277 1.349 . S
C1262 C1260 1.327 . S
C1262 C1281 1.429 . S
C1262 H1286 0.950 . S
C1263 C1280 1.574 . S
C1263 C1282 1.368 . S
C1263 H1287 0.949 . S
H1264 C1268 0.949 . S
C1265 C1266 1.349 . S
C1265 C1267 1.327 . S
C1265 H1288 0.950 . S
C1266 C1265 1.349 . S
C1266 C1278 1.349 . S
C1267 C1265 1.327 . S
C1267 C1283 1.429 . S
C1267 H1289 0.950 . S
C1268 H1264 0.949 . S
C1268 C1276 1.574 . S
C1268 C1284 1.368 . S
H1269 C1277 0.950 . S
H1270 C1275 0.950 . S
H1271 C1276 0.949 . S
H1272 C1278 0.950 . S
H1273 C1279 0.950 . S
H1274 C1280 0.949 . S
C1275 H1270 0.950 . S
C1275 C1277 1.327 . S
C1275 C1281 1.429 . S
C1276 C1268 1.574 . S
C1276 H1271 0.949 . S
C1276 C1282 1.368 . S
C1277 C1261 1.349 . S
C1277 H1269 0.950 . S
C1277 C1275 1.327 . S
C1278 C1266 1.349 . S
C1278 H1272 0.950 . S
C1278 C1279 1.327 . S
C1279 H1273 0.950 . S
C1279 C1278 1.327 . S
C1279 C1283 1.429 . S
C1280 C1263 1.574 . S
C1280 H1274 0.949 . S
C1280 C1284 1.368 . S
C1281 C1262 1.429 . S
C1281 C1275 1.429 . S
C1281 C1282 1.523 . S
C1282 C1263 1.368 . S
C1282 C1276 1.368 . S
C1282 C1281 1.523 . S
C1283 C1267 1.429 . S
C1283 C1279 1.429 . S
C1283 C1284 1.523 . S
C1284 C1268 1.368 . S
C1284 C1280 1.368 . S
C1284 C1283 1.523 . S
H1285 C1260 0.950 . S
H1286 C1262 0.950 . S
H1287 C1263 0.949 . S
H1288 C1265 0.950 . S
H1289 C1267 0.950 . S
C1290 C1291 1.349 . S
C1290 C1292 1.327 . S
C1290 H1315 0.950 . S
C1291 C1290 1.349 . S
C1291 C1307 1.349 . S
C1292 C1290 1.327 . S
C1292 C1311 1.429 . S
C1292 H1316 0.950 . S
C1293 C1310 1.574 . S
C1293 C1312 1.368 . S
C1293 H1317 0.949 . S
H1294 C1298 0.949 . S
C1295 C1296 1.349 . S
C1295 C1297 1.327 . S
C1295 H1318 0.950 . S
C1296 C1295 1.349 . S
C1296 C1308 1.349 . S
C1297 C1295 1.327 . S
C1297 C1313 1.429 . S
C1297 H1319 0.950 . S
C1298 H1294 0.949 . S
C1298 C1306 1.574 . S
C1298 C1314 1.368 . S
H1299 C1307 0.950 . S
H1300 C1305 0.950 . S
H1301 C1306 0.949 . S
H1302 C1308 0.950 . S
H1303 C1309 0.950 . S
H1304 C1310 0.949 . S
C1305 H1300 0.950 . S
C1305 C1307 1.327 . S
C1305 C1311 1.429 . S
C1306 C1298 1.574 . S
C1306 H1301 0.949 . S
C1306 C1312 1.368 . S
C1307 C1291 1.349 . S
C1307 H1299 0.950 . S
C1307 C1305 1.327 . S
C1308 C1296 1.349 . S
C1308 H1302 0.950 . S
C1308 C1309 1.327 . S
C1309 H1303 0.950 . S
C1309 C1308 1.327 . S
C1309 C1313 1.429 . S
C1310 C1293 1.574 . S
C1310 H1304 0.949 . S
C1310 C1314 1.368 . S
C1311 C1292 1.429 . S
C1311 C1305 1.429 . S
C1311 C1312 1.523 . S
C1312 C1293 1.368 . S
C1312 C1306 1.368 . S
C1312 C1311 1.523 . S
C1313 C1297 1.429 . S
C1313 C1309 1.429 . S
C1313 C1314 1.523 . S
C1314 C1298 1.368 . S
C1314 C1310 1.368 . S
C1314 C1313 1.523 . S
H1315 C1290 0.950 . S
H1316 C1292 0.950 . S
H1317 C1293 0.949 . S
H1318 C1295 0.950 . S
H1319 C1297 0.950 . S
C241 C116 1.798 . S
C246 C19 1.761 . S
C271 C39 1.761 . S
C276 C16 1.799 . S
C301 C59 1.761 . S
C306 C36 1.799 . S
C331 C56 1.798 . S
C336 C79 1.761 . S
C361 C76 1.798 . S
C366 C99 1.761 . S
C391 C119 1.761 . S
C396 C96 1.799 . S
C421 C156 1.798 . S
C426 C139 1.761 . S
C451 C159 1.761 . S
C456 C176 1.799 . S
C481 C196 1.799 . S
C486 C179 1.761 . S
C511 C216 1.798 . S
C516 C199 1.761 . S
C541 C236 1.799 . S
C546 C219 1.761 . S
C571 C136 1.799 . S
C576 C239 1.761 . S
C601 C229 1.330 . S
C606 C6 1.319 1_565 S
C631 C26 1.319 . S
C636 C129 1.330 . S
C661 C149 1.331 . S
C666 C46 1.319 1_455 S
C691 C169 1.330 . S
C696 C66 1.319 1_545 S
C721 C189 1.330 . S
C726 C86 1.319 . S
C751 C106 1.319 1_655 S
C756 C209 1.331 . S
C781 C126 1.319 1_455 S
C786 C29 1.330 . S
C811 C146 1.319 1_545 S
C816 C49 1.331 . S
C841 C69 1.330 . S
C846 C166 1.319 . S
C871 C89 1.330 . S
C876 C186 1.319 1_655 S
C901 C206 1.319 1_565 S
C906 C109 1.331 . S
C931 C226 1.319 . S
C936 C9 1.330 . S
C961 C121 1.421 1_455 S
C966 C1 1.421 1_565 S
C991 C21 1.421 . S
C996 C141 1.421 1_545 S
C1021 C161 1.421 . S
C1026 C41 1.421 1_455 S
C1051 C61 1.421 1_545 S
C1056 C181 1.421 1_655 S
C1081 C201 1.421 1_565 S
C1086 C81 1.421 . S
C1111 C221 1.421 . S
C1116 C101 1.421 1_655 S
C1141 C128 1.441 . S
C1146 C8 1.441 . S
C1171 C148 1.441 . S
C1176 C28 1.441 . S
C1201 C168 1.441 . S
C1206 C48 1.441 . S
C1231 C68 1.441 . S
C1236 C188 1.441 . S
C1261 C208 1.441 . S
C1266 C88 1.441 . S
C1291 C228 1.441 . S
C1296 C108 1.441 . S
