# Generated by pormake.
# Topology afi, (4)-cn, num edge types: 1
# Building blocks:
#     Node 0, Type 0, BuildingBlock: GALJAG_clean_sbu_0, # of connection points: 4
#     Node 1, Type 0, BuildingBlock: GALJAG_clean_sbu_0, # of connection points: 4
#     Node 2, Type 0, BuildingBlock: GALJAG_clean_sbu_0, # of connection points: 4
#     Node 3, Type 0, BuildingBlock: GALJAG_clean_sbu_0, # of connection points: 4
#     Node 4, Type 0, BuildingBlock: GALJAG_clean_sbu_0, # of connection points: 4
#     Node 5, Type 0, BuildingBlock: GALJAG_clean_sbu_0, # of connection points: 4
#     Node 6, Type 0, BuildingBlock: GALJAG_clean_sbu_0, # of connection points: 4
#     Node 7, Type 0, BuildingBlock: GALJAG_clean_sbu_0, # of connection points: 4
#     Node 8, Type 0, BuildingBlock: GALJAG_clean_sbu_0, # of connection points: 4
#     Node 9, Type 0, BuildingBlock: GALJAG_clean_sbu_0, # of connection points: 4
#     Node 10, Type 0, BuildingBlock: GALJAG_clean_sbu_0, # of connection points: 4
#     Node 11, Type 0, BuildingBlock: GALJAG_clean_sbu_0, # of connection points: 4
#     Node 12, Type 0, BuildingBlock: GALJAG_clean_sbu_0, # of connection points: 4
#     Node 13, Type 0, BuildingBlock: GALJAG_clean_sbu_0, # of connection points: 4
#     Node 14, Type 0, BuildingBlock: GALJAG_clean_sbu_0, # of connection points: 4
#     Node 15, Type 0, BuildingBlock: GALJAG_clean_sbu_0, # of connection points: 4
#     Node 16, Type 0, BuildingBlock: GALJAG_clean_sbu_0, # of connection points: 4
#     Node 17, Type 0, BuildingBlock: GALJAG_clean_sbu_0, # of connection points: 4
#     Node 18, Type 0, BuildingBlock: GALJAG_clean_sbu_0, # of connection points: 4
#     Node 19, Type 0, BuildingBlock: GALJAG_clean_sbu_0, # of connection points: 4
#     Node 20, Type 0, BuildingBlock: GALJAG_clean_sbu_0, # of connection points: 4
#     Node 21, Type 0, BuildingBlock: GALJAG_clean_sbu_0, # of connection points: 4
#     Node 22, Type 0, BuildingBlock: GALJAG_clean_sbu_0, # of connection points: 4
#     Node 23, Type 0, BuildingBlock: GALJAG_clean_sbu_0, # of connection points: 4
#     Edge 24, Type (0, 0), BuildingBlock: TEMPAE_clean_linker_10, # of connection points: 2
#     Edge 25, Type (0, 0), BuildingBlock: TEMPAE_clean_linker_10, # of connection points: 2
#     Edge 26, Type (0, 0), BuildingBlock: TEMPAE_clean_linker_10, # of connection points: 2
#     Edge 27, Type (0, 0), BuildingBlock: TEMPAE_clean_linker_10, # of connection points: 2
#     Edge 28, Type (0, 0), BuildingBlock: TEMPAE_clean_linker_10, # of connection points: 2
#     Edge 29, Type (0, 0), BuildingBlock: TEMPAE_clean_linker_10, # of connection points: 2
#     Edge 30, Type (0, 0), BuildingBlock: TEMPAE_clean_linker_10, # of connection points: 2
#     Edge 31, Type (0, 0), BuildingBlock: TEMPAE_clean_linker_10, # of connection points: 2
#     Edge 32, Type (0, 0), BuildingBlock: TEMPAE_clean_linker_10, # of connection points: 2
#     Edge 33, Type (0, 0), BuildingBlock: TEMPAE_clean_linker_10, # of connection points: 2
#     Edge 34, Type (0, 0), BuildingBlock: TEMPAE_clean_linker_10, # of connection points: 2
#     Edge 35, Type (0, 0), BuildingBlock: TEMPAE_clean_linker_10, # of connection points: 2
#     Edge 36, Type (0, 0), BuildingBlock: TEMPAE_clean_linker_10, # of connection points: 2
#     Edge 37, Type (0, 0), BuildingBlock: TEMPAE_clean_linker_10, # of connection points: 2
#     Edge 38, Type (0, 0), BuildingBlock: TEMPAE_clean_linker_10, # of connection points: 2
#     Edge 39, Type (0, 0), BuildingBlock: TEMPAE_clean_linker_10, # of connection points: 2
#     Edge 40, Type (0, 0), BuildingBlock: TEMPAE_clean_linker_10, # of connection points: 2
#     Edge 41, Type (0, 0), BuildingBlock: TEMPAE_clean_linker_10, # of connection points: 2
#     Edge 42, Type (0, 0), BuildingBlock: TEMPAE_clean_linker_10, # of connection points: 2
#     Edge 43, Type (0, 0), BuildingBlock: TEMPAE_clean_linker_10, # of connection points: 2
#     Edge 44, Type (0, 0), BuildingBlock: TEMPAE_clean_linker_10, # of connection points: 2
#     Edge 45, Type (0, 0), BuildingBlock: TEMPAE_clean_linker_10, # of connection points: 2
#     Edge 46, Type (0, 0), BuildingBlock: TEMPAE_clean_linker_10, # of connection points: 2
#     Edge 47, Type (0, 0), BuildingBlock: TEMPAE_clean_linker_10, # of connection points: 2
#     Edge 48, Type (0, 0), BuildingBlock: TEMPAE_clean_linker_10, # of connection points: 2
#     Edge 49, Type (0, 0), BuildingBlock: TEMPAE_clean_linker_10, # of connection points: 2
#     Edge 50, Type (0, 0), BuildingBlock: TEMPAE_clean_linker_10, # of connection points: 2
#     Edge 51, Type (0, 0), BuildingBlock: TEMPAE_clean_linker_10, # of connection points: 2
#     Edge 52, Type (0, 0), BuildingBlock: TEMPAE_clean_linker_10, # of connection points: 2
#     Edge 53, Type (0, 0), BuildingBlock: TEMPAE_clean_linker_10, # of connection points: 2
#     Edge 54, Type (0, 0), BuildingBlock: TEMPAE_clean_linker_10, # of connection points: 2
#     Edge 55, Type (0, 0), BuildingBlock: TEMPAE_clean_linker_10, # of connection points: 2
#     Edge 56, Type (0, 0), BuildingBlock: TEMPAE_clean_linker_10, # of connection points: 2
#     Edge 57, Type (0, 0), BuildingBlock: TEMPAE_clean_linker_10, # of connection points: 2
#     Edge 58, Type (0, 0), BuildingBlock: TEMPAE_clean_linker_10, # of connection points: 2
#     Edge 59, Type (0, 0), BuildingBlock: TEMPAE_clean_linker_10, # of connection points: 2
#     Edge 60, Type (0, 0), BuildingBlock: TEMPAE_clean_linker_10, # of connection points: 2
#     Edge 61, Type (0, 0), BuildingBlock: TEMPAE_clean_linker_10, # of connection points: 2
#     Edge 62, Type (0, 0), BuildingBlock: TEMPAE_clean_linker_10, # of connection points: 2
#     Edge 63, Type (0, 0), BuildingBlock: TEMPAE_clean_linker_10, # of connection points: 2
#     Edge 64, Type (0, 0), BuildingBlock: TEMPAE_clean_linker_10, # of connection points: 2
#     Edge 65, Type (0, 0), BuildingBlock: TEMPAE_clean_linker_10, # of connection points: 2
#     Edge 66, Type (0, 0), BuildingBlock: TEMPAE_clean_linker_10, # of connection points: 2
#     Edge 67, Type (0, 0), BuildingBlock: TEMPAE_clean_linker_10, # of connection points: 2
#     Edge 68, Type (0, 0), BuildingBlock: TEMPAE_clean_linker_10, # of connection points: 2
#     Edge 69, Type (0, 0), BuildingBlock: TEMPAE_clean_linker_10, # of connection points: 2
#     Edge 70, Type (0, 0), BuildingBlock: TEMPAE_clean_linker_10, # of connection points: 2
#     Edge 71, Type (0, 0), BuildingBlock: TEMPAE_clean_linker_10, # of connection points: 2
# Relax obj value: 0.135
# Max RMSD: 0.138
# Mean RMSD: 0.138
data_MOF--net-afi--node1-GALJAG_clean_sbu_0--edge1-TEMPAE_clean_linker_10
_symmetry_space_group_name_H-M    P1
_symmetry_Int_Tables_number       1
_symmetry_cell_setting            triclinic
loop_
_symmetry_equiv_pos_as_xyz
'x, y, z'
_cell_length_a     68.910756
_cell_length_b     68.937999
_cell_length_c     40.59315
_cell_angle_alpha  89.996271
_cell_angle_beta   89.973926
_cell_angle_gamma 119.97908
loop_
_atom_site_label
_atom_site_type_symbol
_atom_site_fract_x
_atom_site_fract_y
_atom_site_fract_z
_atom_type_partial_charge
In0 In 0.4534 0.11939 0.19892 0.0
O1 O 0.4522 0.10298 0.14946 0.0
O2 O 0.45775 0.13614 0.14882 0.0
C3 C 0.49432 0.12504 0.21331 0.0
C4 C 0.44578 0.15131 0.22419 0.0
C5 C 0.41941 0.08079 0.22358 0.0
O6 O 0.49172 0.14078 0.2027 0.0
O7 O 0.47641 0.10663 0.21646 0.0
O8 O 0.43583 0.0945 0.24071 0.0
O9 O 0.41958 0.08702 0.19431 0.0
C10 C 0.45543 0.1196 0.13236 0.0
O11 O 0.43569 0.13995 0.1991 0.0
O12 O 0.45919 0.14611 0.23712 0.0
In13 In 0.33522 0.45721 0.19245 0.0
O14 O 0.29773 0.43497 0.20398 0.0
O15 O 0.31276 0.46978 0.21328 0.0
C16 C 0.351 0.43031 0.21274 0.0
C17 C 0.32936 0.45378 0.12637 0.0
C18 C 0.3693 0.49606 0.21569 0.0
O19 O 0.33376 0.42932 0.22532 0.0
O20 O 0.35994 0.44461 0.19012 0.0
O21 O 0.36623 0.49152 0.18535 0.0
O22 O 0.35498 0.4811 0.23437 0.0
C23 C 0.29518 0.4509 0.21389 0.0
O24 O 0.33433 0.4715 0.14195 0.0
O25 O 0.327 0.43776 0.14415 0.0
In26 In 0.878 0.3336 0.18689 0.0
O27 O 0.8731 0.34494 0.13634 0.0
O28 O 0.88218 0.3197 0.13803 0.0
C29 C 0.87539 0.36944 0.20853 0.0
C30 C 0.843 0.29377 0.20631 0.0
C31 C 0.91818 0.3416 0.20981 0.0
O32 O 0.89206 0.37121 0.19307 0.0
O33 O 0.85992 0.34956 0.21309 0.0
O34 O 0.90271 0.33961 0.22866 0.0
O35 O 0.91311 0.3389 0.17966 0.0
C36 C 0.87762 0.33198 0.12042 0.0
O37 O 0.86235 0.3016 0.21836 0.0
O38 O 0.84142 0.30592 0.18453 0.0
In39 In 0.55083 0.88058 0.19172 0.0
O40 O 0.54262 0.88959 0.14147 0.0
O41 O 0.55824 0.8698 0.14214 0.0
C42 C 0.5111 0.87541 0.21206 0.0
C43 C 0.5563 0.84705 0.21603 0.0
C44 C 0.58366 0.92078 0.2137 0.0
O45 O 0.51245 0.86136 0.19368 0.0
O46 O 0.5297 0.8919 0.2202 0.0
O47 O 0.57278 0.90428 0.23262 0.0
O48 O 0.57846 0.91675 0.18371 0.0
C49 C 0.55034 0.87947 0.125 0.0
O50 O 0.572 0.86411 0.20229 0.0
O51 O 0.5381 0.84717 0.21802 0.0
In52 In 0.67013 0.55023 0.19186 0.0
O53 O 0.70841 0.56849 0.19212 0.0
O54 O 0.69133 0.54444 0.22963 0.0
C55 C 0.66541 0.58345 0.21911 0.0
C56 C 0.6694 0.5488 0.12522 0.0
C57 C 0.63378 0.50977 0.20511 0.0
O58 O 0.66039 0.5655 0.23406 0.0
O59 O 0.67382 0.58511 0.19093 0.0
O60 O 0.63284 0.52743 0.20165 0.0
O61 O 0.65311 0.51234 0.20149 0.0
C62 C 0.70988 0.55828 0.21692 0.0
O63 O 0.68092 0.54295 0.14222 0.0
O64 O 0.65809 0.5551 0.1418 0.0
In65 In 0.12304 0.66654 0.18172 0.0
O66 O 0.12424 0.65286 0.13109 0.0
O67 O 0.12333 0.68321 0.13304 0.0
C68 C 0.1276 0.63213 0.20531 0.0
C69 C 0.15782 0.70642 0.20072 0.0
C70 C 0.08245 0.65896 0.20235 0.0
O71 O 0.10979 0.62946 0.19254 0.0
O72 O 0.14324 0.65218 0.2062 0.0
O73 O 0.09851 0.66408 0.22196 0.0
O74 O 0.08713 0.65843 0.17248 0.0
C75 C 0.12408 0.66856 0.11531 0.0
O76 O 0.13891 0.6978 0.21463 0.0
O77 O 0.15904 0.69496 0.17747 0.0
In78 In 0.88194 0.54835 0.30662 0.0
O79 O 0.86413 0.56889 0.30333 0.0
O80 O 0.85139 0.53937 0.27457 0.0
C81 C 0.92407 0.57621 0.28425 0.0
C82 C 0.87886 0.54975 0.37291 0.0
C83 C 0.87485 0.50787 0.28711 0.0
O84 O 0.90855 0.58075 0.28105 0.0
O85 O 0.91829 0.55795 0.29859 0.0
O86 O 0.87715 0.51369 0.31699 0.0
O87 O 0.87573 0.52232 0.2671 0.0
C88 C 0.84937 0.55581 0.28333 0.0
O89 O 0.86311 0.53547 0.35531 0.0
O90 O 0.89612 0.56334 0.35708 0.0
In91 In 0.33588 0.87774 0.30518 0.0
O92 O 0.35136 0.89163 0.35569 0.0
O93 O 0.31731 0.8659 0.35415 0.0
C94 C 0.36862 0.86986 0.28456 0.0
C95 C 0.29775 0.84317 0.28053 0.0
C96 C 0.34611 0.91925 0.28479 0.0
O97 O 0.36376 0.86958 0.31461 0.0
O98 O 0.35667 0.87363 0.26499 0.0
O99 O 0.35723 0.91001 0.27689 0.0
O100 O 0.3293 0.90739 0.30273 0.0
C101 C 0.33379 0.87901 0.37168 0.0
O102 O 0.30327 0.86334 0.2753 0.0
O103 O 0.31153 0.8406 0.29765 0.0
In104 In 0.45905 0.33568 0.3105 0.0
O105 O 0.47525 0.33905 0.36085 0.0
O106 O 0.43984 0.32392 0.35894 0.0
C107 C 0.49749 0.36963 0.28588 0.0
C108 C 0.45308 0.29559 0.28998 0.0
C109 C 0.4312 0.35085 0.29227 0.0
O110 O 0.49387 0.36611 0.31639 0.0
O111 O 0.48176 0.35585 0.26765 0.0
O112 O 0.43158 0.33492 0.27753 0.0
O113 O 0.44466 0.35886 0.31604 0.0
C114 C 0.45702 0.33022 0.37658 0.0
O115 O 0.43733 0.29791 0.30128 0.0
O116 O 0.47169 0.31344 0.28864 0.0
In117 In 0.1203 0.45415 0.30536 0.0
O118 O 0.14535 0.44184 0.31241 0.0
O119 O 0.14218 0.45201 0.2645 0.0
C120 C 0.07826 0.42592 0.28318 0.0
C121 C 0.12002 0.45248 0.37171 0.0
C122 C 0.13122 0.49633 0.28763 0.0
O123 O 0.09174 0.41916 0.29016 0.0
O124 O 0.08608 0.4466 0.28717 0.0
O125 O 0.12511 0.48885 0.31639 0.0
O126 O 0.13244 0.48278 0.26807 0.0
C127 C 0.15194 0.44486 0.28295 0.0
O128 O 0.1372 0.46581 0.3554 0.0
O129 O 0.10299 0.44001 0.35453 0.0
In130 In 0.66642 0.12125 0.31245 0.0
O131 O 0.69726 0.13666 0.2788 0.0
O132 O 0.69298 0.15819 0.31168 0.0
C133 C 0.65376 0.07876 0.29398 0.0
C134 C 0.66766 0.11848 0.37892 0.0
C135 C 0.63665 0.13178 0.28701 0.0
O136 O 0.67395 0.09302 0.29993 0.0
O137 O 0.64034 0.08598 0.29741 0.0
O138 O 0.64176 0.13401 0.31717 0.0
O139 O 0.64703 0.1248 0.26948 0.0
C140 C 0.70482 0.15632 0.28959 0.0
O141 O 0.6498 0.11221 0.36306 0.0
O142 O 0.68498 0.12591 0.36127 0.0
In143 In 0.55004 0.66796 0.31048 0.0
O144 O 0.53506 0.67023 0.35956 0.0
O145 O 0.56214 0.66382 0.36086 0.0
C146 C 0.50951 0.63212 0.29666 0.0
C147 C 0.55876 0.70843 0.28718 0.0
C148 C 0.58215 0.6612 0.2836 0.0
O149 O 0.52566 0.63037 0.30775 0.0
O150 O 0.51364 0.65201 0.293 0.0
O151 O 0.56272 0.65303 0.27176 0.0
O152 O 0.58575 0.67355 0.30841 0.0
C153 C 0.54823 0.66684 0.37699 0.0
O154 O 0.56337 0.70552 0.31612 0.0
O155 O 0.55019 0.69102 0.26963 0.0
In156 In 0.53985 0.87813 0.811 0.0
O157 O 0.52575 0.86557 0.8621 0.0
O158 O 0.56062 0.88902 0.85832 0.0
C159 C 0.49994 0.87097 0.78747 0.0
C160 C 0.54542 0.84399 0.78926 0.0
C161 C 0.56913 0.92125 0.7951 0.0
O162 O 0.50528 0.87451 0.81743 0.0
O163 O 0.51459 0.87065 0.76925 0.0
O164 O 0.57316 0.9056 0.78939 0.0
O165 O 0.55059 0.91513 0.80898 0.0
C166 C 0.54416 0.87706 0.87687 0.0
O167 O 0.54999 0.86083 0.7717 0.0
O168 O 0.53816 0.84444 0.81754 0.0
In169 In 0.66447 0.54463 0.81047 0.0
O170 O 0.69192 0.5545 0.77143 0.0
O171 O 0.69555 0.54138 0.81687 0.0
C172 C 0.65153 0.57402 0.7904 0.0
C173 C 0.66732 0.54678 0.87687 0.0
C174 C 0.6319 0.50479 0.78733 0.0
O175 O 0.67192 0.5798 0.79383 0.0
O176 O 0.63813 0.55381 0.79701 0.0
O177 O 0.62997 0.5137 0.81329 0.0
O178 O 0.65056 0.51582 0.77296 0.0
C179 C 0.70359 0.54897 0.78879 0.0
O180 O 0.65811 0.52859 0.86113 0.0
O181 O 0.6754 0.56412 0.8591 0.0
In182 In 0.12139 0.66642 0.80075 0.0
O183 O 0.13733 0.70457 0.79567 0.0
O184 O 0.15295 0.68877 0.77127 0.0
C185 C 0.07913 0.6512 0.7785 0.0
C186 C 0.12363 0.67079 0.86708 0.0
C187 C 0.1293 0.63368 0.78057 0.0
O188 O 0.09486 0.67073 0.77219 0.0
O189 O 0.08481 0.63969 0.79573 0.0
O190 O 0.12781 0.63752 0.81059 0.0
O191 O 0.12709 0.64654 0.76072 0.0
C192 C 0.15336 0.70683 0.77788 0.0
O193 O 0.1399 0.67307 0.84991 0.0
O194 O 0.10641 0.66661 0.85078 0.0
In195 In 0.45511 0.12065 0.81739 0.0
O196 O 0.44913 0.14 0.77634 0.0
O197 O 0.45 0.1506 0.82551 0.0
C198 C 0.42392 0.078 0.80271 0.0
C199 C 0.45529 0.11943 0.88387 0.0
C200 C 0.49438 0.12903 0.78979 0.0
O201 O 0.42138 0.0944 0.79538 0.0
O202 O 0.44185 0.08318 0.81781 0.0
O203 O 0.4934 0.14115 0.81226 0.0
O204 O 0.47563 0.11311 0.78094 0.0
C205 C 0.44783 0.15369 0.7955 0.0
O206 O 0.47273 0.12567 0.8668 0.0
O207 O 0.43773 0.11376 0.86739 0.0
In208 In 0.33425 0.45237 0.81189 0.0
O209 O 0.29879 0.43318 0.78988 0.0
O210 O 0.31336 0.46816 0.79678 0.0
C211 C 0.34262 0.41989 0.79113 0.0
C212 C 0.33158 0.44982 0.87827 0.0
C213 C 0.37009 0.49169 0.79297 0.0
O214 O 0.34073 0.43312 0.77166 0.0
O215 O 0.33955 0.42253 0.82105 0.0
O216 O 0.35819 0.49012 0.81753 0.0
O217 O 0.36386 0.47353 0.77794 0.0
C218 C 0.29658 0.45021 0.78738 0.0
O219 O 0.34999 0.45879 0.86297 0.0
O220 O 0.31446 0.44179 0.86006 0.0
In221 In 0.88287 0.33351 0.8055 0.0
O222 O 0.86581 0.29591 0.79434 0.0
O223 O 0.85012 0.31368 0.77706 0.0
C224 C 0.92228 0.33964 0.78186 0.0
C225 C 0.88229 0.33267 0.8721 0.0
C226 C 0.87914 0.36978 0.7901 0.0
O227 O 0.90776 0.34043 0.76391 0.0
O228 O 0.91659 0.33486 0.81162 0.0
O229 O 0.86636 0.35521 0.81058 0.0
O230 O 0.89364 0.36601 0.77753 0.0
C231 C 0.84936 0.2951 0.77948 0.0
O232 O 0.89738 0.34874 0.85583 0.0
O233 O 0.86758 0.31706 0.85479 0.0
In234 In 0.1225 0.45388 0.68666 0.0
O235 O 0.14029 0.44358 0.72482 0.0
O236 O 0.15763 0.45887 0.68068 0.0
C237 C 0.08303 0.4224 0.71302 0.0
C238 C 0.11996 0.4517 0.62013 0.0
C239 C 0.12766 0.49407 0.7038 0.0
O240 O 0.09074 0.41911 0.68675 0.0
O241 O 0.09556 0.44107 0.72637 0.0
O242 O 0.10979 0.47843 0.6918 0.0
O243 O 0.14327 0.48962 0.70685 0.0
C244 C 0.1579 0.45033 0.70798 0.0
O245 O 0.12189 0.46819 0.63628 0.0
O246 O 0.11913 0.43614 0.63752 0.0
In247 In 0.66678 0.12236 0.69358 0.0
O248 O 0.66514 0.13588 0.64295 0.0
O249 O 0.67094 0.10836 0.64498 0.0
C250 C 0.63406 0.13017 0.71504 0.0
C251 C 0.70775 0.15475 0.71482 0.0
C252 C 0.65238 0.07969 0.71256 0.0
O253 O 0.64382 0.13739 0.68776 0.0
O254 O 0.64099 0.11935 0.7315 0.0
O255 O 0.67026 0.09598 0.72362 0.0
O256 O 0.64216 0.08501 0.69195 0.0
C257 C 0.66841 0.12196 0.62721 0.0
O258 O 0.68998 0.14907 0.73061 0.0
O259 O 0.70498 0.14376 0.68878 0.0
In260 In 0.54519 0.66742 0.69193 0.0
O261 O 0.53415 0.65053 0.6419 0.0
O262 O 0.55802 0.68529 0.64246 0.0
C263 C 0.5073 0.63308 0.71771 0.0
C264 C 0.54755 0.70608 0.7119 0.0
C265 C 0.57787 0.65885 0.71066 0.0
O266 O 0.50741 0.64317 0.69176 0.0
O267 O 0.52625 0.64049 0.73096 0.0
O268 O 0.56999 0.66767 0.72975 0.0
O269 O 0.56962 0.65487 0.68207 0.0
C270 C 0.54625 0.66799 0.6254 0.0
O271 O 0.56466 0.70399 0.70938 0.0
O272 O 0.52943 0.68874 0.7046 0.0
In273 In 0.87635 0.543 0.68738 0.0
O274 O 0.8605 0.56294 0.70777 0.0
O275 O 0.83926 0.5282 0.69922 0.0
C276 C 0.91921 0.57395 0.70202 0.0
C277 C 0.87503 0.54498 0.621 0.0
C278 C 0.87183 0.50526 0.71524 0.0
O279 O 0.90296 0.57046 0.72033 0.0
O280 O 0.91375 0.56216 0.67629 0.0
O281 O 0.86354 0.50539 0.68763 0.0
O282 O 0.88208 0.5241 0.72917 0.0
C283 C 0.84088 0.54634 0.70877 0.0
O284 O 0.87858 0.53106 0.63606 0.0
O285 O 0.87208 0.55803 0.63945 0.0
In286 In 0.33042 0.88225 0.68644 0.0
O287 O 0.33658 0.87002 0.63736 0.0
O288 O 0.32125 0.89014 0.63614 0.0
C289 C 0.36536 0.87716 0.70515 0.0
C290 C 0.29016 0.85041 0.71004 0.0
C291 C 0.34048 0.92315 0.70918 0.0
O292 O 0.34623 0.86072 0.69901 0.0
O293 O 0.3668 0.896 0.70178 0.0
O294 O 0.32816 0.90543 0.72509 0.0
O295 O 0.34715 0.92008 0.68181 0.0
C296 C 0.3286 0.87954 0.61998 0.0
O297 O 0.29239 0.85966 0.68241 0.0
O298 O 0.30812 0.85759 0.72607 0.0
In299 In 0.4546 0.33161 0.69127 0.0
O300 O 0.4334 0.29612 0.7124 0.0
O301 O 0.46831 0.309 0.70574 0.0
C302 C 0.42523 0.34161 0.72043 0.0
C303 C 0.45182 0.32841 0.62467 0.0
C304 C 0.49581 0.3661 0.70532 0.0
O305 O 0.41944 0.32728 0.69772 0.0
O306 O 0.4454 0.35012 0.72906 0.0
O307 O 0.48532 0.36548 0.67951 0.0
O308 O 0.48558 0.34929 0.7239 0.0
C309 C 0.4498 0.29281 0.71494 0.0
O310 O 0.455 0.31526 0.64238 0.0
O311 O 0.44977 0.343 0.64051 0.0
C312 C 0.38674 0.0424 0.21419 0.0
C313 C 0.4033 0.05795 0.23534 0.0
C314 C 0.37413 0.01966 0.22281 0.0
C315 C 0.37832 0.01233 0.25319 0.0
C316 C 0.39391 0.02823 0.27559 0.0
C317 C 0.40616 0.05086 0.26642 0.0
C318 C 0.35747 0.00329 0.19843 0.0
C319 C 0.39888 0.02114 0.30823 0.0
C320 C 0.34101 0.95289 0.28497 0.0
C321 C 0.35317 0.94256 0.27507 0.0
C322 C 0.34861 0.97549 0.27734 0.0
C323 C 0.36889 0.98798 0.25964 0.0
C324 C 0.38093 0.97743 0.24903 0.0
C325 C 0.37289 0.95488 0.25678 0.0
C326 C 0.33524 0.98612 0.28878 0.0
C327 C 0.40266 0.99012 0.23016 0.0
H328 H 0.38435 0.0478 0.19019 0.0
H329 H 0.41886 0.0628 0.28296 0.0
H330 H 0.36438 0.99337 0.1871 0.0
H331 H 0.34162 0.99135 0.21098 0.0
H332 H 0.35365 0.01189 0.17845 0.0
H333 H 0.40936 0.03568 0.3244 0.0
H334 H 0.38312 0.00971 0.32139 0.0
H335 H 0.40794 0.01183 0.30389 0.0
H336 H 0.32573 0.94342 0.29907 0.0
H337 H 0.38237 0.947 0.24901 0.0
H338 H 0.33184 0.99429 0.26778 0.0
H339 H 0.34506 0.99936 0.30715 0.0
H340 H 0.31904 0.97375 0.30014 0.0
H341 H 0.40004 0.99752 0.20751 0.0
H342 H 0.40967 0.9793 0.22301 0.0
H343 H 0.41524 0.00413 0.24542 0.0
C344 C 0.40172 0.35057 0.25578 0.0
C345 C 0.41687 0.36011 0.28195 0.0
C346 C 0.38902 0.36013 0.24478 0.0
C347 C 0.39171 0.37977 0.26018 0.0
C348 C 0.40656 0.3891 0.28716 0.0
C349 C 0.41889 0.37912 0.29777 0.0
C350 C 0.37322 0.34961 0.21611 0.0
C351 C 0.41002 0.4101 0.30412 0.0
C352 C 0.38111 0.42034 0.21104 0.0
C353 C 0.36059 0.41645 0.22396 0.0
C354 C 0.39115 0.40819 0.22218 0.0
C355 C 0.38034 0.39158 0.2467 0.0
C356 C 0.35934 0.38717 0.2593 0.0
C357 C 0.34974 0.39975 0.24787 0.0
C358 C 0.41363 0.41354 0.20828 0.0
C359 C 0.34723 0.36945 0.28525 0.0
H360 H 0.40002 0.33582 0.24357 0.0
H361 H 0.43054 0.38655 0.31807 0.0
H362 H 0.35635 0.34679 0.22248 0.0
H363 H 0.37933 0.36114 0.19468 0.0
H364 H 0.37167 0.33339 0.20863 0.0
H365 H 0.42126 0.41454 0.32583 0.0
H366 H 0.41743 0.42433 0.28653 0.0
H367 H 0.39372 0.40798 0.31232 0.0
H368 H 0.38959 0.43322 0.19253 0.0
H369 H 0.33383 0.39662 0.25783 0.0
H370 H 0.41272 0.3982 0.19801 0.0
H371 H 0.42634 0.4197 0.22822 0.0
H372 H 0.41947 0.42645 0.18859 0.0
H373 H 0.34524 0.35322 0.27696 0.0
H374 H 0.33043 0.3671 0.29101 0.0
H375 H 0.35728 0.37418 0.30823 0.0
C376 C 0.94646 0.3531 0.25507 0.0
C377 C 0.94115 0.3489 0.22154 0.0
C378 C 0.96877 0.36304 0.26587 0.0
C379 C 0.98614 0.36901 0.24253 0.0
C380 C 0.98072 0.3636 0.2089 0.0
C381 C 0.95828 0.35356 0.19882 0.0
C382 C 0.97384 0.36834 0.302 0.0
C383 C 0.99873 0.36971 0.18322 0.0
C384 C 0.04196 0.42043 0.26204 0.0
C385 C 0.05497 0.41105 0.27203 0.0
C386 C 0.01964 0.40689 0.25225 0.0
C387 C 0.00995 0.38331 0.25261 0.0
C388 C 0.023 0.37367 0.26252 0.0
C389 C 0.04543 0.38769 0.27204 0.0
C390 C 0.00639 0.41786 0.24162 0.0
C391 C 0.01318 0.3486 0.26335 0.0
H392 H 0.93327 0.34941 0.27278 0.0
H393 H 0.95428 0.35026 0.17286 0.0
H394 H 0.98562 0.36291 0.31077 0.0
H395 H 0.98206 0.38671 0.30572 0.0
H396 H 0.95845 0.36016 0.31739 0.0
H397 H 0.99167 0.36207 0.15889 0.0
H398 H 0.00838 0.38817 0.18024 0.0
H399 H 0.01068 0.36427 0.19114 0.0
H400 H 0.04924 0.43847 0.26191 0.0
H401 H 0.05541 0.38037 0.27985 0.0
H402 H 0.99161 0.41238 0.25789 0.0
H403 H 1.00005 0.41263 0.21617 0.0
H404 H 0.0165 0.43644 0.24234 0.0
H405 H 0.9987 0.34097 0.28048 0.0
H406 H 0.0256 0.34376 0.27133 0.0
H407 H 0.00684 0.34142 0.2386 0.0
C408 C 0.6089 0.96168 0.2039 0.0
C409 C 0.59913 0.94364 0.22598 0.0
C410 C 0.62061 0.98385 0.21532 0.0
C411 C 0.62262 0.98805 0.24965 0.0
C412 C 0.6141 0.96985 0.27202 0.0
C413 C 0.60241 0.94783 0.2599 0.0
C414 C 0.62949 0.00276 0.19064 0.0
C415 C 0.61604 0.97362 0.30878 0.0
C416 C 0.66133 0.04774 0.27932 0.0
C417 C 0.64615 0.0555 0.28342 0.0
C418 C 0.65397 0.0257 0.26868 0.0
C419 C 0.63093 0.01122 0.26198 0.0
C420 C 0.61557 0.01897 0.26638 0.0
C421 C 0.62336 0.04097 0.27705 0.0
C422 C 0.6708 0.01798 0.26433 0.0
C423 C 0.59086 0.0041 0.25949 0.0
H424 H 0.60653 0.95855 0.17763 0.0
H425 H 0.595 0.93395 0.27709 0.0
H426 H 0.61924 0.01106 0.19168 0.0
H427 H 0.64698 0.01558 0.19667 0.0
H428 H 0.629 0.99681 0.16505 0.0
H429 H 0.61133 0.95798 0.32264 0.0
H430 H 0.63338 0.98643 0.3156 0.0
H431 H 0.60483 0.98 0.31663 0.0
H432 H 0.67897 0.0589 0.28426 0.0
H433 H 0.61152 0.04684 0.2802 0.0
H434 H 0.67108 0.01337 0.23822 0.0
H435 H 0.66585 0.00276 0.27935 0.0
H436 H 0.68799 0.03105 0.27154 0.0
H437 H 0.58833 0.99875 0.23332 0.0
H438 H 0.5811 0.01261 0.26457 0.0
H439 H 0.58399 0.98874 0.27482 0.0
C440 C 0.61949 0.66332 0.28634 0.0
C441 C 0.59833 0.65462 0.27168 0.0
C442 C 0.63375 0.65496 0.27804 0.0
C443 C 0.6265 0.63734 0.25485 0.0
C444 C 0.60556 0.62921 0.23895 0.0
C445 C 0.5918 0.63804 0.24744 0.0
C446 C 0.65611 0.6643 0.29508 0.0
C447 C 0.59715 0.61038 0.21417 0.0
C448 C 0.66411 0.61894 0.21357 0.0
C449 C 0.65887 0.59954 0.23153 0.0
C450 C 0.65482 0.63234 0.22214 0.0
C451 C 0.63974 0.62598 0.24901 0.0
C452 C 0.63545 0.60714 0.26834 0.0
C453 C 0.64519 0.59423 0.25947 0.0
C454 C 0.66014 0.65255 0.20133 0.0
C455 C 0.61941 0.59971 0.29711 0.0
H456 H 0.62466 0.6762 0.30502 0.0
H457 H 0.57548 0.63126 0.23598 0.0
H458 H 0.65569 0.65162 0.31236 0.0
H459 H 0.66957 0.66812 0.27687 0.0
H460 H 0.66048 0.67975 0.30922 0.0
H461 H 0.58106 0.60683 0.20273 0.0
H462 H 0.60972 0.61451 0.19437 0.0
H463 H 0.59465 0.5949 0.22644 0.0
H464 H 0.67479 0.6232 0.19203 0.0
H465 H 0.6411 0.57928 0.27349 0.0
H466 H 0.66397 0.66715 0.21715 0.0
H467 H 0.64533 0.64896 0.18615 0.0
H468 H 0.67455 0.65712 0.18458 0.0
H469 H 0.62384 0.61392 0.31409 0.0
H470 H 0.61931 0.58585 0.31122 0.0
H471 H 0.60219 0.59392 0.28799 0.0
C472 C 0.04141 0.64093 0.19149 0.0
C473 C 0.05936 0.65159 0.2136 0.0
C474 C 0.01916 0.63083 0.2025 0.0
C475 C 0.01474 0.63171 0.23637 0.0
C476 C 0.03279 0.64372 0.25843 0.0
C477 C 0.05492 0.65337 0.24683 0.0
C478 C 1.00043 0.61799 0.17821 0.0
C479 C 0.02876 0.64537 0.29461 0.0
C480 C 0.95457 0.61276 0.2617 0.0
C481 C 0.94718 0.59075 0.2721 0.0
C482 C 0.97667 0.62652 0.25047 0.0
C483 C 0.99149 0.61789 0.24918 0.0
C484 C 0.98401 0.59564 0.25955 0.0
C485 C 0.96204 0.58244 0.27108 0.0
C486 C 0.98416 0.65025 0.24004 0.0
C487 C 0.99916 0.58566 0.25816 0.0
H488 H 0.04473 0.6395 0.16576 0.0
H489 H 0.06873 0.66173 0.26397 0.0
H490 H 0.99227 0.59982 0.18372 0.0
H491 H 0.98743 0.62291 0.18048 0.0
H492 H 0.00652 0.62072 0.15235 0.0
H493 H 0.04428 0.6577 0.30757 0.0
H494 H 0.01579 0.65025 0.29801 0.0
H495 H 0.02246 0.62877 0.30642 0.0
H496 H 0.94316 0.61928 0.2626 0.0
H497 H 0.9564 0.56541 0.27899 0.0
H498 H 0.9892 0.6526 0.21374 0.0
H499 H 0.99907 0.66213 0.25452 0.0
H500 H 0.97081 0.65463 0.24341 0.0
H501 H 0.00496 0.58617 0.23251 0.0
H502 H 0.99069 0.56804 0.26691 0.0
H503 H 0.01425 0.59567 0.27354 0.0
C504 C 0.58006 0.9616 0.79598 0.0
C505 C 0.58432 0.94477 0.78524 0.0
C506 C 0.59321 0.98377 0.7851 0.0
C507 C 0.61094 0.9892 0.76266 0.0
C508 C 0.61577 0.97241 0.75249 0.0
C509 C 0.60244 0.95037 0.76404 0.0
C510 C 0.58762 0.00121 0.79679 0.0
C511 C 0.63444 0.97754 0.72843 0.0
C512 C 0.62456 0.03899 0.70798 0.0
C513 C 0.6433 0.05632 0.7238 0.0
C514 C 0.61444 0.01693 0.71967 0.0
C515 C 0.62316 0.01206 0.74806 0.0
C516 C 0.64252 0.02934 0.76355 0.0
C517 C 0.65243 0.0513 0.75115 0.0
C518 C 0.59393 0.99897 0.70225 0.0
C519 C 0.65225 0.0248 0.79392 0.0
H520 H 0.56617 0.9574 0.81256 0.0
H521 H 0.60579 0.9374 0.75567 0.0
H522 H 0.6028 0.01596 0.80679 0.0
H523 H 0.58168 0.0071 0.7757 0.0
H524 H 0.57442 0.99464 0.8161 0.0
H525 H 0.63721 0.96311 0.72504 0.0
H526 H 0.63035 0.98199 0.70415 0.0
H527 H 0.65029 0.99218 0.73696 0.0
H528 H 0.61751 0.04274 0.68669 0.0
H529 H 0.66691 0.06465 0.76345 0.0
H530 H 0.57917 0.9927 0.71877 0.0
H531 H 0.59621 0.98454 0.69614 0.0
H532 H 0.59023 0.00518 0.67919 0.0
H533 H 0.64019 0.02006 0.81462 0.0
H534 H 0.66834 0.0396 0.80147 0.0
H535 H 0.65507 0.01051 0.78959 0.0
C536 C 0.62045 0.5812 0.77702 0.0
C537 C 0.64354 0.58929 0.77935 0.0
C538 C 0.61217 0.59494 0.76607 0.0
C539 C 0.62734 0.6174 0.75715 0.0
C540 C 0.65071 0.6258 0.75974 0.0
C541 C 0.65857 0.61161 0.77084 0.0
C542 C 0.58711 0.58529 0.76372 0.0
C543 C 0.66736 0.64966 0.75045 0.0
C544 C 0.60101 0.64096 0.69955 0.0
C545 C 0.59367 0.65154 0.72171 0.0
C546 C 0.61332 0.63101 0.71046 0.0
C547 C 0.61839 0.63163 0.74438 0.0
C548 C 0.61224 0.64352 0.76653 0.0
C549 C 0.59994 0.65334 0.75492 0.0
C550 C 0.61963 0.61858 0.68599 0.0
C551 C 0.6174 0.64465 0.80285 0.0
H552 H 0.60873 0.56398 0.78362 0.0
H553 H 0.67643 0.61793 0.77263 0.0
H554 H 0.58194 0.59536 0.77878 0.0
H555 H 0.58234 0.58602 0.73784 0.0
H556 H 0.5776 0.56762 0.7722 0.0
H557 H 0.68494 0.65384 0.75488 0.0
H558 H 0.66545 0.65244 0.72401 0.0
H559 H 0.66403 0.6614 0.76477 0.0
H560 H 0.59636 0.63964 0.67379 0.0
H561 H 0.59441 0.6616 0.77216 0.0
H562 H 0.60933 0.60031 0.69054 0.0
H563 H 0.63744 0.62328 0.68905 0.0
H564 H 0.61694 0.62197 0.66013 0.0
H565 H 0.60677 0.62791 0.81411 0.0
H566 H 0.61421 0.65693 0.81596 0.0
H567 H 0.63513 0.64926 0.80674 0.0
C568 C 0.96011 0.59098 0.69059 0.0
C569 C 0.9429 0.58918 0.7111 0.0
C570 C 0.98261 0.60326 0.70038 0.0
C571 C 0.98805 0.61407 0.73142 0.0
C572 C 0.97085 0.61326 0.75151 0.0
C573 C 0.94844 0.60076 0.74113 0.0
C574 C 1.00044 0.60367 0.67825 0.0
C575 C 0.97599 0.62468 0.78466 0.0
C576 C 0.03986 0.6198 0.77322 0.0
C577 C 0.05586 0.64219 0.76675 0.0
C578 C 0.01774 0.6106 0.76212 0.0
C579 C 0.01136 0.62413 0.7442 0.0
C580 C 0.02735 0.64685 0.73787 0.0
C581 C 0.04948 0.65561 0.74916 0.0
C582 C 0.00126 0.58626 0.76926 0.0
C583 C 0.0211 0.66179 0.71899 0.0
H584 H 0.95596 0.58214 0.66726 0.0
H585 H 0.93521 0.59951 0.75701 0.0
H586 H 0.01431 0.62111 0.67473 0.0
H587 H 0.00765 0.59414 0.68998 0.0
H588 H 0.99373 0.59621 0.6537 0.0
H589 H 0.96116 0.62459 0.79559 0.0
H590 H 0.98168 0.61602 0.80185 0.0
H591 H 0.9898 0.64228 0.78247 0.0
H592 H 0.04467 0.60932 0.78681 0.0
H593 H 0.06177 0.67295 0.74419 0.0
H594 H 0.99487 0.57694 0.74581 0.0
H595 H 0.98665 0.58477 0.78298 0.0
H596 H 0.00883 0.57812 0.78391 0.0
H597 H 0.0156 0.65509 0.69377 0.0
H598 H 0.03527 0.67926 0.71708 0.0
H599 H 0.0068 0.66203 0.73117 0.0
C600 C 0.41368 0.03797 0.79781 0.0
C601 C 0.40816 0.05472 0.79239 0.0
C602 C 0.40023 0.01627 0.78544 0.0
C603 C 0.38063 0.0111 0.76745 0.0
C604 C 0.3744 0.02765 0.76318 0.0
C605 C 0.38833 0.04935 0.77556 0.0
C606 C 0.40758 0.99917 0.79038 0.0
C607 C 0.35346 0.02266 0.74453 0.0
C608 C 0.36432 0.96462 0.70508 0.0
C609 C 0.3484 0.94584 0.7226 0.0
C610 C 0.37421 0.98611 0.71889 0.0
C611 C 0.36789 0.98894 0.75093 0.0
C612 C 0.35094 0.97021 0.76806 0.0
C613 C 0.34145 0.94882 0.75374 0.0
C614 C 0.39231 0.0056 0.69985 0.0
C615 C 0.34354 0.97262 0.80207 0.0
H616 H 0.42897 0.042 0.81086 0.0
H617 H 0.38394 0.06222 0.77145 0.0
H618 H 0.39382 0.98368 0.80149 0.0
H619 H 0.41159 0.99453 0.76618 0.0
H620 H 0.42257 0.0055 0.80646 0.0
H621 H 0.34967 0.0365 0.74648 0.0
H622 H 0.35554 0.01998 0.71811 0.0
H623 H 0.3389 0.00703 0.75387 0.0
H624 H 0.36971 0.96246 0.68095 0.0
H625 H 0.32907 0.93436 0.76732 0.0
H626 H 0.40857 0.01209 0.71278 0.0
H627 H 0.38857 0.01947 0.69852 0.0
H628 H 0.39418 0.00086 0.67438 0.0
H629 H 0.35722 0.97666 0.81994 0.0
H630 H 0.32837 0.95707 0.81034 0.0
H631 H 0.33997 0.98663 0.80264 0.0
C632 C 0.35945 0.40659 0.74862 0.0
C633 C 0.35025 0.40433 0.78015 0.0
C634 C 0.36959 0.39412 0.73926 0.0
C635 C 0.37019 0.37874 0.76178 0.0
C636 C 0.35978 0.37546 0.79297 0.0
C637 C 0.35012 0.38847 0.80192 0.0
C638 C 0.38073 0.39835 0.70592 0.0
C639 C 0.35968 0.3589 0.81741 0.0
C640 C 0.38754 0.33863 0.72579 0.0
C641 C 0.41041 0.34956 0.73367 0.0
C642 C 0.37394 0.34741 0.73593 0.0
C643 C 0.38357 0.36779 0.75377 0.0
C644 C 0.40653 0.37855 0.76246 0.0
C645 C 0.41959 0.3692 0.75257 0.0
C646 C 0.34943 0.33521 0.72682 0.0
C647 C 0.41756 0.40045 0.78109 0.0
H648 H 0.35966 0.41886 0.73172 0.0
H649 H 0.34291 0.38658 0.82627 0.0
H650 H 0.3991 0.40593 0.70917 0.0
H651 H 0.37473 0.38235 0.69248 0.0
H652 H 0.37753 0.40977 0.6905 0.0
H653 H 0.34855 0.35631 0.83877 0.0
H654 H 0.35414 0.34252 0.80533 0.0
H655 H 0.37691 0.36507 0.82673 0.0
H656 H 0.38035 0.3234 0.71129 0.0
H657 H 0.43727 0.37778 0.75865 0.0
H658 H 0.3461 0.34532 0.70886 0.0
H659 H 0.339 0.33293 0.7489 0.0
H660 H 0.34406 0.31854 0.71577 0.0
H661 H 0.41663 0.41352 0.76633 0.0
H662 H 0.43543 0.40634 0.78673 0.0
H663 H 0.40857 0.39867 0.80456 0.0
C664 C 0.05022 0.41463 0.74792 0.0
C665 C 0.0602 0.40689 0.72534 0.0
C666 C 0.02772 0.40126 0.75715 0.0
C667 C 0.01499 0.37938 0.74406 0.0
C668 C 0.02529 0.37104 0.72251 0.0
C669 C 0.04774 0.38502 0.71306 0.0
C670 C 0.01731 0.41097 0.77975 0.0
C671 C 0.01242 0.34761 0.70874 0.0
C672 C 0.9602 0.34371 0.78958 0.0
C673 C 0.94514 0.34665 0.76991 0.0
C674 C 0.9828 0.35306 0.7804 0.0
C675 C 0.99056 0.36606 0.75128 0.0
C676 C 0.97517 0.36821 0.73063 0.0
C677 C 0.95261 0.35828 0.74005 0.0
C678 C 0.99857 0.34993 0.80263 0.0
C679 C 0.98277 0.38218 0.69962 0.0
H680 H 0.05974 0.43156 0.75738 0.0
H681 H 0.05544 0.37894 0.69571 0.0
H682 H 0.00367 0.41189 0.76662 0.0
H683 H 0.00974 0.39999 0.80149 0.0
H684 H 0.02968 0.42803 0.78851 0.0
H685 H 0.02346 0.34279 0.6954 0.0
H686 H 0.00369 0.33536 0.72883 0.0
H687 H 0.99941 0.34639 0.69142 0.0
H688 H 0.95446 0.3346 0.8126 0.0
H689 H 0.94105 0.36065 0.72478 0.0
H690 H 0.0099 0.36593 0.81531 0.0
H691 H 0.00921 0.34523 0.78802 0.0
H692 H 0.98945 0.33687 0.82164 0.0
H693 H 0.99407 0.40001 0.70619 0.0
H694 H 0.96851 0.38093 0.68516 0.0
H695 H 0.99243 0.37693 0.68375 0.0
C696 C 0.43337 0.17936 0.2157 0.0
C697 C 0.44363 0.1705 0.23573 0.0
C698 C 0.43339 0.19905 0.22462 0.0
C699 C 0.44363 0.20994 0.25451 0.0
C700 C 0.45316 0.20051 0.2755 0.0
C701 C 0.45319 0.18099 0.26572 0.0
C702 C 0.42328 0.20871 0.2014 0.0
C703 C 0.46392 0.21141 0.30781 0.0
C704 C 0.46703 0.27266 0.26202 0.0
C705 C 0.45019 0.27367 0.28 0.0
C706 C 0.4649 0.25202 0.25311 0.0
C707 C 0.44562 0.23188 0.2629 0.0
C708 C 0.42852 0.2328 0.281 0.0
C709 C 0.43093 0.25371 0.28911 0.0
C710 C 0.48335 0.25177 0.23337 0.0
C711 C 0.40788 0.2117 0.29226 0.0
H712 H 0.42602 0.17136 0.19241 0.0
H713 H 0.46106 0.17414 0.28135 0.0
H714 H 0.4109 0.21167 0.21458 0.0
H715 H 0.43661 0.22515 0.19205 0.0
H716 H 0.41488 0.19758 0.18002 0.0
H717 H 0.46893 0.20102 0.32249 0.0
H718 H 0.47905 0.22789 0.3031 0.0
H719 H 0.45223 0.2145 0.32271 0.0
H720 H 0.48191 0.28806 0.25481 0.0
H721 H 0.41793 0.25442 0.30318 0.0
H722 H 0.4764 0.24198 0.21041 0.0
H723 H 0.49084 0.24344 0.24771 0.0
H724 H 0.49686 0.26888 0.2267 0.0
H725 H 0.39905 0.20096 0.27076 0.0
H726 H 0.39603 0.21527 0.30587 0.0
H727 H 0.41279 0.20194 0.30852 0.0
C728 C 0.17884 0.44756 0.23932 0.0
C729 C 0.17083 0.44205 0.27169 0.0
C730 C 0.19816 0.44718 0.2293 0.0
C731 C 0.20975 0.44117 0.25222 0.0
C732 C 0.20122 0.43474 0.28457 0.0
C733 C 0.18186 0.43526 0.29392 0.0
C734 C 0.20667 0.45407 0.19455 0.0
C735 C 0.21305 0.42818 0.30971 0.0
C736 C 0.2535 0.42745 0.22028 0.0
C737 C 0.27333 0.44797 0.2246 0.0
C738 C 0.23264 0.4249 0.22926 0.0
C739 C 0.23166 0.44326 0.2431 0.0
C740 C 0.25169 0.46389 0.24794 0.0
C741 C 0.27225 0.46601 0.23852 0.0
C742 C 0.21163 0.40269 0.22358 0.0
C743 C 0.2514 0.48382 0.26287 0.0
H744 H 0.17036 0.45278 0.22201 0.0
H745 H 0.17573 0.43093 0.31897 0.0
H746 H 0.22296 0.46995 0.19504 0.0
H747 H 0.20959 0.44122 0.18281 0.0
H748 H 0.19482 0.45658 0.17903 0.0
H749 H 0.20333 0.42193 0.33294 0.0
H750 H 0.21611 0.41499 0.29961 0.0
H751 H 0.22962 0.44287 0.31557 0.0
H752 H 0.25425 0.41347 0.20944 0.0
H753 H 0.28753 0.48189 0.24201 0.0
H754 H 0.20037 0.40491 0.20641 0.0
H755 H 0.20239 0.39621 0.24709 0.0
H756 H 0.21528 0.38995 0.21314 0.0
H757 H 0.24136 0.48871 0.24719 0.0
H758 H 0.26849 0.49852 0.26562 0.0
H759 H 0.24331 0.47936 0.28747 0.0
C760 C 0.7384 0.17306 0.25252 0.0
C761 C 0.72578 0.17572 0.27739 0.0
C762 C 0.75812 0.1915 0.24049 0.0
C763 C 0.76536 0.21308 0.25365 0.0
C764 C 0.7528 0.21579 0.27901 0.0
C765 C 0.73318 0.19709 0.29056 0.0
C766 C 0.77108 0.18796 0.21344 0.0
C767 C 0.75994 0.23852 0.29368 0.0
C768 C 0.82562 0.26002 0.24298 0.0
C769 C 0.82349 0.27248 0.21738 0.0
C770 C 0.80692 0.24035 0.25461 0.0
C771 C 0.78563 0.23301 0.24026 0.0
C772 C 0.78351 0.2453 0.21394 0.0
C773 C 0.80245 0.26488 0.20285 0.0
C774 C 0.80984 0.22767 0.28269 0.0
C775 C 0.76111 0.23803 0.19797 0.0
H776 H 0.73278 0.15656 0.2423 0.0
H777 H 0.72353 0.19925 0.30983 0.0
H778 H 0.77156 0.19756 0.19122 0.0
H779 H 0.78866 0.19435 0.2213 0.0
H780 H 0.76361 0.17003 0.20659 0.0
H781 H 0.74865 0.23769 0.31386 0.0
H782 H 0.77722 0.24602 0.30353 0.0
H783 H 0.76011 0.24995 0.27429 0.0
H784 H 0.84186 0.2658 0.25427 0.0
H785 H 0.80071 0.27441 0.18299 0.0
H786 H 0.80324 0.20992 0.27566 0.0
H787 H 0.80008 0.22779 0.30435 0.0
H788 H 0.82766 0.23498 0.2901 0.0
H789 H 0.75362 0.22053 0.18907 0.0
H790 H 0.76246 0.24891 0.17688 0.0
H791 H 0.7494 0.23843 0.21636 0.0
C792 C 0.54052 0.80964 0.24296 0.0
C793 C 0.5586 0.82793 0.22749 0.0
C794 C 0.54193 0.79084 0.2526 0.0
C795 C 0.56188 0.79028 0.24654 0.0
C796 C 0.5803 0.80881 0.23131 0.0
C797 C 0.57845 0.82746 0.22199 0.0
C798 C 0.52193 0.77145 0.26891 0.0
C799 C 0.60183 0.8088 0.22444 0.0
C800 C 0.56956 0.74832 0.29731 0.0
C801 C 0.56162 0.73007 0.27568 0.0
C802 C 0.57042 0.76832 0.28779 0.0
C803 C 0.5632 0.77009 0.25586 0.0
C804 C 0.55593 0.75199 0.23351 0.0
C805 C 0.5552 0.73217 0.24371 0.0
C806 C 0.57828 0.78724 0.31231 0.0
C807 C 0.54819 0.75328 0.1992 0.0
H808 H 0.52513 0.8099 0.24729 0.0
H809 H 0.59246 0.84154 0.20997 0.0
H810 H 0.51596 0.75613 0.25372 0.0
H811 H 0.5268 0.76794 0.29329 0.0
H812 H 0.50783 0.77471 0.27245 0.0
H813 H 0.61478 0.82473 0.21311 0.0
H814 H 0.60864 0.80606 0.24763 0.0
H815 H 0.59851 0.7948 0.2076 0.0
H816 H 0.57457 0.74681 0.32205 0.0
H817 H 0.5491 0.71813 0.22687 0.0
H818 H 0.56419 0.78999 0.31876 0.0
H819 H 0.59168 0.80303 0.30134 0.0
H820 H 0.58476 0.78379 0.33532 0.0
H821 H 0.53281 0.75459 0.20064 0.0
H822 H 0.5445 0.73837 0.18411 0.0
H823 H 0.56115 0.76849 0.18641 0.0
C824 C 0.73216 0.54932 0.25637 0.0
C825 C 0.73147 0.561 0.22854 0.0
C826 C 0.75213 0.55012 0.26594 0.0
C827 C 0.77184 0.56281 0.24711 0.0
C828 C 0.7714 0.57521 0.21959 0.0
C829 C 0.75122 0.5742 0.21068 0.0
C830 C 0.75194 0.53679 0.29558 0.0
C831 C 0.79205 0.58889 0.19886 0.0
C832 C 0.82738 0.57576 0.28569 0.0
C833 C 0.83043 0.55865 0.27251 0.0
C834 C 0.80857 0.57758 0.27726 0.0
C835 C 0.7925 0.56197 0.25507 0.0
C836 C 0.7958 0.545 0.24112 0.0
C837 C 0.81469 0.54353 0.25005 0.0
C838 C 0.80563 0.59588 0.29264 0.0
C839 C 0.77912 0.52809 0.21725 0.0
H840 H 0.71696 0.53915 0.27033 0.0
H841 H 0.75079 0.58325 0.18912 0.0
H842 H 0.75529 0.52334 0.28768 0.0
H843 H 0.76542 0.5477 0.31299 0.0
H844 H 0.73565 0.529 0.30884 0.0
H845 H 0.78932 0.59874 0.17962 0.0
H846 H 0.80627 0.60056 0.21463 0.0
H847 H 0.797 0.57763 0.18661 0.0
H848 H 0.83948 0.58747 0.30311 0.0
H849 H 0.81696 0.53029 0.23975 0.0
H850 H 0.79024 0.58836 0.30798 0.0
H851 H 0.80347 0.60595 0.27319 0.0
H852 H 0.8201 0.60725 0.30834 0.0
H853 H 0.76265 0.51808 0.22957 0.0
H854 H 0.78455 0.51646 0.20768 0.0
H855 H 0.77661 0.53679 0.19609 0.0
C856 C 0.19722 0.73726 0.19287 0.0
C857 C 0.17733 0.72785 0.21125 0.0
C858 C 0.21634 0.75693 0.20325 0.0
C859 C 0.21561 0.76737 0.23288 0.0
C860 C 0.19542 0.75825 0.25116 0.0
C861 C 0.17646 0.73861 0.24006 0.0
C862 C 0.23749 0.76619 0.18294 0.0
C863 C 0.19403 0.76886 0.28295 0.0
C864 C 0.27101 0.8021 0.27707 0.0
C865 C 0.27664 0.82397 0.26833 0.0
C866 C 0.25105 0.78359 0.26606 0.0
C867 C 0.23638 0.78702 0.24565 0.0
C868 C 0.24191 0.80907 0.2368 0.0
C869 C 0.26199 0.82732 0.24832 0.0
C870 C 0.24575 0.76035 0.27611 0.0
C871 C 0.22673 0.81335 0.21496 0.0
H872 H 0.19795 0.72909 0.17047 0.0
H873 H 0.16112 0.7314 0.25434 0.0
H874 H 0.2438 0.78409 0.17711 0.0
H875 H 0.25073 0.7653 0.19728 0.0
H876 H 0.23489 0.75689 0.15951 0.0
H877 H 0.17679 0.76047 0.29325 0.0
H878 H 0.20542 0.76801 0.30147 0.0
H879 H 0.19963 0.78682 0.27897 0.0
H880 H 0.28223 0.7994 0.29263 0.0
H881 H 0.26625 0.84421 0.24154 0.0
H882 H 0.24453 0.75041 0.25392 0.0
H883 H 0.22927 0.75157 0.28875 0.0
H884 H 0.25864 0.76059 0.2928 0.0
H885 H 0.22484 0.80517 0.1907 0.0
H886 H 0.23321 0.83151 0.21088 0.0
H887 H 0.20978 0.80589 0.22607 0.0
C888 C 0.529 0.7287 0.7221 0.0
C889 C 0.5485 0.7271 0.72238 0.0
C890 C 0.52942 0.74836 0.73218 0.0
C891 C 0.54981 0.76686 0.74301 0.0
C892 C 0.56961 0.76542 0.74313 0.0
C893 C 0.56873 0.74555 0.73271 0.0
C894 C 0.50796 0.74926 0.73154 0.0
C895 C 0.59164 0.78476 0.75467 0.0
C896 C 0.55297 0.82355 0.7446 0.0
C897 C 0.54777 0.82493 0.7776 0.0
C898 C 0.55412 0.80493 0.73307 0.0
C899 C 0.55015 0.7874 0.75516 0.0
C900 C 0.54546 0.78902 0.78867 0.0
C901 C 0.54424 0.80772 0.79945 0.0
C902 C 0.55906 0.80374 0.69712 0.0
C903 C 0.54127 0.77077 0.81304 0.0
H904 H 0.51333 0.71452 0.71402 0.0
H905 H 0.58386 0.7444 0.73294 0.0
H906 H 0.50362 0.75187 0.75684 0.0
H907 H 0.51023 0.76364 0.71638 0.0
H908 H 0.49367 0.73369 0.72144 0.0
H909 H 0.60561 0.78116 0.75252 0.0
H910 H 0.59589 0.79998 0.74008 0.0
H911 H 0.59021 0.78863 0.78079 0.0
H912 H 0.55571 0.83682 0.72761 0.0
H913 H 0.54033 0.80875 0.82504 0.0
H914 H 0.54449 0.78925 0.68539 0.0
H915 H 0.57358 0.80108 0.69458 0.0
H916 H 0.56272 0.81918 0.68348 0.0
H917 H 0.52603 0.75497 0.80585 0.0
H918 H 0.53897 0.7751 0.83856 0.0
H919 H 0.55548 0.7675 0.81285 0.0
C920 C 0.73181 0.55663 0.7444 0.0
C921 C 0.72466 0.55052 0.77702 0.0
C922 C 0.75123 0.55709 0.73269 0.0
C923 C 0.76382 0.55141 0.75418 0.0
C924 C 0.75693 0.54573 0.78734 0.0
C925 C 0.73741 0.5453 0.79832 0.0
C926 C 0.758 0.56315 0.69714 0.0
C927 C 0.76995 0.53969 0.81108 0.0
C928 C 0.79973 0.52906 0.71835 0.0
C929 C 0.82126 0.54789 0.71998 0.0
C930 C 0.78089 0.53009 0.72898 0.0
C931 C 0.78364 0.55043 0.74173 0.0
C932 C 0.80533 0.56956 0.74329 0.0
C933 C 0.82389 0.56807 0.73231 0.0
C934 C 0.75805 0.50934 0.7268 0.0
C935 C 0.80893 0.5915 0.75687 0.0
H936 H 0.72201 0.56069 0.72783 0.0
H937 H 0.73202 0.54065 0.82361 0.0
H938 H 0.77552 0.57721 0.69565 0.0
H939 H 0.75738 0.54868 0.68416 0.0
H940 H 0.74695 0.56803 0.68399 0.0
H941 H 0.76295 0.53669 0.83643 0.0
H942 H 0.7698 0.52434 0.80247 0.0
H943 H 0.78771 0.55329 0.81196 0.0
H944 H 0.79757 0.51343 0.70875 0.0
H945 H 0.8405 0.58268 0.73361 0.0
H946 H 0.74663 0.51287 0.71201 0.0
H947 H 0.75066 0.50435 0.75179 0.0
H948 H 0.7587 0.49501 0.71549 0.0
H949 H 0.79877 0.59706 0.74282 0.0
H950 H 0.82679 0.60492 0.75582 0.0
H951 H 0.80322 0.58927 0.78286 0.0
C952 C 0.24944 0.82301 0.70164 0.0
C953 C 0.26858 0.8315 0.72157 0.0
C954 C 0.22946 0.8037 0.71082 0.0
C955 C 0.22865 0.79264 0.74062 0.0
C956 C 0.24767 0.80167 0.76145 0.0
C957 C 0.26741 0.82099 0.75167 0.0
C958 C 0.20953 0.79464 0.688 0.0
C959 C 0.24747 0.79041 0.79346 0.0
C960 C 0.1728 0.74879 0.77699 0.0
C961 C 0.17181 0.72886 0.76689 0.0
C962 C 0.19101 0.76974 0.76817 0.0
C963 C 0.20859 0.77072 0.74883 0.0
C964 C 0.20741 0.75063 0.73803 0.0
C965 C 0.18906 0.72997 0.7472 0.0
C966 C 0.19167 0.7908 0.78009 0.0
C967 C 0.22578 0.75094 0.7173 0.0
H968 H 0.25023 0.8311 0.67837 0.0
H969 H 0.28213 0.82751 0.76723 0.0
H970 H 0.20619 0.77834 0.67774 0.0
H971 H 0.19433 0.79158 0.70174 0.0
H972 H 0.21222 0.80621 0.66721 0.0
H973 H 0.26303 0.80043 0.80798 0.0
H974 H 0.23291 0.78754 0.80872 0.0
H975 H 0.24569 0.77379 0.78828 0.0
H976 H 0.15951 0.74802 0.79223 0.0
H977 H 0.18838 0.71463 0.73926 0.0
H978 H 0.19385 0.80191 0.75894 0.0
H979 H 0.20627 0.80018 0.79663 0.0
H980 H 0.17622 0.78721 0.79366 0.0
H981 H 0.22836 0.76093 0.69463 0.0
H982 H 0.22199 0.73385 0.71008 0.0
H983 H 0.24179 0.75907 0.73119 0.0
C984 C 0.42673 0.25301 0.73405 0.0
C985 C 0.44775 0.27166 0.72722 0.0
C986 C 0.42484 0.2328 0.7451 0.0
C987 C 0.44445 0.23132 0.74958 0.0
C988 C 0.46569 0.25016 0.74289 0.0
C989 C 0.46707 0.27005 0.73172 0.0
C990 C 0.4019 0.21302 0.75186 0.0
C991 C 0.48702 0.24934 0.74756 0.0
C992 C 0.44518 0.18795 0.80639 0.0
C993 C 0.44505 0.17249 0.78381 0.0
C994 C 0.44419 0.20679 0.79563 0.0
C995 C 0.44298 0.21021 0.76148 0.0
C996 C 0.44206 0.19424 0.73863 0.0
C997 C 0.44315 0.17557 0.75008 0.0
C998 C 0.44527 0.22345 0.82077 0.0
C999 C 0.44067 0.19725 0.70203 0.0
H1000 H 0.41174 0.25416 0.73052 0.0
H1001 H 0.48338 0.28441 0.72654 0.0
H1002 H 0.3991 0.19864 0.73624 0.0
H1003 H 0.40077 0.20767 0.7779 0.0
H1004 H 0.38831 0.21686 0.74702 0.0
H1005 H 0.50222 0.2655 0.7414 0.0
H1006 H 0.48835 0.24506 0.7735 0.0
H1007 H 0.48671 0.23604 0.7318 0.0
H1008 H 0.44657 0.18563 0.83251 0.0
H1009 H 0.44295 0.16362 0.73254 0.0
H1010 H 0.4312 0.22672 0.81707 0.0
H1011 H 0.46105 0.23962 0.81753 0.0
H1012 H 0.44461 0.21758 0.84645 0.0
H1013 H 0.42659 0.2002 0.69649 0.0
H1014 H 0.43833 0.18249 0.68773 0.0
H1015 H 0.45629 0.2122 0.6935 0.0
C1016 C 0.19538 0.45411 0.69782 0.0
C1017 C 0.17747 0.44876 0.71934 0.0
C1018 C 0.21438 0.45333 0.70833 0.0
C1019 C 0.2156 0.44728 0.74127 0.0
C1020 C 0.19745 0.4416 0.76302 0.0
C1021 C 0.17853 0.4423 0.75173 0.0
C1022 C 0.23329 0.45932 0.68431 0.0
C1023 C 0.19821 0.43524 0.79839 0.0
C1024 C 0.25817 0.42939 0.76263 0.0
C1025 C 0.27587 0.4493 0.77533 0.0
C1026 C 0.23841 0.42844 0.75144 0.0
C1027 C 0.23628 0.44782 0.75328 0.0
C1028 C 0.25409 0.46792 0.76623 0.0
C1029 C 0.27369 0.46844 0.77696 0.0
C1030 C 0.21986 0.40676 0.7375 0.0
C1031 C 0.25243 0.48891 0.76881 0.0
H1032 H 0.1946 0.45901 0.6727 0.0
H1033 H 0.16474 0.43817 0.76846 0.0
H1034 H 0.24864 0.47448 0.69299 0.0
H1035 H 0.2372 0.44556 0.68294 0.0
H1036 H 0.22927 0.4626 0.65915 0.0
H1037 H 0.18244 0.43061 0.81185 0.0
H1038 H 0.2013 0.42092 0.79942 0.0
H1039 H 0.21231 0.44947 0.81136 0.0
H1040 H 0.25978 0.41455 0.76131 0.0
H1041 H 0.28729 0.48386 0.78688 0.0
H1042 H 0.21628 0.40938 0.71174 0.0
H1043 H 0.20425 0.40117 0.75186 0.0
H1044 H 0.22412 0.39321 0.73779 0.0
H1045 H 0.25 0.49408 0.74398 0.0
H1046 H 0.26761 0.50305 0.78004 0.0
H1047 H 0.23765 0.48558 0.78389 0.0
C1048 C 0.81222 0.27421 0.75146 0.0
C1049 C 0.82999 0.27392 0.76781 0.0
C1050 C 0.793 0.25422 0.74227 0.0
C1051 C 0.79146 0.23343 0.74972 0.0
C1052 C 0.80955 0.23304 0.76562 0.0
C1053 C 0.82864 0.25331 0.77443 0.0
C1054 C 0.77413 0.25536 0.72516 0.0
C1055 C 0.8085 0.2112 0.77403 0.0
C1056 C 0.73234 0.1838 0.75568 0.0
C1057 C 0.72972 0.17371 0.72478 0.0
C1058 C 0.75261 0.20284 0.76451 0.0
C1059 C 0.77059 0.21216 0.74172 0.0
C1060 C 0.76819 0.20174 0.71076 0.0
C1061 C 0.74781 0.18255 0.70273 0.0
C1062 C 0.75461 0.2133 0.79793 0.0
C1063 C 0.7869 0.21129 0.6857 0.0
H1064 H 0.81318 0.29009 0.74626 0.0
H1065 H 0.84231 0.25299 0.78712 0.0
H1066 H 0.76999 0.24597 0.7016 0.0
H1067 H 0.75887 0.24735 0.74076 0.0
H1068 H 0.77834 0.27286 0.71992 0.0
H1069 H 0.82431 0.21377 0.78528 0.0
H1070 H 0.79455 0.20156 0.79153 0.0
H1071 H 0.80501 0.20081 0.75156 0.0
H1072 H 0.71842 0.17697 0.77284 0.0
H1073 H 0.74584 0.17485 0.67876 0.0
H1074 H 0.75686 0.2303 0.79493 0.0
H1075 H 0.76958 0.21519 0.81104 0.0
H1076 H 0.7396 0.20323 0.81354 0.0
H1077 H 0.79038 0.22818 0.67804 0.0
H1078 H 0.78277 0.20059 0.66341 0.0
H1079 H 0.80251 0.21326 0.69672 0.0
C1080 C 0.45311 0.10065 0.07881 0.0
C1081 C 0.45602 0.11958 0.09595 0.0
C1082 C 0.45318 0.10025 0.04423 0.0
C1083 C 0.45623 0.11924 0.02644 0.0
C1084 C 0.45933 0.13846 0.04363 0.0
C1085 C 0.45919 0.13839 0.0782 0.0
C1086 C 0.44984 0.07947 0.02675 0.0
C1087 C 0.46265 0.15903 0.02551 0.0
C1088 C 0.47562 0.12631 0.93739 0.0
C1089 C 0.45548 0.11906 0.92029 0.0
C1090 C 0.4761 0.12636 0.97196 0.0
C1091 C 0.45595 0.11896 0.9898 0.0
C1092 C 0.43554 0.11148 0.97265 0.0
C1093 C 0.43556 0.11164 0.93807 0.0
C1094 C 0.49819 0.13448 0.9894 0.0
C1095 C 0.41371 0.10342 0.99082 0.0
H1096 H 0.45066 0.08606 0.09242 0.0
H1097 H 0.46145 0.15307 0.09134 0.0
H1098 H 0.43468 0.07262 0.011 0.0
H1099 H 0.4643 0.08371 0.01031 0.0
H1100 H 0.44797 0.06623 0.04419 0.0
H1101 H 0.4651 0.17269 0.04254 0.0
H1102 H 0.47744 0.16538 0.00904 0.0
H1103 H 0.44788 0.15469 0.00974 0.0
H1104 H 0.49108 0.13207 0.92376 0.0
H1105 H 0.41994 0.106 0.92496 0.0
H1106 H 0.49722 0.12113 0.00577 0.0
H1107 H 0.50189 0.14906 0.0052 0.0
H1108 H 0.51232 0.13947 0.97192 0.0
H1109 H 0.41047 0.08923 0.00721 0.0
H1110 H 0.39926 0.0979 0.97383 0.0
H1111 H 0.41476 0.11702 0.00668 0.0
C1112 C 0.30953 0.44105 0.93055 0.0
C1113 C 0.33025 0.44933 0.91464 0.0
C1114 C 0.30818 0.4412 0.96506 0.0
C1115 C 0.32801 0.44972 0.98404 0.0
C1116 C 0.34894 0.45788 0.96809 0.0
C1117 C 0.34981 0.45764 0.93357 0.0
C1118 C 0.28557 0.43244 0.98121 0.0
C1119 C 0.37044 0.46698 0.98748 0.0
C1120 C 0.32964 0.47027 0.07138 0.0
C1121 C 0.3276 0.45224 0.09006 0.0
C1122 C 0.32928 0.46946 0.03682 0.0
C1123 C 0.32696 0.45023 0.02061 0.0
C1124 C 0.32447 0.43181 0.03937 0.0
C1125 C 0.32475 0.43301 0.07389 0.0
C1126 C 0.33181 0.48937 0.01764 0.0
C1127 C 0.32206 0.41105 0.02297 0.0
H1128 H 0.29437 0.43466 0.91602 0.0
H1129 H 0.36587 0.46404 0.92139 0.0
H1130 H 0.28227 0.41855 0.99829 0.0
H1131 H 0.28543 0.44586 0.99609 0.0
H1132 H 0.27174 0.42626 0.96295 0.0
H1133 H 0.3853 0.47239 0.97135 0.0
H1134 H 0.37296 0.4815 0.00251 0.0
H1135 H 0.36943 0.45404 0.00477 0.0
H1136 H 0.33179 0.48514 0.08378 0.0
H1137 H 0.32319 0.41903 0.08821 0.0
H1138 H 0.31768 0.48401 0.00012 0.0
H1139 H 0.34745 0.49673 0.00289 0.0
H1140 H 0.33237 0.50259 0.03393 0.0
H1141 H 0.30771 0.40405 0.00562 0.0
H1142 H 0.31948 0.39788 0.04107 0.0
H1143 H 0.33732 0.41543 0.00836 0.0
C1144 C 0.86329 0.31513 0.92519 0.0
C1145 C 0.88173 0.33223 0.9085 0.0
C1146 C 0.86232 0.31466 0.95973 0.0
C1147 C 0.88032 0.3316 0.97798 0.0
C1148 C 0.89908 0.34879 0.96125 0.0
C1149 C 0.89951 0.34896 0.92667 0.0
C1150 C 0.84197 0.29614 0.9767 0.0
C1151 C 0.91867 0.36704 0.97988 0.0
C1152 C 0.86978 0.34316 0.06571 0.0
C1153 C 0.87797 0.33154 0.08404 0.0
C1154 C 0.87027 0.34315 0.03115 0.0
C1155 C 0.87941 0.33147 0.01458 0.0
C1156 C 0.88773 0.31973 0.03298 0.0
C1157 C 0.88678 0.3198 0.06752 0.0
C1158 C 0.86101 0.35565 0.01237 0.0
C1159 C 0.89779 0.30726 0.01618 0.0
H1160 H 0.84947 0.30218 0.91124 0.0
H1161 H 0.91383 0.36218 0.91386 0.0
H1162 H 0.84703 0.28671 0.99338 0.0
H1163 H 0.83387 0.3034 0.99212 0.0
H1164 H 0.82942 0.28422 0.95893 0.0
H1165 H 0.93218 0.37893 0.96319 0.0
H1166 H 0.91296 0.37657 0.99519 0.0
H1167 H 0.92575 0.35955 0.99684 0.0
H1168 H 0.86288 0.3522 0.07839 0.0
H1169 H 0.89321 0.31088 0.08161 0.0
H1170 H 0.84753 0.34405 0.99547 0.0
H1171 H 0.87436 0.3689 0.99697 0.0
H1172 H 0.85412 0.36357 0.02895 0.0
H1173 H 0.88528 0.29428 0.99954 0.0
H1174 H 0.9036 0.29905 0.03406 0.0
H1175 H 0.91223 0.31898 0.00074 0.0
C1176 C 0.54309 0.89186 0.07088 0.0
C1177 C 0.55022 0.8791 0.08859 0.0
C1178 C 0.54282 0.89167 0.03632 0.0
C1179 C 0.54969 0.87826 0.01909 0.0
C1180 C 0.55697 0.86539 0.03685 0.0
C1181 C 0.55723 0.86602 0.07142 0.0
C1182 C 0.53505 0.90572 0.01825 0.0
C1183 C 0.56427 0.85077 0.01932 0.0
C1184 C 0.52765 0.86154 0.93197 0.0
C1185 C 0.54604 0.8768 0.91311 0.0
C1186 C 0.52877 0.86155 0.96646 0.0
C1187 C 0.54872 0.87734 0.98249 0.0
C1188 C 0.56745 0.89263 0.96357 0.0
C1189 C 0.56592 0.89211 0.92905 0.0
C1190 C 0.50851 0.84487 0.98577 0.0
C1191 C 0.58896 0.90979 0.97982 0.0
H1192 H 0.53773 0.90206 0.08404 0.0
H1193 H 0.56274 0.85612 0.08503 0.0
H1194 H 0.54829 0.91735 0.00104 0.0
H1195 H 0.52003 0.89478 0.00325 0.0
H1196 H 0.53083 0.91568 0.03528 0.0
H1197 H 0.56976 0.84202 0.03672 0.0
H1198 H 0.55025 0.83804 0.00425 0.0
H1199 H 0.57828 0.86104 0.00223 0.0
H1200 H 0.51227 0.8496 0.91975 0.0
H1201 H 0.58016 0.90396 0.91456 0.0
H1202 H 0.50239 0.85384 0.00153 0.0
H1203 H 0.51309 0.83499 0.00233 0.0
H1204 H 0.49459 0.83313 0.96953 0.0
H1205 H 0.58574 0.9211 0.99543 0.0
H1206 H 0.60217 0.92009 0.96159 0.0
H1207 H 0.59536 0.90137 0.99622 0.0
C1208 C 0.65435 0.55285 0.07131 0.0
C1209 C 0.66944 0.54869 0.08882 0.0
C1210 C 0.65423 0.55291 0.03675 0.0
C1211 C 0.66971 0.54895 0.01933 0.0
C1212 C 0.68511 0.54493 0.03689 0.0
C1213 C 0.68471 0.54473 0.07146 0.0
C1214 C 0.63739 0.557 0.01888 0.0
C1215 C 0.70199 0.54083 0.01914 0.0
C1216 C 0.6557 0.52776 0.93142 0.0
C1217 C 0.66825 0.54748 0.91324 0.0
C1218 C 0.65601 0.52802 0.96595 0.0
C1219 C 0.66942 0.54847 0.9827 0.0
C1220 C 0.68231 0.56843 0.96448 0.0
C1221 C 0.68146 0.56772 0.9299 0.0
C1222 C 0.64183 0.50644 0.98451 0.0
C1223 C 0.697 0.5905 0.98152 0.0
H1224 H 0.6425 0.5559 0.08464 0.0
H1225 H 0.69647 0.54163 0.08492 0.0
H1226 H 0.64617 0.57177 0.00247 0.0
H1227 H 0.62656 0.5424 0.00308 0.0
H1228 H 0.62655 0.55991 0.03609 0.0
H1229 H 0.71322 0.5386 0.03643 0.0
H1230 H 0.69319 0.52562 0.00359 0.0
H1231 H 0.7124 0.55508 0.0025 0.0
H1232 H 0.64539 0.51208 0.91864 0.0
H1233 H 0.69124 0.58299 0.91591 0.0
H1234 H 0.62981 0.50817 0.00072 0.0
H1235 H 0.65259 0.50274 0.00059 0.0
H1236 H 0.63227 0.49198 0.96777 0.0
H1237 H 0.68662 0.59484 0.99741 0.0
H1238 H 0.70636 0.60439 0.96378 0.0
H1239 H 0.7092 0.58912 0.99775 0.0
C1240 C 0.14447 0.679 0.92035 0.0
C1241 C 0.12431 0.67196 0.90343 0.0
C1242 C 0.14511 0.67935 0.95492 0.0
C1243 C 0.12506 0.67224 0.97292 0.0
C1244 C 0.1047 0.66532 0.95593 0.0
C1245 C 0.10459 0.66539 0.92138 0.0
C1246 C 0.16719 0.6871 0.9722 0.0
C1247 C 0.08294 0.65743 0.97426 0.0
C1248 C 0.12192 0.65132 0.06037 0.0
C1249 C 0.12462 0.66964 0.07895 0.0
C1250 C 0.12206 0.65196 0.02582 0.0
C1251 C 0.12524 0.6715 0.00952 0.0
C1252 C 0.12824 0.69015 0.02817 0.0
C1253 C 0.12775 0.68894 0.06271 0.0
C1254 C 0.11857 0.63165 0.00676 0.0
C1255 C 0.13191 0.71136 0.01165 0.0
H1256 H 0.15976 0.68416 0.90655 0.0
H1257 H 0.08895 0.65987 0.9084 0.0
H1258 H 0.17064 0.70095 0.98944 0.0
H1259 H 0.16635 0.6732 0.98706 0.0
H1260 H 0.1814 0.69296 0.95463 0.0
H1261 H 0.06861 0.6529 0.95738 0.0
H1262 H 0.07918 0.64258 0.98948 0.0
H1263 H 0.08442 0.67069 0.99128 0.0
H1264 H 0.11944 0.63634 0.07284 0.0
H1265 H 0.12995 0.70318 0.077 0.0
H1266 H 0.13311 0.6362 0.99038 0.0
H1267 H 0.10355 0.6255 0.99082 0.0
H1268 H 0.11634 0.61778 0.02317 0.0
H1269 H 0.14671 0.71798 0.99514 0.0
H1270 H 0.13456 0.72457 0.02971 0.0
H1271 H 0.11723 0.70771 0.99612 0.0
C1272 C 0.8804 0.53254 0.56576 0.0
C1273 C 0.87477 0.54605 0.58465 0.0
C1274 C 0.88065 0.53352 0.53125 0.0
C1275 C 0.87497 0.54825 0.51524 0.0
C1276 C 0.86907 0.56179 0.53416 0.0
C1277 C 0.86912 0.56059 0.5687 0.0
C1278 C 0.88716 0.51891 0.51194 0.0
C1279 C 0.86279 0.57758 0.5179 0.0
C1280 C 0.89627 0.56502 0.42771 0.0
C1281 C 0.87749 0.55014 0.40922 0.0
C1282 C 0.89554 0.56489 0.46226 0.0
C1283 C 0.87551 0.54959 0.47866 0.0
C1284 C 0.85633 0.53489 0.46008 0.0
C1285 C 0.85757 0.53529 0.42555 0.0
C1286 C 0.91637 0.58074 0.48123 0.0
C1287 C 0.83464 0.51845 0.4767 0.0
H1288 H 0.88482 0.5213 0.57796 0.0
H1289 H 0.86471 0.57102 0.58322 0.0
H1290 H 0.87337 0.50784 0.49507 0.0
H1291 H 0.90207 0.5295 0.4965 0.0
H1292 H 0.89105 0.50831 0.52816 0.0
H1293 H 0.8582 0.58665 0.53611 0.0
H1294 H 0.87699 0.59005 0.50281 0.0
H1295 H 0.84842 0.56815 0.501 0.0
H1296 H 0.9117 0.57654 0.4152 0.0
H1297 H 0.84298 0.52382 0.41134 0.0
H1298 H 0.92202 0.57105 0.49628 0.0
H1299 H 0.91267 0.59097 0.49845 0.0
H1300 H 0.93033 0.59218 0.46478 0.0
H1301 H 0.83714 0.5063 0.49139 0.0
H1302 H 0.82094 0.509 0.45873 0.0
H1303 H 0.82931 0.52735 0.49401 0.0
C1304 C 0.33616 0.86622 0.56684 0.0
C1305 C 0.3285 0.8789 0.58357 0.0
C1306 C 0.33677 0.86598 0.53229 0.0
C1307 C 0.32966 0.87883 0.51408 0.0
C1308 C 0.32177 0.89155 0.53085 0.0
C1309 C 0.32123 0.89139 0.56542 0.0
C1310 C 0.34517 0.8521 0.51527 0.0
C1311 C 0.31411 0.90551 0.51228 0.0
C1312 C 0.35107 0.89491 0.42639 0.0
C1313 C 0.33265 0.87923 0.40804 0.0
C1314 C 0.35027 0.89506 0.46095 0.0
C1315 C 0.33063 0.87908 0.47747 0.0
C1316 C 0.31196 0.86324 0.45904 0.0
C1317 C 0.31318 0.86355 0.42452 0.0
C1318 C 0.37047 0.91228 0.47977 0.0
C1319 C 0.29076 0.84588 0.4758 0.0
H1320 H 0.34177 0.85652 0.58077 0.0
H1321 H 0.31534 0.90126 0.57825 0.0
H1322 H 0.33214 0.83994 0.49831 0.0
H1323 H 0.36011 0.86307 0.50013 0.0
H1324 H 0.34972 0.84275 0.53299 0.0
H1325 H 0.30829 0.91432 0.529 0.0
H1326 H 0.32804 0.91815 0.49696 0.0
H1327 H 0.30024 0.89473 0.49533 0.0
H1328 H 0.36615 0.90708 0.41375 0.0
H1329 H 0.2989 0.85137 0.41044 0.0
H1330 H 0.37671 0.90379 0.49632 0.0
H1331 H 0.36574 0.92241 0.49553 0.0
H1332 H 0.38434 0.92374 0.46321 0.0
H1333 H 0.29453 0.83537 0.49231 0.0
H1334 H 0.27772 0.8348 0.45789 0.0
H1335 H 0.28384 0.85422 0.49136 0.0
C1336 C 0.45277 0.31018 0.57194 0.0
C1337 C 0.4514 0.32737 0.5883 0.0
C1338 C 0.45321 0.30948 0.53739 0.0
C1339 C 0.45243 0.32646 0.51885 0.0
C1340 C 0.45084 0.34375 0.53526 0.0
C1341 C 0.45027 0.34395 0.5698 0.0
C1342 C 0.45474 0.29069 0.52075 0.0
C1343 C 0.45006 0.36221 0.51633 0.0
C1344 C 0.47557 0.33842 0.43169 0.0
C1345 C 0.4559 0.32824 0.41287 0.0
C1346 C 0.47469 0.33773 0.46624 0.0
C1347 C 0.45363 0.32643 0.48228 0.0
C1348 C 0.43374 0.31568 0.46337 0.0
C1349 C 0.43511 0.3168 0.42886 0.0
C1350 C 0.49627 0.34949 0.48558 0.0
C1351 C 0.411 0.30331 0.4796 0.0
H1352 H 0.45361 0.2973 0.58615 0.0
H1353 H 0.44926 0.3573 0.58234 0.0
H1354 H 0.44055 0.28173 0.50339 0.0
H1355 H 0.47039 0.29764 0.50609 0.0
H1356 H 0.45454 0.27842 0.53869 0.0
H1357 H 0.44858 0.37428 0.53279 0.0
H1358 H 0.46548 0.37149 0.50128 0.0
H1359 H 0.43564 0.35497 0.49911 0.0
H1360 H 0.49168 0.34731 0.41943 0.0
H1361 H 0.41985 0.30885 0.4144 0.0
H1362 H 0.49745 0.33754 0.50261 0.0
H1363 H 0.49648 0.36293 0.50087 0.0
H1364 H 0.51127 0.35704 0.46938 0.0
H1365 H 0.41028 0.29041 0.49669 0.0
H1366 H 0.39721 0.29502 0.46138 0.0
H1367 H 0.4081 0.31513 0.49446 0.0
C1368 C 0.1182 0.46793 0.566 0.0
C1369 C 0.11923 0.45101 0.58373 0.0
C1370 C 0.11798 0.46785 0.53145 0.0
C1371 C 0.11902 0.45053 0.51422 0.0
C1372 C 0.11998 0.43336 0.53199 0.0
C1373 C 0.11997 0.43375 0.56658 0.0
C1374 C 0.11674 0.48635 0.51337 0.0
C1375 C 0.12127 0.41472 0.51446 0.0
C1376 C 0.09947 0.43984 0.42518 0.0
C1377 C 0.11979 0.45165 0.40809 0.0
C1378 C 0.09896 0.43929 0.45975 0.0
C1379 C 0.1193 0.45056 0.47758 0.0
C1380 C 0.1399 0.46225 0.46042 0.0
C1381 C 0.13988 0.46279 0.42585 0.0
C1382 C 0.07666 0.42689 0.47719 0.0
C1383 C 0.16194 0.47426 0.47857 0.0
H1384 H 0.11757 0.48129 0.57915 0.0
H1385 H 0.12083 0.42067 0.5802 0.0
H1386 H 0.13184 0.49579 0.49775 0.0
H1387 H 0.10199 0.47912 0.49676 0.0
H1388 H 0.11551 0.49829 0.53043 0.0
H1389 H 0.12185 0.40259 0.53189 0.0
H1390 H 0.10655 0.40554 0.49807 0.0
H1391 H 0.13643 0.42183 0.49866 0.0
H1392 H 0.08389 0.43127 0.41153 0.0
H1393 H 0.15564 0.47184 0.41271 0.0
H1394 H 0.07429 0.43863 0.4931 0.0
H1395 H 0.07628 0.41377 0.49345 0.0
H1396 H 0.06238 0.41886 0.45971 0.0
H1397 H 0.16238 0.4876 0.49436 0.0
H1398 H 0.17652 0.48196 0.46155 0.0
H1399 H 0.16373 0.46239 0.49503 0.0
C1400 C 0.64822 0.10753 0.43332 0.0
C1401 C 0.66825 0.118 0.41529 0.0
C1402 C 0.64841 0.10773 0.46788 0.0
C1403 C 0.66913 0.11887 0.48478 0.0
C1404 C 0.68942 0.12928 0.4667 0.0
C1405 C 0.68874 0.12863 0.43213 0.0
C1406 C 0.62642 0.09624 0.4863 0.0
C1407 C 0.71182 0.14144 0.48387 0.0
C1408 C 0.66816 0.13809 0.57217 0.0
C1409 C 0.66903 0.12143 0.59083 0.0
C1410 C 0.66848 0.13761 0.53761 0.0
C1411 C 0.66949 0.11995 0.52138 0.0
C1412 C 0.67044 0.10313 0.54012 0.0
C1413 C 0.67028 0.10412 0.57465 0.0
C1414 C 0.6676 0.15594 0.51845 0.0
C1415 C 0.67136 0.08395 0.5237 0.0
H1416 H 0.63233 0.09924 0.4204 0.0
H1417 H 0.70426 0.1368 0.41827 0.0
H1418 H 0.62619 0.08368 0.50363 0.0
H1419 H 0.62451 0.10867 0.50118 0.0
H1420 H 0.61181 0.08768 0.46949 0.0
H1421 H 0.72607 0.14834 0.46625 0.0
H1422 H 0.71286 0.15542 0.49878 0.0
H1423 H 0.71364 0.12994 0.50107 0.0
H1424 H 0.66725 0.15153 0.58458 0.0
H1425 H 0.67091 0.09118 0.58898 0.0
H1426 H 0.65235 0.14864 0.50284 0.0
H1427 H 0.68227 0.16428 0.50173 0.0
H1428 H 0.66745 0.16879 0.53478 0.0
H1429 H 0.65628 0.07432 0.50813 0.0
H1430 H 0.67226 0.07235 0.54182 0.0
H1431 H 0.68617 0.09048 0.50724 0.0
C1432 C 0.56285 0.66306 0.43146 0.0
C1433 C 0.54776 0.66689 0.41339 0.0
C1434 C 0.56284 0.66337 0.46603 0.0
C1435 C 0.54736 0.66764 0.48287 0.0
C1436 C 0.53206 0.6715 0.46474 0.0
C1437 C 0.53243 0.67106 0.43018 0.0
C1438 C 0.57937 0.65913 0.48452 0.0
C1439 C 0.51531 0.67609 0.48186 0.0
C1440 C 0.53324 0.64813 0.57157 0.0
C1441 C 0.54658 0.66802 0.58899 0.0
C1442 C 0.53331 0.64778 0.53702 0.0
C1443 C 0.54703 0.66782 0.51949 0.0
C1444 C 0.56051 0.68798 0.53694 0.0
C1445 C 0.56013 0.68783 0.57152 0.0
C1446 C 0.51873 0.62596 0.51928 0.0
C1447 C 0.57534 0.70968 0.51906 0.0
H1448 H 0.57475 0.65984 0.41859 0.0
H1449 H 0.52075 0.67406 0.41631 0.0
H1450 H 0.59006 0.67366 0.50051 0.0
H1451 H 0.57029 0.64433 0.50081 0.0
H1452 H 0.59036 0.65616 0.46773 0.0
H1453 H 0.50464 0.67888 0.46417 0.0
H1454 H 0.50431 0.66179 0.49806 0.0
H1455 H 0.52418 0.6911 0.49779 0.0
H1456 H 0.52273 0.63276 0.58495 0.0
H1457 H 0.57045 0.70325 0.58489 0.0
H1458 H 0.52925 0.62167 0.50363 0.0
H1459 H 0.50687 0.62769 0.50273 0.0
H1460 H 0.50896 0.61188 0.53656 0.0
H1461 H 0.58756 0.70789 0.50341 0.0
H1462 H 0.58471 0.72391 0.53625 0.0
H1463 H 0.56509 0.71376 0.50248 0.0
C1464 C 0.51781 0.10972 0.23492 0.0
C1465 C 0.51642 0.12785 0.22203 0.0
C1466 C 0.53846 0.11206 0.24416 0.0
C1467 C 0.55826 0.13304 0.24037 0.0
C1468 C 0.55702 0.15137 0.22702 0.0
C1469 C 0.53607 0.14856 0.21804 0.0
C1470 C 0.53906 0.0921 0.25835 0.0
C1471 C 0.57779 0.17395 0.22252 0.0
C1472 C 0.60627 0.14105 0.29519 0.0
C1473 C 0.6184 0.13497 0.27396 0.0
C1474 C 0.58719 0.14147 0.28415 0.0
C1475 C 0.5801 0.13569 0.25109 0.0
C1476 C 0.5929 0.13059 0.22914 0.0
C1477 C 0.61191 0.13027 0.24086 0.0
C1478 C 0.57402 0.14704 0.30831 0.0
C1479 C 0.58594 0.12444 0.19368 0.0
H1480 H 0.50267 0.09366 0.23806 0.0
H1481 H 0.53508 0.16262 0.20804 0.0
H1482 H 0.55026 0.08834 0.24338 0.0
H1483 H 0.54598 0.09595 0.2837 0.0
H1484 H 0.52219 0.07687 0.25925 0.0
H1485 H 0.57406 0.18634 0.21098 0.0
H1486 H 0.58587 0.18056 0.24674 0.0
H1487 H 0.59011 0.1723 0.20691 0.0
H1488 H 0.61125 0.14476 0.32078 0.0
H1489 H 0.62126 0.12562 0.22431 0.0
H1490 H 0.55749 0.13193 0.31285 0.0
H1491 H 0.57085 0.1601 0.29798 0.0
H1492 H 0.5828 0.15304 0.33228 0.0
H1493 H 0.5701 0.10813 0.19266 0.0
H1494 H 0.59883 0.12307 0.17905 0.0
H1495 H 0.58269 0.13708 0.18197 0.0
C1496 C 0.46974 0.61492 0.27758 0.0
C1497 C 0.4879 0.61241 0.2872 0.0
C1498 C 0.44953 0.59642 0.26705 0.0
C1499 C 0.44757 0.57498 0.26577 0.0
C1500 C 0.46577 0.57232 0.2759 0.0
C1501 C 0.48567 0.59105 0.28665 0.0
C1502 C 0.4304 0.59985 0.2568 0.0
C1503 C 0.46442 0.54978 0.27464 0.0
C1504 C 0.3905 0.52204 0.26201 0.0
C1505 C 0.38868 0.51685 0.22835 0.0
C1506 C 0.40933 0.54123 0.27446 0.0
C1507 C 0.42682 0.5554 0.25276 0.0
C1508 C 0.42489 0.5504 0.21867 0.0
C1509 C 0.40579 0.53125 0.20686 0.0
C1510 C 0.41068 0.54613 0.3109 0.0
C1511 C 0.44325 0.565 0.19477 0.0
H1512 H 0.47137 0.63139 0.27805 0.0
H1513 H 0.49967 0.58902 0.29398 0.0
H1514 H 0.42664 0.59574 0.23031 0.0
H1515 H 0.41505 0.58839 0.27081 0.0
H1516 H 0.43419 0.61734 0.26084 0.0
H1517 H 0.47988 0.55046 0.28407 0.0
H1518 H 0.44996 0.53739 0.2894 0.0
H1519 H 0.46165 0.54359 0.24887 0.0
H1520 H 0.37728 0.51101 0.27871 0.0
H1521 H 0.40448 0.5273 0.18082 0.0
H1522 H 0.41375 0.56335 0.31499 0.0
H1523 H 0.425 0.5453 0.32184 0.0
H1524 H 0.39515 0.53414 0.32417 0.0
H1525 H 0.44672 0.58252 0.19623 0.0
H1526 H 0.4389 0.55913 0.16891 0.0
H1527 H 0.45894 0.56516 0.20143 0.0
C1528 C 0.87635 0.47303 0.29852 0.0
C1529 C 0.87258 0.48635 0.27626 0.0
C1530 C 0.87589 0.45339 0.28807 0.0
C1531 C 0.87128 0.44679 0.25464 0.0
C1532 C 0.86677 0.45982 0.23228 0.0
C1533 C 0.86763 0.47954 0.24332 0.0
C1534 C 0.881 0.44008 0.31258 0.0
C1535 C 0.8615 0.45318 0.19655 0.0
C1536 C 0.89327 0.41049 0.21919 0.0
C1537 C 0.87421 0.38912 0.22033 0.0
C1538 C 0.89255 0.42936 0.23044 0.0
C1539 C 0.87218 0.42683 0.24275 0.0
C1540 C 0.85282 0.40531 0.24377 0.0
C1541 C 0.8541 0.38666 0.23273 0.0
C1542 C 0.91363 0.45199 0.2293 0.0
C1543 C 0.83075 0.402 0.25638 0.0
H1544 H 0.88025 0.47826 0.32399 0.0
H1545 H 0.86461 0.48974 0.22605 0.0
H1546 H 0.86719 0.42242 0.31305 0.0
H1547 H 0.89642 0.43996 0.305 0.0
H1548 H 0.88347 0.44702 0.33791 0.0
H1549 H 0.85703 0.46434 0.18284 0.0
H1550 H 0.87622 0.45376 0.18443 0.0
H1551 H 0.8474 0.43571 0.19464 0.0
H1552 H 0.90888 0.41246 0.20974 0.0
H1553 H 0.8393 0.37017 0.23355 0.0
H1554 H 0.91785 0.45932 0.2544 0.0
H1555 H 0.91091 0.46362 0.21366 0.0
H1556 H 0.92817 0.45106 0.21941 0.0
H1557 H 0.83258 0.40772 0.28232 0.0
H1558 H 0.81719 0.38421 0.25514 0.0
H1559 H 0.82564 0.4123 0.24176 0.0
C1560 C 0.46938 0.85286 0.21804 0.0
C1561 C 0.48951 0.873 0.22293 0.0
C1562 C 0.44882 0.85055 0.22815 0.0
C1563 C 0.4484 0.86892 0.24303 0.0
C1564 C 0.4687 0.88928 0.24799 0.0
C1565 C 0.48902 0.89101 0.23809 0.0
C1566 C 0.42755 0.82849 0.22286 0.0
C1567 C 0.46895 0.90934 0.2634 0.0
C1568 C 0.39545 0.87296 0.24071 0.0
C1569 C 0.38783 0.86763 0.27328 0.0
C1570 C 0.41485 0.87292 0.23031 0.0
C1571 C 0.42676 0.86713 0.25294 0.0
C1572 C 0.41866 0.86089 0.28553 0.0
C1573 C 0.39936 0.86137 0.29539 0.0
C1574 C 0.42307 0.8799 0.19545 0.0
C1575 C 0.43071 0.8543 0.31022 0.0
H1576 H 0.46971 0.83886 0.20645 0.0
H1577 H 0.50453 0.90663 0.24183 0.0
H1578 H 0.4187 0.82207 0.24666 0.0
H1579 H 0.41611 0.83091 0.20634 0.0
H1580 H 0.43081 0.81563 0.21188 0.0
H1581 H 0.48615 0.92396 0.26545 0.0
H1582 H 0.45865 0.9143 0.24846 0.0
H1583 H 0.46142 0.90501 0.28837 0.0
H1584 H 0.38662 0.87786 0.22354 0.0
H1585 H 0.39348 0.85715 0.32056 0.0
H1586 H 0.42541 0.86684 0.18316 0.0
H1587 H 0.43962 0.8955 0.19582 0.0
H1588 H 0.41134 0.88291 0.18049 0.0
H1589 H 0.43347 0.84097 0.29988 0.0
H1590 H 0.4213 0.84822 0.33373 0.0
H1591 H 0.44743 0.86891 0.31564 0.0
C1592 C 0.61569 0.46893 0.2189 0.0
C1593 C 0.61392 0.48812 0.21411 0.0
C1594 C 0.59711 0.44865 0.22916 0.0
C1595 C 0.57633 0.44763 0.23483 0.0
C1596 C 0.57437 0.46686 0.22937 0.0
C1597 C 0.59317 0.48685 0.21905 0.0
C1598 C 0.59982 0.42847 0.23458 0.0
C1599 C 0.55253 0.46648 0.23516 0.0
C1600 C 0.52183 0.39189 0.23861 0.0
C1601 C 0.51823 0.38884 0.27269 0.0
C1602 C 0.54099 0.41065 0.22589 0.0
C1603 C 0.55682 0.42678 0.24779 0.0
C1604 C 0.55346 0.42355 0.28222 0.0
C1605 C 0.53424 0.4046 0.29424 0.0
C1606 C 0.54405 0.41345 0.18903 0.0
C1607 C 0.56989 0.44041 0.30639 0.0
H1608 H 0.63169 0.46981 0.21508 0.0
H1609 H 0.59167 0.50162 0.21535 0.0
H1610 H 0.59698 0.42356 0.26094 0.0
H1611 H 0.58711 0.41403 0.22014 0.0
H1612 H 0.61674 0.43168 0.22746 0.0
H1613 H 0.55359 0.48264 0.22868 0.0
H1614 H 0.53898 0.45298 0.22038 0.0
H1615 H 0.54766 0.4628 0.26146 0.0
H1616 H 0.50954 0.37972 0.22183 0.0
H1617 H 0.53156 0.40234 0.32061 0.0
H1618 H 0.56069 0.41593 0.18192 0.0
H1619 H 0.54354 0.42861 0.18117 0.0
H1620 H 0.5309 0.39879 0.1754 0.0
H1621 H 0.58696 0.44318 0.3017 0.0
H1622 H 0.5653 0.43498 0.33238 0.0
H1623 H 0.57062 0.45673 0.30305 0.0
C1624 C 0.11119 0.59158 0.21868 0.0
C1625 C 0.12984 0.61325 0.21811 0.0
C1626 C 0.11292 0.57342 0.23067 0.0
C1627 C 0.13384 0.57698 0.24222 0.0
C1628 C 0.15275 0.59882 0.2417 0.0
C1629 C 0.15051 0.61674 0.22972 0.0
C1630 C 0.09232 0.5504 0.23098 0.0
C1631 C 0.17534 0.60324 0.25367 0.0
C1632 C 0.13088 0.53179 0.299 0.0
C1633 C 0.13452 0.51829 0.27692 0.0
C1634 C 0.13144 0.55143 0.2883 0.0
C1635 C 0.13576 0.55771 0.25471 0.0
C1636 C 0.14038 0.54463 0.23261 0.0
C1637 C 0.13969 0.52506 0.24398 0.0
C1638 C 0.12647 0.56495 0.31264 0.0
C1639 C 0.14516 0.55082 0.19665 0.0
H1640 H 0.09516 0.5888 0.20981 0.0
H1641 H 0.16498 0.63346 0.22929 0.0
H1642 H 0.09526 0.53875 0.21577 0.0
H1643 H 0.08878 0.54367 0.25646 0.0
H1644 H 0.07727 0.5505 0.2214 0.0
H1645 H 0.18837 0.62119 0.25167 0.0
H1646 H 0.17414 0.59797 0.27977 0.0
H1647 H 0.18079 0.59317 0.23915 0.0
H1648 H 0.12692 0.52666 0.32451 0.0
H1649 H 0.14256 0.51471 0.2268 0.0
H1650 H 0.11044 0.56409 0.30602 0.0
H1651 H 0.13975 0.58282 0.31169 0.0
H1652 H 0.12516 0.5588 0.3383 0.0
H1653 H 0.12999 0.5493 0.18466 0.0
H1654 H 0.15017 0.53995 0.18328 0.0
H1655 H 0.1587 0.5685 0.19404 0.0
C1656 C 0.46325 0.86919 0.79643 0.0
C1657 C 0.47886 0.86881 0.77467 0.0
C1658 C 0.444 0.86898 0.78467 0.0
C1659 C 0.44032 0.86844 0.75029 0.0
C1660 C 0.45567 0.86735 0.72821 0.0
C1661 C 0.47477 0.86752 0.74068 0.0
C1662 C 0.42799 0.87005 0.80901 0.0
C1663 C 0.45231 0.86678 0.6914 0.0
C1664 C 0.38201 0.85345 0.72103 0.0
C1665 C 0.38456 0.87471 0.71575 0.0
C1666 C 0.40009 0.85109 0.7319 0.0
C1667 C 0.42116 0.87045 0.7375 0.0
C1668 C 0.42387 0.89193 0.73177 0.0
C1669 C 0.40553 0.89379 0.72102 0.0
C1670 C 0.39657 0.82793 0.73782 0.0
C1671 C 0.44609 0.91298 0.73738 0.0
H1672 H 0.46629 0.87011 0.82274 0.0
H1673 H 0.48678 0.86721 0.72376 0.0
H1674 H 0.42797 0.88603 0.80586 0.0
H1675 H 0.41067 0.85625 0.80437 0.0
H1676 H 0.4325 0.86893 0.83494 0.0
H1677 H 0.46495 0.86445 0.67768 0.0
H1678 H 0.43536 0.85303 0.68474 0.0
H1679 H 0.45348 0.88269 0.68322 0.0
H1680 H 0.36583 0.83865 0.71697 0.0
H1681 H 0.40762 0.91026 0.7169 0.0
H1682 H 0.39969 0.82606 0.76412 0.0
H1683 H 0.4087 0.82544 0.72306 0.0
H1684 H 0.37933 0.81457 0.73139 0.0
H1685 H 0.45102 0.91406 0.76362 0.0
H1686 H 0.44556 0.92837 0.7309 0.0
H1687 H 0.45933 0.9125 0.72245 0.0
C1688 C 0.59164 0.47538 0.78701 0.0
C1689 C 0.61326 0.4837 0.77423 0.0
C1690 C 0.57343 0.45589 0.7743 0.0
C1691 C 0.57699 0.44418 0.74853 0.0
C1692 C 0.59886 0.45228 0.73584 0.0
C1693 C 0.61676 0.47211 0.74867 0.0
C1694 C 0.55032 0.44798 0.7882 0.0
C1695 C 0.60332 0.44002 0.70874 0.0
C1696 C 0.53045 0.38385 0.73973 0.0
C1697 C 0.51772 0.38552 0.71413 0.0
C1698 C 0.55046 0.40262 0.75007 0.0
C1699 C 0.55763 0.42361 0.73484 0.0
C1700 C 0.54517 0.42522 0.70832 0.0
C1701 C 0.52544 0.40609 0.69808 0.0
C1702 C 0.5635 0.40015 0.77805 0.0
C1703 C 0.55209 0.44736 0.69177 0.0
H1704 H 0.58884 0.48436 0.80665 0.0
H1705 H 0.63348 0.47848 0.73882 0.0
H1706 H 0.53889 0.44713 0.7683 0.0
H1707 H 0.54334 0.43086 0.79845 0.0
H1708 H 0.55038 0.45917 0.80795 0.0
H1709 H 0.62138 0.44815 0.70229 0.0
H1710 H 0.59746 0.4225 0.71639 0.0
H1711 H 0.59377 0.4393 0.68634 0.0
H1712 H 0.52461 0.36792 0.75201 0.0
H1713 H 0.51561 0.40743 0.67831 0.0
H1714 H 0.56258 0.40924 0.80001 0.0
H1715 H 0.58143 0.40771 0.77128 0.0
H1716 H 0.55697 0.38235 0.78491 0.0
H1717 H 0.55089 0.4589 0.70966 0.0
H1718 H 0.54142 0.44552 0.67014 0.0
H1719 H 0.56978 0.45535 0.68358 0.0
C1720 C 0.12973 0.59829 0.79193 0.0
C1721 C 0.13217 0.61483 0.76951 0.0
C1722 C 0.13056 0.57934 0.78135 0.0
C1723 C 0.13421 0.57704 0.7476 0.0
C1724 C 0.13758 0.59413 0.72507 0.0
C1725 C 0.13636 0.61277 0.73626 0.0
C1726 C 0.12665 0.56137 0.80608 0.0
C1727 C 0.14181 0.59242 0.68898 0.0
C1728 C 0.15038 0.53347 0.72445 0.0
C1729 C 0.12973 0.51558 0.71418 0.0
C1730 C 0.15221 0.55376 0.73496 0.0
C1731 C 0.1329 0.55603 0.73554 0.0
C1732 C 0.11205 0.53803 0.72508 0.0
C1733 C 0.11075 0.51808 0.71437 0.0
C1734 C 0.17476 0.57269 0.74561 0.0
C1735 C 0.09101 0.53971 0.7256 0.0
H1736 H 0.12646 0.5998 0.81766 0.0
H1737 H 0.1384 0.62559 0.71887 0.0
H1738 H 0.11097 0.5457 0.79989 0.0
H1739 H 0.14051 0.5576 0.80506 0.0
H1740 H 0.12527 0.56626 0.83167 0.0
H1741 H 0.14598 0.60797 0.67524 0.0
H1742 H 0.15577 0.58891 0.68596 0.0
H1743 H 0.12671 0.57827 0.6777 0.0
H1744 H 0.1651 0.53163 0.72426 0.0
H1745 H 0.09473 0.50429 0.70655 0.0
H1746 H 0.17406 0.57686 0.77181 0.0
H1747 H 0.17918 0.58793 0.73094 0.0
H1748 H 0.18828 0.56849 0.74271 0.0
H1749 H 0.08762 0.54309 0.75106 0.0
H1750 H 0.07613 0.52418 0.71661 0.0
H1751 H 0.09329 0.55392 0.71001 0.0
C1752 C 0.604 0.12305 0.75562 0.0
C1753 C 0.61525 0.13311 0.72625 0.0
C1754 C 0.58515 0.12427 0.76561 0.0
C1755 C 0.57741 0.13593 0.74584 0.0
C1756 C 0.58912 0.14674 0.71667 0.0
C1757 C 0.60789 0.14514 0.70716 0.0
C1758 C 0.5731 0.11245 0.79683 0.0
C1759 C 0.58147 0.15947 0.69509 0.0
C1760 C 0.51551 0.11649 0.75413 0.0
C1761 C 0.51573 0.13213 0.7764 0.0
C1762 C 0.53552 0.11793 0.74327 0.0
C1763 C 0.55627 0.13555 0.75479 0.0
C1764 C 0.55664 0.15189 0.77634 0.0
C1765 C 0.53633 0.14994 0.78702 0.0
C1766 C 0.53439 0.10012 0.72038 0.0
C1767 C 0.57845 0.17102 0.78891 0.0
H1768 H 0.60963 0.11375 0.77052 0.0
H1769 H 0.61657 0.15301 0.68448 0.0
H1770 H 0.5715 0.12431 0.81353 0.0
H1771 H 0.5559 0.0989 0.7908 0.0
H1772 H 0.58186 0.10499 0.81021 0.0
H1773 H 0.59335 0.16834 0.67461 0.0
H1774 H 0.56483 0.14773 0.68443 0.0
H1775 H 0.57953 0.17191 0.70995 0.0
H1776 H 0.49964 0.10269 0.74581 0.0
H1777 H 0.53658 0.16212 0.80416 0.0
H1778 H 0.54128 0.09057 0.73293 0.0
H1779 H 0.54479 0.10795 0.69818 0.0
H1780 H 0.51699 0.08817 0.71241 0.0
H1781 H 0.58689 0.16442 0.80486 0.0
H1782 H 0.57595 0.1833 0.80332 0.0
H1783 H 0.5899 0.17987 0.76803 0.0
C1784 C 0.40371 0.51315 0.75724 0.0
C1785 C 0.38988 0.51298 0.78272 0.0
C1786 C 0.42271 0.53312 0.7474 0.0
C1787 C 0.42792 0.55345 0.76327 0.0
C1788 C 0.41396 0.55341 0.78889 0.0
C1789 C 0.39512 0.53314 0.79841 0.0
C1790 C 0.43727 0.53245 0.72011 0.0
C1791 C 0.4189 0.57478 0.80622 0.0
C1792 C 0.48813 0.601 0.75691 0.0
C1793 C 0.4868 0.61353 0.7307 0.0
C1794 C 0.46901 0.58161 0.76816 0.0
C1795 C 0.44806 0.5747 0.75298 0.0
C1796 C 0.44653 0.58762 0.72707 0.0
C1797 C 0.46595 0.60684 0.71614 0.0
C1798 C 0.47134 0.56821 0.79573 0.0
C1799 C 0.42445 0.58089 0.71044 0.0
H1800 H 0.39976 0.4976 0.74508 0.0
H1801 H 0.38446 0.53309 0.81809 0.0
H1802 H 0.43809 0.5434 0.69949 0.0
H1803 H 0.45462 0.53899 0.72921 0.0
H1804 H 0.43096 0.51525 0.71044 0.0
H1805 H 0.40626 0.57194 0.82542 0.0
H1806 H 0.43566 0.58248 0.81797 0.0
H1807 H 0.41933 0.58703 0.78808 0.0
H1808 H 0.50422 0.60609 0.76821 0.0
H1809 H 0.46482 0.61652 0.69593 0.0
H1810 H 0.46674 0.55125 0.78669 0.0
H1811 H 0.45967 0.56601 0.8161 0.0
H1812 H 0.48866 0.57628 0.80571 0.0
H1813 H 0.41815 0.56449 0.69802 0.0
H1814 H 0.42589 0.59337 0.69184 0.0
H1815 H 0.41176 0.57884 0.72904 0.0
C1816 C 0.86044 0.39287 0.79482 0.0
C1817 C 0.87728 0.38958 0.78114 0.0
C1818 C 0.85842 0.41149 0.78595 0.0
C1819 C 0.87362 0.42716 0.76293 0.0
C1820 C 0.89075 0.424 0.74928 0.0
C1821 C 0.89235 0.40524 0.75853 0.0
C1822 C 0.83994 0.41431 0.80098 0.0
C1823 C 0.90732 0.44035 0.72471 0.0
C1824 C 0.85847 0.46427 0.71301 0.0
C1825 C 0.87074 0.4849 0.72914 0.0
C1826 C 0.85865 0.44514 0.72443 0.0
C1827 C 0.87152 0.44673 0.75254 0.0
C1828 C 0.88343 0.46738 0.76948 0.0
C1829 C 0.88286 0.48622 0.75761 0.0
C1830 C 0.84561 0.4234 0.7058 0.0
C1831 C 0.8974 0.46975 0.79948 0.0
H1832 H 0.84876 0.38081 0.81233 0.0
H1833 H 0.90542 0.40282 0.74791 0.0
H1834 H 0.84715 0.4307 0.81373 0.0
H1835 H 0.82875 0.41426 0.7813 0.0
H1836 H 0.82972 0.40083 0.8189 0.0
H1837 H 0.91989 0.43567 0.71686 0.0
H1838 H 0.89833 0.44116 0.70255 0.0
H1839 H 0.91628 0.4574 0.73553 0.0
H1840 H 0.849 0.46314 0.69106 0.0
H1841 H 0.89238 0.50214 0.77017 0.0
H1842 H 0.83445 0.40976 0.72284 0.0
H1843 H 0.85736 0.4186 0.69482 0.0
H1844 H 0.83528 0.42458 0.68576 0.0
H1845 H 0.88717 0.45686 0.81808 0.0
H1846 H 0.90453 0.48656 0.81102 0.0
H1847 H 0.9114 0.467 0.79245 0.0
loop_
_geom_bond_atom_site_label_1
_geom_bond_atom_site_label_2
_geom_bond_distance
_geom_bond_site_symmetry_2
_ccdc_geom_bond_type
In0 O1 2.294 . S
In0 O2 2.326 . S
In0 O6 2.266 . S
In0 O7 2.326 . S
In0 O8 2.266 . S
In0 O9 2.326 . S
In0 O11 2.294 . S
In0 O12 2.326 . S
O1 In0 2.294 . S
O1 C10 1.240 . S
O2 In0 2.326 . S
O2 C10 1.252 . S
C3 O6 1.252 . S
C3 O7 1.260 . S
C4 O11 1.240 . S
C4 O12 1.252 . S
C5 O8 1.252 . S
C5 O9 1.260 . S
O6 In0 2.266 . S
O6 C3 1.252 . S
O7 In0 2.326 . S
O7 C3 1.260 . S
O8 In0 2.266 . S
O8 C5 1.252 . S
O9 In0 2.326 . S
O9 C5 1.260 . S
C10 O1 1.240 . S
C10 O2 1.252 . S
O11 In0 2.294 . S
O11 C4 1.240 . S
O12 In0 2.326 . S
O12 C4 1.252 . S
In13 O14 2.294 . S
In13 O15 2.326 . S
In13 O19 2.266 . S
In13 O20 2.326 . S
In13 O21 2.266 . S
In13 O22 2.326 . S
In13 O24 2.294 . S
In13 O25 2.326 . S
O14 In13 2.294 . S
O14 C23 1.240 . S
O15 In13 2.326 . S
O15 C23 1.252 . S
C16 O19 1.252 . S
C16 O20 1.260 . S
C17 O24 1.240 . S
C17 O25 1.252 . S
C18 O21 1.252 . S
C18 O22 1.260 . S
O19 In13 2.266 . S
O19 C16 1.252 . S
O20 In13 2.326 . S
O20 C16 1.260 . S
O21 In13 2.266 . S
O21 C18 1.252 . S
O22 In13 2.326 . S
O22 C18 1.260 . S
C23 O14 1.240 . S
C23 O15 1.252 . S
O24 In13 2.294 . S
O24 C17 1.240 . S
O25 In13 2.326 . S
O25 C17 1.252 . S
In26 O27 2.294 . S
In26 O28 2.326 . S
In26 O32 2.266 . S
In26 O33 2.326 . S
In26 O34 2.266 . S
In26 O35 2.326 . S
In26 O37 2.294 . S
In26 O38 2.326 . S
O27 In26 2.294 . S
O27 C36 1.240 . S
O28 In26 2.326 . S
O28 C36 1.252 . S
C29 O32 1.252 . S
C29 O33 1.260 . S
C30 O37 1.240 . S
C30 O38 1.252 . S
C31 O34 1.252 . S
C31 O35 1.260 . S
O32 In26 2.266 . S
O32 C29 1.252 . S
O33 In26 2.326 . S
O33 C29 1.260 . S
O34 In26 2.266 . S
O34 C31 1.252 . S
O35 In26 2.326 . S
O35 C31 1.260 . S
C36 O27 1.240 . S
C36 O28 1.252 . S
O37 In26 2.294 . S
O37 C30 1.240 . S
O38 In26 2.326 . S
O38 C30 1.252 . S
In39 O40 2.294 . S
In39 O41 2.326 . S
In39 O45 2.266 . S
In39 O46 2.326 . S
In39 O47 2.266 . S
In39 O48 2.326 . S
In39 O50 2.294 . S
In39 O51 2.326 . S
O40 In39 2.294 . S
O40 C49 1.240 . S
O41 In39 2.326 . S
O41 C49 1.252 . S
C42 O45 1.252 . S
C42 O46 1.260 . S
C43 O50 1.240 . S
C43 O51 1.252 . S
C44 O47 1.252 . S
C44 O48 1.260 . S
O45 In39 2.266 . S
O45 C42 1.252 . S
O46 In39 2.326 . S
O46 C42 1.260 . S
O47 In39 2.266 . S
O47 C44 1.252 . S
O48 In39 2.326 . S
O48 C44 1.260 . S
C49 O40 1.240 . S
C49 O41 1.252 . S
O50 In39 2.294 . S
O50 C43 1.240 . S
O51 In39 2.326 . S
O51 C43 1.252 . S
In52 O53 2.294 . S
In52 O54 2.326 . S
In52 O58 2.266 . S
In52 O59 2.326 . S
In52 O60 2.266 . S
In52 O61 2.326 . S
In52 O63 2.294 . S
In52 O64 2.326 . S
O53 In52 2.294 . S
O53 C62 1.240 . S
O54 In52 2.326 . S
O54 C62 1.252 . S
C55 O58 1.252 . S
C55 O59 1.260 . S
C56 O63 1.240 . S
C56 O64 1.252 . S
C57 O60 1.252 . S
C57 O61 1.260 . S
O58 In52 2.266 . S
O58 C55 1.252 . S
O59 In52 2.326 . S
O59 C55 1.260 . S
O60 In52 2.266 . S
O60 C57 1.252 . S
O61 In52 2.326 . S
O61 C57 1.260 . S
C62 O53 1.240 . S
C62 O54 1.252 . S
O63 In52 2.294 . S
O63 C56 1.240 . S
O64 In52 2.326 . S
O64 C56 1.252 . S
In65 O66 2.294 . S
In65 O67 2.326 . S
In65 O71 2.266 . S
In65 O72 2.326 . S
In65 O73 2.266 . S
In65 O74 2.326 . S
In65 O76 2.294 . S
In65 O77 2.326 . S
O66 In65 2.294 . S
O66 C75 1.240 . S
O67 In65 2.326 . S
O67 C75 1.252 . S
C68 O71 1.252 . S
C68 O72 1.260 . S
C69 O76 1.240 . S
C69 O77 1.252 . S
C70 O73 1.252 . S
C70 O74 1.260 . S
O71 In65 2.266 . S
O71 C68 1.252 . S
O72 In65 2.326 . S
O72 C68 1.260 . S
O73 In65 2.266 . S
O73 C70 1.252 . S
O74 In65 2.326 . S
O74 C70 1.260 . S
C75 O66 1.240 . S
C75 O67 1.252 . S
O76 In65 2.294 . S
O76 C69 1.240 . S
O77 In65 2.326 . S
O77 C69 1.252 . S
In78 O79 2.294 . S
In78 O80 2.326 . S
In78 O84 2.266 . S
In78 O85 2.326 . S
In78 O86 2.266 . S
In78 O87 2.326 . S
In78 O89 2.294 . S
In78 O90 2.326 . S
O79 In78 2.294 . S
O79 C88 1.240 . S
O80 In78 2.326 . S
O80 C88 1.252 . S
C81 O84 1.252 . S
C81 O85 1.260 . S
C82 O89 1.240 . S
C82 O90 1.252 . S
C83 O86 1.252 . S
C83 O87 1.260 . S
O84 In78 2.266 . S
O84 C81 1.252 . S
O85 In78 2.326 . S
O85 C81 1.260 . S
O86 In78 2.266 . S
O86 C83 1.252 . S
O87 In78 2.326 . S
O87 C83 1.260 . S
C88 O79 1.240 . S
C88 O80 1.252 . S
O89 In78 2.294 . S
O89 C82 1.240 . S
O90 In78 2.326 . S
O90 C82 1.252 . S
In91 O92 2.294 . S
In91 O93 2.326 . S
In91 O97 2.266 . S
In91 O98 2.326 . S
In91 O99 2.266 . S
In91 O100 2.326 . S
In91 O102 2.294 . S
In91 O103 2.326 . S
O92 In91 2.294 . S
O92 C101 1.240 . S
O93 In91 2.326 . S
O93 C101 1.252 . S
C94 O97 1.252 . S
C94 O98 1.260 . S
C95 O102 1.240 . S
C95 O103 1.252 . S
C96 O99 1.252 . S
C96 O100 1.260 . S
O97 In91 2.266 . S
O97 C94 1.252 . S
O98 In91 2.326 . S
O98 C94 1.260 . S
O99 In91 2.266 . S
O99 C96 1.252 . S
O100 In91 2.326 . S
O100 C96 1.260 . S
C101 O92 1.240 . S
C101 O93 1.252 . S
O102 In91 2.294 . S
O102 C95 1.240 . S
O103 In91 2.326 . S
O103 C95 1.252 . S
In104 O105 2.294 . S
In104 O106 2.326 . S
In104 O110 2.266 . S
In104 O111 2.326 . S
In104 O112 2.266 . S
In104 O113 2.326 . S
In104 O115 2.294 . S
In104 O116 2.326 . S
O105 In104 2.294 . S
O105 C114 1.240 . S
O106 In104 2.326 . S
O106 C114 1.252 . S
C107 O110 1.252 . S
C107 O111 1.260 . S
C108 O115 1.240 . S
C108 O116 1.252 . S
C109 O112 1.252 . S
C109 O113 1.260 . S
O110 In104 2.266 . S
O110 C107 1.252 . S
O111 In104 2.326 . S
O111 C107 1.260 . S
O112 In104 2.266 . S
O112 C109 1.252 . S
O113 In104 2.326 . S
O113 C109 1.260 . S
C114 O105 1.240 . S
C114 O106 1.252 . S
O115 In104 2.294 . S
O115 C108 1.240 . S
O116 In104 2.326 . S
O116 C108 1.252 . S
In117 O118 2.294 . S
In117 O119 2.326 . S
In117 O123 2.266 . S
In117 O124 2.326 . S
In117 O125 2.266 . S
In117 O126 2.326 . S
In117 O128 2.294 . S
In117 O129 2.326 . S
O118 In117 2.294 . S
O118 C127 1.240 . S
O119 In117 2.326 . S
O119 C127 1.252 . S
C120 O123 1.252 . S
C120 O124 1.260 . S
C121 O128 1.240 . S
C121 O129 1.252 . S
C122 O125 1.252 . S
C122 O126 1.260 . S
O123 In117 2.266 . S
O123 C120 1.252 . S
O124 In117 2.326 . S
O124 C120 1.260 . S
O125 In117 2.266 . S
O125 C122 1.252 . S
O126 In117 2.326 . S
O126 C122 1.260 . S
C127 O118 1.240 . S
C127 O119 1.252 . S
O128 In117 2.294 . S
O128 C121 1.240 . S
O129 In117 2.326 . S
O129 C121 1.252 . S
In130 O131 2.294 . S
In130 O132 2.326 . S
In130 O136 2.266 . S
In130 O137 2.326 . S
In130 O138 2.266 . S
In130 O139 2.326 . S
In130 O141 2.294 . S
In130 O142 2.326 . S
O131 In130 2.294 . S
O131 C140 1.240 . S
O132 In130 2.326 . S
O132 C140 1.252 . S
C133 O136 1.252 . S
C133 O137 1.260 . S
C134 O141 1.240 . S
C134 O142 1.252 . S
C135 O138 1.252 . S
C135 O139 1.260 . S
O136 In130 2.266 . S
O136 C133 1.252 . S
O137 In130 2.326 . S
O137 C133 1.260 . S
O138 In130 2.266 . S
O138 C135 1.252 . S
O139 In130 2.326 . S
O139 C135 1.260 . S
C140 O131 1.240 . S
C140 O132 1.252 . S
O141 In130 2.294 . S
O141 C134 1.240 . S
O142 In130 2.326 . S
O142 C134 1.252 . S
In143 O144 2.294 . S
In143 O145 2.326 . S
In143 O149 2.266 . S
In143 O150 2.326 . S
In143 O151 2.266 . S
In143 O152 2.326 . S
In143 O154 2.294 . S
In143 O155 2.326 . S
O144 In143 2.294 . S
O144 C153 1.240 . S
O145 In143 2.326 . S
O145 C153 1.252 . S
C146 O149 1.252 . S
C146 O150 1.260 . S
C147 O154 1.240 . S
C147 O155 1.252 . S
C148 O151 1.252 . S
C148 O152 1.260 . S
O149 In143 2.266 . S
O149 C146 1.252 . S
O150 In143 2.326 . S
O150 C146 1.260 . S
O151 In143 2.266 . S
O151 C148 1.252 . S
O152 In143 2.326 . S
O152 C148 1.260 . S
C153 O144 1.240 . S
C153 O145 1.252 . S
O154 In143 2.294 . S
O154 C147 1.240 . S
O155 In143 2.326 . S
O155 C147 1.252 . S
In156 O157 2.294 . S
In156 O158 2.326 . S
In156 O162 2.266 . S
In156 O163 2.326 . S
In156 O164 2.266 . S
In156 O165 2.326 . S
In156 O167 2.294 . S
In156 O168 2.326 . S
O157 In156 2.294 . S
O157 C166 1.240 . S
O158 In156 2.326 . S
O158 C166 1.252 . S
C159 O162 1.252 . S
C159 O163 1.260 . S
C160 O167 1.240 . S
C160 O168 1.252 . S
C161 O164 1.252 . S
C161 O165 1.260 . S
O162 In156 2.266 . S
O162 C159 1.252 . S
O163 In156 2.326 . S
O163 C159 1.260 . S
O164 In156 2.266 . S
O164 C161 1.252 . S
O165 In156 2.326 . S
O165 C161 1.260 . S
C166 O157 1.240 . S
C166 O158 1.252 . S
O167 In156 2.294 . S
O167 C160 1.240 . S
O168 In156 2.326 . S
O168 C160 1.252 . S
In169 O170 2.294 . S
In169 O171 2.326 . S
In169 O175 2.266 . S
In169 O176 2.326 . S
In169 O177 2.266 . S
In169 O178 2.326 . S
In169 O180 2.294 . S
In169 O181 2.326 . S
O170 In169 2.294 . S
O170 C179 1.240 . S
O171 In169 2.326 . S
O171 C179 1.252 . S
C172 O175 1.252 . S
C172 O176 1.260 . S
C173 O180 1.240 . S
C173 O181 1.252 . S
C174 O177 1.252 . S
C174 O178 1.260 . S
O175 In169 2.266 . S
O175 C172 1.252 . S
O176 In169 2.326 . S
O176 C172 1.260 . S
O177 In169 2.266 . S
O177 C174 1.252 . S
O178 In169 2.326 . S
O178 C174 1.260 . S
C179 O170 1.240 . S
C179 O171 1.252 . S
O180 In169 2.294 . S
O180 C173 1.240 . S
O181 In169 2.326 . S
O181 C173 1.252 . S
In182 O183 2.294 . S
In182 O184 2.326 . S
In182 O188 2.266 . S
In182 O189 2.326 . S
In182 O190 2.266 . S
In182 O191 2.326 . S
In182 O193 2.294 . S
In182 O194 2.326 . S
O183 In182 2.294 . S
O183 C192 1.240 . S
O184 In182 2.326 . S
O184 C192 1.252 . S
C185 O188 1.252 . S
C185 O189 1.260 . S
C186 O193 1.240 . S
C186 O194 1.252 . S
C187 O190 1.252 . S
C187 O191 1.260 . S
O188 In182 2.266 . S
O188 C185 1.252 . S
O189 In182 2.326 . S
O189 C185 1.260 . S
O190 In182 2.266 . S
O190 C187 1.252 . S
O191 In182 2.326 . S
O191 C187 1.260 . S
C192 O183 1.240 . S
C192 O184 1.252 . S
O193 In182 2.294 . S
O193 C186 1.240 . S
O194 In182 2.326 . S
O194 C186 1.252 . S
In195 O196 2.294 . S
In195 O197 2.326 . S
In195 O201 2.266 . S
In195 O202 2.326 . S
In195 O203 2.266 . S
In195 O204 2.326 . S
In195 O206 2.294 . S
In195 O207 2.326 . S
O196 In195 2.294 . S
O196 C205 1.240 . S
O197 In195 2.326 . S
O197 C205 1.252 . S
C198 O201 1.252 . S
C198 O202 1.260 . S
C199 O206 1.240 . S
C199 O207 1.252 . S
C200 O203 1.252 . S
C200 O204 1.260 . S
O201 In195 2.266 . S
O201 C198 1.252 . S
O202 In195 2.326 . S
O202 C198 1.260 . S
O203 In195 2.266 . S
O203 C200 1.252 . S
O204 In195 2.326 . S
O204 C200 1.260 . S
C205 O196 1.240 . S
C205 O197 1.252 . S
O206 In195 2.294 . S
O206 C199 1.240 . S
O207 In195 2.326 . S
O207 C199 1.252 . S
In208 O209 2.294 . S
In208 O210 2.326 . S
In208 O214 2.266 . S
In208 O215 2.326 . S
In208 O216 2.266 . S
In208 O217 2.326 . S
In208 O219 2.294 . S
In208 O220 2.326 . S
O209 In208 2.294 . S
O209 C218 1.240 . S
O210 In208 2.326 . S
O210 C218 1.252 . S
C211 O214 1.252 . S
C211 O215 1.260 . S
C212 O219 1.240 . S
C212 O220 1.252 . S
C213 O216 1.252 . S
C213 O217 1.260 . S
O214 In208 2.266 . S
O214 C211 1.252 . S
O215 In208 2.326 . S
O215 C211 1.260 . S
O216 In208 2.266 . S
O216 C213 1.252 . S
O217 In208 2.326 . S
O217 C213 1.260 . S
C218 O209 1.240 . S
C218 O210 1.252 . S
O219 In208 2.294 . S
O219 C212 1.240 . S
O220 In208 2.326 . S
O220 C212 1.252 . S
In221 O222 2.294 . S
In221 O223 2.326 . S
In221 O227 2.266 . S
In221 O228 2.326 . S
In221 O229 2.266 . S
In221 O230 2.326 . S
In221 O232 2.294 . S
In221 O233 2.326 . S
O222 In221 2.294 . S
O222 C231 1.240 . S
O223 In221 2.326 . S
O223 C231 1.252 . S
C224 O227 1.252 . S
C224 O228 1.260 . S
C225 O232 1.240 . S
C225 O233 1.252 . S
C226 O229 1.252 . S
C226 O230 1.260 . S
O227 In221 2.266 . S
O227 C224 1.252 . S
O228 In221 2.326 . S
O228 C224 1.260 . S
O229 In221 2.266 . S
O229 C226 1.252 . S
O230 In221 2.326 . S
O230 C226 1.260 . S
C231 O222 1.240 . S
C231 O223 1.252 . S
O232 In221 2.294 . S
O232 C225 1.240 . S
O233 In221 2.326 . S
O233 C225 1.252 . S
In234 O235 2.294 . S
In234 O236 2.326 . S
In234 O240 2.266 . S
In234 O241 2.326 . S
In234 O242 2.266 . S
In234 O243 2.326 . S
In234 O245 2.294 . S
In234 O246 2.326 . S
O235 In234 2.294 . S
O235 C244 1.240 . S
O236 In234 2.326 . S
O236 C244 1.252 . S
C237 O240 1.252 . S
C237 O241 1.260 . S
C238 O245 1.240 . S
C238 O246 1.252 . S
C239 O242 1.252 . S
C239 O243 1.260 . S
O240 In234 2.266 . S
O240 C237 1.252 . S
O241 In234 2.326 . S
O241 C237 1.260 . S
O242 In234 2.266 . S
O242 C239 1.252 . S
O243 In234 2.326 . S
O243 C239 1.260 . S
C244 O235 1.240 . S
C244 O236 1.252 . S
O245 In234 2.294 . S
O245 C238 1.240 . S
O246 In234 2.326 . S
O246 C238 1.252 . S
In247 O248 2.294 . S
In247 O249 2.326 . S
In247 O253 2.266 . S
In247 O254 2.326 . S
In247 O255 2.266 . S
In247 O256 2.326 . S
In247 O258 2.294 . S
In247 O259 2.326 . S
O248 In247 2.294 . S
O248 C257 1.240 . S
O249 In247 2.326 . S
O249 C257 1.252 . S
C250 O253 1.252 . S
C250 O254 1.260 . S
C251 O258 1.240 . S
C251 O259 1.252 . S
C252 O255 1.252 . S
C252 O256 1.260 . S
O253 In247 2.266 . S
O253 C250 1.252 . S
O254 In247 2.326 . S
O254 C250 1.260 . S
O255 In247 2.266 . S
O255 C252 1.252 . S
O256 In247 2.326 . S
O256 C252 1.260 . S
C257 O248 1.240 . S
C257 O249 1.252 . S
O258 In247 2.294 . S
O258 C251 1.240 . S
O259 In247 2.326 . S
O259 C251 1.252 . S
In260 O261 2.294 . S
In260 O262 2.326 . S
In260 O266 2.266 . S
In260 O267 2.326 . S
In260 O268 2.266 . S
In260 O269 2.326 . S
In260 O271 2.294 . S
In260 O272 2.326 . S
O261 In260 2.294 . S
O261 C270 1.240 . S
O262 In260 2.326 . S
O262 C270 1.252 . S
C263 O266 1.252 . S
C263 O267 1.260 . S
C264 O271 1.240 . S
C264 O272 1.252 . S
C265 O268 1.252 . S
C265 O269 1.260 . S
O266 In260 2.266 . S
O266 C263 1.252 . S
O267 In260 2.326 . S
O267 C263 1.260 . S
O268 In260 2.266 . S
O268 C265 1.252 . S
O269 In260 2.326 . S
O269 C265 1.260 . S
C270 O261 1.240 . S
C270 O262 1.252 . S
O271 In260 2.294 . S
O271 C264 1.240 . S
O272 In260 2.326 . S
O272 C264 1.252 . S
In273 O274 2.294 . S
In273 O275 2.326 . S
In273 O279 2.266 . S
In273 O280 2.326 . S
In273 O281 2.266 . S
In273 O282 2.326 . S
In273 O284 2.294 . S
In273 O285 2.326 . S
O274 In273 2.294 . S
O274 C283 1.240 . S
O275 In273 2.326 . S
O275 C283 1.252 . S
C276 O279 1.252 . S
C276 O280 1.260 . S
C277 O284 1.240 . S
C277 O285 1.252 . S
C278 O281 1.252 . S
C278 O282 1.260 . S
O279 In273 2.266 . S
O279 C276 1.252 . S
O280 In273 2.326 . S
O280 C276 1.260 . S
O281 In273 2.266 . S
O281 C278 1.252 . S
O282 In273 2.326 . S
O282 C278 1.260 . S
C283 O274 1.240 . S
C283 O275 1.252 . S
O284 In273 2.294 . S
O284 C277 1.240 . S
O285 In273 2.326 . S
O285 C277 1.252 . S
In286 O287 2.294 . S
In286 O288 2.326 . S
In286 O292 2.266 . S
In286 O293 2.326 . S
In286 O294 2.266 . S
In286 O295 2.326 . S
In286 O297 2.294 . S
In286 O298 2.326 . S
O287 In286 2.294 . S
O287 C296 1.240 . S
O288 In286 2.326 . S
O288 C296 1.252 . S
C289 O292 1.252 . S
C289 O293 1.260 . S
C290 O297 1.240 . S
C290 O298 1.252 . S
C291 O294 1.252 . S
C291 O295 1.260 . S
O292 In286 2.266 . S
O292 C289 1.252 . S
O293 In286 2.326 . S
O293 C289 1.260 . S
O294 In286 2.266 . S
O294 C291 1.252 . S
O295 In286 2.326 . S
O295 C291 1.260 . S
C296 O287 1.240 . S
C296 O288 1.252 . S
O297 In286 2.294 . S
O297 C290 1.240 . S
O298 In286 2.326 . S
O298 C290 1.252 . S
In299 O300 2.294 . S
In299 O301 2.326 . S
In299 O305 2.266 . S
In299 O306 2.326 . S
In299 O307 2.266 . S
In299 O308 2.326 . S
In299 O310 2.294 . S
In299 O311 2.326 . S
O300 In299 2.294 . S
O300 C309 1.240 . S
O301 In299 2.326 . S
O301 C309 1.252 . S
C302 O305 1.252 . S
C302 O306 1.260 . S
C303 O310 1.240 . S
C303 O311 1.252 . S
C304 O307 1.252 . S
C304 O308 1.260 . S
O305 In299 2.266 . S
O305 C302 1.252 . S
O306 In299 2.326 . S
O306 C302 1.260 . S
O307 In299 2.266 . S
O307 C304 1.252 . S
O308 In299 2.326 . S
O308 C304 1.260 . S
C309 O300 1.240 . S
C309 O301 1.252 . S
O310 In299 2.294 . S
O310 C303 1.240 . S
O311 In299 2.326 . S
O311 C303 1.252 . S
C312 C313 1.391 . S
C312 C314 1.394 . S
C312 H328 0.931 . S
C313 C312 1.391 . S
C313 C317 1.376 . S
C314 C312 1.394 . S
C314 C315 1.369 . S
C314 C318 1.531 . S
C315 C314 1.369 . S
C315 C316 1.410 . S
C315 C323 1.503 1_545 S
C316 C315 1.410 . S
C316 C317 1.392 . S
C316 C319 1.511 . S
C317 C313 1.376 . S
C317 C316 1.392 . S
C317 H329 0.929 . S
C318 C314 1.531 . S
C318 H330 0.960 1_545 S
C318 H331 0.962 . S
C318 H332 0.960 . S
C319 C316 1.511 . S
C319 H333 0.961 . S
C319 H334 0.961 . S
C319 H335 0.961 . S
C320 C321 1.370 . S
C320 C322 1.363 . S
C320 H336 0.931 . S
C321 C320 1.370 . S
C321 C325 1.408 . S
C322 C320 1.363 . S
C322 C323 1.370 . S
C322 C326 1.524 1_565 S
C323 C315 1.503 1_565 S
C323 C322 1.370 . S
C323 C324 1.403 . S
C324 C323 1.403 . S
C324 C325 1.404 . S
C324 C327 1.539 . S
C325 C321 1.408 . S
C325 C324 1.404 . S
C325 H337 0.930 . S
C326 C322 1.524 1_545 S
C326 H338 0.956 . S
C326 H339 0.961 . S
C326 H340 0.961 1_545 S
C327 C324 1.539 . S
C327 H341 0.958 . S
C327 H342 0.961 . S
C327 H343 0.960 . S
H328 C312 0.931 . S
H329 C317 0.929 . S
H330 C318 0.960 1_565 S
H331 C318 0.962 . S
H332 C318 0.960 . S
H333 C319 0.961 . S
H334 C319 0.961 . S
H335 C319 0.961 . S
H336 C320 0.931 . S
H337 C325 0.930 . S
H338 C326 0.956 . S
H339 C326 0.961 . S
H340 C326 0.961 1_565 S
H341 C327 0.958 . S
H342 C327 0.961 . S
H343 C327 0.960 . S
C344 C345 1.391 . S
C344 C346 1.394 . S
C344 H360 0.931 . S
C345 C344 1.391 . S
C345 C349 1.376 . S
C346 C344 1.394 . S
C346 C347 1.369 . S
C346 C350 1.531 . S
C347 C346 1.369 . S
C347 C348 1.410 . S
C347 C355 1.503 . S
C348 C347 1.410 . S
C348 C349 1.392 . S
C348 C351 1.511 . S
C349 C345 1.376 . S
C349 C348 1.392 . S
C349 H361 0.929 . S
C350 C346 1.531 . S
C350 H362 0.960 . S
C350 H363 0.962 . S
C350 H364 0.960 . S
C351 C348 1.511 . S
C351 H365 0.961 . S
C351 H366 0.961 . S
C351 H367 0.961 . S
C352 C353 1.370 . S
C352 C354 1.363 . S
C352 H368 0.931 . S
C353 C352 1.370 . S
C353 C357 1.408 . S
C354 C352 1.363 . S
C354 C355 1.370 . S
C354 C358 1.524 . S
C355 C347 1.503 . S
C355 C354 1.370 . S
C355 C356 1.403 . S
C356 C355 1.403 . S
C356 C357 1.404 . S
C356 C359 1.539 . S
C357 C353 1.408 . S
C357 C356 1.404 . S
C357 H369 0.930 . S
C358 C354 1.524 . S
C358 H370 0.956 . S
C358 H371 0.961 . S
C358 H372 0.961 . S
C359 C356 1.539 . S
C359 H373 0.958 . S
C359 H374 0.961 . S
C359 H375 0.960 . S
H360 C344 0.931 . S
H361 C349 0.929 . S
H362 C350 0.960 . S
H363 C350 0.962 . S
H364 C350 0.960 . S
H365 C351 0.961 . S
H366 C351 0.961 . S
H367 C351 0.961 . S
H368 C352 0.931 . S
H369 C357 0.930 . S
H370 C358 0.956 . S
H371 C358 0.961 . S
H372 C358 0.961 . S
H373 C359 0.958 . S
H374 C359 0.961 . S
H375 C359 0.960 . S
C376 C377 1.391 . S
C376 C378 1.394 . S
C376 H392 0.931 . S
C377 C376 1.391 . S
C377 C381 1.376 . S
C378 C376 1.394 . S
C378 C379 1.369 . S
C378 C382 1.531 . S
C379 C378 1.369 . S
C379 C380 1.410 . S
C379 C387 1.503 1_655 S
C380 C379 1.410 . S
C380 C381 1.392 . S
C380 C383 1.507 1_655 S
C381 C377 1.376 . S
C381 C380 1.392 . S
C381 H393 0.929 . S
C382 C378 1.531 . S
C382 H394 0.960 . S
C382 H395 0.962 . S
C382 H396 0.960 . S
C383 C380 1.507 1_455 S
C383 H397 0.960 1_455 S
C383 H398 0.964 . S
C383 H399 0.946 . S
C384 C385 1.370 . S
C384 C386 1.363 . S
C384 H400 0.931 . S
C385 C384 1.370 . S
C385 C389 1.408 . S
C386 C384 1.363 . S
C386 C387 1.370 . S
C386 C390 1.524 . S
C387 C379 1.503 1_455 S
C387 C386 1.370 . S
C387 C388 1.403 . S
C388 C387 1.403 . S
C388 C389 1.404 . S
C388 C391 1.539 . S
C389 C385 1.408 . S
C389 C388 1.404 . S
C389 H401 0.930 . S
C390 C386 1.524 . S
C390 H402 0.956 . S
C390 H403 0.961 . S
C390 H404 0.961 . S
C391 C388 1.539 . S
C391 H405 0.958 1_455 S
C391 H406 0.961 . S
C391 H407 0.960 1_455 S
H392 C376 0.931 . S
H393 C381 0.929 . S
H394 C382 0.960 . S
H395 C382 0.962 . S
H396 C382 0.960 . S
H397 C383 0.960 1_655 S
H398 C383 0.964 . S
H399 C383 0.946 . S
H400 C384 0.931 . S
H401 C389 0.930 . S
H402 C390 0.956 . S
H403 C390 0.961 . S
H404 C390 0.961 . S
H405 C391 0.958 1_655 S
H406 C391 0.961 . S
H407 C391 0.960 1_655 S
C408 C409 1.391 . S
C408 C410 1.394 . S
C408 H424 0.931 . S
C409 C408 1.391 . S
C409 C413 1.376 . S
C410 C408 1.394 . S
C410 C411 1.369 . S
C410 C414 1.531 1_565 S
C411 C410 1.369 . S
C411 C412 1.410 . S
C411 C419 1.503 1_565 S
C412 C411 1.410 . S
C412 C413 1.392 . S
C412 C415 1.511 . S
C413 C409 1.376 . S
C413 C412 1.392 . S
C413 H425 0.929 . S
C414 C410 1.531 1_545 S
C414 H426 0.960 . S
C414 H427 0.962 . S
C414 H428 0.960 1_545 S
C415 C412 1.511 . S
C415 H429 0.961 . S
C415 H430 0.961 . S
C415 H431 0.961 . S
C416 C417 1.370 . S
C416 C418 1.363 . S
C416 H432 0.931 . S
C417 C416 1.370 . S
C417 C421 1.408 . S
C418 C416 1.363 . S
C418 C419 1.370 . S
C418 C422 1.524 . S
C419 C411 1.503 1_545 S
C419 C418 1.370 . S
C419 C420 1.403 . S
C420 C419 1.403 . S
C420 C421 1.404 . S
C420 C423 1.539 . S
C421 C417 1.408 . S
C421 C420 1.404 . S
C421 H433 0.930 . S
C422 C418 1.524 . S
C422 H434 0.956 1_545 S
C422 H435 0.961 1_545 S
C422 H436 0.961 . S
C423 C420 1.539 . S
C423 H437 0.958 . S
C423 H438 0.961 . S
C423 H439 0.960 . S
H424 C408 0.931 . S
H425 C413 0.929 . S
H426 C414 0.960 . S
H427 C414 0.962 . S
H428 C414 0.960 1_565 S
H429 C415 0.961 . S
H430 C415 0.961 . S
H431 C415 0.961 . S
H432 C416 0.931 . S
H433 C421 0.930 . S
H434 C422 0.956 1_565 S
H435 C422 0.961 1_565 S
H436 C422 0.961 . S
H437 C423 0.958 . S
H438 C423 0.961 . S
H439 C423 0.960 . S
C440 C441 1.391 . S
C440 C442 1.394 . S
C440 H456 0.931 . S
C441 C440 1.391 . S
C441 C445 1.376 . S
C442 C440 1.394 . S
C442 C443 1.369 . S
C442 C446 1.531 . S
C443 C442 1.369 . S
C443 C444 1.410 . S
C443 C451 1.503 . S
C444 C443 1.410 . S
C444 C445 1.392 . S
C444 C447 1.511 . S
C445 C441 1.376 . S
C445 C444 1.392 . S
C445 H457 0.929 . S
C446 C442 1.531 . S
C446 H458 0.960 . S
C446 H459 0.962 . S
C446 H460 0.960 . S
C447 C444 1.511 . S
C447 H461 0.961 . S
C447 H462 0.961 . S
C447 H463 0.961 . S
C448 C449 1.370 . S
C448 C450 1.363 . S
C448 H464 0.931 . S
C449 C448 1.370 . S
C449 C453 1.408 . S
C450 C448 1.363 . S
C450 C451 1.370 . S
C450 C454 1.524 . S
C451 C443 1.503 . S
C451 C450 1.370 . S
C451 C452 1.403 . S
C452 C451 1.403 . S
C452 C453 1.404 . S
C452 C455 1.539 . S
C453 C449 1.408 . S
C453 C452 1.404 . S
C453 H465 0.930 . S
C454 C450 1.524 . S
C454 H466 0.956 . S
C454 H467 0.961 . S
C454 H468 0.961 . S
C455 C452 1.539 . S
C455 H469 0.958 . S
C455 H470 0.961 . S
C455 H471 0.960 . S
H456 C440 0.931 . S
H457 C445 0.929 . S
H458 C446 0.960 . S
H459 C446 0.962 . S
H460 C446 0.960 . S
H461 C447 0.961 . S
H462 C447 0.961 . S
H463 C447 0.961 . S
H464 C448 0.931 . S
H465 C453 0.930 . S
H466 C454 0.956 . S
H467 C454 0.961 . S
H468 C454 0.961 . S
H469 C455 0.958 . S
H470 C455 0.961 . S
H471 C455 0.960 . S
C472 C473 1.391 . S
C472 C474 1.394 . S
C472 H488 0.931 . S
C473 C472 1.391 . S
C473 C477 1.376 . S
C474 C472 1.394 . S
C474 C475 1.369 . S
C474 C478 1.546 . S
C475 C474 1.369 . S
C475 C476 1.410 . S
C475 C483 1.503 1_455 S
C476 C475 1.410 . S
C476 C477 1.392 . S
C476 C479 1.511 . S
C477 C473 1.376 . S
C477 C476 1.392 . S
C477 H489 0.929 . S
C478 C474 1.546 . S
C478 H490 0.942 1_455 S
C478 H491 0.930 1_455 S
C478 H492 0.997 . S
C479 C476 1.511 . S
C479 H493 0.961 . S
C479 H494 0.961 . S
C479 H495 0.961 . S
C480 C481 1.370 . S
C480 C482 1.363 . S
C480 H496 0.931 . S
C481 C480 1.370 . S
C481 C485 1.408 . S
C482 C480 1.363 . S
C482 C483 1.370 . S
C482 C486 1.524 . S
C483 C475 1.503 1_655 S
C483 C482 1.370 . S
C483 C484 1.403 . S
C484 C483 1.403 . S
C484 C485 1.404 . S
C484 C487 1.539 . S
C485 C481 1.408 . S
C485 C484 1.404 . S
C485 H497 0.930 . S
C486 C482 1.524 . S
C486 H498 0.956 . S
C486 H499 0.961 . S
C486 H500 0.961 . S
C487 C484 1.539 . S
C487 H501 0.958 . S
C487 H502 0.961 . S
C487 H503 0.960 1_655 S
H488 C472 0.931 . S
H489 C477 0.929 . S
H490 C478 0.942 1_655 S
H491 C478 0.930 1_655 S
H492 C478 0.997 . S
H493 C479 0.961 . S
H494 C479 0.961 . S
H495 C479 0.961 . S
H496 C480 0.931 . S
H497 C485 0.930 . S
H498 C486 0.956 . S
H499 C486 0.961 . S
H500 C486 0.961 . S
H501 C487 0.958 . S
H502 C487 0.961 . S
H503 C487 0.960 1_455 S
C504 C505 1.391 . S
C504 C506 1.394 . S
C504 H520 0.931 . S
C505 C504 1.391 . S
C505 C509 1.376 . S
C506 C504 1.394 . S
C506 C507 1.369 . S
C506 C510 1.531 . S
C507 C506 1.369 . S
C507 C508 1.410 . S
C507 C515 1.503 1_565 S
C508 C507 1.410 . S
C508 C509 1.392 . S
C508 C511 1.511 . S
C509 C505 1.376 . S
C509 C508 1.392 . S
C509 H521 0.929 . S
C510 C506 1.531 . S
C510 H522 0.960 1_565 S
C510 H523 0.962 . S
C510 H524 0.960 . S
C511 C508 1.511 . S
C511 H525 0.961 . S
C511 H526 0.961 . S
C511 H527 0.961 . S
C512 C513 1.370 . S
C512 C514 1.363 . S
C512 H528 0.931 . S
C513 C512 1.370 . S
C513 C517 1.408 . S
C514 C512 1.363 . S
C514 C515 1.370 . S
C514 C518 1.524 1_545 S
C515 C507 1.503 1_545 S
C515 C514 1.370 . S
C515 C516 1.403 . S
C516 C515 1.403 . S
C516 C517 1.404 . S
C516 C519 1.539 . S
C517 C513 1.408 . S
C517 C516 1.404 . S
C517 H529 0.930 . S
C518 C514 1.524 1_565 S
C518 H530 0.956 . S
C518 H531 0.961 . S
C518 H532 0.961 1_565 S
C519 C516 1.539 . S
C519 H533 0.958 . S
C519 H534 0.961 . S
C519 H535 0.960 . S
H520 C504 0.931 . S
H521 C509 0.929 . S
H522 C510 0.960 1_545 S
H523 C510 0.962 . S
H524 C510 0.960 . S
H525 C511 0.961 . S
H526 C511 0.961 . S
H527 C511 0.961 . S
H528 C512 0.931 . S
H529 C517 0.930 . S
H530 C518 0.956 . S
H531 C518 0.961 . S
H532 C518 0.961 1_545 S
H533 C519 0.958 . S
H534 C519 0.961 . S
H535 C519 0.960 . S
C536 C537 1.391 . S
C536 C538 1.394 . S
C536 H552 0.931 . S
C537 C536 1.391 . S
C537 C541 1.376 . S
C538 C536 1.394 . S
C538 C539 1.369 . S
C538 C542 1.531 . S
C539 C538 1.369 . S
C539 C540 1.410 . S
C539 C547 1.503 . S
C540 C539 1.410 . S
C540 C541 1.392 . S
C540 C543 1.511 . S
C541 C537 1.376 . S
C541 C540 1.392 . S
C541 H553 0.929 . S
C542 C538 1.531 . S
C542 H554 0.960 . S
C542 H555 0.962 . S
C542 H556 0.960 . S
C543 C540 1.511 . S
C543 H557 0.961 . S
C543 H558 0.961 . S
C543 H559 0.961 . S
C544 C545 1.370 . S
C544 C546 1.363 . S
C544 H560 0.931 . S
C545 C544 1.370 . S
C545 C549 1.408 . S
C546 C544 1.363 . S
C546 C547 1.370 . S
C546 C550 1.524 . S
C547 C539 1.503 . S
C547 C546 1.370 . S
C547 C548 1.403 . S
C548 C547 1.403 . S
C548 C549 1.404 . S
C548 C551 1.539 . S
C549 C545 1.408 . S
C549 C548 1.404 . S
C549 H561 0.930 . S
C550 C546 1.524 . S
C550 H562 0.956 . S
C550 H563 0.961 . S
C550 H564 0.961 . S
C551 C548 1.539 . S
C551 H565 0.958 . S
C551 H566 0.961 . S
C551 H567 0.960 . S
H552 C536 0.931 . S
H553 C541 0.929 . S
H554 C542 0.960 . S
H555 C542 0.962 . S
H556 C542 0.960 . S
H557 C543 0.961 . S
H558 C543 0.961 . S
H559 C543 0.961 . S
H560 C544 0.931 . S
H561 C549 0.930 . S
H562 C550 0.956 . S
H563 C550 0.961 . S
H564 C550 0.961 . S
H565 C551 0.958 . S
H566 C551 0.961 . S
H567 C551 0.960 . S
C568 C569 1.391 . S
C568 C570 1.394 . S
C568 H584 0.931 . S
C569 C568 1.391 . S
C569 C573 1.376 . S
C570 C568 1.394 . S
C570 C571 1.369 . S
C570 C574 1.531 . S
C571 C570 1.369 . S
C571 C572 1.410 . S
C571 C579 1.503 1_655 S
C572 C571 1.410 . S
C572 C573 1.392 . S
C572 C575 1.511 . S
C573 C569 1.376 . S
C573 C572 1.392 . S
C573 H585 0.929 . S
C574 C570 1.531 . S
C574 H586 0.960 1_655 S
C574 H587 0.962 . S
C574 H588 0.960 . S
C575 C572 1.511 . S
C575 H589 0.961 . S
C575 H590 0.961 . S
C575 H591 0.961 . S
C576 C577 1.370 . S
C576 C578 1.363 . S
C576 H592 0.931 . S
C577 C576 1.370 . S
C577 C581 1.408 . S
C578 C576 1.363 . S
C578 C579 1.370 . S
C578 C582 1.524 1_455 S
C579 C571 1.503 1_455 S
C579 C578 1.370 . S
C579 C580 1.403 . S
C580 C579 1.403 . S
C580 C581 1.404 . S
C580 C583 1.539 . S
C581 C577 1.408 . S
C581 C580 1.404 . S
C581 H593 0.930 . S
C582 C578 1.524 1_655 S
C582 H594 0.956 . S
C582 H595 0.961 . S
C582 H596 0.961 1_655 S
C583 C580 1.539 . S
C583 H597 0.958 . S
C583 H598 0.961 . S
C583 H599 0.960 . S
H584 C568 0.931 . S
H585 C573 0.929 . S
H586 C574 0.960 1_455 S
H587 C574 0.962 . S
H588 C574 0.960 . S
H589 C575 0.961 . S
H590 C575 0.961 . S
H591 C575 0.961 . S
H592 C576 0.931 . S
H593 C581 0.930 . S
H594 C582 0.956 . S
H595 C582 0.961 . S
H596 C582 0.961 1_455 S
H597 C583 0.958 . S
H598 C583 0.961 . S
H599 C583 0.960 . S
C600 C601 1.391 . S
C600 C602 1.394 . S
C600 H616 0.931 . S
C601 C600 1.391 . S
C601 C605 1.376 . S
C602 C600 1.394 . S
C602 C603 1.369 . S
C602 C606 1.531 . S
C603 C602 1.369 . S
C603 C604 1.410 . S
C603 C611 1.503 1_545 S
C604 C603 1.410 . S
C604 C605 1.392 . S
C604 C607 1.523 . S
C605 C601 1.376 . S
C605 C604 1.392 . S
C605 H617 0.929 . S
C606 C602 1.531 . S
C606 H618 0.960 . S
C606 H619 0.962 . S
C606 H620 0.960 . S
C607 C604 1.523 . S
C607 H621 1.004 . S
C607 H622 0.937 1_545 S
C607 H623 0.933 1_545 S
C608 C609 1.370 . S
C608 C610 1.363 . S
C608 H624 0.931 . S
C609 C608 1.370 . S
C609 C613 1.408 . S
C610 C608 1.363 . S
C610 C611 1.370 . S
C610 C614 1.524 1_565 S
C611 C603 1.503 1_565 S
C611 C610 1.370 . S
C611 C612 1.403 . S
C612 C611 1.403 . S
C612 C613 1.404 . S
C612 C615 1.539 . S
C613 C609 1.408 . S
C613 C612 1.404 . S
C613 H625 0.930 . S
C614 C610 1.524 1_545 S
C614 H626 0.956 . S
C614 H627 0.961 . S
C614 H628 0.961 1_545 S
C615 C612 1.539 . S
C615 H629 0.958 . S
C615 H630 0.961 . S
C615 H631 0.960 . S
H616 C600 0.931 . S
H617 C605 0.929 . S
H618 C606 0.960 . S
H619 C606 0.962 . S
H620 C606 0.960 . S
H621 C607 1.004 . S
H622 C607 0.937 1_565 S
H623 C607 0.933 1_565 S
H624 C608 0.931 . S
H625 C613 0.930 . S
H626 C614 0.956 . S
H627 C614 0.961 . S
H628 C614 0.961 1_565 S
H629 C615 0.958 . S
H630 C615 0.961 . S
H631 C615 0.960 . S
C632 C633 1.391 . S
C632 C634 1.394 . S
C632 H648 0.931 . S
C633 C632 1.391 . S
C633 C637 1.376 . S
C634 C632 1.394 . S
C634 C635 1.369 . S
C634 C638 1.531 . S
C635 C634 1.369 . S
C635 C636 1.410 . S
C635 C643 1.503 . S
C636 C635 1.410 . S
C636 C637 1.392 . S
C636 C639 1.511 . S
C637 C633 1.376 . S
C637 C636 1.392 . S
C637 H649 0.929 . S
C638 C634 1.531 . S
C638 H650 0.960 . S
C638 H651 0.962 . S
C638 H652 0.960 . S
C639 C636 1.511 . S
C639 H653 0.961 . S
C639 H654 0.961 . S
C639 H655 0.961 . S
C640 C641 1.370 . S
C640 C642 1.363 . S
C640 H656 0.931 . S
C641 C640 1.370 . S
C641 C645 1.408 . S
C642 C640 1.363 . S
C642 C643 1.370 . S
C642 C646 1.524 . S
C643 C635 1.503 . S
C643 C642 1.370 . S
C643 C644 1.403 . S
C644 C643 1.403 . S
C644 C645 1.404 . S
C644 C647 1.539 . S
C645 C641 1.408 . S
C645 C644 1.404 . S
C645 H657 0.930 . S
C646 C642 1.524 . S
C646 H658 0.956 . S
C646 H659 0.961 . S
C646 H660 0.961 . S
C647 C644 1.539 . S
C647 H661 0.958 . S
C647 H662 0.961 . S
C647 H663 0.960 . S
H648 C632 0.931 . S
H649 C637 0.929 . S
H650 C638 0.960 . S
H651 C638 0.962 . S
H652 C638 0.960 . S
H653 C639 0.961 . S
H654 C639 0.961 . S
H655 C639 0.961 . S
H656 C640 0.931 . S
H657 C645 0.930 . S
H658 C646 0.956 . S
H659 C646 0.961 . S
H660 C646 0.961 . S
H661 C647 0.958 . S
H662 C647 0.961 . S
H663 C647 0.960 . S
C664 C665 1.391 . S
C664 C666 1.394 . S
C664 H680 0.931 . S
C665 C664 1.391 . S
C665 C669 1.376 . S
C666 C664 1.394 . S
C666 C667 1.369 . S
C666 C670 1.531 . S
C667 C666 1.369 . S
C667 C668 1.410 . S
C667 C675 1.503 1_455 S
C668 C667 1.410 . S
C668 C669 1.392 . S
C668 C671 1.511 . S
C669 C665 1.376 . S
C669 C668 1.392 . S
C669 H681 0.929 . S
C670 C666 1.531 . S
C670 H682 0.960 1_455 S
C670 H683 0.962 . S
C670 H684 0.960 . S
C671 C668 1.511 . S
C671 H685 0.961 . S
C671 H686 0.961 1_455 S
C671 H687 0.963 . S
C672 C673 1.370 . S
C672 C674 1.363 . S
C672 H688 0.931 . S
C673 C672 1.370 . S
C673 C677 1.408 . S
C674 C672 1.363 . S
C674 C675 1.370 . S
C674 C678 1.524 1_655 S
C675 C667 1.503 1_655 S
C675 C674 1.370 . S
C675 C676 1.403 . S
C676 C675 1.403 . S
C676 C677 1.404 . S
C676 C679 1.539 . S
C677 C673 1.408 . S
C677 C676 1.404 . S
C677 H689 0.930 . S
C678 C674 1.524 1_455 S
C678 H690 0.956 . S
C678 H691 0.961 . S
C678 H692 0.959 1_455 S
C679 C676 1.539 . S
C679 H693 0.958 . S
C679 H694 0.961 . S
C679 H695 0.960 . S
H680 C664 0.931 . S
H681 C669 0.929 . S
H682 C670 0.960 1_655 S
H683 C670 0.962 . S
H684 C670 0.960 . S
H685 C671 0.961 . S
H686 C671 0.961 1_655 S
H687 C671 0.963 . S
H688 C672 0.931 . S
H689 C677 0.930 . S
H690 C678 0.956 . S
H691 C678 0.961 . S
H692 C678 0.959 1_655 S
H693 C679 0.958 . S
H694 C679 0.961 . S
H695 C679 0.960 . S
C696 C697 1.391 . S
C696 C698 1.394 . S
C696 H712 0.931 . S
C697 C696 1.391 . S
C697 C701 1.376 . S
C698 C696 1.394 . S
C698 C699 1.369 . S
C698 C702 1.531 . S
C699 C698 1.369 . S
C699 C700 1.410 . S
C699 C707 1.503 . S
C700 C699 1.410 . S
C700 C701 1.392 . S
C700 C703 1.511 . S
C701 C697 1.376 . S
C701 C700 1.392 . S
C701 H713 0.929 . S
C702 C698 1.531 . S
C702 H714 0.960 . S
C702 H715 0.962 . S
C702 H716 0.960 . S
C703 C700 1.511 . S
C703 H717 0.961 . S
C703 H718 0.961 . S
C703 H719 0.961 . S
C704 C705 1.370 . S
C704 C706 1.363 . S
C704 H720 0.931 . S
C705 C704 1.370 . S
C705 C709 1.408 . S
C706 C704 1.363 . S
C706 C707 1.370 . S
C706 C710 1.524 . S
C707 C699 1.503 . S
C707 C706 1.370 . S
C707 C708 1.403 . S
C708 C707 1.403 . S
C708 C709 1.404 . S
C708 C711 1.539 . S
C709 C705 1.408 . S
C709 C708 1.404 . S
C709 H721 0.930 . S
C710 C706 1.524 . S
C710 H722 0.956 . S
C710 H723 0.961 . S
C710 H724 0.961 . S
C711 C708 1.539 . S
C711 H725 0.958 . S
C711 H726 0.961 . S
C711 H727 0.960 . S
H712 C696 0.931 . S
H713 C701 0.929 . S
H714 C702 0.960 . S
H715 C702 0.962 . S
H716 C702 0.960 . S
H717 C703 0.961 . S
H718 C703 0.961 . S
H719 C703 0.961 . S
H720 C704 0.931 . S
H721 C709 0.930 . S
H722 C710 0.956 . S
H723 C710 0.961 . S
H724 C710 0.961 . S
H725 C711 0.958 . S
H726 C711 0.961 . S
H727 C711 0.960 . S
C728 C729 1.391 . S
C728 C730 1.394 . S
C728 H744 0.931 . S
C729 C728 1.391 . S
C729 C733 1.376 . S
C730 C728 1.394 . S
C730 C731 1.369 . S
C730 C734 1.531 . S
C731 C730 1.369 . S
C731 C732 1.410 . S
C731 C739 1.503 . S
C732 C731 1.410 . S
C732 C733 1.392 . S
C732 C735 1.511 . S
C733 C729 1.376 . S
C733 C732 1.392 . S
C733 H745 0.929 . S
C734 C730 1.531 . S
C734 H746 0.960 . S
C734 H747 0.962 . S
C734 H748 0.960 . S
C735 C732 1.511 . S
C735 H749 0.961 . S
C735 H750 0.961 . S
C735 H751 0.961 . S
C736 C737 1.370 . S
C736 C738 1.363 . S
C736 H752 0.931 . S
C737 C736 1.370 . S
C737 C741 1.408 . S
C738 C736 1.363 . S
C738 C739 1.370 . S
C738 C742 1.524 . S
C739 C731 1.503 . S
C739 C738 1.370 . S
C739 C740 1.403 . S
C740 C739 1.403 . S
C740 C741 1.404 . S
C740 C743 1.539 . S
C741 C737 1.408 . S
C741 C740 1.404 . S
C741 H753 0.930 . S
C742 C738 1.524 . S
C742 H754 0.956 . S
C742 H755 0.961 . S
C742 H756 0.961 . S
C743 C740 1.539 . S
C743 H757 0.958 . S
C743 H758 0.961 . S
C743 H759 0.960 . S
H744 C728 0.931 . S
H745 C733 0.929 . S
H746 C734 0.960 . S
H747 C734 0.962 . S
H748 C734 0.960 . S
H749 C735 0.961 . S
H750 C735 0.961 . S
H751 C735 0.961 . S
H752 C736 0.931 . S
H753 C741 0.930 . S
H754 C742 0.956 . S
H755 C742 0.961 . S
H756 C742 0.961 . S
H757 C743 0.958 . S
H758 C743 0.961 . S
H759 C743 0.960 . S
C760 C761 1.391 . S
C760 C762 1.394 . S
C760 H776 0.931 . S
C761 C760 1.391 . S
C761 C765 1.376 . S
C762 C760 1.394 . S
C762 C763 1.369 . S
C762 C766 1.531 . S
C763 C762 1.369 . S
C763 C764 1.410 . S
C763 C771 1.503 . S
C764 C763 1.410 . S
C764 C765 1.392 . S
C764 C767 1.511 . S
C765 C761 1.376 . S
C765 C764 1.392 . S
C765 H777 0.929 . S
C766 C762 1.531 . S
C766 H778 0.960 . S
C766 H779 0.962 . S
C766 H780 0.960 . S
C767 C764 1.511 . S
C767 H781 0.961 . S
C767 H782 0.961 . S
C767 H783 0.961 . S
C768 C769 1.370 . S
C768 C770 1.363 . S
C768 H784 0.931 . S
C769 C768 1.370 . S
C769 C773 1.408 . S
C770 C768 1.363 . S
C770 C771 1.370 . S
C770 C774 1.524 . S
C771 C763 1.503 . S
C771 C770 1.370 . S
C771 C772 1.403 . S
C772 C771 1.403 . S
C772 C773 1.404 . S
C772 C775 1.539 . S
C773 C769 1.408 . S
C773 C772 1.404 . S
C773 H785 0.930 . S
C774 C770 1.524 . S
C774 H786 0.956 . S
C774 H787 0.961 . S
C774 H788 0.961 . S
C775 C772 1.539 . S
C775 H789 0.958 . S
C775 H790 0.961 . S
C775 H791 0.960 . S
H776 C760 0.931 . S
H777 C765 0.929 . S
H778 C766 0.960 . S
H779 C766 0.962 . S
H780 C766 0.960 . S
H781 C767 0.961 . S
H782 C767 0.961 . S
H783 C767 0.961 . S
H784 C768 0.931 . S
H785 C773 0.930 . S
H786 C774 0.956 . S
H787 C774 0.961 . S
H788 C774 0.961 . S
H789 C775 0.958 . S
H790 C775 0.961 . S
H791 C775 0.960 . S
C792 C793 1.391 . S
C792 C794 1.394 . S
C792 H808 0.931 . S
C793 C792 1.391 . S
C793 C797 1.376 . S
C794 C792 1.394 . S
C794 C795 1.369 . S
C794 C798 1.531 . S
C795 C794 1.369 . S
C795 C796 1.410 . S
C795 C803 1.503 . S
C796 C795 1.410 . S
C796 C797 1.392 . S
C796 C799 1.511 . S
C797 C793 1.376 . S
C797 C796 1.392 . S
C797 H809 0.929 . S
C798 C794 1.531 . S
C798 H810 0.960 . S
C798 H811 0.962 . S
C798 H812 0.960 . S
C799 C796 1.511 . S
C799 H813 0.961 . S
C799 H814 0.961 . S
C799 H815 0.961 . S
C800 C801 1.370 . S
C800 C802 1.363 . S
C800 H816 0.931 . S
C801 C800 1.370 . S
C801 C805 1.408 . S
C802 C800 1.363 . S
C802 C803 1.370 . S
C802 C806 1.524 . S
C803 C795 1.503 . S
C803 C802 1.370 . S
C803 C804 1.403 . S
C804 C803 1.403 . S
C804 C805 1.404 . S
C804 C807 1.539 . S
C805 C801 1.408 . S
C805 C804 1.404 . S
C805 H817 0.930 . S
C806 C802 1.524 . S
C806 H818 0.956 . S
C806 H819 0.961 . S
C806 H820 0.961 . S
C807 C804 1.539 . S
C807 H821 0.958 . S
C807 H822 0.961 . S
C807 H823 0.960 . S
H808 C792 0.931 . S
H809 C797 0.929 . S
H810 C798 0.960 . S
H811 C798 0.962 . S
H812 C798 0.960 . S
H813 C799 0.961 . S
H814 C799 0.961 . S
H815 C799 0.961 . S
H816 C800 0.931 . S
H817 C805 0.930 . S
H818 C806 0.956 . S
H819 C806 0.961 . S
H820 C806 0.961 . S
H821 C807 0.958 . S
H822 C807 0.961 . S
H823 C807 0.960 . S
C824 C825 1.391 . S
C824 C826 1.394 . S
C824 H840 0.931 . S
C825 C824 1.391 . S
C825 C829 1.376 . S
C826 C824 1.394 . S
C826 C827 1.369 . S
C826 C830 1.531 . S
C827 C826 1.369 . S
C827 C828 1.410 . S
C827 C835 1.503 . S
C828 C827 1.410 . S
C828 C829 1.392 . S
C828 C831 1.511 . S
C829 C825 1.376 . S
C829 C828 1.392 . S
C829 H841 0.929 . S
C830 C826 1.531 . S
C830 H842 0.960 . S
C830 H843 0.962 . S
C830 H844 0.960 . S
C831 C828 1.511 . S
C831 H845 0.961 . S
C831 H846 0.961 . S
C831 H847 0.961 . S
C832 C833 1.370 . S
C832 C834 1.363 . S
C832 H848 0.931 . S
C833 C832 1.370 . S
C833 C837 1.408 . S
C834 C832 1.363 . S
C834 C835 1.370 . S
C834 C838 1.524 . S
C835 C827 1.503 . S
C835 C834 1.370 . S
C835 C836 1.403 . S
C836 C835 1.403 . S
C836 C837 1.404 . S
C836 C839 1.539 . S
C837 C833 1.408 . S
C837 C836 1.404 . S
C837 H849 0.930 . S
C838 C834 1.524 . S
C838 H850 0.956 . S
C838 H851 0.961 . S
C838 H852 0.961 . S
C839 C836 1.539 . S
C839 H853 0.958 . S
C839 H854 0.961 . S
C839 H855 0.960 . S
H840 C824 0.931 . S
H841 C829 0.929 . S
H842 C830 0.960 . S
H843 C830 0.962 . S
H844 C830 0.960 . S
H845 C831 0.961 . S
H846 C831 0.961 . S
H847 C831 0.961 . S
H848 C832 0.931 . S
H849 C837 0.930 . S
H850 C838 0.956 . S
H851 C838 0.961 . S
H852 C838 0.961 . S
H853 C839 0.958 . S
H854 C839 0.961 . S
H855 C839 0.960 . S
C856 C857 1.391 . S
C856 C858 1.394 . S
C856 H872 0.931 . S
C857 C856 1.391 . S
C857 C861 1.376 . S
C858 C856 1.394 . S
C858 C859 1.369 . S
C858 C862 1.531 . S
C859 C858 1.369 . S
C859 C860 1.410 . S
C859 C867 1.503 . S
C860 C859 1.410 . S
C860 C861 1.392 . S
C860 C863 1.511 . S
C861 C857 1.376 . S
C861 C860 1.392 . S
C861 H873 0.929 . S
C862 C858 1.531 . S
C862 H874 0.960 . S
C862 H875 0.962 . S
C862 H876 0.960 . S
C863 C860 1.511 . S
C863 H877 0.961 . S
C863 H878 0.961 . S
C863 H879 0.961 . S
C864 C865 1.370 . S
C864 C866 1.363 . S
C864 H880 0.931 . S
C865 C864 1.370 . S
C865 C869 1.408 . S
C866 C864 1.363 . S
C866 C867 1.370 . S
C866 C870 1.524 . S
C867 C859 1.503 . S
C867 C866 1.370 . S
C867 C868 1.403 . S
C868 C867 1.403 . S
C868 C869 1.404 . S
C868 C871 1.539 . S
C869 C865 1.408 . S
C869 C868 1.404 . S
C869 H881 0.930 . S
C870 C866 1.524 . S
C870 H882 0.956 . S
C870 H883 0.961 . S
C870 H884 0.961 . S
C871 C868 1.539 . S
C871 H885 0.958 . S
C871 H886 0.961 . S
C871 H887 0.960 . S
H872 C856 0.931 . S
H873 C861 0.929 . S
H874 C862 0.960 . S
H875 C862 0.962 . S
H876 C862 0.960 . S
H877 C863 0.961 . S
H878 C863 0.961 . S
H879 C863 0.961 . S
H880 C864 0.931 . S
H881 C869 0.930 . S
H882 C870 0.956 . S
H883 C870 0.961 . S
H884 C870 0.961 . S
H885 C871 0.958 . S
H886 C871 0.961 . S
H887 C871 0.960 . S
C888 C889 1.391 . S
C888 C890 1.394 . S
C888 H904 0.931 . S
C889 C888 1.391 . S
C889 C893 1.376 . S
C890 C888 1.394 . S
C890 C891 1.369 . S
C890 C894 1.531 . S
C891 C890 1.369 . S
C891 C892 1.410 . S
C891 C899 1.503 . S
C892 C891 1.410 . S
C892 C893 1.392 . S
C892 C895 1.511 . S
C893 C889 1.376 . S
C893 C892 1.392 . S
C893 H905 0.929 . S
C894 C890 1.531 . S
C894 H906 0.960 . S
C894 H907 0.962 . S
C894 H908 0.960 . S
C895 C892 1.511 . S
C895 H909 0.961 . S
C895 H910 0.961 . S
C895 H911 0.961 . S
C896 C897 1.370 . S
C896 C898 1.363 . S
C896 H912 0.931 . S
C897 C896 1.370 . S
C897 C901 1.408 . S
C898 C896 1.363 . S
C898 C899 1.370 . S
C898 C902 1.524 . S
C899 C891 1.503 . S
C899 C898 1.370 . S
C899 C900 1.403 . S
C900 C899 1.403 . S
C900 C901 1.404 . S
C900 C903 1.539 . S
C901 C897 1.408 . S
C901 C900 1.404 . S
C901 H913 0.930 . S
C902 C898 1.524 . S
C902 H914 0.956 . S
C902 H915 0.961 . S
C902 H916 0.961 . S
C903 C900 1.539 . S
C903 H917 0.958 . S
C903 H918 0.961 . S
C903 H919 0.960 . S
H904 C888 0.931 . S
H905 C893 0.929 . S
H906 C894 0.960 . S
H907 C894 0.962 . S
H908 C894 0.960 . S
H909 C895 0.961 . S
H910 C895 0.961 . S
H911 C895 0.961 . S
H912 C896 0.931 . S
H913 C901 0.930 . S
H914 C902 0.956 . S
H915 C902 0.961 . S
H916 C902 0.961 . S
H917 C903 0.958 . S
H918 C903 0.961 . S
H919 C903 0.960 . S
C920 C921 1.391 . S
C920 C922 1.394 . S
C920 H936 0.931 . S
C921 C920 1.391 . S
C921 C925 1.376 . S
C922 C920 1.394 . S
C922 C923 1.369 . S
C922 C926 1.531 . S
C923 C922 1.369 . S
C923 C924 1.410 . S
C923 C931 1.503 . S
C924 C923 1.410 . S
C924 C925 1.392 . S
C924 C927 1.511 . S
C925 C921 1.376 . S
C925 C924 1.392 . S
C925 H937 0.929 . S
C926 C922 1.531 . S
C926 H938 0.960 . S
C926 H939 0.962 . S
C926 H940 0.960 . S
C927 C924 1.511 . S
C927 H941 0.961 . S
C927 H942 0.961 . S
C927 H943 0.961 . S
C928 C929 1.370 . S
C928 C930 1.363 . S
C928 H944 0.931 . S
C929 C928 1.370 . S
C929 C933 1.408 . S
C930 C928 1.363 . S
C930 C931 1.370 . S
C930 C934 1.524 . S
C931 C923 1.503 . S
C931 C930 1.370 . S
C931 C932 1.403 . S
C932 C931 1.403 . S
C932 C933 1.404 . S
C932 C935 1.539 . S
C933 C929 1.408 . S
C933 C932 1.404 . S
C933 H945 0.930 . S
C934 C930 1.524 . S
C934 H946 0.956 . S
C934 H947 0.961 . S
C934 H948 0.961 . S
C935 C932 1.539 . S
C935 H949 0.958 . S
C935 H950 0.961 . S
C935 H951 0.960 . S
H936 C920 0.931 . S
H937 C925 0.929 . S
H938 C926 0.960 . S
H939 C926 0.962 . S
H940 C926 0.960 . S
H941 C927 0.961 . S
H942 C927 0.961 . S
H943 C927 0.961 . S
H944 C928 0.931 . S
H945 C933 0.930 . S
H946 C934 0.956 . S
H947 C934 0.961 . S
H948 C934 0.961 . S
H949 C935 0.958 . S
H950 C935 0.961 . S
H951 C935 0.960 . S
C952 C953 1.391 . S
C952 C954 1.394 . S
C952 H968 0.931 . S
C953 C952 1.391 . S
C953 C957 1.376 . S
C954 C952 1.394 . S
C954 C955 1.369 . S
C954 C958 1.531 . S
C955 C954 1.369 . S
C955 C956 1.410 . S
C955 C963 1.503 . S
C956 C955 1.410 . S
C956 C957 1.392 . S
C956 C959 1.511 . S
C957 C953 1.376 . S
C957 C956 1.392 . S
C957 H969 0.929 . S
C958 C954 1.531 . S
C958 H970 0.960 . S
C958 H971 0.962 . S
C958 H972 0.960 . S
C959 C956 1.511 . S
C959 H973 0.961 . S
C959 H974 0.961 . S
C959 H975 0.961 . S
C960 C961 1.370 . S
C960 C962 1.363 . S
C960 H976 0.931 . S
C961 C960 1.370 . S
C961 C965 1.408 . S
C962 C960 1.363 . S
C962 C963 1.370 . S
C962 C966 1.524 . S
C963 C955 1.503 . S
C963 C962 1.370 . S
C963 C964 1.403 . S
C964 C963 1.403 . S
C964 C965 1.404 . S
C964 C967 1.539 . S
C965 C961 1.408 . S
C965 C964 1.404 . S
C965 H977 0.930 . S
C966 C962 1.524 . S
C966 H978 0.956 . S
C966 H979 0.961 . S
C966 H980 0.961 . S
C967 C964 1.539 . S
C967 H981 0.958 . S
C967 H982 0.961 . S
C967 H983 0.960 . S
H968 C952 0.931 . S
H969 C957 0.929 . S
H970 C958 0.960 . S
H971 C958 0.962 . S
H972 C958 0.960 . S
H973 C959 0.961 . S
H974 C959 0.961 . S
H975 C959 0.961 . S
H976 C960 0.931 . S
H977 C965 0.930 . S
H978 C966 0.956 . S
H979 C966 0.961 . S
H980 C966 0.961 . S
H981 C967 0.958 . S
H982 C967 0.961 . S
H983 C967 0.960 . S
C984 C985 1.391 . S
C984 C986 1.394 . S
C984 H1000 0.931 . S
C985 C984 1.391 . S
C985 C989 1.376 . S
C986 C984 1.394 . S
C986 C987 1.369 . S
C986 C990 1.531 . S
C987 C986 1.369 . S
C987 C988 1.410 . S
C987 C995 1.503 . S
C988 C987 1.410 . S
C988 C989 1.392 . S
C988 C991 1.511 . S
C989 C985 1.376 . S
C989 C988 1.392 . S
C989 H1001 0.929 . S
C990 C986 1.531 . S
C990 H1002 0.960 . S
C990 H1003 0.962 . S
C990 H1004 0.960 . S
C991 C988 1.511 . S
C991 H1005 0.961 . S
C991 H1006 0.961 . S
C991 H1007 0.961 . S
C992 C993 1.370 . S
C992 C994 1.363 . S
C992 H1008 0.931 . S
C993 C992 1.370 . S
C993 C997 1.408 . S
C994 C992 1.363 . S
C994 C995 1.370 . S
C994 C998 1.524 . S
C995 C987 1.503 . S
C995 C994 1.370 . S
C995 C996 1.403 . S
C996 C995 1.403 . S
C996 C997 1.404 . S
C996 C999 1.539 . S
C997 C993 1.408 . S
C997 C996 1.404 . S
C997 H1009 0.930 . S
C998 C994 1.524 . S
C998 H1010 0.956 . S
C998 H1011 0.961 . S
C998 H1012 0.961 . S
C999 C996 1.539 . S
C999 H1013 0.958 . S
C999 H1014 0.961 . S
C999 H1015 0.960 . S
H1000 C984 0.931 . S
H1001 C989 0.929 . S
H1002 C990 0.960 . S
H1003 C990 0.962 . S
H1004 C990 0.960 . S
H1005 C991 0.961 . S
H1006 C991 0.961 . S
H1007 C991 0.961 . S
H1008 C992 0.931 . S
H1009 C997 0.930 . S
H1010 C998 0.956 . S
H1011 C998 0.961 . S
H1012 C998 0.961 . S
H1013 C999 0.958 . S
H1014 C999 0.961 . S
H1015 C999 0.960 . S
C1016 C1017 1.391 . S
C1016 C1018 1.394 . S
C1016 H1032 0.931 . S
C1017 C1016 1.391 . S
C1017 C1021 1.376 . S
C1018 C1016 1.394 . S
C1018 C1019 1.369 . S
C1018 C1022 1.531 . S
C1019 C1018 1.369 . S
C1019 C1020 1.410 . S
C1019 C1027 1.503 . S
C1020 C1019 1.410 . S
C1020 C1021 1.392 . S
C1020 C1023 1.511 . S
C1021 C1017 1.376 . S
C1021 C1020 1.392 . S
C1021 H1033 0.929 . S
C1022 C1018 1.531 . S
C1022 H1034 0.960 . S
C1022 H1035 0.962 . S
C1022 H1036 0.960 . S
C1023 C1020 1.511 . S
C1023 H1037 0.961 . S
C1023 H1038 0.961 . S
C1023 H1039 0.961 . S
C1024 C1025 1.370 . S
C1024 C1026 1.363 . S
C1024 H1040 0.931 . S
C1025 C1024 1.370 . S
C1025 C1029 1.408 . S
C1026 C1024 1.363 . S
C1026 C1027 1.370 . S
C1026 C1030 1.524 . S
C1027 C1019 1.503 . S
C1027 C1026 1.370 . S
C1027 C1028 1.403 . S
C1028 C1027 1.403 . S
C1028 C1029 1.404 . S
C1028 C1031 1.539 . S
C1029 C1025 1.408 . S
C1029 C1028 1.404 . S
C1029 H1041 0.930 . S
C1030 C1026 1.524 . S
C1030 H1042 0.956 . S
C1030 H1043 0.961 . S
C1030 H1044 0.961 . S
C1031 C1028 1.539 . S
C1031 H1045 0.958 . S
C1031 H1046 0.961 . S
C1031 H1047 0.960 . S
H1032 C1016 0.931 . S
H1033 C1021 0.929 . S
H1034 C1022 0.960 . S
H1035 C1022 0.962 . S
H1036 C1022 0.960 . S
H1037 C1023 0.961 . S
H1038 C1023 0.961 . S
H1039 C1023 0.961 . S
H1040 C1024 0.931 . S
H1041 C1029 0.930 . S
H1042 C1030 0.956 . S
H1043 C1030 0.961 . S
H1044 C1030 0.961 . S
H1045 C1031 0.958 . S
H1046 C1031 0.961 . S
H1047 C1031 0.960 . S
C1048 C1049 1.391 . S
C1048 C1050 1.394 . S
C1048 H1064 0.931 . S
C1049 C1048 1.391 . S
C1049 C1053 1.376 . S
C1050 C1048 1.394 . S
C1050 C1051 1.369 . S
C1050 C1054 1.531 . S
C1051 C1050 1.369 . S
C1051 C1052 1.410 . S
C1051 C1059 1.503 . S
C1052 C1051 1.410 . S
C1052 C1053 1.392 . S
C1052 C1055 1.511 . S
C1053 C1049 1.376 . S
C1053 C1052 1.392 . S
C1053 H1065 0.929 . S
C1054 C1050 1.531 . S
C1054 H1066 0.960 . S
C1054 H1067 0.962 . S
C1054 H1068 0.960 . S
C1055 C1052 1.511 . S
C1055 H1069 0.961 . S
C1055 H1070 0.961 . S
C1055 H1071 0.961 . S
C1056 C1057 1.370 . S
C1056 C1058 1.363 . S
C1056 H1072 0.931 . S
C1057 C1056 1.370 . S
C1057 C1061 1.408 . S
C1058 C1056 1.363 . S
C1058 C1059 1.370 . S
C1058 C1062 1.524 . S
C1059 C1051 1.503 . S
C1059 C1058 1.370 . S
C1059 C1060 1.403 . S
C1060 C1059 1.403 . S
C1060 C1061 1.404 . S
C1060 C1063 1.539 . S
C1061 C1057 1.408 . S
C1061 C1060 1.404 . S
C1061 H1073 0.930 . S
C1062 C1058 1.524 . S
C1062 H1074 0.956 . S
C1062 H1075 0.961 . S
C1062 H1076 0.961 . S
C1063 C1060 1.539 . S
C1063 H1077 0.958 . S
C1063 H1078 0.961 . S
C1063 H1079 0.960 . S
H1064 C1048 0.931 . S
H1065 C1053 0.929 . S
H1066 C1054 0.960 . S
H1067 C1054 0.962 . S
H1068 C1054 0.960 . S
H1069 C1055 0.961 . S
H1070 C1055 0.961 . S
H1071 C1055 0.961 . S
H1072 C1056 0.931 . S
H1073 C1061 0.930 . S
H1074 C1062 0.956 . S
H1075 C1062 0.961 . S
H1076 C1062 0.961 . S
H1077 C1063 0.958 . S
H1078 C1063 0.961 . S
H1079 C1063 0.960 . S
C1080 C1081 1.391 . S
C1080 C1082 1.394 . S
C1080 H1096 0.931 . S
C1081 C1080 1.391 . S
C1081 C1085 1.376 . S
C1082 C1080 1.394 . S
C1082 C1083 1.369 . S
C1082 C1086 1.531 . S
C1083 C1082 1.369 . S
C1083 C1084 1.410 . S
C1083 C1091 1.503 1_554 S
C1084 C1083 1.410 . S
C1084 C1085 1.392 . S
C1084 C1087 1.511 . S
C1085 C1081 1.376 . S
C1085 C1084 1.392 . S
C1085 H1097 0.929 . S
C1086 C1082 1.531 . S
C1086 H1098 0.960 1_554 S
C1086 H1099 0.962 . S
C1086 H1100 0.960 . S
C1087 C1084 1.511 . S
C1087 H1101 0.961 . S
C1087 H1102 0.961 1_554 S
C1087 H1103 0.961 . S
C1088 C1089 1.370 . S
C1088 C1090 1.363 . S
C1088 H1104 0.931 . S
C1089 C1088 1.370 . S
C1089 C1093 1.408 . S
C1090 C1088 1.363 . S
C1090 C1091 1.370 . S
C1090 C1094 1.524 . S
C1091 C1083 1.503 1_556 S
C1091 C1090 1.370 . S
C1091 C1092 1.403 . S
C1092 C1091 1.403 . S
C1092 C1093 1.404 . S
C1092 C1095 1.539 . S
C1093 C1089 1.408 . S
C1093 C1092 1.404 . S
C1093 H1105 0.930 . S
C1094 C1090 1.524 . S
C1094 H1106 0.956 . S
C1094 H1107 0.961 1_556 S
C1094 H1108 0.961 . S
C1095 C1092 1.539 . S
C1095 H1109 0.958 . S
C1095 H1110 0.961 . S
C1095 H1111 0.972 . S
H1096 C1080 0.931 . S
H1097 C1085 0.929 . S
H1098 C1086 0.960 1_556 S
H1099 C1086 0.962 . S
H1100 C1086 0.960 . S
H1101 C1087 0.961 . S
H1102 C1087 0.961 1_556 S
H1103 C1087 0.961 . S
H1104 C1088 0.931 . S
H1105 C1093 0.930 . S
H1106 C1094 0.956 . S
H1107 C1094 0.961 1_554 S
H1108 C1094 0.961 . S
H1109 C1095 0.958 . S
H1110 C1095 0.961 . S
H1111 C1095 0.972 . S
C1112 C1113 1.391 . S
C1112 C1114 1.394 . S
C1112 H1128 0.931 . S
C1113 C1112 1.391 . S
C1113 C1117 1.376 . S
C1114 C1112 1.394 . S
C1114 C1115 1.369 . S
C1114 C1118 1.531 . S
C1115 C1114 1.369 . S
C1115 C1116 1.410 . S
C1115 C1123 1.503 1_556 S
C1116 C1115 1.410 . S
C1116 C1117 1.392 . S
C1116 C1119 1.511 . S
C1117 C1113 1.376 . S
C1117 C1116 1.392 . S
C1117 H1129 0.929 . S
C1118 C1114 1.531 . S
C1118 H1130 0.960 1_556 S
C1118 H1131 0.962 . S
C1118 H1132 0.960 . S
C1119 C1116 1.511 . S
C1119 H1133 0.961 . S
C1119 H1134 0.961 1_556 S
C1119 H1135 0.961 . S
C1120 C1121 1.370 . S
C1120 C1122 1.363 . S
C1120 H1136 0.931 . S
C1121 C1120 1.370 . S
C1121 C1125 1.408 . S
C1122 C1120 1.363 . S
C1122 C1123 1.370 . S
C1122 C1126 1.524 . S
C1123 C1115 1.503 1_554 S
C1123 C1122 1.370 . S
C1123 C1124 1.403 . S
C1124 C1123 1.403 . S
C1124 C1125 1.404 . S
C1124 C1127 1.539 . S
C1125 C1121 1.408 . S
C1125 C1124 1.404 . S
C1125 H1137 0.930 . S
C1126 C1122 1.524 . S
C1126 H1138 0.956 . S
C1126 H1139 0.961 1_554 S
C1126 H1140 0.961 . S
C1127 C1124 1.539 . S
C1127 H1141 0.958 . S
C1127 H1142 0.961 . S
C1127 H1143 0.972 . S
H1128 C1112 0.931 . S
H1129 C1117 0.929 . S
H1130 C1118 0.960 1_554 S
H1131 C1118 0.962 . S
H1132 C1118 0.960 . S
H1133 C1119 0.961 . S
H1134 C1119 0.961 1_554 S
H1135 C1119 0.961 . S
H1136 C1120 0.931 . S
H1137 C1125 0.930 . S
H1138 C1126 0.956 . S
H1139 C1126 0.961 1_556 S
H1140 C1126 0.961 . S
H1141 C1127 0.958 . S
H1142 C1127 0.961 . S
H1143 C1127 0.972 . S
C1144 C1145 1.391 . S
C1144 C1146 1.394 . S
C1144 H1160 0.931 . S
C1145 C1144 1.391 . S
C1145 C1149 1.376 . S
C1146 C1144 1.394 . S
C1146 C1147 1.369 . S
C1146 C1150 1.531 . S
C1147 C1146 1.369 . S
C1147 C1148 1.410 . S
C1147 C1155 1.503 1_556 S
C1148 C1147 1.410 . S
C1148 C1149 1.392 . S
C1148 C1151 1.511 . S
C1149 C1145 1.376 . S
C1149 C1148 1.392 . S
C1149 H1161 0.929 . S
C1150 C1146 1.531 . S
C1150 H1162 0.960 1_556 S
C1150 H1163 0.962 . S
C1150 H1164 0.960 . S
C1151 C1148 1.511 . S
C1151 H1165 0.961 . S
C1151 H1166 0.961 1_556 S
C1151 H1167 0.961 . S
C1152 C1153 1.370 . S
C1152 C1154 1.363 . S
C1152 H1168 0.931 . S
C1153 C1152 1.370 . S
C1153 C1157 1.408 . S
C1154 C1152 1.363 . S
C1154 C1155 1.370 . S
C1154 C1158 1.524 . S
C1155 C1147 1.503 1_554 S
C1155 C1154 1.370 . S
C1155 C1156 1.403 . S
C1156 C1155 1.403 . S
C1156 C1157 1.404 . S
C1156 C1159 1.539 . S
C1157 C1153 1.408 . S
C1157 C1156 1.404 . S
C1157 H1169 0.930 . S
C1158 C1154 1.524 . S
C1158 H1170 0.956 . S
C1158 H1171 0.961 1_554 S
C1158 H1172 0.961 . S
C1159 C1156 1.539 . S
C1159 H1173 0.958 . S
C1159 H1174 0.961 . S
C1159 H1175 0.972 . S
H1160 C1144 0.931 . S
H1161 C1149 0.929 . S
H1162 C1150 0.960 1_554 S
H1163 C1150 0.962 . S
H1164 C1150 0.960 . S
H1165 C1151 0.961 . S
H1166 C1151 0.961 1_554 S
H1167 C1151 0.961 . S
H1168 C1152 0.931 . S
H1169 C1157 0.930 . S
H1170 C1158 0.956 . S
H1171 C1158 0.961 1_556 S
H1172 C1158 0.961 . S
H1173 C1159 0.958 . S
H1174 C1159 0.961 . S
H1175 C1159 0.972 . S
C1176 C1177 1.391 . S
C1176 C1178 1.394 . S
C1176 H1192 0.931 . S
C1177 C1176 1.391 . S
C1177 C1181 1.376 . S
C1178 C1176 1.394 . S
C1178 C1179 1.369 . S
C1178 C1182 1.531 . S
C1179 C1178 1.369 . S
C1179 C1180 1.410 . S
C1179 C1187 1.503 1_554 S
C1180 C1179 1.410 . S
C1180 C1181 1.392 . S
C1180 C1183 1.511 . S
C1181 C1177 1.376 . S
C1181 C1180 1.392 . S
C1181 H1193 0.929 . S
C1182 C1178 1.531 . S
C1182 H1194 0.960 1_554 S
C1182 H1195 0.962 . S
C1182 H1196 0.960 . S
C1183 C1180 1.511 . S
C1183 H1197 0.961 . S
C1183 H1198 0.961 1_554 S
C1183 H1199 0.961 . S
C1184 C1185 1.370 . S
C1184 C1186 1.363 . S
C1184 H1200 0.931 . S
C1185 C1184 1.370 . S
C1185 C1189 1.408 . S
C1186 C1184 1.363 . S
C1186 C1187 1.370 . S
C1186 C1190 1.524 . S
C1187 C1179 1.503 1_556 S
C1187 C1186 1.370 . S
C1187 C1188 1.403 . S
C1188 C1187 1.403 . S
C1188 C1189 1.404 . S
C1188 C1191 1.539 . S
C1189 C1185 1.408 . S
C1189 C1188 1.404 . S
C1189 H1201 0.930 . S
C1190 C1186 1.524 . S
C1190 H1202 0.956 . S
C1190 H1203 0.961 1_556 S
C1190 H1204 0.961 . S
C1191 C1188 1.539 . S
C1191 H1205 0.958 . S
C1191 H1206 0.961 . S
C1191 H1207 0.972 . S
H1192 C1176 0.931 . S
H1193 C1181 0.929 . S
H1194 C1182 0.960 1_556 S
H1195 C1182 0.962 . S
H1196 C1182 0.960 . S
H1197 C1183 0.961 . S
H1198 C1183 0.961 1_556 S
H1199 C1183 0.961 . S
H1200 C1184 0.931 . S
H1201 C1189 0.930 . S
H1202 C1190 0.956 . S
H1203 C1190 0.961 1_554 S
H1204 C1190 0.961 . S
H1205 C1191 0.958 . S
H1206 C1191 0.961 . S
H1207 C1191 0.972 . S
C1208 C1209 1.391 . S
C1208 C1210 1.394 . S
C1208 H1224 0.931 . S
C1209 C1208 1.391 . S
C1209 C1213 1.376 . S
C1210 C1208 1.394 . S
C1210 C1211 1.369 . S
C1210 C1214 1.531 . S
C1211 C1210 1.369 . S
C1211 C1212 1.410 . S
C1211 C1219 1.503 1_554 S
C1212 C1211 1.410 . S
C1212 C1213 1.392 . S
C1212 C1215 1.511 . S
C1213 C1209 1.376 . S
C1213 C1212 1.392 . S
C1213 H1225 0.929 . S
C1214 C1210 1.531 . S
C1214 H1226 0.960 1_554 S
C1214 H1227 0.962 . S
C1214 H1228 0.960 . S
C1215 C1212 1.511 . S
C1215 H1229 0.961 . S
C1215 H1230 0.961 1_554 S
C1215 H1231 0.961 . S
C1216 C1217 1.370 . S
C1216 C1218 1.363 . S
C1216 H1232 0.931 . S
C1217 C1216 1.370 . S
C1217 C1221 1.408 . S
C1218 C1216 1.363 . S
C1218 C1219 1.370 . S
C1218 C1222 1.524 . S
C1219 C1211 1.503 1_556 S
C1219 C1218 1.370 . S
C1219 C1220 1.403 . S
C1220 C1219 1.403 . S
C1220 C1221 1.404 . S
C1220 C1223 1.539 . S
C1221 C1217 1.408 . S
C1221 C1220 1.404 . S
C1221 H1233 0.930 . S
C1222 C1218 1.524 . S
C1222 H1234 0.956 . S
C1222 H1235 0.961 1_556 S
C1222 H1236 0.961 . S
C1223 C1220 1.539 . S
C1223 H1237 0.958 . S
C1223 H1238 0.961 . S
C1223 H1239 0.972 . S
H1224 C1208 0.931 . S
H1225 C1213 0.929 . S
H1226 C1214 0.960 1_556 S
H1227 C1214 0.962 . S
H1228 C1214 0.960 . S
H1229 C1215 0.961 . S
H1230 C1215 0.961 1_556 S
H1231 C1215 0.961 . S
H1232 C1216 0.931 . S
H1233 C1221 0.930 . S
H1234 C1222 0.956 . S
H1235 C1222 0.961 1_554 S
H1236 C1222 0.961 . S
H1237 C1223 0.958 . S
H1238 C1223 0.961 . S
H1239 C1223 0.972 . S
C1240 C1241 1.391 . S
C1240 C1242 1.394 . S
C1240 H1256 0.931 . S
C1241 C1240 1.391 . S
C1241 C1245 1.376 . S
C1242 C1240 1.394 . S
C1242 C1243 1.369 . S
C1242 C1246 1.531 . S
C1243 C1242 1.369 . S
C1243 C1244 1.410 . S
C1243 C1251 1.503 1_556 S
C1244 C1243 1.410 . S
C1244 C1245 1.392 . S
C1244 C1247 1.511 . S
C1245 C1241 1.376 . S
C1245 C1244 1.392 . S
C1245 H1257 0.929 . S
C1246 C1242 1.531 . S
C1246 H1258 0.960 1_556 S
C1246 H1259 0.962 . S
C1246 H1260 0.960 . S
C1247 C1244 1.511 . S
C1247 H1261 0.961 . S
C1247 H1262 0.961 1_556 S
C1247 H1263 0.961 . S
C1248 C1249 1.370 . S
C1248 C1250 1.363 . S
C1248 H1264 0.931 . S
C1249 C1248 1.370 . S
C1249 C1253 1.408 . S
C1250 C1248 1.363 . S
C1250 C1251 1.370 . S
C1250 C1254 1.524 . S
C1251 C1243 1.503 1_554 S
C1251 C1250 1.370 . S
C1251 C1252 1.403 . S
C1252 C1251 1.403 . S
C1252 C1253 1.404 . S
C1252 C1255 1.539 . S
C1253 C1249 1.408 . S
C1253 C1252 1.404 . S
C1253 H1265 0.930 . S
C1254 C1250 1.524 . S
C1254 H1266 0.956 . S
C1254 H1267 0.961 1_554 S
C1254 H1268 0.961 . S
C1255 C1252 1.539 . S
C1255 H1269 0.958 . S
C1255 H1270 0.961 . S
C1255 H1271 0.972 . S
H1256 C1240 0.931 . S
H1257 C1245 0.929 . S
H1258 C1246 0.960 1_554 S
H1259 C1246 0.962 . S
H1260 C1246 0.960 . S
H1261 C1247 0.961 . S
H1262 C1247 0.961 1_554 S
H1263 C1247 0.961 . S
H1264 C1248 0.931 . S
H1265 C1253 0.930 . S
H1266 C1254 0.956 . S
H1267 C1254 0.961 1_556 S
H1268 C1254 0.961 . S
H1269 C1255 0.958 . S
H1270 C1255 0.961 . S
H1271 C1255 0.972 . S
C1272 C1273 1.391 . S
C1272 C1274 1.394 . S
C1272 H1288 0.931 . S
C1273 C1272 1.391 . S
C1273 C1277 1.376 . S
C1274 C1272 1.394 . S
C1274 C1275 1.369 . S
C1274 C1278 1.531 . S
C1275 C1274 1.369 . S
C1275 C1276 1.410 . S
C1275 C1283 1.503 . S
C1276 C1275 1.410 . S
C1276 C1277 1.392 . S
C1276 C1279 1.511 . S
C1277 C1273 1.376 . S
C1277 C1276 1.392 . S
C1277 H1289 0.929 . S
C1278 C1274 1.531 . S
C1278 H1290 0.960 . S
C1278 H1291 0.962 . S
C1278 H1292 0.960 . S
C1279 C1276 1.511 . S
C1279 H1293 0.961 . S
C1279 H1294 0.961 . S
C1279 H1295 0.961 . S
C1280 C1281 1.370 . S
C1280 C1282 1.363 . S
C1280 H1296 0.931 . S
C1281 C1280 1.370 . S
C1281 C1285 1.408 . S
C1282 C1280 1.363 . S
C1282 C1283 1.370 . S
C1282 C1286 1.524 . S
C1283 C1275 1.503 . S
C1283 C1282 1.370 . S
C1283 C1284 1.403 . S
C1284 C1283 1.403 . S
C1284 C1285 1.404 . S
C1284 C1287 1.539 . S
C1285 C1281 1.408 . S
C1285 C1284 1.404 . S
C1285 H1297 0.930 . S
C1286 C1282 1.524 . S
C1286 H1298 0.956 . S
C1286 H1299 0.961 . S
C1286 H1300 0.961 . S
C1287 C1284 1.539 . S
C1287 H1301 0.958 . S
C1287 H1302 0.961 . S
C1287 H1303 0.960 . S
H1288 C1272 0.931 . S
H1289 C1277 0.929 . S
H1290 C1278 0.960 . S
H1291 C1278 0.962 . S
H1292 C1278 0.960 . S
H1293 C1279 0.961 . S
H1294 C1279 0.961 . S
H1295 C1279 0.961 . S
H1296 C1280 0.931 . S
H1297 C1285 0.930 . S
H1298 C1286 0.956 . S
H1299 C1286 0.961 . S
H1300 C1286 0.961 . S
H1301 C1287 0.958 . S
H1302 C1287 0.961 . S
H1303 C1287 0.960 . S
C1304 C1305 1.391 . S
C1304 C1306 1.394 . S
C1304 H1320 0.931 . S
C1305 C1304 1.391 . S
C1305 C1309 1.376 . S
C1306 C1304 1.394 . S
C1306 C1307 1.369 . S
C1306 C1310 1.531 . S
C1307 C1306 1.369 . S
C1307 C1308 1.410 . S
C1307 C1315 1.503 . S
C1308 C1307 1.410 . S
C1308 C1309 1.392 . S
C1308 C1311 1.511 . S
C1309 C1305 1.376 . S
C1309 C1308 1.392 . S
C1309 H1321 0.929 . S
C1310 C1306 1.531 . S
C1310 H1322 0.960 . S
C1310 H1323 0.962 . S
C1310 H1324 0.960 . S
C1311 C1308 1.511 . S
C1311 H1325 0.961 . S
C1311 H1326 0.961 . S
C1311 H1327 0.961 . S
C1312 C1313 1.370 . S
C1312 C1314 1.363 . S
C1312 H1328 0.931 . S
C1313 C1312 1.370 . S
C1313 C1317 1.408 . S
C1314 C1312 1.363 . S
C1314 C1315 1.370 . S
C1314 C1318 1.524 . S
C1315 C1307 1.503 . S
C1315 C1314 1.370 . S
C1315 C1316 1.403 . S
C1316 C1315 1.403 . S
C1316 C1317 1.404 . S
C1316 C1319 1.539 . S
C1317 C1313 1.408 . S
C1317 C1316 1.404 . S
C1317 H1329 0.930 . S
C1318 C1314 1.524 . S
C1318 H1330 0.956 . S
C1318 H1331 0.961 . S
C1318 H1332 0.961 . S
C1319 C1316 1.539 . S
C1319 H1333 0.958 . S
C1319 H1334 0.961 . S
C1319 H1335 0.960 . S
H1320 C1304 0.931 . S
H1321 C1309 0.929 . S
H1322 C1310 0.960 . S
H1323 C1310 0.962 . S
H1324 C1310 0.960 . S
H1325 C1311 0.961 . S
H1326 C1311 0.961 . S
H1327 C1311 0.961 . S
H1328 C1312 0.931 . S
H1329 C1317 0.930 . S
H1330 C1318 0.956 . S
H1331 C1318 0.961 . S
H1332 C1318 0.961 . S
H1333 C1319 0.958 . S
H1334 C1319 0.961 . S
H1335 C1319 0.960 . S
C1336 C1337 1.391 . S
C1336 C1338 1.394 . S
C1336 H1352 0.931 . S
C1337 C1336 1.391 . S
C1337 C1341 1.376 . S
C1338 C1336 1.394 . S
C1338 C1339 1.369 . S
C1338 C1342 1.531 . S
C1339 C1338 1.369 . S
C1339 C1340 1.410 . S
C1339 C1347 1.503 . S
C1340 C1339 1.410 . S
C1340 C1341 1.392 . S
C1340 C1343 1.511 . S
C1341 C1337 1.376 . S
C1341 C1340 1.392 . S
C1341 H1353 0.929 . S
C1342 C1338 1.531 . S
C1342 H1354 0.960 . S
C1342 H1355 0.962 . S
C1342 H1356 0.960 . S
C1343 C1340 1.511 . S
C1343 H1357 0.961 . S
C1343 H1358 0.961 . S
C1343 H1359 0.961 . S
C1344 C1345 1.370 . S
C1344 C1346 1.363 . S
C1344 H1360 0.931 . S
C1345 C1344 1.370 . S
C1345 C1349 1.408 . S
C1346 C1344 1.363 . S
C1346 C1347 1.370 . S
C1346 C1350 1.524 . S
C1347 C1339 1.503 . S
C1347 C1346 1.370 . S
C1347 C1348 1.403 . S
C1348 C1347 1.403 . S
C1348 C1349 1.404 . S
C1348 C1351 1.539 . S
C1349 C1345 1.408 . S
C1349 C1348 1.404 . S
C1349 H1361 0.930 . S
C1350 C1346 1.524 . S
C1350 H1362 0.956 . S
C1350 H1363 0.961 . S
C1350 H1364 0.961 . S
C1351 C1348 1.539 . S
C1351 H1365 0.958 . S
C1351 H1366 0.961 . S
C1351 H1367 0.960 . S
H1352 C1336 0.931 . S
H1353 C1341 0.929 . S
H1354 C1342 0.960 . S
H1355 C1342 0.962 . S
H1356 C1342 0.960 . S
H1357 C1343 0.961 . S
H1358 C1343 0.961 . S
H1359 C1343 0.961 . S
H1360 C1344 0.931 . S
H1361 C1349 0.930 . S
H1362 C1350 0.956 . S
H1363 C1350 0.961 . S
H1364 C1350 0.961 . S
H1365 C1351 0.958 . S
H1366 C1351 0.961 . S
H1367 C1351 0.960 . S
C1368 C1369 1.391 . S
C1368 C1370 1.394 . S
C1368 H1384 0.931 . S
C1369 C1368 1.391 . S
C1369 C1373 1.376 . S
C1370 C1368 1.394 . S
C1370 C1371 1.369 . S
C1370 C1374 1.531 . S
C1371 C1370 1.369 . S
C1371 C1372 1.410 . S
C1371 C1379 1.503 . S
C1372 C1371 1.410 . S
C1372 C1373 1.392 . S
C1372 C1375 1.511 . S
C1373 C1369 1.376 . S
C1373 C1372 1.392 . S
C1373 H1385 0.929 . S
C1374 C1370 1.531 . S
C1374 H1386 0.960 . S
C1374 H1387 0.962 . S
C1374 H1388 0.960 . S
C1375 C1372 1.511 . S
C1375 H1389 0.961 . S
C1375 H1390 0.961 . S
C1375 H1391 0.961 . S
C1376 C1377 1.370 . S
C1376 C1378 1.363 . S
C1376 H1392 0.931 . S
C1377 C1376 1.370 . S
C1377 C1381 1.408 . S
C1378 C1376 1.363 . S
C1378 C1379 1.370 . S
C1378 C1382 1.524 . S
C1379 C1371 1.503 . S
C1379 C1378 1.370 . S
C1379 C1380 1.403 . S
C1380 C1379 1.403 . S
C1380 C1381 1.404 . S
C1380 C1383 1.539 . S
C1381 C1377 1.408 . S
C1381 C1380 1.404 . S
C1381 H1393 0.930 . S
C1382 C1378 1.524 . S
C1382 H1394 0.956 . S
C1382 H1395 0.961 . S
C1382 H1396 0.961 . S
C1383 C1380 1.539 . S
C1383 H1397 0.958 . S
C1383 H1398 0.961 . S
C1383 H1399 0.960 . S
H1384 C1368 0.931 . S
H1385 C1373 0.929 . S
H1386 C1374 0.960 . S
H1387 C1374 0.962 . S
H1388 C1374 0.960 . S
H1389 C1375 0.961 . S
H1390 C1375 0.961 . S
H1391 C1375 0.961 . S
H1392 C1376 0.931 . S
H1393 C1381 0.930 . S
H1394 C1382 0.956 . S
H1395 C1382 0.961 . S
H1396 C1382 0.961 . S
H1397 C1383 0.958 . S
H1398 C1383 0.961 . S
H1399 C1383 0.960 . S
C1400 C1401 1.391 . S
C1400 C1402 1.394 . S
C1400 H1416 0.931 . S
C1401 C1400 1.391 . S
C1401 C1405 1.376 . S
C1402 C1400 1.394 . S
C1402 C1403 1.369 . S
C1402 C1406 1.531 . S
C1403 C1402 1.369 . S
C1403 C1404 1.410 . S
C1403 C1411 1.503 . S
C1404 C1403 1.410 . S
C1404 C1405 1.392 . S
C1404 C1407 1.511 . S
C1405 C1401 1.376 . S
C1405 C1404 1.392 . S
C1405 H1417 0.929 . S
C1406 C1402 1.531 . S
C1406 H1418 0.960 . S
C1406 H1419 0.962 . S
C1406 H1420 0.960 . S
C1407 C1404 1.511 . S
C1407 H1421 0.961 . S
C1407 H1422 0.961 . S
C1407 H1423 0.961 . S
C1408 C1409 1.370 . S
C1408 C1410 1.363 . S
C1408 H1424 0.931 . S
C1409 C1408 1.370 . S
C1409 C1413 1.408 . S
C1410 C1408 1.363 . S
C1410 C1411 1.370 . S
C1410 C1414 1.524 . S
C1411 C1403 1.503 . S
C1411 C1410 1.370 . S
C1411 C1412 1.403 . S
C1412 C1411 1.403 . S
C1412 C1413 1.404 . S
C1412 C1415 1.539 . S
C1413 C1409 1.408 . S
C1413 C1412 1.404 . S
C1413 H1425 0.930 . S
C1414 C1410 1.524 . S
C1414 H1426 0.956 . S
C1414 H1427 0.961 . S
C1414 H1428 0.961 . S
C1415 C1412 1.539 . S
C1415 H1429 0.958 . S
C1415 H1430 0.961 . S
C1415 H1431 0.960 . S
H1416 C1400 0.931 . S
H1417 C1405 0.929 . S
H1418 C1406 0.960 . S
H1419 C1406 0.962 . S
H1420 C1406 0.960 . S
H1421 C1407 0.961 . S
H1422 C1407 0.961 . S
H1423 C1407 0.961 . S
H1424 C1408 0.931 . S
H1425 C1413 0.930 . S
H1426 C1414 0.956 . S
H1427 C1414 0.961 . S
H1428 C1414 0.961 . S
H1429 C1415 0.958 . S
H1430 C1415 0.961 . S
H1431 C1415 0.960 . S
C1432 C1433 1.391 . S
C1432 C1434 1.394 . S
C1432 H1448 0.931 . S
C1433 C1432 1.391 . S
C1433 C1437 1.376 . S
C1434 C1432 1.394 . S
C1434 C1435 1.369 . S
C1434 C1438 1.531 . S
C1435 C1434 1.369 . S
C1435 C1436 1.410 . S
C1435 C1443 1.503 . S
C1436 C1435 1.410 . S
C1436 C1437 1.392 . S
C1436 C1439 1.511 . S
C1437 C1433 1.376 . S
C1437 C1436 1.392 . S
C1437 H1449 0.929 . S
C1438 C1434 1.531 . S
C1438 H1450 0.960 . S
C1438 H1451 0.962 . S
C1438 H1452 0.960 . S
C1439 C1436 1.511 . S
C1439 H1453 0.961 . S
C1439 H1454 0.961 . S
C1439 H1455 0.961 . S
C1440 C1441 1.370 . S
C1440 C1442 1.363 . S
C1440 H1456 0.931 . S
C1441 C1440 1.370 . S
C1441 C1445 1.408 . S
C1442 C1440 1.363 . S
C1442 C1443 1.370 . S
C1442 C1446 1.524 . S
C1443 C1435 1.503 . S
C1443 C1442 1.370 . S
C1443 C1444 1.403 . S
C1444 C1443 1.403 . S
C1444 C1445 1.404 . S
C1444 C1447 1.539 . S
C1445 C1441 1.408 . S
C1445 C1444 1.404 . S
C1445 H1457 0.930 . S
C1446 C1442 1.524 . S
C1446 H1458 0.956 . S
C1446 H1459 0.961 . S
C1446 H1460 0.961 . S
C1447 C1444 1.539 . S
C1447 H1461 0.958 . S
C1447 H1462 0.961 . S
C1447 H1463 0.960 . S
H1448 C1432 0.931 . S
H1449 C1437 0.929 . S
H1450 C1438 0.960 . S
H1451 C1438 0.962 . S
H1452 C1438 0.960 . S
H1453 C1439 0.961 . S
H1454 C1439 0.961 . S
H1455 C1439 0.961 . S
H1456 C1440 0.931 . S
H1457 C1445 0.930 . S
H1458 C1446 0.956 . S
H1459 C1446 0.961 . S
H1460 C1446 0.961 . S
H1461 C1447 0.958 . S
H1462 C1447 0.961 . S
H1463 C1447 0.960 . S
C1464 C1465 1.391 . S
C1464 C1466 1.394 . S
C1464 H1480 0.931 . S
C1465 C1464 1.391 . S
C1465 C1469 1.376 . S
C1466 C1464 1.394 . S
C1466 C1467 1.369 . S
C1466 C1470 1.531 . S
C1467 C1466 1.369 . S
C1467 C1468 1.410 . S
C1467 C1475 1.503 . S
C1468 C1467 1.410 . S
C1468 C1469 1.392 . S
C1468 C1471 1.511 . S
C1469 C1465 1.376 . S
C1469 C1468 1.392 . S
C1469 H1481 0.929 . S
C1470 C1466 1.531 . S
C1470 H1482 0.960 . S
C1470 H1483 0.962 . S
C1470 H1484 0.960 . S
C1471 C1468 1.511 . S
C1471 H1485 0.961 . S
C1471 H1486 0.961 . S
C1471 H1487 0.961 . S
C1472 C1473 1.370 . S
C1472 C1474 1.363 . S
C1472 H1488 0.931 . S
C1473 C1472 1.370 . S
C1473 C1477 1.408 . S
C1474 C1472 1.363 . S
C1474 C1475 1.370 . S
C1474 C1478 1.524 . S
C1475 C1467 1.503 . S
C1475 C1474 1.370 . S
C1475 C1476 1.403 . S
C1476 C1475 1.403 . S
C1476 C1477 1.404 . S
C1476 C1479 1.539 . S
C1477 C1473 1.408 . S
C1477 C1476 1.404 . S
C1477 H1489 0.930 . S
C1478 C1474 1.524 . S
C1478 H1490 0.956 . S
C1478 H1491 0.961 . S
C1478 H1492 0.961 . S
C1479 C1476 1.539 . S
C1479 H1493 0.958 . S
C1479 H1494 0.961 . S
C1479 H1495 0.960 . S
H1480 C1464 0.931 . S
H1481 C1469 0.929 . S
H1482 C1470 0.960 . S
H1483 C1470 0.962 . S
H1484 C1470 0.960 . S
H1485 C1471 0.961 . S
H1486 C1471 0.961 . S
H1487 C1471 0.961 . S
H1488 C1472 0.931 . S
H1489 C1477 0.930 . S
H1490 C1478 0.956 . S
H1491 C1478 0.961 . S
H1492 C1478 0.961 . S
H1493 C1479 0.958 . S
H1494 C1479 0.961 . S
H1495 C1479 0.960 . S
C1496 C1497 1.391 . S
C1496 C1498 1.394 . S
C1496 H1512 0.931 . S
C1497 C1496 1.391 . S
C1497 C1501 1.376 . S
C1498 C1496 1.394 . S
C1498 C1499 1.369 . S
C1498 C1502 1.531 . S
C1499 C1498 1.369 . S
C1499 C1500 1.410 . S
C1499 C1507 1.503 . S
C1500 C1499 1.410 . S
C1500 C1501 1.392 . S
C1500 C1503 1.511 . S
C1501 C1497 1.376 . S
C1501 C1500 1.392 . S
C1501 H1513 0.929 . S
C1502 C1498 1.531 . S
C1502 H1514 0.960 . S
C1502 H1515 0.962 . S
C1502 H1516 0.960 . S
C1503 C1500 1.511 . S
C1503 H1517 0.961 . S
C1503 H1518 0.961 . S
C1503 H1519 0.961 . S
C1504 C1505 1.370 . S
C1504 C1506 1.363 . S
C1504 H1520 0.931 . S
C1505 C1504 1.370 . S
C1505 C1509 1.408 . S
C1506 C1504 1.363 . S
C1506 C1507 1.370 . S
C1506 C1510 1.524 . S
C1507 C1499 1.503 . S
C1507 C1506 1.370 . S
C1507 C1508 1.403 . S
C1508 C1507 1.403 . S
C1508 C1509 1.404 . S
C1508 C1511 1.539 . S
C1509 C1505 1.408 . S
C1509 C1508 1.404 . S
C1509 H1521 0.930 . S
C1510 C1506 1.524 . S
C1510 H1522 0.956 . S
C1510 H1523 0.961 . S
C1510 H1524 0.961 . S
C1511 C1508 1.539 . S
C1511 H1525 0.958 . S
C1511 H1526 0.961 . S
C1511 H1527 0.960 . S
H1512 C1496 0.931 . S
H1513 C1501 0.929 . S
H1514 C1502 0.960 . S
H1515 C1502 0.962 . S
H1516 C1502 0.960 . S
H1517 C1503 0.961 . S
H1518 C1503 0.961 . S
H1519 C1503 0.961 . S
H1520 C1504 0.931 . S
H1521 C1509 0.930 . S
H1522 C1510 0.956 . S
H1523 C1510 0.961 . S
H1524 C1510 0.961 . S
H1525 C1511 0.958 . S
H1526 C1511 0.961 . S
H1527 C1511 0.960 . S
C1528 C1529 1.391 . S
C1528 C1530 1.394 . S
C1528 H1544 0.931 . S
C1529 C1528 1.391 . S
C1529 C1533 1.376 . S
C1530 C1528 1.394 . S
C1530 C1531 1.369 . S
C1530 C1534 1.531 . S
C1531 C1530 1.369 . S
C1531 C1532 1.410 . S
C1531 C1539 1.503 . S
C1532 C1531 1.410 . S
C1532 C1533 1.392 . S
C1532 C1535 1.511 . S
C1533 C1529 1.376 . S
C1533 C1532 1.392 . S
C1533 H1545 0.929 . S
C1534 C1530 1.531 . S
C1534 H1546 0.960 . S
C1534 H1547 0.962 . S
C1534 H1548 0.960 . S
C1535 C1532 1.511 . S
C1535 H1549 0.961 . S
C1535 H1550 0.961 . S
C1535 H1551 0.961 . S
C1536 C1537 1.370 . S
C1536 C1538 1.363 . S
C1536 H1552 0.931 . S
C1537 C1536 1.370 . S
C1537 C1541 1.408 . S
C1538 C1536 1.363 . S
C1538 C1539 1.370 . S
C1538 C1542 1.524 . S
C1539 C1531 1.503 . S
C1539 C1538 1.370 . S
C1539 C1540 1.403 . S
C1540 C1539 1.403 . S
C1540 C1541 1.404 . S
C1540 C1543 1.539 . S
C1541 C1537 1.408 . S
C1541 C1540 1.404 . S
C1541 H1553 0.930 . S
C1542 C1538 1.524 . S
C1542 H1554 0.956 . S
C1542 H1555 0.961 . S
C1542 H1556 0.961 . S
C1543 C1540 1.539 . S
C1543 H1557 0.958 . S
C1543 H1558 0.961 . S
C1543 H1559 0.960 . S
H1544 C1528 0.931 . S
H1545 C1533 0.929 . S
H1546 C1534 0.960 . S
H1547 C1534 0.962 . S
H1548 C1534 0.960 . S
H1549 C1535 0.961 . S
H1550 C1535 0.961 . S
H1551 C1535 0.961 . S
H1552 C1536 0.931 . S
H1553 C1541 0.930 . S
H1554 C1542 0.956 . S
H1555 C1542 0.961 . S
H1556 C1542 0.961 . S
H1557 C1543 0.958 . S
H1558 C1543 0.961 . S
H1559 C1543 0.960 . S
C1560 C1561 1.391 . S
C1560 C1562 1.394 . S
C1560 H1576 0.931 . S
C1561 C1560 1.391 . S
C1561 C1565 1.376 . S
C1562 C1560 1.394 . S
C1562 C1563 1.369 . S
C1562 C1566 1.531 . S
C1563 C1562 1.369 . S
C1563 C1564 1.410 . S
C1563 C1571 1.503 . S
C1564 C1563 1.410 . S
C1564 C1565 1.392 . S
C1564 C1567 1.511 . S
C1565 C1561 1.376 . S
C1565 C1564 1.392 . S
C1565 H1577 0.929 . S
C1566 C1562 1.531 . S
C1566 H1578 0.960 . S
C1566 H1579 0.962 . S
C1566 H1580 0.960 . S
C1567 C1564 1.511 . S
C1567 H1581 0.961 . S
C1567 H1582 0.961 . S
C1567 H1583 0.961 . S
C1568 C1569 1.370 . S
C1568 C1570 1.363 . S
C1568 H1584 0.931 . S
C1569 C1568 1.370 . S
C1569 C1573 1.408 . S
C1570 C1568 1.363 . S
C1570 C1571 1.370 . S
C1570 C1574 1.524 . S
C1571 C1563 1.503 . S
C1571 C1570 1.370 . S
C1571 C1572 1.403 . S
C1572 C1571 1.403 . S
C1572 C1573 1.404 . S
C1572 C1575 1.539 . S
C1573 C1569 1.408 . S
C1573 C1572 1.404 . S
C1573 H1585 0.930 . S
C1574 C1570 1.524 . S
C1574 H1586 0.956 . S
C1574 H1587 0.961 . S
C1574 H1588 0.961 . S
C1575 C1572 1.539 . S
C1575 H1589 0.958 . S
C1575 H1590 0.961 . S
C1575 H1591 0.960 . S
H1576 C1560 0.931 . S
H1577 C1565 0.929 . S
H1578 C1566 0.960 . S
H1579 C1566 0.962 . S
H1580 C1566 0.960 . S
H1581 C1567 0.961 . S
H1582 C1567 0.961 . S
H1583 C1567 0.961 . S
H1584 C1568 0.931 . S
H1585 C1573 0.930 . S
H1586 C1574 0.956 . S
H1587 C1574 0.961 . S
H1588 C1574 0.961 . S
H1589 C1575 0.958 . S
H1590 C1575 0.961 . S
H1591 C1575 0.960 . S
C1592 C1593 1.391 . S
C1592 C1594 1.394 . S
C1592 H1608 0.931 . S
C1593 C1592 1.391 . S
C1593 C1597 1.376 . S
C1594 C1592 1.394 . S
C1594 C1595 1.369 . S
C1594 C1598 1.531 . S
C1595 C1594 1.369 . S
C1595 C1596 1.410 . S
C1595 C1603 1.503 . S
C1596 C1595 1.410 . S
C1596 C1597 1.392 . S
C1596 C1599 1.511 . S
C1597 C1593 1.376 . S
C1597 C1596 1.392 . S
C1597 H1609 0.929 . S
C1598 C1594 1.531 . S
C1598 H1610 0.960 . S
C1598 H1611 0.962 . S
C1598 H1612 0.960 . S
C1599 C1596 1.511 . S
C1599 H1613 0.961 . S
C1599 H1614 0.961 . S
C1599 H1615 0.961 . S
C1600 C1601 1.370 . S
C1600 C1602 1.363 . S
C1600 H1616 0.931 . S
C1601 C1600 1.370 . S
C1601 C1605 1.408 . S
C1602 C1600 1.363 . S
C1602 C1603 1.370 . S
C1602 C1606 1.524 . S
C1603 C1595 1.503 . S
C1603 C1602 1.370 . S
C1603 C1604 1.403 . S
C1604 C1603 1.403 . S
C1604 C1605 1.404 . S
C1604 C1607 1.539 . S
C1605 C1601 1.408 . S
C1605 C1604 1.404 . S
C1605 H1617 0.930 . S
C1606 C1602 1.524 . S
C1606 H1618 0.956 . S
C1606 H1619 0.961 . S
C1606 H1620 0.961 . S
C1607 C1604 1.539 . S
C1607 H1621 0.958 . S
C1607 H1622 0.961 . S
C1607 H1623 0.960 . S
H1608 C1592 0.931 . S
H1609 C1597 0.929 . S
H1610 C1598 0.960 . S
H1611 C1598 0.962 . S
H1612 C1598 0.960 . S
H1613 C1599 0.961 . S
H1614 C1599 0.961 . S
H1615 C1599 0.961 . S
H1616 C1600 0.931 . S
H1617 C1605 0.930 . S
H1618 C1606 0.956 . S
H1619 C1606 0.961 . S
H1620 C1606 0.961 . S
H1621 C1607 0.958 . S
H1622 C1607 0.961 . S
H1623 C1607 0.960 . S
C1624 C1625 1.391 . S
C1624 C1626 1.394 . S
C1624 H1640 0.931 . S
C1625 C1624 1.391 . S
C1625 C1629 1.376 . S
C1626 C1624 1.394 . S
C1626 C1627 1.369 . S
C1626 C1630 1.531 . S
C1627 C1626 1.369 . S
C1627 C1628 1.410 . S
C1627 C1635 1.503 . S
C1628 C1627 1.410 . S
C1628 C1629 1.392 . S
C1628 C1631 1.511 . S
C1629 C1625 1.376 . S
C1629 C1628 1.392 . S
C1629 H1641 0.929 . S
C1630 C1626 1.531 . S
C1630 H1642 0.960 . S
C1630 H1643 0.962 . S
C1630 H1644 0.960 . S
C1631 C1628 1.511 . S
C1631 H1645 0.961 . S
C1631 H1646 0.961 . S
C1631 H1647 0.961 . S
C1632 C1633 1.370 . S
C1632 C1634 1.363 . S
C1632 H1648 0.931 . S
C1633 C1632 1.370 . S
C1633 C1637 1.408 . S
C1634 C1632 1.363 . S
C1634 C1635 1.370 . S
C1634 C1638 1.524 . S
C1635 C1627 1.503 . S
C1635 C1634 1.370 . S
C1635 C1636 1.403 . S
C1636 C1635 1.403 . S
C1636 C1637 1.404 . S
C1636 C1639 1.539 . S
C1637 C1633 1.408 . S
C1637 C1636 1.404 . S
C1637 H1649 0.930 . S
C1638 C1634 1.524 . S
C1638 H1650 0.956 . S
C1638 H1651 0.961 . S
C1638 H1652 0.961 . S
C1639 C1636 1.539 . S
C1639 H1653 0.958 . S
C1639 H1654 0.961 . S
C1639 H1655 0.960 . S
H1640 C1624 0.931 . S
H1641 C1629 0.929 . S
H1642 C1630 0.960 . S
H1643 C1630 0.962 . S
H1644 C1630 0.960 . S
H1645 C1631 0.961 . S
H1646 C1631 0.961 . S
H1647 C1631 0.961 . S
H1648 C1632 0.931 . S
H1649 C1637 0.930 . S
H1650 C1638 0.956 . S
H1651 C1638 0.961 . S
H1652 C1638 0.961 . S
H1653 C1639 0.958 . S
H1654 C1639 0.961 . S
H1655 C1639 0.960 . S
C1656 C1657 1.391 . S
C1656 C1658 1.394 . S
C1656 H1672 0.931 . S
C1657 C1656 1.391 . S
C1657 C1661 1.376 . S
C1658 C1656 1.394 . S
C1658 C1659 1.369 . S
C1658 C1662 1.531 . S
C1659 C1658 1.369 . S
C1659 C1660 1.410 . S
C1659 C1667 1.503 . S
C1660 C1659 1.410 . S
C1660 C1661 1.392 . S
C1660 C1663 1.511 . S
C1661 C1657 1.376 . S
C1661 C1660 1.392 . S
C1661 H1673 0.929 . S
C1662 C1658 1.531 . S
C1662 H1674 0.960 . S
C1662 H1675 0.962 . S
C1662 H1676 0.960 . S
C1663 C1660 1.511 . S
C1663 H1677 0.961 . S
C1663 H1678 0.961 . S
C1663 H1679 0.961 . S
C1664 C1665 1.370 . S
C1664 C1666 1.363 . S
C1664 H1680 0.931 . S
C1665 C1664 1.370 . S
C1665 C1669 1.408 . S
C1666 C1664 1.363 . S
C1666 C1667 1.370 . S
C1666 C1670 1.524 . S
C1667 C1659 1.503 . S
C1667 C1666 1.370 . S
C1667 C1668 1.403 . S
C1668 C1667 1.403 . S
C1668 C1669 1.404 . S
C1668 C1671 1.539 . S
C1669 C1665 1.408 . S
C1669 C1668 1.404 . S
C1669 H1681 0.930 . S
C1670 C1666 1.524 . S
C1670 H1682 0.956 . S
C1670 H1683 0.961 . S
C1670 H1684 0.961 . S
C1671 C1668 1.539 . S
C1671 H1685 0.958 . S
C1671 H1686 0.961 . S
C1671 H1687 0.960 . S
H1672 C1656 0.931 . S
H1673 C1661 0.929 . S
H1674 C1662 0.960 . S
H1675 C1662 0.962 . S
H1676 C1662 0.960 . S
H1677 C1663 0.961 . S
H1678 C1663 0.961 . S
H1679 C1663 0.961 . S
H1680 C1664 0.931 . S
H1681 C1669 0.930 . S
H1682 C1670 0.956 . S
H1683 C1670 0.961 . S
H1684 C1670 0.961 . S
H1685 C1671 0.958 . S
H1686 C1671 0.961 . S
H1687 C1671 0.960 . S
C1688 C1689 1.391 . S
C1688 C1690 1.394 . S
C1688 H1704 0.931 . S
C1689 C1688 1.391 . S
C1689 C1693 1.376 . S
C1690 C1688 1.394 . S
C1690 C1691 1.369 . S
C1690 C1694 1.531 . S
C1691 C1690 1.369 . S
C1691 C1692 1.410 . S
C1691 C1699 1.503 . S
C1692 C1691 1.410 . S
C1692 C1693 1.392 . S
C1692 C1695 1.511 . S
C1693 C1689 1.376 . S
C1693 C1692 1.392 . S
C1693 H1705 0.929 . S
C1694 C1690 1.531 . S
C1694 H1706 0.960 . S
C1694 H1707 0.962 . S
C1694 H1708 0.960 . S
C1695 C1692 1.511 . S
C1695 H1709 0.961 . S
C1695 H1710 0.961 . S
C1695 H1711 0.961 . S
C1696 C1697 1.370 . S
C1696 C1698 1.363 . S
C1696 H1712 0.931 . S
C1697 C1696 1.370 . S
C1697 C1701 1.408 . S
C1698 C1696 1.363 . S
C1698 C1699 1.370 . S
C1698 C1702 1.524 . S
C1699 C1691 1.503 . S
C1699 C1698 1.370 . S
C1699 C1700 1.403 . S
C1700 C1699 1.403 . S
C1700 C1701 1.404 . S
C1700 C1703 1.539 . S
C1701 C1697 1.408 . S
C1701 C1700 1.404 . S
C1701 H1713 0.930 . S
C1702 C1698 1.524 . S
C1702 H1714 0.956 . S
C1702 H1715 0.961 . S
C1702 H1716 0.961 . S
C1703 C1700 1.539 . S
C1703 H1717 0.958 . S
C1703 H1718 0.961 . S
C1703 H1719 0.960 . S
H1704 C1688 0.931 . S
H1705 C1693 0.929 . S
H1706 C1694 0.960 . S
H1707 C1694 0.962 . S
H1708 C1694 0.960 . S
H1709 C1695 0.961 . S
H1710 C1695 0.961 . S
H1711 C1695 0.961 . S
H1712 C1696 0.931 . S
H1713 C1701 0.930 . S
H1714 C1702 0.956 . S
H1715 C1702 0.961 . S
H1716 C1702 0.961 . S
H1717 C1703 0.958 . S
H1718 C1703 0.961 . S
H1719 C1703 0.960 . S
C1720 C1721 1.391 . S
C1720 C1722 1.394 . S
C1720 H1736 0.931 . S
C1721 C1720 1.391 . S
C1721 C1725 1.376 . S
C1722 C1720 1.394 . S
C1722 C1723 1.369 . S
C1722 C1726 1.531 . S
C1723 C1722 1.369 . S
C1723 C1724 1.410 . S
C1723 C1731 1.503 . S
C1724 C1723 1.410 . S
C1724 C1725 1.392 . S
C1724 C1727 1.511 . S
C1725 C1721 1.376 . S
C1725 C1724 1.392 . S
C1725 H1737 0.929 . S
C1726 C1722 1.531 . S
C1726 H1738 0.960 . S
C1726 H1739 0.962 . S
C1726 H1740 0.960 . S
C1727 C1724 1.511 . S
C1727 H1741 0.961 . S
C1727 H1742 0.961 . S
C1727 H1743 0.961 . S
C1728 C1729 1.370 . S
C1728 C1730 1.363 . S
C1728 H1744 0.931 . S
C1729 C1728 1.370 . S
C1729 C1733 1.408 . S
C1730 C1728 1.363 . S
C1730 C1731 1.370 . S
C1730 C1734 1.524 . S
C1731 C1723 1.503 . S
C1731 C1730 1.370 . S
C1731 C1732 1.403 . S
C1732 C1731 1.403 . S
C1732 C1733 1.404 . S
C1732 C1735 1.539 . S
C1733 C1729 1.408 . S
C1733 C1732 1.404 . S
C1733 H1745 0.930 . S
C1734 C1730 1.524 . S
C1734 H1746 0.956 . S
C1734 H1747 0.961 . S
C1734 H1748 0.961 . S
C1735 C1732 1.539 . S
C1735 H1749 0.958 . S
C1735 H1750 0.961 . S
C1735 H1751 0.960 . S
H1736 C1720 0.931 . S
H1737 C1725 0.929 . S
H1738 C1726 0.960 . S
H1739 C1726 0.962 . S
H1740 C1726 0.960 . S
H1741 C1727 0.961 . S
H1742 C1727 0.961 . S
H1743 C1727 0.961 . S
H1744 C1728 0.931 . S
H1745 C1733 0.930 . S
H1746 C1734 0.956 . S
H1747 C1734 0.961 . S
H1748 C1734 0.961 . S
H1749 C1735 0.958 . S
H1750 C1735 0.961 . S
H1751 C1735 0.960 . S
C1752 C1753 1.391 . S
C1752 C1754 1.394 . S
C1752 H1768 0.931 . S
C1753 C1752 1.391 . S
C1753 C1757 1.376 . S
C1754 C1752 1.394 . S
C1754 C1755 1.369 . S
C1754 C1758 1.531 . S
C1755 C1754 1.369 . S
C1755 C1756 1.410 . S
C1755 C1763 1.503 . S
C1756 C1755 1.410 . S
C1756 C1757 1.392 . S
C1756 C1759 1.511 . S
C1757 C1753 1.376 . S
C1757 C1756 1.392 . S
C1757 H1769 0.929 . S
C1758 C1754 1.531 . S
C1758 H1770 0.960 . S
C1758 H1771 0.962 . S
C1758 H1772 0.960 . S
C1759 C1756 1.511 . S
C1759 H1773 0.961 . S
C1759 H1774 0.961 . S
C1759 H1775 0.961 . S
C1760 C1761 1.370 . S
C1760 C1762 1.363 . S
C1760 H1776 0.931 . S
C1761 C1760 1.370 . S
C1761 C1765 1.408 . S
C1762 C1760 1.363 . S
C1762 C1763 1.370 . S
C1762 C1766 1.524 . S
C1763 C1755 1.503 . S
C1763 C1762 1.370 . S
C1763 C1764 1.403 . S
C1764 C1763 1.403 . S
C1764 C1765 1.404 . S
C1764 C1767 1.539 . S
C1765 C1761 1.408 . S
C1765 C1764 1.404 . S
C1765 H1777 0.930 . S
C1766 C1762 1.524 . S
C1766 H1778 0.956 . S
C1766 H1779 0.961 . S
C1766 H1780 0.961 . S
C1767 C1764 1.539 . S
C1767 H1781 0.958 . S
C1767 H1782 0.961 . S
C1767 H1783 0.960 . S
H1768 C1752 0.931 . S
H1769 C1757 0.929 . S
H1770 C1758 0.960 . S
H1771 C1758 0.962 . S
H1772 C1758 0.960 . S
H1773 C1759 0.961 . S
H1774 C1759 0.961 . S
H1775 C1759 0.961 . S
H1776 C1760 0.931 . S
H1777 C1765 0.930 . S
H1778 C1766 0.956 . S
H1779 C1766 0.961 . S
H1780 C1766 0.961 . S
H1781 C1767 0.958 . S
H1782 C1767 0.961 . S
H1783 C1767 0.960 . S
C1784 C1785 1.391 . S
C1784 C1786 1.394 . S
C1784 H1800 0.931 . S
C1785 C1784 1.391 . S
C1785 C1789 1.376 . S
C1786 C1784 1.394 . S
C1786 C1787 1.369 . S
C1786 C1790 1.531 . S
C1787 C1786 1.369 . S
C1787 C1788 1.410 . S
C1787 C1795 1.503 . S
C1788 C1787 1.410 . S
C1788 C1789 1.392 . S
C1788 C1791 1.511 . S
C1789 C1785 1.376 . S
C1789 C1788 1.392 . S
C1789 H1801 0.929 . S
C1790 C1786 1.531 . S
C1790 H1802 0.960 . S
C1790 H1803 0.962 . S
C1790 H1804 0.960 . S
C1791 C1788 1.511 . S
C1791 H1805 0.961 . S
C1791 H1806 0.961 . S
C1791 H1807 0.961 . S
C1792 C1793 1.370 . S
C1792 C1794 1.363 . S
C1792 H1808 0.931 . S
C1793 C1792 1.370 . S
C1793 C1797 1.408 . S
C1794 C1792 1.363 . S
C1794 C1795 1.370 . S
C1794 C1798 1.524 . S
C1795 C1787 1.503 . S
C1795 C1794 1.370 . S
C1795 C1796 1.403 . S
C1796 C1795 1.403 . S
C1796 C1797 1.404 . S
C1796 C1799 1.539 . S
C1797 C1793 1.408 . S
C1797 C1796 1.404 . S
C1797 H1809 0.930 . S
C1798 C1794 1.524 . S
C1798 H1810 0.956 . S
C1798 H1811 0.961 . S
C1798 H1812 0.961 . S
C1799 C1796 1.539 . S
C1799 H1813 0.958 . S
C1799 H1814 0.961 . S
C1799 H1815 0.960 . S
H1800 C1784 0.931 . S
H1801 C1789 0.929 . S
H1802 C1790 0.960 . S
H1803 C1790 0.962 . S
H1804 C1790 0.960 . S
H1805 C1791 0.961 . S
H1806 C1791 0.961 . S
H1807 C1791 0.961 . S
H1808 C1792 0.931 . S
H1809 C1797 0.930 . S
H1810 C1798 0.956 . S
H1811 C1798 0.961 . S
H1812 C1798 0.961 . S
H1813 C1799 0.958 . S
H1814 C1799 0.961 . S
H1815 C1799 0.960 . S
C1816 C1817 1.391 . S
C1816 C1818 1.394 . S
C1816 H1832 0.931 . S
C1817 C1816 1.391 . S
C1817 C1821 1.376 . S
C1818 C1816 1.394 . S
C1818 C1819 1.369 . S
C1818 C1822 1.531 . S
C1819 C1818 1.369 . S
C1819 C1820 1.410 . S
C1819 C1827 1.503 . S
C1820 C1819 1.410 . S
C1820 C1821 1.392 . S
C1820 C1823 1.511 . S
C1821 C1817 1.376 . S
C1821 C1820 1.392 . S
C1821 H1833 0.929 . S
C1822 C1818 1.531 . S
C1822 H1834 0.960 . S
C1822 H1835 0.962 . S
C1822 H1836 0.960 . S
C1823 C1820 1.511 . S
C1823 H1837 0.961 . S
C1823 H1838 0.961 . S
C1823 H1839 0.961 . S
C1824 C1825 1.370 . S
C1824 C1826 1.363 . S
C1824 H1840 0.931 . S
C1825 C1824 1.370 . S
C1825 C1829 1.408 . S
C1826 C1824 1.363 . S
C1826 C1827 1.370 . S
C1826 C1830 1.524 . S
C1827 C1819 1.503 . S
C1827 C1826 1.370 . S
C1827 C1828 1.403 . S
C1828 C1827 1.403 . S
C1828 C1829 1.404 . S
C1828 C1831 1.539 . S
C1829 C1825 1.408 . S
C1829 C1828 1.404 . S
C1829 H1841 0.930 . S
C1830 C1826 1.524 . S
C1830 H1842 0.956 . S
C1830 H1843 0.961 . S
C1830 H1844 0.961 . S
C1831 C1828 1.539 . S
C1831 H1845 0.958 . S
C1831 H1846 0.961 . S
C1831 H1847 0.960 . S
H1832 C1816 0.931 . S
H1833 C1821 0.929 . S
H1834 C1822 0.960 . S
H1835 C1822 0.962 . S
H1836 C1822 0.960 . S
H1837 C1823 0.961 . S
H1838 C1823 0.961 . S
H1839 C1823 0.961 . S
H1840 C1824 0.931 . S
H1841 C1829 0.930 . S
H1842 C1830 0.956 . S
H1843 C1830 0.961 . S
H1844 C1830 0.961 . S
H1845 C1831 0.958 . S
H1846 C1831 0.961 . S
H1847 C1831 0.960 . S
C313 C5 1.560 . S
C321 C96 1.562 . S
C345 C109 1.567 . S
C353 C16 1.565 . S
C377 C31 1.564 . S
C385 C120 1.568 . S
C409 C44 1.557 . S
C417 C133 1.562 . S
C441 C148 1.559 . S
C449 C55 1.562 . S
C473 C70 1.554 . S
C481 C81 1.564 . S
C505 C161 1.567 . S
C513 C252 1.565 . S
C537 C172 1.565 . S
C545 C265 1.564 . S
C569 C276 1.567 . S
C577 C185 1.565 . S
C601 C198 1.560 . S
C609 C291 1.562 . S
C633 C211 1.555 . S
C641 C302 1.562 . S
C665 C237 1.564 . S
C673 C224 1.564 . S
C697 C4 1.562 . S
C705 C108 1.578 . S
C729 C127 1.578 . S
C737 C23 1.570 . S
C761 C140 1.560 . S
C769 C30 1.578 . S
C793 C43 1.578 . S
C801 C147 1.570 . S
C825 C62 1.575 . S
C833 C88 1.571 . S
C857 C69 1.574 . S
C865 C95 1.573 . S
C889 C264 1.560 . S
C897 C160 1.578 . S
C921 C179 1.570 . S
C929 C283 1.573 . S
C953 C290 1.578 . S
C961 C192 1.571 . S
C985 C309 1.580 . S
C993 C205 1.570 . S
C1017 C244 1.571 . S
C1025 C218 1.574 . S
C1049 C231 1.560 . S
C1057 C251 1.578 . S
C1081 C10 1.674 . S
C1089 C199 1.674 . S
C1113 C212 1.668 . S
C1121 C17 1.669 . S
C1145 C225 1.677 . S
C1153 C36 1.674 . S
C1177 C49 1.669 . S
C1185 C166 1.672 . S
C1209 C56 1.679 . S
C1217 C173 1.675 . S
C1241 C186 1.679 . S
C1249 C75 1.675 . S
C1273 C277 1.659 . S
C1281 C82 1.668 . S
C1305 C296 1.676 . S
C1313 C101 1.674 . S
C1337 C303 1.679 . S
C1345 C114 1.675 . S
C1369 C238 1.662 . S
C1377 C121 1.669 . S
C1401 C134 1.671 . S
C1409 C257 1.673 . S
C1433 C153 1.679 . S
C1441 C270 1.675 . S
C1465 C3 1.547 . S
C1473 C135 1.565 . S
C1497 C146 1.572 . S
C1505 C18 1.556 . S
C1529 C83 1.549 . S
C1537 C29 1.568 . S
C1561 C42 1.575 . S
C1569 C94 1.555 . S
C1593 C57 1.570 . S
C1601 C107 1.556 . S
C1625 C68 1.542 . S
C1633 C122 1.570 . S
C1657 C159 1.552 . S
C1665 C289 1.561 . S
C1689 C174 1.558 . S
C1697 C304 1.558 . S
C1721 C187 1.568 . S
C1729 C239 1.556 . S
C1753 C250 1.564 . S
C1761 C200 1.564 . S
C1785 C213 1.573 . S
C1793 C263 1.559 . S
C1817 C226 1.546 . S
C1825 C278 1.564 . S
