# Generated by pormake.
# Topology sxb, (6)-cn, num edge types: 1
# Building blocks:
#     Node 0, Type 0, BuildingBlock: CUKXOW_clean_sbu_0, # of connection points: 6
#     Node 1, Type 0, BuildingBlock: CUKXOW_clean_sbu_0, # of connection points: 6
#     Node 2, Type 0, BuildingBlock: CUKXOW_clean_sbu_0, # of connection points: 6
#     Node 3, Type 0, BuildingBlock: CUKXOW_clean_sbu_0, # of connection points: 6
#     Edge 4, Type (0, 0), BuildingBlock: UVAHIK_clean_linker_0, # of connection points: 2
#     Edge 5, Type (0, 0), BuildingBlock: UVAHIK_clean_linker_0, # of connection points: 2
#     Edge 6, Type (0, 0), BuildingBlock: UVAHIK_clean_linker_0, # of connection points: 2
#     Edge 7, Type (0, 0), BuildingBlock: UVAHIK_clean_linker_0, # of connection points: 2
#     Edge 8, Type (0, 0), BuildingBlock: UVAHIK_clean_linker_0, # of connection points: 2
#     Edge 9, Type (0, 0), BuildingBlock: UVAHIK_clean_linker_0, # of connection points: 2
#     Edge 10, Type (0, 0), BuildingBlock: UVAHIK_clean_linker_0, # of connection points: 2
#     Edge 11, Type (0, 0), BuildingBlock: UVAHIK_clean_linker_0, # of connection points: 2
#     Edge 12, Type (0, 0), BuildingBlock: UVAHIK_clean_linker_0, # of connection points: 2
#     Edge 13, Type (0, 0), BuildingBlock: UVAHIK_clean_linker_0, # of connection points: 2
#     Edge 14, Type (0, 0), BuildingBlock: UVAHIK_clean_linker_0, # of connection points: 2
#     Edge 15, Type (0, 0), BuildingBlock: UVAHIK_clean_linker_0, # of connection points: 2
# Relax obj value: 0.013
# Max RMSD: 0.065
# Mean RMSD: 0.065
data_MOF--net-sxb--node1-CUKXOW_clean_sbu_0--edge1-UVAHIK_clean_linker_0
_symmetry_space_group_name_H-M    P1
_symmetry_Int_Tables_number       1
_symmetry_cell_setting            triclinic
loop_
_symmetry_equiv_pos_as_xyz
'x, y, z'
_cell_length_a     18.668104
_cell_length_b     41.720293
_cell_length_c     39.660594
_cell_angle_alpha  90.216914
_cell_angle_beta   102.94583
_cell_angle_gamma 89.99465
loop_
_atom_site_label
_atom_site_type_symbol
_atom_site_fract_x
_atom_site_fract_y
_atom_site_fract_z
_atom_type_partial_charge
Tb0 Tb 1.00825 0.01994 -0.00699 0.0
C1 C 1.02321 -0.01244 0.92283 0.0
Tb2 Tb 0.05038 0.94447 0.99102 0.0
O3 O 0.12168 0.03798 -0.00294 0.0
O4 O 0.09896 -0.00991 -0.00395 0.0
O5 O 0.99415 0.01146 0.9377 0.0
C6 C 0.12061 0.88927 0.98953 0.0
O7 O 0.05526 0.96189 0.93971 0.0
C8 C 0.90801 0.95486 0.98648 0.0
C9 C 0.03589 0.97694 0.06126 0.0
O10 O 0.06506 0.89915 0.96597 0.0
O11 O 0.13717 0.91064 0.01405 0.0
O12 O 0.93688 0.92645 0.98685 0.0
O13 O 0.9597 0.97433 0.9881 0.0
O14 O 0.06468 0.95296 0.04637 0.0
O15 O 1.0038 0.0026 0.04438 0.0
C16 C 0.93729 0.07498 -0.0058 0.0
O17 O 0.99281 0.06528 0.01788 0.0
O18 O 0.92122 0.05354 0.96974 0.0
C19 C 0.15057 0.00957 -0.00251 0.0
Tb20 Tb 0.0508 0.02149 0.49179 0.0
C21 C 0.033 -0.01122 0.56103 0.0
Tb22 Tb 1.00806 0.94601 0.4923 0.0
O23 O 0.93735 0.03942 0.48796 0.0
O24 O 0.95959 -0.00839 0.48696 0.0
O25 O 0.06324 0.01273 0.54692 0.0
C26 C 0.9373 0.89084 0.49286 0.0
O27 O 1.00101 0.96332 0.54347 0.0
C28 C 0.15089 0.95641 0.4982 0.0
C29 C 1.02639 0.97859 0.42307 0.0
O30 O 0.99218 0.90076 0.51685 0.0
O31 O 0.92173 0.91214 0.4684 0.0
O32 O 0.12168 0.92801 0.49692 0.0
O33 O 0.09925 0.97587 0.49682 0.0
O34 O 0.99643 0.95459 0.43722 0.0
O35 O 0.05773 0.00422 0.44054 0.0
C36 C 0.1207 0.07682 0.49079 0.0
O37 O 0.06545 0.06679 0.46707 0.0
O38 O 0.13716 0.05553 0.51523 0.0
C39 C 0.90813 0.01101 0.48637 0.0
Tb40 Tb 0.50676 0.51971 -0.00853 0.0
C41 C 0.52425 0.48711 0.92182 0.0
Tb42 Tb 0.54911 0.44423 0.99012 0.0
O43 O 0.6203 0.53768 -0.00436 0.0
O44 O 0.5977 0.48983 -0.00452 0.0
O45 O 0.49433 0.51104 0.93626 0.0
C46 C 0.61995 0.38908 0.98944 0.0
O47 O 0.55588 0.46153 0.93902 0.0
C48 C 0.40643 0.45462 0.98467 0.0
C49 C 0.53259 0.47695 0.05989 0.0
O50 O 0.56508 0.39885 0.96545 0.0
O51 O 0.63545 0.41051 0.01393 0.0
O52 O 0.43545 0.42622 0.98542 0.0
O53 O 0.45816 0.47409 0.98635 0.0
O54 O 0.56189 0.45291 0.04532 0.0
O55 O 0.50095 0.50257 0.04277 0.0
C56 C 0.43638 0.57494 -0.00754 0.0
O57 O 0.49186 0.5652 0.01614 0.0
O58 O 0.41996 0.55341 0.9681 0.0
C59 C 0.64931 0.50926 -0.00338 0.0
Tb60 Tb 0.5493 0.52172 0.49034 0.0
C61 C 0.53423 0.48914 0.56009 0.0
Tb62 Tb 0.50667 0.44626 0.49138 0.0
O63 O 0.43601 0.53977 0.48663 0.0
O64 O 0.45827 0.49189 0.48658 0.0
O65 O 0.56357 0.51307 0.54556 0.0
C66 C 0.43643 0.39106 0.49266 0.0
O67 O 0.50179 0.4636 0.54285 0.0
C68 C 0.64918 0.45661 0.49627 0.0
C69 C 0.52282 0.4787 0.4217 0.0
O70 O 0.49209 0.401 0.5162 0.0
O71 O 0.41974 0.41235 0.46825 0.0
O72 O 0.62006 0.42822 0.49536 0.0
O73 O 0.59763 0.47609 0.49501 0.0
O74 O 0.49336 0.45473 0.43615 0.0
O75 O 0.55471 0.50432 0.43897 0.0
C76 C 0.61984 0.57686 0.48923 0.0
O77 O 0.56447 0.56692 0.46552 0.0
O78 O 0.63603 0.5556 0.5137 0.0
C79 C 0.40685 0.51137 0.48564 0.0
C80 C 0.34349 0.61568 0.96505 0.0
C81 C 0.40094 0.60643 -0.00744 0.0
C82 C 0.31263 0.64626 0.96466 0.0
C83 C 0.35433 0.72744 0.001 0.0
H84 H 0.14371 0.73993 0.97213 0.0
C85 C 0.21365 0.84844 0.0165 0.0
C86 C 0.15604 0.85781 0.98914 0.0
C87 C 0.24454 0.81788 0.01664 0.0
C88 C 0.20273 0.73688 0.97989 0.0
H89 H 0.47041 0.62134 0.04148 0.0
H90 H 0.41616 0.67454 0.04101 0.0
H91 H 0.19444 0.68599 0.97298 0.0
H92 H 0.08628 0.84314 0.94019 0.0
H93 H 0.14058 0.78998 0.94021 0.0
H94 H 0.36263 0.77832 0.00792 0.0
C95 C 0.39559 0.65849 0.01949 0.0
C96 C 0.23175 0.70598 0.98037 0.0
C97 C 0.42629 0.62796 0.01989 0.0
C98 C 0.13054 0.83643 0.96168 0.0
C99 C 0.16127 0.80593 0.96181 0.0
C100 C 0.32532 0.75834 0.00051 0.0
C101 C 0.33884 0.6681 -0.00825 0.0
C102 C 0.30786 0.70091 0.99099 0.0
C103 C 0.2182 0.7962 0.98942 0.0
C104 C 0.24919 0.7634 0.98995 0.0
H105 H 0.32312 0.59948 0.94365 0.0
H106 H 0.26938 0.65306 0.94278 0.0
H107 H 0.41334 0.72439 0.00878 0.0
H108 H 0.23413 0.86452 0.03801 0.0
H109 H 0.28791 0.811 0.03842 0.0
C110 C 0.7124 0.3484 0.01735 0.0
C111 C 0.65581 0.35767 0.98948 0.0
C112 C 0.7437 0.3179 0.01787 0.0
C113 C 0.76507 0.24954 0.96132 0.0
H114 H 0.80176 0.20122 0.0468 0.0
C115 C 0.84447 0.11565 0.96664 0.0
C116 C 0.90138 0.10636 -0.00564 0.0
C117 C 0.81324 0.14614 0.96623 0.0
C118 C 0.79245 0.21452 0.02281 0.0
H119 H 0.58795 0.34281 0.94016 0.0
H120 H 0.64203 0.28955 0.94113 0.0
H121 H 0.75237 0.25542 0.04559 0.0
H122 H 0.96977 0.12117 0.04357 0.0
H123 H 0.91571 0.17444 0.04282 0.0
H124 H 0.80511 0.20863 0.93854 0.0
C125 C 0.66296 0.30582 0.96241 0.0
C126 C 0.76433 0.24559 0.02214 0.0
C127 C 0.63173 0.33625 0.96192 0.0
C128 C 0.92577 0.12776 0.02192 0.0
C129 C 0.89456 0.15819 0.02155 0.0
C130 C 0.79317 0.21846 0.96199 0.0
C131 C 0.71895 0.2962 0.99048 0.0
C132 C 0.75029 0.26344 0.99138 0.0
C133 C 0.83834 0.16782 -0.00641 0.0
C134 C 0.80717 0.20061 -0.00726 0.0
H135 H 0.732 0.36457 0.03887 0.0
H136 H 0.78741 0.31134 0.03965 0.0
H137 H 0.7558 0.26283 0.93733 0.0
H138 H 0.82463 0.0995 0.94512 0.0
H139 H 0.76933 0.15273 0.94454 0.0
C140 C 0.13049 0.12957 0.46317 0.0
C141 C 0.15598 0.10833 0.49058 0.0
C142 C 0.16113 0.16009 0.4634 0.0
C143 C 0.32511 0.20789 0.50207 0.0
H144 H 0.19427 0.28005 0.47444 0.0
C145 C 0.42656 0.3384 0.52045 0.0
C146 C 0.40097 0.3596 0.49302 0.0
C147 C 0.3958 0.30791 0.52034 0.0
C148 C 0.23157 0.26011 0.48186 0.0
H149 H 0.23393 0.1019 0.53948 0.0
H150 H 0.2876 0.15548 0.54006 0.0
H151 H 0.14348 0.22615 0.47387 0.0
H152 H 0.32268 0.36602 0.44422 0.0
H153 H 0.26883 0.31249 0.44383 0.0
H154 H 0.4132 0.24185 0.51004 0.0
C155 C 0.24428 0.14846 0.51824 0.0
C156 C 0.20252 0.22924 0.48154 0.0
C157 C 0.21346 0.11788 0.51802 0.0
C158 C 0.34324 0.35006 0.46569 0.0
C159 C 0.31232 0.31952 0.46558 0.0
C160 C 0.35417 0.23877 0.50238 0.0
C161 C 0.21797 0.16999 0.49106 0.0
C162 C 0.24897 0.20278 0.49161 0.0
C163 C 0.33875 0.29801 0.49278 0.0
C164 C 0.30772 0.26522 0.49231 0.0
H165 H 0.08633 0.12272 0.44163 0.0
H166 H 0.14047 0.17591 0.44182 0.0
H167 H 0.36241 0.18795 0.50949 0.0
H168 H 0.47091 0.34524 0.54191 0.0
H169 H 0.41656 0.29212 0.54193 0.0
C170 C 0.9256 0.83824 0.52043 0.0
C171 C 0.90138 0.85946 0.49286 0.0
C172 C 0.89425 0.80785 0.52005 0.0
C173 C 0.79209 0.74721 0.46062 0.0
H174 H 0.75219 0.71107 0.5445 0.0
C175 C 0.63091 0.62943 0.46146 0.0
C176 C 0.65556 0.60827 0.48902 0.0
C177 C 0.662 0.65987 0.46171 0.0
C178 C 0.76388 0.72068 0.52097 0.0
H179 H 0.82484 0.86602 0.44358 0.0
H180 H 0.76919 0.81284 0.44299 0.0
H181 H 0.80154 0.76526 0.54546 0.0
H182 H 0.73264 0.60184 0.53818 0.0
H183 H 0.78777 0.65509 0.53857 0.0
H184 H 0.7544 0.70262 0.43613 0.0
C185 C 0.81311 0.81954 0.46469 0.0
C186 C 0.79199 0.75174 0.5215 0.0
C187 C 0.84454 0.85001 0.4651 0.0
C188 C 0.7126 0.61781 0.51666 0.0
C189 C 0.74374 0.64832 0.51696 0.0
C190 C 0.76395 0.71615 0.46009 0.0
C191 C 0.83797 0.79806 0.49209 0.0
C192 C 0.80648 0.76534 0.49133 0.0
C193 C 0.7184 0.66975 0.48957 0.0
C194 C 0.74956 0.70253 0.49027 0.0
H195 H 0.96956 0.84495 0.54212 0.0
H196 H 0.91528 0.79176 0.54133 0.0
H197 H 0.80382 0.7568 0.43709 0.0
H198 H 0.5868 0.62266 0.43986 0.0
H199 H 0.64066 0.67593 0.44044 0.0
C200 C 0.25212 0.97188 0.99137 0.0
C201 C 0.22809 0.00284 -0.00279 0.0
C202 C 0.32579 0.96645 0.99041 0.0
C203 C 0.51205 0.00265 0.01695 0.0
H204 H 0.55835 0.9461 0.94707 0.0
C205 C 0.80646 -0.00748 -0.00735 0.0
C206 C 0.83046 0.96158 0.9867 0.0
C207 C 0.73278 -0.00205 -0.0064 0.0
C208 C 0.54648 0.96174 0.96698 0.0
H209 H 0.26161 0.05242 0.00639 0.0
H210 H 0.38933 0.04313 0.00442 0.0
H211 H 0.43058 0.95375 0.95028 0.0
H212 H 0.7969 0.91203 0.97735 0.0
H213 H 0.66919 0.9213 0.97933 0.0
H214 H 0.62795 0.01063 0.03366 0.0
C215 C 0.35213 0.02286 0.00115 0.0
C216 C 0.47314 0.96606 0.96886 0.0
C217 C 0.27876 0.02823 0.00205 0.0
C218 C 0.77976 0.93621 0.98176 0.0
C219 C 0.70639 0.94156 0.98267 0.0
C220 C 0.58539 -0.00168 0.01508 0.0
C221 C 0.37672 -0.00808 -0.0047 0.0
C222 C 0.45495 -0.0134 -0.00615 0.0
C223 C 0.68182 0.97248 0.98862 0.0
C224 C 0.60359 0.97779 0.99009 0.0
H225 H 0.21393 0.95201 0.98709 0.0
H226 H 0.34294 0.94227 0.98606 0.0
H227 H 0.50016 0.01829 0.03685 0.0
H228 H 0.84466 0.01238 -0.00297 0.0
H229 H 0.71565 0.02211 -0.00197 0.0
C230 C 0.25293 -0.00587 0.49284 0.0
C231 C 0.22853 0.96313 0.49809 0.0
C232 C 0.32663 -0.00049 0.49187 0.0
C233 C 0.51253 0.96273 0.51707 0.0
H234 H 0.55879 0.02035 0.44853 0.0
C235 C 0.80639 0.97315 0.49189 0.0
C236 C 0.83071 0.00421 0.48685 0.0
C237 C 0.73278 0.9677 0.493 0.0
C238 C 0.54693 0.00439 0.46806 0.0
H239 H 0.26145 0.91345 0.50621 0.0
H240 H 0.38914 0.92264 0.50419 0.0
H241 H 0.43112 0.01274 0.45191 0.0
H242 H 0.79775 0.05394 0.47928 0.0
H243 H 0.67021 0.04462 0.48148 0.0
H244 H 0.62838 0.95436 0.53319 0.0
C245 C 0.35226 0.94298 0.50141 0.0
C246 C 0.47365 0.0001 0.47005 0.0
C247 C 0.27888 0.93767 0.50235 0.0
C248 C 0.78039 0.02967 0.48299 0.0
C249 C 0.70711 0.02429 0.48402 0.0
C250 C 0.58582 0.96701 0.51507 0.0
C251 C 0.37723 0.97394 0.49613 0.0
C252 C 0.45545 0.9792 0.49457 0.0
C253 C 0.6822 -0.00674 0.48904 0.0
C254 C 0.60401 -0.01207 0.49057 0.0
H255 H 0.21502 0.01406 0.48901 0.0
H256 H 0.34404 0.02371 0.48797 0.0
H257 H 0.5007 0.94678 0.53662 0.0
H258 H 0.84429 0.95321 0.49542 0.0
H259 H 0.71539 0.94346 0.49671 0.0
C260 C 0.75084 0.47145 0.99065 0.0
C261 C 0.72677 0.50248 -0.00378 0.0
C262 C 0.82445 0.466 0.98955 0.0
C263 C 1.01062 0.50242 0.01533 0.0
H264 H 0.05651 0.44541 0.94574 0.0
C265 C 0.30466 0.4923 0.99059 0.0
C266 C 0.32881 0.46134 0.9848 0.0
C267 C 0.23098 0.49768 -0.00841 0.0
C268 C 0.04477 0.46118 0.96557 0.0
H269 H 0.76016 0.55212 0.00478 0.0
H270 H 0.88772 0.54279 0.00259 0.0
H271 H 0.92885 0.453 0.94921 0.0
H272 H 0.29545 0.41174 0.97572 0.0
H273 H 0.16777 0.42094 0.97778 0.0
H274 H 0.1265 0.51058 0.03171 0.0
C275 C 0.85063 0.5225 -0.00037 0.0
C276 C 0.97149 0.46547 0.96759 0.0
C277 C 0.77733 0.52789 0.00065 0.0
C278 C 0.27822 0.43593 0.98001 0.0
C279 C 0.20485 0.44125 0.98097 0.0
C280 C 0.08389 0.49812 0.01331 0.0
C281 C 0.87527 0.49151 -0.00595 0.0
C282 C 0.95344 0.48618 -0.00753 0.0
C283 C 0.18015 0.47217 0.9868 0.0
C284 C 0.10195 0.47743 0.98842 0.0
H285 H 0.71275 0.45155 0.98669 0.0
H286 H 0.84164 0.44179 0.9854 0.0
H287 H 0.99886 0.5182 0.03514 0.0
H288 H 0.34277 0.51219 -0.00516 0.0
H289 H 0.21378 0.52185 -0.00409 0.0
C290 C 0.27904 0.53014 0.48184 0.0
C291 C 0.3294 0.50468 0.48609 0.0
C292 C 0.20578 0.52485 0.48297 0.0
C293 C 0.064 0.46166 0.47426 0.0
H294 H 0.96578 0.52369 0.52141 0.0
C295 C 0.77709 0.43787 0.50027 0.0
C296 C 0.72668 0.46331 0.49592 0.0
C297 C 0.85035 0.44317 0.49915 0.0
C298 C 0.99207 0.50635 0.50778 0.0
H299 H 0.3431 0.45379 0.49542 0.0
H300 H 0.2145 0.44426 0.49737 0.0
H301 H 0.09433 0.53171 0.51978 0.0
H302 H 0.71291 0.51419 0.48646 0.0
H303 H 0.84152 0.52372 0.48455 0.0
H304 H 0.96173 0.4363 0.46227 0.0
C305 C 0.2315 0.46833 0.49262 0.0
C306 C 0.06588 0.5109 0.50687 0.0
C307 C 0.3051 0.4737 0.49149 0.0
C308 C 0.75094 0.49429 0.49046 0.0
C309 C 0.82455 0.49966 0.48935 0.0
C310 C 0.99019 0.45711 0.47517 0.0
C311 C 0.18099 0.49392 0.48853 0.0
C312 C 0.10279 0.48864 0.49006 0.0
C313 C 0.87509 0.47408 0.49352 0.0
C314 C 0.95329 0.47937 0.49198 0.0
H315 H 0.29626 0.5543 0.47757 0.0
H316 H 0.16834 0.54502 0.47915 0.0
H317 H 0.09028 0.44432 0.46062 0.0
H318 H 0.75989 0.41371 0.50458 0.0
H319 H 0.88782 0.42301 0.50302 0.0
C320 C 1.01815 0.94708 0.36825 0.0
C321 C 1.02689 0.9766 0.38586 0.0
C322 C 1.02156 0.94534 0.33339 0.0
C323 C 0.08544 -0.00803 0.26567 0.0
H324 H 0.95948 0.93361 0.20256 0.0
C325 C 0.03162 0.00312 0.11753 0.0
C326 C 0.03848 0.97508 0.09875 0.0
C327 C 0.03347 0.00167 0.15286 0.0
C328 C 0.99544 0.94978 0.22002 0.0
H329 H 0.04365 0.02761 0.38042 0.0
H330 H 0.04691 0.02481 0.31966 0.0
H331 H 0.95454 0.93446 0.2636 0.0
H332 H 0.05203 0.92347 0.10226 0.0
H333 H 0.05376 0.92095 0.16417 0.0
H334 H 0.1242 0.00803 0.2217 0.0
C335 C 0.04002 0.00275 0.33287 0.0
C336 C 0.99287 0.95024 0.25501 0.0
C337 C 0.03763 0.0044 0.36774 0.0
C338 C 0.04693 0.9455 0.11607 0.0
C339 C 0.04752 0.94401 0.15139 0.0
C340 C 0.08719 -0.00819 0.23067 0.0
C341 C 0.03288 0.97316 0.31527 0.0
C342 C 0.03738 0.97158 0.27825 0.0
C343 C 0.0411 0.97212 0.17009 0.0
C344 C 0.04184 0.9709 0.20748 0.0
H345 H 1.01025 0.92518 0.38156 0.0
H346 H 1.01668 0.92209 0.32087 0.0
H347 H 0.12194 0.00814 0.28285 0.0
H348 H 1.02532 0.0263 0.105 0.0
H349 H 1.02783 0.02367 0.16664 0.0
C350 C 1.01239 0.01928 0.86825 0.0
C351 C 1.02117 -0.01038 0.88541 0.0
C352 C 1.0122 0.02102 0.83299 0.0
C353 C 0.97387 0.97366 0.75346 0.0
H354 H 0.10526 0.03197 0.72096 0.0
C355 C 1.02308 0.96253 0.61627 0.0
C356 C 0.03306 -0.00948 0.5983 0.0
C357 C 1.02099 0.96389 0.65119 0.0
C358 C 0.06729 0.01593 0.72943 0.0
H359 H 0.03546 0.93851 0.87893 0.0
H360 H 0.03362 0.94156 0.81736 0.0
H361 H 0.10037 0.03223 0.78202 0.0
H362 H 0.04885 0.04197 0.60292 0.0
H363 H 0.0429 0.04455 0.66373 0.0
H364 H 0.93936 0.95767 0.70115 0.0
C365 C 1.02742 0.96343 0.83124 0.0
C366 C 0.06475 0.01603 0.76443 0.0
C367 C 1.02886 0.96175 0.86652 0.0
C368 C 0.04149 0.01994 0.61612 0.0
C369 C 0.03836 0.02138 0.65104 0.0
C370 C 0.97557 0.97384 0.71846 0.0
C371 C 1.01938 -0.00693 0.81417 0.0
C372 C 1.0188 -0.00544 0.77681 0.0
C373 C 1.02765 -0.00664 0.66899 0.0
C374 C 1.02318 -0.00541 0.70603 0.0
H375 H 1.00667 0.0412 0.88213 0.0
H376 H 1.00562 0.04414 0.82033 0.0
H377 H 0.93718 0.95718 0.76229 0.0
H378 H 1.01738 0.9394 0.60344 0.0
H379 H 1.01466 0.94168 0.66426 0.0
C380 C 0.53167 0.50457 0.36612 0.0
C381 C 0.52223 0.4767 0.3844 0.0
C382 C 0.53354 0.50295 0.33119 0.0
C383 C 0.48771 0.45022 0.25348 0.0
H384 H 0.61734 0.50875 0.22001 0.0
C385 C 0.54296 0.44566 0.11474 0.0
C386 C 0.53415 0.47517 0.09729 0.0
C387 C 0.54295 0.44422 0.15 0.0
C388 C 0.58078 0.49233 0.22902 0.0
H389 H 0.5071 0.4252 0.38031 0.0
H390 H 0.51263 0.42216 0.31947 0.0
H391 H 0.61508 0.50883 0.28115 0.0
H392 H 0.51953 0.52634 0.10324 0.0
H393 H 0.52097 0.52381 0.16478 0.0
H394 H 0.45483 0.43341 0.20107 0.0
C395 C 0.51693 0.44543 0.33193 0.0
C396 C 0.57904 0.49247 0.26401 0.0
C397 C 0.51403 0.44713 0.36686 0.0
C398 C 0.52615 0.5032 0.11587 0.0
C399 C 0.52738 0.50182 0.15114 0.0
C400 C 0.49028 0.44979 0.21849 0.0
C401 C 0.52718 0.47333 0.31369 0.0
C402 C 0.5316 0.47179 0.27666 0.0
C403 C 0.53553 0.47233 0.16852 0.0
C404 C 0.53605 0.47118 0.20588 0.0
H405 H 0.5372 0.5278 0.37873 0.0
H406 H 0.53953 0.52506 0.31788 0.0
H407 H 0.44989 0.43421 0.26212 0.0
H408 H 0.54893 0.42363 0.1011 0.0
H409 H 0.54962 0.42121 0.16289 0.0
C410 C 0.54559 0.52045 0.61525 0.0
C411 C 0.53659 0.49092 0.59758 0.0
C412 C 0.54605 0.52189 0.65057 0.0
C413 C 0.58449 0.47387 0.72928 0.0
H414 H 0.45288 0.53159 0.76277 0.0
C415 C 0.53464 0.46132 0.86618 0.0
C416 C 0.52445 0.48913 0.88461 0.0
C417 C 0.53699 0.463 0.83132 0.0
C418 C 0.49092 0.5157 0.75403 0.0
H419 H 0.52229 0.43974 0.6032 0.0
H420 H 0.52458 0.44227 0.66484 0.0
H421 H 0.45797 0.53248 0.70176 0.0
H422 H 0.5087 0.54059 0.88088 0.0
H423 H 0.51508 0.54372 0.8202 0.0
H424 H 0.61883 0.4574 0.78128 0.0
C425 C 0.53074 0.46427 0.65133 0.0
C426 C 0.49357 0.51618 0.71906 0.0
C427 C 0.52902 0.46288 0.616 0.0
C428 C 0.51616 0.51869 0.86732 0.0
C429 C 0.51954 0.52045 0.83246 0.0
C430 C 0.58267 0.47369 0.76427 0.0
C431 C 0.53895 0.49377 0.66892 0.0
C432 C 0.53959 0.49493 0.70631 0.0
C433 C 0.53038 0.49261 0.81405 0.0
C434 C 0.53498 0.49422 0.77705 0.0
H435 H 0.55125 0.54248 0.60172 0.0
H436 H 0.55275 0.5449 0.66363 0.0
H437 H 0.62121 0.45755 0.72015 0.0
H438 H 0.5403 0.43809 0.87862 0.0
H439 H 0.54347 0.44092 0.81787 0.0
loop_
_geom_bond_atom_site_label_1
_geom_bond_atom_site_label_2
_geom_bond_distance
_geom_bond_site_symmetry_2
_ccdc_geom_bond_type
Tb0 O3 2.453 . S
Tb0 O4 2.596 1_545 S
Tb0 O5 2.374 1_454 S
Tb0 O13 2.343 1_454 S
Tb0 O15 2.353 . S
Tb0 O17 2.427 1_455 S
Tb0 O18 2.513 1_454 S
C1 O5 1.251 . S
C1 O7 1.263 1_545 S
Tb2 O4 2.343 1_656 S
Tb2 O7 2.353 . S
Tb2 O10 2.427 1_655 S
Tb2 O11 2.513 1_656 S
Tb2 O12 2.453 . S
Tb2 O13 2.596 1_565 S
Tb2 O14 2.374 1_656 S
O3 Tb0 2.453 . S
O3 C19 1.245 . S
O4 Tb0 2.596 1_565 S
O4 Tb2 2.343 1_454 S
O4 C19 1.259 1_565 S
O5 Tb0 2.374 1_656 S
O5 C1 1.251 . S
C6 O10 1.275 1_554 S
C6 O11 1.246 . S
O7 C1 1.263 1_565 S
O7 Tb2 2.353 . S
C8 O12 1.245 . S
C8 O13 1.259 1_565 S
C9 O14 1.250 . S
C9 O15 1.263 1_565 S
O10 Tb2 2.427 1_455 S
O10 C6 1.275 1_556 S
O11 Tb2 2.513 1_454 S
O11 C6 1.246 . S
O12 Tb2 2.453 . S
O12 C8 1.245 . S
O13 Tb0 2.343 1_656 S
O13 Tb2 2.596 1_545 S
O13 C8 1.259 1_545 S
O14 Tb2 2.374 1_454 S
O14 C9 1.250 . S
O15 Tb0 2.353 . S
O15 C9 1.263 1_545 S
C16 O17 1.275 1_556 S
C16 O18 1.246 . S
O17 Tb0 2.427 1_655 S
O17 C16 1.275 1_554 S
O18 Tb0 2.513 1_656 S
O18 C16 1.246 . S
C19 O3 1.245 . S
C19 O4 1.259 1_545 S
Tb20 O23 2.453 . S
Tb20 O24 2.596 1_545 S
Tb20 O25 2.374 1_655 S
Tb20 O33 2.343 1_655 S
Tb20 O35 2.353 . S
Tb20 O37 2.427 1_655 S
Tb20 O38 2.513 1_655 S
C21 O25 1.251 . S
C21 O27 1.263 1_545 S
Tb22 O24 2.343 1_455 S
Tb22 O27 2.353 . S
Tb22 O30 2.427 1_455 S
Tb22 O31 2.513 1_455 S
Tb22 O32 2.453 . S
Tb22 O33 2.596 1_565 S
Tb22 O34 2.374 1_455 S
O23 Tb20 2.453 . S
O23 C39 1.245 . S
O24 Tb20 2.596 1_565 S
O24 Tb22 2.343 1_655 S
O24 C39 1.259 1_565 S
O25 Tb20 2.374 1_455 S
O25 C21 1.251 . S
C26 O30 1.275 . S
C26 O31 1.246 . S
O27 C21 1.263 1_565 S
O27 Tb22 2.353 . S
C28 O32 1.245 . S
C28 O33 1.259 1_565 S
C29 O34 1.250 . S
C29 O35 1.263 1_565 S
O30 Tb22 2.427 1_655 S
O30 C26 1.275 . S
O31 Tb22 2.513 1_655 S
O31 C26 1.246 . S
O32 Tb22 2.453 . S
O32 C28 1.245 . S
O33 Tb20 2.343 1_455 S
O33 Tb22 2.596 1_545 S
O33 C28 1.259 1_545 S
O34 Tb22 2.374 1_655 S
O34 C29 1.250 . S
O35 Tb20 2.353 . S
O35 C29 1.263 1_545 S
C36 O37 1.275 . S
C36 O38 1.246 . S
O37 Tb20 2.427 1_455 S
O37 C36 1.275 . S
O38 Tb20 2.513 1_455 S
O38 C36 1.246 . S
C39 O23 1.245 . S
C39 O24 1.259 1_545 S
Tb40 O43 2.453 . S
Tb40 O44 2.596 . S
Tb40 O45 2.374 1_554 S
Tb40 O53 2.343 1_554 S
Tb40 O55 2.353 . S
Tb40 O57 2.427 . S
Tb40 O58 2.513 1_554 S
C41 O45 1.251 . S
C41 O47 1.263 . S
Tb42 O44 2.343 1_556 S
Tb42 O47 2.353 . S
Tb42 O50 2.427 . S
Tb42 O51 2.513 1_556 S
Tb42 O52 2.453 . S
Tb42 O53 2.596 . S
Tb42 O54 2.374 1_556 S
O43 Tb40 2.453 . S
O43 C59 1.245 . S
O44 Tb40 2.596 . S
O44 Tb42 2.343 1_554 S
O44 C59 1.259 . S
O45 Tb40 2.374 1_556 S
O45 C41 1.251 . S
C46 O50 1.275 1_554 S
C46 O51 1.246 . S
O47 C41 1.263 . S
O47 Tb42 2.353 . S
C48 O52 1.245 . S
C48 O53 1.259 . S
C49 O54 1.250 . S
C49 O55 1.263 . S
O50 Tb42 2.427 . S
O50 C46 1.275 1_556 S
O51 Tb42 2.513 1_554 S
O51 C46 1.246 . S
O52 Tb42 2.453 . S
O52 C48 1.245 . S
O53 Tb40 2.343 1_556 S
O53 Tb42 2.596 . S
O53 C48 1.259 . S
O54 Tb42 2.374 1_554 S
O54 C49 1.250 . S
O55 Tb40 2.353 . S
O55 C49 1.263 . S
C56 O57 1.275 1_556 S
C56 O58 1.246 . S
O57 Tb40 2.427 . S
O57 C56 1.275 1_554 S
O58 Tb40 2.513 1_556 S
O58 C56 1.246 . S
C59 O43 1.245 . S
C59 O44 1.259 . S
Tb60 O63 2.453 . S
Tb60 O64 2.596 . S
Tb60 O65 2.374 . S
Tb60 O73 2.343 . S
Tb60 O75 2.353 . S
Tb60 O77 2.427 . S
Tb60 O78 2.513 . S
C61 O65 1.251 . S
C61 O67 1.263 . S
Tb62 O64 2.343 . S
Tb62 O67 2.353 . S
Tb62 O70 2.427 . S
Tb62 O71 2.513 . S
Tb62 O72 2.453 . S
Tb62 O73 2.596 . S
Tb62 O74 2.374 . S
O63 Tb60 2.453 . S
O63 C79 1.245 . S
O64 Tb60 2.596 . S
O64 Tb62 2.343 . S
O64 C79 1.259 . S
O65 Tb60 2.374 . S
O65 C61 1.251 . S
C66 O70 1.275 . S
C66 O71 1.246 . S
O67 C61 1.263 . S
O67 Tb62 2.353 . S
C68 O72 1.245 . S
C68 O73 1.259 . S
C69 O74 1.250 . S
C69 O75 1.263 . S
O70 Tb62 2.427 . S
O70 C66 1.275 . S
O71 Tb62 2.513 . S
O71 C66 1.246 . S
O72 Tb62 2.453 . S
O72 C68 1.245 . S
O73 Tb60 2.343 . S
O73 Tb62 2.596 . S
O73 C68 1.259 . S
O74 Tb62 2.374 . S
O74 C69 1.250 . S
O75 Tb60 2.353 . S
O75 C69 1.263 . S
C76 O77 1.275 . S
C76 O78 1.246 . S
O77 Tb60 2.427 . S
O77 C76 1.275 . S
O78 Tb60 2.513 . S
O78 C76 1.246 . S
C79 O63 1.245 . S
C79 O64 1.259 . S
C80 C81 1.349 . S
C80 C82 1.327 . S
C80 H105 0.950 . S
C81 C80 1.349 . S
C81 C97 1.349 1_556 S
C82 C80 1.327 . S
C82 C101 1.454 . S
C82 H106 0.950 . S
C83 C100 1.574 . S
C83 C102 1.359 1_554 S
C83 H107 0.949 . S
H84 C88 0.949 . S
C85 C86 1.349 . S
C85 C87 1.327 . S
C85 H108 0.950 . S
C86 C85 1.349 . S
C86 C98 1.349 1_554 S
C87 C85 1.327 . S
C87 C103 1.429 . S
C87 H109 0.950 . S
C88 H84 0.949 . S
C88 C96 1.574 . S
C88 C104 1.353 1_556 S
H89 C97 0.950 . S
H90 C95 0.950 . S
H91 C96 0.949 . S
H92 C98 0.950 . S
H93 C99 0.950 . S
H94 C100 0.949 . S
C95 H90 0.950 . S
C95 C97 1.327 . S
C95 C101 1.408 1_554 S
C96 C88 1.574 . S
C96 H91 0.949 . S
C96 C102 1.376 . S
C97 C81 1.349 1_554 S
C97 H89 0.950 . S
C97 C95 1.327 . S
C98 C86 1.349 1_556 S
C98 H92 0.950 . S
C98 C99 1.327 . S
C99 H93 0.950 . S
C99 C98 1.327 . S
C99 C103 1.429 1_556 S
C100 C83 1.574 . S
C100 H94 0.949 . S
C100 C104 1.382 . S
C101 C82 1.454 . S
C101 C95 1.408 1_556 S
C101 C102 1.521 . S
C102 C83 1.359 1_556 S
C102 C96 1.376 . S
C102 C101 1.521 . S
C103 C87 1.429 . S
C103 C99 1.429 1_554 S
C103 C104 1.525 . S
C104 C88 1.353 1_554 S
C104 C100 1.382 . S
C104 C103 1.525 . S
H105 C80 0.950 . S
H106 C82 0.950 . S
H107 C83 0.949 . S
H108 C85 0.950 . S
H109 C87 0.950 . S
C110 C111 1.349 . S
C110 C112 1.327 . S
C110 H135 0.950 . S
C111 C110 1.349 . S
C111 C127 1.349 1_554 S
C112 C110 1.327 . S
C112 C131 1.429 . S
C112 H136 0.950 . S
C113 C130 1.574 . S
C113 C132 1.352 1_556 S
C113 H137 0.949 . S
H114 C118 0.949 . S
C115 C116 1.349 . S
C115 C117 1.327 . S
C115 H138 0.950 . S
C116 C115 1.349 . S
C116 C128 1.349 1_556 S
C117 C115 1.327 . S
C117 C133 1.455 . S
C117 H139 0.950 . S
C118 H114 0.949 . S
C118 C126 1.574 . S
C118 C134 1.359 1_554 S
H119 C127 0.950 . S
H120 C125 0.950 . S
H121 C126 0.949 . S
H122 C128 0.950 . S
H123 C129 0.950 . S
H124 C130 0.949 . S
C125 H120 0.950 . S
C125 C127 1.327 . S
C125 C131 1.429 1_556 S
C126 C118 1.574 . S
C126 H121 0.949 . S
C126 C132 1.383 . S
C127 C111 1.349 1_556 S
C127 H119 0.950 . S
C127 C125 1.327 . S
C128 C116 1.349 1_554 S
C128 H122 0.950 . S
C128 C129 1.327 . S
C129 H123 0.950 . S
C129 C128 1.327 . S
C129 C133 1.407 1_554 S
C130 C113 1.574 . S
C130 H124 0.949 . S
C130 C134 1.377 . S
C131 C112 1.429 . S
C131 C125 1.429 1_554 S
C131 C132 1.525 . S
C132 C113 1.352 1_554 S
C132 C126 1.383 . S
C132 C131 1.525 . S
C133 C117 1.455 . S
C133 C129 1.407 1_556 S
C133 C134 1.521 . S
C134 C118 1.359 1_556 S
C134 C130 1.377 . S
C134 C133 1.521 . S
H135 C110 0.950 . S
H136 C112 0.950 . S
H137 C113 0.949 . S
H138 C115 0.950 . S
H139 C117 0.950 . S
C140 C141 1.349 . S
C140 C142 1.327 . S
C140 H165 0.950 . S
C141 C140 1.349 . S
C141 C157 1.349 . S
C142 C140 1.327 . S
C142 C161 1.429 . S
C142 H166 0.950 . S
C143 C160 1.574 . S
C143 C162 1.368 . S
C143 H167 0.949 . S
H144 C148 0.949 . S
C145 C146 1.349 . S
C145 C147 1.327 . S
C145 H168 0.950 . S
C146 C145 1.349 . S
C146 C158 1.349 . S
C147 C145 1.327 . S
C147 C163 1.429 . S
C147 H169 0.950 . S
C148 H144 0.949 . S
C148 C156 1.574 . S
C148 C164 1.368 . S
H149 C157 0.950 . S
H150 C155 0.950 . S
H151 C156 0.949 . S
H152 C158 0.950 . S
H153 C159 0.950 . S
H154 C160 0.949 . S
C155 H150 0.950 . S
C155 C157 1.327 . S
C155 C161 1.429 . S
C156 C148 1.574 . S
C156 H151 0.949 . S
C156 C162 1.368 . S
C157 C141 1.349 . S
C157 H149 0.950 . S
C157 C155 1.327 . S
C158 C146 1.349 . S
C158 H152 0.950 . S
C158 C159 1.327 . S
C159 H153 0.950 . S
C159 C158 1.327 . S
C159 C163 1.429 . S
C160 C143 1.574 . S
C160 H154 0.949 . S
C160 C164 1.368 . S
C161 C142 1.429 . S
C161 C155 1.429 . S
C161 C162 1.523 . S
C162 C143 1.368 . S
C162 C156 1.368 . S
C162 C161 1.523 . S
C163 C147 1.429 . S
C163 C159 1.429 . S
C163 C164 1.523 . S
C164 C148 1.368 . S
C164 C160 1.368 . S
C164 C163 1.523 . S
H165 C140 0.950 . S
H166 C142 0.950 . S
H167 C143 0.949 . S
H168 C145 0.950 . S
H169 C147 0.950 . S
C170 C171 1.349 . S
C170 C172 1.327 . S
C170 H195 0.950 . S
C171 C170 1.349 . S
C171 C187 1.349 . S
C172 C170 1.327 . S
C172 C191 1.429 . S
C172 H196 0.950 . S
C173 C190 1.574 . S
C173 C192 1.368 . S
C173 H197 0.949 . S
H174 C178 0.949 . S
C175 C176 1.349 . S
C175 C177 1.327 . S
C175 H198 0.950 . S
C176 C175 1.349 . S
C176 C188 1.349 . S
C177 C175 1.327 . S
C177 C193 1.429 . S
C177 H199 0.950 . S
C178 H174 0.949 . S
C178 C186 1.574 . S
C178 C194 1.368 . S
H179 C187 0.950 . S
H180 C185 0.950 . S
H181 C186 0.949 . S
H182 C188 0.950 . S
H183 C189 0.950 . S
H184 C190 0.949 . S
C185 H180 0.950 . S
C185 C187 1.327 . S
C185 C191 1.429 . S
C186 C178 1.574 . S
C186 H181 0.949 . S
C186 C192 1.368 . S
C187 C171 1.349 . S
C187 H179 0.950 . S
C187 C185 1.327 . S
C188 C176 1.349 . S
C188 H182 0.950 . S
C188 C189 1.327 . S
C189 H183 0.950 . S
C189 C188 1.327 . S
C189 C193 1.429 . S
C190 C173 1.574 . S
C190 H184 0.949 . S
C190 C194 1.368 . S
C191 C172 1.429 . S
C191 C185 1.429 . S
C191 C192 1.523 . S
C192 C173 1.368 . S
C192 C186 1.368 . S
C192 C191 1.523 . S
C193 C177 1.429 . S
C193 C189 1.429 . S
C193 C194 1.523 . S
C194 C178 1.368 . S
C194 C190 1.368 . S
C194 C193 1.523 . S
H195 C170 0.950 . S
H196 C172 0.950 . S
H197 C173 0.949 . S
H198 C175 0.950 . S
H199 C177 0.950 . S
C200 C201 1.371 . S
C200 C202 1.327 . S
C200 H225 0.950 . S
C201 C200 1.371 . S
C201 C217 1.335 1_566 S
C202 C200 1.327 . S
C202 C221 1.434 . S
C202 H226 0.950 . S
C203 C220 1.574 . S
C203 C222 1.368 1_544 S
C203 H227 0.949 . S
H204 C208 0.949 . S
C205 C206 1.349 . S
C205 C207 1.327 . S
C205 H228 0.950 . S
C206 C205 1.349 . S
C206 C218 1.349 1_544 S
C207 C205 1.327 . S
C207 C223 1.437 . S
C207 H229 0.950 . S
C208 H204 0.949 . S
C208 C216 1.574 . S
C208 C224 1.364 1_566 S
H209 C217 0.950 . S
H210 C215 0.950 . S
H211 C216 0.949 . S
H212 C218 0.950 . S
H213 C219 0.950 . S
H214 C220 0.949 . S
C215 H210 0.950 . S
C215 C217 1.327 . S
C215 C221 1.420 1_544 S
C216 C208 1.574 . S
C216 H211 0.949 . S
C216 C222 1.369 . S
C217 C201 1.335 1_544 S
C217 H209 0.950 . S
C217 C215 1.327 . S
C218 C206 1.349 1_566 S
C218 H212 0.950 . S
C218 C219 1.327 . S
C219 H213 0.950 . S
C219 C218 1.327 . S
C219 C223 1.415 1_566 S
C220 C203 1.574 . S
C220 H214 0.949 . S
C220 C224 1.375 . S
C221 C202 1.434 . S
C221 C215 1.420 1_566 S
C221 C222 1.526 . S
C222 C203 1.368 1_566 S
C222 C216 1.369 . S
C222 C221 1.526 . S
C223 C207 1.437 . S
C223 C219 1.415 1_544 S
C223 C224 1.526 . S
C224 C208 1.364 1_544 S
C224 C220 1.375 . S
C224 C223 1.526 . S
H225 C200 0.950 . S
H226 C202 0.950 . S
H227 C203 0.949 . S
H228 C205 0.950 . S
H229 C207 0.950 . S
C230 C231 1.349 . S
C230 C232 1.327 . S
C230 H255 0.950 . S
C231 C230 1.349 . S
C231 C247 1.349 1_545 S
C232 C230 1.327 . S
C232 C251 1.429 . S
C232 H256 0.950 . S
C233 C250 1.574 . S
C233 C252 1.368 1_565 S
C233 H257 0.949 . S
H234 C238 0.949 . S
C235 C236 1.349 . S
C235 C237 1.327 . S
C235 H258 0.950 . S
C236 C235 1.349 . S
C236 C248 1.349 1_565 S
C237 C235 1.327 . S
C237 C253 1.429 . S
C237 H259 0.950 . S
C238 H234 0.949 . S
C238 C246 1.574 . S
C238 C254 1.368 1_545 S
H239 C247 0.950 . S
H240 C245 0.950 . S
H241 C246 0.949 . S
H242 C248 0.950 . S
H243 C249 0.950 . S
H244 C250 0.949 . S
C245 H240 0.950 . S
C245 C247 1.327 . S
C245 C251 1.429 1_565 S
C246 C238 1.574 . S
C246 H241 0.949 . S
C246 C252 1.368 . S
C247 C231 1.349 1_565 S
C247 H239 0.950 . S
C247 C245 1.327 . S
C248 C236 1.349 1_545 S
C248 H242 0.950 . S
C248 C249 1.327 . S
C249 H243 0.950 . S
C249 C248 1.327 . S
C249 C253 1.429 1_545 S
C250 C233 1.574 . S
C250 H244 0.949 . S
C250 C254 1.368 . S
C251 C232 1.429 . S
C251 C245 1.429 1_545 S
C251 C252 1.523 . S
C252 C233 1.368 1_545 S
C252 C246 1.368 . S
C252 C251 1.523 . S
C253 C237 1.429 . S
C253 C249 1.429 1_565 S
C253 C254 1.523 . S
C254 C238 1.368 1_565 S
C254 C250 1.368 . S
C254 C253 1.523 . S
H255 C230 0.950 . S
H256 C232 0.950 . S
H257 C233 0.949 . S
H258 C235 0.950 . S
H259 C237 0.950 . S
C260 C261 1.370 . S
C260 C262 1.327 . S
C260 H285 0.950 . S
C261 C260 1.370 . S
C261 C277 1.337 1_556 S
C262 C260 1.327 . S
C262 C281 1.433 . S
C262 H286 0.950 . S
C263 C280 1.574 1_655 S
C263 C282 1.368 1_554 S
C263 H287 0.949 . S
H264 C268 0.949 . S
C265 C266 1.349 . S
C265 C267 1.327 . S
C265 H288 0.950 . S
C266 C265 1.349 . S
C266 C278 1.349 1_554 S
C267 C265 1.327 . S
C267 C283 1.436 . S
C267 H289 0.950 . S
C268 H264 0.949 . S
C268 C276 1.574 1_455 S
C268 C284 1.364 1_556 S
H269 C277 0.950 . S
H270 C275 0.950 . S
H271 C276 0.949 . S
H272 C278 0.950 . S
H273 C279 0.950 . S
H274 C280 0.949 . S
C275 H270 0.950 . S
C275 C277 1.327 . S
C275 C281 1.421 1_554 S
C276 C268 1.574 1_655 S
C276 H271 0.949 . S
C276 C282 1.369 . S
C277 C261 1.337 1_554 S
C277 H269 0.950 . S
C277 C275 1.327 . S
C278 C266 1.349 1_556 S
C278 H272 0.950 . S
C278 C279 1.327 . S
C279 H273 0.950 . S
C279 C278 1.327 . S
C279 C283 1.416 1_556 S
C280 C263 1.574 1_455 S
C280 H274 0.949 . S
C280 C284 1.374 . S
C281 C262 1.433 . S
C281 C275 1.421 1_556 S
C281 C282 1.526 . S
C282 C263 1.368 1_556 S
C282 C276 1.369 . S
C282 C281 1.526 . S
C283 C267 1.436 . S
C283 C279 1.416 1_554 S
C283 C284 1.526 . S
C284 C268 1.364 1_554 S
C284 C280 1.374 . S
C284 C283 1.526 . S
H285 C260 0.950 . S
H286 C262 0.950 . S
H287 C263 0.949 . S
H288 C265 0.950 . S
H289 C267 0.950 . S
C290 C291 1.349 . S
C290 C292 1.327 . S
C290 H315 0.950 . S
C291 C290 1.349 . S
C291 C307 1.349 . S
C292 C290 1.327 . S
C292 C311 1.429 . S
C292 H316 0.950 . S
C293 C310 1.574 1_455 S
C293 C312 1.368 . S
C293 H317 0.949 . S
H294 C298 0.949 . S
C295 C296 1.349 . S
C295 C297 1.327 . S
C295 H318 0.950 . S
C296 C295 1.349 . S
C296 C308 1.349 . S
C297 C295 1.327 . S
C297 C313 1.429 . S
C297 H319 0.950 . S
C298 H294 0.949 . S
C298 C306 1.574 1_655 S
C298 C314 1.368 . S
H299 C307 0.950 . S
H300 C305 0.950 . S
H301 C306 0.949 . S
H302 C308 0.950 . S
H303 C309 0.950 . S
H304 C310 0.949 . S
C305 H300 0.950 . S
C305 C307 1.327 . S
C305 C311 1.429 . S
C306 C298 1.574 1_455 S
C306 H301 0.949 . S
C306 C312 1.368 . S
C307 C291 1.349 . S
C307 H299 0.950 . S
C307 C305 1.327 . S
C308 C296 1.349 . S
C308 H302 0.950 . S
C308 C309 1.327 . S
C309 H303 0.950 . S
C309 C308 1.327 . S
C309 C313 1.429 . S
C310 C293 1.574 1_655 S
C310 H304 0.949 . S
C310 C314 1.368 . S
C311 C292 1.429 . S
C311 C305 1.429 . S
C311 C312 1.523 . S
C312 C293 1.368 . S
C312 C306 1.368 . S
C312 C311 1.523 . S
C313 C297 1.429 . S
C313 C309 1.429 . S
C313 C314 1.523 . S
C314 C298 1.368 . S
C314 C310 1.368 . S
C314 C313 1.523 . S
H315 C290 0.950 . S
H316 C292 0.950 . S
H317 C293 0.949 . S
H318 C295 0.950 . S
H319 C297 0.950 . S
C320 C321 1.349 1_655 S
C320 C322 1.327 . S
C320 H345 0.950 . S
C321 C320 1.349 1_455 S
C321 C337 1.349 1_565 S
C322 C320 1.327 . S
C322 C341 1.422 1_655 S
C322 H346 0.950 . S
C323 C340 1.574 . S
C323 C342 1.371 1_545 S
C323 H347 0.949 . S
H324 C328 0.949 . S
C325 C326 1.343 1_445 S
C325 C327 1.327 . S
C325 H348 0.950 . S
C326 C325 1.343 1_665 S
C326 C338 1.359 . S
C327 C325 1.327 . S
C327 C343 1.425 1_445 S
C327 H349 0.950 . S
C328 H324 0.949 . S
C328 C336 1.574 . S
C328 C344 1.369 . S
H329 C337 0.950 . S
H330 C335 0.950 . S
H331 C336 0.949 . S
H332 C338 0.950 . S
H333 C339 0.950 . S
H334 C340 0.949 . S
C335 H330 0.950 . S
C335 C337 1.327 . S
C335 C341 1.432 1_545 S
C336 C328 1.574 . S
C336 H331 0.949 . S
C336 C342 1.366 1_655 S
C337 C321 1.349 1_545 S
C337 H329 0.950 . S
C337 C335 1.327 . S
C338 C326 1.359 . S
C338 H332 0.950 . S
C338 C339 1.327 . S
C339 H333 0.950 . S
C339 C338 1.327 . S
C339 C343 1.431 . S
C340 C323 1.574 . S
C340 H334 0.949 . S
C340 C344 1.368 1_445 S
C341 C322 1.422 1_455 S
C341 C335 1.432 1_565 S
C341 C342 1.524 . S
C342 C323 1.371 1_565 S
C342 C336 1.366 1_455 S
C342 C341 1.524 . S
C343 C327 1.425 1_665 S
C343 C339 1.431 . S
C343 C344 1.524 . S
C344 C328 1.369 . S
C344 C340 1.368 1_665 S
C344 C343 1.524 . S
H345 C320 0.950 . S
H346 C322 0.950 . S
H347 C323 0.949 . S
H348 C325 0.950 . S
H349 C327 0.950 . S
C350 C351 1.349 . S
C350 C352 1.327 . S
C350 H375 0.950 . S
C351 C350 1.349 . S
C351 C367 1.349 1_445 S
C352 C350 1.327 . S
C352 C371 1.432 . S
C352 H376 0.950 . S
C353 C370 1.574 . S
C353 C372 1.366 1_665 S
C353 H377 0.949 . S
H354 C358 0.949 . S
C355 C356 1.359 1_565 S
C355 C357 1.327 . S
C355 H378 0.950 . S
C356 C355 1.359 1_545 S
C356 C368 1.343 1_655 S
C357 C355 1.327 . S
C357 C373 1.431 1_565 S
C357 H379 0.950 . S
C358 H354 0.949 . S
C358 C366 1.574 . S
C358 C374 1.368 1_455 S
H359 C367 0.950 . S
H360 C365 0.950 . S
H361 C366 0.949 . S
H362 C368 0.950 . S
H363 C369 0.950 . S
H364 C370 0.949 . S
C365 H360 0.950 . S
C365 C367 1.327 . S
C365 C371 1.422 1_665 S
C366 C358 1.574 . S
C366 H361 0.949 . S
C366 C372 1.371 . S
C367 C351 1.349 1_665 S
C367 H359 0.950 . S
C367 C365 1.327 . S
C368 C356 1.343 1_455 S
C368 H362 0.950 . S
C368 C369 1.327 . S
C369 H363 0.950 . S
C369 C368 1.327 . S
C369 C373 1.425 1_455 S
C370 C353 1.574 . S
C370 H364 0.949 . S
C370 C374 1.369 1_565 S
C371 C352 1.432 . S
C371 C365 1.422 1_445 S
C371 C372 1.524 . S
C372 C353 1.366 1_445 S
C372 C366 1.371 . S
C372 C371 1.524 . S
C373 C357 1.431 1_545 S
C373 C369 1.425 1_655 S
C373 C374 1.524 . S
C374 C358 1.368 1_655 S
C374 C370 1.369 1_545 S
C374 C373 1.524 . S
H375 C350 0.950 . S
H376 C352 0.950 . S
H377 C353 0.949 . S
H378 C355 0.950 . S
H379 C357 0.950 . S
C380 C381 1.349 . S
C380 C382 1.327 . S
C380 H405 0.950 . S
C381 C380 1.349 . S
C381 C397 1.349 . S
C382 C380 1.327 . S
C382 C401 1.429 . S
C382 H406 0.950 . S
C383 C400 1.574 . S
C383 C402 1.368 . S
C383 H407 0.949 . S
H384 C388 0.949 . S
C385 C386 1.349 . S
C385 C387 1.327 . S
C385 H408 0.950 . S
C386 C385 1.349 . S
C386 C398 1.349 . S
C387 C385 1.327 . S
C387 C403 1.429 . S
C387 H409 0.950 . S
C388 H384 0.949 . S
C388 C396 1.574 . S
C388 C404 1.368 . S
H389 C397 0.950 . S
H390 C395 0.950 . S
H391 C396 0.949 . S
H392 C398 0.950 . S
H393 C399 0.950 . S
H394 C400 0.949 . S
C395 H390 0.950 . S
C395 C397 1.327 . S
C395 C401 1.429 . S
C396 C388 1.574 . S
C396 H391 0.949 . S
C396 C402 1.368 . S
C397 C381 1.349 . S
C397 H389 0.950 . S
C397 C395 1.327 . S
C398 C386 1.349 . S
C398 H392 0.950 . S
C398 C399 1.327 . S
C399 H393 0.950 . S
C399 C398 1.327 . S
C399 C403 1.429 . S
C400 C383 1.574 . S
C400 H394 0.949 . S
C400 C404 1.368 . S
C401 C382 1.429 . S
C401 C395 1.429 . S
C401 C402 1.523 . S
C402 C383 1.368 . S
C402 C396 1.368 . S
C402 C401 1.523 . S
C403 C387 1.429 . S
C403 C399 1.429 . S
C403 C404 1.523 . S
C404 C388 1.368 . S
C404 C400 1.368 . S
C404 C403 1.523 . S
H405 C380 0.950 . S
H406 C382 0.950 . S
H407 C383 0.949 . S
H408 C385 0.950 . S
H409 C387 0.950 . S
C410 C411 1.349 . S
C410 C412 1.327 . S
C410 H435 0.950 . S
C411 C410 1.349 . S
C411 C427 1.349 . S
C412 C410 1.327 . S
C412 C431 1.429 . S
C412 H436 0.950 . S
C413 C430 1.574 . S
C413 C432 1.368 . S
C413 H437 0.949 . S
H414 C418 0.949 . S
C415 C416 1.349 . S
C415 C417 1.327 . S
C415 H438 0.950 . S
C416 C415 1.349 . S
C416 C428 1.349 . S
C417 C415 1.327 . S
C417 C433 1.429 . S
C417 H439 0.950 . S
C418 H414 0.949 . S
C418 C426 1.574 . S
C418 C434 1.368 . S
H419 C427 0.950 . S
H420 C425 0.950 . S
H421 C426 0.949 . S
H422 C428 0.950 . S
H423 C429 0.950 . S
H424 C430 0.949 . S
C425 H420 0.950 . S
C425 C427 1.327 . S
C425 C431 1.429 . S
C426 C418 1.574 . S
C426 H421 0.949 . S
C426 C432 1.368 . S
C427 C411 1.349 . S
C427 H419 0.950 . S
C427 C425 1.327 . S
C428 C416 1.349 . S
C428 H422 0.950 . S
C428 C429 1.327 . S
C429 H423 0.950 . S
C429 C428 1.327 . S
C429 C433 1.429 . S
C430 C413 1.574 . S
C430 H424 0.949 . S
C430 C434 1.368 . S
C431 C412 1.429 . S
C431 C425 1.429 . S
C431 C432 1.523 . S
C432 C413 1.368 . S
C432 C426 1.368 . S
C432 C431 1.523 . S
C433 C417 1.429 . S
C433 C429 1.429 . S
C433 C434 1.523 . S
C434 C418 1.368 . S
C434 C430 1.368 . S
C434 C433 1.523 . S
H435 C410 0.950 . S
H436 C412 0.950 . S
H437 C413 0.949 . S
H438 C415 0.950 . S
H439 C417 0.950 . S
C81 C56 1.481 . S
C86 C6 1.482 . S
C111 C46 1.481 . S
C116 C16 1.481 . S
C141 C36 1.481 . S
C146 C66 1.478 . S
C171 C26 1.481 . S
C176 C76 1.484 . S
C201 C19 1.816 1_566 S
C206 C8 1.827 1_544 S
C231 C28 1.827 1_545 S
C236 C39 1.827 1_565 S
C261 C59 1.816 1_556 S
C266 C48 1.827 1_554 S
C291 C79 1.827 . S
C296 C68 1.827 . S
C321 C29 1.487 1_455 S
C326 C9 1.479 1_655 S
C351 C1 1.488 1_455 S
C356 C21 1.484 1_655 S
C381 C69 1.488 . S
C386 C49 1.485 . S
C411 C61 1.488 . S
C416 C41 1.490 . S
