# Generated by pormake.
# Topology unj, (4)-cn, num edge types: 1
# Building blocks:
#     Node 0, Type 0, BuildingBlock: KUFVIS_clean_sbu_0, # of connection points: 4
#     Node 1, Type 0, BuildingBlock: KUFVIS_clean_sbu_0, # of connection points: 4
#     Node 2, Type 0, BuildingBlock: KUFVIS_clean_sbu_0, # of connection points: 4
#     Node 3, Type 0, BuildingBlock: KUFVIS_clean_sbu_0, # of connection points: 4
#     Node 4, Type 0, BuildingBlock: KUFVIS_clean_sbu_0, # of connection points: 4
#     Node 5, Type 0, BuildingBlock: KUFVIS_clean_sbu_0, # of connection points: 4
#     Edge 6, Type (0, 0), BuildingBlock: OJICUG_clean_linker_0, # of connection points: 2
#     Edge 7, Type (0, 0), BuildingBlock: OJICUG_clean_linker_0, # of connection points: 2
#     Edge 8, Type (0, 0), BuildingBlock: OJICUG_clean_linker_0, # of connection points: 2
#     Edge 9, Type (0, 0), BuildingBlock: OJICUG_clean_linker_0, # of connection points: 2
#     Edge 10, Type (0, 0), BuildingBlock: OJICUG_clean_linker_0, # of connection points: 2
#     Edge 11, Type (0, 0), BuildingBlock: OJICUG_clean_linker_0, # of connection points: 2
#     Edge 12, Type (0, 0), BuildingBlock: OJICUG_clean_linker_0, # of connection points: 2
#     Edge 13, Type (0, 0), BuildingBlock: OJICUG_clean_linker_0, # of connection points: 2
#     Edge 14, Type (0, 0), BuildingBlock: OJICUG_clean_linker_0, # of connection points: 2
#     Edge 15, Type (0, 0), BuildingBlock: OJICUG_clean_linker_0, # of connection points: 2
#     Edge 16, Type (0, 0), BuildingBlock: OJICUG_clean_linker_0, # of connection points: 2
#     Edge 17, Type (0, 0), BuildingBlock: OJICUG_clean_linker_0, # of connection points: 2
# Relax obj value: 0.011
# Max RMSD: 0.050
# Mean RMSD: 0.050
data_MOF--net-unj--node1-KUFVIS_clean_sbu_0--edge1-OJICUG_clean_linker_0
_symmetry_space_group_name_H-M    P1
_symmetry_Int_Tables_number       1
_symmetry_cell_setting            triclinic
loop_
_symmetry_equiv_pos_as_xyz
'x, y, z'
_cell_length_a     23.789463
_cell_length_b     23.792483
_cell_length_c     25.861613
_cell_angle_alpha  89.991029
_cell_angle_beta   89.993898
_cell_angle_gamma 120.01106
loop_
_atom_site_label
_atom_site_type_symbol
_atom_site_fract_x
_atom_site_fract_y
_atom_site_fract_z
_atom_type_partial_charge
Mn0 Mn 0.52495 0.26126 0.59692 0.0
Mn1 Mn 0.65016 0.23761 0.56779 0.0
C2 C 0.5774 0.23543 0.66076 0.0
C3 C 0.48622 0.33027 0.62265 0.0
C4 C 0.50975 0.13969 0.5424 0.0
O5 O 0.5551 0.30626 0.52671 0.0
O6 O 0.64063 0.29109 0.51375 0.0
C7 C 0.75862 0.37289 0.57758 0.0
N8 N 0.72957 0.30944 0.59219 0.0
C9 C 0.81569 0.33216 0.65226 0.0
C10 C 0.84663 0.39767 0.63766 0.0
C11 C 0.81792 0.41811 0.60021 0.0
C12 C 0.75686 0.28922 0.62812 0.0
H13 H 0.73665 0.38894 0.54897 0.0
C14 C 0.6046 0.31472 0.50077 0.0
O15 O 0.44876 0.27559 0.59945 0.0
O16 O 0.54607 0.34528 0.6297 0.0
N17 N 0.6645 0.18762 0.61869 0.0
C18 C 0.62626 0.12374 0.63104 0.0
C19 C 0.64707 0.09603 0.66904 0.0
C20 C 0.70691 0.13424 0.69395 0.0
C21 C 0.74543 0.19989 0.68061 0.0
C22 C 0.72247 0.22468 0.64208 0.0
H23 H 0.58003 0.09426 0.6123 0.0
O24 O 0.51833 0.22318 0.66805 0.0
O25 O 0.60209 0.26 0.61627 0.0
O26 O 0.48461 0.17126 0.56227 0.0
O27 O 0.57078 0.16059 0.54222 0.0
C28 C 0.80503 0.24201 0.70484 0.0
C29 C 0.84011 0.30811 0.6907 0.0
H30 H 0.89212 0.4328 0.65532 0.0
H31 H 0.84136 0.46865 0.58893 0.0
H32 H 0.61691 0.04542 0.67932 0.0
H33 H 0.72247 0.11285 0.72362 0.0
H34 H 0.82385 0.22429 0.73495 0.0
H35 H 0.88536 0.34021 0.71018 0.0
Mn36 Mn 0.29012 0.51188 0.76378 0.0
Mn37 Mn 0.43906 0.63707 0.73471 0.0
C38 C 0.36839 0.56424 0.82766 0.0
C39 C 0.18236 0.47316 0.78949 0.0
C40 C 0.39643 0.49669 0.70912 0.0
O41 O 0.27536 0.54215 0.6936 0.0
O42 O 0.37605 0.62779 0.68074 0.0
C43 C 0.41246 0.74563 0.74485 0.0
N44 N 0.44678 0.71645 0.75933 0.0
C45 C 0.51025 0.8023 0.81957 0.0
C46 C 0.47577 0.83337 0.80512 0.0
C47 C 0.42662 0.80485 0.76764 0.0
C48 C 0.49428 0.74354 0.79528 0.0
H49 H 0.37445 0.7238 0.71623 0.0
C50 C 0.31639 0.59176 0.66775 0.0
O51 O 0.19957 0.43572 0.76625 0.0
O52 O 0.22723 0.53299 0.79659 0.0
N53 N 0.50335 0.65114 0.78557 0.0
C54 C 0.52888 0.61277 0.79779 0.0
C55 C 0.57737 0.63338 0.8358 0.0
C56 C 0.59908 0.69313 0.86085 0.0
C57 C 0.57207 0.73179 0.84765 0.0
C58 C 0.52434 0.70903 0.8091 0.0
H59 H 0.51206 0.56661 0.77895 0.0
O60 O 0.32154 0.50517 0.83491 0.0
O61 O 0.36855 0.58896 0.78318 0.0
O62 O 0.33976 0.47155 0.72909 0.0
O63 O 0.43657 0.55772 0.70893 0.0
C64 C 0.58962 0.7913 0.87203 0.0
C65 C 0.55871 0.82651 0.85804 0.0
H66 H 0.48619 0.8788 0.8229 0.0
H67 H 0.39958 0.82839 0.75647 0.0
H68 H 0.59773 0.60311 0.84598 0.0
H69 H 0.63601 0.70853 0.89052 0.0
H70 H 0.62615 0.80995 0.90216 0.0
H71 H 0.57191 0.87169 0.87764 0.0
Mn72 Mn 0.80431 0.27689 0.93025 0.0
Mn73 Mn 0.82804 0.42578 0.90107 0.0
C74 C 0.83015 0.35519 0.99407 0.0
C75 C 0.73529 0.16914 0.95602 0.0
C76 C 0.92595 0.38328 0.87571 0.0
O77 O 0.75932 0.26202 0.86004 0.0
O78 O 0.77458 0.36274 0.84704 0.0
C79 C 0.69274 0.39892 0.91082 0.0
N80 N 0.75619 0.43333 0.92544 0.0
C81 C 0.73343 0.49673 0.98547 0.0
C82 C 0.66792 0.46215 0.97087 0.0
C83 C 0.6475 0.41299 0.93343 0.0
C84 C 0.77639 0.48085 0.96136 0.0
H85 H 0.67671 0.3609 0.88222 0.0
C86 C 0.75091 0.30307 0.83409 0.0
O87 O 0.78997 0.18638 0.93279 0.0
O88 O 0.72027 0.21398 0.96305 0.0
N89 N 0.878 0.49012 0.95196 0.0
C90 C 0.94188 0.51577 0.96433 0.0
C91 C 0.96957 0.5643 1.00232 0.0
C92 C 0.93134 0.58592 0.0272 0.0
C93 C 0.86569 0.55878 0.01385 0.0
C94 C 0.84093 0.51101 0.97533 0.0
H95 H 0.97137 0.49903 0.94561 0.0
O96 O 0.84239 0.30838 1.00136 0.0
O97 O 0.80559 0.3553 0.94958 0.0
O98 O 0.89433 0.32657 0.89558 0.0
O99 O 0.90509 0.42343 0.87553 0.0
C100 C 0.82356 0.57624 0.03806 0.0
C101 C 0.75747 0.54521 0.02391 0.0
H102 H 0.63278 0.47251 0.9885 0.0
H103 H 0.59697 0.38588 0.92214 0.0
H104 H 1.02018 0.58476 0.01261 0.0
H105 H 0.95271 0.62287 0.05686 0.0
H106 H 0.84126 0.61279 0.06816 0.0
H107 H 0.72535 0.55836 0.04336 0.0
Mn108 Mn 0.55377 0.79133 0.09708 0.0
Mn109 Mn 0.42849 0.81491 0.06804 0.0
C110 C 0.50134 0.81715 0.16097 0.0
C111 C 0.59254 0.72236 0.1228 0.0
C112 C 0.56888 0.91284 0.04248 0.0
O113 O 0.52356 0.74629 0.02691 0.0
O114 O 0.43795 0.76135 0.01402 0.0
C115 C 0.32007 0.67962 0.07805 0.0
N116 N 0.34913 0.7431 0.09258 0.0
C117 C 0.26315 0.72043 0.15279 0.0
C118 C 0.23219 0.6549 0.13828 0.0
C119 C 0.26083 0.63443 0.1008 0.0
C120 C 0.32192 0.76335 0.12854 0.0
H121 H 0.34199 0.66355 0.04942 0.0
C122 C 0.474 0.73775 1.00103 0.0
O123 O 0.62997 0.77703 0.09955 0.0
O124 O 0.53269 0.70734 0.1299 0.0
N125 N 0.41424 0.86495 0.11892 0.0
C126 C 0.45249 0.92885 0.13119 0.0
C127 C 0.43175 0.9566 0.16921 0.0
C128 C 0.37197 0.91841 0.19422 0.0
C129 C 0.33343 0.85274 0.18098 0.0
C130 C 0.35633 0.82791 0.14242 0.0
H131 H 0.49868 0.95832 0.11237 0.0
O132 O 0.56043 0.82943 0.1682 0.0
O133 O 0.47663 0.79257 0.1165 0.0
O134 O 0.59405 0.88131 0.06238 0.0
O135 O 0.50784 0.89191 0.04234 0.0
C136 C 0.27391 0.81064 0.20532 0.0
C137 C 0.23881 0.74453 0.19127 0.0
H138 H 0.18675 0.61978 0.15603 0.0
H139 H 0.23738 0.58387 0.08958 0.0
H140 H 0.46193 1.00723 0.17943 0.0
H141 H 0.35647 0.93983 0.22391 0.0
H142 H 0.25515 0.82839 0.23546 0.0
H143 H 0.19361 0.71244 0.21084 0.0
Mn144 Mn 0.78883 0.5407 0.26355 0.0
Mn145 Mn 0.63991 0.41552 0.23444 0.0
C146 C 0.71051 0.48823 0.32741 0.0
C147 C 0.89657 0.57941 0.2893 0.0
C148 C 0.68245 0.55593 0.20905 0.0
O149 O 0.80368 0.51058 0.19335 0.0
O150 O 0.70295 0.42509 0.18039 0.0
C151 C 0.66674 0.30708 0.24421 0.0
N152 N 0.63233 0.33611 0.25884 0.0
C153 C 0.56892 0.24997 0.31891 0.0
C154 C 0.60349 0.21904 0.30431 0.0
C155 C 0.65265 0.24778 0.26685 0.0
C156 C 0.58482 0.3088 0.29478 0.0
H157 H 0.70476 0.32907 0.2156 0.0
C158 C 0.76262 0.46111 0.16741 0.0
O159 O 0.87937 0.61688 0.26608 0.0
O160 O 0.85171 0.51956 0.29634 0.0
N161 N 0.57557 0.40114 0.28535 0.0
C162 C 0.54993 0.43937 0.29772 0.0
C163 C 0.5014 0.41853 0.33573 0.0
C164 C 0.47977 0.35869 0.36063 0.0
C165 C 0.5069 0.32018 0.34729 0.0
C166 C 0.55466 0.34318 0.30875 0.0
H167 H 0.56668 0.48559 0.27898 0.0
O168 O 0.75735 0.5473 0.33468 0.0
O169 O 0.7104 0.46356 0.28292 0.0
O170 O 0.73917 0.58105 0.2289 0.0
O171 O 0.64229 0.49491 0.20889 0.0
C172 C 0.48942 0.26059 0.37152 0.0
C173 C 0.52044 0.22553 0.35737 0.0
H174 H 0.59313 0.17355 0.32196 0.0
H175 H 0.67976 0.22436 0.25556 0.0
H176 H 0.48095 0.44868 0.34601 0.0
H177 H 0.44281 0.34311 0.39031 0.0
H178 H 0.45288 0.24175 0.40164 0.0
H179 H 0.50729 0.18027 0.37685 0.0
Mn180 Mn 0.2743 0.7756 0.43046 0.0
Mn181 Mn 0.25061 0.6267 0.40148 0.0
C182 C 0.24844 0.69737 0.49439 0.0
C183 C 0.34332 0.88336 0.45613 0.0
C184 C 0.15278 0.66922 0.37588 0.0
O185 O 0.31934 0.79038 0.36027 0.0
O186 O 0.30426 0.6897 0.34745 0.0
C187 C 0.38585 0.65346 0.41155 0.0
N188 N 0.32235 0.61909 0.42607 0.0
C189 C 0.34487 0.55574 0.48634 0.0
C190 C 0.41042 0.59028 0.47184 0.0
C191 C 0.43098 0.63939 0.43433 0.0
C192 C 0.30201 0.57162 0.46205 0.0
H193 H 0.40198 0.69146 0.3829 0.0
C194 C 0.32788 0.74934 0.33442 0.0
O195 O 0.28865 0.86611 0.43289 0.0
O196 O 0.35831 0.83852 0.46324 0.0
N197 N 0.20046 0.56242 0.45239 0.0
C198 C 0.13655 0.53683 0.46464 0.0
C199 C 0.10872 0.48835 0.50268 0.0
C200 C 0.14684 0.46672 0.52772 0.0
C201 C 0.21252 0.4938 0.51449 0.0
C202 C 0.23743 0.54152 0.47592 0.0
H203 H 0.10714 0.55358 0.4458 0.0
O204 O 0.23618 0.74419 0.50161 0.0
O205 O 0.27299 0.69721 0.44991 0.0
O206 O 0.18431 0.72591 0.39579 0.0
O207 O 0.17367 0.6291 0.37574 0.0
C208 C 0.25455 0.47633 0.53887 0.0
C209 C 0.32069 0.50731 0.52483 0.0
H210 H 0.44549 0.57992 0.48961 0.0
H211 H 0.48156 0.66647 0.42313 0.0
H212 H 0.05809 0.46794 0.51288 0.0
H213 H 0.12536 0.42981 0.55742 0.0
H214 H 0.23673 0.43983 0.56902 0.0
H215 H 0.35272 0.49417 0.54443 0.0
C216 C 0.49017 0.03174 0.51082 0.0
C217 C 0.46669 0.07484 0.519 0.0
H218 H 0.46978 0.93802 0.48493 0.0
C219 C 0.4024 0.0551 0.50451 0.0
H220 H 0.53937 0.04509 0.52136 0.0
C221 C 0.3626 0.99357 0.48265 0.0
C222 C 0.38596 0.95021 0.47568 0.0
H223 H 0.38289 0.08721 0.5099 0.0
H224 H 0.31316 0.97946 0.47226 0.0
C225 C 0.45022 0.97016 0.48987 0.0
C226 C 0.3953 0.34953 0.64933 0.0
C227 C 0.46203 0.37291 0.64223 0.0
H228 H 0.322 0.36981 0.67671 0.0
C229 C 0.50637 0.43719 0.65634 0.0
H230 H 0.35996 0.30008 0.639 0.0
C231 C 0.48477 0.47715 0.67732 0.0
C232 C 0.41819 0.45365 0.68564 0.0
H233 H 0.55807 0.45677 0.6513 0.0
H234 H 0.52064 0.52636 0.6878 0.0
C235 C 0.37361 0.38934 0.67123 0.0
C236 C 1.01053 0.36052 0.83784 0.0
C237 C 0.99082 0.40508 0.85234 0.0
H238 H 0.08616 0.3469 0.8056 0.0
C239 C 1.03398 0.47167 0.84417 0.0
H240 H 0.97838 0.30889 0.84321 0.0
C241 C 0.09559 0.49329 0.82324 0.0
C242 C 0.1155 0.44896 0.80904 0.0
H243 H 1.02066 0.50752 0.85472 0.0
H244 H 0.12777 0.545 0.81831 0.0
C245 C 0.07208 0.38223 0.816 0.0
C246 C 0.67622 0.99743 0.00454 0.0
C247 C 0.61191 0.97767 0.01903 0.0
H248 H 0.76546 0.07306 0.97225 0.0
C249 C 0.58842 1.02075 0.01079 0.0
H250 H 0.69574 0.96534 0.00996 0.0
C251 C 0.62837 0.08234 0.9898 0.0
C252 C 0.69264 0.10229 0.97561 0.0
H253 H 0.53922 1.0074 0.02133 0.0
H254 H 0.6088 0.11447 0.98483 0.0
C255 C 0.71602 0.05895 0.98263 0.0
C256 C 0.59406 0.57551 0.17749 0.0
C257 C 0.66066 0.59899 0.18567 0.0
H258 H 0.52072 0.59591 0.15162 0.0
C259 C 0.70522 0.66329 0.17117 0.0
H260 H 0.55821 0.52632 0.18804 0.0
C261 C 0.6835 0.70309 0.14932 0.0
C262 C 0.61676 0.67973 0.14235 0.0
H263 H 0.75685 0.68279 0.17655 0.0
H264 H 0.71883 0.75253 0.13892 0.0
C265 C 0.57244 0.61547 0.15655 0.0
C266 C 0.04487 0.58088 0.34412 0.0
C267 C 0.08797 0.64745 0.35239 0.0
H268 H 0.95117 0.50757 0.31811 0.0
C269 C 0.06826 0.69202 0.3379 0.0
H270 H 0.05819 0.54501 0.35467 0.0
C271 C 1.00677 0.67032 0.31596 0.0
C272 C 0.96341 0.6036 0.30892 0.0
H273 H 0.10037 0.74363 0.34334 0.0
H274 H 0.99269 0.70566 0.30558 0.0
C275 C 0.98332 0.55927 0.32311 0.0
C276 C 0.66484 0.34944 0.41802 0.0
C277 C 0.62564 0.35707 0.45467 0.0
H278 H 0.72259 0.38575 0.35001 0.0
C279 C 0.61389 0.40925 0.44934 0.0
H280 H 0.67511 0.31002 0.42096 0.0
C281 C 0.64195 0.45345 0.40826 0.0
C282 C 0.6805 0.44468 0.37171 0.0
H283 H 0.58478 0.41692 0.47758 0.0
H284 H 0.63306 0.4937 0.40471 0.0
C285 C 0.69211 0.39283 0.37733 0.0
C286 C 0.32565 0.67935 0.54438 0.0
C287 C 0.26209 0.66752 0.53874 0.0
H288 H 0.39161 0.66262 0.58803 0.0
C289 C 0.2148 0.62887 0.57528 0.0
H290 H 0.36319 0.7099 0.51707 0.0
C291 C 0.23104 0.6009 0.61635 0.0
C292 C 0.29505 0.61286 0.6217 0.0
H293 H 0.16559 0.61979 0.57171 0.0
H294 H 0.19425 0.57168 0.64457 0.0
C295 C 0.34186 0.65219 0.58508 0.0
C296 C 0.65638 0.21781 0.78267 0.0
C297 C 0.70856 0.28176 0.78799 0.0
H298 H 0.57193 0.15251 0.73806 0.0
C299 C 0.7162 0.32859 0.75134 0.0
H300 H 0.64871 0.18103 0.81091 0.0
C301 C 0.67281 0.31247 0.71067 0.0
C302 C 0.62095 0.24898 0.70506 0.0
H303 H 0.75561 0.37829 0.75428 0.0
H304 H 0.67989 0.35003 0.68335 0.0
C305 C 0.61218 0.20166 0.74161 0.0
C306 C 0.3865 0.65951 0.87763 0.0
C307 C 0.39828 0.60776 0.87199 0.0
H308 H 0.40328 0.74221 0.92128 0.0
C309 C 0.43689 0.59909 0.90853 0.0
H310 H 0.35598 0.66652 0.85032 0.0
C311 C 0.46487 0.64328 0.94961 0.0
C312 C 0.45295 0.69536 0.95496 0.0
H313 H 0.44592 0.55893 0.90497 0.0
H314 H 0.49405 0.6357 0.97783 0.0
C315 C 0.41368 0.70288 0.91832 0.0
C316 C 0.86397 0.42375 0.0749 0.0
C317 C 0.81664 0.38522 0.03836 0.0
H318 H 0.88465 0.4809 0.1442 0.0
C319 C 0.75317 0.37363 0.04398 0.0
H320 H 0.91312 0.43262 0.07134 0.0
C321 C 0.73707 0.40091 0.08466 0.0
C322 C 0.78392 0.44008 0.1213 0.0
H323 H 0.7156 0.34317 0.01667 0.0
H324 H 0.68738 0.39066 0.08761 0.0
C325 C 0.84785 0.45181 0.11597 0.0
C326 C 0.42236 0.83465 0.28294 0.0
C327 C 0.37027 0.77066 0.28833 0.0
H328 H 0.50671 0.90004 0.23824 0.0
C329 C 0.3627 0.72383 0.25172 0.0
H330 H 0.42997 0.87144 0.31114 0.0
C331 C 0.40606 0.74001 0.211 0.0
C332 C 0.45782 0.80354 0.20532 0.0
H333 H 0.32336 0.6741 0.25471 0.0
H334 H 0.39903 0.70246 0.1837 0.0
C335 C 0.46654 0.85085 0.24184 0.0
loop_
_geom_bond_atom_site_label_1
_geom_bond_atom_site_label_2
_geom_bond_distance
_geom_bond_site_symmetry_2
_ccdc_geom_bond_type
Mn0 O5 2.095 . S
Mn0 O15 2.162 . S
Mn0 O16 2.297 . S
Mn0 O24 2.385 . S
Mn0 O25 2.209 . S
Mn0 O26 2.094 . S
Mn1 O6 2.121 . S
Mn1 N8 2.257 . S
Mn1 N17 2.282 . S
Mn1 O25 2.215 . S
Mn1 O27 2.117 . S
C2 O24 1.234 . S
C2 O25 1.283 . S
C3 O15 1.281 . S
C3 O16 1.236 . S
C4 O26 1.240 . S
C4 O27 1.264 . S
O5 Mn0 2.095 . S
O5 C14 1.250 . S
O6 Mn1 2.121 . S
O6 C14 1.258 . S
C7 N8 1.326 . S
C7 C11 1.460 . S
C7 H13 0.929 . S
N8 Mn1 2.257 . S
N8 C7 1.326 . S
N8 C12 1.362 . S
C9 C10 1.258 . S
C9 C12 1.431 . S
C9 C29 1.449 . S
C10 C9 1.258 . S
C10 C11 1.477 . S
C10 H30 0.931 . S
C11 C7 1.460 . S
C11 C10 1.477 . S
C11 H31 0.930 . S
C12 N8 1.362 . S
C12 C9 1.431 . S
C12 C22 1.476 . S
H13 C7 0.929 . S
C14 O5 1.250 . S
C14 O6 1.258 . S
O15 Mn0 2.162 . S
O15 C3 1.281 . S
O16 Mn0 2.297 . S
O16 C3 1.236 . S
N17 Mn1 2.282 . S
N17 C18 1.328 . S
N17 C22 1.318 . S
C18 N17 1.328 . S
C18 C19 1.457 . S
C18 H23 0.929 . S
C19 C18 1.457 . S
C19 C20 1.291 . S
C19 H32 0.931 . S
C20 C19 1.291 . S
C20 C21 1.373 . S
C20 H33 0.929 . S
C21 C20 1.373 . S
C21 C22 1.396 . S
C21 C28 1.403 . S
C22 C12 1.476 . S
C22 N17 1.318 . S
C22 C21 1.396 . S
H23 C18 0.929 . S
O24 Mn0 2.385 . S
O24 C2 1.234 . S
O25 Mn0 2.209 . S
O25 Mn1 2.215 . S
O25 C2 1.283 . S
O26 Mn0 2.094 . S
O26 C4 1.240 . S
O27 Mn1 2.117 . S
O27 C4 1.264 . S
C28 C21 1.403 . S
C28 C29 1.399 . S
C28 H34 0.929 . S
C29 C9 1.449 . S
C29 C28 1.399 . S
C29 H35 0.930 . S
H30 C10 0.931 . S
H31 C11 0.930 . S
H32 C19 0.931 . S
H33 C20 0.929 . S
H34 C28 0.929 . S
H35 C29 0.930 . S
Mn36 O41 2.095 . S
Mn36 O51 2.162 . S
Mn36 O52 2.297 . S
Mn36 O60 2.385 . S
Mn36 O61 2.209 . S
Mn36 O62 2.094 . S
Mn37 O42 2.121 . S
Mn37 N44 2.257 . S
Mn37 N53 2.282 . S
Mn37 O61 2.215 . S
Mn37 O63 2.117 . S
C38 O60 1.234 . S
C38 O61 1.283 . S
C39 O51 1.281 . S
C39 O52 1.236 . S
C40 O62 1.240 . S
C40 O63 1.264 . S
O41 Mn36 2.095 . S
O41 C50 1.250 . S
O42 Mn37 2.121 . S
O42 C50 1.258 . S
C43 N44 1.326 . S
C43 C47 1.460 . S
C43 H49 0.929 . S
N44 Mn37 2.257 . S
N44 C43 1.326 . S
N44 C48 1.362 . S
C45 C46 1.258 . S
C45 C48 1.431 . S
C45 C65 1.449 . S
C46 C45 1.258 . S
C46 C47 1.477 . S
C46 H66 0.931 . S
C47 C43 1.460 . S
C47 C46 1.477 . S
C47 H67 0.930 . S
C48 N44 1.362 . S
C48 C45 1.431 . S
C48 C58 1.476 . S
H49 C43 0.929 . S
C50 O41 1.250 . S
C50 O42 1.258 . S
O51 Mn36 2.162 . S
O51 C39 1.281 . S
O52 Mn36 2.297 . S
O52 C39 1.236 . S
N53 Mn37 2.282 . S
N53 C54 1.328 . S
N53 C58 1.318 . S
C54 N53 1.328 . S
C54 C55 1.457 . S
C54 H59 0.929 . S
C55 C54 1.457 . S
C55 C56 1.291 . S
C55 H68 0.931 . S
C56 C55 1.291 . S
C56 C57 1.373 . S
C56 H69 0.929 . S
C57 C56 1.373 . S
C57 C58 1.396 . S
C57 C64 1.403 . S
C58 C48 1.476 . S
C58 N53 1.318 . S
C58 C57 1.396 . S
H59 C54 0.929 . S
O60 Mn36 2.385 . S
O60 C38 1.234 . S
O61 Mn36 2.209 . S
O61 Mn37 2.215 . S
O61 C38 1.283 . S
O62 Mn36 2.094 . S
O62 C40 1.240 . S
O63 Mn37 2.117 . S
O63 C40 1.264 . S
C64 C57 1.403 . S
C64 C65 1.399 . S
C64 H70 0.929 . S
C65 C45 1.449 . S
C65 C64 1.399 . S
C65 H71 0.930 . S
H66 C46 0.931 . S
H67 C47 0.930 . S
H68 C55 0.931 . S
H69 C56 0.929 . S
H70 C64 0.929 . S
H71 C65 0.930 . S
Mn72 O77 2.095 . S
Mn72 O87 2.162 . S
Mn72 O88 2.297 . S
Mn72 O96 2.385 1_556 S
Mn72 O97 2.209 . S
Mn72 O98 2.094 . S
Mn73 O78 2.121 . S
Mn73 N80 2.257 . S
Mn73 N89 2.282 . S
Mn73 O97 2.215 . S
Mn73 O99 2.117 . S
C74 O96 1.234 1_556 S
C74 O97 1.283 . S
C75 O87 1.281 . S
C75 O88 1.236 . S
C76 O98 1.240 . S
C76 O99 1.264 . S
O77 Mn72 2.095 . S
O77 C86 1.250 . S
O78 Mn73 2.121 . S
O78 C86 1.258 . S
C79 N80 1.326 . S
C79 C83 1.460 . S
C79 H85 0.929 . S
N80 Mn73 2.257 . S
N80 C79 1.326 . S
N80 C84 1.362 . S
C81 C82 1.258 . S
C81 C84 1.431 . S
C81 C101 1.449 1_556 S
C82 C81 1.258 . S
C82 C83 1.477 . S
C82 H102 0.931 . S
C83 C79 1.460 . S
C83 C82 1.477 . S
C83 H103 0.930 . S
C84 N80 1.362 . S
C84 C81 1.431 . S
C84 C94 1.476 . S
H85 C79 0.929 . S
C86 O77 1.250 . S
C86 O78 1.258 . S
O87 Mn72 2.162 . S
O87 C75 1.281 . S
O88 Mn72 2.297 . S
O88 C75 1.236 . S
N89 Mn73 2.282 . S
N89 C90 1.328 . S
N89 C94 1.318 . S
C90 N89 1.328 . S
C90 C91 1.457 1_556 S
C90 H95 0.929 . S
C91 C90 1.457 1_554 S
C91 C92 1.291 . S
C91 H104 0.931 . S
C92 C91 1.291 . S
C92 C93 1.373 . S
C92 H105 0.929 . S
C93 C92 1.373 . S
C93 C94 1.396 1_554 S
C93 C100 1.403 . S
C94 C84 1.476 . S
C94 N89 1.318 . S
C94 C93 1.396 1_556 S
H95 C90 0.929 . S
O96 Mn72 2.385 1_554 S
O96 C74 1.234 1_554 S
O97 Mn72 2.209 . S
O97 Mn73 2.215 . S
O97 C74 1.283 . S
O98 Mn72 2.094 . S
O98 C76 1.240 . S
O99 Mn73 2.117 . S
O99 C76 1.264 . S
C100 C93 1.403 . S
C100 C101 1.399 . S
C100 H106 0.929 . S
C101 C81 1.449 1_554 S
C101 C100 1.399 . S
C101 H107 0.930 . S
H102 C82 0.931 . S
H103 C83 0.930 . S
H104 C91 0.931 . S
H105 C92 0.929 . S
H106 C100 0.929 . S
H107 C101 0.930 . S
Mn108 O113 2.095 . S
Mn108 O123 2.162 . S
Mn108 O124 2.297 . S
Mn108 O132 2.385 . S
Mn108 O133 2.209 . S
Mn108 O134 2.094 . S
Mn109 O114 2.121 . S
Mn109 N116 2.257 . S
Mn109 N125 2.282 . S
Mn109 O133 2.215 . S
Mn109 O135 2.117 . S
C110 O132 1.234 . S
C110 O133 1.283 . S
C111 O123 1.281 . S
C111 O124 1.236 . S
C112 O134 1.240 . S
C112 O135 1.264 . S
O113 Mn108 2.095 . S
O113 C122 1.250 1_554 S
O114 Mn109 2.121 . S
O114 C122 1.258 1_554 S
C115 N116 1.326 . S
C115 C119 1.460 . S
C115 H121 0.929 . S
N116 Mn109 2.257 . S
N116 C115 1.326 . S
N116 C120 1.362 . S
C117 C118 1.258 . S
C117 C120 1.431 . S
C117 C137 1.449 . S
C118 C117 1.258 . S
C118 C119 1.477 . S
C118 H138 0.931 . S
C119 C115 1.460 . S
C119 C118 1.477 . S
C119 H139 0.930 . S
C120 N116 1.362 . S
C120 C117 1.431 . S
C120 C130 1.476 . S
H121 C115 0.929 . S
C122 O113 1.250 1_556 S
C122 O114 1.258 1_556 S
O123 Mn108 2.162 . S
O123 C111 1.281 . S
O124 Mn108 2.297 . S
O124 C111 1.236 . S
N125 Mn109 2.282 . S
N125 C126 1.328 . S
N125 C130 1.318 . S
C126 N125 1.328 . S
C126 C127 1.457 . S
C126 H131 0.929 . S
C127 C126 1.457 . S
C127 C128 1.291 . S
C127 H140 0.931 . S
C128 C127 1.291 . S
C128 C129 1.373 . S
C128 H141 0.929 . S
C129 C128 1.373 . S
C129 C130 1.396 . S
C129 C136 1.403 . S
C130 C120 1.476 . S
C130 N125 1.318 . S
C130 C129 1.396 . S
H131 C126 0.929 . S
O132 Mn108 2.385 . S
O132 C110 1.234 . S
O133 Mn108 2.209 . S
O133 Mn109 2.215 . S
O133 C110 1.283 . S
O134 Mn108 2.094 . S
O134 C112 1.240 . S
O135 Mn109 2.117 . S
O135 C112 1.264 . S
C136 C129 1.403 . S
C136 C137 1.399 . S
C136 H142 0.929 . S
C137 C117 1.449 . S
C137 C136 1.399 . S
C137 H143 0.930 . S
H138 C118 0.931 . S
H139 C119 0.930 . S
H140 C127 0.931 . S
H141 C128 0.929 . S
H142 C136 0.929 . S
H143 C137 0.930 . S
Mn144 O149 2.095 . S
Mn144 O159 2.162 . S
Mn144 O160 2.297 . S
Mn144 O168 2.385 . S
Mn144 O169 2.209 . S
Mn144 O170 2.094 . S
Mn145 O150 2.121 . S
Mn145 N152 2.257 . S
Mn145 N161 2.282 . S
Mn145 O169 2.215 . S
Mn145 O171 2.117 . S
C146 O168 1.234 . S
C146 O169 1.283 . S
C147 O159 1.281 . S
C147 O160 1.236 . S
C148 O170 1.240 . S
C148 O171 1.264 . S
O149 Mn144 2.095 . S
O149 C158 1.250 . S
O150 Mn145 2.121 . S
O150 C158 1.258 . S
C151 N152 1.326 . S
C151 C155 1.460 . S
C151 H157 0.929 . S
N152 Mn145 2.257 . S
N152 C151 1.326 . S
N152 C156 1.362 . S
C153 C154 1.258 . S
C153 C156 1.431 . S
C153 C173 1.449 . S
C154 C153 1.258 . S
C154 C155 1.477 . S
C154 H174 0.931 . S
C155 C151 1.460 . S
C155 C154 1.477 . S
C155 H175 0.930 . S
C156 N152 1.362 . S
C156 C153 1.431 . S
C156 C166 1.476 . S
H157 C151 0.929 . S
C158 O149 1.250 . S
C158 O150 1.258 . S
O159 Mn144 2.162 . S
O159 C147 1.281 . S
O160 Mn144 2.297 . S
O160 C147 1.236 . S
N161 Mn145 2.282 . S
N161 C162 1.328 . S
N161 C166 1.318 . S
C162 N161 1.328 . S
C162 C163 1.457 . S
C162 H167 0.929 . S
C163 C162 1.457 . S
C163 C164 1.291 . S
C163 H176 0.931 . S
C164 C163 1.291 . S
C164 C165 1.373 . S
C164 H177 0.929 . S
C165 C164 1.373 . S
C165 C166 1.396 . S
C165 C172 1.403 . S
C166 C156 1.476 . S
C166 N161 1.318 . S
C166 C165 1.396 . S
H167 C162 0.929 . S
O168 Mn144 2.385 . S
O168 C146 1.234 . S
O169 Mn144 2.209 . S
O169 Mn145 2.215 . S
O169 C146 1.283 . S
O170 Mn144 2.094 . S
O170 C148 1.240 . S
O171 Mn145 2.117 . S
O171 C148 1.264 . S
C172 C165 1.403 . S
C172 C173 1.399 . S
C172 H178 0.929 . S
C173 C153 1.449 . S
C173 C172 1.399 . S
C173 H179 0.930 . S
H174 C154 0.931 . S
H175 C155 0.930 . S
H176 C163 0.931 . S
H177 C164 0.929 . S
H178 C172 0.929 . S
H179 C173 0.930 . S
Mn180 O185 2.095 . S
Mn180 O195 2.162 . S
Mn180 O196 2.297 . S
Mn180 O204 2.385 . S
Mn180 O205 2.209 . S
Mn180 O206 2.094 . S
Mn181 O186 2.121 . S
Mn181 N188 2.257 . S
Mn181 N197 2.282 . S
Mn181 O205 2.215 . S
Mn181 O207 2.117 . S
C182 O204 1.234 . S
C182 O205 1.283 . S
C183 O195 1.281 . S
C183 O196 1.236 . S
C184 O206 1.240 . S
C184 O207 1.264 . S
O185 Mn180 2.095 . S
O185 C194 1.250 . S
O186 Mn181 2.121 . S
O186 C194 1.258 . S
C187 N188 1.326 . S
C187 C191 1.460 . S
C187 H193 0.929 . S
N188 Mn181 2.257 . S
N188 C187 1.326 . S
N188 C192 1.362 . S
C189 C190 1.258 . S
C189 C192 1.431 . S
C189 C209 1.449 . S
C190 C189 1.258 . S
C190 C191 1.477 . S
C190 H210 0.931 . S
C191 C187 1.460 . S
C191 C190 1.477 . S
C191 H211 0.930 . S
C192 N188 1.362 . S
C192 C189 1.431 . S
C192 C202 1.476 . S
H193 C187 0.929 . S
C194 O185 1.250 . S
C194 O186 1.258 . S
O195 Mn180 2.162 . S
O195 C183 1.281 . S
O196 Mn180 2.297 . S
O196 C183 1.236 . S
N197 Mn181 2.282 . S
N197 C198 1.328 . S
N197 C202 1.318 . S
C198 N197 1.328 . S
C198 C199 1.457 . S
C198 H203 0.929 . S
C199 C198 1.457 . S
C199 C200 1.291 . S
C199 H212 0.931 . S
C200 C199 1.291 . S
C200 C201 1.373 . S
C200 H213 0.929 . S
C201 C200 1.373 . S
C201 C202 1.396 . S
C201 C208 1.403 . S
C202 C192 1.476 . S
C202 N197 1.318 . S
C202 C201 1.396 . S
H203 C198 0.929 . S
O204 Mn180 2.385 . S
O204 C182 1.234 . S
O205 Mn180 2.209 . S
O205 Mn181 2.215 . S
O205 C182 1.283 . S
O206 Mn180 2.094 . S
O206 C184 1.240 . S
O207 Mn181 2.117 . S
O207 C184 1.264 . S
C208 C201 1.403 . S
C208 C209 1.399 . S
C208 H214 0.929 . S
C209 C189 1.449 . S
C209 C208 1.399 . S
C209 H215 0.930 . S
H210 C190 0.931 . S
H211 C191 0.930 . S
H212 C199 0.931 . S
H213 C200 0.929 . S
H214 C208 0.929 . S
H215 C209 0.930 . S
C216 C217 1.387 . S
C216 H220 0.950 . S
C216 C225 1.390 1_545 S
C217 C216 1.387 . S
C217 C219 1.387 . S
H218 C225 0.950 . S
C219 C217 1.387 . S
C219 C221 1.390 1_545 S
C219 H223 0.950 . S
H220 C216 0.950 . S
C221 C219 1.390 1_565 S
C221 C222 1.387 . S
C221 H224 0.950 . S
C222 C221 1.387 . S
C222 C225 1.387 . S
H223 C219 0.950 . S
H224 C221 0.950 . S
C225 C216 1.390 1_565 S
C225 H218 0.950 . S
C225 C222 1.387 . S
C226 C227 1.387 . S
C226 H230 0.950 . S
C226 C235 1.390 . S
C227 C226 1.387 . S
C227 C229 1.387 . S
H228 C235 0.950 . S
C229 C227 1.387 . S
C229 C231 1.390 . S
C229 H233 0.950 . S
H230 C226 0.950 . S
C231 C229 1.390 . S
C231 C232 1.387 . S
C231 H234 0.950 . S
C232 C231 1.387 . S
C232 C235 1.387 . S
H233 C229 0.950 . S
H234 C231 0.950 . S
C235 C226 1.390 . S
C235 H228 0.950 . S
C235 C232 1.387 . S
C236 C237 1.387 . S
C236 H240 0.950 . S
C236 C245 1.390 1_655 S
C237 C236 1.387 . S
C237 C239 1.387 . S
H238 C245 0.950 . S
C239 C237 1.387 . S
C239 C241 1.390 1_655 S
C239 H243 0.950 . S
H240 C236 0.950 . S
C241 C239 1.390 1_455 S
C241 C242 1.387 . S
C241 H244 0.950 . S
C242 C241 1.387 . S
C242 C245 1.387 . S
H243 C239 0.950 . S
H244 C241 0.950 . S
C245 C236 1.390 1_455 S
C245 H238 0.950 . S
C245 C242 1.387 . S
C246 C247 1.387 . S
C246 H250 0.950 . S
C246 C255 1.390 1_564 S
C247 C246 1.387 . S
C247 C249 1.387 . S
H248 C255 0.950 . S
C249 C247 1.387 . S
C249 C251 1.390 1_564 S
C249 H253 0.950 . S
H250 C246 0.950 . S
C251 C249 1.390 1_546 S
C251 C252 1.387 . S
C251 H254 0.950 . S
C252 C251 1.387 . S
C252 C255 1.387 . S
H253 C249 0.950 . S
H254 C251 0.950 . S
C255 C246 1.390 1_546 S
C255 H248 0.950 . S
C255 C252 1.387 . S
C256 C257 1.387 . S
C256 H260 0.950 . S
C256 C265 1.390 . S
C257 C256 1.387 . S
C257 C259 1.387 . S
H258 C265 0.950 . S
C259 C257 1.387 . S
C259 C261 1.390 . S
C259 H263 0.950 . S
H260 C256 0.950 . S
C261 C259 1.390 . S
C261 C262 1.387 . S
C261 H264 0.950 . S
C262 C261 1.387 . S
C262 C265 1.387 . S
H263 C259 0.950 . S
H264 C261 0.950 . S
C265 C256 1.390 . S
C265 H258 0.950 . S
C265 C262 1.387 . S
C266 C267 1.387 . S
C266 H270 0.950 . S
C266 C275 1.390 1_455 S
C267 C266 1.387 . S
C267 C269 1.387 . S
H268 C275 0.950 . S
C269 C267 1.387 . S
C269 C271 1.390 1_455 S
C269 H273 0.950 . S
H270 C266 0.950 . S
C271 C269 1.390 1_655 S
C271 C272 1.387 . S
C271 H274 0.950 . S
C272 C271 1.387 . S
C272 C275 1.387 . S
H273 C269 0.950 . S
H274 C271 0.950 . S
C275 C266 1.390 1_655 S
C275 H268 0.950 . S
C275 C272 1.387 . S
C276 C277 1.387 . S
C276 H280 0.950 . S
C276 C285 1.390 . S
C277 C276 1.387 . S
C277 C279 1.387 . S
H278 C285 0.950 . S
C279 C277 1.387 . S
C279 C281 1.390 . S
C279 H283 0.950 . S
H280 C276 0.950 . S
C281 C279 1.390 . S
C281 C282 1.387 . S
C281 H284 0.950 . S
C282 C281 1.387 . S
C282 C285 1.387 . S
H283 C279 0.950 . S
H284 C281 0.950 . S
C285 C276 1.390 . S
C285 H278 0.950 . S
C285 C282 1.387 . S
C286 C287 1.387 . S
C286 H290 0.950 . S
C286 C295 1.390 . S
C287 C286 1.387 . S
C287 C289 1.387 . S
H288 C295 0.950 . S
C289 C287 1.387 . S
C289 C291 1.390 . S
C289 H293 0.950 . S
H290 C286 0.950 . S
C291 C289 1.390 . S
C291 C292 1.387 . S
C291 H294 0.950 . S
C292 C291 1.387 . S
C292 C295 1.387 . S
H293 C289 0.950 . S
H294 C291 0.950 . S
C295 C286 1.390 . S
C295 H288 0.950 . S
C295 C292 1.387 . S
C296 C297 1.387 . S
C296 H300 0.950 . S
C296 C305 1.390 . S
C297 C296 1.387 . S
C297 C299 1.387 . S
H298 C305 0.950 . S
C299 C297 1.387 . S
C299 C301 1.390 . S
C299 H303 0.950 . S
H300 C296 0.950 . S
C301 C299 1.390 . S
C301 C302 1.387 . S
C301 H304 0.950 . S
C302 C301 1.387 . S
C302 C305 1.387 . S
H303 C299 0.950 . S
H304 C301 0.950 . S
C305 C296 1.390 . S
C305 H298 0.950 . S
C305 C302 1.387 . S
C306 C307 1.387 . S
C306 H310 0.950 . S
C306 C315 1.390 . S
C307 C306 1.387 . S
C307 C309 1.387 . S
H308 C315 0.950 . S
C309 C307 1.387 . S
C309 C311 1.390 . S
C309 H313 0.950 . S
H310 C306 0.950 . S
C311 C309 1.390 . S
C311 C312 1.387 . S
C311 H314 0.950 . S
C312 C311 1.387 . S
C312 C315 1.387 . S
H313 C309 0.950 . S
H314 C311 0.950 . S
C315 C306 1.390 . S
C315 H308 0.950 . S
C315 C312 1.387 . S
C316 C317 1.387 . S
C316 H320 0.950 . S
C316 C325 1.390 . S
C317 C316 1.387 . S
C317 C319 1.387 . S
H318 C325 0.950 . S
C319 C317 1.387 . S
C319 C321 1.390 . S
C319 H323 0.950 . S
H320 C316 0.950 . S
C321 C319 1.390 . S
C321 C322 1.387 . S
C321 H324 0.950 . S
C322 C321 1.387 . S
C322 C325 1.387 . S
H323 C319 0.950 . S
H324 C321 0.950 . S
C325 C316 1.390 . S
C325 H318 0.950 . S
C325 C322 1.387 . S
C326 C327 1.387 . S
C326 H330 0.950 . S
C326 C335 1.390 . S
C327 C326 1.387 . S
C327 C329 1.387 . S
H328 C335 0.950 . S
C329 C327 1.387 . S
C329 C331 1.390 . S
C329 H333 0.950 . S
H330 C326 0.950 . S
C331 C329 1.390 . S
C331 C332 1.387 . S
C331 H334 0.950 . S
C332 C331 1.387 . S
C332 C335 1.387 . S
H333 C329 0.950 . S
H334 C331 0.950 . S
C335 C326 1.390 . S
C335 H328 0.950 . S
C335 C332 1.387 . S
C217 C4 1.552 . S
C222 C183 1.555 . S
C227 C3 1.554 . S
C232 C40 1.551 . S
C237 C76 1.552 . S
C242 C39 1.555 . S
C247 C112 1.552 . S
C252 C75 1.555 . S
C257 C148 1.551 . S
C262 C111 1.555 . S
C267 C184 1.552 . S
C272 C147 1.555 . S
C277 C14 1.422 . S
C282 C146 1.473 . S
C287 C182 1.473 . S
C292 C50 1.424 . S
C297 C86 1.422 . S
C302 C2 1.472 . S
C307 C38 1.473 . S
C312 C122 1.421 . S
C317 C74 1.473 1_554 S
C322 C158 1.424 . S
C327 C194 1.422 . S
C332 C110 1.472 . S
