# Generated by pormake.
# Topology vck, (7)-cn, num edge types: 1
# Building blocks:
#     Node 0, Type 0, BuildingBlock: HICVOG_clean_sbu_0, # of connection points: 7
#     Node 1, Type 0, BuildingBlock: HICVOG_clean_sbu_0, # of connection points: 7
#     Node 2, Type 0, BuildingBlock: HICVOG_clean_sbu_0, # of connection points: 7
#     Node 3, Type 0, BuildingBlock: HICVOG_clean_sbu_0, # of connection points: 7
#     Node 4, Type 0, BuildingBlock: HICVOG_clean_sbu_0, # of connection points: 7
#     Node 5, Type 0, BuildingBlock: HICVOG_clean_sbu_0, # of connection points: 7
#     Node 6, Type 0, BuildingBlock: HICVOG_clean_sbu_0, # of connection points: 7
#     Node 7, Type 0, BuildingBlock: HICVOG_clean_sbu_0, # of connection points: 7
#     Node 8, Type 0, BuildingBlock: HICVOG_clean_sbu_0, # of connection points: 7
#     Node 9, Type 0, BuildingBlock: HICVOG_clean_sbu_0, # of connection points: 7
#     Node 10, Type 0, BuildingBlock: HICVOG_clean_sbu_0, # of connection points: 7
#     Node 11, Type 0, BuildingBlock: HICVOG_clean_sbu_0, # of connection points: 7
#     Node 12, Type 0, BuildingBlock: HICVOG_clean_sbu_0, # of connection points: 7
#     Node 13, Type 0, BuildingBlock: HICVOG_clean_sbu_0, # of connection points: 7
#     Node 14, Type 0, BuildingBlock: HICVOG_clean_sbu_0, # of connection points: 7
#     Node 15, Type 0, BuildingBlock: HICVOG_clean_sbu_0, # of connection points: 7
#     Edge 16, Type (0, 0), BuildingBlock: UVAHIK_clean_linker_0, # of connection points: 2
#     Edge 17, Type (0, 0), BuildingBlock: UVAHIK_clean_linker_0, # of connection points: 2
#     Edge 18, Type (0, 0), BuildingBlock: UVAHIK_clean_linker_0, # of connection points: 2
#     Edge 19, Type (0, 0), BuildingBlock: UVAHIK_clean_linker_0, # of connection points: 2
#     Edge 20, Type (0, 0), BuildingBlock: UVAHIK_clean_linker_0, # of connection points: 2
#     Edge 21, Type (0, 0), BuildingBlock: UVAHIK_clean_linker_0, # of connection points: 2
#     Edge 22, Type (0, 0), BuildingBlock: UVAHIK_clean_linker_0, # of connection points: 2
#     Edge 23, Type (0, 0), BuildingBlock: UVAHIK_clean_linker_0, # of connection points: 2
#     Edge 24, Type (0, 0), BuildingBlock: UVAHIK_clean_linker_0, # of connection points: 2
#     Edge 25, Type (0, 0), BuildingBlock: UVAHIK_clean_linker_0, # of connection points: 2
#     Edge 26, Type (0, 0), BuildingBlock: UVAHIK_clean_linker_0, # of connection points: 2
#     Edge 27, Type (0, 0), BuildingBlock: UVAHIK_clean_linker_0, # of connection points: 2
#     Edge 28, Type (0, 0), BuildingBlock: UVAHIK_clean_linker_0, # of connection points: 2
#     Edge 29, Type (0, 0), BuildingBlock: UVAHIK_clean_linker_0, # of connection points: 2
#     Edge 30, Type (0, 0), BuildingBlock: UVAHIK_clean_linker_0, # of connection points: 2
#     Edge 31, Type (0, 0), BuildingBlock: UVAHIK_clean_linker_0, # of connection points: 2
#     Edge 32, Type (0, 0), BuildingBlock: UVAHIK_clean_linker_0, # of connection points: 2
#     Edge 33, Type (0, 0), BuildingBlock: UVAHIK_clean_linker_0, # of connection points: 2
#     Edge 34, Type (0, 0), BuildingBlock: UVAHIK_clean_linker_0, # of connection points: 2
#     Edge 35, Type (0, 0), BuildingBlock: UVAHIK_clean_linker_0, # of connection points: 2
#     Edge 36, Type (0, 0), BuildingBlock: UVAHIK_clean_linker_0, # of connection points: 2
#     Edge 37, Type (0, 0), BuildingBlock: UVAHIK_clean_linker_0, # of connection points: 2
#     Edge 38, Type (0, 0), BuildingBlock: UVAHIK_clean_linker_0, # of connection points: 2
#     Edge 39, Type (0, 0), BuildingBlock: UVAHIK_clean_linker_0, # of connection points: 2
#     Edge 40, Type (0, 0), BuildingBlock: UVAHIK_clean_linker_0, # of connection points: 2
#     Edge 41, Type (0, 0), BuildingBlock: UVAHIK_clean_linker_0, # of connection points: 2
#     Edge 42, Type (0, 0), BuildingBlock: UVAHIK_clean_linker_0, # of connection points: 2
#     Edge 43, Type (0, 0), BuildingBlock: UVAHIK_clean_linker_0, # of connection points: 2
#     Edge 44, Type (0, 0), BuildingBlock: UVAHIK_clean_linker_0, # of connection points: 2
#     Edge 45, Type (0, 0), BuildingBlock: UVAHIK_clean_linker_0, # of connection points: 2
#     Edge 46, Type (0, 0), BuildingBlock: UVAHIK_clean_linker_0, # of connection points: 2
#     Edge 47, Type (0, 0), BuildingBlock: UVAHIK_clean_linker_0, # of connection points: 2
#     Edge 48, Type (0, 0), BuildingBlock: UVAHIK_clean_linker_0, # of connection points: 2
#     Edge 49, Type (0, 0), BuildingBlock: UVAHIK_clean_linker_0, # of connection points: 2
#     Edge 50, Type (0, 0), BuildingBlock: UVAHIK_clean_linker_0, # of connection points: 2
#     Edge 51, Type (0, 0), BuildingBlock: UVAHIK_clean_linker_0, # of connection points: 2
#     Edge 52, Type (0, 0), BuildingBlock: UVAHIK_clean_linker_0, # of connection points: 2
#     Edge 53, Type (0, 0), BuildingBlock: UVAHIK_clean_linker_0, # of connection points: 2
#     Edge 54, Type (0, 0), BuildingBlock: UVAHIK_clean_linker_0, # of connection points: 2
#     Edge 55, Type (0, 0), BuildingBlock: UVAHIK_clean_linker_0, # of connection points: 2
#     Edge 56, Type (0, 0), BuildingBlock: UVAHIK_clean_linker_0, # of connection points: 2
#     Edge 57, Type (0, 0), BuildingBlock: UVAHIK_clean_linker_0, # of connection points: 2
#     Edge 58, Type (0, 0), BuildingBlock: UVAHIK_clean_linker_0, # of connection points: 2
#     Edge 59, Type (0, 0), BuildingBlock: UVAHIK_clean_linker_0, # of connection points: 2
#     Edge 60, Type (0, 0), BuildingBlock: UVAHIK_clean_linker_0, # of connection points: 2
#     Edge 61, Type (0, 0), BuildingBlock: UVAHIK_clean_linker_0, # of connection points: 2
#     Edge 62, Type (0, 0), BuildingBlock: UVAHIK_clean_linker_0, # of connection points: 2
#     Edge 63, Type (0, 0), BuildingBlock: UVAHIK_clean_linker_0, # of connection points: 2
#     Edge 64, Type (0, 0), BuildingBlock: UVAHIK_clean_linker_0, # of connection points: 2
#     Edge 65, Type (0, 0), BuildingBlock: UVAHIK_clean_linker_0, # of connection points: 2
#     Edge 66, Type (0, 0), BuildingBlock: UVAHIK_clean_linker_0, # of connection points: 2
#     Edge 67, Type (0, 0), BuildingBlock: UVAHIK_clean_linker_0, # of connection points: 2
#     Edge 68, Type (0, 0), BuildingBlock: UVAHIK_clean_linker_0, # of connection points: 2
#     Edge 69, Type (0, 0), BuildingBlock: UVAHIK_clean_linker_0, # of connection points: 2
#     Edge 70, Type (0, 0), BuildingBlock: UVAHIK_clean_linker_0, # of connection points: 2
#     Edge 71, Type (0, 0), BuildingBlock: UVAHIK_clean_linker_0, # of connection points: 2
# Relax obj value: 0.172
# Max RMSD: 0.222
# Mean RMSD: 0.222
data_MOF--net-vck--node1-HICVOG_clean_sbu_0--edge1-UVAHIK_clean_linker_0
_symmetry_space_group_name_H-M    P1
_symmetry_Int_Tables_number       1
_symmetry_cell_setting            triclinic
loop_
_symmetry_equiv_pos_as_xyz
'x, y, z'
_cell_length_a     114.61962
_cell_length_b     59.518377
_cell_length_c     21.990538
_cell_angle_alpha  90.008504
_cell_angle_beta   89.963602
_cell_angle_gamma 89.967718
loop_
_atom_site_label
_atom_site_type_symbol
_atom_site_fract_x
_atom_site_fract_y
_atom_site_fract_z
_atom_type_partial_charge
Zn0 Zn 0.55635 0.1707 0.94482 0.0
C1 C 0.55349 0.23019 0.03111 0.0
N2 N 0.54446 0.23249 0.99267 0.0
C3 C 0.54548 0.21437 0.95696 0.0
N4 N 0.55457 0.20127 0.97313 0.0
N5 N 0.55979 0.2114 0.01948 0.0
C6 C 0.56906 0.18895 0.17057 0.0
O7 O 0.56445 0.17307 0.1367 0.0
O8 O 0.55461 0.17062 0.85363 0.0
Zn9 Zn 0.57532 0.20542 0.05343 0.0
N10 N 0.54401 0.15271 0.98171 0.0
C11 C 0.52917 0.15095 0.05736 0.0
C12 C 0.53859 0.16193 0.03078 0.0
C13 C 0.54057 0.13237 0.95922 0.0
N14 N 0.52559 0.13097 0.03441 0.0
C15 C 0.53104 0.12115 0.98624 0.0
O16 O 0.58332 0.17616 0.02542 0.0
C17 C 0.58152 0.15915 0.99131 0.0
O18 O 0.57199 0.15676 0.96231 0.0
H19 H 0.54146 0.17788 0.04881 0.0
H20 H 0.545 0.12532 0.92016 0.0
C21 C 0.59323 0.24166 0.06068 0.0
C22 C 0.6004 0.25796 0.03252 0.0
C23 C 0.59112 0.25037 0.93807 0.0
C24 C 0.58419 0.23418 0.96573 0.0
N25 N 0.58537 0.22997 0.02612 0.0
N26 N 0.59908 0.26167 0.97181 0.0
H27 H 0.59412 0.23787 0.10858 0.0
C28 C 0.56195 0.18228 0.82397 0.0
O29 O 0.56997 0.19346 0.85406 0.0
O30 O 0.57436 0.2051 0.14479 0.0
H31 H 0.57796 0.22475 0.93911 0.0
H32 H 0.5247 0.15827 0.09593 0.0
H33 H 0.5903 0.25377 0.88994 0.0
Zn34 Zn 0.46506 0.84457 0.94134 0.0
C35 C 0.46934 0.78466 0.02451 0.0
N36 N 0.47857 0.78359 0.98701 0.0
C37 C 0.47723 0.80193 0.95241 0.0
N38 N 0.46774 0.81401 0.96848 0.0
N39 N 0.46262 0.80293 0.01359 0.0
C40 C 0.45341 0.8259 0.16512 0.0
O41 O 0.45787 0.84182 0.13087 0.0
O42 O 0.4667 0.84521 0.84982 0.0
Zn43 Zn 0.44703 0.80727 0.0484 0.0
N44 N 0.47696 0.86353 0.97861 0.0
C45 C 0.4915 0.86651 0.05545 0.0
C46 C 0.4824 0.85478 0.02819 0.0
C47 C 0.48007 0.88406 0.95611 0.0
N48 N 0.49471 0.88674 0.03268 0.0
C49 C 0.48924 0.89608 0.9839 0.0
O50 O 0.43797 0.83485 0.01765 0.0
C51 C 0.43938 0.85271 0.9863 0.0
O52 O 0.449 0.85702 0.95966 0.0
H53 H 0.4798 0.83865 0.04615 0.0
H54 H 0.47562 0.89066 0.91656 0.0
C55 C 0.43002 0.77025 0.06502 0.0
C56 C 0.42486 0.74977 0.0469 0.0
C57 C 0.43581 0.75089 0.95529 0.0
C58 C 0.44088 0.77107 0.97321 0.0
N59 N 0.43807 0.78027 0.02787 0.0
N60 N 0.42802 0.74068 0.99254 0.0
H61 H 0.4279 0.77775 0.10849 0.0
C62 C 0.45975 0.8328 0.81983 0.0
O63 O 0.45217 0.82044 0.8497 0.0
O64 O 0.4483 0.8094 0.1398 0.0
H65 H 0.44719 0.77922 0.94403 0.0
H66 H 0.49598 0.85959 0.09447 0.0
H67 H 0.4381 0.7433 0.9122 0.0
Zn68 Zn 0.69673 0.45724 0.29863 0.0
C69 C 0.72712 0.46474 0.20461 0.0
N70 N 0.72821 0.48273 0.24075 0.0
C71 C 0.71889 0.48101 0.27746 0.0
N72 N 0.71236 0.46265 0.26466 0.0
N73 N 0.7177 0.45224 0.21905 0.0
C74 C 0.71033 0.43365 0.0688 0.0
O75 O 0.70243 0.44538 0.09837 0.0
O76 O 0.69792 0.45489 0.38983 0.0
Zn77 Zn 0.71542 0.4219 0.19015 0.0
N78 N 0.68749 0.48394 0.27853 0.0
C79 C 0.6848 0.51301 0.20548 0.0
C80 C 0.69007 0.49301 0.22342 0.0
C81 C 0.67952 0.49392 0.31621 0.0
N82 N 0.67707 0.52318 0.2432 0.0
C83 C 0.67417 0.51422 0.29807 0.0
O84 O 0.69937 0.40938 0.20543 0.0
C85 C 0.68966 0.41239 0.23231 0.0
O86 O 0.68792 0.42939 0.26665 0.0
H87 H 0.69634 0.4849 0.19391 0.0
H88 H 0.6776 0.48653 0.36006 0.0
C89 C 0.7303 0.38233 0.20567 0.0
C90 C 0.73939 0.37017 0.23378 0.0
C91 C 0.7416 0.39964 0.30567 0.0
C92 C 0.73259 0.41151 0.27805 0.0
N93 N 0.7272 0.40287 0.22817 0.0
N94 N 0.7448 0.37939 0.28289 0.0
H95 H 0.7259 0.37582 0.16584 0.0
C96 C 0.7032 0.43857 0.41494 0.0
O97 O 0.70787 0.4229 0.38053 0.0
O98 O 0.71746 0.4217 0.09902 0.0
H99 H 0.73 0.42766 0.296 0.0
H100 H 0.6869 0.5205 0.16201 0.0
H101 H 0.74603 0.40647 0.34496 0.0
Zn102 Zn 0.32431 0.55879 0.29945 0.0
C103 C 0.29416 0.55256 0.20379 0.0
N104 N 0.29294 0.53418 0.23834 0.0
C105 C 0.30215 0.53542 0.27585 0.0
N106 N 0.30875 0.55386 0.26495 0.0
N107 N 0.30357 0.56485 0.2199 0.0
C108 C 0.31172 0.58383 0.07157 0.0
O109 O 0.3195 0.57216 0.10201 0.0
O110 O 0.32331 0.55939 0.39106 0.0
Zn111 Zn 0.30598 0.59552 0.1925 0.0
N112 N 0.33402 0.53365 0.27291 0.0
C113 C 0.33924 0.51168 0.18669 0.0
C114 C 0.33243 0.5283 0.21343 0.0
C115 C 0.34218 0.52271 0.30742 0.0
N116 N 0.34748 0.50111 0.22033 0.0
C117 C 0.34922 0.506 0.28014 0.0
O118 O 0.32181 0.60892 0.21113 0.0
C119 C 0.33131 0.6051 0.23933 0.0
O120 O 0.33273 0.58736 0.27112 0.0
H121 H 0.32601 0.53721 0.1867 0.0
H122 H 0.34342 0.52744 0.35449 0.0
C123 C 0.29077 0.63469 0.20636 0.0
C124 C 0.28146 0.64661 0.23334 0.0
C125 C 0.27891 0.61681 0.30392 0.0
C126 C 0.28815 0.6052 0.27752 0.0
N127 N 0.2938 0.61411 0.22876 0.0
N128 N 0.27577 0.63711 0.28122 0.0
H129 H 0.2954 0.64143 0.16753 0.0
C130 C 0.31811 0.57566 0.41702 0.0
O131 O 0.31354 0.59162 0.38329 0.0
O132 O 0.30448 0.59585 0.10099 0.0
H133 H 0.29071 0.58904 0.2955 0.0
H134 H 0.33809 0.50738 0.13927 0.0
H135 H 0.27426 0.60977 0.34224 0.0
Zn136 Zn 0.5558 0.66977 0.44255 0.0
C137 C 0.55219 0.73007 0.52492 0.0
N138 N 0.54293 0.73127 0.48769 0.0
C139 C 0.54408 0.71275 0.45356 0.0
N140 N 0.55347 0.70042 0.46974 0.0
N141 N 0.55873 0.71153 0.51429 0.0
C142 C 0.57021 0.68852 0.66821 0.0
O143 O 0.56854 0.67011 0.63642 0.0
O144 O 0.55451 0.6699 0.35106 0.0
Zn145 Zn 0.5742 0.7065 0.54914 0.0
N146 N 0.54342 0.65136 0.47751 0.0
C147 C 0.52811 0.64894 0.55041 0.0
C148 C 0.53749 0.66045 0.52513 0.0
C149 C 0.54053 0.63068 0.45527 0.0
N150 N 0.52512 0.62855 0.52787 0.0
C151 C 0.53109 0.61884 0.48119 0.0
O152 O 0.58252 0.67764 0.52178 0.0
C153 C 0.58102 0.65978 0.4906 0.0
O154 O 0.57153 0.65601 0.46235 0.0
H155 H 0.53994 0.67667 0.54308 0.0
H156 H 0.54539 0.62378 0.4174 0.0
C157 C 0.59204 0.74257 0.55699 0.0
C158 C 0.5992 0.75903 0.52957 0.0
C159 C 0.58965 0.75254 0.43525 0.0
C160 C 0.58273 0.73615 0.46217 0.0
N161 N 0.58405 0.73134 0.52216 0.0
N162 N 0.59774 0.76339 0.46926 0.0
H163 H 0.59306 0.73823 0.60448 0.0
C164 C 0.56311 0.67813 0.32216 0.0
O165 O 0.57214 0.68556 0.35304 0.0
O166 O 0.57294 0.70654 0.6406 0.0
H167 H 0.57644 0.72699 0.43522 0.0
H168 H 0.52323 0.65614 0.58778 0.0
H169 H 0.58873 0.75642 0.38744 0.0
Zn170 Zn 0.46523 0.34353 0.43873 0.0
C171 C 0.46771 0.28419 0.52584 0.0
N172 N 0.47678 0.28164 0.48773 0.0
C173 C 0.47589 0.29957 0.45123 0.0
N174 N 0.46684 0.31289 0.46685 0.0
N175 N 0.46151 0.30301 0.51329 0.0
C176 C 0.45167 0.32707 0.66465 0.0
O177 O 0.45585 0.34341 0.63085 0.0
O178 O 0.46725 0.34372 0.34765 0.0
Zn179 Zn 0.44602 0.30952 0.54736 0.0
N180 N 0.47741 0.36142 0.47713 0.0
C181 C 0.49186 0.36319 0.55471 0.0
C182 C 0.48257 0.35221 0.52692 0.0
C183 C 0.48096 0.38173 0.45507 0.0
N184 N 0.49554 0.38316 0.53222 0.0
C185 C 0.49034 0.39297 0.48334 0.0
O186 O 0.43806 0.33858 0.51786 0.0
C187 C 0.43993 0.35535 0.48301 0.0
O188 O 0.44952 0.35754 0.45441 0.0
H189 H 0.47961 0.33627 0.54459 0.0
H190 H 0.47672 0.38877 0.41544 0.0
C191 C 0.42815 0.27331 0.5563 0.0
C192 C 0.42087 0.25704 0.52876 0.0
C193 C 0.42982 0.26471 0.43342 0.0
C194 C 0.43685 0.28087 0.46048 0.0
N195 N 0.43589 0.28502 0.52101 0.0
N196 N 0.42199 0.25338 0.4679 0.0
H197 H 0.42743 0.27706 0.6043 0.0
C198 C 0.45997 0.332 0.31778 0.0
O199 O 0.45197 0.3207 0.34768 0.0
O200 O 0.44689 0.31034 0.63881 0.0
H201 H 0.44298 0.29033 0.4333 0.0
H202 H 0.49613 0.35588 0.59385 0.0
H203 H 0.43047 0.26135 0.38519 0.0
Zn204 Zn 0.69602 0.95463 0.80341 0.0
C205 C 0.7257 0.96419 0.70589 0.0
N206 N 0.72667 0.98234 0.74152 0.0
C207 C 0.71768 0.97992 0.78019 0.0
N208 N 0.71144 0.96106 0.76871 0.0
N209 N 0.71667 0.95099 0.72226 0.0
C210 C 0.70975 0.93197 0.57307 0.0
O211 O 0.70171 0.9433 0.60272 0.0
O212 O 0.69718 0.95362 0.89461 0.0
Zn213 Zn 0.71497 0.92041 0.69414 0.0
N214 N 0.68589 0.97939 0.77879 0.0
C215 C 0.67964 1.00088 0.69358 0.0
C216 C 0.68679 0.98445 0.71874 0.0
C217 C 0.67811 0.99044 0.81539 0.0
N218 N 0.67176 0.01154 0.72937 0.0
C219 C 0.67073 1.00695 0.7898 0.0
O220 O 0.69924 0.90667 0.70991 0.0
C221 C 0.68966 0.90899 0.73857 0.0
O222 O 0.68788 0.92576 0.77363 0.0
H223 H 0.69295 0.9755 0.69043 0.0
H224 H 0.67743 0.98594 0.86294 0.0
C225 C 0.73062 0.88201 0.71 0.0
C226 C 0.74007 0.87075 0.73758 0.0
C227 C 0.74186 0.90063 0.80849 0.0
C228 C 0.73251 0.91166 0.7813 0.0
N229 N 0.72717 0.9024 0.73211 0.0
N230 N 0.74544 0.88059 0.78592 0.0
H231 H 0.72626 0.87496 0.67076 0.0
C232 C 0.70263 0.93756 0.91994 0.0
O233 O 0.70733 0.92186 0.88573 0.0
O234 O 0.717 0.92024 0.60315 0.0
H235 H 0.72965 0.92768 0.79895 0.0
H236 H 0.68024 1.00495 0.64574 0.0
H237 H 0.74626 0.90797 0.84718 0.0
Zn238 Zn 0.32489 0.05827 0.8011 0.0
C239 C 0.29461 0.05101 0.70706 0.0
N240 N 0.29336 0.03318 0.74362 0.0
C241 C 0.30256 0.03504 0.78105 0.0
N242 N 0.30918 0.05326 0.76808 0.0
N243 N 0.30402 0.06347 0.72169 0.0
C244 C 0.31145 0.08178 0.57113 0.0
O245 O 0.31936 0.07011 0.60069 0.0
O246 O 0.32384 0.06036 0.8923 0.0
Zn247 Zn 0.30633 0.09368 0.69237 0.0
N248 N 0.33389 0.03142 0.7796 0.0
C249 C 0.33626 1.00281 0.7049 0.0
C250 C 0.33123 0.0229 0.72396 0.0
C251 C 0.34172 0.0208 0.81673 0.0
N252 N 0.34384 0.99201 0.74207 0.0
C253 C 0.34683 1.0004 0.79745 0.0
O254 O 0.32237 0.10608 0.70778 0.0
C255 C 0.33207 0.10304 0.73474 0.0
O256 O 0.33377 0.08606 0.76916 0.0
H257 H 0.32507 0.03151 0.69493 0.0
H258 H 0.34369 0.02775 0.86103 0.0
C259 C 0.2914 0.13323 0.70717 0.0
C260 C 0.28228 0.1454 0.73509 0.0
C261 C 0.28015 0.11614 0.80769 0.0
C262 C 0.28918 0.10426 0.78023 0.0
N263 N 0.29454 0.11279 0.73012 0.0
N264 N 0.2769 0.13629 0.78448 0.0
H265 H 0.29577 0.13964 0.66714 0.0
C266 C 0.31851 0.07663 0.91749 0.0
O267 O 0.31379 0.09224 0.88313 0.0
O268 O 0.30431 0.09375 0.60132 0.0
H269 H 0.29179 0.08818 0.7985 0.0
H270 H 0.33409 0.99575 0.661 0.0
H271 H 0.27573 0.10941 0.84717 0.0
Zn272 Zn 0.0745 0.20779 0.54709 0.0
C273 C 0.04416 0.21531 0.45278 0.0
N274 N 0.04309 0.23339 0.48862 0.0
C275 C 0.05239 0.23165 0.52541 0.0
N276 N 0.05889 0.2132 0.51294 0.0
N277 N 0.05355 0.20274 0.46747 0.0
C278 C 0.06074 0.18408 0.31736 0.0
O279 O 0.06856 0.19603 0.34673 0.0
O280 O 0.07327 0.20553 0.63836 0.0
Zn281 Zn 0.05578 0.17234 0.43895 0.0
N282 N 0.08372 0.23447 0.52661 0.0
C283 C 0.08652 0.26302 0.45218 0.0
C284 C 0.08129 0.24308 0.47079 0.0
C285 C 0.09152 0.24486 0.5644 0.0
N286 N 0.09407 0.2736 0.48997 0.0
C287 C 0.09683 0.26512 0.54557 0.0
O288 O 0.07183 0.15989 0.45421 0.0
C289 C 0.08155 0.16288 0.48097 0.0
O290 O 0.08331 0.17989 0.51521 0.0
H291 H 0.07516 0.23464 0.44124 0.0
H292 H 0.09332 0.23785 0.60882 0.0
C293 C 0.04087 0.13285 0.45552 0.0
C294 C 0.03182 0.12078 0.48431 0.0
C295 C 0.02978 0.15038 0.55599 0.0
C296 C 0.03874 0.16216 0.52771 0.0
N297 N 0.04402 0.15341 0.47762 0.0
N298 N 0.02651 0.13012 0.53363 0.0
H299 H 0.04518 0.12626 0.41553 0.0
C300 C 0.0681 0.18906 0.6635 0.0
O301 O 0.06361 0.17322 0.6291 0.0
O302 O 0.05371 0.17198 0.34779 0.0
H303 H 0.04138 0.17832 0.54533 0.0
H304 H 0.08453 0.27014 0.40813 0.0
H305 H 0.02542 0.15729 0.59546 0.0
Zn306 Zn 0.96481 0.84594 0.44097 0.0
C307 C 0.96803 0.78565 0.52384 0.0
N308 N 0.97703 0.78379 0.48505 0.0
C309 C 0.97592 0.80212 0.45015 0.0
N310 N 0.96681 0.81503 0.46736 0.0
N311 N 0.96167 0.80443 0.5132 0.0
C312 C 0.95195 0.82748 0.6659 0.0
O313 O 0.95603 0.84391 0.63213 0.0
O314 O 0.96641 0.84655 0.34954 0.0
Zn315 Zn 0.9462 0.80992 0.54842 0.0
N316 N 0.97716 0.86383 0.47814 0.0
C317 C 0.992 0.86533 0.55372 0.0
C318 C 0.98258 0.85444 0.52692 0.0
C319 C 0.98058 0.88426 0.45624 0.0
N320 N 0.99556 0.88541 0.53132 0.0
C321 C 0.99009 0.8954 0.48352 0.0
O322 O 0.93804 0.83869 0.51993 0.0
C323 C 0.93958 0.85635 0.48803 0.0
O324 O 0.9491 0.85987 0.45965 0.0
H325 H 0.97972 0.83841 0.54451 0.0
H326 H 0.97613 0.89146 0.41746 0.0
C327 C 0.92825 0.77391 0.55752 0.0
C328 C 0.92104 0.75745 0.53037 0.0
C329 C 0.93052 0.7638 0.43577 0.0
C330 C 0.93749 0.78018 0.4624 0.0
N331 N 0.93623 0.78507 0.52238 0.0
N332 N 0.92245 0.75303 0.47006 0.0
H333 H 0.92727 0.77827 0.60502 0.0
C334 C 0.95925 0.83446 0.31993 0.0
O335 O 0.95151 0.8226 0.35018 0.0
O336 O 0.94724 0.81067 0.63999 0.0
H337 H 0.94379 0.78924 0.43523 0.0
H338 H 0.99648 0.85787 0.59201 0.0
H339 H 0.93141 0.75987 0.38796 0.0
Zn340 Zn 0.1971 0.45742 0.79941 0.0
C341 C 0.22728 0.46282 0.70334 0.0
N342 N 0.22865 0.4811 0.73818 0.0
C343 C 0.21942 0.48004 0.77567 0.0
N344 N 0.21267 0.46183 0.76452 0.0
N345 N 0.21776 0.45079 0.71922 0.0
C346 C 0.20981 0.43183 0.57083 0.0
O347 O 0.20219 0.44412 0.6007 0.0
O348 O 0.19838 0.45527 0.8908 0.0
Zn349 Zn 0.21513 0.4202 0.69232 0.0
N350 N 0.18813 0.48441 0.77899 0.0
C351 C 0.18583 0.51381 0.70654 0.0
C352 C 0.19091 0.4936 0.72428 0.0
C353 C 0.18013 0.49445 0.81636 0.0
N354 N 0.17808 0.52404 0.74401 0.0
C355 C 0.17497 0.51496 0.79842 0.0
O356 O 0.19908 0.40767 0.71057 0.0
C357 C 0.18946 0.41198 0.73717 0.0
O358 O 0.18804 0.42985 0.76854 0.0
H359 H 0.19718 0.48543 0.69495 0.0
H360 H 0.17805 0.48695 0.85987 0.0
C361 C 0.23061 0.3813 0.70667 0.0
C362 C 0.23996 0.36977 0.73436 0.0
C363 C 0.2415 0.39894 0.80753 0.0
C364 C 0.23226 0.41024 0.78026 0.0
N365 N 0.22709 0.40148 0.72989 0.0
N366 N 0.24516 0.37912 0.78387 0.0
H367 H 0.22639 0.37463 0.66653 0.0
C368 C 0.2035 0.43877 0.91613 0.0
O369 O 0.20796 0.42284 0.8819 0.0
O370 O 0.2168 0.41949 0.60083 0.0
H371 H 0.22934 0.42609 0.79875 0.0
H372 H 0.18809 0.5214 0.66342 0.0
H373 H 0.24578 0.40589 0.84713 0.0
Zn374 Zn 0.80574 0.59417 0.69089 0.0
C375 C 0.80299 0.53465 0.77736 0.0
N376 N 0.79374 0.5326 0.74027 0.0
C377 C 0.79464 0.55074 0.70458 0.0
N378 N 0.80386 0.56368 0.71969 0.0
N379 N 0.80929 0.55338 0.76516 0.0
C380 C 0.81856 0.57652 0.91619 0.0
O381 O 0.81388 0.5923 0.88226 0.0
O382 O 0.80386 0.59417 0.59971 0.0
Zn383 Zn 0.82484 0.55957 0.79903 0.0
N384 N 0.79363 0.6126 0.72826 0.0
C385 C 0.77889 0.61518 0.80424 0.0
C386 C 0.78807 0.6036 0.77716 0.0
C387 C 0.79057 0.63324 0.70635 0.0
N388 N 0.77572 0.63553 0.78204 0.0
C389 C 0.78132 0.64513 0.73401 0.0
O390 O 0.83295 0.58856 0.76974 0.0
C391 C 0.83111 0.60543 0.73516 0.0
O392 O 0.82151 0.60779 0.70685 0.0
H393 H 0.79065 0.5874 0.79475 0.0
H394 H 0.79512 0.64005 0.66739 0.0
C395 C 0.8429 0.5237 0.80799 0.0
C396 C 0.85014 0.5073 0.78073 0.0
C397 C 0.84064 0.51365 0.68621 0.0
C398 C 0.83364 0.52996 0.71295 0.0
N399 N 0.8349 0.53484 0.77294 0.0
N400 N 0.84874 0.5029 0.72041 0.0
H401 H 0.84386 0.52804 0.85551 0.0
C402 C 0.81122 0.58258 0.56991 0.0
O403 O 0.81927 0.57143 0.5999 0.0
O404 O 0.82389 0.56035 0.89048 0.0
H405 H 0.82732 0.53899 0.68589 0.0
H406 H 0.77431 0.60806 0.8427 0.0
H407 H 0.83976 0.50972 0.6384 0.0
Zn408 Zn 0.07453 0.70586 0.05316 0.0
C409 C 0.0448 0.71277 0.95523 0.0
N410 N 0.04348 0.73106 0.99005 0.0
C411 C 0.05247 0.72945 0.0289 0.0
N412 N 0.05905 0.71095 0.0183 0.0
N413 N 0.05406 0.70024 0.97224 0.0
C414 C 0.06201 0.68115 0.82417 0.0
O415 O 0.06979 0.69292 0.85432 0.0
O416 O 0.0734 0.70517 0.14453 0.0
Zn417 Zn 0.05636 0.66954 0.94514 0.0
N418 N 0.0843 0.731 0.02749 0.0
C419 C 0.08986 0.75324 0.94239 0.0
C420 C 0.08294 0.73655 0.968 0.0
C421 C 0.09232 0.74178 0.06309 0.0
N422 N 0.09798 0.76365 0.97717 0.0
C423 C 0.09947 0.75855 0.03702 0.0
O424 O 0.07213 0.65596 0.96392 0.0
C425 C 0.08159 0.65967 0.99259 0.0
O426 O 0.08298 0.67732 0.02476 0.0
H427 H 0.0766 0.72777 0.9404 0.0
H428 H 0.09338 0.73686 0.11014 0.0
C429 C 0.04116 0.63054 0.95939 0.0
C430 C 0.03179 0.61872 0.98596 0.0
C431 C 0.02899 0.64884 0.05535 0.0
C432 C 0.0383 0.66035 0.02931 0.0
N433 N 0.04411 0.65121 0.98137 0.0
N434 N 0.02595 0.62843 0.03306 0.0
H435 H 0.04591 0.62364 0.92114 0.0
C436 C 0.06816 0.6889 0.17021 0.0
O437 O 0.06364 0.67296 0.13627 0.0
O438 O 0.05483 0.66911 0.85382 0.0
H439 H 0.04078 0.6766 0.04693 0.0
H440 H 0.0889 0.7577 0.89497 0.0
H441 H 0.02422 0.65605 0.09304 0.0
Zn442 Zn 0.96554 0.34383 0.94001 0.0
C443 C 0.96808 0.28403 0.02493 0.0
N444 N 0.97724 0.28186 0.98725 0.0
C445 C 0.97637 0.3001 0.95189 0.0
N446 N 0.96725 0.31319 0.96775 0.0
N447 N 0.96186 0.30292 0.01336 0.0
C448 C 0.95287 0.32663 0.16523 0.0
O449 O 0.95739 0.34254 0.13113 0.0
O450 O 0.96757 0.34418 0.84886 0.0
Zn451 Zn 0.94645 0.30948 0.04832 0.0
N452 N 0.97769 0.36171 0.97868 0.0
C453 C 0.99209 0.36344 0.05651 0.0
C454 C 0.98281 0.35249 0.02856 0.0
C455 C 0.98127 0.38201 0.95668 0.0
N456 N 0.9958 0.3834 0.03408 0.0
C457 C 0.99063 0.39322 0.98511 0.0
O458 O 0.93839 0.33852 0.01908 0.0
C459 C 0.94022 0.35536 0.98442 0.0
O460 O 0.94981 0.35766 0.95591 0.0
H461 H 0.97983 0.33655 0.04617 0.0
H462 H 0.97706 0.38906 0.91697 0.0
C463 C 0.92842 0.27385 0.05945 0.0
C464 C 0.92098 0.25756 0.03333 0.0
C465 C 0.92991 0.2639 0.93731 0.0
C466 C 0.93712 0.28011 0.96299 0.0
N467 N 0.93623 0.28494 0.0232 0.0
N468 N 0.92199 0.25321 0.97277 0.0
H469 H 0.92774 0.27816 0.10714 0.0
C470 C 0.96032 0.33246 0.81873 0.0
O471 O 0.95232 0.32107 0.84841 0.0
O472 O 0.9476 0.31038 0.13972 0.0
H473 H 0.94331 0.2891 0.93497 0.0
H474 H 0.99633 0.35612 0.09573 0.0
H475 H 0.9305 0.26003 0.88934 0.0
Zn476 Zn 0.19557 0.95567 0.29677 0.0
C477 C 0.22541 0.96528 0.20018 0.0
N478 N 0.22634 0.98327 0.23644 0.0
C479 C 0.21726 0.98088 0.27454 0.0
N480 N 0.21103 0.96209 0.26221 0.0
N481 N 0.21634 0.95207 0.21592 0.0
C482 C 0.20938 0.93285 0.06723 0.0
O483 O 0.20144 0.94432 0.09718 0.0
O484 O 0.19651 0.95509 0.38823 0.0
Zn485 Zn 0.21472 0.92136 0.18822 0.0
N486 N 0.18535 0.98001 0.27005 0.0
C487 C 0.17916 0.99995 0.18206 0.0
C488 C 0.18626 0.98395 0.2094 0.0
C489 C 0.17761 0.9918 0.30518 0.0
N490 N 0.17133 0.01136 0.21639 0.0
C491 C 0.17027 0.00791 0.27737 0.0
O492 O 0.19909 0.90722 0.205 0.0
C493 C 0.18955 0.9095 0.23405 0.0
O494 O 0.18772 0.92643 0.26841 0.0
H495 H 0.1924 0.97444 0.18235 0.0
H496 H 0.17693 0.98821 0.3533 0.0
C497 C 0.23056 0.88324 0.2043 0.0
C498 C 0.23998 0.87208 0.23236 0.0
C499 C 0.24154 0.90196 0.30344 0.0
C500 C 0.2322 0.91286 0.27588 0.0
N501 N 0.227 0.90358 0.2263 0.0
N502 N 0.24524 0.88197 0.28098 0.0
H503 H 0.22628 0.87614 0.16489 0.0
C504 C 0.20121 0.93826 0.41409 0.0
O505 O 0.20527 0.9218 0.3803 0.0
O506 O 0.21663 0.92102 0.09706 0.0
H507 H 0.22922 0.9288 0.29355 0.0
H508 H 0.17977 1.00314 0.13373 0.0
H509 H 0.24585 0.90933 0.34238 0.0
Zn510 Zn 0.80591 0.09491 0.18719 0.0
C511 C 0.80283 0.03558 0.27365 0.0
N512 N 0.79375 0.03334 0.23552 0.0
C513 C 0.79479 0.0513 0.19921 0.0
N514 N 0.80394 0.06433 0.21494 0.0
N515 N 0.80916 0.05424 0.26135 0.0
C516 C 0.81886 0.07913 0.41246 0.0
O517 O 0.81484 0.09553 0.37836 0.0
O518 O 0.8039 0.09538 0.09614 0.0
Zn519 Zn 0.82468 0.06005 0.2958 0.0
N520 N 0.79389 0.11321 0.22585 0.0
C521 C 0.7795 0.1153 0.30377 0.0
C522 C 0.78873 0.10415 0.27585 0.0
C523 C 0.79039 0.13356 0.20368 0.0
N524 N 0.77586 0.13529 0.28114 0.0
C525 C 0.78106 0.14495 0.23204 0.0
O526 O 0.83322 0.08821 0.26471 0.0
C527 C 0.83147 0.10527 0.23069 0.0
O528 O 0.8218 0.10814 0.20322 0.0
H529 H 0.79164 0.08817 0.29358 0.0
H530 H 0.79462 0.14048 0.16385 0.0
C531 C 0.84193 0.02355 0.31299 0.0
C532 C 0.84751 1.00359 0.294 0.0
C533 C 0.83746 1.00566 0.19986 0.0
C534 C 0.83196 0.02532 0.21864 0.0
N535 N 0.83415 0.0338 0.27489 0.0
N536 N 0.84501 0.99521 0.23795 0.0
H537 H 0.84353 0.03046 0.35774 0.0
C538 C 0.8109 0.08312 0.06587 0.0
O539 O 0.81863 0.071 0.09537 0.0
O540 O 0.8235 0.06215 0.38702 0.0
H541 H 0.82582 0.03365 0.18888 0.0
H542 H 0.77523 0.10811 0.34309 0.0
H543 H 0.83568 0.99864 0.15545 0.0
C544 C 0.55277 0.26666 0.08443 0.0
C545 C 0.55355 0.24316 0.08805 0.0
C546 C 0.54738 0.27896 0.1309 0.0
C547 C 0.53383 0.27523 0.28507 0.0
H548 H 0.50931 0.3111 0.21167 0.0
C549 C 0.48398 0.29942 0.34635 0.0
C550 C 0.48522 0.30513 0.40784 0.0
C551 C 0.49379 0.29806 0.3085 0.0
C552 C 0.51614 0.3013 0.23297 0.0
H553 H 0.54971 0.21428 0.14403 0.0
H554 H 0.5409 0.2356 0.22637 0.0
H555 H 0.52516 0.29671 0.14868 0.0
H556 H 0.49754 0.31423 0.47808 0.0
H557 H 0.51468 0.31218 0.41202 0.0
H558 H 0.52448 0.2789 0.3688 0.0
C559 C 0.54457 0.24471 0.18825 0.0
C560 C 0.52532 0.29324 0.19702 0.0
C561 C 0.54988 0.23243 0.14152 0.0
C562 C 0.49634 0.3104 0.43032 0.0
C563 C 0.50616 0.3089 0.39272 0.0
C564 C 0.5247 0.28344 0.32113 0.0
C565 C 0.54263 0.26794 0.18178 0.0
C566 C 0.53412 0.27962 0.2223 0.0
C567 C 0.50506 0.30191 0.33191 0.0
C568 C 0.51558 0.29609 0.29521 0.0
H569 H 0.55525 0.27526 0.04297 0.0
H570 H 0.54617 0.29688 0.12489 0.0
H571 H 0.54048 0.26485 0.30599 0.0
H572 H 0.47556 0.29435 0.3287 0.0
H573 H 0.49262 0.29234 0.26215 0.0
C574 C 0.47238 0.78087 0.13507 0.0
C575 C 0.46919 0.7708 0.07989 0.0
C576 C 0.47742 0.76808 0.18155 0.0
C577 C 0.49652 0.71897 0.19116 0.0
H578 H 0.49619 0.73284 0.36324 0.0
C579 C 0.53676 0.71072 0.34738 0.0
C580 C 0.53504 0.70637 0.40937 0.0
C581 C 0.5272 0.71203 0.3078 0.0
C582 C 0.4963 0.72837 0.31552 0.0
H583 H 0.46807 0.73933 0.03119 0.0
H584 H 0.4766 0.71676 0.11281 0.0
H585 H 0.48078 0.74739 0.29795 0.0
H586 H 0.52216 0.69914 0.47853 0.0
H587 H 0.50549 0.70074 0.40947 0.0
H588 H 0.51221 0.70045 0.20847 0.0
C589 C 0.47528 0.73457 0.12029 0.0
C590 C 0.4875 0.73693 0.27796 0.0
C591 C 0.4702 0.7474 0.07394 0.0
C592 C 0.52371 0.70201 0.43055 0.0
C593 C 0.51416 0.70329 0.39114 0.0
C594 C 0.50534 0.71045 0.22871 0.0
C595 C 0.47953 0.74496 0.1733 0.0
C596 C 0.48765 0.73281 0.21503 0.0
C597 C 0.51573 0.70932 0.32982 0.0
C598 C 0.50551 0.71549 0.29115 0.0
H599 H 0.47235 0.79897 0.13954 0.0
H600 H 0.4807 0.77676 0.22128 0.0
H601 H 0.49702 0.71565 0.14281 0.0
H602 H 0.54536 0.71494 0.33049 0.0
H603 H 0.52876 0.71692 0.26107 0.0
C604 C 0.71935 0.51766 0.33002 0.0
C605 C 0.71855 0.49417 0.33405 0.0
C606 C 0.72448 0.5301 0.37695 0.0
C607 C 0.74615 0.54468 0.44589 0.0
H608 H 0.74627 0.5303 0.61771 0.0
C609 C 0.78688 0.5509 0.59912 0.0
C610 C 0.78542 0.55639 0.66063 0.0
C611 C 0.7772 0.5496 0.5604 0.0
C612 C 0.74626 0.53487 0.57004 0.0
H613 H 0.72211 0.46545 0.39112 0.0
H614 H 0.73049 0.48699 0.47413 0.0
H615 H 0.73057 0.51624 0.55318 0.0
H616 H 0.77285 0.56517 0.73005 0.0
H617 H 0.75593 0.56325 0.66247 0.0
H618 H 0.76206 0.56261 0.4623 0.0
C619 C 0.72702 0.496 0.43537 0.0
C620 C 0.73729 0.52664 0.53298 0.0
C621 C 0.72196 0.48359 0.38821 0.0
C622 C 0.77421 0.5615 0.6823 0.0
C623 C 0.76452 0.56009 0.64381 0.0
C624 C 0.75515 0.55278 0.48285 0.0
C625 C 0.72898 0.51922 0.4287 0.0
C626 C 0.73726 0.53101 0.47017 0.0
C627 C 0.76585 0.55331 0.58292 0.0
C628 C 0.75547 0.54755 0.54513 0.0
H629 H 0.71707 0.52614 0.28807 0.0
H630 H 0.72571 0.54799 0.37075 0.0
H631 H 0.74652 0.54815 0.39758 0.0
H632 H 0.79536 0.54589 0.58207 0.0
H633 H 0.77854 0.54403 0.51404 0.0
C634 C 0.29902 0.53156 0.38642 0.0
C635 C 0.30233 0.52156 0.33127 0.0
C636 C 0.29397 0.51867 0.43271 0.0
C637 C 0.27478 0.46994 0.44068 0.0
H638 H 0.27518 0.48224 0.61367 0.0
C639 C 0.24738 0.45079 0.6782 0.0
C640 C 0.23615 0.45652 0.65807 0.0
C641 C 0.25695 0.45228 0.63885 0.0
C642 C 0.27505 0.47824 0.56563 0.0
H643 H 0.30359 0.49013 0.28244 0.0
H644 H 0.29497 0.46745 0.36357 0.0
H645 H 0.29068 0.4971 0.549 0.0
H646 H 0.22605 0.46801 0.5812 0.0
H647 H 0.24262 0.46994 0.51164 0.0
H648 H 0.25892 0.4518 0.45695 0.0
C649 C 0.29627 0.48525 0.37126 0.0
C650 C 0.2839 0.48694 0.5285 0.0
C651 C 0.30139 0.49815 0.32519 0.0
C652 C 0.23453 0.46252 0.59703 0.0
C653 C 0.24408 0.46387 0.55744 0.0
C654 C 0.26589 0.46138 0.47773 0.0
C655 C 0.29192 0.49556 0.4242 0.0
C656 C 0.28373 0.48333 0.46533 0.0
C657 C 0.25548 0.45972 0.57862 0.0
C658 C 0.26577 0.46585 0.54047 0.0
H659 H 0.29897 0.54965 0.39096 0.0
H660 H 0.2906 0.52727 0.47244 0.0
H661 H 0.27426 0.46705 0.39213 0.0
H662 H 0.24887 0.44671 0.72559 0.0
H663 H 0.26558 0.44875 0.65646 0.0
C664 C 0.49731 0.81407 0.92737 0.0
C665 C 0.4861 0.80824 0.90719 0.0
C666 C 0.50689 0.81263 0.88805 0.0
C667 C 0.51581 0.80354 0.72686 0.0
H668 H 0.54092 0.7686 0.79814 0.0
C669 C 0.54957 0.73419 0.63588 0.0
C670 C 0.55247 0.7441 0.58001 0.0
C671 C 0.54449 0.74703 0.68226 0.0
C672 C 0.53404 0.77852 0.77761 0.0
H673 H 0.47604 0.7966 0.83034 0.0
H674 H 0.49263 0.79476 0.76088 0.0
H675 H 0.52534 0.78315 0.86288 0.0
H676 H 0.55317 0.77538 0.53025 0.0
H677 H 0.54462 0.798 0.6116 0.0
H678 H 0.52415 0.79792 0.6412 0.0
C679 C 0.49407 0.80087 0.80665 0.0
C680 C 0.52515 0.78706 0.81479 0.0
C681 C 0.48451 0.80217 0.84619 0.0
C682 C 0.55124 0.76743 0.57343 0.0
C683 C 0.54615 0.78029 0.61965 0.0
C684 C 0.52473 0.79512 0.68977 0.0
C685 C 0.50545 0.80515 0.82784 0.0
C686 C 0.51576 0.79918 0.78964 0.0
C687 C 0.54208 0.77 0.6732 0.0
C688 C 0.53381 0.78201 0.71441 0.0
H689 H 0.49878 0.81819 0.97474 0.0
H690 H 0.51551 0.81627 0.90567 0.0
H691 H 0.50877 0.81293 0.70607 0.0
H692 H 0.54988 0.71611 0.64114 0.0
H693 H 0.5414 0.73845 0.72259 0.0
C694 C 0.47152 0.28526 0.63592 0.0
C695 C 0.46808 0.27269 0.58506 0.0
C696 C 0.47738 0.27498 0.68418 0.0
C697 C 0.48877 0.22105 0.74725 0.0
H698 H 0.51673 0.25669 0.77071 0.0
C699 C 0.52541 0.20398 0.92607 0.0
C700 C 0.53686 0.2096 0.90926 0.0
C701 C 0.51617 0.2071 0.88528 0.0
C702 C 0.50904 0.24639 0.76426 0.0
H703 H 0.46736 0.2393 0.54657 0.0
H704 H 0.47761 0.22122 0.63081 0.0
H705 H 0.50077 0.27175 0.71099 0.0
H706 H 0.54774 0.2222 0.83664 0.0
H707 H 0.53173 0.22696 0.76451 0.0
H708 H 0.49727 0.19559 0.80072 0.0
C709 C 0.47558 0.23895 0.63418 0.0
C710 C 0.49977 0.25521 0.73092 0.0
C711 C 0.46962 0.24927 0.58607 0.0
C712 C 0.53905 0.21701 0.8499 0.0
C713 C 0.52984 0.22013 0.8091 0.0
C714 C 0.49807 0.21226 0.78143 0.0
C715 C 0.48018 0.25197 0.68182 0.0
C716 C 0.48951 0.24272 0.72185 0.0
C717 C 0.51823 0.21628 0.82735 0.0
C718 C 0.50836 0.22478 0.78974 0.0
H719 H 0.47111 0.30341 0.63491 0.0
H720 H 0.48068 0.28545 0.72061 0.0
H721 H 0.48101 0.21097 0.74081 0.0
H722 H 0.52349 0.19887 0.9723 0.0
H723 H 0.50734 0.20411 0.9009 0.0
C724 C 0.72127 0.9825 0.89059 0.0
C725 C 0.71755 0.99304 0.83692 0.0
C726 C 0.72655 0.99498 0.93699 0.0
C727 C 0.74566 0.0437 0.9444 0.0
H728 H 0.74646 0.03026 0.11672 0.0
C729 C 0.77444 0.06249 0.17722 0.0
C730 C 0.78558 0.05698 0.15528 0.0
C731 C 0.76465 0.06075 0.1395 0.0
C732 C 0.74626 0.03454 0.06887 0.0
H733 H 0.71573 0.02499 0.79121 0.0
H734 H 0.72476 0.04694 0.87253 0.0
H735 H 0.73056 0.01567 0.05431 0.0
H736 H 0.7953 0.04559 0.07689 0.0
H737 H 0.77832 0.04325 0.01007 0.0
H738 H 0.7616 0.06181 0.95849 0.0
C739 C 0.72361 0.02903 0.87894 0.0
C740 C 0.73718 0.02602 0.03305 0.0
C741 C 0.71825 0.01654 0.83282 0.0
C742 C 0.78688 0.05088 0.09409 0.0
C743 C 0.77711 0.04931 0.0561 0.0
C744 C 0.75479 0.05205 0.9801 0.0
C745 C 0.72841 0.01821 0.92999 0.0
C746 C 0.73689 0.03011 0.97013 0.0
C747 C 0.76582 0.05332 0.0791 0.0
C748 C 0.75534 0.04718 0.04254 0.0
H749 H 0.72149 0.96436 0.89351 0.0
H750 H 0.73025 0.98602 0.97528 0.0
H751 H 0.74582 0.04694 0.89595 0.0
H752 H 0.7732 0.06664 0.22478 0.0
H753 H 0.75611 0.06416 0.15847 0.0
C754 C 0.23351 0.9652 0.09532 0.0
C755 C 0.23474 0.95957 0.15686 0.0
C756 C 0.24333 0.96646 0.0575 0.0
C757 C 0.27427 0.98086 0.07035 0.0
H758 H 0.27464 0.968 0.89768 0.0
C759 C 0.30205 0.99836 0.83316 0.0
C760 C 0.30283 0.02184 0.83753 0.0
C761 C 0.29677 0.98586 0.87954 0.0
C762 C 0.27483 0.97134 0.94607 0.0
H763 H 0.24704 0.95049 0.22722 0.0
H764 H 0.26419 0.95231 0.16119 0.0
H765 H 0.25881 0.95354 0.96058 0.0
H766 H 0.29918 0.05047 0.89481 0.0
H767 H 0.29053 0.02881 0.97687 0.0
H768 H 0.29006 0.99938 0.05539 0.0
C769 C 0.25568 0.95563 0.14182 0.0
C770 C 0.26566 0.96325 0.98199 0.0
C771 C 0.24585 0.95426 0.17942 0.0
C772 C 0.29932 0.03233 0.89162 0.0
C773 C 0.2941 0.01986 0.93823 0.0
C774 C 0.2834 0.98909 0.03435 0.0
C775 C 0.25459 0.96257 0.08097 0.0
C776 C 0.26512 0.96834 0.04431 0.0
C777 C 0.29212 0.99667 0.93105 0.0
C778 C 0.28366 0.98487 0.97148 0.0
H779 H 0.2251 0.97031 0.0776 0.0
H780 H 0.24217 0.97216 0.01111 0.0
H781 H 0.27408 0.98531 0.1181 0.0
H782 H 0.30444 0.98994 0.79125 0.0
H783 H 0.29555 0.96798 0.87299 0.0
C784 C 0.98424 0.30016 0.84664 0.0
C785 C 0.9856 0.30583 0.90808 0.0
C786 C 0.99395 0.29914 0.80807 0.0
C787 C 0.016 0.30305 0.73077 0.0
H788 H 0.04078 0.26705 0.80123 0.0
C789 C 0.05188 0.26834 0.57777 0.0
C790 C 0.05272 0.24486 0.5819 0.0
C791 C 0.04677 0.28078 0.6248 0.0
C792 C 0.03401 0.27731 0.78101 0.0
H793 H 0.99802 0.31514 0.97758 0.0
H794 H 0.01502 0.31365 0.91025 0.0
H795 H 0.02498 0.28083 0.86571 0.0
H796 H 0.04927 0.21616 0.6392 0.0
H797 H 0.04093 0.2377 0.72234 0.0
H798 H 0.02468 0.29855 0.64552 0.0
C799 C 1.00647 0.31018 0.89153 0.0
C800 C 0.02498 0.28538 0.81803 0.0
C801 C 0.99674 0.31134 0.92987 0.0
C802 C 0.04939 0.2343 0.6362 0.0
C803 C 0.04435 0.24671 0.68345 0.0
C804 C 0.02506 0.29513 0.69385 0.0
C805 C 1.00525 0.30328 0.83069 0.0
C806 C 0.0157 0.29782 0.79305 0.0
C807 C 0.04233 0.26991 0.67671 0.0
C808 C 0.03402 0.28164 0.71817 0.0
H809 H 0.97582 0.29489 0.82953 0.0
H810 H 0.99269 0.29346 0.76175 0.0
H811 H 1.00903 0.31272 0.71019 0.0
H812 H 0.05412 0.2768 0.53572 0.0
H813 H 0.04549 0.29866 0.61854 0.0
C814 C 0.02497 0.70175 0.92204 0.0
C815 C 0.03646 0.70758 0.90653 0.0
C816 C 0.01586 0.70494 0.88045 0.0
C817 C 1.00911 0.74504 0.76117 0.0
H818 H 0.98116 0.70986 0.73296 0.0
C819 C 0.97176 0.78523 0.63411 0.0
C820 C 0.9685 0.77332 0.58181 0.0
C821 C 0.97758 0.77439 0.68162 0.0
C822 C 0.9889 0.71987 0.74075 0.0
H823 H 0.04755 0.72058 0.83528 0.0
H824 H 0.03178 0.72542 0.76177 0.0
H825 H 0.99725 0.69391 0.79315 0.0
H826 H 0.96804 0.74049 0.53982 0.0
H827 H 0.97818 0.72141 0.62287 0.0
H828 H 1.00097 0.77092 0.70915 0.0
C829 C 0.02976 0.71836 0.80594 0.0
C830 C 0.9981 0.71075 0.77505 0.0
C831 C 0.03883 0.71518 0.84752 0.0
C832 C 0.97017 0.74994 0.58044 0.0
C833 C 0.97606 0.73905 0.62787 0.0
C834 C 0.99993 0.75419 0.72776 0.0
C835 C 0.0181 0.71439 0.82303 0.0
C836 C 1.00836 0.7232 0.78508 0.0
C837 C 0.98047 0.75147 0.67714 0.0
C838 C 0.9897 0.74178 0.71701 0.0
H839 H 0.0229 0.69651 0.96798 0.0
H840 H 1.00698 0.70185 0.89517 0.0
H841 H 0.01678 0.75528 0.76897 0.0
H842 H 0.97124 0.80337 0.63498 0.0
H843 H 0.98075 0.78439 0.7193 0.0
C844 C 0.27398 0.56417 0.17909 0.0
C845 C 0.28524 0.55873 0.15873 0.0
C846 C 0.26442 0.5627 0.1397 0.0
C847 C 0.25558 0.55402 0.97822 0.0
H848 H 0.23073 0.51827 0.04889 0.0
C849 C 0.22024 0.51734 0.82476 0.0
C850 C 0.21923 0.49395 0.83097 0.0
C851 C 0.22532 0.53024 0.87093 0.0
C852 C 0.23753 0.52843 0.02854 0.0
H853 H 0.2954 0.54771 0.08151 0.0
H854 H 0.27884 0.54575 0.01196 0.0
H855 H 0.24619 0.53297 0.11382 0.0
H856 H 0.22238 0.46588 0.891 0.0
H857 H 0.23072 0.48825 0.97256 0.0
H858 H 0.24727 0.54847 0.89248 0.0
C859 C 0.27735 0.55162 0.05793 0.0
C860 C 0.24636 0.53705 0.06584 0.0
C861 C 0.28689 0.55298 0.09753 0.0
C862 C 0.22241 0.48398 0.88631 0.0
C863 C 0.22744 0.49685 0.93267 0.0
C864 C 0.24671 0.54552 0.94099 0.0
C865 C 0.26593 0.55553 0.07925 0.0
C866 C 0.25567 0.54945 0.04091 0.0
C867 C 0.22957 0.51993 0.92407 0.0
C868 C 0.23773 0.53211 0.96541 0.0
H869 H 0.27246 0.56802 0.22659 0.0
H870 H 0.25578 0.56606 0.15744 0.0
H871 H 0.26256 0.56363 0.9576 0.0
H872 H 0.21812 0.52534 0.7819 0.0
H873 H 0.22667 0.54802 0.86319 0.0
C874 C 0.80252 0.4981 0.83038 0.0
C875 C 0.80327 0.5216 0.83416 0.0
C876 C 0.79732 0.4857 0.87722 0.0
C877 C 0.78434 0.48912 0.03281 0.0
H878 H 0.75965 0.45309 0.9617 0.0
C879 C 0.7348 0.46466 0.09897 0.0
C880 C 0.73626 0.45893 0.16031 0.0
C881 C 0.74447 0.46602 0.06015 0.0
C882 C 0.76654 0.46293 0.98236 0.0
H883 H 0.79951 0.55038 0.89071 0.0
H884 H 0.79105 0.5289 0.97367 0.0
H885 H 0.77521 0.4677 0.89718 0.0
H886 H 0.74883 0.44973 0.22926 0.0
H887 H 0.76574 0.45184 0.1615 0.0
H888 H 0.77533 0.48527 0.11749 0.0
C889 C 0.79461 0.51986 0.93514 0.0
C890 C 0.77555 0.47112 0.94552 0.0
C891 C 0.79973 0.53224 0.88804 0.0
C892 C 0.74747 0.45361 0.18164 0.0
C893 C 0.75715 0.45512 0.14307 0.0
C894 C 0.77538 0.48078 0.06976 0.0
C895 C 0.79272 0.49661 0.92867 0.0
C896 C 0.78441 0.48481 0.96997 0.0
C897 C 0.75582 0.46216 0.08241 0.0
C898 C 0.7662 0.46806 0.0447 0.0
H899 H 0.80489 0.48956 0.78862 0.0
H900 H 0.79614 0.46778 0.87115 0.0
H901 H 0.79103 0.49955 0.05312 0.0
H902 H 0.72634 0.46985 0.08222 0.0
H903 H 0.74313 0.47179 0.01397 0.0
C904 C 0.0515 0.76656 0.07893 0.0
C905 C 0.05245 0.74314 0.08465 0.0
C906 C 0.04617 0.77932 0.12468 0.0
C907 C 0.03316 0.77718 0.28044 0.0
H908 H 1.00846 0.81251 0.20677 0.0
C909 C 0.98356 0.80216 0.34448 0.0
C910 C 0.985 0.80809 0.4057 0.0
C911 C 0.99324 0.80062 0.30578 0.0
C912 C 0.01534 0.80287 0.22814 0.0
H913 H 0.04896 0.71488 0.1435 0.0
H914 H 0.0402 0.73702 0.22447 0.0
H915 H 0.02405 0.79735 0.14337 0.0
H916 H 0.99756 0.81749 0.47448 0.0
H917 H 0.01447 0.81521 0.4069 0.0
H918 H 0.02412 0.78175 0.36474 0.0
C919 C 0.04371 0.74573 0.18526 0.0
C920 C 0.02437 0.79436 0.19192 0.0
C921 C 0.04897 0.73299 0.13929 0.0
C922 C 0.9962 0.81353 0.42692 0.0
C923 C 1.00589 0.81187 0.38846 0.0
C924 C 0.02417 0.78583 0.31674 0.0
C925 C 0.04163 0.76884 0.17692 0.0
C926 C 0.03324 0.78093 0.21734 0.0
C927 C 1.00459 0.80452 0.32805 0.0
C928 C 0.01498 0.7983 0.29079 0.0
H929 H 0.05384 0.7747 0.03658 0.0
H930 H 0.04486 0.79713 0.11719 0.0
H931 H 0.03986 0.76699 0.30152 0.0
H932 H 0.97509 0.79695 0.32779 0.0
H933 H 0.99191 0.79465 0.25979 0.0
C934 C 0.97144 0.2818 0.13555 0.0
C935 C 0.96791 0.27104 0.08186 0.0
C936 C 0.97658 0.26954 0.18278 0.0
C937 C 0.99575 0.22099 0.1937 0.0
H938 H 0.99587 0.23534 0.36557 0.0
C939 C 0.02385 0.20398 0.42987 0.0
C940 C 0.03503 0.20948 0.40852 0.0
C941 C 0.01417 0.20537 0.39131 0.0
C942 C 0.99585 0.23079 0.31787 0.0
H943 H 0.96635 0.23892 0.03674 0.0
H944 H 0.97516 0.21734 0.11948 0.0
H945 H 0.98014 0.24938 0.30104 0.0
H946 H 0.04492 0.22062 0.33047 0.0
H947 H 0.02813 0.22231 0.26224 0.0
H948 H 0.01171 0.20317 0.21006 0.0
C949 C 0.97394 0.23526 0.12532 0.0
C950 C 0.98687 0.239 0.28084 0.0
C951 C 0.96871 0.24754 0.07836 0.0
C952 C 0.03647 0.21529 0.34722 0.0
C953 C 0.02681 0.2165 0.30841 0.0
C954 C 1.00478 0.21295 0.23063 0.0
C955 C 0.97851 0.24629 0.17661 0.0
C956 C 0.98684 0.23461 0.21803 0.0
C957 C 0.01548 0.21244 0.33066 0.0
C958 C 1.00508 0.21816 0.29292 0.0
H959 H 0.97162 0.29995 0.13798 0.0
H960 H 0.98012 0.27866 0.22117 0.0
H961 H 0.99612 0.21752 0.14539 0.0
H962 H 0.0225 0.20005 0.47747 0.0
H963 H 1.00558 0.20195 0.40973 0.0
C964 C 0.22102 0.98002 0.38468 0.0
C965 C 0.21763 0.9925 0.33359 0.0
C966 C 0.22683 0.99037 0.43297 0.0
C967 C 0.23817 0.0444 0.49556 0.0
H968 H 0.26606 0.00865 0.52058 0.0
C969 C 0.27462 0.06168 0.67525 0.0
C970 C 0.28608 0.05586 0.65897 0.0
C971 C 0.26543 0.05856 0.63419 0.0
C972 C 0.25839 0.01899 0.51369 0.0
H973 H 0.21694 0.02582 0.29461 0.0
H974 H 0.22713 0.04403 0.37886 0.0
H975 H 0.25017 0.99355 0.46057 0.0
H976 H 0.29701 0.04287 0.58701 0.0
H977 H 0.28109 0.03819 0.51436 0.0
H978 H 0.24663 0.06995 0.54885 0.0
C979 C 0.22509 0.02631 0.38243 0.0
C980 C 0.24916 0.01014 0.48018 0.0
C981 C 0.21917 0.01592 0.3343 0.0
C982 C 0.28832 0.04827 0.59982 0.0
C983 C 0.27916 0.04517 0.55874 0.0
C984 C 0.24744 0.05323 0.52989 0.0
C985 C 0.22964 0.01337 0.43038 0.0
C986 C 0.23892 0.02267 0.47056 0.0
C987 C 0.26754 0.0492 0.57651 0.0
C988 C 0.25771 0.04066 0.53876 0.0
H989 H 0.22061 0.96187 0.38389 0.0
H990 H 0.23009 0.97997 0.46963 0.0
H991 H 0.23043 0.05452 0.48869 0.0
H992 H 0.27267 0.06697 0.7213 0.0
H993 H 0.25659 0.0617 0.64944 0.0
C994 C 0.73204 0.96742 0.59886 0.0
C995 C 0.73426 0.95957 0.65776 0.0
C996 C 0.74122 0.97066 0.55788 0.0
C997 C 0.77288 0.96248 0.52824 0.0
H998 H 0.77028 0.02254 0.46129 0.0
C999 C 0.80089 1.00032 0.33234 0.0
C1000 C 0.80252 0.02372 0.33233 0.0
C1001 C 0.79505 0.98978 0.38055 0.0
C1002 C 0.77126 1.00584 0.48025 0.0
H1003 H 0.74765 0.94819 0.71978 0.0
H1004 H 0.76375 0.95366 0.64802 0.0
H1005 H 0.7544 1.00733 0.52134 0.0
H1006 H 0.79979 0.05415 0.38393 0.0
H1007 H 0.79044 0.03579 0.46971 0.0
H1008 H 0.78983 0.96117 0.48626 0.0
C1009 C 0.75492 0.9569 0.6329 0.0
C1010 C 0.76203 0.99694 0.51378 0.0
C1011 C 0.74571 0.95365 0.67388 0.0
C1012 C 0.79931 0.03601 0.38411 0.0
C1013 C 0.79358 0.0255 0.43246 0.0
C1014 C 0.78214 0.97136 0.49386 0.0
C1015 C 0.75283 0.9665 0.57551 0.0
C1016 C 0.76267 0.97513 0.53796 0.0
C1017 C 0.79067 1.00256 0.42926 0.0
C1018 C 0.78143 0.99321 0.46968 0.0
H1019 H 0.72335 0.97283 0.58615 0.0
H1020 H 0.7393 0.97781 0.5137 0.0
H1021 H 0.77364 0.94565 0.54653 0.0
H1022 H 0.80299 0.99057 0.29218 0.0
H1023 H 0.79294 0.97211 0.37652 0.0
C1024 C 0.56862 0.19894 0.72553 0.0
C1025 C 0.56147 0.18362 0.75681 0.0
C1026 C 0.56843 0.20001 0.6621 0.0
C1027 C 0.56194 0.16623 0.52724 0.0
H1028 H 0.5623 0.22361 0.44373 0.0
C1029 C 0.56048 0.17225 0.26511 0.0
C1030 C 0.56752 0.18864 0.23743 0.0
C1031 C 0.55897 0.17198 0.3282 0.0
C1032 C 0.56234 0.20744 0.4663 0.0
H1033 H 0.54837 0.15764 0.74602 0.0
H1034 H 0.54813 0.15939 0.63485 0.0
H1035 H 0.56094 0.22259 0.55439 0.0
H1036 H 0.57847 0.21768 0.25429 0.0
H1037 H 0.57608 0.2169 0.36434 0.0
H1038 H 0.56363 0.15104 0.43954 0.0
C1039 C 0.55391 0.1705 0.65963 0.0
C1040 C 0.56152 0.20687 0.52971 0.0
C1041 C 0.55401 0.16956 0.72324 0.0
C1042 C 0.57298 0.20482 0.27419 0.0
C1043 C 0.57153 0.20447 0.33732 0.0
C1044 C 0.56285 0.16679 0.46384 0.0
C1045 C 0.56115 0.18569 0.62841 0.0
C1046 C 0.56139 0.18627 0.56089 0.0
C1047 C 0.56451 0.18802 0.36518 0.0
C1048 C 0.56314 0.18741 0.43255 0.0
H1049 H 0.57443 0.21007 0.75 0.0
H1050 H 0.57419 0.21173 0.63935 0.0
H1051 H 0.56202 0.1501 0.55005 0.0
H1052 H 0.55606 0.15965 0.23806 0.0
H1053 H 0.55335 0.15929 0.3479 0.0
C1054 C 0.44956 0.81016 0.26905 0.0
C1055 C 0.45479 0.82659 0.23214 0.0
C1056 C 0.45088 0.81077 0.33225 0.0
C1057 C 0.45876 0.84911 0.45903 0.0
H1058 H 0.46149 0.79345 0.54956 0.0
C1059 C 0.46733 0.84666 0.71919 0.0
C1060 C 0.46022 0.83184 0.7525 0.0
C1061 C 0.46745 0.84596 0.6555 0.0
C1062 C 0.46067 0.80914 0.52493 0.0
H1063 H 0.46568 0.85638 0.23277 0.0
H1064 H 0.46816 0.85723 0.34281 0.0
H1065 H 0.46027 0.79236 0.43893 0.0
H1066 H 0.44786 0.80438 0.74498 0.0
H1067 H 0.44811 0.80314 0.63433 0.0
H1068 H 0.45921 0.86583 0.54534 0.0
C1069 C 0.46283 0.8441 0.3231 0.0
C1070 C 0.45994 0.80852 0.46148 0.0
C1071 C 0.46146 0.84355 0.25988 0.0
C1072 C 0.45341 0.81609 0.72079 0.0
C1073 C 0.45361 0.81526 0.65731 0.0
C1074 C 0.45958 0.84972 0.52252 0.0
C1075 C 0.45754 0.82775 0.36018 0.0
C1076 C 0.45883 0.82848 0.42767 0.0
C1077 C 0.46057 0.83026 0.62387 0.0
C1078 C 0.46041 0.82972 0.55623 0.0
H1079 H 0.44435 0.79686 0.2492 0.0
H1080 H 0.44652 0.7981 0.35927 0.0
H1081 H 0.45776 0.86481 0.43471 0.0
H1082 H 0.47271 0.85894 0.74225 0.0
H1083 H 0.47298 0.8576 0.631 0.0
C1084 C 0.71166 0.42144 0.50943 0.0
C1085 C 0.70469 0.438 0.48186 0.0
C1086 C 0.71319 0.42114 0.57255 0.0
C1087 C 0.71016 0.45702 0.7102 0.0
H1088 H 0.71026 0.4 0.79554 0.0
C1089 C 0.70383 0.44993 0.96958 0.0
C1090 C 0.71087 0.43462 0.00155 0.0
C1091 C 0.70404 0.45062 0.9061 0.0
C1092 C 0.7104 0.41604 0.77228 0.0
H1093 H 0.69387 0.46722 0.49907 0.0
H1094 H 0.69631 0.46639 0.60896 0.0
H1095 H 0.70862 0.40056 0.68495 0.0
H1096 H 0.72378 0.4082 0.99185 0.0
H1097 H 0.72406 0.4093 0.88059 0.0
H1098 H 0.71165 0.47247 0.79781 0.0
C1099 C 0.70079 0.45387 0.58188 0.0
C1100 C 0.70948 0.41638 0.70884 0.0
C1101 C 0.6993 0.45424 0.51881 0.0
C1102 C 0.71823 0.42015 0.96856 0.0
C1103 C 0.71835 0.4207 0.90488 0.0
C1104 C 0.711 0.45667 0.77361 0.0
C1105 C 0.70776 0.43733 0.60964 0.0
C1106 C 0.70923 0.43689 0.67699 0.0
C1107 C 0.71123 0.43591 0.87299 0.0
C1108 C 0.71103 0.43619 0.8054 0.0
H1109 H 0.71601 0.40878 0.48226 0.0
H1110 H 0.71876 0.40835 0.59217 0.0
H1111 H 0.71026 0.47311 0.68722 0.0
H1112 H 0.69808 0.46136 0.99354 0.0
H1113 H 0.69836 0.46236 0.88287 0.0
C1114 C 0.30983 0.59269 0.51199 0.0
C1115 C 0.31675 0.57614 0.48405 0.0
C1116 C 0.30851 0.59319 0.5752 0.0
C1117 C 0.31224 0.55811 0.71395 0.0
H1118 H 0.31191 0.61571 0.79646 0.0
C1119 C 0.31851 0.56718 0.97323 0.0
C1120 C 0.31135 0.58255 0.0043 0.0
C1121 C 0.31838 0.56605 0.90978 0.0
C1122 C 0.31184 0.5995 0.77403 0.0
H1123 H 0.3277 0.54706 0.50072 0.0
H1124 H 0.32564 0.54822 0.61095 0.0
H1125 H 0.31337 0.61443 0.68591 0.0
H1126 H 0.2983 0.60861 0.99298 0.0
H1127 H 0.29815 0.60675 0.88181 0.0
H1128 H 0.31099 0.54324 0.80243 0.0
C1129 C 0.32103 0.5606 0.58404 0.0
C1130 C 0.31266 0.59875 0.71058 0.0
C1131 C 0.32229 0.56003 0.52077 0.0
C1132 C 0.30396 0.59665 0.97041 0.0
C1133 C 0.3039 0.59565 0.90677 0.0
C1134 C 0.31151 0.55888 0.77741 0.0
C1135 C 0.31414 0.57722 0.61215 0.0
C1136 C 0.31294 0.57803 0.67968 0.0
C1137 C 0.31114 0.58036 0.87577 0.0
C1138 C 0.31137 0.57958 0.80819 0.0
H1139 H 0.30536 0.60525 0.48502 0.0
H1140 H 0.30298 0.60599 0.59503 0.0
H1141 H 0.3122 0.54187 0.69177 0.0
H1142 H 0.32429 0.55602 0.99788 0.0
H1143 H 0.32414 0.55425 0.88725 0.0
C1144 C 0.57326 0.68546 0.22353 0.0
C1145 C 0.563 0.67978 0.25498 0.0
C1146 C 0.57328 0.68722 0.16023 0.0
C1147 C 0.55685 0.67014 0.02282 0.0
H1148 H 0.57618 0.71545 0.94611 0.0
C1149 C 0.56763 0.6679 0.76651 0.0
C1150 C 0.56864 0.68835 0.73505 0.0
C1151 C 0.56621 0.66762 0.82964 0.0
C1152 C 0.57061 0.70287 0.96662 0.0
H1153 H 0.54466 0.67175 0.24463 0.0
H1154 H 0.54463 0.67522 0.1339 0.0
H1155 H 0.57477 0.71412 0.05634 0.0
H1156 H 0.56866 0.7246 0.74502 0.0
H1157 H 0.56594 0.72416 0.855 0.0
H1158 H 0.55248 0.65922 0.93297 0.0
C1159 C 0.55273 0.67789 0.15817 0.0
C1160 C 0.56993 0.7019 0.03002 0.0
C1161 C 0.55273 0.67598 0.22165 0.0
C1162 C 0.56804 0.70855 0.76801 0.0
C1163 C 0.56652 0.70828 0.83114 0.0
C1164 C 0.55747 0.67119 0.95934 0.0
C1165 C 0.56302 0.68354 0.12663 0.0
C1166 C 0.56317 0.68534 0.05902 0.0
C1167 C 0.56566 0.6878 0.86287 0.0
C1168 C 0.56448 0.6874 0.93039 0.0
H1169 H 0.58134 0.68838 0.24778 0.0
H1170 H 0.58142 0.69115 0.13757 0.0
H1171 H 0.55161 0.65706 0.04347 0.0
H1172 H 0.56809 0.65204 0.74248 0.0
H1173 H 0.56578 0.65153 0.85248 0.0
C1174 C 0.45337 0.31544 0.21916 0.0
C1175 C 0.46044 0.33084 0.25057 0.0
C1176 C 0.45347 0.31462 0.15571 0.0
C1177 C 0.45935 0.34913 0.0216 0.0
H1178 H 0.45939 0.29208 0.93639 0.0
C1179 C 0.4601 0.34415 0.75907 0.0
C1180 C 0.45326 0.32742 0.73148 0.0
C1181 C 0.46175 0.34433 0.82207 0.0
C1182 C 0.45923 0.30816 0.95943 0.0
H1183 H 0.47331 0.35725 0.23997 0.0
H1184 H 0.47339 0.35595 0.1287 0.0
H1185 H 0.46103 0.29273 0.04693 0.0
H1186 H 0.44279 0.29774 0.74843 0.0
H1187 H 0.44539 0.29838 0.85832 0.0
H1188 H 0.45724 0.3646 0.93452 0.0
C1189 C 0.46775 0.34457 0.15343 0.0
C1190 C 0.46022 0.30851 0.02278 0.0
C1191 C 0.46773 0.34524 0.21708 0.0
C1192 C 0.44812 0.31085 0.76826 0.0
C1193 C 0.4497 0.31113 0.8313 0.0
C1194 C 0.45826 0.34879 0.95826 0.0
C1195 C 0.46058 0.32929 0.1221 0.0
C1196 C 0.46021 0.32899 0.05459 0.0
C1197 C 0.45654 0.32786 0.85907 0.0
C1198 C 0.4581 0.32828 0.92636 0.0
H1199 H 0.44768 0.30405 0.24356 0.0
H1200 H 0.44777 0.30282 0.13288 0.0
H1201 H 0.45916 0.36516 0.04492 0.0
H1202 H 0.46428 0.35704 0.73199 0.0
H1203 H 0.46722 0.35726 0.84165 0.0
C1204 C 0.70332 0.9486 0.47422 0.0
C1205 C 0.71035 0.9332 0.50592 0.0
C1206 C 0.70358 0.94952 0.41079 0.0
C1207 C 0.71 0.91524 0.2767 0.0
H1208 H 0.70987 0.97242 0.19217 0.0
C1209 C 0.71128 0.92079 0.01427 0.0
C1210 C 0.70423 0.93722 0.98675 0.0
C1211 C 0.71286 0.92056 0.07731 0.0
C1212 C 0.70977 0.95631 0.21503 0.0
H1213 H 0.72332 0.9069 0.4959 0.0
H1214 H 0.72369 0.90838 0.38471 0.0
H1215 H 0.71125 0.97165 0.30281 0.0
H1216 H 0.69335 0.96636 0.00388 0.0
H1217 H 0.69588 0.96567 0.11377 0.0
H1218 H 0.70823 0.89987 0.18926 0.0
C1219 C 0.71795 0.91968 0.40916 0.0
C1220 C 0.71061 0.95588 0.27843 0.0
C1221 C 0.71776 0.9189 0.47278 0.0
C1222 C 0.69884 0.95347 0.02363 0.0
C1223 C 0.70037 0.95318 0.08667 0.0
C1224 C 0.70908 0.91566 0.2133 0.0
C1225 C 0.71082 0.93495 0.37751 0.0
C1226 C 0.71063 0.93535 0.30999 0.0
C1227 C 0.7074 0.93671 0.11437 0.0
C1228 C 0.70885 0.93622 0.18167 0.0
H1229 H 0.69754 0.95992 0.49836 0.0
H1230 H 0.69791 0.96131 0.38771 0.0
H1231 H 0.70985 0.89917 0.2998 0.0
H1232 H 0.71564 0.90813 0.98712 0.0
H1233 H 0.71847 0.90784 0.09692 0.0
C1234 C 0.3224 0.06092 0.02127 0.0
C1235 C 0.31702 0.07718 0.98439 0.0
C1236 C 0.32091 0.06128 0.08434 0.0
C1237 C 0.31229 0.0988 0.21131 0.0
H1238 H 0.30995 0.04273 0.30027 0.0
C1239 C 0.30357 0.09525 0.47095 0.0
C1240 C 0.31088 0.08072 0.50392 0.0
C1241 C 0.30342 0.09463 0.4073 0.0
C1242 C 0.31065 0.05852 0.27606 0.0
H1243 H 0.30571 0.10642 0.98489 0.0
H1244 H 0.30296 0.10684 0.09481 0.0
H1245 H 0.31135 0.04208 0.18965 0.0
H1246 H 0.32356 0.05379 0.49595 0.0
H1247 H 0.32326 0.05268 0.38528 0.0
H1248 H 0.31156 0.11519 0.29799 0.0
C1249 C 0.30852 0.09404 0.07512 0.0
C1250 C 0.31149 0.05816 0.21266 0.0
C1251 C 0.31006 0.09374 0.01201 0.0
C1252 C 0.31785 0.06527 0.47198 0.0
C1253 C 0.31763 0.06452 0.40851 0.0
C1254 C 0.31137 0.09915 0.27474 0.0
C1255 C 0.31394 0.07783 0.11214 0.0
C1256 C 0.31247 0.07828 0.17947 0.0
C1257 C 0.31048 0.0793 0.37541 0.0
C1258 C 0.31068 0.079 0.30785 0.0
H1259 H 0.32783 0.04793 0.00147 0.0
H1260 H 0.32537 0.04874 0.11139 0.0
H1261 H 0.31319 0.11461 0.18741 0.0
H1262 H 0.29806 0.1073 0.49424 0.0
H1263 H 0.29775 0.10609 0.38302 0.0
C1264 C 0.05303 0.17014 0.2172 0.0
C1265 C 0.06016 0.18502 0.25011 0.0
C1266 C 0.05289 0.17068 0.15351 0.0
C1267 C 0.05968 0.207 0.02204 0.0
H1268 H 0.06304 0.151 0.93363 0.0
C1269 C 0.07162 0.20509 0.76734 0.0
C1270 C 0.06654 0.1885 0.73041 0.0
C1271 C 0.07008 0.2047 0.8304 0.0
C1272 C 0.06191 0.16678 0.95744 0.0
H1273 H 0.0725 0.21249 0.24195 0.0
H1274 H 0.0722 0.21347 0.13129 0.0
H1275 H 0.06134 0.15041 0.0442 0.0
H1276 H 0.05571 0.15862 0.73081 0.0
H1277 H 0.05287 0.15813 0.84066 0.0
H1278 H 0.06021 0.22342 0.93558 0.0
C1279 C 0.06671 0.20141 0.15458 0.0
C1280 C 0.06095 0.16642 0.02087 0.0
C1281 C 0.06694 0.20073 0.21805 0.0
C1282 C 0.05982 0.17157 0.75797 0.0
C1283 C 0.05823 0.17123 0.82106 0.0
C1284 C 0.06055 0.20736 0.95863 0.0
C1285 C 0.05976 0.18629 0.12153 0.0
C1286 C 0.05997 0.18654 0.05393 0.0
C1287 C 0.06336 0.18777 0.85815 0.0
C1288 C 0.06184 0.18728 0.9255 0.0
H1289 H 0.04768 0.15788 0.24056 0.0
H1290 H 0.04737 0.15894 0.12928 0.0
H1291 H 0.05876 0.22277 0.04618 0.0
H1292 H 0.07685 0.21838 0.74762 0.0
H1293 H 0.07431 0.21751 0.85748 0.0
C1294 C 0.95269 0.81766 0.22147 0.0
C1295 C 0.95963 0.83334 0.25266 0.0
C1296 C 0.9528 0.81671 0.158 0.0
C1297 C 0.9586 0.85091 0.0229 0.0
H1298 H 0.95914 0.79353 0.9394 0.0
C1299 C 0.96007 0.84495 0.76055 0.0
C1300 C 0.95342 0.82797 0.73283 0.0
C1301 C 0.96154 0.84539 0.82367 0.0
C1302 C 0.95884 0.80969 0.96193 0.0
H1303 H 0.97227 0.86014 0.24159 0.0
H1304 H 0.97236 0.8586 0.13035 0.0
H1305 H 0.96053 0.79465 0.04999 0.0
H1306 H 0.94311 0.79809 0.74975 0.0
H1307 H 0.9454 0.79916 0.85983 0.0
H1308 H 0.95661 0.86598 0.93522 0.0
C1309 C 0.96681 0.84711 0.15524 0.0
C1310 C 0.95968 0.81032 0.02534 0.0
C1311 C 0.96679 0.84793 0.2189 0.0
C1312 C 0.9483 0.81139 0.76965 0.0
C1313 C 0.94969 0.81192 0.83282 0.0
C1314 C 0.95766 0.85028 0.95949 0.0
C1315 C 0.95979 0.83151 0.12413 0.0
C1316 C 0.95949 0.83093 0.05657 0.0
C1317 C 0.95633 0.82894 0.86072 0.0
C1318 C 0.95769 0.82965 0.92816 0.0
H1319 H 0.94711 0.80613 0.24603 0.0
H1320 H 0.9472 0.80466 0.13538 0.0
H1321 H 0.95828 0.86703 0.04571 0.0
H1322 H 0.96423 0.85787 0.73348 0.0
H1323 H 0.96687 0.85853 0.84333 0.0
C1324 C 0.21159 0.42119 0.01088 0.0
C1325 C 0.20488 0.4381 0.98315 0.0
C1326 C 0.21297 0.42065 0.0741 0.0
C1327 C 0.20995 0.45618 0.21255 0.0
H1328 H 0.20941 0.39885 0.29627 0.0
C1329 C 0.20342 0.44849 0.47181 0.0
C1330 C 0.21028 0.4328 0.5035 0.0
C1331 C 0.20362 0.44933 0.40834 0.0
C1332 C 0.20972 0.41497 0.27349 0.0
H1333 H 0.19436 0.46774 0.00023 0.0
H1334 H 0.19653 0.46652 0.1103 0.0
H1335 H 0.20796 0.39988 0.18565 0.0
H1336 H 0.22287 0.40585 0.49323 0.0
H1337 H 0.22315 0.40721 0.38198 0.0
H1338 H 0.21145 0.47125 0.30067 0.0
C1339 C 0.20093 0.45388 0.08327 0.0
C1340 C 0.20891 0.41559 0.21001 0.0
C1341 C 0.1996 0.45449 0.02007 0.0
C1342 C 0.21744 0.41807 0.47018 0.0
C1343 C 0.21757 0.41879 0.4065 0.0
C1344 C 0.21069 0.45557 0.276 0.0
C1345 C 0.20763 0.43695 0.11119 0.0
C1346 C 0.20892 0.43622 0.17869 0.0
C1347 C 0.21064 0.43442 0.37488 0.0
C1348 C 0.21049 0.43497 0.30725 0.0
H1349 H 0.21586 0.4084 0.98376 0.0
H1350 H 0.21834 0.40756 0.0938 0.0
H1351 H 0.21024 0.47235 0.19004 0.0
H1352 H 0.19782 0.46012 0.49601 0.0
H1353 H 0.19809 0.46139 0.38537 0.0
C1354 C 0.80325 0.59533 0.4692 0.0
C1355 C 0.81076 0.58134 0.5027 0.0
C1356 C 0.80319 0.59452 0.40556 0.0
C1357 C 0.81104 0.55845 0.2753 0.0
H1358 H 0.81292 0.6144 0.1856 0.0
C1359 C 0.82257 0.56076 0.01989 0.0
C1360 C 0.81705 0.57688 0.9831 0.0
C1361 C 0.82111 0.56111 0.08302 0.0
C1362 C 0.81221 0.59861 0.20976 0.0
H1363 H 0.82387 0.55515 0.49567 0.0
H1364 H 0.8237 0.55369 0.38501 0.0
H1365 H 0.81124 0.6152 0.29611 0.0
H1366 H 0.80551 0.60578 0.98375 0.0
H1367 H 0.8028 0.60613 0.0936 0.0
H1368 H 0.81195 0.5418 0.18921 0.0
C1369 C 0.81786 0.56526 0.40783 0.0
C1370 C 0.81126 0.59909 0.27317 0.0
C1371 C 0.81801 0.56622 0.47128 0.0
C1372 C 0.80997 0.59323 0.01081 0.0
C1373 C 0.80846 0.59349 0.07391 0.0
C1374 C 0.8119 0.55795 0.21189 0.0
C1375 C 0.81052 0.57951 0.37421 0.0
C1376 C 0.8108 0.57902 0.30667 0.0
C1377 C 0.81404 0.57749 0.11091 0.0
C1378 C 0.81263 0.57803 0.1783 0.0
H1379 H 0.79753 0.60711 0.49207 0.0
H1380 H 0.79736 0.60556 0.38085 0.0
H1381 H 0.81053 0.5427 0.29984 0.0
H1382 H 0.82809 0.54794 0.0 0.0
H1383 H 0.8257 0.54872 0.11003 0.0
C1384 C 0.0599 0.67172 0.26496 0.0
C1385 C 0.06673 0.68843 0.23714 0.0
C1386 C 0.05852 0.67125 0.32813 0.0
C1387 C 0.06182 0.70656 0.46661 0.0
H1388 H 0.06223 0.64908 0.54959 0.0
C1389 C 0.06848 0.69803 0.72561 0.0
C1390 C 0.06153 0.6824 0.75696 0.0
C1391 C 0.06824 0.69911 0.66218 0.0
C1392 C 0.06195 0.66524 0.52701 0.0
H1393 H 0.07742 0.71782 0.25392 0.0
H1394 H 0.07526 0.71672 0.36406 0.0
H1395 H 0.06362 0.65027 0.439 0.0
H1396 H 0.04876 0.65582 0.74627 0.0
H1397 H 0.04844 0.6576 0.63512 0.0
H1398 H 0.06043 0.7215 0.55496 0.0
C1399 C 0.07078 0.70419 0.33709 0.0
C1400 C 0.06273 0.66595 0.46357 0.0
C1401 C 0.0721 0.70473 0.27389 0.0
C1402 C 0.05425 0.66799 0.72344 0.0
C1403 C 0.0541 0.66894 0.65983 0.0
C1404 C 0.06112 0.70585 0.53005 0.0
C1405 C 0.06399 0.68742 0.36508 0.0
C1406 C 0.06276 0.68663 0.43253 0.0
C1407 C 0.06112 0.68449 0.62853 0.0
C1408 C 0.06126 0.68519 0.56099 0.0
H1409 H 0.05556 0.65902 0.23794 0.0
H1410 H 0.05308 0.65831 0.34794 0.0
H1411 H 0.06157 0.72277 0.44427 0.0
H1412 H 0.07416 0.70943 0.75002 0.0
H1413 H 0.07384 0.71112 0.63938 0.0
C1414 C 0.96142 0.34359 0.25958 0.0
C1415 C 0.95448 0.32699 0.23207 0.0
C1416 C 0.96302 0.34386 0.32262 0.0
C1417 C 0.96015 0.30808 0.46056 0.0
H1418 H 0.96014 0.36527 0.54513 0.0
C1419 C 0.95385 0.31588 0.71989 0.0
C1420 C 0.96088 0.33128 0.75152 0.0
C1421 C 0.95407 0.31496 0.65645 0.0
C1422 C 0.96032 0.34919 0.52209 0.0
H1423 H 0.94382 0.29758 0.24928 0.0
H1424 H 0.94636 0.29835 0.35919 0.0
H1425 H 0.95843 0.36449 0.43463 0.0
H1426 H 0.9738 0.35762 0.74128 0.0
H1427 H 0.97409 0.35617 0.63002 0.0
H1428 H 0.96173 0.29282 0.54839 0.0
C1429 C 0.95076 0.31095 0.33207 0.0
C1430 C 0.95935 0.34872 0.45869 0.0
C1431 C 0.94922 0.31061 0.269 0.0
C1432 C 0.96825 0.34561 0.71823 0.0
C1433 C 0.96838 0.34485 0.65458 0.0
C1434 C 0.96103 0.30856 0.52396 0.0
C1435 C 0.95767 0.32759 0.35976 0.0
C1436 C 0.95916 0.32814 0.4271 0.0
C1437 C 0.96126 0.32955 0.62302 0.0
C1438 C 0.96103 0.32911 0.55546 0.0
H1439 H 0.96569 0.35635 0.23241 0.0
H1440 H 0.96855 0.35672 0.34215 0.0
H1441 H 0.96028 0.29195 0.43778 0.0
H1442 H 0.9481 0.30454 0.74411 0.0
H1443 H 0.94839 0.30316 0.63347 0.0
C1444 C 0.20286 0.94956 0.96865 0.0
C1445 C 0.20984 0.93398 2e-05 0.0
C1446 C 0.20298 0.95041 0.9052 0.0
C1447 C 0.20868 0.91586 0.77092 0.0
H1448 H 0.20913 0.97297 0.68608 0.0
C1449 C 0.20954 0.92098 0.50847 0.0
C1450 C 0.20281 0.9379 0.4809 0.0
C1451 C 0.21118 0.92073 0.57146 0.0
C1452 C 0.20885 0.95688 0.70901 0.0
H1453 H 0.22256 0.90728 0.98935 0.0
H1454 H 0.22266 0.90862 0.87809 0.0
H1455 H 0.21072 0.9722 0.79663 0.0
H1456 H 0.19254 0.96786 0.4979 0.0
H1457 H 0.19513 0.96711 0.60781 0.0
H1458 H 0.20651 0.90051 0.68373 0.0
C1459 C 0.21708 0.92012 0.90285 0.0
C1460 C 0.20982 0.95645 0.77237 0.0
C1461 C 0.21705 0.91942 0.9665 0.0
C1462 C 0.19778 0.95459 0.51771 0.0
C1463 C 0.19935 0.95426 0.58076 0.0
C1464 C 0.20762 0.91628 0.70758 0.0
C1465 C 0.21001 0.93559 0.87156 0.0
C1466 C 0.20966 0.93595 0.80405 0.0
C1467 C 0.20607 0.93732 0.6085 0.0
C1468 C 0.2076 0.93681 0.6758 0.0
H1469 H 0.19724 0.96108 0.99307 0.0
H1470 H 0.19735 0.96236 0.8824 0.0
H1471 H 0.20838 0.89982 0.79415 0.0
H1472 H 0.21363 0.90798 0.48137 0.0
H1473 H 0.21656 0.90764 0.59102 0.0
C1474 C 0.8034 0.09742 0.9657 0.0
C1475 C 0.81038 0.08228 0.99863 0.0
C1476 C 0.80334 0.097 0.90203 0.0
C1477 C 0.80999 0.06077 0.77032 0.0
H1478 H 0.81402 0.11683 0.68307 0.0
C1479 C 0.82215 0.06275 0.51603 0.0
C1480 C 0.81729 0.07966 0.47932 0.0
C1481 C 0.82057 0.06308 0.57905 0.0
C1482 C 0.81271 0.10104 0.70655 0.0
H1483 H 0.82253 0.05446 0.99057 0.0
H1484 H 0.82236 0.05368 0.87987 0.0
H1485 H 0.8122 0.11723 0.79358 0.0
H1486 H 0.80682 0.11003 0.48002 0.0
H1487 H 0.8039 0.1104 0.58981 0.0
H1488 H 0.81044 0.04453 0.68359 0.0
C1489 C 0.81694 0.06586 0.90315 0.0
C1490 C 0.81167 0.10129 0.76994 0.0
C1491 C 0.81709 0.06642 0.96663 0.0
C1492 C 0.81076 0.09684 0.50704 0.0
C1493 C 0.80913 0.0971 0.57008 0.0
C1494 C 0.81093 0.06052 0.70695 0.0
C1495 C 0.81014 0.08125 0.8701 0.0
C1496 C 0.81045 0.08113 0.80255 0.0
C1497 C 0.81403 0.08024 0.60696 0.0
C1498 C 0.81245 0.08063 0.67424 0.0
H1499 H 0.79811 0.1098 0.98904 0.0
H1500 H 0.79794 0.10894 0.87776 0.0
H1501 H 0.80888 0.04499 0.79415 0.0
H1502 H 0.82723 0.04928 0.49615 0.0
H1503 H 0.82465 0.05003 0.60597 0.0
C1504 C 0.53435 0.08104 0.95392 0.0
C1505 C 0.52671 0.09905 0.96482 0.0
C1506 C 0.52996 0.05935 0.94358 0.0
C1507 C 0.50289 0.02582 0.97075 0.0
H1508 H 0.51937 0.9804 0.87807 0.0
C1509 C 0.48506 0.93533 0.94632 0.0
C1510 C 0.49312 0.91861 0.96298 0.0
C1511 C 0.4888 0.95744 0.93583 0.0
C1512 C 0.51466 0.99295 0.90399 0.0
H1513 H 0.50855 0.10883 0.9697 0.0
H1514 H 0.50089 0.07155 0.94849 0.0
H1515 H 0.52654 0.01906 0.8784 0.0
H1516 H 0.51144 0.91173 0.97874 0.0
H1517 H 0.51796 0.95008 0.95925 0.0
H1518 H 0.491 0.99968 0.99605 0.0
C1519 C 0.51026 0.07371 0.95039 0.0
C1520 C 0.51881 0.01512 0.90457 0.0
C1521 C 0.51464 0.0952 0.96191 0.0
C1522 C 0.50502 0.92424 0.96599 0.0
C1523 C 0.50877 0.94619 0.95453 0.0
C1524 C 0.49867 1.00378 0.96941 0.0
C1525 C 0.51783 0.05527 0.94304 0.0
C1526 C 0.51307 0.03186 0.93865 0.0
C1527 C 0.50068 0.96318 0.94081 0.0
C1528 C 0.50458 0.98701 0.93674 0.0
H1529 H 0.5437 0.08345 0.95672 0.0
H1530 H 0.53612 0.04566 0.93882 0.0
H1531 H 0.49833 0.03792 0.99881 0.0
H1532 H 0.47582 0.9316 0.94435 0.0
H1533 H 0.48237 0.97017 0.92508 0.0
C1534 C 0.73517 0.33103 0.19565 0.0
C1535 C 0.74324 0.34763 0.21275 0.0
C1536 C 0.73887 0.30891 0.18481 0.0
C1537 C 0.76463 0.2733 0.15206 0.0
H1538 H 0.74837 0.22825 0.24679 0.0
C1539 C 0.78431 0.18504 0.19975 0.0
C1540 C 0.77668 0.16706 0.211 0.0
C1541 C 0.77992 0.20676 0.18986 0.0
C1542 C 0.7529 0.24037 0.21873 0.0
H1543 H 0.76156 0.35432 0.22901 0.0
H1544 H 0.76803 0.31596 0.20885 0.0
H1545 H 0.74108 0.26654 0.24483 0.0
H1546 H 0.75853 0.15734 0.217 0.0
H1547 H 0.75085 0.19467 0.19643 0.0
H1548 H 0.77644 0.24717 0.12558 0.0
C1549 C 0.75885 0.31995 0.20407 0.0
C1550 C 0.74871 0.26244 0.21787 0.0
C1551 C 0.75513 0.3419 0.21592 0.0
C1552 C 0.76461 0.17095 0.20889 0.0
C1553 C 0.76022 0.19247 0.19776 0.0
C1554 C 0.76875 0.2511 0.15211 0.0
C1555 C 0.75074 0.30307 0.18985 0.0
C1556 C 0.7546 0.27923 0.18527 0.0
C1557 C 0.76779 0.21089 0.19008 0.0
C1558 C 0.76304 0.23433 0.18616 0.0
H1559 H 0.72594 0.33484 0.19356 0.0
H1560 H 0.73243 0.29626 0.17371 0.0
H1561 H 0.76932 0.28588 0.1262 0.0
H1562 H 0.79367 0.18257 0.20195 0.0
H1563 H 0.78608 0.22041 0.18485 0.0
C1564 C 0.28584 0.6859 0.19684 0.0
C1565 C 0.27769 0.66923 0.21254 0.0
C1566 C 0.28217 0.70806 0.18623 0.0
C1567 C 0.25652 0.74378 0.15195 0.0
H1568 H 0.27252 0.78855 0.24876 0.0
C1569 C 0.23678 0.83198 0.1999 0.0
C1570 C 0.24439 0.84993 0.21164 0.0
C1571 C 0.24117 0.81026 0.19007 0.0
C1572 C 0.26806 0.7765 0.22016 0.0
H1573 H 0.25931 0.66247 0.22653 0.0
H1574 H 0.25293 0.7009 0.20685 0.0
H1575 H 0.27978 0.75024 0.24666 0.0
H1576 H 0.26254 0.85958 0.21862 0.0
H1577 H 0.27023 0.82223 0.1983 0.0
H1578 H 0.24481 0.77001 0.12512 0.0
C1579 C 0.26212 0.69694 0.20296 0.0
C1580 C 0.27225 0.75443 0.21921 0.0
C1581 C 0.26579 0.67495 0.21454 0.0
C1582 C 0.25647 0.846 0.21015 0.0
C1583 C 0.26086 0.82447 0.19914 0.0
C1584 C 0.25242 0.76598 0.15215 0.0
C1585 C 0.27029 0.71388 0.19014 0.0
C1586 C 0.26644 0.73773 0.18581 0.0
C1587 C 0.2533 0.80609 0.19089 0.0
C1588 C 0.25804 0.78265 0.18694 0.0
H1589 H 0.29507 0.68212 0.19568 0.0
H1590 H 0.28866 0.72075 0.17619 0.0
H1591 H 0.2519 0.73128 0.12546 0.0
H1592 H 0.22742 0.83446 0.20161 0.0
H1593 H 0.23502 0.79662 0.18461 0.0
C1594 C 0.48711 0.43294 0.44963 0.0
C1595 C 0.49474 0.4151 0.46253 0.0
C1596 C 0.49147 0.45466 0.43954 0.0
C1597 C 0.51814 0.48879 0.47101 0.0
H1598 H 0.50222 0.53338 0.373 0.0
C1599 C 0.53574 0.57942 0.44661 0.0
C1600 C 0.52748 0.59611 0.46065 0.0
C1601 C 0.53219 0.55718 0.43635 0.0
C1602 C 0.50677 0.52107 0.40043 0.0
H1603 H 0.5129 0.40565 0.47131 0.0
H1604 H 0.52054 0.44299 0.45065 0.0
H1605 H 0.49524 0.4946 0.37338 0.0
H1606 H 0.50901 0.60278 0.47198 0.0
H1607 H 0.50283 0.56421 0.45294 0.0
H1608 H 0.52968 0.51529 0.49779 0.0
C1609 C 0.51117 0.44066 0.45073 0.0
C1610 C 0.50273 0.49884 0.40102 0.0
C1611 C 0.50681 0.41914 0.46197 0.0
C1612 C 0.51559 0.5903 0.4613 0.0
C1613 C 0.51203 0.56822 0.45008 0.0
C1614 C 0.52227 0.5109 0.4697 0.0
C1615 C 0.50358 0.45894 0.44127 0.0
C1616 C 0.50826 0.4824 0.43699 0.0
C1617 C 0.5203 0.55128 0.43896 0.0
C1618 C 0.51655 0.52737 0.4351 0.0
H1619 H 0.47776 0.43038 0.4506 0.0
H1620 H 0.4853 0.46822 0.43313 0.0
H1621 H 0.52252 0.47692 0.50048 0.0
H1622 H 0.54497 0.58327 0.44653 0.0
H1623 H 0.53876 0.54449 0.42762 0.0
C1624 C 0.76564 0.67355 0.7165 0.0
C1625 C 0.77753 0.66779 0.71374 0.0
C1626 C 0.76197 0.69557 0.70534 0.0
C1627 C 0.77218 0.753 0.72154 0.0
H1628 H 0.74457 0.7688 0.62909 0.0
C1629 C 0.75647 0.84462 0.71426 0.0
C1630 C 0.7444 0.8486 0.71648 0.0
C1631 C 0.76082 0.8231 0.70278 0.0
C1632 C 0.75222 0.76471 0.65567 0.0
H1633 H 0.79489 0.68065 0.69599 0.0
H1634 H 0.78847 0.71933 0.67725 0.0
H1635 H 0.75162 0.73005 0.62866 0.0
H1636 H 0.72739 0.83321 0.70723 0.0
H1637 H 0.73492 0.79537 0.68942 0.0
H1638 H 0.77254 0.78708 0.75142 0.0
C1639 C 0.78199 0.70664 0.68754 0.0
C1640 C 0.75631 0.74249 0.65503 0.0
C1641 C 0.78565 0.68446 0.69774 0.0
C1642 C 0.73674 0.83069 0.70498 0.0
C1643 C 0.7411 0.80897 0.69468 0.0
C1644 C 0.76801 0.77509 0.72293 0.0
C1645 C 0.77012 0.7125 0.69219 0.0
C1646 C 0.76629 0.73637 0.68829 0.0
C1647 C 0.75322 0.80476 0.69476 0.0
C1648 C 0.75793 0.78131 0.69032 0.0
H1649 H 0.75917 0.66108 0.72874 0.0
H1650 H 0.75278 0.69956 0.70979 0.0
H1651 H 0.77976 0.74875 0.74854 0.0
H1652 H 0.76258 0.85817 0.72251 0.0
H1653 H 0.77019 0.82083 0.70138 0.0
C1654 C 0.26646 0.17346 0.71688 0.0
C1655 C 0.27836 0.16782 0.71356 0.0
C1656 C 0.26268 0.19533 0.70466 0.0
C1657 C 0.27272 0.25295 0.71711 0.0
H1658 H 0.24477 0.26775 0.62625 0.0
C1659 C 0.25645 0.34416 0.709 0.0
C1660 C 0.24437 0.34784 0.7122 0.0
C1661 C 0.2609 0.32273 0.69728 0.0
C1662 C 0.25253 0.26395 0.65236 0.0
H1663 H 0.29562 0.1807 0.6936 0.0
H1664 H 0.28902 0.21916 0.67305 0.0
H1665 H 0.25201 0.22913 0.62684 0.0
H1666 H 0.22743 0.33207 0.70435 0.0
H1667 H 0.23514 0.29437 0.68621 0.0
H1668 H 0.273 0.28718 0.74565 0.0
C1669 C 0.28261 0.20648 0.6846 0.0
C1670 C 0.25671 0.2418 0.65229 0.0
C1671 C 0.28638 0.18444 0.69584 0.0
C1672 C 0.23679 0.32976 0.70131 0.0
C1673 C 0.24125 0.30813 0.69083 0.0
C1674 C 0.26846 0.27497 0.71796 0.0
C1675 C 0.27074 0.21224 0.68986 0.0
C1676 C 0.26682 0.23603 0.68504 0.0
C1677 C 0.2534 0.30419 0.6901 0.0
C1678 C 0.25824 0.28083 0.68594 0.0
H1679 H 0.26007 0.16102 0.73043 0.0
H1680 H 0.2535 0.19925 0.70963 0.0
H1681 H 0.2804 0.24897 0.7437 0.0
H1682 H 0.26249 0.35786 0.71685 0.0
H1683 H 0.27028 0.32068 0.69521 0.0
C1684 C 1.00644 0.92152 0.45947 0.0
C1685 C 0.99438 0.91763 0.46279 0.0
C1686 C 0.01079 0.94309 0.44853 0.0
C1687 C 1.00209 1.00187 0.40522 0.0
H1688 H 0.03013 0.01699 0.49497 0.0
C1689 C 0.01601 0.09255 0.46806 0.0
C1690 C 0.02789 0.09824 0.46375 0.0
C1691 C 0.01224 0.07061 0.4566 0.0
C1692 C 0.02239 0.01298 0.46884 0.0
H1693 H 0.97737 0.93321 0.45614 0.0
H1694 H 0.98489 0.97111 0.43932 0.0
H1695 H 0.02283 0.97871 0.49709 0.0
H1696 H 0.04512 0.08535 0.44297 0.0
H1697 H 0.03854 0.0468 0.42374 0.0
H1698 H 1.00143 0.0367 0.37992 0.0
C1699 C 0.99106 0.95742 0.44325 0.0
C1700 C 0.01819 0.99092 0.4698 0.0
C1701 C 0.98671 0.93567 0.45298 0.0
C1702 C 0.03589 0.08158 0.44594 0.0
C1703 C 0.03214 0.05948 0.43547 0.0
C1704 C 1.00622 0.02405 0.40506 0.0
C1705 C 1.00319 0.96154 0.44221 0.0
C1706 C 1.00793 0.98499 0.43829 0.0
C1707 C 0.02028 0.05369 0.4416 0.0
C1708 C 0.01638 0.02987 0.43719 0.0
H1709 H 0.01256 0.90787 0.46645 0.0
H1710 H 0.02015 0.94528 0.44622 0.0
H1711 H 0.99429 0.99802 0.3795 0.0
H1712 H 1.00963 0.10501 0.48172 0.0
H1713 H 1.00307 0.06668 0.46224 0.0
C1714 C 0.98745 0.43324 0.95198 0.0
C1715 C 0.99506 0.41533 0.96436 0.0
C1716 C 0.99184 0.45494 0.94211 0.0
C1717 C 0.0186 0.48877 0.97352 0.0
H1718 H 1.00263 0.5338 0.87719 0.0
C1719 C 0.0363 0.57936 0.95048 0.0
C1720 C 0.0281 0.59604 0.96545 0.0
C1721 C 0.0327 0.55719 0.93986 0.0
C1722 C 1.0072 0.52136 0.90414 0.0
H1723 H 0.0132 0.40571 0.9724 0.0
H1724 H 0.0209 0.44303 0.95204 0.0
H1725 H 0.99559 0.49505 0.87674 0.0
H1726 H 1.00967 0.60277 0.97816 0.0
H1727 H 1.00339 0.56428 0.9585 0.0
H1728 H 0.03021 0.51512 0.00062 0.0
C1729 C 0.01153 0.44077 0.95239 0.0
C1730 C 1.00313 0.49915 0.90426 0.0
C1731 C 1.00713 0.41927 0.96344 0.0
C1732 C 0.0162 0.59029 0.96676 0.0
C1733 C 0.01259 0.56827 0.95518 0.0
C1734 C 0.02276 0.51086 0.97265 0.0
C1735 C 1.00396 0.45912 0.94352 0.0
C1736 C 1.00868 0.48256 0.93963 0.0
C1737 C 0.02081 0.55134 0.94304 0.0
C1738 C 0.01702 0.52748 0.93867 0.0
H1739 H 0.97809 0.43075 0.95324 0.0
H1740 H 0.98569 0.46856 0.93615 0.0
H1741 H 0.023 0.47678 0.00256 0.0
H1742 H 0.04554 0.58317 0.94986 0.0
H1743 H 0.03923 0.5445 0.93037 0.0
C1744 C 0.6014 0.14258 0.01519 0.0
C1745 C 0.59087 0.14196 0.98228 0.0
C1746 C 0.61021 0.12658 0.00449 0.0
C1747 C 0.61521 0.07055 0.93036 0.0
H1748 H 0.64767 0.08882 0.92819 0.0
C1749 C 0.65064 0.02274 0.79767 0.0
C1750 C 0.66156 0.01902 0.8249 0.0
C1751 C 0.64219 0.036 0.82624 0.0
C1752 C 0.63866 0.08337 0.92951 0.0
H1753 H 0.58149 0.12388 0.91185 0.0
H1754 H 0.59674 0.0967 0.89246 0.0
H1755 H 0.63265 0.11562 0.95978 0.0
H1756 H 0.67219 0.02637 0.90382 0.0
H1757 H 0.65739 0.05011 0.95369 0.0
H1758 H 0.62119 0.03864 0.89753 0.0
C1759 C 0.59818 0.10908 0.92775 0.0
C1760 C 0.63002 0.09873 0.9477 0.0
C1761 C 0.5894 0.12489 0.93864 0.0
C1762 C 0.66379 0.02869 0.88211 0.0
C1763 C 0.65538 0.04243 0.91032 0.0
C1764 C 0.62381 0.05534 0.91158 0.0
C1765 C 0.60873 0.10959 0.96046 0.0
C1766 C 0.61813 0.0927 0.94711 0.0
C1767 C 0.64449 0.04631 0.88244 0.0
C1768 C 0.63561 0.06167 0.90977 0.0
H1769 H 0.60286 0.15545 0.04917 0.0
H1770 H 0.61814 0.12747 0.03107 0.0
H1771 H 0.60623 0.06495 0.93089 0.0
H1772 H 0.64866 0.01559 0.75355 0.0
H1773 H 0.63397 0.03881 0.8032 0.0
C1774 C 0.43156 0.89093 0.95899 0.0
C1775 C 0.42948 0.86873 0.97838 0.0
C1776 C 0.42228 0.90577 0.94829 0.0
C1777 C 0.3916 0.90646 0.90308 0.0
H1778 H 0.39163 0.96807 0.96034 0.0
C1779 C 0.35293 0.96465 0.84694 0.0
C1780 C 0.3552 0.98738 0.83492 0.0
C1781 C 0.36151 0.95083 0.87254 0.0
C1782 C 0.3915 0.95103 0.94317 0.0
H1783 H 0.41593 0.84491 0.00225 0.0
H1784 H 0.39972 0.8707 0.98221 0.0
H1785 H 0.40756 0.94286 0.98858 0.0
H1786 H 0.36817 0.01363 0.84078 0.0
H1787 H 0.38337 0.98944 0.88336 0.0
H1788 H 0.37597 0.91456 0.85524 0.0
C1789 C 0.40857 0.87661 0.97574 0.0
C1790 C 0.40064 0.93653 0.95975 0.0
C1791 C 0.41787 0.86187 0.98752 0.0
C1792 C 0.36613 0.99624 0.85066 0.0
C1793 C 0.37485 0.98227 0.87511 0.0
C1794 C 0.38259 0.921 0.88564 0.0
C1795 C 0.41066 0.89871 0.95565 0.0
C1796 C 0.40079 0.91405 0.93993 0.0
C1797 C 0.37276 0.95916 0.88515 0.0
C1798 C 0.38235 0.94356 0.90542 0.0
H1799 H 0.44038 0.89685 0.95164 0.0
H1800 H 0.42419 0.9226 0.93246 0.0
H1801 H 0.39155 0.88936 0.88616 0.0
H1802 H 0.34457 0.9574 0.83509 0.0
H1803 H 0.35933 0.93343 0.88119 0.0
C1804 C 0.68134 0.37997 0.17359 0.0
C1805 C 0.68005 0.39601 0.2202 0.0
C1806 C 0.67232 0.36507 0.15944 0.0
C1807 C 0.64583 0.33735 0.21663 0.0
H1808 H 0.63889 0.33084 0.04508 0.0
C1809 C 0.60766 0.28131 0.12141 0.0
C1810 C 0.60963 0.27085 0.06495 0.0
C1811 C 0.61595 0.29633 0.14568 0.0
C1812 C 0.64079 0.33209 0.09318 0.0
H1813 H 0.66821 0.40838 0.28953 0.0
H1814 H 0.65242 0.38194 0.26505 0.0
H1815 H 0.65369 0.35741 0.07744 0.0
H1816 H 0.62213 0.2668 0.99187 0.0
H1817 H 0.63661 0.29191 0.03469 0.0
H1818 H 0.63304 0.31156 0.23208 0.0
C1819 C 0.66049 0.38112 0.23945 0.0
C1820 C 0.64926 0.3475 0.11175 0.0
C1821 C 0.66952 0.39632 0.25326 0.0
C1822 C 0.62028 0.27479 0.0351 0.0
C1823 C 0.62855 0.28943 0.05949 0.0
C1824 C 0.63737 0.32167 0.19792 0.0
C1825 C 0.66174 0.36553 0.19169 0.0
C1826 C 0.65205 0.35013 0.17354 0.0
C1827 C 0.62639 0.30105 0.11411 0.0
C1828 C 0.63488 0.31853 0.13571 0.0
H1829 H 0.68929 0.37909 0.14704 0.0
H1830 H 0.67365 0.35311 0.12295 0.0
H1831 H 0.64779 0.33895 0.26461 0.0
H1832 H 0.59949 0.27878 0.14523 0.0
H1833 H 0.61394 0.30492 0.18779 0.0
C1834 C 0.4053 0.74662 0.09828 0.0
C1835 C 0.41626 0.73737 0.08455 0.0
C1836 C 0.39642 0.73313 0.12302 0.0
C1837 C 0.38835 0.67216 0.13828 0.0
H1838 H 0.36308 0.69563 0.23676 0.0
C1839 C 0.35275 0.61458 0.24266 0.0
C1840 C 0.34116 0.62125 0.23179 0.0
C1841 C 0.36206 0.62922 0.23046 0.0
C1842 C 0.37008 0.68885 0.20918 0.0
H1843 H 0.42673 0.7072 0.08857 0.0
H1844 H 0.41167 0.68411 0.13517 0.0
H1845 H 0.37919 0.72027 0.20759 0.0
H1846 H 0.33031 0.64896 0.20163 0.0
H1847 H 0.34653 0.67459 0.18175 0.0
H1848 H 0.3793 0.64065 0.14101 0.0
C1849 C 0.40961 0.70142 0.12472 0.0
C1850 C 0.37932 0.70302 0.19207 0.0
C1851 C 0.41836 0.71475 0.09884 0.0
C1852 C 0.33911 0.64321 0.2104 0.0
C1853 C 0.34841 0.65796 0.19926 0.0
C1854 C 0.37923 0.65796 0.15626 0.0
C1855 C 0.39834 0.71012 0.13534 0.0
C1856 C 0.3886 0.69495 0.15599 0.0
C1857 C 0.36002 0.65104 0.20816 0.0
C1858 C 0.36994 0.66612 0.19158 0.0
H1859 H 0.4034 0.76393 0.08666 0.0
H1860 H 0.3879 0.74057 0.12972 0.0
H1861 H 0.39506 0.66523 0.10915 0.0
H1862 H 0.35467 0.5978 0.2589 0.0
H1863 H 0.3709 0.62341 0.2382 0.0
C1864 C 0.65461 0.5175 0.34915 0.0
C1865 C 0.66563 0.52657 0.33623 0.0
C1866 C 0.64577 0.53106 0.37414 0.0
C1867 C 0.63799 0.59208 0.39124 0.0
H1868 H 0.61246 0.56869 0.4879 0.0
C1869 C 0.60243 0.64995 0.49489 0.0
C1870 C 0.59082 0.64346 0.48353 0.0
C1871 C 0.6117 0.63519 0.48293 0.0
C1872 C 0.61953 0.57545 0.46083 0.0
H1873 H 0.67628 0.55646 0.34184 0.0
H1874 H 0.66127 0.57965 0.38888 0.0
H1875 H 0.62851 0.54387 0.45872 0.0
H1876 H 0.57992 0.61593 0.45273 0.0
H1877 H 0.59609 0.59011 0.43319 0.0
H1878 H 0.62907 0.62373 0.3944 0.0
C1879 C 0.65914 0.56243 0.37768 0.0
C1880 C 0.62874 0.56118 0.44372 0.0
C1881 C 0.66785 0.54904 0.35157 0.0
C1882 C 0.58874 0.62155 0.46191 0.0
C1883 C 0.598 0.60668 0.45095 0.0
C1884 C 0.62891 0.60637 0.40919 0.0
C1885 C 0.64781 0.55394 0.3875 0.0
C1886 C 0.63811 0.56922 0.40827 0.0
C1887 C 0.60962 0.61343 0.46031 0.0
C1888 C 0.61952 0.59824 0.44384 0.0
H1889 H 0.65262 0.50032 0.33665 0.0
H1890 H 0.63719 0.52379 0.3802 0.0
H1891 H 0.64478 0.59899 0.36261 0.0
H1892 H 0.60438 0.66668 0.51133 0.0
H1893 H 0.62054 0.64086 0.49105 0.0
C1894 C 0.35714 0.48411 0.37003 0.0
C1895 C 0.35876 0.49396 0.3125 0.0
C1896 C 0.36572 0.4698 0.39467 0.0
C1897 C 0.39096 0.4348 0.34282 0.0
H1898 H 0.39816 0.42953 0.51444 0.0
C1899 C 0.43182 0.38818 0.425 0.0
C1900 C 0.4305 0.37218 0.47168 0.0
C1901 C 0.42281 0.4031 0.41064 0.0
C1902 C 0.39616 0.43072 0.46641 0.0
H1903 H 0.37088 0.49771 0.23769 0.0
H1904 H 0.3859 0.47391 0.28119 0.0
H1905 H 0.3831 0.45611 0.48075 0.0
H1906 H 0.41864 0.36004 0.5412 0.0
H1907 H 0.40289 0.38651 0.51642 0.0
H1908 H 0.40413 0.40987 0.32822 0.0
C1909 C 0.3779 0.47627 0.30661 0.0
C1910 C 0.38752 0.44592 0.44703 0.0
C1911 C 0.36932 0.49018 0.28181 0.0
C1912 C 0.41998 0.37206 0.50489 0.0
C1913 C 0.41097 0.38728 0.49088 0.0
C1914 C 0.39963 0.4199 0.36205 0.0
C1915 C 0.37611 0.46523 0.36245 0.0
C1916 C 0.38491 0.44843 0.38473 0.0
C1917 C 0.41222 0.4027 0.4428 0.0
C1918 C 0.40246 0.41783 0.42392 0.0
H1919 H 0.34904 0.48655 0.3945 0.0
H1920 H 0.36398 0.46162 0.4377 0.0
H1921 H 0.38899 0.43555 0.29472 0.0
H1922 H 0.43976 0.38892 0.39835 0.0
H1923 H 0.42413 0.41495 0.37389 0.0
C1924 C 0.68146 0.87644 0.67994 0.0
C1925 C 0.68016 0.89238 0.72681 0.0
C1926 C 0.67239 0.86175 0.66504 0.0
C1927 C 0.6456 0.83441 0.71923 0.0
H1928 H 0.63862 0.83025 0.54718 0.0
C1929 C 0.60682 0.7811 0.61995 0.0
C1930 C 0.60859 0.77135 0.56238 0.0
C1931 C 0.6153 0.79548 0.64522 0.0
C1932 C 0.64053 0.83083 0.59536 0.0
H1933 H 0.66827 0.90466 0.79607 0.0
H1934 H 0.65242 0.87855 0.77034 0.0
H1935 H 0.65373 0.85575 0.58188 0.0
H1936 H 0.62088 0.76789 0.4882 0.0
H1937 H 0.6357 0.79184 0.53272 0.0
H1938 H 0.63253 0.80899 0.73242 0.0
C1939 C 0.66052 0.87767 0.74509 0.0
C1940 C 0.64918 0.84563 0.61528 0.0
C1941 C 0.66959 0.89268 0.75965 0.0
C1942 C 0.61919 0.77535 0.53228 0.0
C1943 C 0.62766 0.78934 0.55769 0.0
C1944 C 0.63697 0.81931 0.69914 0.0
C1945 C 0.66175 0.86232 0.69681 0.0
C1946 C 0.65196 0.84742 0.67728 0.0
C1947 C 0.62573 0.80024 0.61361 0.0
C1948 C 0.63445 0.81703 0.63668 0.0
H1949 H 0.68942 0.87557 0.65354 0.0
H1950 H 0.67369 0.84995 0.62815 0.0
H1951 H 0.64755 0.8354 0.76733 0.0
H1952 H 0.59869 0.7785 0.64402 0.0
H1953 H 0.61345 0.80354 0.68829 0.0
C1954 C 0.40105 0.24011 0.53314 0.0
C1955 C 0.41176 0.24414 0.56206 0.0
C1956 C 0.39287 0.22545 0.55834 0.0
C1957 C 0.38441 0.19346 0.6976 0.0
H1958 H 0.36802 0.15725 0.57852 0.0
C1959 C 0.35226 0.11894 0.75509 0.0
C1960 C 0.34169 0.11934 0.72242 0.0
C1961 C 0.36131 0.13405 0.74088 0.0
C1962 C 0.37247 0.16728 0.61244 0.0
H1963 H 0.42215 0.23638 0.64158 0.0
H1964 H 0.40786 0.21022 0.68559 0.0
H1965 H 0.38275 0.18379 0.54502 0.0
H1966 H 0.33241 0.13635 0.6496 0.0
H1967 H 0.34808 0.16215 0.62485 0.0
H1968 H 0.37408 0.17636 0.76505 0.0
C1969 C 0.40572 0.21875 0.64355 0.0
C1970 C 0.3809 0.18266 0.59322 0.0
C1971 C 0.41392 0.23377 0.61846 0.0
C1972 C 0.34038 0.13539 0.67586 0.0
C1973 C 0.34942 0.15019 0.66133 0.0
C1974 C 0.37599 0.1778 0.71697 0.0
C1975 C 0.3952 0.21392 0.61286 0.0
C1976 C 0.38682 0.19641 0.63522 0.0
C1977 C 0.36004 0.14962 0.69312 0.0
C1978 C 0.36975 0.16488 0.67438 0.0
H1979 H 0.39906 0.24803 0.49001 0.0
H1980 H 0.38474 0.22287 0.53423 0.0
H1981 H 0.38876 0.20371 0.73134 0.0
H1982 H 0.35358 0.10688 0.79132 0.0
H1983 H 0.36941 0.13316 0.76614 0.0
C1984 C 0.16332 0.03148 0.36657 0.0
C1985 C 0.16115 0.02089 0.3105 0.0
C1986 C 0.15512 0.04658 0.39138 0.0
C1987 C 0.13021 0.08239 0.34044 0.0
H1988 H 0.12352 0.08944 0.5122 0.0
C1989 C 0.08979 0.13032 0.42248 0.0
C1990 C 0.09114 0.14647 0.46875 0.0
C1991 C 0.0988 0.1154 0.40812 0.0
C1992 C 0.12539 0.08779 0.46413 0.0
H1993 H 0.1484 0.01667 0.23878 0.0
H1994 H 0.13408 0.04195 0.28253 0.0
H1995 H 0.13819 0.06194 0.47903 0.0
H1996 H 0.10308 0.15898 0.53733 0.0
H1997 H 0.11885 0.1325 0.51245 0.0
H1998 H 0.1173 0.10775 0.32523 0.0
C1999 C 0.14222 0.03949 0.30658 0.0
C2000 C 0.13381 0.07204 0.44506 0.0
C2001 C 0.15041 0.02476 0.28166 0.0
C2002 C 0.10173 0.14685 0.50131 0.0
C2003 C 0.11075 0.13162 0.48728 0.0
C2004 C 0.12178 0.09785 0.35936 0.0
C2005 C 0.14457 0.05124 0.36074 0.0
C2006 C 0.13617 0.06882 0.38273 0.0
C2007 C 0.10943 0.11594 0.43981 0.0
C2008 C 0.11911 0.10054 0.42129 0.0
H2009 H 0.17157 0.029 0.38962 0.0
H2010 H 0.15726 0.05528 0.43314 0.0
H2011 H 0.13201 0.08105 0.29224 0.0
H2012 H 0.0818 0.12937 0.39632 0.0
H2013 H 0.09742 0.10336 0.37187 0.0
C2014 C 0.91823 0.86644 0.49209 0.0
C2015 C 0.92985 0.87276 0.48065 0.0
C2016 C 0.90901 0.88133 0.48015 0.0
C2017 C 0.90143 0.94113 0.45852 0.0
H2018 H 0.8762 0.91815 0.35935 0.0
C2019 C 0.86691 0.99981 0.34587 0.0
C2020 C 0.85585 0.99101 0.33254 0.0
C2021 C 0.87561 0.98605 0.37124 0.0
C2022 C 0.88298 0.9249 0.38825 0.0
H2023 H 0.94087 0.90011 0.44977 0.0
H2024 H 0.92481 0.92617 0.43028 0.0
H2025 H 0.89176 0.89311 0.39122 0.0
H2026 H 0.84499 0.96141 0.33759 0.0
H2027 H 0.85976 0.93783 0.38527 0.0
H2028 H 0.89259 0.97285 0.45662 0.0
C2029 C 0.92283 0.90963 0.44805 0.0
C2030 C 0.89198 0.91044 0.40623 0.0
C2031 C 0.93203 0.89463 0.45896 0.0
C2032 C 0.85345 0.9686 0.34773 0.0
C2033 C 0.86202 0.955 0.3742 0.0
C2034 C 0.89231 0.95556 0.44139 0.0
C2035 C 0.9112 0.90304 0.45753 0.0
C2036 C 0.90137 0.91838 0.44117 0.0
C2037 C 0.87339 0.96322 0.3845 0.0
C2038 C 0.88295 0.94773 0.40555 0.0
H2039 H 0.91621 0.84975 0.5086 0.0
H2040 H 0.90015 0.8758 0.48832 0.0
H2041 H 0.9085 0.94773 0.48585 0.0
H2042 H 0.86904 0.01694 0.33345 0.0
H2043 H 0.88422 0.9931 0.37762 0.0
C2044 C 0.11615 0.26902 0.59868 0.0
C2045 C 0.10518 0.27792 0.58369 0.0
C2046 C 0.12487 0.28288 0.62349 0.0
C2047 C 0.13255 0.34411 0.63627 0.0
H2048 H 0.15768 0.32178 0.73736 0.0
C2049 C 0.16794 0.40285 0.73855 0.0
C2050 C 0.17955 0.39599 0.72909 0.0
C2051 C 0.15864 0.38816 0.7266 0.0
C2052 C 0.15072 0.32825 0.70905 0.0
H2053 H 0.0945 0.30785 0.58547 0.0
H2054 H 0.10928 0.33161 0.63217 0.0
H2055 H 0.14174 0.29669 0.70876 0.0
H2056 H 0.19043 0.36792 0.70156 0.0
H2057 H 0.17423 0.34227 0.68204 0.0
H2058 H 0.14147 0.37576 0.63762 0.0
C2059 C 0.11147 0.31427 0.62273 0.0
C2060 C 0.14158 0.31381 0.69226 0.0
C2061 C 0.10289 0.30056 0.59681 0.0
C2062 C 0.18161 0.37384 0.70918 0.0
C2063 C 0.17233 0.35905 0.69829 0.0
C2064 C 0.14157 0.35858 0.65389 0.0
C2065 C 0.12276 0.30592 0.6346 0.0
C2066 C 0.13235 0.32145 0.65517 0.0
C2067 C 0.16071 0.36611 0.70598 0.0
C2068 C 0.15082 0.35083 0.69008 0.0
H2069 H 0.11821 0.2517 0.58792 0.0
H2070 H 0.13342 0.27569 0.63116 0.0
H2071 H 0.12587 0.3507 0.6064 0.0
H2072 H 0.16601 0.41977 0.75368 0.0
H2073 H 0.14979 0.39407 0.73336 0.0
C2074 C 0.85116 0.62185 0.75621 0.0
C2075 C 0.84056 0.62221 0.72377 0.0
C2076 C 0.86016 0.63708 0.74211 0.0
C2077 C 0.87118 0.67045 0.61367 0.0
H2078 H 0.88804 0.70595 0.7325 0.0
C2079 C 0.90097 0.74156 0.53392 0.0
C2080 C 0.91167 0.74517 0.56342 0.0
C2081 C 0.89253 0.72742 0.55901 0.0
C2082 C 0.88353 0.69597 0.69873 0.0
H2083 H 0.83115 0.63941 0.65174 0.0
H2084 H 0.84675 0.66545 0.62717 0.0
H2085 H 0.87313 0.67911 0.76634 0.0
H2086 H 0.92176 0.73718 0.64373 0.0
H2087 H 0.90705 0.71186 0.68745 0.0
H2088 H 0.88157 0.68661 0.54611 0.0
C2089 C 0.84815 0.65339 0.66335 0.0
C2090 C 0.87497 0.6806 0.7182 0.0
C2091 C 0.83916 0.63846 0.67778 0.0
C2092 C 0.91355 0.7349 0.62019 0.0
C2093 C 0.90511 0.72036 0.64512 0.0
C2094 C 0.87976 0.68552 0.59435 0.0
C2095 C 0.85882 0.65277 0.69471 0.0
C2096 C 0.86854 0.66798 0.67569 0.0
C2097 C 0.89458 0.71595 0.61396 0.0
C2098 C 0.88592 0.69891 0.63631 0.0
H2099 H 0.85257 0.60963 0.79196 0.0
H2100 H 0.8683 0.63614 0.76704 0.0
H2101 H 0.86659 0.66064 0.57979 0.0
H2102 H 0.89919 0.74942 0.49044 0.0
H2103 H 0.88442 0.72519 0.53447 0.0
C2104 C 0.0894 0.62157 0.96353 0.0
C2105 C 0.09143 0.6435 0.98514 0.0
C2106 C 0.0987 0.60681 0.95237 0.0
C2107 C 0.12949 0.60681 0.9094 0.0
H2108 H 0.12947 0.54446 0.96038 0.0
C2109 C 0.16854 0.54994 0.85079 0.0
C2110 C 0.16641 0.52736 0.83632 0.0
C2111 C 0.15983 0.56328 0.87701 0.0
C2112 C 0.12959 0.56172 0.94496 0.0
H2113 H 0.10493 0.66688 0.01267 0.0
H2114 H 0.12117 0.64125 0.99194 0.0
H2115 H 0.11338 0.56911 0.98991 0.0
H2116 H 0.15354 0.50086 0.83844 0.0
H2117 H 0.13809 0.52423 0.88207 0.0
H2118 H 0.14528 0.59953 0.862 0.0
C2119 C 0.11234 0.63548 0.98405 0.0
C2120 C 0.12036 0.5759 0.96228 0.0
C2121 C 0.10302 0.65013 0.99626 0.0
C2122 C 0.15546 0.51814 0.8502 0.0
C2123 C 0.14661 0.53164 0.87527 0.0
C2124 C 0.13859 0.59261 0.8912 0.0
C2125 C 0.11029 0.6137 0.96149 0.0
C2126 C 0.12022 0.59863 0.94479 0.0
C2127 C 0.14856 0.55462 0.88779 0.0
C2128 C 0.13885 0.5698 0.90876 0.0
H2129 H 0.08059 0.61585 0.95456 0.0
H2130 H 0.09682 0.59021 0.93466 0.0
H2131 H 0.12955 0.62413 0.89425 0.0
H2132 H 0.17692 0.55746 0.84041 0.0
H2133 H 0.16191 0.58057 0.88759 0.0
C2134 C 0.87024 0.49151 0.78412 0.0
C2135 C 0.85953 0.49505 0.81369 0.0
C2136 C 0.8787 0.47738 0.80911 0.0
C2137 C 0.88775 0.4459 0.94864 0.0
H2138 H 0.90473 0.41066 0.82947 0.0
C2139 C 0.92017 0.37182 0.00572 0.0
C2140 C 0.93077 0.37218 0.97316 0.0
C2141 C 0.91117 0.38706 0.99173 0.0
C2142 C 0.90013 0.42045 0.86342 0.0
H2143 H 0.84945 0.48696 0.89399 0.0
H2144 H 0.8642 0.46168 0.93754 0.0
H2145 H 0.88972 0.43661 0.79597 0.0
H2146 H 0.94017 0.38937 0.90106 0.0
H2147 H 0.92456 0.41543 0.87667 0.0
H2148 H 0.89817 0.42904 0.01612 0.0
C2149 C 0.86613 0.47021 0.89524 0.0
C2150 C 0.89152 0.4355 0.8442 0.0
C2151 C 0.85766 0.48473 0.87041 0.0
C2152 C 0.93217 0.38842 0.92718 0.0
C2153 C 0.92317 0.40337 0.91286 0.0
C2154 C 0.89633 0.43055 0.968 0.0
C2155 C 0.87666 0.46588 0.86401 0.0
C2156 C 0.88535 0.44886 0.88625 0.0
C2157 C 0.9125 0.40275 0.94432 0.0
C2158 C 0.90277 0.41796 0.92541 0.0
H2159 H 0.872 0.49939 0.74066 0.0
H2160 H 0.88681 0.47521 0.78453 0.0
H2161 H 0.88322 0.45585 0.98247 0.0
H2162 H 0.91878 0.3596 0.04148 0.0
H2163 H 0.90304 0.38612 0.01673 0.0
C2164 C 0.16984 0.89254 0.2592 0.0
C2165 C 0.18022 0.89231 0.22494 0.0
C2166 C 0.16104 0.87656 0.24862 0.0
C2167 C 0.1558 0.82122 0.17114 0.0
H2168 H 0.1233 0.83923 0.17609 0.0
C2169 C 0.11957 0.77445 0.04182 0.0
C2170 C 0.10886 0.77038 0.07099 0.0
C2171 C 0.12819 0.78748 0.06961 0.0
C2172 C 0.13233 0.83385 0.17539 0.0
H2173 H 0.18935 0.87497 0.15221 0.0
H2174 H 0.17408 0.84782 0.13293 0.0
H2175 H 0.13844 0.86584 0.20687 0.0
H2176 H 0.09881 0.77684 0.15257 0.0
H2177 H 0.1139 0.8002 0.20108 0.0
H2178 H 0.14969 0.78961 0.13705 0.0
C2179 C 0.17277 0.85986 0.16921 0.0
C2180 C 0.14104 0.8491 0.19313 0.0
C2181 C 0.18155 0.87565 0.18004 0.0
C2182 C 0.10703 0.77945 0.12931 0.0
C2183 C 0.11561 0.79296 0.15677 0.0
C2184 C 0.14712 0.80614 0.15277 0.0
C2185 C 0.16236 0.85999 0.20329 0.0
C2186 C 0.15294 0.84317 0.19006 0.0
C2187 C 0.12627 0.79721 0.12698 0.0
C2188 C 0.1353 0.81238 0.15359 0.0
H2189 H 0.1685 0.90508 0.29423 0.0
H2190 H 0.15324 0.87713 0.27632 0.0
H2191 H 0.16479 0.81569 0.1697 0.0
H2192 H 0.12123 0.76775 0.99682 0.0
H2193 H 0.13623 0.79058 0.04514 0.0
C2194 C 0.83952 0.13915 0.17709 0.0
C2195 C 0.84094 0.12211 0.22085 0.0
C2196 C 0.84834 0.1549 0.16634 0.0
C2197 C 0.88015 0.16526 0.18734 0.0
H2198 H 0.8713 0.22554 0.13883 0.0
C2199 C 0.91398 0.23544 0.12479 0.0
C2200 C 0.91177 0.24546 0.068 0.0
C2201 C 0.90553 0.22162 0.15238 0.0
C2202 C 0.87393 0.20878 0.1524 0.0
H2203 H 0.85287 0.10853 0.2879 0.0
H2204 H 0.86821 0.13635 0.26995 0.0
H2205 H 0.85633 0.19904 0.17077 0.0
H2206 H 0.89888 0.24945 0.9968 0.0
H2207 H 0.88415 0.22607 0.04534 0.0
H2208 H 0.89781 0.17529 0.16873 0.0
C2209 C 0.8603 0.13729 0.24321 0.0
C2210 C 0.86533 0.19348 0.17037 0.0
C2211 C 0.85146 0.12137 0.25378 0.0
C2212 C 0.90084 0.24202 0.04062 0.0
C2213 C 0.89237 0.22867 0.06856 0.0
C2214 C 0.88879 0.18072 0.16992 0.0
C2215 C 0.85886 0.15433 0.1993 0.0
C2216 C 0.86825 0.17127 0.18654 0.0
C2217 C 0.89464 0.21799 0.12428 0.0
C2218 C 0.88575 0.2025 0.15079 0.0
H2219 H 0.83162 0.14025 0.15029 0.0
H2220 H 0.84694 0.16731 0.13111 0.0
H2221 H 0.88278 0.14833 0.19901 0.0
H2222 H 0.92238 0.23754 0.14662 0.0
H2223 H 0.90753 0.21366 0.19541 0.0
loop_
_geom_bond_atom_site_label_1
_geom_bond_atom_site_label_2
_geom_bond_distance
_geom_bond_site_symmetry_2
_ccdc_geom_bond_type
Zn0 N4 2.020 . S
Zn0 O8 2.019 . S
Zn0 N10 2.119 . S
Zn0 O18 1.975 . S
C1 N2 1.334 . S
C1 N5 1.336 . S
N2 C1 1.334 . S
N2 C3 1.334 1_554 S
C3 N2 1.334 1_556 S
C3 N4 1.336 . S
N4 Zn0 2.020 . S
N4 C3 1.336 . S
N4 N5 1.354 1_556 S
N5 C1 1.336 . S
N5 N4 1.354 1_554 S
N5 Zn9 2.020 . S
C6 O7 1.244 . S
C6 O30 1.257 . S
O7 C6 1.244 . S
O8 Zn0 2.019 . S
O8 C28 1.257 . S
Zn9 N5 2.020 . S
Zn9 O16 1.975 . S
Zn9 N25 2.119 . S
Zn9 O30 2.019 . S
N10 Zn0 2.119 . S
N10 C12 1.334 1_556 S
N10 C13 1.328 . S
C11 C12 1.391 . S
C11 N14 1.329 1_554 S
C11 H32 0.930 . S
C12 N10 1.334 1_554 S
C12 C11 1.391 . S
C12 H19 0.930 . S
C13 N10 1.328 . S
C13 C15 1.392 . S
C13 H20 0.930 . S
N14 C11 1.329 1_556 S
N14 C15 1.331 . S
C15 C13 1.392 . S
C15 N14 1.331 . S
O16 Zn9 1.975 . S
O16 C17 1.252 1_554 S
C17 O16 1.252 1_556 S
C17 O18 1.252 . S
O18 Zn0 1.975 . S
O18 C17 1.252 . S
H19 C12 0.930 . S
H20 C13 0.930 . S
C21 C22 1.392 . S
C21 N25 1.328 . S
C21 H27 0.930 . S
C22 C21 1.392 . S
C22 N26 1.331 . S
C23 C24 1.391 . S
C23 N26 1.329 1_556 S
C23 H33 0.930 . S
C24 C23 1.391 . S
C24 N25 1.334 1_556 S
C24 H31 0.930 . S
N25 Zn9 2.119 . S
N25 C21 1.328 . S
N25 C24 1.334 1_554 S
N26 C22 1.331 . S
N26 C23 1.329 1_554 S
H27 C21 0.930 . S
C28 O8 1.257 . S
C28 O29 1.244 . S
O29 C28 1.244 . S
O30 C6 1.257 . S
O30 Zn9 2.019 . S
H31 C24 0.930 . S
H32 C11 0.930 . S
H33 C23 0.930 . S
Zn34 N38 2.020 . S
Zn34 O42 2.019 . S
Zn34 N44 2.119 . S
Zn34 O52 1.975 . S
C35 N36 1.334 . S
C35 N39 1.336 . S
N36 C35 1.334 . S
N36 C37 1.334 1_554 S
C37 N36 1.334 1_556 S
C37 N38 1.336 . S
N38 Zn34 2.020 . S
N38 C37 1.336 . S
N38 N39 1.354 1_556 S
N39 C35 1.336 . S
N39 N38 1.354 1_554 S
N39 Zn43 2.020 . S
C40 O41 1.244 . S
C40 O64 1.257 . S
O41 C40 1.244 . S
O42 Zn34 2.019 . S
O42 C62 1.257 . S
Zn43 N39 2.020 . S
Zn43 O50 1.975 . S
Zn43 N59 2.119 . S
Zn43 O64 2.019 . S
N44 Zn34 2.119 . S
N44 C46 1.334 1_556 S
N44 C47 1.328 . S
C45 C46 1.391 . S
C45 N48 1.329 1_554 S
C45 H66 0.930 . S
C46 N44 1.334 1_554 S
C46 C45 1.391 . S
C46 H53 0.930 . S
C47 N44 1.328 . S
C47 C49 1.392 . S
C47 H54 0.930 . S
N48 C45 1.329 1_556 S
N48 C49 1.331 . S
C49 C47 1.392 . S
C49 N48 1.331 . S
O50 Zn43 1.975 . S
O50 C51 1.252 1_554 S
C51 O50 1.252 1_556 S
C51 O52 1.252 . S
O52 Zn34 1.975 . S
O52 C51 1.252 . S
H53 C46 0.930 . S
H54 C47 0.930 . S
C55 C56 1.392 . S
C55 N59 1.328 . S
C55 H61 0.930 . S
C56 C55 1.392 . S
C56 N60 1.331 . S
C57 C58 1.391 . S
C57 N60 1.329 1_556 S
C57 H67 0.930 . S
C58 C57 1.391 . S
C58 N59 1.334 1_556 S
C58 H65 0.930 . S
N59 Zn43 2.119 . S
N59 C55 1.328 . S
N59 C58 1.334 1_554 S
N60 C56 1.331 . S
N60 C57 1.329 1_554 S
H61 C55 0.930 . S
C62 O42 1.257 . S
C62 O63 1.244 . S
O63 C62 1.244 . S
O64 C40 1.257 . S
O64 Zn43 2.019 . S
H65 C58 0.930 . S
H66 C45 0.930 . S
H67 C57 0.930 . S
Zn68 N72 2.020 . S
Zn68 O76 2.019 . S
Zn68 N78 2.119 . S
Zn68 O86 1.975 . S
C69 N70 1.334 . S
C69 N73 1.336 . S
N70 C69 1.334 . S
N70 C71 1.334 . S
C71 N70 1.334 . S
C71 N72 1.336 . S
N72 Zn68 2.020 . S
N72 C71 1.336 . S
N72 N73 1.354 . S
N73 C69 1.336 . S
N73 N72 1.354 . S
N73 Zn77 2.020 . S
C74 O75 1.244 . S
C74 O98 1.257 . S
O75 C74 1.244 . S
O76 Zn68 2.019 . S
O76 C96 1.257 . S
Zn77 N73 2.020 . S
Zn77 O84 1.975 . S
Zn77 N93 2.119 . S
Zn77 O98 2.019 . S
N78 Zn68 2.119 . S
N78 C80 1.334 . S
N78 C81 1.328 . S
C79 C80 1.391 . S
C79 N82 1.329 . S
C79 H100 0.930 . S
C80 N78 1.334 . S
C80 C79 1.391 . S
C80 H87 0.930 . S
C81 N78 1.328 . S
C81 C83 1.392 . S
C81 H88 0.930 . S
N82 C79 1.329 . S
N82 C83 1.331 . S
C83 C81 1.392 . S
C83 N82 1.331 . S
O84 Zn77 1.975 . S
O84 C85 1.252 . S
C85 O84 1.252 . S
C85 O86 1.252 . S
O86 Zn68 1.975 . S
O86 C85 1.252 . S
H87 C80 0.930 . S
H88 C81 0.930 . S
C89 C90 1.392 . S
C89 N93 1.328 . S
C89 H95 0.930 . S
C90 C89 1.392 . S
C90 N94 1.331 . S
C91 C92 1.391 . S
C91 N94 1.329 . S
C91 H101 0.930 . S
C92 C91 1.391 . S
C92 N93 1.334 . S
C92 H99 0.930 . S
N93 Zn77 2.119 . S
N93 C89 1.328 . S
N93 C92 1.334 . S
N94 C90 1.331 . S
N94 C91 1.329 . S
H95 C89 0.930 . S
C96 O76 1.257 . S
C96 O97 1.244 . S
O97 C96 1.244 . S
O98 C74 1.257 . S
O98 Zn77 2.019 . S
H99 C92 0.930 . S
H100 C79 0.930 . S
H101 C91 0.930 . S
Zn102 N106 2.020 . S
Zn102 O110 2.019 . S
Zn102 N112 2.119 . S
Zn102 O120 1.975 . S
C103 N104 1.334 . S
C103 N107 1.336 . S
N104 C103 1.334 . S
N104 C105 1.334 . S
C105 N104 1.334 . S
C105 N106 1.336 . S
N106 Zn102 2.020 . S
N106 C105 1.336 . S
N106 N107 1.354 . S
N107 C103 1.336 . S
N107 N106 1.354 . S
N107 Zn111 2.020 . S
C108 O109 1.244 . S
C108 O132 1.257 . S
O109 C108 1.244 . S
O110 Zn102 2.019 . S
O110 C130 1.257 . S
Zn111 N107 2.020 . S
Zn111 O118 1.975 . S
Zn111 N127 2.119 . S
Zn111 O132 2.019 . S
N112 Zn102 2.119 . S
N112 C114 1.334 . S
N112 C115 1.328 . S
C113 C114 1.391 . S
C113 N116 1.329 . S
C113 H134 0.930 . S
C114 N112 1.334 . S
C114 C113 1.391 . S
C114 H121 0.930 . S
C115 N112 1.328 . S
C115 C117 1.392 . S
C115 H122 0.930 . S
N116 C113 1.329 . S
N116 C117 1.331 . S
C117 C115 1.392 . S
C117 N116 1.331 . S
O118 Zn111 1.975 . S
O118 C119 1.252 . S
C119 O118 1.252 . S
C119 O120 1.252 . S
O120 Zn102 1.975 . S
O120 C119 1.252 . S
H121 C114 0.930 . S
H122 C115 0.930 . S
C123 C124 1.392 . S
C123 N127 1.328 . S
C123 H129 0.930 . S
C124 C123 1.392 . S
C124 N128 1.331 . S
C125 C126 1.391 . S
C125 N128 1.329 . S
C125 H135 0.930 . S
C126 C125 1.391 . S
C126 N127 1.334 . S
C126 H133 0.930 . S
N127 Zn111 2.119 . S
N127 C123 1.328 . S
N127 C126 1.334 . S
N128 C124 1.331 . S
N128 C125 1.329 . S
H129 C123 0.930 . S
C130 O110 1.257 . S
C130 O131 1.244 . S
O131 C130 1.244 . S
O132 C108 1.257 . S
O132 Zn111 2.019 . S
H133 C126 0.930 . S
H134 C113 0.930 . S
H135 C125 0.930 . S
Zn136 N140 2.020 . S
Zn136 O144 2.019 . S
Zn136 N146 2.119 . S
Zn136 O154 1.975 . S
C137 N138 1.334 . S
C137 N141 1.336 . S
N138 C137 1.334 . S
N138 C139 1.334 . S
C139 N138 1.334 . S
C139 N140 1.336 . S
N140 Zn136 2.020 . S
N140 C139 1.336 . S
N140 N141 1.354 . S
N141 C137 1.336 . S
N141 N140 1.354 . S
N141 Zn145 2.020 . S
C142 O143 1.244 . S
C142 O166 1.257 . S
O143 C142 1.244 . S
O144 Zn136 2.019 . S
O144 C164 1.257 . S
Zn145 N141 2.020 . S
Zn145 O152 1.975 . S
Zn145 N161 2.119 . S
Zn145 O166 2.019 . S
N146 Zn136 2.119 . S
N146 C148 1.334 . S
N146 C149 1.328 . S
C147 C148 1.391 . S
C147 N150 1.329 . S
C147 H168 0.930 . S
C148 N146 1.334 . S
C148 C147 1.391 . S
C148 H155 0.930 . S
C149 N146 1.328 . S
C149 C151 1.392 . S
C149 H156 0.930 . S
N150 C147 1.329 . S
N150 C151 1.331 . S
C151 C149 1.392 . S
C151 N150 1.331 . S
O152 Zn145 1.975 . S
O152 C153 1.252 . S
C153 O152 1.252 . S
C153 O154 1.252 . S
O154 Zn136 1.975 . S
O154 C153 1.252 . S
H155 C148 0.930 . S
H156 C149 0.930 . S
C157 C158 1.392 . S
C157 N161 1.328 . S
C157 H163 0.930 . S
C158 C157 1.392 . S
C158 N162 1.331 . S
C159 C160 1.391 . S
C159 N162 1.329 . S
C159 H169 0.930 . S
C160 C159 1.391 . S
C160 N161 1.334 . S
C160 H167 0.930 . S
N161 Zn145 2.119 . S
N161 C157 1.328 . S
N161 C160 1.334 . S
N162 C158 1.331 . S
N162 C159 1.329 . S
H163 C157 0.930 . S
C164 O144 1.257 . S
C164 O165 1.244 . S
O165 C164 1.244 . S
O166 C142 1.257 . S
O166 Zn145 2.019 . S
H167 C160 0.930 . S
H168 C147 0.930 . S
H169 C159 0.930 . S
Zn170 N174 2.020 . S
Zn170 O178 2.019 . S
Zn170 N180 2.119 . S
Zn170 O188 1.975 . S
C171 N172 1.334 . S
C171 N175 1.336 . S
N172 C171 1.334 . S
N172 C173 1.334 . S
C173 N172 1.334 . S
C173 N174 1.336 . S
N174 Zn170 2.020 . S
N174 C173 1.336 . S
N174 N175 1.354 . S
N175 C171 1.336 . S
N175 N174 1.354 . S
N175 Zn179 2.020 . S
C176 O177 1.244 . S
C176 O200 1.257 . S
O177 C176 1.244 . S
O178 Zn170 2.019 . S
O178 C198 1.257 . S
Zn179 N175 2.020 . S
Zn179 O186 1.975 . S
Zn179 N195 2.119 . S
Zn179 O200 2.019 . S
N180 Zn170 2.119 . S
N180 C182 1.334 . S
N180 C183 1.328 . S
C181 C182 1.391 . S
C181 N184 1.329 . S
C181 H202 0.930 . S
C182 N180 1.334 . S
C182 C181 1.391 . S
C182 H189 0.930 . S
C183 N180 1.328 . S
C183 C185 1.392 . S
C183 H190 0.930 . S
N184 C181 1.329 . S
N184 C185 1.331 . S
C185 C183 1.392 . S
C185 N184 1.331 . S
O186 Zn179 1.975 . S
O186 C187 1.252 . S
C187 O186 1.252 . S
C187 O188 1.252 . S
O188 Zn170 1.975 . S
O188 C187 1.252 . S
H189 C182 0.930 . S
H190 C183 0.930 . S
C191 C192 1.392 . S
C191 N195 1.328 . S
C191 H197 0.930 . S
C192 C191 1.392 . S
C192 N196 1.331 . S
C193 C194 1.391 . S
C193 N196 1.329 . S
C193 H203 0.930 . S
C194 C193 1.391 . S
C194 N195 1.334 . S
C194 H201 0.930 . S
N195 Zn179 2.119 . S
N195 C191 1.328 . S
N195 C194 1.334 . S
N196 C192 1.331 . S
N196 C193 1.329 . S
H197 C191 0.930 . S
C198 O178 1.257 . S
C198 O199 1.244 . S
O199 C198 1.244 . S
O200 C176 1.257 . S
O200 Zn179 2.019 . S
H201 C194 0.930 . S
H202 C181 0.930 . S
H203 C193 0.930 . S
Zn204 N208 2.020 . S
Zn204 O212 2.019 . S
Zn204 N214 2.119 . S
Zn204 O222 1.975 . S
C205 N206 1.334 . S
C205 N209 1.336 . S
N206 C205 1.334 . S
N206 C207 1.334 . S
C207 N206 1.334 . S
C207 N208 1.336 . S
N208 Zn204 2.020 . S
N208 C207 1.336 . S
N208 N209 1.354 . S
N209 C205 1.336 . S
N209 N208 1.354 . S
N209 Zn213 2.020 . S
C210 O211 1.244 . S
C210 O234 1.257 . S
O211 C210 1.244 . S
O212 Zn204 2.019 . S
O212 C232 1.257 . S
Zn213 N209 2.020 . S
Zn213 O220 1.975 . S
Zn213 N229 2.119 . S
Zn213 O234 2.019 . S
N214 Zn204 2.119 . S
N214 C216 1.334 . S
N214 C217 1.328 . S
C215 C216 1.391 . S
C215 N218 1.329 . S
C215 H236 0.930 . S
C216 N214 1.334 . S
C216 C215 1.391 . S
C216 H223 0.930 . S
C217 N214 1.328 . S
C217 C219 1.392 . S
C217 H224 0.930 . S
N218 C215 1.329 . S
N218 C219 1.331 . S
C219 C217 1.392 . S
C219 N218 1.331 . S
O220 Zn213 1.975 . S
O220 C221 1.252 . S
C221 O220 1.252 . S
C221 O222 1.252 . S
O222 Zn204 1.975 . S
O222 C221 1.252 . S
H223 C216 0.930 . S
H224 C217 0.930 . S
C225 C226 1.392 . S
C225 N229 1.328 . S
C225 H231 0.930 . S
C226 C225 1.392 . S
C226 N230 1.331 . S
C227 C228 1.391 . S
C227 N230 1.329 . S
C227 H237 0.930 . S
C228 C227 1.391 . S
C228 N229 1.334 . S
C228 H235 0.930 . S
N229 Zn213 2.119 . S
N229 C225 1.328 . S
N229 C228 1.334 . S
N230 C226 1.331 . S
N230 C227 1.329 . S
H231 C225 0.930 . S
C232 O212 1.257 . S
C232 O233 1.244 . S
O233 C232 1.244 . S
O234 C210 1.257 . S
O234 Zn213 2.019 . S
H235 C228 0.930 . S
H236 C215 0.930 . S
H237 C227 0.930 . S
Zn238 N242 2.020 . S
Zn238 O246 2.019 . S
Zn238 N248 2.119 . S
Zn238 O256 1.975 . S
C239 N240 1.334 . S
C239 N243 1.336 . S
N240 C239 1.334 . S
N240 C241 1.334 . S
C241 N240 1.334 . S
C241 N242 1.336 . S
N242 Zn238 2.020 . S
N242 C241 1.336 . S
N242 N243 1.354 . S
N243 C239 1.336 . S
N243 N242 1.354 . S
N243 Zn247 2.020 . S
C244 O245 1.244 . S
C244 O268 1.257 . S
O245 C244 1.244 . S
O246 Zn238 2.019 . S
O246 C266 1.257 . S
Zn247 N243 2.020 . S
Zn247 O254 1.975 . S
Zn247 N263 2.119 . S
Zn247 O268 2.019 . S
N248 Zn238 2.119 . S
N248 C250 1.334 . S
N248 C251 1.328 . S
C249 C250 1.391 . S
C249 N252 1.329 . S
C249 H270 0.930 . S
C250 N248 1.334 . S
C250 C249 1.391 . S
C250 H257 0.930 . S
C251 N248 1.328 . S
C251 C253 1.392 . S
C251 H258 0.930 . S
N252 C249 1.329 . S
N252 C253 1.331 . S
C253 C251 1.392 . S
C253 N252 1.331 . S
O254 Zn247 1.975 . S
O254 C255 1.252 . S
C255 O254 1.252 . S
C255 O256 1.252 . S
O256 Zn238 1.975 . S
O256 C255 1.252 . S
H257 C250 0.930 . S
H258 C251 0.930 . S
C259 C260 1.392 . S
C259 N263 1.328 . S
C259 H265 0.930 . S
C260 C259 1.392 . S
C260 N264 1.331 . S
C261 C262 1.391 . S
C261 N264 1.329 . S
C261 H271 0.930 . S
C262 C261 1.391 . S
C262 N263 1.334 . S
C262 H269 0.930 . S
N263 Zn247 2.119 . S
N263 C259 1.328 . S
N263 C262 1.334 . S
N264 C260 1.331 . S
N264 C261 1.329 . S
H265 C259 0.930 . S
C266 O246 1.257 . S
C266 O267 1.244 . S
O267 C266 1.244 . S
O268 C244 1.257 . S
O268 Zn247 2.019 . S
H269 C262 0.930 . S
H270 C249 0.930 . S
H271 C261 0.930 . S
Zn272 N276 2.020 . S
Zn272 O280 2.019 . S
Zn272 N282 2.119 . S
Zn272 O290 1.975 . S
C273 N274 1.334 . S
C273 N277 1.336 . S
N274 C273 1.334 . S
N274 C275 1.334 . S
C275 N274 1.334 . S
C275 N276 1.336 . S
N276 Zn272 2.020 . S
N276 C275 1.336 . S
N276 N277 1.354 . S
N277 C273 1.336 . S
N277 N276 1.354 . S
N277 Zn281 2.020 . S
C278 O279 1.244 . S
C278 O302 1.257 . S
O279 C278 1.244 . S
O280 Zn272 2.019 . S
O280 C300 1.257 . S
Zn281 N277 2.020 . S
Zn281 O288 1.975 . S
Zn281 N297 2.119 . S
Zn281 O302 2.019 . S
N282 Zn272 2.119 . S
N282 C284 1.334 . S
N282 C285 1.328 . S
C283 C284 1.391 . S
C283 N286 1.329 . S
C283 H304 0.930 . S
C284 N282 1.334 . S
C284 C283 1.391 . S
C284 H291 0.930 . S
C285 N282 1.328 . S
C285 C287 1.392 . S
C285 H292 0.930 . S
N286 C283 1.329 . S
N286 C287 1.331 . S
C287 C285 1.392 . S
C287 N286 1.331 . S
O288 Zn281 1.975 . S
O288 C289 1.252 . S
C289 O288 1.252 . S
C289 O290 1.252 . S
O290 Zn272 1.975 . S
O290 C289 1.252 . S
H291 C284 0.930 . S
H292 C285 0.930 . S
C293 C294 1.392 . S
C293 N297 1.328 . S
C293 H299 0.930 . S
C294 C293 1.392 . S
C294 N298 1.331 . S
C295 C296 1.391 . S
C295 N298 1.329 . S
C295 H305 0.930 . S
C296 C295 1.391 . S
C296 N297 1.334 . S
C296 H303 0.930 . S
N297 Zn281 2.119 . S
N297 C293 1.328 . S
N297 C296 1.334 . S
N298 C294 1.331 . S
N298 C295 1.329 . S
H299 C293 0.930 . S
C300 O280 1.257 . S
C300 O301 1.244 . S
O301 C300 1.244 . S
O302 C278 1.257 . S
O302 Zn281 2.019 . S
H303 C296 0.930 . S
H304 C283 0.930 . S
H305 C295 0.930 . S
Zn306 N310 2.020 . S
Zn306 O314 2.019 . S
Zn306 N316 2.119 . S
Zn306 O324 1.975 . S
C307 N308 1.334 . S
C307 N311 1.336 . S
N308 C307 1.334 . S
N308 C309 1.334 . S
C309 N308 1.334 . S
C309 N310 1.336 . S
N310 Zn306 2.020 . S
N310 C309 1.336 . S
N310 N311 1.354 . S
N311 C307 1.336 . S
N311 N310 1.354 . S
N311 Zn315 2.020 . S
C312 O313 1.244 . S
C312 O336 1.257 . S
O313 C312 1.244 . S
O314 Zn306 2.019 . S
O314 C334 1.257 . S
Zn315 N311 2.020 . S
Zn315 O322 1.975 . S
Zn315 N331 2.119 . S
Zn315 O336 2.019 . S
N316 Zn306 2.119 . S
N316 C318 1.334 . S
N316 C319 1.328 . S
C317 C318 1.391 . S
C317 N320 1.329 . S
C317 H338 0.930 . S
C318 N316 1.334 . S
C318 C317 1.391 . S
C318 H325 0.930 . S
C319 N316 1.328 . S
C319 C321 1.392 . S
C319 H326 0.930 . S
N320 C317 1.329 . S
N320 C321 1.331 . S
C321 C319 1.392 . S
C321 N320 1.331 . S
O322 Zn315 1.975 . S
O322 C323 1.252 . S
C323 O322 1.252 . S
C323 O324 1.252 . S
O324 Zn306 1.975 . S
O324 C323 1.252 . S
H325 C318 0.930 . S
H326 C319 0.930 . S
C327 C328 1.392 . S
C327 N331 1.328 . S
C327 H333 0.930 . S
C328 C327 1.392 . S
C328 N332 1.331 . S
C329 C330 1.391 . S
C329 N332 1.329 . S
C329 H339 0.930 . S
C330 C329 1.391 . S
C330 N331 1.334 . S
C330 H337 0.930 . S
N331 Zn315 2.119 . S
N331 C327 1.328 . S
N331 C330 1.334 . S
N332 C328 1.331 . S
N332 C329 1.329 . S
H333 C327 0.930 . S
C334 O314 1.257 . S
C334 O335 1.244 . S
O335 C334 1.244 . S
O336 C312 1.257 . S
O336 Zn315 2.019 . S
H337 C330 0.930 . S
H338 C317 0.930 . S
H339 C329 0.930 . S
Zn340 N344 2.020 . S
Zn340 O348 2.019 . S
Zn340 N350 2.119 . S
Zn340 O358 1.975 . S
C341 N342 1.334 . S
C341 N345 1.336 . S
N342 C341 1.334 . S
N342 C343 1.334 . S
C343 N342 1.334 . S
C343 N344 1.336 . S
N344 Zn340 2.020 . S
N344 C343 1.336 . S
N344 N345 1.354 . S
N345 C341 1.336 . S
N345 N344 1.354 . S
N345 Zn349 2.020 . S
C346 O347 1.244 . S
C346 O370 1.257 . S
O347 C346 1.244 . S
O348 Zn340 2.019 . S
O348 C368 1.257 . S
Zn349 N345 2.020 . S
Zn349 O356 1.975 . S
Zn349 N365 2.119 . S
Zn349 O370 2.019 . S
N350 Zn340 2.119 . S
N350 C352 1.334 . S
N350 C353 1.328 . S
C351 C352 1.391 . S
C351 N354 1.329 . S
C351 H372 0.930 . S
C352 N350 1.334 . S
C352 C351 1.391 . S
C352 H359 0.930 . S
C353 N350 1.328 . S
C353 C355 1.392 . S
C353 H360 0.930 . S
N354 C351 1.329 . S
N354 C355 1.331 . S
C355 C353 1.392 . S
C355 N354 1.331 . S
O356 Zn349 1.975 . S
O356 C357 1.252 . S
C357 O356 1.252 . S
C357 O358 1.252 . S
O358 Zn340 1.975 . S
O358 C357 1.252 . S
H359 C352 0.930 . S
H360 C353 0.930 . S
C361 C362 1.392 . S
C361 N365 1.328 . S
C361 H367 0.930 . S
C362 C361 1.392 . S
C362 N366 1.331 . S
C363 C364 1.391 . S
C363 N366 1.329 . S
C363 H373 0.930 . S
C364 C363 1.391 . S
C364 N365 1.334 . S
C364 H371 0.930 . S
N365 Zn349 2.119 . S
N365 C361 1.328 . S
N365 C364 1.334 . S
N366 C362 1.331 . S
N366 C363 1.329 . S
H367 C361 0.930 . S
C368 O348 1.257 . S
C368 O369 1.244 . S
O369 C368 1.244 . S
O370 C346 1.257 . S
O370 Zn349 2.019 . S
H371 C364 0.930 . S
H372 C351 0.930 . S
H373 C363 0.930 . S
Zn374 N378 2.020 . S
Zn374 O382 2.019 . S
Zn374 N384 2.119 . S
Zn374 O392 1.975 . S
C375 N376 1.334 . S
C375 N379 1.336 . S
N376 C375 1.334 . S
N376 C377 1.334 . S
C377 N376 1.334 . S
C377 N378 1.336 . S
N378 Zn374 2.020 . S
N378 C377 1.336 . S
N378 N379 1.354 . S
N379 C375 1.336 . S
N379 N378 1.354 . S
N379 Zn383 2.020 . S
C380 O381 1.244 . S
C380 O404 1.257 . S
O381 C380 1.244 . S
O382 Zn374 2.019 . S
O382 C402 1.257 . S
Zn383 N379 2.020 . S
Zn383 O390 1.975 . S
Zn383 N399 2.119 . S
Zn383 O404 2.019 . S
N384 Zn374 2.119 . S
N384 C386 1.334 . S
N384 C387 1.328 . S
C385 C386 1.391 . S
C385 N388 1.329 . S
C385 H406 0.930 . S
C386 N384 1.334 . S
C386 C385 1.391 . S
C386 H393 0.930 . S
C387 N384 1.328 . S
C387 C389 1.392 . S
C387 H394 0.930 . S
N388 C385 1.329 . S
N388 C389 1.331 . S
C389 C387 1.392 . S
C389 N388 1.331 . S
O390 Zn383 1.975 . S
O390 C391 1.252 . S
C391 O390 1.252 . S
C391 O392 1.252 . S
O392 Zn374 1.975 . S
O392 C391 1.252 . S
H393 C386 0.930 . S
H394 C387 0.930 . S
C395 C396 1.392 . S
C395 N399 1.328 . S
C395 H401 0.930 . S
C396 C395 1.392 . S
C396 N400 1.331 . S
C397 C398 1.391 . S
C397 N400 1.329 . S
C397 H407 0.930 . S
C398 C397 1.391 . S
C398 N399 1.334 . S
C398 H405 0.930 . S
N399 Zn383 2.119 . S
N399 C395 1.328 . S
N399 C398 1.334 . S
N400 C396 1.331 . S
N400 C397 1.329 . S
H401 C395 0.930 . S
C402 O382 1.257 . S
C402 O403 1.244 . S
O403 C402 1.244 . S
O404 C380 1.257 . S
O404 Zn383 2.019 . S
H405 C398 0.930 . S
H406 C385 0.930 . S
H407 C397 0.930 . S
Zn408 N412 2.020 . S
Zn408 O416 2.019 . S
Zn408 N418 2.119 . S
Zn408 O426 1.975 . S
C409 N410 1.334 1_556 S
C409 N413 1.336 . S
N410 C409 1.334 1_554 S
N410 C411 1.334 . S
C411 N410 1.334 . S
C411 N412 1.336 . S
N412 Zn408 2.020 . S
N412 C411 1.336 . S
N412 N413 1.354 1_554 S
N413 C409 1.336 . S
N413 N412 1.354 1_556 S
N413 Zn417 2.020 . S
C414 O415 1.244 . S
C414 O438 1.257 . S
O415 C414 1.244 . S
O416 Zn408 2.019 . S
O416 C436 1.257 . S
Zn417 N413 2.020 . S
Zn417 O424 1.975 . S
Zn417 N433 2.119 . S
Zn417 O438 2.019 . S
N418 Zn408 2.119 . S
N418 C420 1.334 1_554 S
N418 C421 1.328 . S
C419 C420 1.391 . S
C419 N422 1.329 1_556 S
C419 H440 0.930 . S
C420 N418 1.334 1_556 S
C420 C419 1.391 . S
C420 H427 0.930 . S
C421 N418 1.328 . S
C421 C423 1.392 . S
C421 H428 0.930 . S
N422 C419 1.329 1_554 S
N422 C423 1.331 . S
C423 C421 1.392 . S
C423 N422 1.331 . S
O424 Zn417 1.975 . S
O424 C425 1.252 . S
C425 O424 1.252 . S
C425 O426 1.252 1_556 S
O426 Zn408 1.975 . S
O426 C425 1.252 1_554 S
H427 C420 0.930 . S
H428 C421 0.930 . S
C429 C430 1.392 . S
C429 N433 1.328 . S
C429 H435 0.930 . S
C430 C429 1.392 . S
C430 N434 1.331 . S
C431 C432 1.391 . S
C431 N434 1.329 1_554 S
C431 H441 0.930 . S
C432 C431 1.391 . S
C432 N433 1.334 1_554 S
C432 H439 0.930 . S
N433 Zn417 2.119 . S
N433 C429 1.328 . S
N433 C432 1.334 1_556 S
N434 C430 1.331 . S
N434 C431 1.329 1_556 S
H435 C429 0.930 . S
C436 O416 1.257 . S
C436 O437 1.244 . S
O437 C436 1.244 . S
O438 C414 1.257 . S
O438 Zn417 2.019 . S
H439 C432 0.930 . S
H440 C419 0.930 . S
H441 C431 0.930 . S
Zn442 N446 2.020 . S
Zn442 O450 2.019 . S
Zn442 N452 2.119 . S
Zn442 O460 1.975 . S
C443 N444 1.334 . S
C443 N447 1.336 . S
N444 C443 1.334 . S
N444 C445 1.334 1_554 S
C445 N444 1.334 1_556 S
C445 N446 1.336 . S
N446 Zn442 2.020 . S
N446 C445 1.336 . S
N446 N447 1.354 1_556 S
N447 C443 1.336 . S
N447 N446 1.354 1_554 S
N447 Zn451 2.020 . S
C448 O449 1.244 . S
C448 O472 1.257 . S
O449 C448 1.244 . S
O450 Zn442 2.019 . S
O450 C470 1.257 . S
Zn451 N447 2.020 . S
Zn451 O458 1.975 . S
Zn451 N467 2.119 . S
Zn451 O472 2.019 . S
N452 Zn442 2.119 . S
N452 C454 1.334 1_556 S
N452 C455 1.328 . S
C453 C454 1.391 . S
C453 N456 1.329 1_554 S
C453 H474 0.930 . S
C454 N452 1.334 1_554 S
C454 C453 1.391 . S
C454 H461 0.930 . S
C455 N452 1.328 . S
C455 C457 1.392 . S
C455 H462 0.930 . S
N456 C453 1.329 1_556 S
N456 C457 1.331 . S
C457 C455 1.392 . S
C457 N456 1.331 . S
O458 Zn451 1.975 . S
O458 C459 1.252 1_554 S
C459 O458 1.252 1_556 S
C459 O460 1.252 . S
O460 Zn442 1.975 . S
O460 C459 1.252 . S
H461 C454 0.930 . S
H462 C455 0.930 . S
C463 C464 1.392 . S
C463 N467 1.328 . S
C463 H469 0.930 . S
C464 C463 1.392 . S
C464 N468 1.331 . S
C465 C466 1.391 . S
C465 N468 1.329 1_556 S
C465 H475 0.930 . S
C466 C465 1.391 . S
C466 N467 1.334 1_556 S
C466 H473 0.930 . S
N467 Zn451 2.119 . S
N467 C463 1.328 . S
N467 C466 1.334 1_554 S
N468 C464 1.331 . S
N468 C465 1.329 1_554 S
H469 C463 0.930 . S
C470 O450 1.257 . S
C470 O471 1.244 . S
O471 C470 1.244 . S
O472 C448 1.257 . S
O472 Zn451 2.019 . S
H473 C466 0.930 . S
H474 C453 0.930 . S
H475 C465 0.930 . S
Zn476 N480 2.020 . S
Zn476 O484 2.019 . S
Zn476 N486 2.119 . S
Zn476 O494 1.975 . S
C477 N478 1.334 . S
C477 N481 1.336 . S
N478 C477 1.334 . S
N478 C479 1.334 . S
C479 N478 1.334 . S
C479 N480 1.336 . S
N480 Zn476 2.020 . S
N480 C479 1.336 . S
N480 N481 1.354 . S
N481 C477 1.336 . S
N481 N480 1.354 . S
N481 Zn485 2.020 . S
C482 O483 1.244 . S
C482 O506 1.257 . S
O483 C482 1.244 . S
O484 Zn476 2.019 . S
O484 C504 1.257 . S
Zn485 N481 2.020 . S
Zn485 O492 1.975 . S
Zn485 N501 2.119 . S
Zn485 O506 2.019 . S
N486 Zn476 2.119 . S
N486 C488 1.334 . S
N486 C489 1.328 . S
C487 C488 1.391 . S
C487 N490 1.329 . S
C487 H508 0.930 . S
C488 N486 1.334 . S
C488 C487 1.391 . S
C488 H495 0.930 . S
C489 N486 1.328 . S
C489 C491 1.392 . S
C489 H496 0.930 . S
N490 C487 1.329 . S
N490 C491 1.331 . S
C491 C489 1.392 . S
C491 N490 1.331 . S
O492 Zn485 1.975 . S
O492 C493 1.252 . S
C493 O492 1.252 . S
C493 O494 1.252 . S
O494 Zn476 1.975 . S
O494 C493 1.252 . S
H495 C488 0.930 . S
H496 C489 0.930 . S
C497 C498 1.392 . S
C497 N501 1.328 . S
C497 H503 0.930 . S
C498 C497 1.392 . S
C498 N502 1.331 . S
C499 C500 1.391 . S
C499 N502 1.329 . S
C499 H509 0.930 . S
C500 C499 1.391 . S
C500 N501 1.334 . S
C500 H507 0.930 . S
N501 Zn485 2.119 . S
N501 C497 1.328 . S
N501 C500 1.334 . S
N502 C498 1.331 . S
N502 C499 1.329 . S
H503 C497 0.930 . S
C504 O484 1.257 . S
C504 O505 1.244 . S
O505 C504 1.244 . S
O506 C482 1.257 . S
O506 Zn485 2.019 . S
H507 C500 0.930 . S
H508 C487 0.930 . S
H509 C499 0.930 . S
Zn510 N514 2.020 . S
Zn510 O518 2.019 . S
Zn510 N520 2.119 . S
Zn510 O528 1.975 . S
C511 N512 1.334 . S
C511 N515 1.336 . S
N512 C511 1.334 . S
N512 C513 1.334 . S
C513 N512 1.334 . S
C513 N514 1.336 . S
N514 Zn510 2.020 . S
N514 C513 1.336 . S
N514 N515 1.354 . S
N515 C511 1.336 . S
N515 N514 1.354 . S
N515 Zn519 2.020 . S
C516 O517 1.244 . S
C516 O540 1.257 . S
O517 C516 1.244 . S
O518 Zn510 2.019 . S
O518 C538 1.257 . S
Zn519 N515 2.020 . S
Zn519 O526 1.975 . S
Zn519 N535 2.119 . S
Zn519 O540 2.019 . S
N520 Zn510 2.119 . S
N520 C522 1.334 . S
N520 C523 1.328 . S
C521 C522 1.391 . S
C521 N524 1.329 . S
C521 H542 0.930 . S
C522 N520 1.334 . S
C522 C521 1.391 . S
C522 H529 0.930 . S
C523 N520 1.328 . S
C523 C525 1.392 . S
C523 H530 0.930 . S
N524 C521 1.329 . S
N524 C525 1.331 . S
C525 C523 1.392 . S
C525 N524 1.331 . S
O526 Zn519 1.975 . S
O526 C527 1.252 . S
C527 O526 1.252 . S
C527 O528 1.252 . S
O528 Zn510 1.975 . S
O528 C527 1.252 . S
H529 C522 0.930 . S
H530 C523 0.930 . S
C531 C532 1.392 . S
C531 N535 1.328 . S
C531 H537 0.930 . S
C532 C531 1.392 . S
C532 N536 1.331 . S
C533 C534 1.391 . S
C533 N536 1.329 . S
C533 H543 0.930 . S
C534 C533 1.391 . S
C534 N535 1.334 . S
C534 H541 0.930 . S
N535 Zn519 2.119 . S
N535 C531 1.328 . S
N535 C534 1.334 . S
N536 C532 1.331 . S
N536 C533 1.329 . S
H537 C531 0.930 . S
C538 O518 1.257 . S
C538 O539 1.244 . S
O539 C538 1.244 . S
O540 C516 1.257 . S
O540 Zn519 2.019 . S
H541 C534 0.930 . S
H542 C521 0.930 . S
H543 C533 0.930 . S
C544 C545 1.349 . S
C544 C546 1.327 . S
C544 H569 0.950 . S
C545 C544 1.349 . S
C545 C561 1.349 . S
C546 C544 1.327 . S
C546 C565 1.429 . S
C546 H570 0.950 . S
C547 C564 1.574 . S
C547 C566 1.368 . S
C547 H571 0.949 . S
H548 C552 0.949 . S
C549 C550 1.349 . S
C549 C551 1.327 . S
C549 H572 0.950 . S
C550 C549 1.349 . S
C550 C562 1.349 . S
C551 C549 1.327 . S
C551 C567 1.429 . S
C551 H573 0.950 . S
C552 H548 0.949 . S
C552 C560 1.574 . S
C552 C568 1.368 . S
H553 C561 0.950 . S
H554 C559 0.950 . S
H555 C560 0.949 . S
H556 C562 0.950 . S
H557 C563 0.950 . S
H558 C564 0.949 . S
C559 H554 0.950 . S
C559 C561 1.327 . S
C559 C565 1.429 . S
C560 C552 1.574 . S
C560 H555 0.949 . S
C560 C566 1.368 . S
C561 C545 1.349 . S
C561 H553 0.950 . S
C561 C559 1.327 . S
C562 C550 1.349 . S
C562 H556 0.950 . S
C562 C563 1.327 . S
C563 H557 0.950 . S
C563 C562 1.327 . S
C563 C567 1.429 . S
C564 C547 1.574 . S
C564 H558 0.949 . S
C564 C568 1.368 . S
C565 C546 1.429 . S
C565 C559 1.429 . S
C565 C566 1.523 . S
C566 C547 1.368 . S
C566 C560 1.368 . S
C566 C565 1.523 . S
C567 C551 1.429 . S
C567 C563 1.429 . S
C567 C568 1.523 . S
C568 C552 1.368 . S
C568 C564 1.368 . S
C568 C567 1.523 . S
H569 C544 0.950 . S
H570 C546 0.950 . S
H571 C547 0.949 . S
H572 C549 0.950 . S
H573 C551 0.950 . S
C574 C575 1.349 . S
C574 C576 1.327 . S
C574 H599 0.950 . S
C575 C574 1.349 . S
C575 C591 1.349 . S
C576 C574 1.327 . S
C576 C595 1.429 . S
C576 H600 0.950 . S
C577 C594 1.574 . S
C577 C596 1.368 . S
C577 H601 0.949 . S
H578 C582 0.949 . S
C579 C580 1.349 . S
C579 C581 1.327 . S
C579 H602 0.950 . S
C580 C579 1.349 . S
C580 C592 1.349 . S
C581 C579 1.327 . S
C581 C597 1.429 . S
C581 H603 0.950 . S
C582 H578 0.949 . S
C582 C590 1.574 . S
C582 C598 1.368 . S
H583 C591 0.950 . S
H584 C589 0.950 . S
H585 C590 0.949 . S
H586 C592 0.950 . S
H587 C593 0.950 . S
H588 C594 0.949 . S
C589 H584 0.950 . S
C589 C591 1.327 . S
C589 C595 1.429 . S
C590 C582 1.574 . S
C590 H585 0.949 . S
C590 C596 1.368 . S
C591 C575 1.349 . S
C591 H583 0.950 . S
C591 C589 1.327 . S
C592 C580 1.349 . S
C592 H586 0.950 . S
C592 C593 1.327 . S
C593 H587 0.950 . S
C593 C592 1.327 . S
C593 C597 1.429 . S
C594 C577 1.574 . S
C594 H588 0.949 . S
C594 C598 1.368 . S
C595 C576 1.429 . S
C595 C589 1.429 . S
C595 C596 1.523 . S
C596 C577 1.368 . S
C596 C590 1.368 . S
C596 C595 1.523 . S
C597 C581 1.429 . S
C597 C593 1.429 . S
C597 C598 1.523 . S
C598 C582 1.368 . S
C598 C594 1.368 . S
C598 C597 1.523 . S
H599 C574 0.950 . S
H600 C576 0.950 . S
H601 C577 0.949 . S
H602 C579 0.950 . S
H603 C581 0.950 . S
C604 C605 1.349 . S
C604 C606 1.327 . S
C604 H629 0.950 . S
C605 C604 1.349 . S
C605 C621 1.349 . S
C606 C604 1.327 . S
C606 C625 1.429 . S
C606 H630 0.950 . S
C607 C624 1.574 . S
C607 C626 1.368 . S
C607 H631 0.949 . S
H608 C612 0.949 . S
C609 C610 1.349 . S
C609 C611 1.327 . S
C609 H632 0.950 . S
C610 C609 1.349 . S
C610 C622 1.349 . S
C611 C609 1.327 . S
C611 C627 1.429 . S
C611 H633 0.950 . S
C612 H608 0.949 . S
C612 C620 1.574 . S
C612 C628 1.368 . S
H613 C621 0.950 . S
H614 C619 0.950 . S
H615 C620 0.949 . S
H616 C622 0.950 . S
H617 C623 0.950 . S
H618 C624 0.949 . S
C619 H614 0.950 . S
C619 C621 1.327 . S
C619 C625 1.429 . S
C620 C612 1.574 . S
C620 H615 0.949 . S
C620 C626 1.368 . S
C621 C605 1.349 . S
C621 H613 0.950 . S
C621 C619 1.327 . S
C622 C610 1.349 . S
C622 H616 0.950 . S
C622 C623 1.327 . S
C623 H617 0.950 . S
C623 C622 1.327 . S
C623 C627 1.429 . S
C624 C607 1.574 . S
C624 H618 0.949 . S
C624 C628 1.368 . S
C625 C606 1.429 . S
C625 C619 1.429 . S
C625 C626 1.523 . S
C626 C607 1.368 . S
C626 C620 1.368 . S
C626 C625 1.523 . S
C627 C611 1.429 . S
C627 C623 1.429 . S
C627 C628 1.523 . S
C628 C612 1.368 . S
C628 C624 1.368 . S
C628 C627 1.523 . S
H629 C604 0.950 . S
H630 C606 0.950 . S
H631 C607 0.949 . S
H632 C609 0.950 . S
H633 C611 0.950 . S
C634 C635 1.349 . S
C634 C636 1.327 . S
C634 H659 0.950 . S
C635 C634 1.349 . S
C635 C651 1.349 . S
C636 C634 1.327 . S
C636 C655 1.429 . S
C636 H660 0.950 . S
C637 C654 1.574 . S
C637 C656 1.368 . S
C637 H661 0.949 . S
H638 C642 0.949 . S
C639 C640 1.349 . S
C639 C641 1.327 . S
C639 H662 0.950 . S
C640 C639 1.349 . S
C640 C652 1.349 . S
C641 C639 1.327 . S
C641 C657 1.429 . S
C641 H663 0.950 . S
C642 H638 0.949 . S
C642 C650 1.574 . S
C642 C658 1.368 . S
H643 C651 0.950 . S
H644 C649 0.950 . S
H645 C650 0.949 . S
H646 C652 0.950 . S
H647 C653 0.950 . S
H648 C654 0.949 . S
C649 H644 0.950 . S
C649 C651 1.327 . S
C649 C655 1.429 . S
C650 C642 1.574 . S
C650 H645 0.949 . S
C650 C656 1.368 . S
C651 C635 1.349 . S
C651 H643 0.950 . S
C651 C649 1.327 . S
C652 C640 1.349 . S
C652 H646 0.950 . S
C652 C653 1.327 . S
C653 H647 0.950 . S
C653 C652 1.327 . S
C653 C657 1.429 . S
C654 C637 1.574 . S
C654 H648 0.949 . S
C654 C658 1.368 . S
C655 C636 1.429 . S
C655 C649 1.429 . S
C655 C656 1.523 . S
C656 C637 1.368 . S
C656 C650 1.368 . S
C656 C655 1.523 . S
C657 C641 1.429 . S
C657 C653 1.429 . S
C657 C658 1.523 . S
C658 C642 1.368 . S
C658 C654 1.368 . S
C658 C657 1.523 . S
H659 C634 0.950 . S
H660 C636 0.950 . S
H661 C637 0.949 . S
H662 C639 0.950 . S
H663 C641 0.950 . S
C664 C665 1.349 . S
C664 C666 1.327 . S
C664 H689 0.950 . S
C665 C664 1.349 . S
C665 C681 1.349 . S
C666 C664 1.327 . S
C666 C685 1.429 . S
C666 H690 0.950 . S
C667 C684 1.574 . S
C667 C686 1.368 . S
C667 H691 0.949 . S
H668 C672 0.949 . S
C669 C670 1.349 . S
C669 C671 1.327 . S
C669 H692 0.950 . S
C670 C669 1.349 . S
C670 C682 1.349 . S
C671 C669 1.327 . S
C671 C687 1.429 . S
C671 H693 0.950 . S
C672 H668 0.949 . S
C672 C680 1.574 . S
C672 C688 1.368 . S
H673 C681 0.950 . S
H674 C679 0.950 . S
H675 C680 0.949 . S
H676 C682 0.950 . S
H677 C683 0.950 . S
H678 C684 0.949 . S
C679 H674 0.950 . S
C679 C681 1.327 . S
C679 C685 1.429 . S
C680 C672 1.574 . S
C680 H675 0.949 . S
C680 C686 1.368 . S
C681 C665 1.349 . S
C681 H673 0.950 . S
C681 C679 1.327 . S
C682 C670 1.349 . S
C682 H676 0.950 . S
C682 C683 1.327 . S
C683 H677 0.950 . S
C683 C682 1.327 . S
C683 C687 1.429 . S
C684 C667 1.574 . S
C684 H678 0.949 . S
C684 C688 1.368 . S
C685 C666 1.429 . S
C685 C679 1.429 . S
C685 C686 1.523 . S
C686 C667 1.368 . S
C686 C680 1.368 . S
C686 C685 1.523 . S
C687 C671 1.429 . S
C687 C683 1.429 . S
C687 C688 1.523 . S
C688 C672 1.368 . S
C688 C684 1.368 . S
C688 C687 1.523 . S
H689 C664 0.950 . S
H690 C666 0.950 . S
H691 C667 0.949 . S
H692 C669 0.950 . S
H693 C671 0.950 . S
C694 C695 1.349 . S
C694 C696 1.327 . S
C694 H719 0.950 . S
C695 C694 1.349 . S
C695 C711 1.349 . S
C696 C694 1.327 . S
C696 C715 1.429 . S
C696 H720 0.950 . S
C697 C714 1.574 . S
C697 C716 1.368 . S
C697 H721 0.949 . S
H698 C702 0.949 . S
C699 C700 1.349 . S
C699 C701 1.327 . S
C699 H722 0.950 . S
C700 C699 1.349 . S
C700 C712 1.349 . S
C701 C699 1.327 . S
C701 C717 1.429 . S
C701 H723 0.950 . S
C702 H698 0.949 . S
C702 C710 1.574 . S
C702 C718 1.368 . S
H703 C711 0.950 . S
H704 C709 0.950 . S
H705 C710 0.949 . S
H706 C712 0.950 . S
H707 C713 0.950 . S
H708 C714 0.949 . S
C709 H704 0.950 . S
C709 C711 1.327 . S
C709 C715 1.429 . S
C710 C702 1.574 . S
C710 H705 0.949 . S
C710 C716 1.368 . S
C711 C695 1.349 . S
C711 H703 0.950 . S
C711 C709 1.327 . S
C712 C700 1.349 . S
C712 H706 0.950 . S
C712 C713 1.327 . S
C713 H707 0.950 . S
C713 C712 1.327 . S
C713 C717 1.429 . S
C714 C697 1.574 . S
C714 H708 0.949 . S
C714 C718 1.368 . S
C715 C696 1.429 . S
C715 C709 1.429 . S
C715 C716 1.523 . S
C716 C697 1.368 . S
C716 C710 1.368 . S
C716 C715 1.523 . S
C717 C701 1.429 . S
C717 C713 1.429 . S
C717 C718 1.523 . S
C718 C702 1.368 . S
C718 C714 1.368 . S
C718 C717 1.523 . S
H719 C694 0.950 . S
H720 C696 0.950 . S
H721 C697 0.949 . S
H722 C699 0.950 . S
H723 C701 0.950 . S
C724 C725 1.349 . S
C724 C726 1.327 . S
C724 H749 0.950 . S
C725 C724 1.349 . S
C725 C741 1.349 . S
C726 C724 1.327 . S
C726 C745 1.429 . S
C726 H750 0.950 . S
C727 C744 1.574 . S
C727 C746 1.349 1_545 S
C727 H751 0.949 . S
H728 C732 0.949 . S
C729 C730 1.349 . S
C729 C731 1.327 . S
C729 H752 0.950 . S
C730 C729 1.349 . S
C730 C742 1.349 . S
C731 C729 1.327 . S
C731 C747 1.429 . S
C731 H753 0.950 . S
C732 H728 0.949 . S
C732 C740 1.574 . S
C732 C748 1.368 1_565 S
H733 C741 0.950 . S
H734 C739 0.898 1_545 S
H735 C740 0.949 . S
H736 C742 0.950 . S
H737 C743 0.950 . S
H738 C744 0.949 . S
C739 H734 0.898 1_565 S
C739 C741 1.353 . S
C739 C745 1.454 . S
C740 C732 1.574 . S
C740 H735 0.949 . S
C740 C746 1.381 1_554 S
C741 C725 1.349 . S
C741 H733 0.950 . S
C741 C739 1.353 . S
C742 C730 1.349 . S
C742 H736 0.950 . S
C742 C743 1.327 . S
C743 H737 0.950 . S
C743 C742 1.327 . S
C743 C747 1.429 . S
C744 C727 1.574 . S
C744 H738 0.949 . S
C744 C748 1.368 1_556 S
C745 C726 1.429 . S
C745 C739 1.454 . S
C745 C746 1.532 . S
C746 C727 1.349 1_565 S
C746 C740 1.381 1_556 S
C746 C745 1.532 . S
C747 C731 1.429 . S
C747 C743 1.429 . S
C747 C748 1.523 . S
C748 C732 1.368 1_545 S
C748 C744 1.368 1_554 S
C748 C747 1.523 . S
H749 C724 0.950 . S
H750 C726 0.950 . S
H751 C727 0.949 . S
H752 C729 0.950 . S
H753 C731 0.950 . S
C754 C755 1.349 . S
C754 C756 1.327 . S
C754 H779 0.950 . S
C755 C754 1.349 . S
C755 C771 1.349 . S
C756 C754 1.327 . S
C756 C775 1.429 . S
C756 H780 0.950 . S
C757 C774 1.574 . S
C757 C776 1.368 . S
C757 H781 0.949 . S
H758 C762 0.955 . S
C759 C760 1.349 . S
C759 C761 1.327 . S
C759 H782 0.950 . S
C760 C759 1.349 . S
C760 C772 1.349 . S
C761 C759 1.327 . S
C761 C777 1.429 . S
C761 H783 0.950 . S
C762 H758 0.955 . S
C762 C770 1.574 . S
C762 C778 1.364 1_565 S
H763 C771 0.950 . S
H764 C769 0.950 . S
H765 C770 0.949 . S
H766 C772 0.950 . S
H767 C773 0.950 . S
H768 C774 0.949 1_545 S
C769 H764 0.950 . S
C769 C771 1.327 . S
C769 C775 1.429 . S
C770 C762 1.574 . S
C770 H765 0.949 . S
C770 C776 1.368 1_556 S
C771 C755 1.349 . S
C771 H763 0.950 . S
C771 C769 1.327 . S
C772 C760 1.349 . S
C772 H766 0.950 . S
C772 C773 1.327 . S
C773 H767 0.950 . S
C773 C772 1.327 . S
C773 C777 1.429 . S
C774 C757 1.574 . S
C774 H768 0.949 1_565 S
C774 C778 1.365 1_564 S
C775 C756 1.429 . S
C775 C769 1.429 . S
C775 C776 1.523 . S
C776 C757 1.368 . S
C776 C770 1.368 1_554 S
C776 C775 1.523 . S
C777 C761 1.429 . S
C777 C773 1.429 . S
C777 C778 1.532 . S
C778 C762 1.364 1_545 S
C778 C774 1.365 1_546 S
C778 C777 1.532 . S
H779 C754 0.950 . S
H780 C756 0.950 . S
H781 C757 0.949 . S
H782 C759 0.950 . S
H783 C761 0.950 . S
C784 C785 1.349 . S
C784 C786 1.327 . S
C784 H809 0.950 . S
C785 C784 1.349 . S
C785 C801 1.349 . S
C786 C784 1.327 . S
C786 C805 1.429 . S
C786 H810 0.950 . S
C787 C804 1.550 1_655 S
C787 C806 1.376 . S
C787 H811 0.965 . S
H788 C792 0.949 . S
C789 C790 1.349 . S
C789 C791 1.327 . S
C789 H812 0.950 . S
C790 C789 1.349 . S
C790 C802 1.349 . S
C791 C789 1.327 . S
C791 C807 1.429 . S
C791 H813 0.950 . S
C792 H788 0.949 . S
C792 C800 1.574 . S
C792 C808 1.368 . S
H793 C801 0.950 . S
H794 C799 0.950 . S
H795 C800 0.949 1_655 S
H796 C802 0.950 . S
H797 C803 0.950 . S
H798 C804 0.949 . S
C799 H794 0.950 . S
C799 C801 1.327 . S
C799 C805 1.429 . S
C800 C792 1.574 . S
C800 H795 0.949 1_455 S
C800 C806 1.368 1_455 S
C801 C785 1.349 . S
C801 H793 0.950 . S
C801 C799 1.327 . S
C802 C790 1.349 . S
C802 H796 0.950 . S
C802 C803 1.327 . S
C803 H797 0.950 . S
C803 C802 1.327 . S
C803 C807 1.429 . S
C804 C787 1.550 1_455 S
C804 H798 0.949 . S
C804 C808 1.368 . S
C805 C786 1.429 . S
C805 C799 1.429 . S
C805 C806 1.523 . S
C806 C787 1.376 . S
C806 C800 1.368 1_655 S
C806 C805 1.523 . S
C807 C791 1.429 . S
C807 C803 1.429 . S
C807 C808 1.523 . S
C808 C792 1.368 . S
C808 C804 1.368 . S
C808 C807 1.523 . S
H809 C784 0.950 . S
H810 C786 0.950 . S
H811 C787 0.965 . S
H812 C789 0.950 . S
H813 C791 0.950 . S
C814 C815 1.349 . S
C814 C816 1.327 . S
C814 H839 0.950 . S
C815 C814 1.349 . S
C815 C831 1.349 . S
C816 C814 1.327 . S
C816 C835 1.429 . S
C816 H840 0.950 . S
C817 C834 1.574 1_455 S
C817 C836 1.368 . S
C817 H841 0.949 . S
H818 C822 0.949 . S
C819 C820 1.349 . S
C819 C821 1.327 . S
C819 H842 0.950 . S
C820 C819 1.349 . S
C820 C832 1.349 . S
C821 C819 1.327 . S
C821 C837 1.429 . S
C821 H843 0.950 . S
C822 H818 0.949 . S
C822 C830 1.574 . S
C822 C838 1.368 . S
H823 C831 0.950 . S
H824 C829 0.950 . S
H825 C830 0.949 . S
H826 C832 0.950 . S
H827 C833 0.950 . S
H828 C834 0.949 . S
C829 H824 0.950 . S
C829 C831 1.327 . S
C829 C835 1.429 . S
C830 C822 1.574 . S
C830 H825 0.949 . S
C830 C836 1.368 1_655 S
C831 C815 1.349 . S
C831 H823 0.950 . S
C831 C829 1.327 . S
C832 C820 1.349 . S
C832 H826 0.950 . S
C832 C833 1.327 . S
C833 H827 0.950 . S
C833 C832 1.327 . S
C833 C837 1.429 . S
C834 C817 1.574 1_655 S
C834 H828 0.949 . S
C834 C838 1.368 . S
C835 C816 1.429 . S
C835 C829 1.429 . S
C835 C836 1.523 . S
C836 C817 1.368 . S
C836 C830 1.368 1_455 S
C836 C835 1.523 . S
C837 C821 1.429 . S
C837 C833 1.429 . S
C837 C838 1.523 . S
C838 C822 1.368 . S
C838 C834 1.368 . S
C838 C837 1.523 . S
H839 C814 0.950 . S
H840 C816 0.950 . S
H841 C817 0.949 . S
H842 C819 0.950 . S
H843 C821 0.950 . S
C844 C845 1.349 . S
C844 C846 1.327 . S
C844 H869 0.950 . S
C845 C844 1.349 . S
C845 C861 1.349 . S
C846 C844 1.327 . S
C846 C865 1.429 . S
C846 H870 0.950 . S
C847 C864 1.574 . S
C847 C866 1.368 1_556 S
C847 H871 0.949 . S
H848 C852 0.949 . S
C849 C850 1.349 . S
C849 C851 1.327 . S
C849 H872 0.950 . S
C850 C849 1.349 . S
C850 C862 1.349 . S
C851 C849 1.327 . S
C851 C867 1.429 . S
C851 H873 0.950 . S
C852 H848 0.949 . S
C852 C860 1.574 . S
C852 C868 1.368 1_554 S
H853 C861 0.950 . S
H854 C859 0.950 . S
H855 C860 0.949 . S
H856 C862 0.950 . S
H857 C863 0.950 . S
H858 C864 0.949 . S
C859 H854 0.950 . S
C859 C861 1.327 . S
C859 C865 1.429 . S
C860 C852 1.574 . S
C860 H855 0.949 . S
C860 C866 1.368 . S
C861 C845 1.349 . S
C861 H853 0.950 . S
C861 C859 1.327 . S
C862 C850 1.349 . S
C862 H856 0.950 . S
C862 C863 1.327 . S
C863 H857 0.950 . S
C863 C862 1.327 . S
C863 C867 1.429 . S
C864 C847 1.574 . S
C864 H858 0.949 . S
C864 C868 1.368 . S
C865 C846 1.429 . S
C865 C859 1.429 . S
C865 C866 1.523 . S
C866 C847 1.368 1_554 S
C866 C860 1.368 . S
C866 C865 1.523 . S
C867 C851 1.429 . S
C867 C863 1.429 . S
C867 C868 1.523 . S
C868 C852 1.368 1_556 S
C868 C864 1.368 . S
C868 C867 1.523 . S
H869 C844 0.950 . S
H870 C846 0.950 . S
H871 C847 0.949 . S
H872 C849 0.950 . S
H873 C851 0.950 . S
C874 C875 1.349 . S
C874 C876 1.327 . S
C874 H899 0.950 . S
C875 C874 1.349 . S
C875 C891 1.349 . S
C876 C874 1.327 . S
C876 C895 1.429 . S
C876 H900 0.950 . S
C877 C894 1.574 . S
C877 C896 1.368 1_554 S
C877 H901 0.949 . S
H878 C882 0.949 . S
C879 C880 1.349 . S
C879 C881 1.327 . S
C879 H902 0.950 . S
C880 C879 1.349 . S
C880 C892 1.349 . S
C881 C879 1.327 . S
C881 C897 1.429 . S
C881 H903 0.950 . S
C882 H878 0.949 . S
C882 C890 1.574 . S
C882 C898 1.368 1_556 S
H883 C891 0.950 . S
H884 C889 0.950 . S
H885 C890 0.949 . S
H886 C892 0.950 . S
H887 C893 0.950 . S
H888 C894 0.949 . S
C889 H884 0.950 . S
C889 C891 1.327 . S
C889 C895 1.429 . S
C890 C882 1.574 . S
C890 H885 0.949 . S
C890 C896 1.368 . S
C891 C875 1.349 . S
C891 H883 0.950 . S
C891 C889 1.327 . S
C892 C880 1.349 . S
C892 H886 0.950 . S
C892 C893 1.327 . S
C893 H887 0.950 . S
C893 C892 1.327 . S
C893 C897 1.429 . S
C894 C877 1.574 . S
C894 H888 0.949 . S
C894 C898 1.368 . S
C895 C876 1.429 . S
C895 C889 1.429 . S
C895 C896 1.523 . S
C896 C877 1.368 1_556 S
C896 C890 1.368 . S
C896 C895 1.523 . S
C897 C881 1.429 . S
C897 C893 1.429 . S
C897 C898 1.523 . S
C898 C882 1.368 1_554 S
C898 C894 1.368 . S
C898 C897 1.523 . S
H899 C874 0.950 . S
H900 C876 0.950 . S
H901 C877 0.949 . S
H902 C879 0.950 . S
H903 C881 0.950 . S
C904 C905 1.349 . S
C904 C906 1.327 . S
C904 H929 0.950 . S
C905 C904 1.349 . S
C905 C921 1.349 . S
C906 C904 1.327 . S
C906 C925 1.429 . S
C906 H930 0.950 . S
C907 C924 1.574 1_455 S
C907 C926 1.368 . S
C907 H931 0.949 . S
H908 C912 0.949 . S
C909 C910 1.349 . S
C909 C911 1.327 . S
C909 H932 0.950 . S
C910 C909 1.349 . S
C910 C922 1.349 . S
C911 C909 1.327 . S
C911 C927 1.429 . S
C911 H933 0.950 . S
C912 H908 0.949 . S
C912 C920 1.574 . S
C912 C928 1.368 1_455 S
H913 C921 0.950 . S
H914 C919 0.950 . S
H915 C920 0.949 . S
H916 C922 0.950 . S
H917 C923 0.950 . S
H918 C924 0.949 . S
C919 H914 0.950 . S
C919 C921 1.327 . S
C919 C925 1.429 . S
C920 C912 1.574 . S
C920 H915 0.949 . S
C920 C926 1.368 . S
C921 C905 1.349 . S
C921 H913 0.950 . S
C921 C919 1.327 . S
C922 C910 1.349 . S
C922 H916 0.950 . S
C922 C923 1.327 . S
C923 H917 0.950 . S
C923 C922 1.327 . S
C923 C927 1.429 . S
C924 C907 1.574 1_655 S
C924 H918 0.949 . S
C924 C928 1.368 . S
C925 C906 1.429 . S
C925 C919 1.429 . S
C925 C926 1.523 . S
C926 C907 1.368 . S
C926 C920 1.368 . S
C926 C925 1.523 . S
C927 C911 1.429 . S
C927 C923 1.429 . S
C927 C928 1.523 . S
C928 C912 1.368 1_655 S
C928 C924 1.368 . S
C928 C927 1.523 . S
H929 C904 0.950 . S
H930 C906 0.950 . S
H931 C907 0.949 . S
H932 C909 0.950 . S
H933 C911 0.950 . S
C934 C935 1.349 . S
C934 C936 1.327 . S
C934 H959 0.950 . S
C935 C934 1.349 . S
C935 C951 1.349 . S
C936 C934 1.327 . S
C936 C955 1.429 . S
C936 H960 0.950 . S
C937 C954 1.574 1_655 S
C937 C956 1.368 . S
C937 H961 0.949 . S
H938 C942 0.949 . S
C939 C940 1.349 . S
C939 C941 1.327 . S
C939 H962 0.950 . S
C940 C939 1.349 . S
C940 C952 1.349 . S
C941 C939 1.327 . S
C941 C957 1.429 . S
C941 H963 0.950 . S
C942 H938 0.949 . S
C942 C950 1.574 . S
C942 C958 1.368 1_655 S
H943 C951 0.950 . S
H944 C949 0.950 . S
H945 C950 0.949 . S
H946 C952 0.950 . S
H947 C953 0.950 . S
H948 C954 0.949 . S
C949 H944 0.950 . S
C949 C951 1.327 . S
C949 C955 1.429 . S
C950 C942 1.574 . S
C950 H945 0.949 . S
C950 C956 1.368 . S
C951 C935 1.349 . S
C951 H943 0.950 . S
C951 C949 1.327 . S
C952 C940 1.349 . S
C952 H946 0.950 . S
C952 C953 1.327 . S
C953 H947 0.950 . S
C953 C952 1.327 . S
C953 C957 1.429 . S
C954 C937 1.574 1_455 S
C954 H948 0.949 . S
C954 C958 1.368 . S
C955 C936 1.429 . S
C955 C949 1.429 . S
C955 C956 1.523 . S
C956 C937 1.368 . S
C956 C950 1.368 . S
C956 C955 1.523 . S
C957 C941 1.429 . S
C957 C953 1.429 . S
C957 C958 1.523 . S
C958 C942 1.368 1_455 S
C958 C954 1.368 . S
C958 C957 1.523 . S
H959 C934 0.950 . S
H960 C936 0.950 . S
H961 C937 0.949 . S
H962 C939 0.950 . S
H963 C941 0.950 . S
C964 C965 1.349 . S
C964 C966 1.327 . S
C964 H989 0.950 . S
C965 C964 1.349 . S
C965 C981 1.349 . S
C966 C964 1.327 . S
C966 C985 1.429 . S
C966 H990 0.950 . S
C967 C984 1.574 . S
C967 C986 1.352 1_545 S
C967 H991 0.949 . S
H968 C972 0.949 1_565 S
C969 C970 1.349 . S
C969 C971 1.327 . S
C969 H992 0.950 . S
C970 C969 1.349 . S
C970 C982 1.349 . S
C971 C969 1.327 . S
C971 C987 1.429 . S
C971 H993 0.950 . S
C972 H968 0.949 1_545 S
C972 C980 1.574 1_545 S
C972 C988 1.368 . S
H973 C981 0.950 . S
H974 C979 0.950 1_545 S
H975 C980 0.949 . S
H976 C982 0.950 . S
H977 C983 0.950 . S
H978 C984 0.949 . S
C979 H974 0.950 1_565 S
C979 C981 1.327 . S
C979 C985 1.429 . S
C980 C972 1.574 1_565 S
C980 H975 0.949 . S
C980 C986 1.377 . S
C981 C965 1.349 . S
C981 H973 0.950 . S
C981 C979 1.327 . S
C982 C970 1.349 . S
C982 H976 0.950 . S
C982 C983 1.327 . S
C983 H977 0.950 . S
C983 C982 1.327 . S
C983 C987 1.429 . S
C984 C967 1.574 . S
C984 H978 0.949 . S
C984 C988 1.368 . S
C985 C966 1.429 . S
C985 C979 1.429 . S
C985 C986 1.532 . S
C986 C967 1.352 1_565 S
C986 C980 1.377 . S
C986 C985 1.532 . S
C987 C971 1.429 . S
C987 C983 1.429 . S
C987 C988 1.523 . S
C988 C972 1.368 . S
C988 C984 1.368 . S
C988 C987 1.523 . S
H989 C964 0.950 . S
H990 C966 0.950 . S
H991 C967 0.949 . S
H992 C969 0.950 . S
H993 C971 0.950 . S
C994 C995 1.349 . S
C994 C996 1.327 . S
C994 H1019 0.950 . S
C995 C994 1.349 . S
C995 C1011 1.349 . S
C996 C994 1.327 . S
C996 C1015 1.429 . S
C996 H1020 0.950 . S
C997 C1014 1.574 . S
C997 C1016 1.368 . S
C997 H1021 0.949 . S
H998 C1002 0.949 . S
C999 C1000 1.349 . S
C999 C1001 1.327 . S
C999 H1022 0.950 . S
C1000 C999 1.349 . S
C1000 C1012 1.349 . S
C1001 C999 1.327 . S
C1001 C1017 1.429 . S
C1001 H1023 0.950 1_545 S
C1002 H998 0.949 . S
C1002 C1010 1.575 . S
C1002 C1018 1.379 . S
H1003 C1011 0.950 . S
H1004 C1009 0.950 . S
H1005 C1010 0.950 . S
H1006 C1012 0.950 . S
H1007 C1013 0.950 . S
H1008 C1014 0.949 . S
C1009 H1004 0.950 . S
C1009 C1011 1.327 . S
C1009 C1015 1.429 . S
C1010 C1002 1.575 . S
C1010 H1005 0.950 . S
C1010 C1016 1.366 1_545 S
C1011 C995 1.349 . S
C1011 H1003 0.950 . S
C1011 C1009 1.327 . S
C1012 C1000 1.349 . S
C1012 H1006 0.950 . S
C1012 C1013 1.327 . S
C1013 H1007 0.950 . S
C1013 C1012 1.327 . S
C1013 C1017 1.429 . S
C1014 C997 1.574 . S
C1014 H1008 0.949 . S
C1014 C1018 1.350 1_565 S
C1015 C996 1.429 . S
C1015 C1009 1.429 . S
C1015 C1016 1.523 . S
C1016 C997 1.368 . S
C1016 C1010 1.366 1_565 S
C1016 C1015 1.523 . S
C1017 C1001 1.429 . S
C1017 C1013 1.429 . S
C1017 C1018 1.532 . S
C1018 C1002 1.379 . S
C1018 C1014 1.350 1_545 S
C1018 C1017 1.532 . S
H1019 C994 0.950 . S
H1020 C996 0.950 . S
H1021 C997 0.949 . S
H1022 C999 0.950 . S
H1023 C1001 0.950 1_565 S
C1024 C1025 1.349 . S
C1024 C1026 1.327 . S
C1024 H1049 0.950 . S
C1025 C1024 1.349 . S
C1025 C1041 1.349 . S
C1026 C1024 1.327 . S
C1026 C1045 1.429 . S
C1026 H1050 0.950 . S
C1027 C1044 1.574 . S
C1027 C1046 1.368 . S
C1027 H1051 0.949 . S
H1028 C1032 0.949 . S
C1029 C1030 1.349 . S
C1029 C1031 1.327 . S
C1029 H1052 0.950 . S
C1030 C1029 1.349 . S
C1030 C1042 1.349 . S
C1031 C1029 1.327 . S
C1031 C1047 1.429 . S
C1031 H1053 0.950 . S
C1032 H1028 0.949 . S
C1032 C1040 1.574 . S
C1032 C1048 1.368 . S
H1033 C1041 0.950 . S
H1034 C1039 0.950 . S
H1035 C1040 0.949 . S
H1036 C1042 0.950 . S
H1037 C1043 0.950 . S
H1038 C1044 0.949 . S
C1039 H1034 0.950 . S
C1039 C1041 1.327 . S
C1039 C1045 1.429 . S
C1040 C1032 1.574 . S
C1040 H1035 0.949 . S
C1040 C1046 1.368 . S
C1041 C1025 1.349 . S
C1041 H1033 0.950 . S
C1041 C1039 1.327 . S
C1042 C1030 1.349 . S
C1042 H1036 0.950 . S
C1042 C1043 1.327 . S
C1043 H1037 0.950 . S
C1043 C1042 1.327 . S
C1043 C1047 1.429 . S
C1044 C1027 1.574 . S
C1044 H1038 0.949 . S
C1044 C1048 1.368 . S
C1045 C1026 1.429 . S
C1045 C1039 1.429 . S
C1045 C1046 1.523 . S
C1046 C1027 1.368 . S
C1046 C1040 1.368 . S
C1046 C1045 1.523 . S
C1047 C1031 1.429 . S
C1047 C1043 1.429 . S
C1047 C1048 1.523 . S
C1048 C1032 1.368 . S
C1048 C1044 1.368 . S
C1048 C1047 1.523 . S
H1049 C1024 0.950 . S
H1050 C1026 0.950 . S
H1051 C1027 0.949 . S
H1052 C1029 0.950 . S
H1053 C1031 0.950 . S
C1054 C1055 1.349 . S
C1054 C1056 1.327 . S
C1054 H1079 0.950 . S
C1055 C1054 1.349 . S
C1055 C1071 1.349 . S
C1056 C1054 1.327 . S
C1056 C1075 1.429 . S
C1056 H1080 0.950 . S
C1057 C1074 1.574 . S
C1057 C1076 1.368 . S
C1057 H1081 0.949 . S
H1058 C1062 0.949 . S
C1059 C1060 1.349 . S
C1059 C1061 1.327 . S
C1059 H1082 0.950 . S
C1060 C1059 1.349 . S
C1060 C1072 1.349 . S
C1061 C1059 1.327 . S
C1061 C1077 1.429 . S
C1061 H1083 0.950 . S
C1062 H1058 0.949 . S
C1062 C1070 1.574 . S
C1062 C1078 1.368 . S
H1063 C1071 0.950 . S
H1064 C1069 0.950 . S
H1065 C1070 0.949 . S
H1066 C1072 0.950 . S
H1067 C1073 0.950 . S
H1068 C1074 0.949 . S
C1069 H1064 0.950 . S
C1069 C1071 1.327 . S
C1069 C1075 1.429 . S
C1070 C1062 1.574 . S
C1070 H1065 0.949 . S
C1070 C1076 1.368 . S
C1071 C1055 1.349 . S
C1071 H1063 0.950 . S
C1071 C1069 1.327 . S
C1072 C1060 1.349 . S
C1072 H1066 0.950 . S
C1072 C1073 1.327 . S
C1073 H1067 0.950 . S
C1073 C1072 1.327 . S
C1073 C1077 1.429 . S
C1074 C1057 1.574 . S
C1074 H1068 0.949 . S
C1074 C1078 1.368 . S
C1075 C1056 1.429 . S
C1075 C1069 1.429 . S
C1075 C1076 1.523 . S
C1076 C1057 1.368 . S
C1076 C1070 1.368 . S
C1076 C1075 1.523 . S
C1077 C1061 1.429 . S
C1077 C1073 1.429 . S
C1077 C1078 1.523 . S
C1078 C1062 1.368 . S
C1078 C1074 1.368 . S
C1078 C1077 1.523 . S
H1079 C1054 0.950 . S
H1080 C1056 0.950 . S
H1081 C1057 0.949 . S
H1082 C1059 0.950 . S
H1083 C1061 0.950 . S
C1084 C1085 1.349 . S
C1084 C1086 1.327 . S
C1084 H1109 0.950 . S
C1085 C1084 1.349 . S
C1085 C1101 1.349 . S
C1086 C1084 1.327 . S
C1086 C1105 1.429 . S
C1086 H1110 0.950 . S
C1087 C1104 1.574 . S
C1087 C1106 1.368 . S
C1087 H1111 0.949 . S
H1088 C1092 0.949 . S
C1089 C1090 1.349 1_556 S
C1089 C1091 1.327 . S
C1089 H1112 0.943 1_556 S
C1090 C1089 1.349 1_554 S
C1090 C1102 1.349 1_554 S
C1091 C1089 1.327 . S
C1091 C1107 1.429 . S
C1091 H1113 0.950 . S
C1092 H1088 0.949 . S
C1092 C1100 1.574 . S
C1092 C1108 1.368 . S
H1093 C1101 0.950 . S
H1094 C1099 0.950 . S
H1095 C1100 0.949 . S
H1096 C1102 0.950 . S
H1097 C1103 0.950 . S
H1098 C1104 0.949 . S
C1099 H1094 0.950 . S
C1099 C1101 1.327 . S
C1099 C1105 1.429 . S
C1100 C1092 1.574 . S
C1100 H1095 0.949 . S
C1100 C1106 1.368 . S
C1101 C1085 1.349 . S
C1101 H1093 0.950 . S
C1101 C1099 1.327 . S
C1102 C1090 1.349 1_556 S
C1102 H1096 0.950 . S
C1102 C1103 1.327 . S
C1103 H1097 0.950 . S
C1103 C1102 1.327 . S
C1103 C1107 1.429 . S
C1104 C1087 1.574 . S
C1104 H1098 0.949 . S
C1104 C1108 1.368 . S
C1105 C1086 1.429 . S
C1105 C1099 1.429 . S
C1105 C1106 1.523 . S
C1106 C1087 1.368 . S
C1106 C1100 1.368 . S
C1106 C1105 1.523 . S
C1107 C1091 1.429 . S
C1107 C1103 1.429 . S
C1107 C1108 1.523 . S
C1108 C1092 1.368 . S
C1108 C1104 1.368 . S
C1108 C1107 1.523 . S
H1109 C1084 0.950 . S
H1110 C1086 0.950 . S
H1111 C1087 0.949 . S
H1112 C1089 0.943 1_554 S
H1113 C1091 0.950 . S
C1114 C1115 1.349 . S
C1114 C1116 1.327 . S
C1114 H1139 0.950 . S
C1115 C1114 1.349 . S
C1115 C1131 1.349 . S
C1116 C1114 1.327 . S
C1116 C1135 1.429 . S
C1116 H1140 0.950 . S
C1117 C1134 1.574 . S
C1117 C1136 1.368 . S
C1117 H1141 0.949 . S
H1118 C1122 0.949 . S
C1119 C1120 1.349 1_556 S
C1119 C1121 1.327 . S
C1119 H1142 0.943 1_556 S
C1120 C1119 1.349 1_554 S
C1120 C1132 1.349 1_554 S
C1121 C1119 1.327 . S
C1121 C1137 1.429 . S
C1121 H1143 0.950 . S
C1122 H1118 0.949 . S
C1122 C1130 1.574 . S
C1122 C1138 1.368 . S
H1123 C1131 0.950 . S
H1124 C1129 0.950 . S
H1125 C1130 0.949 . S
H1126 C1132 0.950 . S
H1127 C1133 0.950 . S
H1128 C1134 0.949 . S
C1129 H1124 0.950 . S
C1129 C1131 1.327 . S
C1129 C1135 1.429 . S
C1130 C1122 1.574 . S
C1130 H1125 0.949 . S
C1130 C1136 1.368 . S
C1131 C1115 1.349 . S
C1131 H1123 0.950 . S
C1131 C1129 1.327 . S
C1132 C1120 1.349 1_556 S
C1132 H1126 0.950 . S
C1132 C1133 1.327 . S
C1133 H1127 0.950 . S
C1133 C1132 1.327 . S
C1133 C1137 1.429 . S
C1134 C1117 1.574 . S
C1134 H1128 0.949 . S
C1134 C1138 1.368 . S
C1135 C1116 1.429 . S
C1135 C1129 1.429 . S
C1135 C1136 1.523 . S
C1136 C1117 1.368 . S
C1136 C1130 1.368 . S
C1136 C1135 1.523 . S
C1137 C1121 1.429 . S
C1137 C1133 1.429 . S
C1137 C1138 1.523 . S
C1138 C1122 1.368 . S
C1138 C1134 1.368 . S
C1138 C1137 1.523 . S
H1139 C1114 0.950 . S
H1140 C1116 0.950 . S
H1141 C1117 0.949 . S
H1142 C1119 0.943 1_554 S
H1143 C1121 0.950 . S
C1144 C1145 1.349 . S
C1144 C1146 1.327 . S
C1144 H1169 0.950 . S
C1145 C1144 1.349 . S
C1145 C1161 1.349 . S
C1146 C1144 1.327 . S
C1146 C1165 1.429 . S
C1146 H1170 0.950 . S
C1147 C1164 1.574 1_554 S
C1147 C1166 1.368 . S
C1147 H1171 0.949 . S
H1148 C1152 0.949 . S
C1149 C1150 1.349 . S
C1149 C1151 1.327 . S
C1149 H1172 0.950 . S
C1150 C1149 1.349 . S
C1150 C1162 1.349 . S
C1151 C1149 1.327 . S
C1151 C1167 1.429 . S
C1151 H1173 0.950 . S
C1152 H1148 0.949 . S
C1152 C1160 1.574 1_556 S
C1152 C1168 1.368 . S
H1153 C1161 0.950 . S
H1154 C1159 0.950 . S
H1155 C1160 0.949 . S
H1156 C1162 0.950 . S
H1157 C1163 0.950 . S
H1158 C1164 0.949 . S
C1159 H1154 0.950 . S
C1159 C1161 1.327 . S
C1159 C1165 1.429 . S
C1160 C1152 1.574 1_554 S
C1160 H1155 0.949 . S
C1160 C1166 1.368 . S
C1161 C1145 1.349 . S
C1161 H1153 0.950 . S
C1161 C1159 1.327 . S
C1162 C1150 1.349 . S
C1162 H1156 0.950 . S
C1162 C1163 1.327 . S
C1163 H1157 0.950 . S
C1163 C1162 1.327 . S
C1163 C1167 1.429 . S
C1164 C1147 1.574 1_556 S
C1164 H1158 0.949 . S
C1164 C1168 1.368 . S
C1165 C1146 1.429 . S
C1165 C1159 1.429 . S
C1165 C1166 1.523 . S
C1166 C1147 1.368 . S
C1166 C1160 1.368 . S
C1166 C1165 1.523 . S
C1167 C1151 1.429 . S
C1167 C1163 1.429 . S
C1167 C1168 1.523 . S
C1168 C1152 1.368 . S
C1168 C1164 1.368 . S
C1168 C1167 1.523 . S
H1169 C1144 0.950 . S
H1170 C1146 0.950 . S
H1171 C1147 0.949 . S
H1172 C1149 0.950 . S
H1173 C1151 0.950 . S
C1174 C1175 1.349 . S
C1174 C1176 1.327 . S
C1174 H1199 0.950 . S
C1175 C1174 1.349 . S
C1175 C1191 1.349 . S
C1176 C1174 1.327 . S
C1176 C1195 1.429 . S
C1176 H1200 0.950 . S
C1177 C1194 1.574 1_554 S
C1177 C1196 1.368 . S
C1177 H1201 0.949 . S
H1178 C1182 0.949 . S
C1179 C1180 1.349 . S
C1179 C1181 1.327 . S
C1179 H1202 0.950 . S
C1180 C1179 1.349 . S
C1180 C1192 1.349 . S
C1181 C1179 1.327 . S
C1181 C1197 1.429 . S
C1181 H1203 0.950 . S
C1182 H1178 0.949 . S
C1182 C1190 1.574 1_556 S
C1182 C1198 1.368 . S
H1183 C1191 0.950 . S
H1184 C1189 0.950 . S
H1185 C1190 0.949 . S
H1186 C1192 0.950 . S
H1187 C1193 0.950 . S
H1188 C1194 0.949 . S
C1189 H1184 0.950 . S
C1189 C1191 1.327 . S
C1189 C1195 1.429 . S
C1190 C1182 1.574 1_554 S
C1190 H1185 0.949 . S
C1190 C1196 1.368 . S
C1191 C1175 1.349 . S
C1191 H1183 0.950 . S
C1191 C1189 1.327 . S
C1192 C1180 1.349 . S
C1192 H1186 0.950 . S
C1192 C1193 1.327 . S
C1193 H1187 0.950 . S
C1193 C1192 1.327 . S
C1193 C1197 1.429 . S
C1194 C1177 1.574 1_556 S
C1194 H1188 0.949 . S
C1194 C1198 1.368 . S
C1195 C1176 1.429 . S
C1195 C1189 1.429 . S
C1195 C1196 1.523 . S
C1196 C1177 1.368 . S
C1196 C1190 1.368 . S
C1196 C1195 1.523 . S
C1197 C1181 1.429 . S
C1197 C1193 1.429 . S
C1197 C1198 1.523 . S
C1198 C1182 1.368 . S
C1198 C1194 1.368 . S
C1198 C1197 1.523 . S
H1199 C1174 0.950 . S
H1200 C1176 0.950 . S
H1201 C1177 0.949 . S
H1202 C1179 0.950 . S
H1203 C1181 0.950 . S
C1204 C1205 1.349 . S
C1204 C1206 1.327 . S
C1204 H1229 0.950 . S
C1205 C1204 1.349 . S
C1205 C1221 1.349 . S
C1206 C1204 1.327 . S
C1206 C1225 1.429 . S
C1206 H1230 0.950 . S
C1207 C1224 1.574 . S
C1207 C1226 1.368 . S
C1207 H1231 0.949 . S
H1208 C1212 0.949 . S
C1209 C1210 1.349 1_554 S
C1209 C1211 1.327 . S
C1209 H1232 0.950 . S
C1210 C1209 1.349 1_556 S
C1210 C1222 1.349 1_556 S
C1211 C1209 1.327 . S
C1211 C1227 1.429 . S
C1211 H1233 0.950 . S
C1212 H1208 0.949 . S
C1212 C1220 1.574 . S
C1212 C1228 1.368 . S
H1213 C1221 0.950 . S
H1214 C1219 0.950 . S
H1215 C1220 0.949 . S
H1216 C1222 0.950 . S
H1217 C1223 0.950 . S
H1218 C1224 0.949 . S
C1219 H1214 0.950 . S
C1219 C1221 1.327 . S
C1219 C1225 1.429 . S
C1220 C1212 1.574 . S
C1220 H1215 0.949 . S
C1220 C1226 1.368 . S
C1221 C1205 1.349 . S
C1221 H1213 0.950 . S
C1221 C1219 1.327 . S
C1222 C1210 1.349 1_554 S
C1222 H1216 0.950 . S
C1222 C1223 1.327 . S
C1223 H1217 0.950 . S
C1223 C1222 1.327 . S
C1223 C1227 1.429 . S
C1224 C1207 1.574 . S
C1224 H1218 0.949 . S
C1224 C1228 1.368 . S
C1225 C1206 1.429 . S
C1225 C1219 1.429 . S
C1225 C1226 1.523 . S
C1226 C1207 1.368 . S
C1226 C1220 1.368 . S
C1226 C1225 1.523 . S
C1227 C1211 1.429 . S
C1227 C1223 1.429 . S
C1227 C1228 1.523 . S
C1228 C1212 1.368 . S
C1228 C1224 1.368 . S
C1228 C1227 1.523 . S
H1229 C1204 0.950 . S
H1230 C1206 0.950 . S
H1231 C1207 0.949 . S
H1232 C1209 0.950 . S
H1233 C1211 0.950 . S
C1234 C1235 1.349 1_554 S
C1234 C1236 1.327 . S
C1234 H1259 0.950 . S
C1235 C1234 1.349 1_556 S
C1235 C1251 1.349 1_556 S
C1236 C1234 1.327 . S
C1236 C1255 1.429 . S
C1236 H1260 0.950 . S
C1237 C1254 1.574 . S
C1237 C1256 1.368 . S
C1237 H1261 0.949 . S
H1238 C1242 0.949 . S
C1239 C1240 1.349 . S
C1239 C1241 1.327 . S
C1239 H1262 0.950 . S
C1240 C1239 1.349 . S
C1240 C1252 1.349 . S
C1241 C1239 1.327 . S
C1241 C1257 1.429 . S
C1241 H1263 0.950 . S
C1242 H1238 0.949 . S
C1242 C1250 1.574 . S
C1242 C1258 1.368 . S
H1243 C1251 0.950 1_556 S
H1244 C1249 0.950 . S
H1245 C1250 0.949 . S
H1246 C1252 0.950 . S
H1247 C1253 0.950 . S
H1248 C1254 0.949 . S
C1249 H1244 0.950 . S
C1249 C1251 1.327 . S
C1249 C1255 1.429 . S
C1250 C1242 1.574 . S
C1250 H1245 0.949 . S
C1250 C1256 1.368 . S
C1251 C1235 1.349 1_554 S
C1251 H1243 0.950 1_554 S
C1251 C1249 1.327 . S
C1252 C1240 1.349 . S
C1252 H1246 0.950 . S
C1252 C1253 1.327 . S
C1253 H1247 0.950 . S
C1253 C1252 1.327 . S
C1253 C1257 1.429 . S
C1254 C1237 1.574 . S
C1254 H1248 0.949 . S
C1254 C1258 1.368 . S
C1255 C1236 1.429 . S
C1255 C1249 1.429 . S
C1255 C1256 1.523 . S
C1256 C1237 1.368 . S
C1256 C1250 1.368 . S
C1256 C1255 1.523 . S
C1257 C1241 1.429 . S
C1257 C1253 1.429 . S
C1257 C1258 1.523 . S
C1258 C1242 1.368 . S
C1258 C1254 1.368 . S
C1258 C1257 1.523 . S
H1259 C1234 0.950 . S
H1260 C1236 0.950 . S
H1261 C1237 0.949 . S
H1262 C1239 0.950 . S
H1263 C1241 0.950 . S
C1264 C1265 1.349 . S
C1264 C1266 1.327 . S
C1264 H1289 0.950 . S
C1265 C1264 1.349 . S
C1265 C1281 1.349 . S
C1266 C1264 1.327 . S
C1266 C1285 1.429 . S
C1266 H1290 0.950 . S
C1267 C1284 1.574 1_554 S
C1267 C1286 1.368 . S
C1267 H1291 0.949 . S
H1268 C1272 0.949 . S
C1269 C1270 1.349 . S
C1269 C1271 1.327 . S
C1269 H1292 0.950 . S
C1270 C1269 1.349 . S
C1270 C1282 1.349 . S
C1271 C1269 1.327 . S
C1271 C1287 1.429 . S
C1271 H1293 0.950 . S
C1272 H1268 0.949 . S
C1272 C1280 1.574 1_556 S
C1272 C1288 1.368 . S
H1273 C1281 0.950 . S
H1274 C1279 0.950 . S
H1275 C1280 0.949 . S
H1276 C1282 0.950 . S
H1277 C1283 0.950 . S
H1278 C1284 0.949 . S
C1279 H1274 0.950 . S
C1279 C1281 1.327 . S
C1279 C1285 1.429 . S
C1280 C1272 1.574 1_554 S
C1280 H1275 0.949 . S
C1280 C1286 1.368 . S
C1281 C1265 1.349 . S
C1281 H1273 0.950 . S
C1281 C1279 1.327 . S
C1282 C1270 1.349 . S
C1282 H1276 0.950 . S
C1282 C1283 1.327 . S
C1283 H1277 0.950 . S
C1283 C1282 1.327 . S
C1283 C1287 1.429 . S
C1284 C1267 1.574 1_556 S
C1284 H1278 0.949 . S
C1284 C1288 1.368 . S
C1285 C1266 1.429 . S
C1285 C1279 1.429 . S
C1285 C1286 1.523 . S
C1286 C1267 1.368 . S
C1286 C1280 1.368 . S
C1286 C1285 1.523 . S
C1287 C1271 1.429 . S
C1287 C1283 1.429 . S
C1287 C1288 1.523 . S
C1288 C1272 1.368 . S
C1288 C1284 1.368 . S
C1288 C1287 1.523 . S
H1289 C1264 0.950 . S
H1290 C1266 0.950 . S
H1291 C1267 0.949 . S
H1292 C1269 0.950 . S
H1293 C1271 0.950 . S
C1294 C1295 1.349 . S
C1294 C1296 1.327 . S
C1294 H1319 0.950 . S
C1295 C1294 1.349 . S
C1295 C1311 1.349 . S
C1296 C1294 1.327 . S
C1296 C1315 1.429 . S
C1296 H1320 0.950 . S
C1297 C1314 1.574 1_554 S
C1297 C1316 1.368 . S
C1297 H1321 0.949 . S
H1298 C1302 0.949 . S
C1299 C1300 1.349 . S
C1299 C1301 1.327 . S
C1299 H1322 0.950 . S
C1300 C1299 1.349 . S
C1300 C1312 1.349 . S
C1301 C1299 1.327 . S
C1301 C1317 1.429 . S
C1301 H1323 0.950 . S
C1302 H1298 0.949 . S
C1302 C1310 1.574 1_556 S
C1302 C1318 1.368 . S
H1303 C1311 0.950 . S
H1304 C1309 0.950 . S
H1305 C1310 0.949 . S
H1306 C1312 0.950 . S
H1307 C1313 0.950 . S
H1308 C1314 0.949 . S
C1309 H1304 0.950 . S
C1309 C1311 1.327 . S
C1309 C1315 1.429 . S
C1310 C1302 1.574 1_554 S
C1310 H1305 0.949 . S
C1310 C1316 1.368 . S
C1311 C1295 1.349 . S
C1311 H1303 0.950 . S
C1311 C1309 1.327 . S
C1312 C1300 1.349 . S
C1312 H1306 0.950 . S
C1312 C1313 1.327 . S
C1313 H1307 0.950 . S
C1313 C1312 1.327 . S
C1313 C1317 1.429 . S
C1314 C1297 1.574 1_556 S
C1314 H1308 0.949 . S
C1314 C1318 1.368 . S
C1315 C1296 1.429 . S
C1315 C1309 1.429 . S
C1315 C1316 1.523 . S
C1316 C1297 1.368 . S
C1316 C1310 1.368 . S
C1316 C1315 1.523 . S
C1317 C1301 1.429 . S
C1317 C1313 1.429 . S
C1317 C1318 1.523 . S
C1318 C1302 1.368 . S
C1318 C1314 1.368 . S
C1318 C1317 1.523 . S
H1319 C1294 0.950 . S
H1320 C1296 0.950 . S
H1321 C1297 0.949 . S
H1322 C1299 0.950 . S
H1323 C1301 0.950 . S
C1324 C1325 1.349 1_554 S
C1324 C1326 1.327 . S
C1324 H1349 0.950 1_554 S
C1325 C1324 1.349 1_556 S
C1325 C1341 1.349 1_556 S
C1326 C1324 1.327 . S
C1326 C1345 1.429 . S
C1326 H1350 0.950 . S
C1327 C1344 1.574 . S
C1327 C1346 1.368 . S
C1327 H1351 0.949 . S
H1328 C1332 0.949 . S
C1329 C1330 1.349 . S
C1329 C1331 1.327 . S
C1329 H1352 0.950 . S
C1330 C1329 1.349 . S
C1330 C1342 1.349 . S
C1331 C1329 1.327 . S
C1331 C1347 1.429 . S
C1331 H1353 0.950 . S
C1332 H1328 0.949 . S
C1332 C1340 1.574 . S
C1332 C1348 1.368 . S
H1333 C1341 0.950 . S
H1334 C1339 0.950 . S
H1335 C1340 0.949 . S
H1336 C1342 0.950 . S
H1337 C1343 0.950 . S
H1338 C1344 0.949 . S
C1339 H1334 0.950 . S
C1339 C1341 1.327 . S
C1339 C1345 1.429 . S
C1340 C1332 1.574 . S
C1340 H1335 0.949 . S
C1340 C1346 1.368 . S
C1341 C1325 1.349 1_554 S
C1341 H1333 0.950 . S
C1341 C1339 1.327 . S
C1342 C1330 1.349 . S
C1342 H1336 0.950 . S
C1342 C1343 1.327 . S
C1343 H1337 0.950 . S
C1343 C1342 1.327 . S
C1343 C1347 1.429 . S
C1344 C1327 1.574 . S
C1344 H1338 0.949 . S
C1344 C1348 1.368 . S
C1345 C1326 1.429 . S
C1345 C1339 1.429 . S
C1345 C1346 1.523 . S
C1346 C1327 1.368 . S
C1346 C1340 1.368 . S
C1346 C1345 1.523 . S
C1347 C1331 1.429 . S
C1347 C1343 1.429 . S
C1347 C1348 1.523 . S
C1348 C1332 1.368 . S
C1348 C1344 1.368 . S
C1348 C1347 1.523 . S
H1349 C1324 0.950 1_556 S
H1350 C1326 0.950 . S
H1351 C1327 0.949 . S
H1352 C1329 0.950 . S
H1353 C1331 0.950 . S
C1354 C1355 1.349 . S
C1354 C1356 1.327 . S
C1354 H1379 0.950 . S
C1355 C1354 1.349 . S
C1355 C1371 1.349 . S
C1356 C1354 1.327 . S
C1356 C1375 1.429 . S
C1356 H1380 0.950 . S
C1357 C1374 1.574 . S
C1357 C1376 1.368 . S
C1357 H1381 0.949 . S
H1358 C1362 0.949 . S
C1359 C1360 1.349 1_554 S
C1359 C1361 1.327 . S
C1359 H1382 0.950 . S
C1360 C1359 1.349 1_556 S
C1360 C1372 1.349 1_556 S
C1361 C1359 1.327 . S
C1361 C1377 1.429 . S
C1361 H1383 0.950 . S
C1362 H1358 0.949 . S
C1362 C1370 1.574 . S
C1362 C1378 1.368 . S
H1363 C1371 0.950 . S
H1364 C1369 0.950 . S
H1365 C1370 0.949 . S
H1366 C1372 0.950 . S
H1367 C1373 0.950 . S
H1368 C1374 0.949 . S
C1369 H1364 0.950 . S
C1369 C1371 1.327 . S
C1369 C1375 1.429 . S
C1370 C1362 1.574 . S
C1370 H1365 0.949 . S
C1370 C1376 1.368 . S
C1371 C1355 1.349 . S
C1371 H1363 0.950 . S
C1371 C1369 1.327 . S
C1372 C1360 1.349 1_554 S
C1372 H1366 0.950 . S
C1372 C1373 1.327 . S
C1373 H1367 0.950 . S
C1373 C1372 1.327 . S
C1373 C1377 1.429 . S
C1374 C1357 1.574 . S
C1374 H1368 0.949 . S
C1374 C1378 1.368 . S
C1375 C1356 1.429 . S
C1375 C1369 1.429 . S
C1375 C1376 1.523 . S
C1376 C1357 1.368 . S
C1376 C1370 1.368 . S
C1376 C1375 1.523 . S
C1377 C1361 1.429 . S
C1377 C1373 1.429 . S
C1377 C1378 1.523 . S
C1378 C1362 1.368 . S
C1378 C1374 1.368 . S
C1378 C1377 1.523 . S
H1379 C1354 0.950 . S
H1380 C1356 0.950 . S
H1381 C1357 0.949 . S
H1382 C1359 0.950 . S
H1383 C1361 0.950 . S
C1384 C1385 1.349 . S
C1384 C1386 1.327 . S
C1384 H1409 0.950 . S
C1385 C1384 1.349 . S
C1385 C1401 1.349 . S
C1386 C1384 1.327 . S
C1386 C1405 1.429 . S
C1386 H1410 0.950 . S
C1387 C1404 1.574 . S
C1387 C1406 1.368 . S
C1387 H1411 0.949 . S
H1388 C1392 0.949 . S
C1389 C1390 1.349 . S
C1389 C1391 1.327 . S
C1389 H1412 0.950 . S
C1390 C1389 1.349 . S
C1390 C1402 1.349 . S
C1391 C1389 1.327 . S
C1391 C1407 1.429 . S
C1391 H1413 0.950 . S
C1392 H1388 0.949 . S
C1392 C1400 1.574 . S
C1392 C1408 1.368 . S
H1393 C1401 0.950 . S
H1394 C1399 0.950 . S
H1395 C1400 0.949 . S
H1396 C1402 0.950 . S
H1397 C1403 0.950 . S
H1398 C1404 0.949 . S
C1399 H1394 0.950 . S
C1399 C1401 1.327 . S
C1399 C1405 1.429 . S
C1400 C1392 1.574 . S
C1400 H1395 0.949 . S
C1400 C1406 1.368 . S
C1401 C1385 1.349 . S
C1401 H1393 0.950 . S
C1401 C1399 1.327 . S
C1402 C1390 1.349 . S
C1402 H1396 0.950 . S
C1402 C1403 1.327 . S
C1403 H1397 0.950 . S
C1403 C1402 1.327 . S
C1403 C1407 1.429 . S
C1404 C1387 1.574 . S
C1404 H1398 0.949 . S
C1404 C1408 1.368 . S
C1405 C1386 1.429 . S
C1405 C1399 1.429 . S
C1405 C1406 1.523 . S
C1406 C1387 1.368 . S
C1406 C1400 1.368 . S
C1406 C1405 1.523 . S
C1407 C1391 1.429 . S
C1407 C1403 1.429 . S
C1407 C1408 1.523 . S
C1408 C1392 1.368 . S
C1408 C1404 1.368 . S
C1408 C1407 1.523 . S
H1409 C1384 0.950 . S
H1410 C1386 0.950 . S
H1411 C1387 0.949 . S
H1412 C1389 0.950 . S
H1413 C1391 0.950 . S
C1414 C1415 1.349 . S
C1414 C1416 1.327 . S
C1414 H1439 0.950 . S
C1415 C1414 1.349 . S
C1415 C1431 1.349 . S
C1416 C1414 1.327 . S
C1416 C1435 1.429 . S
C1416 H1440 0.950 . S
C1417 C1434 1.574 . S
C1417 C1436 1.368 . S
C1417 H1441 0.949 . S
H1418 C1422 0.949 . S
C1419 C1420 1.349 . S
C1419 C1421 1.327 . S
C1419 H1442 0.950 . S
C1420 C1419 1.349 . S
C1420 C1432 1.349 . S
C1421 C1419 1.327 . S
C1421 C1437 1.429 . S
C1421 H1443 0.950 . S
C1422 H1418 0.949 . S
C1422 C1430 1.574 . S
C1422 C1438 1.368 . S
H1423 C1431 0.950 . S
H1424 C1429 0.950 . S
H1425 C1430 0.949 . S
H1426 C1432 0.950 . S
H1427 C1433 0.950 . S
H1428 C1434 0.949 . S
C1429 H1424 0.950 . S
C1429 C1431 1.327 . S
C1429 C1435 1.429 . S
C1430 C1422 1.574 . S
C1430 H1425 0.949 . S
C1430 C1436 1.368 . S
C1431 C1415 1.349 . S
C1431 H1423 0.950 . S
C1431 C1429 1.327 . S
C1432 C1420 1.349 . S
C1432 H1426 0.950 . S
C1432 C1433 1.327 . S
C1433 H1427 0.950 . S
C1433 C1432 1.327 . S
C1433 C1437 1.429 . S
C1434 C1417 1.574 . S
C1434 H1428 0.949 . S
C1434 C1438 1.368 . S
C1435 C1416 1.429 . S
C1435 C1429 1.429 . S
C1435 C1436 1.523 . S
C1436 C1417 1.368 . S
C1436 C1430 1.368 . S
C1436 C1435 1.523 . S
C1437 C1421 1.429 . S
C1437 C1433 1.429 . S
C1437 C1438 1.523 . S
C1438 C1422 1.368 . S
C1438 C1434 1.368 . S
C1438 C1437 1.523 . S
H1439 C1414 0.950 . S
H1440 C1416 0.950 . S
H1441 C1417 0.949 . S
H1442 C1419 0.950 . S
H1443 C1421 0.950 . S
C1444 C1445 1.349 1_556 S
C1444 C1446 1.327 . S
C1444 H1469 0.950 . S
C1445 C1444 1.349 1_554 S
C1445 C1461 1.349 1_554 S
C1446 C1444 1.327 . S
C1446 C1465 1.429 . S
C1446 H1470 0.950 . S
C1447 C1464 1.574 . S
C1447 C1466 1.368 . S
C1447 H1471 0.949 . S
H1448 C1452 0.949 . S
C1449 C1450 1.349 . S
C1449 C1451 1.327 . S
C1449 H1472 0.950 . S
C1450 C1449 1.349 . S
C1450 C1462 1.349 . S
C1451 C1449 1.327 . S
C1451 C1467 1.429 . S
C1451 H1473 0.950 . S
C1452 H1448 0.949 . S
C1452 C1460 1.574 . S
C1452 C1468 1.368 . S
H1453 C1461 0.950 . S
H1454 C1459 0.950 . S
H1455 C1460 0.949 . S
H1456 C1462 0.950 . S
H1457 C1463 0.950 . S
H1458 C1464 0.949 . S
C1459 H1454 0.950 . S
C1459 C1461 1.327 . S
C1459 C1465 1.429 . S
C1460 C1452 1.574 . S
C1460 H1455 0.949 . S
C1460 C1466 1.368 . S
C1461 C1445 1.349 1_556 S
C1461 H1453 0.950 . S
C1461 C1459 1.327 . S
C1462 C1450 1.349 . S
C1462 H1456 0.950 . S
C1462 C1463 1.327 . S
C1463 H1457 0.950 . S
C1463 C1462 1.327 . S
C1463 C1467 1.429 . S
C1464 C1447 1.574 . S
C1464 H1458 0.949 . S
C1464 C1468 1.368 . S
C1465 C1446 1.429 . S
C1465 C1459 1.429 . S
C1465 C1466 1.523 . S
C1466 C1447 1.368 . S
C1466 C1460 1.368 . S
C1466 C1465 1.523 . S
C1467 C1451 1.429 . S
C1467 C1463 1.429 . S
C1467 C1468 1.523 . S
C1468 C1452 1.368 . S
C1468 C1464 1.368 . S
C1468 C1467 1.523 . S
H1469 C1444 0.950 . S
H1470 C1446 0.950 . S
H1471 C1447 0.949 . S
H1472 C1449 0.950 . S
H1473 C1451 0.950 . S
C1474 C1475 1.349 1_556 S
C1474 C1476 1.327 . S
C1474 H1499 0.950 . S
C1475 C1474 1.349 1_554 S
C1475 C1491 1.349 1_554 S
C1476 C1474 1.327 . S
C1476 C1495 1.429 . S
C1476 H1500 0.950 . S
C1477 C1494 1.574 . S
C1477 C1496 1.368 . S
C1477 H1501 0.949 . S
H1478 C1482 0.949 . S
C1479 C1480 1.349 . S
C1479 C1481 1.327 . S
C1479 H1502 0.950 . S
C1480 C1479 1.349 . S
C1480 C1492 1.349 . S
C1481 C1479 1.327 . S
C1481 C1497 1.429 . S
C1481 H1503 0.950 . S
C1482 H1478 0.949 . S
C1482 C1490 1.574 . S
C1482 C1498 1.368 . S
H1483 C1491 0.950 . S
H1484 C1489 0.950 . S
H1485 C1490 0.949 . S
H1486 C1492 0.950 . S
H1487 C1493 0.950 . S
H1488 C1494 0.949 . S
C1489 H1484 0.950 . S
C1489 C1491 1.327 . S
C1489 C1495 1.429 . S
C1490 C1482 1.574 . S
C1490 H1485 0.949 . S
C1490 C1496 1.368 . S
C1491 C1475 1.349 1_556 S
C1491 H1483 0.950 . S
C1491 C1489 1.327 . S
C1492 C1480 1.349 . S
C1492 H1486 0.950 . S
C1492 C1493 1.327 . S
C1493 H1487 0.950 . S
C1493 C1492 1.327 . S
C1493 C1497 1.429 . S
C1494 C1477 1.574 . S
C1494 H1488 0.949 . S
C1494 C1498 1.368 . S
C1495 C1476 1.429 . S
C1495 C1489 1.429 . S
C1495 C1496 1.523 . S
C1496 C1477 1.368 . S
C1496 C1490 1.368 . S
C1496 C1495 1.523 . S
C1497 C1481 1.429 . S
C1497 C1493 1.429 . S
C1497 C1498 1.523 . S
C1498 C1482 1.368 . S
C1498 C1494 1.368 . S
C1498 C1497 1.523 . S
H1499 C1474 0.950 . S
H1500 C1476 0.950 . S
H1501 C1477 0.949 . S
H1502 C1479 0.950 . S
H1503 C1481 0.950 . S
C1504 C1505 1.349 . S
C1504 C1506 1.327 . S
C1504 H1529 0.950 . S
C1505 C1504 1.349 . S
C1505 C1521 1.349 . S
C1506 C1504 1.327 . S
C1506 C1525 1.429 . S
C1506 H1530 0.950 . S
C1507 C1524 1.574 1_545 S
C1507 C1526 1.368 . S
C1507 H1531 0.949 . S
H1508 C1512 0.949 . S
C1509 C1510 1.349 . S
C1509 C1511 1.327 . S
C1509 H1532 0.950 . S
C1510 C1509 1.349 . S
C1510 C1522 1.349 . S
C1511 C1509 1.327 . S
C1511 C1527 1.429 . S
C1511 H1533 0.950 . S
C1512 H1508 0.949 . S
C1512 C1520 1.574 1_565 S
C1512 C1528 1.368 . S
H1513 C1521 0.950 . S
H1514 C1519 0.950 . S
H1515 C1520 0.949 . S
H1516 C1522 0.950 . S
H1517 C1523 0.950 . S
H1518 C1524 0.949 . S
C1519 H1514 0.950 . S
C1519 C1521 1.327 . S
C1519 C1525 1.429 . S
C1520 C1512 1.574 1_545 S
C1520 H1515 0.949 . S
C1520 C1526 1.368 . S
C1521 C1505 1.349 . S
C1521 H1513 0.950 . S
C1521 C1519 1.327 . S
C1522 C1510 1.349 . S
C1522 H1516 0.950 . S
C1522 C1523 1.327 . S
C1523 H1517 0.950 . S
C1523 C1522 1.327 . S
C1523 C1527 1.429 . S
C1524 C1507 1.574 1_565 S
C1524 H1518 0.949 . S
C1524 C1528 1.368 . S
C1525 C1506 1.429 . S
C1525 C1519 1.429 . S
C1525 C1526 1.523 . S
C1526 C1507 1.368 . S
C1526 C1520 1.368 . S
C1526 C1525 1.523 . S
C1527 C1511 1.429 . S
C1527 C1523 1.429 . S
C1527 C1528 1.523 . S
C1528 C1512 1.368 . S
C1528 C1524 1.368 . S
C1528 C1527 1.523 . S
H1529 C1504 0.950 . S
H1530 C1506 0.950 . S
H1531 C1507 0.949 . S
H1532 C1509 0.950 . S
H1533 C1511 0.950 . S
C1534 C1535 1.349 . S
C1534 C1536 1.327 . S
C1534 H1559 0.950 . S
C1535 C1534 1.349 . S
C1535 C1551 1.349 . S
C1536 C1534 1.327 . S
C1536 C1555 1.429 . S
C1536 H1560 0.950 . S
C1537 C1554 1.574 . S
C1537 C1556 1.368 . S
C1537 H1561 0.949 . S
H1538 C1542 0.949 . S
C1539 C1540 1.349 . S
C1539 C1541 1.327 . S
C1539 H1562 0.950 . S
C1540 C1539 1.349 . S
C1540 C1552 1.349 . S
C1541 C1539 1.327 . S
C1541 C1557 1.429 . S
C1541 H1563 0.950 . S
C1542 H1538 0.949 . S
C1542 C1550 1.574 . S
C1542 C1558 1.368 . S
H1543 C1551 0.950 . S
H1544 C1549 0.950 . S
H1545 C1550 0.949 . S
H1546 C1552 0.950 . S
H1547 C1553 0.950 . S
H1548 C1554 0.949 . S
C1549 H1544 0.950 . S
C1549 C1551 1.327 . S
C1549 C1555 1.429 . S
C1550 C1542 1.574 . S
C1550 H1545 0.949 . S
C1550 C1556 1.368 . S
C1551 C1535 1.349 . S
C1551 H1543 0.950 . S
C1551 C1549 1.327 . S
C1552 C1540 1.349 . S
C1552 H1546 0.950 . S
C1552 C1553 1.327 . S
C1553 H1547 0.950 . S
C1553 C1552 1.327 . S
C1553 C1557 1.429 . S
C1554 C1537 1.574 . S
C1554 H1548 0.949 . S
C1554 C1558 1.368 . S
C1555 C1536 1.429 . S
C1555 C1549 1.429 . S
C1555 C1556 1.523 . S
C1556 C1537 1.368 . S
C1556 C1550 1.368 . S
C1556 C1555 1.523 . S
C1557 C1541 1.429 . S
C1557 C1553 1.429 . S
C1557 C1558 1.523 . S
C1558 C1542 1.368 . S
C1558 C1554 1.368 . S
C1558 C1557 1.523 . S
H1559 C1534 0.950 . S
H1560 C1536 0.950 . S
H1561 C1537 0.949 . S
H1562 C1539 0.950 . S
H1563 C1541 0.950 . S
C1564 C1565 1.349 . S
C1564 C1566 1.327 . S
C1564 H1589 0.950 . S
C1565 C1564 1.349 . S
C1565 C1581 1.349 . S
C1566 C1564 1.327 . S
C1566 C1585 1.429 . S
C1566 H1590 0.950 . S
C1567 C1584 1.574 . S
C1567 C1586 1.368 . S
C1567 H1591 0.949 . S
H1568 C1572 0.949 . S
C1569 C1570 1.349 . S
C1569 C1571 1.327 . S
C1569 H1592 0.950 . S
C1570 C1569 1.349 . S
C1570 C1582 1.349 . S
C1571 C1569 1.327 . S
C1571 C1587 1.429 . S
C1571 H1593 0.950 . S
C1572 H1568 0.949 . S
C1572 C1580 1.574 . S
C1572 C1588 1.368 . S
H1573 C1581 0.950 . S
H1574 C1579 0.950 . S
H1575 C1580 0.949 . S
H1576 C1582 0.950 . S
H1577 C1583 0.950 . S
H1578 C1584 0.949 . S
C1579 H1574 0.950 . S
C1579 C1581 1.327 . S
C1579 C1585 1.429 . S
C1580 C1572 1.574 . S
C1580 H1575 0.949 . S
C1580 C1586 1.368 . S
C1581 C1565 1.349 . S
C1581 H1573 0.950 . S
C1581 C1579 1.327 . S
C1582 C1570 1.349 . S
C1582 H1576 0.950 . S
C1582 C1583 1.327 . S
C1583 H1577 0.950 . S
C1583 C1582 1.327 . S
C1583 C1587 1.429 . S
C1584 C1567 1.574 . S
C1584 H1578 0.949 . S
C1584 C1588 1.368 . S
C1585 C1566 1.429 . S
C1585 C1579 1.429 . S
C1585 C1586 1.523 . S
C1586 C1567 1.368 . S
C1586 C1580 1.368 . S
C1586 C1585 1.523 . S
C1587 C1571 1.429 . S
C1587 C1583 1.429 . S
C1587 C1588 1.523 . S
C1588 C1572 1.368 . S
C1588 C1584 1.368 . S
C1588 C1587 1.523 . S
H1589 C1564 0.950 . S
H1590 C1566 0.950 . S
H1591 C1567 0.949 . S
H1592 C1569 0.950 . S
H1593 C1571 0.950 . S
C1594 C1595 1.349 . S
C1594 C1596 1.327 . S
C1594 H1619 0.950 . S
C1595 C1594 1.349 . S
C1595 C1611 1.349 . S
C1596 C1594 1.327 . S
C1596 C1615 1.429 . S
C1596 H1620 0.950 . S
C1597 C1614 1.574 . S
C1597 C1616 1.368 . S
C1597 H1621 0.949 . S
H1598 C1602 0.949 . S
C1599 C1600 1.349 . S
C1599 C1601 1.327 . S
C1599 H1622 0.950 . S
C1600 C1599 1.349 . S
C1600 C1612 1.349 . S
C1601 C1599 1.327 . S
C1601 C1617 1.429 . S
C1601 H1623 0.950 . S
C1602 H1598 0.949 . S
C1602 C1610 1.574 . S
C1602 C1618 1.368 . S
H1603 C1611 0.950 . S
H1604 C1609 0.950 . S
H1605 C1610 0.949 . S
H1606 C1612 0.950 . S
H1607 C1613 0.950 . S
H1608 C1614 0.949 . S
C1609 H1604 0.950 . S
C1609 C1611 1.327 . S
C1609 C1615 1.429 . S
C1610 C1602 1.574 . S
C1610 H1605 0.949 . S
C1610 C1616 1.368 . S
C1611 C1595 1.349 . S
C1611 H1603 0.950 . S
C1611 C1609 1.327 . S
C1612 C1600 1.349 . S
C1612 H1606 0.950 . S
C1612 C1613 1.327 . S
C1613 H1607 0.950 . S
C1613 C1612 1.327 . S
C1613 C1617 1.429 . S
C1614 C1597 1.574 . S
C1614 H1608 0.949 . S
C1614 C1618 1.368 . S
C1615 C1596 1.429 . S
C1615 C1609 1.429 . S
C1615 C1616 1.523 . S
C1616 C1597 1.368 . S
C1616 C1610 1.368 . S
C1616 C1615 1.523 . S
C1617 C1601 1.429 . S
C1617 C1613 1.429 . S
C1617 C1618 1.523 . S
C1618 C1602 1.368 . S
C1618 C1614 1.368 . S
C1618 C1617 1.523 . S
H1619 C1594 0.950 . S
H1620 C1596 0.950 . S
H1621 C1597 0.949 . S
H1622 C1599 0.950 . S
H1623 C1601 0.950 . S
C1624 C1625 1.349 . S
C1624 C1626 1.327 . S
C1624 H1649 0.950 . S
C1625 C1624 1.349 . S
C1625 C1641 1.349 . S
C1626 C1624 1.327 . S
C1626 C1645 1.429 . S
C1626 H1650 0.950 . S
C1627 C1644 1.574 . S
C1627 C1646 1.368 . S
C1627 H1651 0.949 . S
H1628 C1632 0.949 . S
C1629 C1630 1.349 . S
C1629 C1631 1.327 . S
C1629 H1652 0.950 . S
C1630 C1629 1.349 . S
C1630 C1642 1.349 . S
C1631 C1629 1.327 . S
C1631 C1647 1.429 . S
C1631 H1653 0.950 . S
C1632 H1628 0.949 . S
C1632 C1640 1.574 . S
C1632 C1648 1.368 . S
H1633 C1641 0.950 . S
H1634 C1639 0.950 . S
H1635 C1640 0.949 . S
H1636 C1642 0.950 . S
H1637 C1643 0.950 . S
H1638 C1644 0.949 . S
C1639 H1634 0.950 . S
C1639 C1641 1.327 . S
C1639 C1645 1.429 . S
C1640 C1632 1.574 . S
C1640 H1635 0.949 . S
C1640 C1646 1.368 . S
C1641 C1625 1.349 . S
C1641 H1633 0.950 . S
C1641 C1639 1.327 . S
C1642 C1630 1.349 . S
C1642 H1636 0.950 . S
C1642 C1643 1.327 . S
C1643 H1637 0.950 . S
C1643 C1642 1.327 . S
C1643 C1647 1.429 . S
C1644 C1627 1.574 . S
C1644 H1638 0.949 . S
C1644 C1648 1.368 . S
C1645 C1626 1.429 . S
C1645 C1639 1.429 . S
C1645 C1646 1.523 . S
C1646 C1627 1.368 . S
C1646 C1640 1.368 . S
C1646 C1645 1.523 . S
C1647 C1631 1.429 . S
C1647 C1643 1.429 . S
C1647 C1648 1.523 . S
C1648 C1632 1.368 . S
C1648 C1644 1.368 . S
C1648 C1647 1.523 . S
H1649 C1624 0.950 . S
H1650 C1626 0.950 . S
H1651 C1627 0.949 . S
H1652 C1629 0.950 . S
H1653 C1631 0.950 . S
C1654 C1655 1.349 . S
C1654 C1656 1.327 . S
C1654 H1679 0.950 . S
C1655 C1654 1.349 . S
C1655 C1671 1.349 . S
C1656 C1654 1.327 . S
C1656 C1675 1.429 . S
C1656 H1680 0.950 . S
C1657 C1674 1.574 . S
C1657 C1676 1.368 . S
C1657 H1681 0.949 . S
H1658 C1662 0.949 . S
C1659 C1660 1.349 . S
C1659 C1661 1.327 . S
C1659 H1682 0.950 . S
C1660 C1659 1.349 . S
C1660 C1672 1.349 . S
C1661 C1659 1.327 . S
C1661 C1677 1.429 . S
C1661 H1683 0.950 . S
C1662 H1658 0.949 . S
C1662 C1670 1.574 . S
C1662 C1678 1.368 . S
H1663 C1671 0.950 . S
H1664 C1669 0.950 . S
H1665 C1670 0.949 . S
H1666 C1672 0.950 . S
H1667 C1673 0.950 . S
H1668 C1674 0.949 . S
C1669 H1664 0.950 . S
C1669 C1671 1.327 . S
C1669 C1675 1.429 . S
C1670 C1662 1.574 . S
C1670 H1665 0.949 . S
C1670 C1676 1.368 . S
C1671 C1655 1.349 . S
C1671 H1663 0.950 . S
C1671 C1669 1.327 . S
C1672 C1660 1.349 . S
C1672 H1666 0.950 . S
C1672 C1673 1.327 . S
C1673 H1667 0.950 . S
C1673 C1672 1.327 . S
C1673 C1677 1.429 . S
C1674 C1657 1.574 . S
C1674 H1668 0.949 . S
C1674 C1678 1.368 . S
C1675 C1656 1.429 . S
C1675 C1669 1.429 . S
C1675 C1676 1.523 . S
C1676 C1657 1.368 . S
C1676 C1670 1.368 . S
C1676 C1675 1.523 . S
C1677 C1661 1.429 . S
C1677 C1673 1.429 . S
C1677 C1678 1.523 . S
C1678 C1662 1.368 . S
C1678 C1674 1.368 . S
C1678 C1677 1.523 . S
H1679 C1654 0.950 . S
H1680 C1656 0.950 . S
H1681 C1657 0.949 . S
H1682 C1659 0.950 . S
H1683 C1661 0.950 . S
C1684 C1685 1.349 . S
C1684 C1686 1.327 . S
C1684 H1709 0.950 . S
C1685 C1684 1.349 . S
C1685 C1701 1.349 . S
C1686 C1684 1.327 . S
C1686 C1705 1.429 . S
C1686 H1710 0.950 . S
C1687 C1704 1.574 1_565 S
C1687 C1706 1.368 . S
C1687 H1711 0.949 . S
H1688 C1692 0.949 . S
C1689 C1690 1.349 . S
C1689 C1691 1.327 . S
C1689 H1712 0.950 . S
C1690 C1689 1.349 . S
C1690 C1702 1.349 . S
C1691 C1689 1.327 . S
C1691 C1707 1.429 . S
C1691 H1713 0.950 . S
C1692 H1688 0.949 . S
C1692 C1700 1.574 1_545 S
C1692 C1708 1.368 . S
H1693 C1701 0.950 . S
H1694 C1699 0.950 . S
H1695 C1700 0.949 . S
H1696 C1702 0.950 . S
H1697 C1703 0.950 . S
H1698 C1704 0.949 . S
C1699 H1694 0.950 . S
C1699 C1701 1.327 . S
C1699 C1705 1.429 . S
C1700 C1692 1.574 1_565 S
C1700 H1695 0.949 . S
C1700 C1706 1.368 1_455 S
C1701 C1685 1.349 . S
C1701 H1693 0.950 . S
C1701 C1699 1.327 . S
C1702 C1690 1.349 . S
C1702 H1696 0.950 . S
C1702 C1703 1.327 . S
C1703 H1697 0.950 . S
C1703 C1702 1.327 . S
C1703 C1707 1.429 . S
C1704 C1687 1.574 1_545 S
C1704 H1698 0.949 . S
C1704 C1708 1.368 1_655 S
C1705 C1686 1.429 . S
C1705 C1699 1.429 . S
C1705 C1706 1.523 . S
C1706 C1687 1.368 . S
C1706 C1700 1.368 1_655 S
C1706 C1705 1.523 . S
C1707 C1691 1.429 . S
C1707 C1703 1.429 . S
C1707 C1708 1.523 . S
C1708 C1692 1.368 . S
C1708 C1704 1.368 1_455 S
C1708 C1707 1.523 . S
H1709 C1684 0.950 . S
H1710 C1686 0.950 . S
H1711 C1687 0.949 . S
H1712 C1689 0.950 . S
H1713 C1691 0.950 . S
C1714 C1715 1.349 . S
C1714 C1716 1.327 . S
C1714 H1739 0.950 . S
C1715 C1714 1.349 . S
C1715 C1731 1.349 . S
C1716 C1714 1.327 . S
C1716 C1735 1.429 . S
C1716 H1740 0.950 . S
C1717 C1734 1.574 . S
C1717 C1736 1.368 1_455 S
C1717 H1741 0.949 . S
H1718 C1722 0.949 . S
C1719 C1720 1.349 . S
C1719 C1721 1.327 . S
C1719 H1742 0.950 . S
C1720 C1719 1.349 . S
C1720 C1732 1.349 . S
C1721 C1719 1.327 . S
C1721 C1737 1.429 . S
C1721 H1743 0.950 . S
C1722 H1718 0.949 . S
C1722 C1730 1.574 . S
C1722 C1738 1.368 1_655 S
H1723 C1731 0.950 . S
H1724 C1729 0.950 . S
H1725 C1730 0.949 . S
H1726 C1732 0.950 . S
H1727 C1733 0.950 . S
H1728 C1734 0.949 . S
C1729 H1724 0.950 . S
C1729 C1731 1.327 . S
C1729 C1735 1.429 . S
C1730 C1722 1.574 . S
C1730 H1725 0.949 . S
C1730 C1736 1.368 . S
C1731 C1715 1.349 . S
C1731 H1723 0.950 . S
C1731 C1729 1.327 . S
C1732 C1720 1.349 . S
C1732 H1726 0.950 . S
C1732 C1733 1.327 . S
C1733 H1727 0.950 . S
C1733 C1732 1.327 . S
C1733 C1737 1.429 . S
C1734 C1717 1.574 . S
C1734 H1728 0.949 . S
C1734 C1738 1.368 . S
C1735 C1716 1.429 . S
C1735 C1729 1.429 . S
C1735 C1736 1.523 . S
C1736 C1717 1.368 1_655 S
C1736 C1730 1.368 . S
C1736 C1735 1.523 . S
C1737 C1721 1.429 . S
C1737 C1733 1.429 . S
C1737 C1738 1.523 . S
C1738 C1722 1.368 1_455 S
C1738 C1734 1.368 . S
C1738 C1737 1.523 . S
H1739 C1714 0.950 . S
H1740 C1716 0.950 . S
H1741 C1717 0.949 . S
H1742 C1719 0.950 . S
H1743 C1721 0.950 . S
C1744 C1745 1.349 . S
C1744 C1746 1.327 . S
C1744 H1769 0.950 . S
C1745 C1744 1.349 . S
C1745 C1761 1.349 . S
C1746 C1744 1.327 . S
C1746 C1765 1.429 . S
C1746 H1770 0.950 . S
C1747 C1764 1.574 . S
C1747 C1766 1.368 . S
C1747 H1771 0.949 . S
H1748 C1752 0.949 . S
C1749 C1750 1.349 . S
C1749 C1751 1.327 1_565 S
C1749 H1772 0.950 . S
C1750 C1749 1.349 . S
C1750 C1762 1.349 1_565 S
C1751 C1749 1.327 1_545 S
C1751 C1767 1.429 . S
C1751 H1773 0.952 . S
C1752 H1748 0.949 . S
C1752 C1760 1.574 . S
C1752 C1768 1.368 . S
H1753 C1761 0.950 . S
H1754 C1759 0.950 . S
H1755 C1760 0.949 . S
H1756 C1762 0.950 . S
H1757 C1763 0.950 . S
H1758 C1764 0.949 . S
C1759 H1754 0.950 . S
C1759 C1761 1.327 . S
C1759 C1765 1.429 . S
C1760 C1752 1.574 . S
C1760 H1755 0.949 . S
C1760 C1766 1.368 . S
C1761 C1745 1.349 . S
C1761 H1753 0.950 . S
C1761 C1759 1.327 . S
C1762 C1750 1.349 1_545 S
C1762 H1756 0.950 . S
C1762 C1763 1.327 . S
C1763 H1757 0.950 . S
C1763 C1762 1.327 . S
C1763 C1767 1.429 . S
C1764 C1747 1.574 . S
C1764 H1758 0.949 . S
C1764 C1768 1.368 . S
C1765 C1746 1.429 . S
C1765 C1759 1.429 . S
C1765 C1766 1.523 . S
C1766 C1747 1.368 . S
C1766 C1760 1.368 . S
C1766 C1765 1.523 . S
C1767 C1751 1.429 . S
C1767 C1763 1.429 . S
C1767 C1768 1.523 . S
C1768 C1752 1.368 . S
C1768 C1764 1.368 . S
C1768 C1767 1.523 . S
H1769 C1744 0.950 . S
H1770 C1746 0.950 . S
H1771 C1747 0.949 . S
H1772 C1749 0.950 . S
H1773 C1751 0.952 . S
C1774 C1775 1.349 . S
C1774 C1776 1.327 . S
C1774 H1799 0.950 1_556 S
C1775 C1774 1.349 . S
C1775 C1791 1.349 . S
C1776 C1774 1.327 . S
C1776 C1795 1.429 . S
C1776 H1800 0.950 . S
C1777 C1794 1.574 . S
C1777 C1796 1.368 . S
C1777 H1801 0.949 . S
H1778 C1782 0.949 . S
C1779 C1780 1.349 1_565 S
C1779 C1781 1.327 . S
C1779 H1802 0.950 . S
C1780 C1779 1.349 1_545 S
C1780 C1792 1.349 . S
C1781 C1779 1.327 . S
C1781 C1797 1.429 . S
C1781 H1803 0.950 . S
C1782 H1778 0.949 . S
C1782 C1790 1.574 . S
C1782 C1798 1.368 . S
H1783 C1791 0.950 . S
H1784 C1789 0.950 . S
H1785 C1790 0.949 . S
H1786 C1792 0.950 . S
H1787 C1793 0.949 . S
H1788 C1794 0.949 . S
C1789 H1784 0.950 . S
C1789 C1791 1.327 . S
C1789 C1795 1.429 . S
C1790 C1782 1.574 . S
C1790 H1785 0.949 . S
C1790 C1796 1.368 . S
C1791 C1775 1.349 . S
C1791 H1783 0.950 . S
C1791 C1789 1.327 . S
C1792 C1780 1.349 . S
C1792 H1786 0.950 . S
C1792 C1793 1.327 1_545 S
C1793 H1787 0.949 . S
C1793 C1792 1.327 1_565 S
C1793 C1797 1.429 . S
C1794 C1777 1.574 . S
C1794 H1788 0.949 . S
C1794 C1798 1.368 . S
C1795 C1776 1.429 . S
C1795 C1789 1.429 . S
C1795 C1796 1.523 . S
C1796 C1777 1.368 . S
C1796 C1790 1.368 . S
C1796 C1795 1.523 . S
C1797 C1781 1.429 . S
C1797 C1793 1.429 . S
C1797 C1798 1.523 . S
C1798 C1782 1.368 . S
C1798 C1794 1.368 . S
C1798 C1797 1.523 . S
H1799 C1774 0.950 1_554 S
H1800 C1776 0.950 . S
H1801 C1777 0.949 . S
H1802 C1779 0.950 . S
H1803 C1781 0.950 . S
C1804 C1805 1.349 . S
C1804 C1806 1.327 . S
C1804 H1829 0.950 . S
C1805 C1804 1.349 . S
C1805 C1821 1.349 . S
C1806 C1804 1.327 . S
C1806 C1825 1.429 . S
C1806 H1830 0.950 . S
C1807 C1824 1.574 . S
C1807 C1826 1.368 . S
C1807 H1831 0.949 . S
H1808 C1812 0.949 . S
C1809 C1810 1.349 . S
C1809 C1811 1.327 . S
C1809 H1832 0.950 . S
C1810 C1809 1.349 . S
C1810 C1822 1.349 . S
C1811 C1809 1.327 . S
C1811 C1827 1.429 . S
C1811 H1833 0.950 . S
C1812 H1808 0.949 . S
C1812 C1820 1.574 . S
C1812 C1828 1.368 . S
H1813 C1821 0.950 . S
H1814 C1819 0.950 . S
H1815 C1820 0.949 . S
H1816 C1822 0.950 . S
H1817 C1823 0.950 . S
H1818 C1824 0.949 . S
C1819 H1814 0.950 . S
C1819 C1821 1.327 . S
C1819 C1825 1.429 . S
C1820 C1812 1.574 . S
C1820 H1815 0.949 . S
C1820 C1826 1.368 . S
C1821 C1805 1.349 . S
C1821 H1813 0.950 . S
C1821 C1819 1.327 . S
C1822 C1810 1.349 . S
C1822 H1816 0.950 . S
C1822 C1823 1.327 . S
C1823 H1817 0.950 . S
C1823 C1822 1.327 . S
C1823 C1827 1.429 . S
C1824 C1807 1.574 . S
C1824 H1818 0.949 . S
C1824 C1828 1.368 . S
C1825 C1806 1.429 . S
C1825 C1819 1.429 . S
C1825 C1826 1.523 . S
C1826 C1807 1.368 . S
C1826 C1820 1.368 . S
C1826 C1825 1.523 . S
C1827 C1811 1.429 . S
C1827 C1823 1.429 . S
C1827 C1828 1.523 . S
C1828 C1812 1.368 . S
C1828 C1824 1.368 . S
C1828 C1827 1.523 . S
H1829 C1804 0.950 . S
H1830 C1806 0.950 . S
H1831 C1807 0.949 . S
H1832 C1809 0.950 . S
H1833 C1811 0.950 . S
C1834 C1835 1.349 . S
C1834 C1836 1.327 . S
C1834 H1859 0.950 . S
C1835 C1834 1.349 . S
C1835 C1851 1.349 . S
C1836 C1834 1.327 . S
C1836 C1855 1.429 . S
C1836 H1860 0.950 . S
C1837 C1854 1.574 . S
C1837 C1856 1.368 . S
C1837 H1861 0.949 . S
H1838 C1842 0.949 . S
C1839 C1840 1.349 . S
C1839 C1841 1.327 . S
C1839 H1862 0.950 . S
C1840 C1839 1.349 . S
C1840 C1852 1.349 . S
C1841 C1839 1.327 . S
C1841 C1857 1.429 . S
C1841 H1863 0.950 . S
C1842 H1838 0.949 . S
C1842 C1850 1.574 . S
C1842 C1858 1.368 . S
H1843 C1851 0.950 . S
H1844 C1849 0.950 . S
H1845 C1850 0.949 . S
H1846 C1852 0.950 . S
H1847 C1853 0.950 . S
H1848 C1854 0.949 . S
C1849 H1844 0.950 . S
C1849 C1851 1.327 . S
C1849 C1855 1.429 . S
C1850 C1842 1.574 . S
C1850 H1845 0.949 . S
C1850 C1856 1.368 . S
C1851 C1835 1.349 . S
C1851 H1843 0.950 . S
C1851 C1849 1.327 . S
C1852 C1840 1.349 . S
C1852 H1846 0.950 . S
C1852 C1853 1.327 . S
C1853 H1847 0.950 . S
C1853 C1852 1.327 . S
C1853 C1857 1.429 . S
C1854 C1837 1.574 . S
C1854 H1848 0.949 . S
C1854 C1858 1.368 . S
C1855 C1836 1.429 . S
C1855 C1849 1.429 . S
C1855 C1856 1.523 . S
C1856 C1837 1.368 . S
C1856 C1850 1.368 . S
C1856 C1855 1.523 . S
C1857 C1841 1.429 . S
C1857 C1853 1.429 . S
C1857 C1858 1.523 . S
C1858 C1842 1.368 . S
C1858 C1854 1.368 . S
C1858 C1857 1.523 . S
H1859 C1834 0.950 . S
H1860 C1836 0.950 . S
H1861 C1837 0.949 . S
H1862 C1839 0.950 . S
H1863 C1841 0.950 . S
C1864 C1865 1.349 . S
C1864 C1866 1.327 . S
C1864 H1889 0.950 . S
C1865 C1864 1.349 . S
C1865 C1881 1.349 . S
C1866 C1864 1.327 . S
C1866 C1885 1.429 . S
C1866 H1890 0.950 . S
C1867 C1884 1.574 . S
C1867 C1886 1.368 . S
C1867 H1891 0.949 . S
H1868 C1872 0.949 . S
C1869 C1870 1.349 . S
C1869 C1871 1.327 . S
C1869 H1892 0.950 . S
C1870 C1869 1.349 . S
C1870 C1882 1.349 . S
C1871 C1869 1.327 . S
C1871 C1887 1.429 . S
C1871 H1893 0.950 . S
C1872 H1868 0.949 . S
C1872 C1880 1.574 . S
C1872 C1888 1.368 . S
H1873 C1881 0.950 . S
H1874 C1879 0.950 . S
H1875 C1880 0.949 . S
H1876 C1882 0.950 . S
H1877 C1883 0.950 . S
H1878 C1884 0.949 . S
C1879 H1874 0.950 . S
C1879 C1881 1.327 . S
C1879 C1885 1.429 . S
C1880 C1872 1.574 . S
C1880 H1875 0.949 . S
C1880 C1886 1.368 . S
C1881 C1865 1.349 . S
C1881 H1873 0.950 . S
C1881 C1879 1.327 . S
C1882 C1870 1.349 . S
C1882 H1876 0.950 . S
C1882 C1883 1.327 . S
C1883 H1877 0.950 . S
C1883 C1882 1.327 . S
C1883 C1887 1.429 . S
C1884 C1867 1.574 . S
C1884 H1878 0.949 . S
C1884 C1888 1.368 . S
C1885 C1866 1.429 . S
C1885 C1879 1.429 . S
C1885 C1886 1.523 . S
C1886 C1867 1.368 . S
C1886 C1880 1.368 . S
C1886 C1885 1.523 . S
C1887 C1871 1.429 . S
C1887 C1883 1.429 . S
C1887 C1888 1.523 . S
C1888 C1872 1.368 . S
C1888 C1884 1.368 . S
C1888 C1887 1.523 . S
H1889 C1864 0.950 . S
H1890 C1866 0.950 . S
H1891 C1867 0.949 . S
H1892 C1869 0.950 . S
H1893 C1871 0.950 . S
C1894 C1895 1.349 . S
C1894 C1896 1.327 . S
C1894 H1919 0.950 . S
C1895 C1894 1.349 . S
C1895 C1911 1.349 . S
C1896 C1894 1.327 . S
C1896 C1915 1.429 . S
C1896 H1920 0.950 . S
C1897 C1914 1.574 . S
C1897 C1916 1.368 . S
C1897 H1921 0.949 . S
H1898 C1902 0.949 . S
C1899 C1900 1.349 . S
C1899 C1901 1.327 . S
C1899 H1922 0.950 . S
C1900 C1899 1.349 . S
C1900 C1912 1.349 . S
C1901 C1899 1.327 . S
C1901 C1917 1.429 . S
C1901 H1923 0.950 . S
C1902 H1898 0.949 . S
C1902 C1910 1.574 . S
C1902 C1918 1.368 . S
H1903 C1911 0.950 . S
H1904 C1909 0.950 . S
H1905 C1910 0.949 . S
H1906 C1912 0.950 . S
H1907 C1913 0.950 . S
H1908 C1914 0.949 . S
C1909 H1904 0.950 . S
C1909 C1911 1.327 . S
C1909 C1915 1.429 . S
C1910 C1902 1.574 . S
C1910 H1905 0.949 . S
C1910 C1916 1.368 . S
C1911 C1895 1.349 . S
C1911 H1903 0.950 . S
C1911 C1909 1.327 . S
C1912 C1900 1.349 . S
C1912 H1906 0.950 . S
C1912 C1913 1.327 . S
C1913 H1907 0.950 . S
C1913 C1912 1.327 . S
C1913 C1917 1.429 . S
C1914 C1897 1.574 . S
C1914 H1908 0.949 . S
C1914 C1918 1.368 . S
C1915 C1896 1.429 . S
C1915 C1909 1.429 . S
C1915 C1916 1.523 . S
C1916 C1897 1.368 . S
C1916 C1910 1.368 . S
C1916 C1915 1.523 . S
C1917 C1901 1.429 . S
C1917 C1913 1.429 . S
C1917 C1918 1.523 . S
C1918 C1902 1.368 . S
C1918 C1914 1.368 . S
C1918 C1917 1.523 . S
H1919 C1894 0.950 . S
H1920 C1896 0.950 . S
H1921 C1897 0.949 . S
H1922 C1899 0.950 . S
H1923 C1901 0.950 . S
C1924 C1925 1.349 . S
C1924 C1926 1.327 . S
C1924 H1949 0.950 . S
C1925 C1924 1.349 . S
C1925 C1941 1.349 . S
C1926 C1924 1.327 . S
C1926 C1945 1.429 . S
C1926 H1950 0.950 . S
C1927 C1944 1.574 . S
C1927 C1946 1.368 . S
C1927 H1951 0.949 . S
H1928 C1932 0.949 . S
C1929 C1930 1.349 . S
C1929 C1931 1.327 . S
C1929 H1952 0.950 . S
C1930 C1929 1.349 . S
C1930 C1942 1.349 . S
C1931 C1929 1.327 . S
C1931 C1947 1.429 . S
C1931 H1953 0.950 . S
C1932 H1928 0.949 . S
C1932 C1940 1.574 . S
C1932 C1948 1.368 . S
H1933 C1941 0.950 . S
H1934 C1939 0.950 . S
H1935 C1940 0.949 . S
H1936 C1942 0.950 . S
H1937 C1943 0.950 . S
H1938 C1944 0.949 . S
C1939 H1934 0.950 . S
C1939 C1941 1.327 . S
C1939 C1945 1.429 . S
C1940 C1932 1.574 . S
C1940 H1935 0.949 . S
C1940 C1946 1.368 . S
C1941 C1925 1.349 . S
C1941 H1933 0.950 . S
C1941 C1939 1.327 . S
C1942 C1930 1.349 . S
C1942 H1936 0.950 . S
C1942 C1943 1.327 . S
C1943 H1937 0.950 . S
C1943 C1942 1.327 . S
C1943 C1947 1.429 . S
C1944 C1927 1.574 . S
C1944 H1938 0.949 . S
C1944 C1948 1.368 . S
C1945 C1926 1.429 . S
C1945 C1939 1.429 . S
C1945 C1946 1.523 . S
C1946 C1927 1.368 . S
C1946 C1940 1.368 . S
C1946 C1945 1.523 . S
C1947 C1931 1.429 . S
C1947 C1943 1.429 . S
C1947 C1948 1.523 . S
C1948 C1932 1.368 . S
C1948 C1944 1.368 . S
C1948 C1947 1.523 . S
H1949 C1924 0.950 . S
H1950 C1926 0.950 . S
H1951 C1927 0.949 . S
H1952 C1929 0.950 . S
H1953 C1931 0.950 . S
C1954 C1955 1.349 . S
C1954 C1956 1.327 . S
C1954 H1979 0.950 . S
C1955 C1954 1.349 . S
C1955 C1971 1.349 . S
C1956 C1954 1.327 . S
C1956 C1975 1.429 . S
C1956 H1980 0.950 . S
C1957 C1974 1.574 . S
C1957 C1976 1.368 . S
C1957 H1981 0.949 . S
H1958 C1962 0.949 . S
C1959 C1960 1.349 . S
C1959 C1961 1.327 . S
C1959 H1982 0.950 . S
C1960 C1959 1.349 . S
C1960 C1972 1.349 . S
C1961 C1959 1.327 . S
C1961 C1977 1.429 . S
C1961 H1983 0.950 . S
C1962 H1958 0.949 . S
C1962 C1970 1.574 . S
C1962 C1978 1.368 . S
H1963 C1971 0.950 . S
H1964 C1969 0.950 . S
H1965 C1970 0.949 . S
H1966 C1972 0.950 . S
H1967 C1973 0.950 . S
H1968 C1974 0.949 . S
C1969 H1964 0.950 . S
C1969 C1971 1.327 . S
C1969 C1975 1.429 . S
C1970 C1962 1.574 . S
C1970 H1965 0.949 . S
C1970 C1976 1.368 . S
C1971 C1955 1.349 . S
C1971 H1963 0.950 . S
C1971 C1969 1.327 . S
C1972 C1960 1.349 . S
C1972 H1966 0.950 . S
C1972 C1973 1.327 . S
C1973 H1967 0.950 . S
C1973 C1972 1.327 . S
C1973 C1977 1.429 . S
C1974 C1957 1.574 . S
C1974 H1968 0.949 . S
C1974 C1978 1.368 . S
C1975 C1956 1.429 . S
C1975 C1969 1.429 . S
C1975 C1976 1.523 . S
C1976 C1957 1.368 . S
C1976 C1970 1.368 . S
C1976 C1975 1.523 . S
C1977 C1961 1.429 . S
C1977 C1973 1.429 . S
C1977 C1978 1.523 . S
C1978 C1962 1.368 . S
C1978 C1974 1.368 . S
C1978 C1977 1.523 . S
H1979 C1954 0.950 . S
H1980 C1956 0.950 . S
H1981 C1957 0.949 . S
H1982 C1959 0.950 . S
H1983 C1961 0.950 . S
C1984 C1985 1.349 1_545 S
C1984 C1986 1.327 . S
C1984 H2009 0.950 1_545 S
C1985 C1984 1.349 1_565 S
C1985 C2001 1.349 1_565 S
C1986 C1984 1.327 . S
C1986 C2005 1.429 . S
C1986 H2010 0.950 . S
C1987 C2004 1.574 . S
C1987 C2006 1.368 . S
C1987 H2011 0.949 . S
H1988 C1992 0.949 . S
C1989 C1990 1.349 . S
C1989 C1991 1.327 . S
C1989 H2012 0.950 . S
C1990 C1989 1.349 . S
C1990 C2002 1.349 . S
C1991 C1989 1.327 . S
C1991 C2007 1.429 . S
C1991 H2013 0.950 . S
C1992 H1988 0.949 . S
C1992 C2000 1.574 . S
C1992 C2008 1.368 . S
H1993 C2001 0.950 . S
H1994 C1999 0.950 . S
H1995 C2000 0.949 . S
H1996 C2002 0.950 . S
H1997 C2003 0.950 . S
H1998 C2004 0.949 . S
C1999 H1994 0.950 . S
C1999 C2001 1.327 . S
C1999 C2005 1.429 . S
C2000 C1992 1.574 . S
C2000 H1995 0.949 . S
C2000 C2006 1.368 . S
C2001 C1985 1.349 1_545 S
C2001 H1993 0.950 . S
C2001 C1999 1.327 . S
C2002 C1990 1.349 . S
C2002 H1996 0.950 . S
C2002 C2003 1.327 . S
C2003 H1997 0.950 . S
C2003 C2002 1.327 . S
C2003 C2007 1.429 . S
C2004 C1987 1.574 . S
C2004 H1998 0.949 . S
C2004 C2008 1.368 . S
C2005 C1986 1.429 . S
C2005 C1999 1.429 . S
C2005 C2006 1.523 . S
C2006 C1987 1.368 . S
C2006 C2000 1.368 . S
C2006 C2005 1.523 . S
C2007 C1991 1.429 . S
C2007 C2003 1.429 . S
C2007 C2008 1.523 . S
C2008 C1992 1.368 . S
C2008 C2004 1.368 . S
C2008 C2007 1.523 . S
H2009 C1984 0.950 1_565 S
H2010 C1986 0.950 . S
H2011 C1987 0.949 . S
H2012 C1989 0.950 . S
H2013 C1991 0.950 . S
C2014 C2015 1.349 . S
C2014 C2016 1.327 . S
C2014 H2039 0.950 . S
C2015 C2014 1.349 . S
C2015 C2031 1.349 . S
C2016 C2014 1.327 . S
C2016 C2035 1.429 . S
C2016 H2040 0.950 . S
C2017 C2034 1.574 . S
C2017 C2036 1.368 . S
C2017 H2041 0.949 . S
H2018 C2022 0.949 . S
C2019 C2020 1.349 . S
C2019 C2021 1.327 1_545 S
C2019 H2042 0.950 . S
C2020 C2019 1.349 . S
C2020 C2032 1.349 1_545 S
C2021 C2019 1.327 1_565 S
C2021 C2037 1.429 . S
C2021 H2043 0.950 . S
C2022 H2018 0.949 . S
C2022 C2030 1.574 . S
C2022 C2038 1.368 . S
H2023 C2031 0.950 . S
H2024 C2029 0.950 . S
H2025 C2030 0.949 . S
H2026 C2032 0.950 . S
H2027 C2033 0.950 . S
H2028 C2034 0.949 . S
C2029 H2024 0.950 . S
C2029 C2031 1.327 . S
C2029 C2035 1.429 . S
C2030 C2022 1.574 . S
C2030 H2025 0.949 . S
C2030 C2036 1.368 . S
C2031 C2015 1.349 . S
C2031 H2023 0.950 . S
C2031 C2029 1.327 . S
C2032 C2020 1.349 1_565 S
C2032 H2026 0.950 . S
C2032 C2033 1.327 . S
C2033 H2027 0.950 . S
C2033 C2032 1.327 . S
C2033 C2037 1.429 . S
C2034 C2017 1.574 . S
C2034 H2028 0.949 . S
C2034 C2038 1.368 . S
C2035 C2016 1.429 . S
C2035 C2029 1.429 . S
C2035 C2036 1.523 . S
C2036 C2017 1.368 . S
C2036 C2030 1.368 . S
C2036 C2035 1.523 . S
C2037 C2021 1.429 . S
C2037 C2033 1.429 . S
C2037 C2038 1.523 . S
C2038 C2022 1.368 . S
C2038 C2034 1.368 . S
C2038 C2037 1.523 . S
H2039 C2014 0.950 . S
H2040 C2016 0.950 . S
H2041 C2017 0.949 . S
H2042 C2019 0.950 . S
H2043 C2021 0.950 . S
C2044 C2045 1.349 . S
C2044 C2046 1.327 . S
C2044 H2069 0.950 . S
C2045 C2044 1.349 . S
C2045 C2061 1.349 . S
C2046 C2044 1.327 . S
C2046 C2065 1.429 . S
C2046 H2070 0.950 . S
C2047 C2064 1.574 . S
C2047 C2066 1.368 . S
C2047 H2071 0.949 . S
H2048 C2052 0.949 . S
C2049 C2050 1.349 . S
C2049 C2051 1.327 . S
C2049 H2072 0.950 . S
C2050 C2049 1.349 . S
C2050 C2062 1.349 . S
C2051 C2049 1.327 . S
C2051 C2067 1.429 . S
C2051 H2073 0.950 . S
C2052 H2048 0.949 . S
C2052 C2060 1.574 . S
C2052 C2068 1.368 . S
H2053 C2061 0.950 . S
H2054 C2059 0.950 . S
H2055 C2060 0.949 . S
H2056 C2062 0.950 . S
H2057 C2063 0.950 . S
H2058 C2064 0.949 . S
C2059 H2054 0.950 . S
C2059 C2061 1.327 . S
C2059 C2065 1.429 . S
C2060 C2052 1.574 . S
C2060 H2055 0.949 . S
C2060 C2066 1.368 . S
C2061 C2045 1.349 . S
C2061 H2053 0.950 . S
C2061 C2059 1.327 . S
C2062 C2050 1.349 . S
C2062 H2056 0.950 . S
C2062 C2063 1.327 . S
C2063 H2057 0.950 . S
C2063 C2062 1.327 . S
C2063 C2067 1.429 . S
C2064 C2047 1.574 . S
C2064 H2058 0.949 . S
C2064 C2068 1.368 . S
C2065 C2046 1.429 . S
C2065 C2059 1.429 . S
C2065 C2066 1.523 . S
C2066 C2047 1.368 . S
C2066 C2060 1.368 . S
C2066 C2065 1.523 . S
C2067 C2051 1.429 . S
C2067 C2063 1.429 . S
C2067 C2068 1.523 . S
C2068 C2052 1.368 . S
C2068 C2064 1.368 . S
C2068 C2067 1.523 . S
H2069 C2044 0.950 . S
H2070 C2046 0.950 . S
H2071 C2047 0.949 . S
H2072 C2049 0.950 . S
H2073 C2051 0.950 . S
C2074 C2075 1.349 . S
C2074 C2076 1.327 . S
C2074 H2099 0.950 . S
C2075 C2074 1.349 . S
C2075 C2091 1.349 . S
C2076 C2074 1.327 . S
C2076 C2095 1.429 . S
C2076 H2100 0.950 . S
C2077 C2094 1.574 . S
C2077 C2096 1.368 . S
C2077 H2101 0.949 . S
H2078 C2082 0.949 . S
C2079 C2080 1.349 . S
C2079 C2081 1.327 . S
C2079 H2102 0.950 . S
C2080 C2079 1.349 . S
C2080 C2092 1.349 . S
C2081 C2079 1.327 . S
C2081 C2097 1.429 . S
C2081 H2103 0.950 . S
C2082 H2078 0.949 . S
C2082 C2090 1.574 . S
C2082 C2098 1.368 . S
H2083 C2091 0.950 . S
H2084 C2089 0.950 . S
H2085 C2090 0.949 . S
H2086 C2092 0.950 . S
H2087 C2093 0.950 . S
H2088 C2094 0.949 . S
C2089 H2084 0.950 . S
C2089 C2091 1.327 . S
C2089 C2095 1.429 . S
C2090 C2082 1.574 . S
C2090 H2085 0.949 . S
C2090 C2096 1.368 . S
C2091 C2075 1.349 . S
C2091 H2083 0.950 . S
C2091 C2089 1.327 . S
C2092 C2080 1.349 . S
C2092 H2086 0.950 . S
C2092 C2093 1.327 . S
C2093 H2087 0.950 . S
C2093 C2092 1.327 . S
C2093 C2097 1.429 . S
C2094 C2077 1.574 . S
C2094 H2088 0.949 . S
C2094 C2098 1.368 . S
C2095 C2076 1.429 . S
C2095 C2089 1.429 . S
C2095 C2096 1.523 . S
C2096 C2077 1.368 . S
C2096 C2090 1.368 . S
C2096 C2095 1.523 . S
C2097 C2081 1.429 . S
C2097 C2093 1.429 . S
C2097 C2098 1.523 . S
C2098 C2082 1.368 . S
C2098 C2094 1.368 . S
C2098 C2097 1.523 . S
H2099 C2074 0.950 . S
H2100 C2076 0.950 . S
H2101 C2077 0.949 . S
H2102 C2079 0.950 . S
H2103 C2081 0.950 . S
C2104 C2105 1.349 1_554 S
C2104 C2106 1.327 1_554 S
C2104 H2129 0.950 . S
C2105 C2104 1.349 1_556 S
C2105 C2121 1.349 . S
C2106 C2104 1.327 1_556 S
C2106 C2125 1.429 . S
C2106 H2130 0.950 1_556 S
C2107 C2124 1.574 . S
C2107 C2126 1.368 . S
C2107 H2131 0.949 . S
H2108 C2112 0.949 . S
C2109 C2110 1.349 . S
C2109 C2111 1.327 . S
C2109 H2132 0.950 . S
C2110 C2109 1.349 . S
C2110 C2122 1.349 . S
C2111 C2109 1.327 . S
C2111 C2127 1.429 . S
C2111 H2133 0.950 . S
C2112 H2108 0.949 . S
C2112 C2120 1.574 . S
C2112 C2128 1.368 . S
H2113 C2121 0.950 . S
H2114 C2119 0.950 . S
H2115 C2120 0.949 . S
H2116 C2122 0.950 . S
H2117 C2123 0.950 . S
H2118 C2124 0.949 . S
C2119 H2114 0.950 . S
C2119 C2121 1.327 . S
C2119 C2125 1.429 . S
C2120 C2112 1.574 . S
C2120 H2115 0.949 . S
C2120 C2126 1.368 . S
C2121 C2105 1.349 . S
C2121 H2113 0.950 . S
C2121 C2119 1.327 . S
C2122 C2110 1.349 . S
C2122 H2116 0.950 . S
C2122 C2123 1.327 . S
C2123 H2117 0.950 . S
C2123 C2122 1.327 . S
C2123 C2127 1.429 . S
C2124 C2107 1.574 . S
C2124 H2118 0.949 . S
C2124 C2128 1.368 . S
C2125 C2106 1.429 . S
C2125 C2119 1.429 . S
C2125 C2126 1.523 . S
C2126 C2107 1.368 . S
C2126 C2120 1.368 . S
C2126 C2125 1.523 . S
C2127 C2111 1.429 . S
C2127 C2123 1.429 . S
C2127 C2128 1.523 . S
C2128 C2112 1.368 . S
C2128 C2124 1.368 . S
C2128 C2127 1.523 . S
H2129 C2104 0.950 . S
H2130 C2106 0.950 1_554 S
H2131 C2107 0.949 . S
H2132 C2109 0.950 . S
H2133 C2111 0.950 . S
C2134 C2135 1.349 . S
C2134 C2136 1.327 . S
C2134 H2159 0.950 . S
C2135 C2134 1.349 . S
C2135 C2151 1.349 . S
C2136 C2134 1.327 . S
C2136 C2155 1.429 . S
C2136 H2160 0.950 . S
C2137 C2154 1.574 . S
C2137 C2156 1.368 . S
C2137 H2161 0.949 . S
H2138 C2142 0.949 . S
C2139 C2140 1.349 1_554 S
C2139 C2141 1.327 . S
C2139 H2162 0.950 . S
C2140 C2139 1.349 1_556 S
C2140 C2152 1.349 . S
C2141 C2139 1.327 . S
C2141 C2157 1.429 1_554 S
C2141 H2163 0.950 . S
C2142 H2138 0.949 . S
C2142 C2150 1.574 . S
C2142 C2158 1.368 . S
H2143 C2151 0.950 . S
H2144 C2149 0.950 . S
H2145 C2150 0.949 . S
H2146 C2152 0.950 . S
H2147 C2153 0.950 . S
H2148 C2154 0.949 1_554 S
C2149 H2144 0.950 . S
C2149 C2151 1.327 . S
C2149 C2155 1.429 . S
C2150 C2142 1.574 . S
C2150 H2145 0.949 . S
C2150 C2156 1.368 . S
C2151 C2135 1.349 . S
C2151 H2143 0.950 . S
C2151 C2149 1.327 . S
C2152 C2140 1.349 . S
C2152 H2146 0.950 . S
C2152 C2153 1.327 . S
C2153 H2147 0.950 . S
C2153 C2152 1.327 . S
C2153 C2157 1.429 . S
C2154 C2137 1.574 . S
C2154 H2148 0.949 1_556 S
C2154 C2158 1.368 . S
C2155 C2136 1.429 . S
C2155 C2149 1.429 . S
C2155 C2156 1.523 . S
C2156 C2137 1.368 . S
C2156 C2150 1.368 . S
C2156 C2155 1.523 . S
C2157 C2141 1.429 1_556 S
C2157 C2153 1.429 . S
C2157 C2158 1.523 . S
C2158 C2142 1.368 . S
C2158 C2154 1.368 . S
C2158 C2157 1.523 . S
H2159 C2134 0.950 . S
H2160 C2136 0.950 . S
H2161 C2137 0.949 . S
H2162 C2139 0.950 . S
H2163 C2141 0.950 . S
C2164 C2165 1.349 . S
C2164 C2166 1.327 . S
C2164 H2189 0.950 . S
C2165 C2164 1.349 . S
C2165 C2181 1.349 . S
C2166 C2164 1.327 . S
C2166 C2185 1.429 . S
C2166 H2190 0.950 . S
C2167 C2184 1.574 . S
C2167 C2186 1.368 . S
C2167 H2191 0.949 . S
H2168 C2172 0.949 . S
C2169 C2170 1.349 . S
C2169 C2171 1.327 . S
C2169 H2192 0.950 . S
C2170 C2169 1.349 . S
C2170 C2182 1.349 . S
C2171 C2169 1.327 . S
C2171 C2187 1.429 . S
C2171 H2193 0.950 . S
C2172 H2168 0.949 . S
C2172 C2180 1.574 . S
C2172 C2188 1.368 . S
H2173 C2181 0.950 . S
H2174 C2179 0.950 . S
H2175 C2180 0.949 . S
H2176 C2182 0.950 . S
H2177 C2183 0.950 . S
H2178 C2184 0.949 . S
C2179 H2174 0.950 . S
C2179 C2181 1.327 . S
C2179 C2185 1.429 . S
C2180 C2172 1.574 . S
C2180 H2175 0.949 . S
C2180 C2186 1.368 . S
C2181 C2165 1.349 . S
C2181 H2173 0.950 . S
C2181 C2179 1.327 . S
C2182 C2170 1.349 . S
C2182 H2176 0.950 . S
C2182 C2183 1.327 . S
C2183 H2177 0.950 . S
C2183 C2182 1.327 . S
C2183 C2187 1.429 . S
C2184 C2167 1.574 . S
C2184 H2178 0.949 . S
C2184 C2188 1.368 . S
C2185 C2166 1.429 . S
C2185 C2179 1.429 . S
C2185 C2186 1.523 . S
C2186 C2167 1.368 . S
C2186 C2180 1.368 . S
C2186 C2185 1.523 . S
C2187 C2171 1.429 . S
C2187 C2183 1.429 . S
C2187 C2188 1.523 . S
C2188 C2172 1.368 . S
C2188 C2184 1.368 . S
C2188 C2187 1.523 . S
H2189 C2164 0.950 . S
H2190 C2166 0.950 . S
H2191 C2167 0.949 . S
H2192 C2169 0.950 . S
H2193 C2171 0.950 . S
C2194 C2195 1.349 . S
C2194 C2196 1.327 . S
C2194 H2219 0.950 . S
C2195 C2194 1.349 . S
C2195 C2211 1.349 . S
C2196 C2194 1.327 . S
C2196 C2215 1.429 . S
C2196 H2220 0.950 . S
C2197 C2214 1.574 . S
C2197 C2216 1.368 . S
C2197 H2221 0.949 . S
H2198 C2202 0.949 . S
C2199 C2200 1.349 . S
C2199 C2201 1.327 . S
C2199 H2222 0.950 . S
C2200 C2199 1.349 . S
C2200 C2212 1.349 . S
C2201 C2199 1.327 . S
C2201 C2217 1.429 . S
C2201 H2223 0.950 . S
C2202 H2198 0.949 . S
C2202 C2210 1.574 . S
C2202 C2218 1.368 . S
H2203 C2211 0.950 . S
H2204 C2209 0.950 . S
H2205 C2210 0.949 . S
H2206 C2212 0.950 . S
H2207 C2213 0.950 . S
H2208 C2214 0.949 . S
C2209 H2204 0.950 . S
C2209 C2211 1.327 . S
C2209 C2215 1.429 . S
C2210 C2202 1.574 . S
C2210 H2205 0.949 . S
C2210 C2216 1.368 . S
C2211 C2195 1.349 . S
C2211 H2203 0.950 . S
C2211 C2209 1.327 . S
C2212 C2200 1.349 . S
C2212 H2206 0.950 . S
C2212 C2213 1.327 . S
C2213 H2207 0.950 . S
C2213 C2212 1.327 . S
C2213 C2217 1.429 . S
C2214 C2197 1.574 . S
C2214 H2208 0.949 . S
C2214 C2218 1.368 . S
C2215 C2196 1.429 . S
C2215 C2209 1.429 . S
C2215 C2216 1.523 . S
C2216 C2197 1.368 . S
C2216 C2210 1.368 . S
C2216 C2215 1.523 . S
C2217 C2201 1.429 . S
C2217 C2213 1.429 . S
C2217 C2218 1.523 . S
C2218 C2202 1.368 . S
C2218 C2214 1.368 . S
C2218 C2217 1.523 . S
H2219 C2194 0.950 . S
H2220 C2196 0.950 . S
H2221 C2197 0.949 . S
H2222 C2199 0.950 . S
H2223 C2201 0.950 . S
C545 C1 1.639 . S
C550 C173 1.682 . S
C575 C35 1.639 . S
C580 C139 1.682 . S
C605 C71 1.639 . S
C610 C377 1.684 . S
C635 C105 1.639 . S
C640 C341 1.684 . S
C665 C37 1.684 . S
C670 C137 1.641 . S
C695 C171 1.639 . S
C700 C3 1.685 . S
C725 C207 1.639 . S
C730 C513 1.684 . S
C755 C477 1.684 . S
C760 C241 1.639 . S
C785 C445 1.684 . S
C790 C275 1.641 . S
C815 C409 1.684 . S
C820 C307 1.641 . S
C845 C103 1.684 . S
C850 C343 1.639 . S
C875 C375 1.639 . S
C880 C69 1.684 . S
C905 C411 1.639 . S
C910 C309 1.682 . S
C935 C443 1.639 . S
C940 C273 1.682 . S
C965 C479 1.639 . S
C970 C239 1.684 . S
C995 C205 1.684 . S
C1000 C511 1.639 . S
C1025 C28 1.189 . S
C1030 C6 1.185 . S
C1055 C40 1.185 . S
C1060 C62 1.189 . S
C1085 C96 1.185 . S
C1090 C74 1.189 . S
C1115 C130 1.185 . S
C1120 C108 1.189 . S
C1145 C164 1.189 . S
C1150 C142 1.185 . S
C1175 C198 1.189 . S
C1180 C176 1.185 . S
C1205 C210 1.189 . S
C1210 C232 1.185 . S
C1235 C266 1.185 . S
C1240 C244 1.189 . S
C1265 C278 1.189 . S
C1270 C300 1.185 . S
C1295 C334 1.189 . S
C1300 C312 1.185 . S
C1325 C368 1.185 . S
C1330 C346 1.189 . S
C1355 C402 1.189 . S
C1360 C380 1.185 . S
C1385 C436 1.185 . S
C1390 C414 1.189 . S
C1415 C448 1.185 . S
C1420 C470 1.189 . S
C1445 C482 1.189 . S
C1450 C504 1.185 . S
C1475 C538 1.189 . S
C1480 C516 1.185 . S
C1505 C15 1.383 . S
C1510 C49 1.383 . S
C1535 C90 1.383 . S
C1540 C525 1.383 . S
C1565 C124 1.383 . S
C1570 C498 1.383 . S
C1595 C185 1.383 . S
C1600 C151 1.383 . S
C1625 C389 1.383 . S
C1630 C226 1.383 . S
C1655 C260 1.383 . S
C1660 C362 1.383 . S
C1685 C321 1.383 . S
C1690 C294 1.383 . S
C1715 C457 1.383 . S
C1720 C430 1.383 . S
C1745 C17 1.895 . S
C1750 C219 1.848 . S
C1775 C51 1.895 . S
C1780 C253 1.848 . S
C1805 C85 1.895 . S
C1810 C22 1.846 . S
C1835 C56 1.847 . S
C1840 C119 1.895 . S
C1865 C83 1.847 . S
C1870 C153 1.895 . S
C1895 C117 1.847 . S
C1900 C187 1.895 . S
C1925 C221 1.895 . S
C1930 C158 1.847 . S
C1955 C192 1.847 . S
C1960 C255 1.895 . S
C1985 C491 1.847 . S
C1990 C289 1.895 . S
C2015 C323 1.895 . S
C2020 C532 1.847 . S
C2045 C287 1.847 . S
C2050 C357 1.895 . S
C2075 C391 1.895 . S
C2080 C328 1.847 . S
C2105 C425 1.895 . S
C2110 C355 1.848 . S
C2135 C396 1.847 . S
C2140 C459 1.896 . S
C2165 C493 1.895 . S
C2170 C423 1.846 . S
C2195 C527 1.895 . S
C2200 C464 1.846 . S
