# Generated by pormake.
# Topology wiz, (3)-cn, num edge types: 1
# Building blocks:
#     Node 0, Type 0, BuildingBlock: OLANEW_clean_sbu_2, # of connection points: 3
#     Node 1, Type 0, BuildingBlock: OLANEW_clean_sbu_2, # of connection points: 3
#     Node 2, Type 0, BuildingBlock: OLANEW_clean_sbu_2, # of connection points: 3
#     Node 3, Type 0, BuildingBlock: OLANEW_clean_sbu_2, # of connection points: 3
#     Node 4, Type 0, BuildingBlock: OLANEW_clean_sbu_2, # of connection points: 3
#     Node 5, Type 0, BuildingBlock: OLANEW_clean_sbu_2, # of connection points: 3
#     Node 6, Type 0, BuildingBlock: OLANEW_clean_sbu_2, # of connection points: 3
#     Node 7, Type 0, BuildingBlock: OLANEW_clean_sbu_2, # of connection points: 3
#     Node 8, Type 0, BuildingBlock: OLANEW_clean_sbu_2, # of connection points: 3
#     Node 9, Type 0, BuildingBlock: OLANEW_clean_sbu_2, # of connection points: 3
#     Node 10, Type 0, BuildingBlock: OLANEW_clean_sbu_2, # of connection points: 3
#     Node 11, Type 0, BuildingBlock: OLANEW_clean_sbu_2, # of connection points: 3
#     Edge 12, Type (0, 0), BuildingBlock: MIFKUJ_clean_linker_0, # of connection points: 2
#     Edge 13, Type (0, 0), BuildingBlock: MIFKUJ_clean_linker_0, # of connection points: 2
#     Edge 14, Type (0, 0), BuildingBlock: MIFKUJ_clean_linker_0, # of connection points: 2
#     Edge 15, Type (0, 0), BuildingBlock: MIFKUJ_clean_linker_0, # of connection points: 2
#     Edge 16, Type (0, 0), BuildingBlock: MIFKUJ_clean_linker_0, # of connection points: 2
#     Edge 17, Type (0, 0), BuildingBlock: MIFKUJ_clean_linker_0, # of connection points: 2
#     Edge 18, Type (0, 0), BuildingBlock: MIFKUJ_clean_linker_0, # of connection points: 2
#     Edge 19, Type (0, 0), BuildingBlock: MIFKUJ_clean_linker_0, # of connection points: 2
#     Edge 20, Type (0, 0), BuildingBlock: MIFKUJ_clean_linker_0, # of connection points: 2
#     Edge 21, Type (0, 0), BuildingBlock: MIFKUJ_clean_linker_0, # of connection points: 2
#     Edge 22, Type (0, 0), BuildingBlock: MIFKUJ_clean_linker_0, # of connection points: 2
#     Edge 23, Type (0, 0), BuildingBlock: MIFKUJ_clean_linker_0, # of connection points: 2
#     Edge 24, Type (0, 0), BuildingBlock: MIFKUJ_clean_linker_0, # of connection points: 2
#     Edge 25, Type (0, 0), BuildingBlock: MIFKUJ_clean_linker_0, # of connection points: 2
#     Edge 26, Type (0, 0), BuildingBlock: MIFKUJ_clean_linker_0, # of connection points: 2
#     Edge 27, Type (0, 0), BuildingBlock: MIFKUJ_clean_linker_0, # of connection points: 2
#     Edge 28, Type (0, 0), BuildingBlock: MIFKUJ_clean_linker_0, # of connection points: 2
#     Edge 29, Type (0, 0), BuildingBlock: MIFKUJ_clean_linker_0, # of connection points: 2
# Relax obj value: 0.000
# Max RMSD: 0.055
# Mean RMSD: 0.055
data_MOF--net-wiz--node1-OLANEW_clean_sbu_2--edge1-MIFKUJ_clean_linker_0
_symmetry_space_group_name_H-M    P1
_symmetry_Int_Tables_number       1
_symmetry_cell_setting            triclinic
loop_
_symmetry_equiv_pos_as_xyz
'x, y, z'
_cell_length_a     43.836978
_cell_length_b     43.836106
_cell_length_c     96.206747
_cell_angle_alpha  89.985966
_cell_angle_beta   90.011285
_cell_angle_gamma 119.98674
loop_
_atom_site_label
_atom_site_type_symbol
_atom_site_fract_x
_atom_site_fract_y
_atom_site_fract_z
_atom_type_partial_charge
O0 O 0.1788 0.41541 0.07028 0.0
Cd1 Cd 0.17329 0.40037 0.09498 0.0
O2 O 0.2244 0.40816 0.07241 0.0
Cd3 Cd 0.2737 0.41189 0.06562 0.0
O4 O 0.32627 0.41976 0.06214 0.0
C5 C 0.35262 0.44832 0.06627 0.0
O6 O 0.34722 0.47224 0.07217 0.0
C7 C 0.20516 0.41541 0.06479 0.0
C8 C 0.11524 0.39481 0.1091 0.0
O9 O 0.14406 0.42436 0.10829 0.0
O10 O 0.11355 0.36821 0.10282 0.0
O11 O 0.67951 0.18811 0.40581 0.0
Cd12 Cd 0.6597 0.18726 0.42968 0.0
O13 O 0.73447 0.21827 0.41259 0.0
Cd14 Cd 0.7907 0.25428 0.40948 0.0
O15 O 0.84124 0.30238 0.40692 0.0
C16 C 0.83957 0.3304 0.40593 0.0
O17 O 0.80851 0.32806 0.40644 0.0
C18 C 0.7121 0.20472 0.40281 0.0
C19 C 0.66204 0.13934 0.44807 0.0
O20 O 0.6347 0.13072 0.44059 0.0
O21 O 0.6887 0.17029 0.44652 0.0
O22 O 0.49384 0.66043 0.74107 0.0
Cd23 Cd 0.47398 0.63503 0.76424 0.0
O24 O 0.51047 0.71298 0.74939 0.0
Cd25 Cd 0.52483 0.76804 0.74696 0.0
O26 O 0.51979 0.81453 0.74395 0.0
C27 C 0.49197 0.80946 0.73782 0.0
O28 O 0.46935 0.77755 0.73349 0.0
C29 C 0.50644 0.69322 0.73907 0.0
C30 C 0.5267 0.64548 0.78311 0.0
O31 O 0.51282 0.61853 0.77508 0.0
O32 O 0.51624 0.66795 0.78196 0.0
O33 O 0.8467 0.46952 0.06502 0.0
Cd34 Cd 0.84741 0.44074 0.08672 0.0
O35 O 0.8065 0.47843 0.07454 0.0
Cd36 Cd 0.76458 0.4915 0.07422 0.0
O37 O 0.71745 0.49605 0.0729 0.0
C38 C 0.6904 0.47091 0.06723 0.0
O39 O 0.69228 0.44389 0.06236 0.0
C40 C 0.82541 0.48115 0.06407 0.0
C41 C 0.88486 0.48713 0.10824 0.0
O42 O 0.89954 0.4747 0.10032 0.0
O43 O 0.85263 0.47799 0.10587 0.0
O44 O 0.21188 0.86949 0.41722 0.0
Cd45 Cd 0.19478 0.87541 0.44083 0.0
O46 O 0.17315 0.81378 0.42004 0.0
Cd47 Cd 0.13832 0.7601 0.41283 0.0
O48 O 0.10379 0.70571 0.40663 0.0
C49 C 0.11618 0.68574 0.40373 0.0
O50 O 0.15039 0.69852 0.40426 0.0
C51 C 0.19546 0.83842 0.41234 0.0
C52 C 0.24984 0.91964 0.45838 0.0
O53 O 0.23999 0.88682 0.4574 0.0
O54 O 0.23412 0.93165 0.45082 0.0
O55 O 0.3165 0.18586 0.73551 0.0
Cd56 Cd 0.27725 0.16819 0.75567 0.0
O57 O 0.3204 0.13894 0.73992 0.0
Cd58 Cd 0.34101 0.10319 0.73669 0.0
O59 O 0.36061 0.06663 0.73384 0.0
C60 C 0.39071 0.07412 0.73848 0.0
O61 O 0.40997 0.10433 0.74486 0.0
C62 C 0.32835 0.16562 0.7323 0.0
C63 C 0.29331 0.22173 0.77489 0.0
O64 O 0.30782 0.20262 0.77561 0.0
O65 O 0.27163 0.21587 0.76492 0.0
O66 O 0.63218 0.84988 0.59675 0.0
Cd67 Cd 0.6616 0.86303 0.57408 0.0
O68 O 0.63087 0.80015 0.59285 0.0
Cd69 Cd 0.61527 0.74558 0.59752 0.0
O70 O 0.59588 0.68953 0.60011 0.0
C71 C 0.56601 0.66735 0.59515 0.0
O72 O 0.54729 0.67886 0.58871 0.0
C73 C 0.62432 0.81925 0.60084 0.0
C74 C 0.65584 0.91083 0.55672 0.0
O75 O 0.63218 0.87813 0.55674 0.0
O76 O 0.68155 0.92111 0.56529 0.0
O77 O 0.80375 0.65542 0.93155 0.0
Cd78 Cd 0.82117 0.69095 0.91029 0.0
O79 O 0.84357 0.64215 0.92511 0.0
Cd80 Cd 0.87894 0.62111 0.92835 0.0
O81 O 0.91621 0.60235 0.93093 0.0
C82 C 0.90591 0.56967 0.93175 0.0
O83 O 0.87203 0.54678 0.93119 0.0
C84 C 0.82067 0.6394 0.93391 0.0
C85 C 0.76755 0.67829 0.89153 0.0
O86 O 0.78279 0.65982 0.89126 0.0
O87 O 0.77701 0.7021 0.90091 0.0
O88 O 0.13735 0.76511 0.26075 0.0
Cd89 Cd 0.13508 0.77497 0.23579 0.0
O90 O 0.18875 0.81238 0.25794 0.0
Cd91 Cd 0.2407 0.85264 0.26514 0.0
O92 O 0.29623 0.8894 0.26902 0.0
C93 C 0.31753 0.87777 0.26985 0.0
O94 O 0.30525 0.84371 0.26877 0.0
C95 C 0.16601 0.78906 0.26596 0.0
C96 C 0.08697 0.71911 0.21941 0.0
O97 O 0.11783 0.72383 0.22175 0.0
O98 O 0.07841 0.74004 0.22526 0.0
O99 O 0.52598 0.18328 0.60347 0.0
Cd100 Cd 0.55207 0.18069 0.58138 0.0
O101 O 0.50105 0.20957 0.59296 0.0
Cd102 Cd 0.47463 0.24063 0.59311 0.0
O103 O 0.46765 0.28632 0.5949 0.0
C104 C 0.49127 0.31193 0.60183 0.0
O105 O 0.51661 0.30848 0.60754 0.0
C106 C 0.50688 0.19749 0.60403 0.0
C107 C 0.50186 0.13809 0.56181 0.0
O108 O 0.51564 0.12543 0.5701 0.0
O109 O 0.5117 0.17088 0.56285 0.0
O110 O 0.35 0.51953 0.92122 0.0
Cd111 Cd 0.37691 0.53697 0.8982 0.0
O112 O 0.29683 0.49685 0.9125 0.0
Cd113 Cd 0.24032 0.47712 0.91418 0.0
O114 O 0.18956 0.47377 0.91745 0.0
C115 C 0.19097 0.50193 0.92162 0.0
O116 O 0.222 0.52991 0.92371 0.0
C117 C 0.31689 0.50443 0.92303 0.0
C118 C 0.35883 0.48134 0.87983 0.0
O119 O 0.38521 0.49178 0.88806 0.0
O120 O 0.34063 0.49683 0.88048 0.0
O121 O 0.81416 0.32402 0.2555 0.0
Cd122 Cd 0.80949 0.34102 0.23173 0.0
O123 O 0.7787 0.26901 0.24976 0.0
Cd124 Cd 0.7408 0.21374 0.25408 0.0
O125 O 0.696 0.16186 0.2585 0.0
C126 C 0.67158 0.14887 0.24949 0.0
O127 O 0.6752 0.16671 0.23803 0.0
C128 C 0.79638 0.29181 0.25901 0.0
C129 C 0.86127 0.34732 0.21329 0.0
O130 O 0.86574 0.37351 0.22073 0.0
O131 O 0.83262 0.3179 0.21484 0.0
H132 H 0.25514 0.44855 0.93244 0.0
H133 H 0.23336 0.43659 0.95638 0.0
H134 H 0.32512 0.53251 0.96982 0.0
H135 H 0.347 0.54436 0.94594 0.0
H136 H 0.31624 0.48231 0.98591 0.0
H137 H 0.24051 0.52343 0.96919 0.0
H138 H 0.19626 0.52728 0.95461 0.0
H139 H 0.12087 0.41952 0.9639 0.0
H140 H 0.16469 0.41496 0.97851 0.0
H141 H 0.19714 0.46357 0.04968 0.0
H142 H 0.21498 0.48133 0.0255 0.0
H143 H 0.24928 0.40485 0.02237 0.0
H144 H 0.23188 0.38744 0.04649 0.0
H145 H 0.19599 0.44994 0.00154 0.0
H146 H 0.3203 0.43462 0.00121 0.0
H147 H 0.36737 0.44089 0.01705 0.0
H148 H 0.3504 0.51069 0.043 0.0
H149 H 0.3036 0.50529 0.02721 0.0
C150 C 0.27017 0.46751 0.94044 0.0
C151 C 0.30251 0.49766 0.9373 0.0
C152 C 0.25775 0.46061 0.95414 0.0
C153 C 0.27738 0.48384 0.96491 0.0
C154 C 0.30948 0.51418 0.96171 0.0
C155 C 0.32199 0.52092 0.94807 0.0
C156 C 0.26596 0.47536 0.97964 0.0
C157 C 0.28993 0.47528 0.98931 0.0
C158 C 0.23182 0.46666 0.98417 0.0
C159 C 0.20601 0.46877 0.97484 0.0
C160 C 0.21465 0.50041 0.96798 0.0
C161 C 0.1896 0.50275 0.95975 0.0
C162 C 0.15584 0.47361 0.9583 0.0
C163 C 0.14707 0.44203 0.96502 0.0
C164 C 0.17197 0.43958 0.97329 0.0
C165 C 0.20848 0.4506 0.04379 0.0
C166 C 0.21406 0.42484 0.05003 0.0
C167 C 0.21863 0.46071 0.03 0.0
C168 C 0.2342 0.44498 0.0222 0.0
C169 C 0.23833 0.41814 0.02829 0.0
C170 C 0.22852 0.40831 0.04209 0.0
C171 C 0.24618 0.45658 0.00772 0.0
C172 C 0.22229 0.45702 0.99811 0.0
C173 C 0.28073 0.46653 0.0033 0.0
C174 C 0.30823 0.4693 0.01307 0.0
C175 C 0.32662 0.45132 0.01029 0.0
C176 C 0.35326 0.45475 0.01925 0.0
C177 C 0.36188 0.47621 0.031 0.0
C178 C 0.34366 0.49406 0.03389 0.0
C179 C 0.31703 0.49078 0.02495 0.0
H180 H 0.38282 0.47917 0.03781 0.0
H181 H 0.13632 0.47555 0.95209 0.0
H182 H 0.78628 0.22992 0.27046 0.0
H183 H 0.77449 0.21209 0.2949 0.0
H184 H 0.7903 0.31453 0.30564 0.0
H185 H 0.80088 0.33203 0.28122 0.0
H186 H 0.82155 0.29267 0.32408 0.0
H187 H 0.7095 0.24738 0.30197 0.0
H188 H 0.66335 0.2134 0.28465 0.0
H189 H 0.65722 0.11772 0.29895 0.0
H190 H 0.70401 0.15127 0.31617 0.0
H191 H 0.67657 0.21224 0.38126 0.0
H192 H 0.69501 0.22538 0.35704 0.0
H193 H 0.79034 0.22363 0.36661 0.0
H194 H 0.77202 0.21085 0.39099 0.0
H195 H 0.70551 0.19217 0.33768 0.0
H196 H 0.85611 0.2783 0.34451 0.0
H197 H 0.90102 0.32296 0.36004 0.0
H198 H 0.82475 0.34824 0.37589 0.0
H199 H 0.77939 0.3037 0.36046 0.0
C200 C 0.78655 0.24837 0.27799 0.0
C201 C 0.79324 0.28192 0.27386 0.0
C202 C 0.78026 0.2383 0.29197 0.0
C203 C 0.78098 0.2618 0.30204 0.0
C204 C 0.7895 0.29594 0.29803 0.0
C205 C 0.79556 0.30591 0.28407 0.0
C206 C 0.77183 0.25077 0.31673 0.0
C207 C 0.79632 0.27046 0.32708 0.0
C208 C 0.73865 0.22221 0.3206 0.0
C209 C 0.71068 0.20192 0.31021 0.0
C210 C 0.69866 0.21915 0.30131 0.0
C211 C 0.67236 0.19998 0.29152 0.0
C212 C 0.65756 0.16349 0.29065 0.0
C213 C 0.6689 0.14604 0.29959 0.0
C214 C 0.69534 0.16513 0.30936 0.0
C215 C 0.70144 0.21459 0.3782 0.0
C216 C 0.72316 0.21117 0.38807 0.0
C217 C 0.71198 0.22209 0.36434 0.0
C218 C 0.74431 0.22599 0.35998 0.0
C219 C 0.76568 0.22164 0.36976 0.0
C220 C 0.75526 0.21444 0.3837 0.0
C221 C 0.75517 0.23438 0.34517 0.0
C222 C 0.73103 0.21401 0.33474 0.0
C223 C 0.78831 0.263 0.34123 0.0
C224 C 0.81432 0.28742 0.35145 0.0
C225 C 0.84886 0.29314 0.35143 0.0
C226 C 0.87439 0.31845 0.36018 0.0
C227 C 0.86573 0.3384 0.36893 0.0
C228 C 0.83136 0.33264 0.36914 0.0
C229 C 0.80568 0.30724 0.36044 0.0
H230 H 0.8858 0.35858 0.37541 0.0
H231 H 0.63719 0.14877 0.28308 0.0
H232 H 0.561 0.75635 0.73027 0.0
H233 H 0.57468 0.77845 0.70642 0.0
H234 H 0.48258 0.68428 0.69184 0.0
H235 H 0.4696 0.66177 0.71563 0.0
H236 H 0.53173 0.69501 0.67616 0.0
H237 H 0.48887 0.76907 0.69129 0.0
H238 H 0.48135 0.81129 0.70569 0.0
H239 H 0.5903 0.88863 0.69988 0.0
H240 H 0.59844 0.84685 0.68533 0.0
H241 H 0.57455 0.82897 0.61399 0.0
H242 H 0.54775 0.80608 0.6368 0.0
H243 H 0.61363 0.75948 0.64188 0.0
H244 H 0.63927 0.78118 0.619 0.0
H245 H 0.56921 0.81711 0.66138 0.0
H246 H 0.57738 0.68768 0.6619 0.0
H247 H 0.56838 0.63937 0.64622 0.0
H248 H 0.50717 0.66484 0.61875 0.0
H249 H 0.51543 0.71309 0.63433 0.0
C250 C 0.54338 0.74071 0.72199 0.0
C251 C 0.5141 0.70749 0.72479 0.0
C252 C 0.55114 0.75339 0.70834 0.0
C253 C 0.52944 0.7333 0.69727 0.0
C254 C 0.49983 0.70032 0.70015 0.0
C255 C 0.49242 0.68743 0.71374 0.0
C256 C 0.53908 0.7453 0.68261 0.0
C257 C 0.5398 0.7217 0.67293 0.0
C258 C 0.54864 0.77978 0.67822 0.0
C259 C 0.54434 0.80468 0.68734 0.0
C260 C 0.51133 0.79495 0.6932 0.0
C261 C 0.50692 0.81886 0.70135 0.0
C262 C 0.53538 0.85256 0.70379 0.0
C263 C 0.5683 0.86248 0.69802 0.0
C264 C 0.57279 0.83874 0.68977 0.0
C265 C 0.58299 0.81358 0.61998 0.0
C266 C 0.60833 0.80611 0.61463 0.0
C267 C 0.56775 0.80055 0.63301 0.0
C268 C 0.57804 0.78032 0.641 0.0
C269 C 0.60422 0.77387 0.63578 0.0
C270 C 0.61893 0.78632 0.62268 0.0
C271 C 0.56246 0.76694 0.65499 0.0
C272 C 0.5609 0.79034 0.66457 0.0
C273 C 0.55051 0.73171 0.65914 0.0
C274 C 0.54723 0.70418 0.64926 0.0
C275 C 0.56208 0.68306 0.65249 0.0
C276 C 0.55706 0.65565 0.64364 0.0
C277 C 0.53709 0.64898 0.63155 0.0
C278 C 0.52261 0.67007 0.62814 0.0
C279 C 0.52755 0.69753 0.63696 0.0
H280 H 0.53259 0.62726 0.62489 0.0
H281 H 0.53189 0.87105 0.71009 0.0
H282 H 0.81122 0.53472 0.06004 0.0
H283 H 0.80508 0.55854 0.03789 0.0
H284 H 0.82632 0.48538 0.01588 0.0
H285 H 0.83238 0.46147 0.03802 0.0
H286 H 0.86435 0.54866 0.00567 0.0
H287 H 0.74191 0.47608 0.0176 0.0
H288 H 0.68724 0.4539 0.03127 0.0
H289 H 0.6982 0.55682 0.03098 0.0
H290 H 0.75315 0.57978 0.01746 0.0
H291 H 0.82303 0.57895 0.93801 0.0
H292 H 0.8208 0.55059 0.96017 0.0
H293 H 0.80321 0.62685 0.98164 0.0
H294 H 0.8058 0.65555 0.95944 0.0
H295 H 0.76251 0.56208 0.99213 0.0
H296 H 0.88458 0.63516 0.98104 0.0
H297 H 0.93857 0.6584 0.9669 0.0
H298 H 0.9286 0.55588 0.96588 0.0
H299 H 0.87417 0.53185 0.97983 0.0
C300 C 0.81368 0.52313 0.05048 0.0
C301 C 0.82153 0.49573 0.05075 0.0
C302 C 0.81031 0.53686 0.03781 0.0
C303 C 0.81463 0.52336 0.02519 0.0
C304 C 0.8227 0.49613 0.02548 0.0
C305 C 0.82623 0.48253 0.03813 0.0
C306 C 0.81289 0.53893 0.01169 0.0
C307 C 0.84177 0.55102 0.00263 0.0
C308 C 0.78398 0.54317 0.00789 0.0
C309 C 0.75185 0.52972 0.01661 0.0
C310 C 0.73294 0.49411 0.02061 0.0
C311 C 0.70183 0.48137 0.02829 0.0
C312 C 0.68929 0.50396 0.03197 0.0
C313 C 0.70797 0.53939 0.02811 0.0
C314 C 0.73907 0.55226 0.02043 0.0
C315 C 0.81917 0.58994 0.94747 0.0
C316 C 0.81571 0.6201 0.94708 0.0
C317 C 0.81764 0.57357 0.96012 0.0
C318 C 0.81264 0.58708 0.9726 0.0
C319 C 0.80735 0.61613 0.97215 0.0
C320 C 0.80881 0.63248 0.95948 0.0
C321 C 0.81376 0.5714 0.98614 0.0
C322 C 0.78493 0.5595 0.99519 0.0
C323 C 0.84276 0.56745 0.99 0.0
C324 C 0.87513 0.58165 0.98139 0.0
C325 C 0.89369 0.61748 0.97768 0.0
C326 C 0.92441 0.63081 0.96973 0.0
C327 C 0.93702 0.60864 0.96552 0.0
C328 C 0.91882 0.57303 0.96918 0.0
C329 C 0.88803 0.55954 0.9771 0.0
H330 H 0.96094 0.6191 0.95946 0.0
H331 H 0.66496 0.49401 0.03771 0.0
H332 H 0.19502 0.84708 0.28225 0.0
H333 H 0.20579 0.8506 0.30719 0.0
H334 H 0.16304 0.73799 0.30872 0.0
H335 H 0.15081 0.73438 0.28366 0.0
H336 H 0.13987 0.75478 0.32951 0.0
H337 H 0.25583 0.80064 0.31252 0.0
H338 H 0.30963 0.83691 0.29881 0.0
H339 H 0.31932 0.93086 0.31691 0.0
H340 H 0.26547 0.8952 0.33068 0.0
H341 H 0.19252 0.77956 0.40109 0.0
H342 H 0.19249 0.7661 0.37638 0.0
H343 H 0.21066 0.8695 0.36576 0.0
H344 H 0.20976 0.88269 0.39042 0.0
H345 H 0.2508 0.84939 0.3501 0.0
H346 H 0.12787 0.79805 0.36509 0.0
H347 H 0.07704 0.75844 0.37969 0.0
H348 H 0.08481 0.6696 0.36564 0.0
H349 H 0.136 0.7088 0.35106 0.0
C350 C 0.18842 0.82316 0.28788 0.0
C351 C 0.17271 0.79055 0.28103 0.0
C352 C 0.19473 0.82517 0.30215 0.0
C353 C 0.18625 0.79471 0.30986 0.0
C354 C 0.17015 0.76195 0.30302 0.0
C355 C 0.16316 0.75986 0.28873 0.0
C356 C 0.19242 0.79721 0.32515 0.0
C357 C 0.16447 0.77499 0.33396 0.0
C358 C 0.22447 0.82351 0.3311 0.0
C359 C 0.25646 0.8452 0.32259 0.0
C360 C 0.26925 0.82904 0.31349 0.0
C361 C 0.29981 0.8495 0.30574 0.0
C362 C 0.31785 0.88616 0.30699 0.0
C363 C 0.30533 0.90246 0.31597 0.0
C364 C 0.27484 0.88213 0.32378 0.0
C365 C 0.19595 0.79918 0.39347 0.0
C366 C 0.19985 0.83169 0.39763 0.0
C367 C 0.19634 0.79161 0.37938 0.0
C368 C 0.2009 0.81656 0.36924 0.0
C369 C 0.20689 0.8498 0.37342 0.0
C370 C 0.20639 0.85731 0.3875 0.0
C371 C 0.19797 0.80786 0.35423 0.0
C372 C 0.22654 0.82885 0.34553 0.0
C373 C 0.16687 0.7799 0.34842 0.0
C374 C 0.13593 0.75639 0.35709 0.0
C375 C 0.11887 0.77011 0.36518 0.0
C376 C 0.08998 0.74773 0.37343 0.0
C377 C 0.07772 0.71155 0.37359 0.0
C378 C 0.09434 0.69764 0.3655 0.0
C379 C 0.12327 0.71992 0.35723 0.0
H380 H 0.05529 0.69429 0.37995 0.0
H381 H 0.34162 0.90196 0.30105 0.0
H382 H 0.44259 0.19071 0.60922 0.0
H383 H 0.41807 0.19293 0.63175 0.0
H384 H 0.51465 0.21348 0.65182 0.0
H385 H 0.53881 0.21034 0.62928 0.0
H386 H 0.46442 0.16678 0.66559 0.0
H387 H 0.489 0.27905 0.64956 0.0
H388 H 0.4901 0.32394 0.63383 0.0
H389 H 0.37705 0.26943 0.63333 0.0
H390 H 0.37527 0.22429 0.64919 0.0
H391 H 0.37703 0.22964 0.72193 0.0
H392 H 0.41365 0.24146 0.70113 0.0
H393 H 0.36483 0.12974 0.69347 0.0
H394 H 0.32847 0.118 0.71416 0.0
H395 H 0.39918 0.22997 0.67501 0.0
H396 H 0.42102 0.10889 0.67838 0.0
H397 H 0.43271 0.07507 0.696 0.0
H398 H 0.46987 0.16191 0.72442 0.0
H399 H 0.45883 0.19642 0.70695 0.0
C400 C 0.45883 0.19648 0.61841 0.0
C401 C 0.49275 0.20083 0.61751 0.0
C402 C 0.44482 0.19777 0.6313 0.0
C403 C 0.46466 0.20392 0.64352 0.0
C404 C 0.49878 0.20872 0.64257 0.0
C405 C 0.51258 0.20694 0.6297 0.0
C406 C 0.44886 0.20268 0.65734 0.0
C407 C 0.45028 0.18073 0.66764 0.0
C408 C 0.43123 0.2216 0.66024 0.0
C409 C 0.43202 0.24815 0.65047 0.0
C410 C 0.46437 0.27648 0.64601 0.0
C411 C 0.46511 0.30203 0.6371 0.0
C412 C 0.43366 0.29945 0.63251 0.0
C413 C 0.40139 0.27137 0.63688 0.0
C414 C 0.4005 0.24588 0.64588 0.0
C415 C 0.37439 0.20768 0.71583 0.0
C416 C 0.35069 0.17288 0.71987 0.0
C417 C 0.39525 0.21442 0.70395 0.0
C418 C 0.39254 0.18647 0.69587 0.0
C419 C 0.36824 0.15173 0.69976 0.0
C420 C 0.3476 0.14501 0.71165 0.0
C421 C 0.41409 0.19341 0.68309 0.0
C422 C 0.41355 0.21624 0.67297 0.0
C423 C 0.43376 0.17639 0.68056 0.0
C424 C 0.43888 0.15516 0.69136 0.0
C425 C 0.43164 0.12076 0.6884 0.0
C426 C 0.43819 0.10149 0.69835 0.0
C427 C 0.45215 0.11642 0.71128 0.0
C428 C 0.45908 0.15042 0.71438 0.0
C429 C 0.45258 0.16981 0.70447 0.0
H430 H 0.45783 0.10173 0.71885 0.0
H431 H 0.43429 0.31928 0.62563 0.0
H432 H 0.62802 0.42107 0.05596 0.0
H433 H 0.57292 0.42208 0.05457 0.0
H434 H 0.62228 0.5235 0.07476 0.0
H435 H 0.67757 0.52265 0.07627 0.0
H436 H 0.55863 0.47835 0.0861 0.0
H437 H 0.60489 0.51845 0.0406 0.0
H438 H 0.63082 0.51711 0.01803 0.0
H439 H 0.53976 0.41736 0.0086 0.0
H440 H 0.51331 0.41799 0.03116 0.0
H441 H 0.41416 0.50539 0.07485 0.0
H442 H 0.47343 0.51343 0.07372 0.0
H443 H 0.43222 0.41239 0.05367 0.0
H444 H 0.37287 0.40429 0.0546 0.0
H445 H 0.49391 0.46183 0.04186 0.0
H446 H 0.44971 0.42058 0.08806 0.0
H447 H 0.42416 0.42201 0.11072 0.0
H448 H 0.51258 0.52459 0.1189 0.0
H449 H 0.53843 0.52395 0.09619 0.0
C450 C 0.62722 0.44363 0.06009 0.0
C451 C 0.65716 0.47175 0.06626 0.0
C452 C 0.59575 0.44427 0.05921 0.0
C453 C 0.59362 0.47302 0.06444 0.0
C454 C 0.62342 0.5011 0.07063 0.0
C455 C 0.65497 0.50056 0.07148 0.0
C456 C 0.55988 0.47309 0.06388 0.0
C457 C 0.54478 0.47539 0.0764 0.0
C458 C 0.54154 0.46853 0.05125 0.0
C459 C 0.55723 0.46814 0.03762 0.0
C460 C 0.59047 0.49612 0.03376 0.0
C461 C 0.60525 0.49552 0.02095 0.0
C462 C 0.58702 0.4671 0.01192 0.0
C463 C 0.55387 0.43933 0.01562 0.0
C464 C 0.53893 0.43984 0.0284 0.0
C465 C 0.41769 0.48493 0.07014 0.0
C466 C 0.38873 0.454 0.06496 0.0
C467 C 0.45159 0.48956 0.06952 0.0
C468 C 0.45714 0.46329 0.06379 0.0
C469 C 0.42848 0.43294 0.05818 0.0
C470 C 0.39456 0.42828 0.05878 0.0
C471 C 0.49257 0.46681 0.06409 0.0
C472 C 0.50795 0.46513 0.05153 0.0
C473 C 0.51124 0.472 0.07669 0.0
C474 C 0.4958 0.47237 0.09037 0.0
C475 C 0.46356 0.44355 0.09465 0.0
C476 C 0.44905 0.4442 0.10751 0.0
C477 C 0.46669 0.47342 0.11623 0.0
C478 C 0.49892 0.502 0.11212 0.0
C479 C 0.51352 0.5015 0.09926 0.0
H480 H 0.45542 0.47387 0.12618 0.0
H481 H 0.59854 0.46665 0.00202 0.0
H482 H 0.90836 0.34551 0.40564 0.0
H483 H 0.9611 0.40315 0.40214 0.0
H484 H 0.89607 0.45098 0.3985 0.0
H485 H 0.84345 0.39365 0.40168 0.0
H486 H 0.94654 0.4764 0.37915 0.0
H487 H 0.93966 0.45423 0.42894 0.0
H488 H 0.93767 0.42071 0.44985 0.0
H489 H 0.03701 0.43043 0.43871 0.0
H490 H 0.03936 0.46366 0.41763 0.0
H491 H 0.04501 0.65259 0.4001 0.0
H492 H 0.00448 0.58975 0.39712 0.0
H493 H 0.0916 0.57018 0.39809 0.0
H494 H 0.13262 0.63338 0.40104 0.0
H495 H 0.03812 0.52713 0.41587 0.0
H496 H 0.04982 0.55977 0.36841 0.0
H497 H 0.05233 0.59567 0.34826 0.0
H498 H 0.94457 0.56749 0.35502 0.0
H499 H 0.94157 0.53197 0.3754 0.0
C500 C 0.90534 0.36834 0.4041 0.0
C501 C 0.87173 0.36505 0.40402 0.0
C502 C 0.93549 0.40123 0.4021 0.0
C503 C 0.93253 0.43141 0.40015 0.0
C504 C 0.89898 0.42805 0.39993 0.0
C505 C 0.86891 0.39526 0.40187 0.0
C506 C 0.96414 0.46685 0.39873 0.0
C507 C 0.96654 0.48756 0.38718 0.0
C508 C 0.99089 0.48096 0.40898 0.0
C509 C 0.98946 0.46101 0.42163 0.0
C510 C 0.96093 0.44896 0.43089 0.0
C511 C 0.95977 0.43007 0.44279 0.0
C512 C 0.98714 0.42334 0.44558 0.0
C513 C 0.01579 0.43559 0.43652 0.0
C514 C 0.01706 0.45446 0.4246 0.0
C515 C 0.05569 0.63506 0.3995 0.0
C516 C 0.09205 0.64799 0.40083 0.0
C517 C 0.03247 0.59913 0.39775 0.0
C518 C 0.04508 0.57536 0.39729 0.0
C519 C 0.0814 0.58815 0.39838 0.0
C520 C 0.10476 0.62425 0.40003 0.0
C521 C 0.01978 0.53705 0.39655 0.0
C522 C 0.0186 0.51578 0.40766 0.0
C523 C 0.99413 0.52247 0.38592 0.0
C524 C 0.99554 0.54331 0.3735 0.0
C525 C 0.0267 0.56139 0.36566 0.0
C526 C 0.02822 0.58168 0.35419 0.0
C527 C 0.99864 0.58389 0.35037 0.0
C528 C 0.96746 0.56575 0.35799 0.0
C529 C 0.96583 0.54549 0.3695 0.0
H530 H -0.00013 0.59962 0.34149 0.0
H531 H 0.98619 0.40872 0.4548 0.0
H532 H 0.35791 0.0102 0.72541 0.0
H533 H 0.37783 0.96727 0.72384 0.0
H534 H 0.47212 0.03743 0.74652 0.0
H535 H 0.45242 0.08064 0.74815 0.0
H536 H 0.48488 0.00474 0.72398 0.0
H537 H 0.40751 0.97254 0.76349 0.0
H538 H 0.35247 0.95806 0.77572 0.0
H539 H 0.29432 0.86979 0.74856 0.0
H540 H 0.349 0.88406 0.73604 0.0
H541 H 0.53234 0.87826 0.74597 0.0
H542 H 0.5173 0.9249 0.74446 0.0
H543 H 0.41912 0.85287 0.72446 0.0
H544 H 0.43368 0.80604 0.72609 0.0
H545 H 0.40907 0.88731 0.74526 0.0
H546 H 0.4867 0.91742 0.70635 0.0
H547 H 0.54175 0.93112 0.69433 0.0
H548 H 0.59942 0.02257 0.72 0.0
H549 H 0.54479 0.00905 0.73238 0.0
C550 C 0.38294 0.0166 0.73004 0.0
C551 C 0.40342 0.04871 0.73703 0.0
C552 C 0.39429 0.99204 0.72911 0.0
C553 C 0.42628 0.99908 0.73518 0.0
C554 C 0.44734 0.03153 0.74178 0.0
C555 C 0.43593 0.05607 0.74277 0.0
C556 C 0.43686 0.97183 0.73519 0.0
C557 C 0.46857 0.97918 0.72876 0.0
C558 C 0.41517 0.9383 0.74119 0.0
C559 C 0.38228 0.92959 0.74874 0.0
C560 C 0.38294 0.95022 0.76005 0.0
C561 C 0.35182 0.94202 0.76705 0.0
C562 C 0.3199 0.91308 0.7629 0.0
C563 C 0.31906 0.89223 0.75176 0.0
C564 C 0.35011 0.90034 0.74471 0.0
C565 C 0.50764 0.8724 0.74118 0.0
C566 C 0.48411 0.83839 0.73622 0.0
C567 C 0.49916 0.89914 0.74026 0.0
C568 C 0.46715 0.89239 0.73429 0.0
C569 C 0.44392 0.85862 0.72913 0.0
C570 C 0.45233 0.8319 0.73006 0.0
C571 C 0.45705 0.92 0.73397 0.0
C572 C 0.42541 0.91278 0.74041 0.0
C573 C 0.47881 0.95354 0.72795 0.0
C574 C 0.51166 0.96203 0.72039 0.0
C575 C 0.51115 0.94031 0.70951 0.0
C576 C 0.54228 0.94806 0.70262 0.0
C577 C 0.57407 0.97766 0.70642 0.0
C578 C 0.57477 -0.00037 0.71709 0.0
C579 C 0.54372 0.99194 0.72404 0.0
H580 H 0.59815 0.98361 0.70108 0.0
H581 H 0.29584 0.90677 0.76833 0.0
H582 H 0.44258 0.32809 0.59164 0.0
H583 H 0.44594 0.38556 0.59196 0.0
H584 H 0.54441 0.42975 0.61423 0.0
H585 H 0.54089 0.37248 0.61421 0.0
H586 H 0.50472 0.45527 0.62414 0.0
H587 H 0.54109 0.43752 0.57854 0.0
H588 H 0.53281 0.40604 0.55637 0.0
H589 H 0.44287 0.41688 0.54705 0.0
H590 H 0.4504 0.44807 0.56926 0.0
H591 H 0.5987 0.6353 0.60753 0.0
H592 H 0.57675 0.57228 0.60987 0.0
H593 H 0.48123 0.54972 0.58848 0.0
H594 H 0.50308 0.61293 0.58602 0.0
H595 H 0.50893 0.51046 0.5786 0.0
H596 H 0.47845 0.53651 0.62265 0.0
H597 H 0.48813 0.56953 0.64448 0.0
H598 H 0.56703 0.54414 0.6567 0.0
H599 H 0.5582 0.51135 0.63484 0.0
C600 C 0.4648 0.35001 0.59669 0.0
C601 C 0.49169 0.34583 0.60275 0.0
C602 C 0.4667 0.38283 0.59685 0.0
C603 C 0.4957 0.41208 0.60294 0.0
C604 C 0.52182 0.40758 0.60945 0.0
C605 C 0.51985 0.37482 0.60936 0.0
C606 C 0.50014 0.44785 0.60194 0.0
C607 C 0.50577 0.4674 0.61419 0.0
C608 C 0.50047 0.46334 0.58898 0.0
C609 C 0.49605 0.44473 0.57562 0.0
C610 C 0.5194 0.43295 0.5718 0.0
C611 C 0.51487 0.41521 0.55923 0.0
C612 C 0.48726 0.40936 0.55033 0.0
C613 C 0.4642 0.42135 0.55397 0.0
C614 C 0.46859 0.43907 0.56654 0.0
C615 C 0.573 0.61699 0.60333 0.0
C616 C 0.55264 0.62914 0.59658 0.0
C617 C 0.56039 0.58096 0.60476 0.0
C618 C 0.52718 0.55634 0.5995 0.0
C619 C 0.50687 0.56832 0.59266 0.0
C620 C 0.51941 0.60442 0.59127 0.0
C621 C 0.51445 0.51815 0.60077 0.0
C622 C 0.50725 0.49816 0.58858 0.0
C623 C 0.51268 0.5023 0.61378 0.0
C624 C 0.51778 0.5216 0.62705 0.0
C625 C 0.49801 0.53811 0.62995 0.0
C626 C 0.5033 0.55675 0.64235 0.0
C627 C 0.52819 0.55894 0.65197 0.0
C628 C 0.54775 0.5424 0.64924 0.0
C629 C 0.54256 0.52372 0.63686 0.0
H630 H 0.53231 0.57347 0.66154 0.0
H631 H 0.4838 0.39562 0.5406 0.0
H632 H 0.18606 0.5587 0.92993 0.0
H633 H 0.1329 0.56196 0.93384 0.0
H634 H 0.069 0.45219 0.923 0.0
H635 H 0.1224 0.44888 0.91874 0.0
H636 H 0.0447 0.48955 0.91068 0.0
H637 H 0.07439 0.47886 0.95711 0.0
H638 H 0.11246 0.49126 0.97766 0.0
H639 H 0.13358 0.59801 0.97831 0.0
H640 H 0.09573 0.58633 0.95773 0.0
H641 H 0.89371 0.50197 0.93099 0.0
H642 H 0.93753 0.48285 0.93145 0.0
H643 H 0.02055 0.59091 0.93539 0.0
H644 H 0.97717 0.61029 0.93477 0.0
H645 H 0.02857 0.54408 0.95318 0.0
H646 H 0.00341 0.55393 0.90457 0.0
H647 H 0.96415 0.53951 0.88428 0.0
H648 H 0.93267 0.43014 0.88851 0.0
H649 H 0.97142 0.44389 0.90896 0.0
C650 C 0.16074 0.53519 0.92839 0.0
C651 C 0.15847 0.50353 0.92403 0.0
C652 C 0.13032 0.53701 0.93075 0.0
C653 C 0.09692 0.50716 0.92896 0.0
C654 C 0.0945 0.4755 0.92452 0.0
C655 C 0.12502 0.47368 0.92209 0.0
C656 C 0.0648 0.50982 0.93111 0.0
C657 C 0.04075 0.5007 0.92011 0.0
C658 C 0.0597 0.52459 0.94338 0.0
C659 C 0.08236 0.53176 0.95582 0.0
C660 C 0.08729 0.50504 0.96159 0.0
C661 C 0.1088 0.51192 0.97325 0.0
C662 C 0.12554 0.54543 0.97925 0.0
C663 C 0.12063 0.57207 0.97364 0.0
C664 C 0.09905 0.56531 0.96201 0.0
C665 C 0.92128 0.52165 0.93204 0.0
C666 C 0.93197 0.55768 0.93278 0.0
C667 C 0.94624 0.51066 0.9323 0.0
C668 C 0.98224 0.5355 0.93339 0.0
C669 C 0.99287 0.57133 0.93458 0.0
C670 C 0.96803 0.58236 0.93417 0.0
C671 C 0.00922 0.52466 0.93263 0.0
C672 C 0.03223 0.53225 0.94389 0.0
C673 C 0.01311 0.50808 0.92069 0.0
C674 C 0.98995 0.49987 0.90839 0.0
C675 C 0.98787 0.52677 0.90125 0.0
C676 C 0.96577 0.51873 0.88971 0.0
C677 C 0.94584 0.48392 0.88514 0.0
C678 C 0.94806 0.45708 0.89208 0.0
C679 C 0.97009 0.46499 0.90364 0.0
H680 H 0.92875 0.47774 0.8762 0.0
H681 H 0.14225 0.55072 0.98826 0.0
H682 H 0.35137 0.94955 0.27155 0.0
H683 H 0.41472 0.9905 0.27077 0.0
H684 H 0.43397 0.90316 0.27003 0.0
H685 H 0.37049 0.86189 0.27063 0.0
H686 H 0.47164 0.00409 0.28653 0.0
H687 H 0.50196 0.92482 0.24716 0.0
H688 H 0.4717 0.87843 0.22947 0.0
H689 H 0.39693 0.91303 0.22266 0.0
H690 H 0.427 0.95984 0.24018 0.0
H691 H 0.65605 0.10395 0.27159 0.0
H692 H 0.59893 0.05254 0.27724 0.0
H693 H 0.55526 0.06751 0.23938 0.0
H694 H 0.61196 0.11879 0.23371 0.0
H695 H 0.53274 0.99832 0.24402 0.0
H696 H 0.54188 0.0983 0.2699 0.0
H697 H 0.57082 0.14773 0.28644 0.0
H698 H 0.56483 0.07646 0.31837 0.0
H699 H 0.53581 0.0266 0.30198 0.0
C700 C 0.36905 0.939 0.27136 0.0
C701 C 0.35588 0.90246 0.27092 0.0
C702 C 0.40527 0.96246 0.271 0.0
C703 C 0.42901 0.94987 0.27017 0.0
C704 C 0.41605 0.91341 0.27049 0.0
C705 C 0.37977 0.88989 0.27083 0.0
C706 C 0.46692 0.975 0.26782 0.0
C707 C 0.48513 0.00257 0.27733 0.0
C708 C 0.48449 0.9732 0.25577 0.0
C709 C 0.46647 0.9455 0.24509 0.0
C710 C 0.47911 0.92254 0.24185 0.0
C711 C 0.46199 0.89619 0.23186 0.0
C712 C 0.43233 0.8927 0.22498 0.0
C713 C 0.41982 0.91566 0.22803 0.0
C714 C 0.43686 0.94209 0.238 0.0
C715 C 0.63431 0.09615 0.26444 0.0
C716 C 0.63837 0.11577 0.25231 0.0
C717 C 0.60174 0.06679 0.26768 0.0
C718 C 0.5728 0.05648 0.2588 0.0
C719 C 0.57727 0.07503 0.24638 0.0
C720 C 0.6097 0.10442 0.24317 0.0
C721 C 0.53729 0.02759 0.26264 0.0
C722 C 0.51953 0.99932 0.25341 0.0
C723 C 0.52 0.02904 0.27482 0.0
C724 C 0.53696 0.05884 0.28471 0.0
C725 C 0.54682 0.09323 0.28044 0.0
C726 C 0.56311 0.12128 0.2898 0.0
C727 C 0.56969 0.11524 0.30344 0.0
C728 C 0.55973 0.08109 0.30779 0.0
C729 C 0.54326 0.05292 0.29849 0.0
H730 H 0.58253 0.13703 0.31064 0.0
H731 H 0.4191 0.87226 0.21727 0.0
H732 H 0.85749 0.29799 0.1949 0.0
H733 H 0.89967 0.30592 0.17665 0.0
H734 H 0.96719 0.41328 0.18981 0.0
H735 H 0.92485 0.4059 0.2079 0.0
H736 H 0.95548 0.40687 0.16127 0.0
H737 H 0.98994 0.35382 0.19715 0.0
H738 H 0.98051 0.3087 0.21459 0.0
H739 H 0.94466 0.2299 0.18262 0.0
H740 H 0.9534 0.27449 0.16501 0.0
H741 H 0.11237 0.4452 0.12489 0.0
H742 H 0.06661 0.43687 0.14146 0.0
H743 H 0.00568 0.3274 0.12977 0.0
H744 H 0.05157 0.33539 0.11333 0.0
H745 H 0.01218 0.33379 0.15709 0.0
H746 H 0.97892 0.387 0.12113 0.0
H747 H 0.98564 0.43132 0.10375 0.0
H748 H 0.018 0.50967 0.13579 0.0
H749 H 0.01213 0.466 0.1533 0.0
C750 C 0.88139 0.32325 0.19397 0.0
C751 C 0.88778 0.35134 0.20284 0.0
C752 C 0.90549 0.32771 0.18355 0.0
C753 C 0.93649 0.36023 0.18187 0.0
C754 C 0.94325 0.3881 0.19086 0.0
C755 C 0.91911 0.38374 0.20124 0.0
C756 C 0.96146 0.36547 0.17051 0.0
C757 C 0.9684 0.39137 0.16048 0.0
C758 C 0.97721 0.34428 0.16922 0.0
C759 C 0.97198 0.31743 0.17979 0.0
C760 C 0.97975 0.32681 0.19386 0.0
C761 C 0.97459 0.30134 0.20377 0.0
C762 C 0.9619 0.26643 0.19972 0.0
C763 C 0.95443 0.25694 0.18575 0.0
C764 C 0.95951 0.2823 0.17579 0.0
C765 C 0.089 0.41947 0.12569 0.0
C766 C 0.08571 0.39091 0.11784 0.0
C767 C 0.06276 0.41478 0.13513 0.0
C768 C 0.03263 0.38153 0.13683 0.0
C769 C 0.02874 0.35327 0.12865 0.0
C770 C 0.05497 0.35792 0.11923 0.0
C771 C 0.0066 0.37558 0.14787 0.0
C772 C 0.99939 0.34946 0.15787 0.0
C773 C 0.9906 0.39662 0.14912 0.0
C774 C 0.99532 0.42325 0.13852 0.0
C775 C 0.98786 0.41377 0.12445 0.0
C776 C 0.99144 0.43877 0.11457 0.0
C777 C 0.00228 0.4733 0.11866 0.0
C778 C 0.0096 0.48292 0.13263 0.0
C779 C 0.00614 0.45805 0.14253 0.0
H780 H 0.00493 0.49258 0.11101 0.0
H781 H 0.95793 0.24675 0.20741 0.0
H782 H 0.7067 0.97882 0.55146 0.0
H783 H 0.70688 0.01769 0.53325 0.0
H784 H 0.60253 0.93784 0.52073 0.0
H785 H 0.60256 0.89842 0.53871 0.0
H786 H 0.64311 0.96375 0.49878 0.0
H787 H 0.61824 0.01372 0.53851 0.0
H788 H 0.62749 0.03897 0.56207 0.0
H789 H 0.72876 0.12401 0.54988 0.0
H790 H 0.72031 0.09901 0.52629 0.0
H791 H 0.60885 0.07308 0.45441 0.0
H792 H 0.60766 0.03443 0.47296 0.0
H793 H 0.71403 0.11151 0.48434 0.0
H794 H 0.71529 0.15058 0.46591 0.0
H795 H 0.67199 0.0871 0.50686 0.0
H796 H 0.69653 0.03653 0.46711 0.0
H797 H 0.68667 0.01127 0.44354 0.0
H798 H 0.585 0.92717 0.45586 0.0
H799 H 0.59405 0.95221 0.47947 0.0
C800 C 0.68362 0.96966 0.54494 0.0
C801 C 0.6546 0.93553 0.54654 0.0
C802 C 0.68371 0.99197 0.53454 0.0
C803 C 0.65458 0.98084 0.52568 0.0
C804 C 0.62531 0.947 0.52743 0.0
C805 C 0.62533 0.92456 0.53775 0.0
C806 C 0.65524 0.00388 0.51421 0.0
C807 C 0.64888 0.99054 0.50059 0.0
C808 C 0.66366 0.03916 0.51649 0.0
C809 C 0.66877 0.05431 0.53067 0.0
C810 C 0.64259 0.03766 0.54088 0.0
C811 C 0.64767 0.05196 0.55424 0.0
C812 C 0.67873 0.08303 0.55748 0.0
C813 C 0.70474 0.09992 0.54736 0.0
C814 C 0.6998 0.08573 0.53399 0.0
C815 C 0.6321 0.08171 0.46077 0.0
C816 C 0.66218 0.11489 0.45866 0.0
C817 C 0.63142 0.05954 0.47136 0.0
C818 C 0.66085 0.06998 0.47998 0.0
C819 C 0.69102 0.10295 0.47782 0.0
C820 C 0.69172 0.12515 0.46724 0.0
C821 C 0.65984 0.04692 0.49148 0.0
C822 C 0.66616 0.06028 0.50509 0.0
C823 C 0.65127 0.01163 0.4892 0.0
C824 C 0.64584 0.99644 0.47503 0.0
C825 C 0.67195 0.0128 0.46477 0.0
C826 C 0.66653 0.99849 0.4514 0.0
C827 C 0.63519 0.96768 0.44819 0.0
C828 C 0.60924 0.95106 0.45836 0.0
C829 C 0.61452 0.96527 0.47174 0.0
H830 H 0.63104 0.95665 0.43784 0.0
H831 H 0.68261 0.09405 0.56783 0.0
H832 H 0.55221 0.60118 0.78868 0.0
H833 H 0.59302 0.60668 0.80712 0.0
H834 H 0.60093 0.70446 0.82026 0.0
H835 H 0.56043 0.69939 0.80173 0.0
H836 H 0.66452 0.70915 0.82013 0.0
H837 H 0.54985 0.62906 0.83808 0.0
H838 H 0.49052 0.57653 0.83805 0.0
H839 H 0.53591 0.50963 0.8359 0.0
H840 H 0.59555 0.56181 0.83572 0.0
H841 H 0.73829 0.71972 0.88687 0.0
H842 H 0.69731 0.71369 0.86839 0.0
H843 H 0.6958 0.62003 0.85367 0.0
H844 H 0.7369 0.62589 0.87211 0.0
H845 H 0.62905 0.61312 0.85468 0.0
H846 H 0.74404 0.69417 0.83685 0.0
H847 H 0.80303 0.74715 0.83725 0.0
H848 H 0.75628 0.81283 0.83963 0.0
H849 H 0.69697 0.76017 0.83944 0.0
C850 C 0.56277 0.62396 0.79544 0.0
C851 C 0.55294 0.64977 0.79377 0.0
C852 C 0.58596 0.62697 0.80603 0.0
C853 C 0.59962 0.65572 0.8152 0.0
C854 C 0.59061 0.682 0.81333 0.0
C855 C 0.56741 0.67902 0.80274 0.0
C856 C 0.62308 0.65824 0.82681 0.0
C857 C 0.65657 0.68835 0.82779 0.0
C858 C 0.61298 0.6308 0.83665 0.0
C859 C 0.57716 0.59936 0.83674 0.0
C860 C 0.54718 0.60315 0.83748 0.0
C861 C 0.51349 0.57344 0.83752 0.0
C862 C 0.50944 0.53977 0.83693 0.0
C863 C 0.53908 0.53573 0.83633 0.0
C864 C 0.57284 0.56537 0.83627 0.0
C865 C 0.72907 0.69769 0.87977 0.0
C866 C 0.74096 0.67335 0.88093 0.0
C867 C 0.70577 0.69438 0.86918 0.0
C868 C 0.69384 0.66663 0.85959 0.0
C869 C 0.70479 0.64168 0.86096 0.0
C870 C 0.72832 0.64513 0.87148 0.0
C871 C 0.67039 0.66399 0.84798 0.0
C872 C 0.63693 0.63388 0.84701 0.0
C873 C 0.68045 0.69149 0.83818 0.0
C874 C 0.71607 0.7232 0.83828 0.0
C875 C 0.74634 0.71989 0.83758 0.0
C876 C 0.77983 0.74987 0.83774 0.0
C877 C 0.7834 0.78333 0.8385 0.0
C878 C 0.75347 0.78689 0.83906 0.0
C879 C 0.71991 0.75698 0.83892 0.0
H880 H 0.80936 0.80651 0.83862 0.0
H881 H 0.48334 0.51679 0.83698 0.0
H882 H 0.94786 0.50052 0.11923 0.0
H883 H 0.97908 0.5383 0.13905 0.0
H884 H 0.8973 0.56495 0.14358 0.0
H885 H 0.86572 0.52701 0.12381 0.0
H886 H 0.96483 0.6233 0.14516 0.0
H887 H 0.89825 0.50995 0.16564 0.0
H888 H 0.87529 0.44628 0.16853 0.0
H889 H 0.98021 0.46543 0.17541 0.0
H890 H 0.0039 0.52916 0.17225 0.0
H891 H 0.02174 0.70554 0.21096 0.0
H892 H 0.98459 0.66429 0.19295 0.0
H893 H 0.06057 0.63021 0.18725 0.0
H894 H 0.09775 0.67113 0.20533 0.0
H895 H 0.99301 0.57491 0.18674 0.0
H896 H 0.059 0.68953 0.16535 0.0
H897 H 0.08001 0.753 0.16291 0.0
H898 H 0.97345 0.73096 0.1583 0.0
H899 H 0.95177 0.66736 0.1609 0.0
C900 C 0.93656 0.51449 0.12441 0.0
C901 C 0.9043 0.51075 0.11997 0.0
C902 C 0.95435 0.53593 0.13577 0.0
C903 C 0.94035 0.55418 0.14283 0.0
C904 C 0.9085 0.55103 0.13827 0.0
C905 C 0.89047 0.52928 0.12701 0.0
C906 C 0.95903 0.57655 0.15498 0.0
C907 C 0.97057 0.61267 0.15434 0.0
C908 C 0.96688 0.56268 0.16685 0.0
C909 C 0.95289 0.52432 0.16857 0.0
C910 C 0.91648 0.50055 0.16761 0.0
C911 C 0.90332 0.46444 0.16931 0.0
C912 C 0.92626 0.45178 0.17211 0.0
C913 C 0.96244 0.47522 0.1732 0.0
C914 C 0.97577 0.51136 0.17145 0.0
C915 C 0.03039 0.68901 0.20598 0.0
C916 C 0.06283 0.69179 0.20952 0.0
C917 C 0.00919 0.66557 0.19565 0.0
C918 C 0.02008 0.64458 0.18862 0.0
C919 C 0.05173 0.64626 0.19251 0.0
C920 C 0.07297 0.66971 0.20283 0.0
C921 C 0.99916 0.62177 0.17688 0.0
C922 C 0.9872 0.58554 0.17758 0.0
C923 C 0.99074 0.63552 0.16509 0.0
C924 C 0.00375 0.67373 0.16346 0.0
C925 C 0.04003 0.69824 0.16392 0.0
C926 C 0.05206 0.73423 0.16249 0.0
C927 C 0.02807 0.74601 0.16049 0.0
C928 C 0.992 0.72181 0.15988 0.0
C929 C 0.97983 0.68579 0.16132 0.0
H930 H 0.03743 0.77389 0.15939 0.0
H931 H 0.91591 0.42381 0.17346 0.0
H932 H 0.27456 0.98947 0.46355 0.0
H933 H 0.31824 0.02664 0.48083 0.0
H934 H 0.33176 0.9394 0.49299 0.0
H935 H 0.28769 0.90186 0.47586 0.0
H936 H 0.32466 0.97215 0.51529 0.0
H937 H 0.3941 0.00722 0.47356 0.0
H938 H 0.40849 0.02837 0.44939 0.0
H939 H 0.41056 0.12415 0.46068 0.0
H940 H 0.39572 0.10337 0.48489 0.0
H941 H 0.47843 0.06871 0.55619 0.0
H942 H 0.4361 0.03196 0.53844 0.0
H943 H 0.42349 0.11951 0.52586 0.0
H944 H 0.46631 0.15665 0.54344 0.0
H945 H 0.43022 0.08661 0.50372 0.0
H946 H 0.36052 0.05182 0.54528 0.0
H947 H 0.34552 0.03084 0.56945 0.0
H948 H 0.34327 0.93478 0.5585 0.0
H949 H 0.35872 0.9554 0.53429 0.0
C950 C 0.28699 0.97823 0.46983 0.0
C951 C 0.27768 0.94271 0.46831 0.0
C952 C 0.31204 0.99956 0.47968 0.0
C953 C 0.32848 0.98588 0.48812 0.0
C954 C 0.3194 0.95049 0.48658 0.0
C955 C 0.2943 0.92911 0.47675 0.0
C956 C 0.35442 0.00819 0.49884 0.0
C957 C 0.34803 0.99694 0.51273 0.0
C958 C 0.38438 0.04097 0.49555 0.0
C959 C 0.39347 0.05359 0.48101 0.0
C960 C 0.39736 0.03268 0.47087 0.0
C961 C 0.40565 0.04462 0.45716 0.0
C962 C 0.41035 0.07754 0.45349 0.0
C963 C 0.40687 0.09864 0.46353 0.0
C964 C 0.39856 0.08681 0.47725 0.0
C965 C 0.46659 0.08014 0.54968 0.0
C966 C 0.47568 0.11559 0.55125 0.0
C967 C 0.44228 0.05905 0.53957 0.0
C968 C 0.42633 0.07288 0.53092 0.0
C969 C 0.43546 0.10829 0.53242 0.0
C970 C 0.45986 0.12944 0.54251 0.0
C971 C 0.40049 0.05054 0.52017 0.0
C972 C 0.40688 0.0618 0.50627 0.0
C973 C 0.37047 0.0178 0.52346 0.0
C974 C 0.36112 0.00531 0.538 0.0
C975 C 0.3571 0.02634 0.54805 0.0
C976 C 0.34847 0.01449 0.56176 0.0
C977 C 0.34354 0.98154 0.56552 0.0
C978 C 0.34714 0.96032 0.55558 0.0
C979 C 0.35581 0.97206 0.54186 0.0
H980 H 0.33685 0.97241 0.57613 0.0
H981 H 0.41677 0.08674 0.44288 0.0
H982 H 0.26194 0.26187 0.77763 0.0
H983 H 0.2727 0.30556 0.79556 0.0
H984 H 0.35229 0.28767 0.81385 0.0
H985 H 0.3411 0.24332 0.79613 0.0
H986 H 0.31102 0.28987 0.83342 0.0
H987 H 0.37396 0.36211 0.79439 0.0
H988 H 0.38181 0.38339 0.7702 0.0
H989 H 0.30223 0.41199 0.77611 0.0
H990 H 0.29357 0.39043 0.80029 0.0
H991 H 0.39128 0.44236 0.87645 0.0
H992 H 0.37898 0.39752 0.85882 0.0
H993 H 0.29524 0.41147 0.84233 0.0
H994 H 0.30751 0.45654 0.85989 0.0
H995 H 0.33819 0.41126 0.82194 0.0
H996 H 0.27613 0.33945 0.86122 0.0
H997 H 0.26921 0.31863 0.88545 0.0
H998 H 0.34852 0.28987 0.87906 0.0
H999 H 0.35627 0.31098 0.85484 0.0
C1000 C 0.28187 0.26734 0.78542 0.0
C1001 C 0.30074 0.24918 0.78543 0.0
C1002 C 0.28807 0.29244 0.79565 0.0
C1003 C 0.31359 0.30021 0.80597 0.0
C1004 C 0.33248 0.28212 0.80599 0.0
C1005 C 0.32614 0.25686 0.79582 0.0
C1006 C 0.32011 0.3267 0.81691 0.0
C1007 C 0.31745 0.31656 0.8309 0.0
C1008 C 0.32768 0.36129 0.81364 0.0
C1009 C 0.33288 0.37433 0.79911 0.0
C1010 C 0.35794 0.37268 0.7905 0.0
C1011 C 0.36257 0.38484 0.7768 0.0
C1012 C 0.34247 0.39894 0.77161 0.0
C1013 C 0.31775 0.40101 0.78014 0.0
C1014 C 0.313 0.38886 0.79384 0.0
C1015 C 0.37009 0.43575 0.86914 0.0
C1016 C 0.35034 0.453 0.86958 0.0
C1017 C 0.36304 0.41003 0.85909 0.0
C1018 C 0.33604 0.40099 0.84933 0.0
C1019 C 0.31619 0.41806 0.84978 0.0
C1020 C 0.32316 0.44371 0.85985 0.0
C1021 C 0.32914 0.37442 0.83841 0.0
C1022 C 0.33174 0.38455 0.82443 0.0
C1023 C 0.32166 0.33989 0.8417 0.0
C1024 C 0.31702 0.32712 0.85625 0.0
C1025 C 0.2923 0.32896 0.86502 0.0
C1026 C 0.28819 0.31705 0.87874 0.0
C1027 C 0.30848 0.30302 0.8838 0.0
C1028 C 0.33286 0.30079 0.87513 0.0
C1029 C 0.3371 0.31269 0.8614 0.0
H1030 H 0.30525 0.29381 0.89443 0.0
H1031 H 0.34609 0.40835 0.761 0.0
loop_
_geom_bond_atom_site_label_1
_geom_bond_atom_site_label_2
_geom_bond_distance
_geom_bond_site_symmetry_2
_ccdc_geom_bond_type
O0 Cd1 2.300 . S
O0 C7 1.275 . S
Cd1 O0 2.300 . S
Cd1 O9 2.381 . S
Cd1 O10 2.378 . S
O2 Cd3 2.385 . S
O2 C7 1.255 . S
Cd3 O2 2.385 . S
Cd3 O4 2.317 . S
O4 Cd3 2.317 . S
O4 C5 1.232 . S
C5 O4 1.232 . S
C5 O6 1.218 . S
O6 C5 1.218 . S
C7 O0 1.275 . S
C7 O2 1.255 . S
C8 O9 1.258 . S
C8 O10 1.256 . S
O9 Cd1 2.381 . S
O9 C8 1.258 . S
O10 Cd1 2.378 . S
O10 C8 1.256 . S
O11 Cd12 2.300 . S
O11 C18 1.275 . S
Cd12 O11 2.300 . S
Cd12 O20 2.381 . S
Cd12 O21 2.378 . S
O13 Cd14 2.385 . S
O13 C18 1.255 . S
Cd14 O13 2.385 . S
Cd14 O15 2.317 . S
O15 Cd14 2.317 . S
O15 C16 1.232 . S
C16 O15 1.232 . S
C16 O17 1.218 . S
O17 C16 1.218 . S
C18 O11 1.275 . S
C18 O13 1.255 . S
C19 O20 1.258 . S
C19 O21 1.256 . S
O20 Cd12 2.381 . S
O20 C19 1.258 . S
O21 Cd12 2.378 . S
O21 C19 1.256 . S
O22 Cd23 2.300 . S
O22 C29 1.275 . S
Cd23 O22 2.300 . S
Cd23 O31 2.381 . S
Cd23 O32 2.378 . S
O24 Cd25 2.385 . S
O24 C29 1.255 . S
Cd25 O24 2.385 . S
Cd25 O26 2.317 . S
O26 Cd25 2.317 . S
O26 C27 1.232 . S
C27 O26 1.232 . S
C27 O28 1.218 . S
O28 C27 1.218 . S
C29 O22 1.275 . S
C29 O24 1.255 . S
C30 O31 1.258 . S
C30 O32 1.256 . S
O31 Cd23 2.381 . S
O31 C30 1.258 . S
O32 Cd23 2.378 . S
O32 C30 1.256 . S
O33 Cd34 2.300 . S
O33 C40 1.275 . S
Cd34 O33 2.300 . S
Cd34 O42 2.381 . S
Cd34 O43 2.378 . S
O35 Cd36 2.385 . S
O35 C40 1.255 . S
Cd36 O35 2.385 . S
Cd36 O37 2.317 . S
O37 Cd36 2.317 . S
O37 C38 1.232 . S
C38 O37 1.232 . S
C38 O39 1.218 . S
O39 C38 1.218 . S
C40 O33 1.275 . S
C40 O35 1.255 . S
C41 O42 1.258 . S
C41 O43 1.256 . S
O42 Cd34 2.381 . S
O42 C41 1.258 . S
O43 Cd34 2.378 . S
O43 C41 1.256 . S
O44 Cd45 2.300 . S
O44 C51 1.275 . S
Cd45 O44 2.300 . S
Cd45 O53 2.381 . S
Cd45 O54 2.378 . S
O46 Cd47 2.385 . S
O46 C51 1.255 . S
Cd47 O46 2.385 . S
Cd47 O48 2.317 . S
O48 Cd47 2.317 . S
O48 C49 1.232 . S
C49 O48 1.232 . S
C49 O50 1.218 . S
O50 C49 1.218 . S
C51 O44 1.275 . S
C51 O46 1.255 . S
C52 O53 1.258 . S
C52 O54 1.256 . S
O53 Cd45 2.381 . S
O53 C52 1.258 . S
O54 Cd45 2.378 . S
O54 C52 1.256 . S
O55 Cd56 2.300 . S
O55 C62 1.275 . S
Cd56 O55 2.300 . S
Cd56 O64 2.381 . S
Cd56 O65 2.378 . S
O57 Cd58 2.385 . S
O57 C62 1.255 . S
Cd58 O57 2.385 . S
Cd58 O59 2.317 . S
O59 Cd58 2.317 . S
O59 C60 1.232 . S
C60 O59 1.232 . S
C60 O61 1.218 . S
O61 C60 1.218 . S
C62 O55 1.275 . S
C62 O57 1.255 . S
C63 O64 1.258 . S
C63 O65 1.256 . S
O64 Cd56 2.381 . S
O64 C63 1.258 . S
O65 Cd56 2.378 . S
O65 C63 1.256 . S
O66 Cd67 2.300 . S
O66 C73 1.275 . S
Cd67 O66 2.300 . S
Cd67 O75 2.381 . S
Cd67 O76 2.378 . S
O68 Cd69 2.385 . S
O68 C73 1.255 . S
Cd69 O68 2.385 . S
Cd69 O70 2.317 . S
O70 Cd69 2.317 . S
O70 C71 1.232 . S
C71 O70 1.232 . S
C71 O72 1.218 . S
O72 C71 1.218 . S
C73 O66 1.275 . S
C73 O68 1.255 . S
C74 O75 1.258 . S
C74 O76 1.256 . S
O75 Cd67 2.381 . S
O75 C74 1.258 . S
O76 Cd67 2.378 . S
O76 C74 1.256 . S
O77 Cd78 2.300 . S
O77 C84 1.275 . S
Cd78 O77 2.300 . S
Cd78 O86 2.381 . S
Cd78 O87 2.378 . S
O79 Cd80 2.385 . S
O79 C84 1.255 . S
Cd80 O79 2.385 . S
Cd80 O81 2.317 . S
O81 Cd80 2.317 . S
O81 C82 1.232 . S
C82 O81 1.232 . S
C82 O83 1.218 . S
O83 C82 1.218 . S
C84 O77 1.275 . S
C84 O79 1.255 . S
C85 O86 1.258 . S
C85 O87 1.256 . S
O86 Cd78 2.381 . S
O86 C85 1.258 . S
O87 Cd78 2.378 . S
O87 C85 1.256 . S
O88 Cd89 2.300 . S
O88 C95 1.275 . S
Cd89 O88 2.300 . S
Cd89 O97 2.381 . S
Cd89 O98 2.378 . S
O90 Cd91 2.385 . S
O90 C95 1.255 . S
Cd91 O90 2.385 . S
Cd91 O92 2.317 . S
O92 Cd91 2.317 . S
O92 C93 1.232 . S
C93 O92 1.232 . S
C93 O94 1.218 . S
O94 C93 1.218 . S
C95 O88 1.275 . S
C95 O90 1.255 . S
C96 O97 1.258 . S
C96 O98 1.256 . S
O97 Cd89 2.381 . S
O97 C96 1.258 . S
O98 Cd89 2.378 . S
O98 C96 1.256 . S
O99 Cd100 2.300 . S
O99 C106 1.275 . S
Cd100 O99 2.300 . S
Cd100 O108 2.381 . S
Cd100 O109 2.378 . S
O101 Cd102 2.385 . S
O101 C106 1.255 . S
Cd102 O101 2.385 . S
Cd102 O103 2.317 . S
O103 Cd102 2.317 . S
O103 C104 1.232 . S
C104 O103 1.232 . S
C104 O105 1.218 . S
O105 C104 1.218 . S
C106 O99 1.275 . S
C106 O101 1.255 . S
C107 O108 1.258 . S
C107 O109 1.256 . S
O108 Cd100 2.381 . S
O108 C107 1.258 . S
O109 Cd100 2.378 . S
O109 C107 1.256 . S
O110 Cd111 2.300 . S
O110 C117 1.275 . S
Cd111 O110 2.300 . S
Cd111 O119 2.381 . S
Cd111 O120 2.378 . S
O112 Cd113 2.385 . S
O112 C117 1.255 . S
Cd113 O112 2.385 . S
Cd113 O114 2.317 . S
O114 Cd113 2.317 . S
O114 C115 1.232 . S
C115 O114 1.232 . S
C115 O116 1.218 . S
O116 C115 1.218 . S
C117 O110 1.275 . S
C117 O112 1.255 . S
C118 O119 1.258 . S
C118 O120 1.256 . S
O119 Cd111 2.381 . S
O119 C118 1.258 . S
O120 Cd111 2.378 . S
O120 C118 1.256 . S
O121 Cd122 2.300 . S
O121 C128 1.275 . S
Cd122 O121 2.300 . S
Cd122 O130 2.381 . S
Cd122 O131 2.378 . S
O123 Cd124 2.385 . S
O123 C128 1.255 . S
Cd124 O123 2.385 . S
Cd124 O125 2.317 . S
O125 Cd124 2.317 . S
O125 C126 1.232 . S
C126 O125 1.232 . S
C126 O127 1.218 . S
O127 C126 1.218 . S
C128 O121 1.275 . S
C128 O123 1.255 . S
C129 O130 1.258 . S
C129 O131 1.256 . S
O130 Cd122 2.381 . S
O130 C129 1.258 . S
O131 Cd122 2.378 . S
O131 C129 1.256 . S
H132 C150 0.951 . S
H133 C152 0.951 . S
H134 C154 0.950 . S
H135 C155 0.950 . S
H136 C157 0.950 . S
H137 C160 0.950 . S
H138 C161 0.950 . S
H139 C163 0.950 . S
H140 C164 0.950 . S
H141 C165 0.951 . S
H142 C167 0.951 . S
H143 C169 0.950 . S
H144 C170 0.950 . S
H145 C172 0.950 . S
H146 C175 0.950 . S
H147 C176 0.950 . S
H148 C178 0.950 . S
H149 C179 0.950 . S
C150 H132 0.951 . S
C150 C151 1.366 . S
C150 C152 1.388 . S
C151 C150 1.366 . S
C151 C155 1.385 . S
C152 H133 0.951 . S
C152 C150 1.388 . S
C152 C153 1.366 . S
C153 C152 1.366 . S
C153 C154 1.414 . S
C153 C156 1.499 . S
C154 H134 0.950 . S
C154 C153 1.414 . S
C154 C155 1.374 . S
C155 H135 0.950 . S
C155 C151 1.385 . S
C155 C154 1.374 . S
C156 C153 1.499 . S
C156 C157 1.373 . S
C156 C158 1.389 . S
C157 H136 0.950 . S
C157 C156 1.373 . S
C157 C173 1.377 1_556 S
C158 C156 1.389 . S
C158 C159 1.524 . S
C158 C172 1.377 1_556 S
C159 C158 1.524 . S
C159 C160 1.397 . S
C159 C164 1.363 . S
C160 H137 0.950 . S
C160 C159 1.397 . S
C160 C161 1.334 . S
C161 H138 0.950 . S
C161 C160 1.334 . S
C161 C162 1.287 . S
C162 C161 1.287 . S
C162 C163 1.524 . S
C162 H181 0.913 . S
C163 H139 0.950 . S
C163 C162 1.524 . S
C163 C164 1.415 . S
C164 H140 0.950 . S
C164 C159 1.363 . S
C164 C163 1.415 . S
C165 H141 0.951 . S
C165 C166 1.366 . S
C165 C167 1.388 . S
C166 C165 1.366 . S
C166 C170 1.385 . S
C167 H142 0.951 . S
C167 C165 1.388 . S
C167 C168 1.366 . S
C168 C167 1.366 . S
C168 C169 1.414 . S
C168 C171 1.499 . S
C169 H143 0.950 . S
C169 C168 1.414 . S
C169 C170 1.374 . S
C170 H144 0.950 . S
C170 C166 1.385 . S
C170 C169 1.374 . S
C171 C168 1.499 . S
C171 C172 1.373 . S
C171 C173 1.389 . S
C172 H145 0.950 . S
C172 C158 1.377 1_554 S
C172 C171 1.373 . S
C173 C157 1.377 1_554 S
C173 C171 1.389 . S
C173 C174 1.524 . S
C174 C173 1.524 . S
C174 C175 1.397 . S
C174 C179 1.363 . S
C175 H146 0.950 . S
C175 C174 1.397 . S
C175 C176 1.334 . S
C176 H147 0.950 . S
C176 C175 1.334 . S
C176 C177 1.287 . S
C177 C176 1.287 . S
C177 C178 1.524 . S
C177 H180 0.999 . S
C178 H148 0.950 . S
C178 C177 1.524 . S
C178 C179 1.415 . S
C179 H149 0.950 . S
C179 C174 1.363 . S
C179 C178 1.415 . S
H180 C177 0.999 . S
H181 C162 0.913 . S
H182 C200 0.951 . S
H183 C202 0.951 . S
H184 C204 0.950 . S
H185 C205 0.950 . S
H186 C207 0.950 . S
H187 C210 0.950 . S
H188 C211 0.950 . S
H189 C213 0.950 . S
H190 C214 0.950 . S
H191 C215 0.951 . S
H192 C217 0.951 . S
H193 C219 0.950 . S
H194 C220 0.950 . S
H195 C222 0.950 . S
H196 C225 0.950 . S
H197 C226 0.950 . S
H198 C228 0.950 . S
H199 C229 0.950 . S
C200 H182 0.951 . S
C200 C201 1.366 . S
C200 C202 1.388 . S
C201 C200 1.366 . S
C201 C205 1.385 . S
C202 H183 0.951 . S
C202 C200 1.388 . S
C202 C203 1.366 . S
C203 C202 1.366 . S
C203 C204 1.414 . S
C203 C206 1.499 . S
C204 H184 0.950 . S
C204 C203 1.414 . S
C204 C205 1.374 . S
C205 H185 0.950 . S
C205 C201 1.385 . S
C205 C204 1.374 . S
C206 C203 1.499 . S
C206 C207 1.373 . S
C206 C208 1.389 . S
C207 H186 0.950 . S
C207 C206 1.373 . S
C207 C223 1.377 . S
C208 C206 1.389 . S
C208 C209 1.524 . S
C208 C222 1.377 . S
C209 C208 1.524 . S
C209 C210 1.397 . S
C209 C214 1.363 . S
C210 H187 0.950 . S
C210 C209 1.397 . S
C210 C211 1.334 . S
C211 H188 0.950 . S
C211 C210 1.334 . S
C211 C212 1.287 . S
C212 C211 1.287 . S
C212 C213 1.524 . S
C212 H231 0.913 . S
C213 H189 0.950 . S
C213 C212 1.524 . S
C213 C214 1.415 . S
C214 H190 0.950 . S
C214 C209 1.363 . S
C214 C213 1.415 . S
C215 H191 0.951 . S
C215 C216 1.366 . S
C215 C217 1.388 . S
C216 C215 1.366 . S
C216 C220 1.385 . S
C217 H192 0.951 . S
C217 C215 1.388 . S
C217 C218 1.366 . S
C218 C217 1.366 . S
C218 C219 1.414 . S
C218 C221 1.499 . S
C219 H193 0.950 . S
C219 C218 1.414 . S
C219 C220 1.374 . S
C220 H194 0.950 . S
C220 C216 1.385 . S
C220 C219 1.374 . S
C221 C218 1.499 . S
C221 C222 1.373 . S
C221 C223 1.389 . S
C222 H195 0.950 . S
C222 C208 1.377 . S
C222 C221 1.373 . S
C223 C207 1.377 . S
C223 C221 1.389 . S
C223 C224 1.524 . S
C224 C223 1.524 . S
C224 C225 1.397 . S
C224 C229 1.363 . S
C225 H196 0.950 . S
C225 C224 1.397 . S
C225 C226 1.334 . S
C226 H197 0.950 . S
C226 C225 1.334 . S
C226 C227 1.287 . S
C227 C226 1.287 . S
C227 C228 1.524 . S
C227 H230 0.999 . S
C228 H198 0.950 . S
C228 C227 1.524 . S
C228 C229 1.415 . S
C229 H199 0.950 . S
C229 C224 1.363 . S
C229 C228 1.415 . S
H230 C227 0.999 . S
H231 C212 0.913 . S
H232 C250 0.951 . S
H233 C252 0.951 . S
H234 C254 0.950 . S
H235 C255 0.950 . S
H236 C257 0.950 . S
H237 C260 0.950 . S
H238 C261 0.950 . S
H239 C263 0.950 . S
H240 C264 0.950 . S
H241 C265 0.951 . S
H242 C267 0.951 . S
H243 C269 0.950 . S
H244 C270 0.950 . S
H245 C272 0.950 . S
H246 C275 0.950 . S
H247 C276 0.950 . S
H248 C278 0.950 . S
H249 C279 0.950 . S
C250 H232 0.951 . S
C250 C251 1.366 . S
C250 C252 1.388 . S
C251 C250 1.366 . S
C251 C255 1.385 . S
C252 H233 0.951 . S
C252 C250 1.388 . S
C252 C253 1.366 . S
C253 C252 1.366 . S
C253 C254 1.414 . S
C253 C256 1.499 . S
C254 H234 0.950 . S
C254 C253 1.414 . S
C254 C255 1.374 . S
C255 H235 0.950 . S
C255 C251 1.385 . S
C255 C254 1.374 . S
C256 C253 1.499 . S
C256 C257 1.373 . S
C256 C258 1.389 . S
C257 H236 0.950 . S
C257 C256 1.373 . S
C257 C273 1.377 . S
C258 C256 1.389 . S
C258 C259 1.524 . S
C258 C272 1.377 . S
C259 C258 1.524 . S
C259 C260 1.397 . S
C259 C264 1.363 . S
C260 H237 0.950 . S
C260 C259 1.397 . S
C260 C261 1.334 . S
C261 H238 0.950 . S
C261 C260 1.334 . S
C261 C262 1.287 . S
C262 C261 1.287 . S
C262 C263 1.524 . S
C262 H281 0.913 . S
C263 H239 0.950 . S
C263 C262 1.524 . S
C263 C264 1.415 . S
C264 H240 0.950 . S
C264 C259 1.363 . S
C264 C263 1.415 . S
C265 H241 0.951 . S
C265 C266 1.366 . S
C265 C267 1.388 . S
C266 C265 1.366 . S
C266 C270 1.385 . S
C267 H242 0.951 . S
C267 C265 1.388 . S
C267 C268 1.366 . S
C268 C267 1.366 . S
C268 C269 1.414 . S
C268 C271 1.499 . S
C269 H243 0.950 . S
C269 C268 1.414 . S
C269 C270 1.374 . S
C270 H244 0.950 . S
C270 C266 1.385 . S
C270 C269 1.374 . S
C271 C268 1.499 . S
C271 C272 1.373 . S
C271 C273 1.389 . S
C272 H245 0.950 . S
C272 C258 1.377 . S
C272 C271 1.373 . S
C273 C257 1.377 . S
C273 C271 1.389 . S
C273 C274 1.524 . S
C274 C273 1.524 . S
C274 C275 1.397 . S
C274 C279 1.363 . S
C275 H246 0.950 . S
C275 C274 1.397 . S
C275 C276 1.334 . S
C276 H247 0.950 . S
C276 C275 1.334 . S
C276 C277 1.287 . S
C277 C276 1.287 . S
C277 C278 1.524 . S
C277 H280 0.999 . S
C278 H248 0.950 . S
C278 C277 1.524 . S
C278 C279 1.415 . S
C279 H249 0.950 . S
C279 C274 1.363 . S
C279 C278 1.415 . S
H280 C277 0.999 . S
H281 C262 0.913 . S
H282 C300 0.951 . S
H283 C302 0.951 . S
H284 C304 0.950 . S
H285 C305 0.950 . S
H286 C307 0.950 . S
H287 C310 0.950 . S
H288 C311 0.950 . S
H289 C313 0.950 . S
H290 C314 0.950 1_556 S
H291 C315 0.951 . S
H292 C317 0.951 . S
H293 C319 0.950 . S
H294 C320 0.950 . S
H295 C322 0.950 . S
H296 C325 0.950 . S
H297 C326 0.950 . S
H298 C328 0.950 . S
H299 C329 0.950 1_554 S
C300 H282 0.951 . S
C300 C301 1.366 . S
C300 C302 1.388 . S
C301 C300 1.366 . S
C301 C305 1.385 . S
C302 H283 0.951 . S
C302 C300 1.388 . S
C302 C303 1.366 . S
C303 C302 1.366 . S
C303 C304 1.414 . S
C303 C306 1.499 . S
C304 H284 0.950 . S
C304 C303 1.414 . S
C304 C305 1.374 . S
C305 H285 0.950 . S
C305 C301 1.385 . S
C305 C304 1.374 . S
C306 C303 1.499 . S
C306 C307 1.373 . S
C306 C308 1.389 . S
C307 H286 0.950 . S
C307 C306 1.373 . S
C307 C323 1.377 1_554 S
C308 C306 1.389 . S
C308 C309 1.524 . S
C308 C322 1.377 1_554 S
C309 C308 1.524 . S
C309 C310 1.397 . S
C309 C314 1.363 . S
C310 H287 0.950 . S
C310 C309 1.397 . S
C310 C311 1.334 . S
C311 H288 0.950 . S
C311 C310 1.334 . S
C311 C312 1.287 . S
C312 C311 1.287 . S
C312 C313 1.524 . S
C312 H331 0.913 . S
C313 H289 0.950 . S
C313 C312 1.524 . S
C313 C314 1.415 . S
C314 H290 0.950 1_554 S
C314 C309 1.363 . S
C314 C313 1.415 . S
C315 H291 0.951 . S
C315 C316 1.366 . S
C315 C317 1.388 . S
C316 C315 1.366 . S
C316 C320 1.385 . S
C317 H292 0.951 . S
C317 C315 1.388 . S
C317 C318 1.366 . S
C318 C317 1.366 . S
C318 C319 1.414 . S
C318 C321 1.499 . S
C319 H293 0.950 . S
C319 C318 1.414 . S
C319 C320 1.374 . S
C320 H294 0.950 . S
C320 C316 1.385 . S
C320 C319 1.374 . S
C321 C318 1.499 . S
C321 C322 1.373 . S
C321 C323 1.389 . S
C322 H295 0.950 . S
C322 C308 1.377 1_556 S
C322 C321 1.373 . S
C323 C307 1.377 1_556 S
C323 C321 1.389 . S
C323 C324 1.524 . S
C324 C323 1.524 . S
C324 C325 1.397 . S
C324 C329 1.363 . S
C325 H296 0.950 . S
C325 C324 1.397 . S
C325 C326 1.334 . S
C326 H297 0.950 . S
C326 C325 1.334 . S
C326 C327 1.287 . S
C327 C326 1.287 . S
C327 C328 1.524 . S
C327 H330 0.999 . S
C328 H298 0.950 . S
C328 C327 1.524 . S
C328 C329 1.415 . S
C329 H299 0.950 1_556 S
C329 C324 1.363 . S
C329 C328 1.415 . S
H330 C327 0.999 . S
H331 C312 0.913 . S
H332 C350 0.951 . S
H333 C352 0.951 . S
H334 C354 0.950 . S
H335 C355 0.950 . S
H336 C357 0.950 . S
H337 C360 0.950 . S
H338 C361 0.950 . S
H339 C363 0.950 . S
H340 C364 0.950 . S
H341 C365 0.951 . S
H342 C367 0.951 . S
H343 C369 0.950 . S
H344 C370 0.950 . S
H345 C372 0.950 . S
H346 C375 0.950 . S
H347 C376 0.950 . S
H348 C378 0.950 . S
H349 C379 0.950 . S
C350 H332 0.951 . S
C350 C351 1.366 . S
C350 C352 1.388 . S
C351 C350 1.366 . S
C351 C355 1.385 . S
C352 H333 0.951 . S
C352 C350 1.388 . S
C352 C353 1.366 . S
C353 C352 1.366 . S
C353 C354 1.414 . S
C353 C356 1.499 . S
C354 H334 0.950 . S
C354 C353 1.414 . S
C354 C355 1.374 . S
C355 H335 0.950 . S
C355 C351 1.385 . S
C355 C354 1.374 . S
C356 C353 1.499 . S
C356 C357 1.373 . S
C356 C358 1.389 . S
C357 H336 0.950 . S
C357 C356 1.373 . S
C357 C373 1.377 . S
C358 C356 1.389 . S
C358 C359 1.524 . S
C358 C372 1.377 . S
C359 C358 1.524 . S
C359 C360 1.397 . S
C359 C364 1.363 . S
C360 H337 0.950 . S
C360 C359 1.397 . S
C360 C361 1.334 . S
C361 H338 0.950 . S
C361 C360 1.334 . S
C361 C362 1.287 . S
C362 C361 1.287 . S
C362 C363 1.524 . S
C362 H381 0.913 . S
C363 H339 0.950 . S
C363 C362 1.524 . S
C363 C364 1.415 . S
C364 H340 0.950 . S
C364 C359 1.363 . S
C364 C363 1.415 . S
C365 H341 0.951 . S
C365 C366 1.366 . S
C365 C367 1.388 . S
C366 C365 1.366 . S
C366 C370 1.385 . S
C367 H342 0.951 . S
C367 C365 1.388 . S
C367 C368 1.366 . S
C368 C367 1.366 . S
C368 C369 1.414 . S
C368 C371 1.499 . S
C369 H343 0.950 . S
C369 C368 1.414 . S
C369 C370 1.374 . S
C370 H344 0.950 . S
C370 C366 1.385 . S
C370 C369 1.374 . S
C371 C368 1.499 . S
C371 C372 1.373 . S
C371 C373 1.389 . S
C372 H345 0.950 . S
C372 C358 1.377 . S
C372 C371 1.373 . S
C373 C357 1.377 . S
C373 C371 1.389 . S
C373 C374 1.524 . S
C374 C373 1.524 . S
C374 C375 1.397 . S
C374 C379 1.363 . S
C375 H346 0.950 . S
C375 C374 1.397 . S
C375 C376 1.334 . S
C376 H347 0.950 . S
C376 C375 1.334 . S
C376 C377 1.287 . S
C377 C376 1.287 . S
C377 C378 1.524 . S
C377 H380 0.999 . S
C378 H348 0.950 . S
C378 C377 1.524 . S
C378 C379 1.415 . S
C379 H349 0.950 . S
C379 C374 1.363 . S
C379 C378 1.415 . S
H380 C377 0.999 . S
H381 C362 0.913 . S
H382 C400 0.951 . S
H383 C402 0.951 . S
H384 C404 0.950 . S
H385 C405 0.950 . S
H386 C407 0.950 . S
H387 C410 0.950 . S
H388 C411 0.950 . S
H389 C413 0.950 . S
H390 C414 0.950 . S
H391 C415 0.951 . S
H392 C417 0.951 . S
H393 C419 0.950 . S
H394 C420 0.950 . S
H395 C422 0.950 . S
H396 C425 0.950 . S
H397 C426 0.950 . S
H398 C428 0.950 . S
H399 C429 0.950 . S
C400 H382 0.951 . S
C400 C401 1.366 . S
C400 C402 1.388 . S
C401 C400 1.366 . S
C401 C405 1.385 . S
C402 H383 0.951 . S
C402 C400 1.388 . S
C402 C403 1.366 . S
C403 C402 1.366 . S
C403 C404 1.414 . S
C403 C406 1.499 . S
C404 H384 0.950 . S
C404 C403 1.414 . S
C404 C405 1.374 . S
C405 H385 0.950 . S
C405 C401 1.385 . S
C405 C404 1.374 . S
C406 C403 1.499 . S
C406 C407 1.373 . S
C406 C408 1.389 . S
C407 H386 0.950 . S
C407 C406 1.373 . S
C407 C423 1.377 . S
C408 C406 1.389 . S
C408 C409 1.524 . S
C408 C422 1.377 . S
C409 C408 1.524 . S
C409 C410 1.397 . S
C409 C414 1.363 . S
C410 H387 0.950 . S
C410 C409 1.397 . S
C410 C411 1.334 . S
C411 H388 0.950 . S
C411 C410 1.334 . S
C411 C412 1.287 . S
C412 C411 1.287 . S
C412 C413 1.524 . S
C412 H431 0.913 . S
C413 H389 0.950 . S
C413 C412 1.524 . S
C413 C414 1.415 . S
C414 H390 0.950 . S
C414 C409 1.363 . S
C414 C413 1.415 . S
C415 H391 0.951 . S
C415 C416 1.366 . S
C415 C417 1.388 . S
C416 C415 1.366 . S
C416 C420 1.385 . S
C417 H392 0.951 . S
C417 C415 1.388 . S
C417 C418 1.366 . S
C418 C417 1.366 . S
C418 C419 1.414 . S
C418 C421 1.499 . S
C419 H393 0.950 . S
C419 C418 1.414 . S
C419 C420 1.374 . S
C420 H394 0.950 . S
C420 C416 1.385 . S
C420 C419 1.374 . S
C421 C418 1.499 . S
C421 C422 1.373 . S
C421 C423 1.389 . S
C422 H395 0.950 . S
C422 C408 1.377 . S
C422 C421 1.373 . S
C423 C407 1.377 . S
C423 C421 1.389 . S
C423 C424 1.524 . S
C424 C423 1.524 . S
C424 C425 1.397 . S
C424 C429 1.363 . S
C425 H396 0.950 . S
C425 C424 1.397 . S
C425 C426 1.334 . S
C426 H397 0.950 . S
C426 C425 1.334 . S
C426 C427 1.287 . S
C427 C426 1.287 . S
C427 C428 1.524 . S
C427 H430 0.999 . S
C428 H398 0.950 . S
C428 C427 1.524 . S
C428 C429 1.415 . S
C429 H399 0.950 . S
C429 C424 1.363 . S
C429 C428 1.415 . S
H430 C427 0.999 . S
H431 C412 0.913 . S
H432 C450 0.951 . S
H433 C452 0.951 . S
H434 C454 0.950 . S
H435 C455 0.950 . S
H436 C457 0.950 . S
H437 C460 0.950 . S
H438 C461 0.950 . S
H439 C463 0.950 . S
H440 C464 0.950 . S
H441 C465 0.951 . S
H442 C467 0.951 . S
H443 C469 0.950 . S
H444 C470 0.950 . S
H445 C472 0.950 . S
H446 C475 0.950 . S
H447 C476 0.950 . S
H448 C478 0.950 . S
H449 C479 0.950 . S
C450 H432 0.951 . S
C450 C451 1.366 . S
C450 C452 1.388 . S
C451 C450 1.366 . S
C451 C455 1.385 . S
C452 H433 0.951 . S
C452 C450 1.388 . S
C452 C453 1.366 . S
C453 C452 1.366 . S
C453 C454 1.414 . S
C453 C456 1.499 . S
C454 H434 0.950 . S
C454 C453 1.414 . S
C454 C455 1.374 . S
C455 H435 0.950 . S
C455 C451 1.385 . S
C455 C454 1.374 . S
C456 C453 1.499 . S
C456 C457 1.373 . S
C456 C458 1.389 . S
C457 H436 0.950 . S
C457 C456 1.373 . S
C457 C473 1.377 . S
C458 C456 1.389 . S
C458 C459 1.524 . S
C458 C472 1.377 . S
C459 C458 1.524 . S
C459 C460 1.397 . S
C459 C464 1.363 . S
C460 H437 0.950 . S
C460 C459 1.397 . S
C460 C461 1.334 . S
C461 H438 0.950 . S
C461 C460 1.334 . S
C461 C462 1.287 . S
C462 C461 1.287 . S
C462 C463 1.524 . S
C462 H481 0.913 . S
C463 H439 0.950 . S
C463 C462 1.524 . S
C463 C464 1.415 . S
C464 H440 0.950 . S
C464 C459 1.363 . S
C464 C463 1.415 . S
C465 H441 0.951 . S
C465 C466 1.366 . S
C465 C467 1.388 . S
C466 C465 1.366 . S
C466 C470 1.385 . S
C467 H442 0.951 . S
C467 C465 1.388 . S
C467 C468 1.366 . S
C468 C467 1.366 . S
C468 C469 1.414 . S
C468 C471 1.499 . S
C469 H443 0.950 . S
C469 C468 1.414 . S
C469 C470 1.374 . S
C470 H444 0.950 . S
C470 C466 1.385 . S
C470 C469 1.374 . S
C471 C468 1.499 . S
C471 C472 1.373 . S
C471 C473 1.389 . S
C472 H445 0.950 . S
C472 C458 1.377 . S
C472 C471 1.373 . S
C473 C457 1.377 . S
C473 C471 1.389 . S
C473 C474 1.524 . S
C474 C473 1.524 . S
C474 C475 1.397 . S
C474 C479 1.363 . S
C475 H446 0.950 . S
C475 C474 1.397 . S
C475 C476 1.334 . S
C476 H447 0.950 . S
C476 C475 1.334 . S
C476 C477 1.287 . S
C477 C476 1.287 . S
C477 C478 1.524 . S
C477 H480 0.999 . S
C478 H448 0.950 . S
C478 C477 1.524 . S
C478 C479 1.415 . S
C479 H449 0.950 . S
C479 C474 1.363 . S
C479 C478 1.415 . S
H480 C477 0.999 . S
H481 C462 0.913 . S
H482 C500 0.951 . S
H483 C502 0.951 . S
H484 C504 0.950 . S
H485 C505 0.950 . S
H486 C507 0.950 . S
H487 C510 0.950 . S
H488 C511 0.950 . S
H489 C513 0.950 . S
H490 C514 0.950 . S
H491 C515 0.951 . S
H492 C517 0.951 . S
H493 C519 0.950 . S
H494 C520 0.950 . S
H495 C522 0.950 . S
H496 C525 0.950 . S
H497 C526 0.950 . S
H498 C528 0.950 . S
H499 C529 0.950 . S
C500 H482 0.951 . S
C500 C501 1.366 . S
C500 C502 1.388 . S
C501 C500 1.366 . S
C501 C505 1.385 . S
C502 H483 0.951 . S
C502 C500 1.388 . S
C502 C503 1.366 . S
C503 C502 1.366 . S
C503 C504 1.414 . S
C503 C506 1.499 . S
C504 H484 0.950 . S
C504 C503 1.414 . S
C504 C505 1.374 . S
C505 H485 0.950 . S
C505 C501 1.385 . S
C505 C504 1.374 . S
C506 C503 1.499 . S
C506 C507 1.373 . S
C506 C508 1.389 1_655 S
C507 H486 0.950 . S
C507 C506 1.373 . S
C507 C523 1.385 . S
C508 C506 1.389 1_455 S
C508 C509 1.524 . S
C508 C522 1.377 . S
C509 C508 1.524 . S
C509 C510 1.397 1_455 S
C509 C514 1.363 . S
C510 H487 0.950 . S
C510 C509 1.397 1_655 S
C510 C511 1.334 . S
C511 H488 0.950 . S
C511 C510 1.334 . S
C511 C512 1.297 . S
C512 C511 1.297 . S
C512 C513 1.515 1_655 S
C512 H531 0.910 . S
C513 H489 0.950 . S
C513 C512 1.515 1_455 S
C513 C514 1.415 . S
C514 H490 0.950 . S
C514 C509 1.363 . S
C514 C513 1.415 . S
C515 H491 0.951 . S
C515 C516 1.366 . S
C515 C517 1.388 . S
C516 C515 1.366 . S
C516 C520 1.385 . S
C517 H492 0.951 . S
C517 C515 1.388 . S
C517 C518 1.366 . S
C518 C517 1.366 . S
C518 C519 1.414 . S
C518 C521 1.499 . S
C519 H493 0.950 . S
C519 C518 1.414 . S
C519 C520 1.374 . S
C520 H494 0.950 . S
C520 C516 1.385 . S
C520 C519 1.374 . S
C521 C518 1.499 . S
C521 C522 1.373 . S
C521 C523 1.370 1_455 S
C522 H495 0.950 . S
C522 C508 1.377 . S
C522 C521 1.373 . S
C523 C507 1.385 . S
C523 C521 1.370 1_655 S
C523 C524 1.536 . S
C524 C523 1.536 . S
C524 C525 1.397 1_655 S
C524 C529 1.363 . S
C525 H496 0.950 . S
C525 C524 1.397 1_455 S
C525 C526 1.334 . S
C526 H497 0.950 . S
C526 C525 1.334 . S
C526 C527 1.305 . S
C527 C526 1.305 . S
C527 C528 1.509 1_455 S
C527 H530 0.991 1_455 S
C528 H498 0.950 . S
C528 C527 1.509 1_655 S
C528 C529 1.415 . S
C529 H499 0.950 . S
C529 C524 1.363 . S
C529 C528 1.415 . S
H530 C527 0.991 1_655 S
H531 C512 0.910 . S
H532 C550 0.951 . S
H533 C552 0.951 . S
H534 C554 0.950 . S
H535 C555 0.950 . S
H536 C557 0.950 . S
H537 C560 0.945 1_545 S
H538 C561 0.950 1_545 S
H539 C563 0.950 . S
H540 C564 0.950 . S
H541 C565 0.951 . S
H542 C567 0.951 . S
H543 C569 0.950 . S
H544 C570 0.950 . S
H545 C572 0.950 . S
H546 C575 0.944 1_565 S
H547 C576 0.950 1_565 S
H548 C578 0.950 . S
H549 C579 0.950 . S
C550 H532 0.951 . S
C550 C551 1.366 . S
C550 C552 1.388 . S
C551 C550 1.366 . S
C551 C555 1.385 . S
C552 H533 0.951 . S
C552 C550 1.388 . S
C552 C553 1.366 . S
C553 C552 1.366 . S
C553 C554 1.414 . S
C553 C556 1.499 . S
C554 H534 0.950 . S
C554 C553 1.414 . S
C554 C555 1.374 . S
C555 H535 0.950 . S
C555 C551 1.385 . S
C555 C554 1.374 . S
C556 C553 1.499 . S
C556 C557 1.373 . S
C556 C558 1.389 1_545 S
C557 H536 0.950 . S
C557 C556 1.373 . S
C557 C573 1.377 . S
C558 C556 1.389 1_565 S
C558 C559 1.524 . S
C558 C572 1.377 . S
C559 C558 1.524 . S
C559 C560 1.403 . S
C559 C564 1.363 . S
C560 H537 0.945 1_565 S
C560 C559 1.403 . S
C560 C561 1.333 . S
C561 H538 0.950 1_565 S
C561 C560 1.333 . S
C561 C562 1.287 . S
C562 C561 1.287 . S
C562 C563 1.524 . S
C562 H581 0.913 . S
C563 H539 0.950 . S
C563 C562 1.524 . S
C563 C564 1.415 . S
C564 H540 0.950 . S
C564 C559 1.363 . S
C564 C563 1.415 . S
C565 H541 0.951 . S
C565 C566 1.366 . S
C565 C567 1.388 . S
C566 C565 1.366 . S
C566 C570 1.385 . S
C567 H542 0.951 . S
C567 C565 1.388 . S
C567 C568 1.366 . S
C568 C567 1.366 . S
C568 C569 1.414 . S
C568 C571 1.499 . S
C569 H543 0.950 . S
C569 C568 1.414 . S
C569 C570 1.374 . S
C570 H544 0.950 . S
C570 C566 1.385 . S
C570 C569 1.374 . S
C571 C568 1.499 . S
C571 C572 1.373 . S
C571 C573 1.389 1_565 S
C572 H545 0.950 . S
C572 C558 1.377 . S
C572 C571 1.373 . S
C573 C557 1.377 . S
C573 C571 1.389 1_545 S
C573 C574 1.524 . S
C574 C573 1.524 . S
C574 C575 1.404 . S
C574 C579 1.363 . S
C575 H546 0.944 1_545 S
C575 C574 1.404 . S
C575 C576 1.332 . S
C576 H547 0.950 1_545 S
C576 C575 1.332 . S
C576 C577 1.287 . S
C577 C576 1.287 . S
C577 C578 1.524 . S
C577 H580 0.999 . S
C578 H548 0.950 . S
C578 C577 1.524 . S
C578 C579 1.415 . S
C579 H549 0.950 . S
C579 C574 1.363 . S
C579 C578 1.415 . S
H580 C577 0.999 . S
H581 C562 0.913 . S
H582 C600 0.951 . S
H583 C602 0.951 . S
H584 C604 0.950 . S
H585 C605 0.950 . S
H586 C607 0.950 . S
H587 C610 0.950 . S
H588 C611 0.950 . S
H589 C613 0.950 . S
H590 C614 0.950 . S
H591 C615 0.951 . S
H592 C617 0.951 . S
H593 C619 0.950 . S
H594 C620 0.950 . S
H595 C622 0.950 . S
H596 C625 0.950 . S
H597 C626 0.950 . S
H598 C628 0.950 . S
H599 C629 0.950 . S
C600 H582 0.951 . S
C600 C601 1.366 . S
C600 C602 1.388 . S
C601 C600 1.366 . S
C601 C605 1.385 . S
C602 H583 0.951 . S
C602 C600 1.388 . S
C602 C603 1.366 . S
C603 C602 1.366 . S
C603 C604 1.414 . S
C603 C606 1.499 . S
C604 H584 0.950 . S
C604 C603 1.414 . S
C604 C605 1.374 . S
C605 H585 0.950 . S
C605 C601 1.385 . S
C605 C604 1.374 . S
C606 C603 1.499 . S
C606 C607 1.373 . S
C606 C608 1.389 . S
C607 H586 0.950 . S
C607 C606 1.373 . S
C607 C623 1.377 . S
C608 C606 1.389 . S
C608 C609 1.524 . S
C608 C622 1.377 . S
C609 C608 1.524 . S
C609 C610 1.397 . S
C609 C614 1.363 . S
C610 H587 0.950 . S
C610 C609 1.397 . S
C610 C611 1.334 . S
C611 H588 0.950 . S
C611 C610 1.334 . S
C611 C612 1.287 . S
C612 C611 1.287 . S
C612 C613 1.524 . S
C612 H631 0.913 . S
C613 H589 0.950 . S
C613 C612 1.524 . S
C613 C614 1.415 . S
C614 H590 0.950 . S
C614 C609 1.363 . S
C614 C613 1.415 . S
C615 H591 0.951 . S
C615 C616 1.366 . S
C615 C617 1.388 . S
C616 C615 1.366 . S
C616 C620 1.385 . S
C617 H592 0.951 . S
C617 C615 1.388 . S
C617 C618 1.366 . S
C618 C617 1.366 . S
C618 C619 1.414 . S
C618 C621 1.499 . S
C619 H593 0.950 . S
C619 C618 1.414 . S
C619 C620 1.374 . S
C620 H594 0.950 . S
C620 C616 1.385 . S
C620 C619 1.374 . S
C621 C618 1.499 . S
C621 C622 1.373 . S
C621 C623 1.389 . S
C622 H595 0.950 . S
C622 C608 1.377 . S
C622 C621 1.373 . S
C623 C607 1.377 . S
C623 C621 1.389 . S
C623 C624 1.524 . S
C624 C623 1.524 . S
C624 C625 1.397 . S
C624 C629 1.363 . S
C625 H596 0.950 . S
C625 C624 1.397 . S
C625 C626 1.334 . S
C626 H597 0.950 . S
C626 C625 1.334 . S
C626 C627 1.287 . S
C627 C626 1.287 . S
C627 C628 1.524 . S
C627 H630 0.999 . S
C628 H598 0.950 . S
C628 C627 1.524 . S
C628 C629 1.415 . S
C629 H599 0.950 . S
C629 C624 1.363 . S
C629 C628 1.415 . S
H630 C627 0.999 . S
H631 C612 0.913 . S
H632 C650 0.951 . S
H633 C652 0.951 . S
H634 C654 0.950 . S
H635 C655 0.950 . S
H636 C657 0.950 . S
H637 C660 0.950 . S
H638 C661 0.950 . S
H639 C663 0.950 . S
H640 C664 0.950 . S
H641 C665 0.951 . S
H642 C667 0.951 . S
H643 C669 0.950 . S
H644 C670 0.950 . S
H645 C672 0.950 . S
H646 C675 0.950 . S
H647 C676 0.950 . S
H648 C678 0.950 . S
H649 C679 0.950 . S
C650 H632 0.951 . S
C650 C651 1.366 . S
C650 C652 1.388 . S
C651 C650 1.366 . S
C651 C655 1.385 . S
C652 H633 0.951 . S
C652 C650 1.388 . S
C652 C653 1.366 . S
C653 C652 1.366 . S
C653 C654 1.414 . S
C653 C656 1.499 . S
C654 H634 0.950 . S
C654 C653 1.414 . S
C654 C655 1.374 . S
C655 H635 0.950 . S
C655 C651 1.385 . S
C655 C654 1.374 . S
C656 C653 1.499 . S
C656 C657 1.373 1_455 S
C656 C658 1.389 . S
C657 H636 0.950 . S
C657 C656 1.373 1_655 S
C657 C673 1.377 . S
C658 C656 1.389 . S
C658 C659 1.524 . S
C658 C672 1.377 . S
C659 C658 1.524 . S
C659 C660 1.397 . S
C659 C664 1.363 . S
C660 H637 0.950 . S
C660 C659 1.397 . S
C660 C661 1.334 . S
C661 H638 0.950 . S
C661 C660 1.334 . S
C661 C662 1.287 . S
C662 C661 1.287 . S
C662 C663 1.524 . S
C662 H681 0.913 . S
C663 H639 0.950 . S
C663 C662 1.524 . S
C663 C664 1.415 . S
C664 H640 0.950 . S
C664 C659 1.363 . S
C664 C663 1.415 . S
C665 H641 0.951 . S
C665 C666 1.366 . S
C665 C667 1.388 . S
C666 C665 1.366 . S
C666 C670 1.385 . S
C667 H642 0.951 . S
C667 C665 1.388 . S
C667 C668 1.366 . S
C668 C667 1.366 . S
C668 C669 1.414 . S
C668 C671 1.499 . S
C669 H643 0.950 . S
C669 C668 1.414 . S
C669 C670 1.374 . S
C670 H644 0.950 . S
C670 C666 1.385 . S
C670 C669 1.374 . S
C671 C668 1.499 . S
C671 C672 1.373 1_655 S
C671 C673 1.389 . S
C672 H645 0.950 . S
C672 C658 1.377 . S
C672 C671 1.373 1_455 S
C673 C657 1.377 . S
C673 C671 1.389 . S
C673 C674 1.524 . S
C674 C673 1.524 . S
C674 C675 1.397 . S
C674 C679 1.363 . S
C675 H646 0.950 . S
C675 C674 1.397 . S
C675 C676 1.334 . S
C676 H647 0.950 . S
C676 C675 1.334 . S
C676 C677 1.287 . S
C677 C676 1.287 . S
C677 C678 1.524 . S
C677 H680 0.999 . S
C678 H648 0.950 . S
C678 C677 1.524 . S
C678 C679 1.415 . S
C679 H649 0.950 . S
C679 C674 1.363 . S
C679 C678 1.415 . S
H680 C677 0.999 . S
H681 C662 0.913 . S
H682 C700 0.951 . S
H683 C702 0.951 . S
H684 C704 0.950 . S
H685 C705 0.950 . S
H686 C707 0.950 . S
H687 C710 0.950 . S
H688 C711 0.950 . S
H689 C713 0.950 . S
H690 C714 0.950 . S
H691 C715 0.951 . S
H692 C717 0.951 . S
H693 C719 0.950 . S
H694 C720 0.950 . S
H695 C722 0.950 . S
H696 C725 0.950 . S
H697 C726 0.950 . S
H698 C728 0.950 . S
H699 C729 0.950 . S
C700 H682 0.951 . S
C700 C701 1.366 . S
C700 C702 1.388 . S
C701 C700 1.366 . S
C701 C705 1.385 . S
C702 H683 0.951 . S
C702 C700 1.388 . S
C702 C703 1.366 . S
C703 C702 1.366 . S
C703 C704 1.414 . S
C703 C706 1.499 . S
C704 H684 0.950 . S
C704 C703 1.414 . S
C704 C705 1.374 . S
C705 H685 0.950 . S
C705 C701 1.385 . S
C705 C704 1.374 . S
C706 C703 1.499 . S
C706 C707 1.373 1_565 S
C706 C708 1.389 . S
C707 H686 0.950 . S
C707 C706 1.373 1_545 S
C707 C723 1.377 . S
C708 C706 1.389 . S
C708 C709 1.524 . S
C708 C722 1.377 . S
C709 C708 1.524 . S
C709 C710 1.397 . S
C709 C714 1.363 . S
C710 H687 0.950 . S
C710 C709 1.397 . S
C710 C711 1.334 . S
C711 H688 0.950 . S
C711 C710 1.334 . S
C711 C712 1.287 . S
C712 C711 1.287 . S
C712 C713 1.524 . S
C712 H731 0.913 . S
C713 H689 0.950 . S
C713 C712 1.524 . S
C713 C714 1.415 . S
C714 H690 0.950 . S
C714 C709 1.363 . S
C714 C713 1.415 . S
C715 H691 0.951 . S
C715 C716 1.366 . S
C715 C717 1.388 . S
C716 C715 1.366 . S
C716 C720 1.385 . S
C717 H692 0.951 . S
C717 C715 1.388 . S
C717 C718 1.366 . S
C718 C717 1.366 . S
C718 C719 1.414 . S
C718 C721 1.499 . S
C719 H693 0.950 . S
C719 C718 1.414 . S
C719 C720 1.374 . S
C720 H694 0.950 . S
C720 C716 1.385 . S
C720 C719 1.374 . S
C721 C718 1.499 . S
C721 C722 1.373 1_545 S
C721 C723 1.389 . S
C722 H695 0.950 . S
C722 C708 1.377 . S
C722 C721 1.373 1_565 S
C723 C707 1.377 . S
C723 C721 1.389 . S
C723 C724 1.524 . S
C724 C723 1.524 . S
C724 C725 1.397 . S
C724 C729 1.363 . S
C725 H696 0.950 . S
C725 C724 1.397 . S
C725 C726 1.334 . S
C726 H697 0.950 . S
C726 C725 1.334 . S
C726 C727 1.287 . S
C727 C726 1.287 . S
C727 C728 1.524 . S
C727 H730 0.999 . S
C728 H698 0.950 . S
C728 C727 1.524 . S
C728 C729 1.415 . S
C729 H699 0.950 . S
C729 C724 1.363 . S
C729 C728 1.415 . S
H730 C727 0.999 . S
H731 C712 0.913 . S
H732 C750 0.951 . S
H733 C752 0.951 . S
H734 C754 0.950 . S
H735 C755 0.950 . S
H736 C757 0.950 . S
H737 C760 0.950 . S
H738 C761 0.950 . S
H739 C763 0.950 . S
H740 C764 0.950 . S
H741 C765 0.951 . S
H742 C767 0.951 . S
H743 C769 0.950 . S
H744 C770 0.950 . S
H745 C772 0.950 . S
H746 C775 0.950 . S
H747 C776 0.950 . S
H748 C778 0.950 . S
H749 C779 0.950 . S
C750 H732 0.951 . S
C750 C751 1.366 . S
C750 C752 1.388 . S
C751 C750 1.366 . S
C751 C755 1.385 . S
C752 H733 0.951 . S
C752 C750 1.388 . S
C752 C753 1.366 . S
C753 C752 1.366 . S
C753 C754 1.414 . S
C753 C756 1.499 . S
C754 H734 0.950 . S
C754 C753 1.414 . S
C754 C755 1.374 . S
C755 H735 0.950 . S
C755 C751 1.385 . S
C755 C754 1.374 . S
C756 C753 1.499 . S
C756 C757 1.373 . S
C756 C758 1.389 . S
C757 H736 0.950 . S
C757 C756 1.373 . S
C757 C773 1.377 1_655 S
C758 C756 1.389 . S
C758 C759 1.524 . S
C758 C772 1.377 1_655 S
C759 C758 1.524 . S
C759 C760 1.397 . S
C759 C764 1.363 . S
C760 H737 0.950 . S
C760 C759 1.397 . S
C760 C761 1.334 . S
C761 H738 0.950 . S
C761 C760 1.334 . S
C761 C762 1.287 . S
C762 C761 1.287 . S
C762 C763 1.524 . S
C762 H781 0.913 . S
C763 H739 0.950 . S
C763 C762 1.524 . S
C763 C764 1.415 . S
C764 H740 0.950 . S
C764 C759 1.363 . S
C764 C763 1.415 . S
C765 H741 0.951 . S
C765 C766 1.366 . S
C765 C767 1.388 . S
C766 C765 1.366 . S
C766 C770 1.385 . S
C767 H742 0.951 . S
C767 C765 1.388 . S
C767 C768 1.366 . S
C768 C767 1.366 . S
C768 C769 1.414 . S
C768 C771 1.499 . S
C769 H743 0.950 . S
C769 C768 1.414 . S
C769 C770 1.374 . S
C770 H744 0.950 . S
C770 C766 1.385 . S
C770 C769 1.374 . S
C771 C768 1.499 . S
C771 C772 1.373 . S
C771 C773 1.389 . S
C772 H745 0.950 . S
C772 C758 1.377 1_455 S
C772 C771 1.373 . S
C773 C757 1.377 1_455 S
C773 C771 1.389 . S
C773 C774 1.524 . S
C774 C773 1.524 . S
C774 C775 1.397 . S
C774 C779 1.363 . S
C775 H746 0.950 . S
C775 C774 1.397 . S
C775 C776 1.334 . S
C776 H747 0.950 . S
C776 C775 1.334 . S
C776 C777 1.287 . S
C777 C776 1.287 . S
C777 C778 1.524 . S
C777 H780 0.999 . S
C778 H748 0.950 . S
C778 C777 1.524 . S
C778 C779 1.415 . S
C779 H749 0.950 . S
C779 C774 1.363 . S
C779 C778 1.415 . S
H780 C777 0.999 . S
H781 C762 0.913 . S
H782 C800 0.951 . S
H783 C802 0.951 . S
H784 C804 0.950 . S
H785 C805 0.950 . S
H786 C807 0.950 . S
H787 C810 0.950 1_565 S
H788 C811 0.950 . S
H789 C813 0.950 . S
H790 C814 0.950 . S
H791 C815 0.951 . S
H792 C817 0.951 . S
H793 C819 0.950 . S
H794 C820 0.950 . S
H795 C822 0.950 . S
H796 C825 0.950 1_545 S
H797 C826 0.950 . S
H798 C828 0.950 . S
H799 C829 0.950 . S
C800 H782 0.951 . S
C800 C801 1.366 . S
C800 C802 1.388 . S
C801 C800 1.366 . S
C801 C805 1.385 . S
C802 H783 0.951 . S
C802 C800 1.388 . S
C802 C803 1.366 . S
C803 C802 1.366 . S
C803 C804 1.414 . S
C803 C806 1.499 . S
C804 H784 0.950 . S
C804 C803 1.414 . S
C804 C805 1.374 . S
C805 H785 0.950 . S
C805 C801 1.385 . S
C805 C804 1.374 . S
C806 C803 1.499 . S
C806 C807 1.373 . S
C806 C808 1.377 1_565 S
C807 H786 0.950 . S
C807 C806 1.373 . S
C807 C823 1.398 . S
C808 C806 1.377 1_545 S
C808 C809 1.519 . S
C808 C822 1.398 . S
C809 C808 1.519 . S
C809 C810 1.397 . S
C809 C814 1.363 . S
C810 H787 0.950 1_545 S
C810 C809 1.397 . S
C810 C811 1.334 . S
C811 H788 0.950 . S
C811 C810 1.334 . S
C811 C812 1.287 . S
C812 C811 1.287 . S
C812 C813 1.524 . S
C812 H831 0.913 . S
C813 H789 0.950 . S
C813 C812 1.524 . S
C813 C814 1.415 . S
C814 H790 0.950 . S
C814 C809 1.363 . S
C814 C813 1.415 . S
C815 H791 0.951 . S
C815 C816 1.366 . S
C815 C817 1.388 . S
C816 C815 1.366 . S
C816 C820 1.385 . S
C817 H792 0.951 . S
C817 C815 1.388 . S
C817 C818 1.366 . S
C818 C817 1.366 . S
C818 C819 1.414 . S
C818 C821 1.499 . S
C819 H793 0.950 . S
C819 C818 1.414 . S
C819 C820 1.374 . S
C820 H794 0.950 . S
C820 C816 1.385 . S
C820 C819 1.374 . S
C821 C818 1.499 . S
C821 C822 1.373 . S
C821 C823 1.377 1_545 S
C822 H795 0.950 . S
C822 C808 1.398 . S
C822 C821 1.373 . S
C823 C807 1.398 . S
C823 C821 1.377 1_565 S
C823 C824 1.519 . S
C824 C823 1.519 . S
C824 C825 1.397 . S
C824 C829 1.363 . S
C825 H796 0.950 1_565 S
C825 C824 1.397 . S
C825 C826 1.334 . S
C826 H797 0.950 . S
C826 C825 1.334 . S
C826 C827 1.287 . S
C827 C826 1.287 . S
C827 C828 1.524 . S
C827 H830 0.999 . S
C828 H798 0.950 . S
C828 C827 1.524 . S
C828 C829 1.415 . S
C829 H799 0.950 . S
C829 C824 1.363 . S
C829 C828 1.415 . S
H830 C827 0.999 . S
H831 C812 0.913 . S
H832 C850 0.951 . S
H833 C852 0.951 . S
H834 C854 0.950 . S
H835 C855 0.950 . S
H836 C857 0.950 . S
H837 C860 0.950 . S
H838 C861 0.950 . S
H839 C863 0.950 . S
H840 C864 0.950 . S
H841 C865 0.951 . S
H842 C867 0.951 . S
H843 C869 0.950 . S
H844 C870 0.950 . S
H845 C872 0.950 . S
H846 C875 0.950 . S
H847 C876 0.950 . S
H848 C878 0.950 . S
H849 C879 0.950 . S
C850 H832 0.951 . S
C850 C851 1.366 . S
C850 C852 1.388 . S
C851 C850 1.366 . S
C851 C855 1.385 . S
C852 H833 0.951 . S
C852 C850 1.388 . S
C852 C853 1.366 . S
C853 C852 1.366 . S
C853 C854 1.414 . S
C853 C856 1.499 . S
C854 H834 0.950 . S
C854 C853 1.414 . S
C854 C855 1.374 . S
C855 H835 0.950 . S
C855 C851 1.385 . S
C855 C854 1.374 . S
C856 C853 1.499 . S
C856 C857 1.373 . S
C856 C858 1.389 . S
C857 H836 0.950 . S
C857 C856 1.373 . S
C857 C873 1.377 . S
C858 C856 1.389 . S
C858 C859 1.524 . S
C858 C872 1.377 . S
C859 C858 1.524 . S
C859 C860 1.397 . S
C859 C864 1.363 . S
C860 H837 0.950 . S
C860 C859 1.397 . S
C860 C861 1.334 . S
C861 H838 0.950 . S
C861 C860 1.334 . S
C861 C862 1.287 . S
C862 C861 1.287 . S
C862 C863 1.524 . S
C862 H881 0.913 . S
C863 H839 0.950 . S
C863 C862 1.524 . S
C863 C864 1.415 . S
C864 H840 0.950 . S
C864 C859 1.363 . S
C864 C863 1.415 . S
C865 H841 0.951 . S
C865 C866 1.366 . S
C865 C867 1.388 . S
C866 C865 1.366 . S
C866 C870 1.385 . S
C867 H842 0.951 . S
C867 C865 1.388 . S
C867 C868 1.366 . S
C868 C867 1.366 . S
C868 C869 1.414 . S
C868 C871 1.499 . S
C869 H843 0.950 . S
C869 C868 1.414 . S
C869 C870 1.374 . S
C870 H844 0.950 . S
C870 C866 1.385 . S
C870 C869 1.374 . S
C871 C868 1.499 . S
C871 C872 1.373 . S
C871 C873 1.389 . S
C872 H845 0.950 . S
C872 C858 1.377 . S
C872 C871 1.373 . S
C873 C857 1.377 . S
C873 C871 1.389 . S
C873 C874 1.524 . S
C874 C873 1.524 . S
C874 C875 1.397 . S
C874 C879 1.363 . S
C875 H846 0.950 . S
C875 C874 1.397 . S
C875 C876 1.334 . S
C876 H847 0.950 . S
C876 C875 1.334 . S
C876 C877 1.287 . S
C877 C876 1.287 . S
C877 C878 1.524 . S
C877 H880 0.999 . S
C878 H848 0.950 . S
C878 C877 1.524 . S
C878 C879 1.415 . S
C879 H849 0.950 . S
C879 C874 1.363 . S
C879 C878 1.415 . S
H880 C877 0.999 . S
H881 C862 0.913 . S
H882 C900 0.951 . S
H883 C902 0.951 . S
H884 C904 0.950 . S
H885 C905 0.950 . S
H886 C907 0.950 . S
H887 C910 0.950 . S
H888 C911 0.950 . S
H889 C913 0.950 . S
H890 C914 0.950 . S
H891 C915 0.951 . S
H892 C917 0.951 . S
H893 C919 0.950 . S
H894 C920 0.950 . S
H895 C922 0.950 . S
H896 C925 0.950 . S
H897 C926 0.950 . S
H898 C928 0.950 . S
H899 C929 0.950 . S
C900 H882 0.951 . S
C900 C901 1.366 . S
C900 C902 1.388 . S
C901 C900 1.366 . S
C901 C905 1.385 . S
C902 H883 0.951 . S
C902 C900 1.388 . S
C902 C903 1.366 . S
C903 C902 1.366 . S
C903 C904 1.414 . S
C903 C906 1.499 . S
C904 H884 0.950 . S
C904 C903 1.414 . S
C904 C905 1.374 . S
C905 H885 0.950 . S
C905 C901 1.385 . S
C905 C904 1.374 . S
C906 C903 1.499 . S
C906 C907 1.373 . S
C906 C908 1.389 . S
C907 H886 0.950 . S
C907 C906 1.373 . S
C907 C923 1.377 1_655 S
C908 C906 1.389 . S
C908 C909 1.524 . S
C908 C922 1.377 1_655 S
C909 C908 1.524 . S
C909 C910 1.397 . S
C909 C914 1.363 . S
C910 H887 0.950 . S
C910 C909 1.397 . S
C910 C911 1.334 . S
C911 H888 0.950 . S
C911 C910 1.334 . S
C911 C912 1.287 . S
C912 C911 1.287 . S
C912 C913 1.524 . S
C912 H931 0.913 . S
C913 H889 0.950 . S
C913 C912 1.524 . S
C913 C914 1.415 . S
C914 H890 0.950 . S
C914 C909 1.363 . S
C914 C913 1.415 . S
C915 H891 0.951 . S
C915 C916 1.366 . S
C915 C917 1.388 . S
C916 C915 1.366 . S
C916 C920 1.385 . S
C917 H892 0.951 . S
C917 C915 1.388 . S
C917 C918 1.366 . S
C918 C917 1.366 . S
C918 C919 1.414 . S
C918 C921 1.499 . S
C919 H893 0.950 . S
C919 C918 1.414 . S
C919 C920 1.374 . S
C920 H894 0.950 . S
C920 C916 1.385 . S
C920 C919 1.374 . S
C921 C918 1.499 . S
C921 C922 1.373 . S
C921 C923 1.389 . S
C922 H895 0.950 . S
C922 C908 1.377 1_455 S
C922 C921 1.373 . S
C923 C907 1.377 1_455 S
C923 C921 1.389 . S
C923 C924 1.524 . S
C924 C923 1.524 . S
C924 C925 1.397 . S
C924 C929 1.363 . S
C925 H896 0.950 . S
C925 C924 1.397 . S
C925 C926 1.334 . S
C926 H897 0.950 . S
C926 C925 1.334 . S
C926 C927 1.287 . S
C927 C926 1.287 . S
C927 C928 1.524 . S
C927 H930 0.999 . S
C928 H898 0.950 . S
C928 C927 1.524 . S
C928 C929 1.415 . S
C929 H899 0.950 . S
C929 C924 1.363 . S
C929 C928 1.415 . S
H930 C927 0.999 . S
H931 C912 0.913 . S
H932 C950 0.951 . S
H933 C952 0.951 . S
H934 C954 0.950 . S
H935 C955 0.950 . S
H936 C957 0.950 . S
H937 C960 0.950 1_565 S
H938 C961 0.950 . S
H939 C963 0.950 . S
H940 C964 0.950 . S
H941 C965 0.951 . S
H942 C967 0.951 . S
H943 C969 0.950 . S
H944 C970 0.950 . S
H945 C972 0.950 . S
H946 C975 0.950 1_545 S
H947 C976 0.950 . S
H948 C978 0.950 . S
H949 C979 0.950 . S
C950 H932 0.951 . S
C950 C951 1.366 . S
C950 C952 1.388 . S
C951 C950 1.366 . S
C951 C955 1.385 . S
C952 H933 0.951 . S
C952 C950 1.388 . S
C952 C953 1.366 . S
C953 C952 1.366 . S
C953 C954 1.414 . S
C953 C956 1.499 . S
C954 H934 0.950 . S
C954 C953 1.414 . S
C954 C955 1.374 . S
C955 H935 0.950 . S
C955 C951 1.385 . S
C955 C954 1.374 . S
C956 C953 1.499 . S
C956 C957 1.373 . S
C956 C958 1.389 1_565 S
C957 H936 0.950 . S
C957 C956 1.373 . S
C957 C973 1.377 . S
C958 C956 1.389 1_545 S
C958 C959 1.524 . S
C958 C972 1.377 . S
C959 C958 1.524 . S
C959 C960 1.397 . S
C959 C964 1.363 . S
C960 H937 0.950 1_545 S
C960 C959 1.397 . S
C960 C961 1.334 . S
C961 H938 0.950 . S
C961 C960 1.334 . S
C961 C962 1.287 . S
C962 C961 1.287 . S
C962 C963 1.524 . S
C962 H981 0.913 . S
C963 H939 0.950 . S
C963 C962 1.524 . S
C963 C964 1.415 . S
C964 H940 0.950 . S
C964 C959 1.363 . S
C964 C963 1.415 . S
C965 H941 0.951 . S
C965 C966 1.366 . S
C965 C967 1.388 . S
C966 C965 1.366 . S
C966 C970 1.385 . S
C967 H942 0.951 . S
C967 C965 1.388 . S
C967 C968 1.366 . S
C968 C967 1.366 . S
C968 C969 1.414 . S
C968 C971 1.499 . S
C969 H943 0.950 . S
C969 C968 1.414 . S
C969 C970 1.374 . S
C970 H944 0.950 . S
C970 C966 1.385 . S
C970 C969 1.374 . S
C971 C968 1.499 . S
C971 C972 1.373 . S
C971 C973 1.389 1_545 S
C972 H945 0.950 . S
C972 C958 1.377 . S
C972 C971 1.373 . S
C973 C957 1.377 . S
C973 C971 1.389 1_565 S
C973 C974 1.524 . S
C974 C973 1.524 . S
C974 C975 1.397 . S
C974 C979 1.363 . S
C975 H946 0.950 1_565 S
C975 C974 1.397 . S
C975 C976 1.334 . S
C976 H947 0.950 . S
C976 C975 1.334 . S
C976 C977 1.287 . S
C977 C976 1.287 . S
C977 C978 1.524 . S
C977 H980 0.999 . S
C978 H948 0.950 . S
C978 C977 1.524 . S
C978 C979 1.415 . S
C979 H949 0.950 . S
C979 C974 1.363 . S
C979 C978 1.415 . S
H980 C977 0.999 . S
H981 C962 0.913 . S
H982 C1000 0.951 . S
H983 C1002 0.951 . S
H984 C1004 0.950 . S
H985 C1005 0.950 . S
H986 C1007 0.950 . S
H987 C1010 0.950 . S
H988 C1011 0.950 . S
H989 C1013 0.950 . S
H990 C1014 0.950 . S
H991 C1015 0.951 . S
H992 C1017 0.951 . S
H993 C1019 0.950 . S
H994 C1020 0.950 . S
H995 C1022 0.950 . S
H996 C1025 0.950 . S
H997 C1026 0.950 . S
H998 C1028 0.950 . S
H999 C1029 0.950 . S
C1000 H982 0.951 . S
C1000 C1001 1.366 . S
C1000 C1002 1.388 . S
C1001 C1000 1.366 . S
C1001 C1005 1.385 . S
C1002 H983 0.951 . S
C1002 C1000 1.388 . S
C1002 C1003 1.366 . S
C1003 C1002 1.366 . S
C1003 C1004 1.414 . S
C1003 C1006 1.499 . S
C1004 H984 0.950 . S
C1004 C1003 1.414 . S
C1004 C1005 1.374 . S
C1005 H985 0.950 . S
C1005 C1001 1.385 . S
C1005 C1004 1.374 . S
C1006 C1003 1.499 . S
C1006 C1007 1.373 . S
C1006 C1008 1.389 . S
C1007 H986 0.950 . S
C1007 C1006 1.373 . S
C1007 C1023 1.377 . S
C1008 C1006 1.389 . S
C1008 C1009 1.524 . S
C1008 C1022 1.377 . S
C1009 C1008 1.524 . S
C1009 C1010 1.397 . S
C1009 C1014 1.363 . S
C1010 H987 0.950 . S
C1010 C1009 1.397 . S
C1010 C1011 1.334 . S
C1011 H988 0.950 . S
C1011 C1010 1.334 . S
C1011 C1012 1.287 . S
C1012 C1011 1.287 . S
C1012 C1013 1.524 . S
C1012 H1031 0.913 . S
C1013 H989 0.950 . S
C1013 C1012 1.524 . S
C1013 C1014 1.415 . S
C1014 H990 0.950 . S
C1014 C1009 1.363 . S
C1014 C1013 1.415 . S
C1015 H991 0.951 . S
C1015 C1016 1.366 . S
C1015 C1017 1.388 . S
C1016 C1015 1.366 . S
C1016 C1020 1.385 . S
C1017 H992 0.951 . S
C1017 C1015 1.388 . S
C1017 C1018 1.366 . S
C1018 C1017 1.366 . S
C1018 C1019 1.414 . S
C1018 C1021 1.499 . S
C1019 H993 0.950 . S
C1019 C1018 1.414 . S
C1019 C1020 1.374 . S
C1020 H994 0.950 . S
C1020 C1016 1.385 . S
C1020 C1019 1.374 . S
C1021 C1018 1.499 . S
C1021 C1022 1.373 . S
C1021 C1023 1.389 . S
C1022 H995 0.950 . S
C1022 C1008 1.377 . S
C1022 C1021 1.373 . S
C1023 C1007 1.377 . S
C1023 C1021 1.389 . S
C1023 C1024 1.524 . S
C1024 C1023 1.524 . S
C1024 C1025 1.397 . S
C1024 C1029 1.363 . S
C1025 H996 0.950 . S
C1025 C1024 1.397 . S
C1025 C1026 1.334 . S
C1026 H997 0.950 . S
C1026 C1025 1.334 . S
C1026 C1027 1.287 . S
C1027 C1026 1.287 . S
C1027 C1028 1.524 . S
C1027 H1030 0.999 . S
C1028 H998 0.950 . S
C1028 C1027 1.524 . S
C1028 C1029 1.415 . S
C1029 H999 0.950 . S
C1029 C1024 1.363 . S
C1029 C1028 1.415 . S
H1030 C1027 0.999 . S
H1031 C1012 0.913 . S
C151 C117 1.459 . S
C166 C7 1.459 . S
C201 C128 1.459 . S
C216 C18 1.459 . S
C251 C29 1.459 . S
C266 C73 1.459 . S
C301 C40 1.458 . S
C316 C84 1.459 . S
C351 C95 1.459 . S
C366 C51 1.459 . S
C401 C106 1.459 . S
C416 C62 1.459 . S
C451 C38 1.285 . S
C466 C5 1.284 . S
C501 C16 1.285 . S
C516 C49 1.286 . S
C551 C60 1.286 . S
C566 C27 1.286 . S
C601 C104 1.285 . S
C616 C71 1.286 . S
C651 C115 1.286 . S
C666 C82 1.285 . S
C701 C93 1.284 . S
C716 C126 1.284 . S
C751 C129 1.494 . S
C766 C8 1.494 . S
C801 C74 1.494 . S
C816 C19 1.494 . S
C851 C30 1.494 . S
C866 C85 1.494 . S
C901 C41 1.493 . S
C916 C96 1.494 . S
C951 C52 1.494 . S
C966 C107 1.494 . S
C1001 C63 1.494 . S
C1016 C118 1.494 . S
