# Generated by pormake.
# Topology qdl, (4)-cn, num edge types: 1
# Building blocks:
#     Node 0, Type 0, BuildingBlock: KOZSID_clean_sbu_0, # of connection points: 4
#     Node 1, Type 0, BuildingBlock: KOZSID_clean_sbu_0, # of connection points: 4
#     Node 2, Type 0, BuildingBlock: KOZSID_clean_sbu_0, # of connection points: 4
#     Node 3, Type 0, BuildingBlock: KOZSID_clean_sbu_0, # of connection points: 4
#     Node 4, Type 0, BuildingBlock: KOZSID_clean_sbu_0, # of connection points: 4
#     Node 5, Type 0, BuildingBlock: KOZSID_clean_sbu_0, # of connection points: 4
#     Edge 6, Type (0, 0), BuildingBlock: FUNLAD_clean_linker_1, # of connection points: 2
#     Edge 7, Type (0, 0), BuildingBlock: FUNLAD_clean_linker_1, # of connection points: 2
#     Edge 8, Type (0, 0), BuildingBlock: FUNLAD_clean_linker_1, # of connection points: 2
#     Edge 9, Type (0, 0), BuildingBlock: FUNLAD_clean_linker_1, # of connection points: 2
#     Edge 10, Type (0, 0), BuildingBlock: FUNLAD_clean_linker_1, # of connection points: 2
#     Edge 11, Type (0, 0), BuildingBlock: FUNLAD_clean_linker_1, # of connection points: 2
#     Edge 12, Type (0, 0), BuildingBlock: FUNLAD_clean_linker_1, # of connection points: 2
#     Edge 13, Type (0, 0), BuildingBlock: FUNLAD_clean_linker_1, # of connection points: 2
#     Edge 14, Type (0, 0), BuildingBlock: FUNLAD_clean_linker_1, # of connection points: 2
#     Edge 15, Type (0, 0), BuildingBlock: FUNLAD_clean_linker_1, # of connection points: 2
#     Edge 16, Type (0, 0), BuildingBlock: FUNLAD_clean_linker_1, # of connection points: 2
#     Edge 17, Type (0, 0), BuildingBlock: FUNLAD_clean_linker_1, # of connection points: 2
# Relax obj value: 0.000
# Max RMSD: 0.051
# Mean RMSD: 0.048
data_MOF--net-qdl--node1-KOZSID_clean_sbu_0--edge1-FUNLAD_clean_linker_1
_symmetry_space_group_name_H-M    P1
_symmetry_Int_Tables_number       1
_symmetry_cell_setting            triclinic
loop_
_symmetry_equiv_pos_as_xyz
'x, y, z'
_cell_length_a     17.264391
_cell_length_b     17.328964
_cell_length_c     120.46807
_cell_angle_alpha  101.59842
_cell_angle_beta   101.72167
_cell_angle_gamma 120.14235
loop_
_atom_site_label
_atom_site_type_symbol
_atom_site_fract_x
_atom_site_fract_y
_atom_site_fract_z
_atom_type_partial_charge
C0 C 0.26921 0.50354 0.09959 0.0
C1 C 0.18145 0.49202 0.09511 0.0
C2 C 0.11144 0.39775 0.09163 0.0
C3 C 0.159 0.35576 0.09375 0.0
N4 N 0.25577 0.41748 0.09854 0.0
Co5 Co 0.35099 0.3818 0.10106 0.0
N6 N 0.24642 0.24181 0.09439 0.0
C7 C 0.15107 0.2017 0.0896 0.0
C8 C 0.09574 0.10418 0.0855 0.0
C9 C 0.15914 0.07996 0.08803 0.0
C10 C 0.25046 0.16492 0.09383 0.0
N11 N 0.44627 0.34617 0.10362 0.0
C12 C 0.43303 0.26008 0.10258 0.0
C13 C 0.52106 0.27306 0.10761 0.0
C14 C 0.59075 0.36735 0.11114 0.0
C15 C 0.54299 0.40848 0.10867 0.0
N16 N 0.45548 0.52185 0.10769 0.0
C17 C 0.55087 0.56236 0.11239 0.0
C18 C 0.60594 0.65991 0.11624 0.0
C19 C 0.54211 0.6836 0.11362 0.0
C20 C 0.45115 0.59837 0.1081 0.0
N21 N 0.34811 0.38469 0.11766 0.0
C22 C 0.34043 0.36974 0.14052 0.0
C23 C 0.42838 0.42065 0.1389 0.0
C24 C 0.43042 0.42749 0.12753 0.0
C25 C 0.25706 0.32988 0.13057 0.0
C26 C 0.26235 0.3383 0.11939 0.0
N27 N 0.35375 0.37861 0.08447 0.0
C28 C 0.44367 0.42442 0.07118 0.0
C29 C 0.3601 0.3855 0.06131 0.0
C30 C 0.27279 0.34054 0.06318 0.0
C31 C 0.27136 0.33782 0.0747 0.0
C32 C 0.43908 0.42063 0.08256 0.0
H33 H 0.20253 0.30248 0.07545 0.0
H34 H 0.50571 0.45298 0.08971 0.0
H35 H 0.49957 0.46667 0.12694 0.0
H36 H 0.19574 0.30503 0.1122 0.0
C37 C 0.11494 0.25749 0.0897 0.0
C38 C 0.36359 0.59487 0.10353 0.0
C39 C 0.33813 0.16757 0.09828 0.0
C40 C 0.58689 0.5067 0.11251 0.0
H41 H 0.16692 0.54334 0.09357 0.0
H42 H 0.03507 0.36297 0.08722 0.0
H43 H 1.01835 0.05639 0.08133 0.0
H44 H 0.13955 1.00734 0.08583 0.0
H45 H 0.53618 0.22312 0.1096 0.0
H46 H 0.66686 0.40276 0.11585 0.0
H47 H 0.68337 0.70796 0.12027 0.0
H48 H 0.56091 0.75581 0.11549 0.0
H49 H 0.49591 0.45445 0.14621 0.0
H50 H 0.18713 0.2906 0.13134 0.0
H51 H 0.51299 0.45894 0.07017 0.0
H52 H 0.20522 0.30617 0.05583 0.0
C53 C 0.43338 0.25591 0.43686 0.0
C54 C 0.5169 0.34454 0.44436 0.0
C55 C 0.49252 0.40842 0.44614 0.0
C56 C 0.39598 0.35601 0.43982 0.0
N57 N 0.35631 0.26177 0.43438 0.0
Co58 Co 0.21684 0.1607 0.4245 0.0
N59 N 0.1818 0.25557 0.42673 0.0
C60 C 0.24343 0.35121 0.43241 0.0
C61 C 0.20097 0.39949 0.43147 0.0
C62 C 0.10587 0.33018 0.42518 0.0
C63 C 0.0947 0.24266 0.42313 0.0
N64 N 0.0782 0.06018 0.41429 0.0
C65 C 1.00164 0.06649 0.41143 0.0
C66 C 0.91998 0.97948 0.40315 0.0
C67 C 0.94468 0.91579 0.40135 0.0
C68 C 0.03984 0.96699 0.40836 0.0
N69 N 0.2512 0.06541 0.42254 0.0
C70 C 0.18861 0.96953 0.41746 0.0
C71 C 0.23069 0.92107 0.41867 0.0
C72 C 0.3263 0.99037 0.42462 0.0
C73 C 0.33788 0.07775 0.42625 0.0
N74 N 0.19118 0.13973 0.43948 0.0
C75 C 0.15128 0.11236 0.4606 0.0
C76 C 0.10182 0.03633 0.44951 0.0
C77 C 0.1236 0.05104 0.43919 0.0
C78 C 0.2205 0.20251 0.46092 0.0
C79 C 0.23816 0.21466 0.45035 0.0
N80 N 0.24213 0.18157 0.40951 0.0
C81 C 0.22591 0.11919 0.38859 0.0
C82 C 0.27586 0.2113 0.38818 0.0
C83 C 0.31033 0.28787 0.39871 0.0
C84 C 0.2925 0.27171 0.40912 0.0
C85 C 0.21076 0.10622 0.39929 0.0
H86 H 0.32098 0.3336 0.41676 0.0
H87 H 0.17445 0.03459 0.39913 0.0
H88 H 0.08367 0.98966 0.43106 0.0
H89 H 0.28877 0.28598 0.45118 0.0
C90 C 0.3408 0.39339 0.43853 0.0
C91 C 0.43173 0.17078 0.43126 0.0
C92 C 1.00095 0.14874 0.41767 0.0
C93 C 0.09271 0.92802 0.4106 0.0
H94 H 0.58896 0.36293 0.44803 0.0
H95 H 0.54003 0.48451 0.45124 0.0
H96 H 0.2351 0.47599 0.43488 0.0
H97 H 0.05145 0.34342 0.42243 0.0
H98 H 0.84858 0.96185 0.3991 0.0
H99 H 0.89778 0.84023 0.39596 0.0
H100 H 0.19627 0.8445 0.41542 0.0
H101 H 0.38087 0.97731 0.42736 0.0
H102 H 0.04671 0.96538 0.4488 0.0
H103 H 0.25865 0.26443 0.46921 0.0
H104 H 0.20036 0.05727 0.38085 0.0
H105 H 0.35058 0.36061 0.3989 0.0
C106 C 0.21226 0.47719 0.76282 0.0
C107 C 0.19946 0.55134 0.76443 0.0
C108 C 0.10356 0.51093 0.76168 0.0
C109 C 0.0629 0.41499 0.75869 0.0
N110 N 0.1273 0.3917 0.75969 0.0
Co111 Co 0.09753 0.25958 0.75647 0.0
N112 N 0.95571 0.19955 0.75145 0.0
C113 C 0.91147 0.24467 0.75002 0.0
C114 C 0.81347 0.18421 0.74522 0.0
C115 C 0.79396 0.09549 0.74391 0.0
C116 C 0.88148 0.10739 0.74856 0.0
N117 N 0.06765 0.12749 0.75321 0.0
C118 C 0.98252 0.04183 0.74995 0.0
C119 C 0.99521 0.96753 0.74805 0.0
C120 C 0.09116 1.00805 0.75085 0.0
C121 C 0.13196 0.10415 0.7541 0.0
N122 N 0.23929 0.31961 0.7615 0.0
C123 C 0.2835 0.2744 0.76286 0.0
C124 C 0.38156 0.3346 0.7674 0.0
C125 C 0.40113 0.4233 0.76866 0.0
C126 C 0.31347 0.41164 0.76433 0.0
N127 N 0.10504 0.27269 0.7736 0.0
C128 C 0.11217 0.28981 0.79781 0.0
C129 C 0.15796 0.25351 0.79253 0.0
C130 C 0.1532 0.24542 0.78054 0.0
C131 C 0.0626 0.31667 0.79066 0.0
C132 C 0.05957 0.30731 0.77874 0.0
N133 N 0.09008 0.24659 0.73932 0.0
C134 C 0.13412 0.20577 0.72222 0.0
C135 C 0.08356 0.23274 0.7152 0.0
C136 C 0.03739 0.26746 0.72057 0.0
C137 C 0.04154 0.27386 0.73247 0.0
C138 C 0.13639 0.2133 0.73413 0.0
H139 H 1.00585 0.30242 0.73596 0.0
H140 H 0.17746 0.19311 0.73902 0.0
H141 H 0.18835 0.21598 0.77704 0.0
H142 H 1.01895 0.32766 0.7738 0.0
C143 C 0.96417 0.34436 0.75386 0.0
C144 C 0.3032 0.48893 0.7629 0.0
C145 C 0.89185 0.03015 0.75013 0.0
C146 C 0.23066 0.17472 0.75896 0.0
H147 H 0.25264 0.62682 0.76694 0.0
H148 H 0.06739 0.54696 0.76142 0.0
H149 H 0.76225 0.2025 0.74306 0.0
H150 H 0.72293 0.02977 0.74008 0.0
H151 H 0.94179 0.89182 0.74532 0.0
H152 H 0.12721 0.97188 0.75093 0.0
H153 H 0.43277 0.31606 0.76935 0.0
H154 H 0.47222 0.48877 0.77224 0.0
H155 H 0.19758 0.23114 0.79748 0.0
H156 H 1.02533 0.34456 0.79424 0.0
H157 H 0.17336 0.18029 0.71877 0.0
H158 H 0.99807 0.29026 0.7156 0.0
C159 C 0.97661 0.19569 0.5817 0.0
C160 C 0.98325 0.28021 0.58253 0.0
C161 C 0.07627 0.35371 0.58939 0.0
C162 C 0.1225 0.31072 0.59191 0.0
N163 N 0.06516 0.21464 0.58676 0.0
Co164 Co 0.10873 0.12748 0.58667 0.0
N165 N 0.24682 0.23506 0.593 0.0
C166 C 0.28225 0.32759 0.59851 0.0
C167 C 0.38039 0.38594 0.60261 0.0
C168 C 0.40891 0.32661 0.59944 0.0
C169 C 0.32591 0.23454 0.5934 0.0
N170 N 0.15275 0.04103 0.58674 0.0
C171 C 0.23968 0.0568 0.58759 0.0
C172 C 0.24182 0.981 0.58946 0.0
C173 C 0.15217 0.91396 0.58893 0.0
C174 C 0.10107 0.95336 0.58725 0.0
N175 N 0.97078 1.01913 0.58032 0.0
C176 C 0.93853 0.93055 0.58042 0.0
C177 C 0.84069 0.86953 0.57582 0.0
C178 C 0.80859 0.92316 0.57289 0.0
C179 C 0.88918 1.01535 0.57592 0.0
N180 N 0.10545 0.11491 0.56995 0.0
C181 C 0.11404 0.0986 0.5466 0.0
C182 C 0.07782 1.01899 0.55015 0.0
C183 C 0.07229 1.02815 0.56174 0.0
C184 C 0.14467 0.18643 0.55492 0.0
C185 C 0.14091 0.19326 0.56656 0.0
N186 N 0.11286 0.14005 0.60347 0.0
C187 C 0.043 0.14538 0.61886 0.0
C188 C 0.12086 0.15889 0.62758 0.0
C189 C 0.19439 0.16311 0.62389 0.0
C190 C 0.18912 0.1535 0.6119 0.0
C191 C 0.04045 0.13602 0.60692 0.0
H192 H 0.24726 0.15705 0.60948 0.0
H193 H 0.97967 0.12583 0.60052 0.0
H194 H 0.04318 0.96526 0.56416 0.0
H195 H 0.16899 0.2626 0.5729 0.0
C196 C 0.22129 0.35834 0.59771 0.0
C197 C 0.88484 0.09981 0.5769 0.0
C198 C 0.32418 0.14797 0.58839 0.0
C199 C 1.00216 0.90588 0.58431 0.0
H200 H 0.92691 0.28864 0.57868 0.0
H201 H 0.10712 0.42946 0.59187 0.0
H202 H 0.42579 0.46297 0.60695 0.0
H203 H 0.48274 0.34964 0.60143 0.0
H204 H 0.30207 0.97503 0.59142 0.0
H205 H 0.12711 0.84439 0.58955 0.0
H206 H 0.79758 0.79507 0.57485 0.0
H207 H 0.73373 0.89718 0.56952 0.0
H208 H 0.05378 0.94992 0.54399 0.0
H209 H 0.17503 0.25027 0.55263 0.0
H210 H 0.98448 0.14285 0.6211 0.0
H211 H 0.25614 0.17372 0.63027 0.0
C212 C 1.01442 0.21797 0.92503 0.0
C213 C 0.93214 0.21759 0.9239 0.0
C214 C 0.9559 0.30606 0.9244 0.0
C215 C 0.05115 0.35688 0.9261 0.0
N216 N 0.09017 0.30605 0.92656 0.0
Co217 Co 0.23016 0.35818 0.93024 0.0
N218 N 0.26526 0.49078 0.93256 0.0
C219 C 0.20672 0.5208 0.93277 0.0
C220 C 0.25061 0.61621 0.93486 0.0
C221 C 0.3424 0.64897 0.93573 0.0
C222 C 0.34879 0.57061 0.93384 0.0
N223 N 0.36992 0.41009 0.93353 0.0
C224 C 0.44361 0.49616 0.93408 0.0
C225 C 0.5227 0.49297 0.9339 0.0
C226 C 0.50021 0.40579 0.93384 0.0
C227 C 0.40803 0.35819 0.93346 0.0
N228 N 0.19521 0.22577 0.92824 0.0
C229 C 0.25531 0.19718 0.9291 0.0
C230 C 0.21224 0.10274 0.92761 0.0
C231 C 0.11912 0.06908 0.92602 0.0
C232 C 0.111 0.14583 0.92679 0.0
N233 N 0.20888 0.33278 0.9126 0.0
C234 C 0.19282 0.31014 0.88806 0.0
C235 C 0.23236 0.27203 0.89454 0.0
C236 C 0.23941 0.2837 0.90662 0.0
C237 C 0.15904 0.35799 0.89407 0.0
C238 C 0.16742 0.36799 0.90619 0.0
N239 N 0.25144 0.38336 0.94792 0.0
C240 C 0.31791 0.3726 0.96692 0.0
C241 C 0.26616 0.39928 0.9723 0.0
C242 C 0.20912 0.42017 0.96532 0.0
C243 C 0.20345 0.41271 0.95335 0.0
C244 C 0.30975 0.36549 0.95487 0.0
H245 H 0.15815 0.42934 0.94861 0.0
H246 H 0.34968 0.34309 0.9513 0.0
H247 H 0.27103 0.25335 0.91097 0.0
H248 H 0.14105 0.40582 0.91027 0.0
C249 C 0.10843 0.45568 0.92936 0.0
C250 C 1.02157 0.13823 0.92613 0.0
C251 C 0.43568 0.57642 0.93323 0.0
C252 C 0.35224 0.26112 0.93149 0.0
H253 H 0.86297 0.16315 0.92363 0.0
H254 H 0.91076 0.33233 0.9245 0.0
H255 H 0.21867 0.65633 0.93518 0.0
H256 H 0.39776 0.72215 0.93728 0.0
H257 H 0.58801 0.54315 0.93288 0.0
H258 H 0.54338 0.37772 0.93313 0.0
H259 H 0.24494 0.0634 0.92782 0.0
H260 H 0.06364 0.99621 0.92457 0.0
H261 H 0.259 0.2338 0.89032 0.0
H262 H 0.12714 0.38893 0.88965 0.0
H263 H 0.36224 0.35394 0.97172 0.0
H264 H 0.16783 0.44143 0.96907 0.0
C265 C 0.25842 0.05632 0.25625 0.0
C266 C 0.17132 0.96669 0.25086 0.0
C267 C 0.10172 0.98078 0.24686 0.0
C268 C 0.14834 0.07746 0.25026 0.0
N269 N 0.24433 0.12687 0.2561 0.0
Co270 Co 0.33556 0.27018 0.26416 0.0
N271 N 0.22968 0.28884 0.25944 0.0
C272 C 0.13495 0.21934 0.25375 0.0
C273 C 0.07827 0.25239 0.25178 0.0
C274 C 0.14051 0.34908 0.2562 0.0
C275 C 0.23278 0.36987 0.26044 0.0
N276 N 0.42687 0.41356 0.27217 0.0
C277 C 0.41335 0.48429 0.27177 0.0
C278 C 0.50161 0.57321 0.27667 0.0
C279 C 0.57058 0.55888 0.28086 0.0
C280 C 0.52302 0.46256 0.2779 0.0
N281 N 0.44137 0.25129 0.26889 0.0
C282 C 0.53587 0.32043 0.27478 0.0
C283 C 0.59221 0.28703 0.27686 0.0
C284 C 0.5298 0.19029 0.27226 0.0
C285 C 0.43812 0.17013 0.26777 0.0
N286 N 0.35579 0.27979 0.24859 0.0
C287 C 0.38197 0.30707 0.22682 0.0
C288 C 0.46005 0.35102 0.23766 0.0
C289 C 0.44569 0.33653 0.2483 0.0
C290 C 0.29039 0.24603 0.22702 0.0
C291 C 0.27923 0.23355 0.23787 0.0
N292 N 0.31519 0.26057 0.27973 0.0
C293 C 0.37951 0.29679 0.30141 0.0
C294 C 0.28795 0.23394 0.30148 0.0
C295 C 0.21061 0.18665 0.29051 0.0
C296 C 0.22543 0.20122 0.2799 0.0
C297 C 0.39121 0.30907 0.29055 0.0
H298 H 0.16301 0.16234 0.27192 0.0
H299 H 0.46283 0.35693 0.2911 0.0
H300 H 0.50848 0.37311 0.25621 0.0
H301 H 0.20759 0.18691 0.23739 0.0
C302 C 0.10186 0.12357 0.24957 0.0
C303 C 0.35102 0.07259 0.26256 0.0
C304 C 0.32009 0.46796 0.26547 0.0
C305 C 0.56901 0.41612 0.27879 0.0
H306 H 0.15588 0.89754 0.25043 0.0
H307 H 1.02513 0.92711 0.24273 0.0
H308 H 1.00105 0.21106 0.24739 0.0
H309 H 0.11971 0.39847 0.25618 0.0
H310 H 0.51876 0.64182 0.27652 0.0
H311 H 0.64741 0.61177 0.28467 0.0
H312 H 0.66926 0.32814 0.2814 0.0
H313 H 0.54981 0.14033 0.27233 0.0
H314 H 0.53257 0.39792 0.23799 0.0
H315 H 0.2268 0.20753 0.21894 0.0
H316 H 0.44269 0.33486 0.30955 0.0
H317 H 0.13825 0.13749 0.29006 0.0
H318 H 0.26256 0.03326 0.10022 0.0
C319 C 0.32721 0.0854 0.09906 0.0
H320 H 0.44013 0.09419 0.09369 0.0
H321 H 0.37404 0.81621 0.12672 0.0
H322 H 0.4339 0.95714 0.14388 0.0
H323 H 0.46692 0.10609 0.14095 0.0
H324 H 0.44037 0.11496 0.12086 0.0
C325 C 0.38614 0.05837 0.09753 0.0
C326 C 0.36962 0.96974 0.09936 0.0
C327 C 0.38614 0.96607 0.11122 0.0
C328 C 0.36764 0.88039 0.11292 0.0
C329 C 0.38582 0.87901 0.12487 0.0
C330 C 0.42061 0.95959 0.13482 0.0
C331 C 0.43915 0.04342 0.13317 0.0
C332 C 0.42287 0.04725 0.12155 0.0
H333 H 0.43572 0.72674 0.10016 0.0
C334 C 0.37403 0.67848 0.10215 0.0
H335 H 0.2692 0.67825 0.10936 0.0
H336 H 0.33184 0.95384 0.07552 0.0
H337 H 0.27014 0.81239 0.05829 0.0
H338 H 0.23356 0.66224 0.06114 0.0
H339 H 0.25887 0.65275 0.0812 0.0
C340 C 0.31738 0.71059 0.10466 0.0
C341 C 0.33358 0.79899 0.10278 0.0
C342 C 0.31648 0.80253 0.09092 0.0
C343 C 0.33579 0.8885 0.08923 0.0
C344 C 0.31855 0.8904 0.07731 0.0
C345 C 0.28285 0.80963 0.06733 0.0
C346 C 0.26239 0.72515 0.06894 0.0
C347 C 0.27819 0.721 0.08055 0.0
H348 H 0.58684 0.2495 0.4363 0.0
C349 C 0.5192 0.18193 0.43088 0.0
H350 H 0.4654 0.05058 0.41623 0.0
H351 H 0.88984 0.29239 0.41275 0.0
H352 H 0.82472 0.36506 0.40242 0.0
H353 H 0.66704 0.33303 0.40164 0.0
H354 H 0.57358 0.22838 0.41122 0.0
C355 C 0.52773 0.11564 0.42324 0.0
C356 C 0.62421 0.13612 0.42382 0.0
C357 C 0.67821 0.19736 0.41817 0.0
C358 C 0.76941 0.21575 0.41861 0.0
C359 C 0.82097 0.27675 0.41281 0.0
C360 C 0.7842 0.31862 0.4068 0.0
C361 C 0.6954 0.30058 0.40636 0.0
C362 C 0.6426 0.24054 0.41193 0.0
H363 H 0.84929 0.06517 0.41279 0.0
C364 C 0.91569 0.13402 0.41821 0.0
H365 H 0.96503 0.26197 0.43245 0.0
H366 H 0.54011 1.01464 0.43546 0.0
H367 H 0.60498 0.94148 0.44574 0.0
H368 H 0.76309 0.97421 0.44663 0.0
H369 H 0.85721 0.07994 0.43719 0.0
C370 C 0.9046 0.1955 0.42548 0.0
C371 C 0.80691 0.17273 0.42466 0.0
C372 C 0.75265 0.11105 0.43025 0.0
C373 C 0.66131 0.09247 0.42978 0.0
C374 C 0.60929 0.03076 0.43548 0.0
C375 C 0.64587 0.98852 0.44144 0.0
C376 C 0.73491 1.00695 0.44194 0.0
C377 C 0.7881 0.06762 0.43646 0.0
H378 H 0.83012 0.89106 0.75104 0.0
C379 C 0.82295 0.95023 0.75165 0.0
H380 H 0.7413 0.99834 0.75754 0.0
H381 H 0.40755 0.53243 0.73492 0.0
H382 H 0.41559 0.54236 0.71538 0.0
H383 H 0.53943 0.69156 0.71386 0.0
H384 H 0.6569 0.83154 0.73192 0.0
C385 C 0.74705 0.9387 0.7546 0.0
C386 C 0.67323 0.84642 0.75546 0.0
C387 C 0.60454 0.7649 0.7448 0.0
C388 C 0.53215 0.67873 0.74566 0.0
C389 C 0.46444 0.59919 0.73483 0.0
C390 C 0.46787 0.60406 0.72353 0.0
C391 C 0.53769 0.68804 0.72269 0.0
C392 C 0.60507 0.7678 0.73315 0.0
H393 H 0.37258 0.63426 0.76288 0.0
C394 C 0.37656 0.57291 0.76166 0.0
H395 H 0.45188 0.5193 0.75426 0.0
H396 H 0.79365 0.98745 0.77763 0.0
H397 H 0.78776 0.97671 0.79722 0.0
H398 H 0.66384 0.8277 0.79876 0.0
H399 H 0.54513 0.68822 0.78071 0.0
C400 C 0.45227 0.582 0.75795 0.0
C401 C 0.52723 0.67383 0.75714 0.0
C402 C 0.59635 0.75518 0.7678 0.0
C403 C 0.66871 0.84134 0.76694 0.0
C404 C 0.73695 0.9207 0.77775 0.0
C405 C 0.73455 0.91544 0.78907 0.0
C406 C 0.66479 0.8315 0.78993 0.0
C407 C 0.59662 0.75204 0.77947 0.0
H408 H 0.46831 0.22779 0.58916 0.0
C409 C 0.40321 0.15699 0.58628 0.0
H410 H 0.34497 1.01301 0.5757 0.0
H411 H 0.71283 0.14294 0.56013 0.0
H412 H 0.60333 0.1256 0.54212 0.0
H413 H 0.44672 0.0956 0.54155 0.0
H414 H 0.39902 0.08394 0.5591 0.0
C415 C 0.40861 0.08488 0.58064 0.0
C416 C 0.50314 0.1012 0.58086 0.0
C417 C 0.52924 0.1049 0.57046 0.0
C418 C 0.61912 0.12011 0.57071 0.0
C419 C 0.64468 0.12855 0.56036 0.0
C420 C 0.58266 0.11935 0.54997 0.0
C421 C 0.49449 0.10257 0.54965 0.0
C422 C 0.46789 0.09578 0.55976 0.0
H423 H 0.72909 1.01947 0.56898 0.0
C424 C 0.79399 0.0873 0.57509 0.0
H425 H 0.83978 0.21277 0.58987 0.0
H426 H 0.47513 0.0944 0.60231 0.0
H427 H 0.58137 0.10585 0.62008 0.0
H428 H 0.73347 0.12566 0.62027 0.0
H429 H 0.78043 0.13457 0.60272 0.0
C430 C 0.77984 0.15162 0.5821 0.0
C431 C 0.68207 0.12884 0.58128 0.0
C432 C 0.65455 0.12252 0.59159 0.0
C433 C 0.56584 0.10961 0.59142 0.0
C434 C 0.54122 0.10404 0.60189 0.0
C435 C 0.60157 0.11038 0.61217 0.0
C436 C 0.68725 0.12167 0.61229 0.0
C437 C 0.71365 0.1274 0.60215 0.0
H438 H 0.47566 0.68672 0.92606 0.0
C439 C 0.50092 0.65249 0.93095 0.0
H440 H 0.63045 0.68319 0.94261 0.0
H441 H 0.77447 0.86981 0.9018 0.0
H442 H 0.67584 0.70679 0.88746 0.0
H443 H 0.56998 0.57349 0.89324 0.0
H444 H 0.56228 0.60237 0.91339 0.0
C445 C 0.59653 0.69615 0.93527 0.0
C446 C 0.65994 0.77642 0.93175 0.0
C447 C 0.66371 0.75808 0.91991 0.0
C448 C 0.72498 0.83493 0.9166 0.0
C449 C 0.72851 0.81443 0.90479 0.0
C450 C 0.6725 0.72105 0.89646 0.0
C451 C 0.61287 0.646 0.89971 0.0
C452 C 0.60872 0.66374 0.9113 0.0
H453 H 0.97292 1.02853 0.93396 0.0
C454 C 0.95017 0.05912 0.92809 0.0
H455 H 0.82426 1.02061 0.91391 0.0
H456 H 0.6668 0.83572 0.95498 0.0
H457 H 0.76048 0.99933 0.96909 0.0
H458 H 0.86268 0.13327 0.96314 0.0
H459 H 0.87237 0.10445 0.94311 0.0
C460 C 0.8513 1.00927 0.92194 0.0
C461 C 0.78264 0.92971 0.92514 0.0
C462 C 0.77647 0.94825 0.93685 0.0
C463 C 0.71606 0.87129 0.9402 0.0
C464 C 0.7117 0.89154 0.95197 0.0
C465 C 0.76483 0.98516 0.96015 0.0
C466 C 0.82248 0.06054 0.9568 0.0
C467 C 0.8281 0.04283 0.94529 0.0
H468 H 0.2533 0.51827 0.25527 0.0
C469 C 0.31132 0.53808 0.26329 0.0
H470 H 0.40665 0.65173 0.28015 0.0
H471 H 0.39385 0.88056 0.24227 0.0
H472 H 0.47359 0.81964 0.23297 0.0
H473 H 0.49931 0.70508 0.23932 0.0
H474 H 0.4456 0.65089 0.25501 0.0
C475 C 0.36307 0.6298 0.27079 0.0
C476 C 0.34961 0.70057 0.26713 0.0
C477 C 0.38204 0.73192 0.25797 0.0
C478 C 0.36771 0.79842 0.25435 0.0
C479 C 0.40187 0.82942 0.24529 0.0
C480 C 0.44817 0.79531 0.2399 0.0
C481 C 0.46262 0.73079 0.24347 0.0
C482 C 0.43071 0.69971 0.25244 0.0
H483 H 0.41257 1.01767 0.27329 0.0
C484 C 0.3587 0.99924 0.26488 0.0
H485 H 0.27302 0.88937 0.24704 0.0
H486 H 0.27907 0.65487 0.28495 0.0
H487 H 0.19681 0.71353 0.29403 0.0
H488 H 0.16771 0.82527 0.28737 0.0
H489 H 0.22111 0.87943 0.27167 0.0
C490 C 0.31028 0.9064 0.25651 0.0
C491 C 0.32182 0.83405 0.25998 0.0
C492 C 0.28835 0.80173 0.26905 0.0
C493 C 0.30345 0.73587 0.27273 0.0
C494 C 0.26974 0.70504 0.28183 0.0
C495 C 0.22209 0.73787 0.28709 0.0
C496 C 0.20583 0.80088 0.28336 0.0
C497 C 0.2378 0.83216 0.2744 0.0
H498 H 0.47414 0.36791 0.21627 0.0
C499 C 0.39992 0.32704 0.21572 0.0
H500 H 0.25596 0.25966 0.20414 0.0
H501 H 0.47177 0.55359 0.17672 0.0
H502 H 0.51435 0.67951 0.19483 0.0
H503 H 0.48257 0.6442 0.21288 0.0
H504 H 0.40872 0.48301 0.21298 0.0
C505 C 0.33117 0.30092 0.20526 0.0
C506 C 0.35426 0.32406 0.19453 0.0
C507 C 0.39734 0.41882 0.19458 0.0
C508 C 0.41462 0.43906 0.18408 0.0
C509 C 0.45725 0.53423 0.18442 0.0
C510 C 0.48184 0.60719 0.19475 0.0
C511 C 0.46403 0.58732 0.20491 0.0
C512 C 0.42196 0.49441 0.20487 0.0
H513 H 0.25857 0.31152 0.15216 0.0
C514 C 0.33093 0.35407 0.15212 0.0
H515 H 0.47831 0.43131 0.16306 0.0
H516 H 0.27201 0.13544 0.19136 0.0
H517 H 0.2321 1.01 0.17338 0.0
H518 H 0.26533 0.04558 0.15541 0.0
H519 H 0.33761 0.20643 0.15523 0.0
C520 C 0.40448 0.38619 0.16237 0.0
C521 C 0.38761 0.36451 0.17344 0.0
C522 C 0.34627 0.27009 0.17348 0.0
C523 C 0.32869 0.24981 0.18396 0.0
C524 C 0.28682 0.1548 0.18367 0.0
C525 C 0.26382 0.08215 0.17342 0.0
C526 C 0.28241 0.10216 0.1633 0.0
C527 C 0.32339 0.19484 0.16329 0.0
H528 H 0.15344 0.04874 0.53165 0.0
C529 C 0.12597 0.0904 0.5346 0.0
H530 H 0.0741 0.17138 0.53026 0.0
H531 H 0.26381 0.31904 0.49365 0.0
H532 H 0.32375 0.4649 0.50987 0.0
H533 H 0.29666 0.4611 0.52913 0.0
H534 H 0.20793 0.31137 0.53219 0.0
C535 C 0.10305 0.13128 0.5273 0.0
C536 C 0.1237 0.1317 0.51575 0.0
C537 C 0.17911 0.22043 0.51423 0.0
C538 C 0.19822 0.22295 0.50327 0.0
C539 C 0.24971 0.31261 0.50188 0.0
C540 C 0.28428 0.39719 0.51111 0.0
C541 C 0.26878 0.39502 0.52193 0.0
C542 C 0.21707 0.30813 0.52353 0.0
H543 H 0.05037 0.04831 0.47003 0.0
C544 C 0.1255 0.09785 0.47145 0.0
H545 H 0.26663 0.19096 0.48415 0.0
H546 H 0.99837 0.94787 0.51419 0.0
H547 H 0.94951 0.80268 0.49872 0.0
H548 H 1.00528 0.80897 0.48142 0.0
H549 H 0.10692 0.96022 0.47925 0.0
C550 C 0.19143 0.14279 0.48281 0.0
C551 C 0.16584 0.13716 0.49397 0.0
C552 C 0.11272 0.04852 0.49563 0.0
C553 C 0.08764 0.04546 0.50621 0.0
C554 C 1.02563 0.95514 0.50688 0.0
C555 C 0.99604 0.87099 0.49797 0.0
C556 C 1.02691 0.87449 0.48819 0.0
C557 C 0.08454 0.96193 0.48699 0.0
H558 H 0.07929 0.33467 0.81381 0.0
C559 C 0.11334 0.30114 0.81054 0.0
H560 H 0.18895 0.24027 0.81558 0.0
H561 H 0.33414 0.44984 0.87216 0.0
H562 H 0.48163 0.53457 0.86826 0.0
H563 H 0.48025 0.50748 0.8473 0.0
H564 H 0.33119 0.39588 0.8301 0.0
C565 C 0.15212 0.27214 0.8182 0.0
C566 C 0.15177 0.28802 0.8309 0.0
C567 C 0.2397 0.35209 0.84092 0.0
C568 C 0.24069 0.36686 0.85305 0.0
C569 C 0.32932 0.43398 0.8628 0.0
C570 C 0.41458 0.48363 0.86069 0.0
C571 C 0.41378 0.46844 0.84889 0.0
C572 C 0.32766 0.40388 0.83909 0.0
H573 H 0.22097 0.26267 0.87172 0.0
C574 C 0.19023 0.29905 0.87529 0.0
H575 H 0.11926 0.36527 0.87076 0.0
H576 H 0.97097 0.15434 0.81398 0.0
H577 H 0.82343 0.07156 0.81796 0.0
H578 H 0.82516 0.09936 0.8389 0.0
H579 H 0.9745 0.2102 0.85607 0.0
C580 C 0.15383 0.33136 0.86792 0.0
C581 C 0.15379 0.31639 0.85521 0.0
C582 C 0.06583 0.2528 0.84521 0.0
C583 C 0.06479 0.23781 0.83307 0.0
C584 C 0.97599 0.17075 0.82335 0.0
C585 C 0.89072 0.12205 0.8255 0.0
C586 C 0.89165 0.13768 0.8373 0.0
C587 C 0.97792 0.20178 0.84707 0.0
H588 H 0.43273 0.40594 0.04785 0.0
C589 C 0.36688 0.39055 0.04925 0.0
H590 H 0.23399 0.37132 0.04147 0.0
H591 H 0.35437 0.56677 1.00329 0.0
H592 H 0.35895 0.68958 0.0178 0.0
H593 H 0.34019 0.67561 0.0372 0.0
H594 H 0.3178 0.53908 0.04227 0.0
C595 C 0.29779 0.37991 0.04015 0.0
C596 C 0.30908 0.38757 0.02832 0.0
C597 C 0.31983 0.4666 0.0253 0.0
C598 C 0.32858 0.47364 0.01396 0.0
C599 C 0.34394 0.55588 0.01153 0.0
C600 C 0.34754 0.62744 0.01984 0.0
C601 C 0.33713 0.61965 0.03077 0.0
C602 C 0.32395 0.54067 0.03355 0.0
H603 H 0.20643 0.39928 0.98697 0.0
C604 C 0.26529 0.40122 0.98476 0.0
H605 H 0.39265 0.40832 0.99163 0.0
H606 H 0.28296 0.22324 0.03075 0.0
H607 H 0.2773 0.09981 0.01621 0.0
H608 H 0.29272 0.11193 0.99663 0.0
H609 H 0.3135 0.24738 0.99143 0.0
C610 C 0.33252 0.4058 0.99342 0.0
C611 C 0.32401 0.40019 1.00544 0.0
C612 C 0.31347 0.32125 1.00848 0.0
C613 C 0.30548 0.31464 0.01987 0.0
C614 C 0.29166 0.23321 0.0224 0.0
C615 C 0.28767 0.1614 0.0141 0.0
C616 C 0.2963 0.16819 1.00307 0.0
C617 C 0.30859 0.24667 1.00022 0.0
H618 H 0.19952 0.15051 0.31107 0.0
C619 C 0.26961 0.21243 0.31248 0.0
H620 H 0.40154 0.33031 0.32601 0.0
H621 H 0.21327 0.30402 0.36669 0.0
H622 H 0.21584 0.43536 0.3623 0.0
H623 H 0.26173 0.47951 0.34531 0.0
H624 H 0.30401 0.39135 0.33249 0.0
C625 C 0.33278 0.2648 0.32399 0.0
C626 C 0.30783 0.23911 0.33452 0.0
C627 C 0.28655 0.29318 0.34224 0.0
C628 C 0.26299 0.2695 0.35231 0.0
C629 C 0.23605 0.32127 0.35931 0.0
C630 C 0.2362 0.39639 0.3568 0.0
C631 C 0.26183 0.42111 0.34722 0.0
C632 C 0.28622 0.37006 0.33995 0.0
H633 H 0.35673 0.30226 0.37865 0.0
C634 C 0.29647 0.23123 0.37722 0.0
H635 H 0.18054 0.09801 0.36392 0.0
H636 H 0.34715 0.12207 0.32181 0.0
H637 H 0.34547 0.9908 0.3262 0.0
H638 H 0.30772 0.95142 0.3438 0.0
H639 H 0.27127 0.0429 0.35712 0.0
C640 C 0.24186 0.16916 0.3657 0.0
C641 C 0.26442 0.19381 0.35498 0.0
C642 C 0.28512 0.13934 0.34719 0.0
C643 C 0.30684 0.16197 0.33699 0.0
C644 C 0.32892 0.10729 0.32956 0.0
C645 C 0.32863 0.03195 0.332 0.0
C646 C 0.30737 1.00978 0.34191 0.0
C647 C 0.28624 0.06276 0.34947 0.0
H648 H 0.19748 0.18982 0.64677 0.0
C649 C 0.12994 0.1704 0.64055 0.0
H650 H 0.98996 0.13245 0.63917 0.0
H651 H 0.97922 1.00737 0.68471 0.0
H652 H 0.86851 0.85435 0.66823 0.0
H653 H 0.85102 0.84156 0.64698 0.0
H654 H 0.94383 0.98175 0.64206 0.0
C655 C 0.06038 0.15677 0.64506 0.0
C656 C 0.07379 0.16535 0.65806 0.0
C657 C 1.0196 0.0827 0.66084 0.0
C658 C 0.0307 0.08989 0.67315 0.0
C659 C 0.97468 1.00601 0.67557 0.0
C660 C 0.91063 0.91766 0.66619 0.0
C661 C 0.90069 0.91048 0.65423 0.0
C662 C 0.95432 0.99167 0.65153 0.0
H663 H 0.04591 0.26067 0.69839 0.0
C664 C 0.07834 0.22836 0.70248 0.0
H665 H 0.13671 0.14774 0.699 0.0
H666 H 0.18182 0.33967 0.65601 0.0
H667 H 0.2952 0.4921 0.6725 0.0
H668 H 0.32124 0.50324 0.69381 0.0
H669 H 0.23324 0.36208 0.6988 0.0
C670 C 0.10872 0.18562 0.69564 0.0
C671 C 0.09613 0.17976 0.68273 0.0
C672 C 0.15066 0.26253 0.67996 0.0
C673 C 0.1383 0.25556 0.66763 0.0
C674 C 0.1906 0.34013 0.66518 0.0
C675 C 0.2556 0.42828 0.67456 0.0
C676 C 0.2701 0.43456 0.68657 0.0
C677 C 0.21863 0.35297 0.6893 0.0
loop_
_geom_bond_atom_site_label_1
_geom_bond_atom_site_label_2
_geom_bond_distance
_geom_bond_site_symmetry_2
_ccdc_geom_bond_type
C0 C1 1.443 . S
C0 N4 1.376 . S
C0 C38 1.389 . S
C1 C0 1.443 . S
C1 C2 1.340 . S
C1 H41 0.951 . S
C2 C1 1.340 . S
C2 C3 1.439 . S
C2 H42 0.950 . S
C3 C2 1.439 . S
C3 N4 1.374 . S
C3 C37 1.395 . S
N4 C0 1.376 . S
N4 C3 1.374 . S
N4 Co5 2.008 . S
Co5 N4 2.008 . S
Co5 N6 1.995 . S
Co5 N11 2.008 . S
Co5 N16 1.995 . S
Co5 N21 2.282 . S
Co5 N27 2.282 . S
N6 Co5 1.995 . S
N6 C7 1.376 . S
N6 C10 1.383 . S
C7 N6 1.376 . S
C7 C8 1.446 . S
C7 C37 1.391 . S
C8 C7 1.446 . S
C8 C9 1.339 . S
C8 H43 0.949 . S
C9 C8 1.339 . S
C9 C10 1.439 . S
C9 H44 0.950 . S
C10 N6 1.383 . S
C10 C9 1.439 . S
C10 C39 1.392 . S
N11 Co5 2.008 . S
N11 C12 1.376 . S
N11 C15 1.374 . S
C12 N11 1.376 . S
C12 C13 1.443 . S
C12 C39 1.389 . S
C13 C12 1.443 . S
C13 C14 1.340 . S
C13 H45 0.951 . S
C14 C13 1.340 . S
C14 C15 1.439 . S
C14 H46 0.950 . S
C15 N11 1.374 . S
C15 C14 1.439 . S
C15 C40 1.395 . S
N16 Co5 1.995 . S
N16 C17 1.376 . S
N16 C20 1.383 . S
C17 N16 1.376 . S
C17 C18 1.446 . S
C17 C40 1.391 . S
C18 C17 1.446 . S
C18 C19 1.339 . S
C18 H47 0.949 . S
C19 C18 1.339 . S
C19 C20 1.439 . S
C19 H48 0.950 . S
C20 N16 1.383 . S
C20 C19 1.439 . S
C20 C38 1.392 . S
N21 Co5 2.282 . S
N21 C24 1.332 . S
N21 C26 1.332 . S
C22 C23 1.386 . S
C22 C25 1.388 . S
C23 C22 1.386 . S
C23 C24 1.382 . S
C23 H49 0.950 . S
C24 N21 1.332 . S
C24 C23 1.382 . S
C24 H35 0.952 . S
C25 C22 1.388 . S
C25 C26 1.382 . S
C25 H50 0.950 . S
C26 N21 1.332 . S
C26 C25 1.382 . S
C26 H36 0.948 . S
N27 Co5 2.282 . S
N27 C31 1.332 . S
N27 C32 1.332 . S
C28 C29 1.388 . S
C28 C32 1.382 . S
C28 H51 0.950 . S
C29 C28 1.388 . S
C29 C30 1.386 . S
C30 C29 1.386 . S
C30 C31 1.382 . S
C30 H52 0.950 . S
C31 N27 1.332 . S
C31 C30 1.382 . S
C31 H33 0.952 . S
C32 N27 1.332 . S
C32 C28 1.382 . S
C32 H34 0.948 . S
H33 C31 0.952 . S
H34 C32 0.948 . S
H35 C24 0.952 . S
H36 C26 0.948 . S
C37 C3 1.395 . S
C37 C7 1.391 . S
C38 C0 1.389 . S
C38 C20 1.392 . S
C39 C10 1.392 . S
C39 C12 1.389 . S
C40 C15 1.395 . S
C40 C17 1.391 . S
H41 C1 0.951 . S
H42 C2 0.950 . S
H43 C8 0.949 . S
H44 C9 0.950 . S
H45 C13 0.951 . S
H46 C14 0.950 . S
H47 C18 0.949 . S
H48 C19 0.950 . S
H49 C23 0.950 . S
H50 C25 0.950 . S
H51 C28 0.950 . S
H52 C30 0.950 . S
C53 C54 1.443 . S
C53 N57 1.376 . S
C53 C91 1.389 . S
C54 C53 1.443 . S
C54 C55 1.340 . S
C54 H94 0.951 . S
C55 C54 1.340 . S
C55 C56 1.439 . S
C55 H95 0.950 . S
C56 C55 1.439 . S
C56 N57 1.374 . S
C56 C90 1.395 . S
N57 C53 1.376 . S
N57 C56 1.374 . S
N57 Co58 2.008 . S
Co58 N57 2.008 . S
Co58 N59 1.995 . S
Co58 N64 2.008 1_445 S
Co58 N69 1.995 1_545 S
Co58 N74 2.282 . S
Co58 N80 2.282 . S
N59 Co58 1.995 . S
N59 C60 1.376 . S
N59 C63 1.383 . S
C60 N59 1.376 . S
C60 C61 1.446 . S
C60 C90 1.391 . S
C61 C60 1.446 . S
C61 C62 1.339 . S
C61 H96 0.949 . S
C62 C61 1.339 . S
C62 C63 1.439 . S
C62 H97 0.950 1_455 S
C63 N59 1.383 . S
C63 C62 1.439 . S
C63 C92 1.392 1_455 S
N64 Co58 2.008 1_665 S
N64 C65 1.376 . S
N64 C68 1.374 . S
C65 N64 1.376 . S
C65 C66 1.443 . S
C65 C92 1.389 1_565 S
C66 C65 1.443 . S
C66 C67 1.340 . S
C66 H98 0.951 . S
C67 C66 1.340 . S
C67 C68 1.439 . S
C67 H99 0.950 . S
C68 N64 1.374 . S
C68 C67 1.439 . S
C68 C93 1.395 . S
N69 Co58 1.995 1_565 S
N69 C70 1.376 . S
N69 C73 1.383 . S
C70 N69 1.376 . S
C70 C71 1.446 . S
C70 C93 1.391 1_455 S
C71 C70 1.446 . S
C71 C72 1.339 . S
C71 H100 0.949 . S
C72 C71 1.339 . S
C72 C73 1.439 . S
C72 H101 0.950 . S
C73 N69 1.383 . S
C73 C72 1.439 . S
C73 C91 1.392 1_565 S
N74 Co58 2.282 . S
N74 C77 1.332 1_545 S
N74 C79 1.332 . S
C75 C76 1.386 . S
C75 C78 1.388 1_565 S
C76 C75 1.386 . S
C76 C77 1.382 . S
C76 H102 0.950 . S
C77 N74 1.332 1_565 S
C77 C76 1.382 . S
C77 H88 0.952 . S
C78 C75 1.388 1_545 S
C78 C79 1.382 . S
C78 H103 0.950 . S
C79 N74 1.332 . S
C79 C78 1.382 . S
C79 H89 0.948 . S
N80 Co58 2.282 . S
N80 C84 1.332 . S
N80 C85 1.332 1_545 S
C81 C82 1.388 1_565 S
C81 C85 1.382 . S
C81 H104 0.950 . S
C82 C81 1.388 1_545 S
C82 C83 1.386 . S
C83 C82 1.386 . S
C83 C84 1.382 . S
C83 H105 0.950 . S
C84 N80 1.332 . S
C84 C83 1.382 . S
C84 H86 0.952 . S
C85 N80 1.332 1_565 S
C85 C81 1.382 . S
C85 H87 0.948 . S
H86 C84 0.952 . S
H87 C85 0.948 . S
H88 C77 0.952 . S
H89 C79 0.948 . S
C90 C56 1.395 . S
C90 C60 1.391 . S
C91 C53 1.389 . S
C91 C73 1.392 1_545 S
C92 C63 1.392 1_655 S
C92 C65 1.389 1_545 S
C93 C68 1.395 . S
C93 C70 1.391 1_655 S
H94 C54 0.951 . S
H95 C55 0.950 . S
H96 C61 0.949 . S
H97 C62 0.950 1_655 S
H98 C66 0.951 . S
H99 C67 0.950 . S
H100 C71 0.949 . S
H101 C72 0.950 . S
H102 C76 0.950 . S
H103 C78 0.950 . S
H104 C81 0.950 . S
H105 C83 0.950 . S
C106 C107 1.443 . S
C106 N110 1.376 . S
C106 C144 1.389 . S
C107 C106 1.443 . S
C107 C108 1.340 . S
C107 H147 0.951 . S
C108 C107 1.340 . S
C108 C109 1.439 1_455 S
C108 H148 0.950 . S
C109 C108 1.439 1_655 S
C109 N110 1.374 1_655 S
C109 C143 1.395 . S
N110 C106 1.376 . S
N110 C109 1.374 1_455 S
N110 Co111 2.008 . S
Co111 N110 2.008 . S
Co111 N112 1.995 1_455 S
Co111 N117 2.008 1_455 S
Co111 N122 1.995 . S
Co111 N127 2.282 . S
Co111 N133 2.282 . S
N112 Co111 1.995 1_655 S
N112 C113 1.376 . S
N112 C116 1.383 . S
C113 N112 1.376 . S
C113 C114 1.446 . S
C113 C143 1.391 . S
C114 C113 1.446 . S
C114 C115 1.339 . S
C114 H149 0.949 . S
C115 C114 1.339 . S
C115 C116 1.439 . S
C115 H150 0.950 . S
C116 N112 1.383 . S
C116 C115 1.439 . S
C116 C145 1.392 . S
N117 Co111 2.008 1_655 S
N117 C118 1.376 . S
N117 C121 1.374 1_655 S
C118 N117 1.376 . S
C118 C119 1.443 1_545 S
C118 C145 1.389 . S
C119 C118 1.443 1_565 S
C119 C120 1.340 1_665 S
C119 H151 0.951 . S
C120 C119 1.340 1_445 S
C120 C121 1.439 . S
C120 H152 0.950 1_545 S
C121 N117 1.374 1_455 S
C121 C120 1.439 . S
C121 C146 1.395 . S
N122 Co111 1.995 . S
N122 C123 1.376 . S
N122 C126 1.383 . S
C123 N122 1.376 . S
C123 C124 1.446 . S
C123 C146 1.391 . S
C124 C123 1.446 . S
C124 C125 1.339 . S
C124 H153 0.949 . S
C125 C124 1.339 . S
C125 C126 1.439 . S
C125 H154 0.950 . S
C126 N122 1.383 . S
C126 C125 1.439 . S
C126 C144 1.392 . S
N127 Co111 2.282 . S
N127 C130 1.332 . S
N127 C132 1.332 1_455 S
C128 C129 1.386 . S
C128 C131 1.388 1_455 S
C129 C128 1.386 . S
C129 C130 1.382 . S
C129 H155 0.950 . S
C130 N127 1.332 . S
C130 C129 1.382 . S
C130 H141 0.952 . S
C131 C128 1.388 1_655 S
C131 C132 1.382 . S
C131 H156 0.950 . S
C132 N127 1.332 1_655 S
C132 C131 1.382 . S
C132 H142 0.948 . S
N133 Co111 2.282 . S
N133 C137 1.332 1_455 S
N133 C138 1.332 . S
C134 C135 1.388 . S
C134 C138 1.382 . S
C134 H157 0.950 . S
C135 C134 1.388 . S
C135 C136 1.386 1_455 S
C136 C135 1.386 1_655 S
C136 C137 1.382 . S
C136 H158 0.950 . S
C137 N133 1.332 1_655 S
C137 C136 1.382 . S
C137 H139 0.952 . S
C138 N133 1.332 . S
C138 C134 1.382 . S
C138 H140 0.948 . S
H139 C137 0.952 . S
H140 C138 0.948 . S
H141 C130 0.952 . S
H142 C132 0.948 . S
C143 C109 1.395 . S
C143 C113 1.391 . S
C144 C106 1.389 . S
C144 C126 1.392 . S
C145 C116 1.392 . S
C145 C118 1.389 . S
C146 C121 1.395 . S
C146 C123 1.391 . S
H147 C107 0.951 . S
H148 C108 0.950 . S
H149 C114 0.949 . S
H150 C115 0.950 . S
H151 C119 0.951 . S
H152 C120 0.950 1_565 S
H153 C124 0.949 . S
H154 C125 0.950 . S
H155 C129 0.950 . S
H156 C131 0.950 . S
H157 C134 0.950 . S
H158 C136 0.950 . S
C159 C160 1.443 . S
C159 N163 1.376 . S
C159 C197 1.389 . S
C160 C159 1.443 . S
C160 C161 1.340 1_655 S
C160 H200 0.951 . S
C161 C160 1.340 1_455 S
C161 C162 1.439 . S
C161 H201 0.950 . S
C162 C161 1.439 . S
C162 N163 1.374 1_455 S
C162 C196 1.395 . S
N163 C159 1.376 . S
N163 C162 1.374 1_655 S
N163 Co164 2.008 1_655 S
Co164 N163 2.008 1_455 S
Co164 N165 1.995 . S
Co164 N170 2.008 1_545 S
Co164 N175 1.995 1_445 S
Co164 N180 2.281 . S
Co164 N186 2.282 . S
N165 Co164 1.995 . S
N165 C166 1.376 . S
N165 C169 1.383 . S
C166 N165 1.376 . S
C166 C167 1.446 . S
C166 C196 1.391 . S
C167 C166 1.446 . S
C167 C168 1.339 . S
C167 H202 0.949 . S
C168 C167 1.339 . S
C168 C169 1.439 . S
C168 H203 0.950 . S
C169 N165 1.383 . S
C169 C168 1.439 . S
C169 C198 1.392 . S
N170 Co164 2.008 1_565 S
N170 C171 1.376 . S
N170 C174 1.374 1_455 S
C171 N170 1.376 . S
C171 C172 1.443 . S
C171 C198 1.389 1_565 S
C172 C171 1.443 . S
C172 C173 1.340 . S
C172 H204 0.951 . S
C173 C172 1.340 . S
C173 C174 1.439 1_455 S
C173 H205 0.950 1_455 S
C174 N170 1.374 1_655 S
C174 C173 1.439 1_655 S
C174 C199 1.395 . S
N175 Co164 1.995 1_665 S
N175 C176 1.376 . S
N175 C179 1.383 . S
C176 N175 1.376 . S
C176 C177 1.446 . S
C176 C199 1.391 . S
C177 C176 1.446 . S
C177 C178 1.339 . S
C177 H206 0.949 . S
C178 C177 1.339 . S
C178 C179 1.439 . S
C178 H207 0.950 . S
C179 N175 1.383 . S
C179 C178 1.439 . S
C179 C197 1.392 1_565 S
N180 Co164 2.281 . S
N180 C183 1.327 1_445 S
N180 C185 1.338 . S
C181 C182 1.386 1_455 S
C181 C184 1.388 1_565 S
C182 C181 1.386 1_655 S
C182 C183 1.382 . S
C182 H208 0.950 . S
C183 N180 1.327 1_665 S
C183 C182 1.382 . S
C183 H194 0.952 . S
C184 C181 1.388 1_545 S
C184 C185 1.382 . S
C184 H209 0.950 . S
C185 N180 1.338 . S
C185 C184 1.382 . S
C185 H195 0.948 . S
N186 Co164 2.282 . S
N186 C190 1.332 . S
N186 C191 1.332 1_445 S
C187 C188 1.388 1_565 S
C187 C191 1.382 . S
C187 H210 0.950 . S
C188 C187 1.388 1_545 S
C188 C189 1.386 1_655 S
C189 C188 1.386 1_455 S
C189 C190 1.382 . S
C189 H211 0.950 . S
C190 N186 1.332 . S
C190 C189 1.382 . S
C190 H192 0.952 . S
C191 N186 1.332 1_665 S
C191 C187 1.382 . S
C191 H193 0.948 . S
H192 C190 0.952 . S
H193 C191 0.948 . S
H194 C183 0.952 . S
H195 C185 0.948 . S
C196 C162 1.395 . S
C196 C166 1.391 . S
C197 C159 1.389 . S
C197 C179 1.392 1_545 S
C198 C169 1.392 . S
C198 C171 1.389 1_545 S
C199 C174 1.395 . S
C199 C176 1.391 . S
H200 C160 0.951 . S
H201 C161 0.950 . S
H202 C167 0.949 . S
H203 C168 0.950 . S
H204 C172 0.951 . S
H205 C173 0.950 1_655 S
H206 C177 0.949 . S
H207 C178 0.950 . S
H208 C182 0.950 . S
H209 C184 0.950 . S
H210 C187 0.950 . S
H211 C189 0.950 . S
C212 C213 1.443 . S
C212 N216 1.376 1_655 S
C212 C250 1.389 . S
C213 C212 1.443 . S
C213 C214 1.340 . S
C213 H253 0.951 . S
C214 C213 1.340 . S
C214 C215 1.439 1_655 S
C214 H254 0.950 . S
C215 C214 1.439 1_455 S
C215 N216 1.374 . S
C215 C249 1.395 . S
N216 C212 1.376 1_455 S
N216 C215 1.374 . S
N216 Co217 2.008 . S
Co217 N216 2.008 . S
Co217 N218 1.995 . S
Co217 N223 2.008 . S
Co217 N228 1.995 . S
Co217 N233 2.282 . S
Co217 N239 2.282 . S
N218 Co217 1.995 . S
N218 C219 1.376 . S
N218 C222 1.383 . S
C219 N218 1.376 . S
C219 C220 1.446 . S
C219 C249 1.391 . S
C220 C219 1.446 . S
C220 C221 1.339 . S
C220 H255 0.949 . S
C221 C220 1.339 . S
C221 C222 1.439 . S
C221 H256 0.950 . S
C222 N218 1.383 . S
C222 C221 1.439 . S
C222 C251 1.392 . S
N223 Co217 2.008 . S
N223 C224 1.376 . S
N223 C227 1.374 . S
C224 N223 1.376 . S
C224 C225 1.443 . S
C224 C251 1.389 . S
C225 C224 1.443 . S
C225 C226 1.340 . S
C225 H257 0.951 . S
C226 C225 1.340 . S
C226 C227 1.439 . S
C226 H258 0.950 . S
C227 N223 1.374 . S
C227 C226 1.439 . S
C227 C252 1.395 . S
N228 Co217 1.995 . S
N228 C229 1.376 . S
N228 C232 1.383 . S
C229 N228 1.376 . S
C229 C230 1.446 . S
C229 C252 1.391 . S
C230 C229 1.446 . S
C230 C231 1.339 . S
C230 H259 0.949 . S
C231 C230 1.339 . S
C231 C232 1.439 . S
C231 H260 0.950 1_455 S
C232 N228 1.383 . S
C232 C231 1.439 . S
C232 C250 1.392 1_455 S
N233 Co217 2.282 . S
N233 C236 1.332 . S
N233 C238 1.332 . S
C234 C235 1.386 . S
C234 C237 1.388 . S
C235 C234 1.386 . S
C235 C236 1.382 . S
C235 H261 0.950 . S
C236 N233 1.332 . S
C236 C235 1.382 . S
C236 H247 0.952 . S
C237 C234 1.388 . S
C237 C238 1.382 . S
C237 H262 0.950 . S
C238 N233 1.332 . S
C238 C237 1.382 . S
C238 H248 0.948 . S
N239 Co217 2.282 . S
N239 C243 1.332 . S
N239 C244 1.332 . S
C240 C241 1.388 . S
C240 C244 1.382 . S
C240 H263 0.950 . S
C241 C240 1.388 . S
C241 C242 1.386 . S
C242 C241 1.386 . S
C242 C243 1.382 . S
C242 H264 0.950 . S
C243 N239 1.332 . S
C243 C242 1.382 . S
C243 H245 0.952 . S
C244 N239 1.332 . S
C244 C240 1.382 . S
C244 H246 0.948 . S
H245 C243 0.952 . S
H246 C244 0.948 . S
H247 C236 0.952 . S
H248 C238 0.948 . S
C249 C215 1.395 . S
C249 C219 1.391 . S
C250 C212 1.389 . S
C250 C232 1.392 1_655 S
C251 C222 1.392 . S
C251 C224 1.389 . S
C252 C227 1.395 . S
C252 C229 1.391 . S
H253 C213 0.951 . S
H254 C214 0.950 . S
H255 C220 0.949 . S
H256 C221 0.950 . S
H257 C225 0.951 . S
H258 C226 0.950 . S
H259 C230 0.949 . S
H260 C231 0.950 1_655 S
H261 C235 0.950 . S
H262 C237 0.950 . S
H263 C240 0.950 . S
H264 C242 0.950 . S
C265 C266 1.443 1_545 S
C265 N269 1.376 . S
C265 C303 1.389 . S
C266 C265 1.443 1_565 S
C266 C267 1.340 1_565 S
C266 H306 0.951 . S
C267 C266 1.340 1_545 S
C267 C268 1.439 . S
C267 H307 0.950 1_545 S
C268 C267 1.439 . S
C268 N269 1.374 . S
C268 C302 1.395 . S
N269 C265 1.376 . S
N269 C268 1.374 . S
N269 Co270 2.008 . S
Co270 N269 2.008 . S
Co270 N271 1.995 . S
Co270 N276 2.008 . S
Co270 N281 1.995 . S
Co270 N286 2.282 . S
Co270 N292 2.282 . S
N271 Co270 1.995 . S
N271 C272 1.376 . S
N271 C275 1.383 . S
C272 N271 1.376 . S
C272 C273 1.446 . S
C272 C302 1.391 . S
C273 C272 1.446 . S
C273 C274 1.339 . S
C273 H308 0.949 . S
C274 C273 1.339 . S
C274 C275 1.439 . S
C274 H309 0.950 . S
C275 N271 1.383 . S
C275 C274 1.439 . S
C275 C304 1.392 . S
N276 Co270 2.008 . S
N276 C277 1.376 . S
N276 C280 1.374 . S
C277 N276 1.376 . S
C277 C278 1.443 . S
C277 C304 1.389 . S
C278 C277 1.443 . S
C278 C279 1.340 . S
C278 H310 0.951 . S
C279 C278 1.340 . S
C279 C280 1.439 . S
C279 H311 0.950 . S
C280 N276 1.374 . S
C280 C279 1.439 . S
C280 C305 1.395 . S
N281 Co270 1.995 . S
N281 C282 1.376 . S
N281 C285 1.383 . S
C282 N281 1.376 . S
C282 C283 1.446 . S
C282 C305 1.391 . S
C283 C282 1.446 . S
C283 C284 1.339 . S
C283 H312 0.949 . S
C284 C283 1.339 . S
C284 C285 1.439 . S
C284 H313 0.950 . S
C285 N281 1.383 . S
C285 C284 1.439 . S
C285 C303 1.392 . S
N286 Co270 2.282 . S
N286 C289 1.332 . S
N286 C291 1.332 . S
C287 C288 1.386 . S
C287 C290 1.388 . S
C288 C287 1.386 . S
C288 C289 1.382 . S
C288 H314 0.950 . S
C289 N286 1.332 . S
C289 C288 1.382 . S
C289 H300 0.952 . S
C290 C287 1.388 . S
C290 C291 1.382 . S
C290 H315 0.950 . S
C291 N286 1.332 . S
C291 C290 1.382 . S
C291 H301 0.948 . S
N292 Co270 2.282 . S
N292 C296 1.332 . S
N292 C297 1.332 . S
C293 C294 1.388 . S
C293 C297 1.382 . S
C293 H316 0.950 . S
C294 C293 1.388 . S
C294 C295 1.386 . S
C295 C294 1.386 . S
C295 C296 1.382 . S
C295 H317 0.950 . S
C296 N292 1.332 . S
C296 C295 1.382 . S
C296 H298 0.952 . S
C297 N292 1.332 . S
C297 C293 1.382 . S
C297 H299 0.948 . S
H298 C296 0.952 . S
H299 C297 0.948 . S
H300 C289 0.952 . S
H301 C291 0.948 . S
C302 C268 1.395 . S
C302 C272 1.391 . S
C303 C265 1.389 . S
C303 C285 1.392 . S
C304 C275 1.392 . S
C304 C277 1.389 . S
C305 C280 1.395 . S
C305 C282 1.391 . S
H306 C266 0.951 . S
H307 C267 0.950 1_565 S
H308 C273 0.949 . S
H309 C274 0.950 . S
H310 C278 0.951 . S
H311 C279 0.950 . S
H312 C283 0.949 . S
H313 C284 0.950 . S
H314 C288 0.950 . S
H315 C290 0.950 . S
H316 C293 0.950 . S
H317 C295 0.950 . S
H318 C319 0.951 . S
C319 H318 0.951 . S
C319 C325 1.265 . S
H320 C325 0.950 . S
H321 C329 0.949 . S
H322 C330 0.950 . S
H323 C331 0.951 . S
H324 C332 0.951 . S
C325 C319 1.265 . S
C325 H320 0.950 . S
C325 C326 1.478 . S
C326 C325 1.478 . S
C326 C327 1.397 1_545 S
C326 C343 1.394 1_545 S
C327 C326 1.397 1_565 S
C327 C328 1.438 . S
C327 C332 1.429 1_565 S
C328 C327 1.438 . S
C328 C329 1.428 . S
C328 C341 1.394 . S
C329 H321 0.949 . S
C329 C328 1.428 . S
C329 C330 1.345 . S
C330 H322 0.950 . S
C330 C329 1.345 . S
C330 C331 1.424 1_565 S
C331 H323 0.951 . S
C331 C330 1.424 1_545 S
C331 C332 1.347 . S
C332 H324 0.951 . S
C332 C327 1.429 1_545 S
C332 C331 1.347 . S
H333 C334 0.951 . S
C334 H333 0.951 . S
C334 C340 1.265 . S
H335 C340 0.950 . S
H336 C344 0.949 1_545 S
H337 C345 0.950 . S
H338 C346 0.951 . S
H339 C347 0.951 . S
C340 C334 1.265 . S
C340 H335 0.950 . S
C340 C341 1.478 . S
C341 C328 1.394 . S
C341 C340 1.478 . S
C341 C342 1.397 . S
C342 C341 1.397 . S
C342 C343 1.438 . S
C342 C347 1.429 . S
C343 C326 1.394 1_565 S
C343 C342 1.438 . S
C343 C344 1.428 . S
C344 H336 0.949 1_565 S
C344 C343 1.428 . S
C344 C345 1.345 . S
C345 H337 0.950 . S
C345 C344 1.345 . S
C345 C346 1.424 . S
C346 H338 0.951 . S
C346 C345 1.424 . S
C346 C347 1.347 . S
C347 H339 0.951 . S
C347 C342 1.429 . S
C347 C346 1.347 . S
H348 C349 0.951 . S
C349 H348 0.951 . S
C349 C355 1.265 . S
H350 C355 0.950 1_565 S
H351 C359 0.949 . S
H352 C360 0.950 . S
H353 C361 0.951 . S
H354 C362 0.951 . S
C355 C349 1.265 . S
C355 H350 0.950 1_545 S
C355 C356 1.478 . S
C356 C355 1.478 . S
C356 C357 1.397 . S
C356 C373 1.394 1_545 S
C357 C356 1.397 . S
C357 C358 1.438 . S
C357 C362 1.429 . S
C358 C357 1.438 . S
C358 C359 1.428 . S
C358 C371 1.394 . S
C359 H351 0.949 . S
C359 C358 1.428 . S
C359 C360 1.345 . S
C360 H352 0.950 . S
C360 C359 1.345 . S
C360 C361 1.424 . S
C361 H353 0.951 . S
C361 C360 1.424 . S
C361 C362 1.347 . S
C362 H354 0.951 . S
C362 C357 1.429 . S
C362 C361 1.347 . S
H363 C364 0.954 1_565 S
C364 H363 0.954 1_545 S
C364 C370 1.265 . S
H365 C370 0.950 . S
H366 C374 0.949 . S
H367 C375 0.950 . S
H368 C376 0.951 . S
H369 C377 0.951 . S
C370 C364 1.265 . S
C370 H365 0.950 . S
C370 C371 1.478 . S
C371 C358 1.394 . S
C371 C370 1.478 . S
C371 C372 1.397 1_545 S
C372 C371 1.397 1_565 S
C372 C373 1.438 . S
C372 C377 1.429 . S
C373 C356 1.394 1_565 S
C373 C372 1.438 . S
C373 C374 1.428 . S
C374 H366 0.949 . S
C374 C373 1.428 . S
C374 C375 1.345 . S
C375 H367 0.950 . S
C375 C374 1.345 . S
C375 C376 1.424 . S
C376 H368 0.951 . S
C376 C375 1.424 . S
C376 C377 1.347 . S
C377 H369 0.951 . S
C377 C372 1.429 . S
C377 C376 1.347 . S
H378 C379 0.951 . S
C379 H378 0.951 . S
C379 C385 1.265 . S
H380 C385 0.950 . S
H381 C389 0.949 . S
H382 C390 0.950 . S
H383 C391 0.951 . S
H384 C392 0.951 . S
C385 C379 1.265 . S
C385 H380 0.950 . S
C385 C386 1.478 . S
C386 C385 1.478 . S
C386 C387 1.397 . S
C386 C403 1.394 . S
C387 C386 1.397 . S
C387 C388 1.438 . S
C387 C392 1.429 . S
C388 C387 1.438 . S
C388 C389 1.428 . S
C388 C401 1.394 . S
C389 H381 0.949 . S
C389 C388 1.428 . S
C389 C390 1.345 . S
C390 H382 0.950 . S
C390 C389 1.345 . S
C390 C391 1.424 . S
C391 H383 0.951 . S
C391 C390 1.424 . S
C391 C392 1.347 . S
C392 H384 0.951 . S
C392 C387 1.429 . S
C392 C391 1.347 . S
H393 C394 0.951 . S
C394 H393 0.951 . S
C394 C400 1.265 . S
H395 C400 0.950 . S
H396 C404 0.949 . S
H397 C405 0.950 . S
H398 C406 0.951 . S
H399 C407 0.951 . S
C400 C394 1.265 . S
C400 H395 0.950 . S
C400 C401 1.478 . S
C401 C388 1.394 . S
C401 C400 1.478 . S
C401 C402 1.397 . S
C402 C401 1.397 . S
C402 C403 1.438 . S
C402 C407 1.429 . S
C403 C386 1.394 . S
C403 C402 1.438 . S
C403 C404 1.428 . S
C404 H396 0.949 . S
C404 C403 1.428 . S
C404 C405 1.345 . S
C405 H397 0.950 . S
C405 C404 1.345 . S
C405 C406 1.424 . S
C406 H398 0.951 . S
C406 C405 1.424 . S
C406 C407 1.347 . S
C407 H399 0.951 . S
C407 C402 1.429 . S
C407 C406 1.347 . S
H408 C409 0.951 . S
C409 H408 0.951 . S
C409 C415 1.265 1_545 S
H410 C415 0.950 . S
H411 C419 0.949 . S
H412 C420 0.950 . S
H413 C421 0.951 . S
H414 C422 0.951 1_565 S
C415 C409 1.265 1_565 S
C415 H410 0.950 . S
C415 C416 1.478 . S
C416 C415 1.478 . S
C416 C417 1.397 1_565 S
C416 C433 1.394 . S
C417 C416 1.397 1_545 S
C417 C418 1.438 . S
C417 C422 1.429 . S
C418 C417 1.438 . S
C418 C419 1.428 . S
C418 C431 1.394 . S
C419 H411 0.949 . S
C419 C418 1.428 . S
C419 C420 1.345 . S
C420 H412 0.950 . S
C420 C419 1.345 . S
C420 C421 1.424 . S
C421 H413 0.951 . S
C421 C420 1.424 . S
C421 C422 1.347 . S
C422 H414 0.951 1_545 S
C422 C417 1.429 . S
C422 C421 1.347 . S
H423 C424 0.951 . S
C424 H423 0.951 . S
C424 C430 1.265 1_565 S
H425 C430 0.950 . S
H426 C434 0.949 . S
H427 C435 0.950 . S
H428 C436 0.951 . S
H429 C437 0.951 . S
C430 C424 1.265 1_545 S
C430 H425 0.950 . S
C430 C431 1.478 . S
C431 C418 1.394 . S
C431 C430 1.478 . S
C431 C432 1.397 . S
C432 C431 1.397 . S
C432 C433 1.438 1_545 S
C432 C437 1.429 . S
C433 C416 1.394 . S
C433 C432 1.438 1_565 S
C433 C434 1.428 . S
C434 H426 0.949 . S
C434 C433 1.428 . S
C434 C435 1.345 . S
C435 H427 0.950 . S
C435 C434 1.345 . S
C435 C436 1.424 1_565 S
C436 H428 0.951 . S
C436 C435 1.424 1_545 S
C436 C437 1.347 . S
C437 H429 0.951 . S
C437 C432 1.429 . S
C437 C436 1.347 . S
H438 C439 0.951 . S
C439 H438 0.951 . S
C439 C445 1.265 . S
H440 C445 0.950 . S
H441 C449 0.949 . S
H442 C450 0.950 . S
H443 C451 0.951 . S
H444 C452 0.951 . S
C445 C439 1.265 . S
C445 H440 0.950 . S
C445 C446 1.478 . S
C446 C445 1.478 . S
C446 C447 1.397 . S
C446 C463 1.394 . S
C447 C446 1.397 . S
C447 C448 1.438 . S
C447 C452 1.429 . S
C448 C447 1.438 . S
C448 C449 1.428 . S
C448 C461 1.394 . S
C449 H441 0.949 . S
C449 C448 1.428 . S
C449 C450 1.345 . S
C450 H442 0.950 . S
C450 C449 1.345 . S
C450 C451 1.424 . S
C451 H443 0.951 . S
C451 C450 1.424 . S
C451 C452 1.347 . S
C452 H444 0.951 . S
C452 C447 1.429 . S
C452 C451 1.347 . S
H453 C454 0.951 . S
C454 H453 0.951 . S
C454 C460 1.265 . S
H455 C460 0.950 . S
H456 C464 0.949 . S
H457 C465 0.950 . S
H458 C466 0.951 . S
H459 C467 0.951 . S
C460 C454 1.265 . S
C460 H455 0.950 . S
C460 C461 1.478 1_545 S
C461 C448 1.394 . S
C461 C460 1.478 1_565 S
C461 C462 1.397 . S
C462 C461 1.397 . S
C462 C463 1.438 . S
C462 C467 1.429 1_565 S
C463 C446 1.394 . S
C463 C462 1.438 . S
C463 C464 1.428 . S
C464 H456 0.949 . S
C464 C463 1.428 . S
C464 C465 1.345 . S
C465 H457 0.950 . S
C465 C464 1.345 . S
C465 C466 1.424 1_565 S
C466 H458 0.951 . S
C466 C465 1.424 1_545 S
C466 C467 1.347 . S
C467 H459 0.951 . S
C467 C462 1.429 1_545 S
C467 C466 1.347 . S
H468 C469 0.951 . S
C469 H468 0.951 . S
C469 C475 1.265 . S
H470 C475 0.950 . S
H471 C479 0.949 . S
H472 C480 0.950 . S
H473 C481 0.951 . S
H474 C482 0.951 . S
C475 C469 1.265 . S
C475 H470 0.950 . S
C475 C476 1.478 . S
C476 C475 1.478 . S
C476 C477 1.397 . S
C476 C493 1.394 . S
C477 C476 1.397 . S
C477 C478 1.438 . S
C477 C482 1.429 . S
C478 C477 1.438 . S
C478 C479 1.428 . S
C478 C491 1.394 . S
C479 H471 0.949 . S
C479 C478 1.428 . S
C479 C480 1.345 . S
C480 H472 0.950 . S
C480 C479 1.345 . S
C480 C481 1.424 . S
C481 H473 0.951 . S
C481 C480 1.424 . S
C481 C482 1.347 . S
C482 H474 0.951 . S
C482 C477 1.429 . S
C482 C481 1.347 . S
H483 C484 0.951 . S
C484 H483 0.951 . S
C484 C490 1.265 1_545 S
H485 C490 0.950 . S
H486 C494 0.949 . S
H487 C495 0.950 . S
H488 C496 0.951 . S
H489 C497 0.951 . S
C490 C484 1.265 1_565 S
C490 H485 0.950 . S
C490 C491 1.478 . S
C491 C478 1.394 . S
C491 C490 1.478 . S
C491 C492 1.397 . S
C492 C491 1.397 . S
C492 C493 1.438 . S
C492 C497 1.429 . S
C493 C476 1.394 . S
C493 C492 1.438 . S
C493 C494 1.428 . S
C494 H486 0.949 . S
C494 C493 1.428 . S
C494 C495 1.345 . S
C495 H487 0.950 . S
C495 C494 1.345 . S
C495 C496 1.424 . S
C496 H488 0.951 . S
C496 C495 1.424 . S
C496 C497 1.347 . S
C497 H489 0.951 . S
C497 C492 1.429 . S
C497 C496 1.347 . S
H498 C499 0.951 . S
C499 H498 0.951 . S
C499 C505 1.265 . S
H500 C505 0.950 . S
H501 C509 0.949 . S
H502 C510 0.950 . S
H503 C511 0.951 . S
H504 C512 0.951 . S
C505 C499 1.265 . S
C505 H500 0.950 . S
C505 C506 1.478 . S
C506 C505 1.478 . S
C506 C507 1.397 . S
C506 C523 1.394 . S
C507 C506 1.397 . S
C507 C508 1.438 . S
C507 C512 1.429 . S
C508 C507 1.438 . S
C508 C509 1.428 . S
C508 C521 1.394 . S
C509 H501 0.949 . S
C509 C508 1.428 . S
C509 C510 1.345 . S
C510 H502 0.950 . S
C510 C509 1.345 . S
C510 C511 1.424 . S
C511 H503 0.951 . S
C511 C510 1.424 . S
C511 C512 1.347 . S
C512 H504 0.951 . S
C512 C507 1.429 . S
C512 C511 1.347 . S
H513 C514 0.951 . S
C514 H513 0.951 . S
C514 C520 1.265 . S
H515 C520 0.950 . S
H516 C524 0.949 . S
H517 C525 0.950 . S
H518 C526 0.951 . S
H519 C527 0.951 . S
C520 C514 1.265 . S
C520 H515 0.950 . S
C520 C521 1.478 . S
C521 C508 1.394 . S
C521 C520 1.478 . S
C521 C522 1.397 . S
C522 C521 1.397 . S
C522 C523 1.438 . S
C522 C527 1.429 . S
C523 C506 1.394 . S
C523 C522 1.438 . S
C523 C524 1.428 . S
C524 H516 0.949 . S
C524 C523 1.428 . S
C524 C525 1.345 . S
C525 H517 0.950 . S
C525 C524 1.345 . S
C525 C526 1.424 . S
C526 H518 0.951 . S
C526 C525 1.424 . S
C526 C527 1.347 . S
C527 H519 0.951 . S
C527 C522 1.429 . S
C527 C526 1.347 . S
H528 C529 0.951 . S
C529 H528 0.951 . S
C529 C535 1.265 1_455 S
H530 C535 0.950 . S
H531 C539 0.949 . S
H532 C540 0.950 . S
H533 C541 0.951 . S
H534 C542 0.951 . S
C535 C529 1.265 1_655 S
C535 H530 0.950 . S
C535 C536 1.478 1_655 S
C536 C535 1.478 1_455 S
C536 C537 1.397 1_565 S
C536 C553 1.394 . S
C537 C536 1.397 1_545 S
C537 C538 1.438 . S
C537 C542 1.429 . S
C538 C537 1.438 . S
C538 C539 1.428 . S
C538 C551 1.394 1_545 S
C539 H531 0.949 . S
C539 C538 1.428 . S
C539 C540 1.345 . S
C540 H532 0.950 . S
C540 C539 1.345 . S
C540 C541 1.424 . S
C541 H533 0.951 . S
C541 C540 1.424 . S
C541 C542 1.347 . S
C542 H534 0.951 . S
C542 C537 1.429 . S
C542 C541 1.347 . S
H543 C544 0.951 . S
C544 H543 0.951 . S
C544 C550 1.265 . S
H545 C550 0.950 . S
H546 C554 0.949 1_655 S
H547 C555 0.950 1_655 S
H548 C556 0.951 . S
H549 C557 0.951 . S
C550 C544 1.265 . S
C550 H545 0.950 . S
C550 C551 1.478 . S
C551 C538 1.394 1_565 S
C551 C550 1.478 . S
C551 C552 1.397 . S
C552 C551 1.397 . S
C552 C553 1.438 . S
C552 C557 1.429 . S
C553 C536 1.394 . S
C553 C552 1.438 . S
C553 C554 1.428 . S
C554 H546 0.949 1_455 S
C554 C553 1.428 . S
C554 C555 1.345 . S
C555 H547 0.950 1_455 S
C555 C554 1.345 . S
C555 C556 1.424 . S
C556 H548 0.951 . S
C556 C555 1.424 . S
C556 C557 1.347 . S
C557 H549 0.951 . S
C557 C552 1.429 . S
C557 C556 1.347 . S
H558 C559 0.951 . S
C559 H558 0.951 . S
C559 C565 1.265 . S
H560 C565 0.950 . S
H561 C569 0.949 . S
H562 C570 0.950 . S
H563 C571 0.951 . S
H564 C572 0.951 . S
C565 C559 1.265 . S
C565 H560 0.950 . S
C565 C566 1.478 . S
C566 C565 1.478 . S
C566 C567 1.397 . S
C566 C583 1.394 1_455 S
C567 C566 1.397 . S
C567 C568 1.438 . S
C567 C572 1.429 . S
C568 C567 1.438 . S
C568 C569 1.428 . S
C568 C581 1.394 . S
C569 H561 0.949 . S
C569 C568 1.428 . S
C569 C570 1.345 . S
C570 H562 0.950 . S
C570 C569 1.345 . S
C570 C571 1.424 . S
C571 H563 0.951 . S
C571 C570 1.424 . S
C571 C572 1.347 . S
C572 H564 0.951 . S
C572 C567 1.429 . S
C572 C571 1.347 . S
H573 C574 0.951 . S
C574 H573 0.951 . S
C574 C580 1.265 . S
H575 C580 0.950 . S
H576 C584 0.949 . S
H577 C585 0.950 . S
H578 C586 0.951 . S
H579 C587 0.951 . S
C580 C574 1.265 . S
C580 H575 0.950 . S
C580 C581 1.478 . S
C581 C568 1.394 . S
C581 C580 1.478 . S
C581 C582 1.397 1_455 S
C582 C581 1.397 1_655 S
C582 C583 1.438 . S
C582 C587 1.429 . S
C583 C566 1.394 1_655 S
C583 C582 1.438 . S
C583 C584 1.428 . S
C584 H576 0.949 . S
C584 C583 1.428 . S
C584 C585 1.345 . S
C585 H577 0.950 . S
C585 C584 1.345 . S
C585 C586 1.424 . S
C586 H578 0.951 . S
C586 C585 1.424 . S
C586 C587 1.347 . S
C587 H579 0.951 . S
C587 C582 1.429 . S
C587 C586 1.347 . S
H588 C589 0.951 . S
C589 H588 0.951 . S
C589 C595 1.265 . S
H590 C595 0.950 . S
H591 C599 0.949 1_556 S
H592 C600 0.950 . S
H593 C601 0.951 . S
H594 C602 0.951 . S
C595 C589 1.265 . S
C595 H590 0.950 . S
C595 C596 1.478 . S
C596 C595 1.478 . S
C596 C597 1.397 . S
C596 C613 1.394 . S
C597 C596 1.397 . S
C597 C598 1.438 . S
C597 C602 1.429 . S
C598 C597 1.438 . S
C598 C599 1.428 . S
C598 C611 1.394 1_554 S
C599 H591 0.949 1_554 S
C599 C598 1.428 . S
C599 C600 1.345 . S
C600 H592 0.950 . S
C600 C599 1.345 . S
C600 C601 1.424 . S
C601 H593 0.951 . S
C601 C600 1.424 . S
C601 C602 1.347 . S
C602 H594 0.951 . S
C602 C597 1.429 . S
C602 C601 1.347 . S
H603 C604 0.951 . S
C604 H603 0.951 . S
C604 C610 1.265 . S
H605 C610 0.950 . S
H606 C614 0.949 . S
H607 C615 0.950 . S
H608 C616 0.951 . S
H609 C617 0.951 . S
C610 C604 1.265 . S
C610 H605 0.950 . S
C610 C611 1.478 . S
C611 C598 1.394 1_556 S
C611 C610 1.478 . S
C611 C612 1.394 1_556 S
C612 C611 1.394 1_554 S
C612 C613 1.443 . S
C612 C617 1.426 1_554 S
C613 C596 1.394 . S
C613 C612 1.443 . S
C613 C614 1.428 . S
C614 H606 0.949 . S
C614 C613 1.428 . S
C614 C615 1.345 . S
C615 H607 0.950 . S
C615 C614 1.345 . S
C615 C616 1.424 1_554 S
C616 H608 0.951 . S
C616 C615 1.424 1_556 S
C616 C617 1.347 . S
C617 H609 0.951 . S
C617 C612 1.426 1_556 S
C617 C616 1.347 . S
H618 C619 0.951 . S
C619 H618 0.951 . S
C619 C625 1.265 . S
H620 C625 0.950 . S
H621 C629 0.949 . S
H622 C630 0.950 . S
H623 C631 0.951 . S
H624 C632 0.951 . S
C625 C619 1.265 . S
C625 H620 0.950 . S
C625 C626 1.478 . S
C626 C625 1.478 . S
C626 C627 1.397 . S
C626 C643 1.394 . S
C627 C626 1.397 . S
C627 C628 1.438 . S
C627 C632 1.429 . S
C628 C627 1.438 . S
C628 C629 1.428 . S
C628 C641 1.394 . S
C629 H621 0.949 . S
C629 C628 1.428 . S
C629 C630 1.345 . S
C630 H622 0.950 . S
C630 C629 1.345 . S
C630 C631 1.424 . S
C631 H623 0.951 . S
C631 C630 1.424 . S
C631 C632 1.347 . S
C632 H624 0.951 . S
C632 C627 1.429 . S
C632 C631 1.347 . S
H633 C634 0.951 . S
C634 H633 0.951 . S
C634 C640 1.265 . S
H635 C640 0.950 1_565 S
H636 C644 0.949 . S
H637 C645 0.950 . S
H638 C646 0.951 . S
H639 C647 0.951 . S
C640 C634 1.265 . S
C640 H635 0.950 1_545 S
C640 C641 1.478 . S
C641 C628 1.394 . S
C641 C640 1.478 . S
C641 C642 1.397 . S
C642 C641 1.397 . S
C642 C643 1.438 . S
C642 C647 1.429 1_545 S
C643 C626 1.394 . S
C643 C642 1.438 . S
C643 C644 1.428 . S
C644 H636 0.949 . S
C644 C643 1.428 . S
C644 C645 1.345 1_545 S
C645 H637 0.950 . S
C645 C644 1.345 1_565 S
C645 C646 1.424 . S
C646 H638 0.951 . S
C646 C645 1.424 . S
C646 C647 1.347 . S
C647 H639 0.951 . S
C647 C642 1.429 1_565 S
C647 C646 1.347 . S
H648 C649 0.951 . S
C649 H648 0.951 . S
C649 C655 1.265 1_455 S
H650 C655 0.950 . S
H651 C659 0.949 1_545 S
H652 C660 0.950 . S
H653 C661 0.951 . S
H654 C662 0.951 . S
C655 C649 1.265 1_655 S
C655 H650 0.950 . S
C655 C656 1.478 . S
C656 C655 1.478 . S
C656 C657 1.397 . S
C656 C673 1.394 1_655 S
C657 C656 1.397 . S
C657 C658 1.438 . S
C657 C662 1.429 1_545 S
C658 C657 1.438 . S
C658 C659 1.428 1_545 S
C658 C671 1.394 1_655 S
C659 H651 0.949 1_565 S
C659 C658 1.428 1_565 S
C659 C660 1.345 . S
C660 H652 0.950 . S
C660 C659 1.345 . S
C660 C661 1.424 . S
C661 H653 0.951 . S
C661 C660 1.424 . S
C661 C662 1.347 . S
C662 H654 0.951 . S
C662 C657 1.429 1_565 S
C662 C661 1.347 . S
H663 C664 0.951 . S
C664 H663 0.951 . S
C664 C670 1.265 1_655 S
H665 C670 0.950 . S
H666 C674 0.949 . S
H667 C675 0.950 . S
H668 C676 0.951 . S
H669 C677 0.951 . S
C670 C664 1.265 1_455 S
C670 H665 0.950 . S
C670 C671 1.478 . S
C671 C658 1.394 1_455 S
C671 C670 1.478 . S
C671 C672 1.397 . S
C672 C671 1.397 . S
C672 C673 1.438 . S
C672 C677 1.429 . S
C673 C656 1.394 1_455 S
C673 C672 1.438 . S
C673 C674 1.428 . S
C674 H666 0.949 . S
C674 C673 1.428 . S
C674 C675 1.345 . S
C675 H667 0.950 . S
C675 C674 1.345 . S
C675 C676 1.424 . S
C676 H668 0.951 . S
C676 C675 1.424 . S
C676 C677 1.347 . S
C677 H669 0.951 . S
C677 C672 1.429 . S
C677 C676 1.347 . S
C319 C39 1.492 . S
C334 C38 1.492 . S
C349 C91 1.484 . S
C364 C92 1.484 . S
C379 C145 1.487 1_565 S
C394 C144 1.487 . S
C409 C198 1.488 . S
C424 C197 1.488 1_565 S
C439 C251 1.494 . S
C454 C250 1.494 . S
C469 C304 1.491 . S
C484 C303 1.491 . S
C499 C287 1.538 . S
C514 C22 1.529 . S
C529 C181 1.540 . S
C544 C75 1.541 . S
C559 C128 1.537 . S
C574 C234 1.526 . S
C589 C29 1.562 . S
C604 C241 1.564 . S
C619 C294 1.550 . S
C634 C82 1.551 . S
C649 C188 1.545 1_455 S
C664 C135 1.551 1_655 S
