# Generated by pormake.
# Topology snw, (6)-cn, num edge types: 1
# Building blocks:
#     Node 0, Type 0, BuildingBlock: IZENUY_clean_sbu_0, # of connection points: 6
#     Node 1, Type 0, BuildingBlock: IZENUY_clean_sbu_0, # of connection points: 6
#     Node 2, Type 0, BuildingBlock: IZENUY_clean_sbu_0, # of connection points: 6
#     Node 3, Type 0, BuildingBlock: IZENUY_clean_sbu_0, # of connection points: 6
#     Node 4, Type 0, BuildingBlock: IZENUY_clean_sbu_0, # of connection points: 6
#     Node 5, Type 0, BuildingBlock: IZENUY_clean_sbu_0, # of connection points: 6
#     Node 6, Type 0, BuildingBlock: IZENUY_clean_sbu_0, # of connection points: 6
#     Node 7, Type 0, BuildingBlock: IZENUY_clean_sbu_0, # of connection points: 6
#     Edge 8, Type (0, 0), BuildingBlock: XIVTED_clean_linker_0, # of connection points: 2
#     Edge 9, Type (0, 0), BuildingBlock: XIVTED_clean_linker_0, # of connection points: 2
#     Edge 10, Type (0, 0), BuildingBlock: XIVTED_clean_linker_0, # of connection points: 2
#     Edge 11, Type (0, 0), BuildingBlock: XIVTED_clean_linker_0, # of connection points: 2
#     Edge 12, Type (0, 0), BuildingBlock: XIVTED_clean_linker_0, # of connection points: 2
#     Edge 13, Type (0, 0), BuildingBlock: XIVTED_clean_linker_0, # of connection points: 2
#     Edge 14, Type (0, 0), BuildingBlock: XIVTED_clean_linker_0, # of connection points: 2
#     Edge 15, Type (0, 0), BuildingBlock: XIVTED_clean_linker_0, # of connection points: 2
#     Edge 16, Type (0, 0), BuildingBlock: XIVTED_clean_linker_0, # of connection points: 2
#     Edge 17, Type (0, 0), BuildingBlock: XIVTED_clean_linker_0, # of connection points: 2
#     Edge 18, Type (0, 0), BuildingBlock: XIVTED_clean_linker_0, # of connection points: 2
#     Edge 19, Type (0, 0), BuildingBlock: XIVTED_clean_linker_0, # of connection points: 2
#     Edge 20, Type (0, 0), BuildingBlock: XIVTED_clean_linker_0, # of connection points: 2
#     Edge 21, Type (0, 0), BuildingBlock: XIVTED_clean_linker_0, # of connection points: 2
#     Edge 22, Type (0, 0), BuildingBlock: XIVTED_clean_linker_0, # of connection points: 2
#     Edge 23, Type (0, 0), BuildingBlock: XIVTED_clean_linker_0, # of connection points: 2
#     Edge 24, Type (0, 0), BuildingBlock: XIVTED_clean_linker_0, # of connection points: 2
#     Edge 25, Type (0, 0), BuildingBlock: XIVTED_clean_linker_0, # of connection points: 2
#     Edge 26, Type (0, 0), BuildingBlock: XIVTED_clean_linker_0, # of connection points: 2
#     Edge 27, Type (0, 0), BuildingBlock: XIVTED_clean_linker_0, # of connection points: 2
#     Edge 28, Type (0, 0), BuildingBlock: XIVTED_clean_linker_0, # of connection points: 2
#     Edge 29, Type (0, 0), BuildingBlock: XIVTED_clean_linker_0, # of connection points: 2
#     Edge 30, Type (0, 0), BuildingBlock: XIVTED_clean_linker_0, # of connection points: 2
#     Edge 31, Type (0, 0), BuildingBlock: XIVTED_clean_linker_0, # of connection points: 2
# Relax obj value: 0.015
# Max RMSD: 0.047
# Mean RMSD: 0.047
data_MOF--net-snw--node1-IZENUY_clean_sbu_0--edge1-XIVTED_clean_linker_0
_symmetry_space_group_name_H-M    P1
_symmetry_Int_Tables_number       1
_symmetry_cell_setting            triclinic
loop_
_symmetry_equiv_pos_as_xyz
'x, y, z'
_cell_length_a     20.749131
_cell_length_b     20.718968
_cell_length_c     73.790086
_cell_angle_alpha  90.023913
_cell_angle_beta   90.015196
_cell_angle_gamma 90.036284
loop_
_atom_site_label
_atom_site_type_symbol
_atom_site_fract_x
_atom_site_fract_y
_atom_site_fract_z
_atom_type_partial_charge
Fe0 Fe 0.00698 0.25256 0.13012 0.0
Fe1 Fe 0.07935 0.25165 0.09383 0.0
O2 O 0.00587 0.25169 0.10611 0.0
Fe3 Fe 0.93135 0.25107 0.09442 0.0
O4 O 0.88848 0.29975 0.11138 0.0
O5 O 0.96312 0.32814 0.13098 0.0
O6 O 0.08123 0.2997 0.13189 0.0
C7 C 0.10849 0.33737 0.1208 0.0
C8 C 0.90429 0.16749 0.12204 0.0
O9 O 0.10395 0.328 0.10393 0.0
C10 C 0.00937 0.16565 0.07376 0.0
O11 O 0.05089 0.17707 0.13098 0.0
O12 O 0.12399 0.20456 0.11083 0.0
O13 O 0.90727 0.1758 0.10513 0.0
O14 O 0.9329 0.20555 0.13276 0.0
C15 C 0.99949 0.33477 0.0732 0.0
O16 O 0.05978 0.17569 0.08291 0.0
O17 O 0.96075 0.20224 0.07533 0.0
C18 C 0.10468 0.16784 0.12346 0.0
O19 O 0.04796 0.29803 0.07452 0.0
O20 O 0.95034 0.32632 0.08295 0.0
C21 C 0.90883 0.33711 0.12373 0.0
Fe22 Fe 0.00879 0.82593 0.34451 0.0
Fe23 Fe 0.00548 0.75232 0.38057 0.0
O24 O 0.00605 0.752 0.35654 0.0
Fe25 Fe 0.00383 0.67775 0.34464 0.0
O26 O 0.05316 0.70589 0.32556 0.0
O27 O 0.08353 0.80375 0.33332 0.0
O28 O 0.05811 0.86786 0.36154 0.0
C29 C 0.09392 0.84661 0.37412 0.0
C30 C 0.92214 0.7499 0.32371 0.0
O31 O 0.08255 0.79298 0.3815 0.0
C32 C 0.91743 0.6578 0.37399 0.0
O33 O 0.93392 0.85319 0.35481 0.0
O34 O 0.96153 0.82859 0.38267 0.0
O35 O 0.92957 0.69965 0.33315 0.0
O36 O 0.96029 0.7973 0.32532 0.0
C37 C 0.08643 0.64674 0.37218 0.0
O38 O 0.92838 0.71168 0.38129 0.0
O39 O 0.95378 0.63626 0.36157 0.0
C40 C 0.92487 0.85759 0.37167 0.0
O41 O 0.04931 0.67612 0.38298 0.0
O42 O 0.07824 0.65073 0.35527 0.0
C43 C 0.09128 0.75331 0.32397 0.0
Fe44 Fe 0.57972 0.75089 0.59483 0.0
Fe45 Fe 0.43127 0.75392 0.59487 0.0
O46 O 0.50554 0.7532 0.60676 0.0
Fe47 Fe 0.50607 0.75508 0.63078 0.0
O48 O 0.54963 0.83113 0.63088 0.0
O49 O 0.62408 0.79934 0.61166 0.0
O50 O 0.56205 0.8257 0.58311 0.0
C51 C 0.51188 0.83659 0.57393 0.0
C52 C 0.60663 0.66849 0.62262 0.0
O53 O 0.46175 0.8022 0.57581 0.0
C54 C 0.40869 0.66904 0.62453 0.0
O55 O 0.54909 0.70249 0.57586 0.0
O56 O 0.44941 0.67868 0.58339 0.0
O57 O 0.58034 0.70843 0.63323 0.0
O58 O 0.60239 0.67558 0.60569 0.0
C59 C 0.40395 0.83903 0.6222 0.0
O60 O 0.38826 0.70517 0.61187 0.0
O61 O 0.46225 0.67961 0.6321 0.0
C62 C 0.49922 0.66781 0.5741 0.0
O63 O 0.407 0.82961 0.60534 0.0
O64 O 0.43201 0.80148 0.63307 0.0
C65 C 0.604 0.83875 0.62354 0.0
Fe66 Fe 0.50868 0.32378 0.8446 0.0
Fe67 Fe 0.50772 0.2487 0.88046 0.0
O68 O 0.50779 0.24927 0.85642 0.0
Fe69 Fe 0.507 0.17524 0.84437 0.0
O70 O 0.58206 0.19408 0.83298 0.0
O71 O 0.55741 0.29393 0.82557 0.0
O72 O 0.58387 0.34791 0.85532 0.0
C73 C 0.59197 0.35168 0.87222 0.0
C74 C 0.42382 0.25529 0.82358 0.0
O75 O 0.55392 0.32336 0.88295 0.0
C76 C 0.42318 0.14651 0.87172 0.0
O77 O 0.45967 0.36673 0.86158 0.0
O78 O 0.4321 0.29191 0.88129 0.0
O79 O 0.45905 0.20578 0.82532 0.0
O80 O 0.43392 0.30528 0.83293 0.0
C81 C 0.5926 0.15146 0.87372 0.0
O82 O 0.46142 0.17394 0.8826 0.0
O83 O 0.43147 0.15103 0.85485 0.0
C84 C 0.42279 0.34621 0.87404 0.0
O85 O 0.5834 0.20543 0.88118 0.0
O86 O 0.55538 0.13144 0.86128 0.0
C87 C 0.5926 0.24435 0.82381 0.0
Fe88 Fe 0.08178 0.74899 0.95385 0.0
Fe89 Fe 0.93372 0.74885 0.95359 0.0
O90 O 0.00793 0.74944 0.94177 0.0
Fe91 Fe 0.00838 0.7503 0.91776 0.0
O92 O 0.08327 0.70438 0.91552 0.0
O93 O 0.10644 0.67357 0.94322 0.0
O94 O 0.05128 0.701 0.97298 0.0
C95 C 0.00273 0.66428 0.9743 0.0
C96 C 0.10512 0.83544 0.92471 0.0
O97 O 0.95333 0.67316 0.96469 0.0
C98 C 0.90498 0.83362 0.92641 0.0
O99 O 0.06228 0.82392 0.96524 0.0
O100 O 0.96336 0.79689 0.97286 0.0
O101 O 0.05114 0.82635 0.91729 0.0
O102 O 0.12538 0.79774 0.93699 0.0
C103 C 0.91165 0.66419 0.92392 0.0
O104 O 0.90887 0.82456 0.94328 0.0
O105 O 0.93353 0.79636 0.91548 0.0
C106 C 0.01217 0.83327 0.97456 0.0
O107 O 0.89095 0.70064 0.93644 0.0
O108 O 0.96568 0.67427 0.91664 0.0
C109 C 0.11107 0.66596 0.92629 0.0
Fe110 Fe 0.50398 0.67787 0.20354 0.0
Fe111 Fe 0.50824 0.826 0.20347 0.0
O112 O 0.50605 0.75184 0.19152 0.0
Fe113 Fe 0.50602 0.75163 0.16748 0.0
O114 O 0.42933 0.71006 0.16663 0.0
O115 O 0.45479 0.63552 0.18658 0.0
O116 O 0.42924 0.69957 0.21481 0.0
C117 C 0.42148 0.74989 0.22421 0.0
C118 C 0.58786 0.64705 0.17628 0.0
O119 O 0.45954 0.79738 0.22263 0.0
C120 C 0.59363 0.84691 0.17396 0.0
O121 O 0.55253 0.70674 0.22269 0.0
O122 O 0.58295 0.80436 0.21479 0.0
O123 O 0.55088 0.67584 0.1653 0.0
O124 O 0.57885 0.6512 0.19315 0.0
C125 C 0.42452 0.85671 0.17616 0.0
O126 O 0.55756 0.86804 0.18649 0.0
O127 O 0.5827 0.79311 0.16661 0.0
C128 C 0.59068 0.75415 0.22422 0.0
O129 O 0.43347 0.85271 0.19303 0.0
O130 O 0.4612 0.82741 0.16521 0.0
C131 C 0.41861 0.65631 0.17403 0.0
Fe132 Fe 0.58011 0.25314 0.45375 0.0
Fe133 Fe 0.43176 0.25167 0.45359 0.0
O134 O 0.5061 0.25218 0.44174 0.0
Fe135 Fe 0.50648 0.25174 0.41769 0.0
O136 O 0.54992 0.17598 0.41704 0.0
O137 O 0.62374 0.20431 0.43693 0.0
O138 O 0.56119 0.1782 0.46532 0.0
C139 C 0.51088 0.16801 0.47449 0.0
C140 C 0.6085 0.33658 0.42621 0.0
O141 O 0.46161 0.2035 0.47269 0.0
C142 C 0.40895 0.33687 0.42403 0.0
O143 O 0.54975 0.30165 0.47271 0.0
O144 O 0.45041 0.32688 0.4651 0.0
O145 O 0.58094 0.29809 0.41543 0.0
O146 O 0.60443 0.32854 0.44312 0.0
C147 C 0.40398 0.16741 0.42616 0.0
O148 O 0.38869 0.30017 0.43656 0.0
O149 O 0.46311 0.32745 0.41674 0.0
C150 C 0.50047 0.33717 0.47438 0.0
O151 O 0.40756 0.17604 0.44304 0.0
O152 O 0.43209 0.20535 0.41535 0.0
C153 C 0.60389 0.16698 0.42448 0.0
Fe154 Fe 0.00926 0.17971 0.70353 0.0
Fe155 Fe 0.00682 0.32833 0.70353 0.0
O156 O 0.00647 0.25399 0.6916 0.0
Fe157 Fe 0.00307 0.25345 0.66758 0.0
O158 O 0.92723 0.20948 0.66781 0.0
O159 O 0.9603 0.13518 0.6869 0.0
O160 O 0.93506 0.19764 0.71552 0.0
C161 C 0.9248 0.24806 0.7247 0.0
C162 C 0.09023 0.15295 0.67539 0.0
O163 O 0.95962 0.2979 0.72276 0.0
C164 C 0.08955 0.35097 0.67344 0.0
O165 O 0.05841 0.21027 0.72233 0.0
O166 O 0.08261 0.30979 0.71464 0.0
O167 O 0.04978 0.17926 0.66495 0.0
O168 O 0.08394 0.15693 0.69236 0.0
C169 C 0.92005 0.35605 0.67665 0.0
O170 O 0.05455 0.37135 0.68633 0.0
O171 O 0.07825 0.29752 0.66585 0.0
C172 C 0.09357 0.25988 0.72391 0.0
O173 O 0.93075 0.35304 0.69344 0.0
O174 O 0.95637 0.3275 0.66555 0.0
C175 C 0.92047 0.15485 0.67511 0.0
H176 H 0.03708 0.3182 0.03823 0.0
H177 H 0.0426 0.67924 1.00916 0.0
H178 H 0.95754 0.45963 0.07479 0.0
H179 H 0.95795 0.54038 0.97268 0.0
H180 H 0.03786 0.59876 0.03362 0.0
H181 H 0.0343 0.39867 1.01374 0.0
C182 C 0.01928 0.36631 0.04107 0.0
C183 C 0.99747 0.38266 0.05847 0.0
C184 C 0.02036 0.5862 1.02024 0.0
C185 C 0.99569 0.47444 0.03083 0.0
C186 C 0.0234 0.63165 1.00631 0.0
C187 C 1.00067 0.61606 0.98895 0.0
C188 C 0.99647 0.52428 1.01658 0.0
C189 C 0.97574 0.55406 0.98593 0.0
C190 C 0.01741 0.41179 0.02713 0.0
C191 C 0.97449 0.44536 0.0615 0.0
N192 N 0.97516 0.50987 0.99958 0.0
N193 N 0.9751 0.48952 0.04785 0.0
H194 H 0.61904 0.65499 0.24739 0.0
H195 H 0.89431 0.84904 0.30046 0.0
H196 H 0.67638 0.84958 0.23394 0.0
H197 H 0.83638 0.65467 0.31395 0.0
H198 H 0.81471 0.85018 0.27615 0.0
H199 H 0.69878 0.65391 0.27164 0.0
C200 C 0.64844 0.69755 0.24949 0.0
C201 C 0.64069 0.7526 0.23859 0.0
C202 C 0.81933 0.80727 0.28442 0.0
C203 C 0.73238 0.75157 0.26649 0.0
C204 C 0.86482 0.80654 0.29835 0.0
C205 C 0.87234 0.75154 0.30929 0.0
C206 C 0.78085 0.75263 0.28133 0.0
C207 C 0.83246 0.6981 0.30588 0.0
C208 C 0.69401 0.69685 0.2634 0.0
C209 C 0.68048 0.80611 0.24199 0.0
N210 N 0.78855 0.69997 0.29219 0.0
N211 N 0.72449 0.80428 0.25566 0.0
H212 H 0.39447 0.6019 0.56064 0.0
H213 H 0.60369 0.38603 0.49281 0.0
H214 H 0.60078 0.61955 0.55477 0.0
H215 H 0.39684 0.40289 0.4886 0.0
H216 H 0.60287 0.46561 0.51717 0.0
H217 H 0.39379 0.52228 0.53608 0.0
C218 C 0.43965 0.5889 0.55426 0.0
C219 C 0.49779 0.61767 0.55977 0.0
C220 C 0.55764 0.4521 0.5109 0.0
C221 C 0.49724 0.52655 0.53168 0.0
C222 C 0.55802 0.40652 0.49699 0.0
C223 C 0.50021 0.38757 0.48864 0.0
C224 C 0.49896 0.47872 0.5167 0.0
C225 C 0.44258 0.41614 0.49461 0.0
C226 C 0.43914 0.54368 0.54018 0.0
C227 C 0.55477 0.59896 0.55095 0.0
N228 N 0.44337 0.46002 0.50835 0.0
N229 N 0.55306 0.55456 0.5374 0.0
H230 H 0.65975 0.14032 0.81049 0.0
H231 H 0.876 0.35137 0.74321 0.0
H232 H 0.6404 0.34675 0.80462 0.0
H233 H 0.85986 0.14412 0.73903 0.0
H234 H 0.79612 0.35024 0.76747 0.0
H235 H 0.74016 0.14052 0.78622 0.0
C236 C 0.67253 0.18572 0.80416 0.0
C237 C 0.64305 0.24362 0.80959 0.0
C238 C 0.80991 0.30501 0.76122 0.0
C239 C 0.73515 0.24408 0.78182 0.0
C240 C 0.85567 0.30556 0.74738 0.0
C241 C 0.87483 0.24772 0.73906 0.0
C242 C 0.78337 0.24613 0.76697 0.0
C243 C 0.84647 0.1899 0.74501 0.0
C244 C 0.71823 0.18571 0.79025 0.0
C245 C 0.66154 0.30092 0.80085 0.0
N246 N 0.80241 0.19054 0.75867 0.0
N247 N 0.70645 0.2997 0.78745 0.0
H248 H 0.37557 0.1525 0.80474 0.0
H249 H 0.16018 0.36432 0.73739 0.0
H250 H 0.35875 0.35952 0.80946 0.0
H251 H 0.14228 0.15761 0.74285 0.0
H252 H 0.24021 0.36417 0.76183 0.0
H253 H 0.29657 0.15418 0.78027 0.0
C254 C 0.35524 0.19838 0.80065 0.0
C255 C 0.37397 0.25598 0.80919 0.0
C256 C 0.21868 0.31892 0.75765 0.0
C257 C 0.28351 0.25823 0.781 0.0
C258 C 0.17325 0.3189 0.74364 0.0
C259 C 0.14424 0.26089 0.73808 0.0
C260 C 0.23577 0.26047 0.76601 0.0
C261 C 0.16303 0.20354 0.74673 0.0
C262 C 0.30999 0.19926 0.78667 0.0
C263 C 0.34564 0.31392 0.80331 0.0
N264 N 0.20759 0.20479 0.76021 0.0
N265 N 0.30207 0.31361 0.78951 0.0
H266 H 0.39315 0.84907 0.2474 0.0
H267 H 0.11968 0.65395 0.30083 0.0
H268 H 0.33627 0.65424 0.23402 0.0
H269 H 0.17672 0.84875 0.31419 0.0
H270 H 0.19907 0.65301 0.27647 0.0
H271 H 0.3139 0.84987 0.27178 0.0
C272 C 0.36394 0.80641 0.24954 0.0
C273 C 0.37168 0.75137 0.23862 0.0
C274 C 0.19431 0.69596 0.28473 0.0
C275 C 0.2806 0.75206 0.26667 0.0
C276 C 0.14896 0.69657 0.29869 0.0
C277 C 0.14122 0.75165 0.30959 0.0
C278 C 0.23243 0.7508 0.28158 0.0
C279 C 0.18082 0.80525 0.30614 0.0
C280 C 0.31866 0.80694 0.26352 0.0
C281 C 0.33216 0.69771 0.24208 0.0
N282 N 0.22458 0.8035 0.29242 0.0
N283 N 0.28846 0.69938 0.25582 0.0
H284 H 0.40748 0.12012 0.49308 0.0
H285 H 0.61663 0.90154 0.5602 0.0
H286 H 0.61408 0.10132 0.48854 0.0
H287 H 0.41 0.88562 0.55484 0.0
H288 H 0.61716 0.98138 0.53574 0.0
H289 H 0.40806 0.04017 0.51734 0.0
C290 C 0.45303 0.09915 0.49717 0.0
C291 C 0.51086 0.11765 0.48876 0.0
C292 C 0.57176 0.96031 0.53993 0.0
C293 C 0.51183 0.0261 0.51668 0.0
C294 C 0.57135 0.91496 0.55395 0.0
C295 C 0.51316 0.88663 0.55957 0.0
C296 C 0.51353 0.97805 0.5316 0.0
C297 C 0.45603 0.90587 0.55091 0.0
C298 C 0.45328 0.05336 0.51101 0.0
C299 C 0.56833 0.08847 0.4946 0.0
N300 N 0.45766 0.95042 0.53741 0.0
N301 N 0.56741 0.04441 0.50828 0.0
H302 H 0.90571 0.11717 0.05533 0.0
H303 H 0.11565 0.90091 0.98791 0.0
H304 H 0.11236 0.09873 0.0598 0.0
H305 H 0.90981 0.87946 0.99406 0.0
H306 H 0.11532 0.98075 1.01235 0.0
H307 H 0.90629 0.0366 0.03115 0.0
C308 C 0.95124 0.09614 0.05125 0.0
C309 C 0.00911 0.11489 0.05961 0.0
C310 C 0.07028 0.95847 1.00835 0.0
C311 C 0.01008 0.02285 0.0318 0.0
C312 C 0.07034 0.91311 0.99434 0.0
C313 C 0.01265 0.88324 0.98894 0.0
C314 C 0.01204 0.97474 1.0169 0.0
C315 C 0.95546 0.90096 0.99782 0.0
C316 C 0.95148 0.05003 0.03746 0.0
C317 C 0.06658 0.08568 0.05378 0.0
N318 N 0.95659 0.94565 1.01131 0.0
N319 N 0.06565 0.04142 0.04016 0.0
H320 H 0.326 0.91781 0.19436 0.0
H321 H 0.21409 0.12032 0.10784 0.0
H322 H 0.40935 0.89586 0.1411 0.0
H323 H 0.09704 0.10348 0.15597 0.0
H324 H 0.29003 0.04307 0.12071 0.0
H325 H 0.24533 0.99125 0.18149 0.0
C326 C 0.32741 0.9284 0.18 0.0
C327 C 0.37469 0.90073 0.16882 0.0
C328 C 0.24759 0.05601 0.12844 0.0
C329 C 0.28287 0.98468 0.15406 0.0
C330 C 0.20425 0.10026 0.12111 0.0
C331 C 0.14915 0.11856 0.13085 0.0
C332 C 0.23632 0.03024 0.14576 0.0
C333 C 0.13882 0.09066 0.14796 0.0
C334 C 0.28123 0.97008 0.17265 0.0
C335 C 0.37392 0.91594 0.15027 0.0
N336 N 0.18226 0.04822 0.15494 0.0
N337 N 0.32907 0.95707 0.14352 0.0
H338 H 0.15655 0.8355 0.40678 0.0
H339 H 0.37008 0.15088 0.3908 0.0
H340 H 0.14581 0.95466 0.35888 0.0
H341 H 0.34129 0.06859 0.44398 0.0
H342 H 0.29881 0.06964 0.3781 0.0
H343 H 0.23507 0.911 0.41973 0.0
C344 C 0.17103 0.87722 0.39893 0.0
C345 C 0.14436 0.88902 0.38175 0.0
C346 C 0.30798 0.06924 0.39255 0.0
C347 C 0.23398 0.97512 0.39646 0.0
C348 C 0.34887 0.11561 0.39985 0.0
C349 C 0.36145 0.1169 0.41855 0.0
C350 C 0.27954 0.02321 0.40394 0.0
C351 C 0.33256 0.06966 0.42952 0.0
C352 C 0.21553 0.92037 0.40638 0.0
C353 C 0.16474 0.94388 0.37221 0.0
N354 N 0.29285 0.02458 0.42204 0.0
N355 N 0.20831 0.98481 0.37969 0.0
H356 H 0.11483 0.13281 0.63948 0.0
H357 H 0.39229 0.87417 0.65762 0.0
H358 H 0.18073 0.07874 0.6929 0.0
H359 H 0.32118 0.92091 0.60419 0.0
H360 H 0.32015 0.9543 0.67051 0.0
H361 H 0.19476 0.06098 0.62623 0.0
C362 C 0.1462 0.10593 0.64846 0.0
C363 C 0.14064 0.11145 0.66738 0.0
C364 C 0.32034 0.94726 0.65596 0.0
C365 C 0.23252 0.02902 0.65218 0.0
C366 C 0.36154 0.90139 0.64855 0.0
C367 C 0.36238 0.89027 0.62977 0.0
C368 C 0.27941 0.98251 0.64456 0.0
C369 C 0.3219 0.9276 0.61874 0.0
C370 C 0.1919 0.06491 0.64084 0.0
C371 C 0.18302 0.07576 0.67827 0.0
N372 N 0.28174 0.97189 0.62632 0.0
N373 N 0.22702 0.03584 0.6705 0.0
H374 H 0.21477 0.88298 0.94018 0.0
H375 H 0.32343 0.08665 0.85367 0.0
H376 H 0.09542 0.90109 0.89251 0.0
H377 H 0.40831 0.10811 0.90679 0.0
H378 H 0.2426 0.01366 0.86672 0.0
H379 H 0.28987 0.96097 0.92725 0.0
C380 C 0.20426 0.90351 0.92701 0.0
C381 C 0.14885 0.88535 0.91739 0.0
C382 C 0.27886 0.03469 0.87548 0.0
C383 C 0.23491 0.97441 0.90244 0.0
C384 C 0.32508 0.07609 0.86804 0.0
C385 C 0.37288 0.10334 0.87913 0.0
C386 C 0.28105 0.02003 0.89406 0.0
C387 C 0.3725 0.08826 0.89769 0.0
C388 C 0.24708 0.94817 0.91965 0.0
C389 C 0.13753 0.91382 0.90041 0.0
N390 N 0.32762 0.04741 0.90452 0.0
N391 N 0.18049 0.95662 0.89339 0.0
H392 H 0.84384 0.93225 0.94462 0.0
H393 H 0.64061 0.0421 0.85812 0.0
H394 H 0.86681 0.84918 0.89132 0.0
H395 H 0.65749 0.16039 0.90608 0.0
H396 H 0.71865 0.96695 0.87099 0.0
H397 H 0.77029 0.01277 0.93169 0.0
C398 C 0.8335 0.93092 0.93023 0.0
C399 C 0.8614 0.88372 0.91906 0.0
C400 C 0.70555 0.0095 0.87868 0.0
C401 C 0.77736 0.97525 0.90426 0.0
C402 C 0.66086 0.05236 0.87135 0.0
C403 C 0.64235 0.10754 0.88105 0.0
C404 C 0.7315 0.02136 0.89594 0.0
C405 C 0.67048 0.11851 0.89811 0.0
C406 C 0.79176 0.97698 0.92287 0.0
C407 C 0.84652 0.88453 0.90049 0.0
N408 N 0.71333 0.07551 0.90508 0.0
N409 N 0.80531 0.92923 0.89372 0.0
H410 H 0.92713 0.02364 0.67453 0.0
H411 H 0.57404 0.95504 0.63921 0.0
H412 H 0.80392 0.18222 0.65918 0.0
H413 H 0.73522 0.8346 0.62437 0.0
H414 H 0.65005 0.0348 0.65173 0.0
H415 H 0.8488 0.94826 0.66166 0.0
C416 C 0.88333 0.04258 0.66857 0.0
C417 C 0.87199 0.10929 0.66788 0.0
C418 C 0.66845 0.99094 0.64565 0.0
C419 C 0.78205 0.02319 0.65334 0.0
C420 C 0.62531 0.94545 0.63859 0.0
C421 C 0.64849 0.88827 0.63073 0.0
C422 C 0.73483 0.97809 0.64526 0.0
C423 C 0.71534 0.8782 0.63021 0.0
C424 C 0.83894 0.99957 0.66114 0.0
C425 C 0.81456 0.13113 0.65989 0.0
N426 N 0.75612 0.92231 0.63756 0.0
N427 N 0.77129 0.08807 0.65303 0.0
H428 H 0.82615 0.91833 0.35342 0.0
H429 H 0.71316 0.1194 0.44012 0.0
H430 H 0.90957 0.89677 0.4067 0.0
H431 H 0.596 0.10248 0.39199 0.0
H432 H 0.78935 0.0426 0.42717 0.0
H433 H 0.7449 0.99116 0.36633 0.0
C434 C 0.82747 0.92891 0.36779 0.0
C435 C 0.87491 0.90152 0.37897 0.0
C436 C 0.74683 0.05539 0.41946 0.0
C437 C 0.78248 0.98466 0.39376 0.0
C438 C 0.70334 0.09937 0.42684 0.0
C439 C 0.64818 0.11754 0.41712 0.0
C440 C 0.73564 0.02978 0.40211 0.0
C441 C 0.63784 0.08971 0.39998 0.0
C442 C 0.78097 0.97021 0.37515 0.0
C443 C 0.87404 0.91665 0.39752 0.0
N444 N 0.68146 0.04755 0.39295 0.0
N445 N 0.82887 0.95736 0.40429 0.0
H446 H 0.65732 0.83555 0.14148 0.0
H447 H 0.86982 0.15194 0.15742 0.0
H448 H 0.64462 0.95557 0.1892 0.0
H449 H 0.84222 0.06803 0.10438 0.0
H450 H 0.79828 0.07086 0.17017 0.0
H451 H 0.73603 0.91102 0.12866 0.0
C452 C 0.67139 0.87746 0.14932 0.0
C453 C 0.6441 0.88948 0.16641 0.0
C454 C 0.80781 0.07009 0.15574 0.0
C455 C 0.73401 0.9756 0.15184 0.0
C456 C 0.84885 0.11634 0.14842 0.0
C457 C 0.86181 0.11711 0.12975 0.0
C458 C 0.77969 0.02368 0.14439 0.0
C459 C 0.8332 0.06951 0.11883 0.0
C460 C 0.71603 0.9206 0.14194 0.0
C461 C 0.66403 0.94461 0.17593 0.0
N462 N 0.79341 0.02459 0.12632 0.0
N463 N 0.70776 0.98554 0.16852 0.0
H464 H 0.83895 0.4378 0.69527 0.0
H465 H 0.67858 0.57753 0.6046 0.0
H466 H 0.88379 0.36985 0.64137 0.0
H467 H 0.62985 0.64385 0.65839 0.0
H468 H 0.75068 0.4975 0.61803 0.0
H469 H 0.75822 0.51039 0.68221 0.0
C470 C 0.83169 0.43792 0.68073 0.0
C471 C 0.86864 0.39812 0.6694 0.0
C472 C 0.72402 0.52947 0.62689 0.0
C473 C 0.77661 0.48086 0.65439 0.0
C474 C 0.68287 0.57518 0.61921 0.0
C475 C 0.64851 0.61783 0.63036 0.0
C476 C 0.73089 0.52646 0.64583 0.0
C477 C 0.65572 0.61229 0.64924 0.0
C478 C 0.78566 0.47935 0.67328 0.0
C479 C 0.85693 0.40008 0.65065 0.0
N480 N 0.6963 0.5677 0.65637 0.0
N481 N 0.81223 0.44092 0.64375 0.0
H482 H 0.92322 0.59938 0.8916 0.0
H483 H 0.60626 0.38834 0.90747 0.0
H484 H 0.80179 0.61518 0.93891 0.0
H485 H 0.6916 0.41317 0.85454 0.0
H486 H 0.68667 0.46089 0.92012 0.0
H487 H 0.84767 0.52066 0.8788 0.0
C488 C 0.88094 0.58604 0.89935 0.0
C489 C 0.86861 0.61414 0.91633 0.0
C490 C 0.68788 0.45055 0.90574 0.0
C491 C 0.78241 0.52417 0.90179 0.0
C492 C 0.64203 0.40892 0.89847 0.0
C493 C 0.64189 0.39484 0.87986 0.0
C494 C 0.73454 0.47814 0.89439 0.0
C495 C 0.68966 0.42302 0.86894 0.0
C496 C 0.83776 0.54138 0.89199 0.0
C497 C 0.81302 0.59513 0.92573 0.0
N498 N 0.73421 0.46337 0.87638 0.0
N499 N 0.77207 0.55131 0.91834 0.0
H500 H 0.68644 0.58636 0.19459 0.0
H501 H 0.80037 0.3857 0.10797 0.0
H502 H 0.60422 0.60878 0.14119 0.0
H503 H 0.91676 0.4015 0.15627 0.0
H504 H 0.72456 0.46304 0.12081 0.0
H505 H 0.76799 0.51377 0.18174 0.0
C506 C 0.68546 0.57605 0.1802 0.0
C507 C 0.6382 0.60355 0.16898 0.0
C508 C 0.76683 0.44991 0.12859 0.0
C509 C 0.73103 0.52065 0.15425 0.0
C510 C 0.8101 0.4056 0.12127 0.0
C511 C 0.86492 0.38692 0.13108 0.0
C512 C 0.77785 0.47536 0.14595 0.0
C513 C 0.87517 0.41465 0.14822 0.0
C514 C 0.73214 0.53488 0.17288 0.0
C515 C 0.63955 0.58877 0.1504 0.0
N516 N 0.83172 0.45714 0.1552 0.0
N517 N 0.68488 0.54815 0.14367 0.0
H518 H 0.8537 0.66975 0.40645 0.0
H519 H 0.64362 0.3517 0.39092 0.0
H520 H 0.86668 0.54886 0.35891 0.0
H521 H 0.66981 0.43667 0.44389 0.0
H522 H 0.71453 0.43303 0.37815 0.0
H523 H 0.77549 0.59407 0.41944 0.0
C524 C 0.83976 0.62762 0.39868 0.0
C525 C 0.86699 0.61539 0.38159 0.0
C526 C 0.70488 0.434 0.39257 0.0
C527 C 0.77775 0.52907 0.39635 0.0
C528 C 0.66419 0.38757 0.39991 0.0
C529 C 0.65097 0.38703 0.41857 0.0
C530 C 0.73246 0.48083 0.40388 0.0
C531 C 0.67906 0.43502 0.42946 0.0
C532 C 0.79545 0.58437 0.40615 0.0
C533 C 0.8473 0.56 0.37216 0.0
N534 N 0.71857 0.48015 0.42194 0.0
N535 N 0.80391 0.51897 0.37967 0.0
H536 H 0.41971 0.40202 0.39172 0.0
H537 H 0.09915 0.60783 0.4073 0.0
H538 H 0.29796 0.38396 0.4389 0.0
H539 H 0.18653 0.58583 0.35455 0.0
H540 H 0.17972 0.53549 0.41995 0.0
H541 H 0.34286 0.47918 0.37884 0.0
C542 C 0.37709 0.41454 0.39943 0.0
C543 C 0.36513 0.38625 0.41641 0.0
C544 C 0.18133 0.54636 0.4056 0.0
C545 C 0.27732 0.47447 0.40175 0.0
C546 C 0.13536 0.58786 0.39834 0.0
C547 C 0.13581 0.6028 0.37978 0.0
C548 C 0.22876 0.51978 0.39431 0.0
C549 C 0.1841 0.57532 0.3689 0.0
C550 C 0.33315 0.45831 0.39201 0.0
C551 C 0.30901 0.4042 0.42574 0.0
N552 N 0.22882 0.53518 0.37634 0.0
N553 N 0.26732 0.44717 0.4183 0.0
H554 H 0.17067 0.43524 0.10236 0.0
H555 H 0.36673 0.54933 0.18978 0.0
H556 H 0.14396 0.35571 0.15595 0.0
H557 H 0.35675 0.66475 0.14115 0.0
H558 H 0.289 0.47454 0.17666 0.0
H559 H 0.24321 0.51691 0.11535 0.0
C560 C 0.17995 0.43493 0.11681 0.0
C561 C 0.15139 0.38831 0.12805 0.0
C562 C 0.30346 0.5164 0.16887 0.0
C563 C 0.23411 0.48108 0.1429 0.0
C564 C 0.34799 0.55907 0.17635 0.0
C565 C 0.36841 0.61326 0.16653 0.0
C566 C 0.27954 0.52742 0.15133 0.0
C567 C 0.34218 0.6236 0.14921 0.0
C568 C 0.2211 0.48162 0.1242 0.0
C569 C 0.16485 0.39045 0.1467 0.0
N570 N 0.29942 0.58072 0.14208 0.0
N571 N 0.2054 0.4357 0.15348 0.0
H572 H 0.15045 0.65431 0.89122 0.0
H573 H 0.35671 0.33369 0.90611 0.0
H574 H 0.17121 0.56475 0.94374 0.0
H575 H 0.37628 0.45825 0.85953 0.0
H576 H 0.27894 0.40963 0.91908 0.0
H577 H 0.22329 0.57451 0.87847 0.0
C578 C 0.1702 0.61774 0.90011 0.0
C579 C 0.1548 0.6165 0.91865 0.0
C580 C 0.30028 0.42017 0.90602 0.0
C581 C 0.2385 0.52445 0.90398 0.0
C582 C 0.34442 0.37676 0.89855 0.0
C583 C 0.37327 0.38975 0.8817 0.0
C584 C 0.28431 0.47651 0.89648 0.0
C585 C 0.35558 0.4464 0.87257 0.0
C586 C 0.21203 0.57223 0.89279 0.0
C587 C 0.18205 0.56777 0.92942 0.0
N588 N 0.31221 0.48757 0.88006 0.0
N589 N 0.22257 0.5235 0.92191 0.0
H590 H 0.13759 0.35408 0.63887 0.0
H591 H 0.40665 0.61872 0.65883 0.0
H592 H 0.15731 0.44452 0.69127 0.0
H593 H 0.31361 0.60338 0.60669 0.0
H594 H 0.33164 0.53779 0.67085 0.0
H595 H 0.2187 0.42874 0.62675 0.0
C596 C 0.15935 0.38927 0.64785 0.0
C597 C 0.14049 0.39345 0.66608 0.0
C598 C 0.32795 0.5521 0.65677 0.0
C599 C 0.23356 0.478 0.65237 0.0
C600 C 0.37082 0.59794 0.64988 0.0
C601 C 0.36602 0.61801 0.63176 0.0
C602 C 0.281 0.52513 0.64535 0.0
C603 C 0.31854 0.58964 0.62078 0.0
C604 C 0.20528 0.43194 0.6409 0.0
C605 C 0.17009 0.4401 0.6771 0.0
N606 N 0.27801 0.54435 0.62772 0.0
N607 N 0.21545 0.48038 0.6701 0.0
loop_
_geom_bond_atom_site_label_1
_geom_bond_atom_site_label_2
_geom_bond_distance
_geom_bond_site_symmetry_2
_ccdc_geom_bond_type
Fe0 O2 1.918 . S
Fe0 O5 1.997 1_455 S
Fe0 O6 2.002 . S
Fe0 O11 1.976 . S
Fe0 O14 1.996 1_455 S
Fe1 O2 1.918 . S
Fe1 O9 1.997 . S
Fe1 O12 1.996 . S
Fe1 O16 1.976 . S
Fe1 O19 2.002 . S
O2 Fe0 1.918 . S
O2 Fe1 1.918 . S
O2 Fe3 1.918 1_455 S
Fe3 O2 1.918 1_655 S
Fe3 O4 2.002 . S
Fe3 O13 1.976 . S
Fe3 O17 1.996 . S
Fe3 O20 1.997 . S
O4 Fe3 2.002 . S
O4 C21 1.295 . S
O5 Fe0 1.997 1_655 S
O5 C21 1.235 . S
O6 Fe0 2.002 . S
O6 C7 1.295 . S
C7 O6 1.295 . S
C7 O9 1.235 . S
C8 O13 1.287 . S
C8 O14 1.255 . S
O9 Fe1 1.997 . S
O9 C7 1.235 . S
C10 O16 1.287 . S
C10 O17 1.255 1_455 S
O11 Fe0 1.976 . S
O11 C18 1.287 . S
O12 Fe1 1.996 . S
O12 C18 1.255 . S
O13 Fe3 1.976 . S
O13 C8 1.287 . S
O14 Fe0 1.996 1_655 S
O14 C8 1.255 . S
C15 O19 1.295 . S
C15 O20 1.235 1_455 S
O16 Fe1 1.976 . S
O16 C10 1.287 . S
O17 Fe3 1.996 . S
O17 C10 1.255 1_655 S
C18 O11 1.287 . S
C18 O12 1.255 . S
O19 Fe1 2.002 . S
O19 C15 1.295 . S
O20 Fe3 1.997 . S
O20 C15 1.235 1_655 S
C21 O4 1.295 . S
C21 O5 1.235 . S
Fe22 O24 1.918 . S
Fe22 O27 1.997 . S
Fe22 O28 2.002 . S
Fe22 O33 1.976 1_455 S
Fe22 O36 1.996 1_455 S
Fe23 O24 1.918 . S
Fe23 O31 1.997 . S
Fe23 O34 1.996 1_455 S
Fe23 O38 1.976 1_455 S
Fe23 O41 2.002 . S
O24 Fe22 1.918 . S
O24 Fe23 1.918 . S
O24 Fe25 1.918 . S
Fe25 O24 1.918 . S
Fe25 O26 2.002 . S
Fe25 O35 1.976 1_455 S
Fe25 O39 1.996 1_455 S
Fe25 O42 1.997 . S
O26 Fe25 2.002 . S
O26 C43 1.295 . S
O27 Fe22 1.997 . S
O27 C43 1.235 . S
O28 Fe22 2.002 . S
O28 C29 1.295 . S
C29 O28 1.295 . S
C29 O31 1.235 . S
C30 O35 1.287 . S
C30 O36 1.255 . S
O31 Fe23 1.997 . S
O31 C29 1.235 . S
C32 O38 1.287 . S
C32 O39 1.255 . S
O33 Fe22 1.976 1_655 S
O33 C40 1.287 . S
O34 Fe23 1.996 1_655 S
O34 C40 1.255 . S
O35 Fe25 1.976 1_655 S
O35 C30 1.287 . S
O36 Fe22 1.996 1_655 S
O36 C30 1.255 . S
C37 O41 1.295 . S
C37 O42 1.235 . S
O38 Fe23 1.976 1_655 S
O38 C32 1.287 . S
O39 Fe25 1.996 1_655 S
O39 C32 1.255 . S
C40 O33 1.287 . S
C40 O34 1.255 . S
O41 Fe23 2.002 . S
O41 C37 1.295 . S
O42 Fe25 1.997 . S
O42 C37 1.235 . S
C43 O26 1.295 . S
C43 O27 1.235 . S
Fe44 O46 1.918 . S
Fe44 O49 1.997 . S
Fe44 O50 2.002 . S
Fe44 O55 1.976 . S
Fe44 O58 1.996 . S
Fe45 O46 1.918 . S
Fe45 O53 1.997 . S
Fe45 O56 1.996 . S
Fe45 O60 1.976 . S
Fe45 O63 2.002 . S
O46 Fe44 1.918 . S
O46 Fe45 1.918 . S
O46 Fe47 1.918 . S
Fe47 O46 1.918 . S
Fe47 O48 2.002 . S
Fe47 O57 1.976 . S
Fe47 O61 1.996 . S
Fe47 O64 1.997 . S
O48 Fe47 2.002 . S
O48 C65 1.295 . S
O49 Fe44 1.997 . S
O49 C65 1.235 . S
O50 Fe44 2.002 . S
O50 C51 1.295 . S
C51 O50 1.295 . S
C51 O53 1.235 . S
C52 O57 1.287 . S
C52 O58 1.255 . S
O53 Fe45 1.997 . S
O53 C51 1.235 . S
C54 O60 1.287 . S
C54 O61 1.255 . S
O55 Fe44 1.976 . S
O55 C62 1.287 . S
O56 Fe45 1.996 . S
O56 C62 1.255 . S
O57 Fe47 1.976 . S
O57 C52 1.287 . S
O58 Fe44 1.996 . S
O58 C52 1.255 . S
C59 O63 1.295 . S
C59 O64 1.235 . S
O60 Fe45 1.976 . S
O60 C54 1.287 . S
O61 Fe47 1.996 . S
O61 C54 1.255 . S
C62 O55 1.287 . S
C62 O56 1.255 . S
O63 Fe45 2.002 . S
O63 C59 1.295 . S
O64 Fe47 1.997 . S
O64 C59 1.235 . S
C65 O48 1.295 . S
C65 O49 1.235 . S
Fe66 O68 1.918 . S
Fe66 O71 1.997 . S
Fe66 O72 2.002 . S
Fe66 O77 1.976 . S
Fe66 O80 1.996 . S
Fe67 O68 1.918 . S
Fe67 O75 1.997 . S
Fe67 O78 1.996 . S
Fe67 O82 1.976 . S
Fe67 O85 2.002 . S
O68 Fe66 1.918 . S
O68 Fe67 1.918 . S
O68 Fe69 1.918 . S
Fe69 O68 1.918 . S
Fe69 O70 2.002 . S
Fe69 O79 1.976 . S
Fe69 O83 1.996 . S
Fe69 O86 1.997 . S
O70 Fe69 2.002 . S
O70 C87 1.295 . S
O71 Fe66 1.997 . S
O71 C87 1.235 . S
O72 Fe66 2.002 . S
O72 C73 1.295 . S
C73 O72 1.295 . S
C73 O75 1.235 . S
C74 O79 1.287 . S
C74 O80 1.255 . S
O75 Fe67 1.997 . S
O75 C73 1.235 . S
C76 O82 1.287 . S
C76 O83 1.255 . S
O77 Fe66 1.976 . S
O77 C84 1.287 . S
O78 Fe67 1.996 . S
O78 C84 1.255 . S
O79 Fe69 1.976 . S
O79 C74 1.287 . S
O80 Fe66 1.996 . S
O80 C74 1.255 . S
C81 O85 1.295 . S
C81 O86 1.235 . S
O82 Fe67 1.976 . S
O82 C76 1.287 . S
O83 Fe69 1.996 . S
O83 C76 1.255 . S
C84 O77 1.287 . S
C84 O78 1.255 . S
O85 Fe67 2.002 . S
O85 C81 1.295 . S
O86 Fe69 1.997 . S
O86 C81 1.235 . S
C87 O70 1.295 . S
C87 O71 1.235 . S
Fe88 O90 1.918 . S
Fe88 O93 1.997 . S
Fe88 O94 2.002 . S
Fe88 O99 1.976 . S
Fe88 O102 1.996 . S
Fe89 O90 1.918 1_655 S
Fe89 O97 1.997 . S
Fe89 O100 1.996 . S
Fe89 O104 1.976 . S
Fe89 O107 2.002 . S
O90 Fe88 1.918 . S
O90 Fe89 1.918 1_455 S
O90 Fe91 1.918 . S
Fe91 O90 1.918 . S
Fe91 O92 2.002 . S
Fe91 O101 1.976 . S
Fe91 O105 1.996 1_455 S
Fe91 O108 1.997 1_455 S
O92 Fe91 2.002 . S
O92 C109 1.295 . S
O93 Fe88 1.997 . S
O93 C109 1.235 . S
O94 Fe88 2.002 . S
O94 C95 1.295 . S
C95 O94 1.295 . S
C95 O97 1.235 1_455 S
C96 O101 1.287 . S
C96 O102 1.255 . S
O97 Fe89 1.997 . S
O97 C95 1.235 1_655 S
C98 O104 1.287 . S
C98 O105 1.255 . S
O99 Fe88 1.976 . S
O99 C106 1.287 . S
O100 Fe89 1.996 . S
O100 C106 1.255 1_655 S
O101 Fe91 1.976 . S
O101 C96 1.287 . S
O102 Fe88 1.996 . S
O102 C96 1.255 . S
C103 O107 1.295 . S
C103 O108 1.235 . S
O104 Fe89 1.976 . S
O104 C98 1.287 . S
O105 Fe91 1.996 1_655 S
O105 C98 1.255 . S
C106 O99 1.287 . S
C106 O100 1.255 1_455 S
O107 Fe89 2.002 . S
O107 C103 1.295 . S
O108 Fe91 1.997 1_655 S
O108 C103 1.235 . S
C109 O92 1.295 . S
C109 O93 1.235 . S
Fe110 O112 1.918 . S
Fe110 O115 1.997 . S
Fe110 O116 2.002 . S
Fe110 O121 1.976 . S
Fe110 O124 1.996 . S
Fe111 O112 1.918 . S
Fe111 O119 1.997 . S
Fe111 O122 1.996 . S
Fe111 O126 1.976 . S
Fe111 O129 2.002 . S
O112 Fe110 1.918 . S
O112 Fe111 1.918 . S
O112 Fe113 1.918 . S
Fe113 O112 1.918 . S
Fe113 O114 2.002 . S
Fe113 O123 1.976 . S
Fe113 O127 1.996 . S
Fe113 O130 1.997 . S
O114 Fe113 2.002 . S
O114 C131 1.295 . S
O115 Fe110 1.997 . S
O115 C131 1.235 . S
O116 Fe110 2.002 . S
O116 C117 1.295 . S
C117 O116 1.295 . S
C117 O119 1.235 . S
C118 O123 1.287 . S
C118 O124 1.255 . S
O119 Fe111 1.997 . S
O119 C117 1.235 . S
C120 O126 1.287 . S
C120 O127 1.255 . S
O121 Fe110 1.976 . S
O121 C128 1.287 . S
O122 Fe111 1.996 . S
O122 C128 1.255 . S
O123 Fe113 1.976 . S
O123 C118 1.287 . S
O124 Fe110 1.996 . S
O124 C118 1.255 . S
C125 O129 1.295 . S
C125 O130 1.235 . S
O126 Fe111 1.976 . S
O126 C120 1.287 . S
O127 Fe113 1.996 . S
O127 C120 1.255 . S
C128 O121 1.287 . S
C128 O122 1.255 . S
O129 Fe111 2.002 . S
O129 C125 1.295 . S
O130 Fe113 1.997 . S
O130 C125 1.235 . S
C131 O114 1.295 . S
C131 O115 1.235 . S
Fe132 O134 1.918 . S
Fe132 O137 1.997 . S
Fe132 O138 2.002 . S
Fe132 O143 1.976 . S
Fe132 O146 1.996 . S
Fe133 O134 1.918 . S
Fe133 O141 1.997 . S
Fe133 O144 1.996 . S
Fe133 O148 1.976 . S
Fe133 O151 2.002 . S
O134 Fe132 1.918 . S
O134 Fe133 1.918 . S
O134 Fe135 1.918 . S
Fe135 O134 1.918 . S
Fe135 O136 2.002 . S
Fe135 O145 1.976 . S
Fe135 O149 1.996 . S
Fe135 O152 1.997 . S
O136 Fe135 2.002 . S
O136 C153 1.295 . S
O137 Fe132 1.997 . S
O137 C153 1.235 . S
O138 Fe132 2.002 . S
O138 C139 1.295 . S
C139 O138 1.295 . S
C139 O141 1.235 . S
C140 O145 1.287 . S
C140 O146 1.255 . S
O141 Fe133 1.997 . S
O141 C139 1.235 . S
C142 O148 1.287 . S
C142 O149 1.255 . S
O143 Fe132 1.976 . S
O143 C150 1.287 . S
O144 Fe133 1.996 . S
O144 C150 1.255 . S
O145 Fe135 1.976 . S
O145 C140 1.287 . S
O146 Fe132 1.996 . S
O146 C140 1.255 . S
C147 O151 1.295 . S
C147 O152 1.235 . S
O148 Fe133 1.976 . S
O148 C142 1.287 . S
O149 Fe135 1.996 . S
O149 C142 1.255 . S
C150 O143 1.287 . S
C150 O144 1.255 . S
O151 Fe133 2.002 . S
O151 C147 1.295 . S
O152 Fe135 1.997 . S
O152 C147 1.235 . S
C153 O136 1.295 . S
C153 O137 1.235 . S
Fe154 O156 1.918 . S
Fe154 O159 1.997 1_455 S
Fe154 O160 2.002 1_455 S
Fe154 O165 1.976 . S
Fe154 O168 1.996 . S
Fe155 O156 1.918 . S
Fe155 O163 1.997 1_455 S
Fe155 O166 1.996 . S
Fe155 O170 1.976 . S
Fe155 O173 2.002 1_455 S
O156 Fe154 1.918 . S
O156 Fe155 1.918 . S
O156 Fe157 1.918 . S
Fe157 O156 1.918 . S
Fe157 O158 2.002 1_455 S
Fe157 O167 1.976 . S
Fe157 O171 1.996 . S
Fe157 O174 1.997 1_455 S
O158 Fe157 2.002 1_655 S
O158 C175 1.295 . S
O159 Fe154 1.997 1_655 S
O159 C175 1.235 . S
O160 Fe154 2.002 1_655 S
O160 C161 1.295 . S
C161 O160 1.295 . S
C161 O163 1.235 . S
C162 O167 1.287 . S
C162 O168 1.255 . S
O163 Fe155 1.997 1_655 S
O163 C161 1.235 . S
C164 O170 1.287 . S
C164 O171 1.255 . S
O165 Fe154 1.976 . S
O165 C172 1.287 . S
O166 Fe155 1.996 . S
O166 C172 1.255 . S
O167 Fe157 1.976 . S
O167 C162 1.287 . S
O168 Fe154 1.996 . S
O168 C162 1.255 . S
C169 O173 1.295 . S
C169 O174 1.235 . S
O170 Fe155 1.976 . S
O170 C164 1.287 . S
O171 Fe157 1.996 . S
O171 C164 1.255 . S
C172 O165 1.287 . S
C172 O166 1.255 . S
O173 Fe155 2.002 1_655 S
O173 C169 1.295 . S
O174 Fe157 1.997 1_655 S
O174 C169 1.235 . S
C175 O158 1.295 . S
C175 O159 1.235 . S
H176 C182 0.930 . S
H177 C186 0.930 . S
H178 C191 0.929 . S
H179 C189 0.929 . S
H180 C184 0.929 1_554 S
H181 C190 0.929 1_556 S
C182 H176 0.930 . S
C182 C183 1.367 . S
C182 C190 1.378 . S
C183 C182 1.367 . S
C183 C191 1.433 . S
C184 H180 0.929 1_556 S
C184 C186 1.378 . S
C184 C188 1.350 . S
C185 C188 1.463 1_554 S
C185 C190 1.350 . S
C185 N193 1.427 . S
C186 H177 0.930 . S
C186 C184 1.378 . S
C186 C187 1.367 . S
C187 C186 1.367 . S
C187 C189 1.433 . S
C188 C184 1.350 . S
C188 C185 1.463 1_556 S
C188 N192 1.427 . S
C189 H179 0.929 . S
C189 C187 1.433 . S
C189 N192 1.384 . S
C190 H181 0.929 1_554 S
C190 C182 1.378 . S
C190 C185 1.350 . S
C191 H178 0.929 . S
C191 C183 1.433 . S
C191 N193 1.384 . S
N192 C188 1.427 . S
N192 C189 1.384 . S
N193 C185 1.427 . S
N193 C191 1.384 . S
H194 C200 0.930 . S
H195 C204 0.930 . S
H196 C209 0.929 . S
H197 C207 0.929 . S
H198 C202 0.929 . S
H199 C208 0.929 . S
C200 H194 0.930 . S
C200 C201 1.367 . S
C200 C208 1.378 . S
C201 C200 1.367 . S
C201 C209 1.433 . S
C202 H198 0.929 . S
C202 C204 1.378 . S
C202 C206 1.350 . S
C203 C206 1.463 . S
C203 C208 1.350 . S
C203 N211 1.427 . S
C204 H195 0.930 . S
C204 C202 1.378 . S
C204 C205 1.367 . S
C205 C204 1.367 . S
C205 C207 1.433 . S
C206 C202 1.350 . S
C206 C203 1.463 . S
C206 N210 1.427 . S
C207 H197 0.929 . S
C207 C205 1.433 . S
C207 N210 1.384 . S
C208 H199 0.929 . S
C208 C200 1.378 . S
C208 C203 1.350 . S
C209 H196 0.929 . S
C209 C201 1.433 . S
C209 N211 1.384 . S
N210 C206 1.427 . S
N210 C207 1.384 . S
N211 C203 1.427 . S
N211 C209 1.384 . S
H212 C218 0.930 . S
H213 C222 0.930 . S
H214 C227 0.929 . S
H215 C225 0.929 . S
H216 C220 0.929 . S
H217 C226 0.929 . S
C218 H212 0.930 . S
C218 C219 1.367 . S
C218 C226 1.378 . S
C219 C218 1.367 . S
C219 C227 1.433 . S
C220 H216 0.929 . S
C220 C222 1.378 . S
C220 C224 1.350 . S
C221 C224 1.463 . S
C221 C226 1.350 . S
C221 N229 1.427 . S
C222 H213 0.930 . S
C222 C220 1.378 . S
C222 C223 1.367 . S
C223 C222 1.367 . S
C223 C225 1.433 . S
C224 C220 1.350 . S
C224 C221 1.463 . S
C224 N228 1.427 . S
C225 H215 0.929 . S
C225 C223 1.433 . S
C225 N228 1.384 . S
C226 H217 0.929 . S
C226 C218 1.378 . S
C226 C221 1.350 . S
C227 H214 0.929 . S
C227 C219 1.433 . S
C227 N229 1.384 . S
N228 C224 1.427 . S
N228 C225 1.384 . S
N229 C221 1.427 . S
N229 C227 1.384 . S
H230 C236 0.930 . S
H231 C240 0.930 . S
H232 C245 0.929 . S
H233 C243 0.929 . S
H234 C238 0.929 . S
H235 C244 0.929 . S
C236 H230 0.930 . S
C236 C237 1.367 . S
C236 C244 1.378 . S
C237 C236 1.367 . S
C237 C245 1.433 . S
C238 H234 0.929 . S
C238 C240 1.378 . S
C238 C242 1.350 . S
C239 C242 1.463 . S
C239 C244 1.350 . S
C239 N247 1.427 . S
C240 H231 0.930 . S
C240 C238 1.378 . S
C240 C241 1.367 . S
C241 C240 1.367 . S
C241 C243 1.433 . S
C242 C238 1.350 . S
C242 C239 1.463 . S
C242 N246 1.427 . S
C243 H233 0.929 . S
C243 C241 1.433 . S
C243 N246 1.384 . S
C244 H235 0.929 . S
C244 C236 1.378 . S
C244 C239 1.350 . S
C245 H232 0.929 . S
C245 C237 1.433 . S
C245 N247 1.384 . S
N246 C242 1.427 . S
N246 C243 1.384 . S
N247 C239 1.427 . S
N247 C245 1.384 . S
H248 C254 0.930 . S
H249 C258 0.930 . S
H250 C263 0.929 . S
H251 C261 0.929 . S
H252 C256 0.929 . S
H253 C262 0.929 . S
C254 H248 0.930 . S
C254 C255 1.367 . S
C254 C262 1.378 . S
C255 C254 1.367 . S
C255 C263 1.433 . S
C256 H252 0.929 . S
C256 C258 1.378 . S
C256 C260 1.350 . S
C257 C260 1.463 . S
C257 C262 1.350 . S
C257 N265 1.427 . S
C258 H249 0.930 . S
C258 C256 1.378 . S
C258 C259 1.367 . S
C259 C258 1.367 . S
C259 C261 1.433 . S
C260 C256 1.350 . S
C260 C257 1.463 . S
C260 N264 1.427 . S
C261 H251 0.929 . S
C261 C259 1.433 . S
C261 N264 1.384 . S
C262 H253 0.929 . S
C262 C254 1.378 . S
C262 C257 1.350 . S
C263 H250 0.929 . S
C263 C255 1.433 . S
C263 N265 1.384 . S
N264 C260 1.427 . S
N264 C261 1.384 . S
N265 C257 1.427 . S
N265 C263 1.384 . S
H266 C272 0.930 . S
H267 C276 0.930 . S
H268 C281 0.929 . S
H269 C279 0.929 . S
H270 C274 0.929 . S
H271 C280 0.929 . S
C272 H266 0.930 . S
C272 C273 1.367 . S
C272 C280 1.378 . S
C273 C272 1.367 . S
C273 C281 1.433 . S
C274 H270 0.929 . S
C274 C276 1.378 . S
C274 C278 1.350 . S
C275 C278 1.463 . S
C275 C280 1.350 . S
C275 N283 1.427 . S
C276 H267 0.930 . S
C276 C274 1.378 . S
C276 C277 1.367 . S
C277 C276 1.367 . S
C277 C279 1.433 . S
C278 C274 1.350 . S
C278 C275 1.463 . S
C278 N282 1.427 . S
C279 H269 0.929 . S
C279 C277 1.433 . S
C279 N282 1.384 . S
C280 H271 0.929 . S
C280 C272 1.378 . S
C280 C275 1.350 . S
C281 H268 0.929 . S
C281 C273 1.433 . S
C281 N283 1.384 . S
N282 C278 1.427 . S
N282 C279 1.384 . S
N283 C275 1.427 . S
N283 C281 1.384 . S
H284 C290 0.930 . S
H285 C294 0.930 . S
H286 C299 0.929 . S
H287 C297 0.929 . S
H288 C292 0.929 . S
H289 C298 0.929 . S
C290 H284 0.930 . S
C290 C291 1.367 . S
C290 C298 1.378 . S
C291 C290 1.367 . S
C291 C299 1.433 . S
C292 H288 0.929 . S
C292 C294 1.378 . S
C292 C296 1.350 . S
C293 C296 1.463 1_545 S
C293 C298 1.350 . S
C293 N301 1.427 1_545 S
C294 H285 0.930 . S
C294 C292 1.378 . S
C294 C295 1.367 . S
C295 C294 1.367 . S
C295 C297 1.433 . S
C296 C292 1.350 . S
C296 C293 1.463 1_565 S
C296 N300 1.427 1_565 S
C297 H287 0.929 . S
C297 C295 1.433 . S
C297 N300 1.384 1_565 S
C298 H289 0.929 . S
C298 C290 1.378 . S
C298 C293 1.350 . S
C299 H286 0.929 . S
C299 C291 1.433 . S
C299 N301 1.384 1_545 S
N300 C296 1.427 1_545 S
N300 C297 1.384 1_545 S
N301 C293 1.427 1_565 S
N301 C299 1.384 1_565 S
H302 C308 0.930 . S
H303 C312 0.930 . S
H304 C317 0.929 . S
H305 C315 0.929 . S
H306 C310 0.929 . S
H307 C316 0.929 . S
C308 H302 0.930 . S
C308 C309 1.367 1_655 S
C308 C316 1.378 . S
C309 C308 1.367 1_455 S
C309 C317 1.433 . S
C310 H306 0.929 . S
C310 C312 1.378 . S
C310 C314 1.350 . S
C311 C314 1.463 1_544 S
C311 C316 1.350 1_455 S
C311 N319 1.427 . S
C312 H303 0.930 . S
C312 C310 1.378 . S
C312 C313 1.367 . S
C313 C312 1.367 . S
C313 C315 1.433 1_455 S
C314 C310 1.350 . S
C314 C311 1.463 1_566 S
C314 N318 1.427 1_455 S
C315 H305 0.929 . S
C315 C313 1.433 1_655 S
C315 N318 1.384 . S
C316 H307 0.929 . S
C316 C308 1.378 . S
C316 C311 1.350 1_655 S
C317 H304 0.929 . S
C317 C309 1.433 . S
C317 N319 1.384 . S
N318 C314 1.427 1_655 S
N318 C315 1.384 . S
N319 C311 1.427 . S
N319 C317 1.384 . S
H320 C326 0.930 . S
H321 C330 0.930 . S
H322 C335 0.929 . S
H323 C333 0.929 . S
H324 C328 0.929 . S
H325 C334 0.929 . S
C326 H320 0.930 . S
C326 C327 1.367 . S
C326 C334 1.378 . S
C327 C326 1.367 . S
C327 C335 1.433 . S
C328 H324 0.929 . S
C328 C330 1.378 . S
C328 C332 1.350 . S
C329 C332 1.463 1_565 S
C329 C334 1.350 . S
C329 N337 1.427 . S
C330 H321 0.930 . S
C330 C328 1.378 . S
C330 C331 1.367 . S
C331 C330 1.367 . S
C331 C333 1.433 . S
C332 C328 1.350 . S
C332 C329 1.463 1_545 S
C332 N336 1.427 . S
C333 H323 0.929 . S
C333 C331 1.433 . S
C333 N336 1.384 . S
C334 H325 0.929 . S
C334 C326 1.378 . S
C334 C329 1.350 . S
C335 H322 0.929 . S
C335 C327 1.433 . S
C335 N337 1.384 . S
N336 C332 1.427 . S
N336 C333 1.384 . S
N337 C329 1.427 . S
N337 C335 1.384 . S
H338 C344 0.930 . S
H339 C348 0.930 . S
H340 C353 0.929 . S
H341 C351 0.929 . S
H342 C346 0.929 . S
H343 C352 0.929 . S
C344 H338 0.930 . S
C344 C345 1.367 . S
C344 C352 1.378 . S
C345 C344 1.367 . S
C345 C353 1.433 . S
C346 H342 0.929 . S
C346 C348 1.378 . S
C346 C350 1.350 . S
C347 C350 1.463 1_565 S
C347 C352 1.350 . S
C347 N355 1.427 . S
C348 H339 0.930 . S
C348 C346 1.378 . S
C348 C349 1.367 . S
C349 C348 1.367 . S
C349 C351 1.433 . S
C350 C346 1.350 . S
C350 C347 1.463 1_545 S
C350 N354 1.427 . S
C351 H341 0.929 . S
C351 C349 1.433 . S
C351 N354 1.384 . S
C352 H343 0.929 . S
C352 C344 1.378 . S
C352 C347 1.350 . S
C353 H340 0.929 . S
C353 C345 1.433 . S
C353 N355 1.384 . S
N354 C350 1.427 . S
N354 C351 1.384 . S
N355 C347 1.427 . S
N355 C353 1.384 . S
H356 C362 0.930 . S
H357 C366 0.930 . S
H358 C371 0.929 . S
H359 C369 0.929 . S
H360 C364 0.929 . S
H361 C370 0.929 . S
C362 H356 0.930 . S
C362 C363 1.367 . S
C362 C370 1.378 . S
C363 C362 1.367 . S
C363 C371 1.433 . S
C364 H360 0.929 . S
C364 C366 1.378 . S
C364 C368 1.350 . S
C365 C368 1.463 1_545 S
C365 C370 1.350 . S
C365 N373 1.427 . S
C366 H357 0.930 . S
C366 C364 1.378 . S
C366 C367 1.367 . S
C367 C366 1.367 . S
C367 C369 1.433 . S
C368 C364 1.350 . S
C368 C365 1.463 1_565 S
C368 N372 1.427 . S
C369 H359 0.929 . S
C369 C367 1.433 . S
C369 N372 1.384 . S
C370 H361 0.929 . S
C370 C362 1.378 . S
C370 C365 1.350 . S
C371 H358 0.929 . S
C371 C363 1.433 . S
C371 N373 1.384 . S
N372 C368 1.427 . S
N372 C369 1.384 . S
N373 C365 1.427 . S
N373 C371 1.384 . S
H374 C380 0.930 . S
H375 C384 0.930 . S
H376 C389 0.929 . S
H377 C387 0.929 . S
H378 C382 0.929 1_565 S
H379 C388 0.929 1_545 S
C380 H374 0.930 . S
C380 C381 1.367 . S
C380 C388 1.378 . S
C381 C380 1.367 . S
C381 C389 1.433 . S
C382 H378 0.929 1_545 S
C382 C384 1.378 . S
C382 C386 1.350 . S
C383 C386 1.463 1_565 S
C383 C388 1.350 . S
C383 N391 1.427 . S
C384 H375 0.930 . S
C384 C382 1.378 . S
C384 C385 1.367 . S
C385 C384 1.367 . S
C385 C387 1.433 . S
C386 C382 1.350 . S
C386 C383 1.463 1_545 S
C386 N390 1.427 . S
C387 H377 0.929 . S
C387 C385 1.433 . S
C387 N390 1.384 . S
C388 H379 0.929 1_565 S
C388 C380 1.378 . S
C388 C383 1.350 . S
C389 H376 0.929 . S
C389 C381 1.433 . S
C389 N391 1.384 . S
N390 C386 1.427 . S
N390 C387 1.384 . S
N391 C383 1.427 . S
N391 C389 1.384 . S
H392 C398 0.930 . S
H393 C402 0.930 . S
H394 C407 0.929 . S
H395 C405 0.929 . S
H396 C400 0.929 . S
H397 C406 0.929 . S
C398 H392 0.930 . S
C398 C399 1.367 . S
C398 C406 1.378 . S
C399 C398 1.367 . S
C399 C407 1.433 . S
C400 H396 0.929 . S
C400 C402 1.378 . S
C400 C404 1.350 . S
C401 C404 1.463 1_565 S
C401 C406 1.350 . S
C401 N409 1.427 . S
C402 H393 0.930 . S
C402 C400 1.378 . S
C402 C403 1.367 . S
C403 C402 1.367 . S
C403 C405 1.433 . S
C404 C400 1.350 . S
C404 C401 1.463 1_545 S
C404 N408 1.427 . S
C405 H395 0.929 . S
C405 C403 1.433 . S
C405 N408 1.384 . S
C406 H397 0.929 . S
C406 C398 1.378 . S
C406 C401 1.350 . S
C407 H394 0.929 . S
C407 C399 1.433 . S
C407 N409 1.384 . S
N408 C404 1.427 . S
N408 C405 1.384 . S
N409 C401 1.427 . S
N409 C407 1.384 . S
H410 C416 0.930 . S
H411 C420 0.930 . S
H412 C425 0.929 . S
H413 C423 0.929 . S
H414 C418 0.929 1_545 S
H415 C424 0.929 . S
C416 H410 0.930 . S
C416 C417 1.367 . S
C416 C424 1.378 1_545 S
C417 C416 1.367 . S
C417 C425 1.433 . S
C418 H414 0.929 1_565 S
C418 C420 1.378 . S
C418 C422 1.350 . S
C419 C422 1.463 1_545 S
C419 C424 1.350 1_545 S
C419 N427 1.427 . S
C420 H411 0.930 . S
C420 C418 1.378 . S
C420 C421 1.367 . S
C421 C420 1.367 . S
C421 C423 1.433 . S
C422 C418 1.350 . S
C422 C419 1.463 1_565 S
C422 N426 1.427 . S
C423 H413 0.929 . S
C423 C421 1.433 . S
C423 N426 1.384 . S
C424 H415 0.929 . S
C424 C416 1.378 1_565 S
C424 C419 1.350 1_565 S
C425 H412 0.929 . S
C425 C417 1.433 . S
C425 N427 1.384 . S
N426 C422 1.427 . S
N426 C423 1.384 . S
N427 C419 1.427 . S
N427 C425 1.384 . S
H428 C434 0.930 . S
H429 C438 0.930 . S
H430 C443 0.929 . S
H431 C441 0.929 . S
H432 C436 0.929 . S
H433 C442 0.929 1_545 S
C434 H428 0.930 . S
C434 C435 1.367 . S
C434 C442 1.378 . S
C435 C434 1.367 . S
C435 C443 1.433 . S
C436 H432 0.929 . S
C436 C438 1.378 . S
C436 C440 1.350 . S
C437 C440 1.463 1_565 S
C437 C442 1.350 . S
C437 N445 1.427 . S
C438 H429 0.930 . S
C438 C436 1.378 . S
C438 C439 1.367 . S
C439 C438 1.367 . S
C439 C441 1.433 . S
C440 C436 1.350 . S
C440 C437 1.463 1_545 S
C440 N444 1.427 . S
C441 H431 0.929 . S
C441 C439 1.433 . S
C441 N444 1.384 . S
C442 H433 0.929 1_565 S
C442 C434 1.378 . S
C442 C437 1.350 . S
C443 H430 0.929 . S
C443 C435 1.433 . S
C443 N445 1.384 . S
N444 C440 1.427 . S
N444 C441 1.384 . S
N445 C437 1.427 . S
N445 C443 1.384 . S
H446 C452 0.930 . S
H447 C456 0.930 . S
H448 C461 0.929 . S
H449 C459 0.929 . S
H450 C454 0.929 . S
H451 C460 0.929 . S
C452 H446 0.930 . S
C452 C453 1.367 . S
C452 C460 1.378 . S
C453 C452 1.367 . S
C453 C461 1.433 . S
C454 H450 0.929 . S
C454 C456 1.378 . S
C454 C458 1.350 . S
C455 C458 1.463 1_565 S
C455 C460 1.350 . S
C455 N463 1.427 1_565 S
C456 H447 0.930 . S
C456 C454 1.378 . S
C456 C457 1.367 . S
C457 C456 1.367 . S
C457 C459 1.433 . S
C458 C454 1.350 . S
C458 C455 1.463 1_545 S
C458 N462 1.427 . S
C459 H449 0.929 . S
C459 C457 1.433 . S
C459 N462 1.384 . S
C460 H451 0.929 . S
C460 C452 1.378 . S
C460 C455 1.350 . S
C461 H448 0.929 . S
C461 C453 1.433 . S
C461 N463 1.384 1_565 S
N462 C458 1.427 . S
N462 C459 1.384 . S
N463 C455 1.427 1_545 S
N463 C461 1.384 1_545 S
H464 C470 0.930 . S
H465 C474 0.930 . S
H466 C479 0.929 . S
H467 C477 0.929 . S
H468 C472 0.929 . S
H469 C478 0.929 . S
C470 H464 0.930 . S
C470 C471 1.367 . S
C470 C478 1.378 . S
C471 C470 1.367 . S
C471 C479 1.433 . S
C472 H468 0.929 . S
C472 C474 1.378 . S
C472 C476 1.350 . S
C473 C476 1.463 . S
C473 C478 1.350 . S
C473 N481 1.427 . S
C474 H465 0.930 . S
C474 C472 1.378 . S
C474 C475 1.367 . S
C475 C474 1.367 . S
C475 C477 1.433 . S
C476 C472 1.350 . S
C476 C473 1.463 . S
C476 N480 1.427 . S
C477 H467 0.929 . S
C477 C475 1.433 . S
C477 N480 1.384 . S
C478 H469 0.929 . S
C478 C470 1.378 . S
C478 C473 1.350 . S
C479 H466 0.929 . S
C479 C471 1.433 . S
C479 N481 1.384 . S
N480 C476 1.427 . S
N480 C477 1.384 . S
N481 C473 1.427 . S
N481 C479 1.384 . S
H482 C488 0.930 . S
H483 C492 0.930 . S
H484 C497 0.929 . S
H485 C495 0.929 . S
H486 C490 0.929 . S
H487 C496 0.929 . S
C488 H482 0.930 . S
C488 C489 1.367 . S
C488 C496 1.378 . S
C489 C488 1.367 . S
C489 C497 1.433 . S
C490 H486 0.929 . S
C490 C492 1.378 . S
C490 C494 1.350 . S
C491 C494 1.463 . S
C491 C496 1.350 . S
C491 N499 1.427 . S
C492 H483 0.930 . S
C492 C490 1.378 . S
C492 C493 1.367 . S
C493 C492 1.367 . S
C493 C495 1.433 . S
C494 C490 1.350 . S
C494 C491 1.463 . S
C494 N498 1.427 . S
C495 H485 0.929 . S
C495 C493 1.433 . S
C495 N498 1.384 . S
C496 H487 0.929 . S
C496 C488 1.378 . S
C496 C491 1.350 . S
C497 H484 0.929 . S
C497 C489 1.433 . S
C497 N499 1.384 . S
N498 C494 1.427 . S
N498 C495 1.384 . S
N499 C491 1.427 . S
N499 C497 1.384 . S
H500 C506 0.930 . S
H501 C510 0.930 . S
H502 C515 0.929 . S
H503 C513 0.929 . S
H504 C508 0.929 . S
H505 C514 0.929 . S
C506 H500 0.930 . S
C506 C507 1.367 . S
C506 C514 1.378 . S
C507 C506 1.367 . S
C507 C515 1.433 . S
C508 H504 0.929 . S
C508 C510 1.378 . S
C508 C512 1.350 . S
C509 C512 1.463 . S
C509 C514 1.350 . S
C509 N517 1.427 . S
C510 H501 0.930 . S
C510 C508 1.378 . S
C510 C511 1.367 . S
C511 C510 1.367 . S
C511 C513 1.433 . S
C512 C508 1.350 . S
C512 C509 1.463 . S
C512 N516 1.427 . S
C513 H503 0.929 . S
C513 C511 1.433 . S
C513 N516 1.384 . S
C514 H505 0.929 . S
C514 C506 1.378 . S
C514 C509 1.350 . S
C515 H502 0.929 . S
C515 C507 1.433 . S
C515 N517 1.384 . S
N516 C512 1.427 . S
N516 C513 1.384 . S
N517 C509 1.427 . S
N517 C515 1.384 . S
H518 C524 0.930 . S
H519 C528 0.930 . S
H520 C533 0.929 . S
H521 C531 0.929 . S
H522 C526 0.929 . S
H523 C532 0.929 . S
C524 H518 0.930 . S
C524 C525 1.367 . S
C524 C532 1.378 . S
C525 C524 1.367 . S
C525 C533 1.433 . S
C526 H522 0.929 . S
C526 C528 1.378 . S
C526 C530 1.350 . S
C527 C530 1.463 . S
C527 C532 1.350 . S
C527 N535 1.427 . S
C528 H519 0.930 . S
C528 C526 1.378 . S
C528 C529 1.367 . S
C529 C528 1.367 . S
C529 C531 1.433 . S
C530 C526 1.350 . S
C530 C527 1.463 . S
C530 N534 1.427 . S
C531 H521 0.929 . S
C531 C529 1.433 . S
C531 N534 1.384 . S
C532 H523 0.929 . S
C532 C524 1.378 . S
C532 C527 1.350 . S
C533 H520 0.929 . S
C533 C525 1.433 . S
C533 N535 1.384 . S
N534 C530 1.427 . S
N534 C531 1.384 . S
N535 C527 1.427 . S
N535 C533 1.384 . S
H536 C542 0.930 . S
H537 C546 0.930 . S
H538 C551 0.929 . S
H539 C549 0.929 . S
H540 C544 0.929 . S
H541 C550 0.929 . S
C542 H536 0.930 . S
C542 C543 1.367 . S
C542 C550 1.378 . S
C543 C542 1.367 . S
C543 C551 1.433 . S
C544 H540 0.929 . S
C544 C546 1.378 . S
C544 C548 1.350 . S
C545 C548 1.463 . S
C545 C550 1.350 . S
C545 N553 1.427 . S
C546 H537 0.930 . S
C546 C544 1.378 . S
C546 C547 1.367 . S
C547 C546 1.367 . S
C547 C549 1.433 . S
C548 C544 1.350 . S
C548 C545 1.463 . S
C548 N552 1.427 . S
C549 H539 0.929 . S
C549 C547 1.433 . S
C549 N552 1.384 . S
C550 H541 0.929 . S
C550 C542 1.378 . S
C550 C545 1.350 . S
C551 H538 0.929 . S
C551 C543 1.433 . S
C551 N553 1.384 . S
N552 C548 1.427 . S
N552 C549 1.384 . S
N553 C545 1.427 . S
N553 C551 1.384 . S
H554 C560 0.930 . S
H555 C564 0.930 . S
H556 C569 0.929 . S
H557 C567 0.929 . S
H558 C562 0.929 . S
H559 C568 0.929 . S
C560 H554 0.930 . S
C560 C561 1.367 . S
C560 C568 1.378 . S
C561 C560 1.367 . S
C561 C569 1.433 . S
C562 H558 0.929 . S
C562 C564 1.378 . S
C562 C566 1.350 . S
C563 C566 1.463 . S
C563 C568 1.350 . S
C563 N571 1.427 . S
C564 H555 0.930 . S
C564 C562 1.378 . S
C564 C565 1.367 . S
C565 C564 1.367 . S
C565 C567 1.433 . S
C566 C562 1.350 . S
C566 C563 1.463 . S
C566 N570 1.427 . S
C567 H557 0.929 . S
C567 C565 1.433 . S
C567 N570 1.384 . S
C568 H559 0.929 . S
C568 C560 1.378 . S
C568 C563 1.350 . S
C569 H556 0.929 . S
C569 C561 1.433 . S
C569 N571 1.384 . S
N570 C566 1.427 . S
N570 C567 1.384 . S
N571 C563 1.427 . S
N571 C569 1.384 . S
H572 C578 0.930 . S
H573 C582 0.930 . S
H574 C587 0.929 . S
H575 C585 0.929 . S
H576 C580 0.929 . S
H577 C586 0.929 . S
C578 H572 0.930 . S
C578 C579 1.367 . S
C578 C586 1.378 . S
C579 C578 1.367 . S
C579 C587 1.433 . S
C580 H576 0.929 . S
C580 C582 1.378 . S
C580 C584 1.350 . S
C581 C584 1.463 . S
C581 C586 1.350 . S
C581 N589 1.427 . S
C582 H573 0.930 . S
C582 C580 1.378 . S
C582 C583 1.367 . S
C583 C582 1.367 . S
C583 C585 1.433 . S
C584 C580 1.350 . S
C584 C581 1.463 . S
C584 N588 1.427 . S
C585 H575 0.929 . S
C585 C583 1.433 . S
C585 N588 1.384 . S
C586 H577 0.929 . S
C586 C578 1.378 . S
C586 C581 1.350 . S
C587 H574 0.929 . S
C587 C579 1.433 . S
C587 N589 1.384 . S
N588 C584 1.427 . S
N588 C585 1.384 . S
N589 C581 1.427 . S
N589 C587 1.384 . S
H590 C596 0.930 . S
H591 C600 0.930 . S
H592 C605 0.929 . S
H593 C603 0.929 . S
H594 C598 0.929 . S
H595 C604 0.929 . S
C596 H590 0.930 . S
C596 C597 1.367 . S
C596 C604 1.378 . S
C597 C596 1.367 . S
C597 C605 1.433 . S
C598 H594 0.929 . S
C598 C600 1.378 . S
C598 C602 1.350 . S
C599 C602 1.463 . S
C599 C604 1.350 . S
C599 N607 1.427 . S
C600 H591 0.930 . S
C600 C598 1.378 . S
C600 C601 1.367 . S
C601 C600 1.367 . S
C601 C603 1.433 . S
C602 C598 1.350 . S
C602 C599 1.463 . S
C602 N606 1.427 . S
C603 H593 0.929 . S
C603 C601 1.433 . S
C603 N606 1.384 . S
C604 H595 0.929 . S
C604 C596 1.378 . S
C604 C599 1.350 . S
C605 H592 0.929 . S
C605 C597 1.433 . S
C605 N607 1.384 . S
N606 C602 1.427 . S
N606 C603 1.384 . S
N607 C599 1.427 . S
N607 C605 1.384 . S
C183 C15 1.628 . S
C187 C95 1.628 . S
C201 C128 1.534 . S
C205 C30 1.533 . S
C219 C62 1.534 . S
C223 C150 1.534 . S
C237 C87 1.631 . S
C241 C161 1.631 . S
C255 C74 1.534 . S
C259 C172 1.534 . S
C273 C117 1.633 . S
C277 C43 1.632 . S
C291 C139 1.629 . S
C295 C51 1.628 . S
C309 C10 1.533 . S
C313 C106 1.534 . S
C327 C125 1.394 . S
C331 C18 1.399 . S
C345 C29 1.451 . S
C349 C147 1.449 . S
C363 C162 1.399 . S
C367 C59 1.390 . S
C381 C96 1.339 . S
C385 C76 1.339 . S
C399 C98 1.398 . S
C403 C81 1.392 . S
C417 C175 1.448 . S
C421 C65 1.453 . S
C435 C40 1.399 . S
C439 C153 1.392 . S
C453 C120 1.336 . S
C457 C8 1.336 . S
C471 C169 1.392 . S
C475 C52 1.400 . S
C489 C103 1.452 . S
C493 C73 1.449 . S
C507 C118 1.399 . S
C511 C21 1.393 . S
C525 C32 1.339 . S
C529 C140 1.338 . S
C543 C142 1.396 . S
C547 C37 1.386 . S
C561 C7 1.452 . S
C565 C131 1.450 . S
C579 C109 1.387 . S
C583 C84 1.396 . S
C597 C164 1.336 . S
C601 C54 1.336 . S
