# Generated by pormake.
# Topology rac, (4)-cn, num edge types: 1
# Building blocks:
#     Node 0, Type 0, BuildingBlock: KUFVIS_clean_sbu_0, # of connection points: 4
#     Node 1, Type 0, BuildingBlock: KUFVIS_clean_sbu_0, # of connection points: 4
#     Node 2, Type 0, BuildingBlock: KUFVIS_clean_sbu_0, # of connection points: 4
#     Node 3, Type 0, BuildingBlock: KUFVIS_clean_sbu_0, # of connection points: 4
#     Node 4, Type 0, BuildingBlock: KUFVIS_clean_sbu_0, # of connection points: 4
#     Node 5, Type 0, BuildingBlock: KUFVIS_clean_sbu_0, # of connection points: 4
#     Node 6, Type 0, BuildingBlock: KUFVIS_clean_sbu_0, # of connection points: 4
#     Node 7, Type 0, BuildingBlock: KUFVIS_clean_sbu_0, # of connection points: 4
#     Edge 8, Type (0, 0), BuildingBlock: CIFDUS_clean_linker_0, # of connection points: 2
#     Edge 9, Type (0, 0), BuildingBlock: CIFDUS_clean_linker_0, # of connection points: 2
#     Edge 10, Type (0, 0), BuildingBlock: CIFDUS_clean_linker_0, # of connection points: 2
#     Edge 11, Type (0, 0), BuildingBlock: CIFDUS_clean_linker_0, # of connection points: 2
#     Edge 12, Type (0, 0), BuildingBlock: CIFDUS_clean_linker_0, # of connection points: 2
#     Edge 13, Type (0, 0), BuildingBlock: CIFDUS_clean_linker_0, # of connection points: 2
#     Edge 14, Type (0, 0), BuildingBlock: CIFDUS_clean_linker_0, # of connection points: 2
#     Edge 15, Type (0, 0), BuildingBlock: CIFDUS_clean_linker_0, # of connection points: 2
#     Edge 16, Type (0, 0), BuildingBlock: CIFDUS_clean_linker_0, # of connection points: 2
#     Edge 17, Type (0, 0), BuildingBlock: CIFDUS_clean_linker_0, # of connection points: 2
#     Edge 18, Type (0, 0), BuildingBlock: CIFDUS_clean_linker_0, # of connection points: 2
#     Edge 19, Type (0, 0), BuildingBlock: CIFDUS_clean_linker_0, # of connection points: 2
#     Edge 20, Type (0, 0), BuildingBlock: CIFDUS_clean_linker_0, # of connection points: 2
#     Edge 21, Type (0, 0), BuildingBlock: CIFDUS_clean_linker_0, # of connection points: 2
#     Edge 22, Type (0, 0), BuildingBlock: CIFDUS_clean_linker_0, # of connection points: 2
#     Edge 23, Type (0, 0), BuildingBlock: CIFDUS_clean_linker_0, # of connection points: 2
# Relax obj value: 0.203
# Max RMSD: 0.072
# Mean RMSD: 0.072
data_MOF--net-rac--node1-KUFVIS_clean_sbu_0--edge1-CIFDUS_clean_linker_0
_symmetry_space_group_name_H-M    P1
_symmetry_Int_Tables_number       1
_symmetry_cell_setting            triclinic
loop_
_symmetry_equiv_pos_as_xyz
'x, y, z'
_cell_length_a     34.815587
_cell_length_b     19.076919
_cell_length_c     31.94424
_cell_angle_alpha  90.769284
_cell_angle_beta   90.388512
_cell_angle_gamma 89.956434
loop_
_atom_site_label
_atom_site_type_symbol
_atom_site_fract_x
_atom_site_fract_y
_atom_site_fract_z
_atom_type_partial_charge
Mn0 Mn 0.38093 0.25953 0.05242 0.0
Mn1 Mn 0.3181 0.20981 0.12793 0.0
C2 C 0.32058 0.30812 0.05432 0.0
C3 C 0.43057 0.33419 0.02866 0.0
C4 C 0.33085 0.12557 0.04818 0.0
O5 O 0.41626 0.21781 0.09594 0.0
O6 O 0.37198 0.182 0.14197 0.0
C7 C 0.3466 0.29615 0.19984 0.0
N8 N 0.31718 0.27395 0.1747 0.0
C9 C 0.27071 0.32969 0.21975 0.0
C10 C 0.30055 0.35199 0.2464 0.0
C11 C 0.3387 0.33548 0.23624 0.0
C12 C 0.28032 0.28938 0.18436 0.0
H13 H 0.37578 0.28355 0.19236 0.0
C14 C 0.40691 0.19124 0.13073 0.0
O15 O 0.42471 0.27218 0.01246 0.0
O16 O 0.40815 0.35226 0.05913 0.0
N17 N 0.26504 0.2341 0.12106 0.0
C18 C 0.24042 0.21773 0.08919 0.0
C19 C 0.20147 0.23597 0.09241 0.0
C20 C 0.18819 0.2709 0.12849 0.0
C21 C 0.21415 0.28831 0.16071 0.0
C22 C 0.2526 0.26832 0.15581 0.0
H23 H 0.25072 0.19251 0.06127 0.0
O24 O 0.34035 0.30565 0.02002 0.0
O25 O 0.33644 0.28125 0.08776 0.0
O26 O 0.35889 0.16148 0.03379 0.0
O27 O 0.31446 0.13985 0.08269 0.0
C28 C 0.20368 0.32708 0.19672 0.0
C29 C 0.2319 0.34737 0.22635 0.0
H30 H 0.29458 0.38293 0.2743 0.0
H31 H 0.36197 0.35293 0.25645 0.0
H32 H 0.18177 0.22347 0.06705 0.0
H33 H 0.1582 0.28553 0.13069 0.0
H34 H 0.17413 0.3429 0.20148 0.0
H35 H 0.22359 0.3781 0.25357 0.0
Mn36 Mn 0.13021 0.70144 0.05426 0.0
Mn37 Mn 0.21432 0.70484 0.10797 0.0
C38 C 0.17912 0.62542 0.03708 0.0
C39 C 0.06979 0.64502 0.04233 0.0
C40 C 0.19613 0.80816 0.04018 0.0
O41 O 0.1144 0.75223 0.10837 0.0
O42 O 0.17372 0.75897 0.13719 0.0
C43 C 0.19084 0.62752 0.18354 0.0
N44 N 0.21505 0.63552 0.15064 0.0
C45 C 0.25963 0.55183 0.17907 0.0
C46 C 0.23519 0.54276 0.21328 0.0
C47 C 0.20047 0.58024 0.21529 0.0
C48 C 0.24817 0.59867 0.14801 0.0
H49 H 0.16468 0.65765 0.18583 0.0
C50 C 0.1377 0.77261 0.13719 0.0
O51 O 0.07703 0.70647 0.02694 0.0
O52 O 0.09582 0.62067 0.06696 0.0
N53 N 0.25643 0.65395 0.08426 0.0
C54 C 0.27477 0.66381 0.04729 0.0
C55 C 0.30837 0.62566 0.03854 0.0
C56 C 0.32323 0.57915 0.06833 0.0
C57 C 0.30392 0.57017 0.10626 0.0
C58 C 0.27001 0.60817 0.1127 0.0
H59 H 0.26359 0.70001 0.02456 0.0
O60 O 0.15387 0.6432 0.00928 0.0
O61 O 0.1761 0.65442 0.07399 0.0
O62 O 0.1607 0.7907 0.03389 0.0
O63 O 0.21796 0.77677 0.06586 0.0
C64 C 0.31669 0.52443 0.13774 0.0
C65 C 0.29463 0.51548 0.1742 0.0
H66 H 0.24273 0.50701 0.23807 0.0
H67 H 0.18146 0.57353 0.2416 0.0
H68 H 0.323 0.63262 0.00911 0.0
H69 H 0.34933 0.55026 0.06163 0.0
H70 H 0.34299 0.49475 0.13384 0.0
H71 H 0.30442 0.47936 0.19782 0.0
Mn72 Mn 0.38629 0.2556 0.44545 0.0
Mn73 Mn 0.31522 0.27589 0.37286 0.0
C74 C 0.32382 0.22668 0.46408 0.0
C75 C 0.43585 0.18349 0.47284 0.0
C76 C 0.34808 0.39544 0.42532 0.0
O77 O 0.41592 0.26307 0.39103 0.0
O78 O 0.36628 0.26613 0.34592 0.0
C79 C 0.31832 0.14485 0.32232 0.0
N80 N 0.29823 0.19005 0.34729 0.0
C81 C 0.23901 0.12984 0.33132 0.0
C82 C 0.25929 0.08238 0.30589 0.0
C83 C 0.29913 0.08984 0.30147 0.0
C84 C 0.25973 0.18381 0.35133 0.0
H85 H 0.34863 0.15111 0.31783 0.0
C86 C 0.40221 0.2621 0.35409 0.0
O87 O 0.43607 0.25117 0.4784 0.0
O88 O 0.40702 0.15824 0.45189 0.0
N89 N 0.26367 0.2845 0.39308 0.0
C90 C 0.24732 0.33949 0.41408 0.0
C91 C 0.20754 0.34014 0.42102 0.0
C92 C 0.18463 0.28536 0.40509 0.0
C93 C 0.20165 0.23122 0.38162 0.0
C94 C 0.24155 0.23312 0.37604 0.0
H95 H 0.26434 0.3826 0.42538 0.0
O96 O 0.35025 0.2421 0.49147 0.0
O97 O 0.33454 0.22842 0.42469 0.0
O98 O 0.37236 0.36156 0.44746 0.0
O99 O 0.32846 0.36803 0.39576 0.0
C100 C 0.18038 0.17656 0.36256 0.0
C101 C 0.19904 0.12599 0.33734 0.0
H102 H 0.24461 0.04044 0.28924 0.0
H103 H 0.31495 0.05377 0.28163 0.0
H104 H 0.19455 0.38315 0.43826 0.0
H105 H 0.15391 0.28624 0.41024 0.0
H106 H 0.14955 0.1736 0.36651 0.0
H107 H 0.18229 0.08479 0.32239 0.0
Mn108 Mn 0.16258 0.84379 0.45984 0.0
Mn109 Mn 0.24752 0.84278 0.41521 0.0
C110 C 0.21569 0.88345 0.49906 0.0
C111 C 0.10601 0.91182 0.47066 0.0
C112 C 0.20603 0.71433 0.43628 0.0
O113 O 0.15334 0.83673 0.39577 0.0
O114 O 0.21009 0.88142 0.37452 0.0
C115 C 0.26846 0.99082 0.40438 0.0
N116 N 0.27762 0.92554 0.41735 0.0
C117 C 0.34245 0.96033 0.43385 0.0
C118 C 0.33426 0.02715 0.41888 0.0
C119 C 0.29669 0.04299 0.4062 0.0
C120 C 0.31295 0.91058 0.43271 0.0
H121 H 0.23966 0.00292 0.39388 0.0
C122 C 0.1747 0.8647 0.3678 0.0
O123 O 0.10563 0.84378 0.47368 0.0
O124 O 0.13829 0.93885 0.46002 0.0
N125 N 0.28534 0.8068 0.45412 0.0
C126 C 0.28312 0.75602 0.4837 0.0
C127 C 0.31612 0.73625 0.50608 0.0
C128 C 0.35051 0.77299 0.50066 0.0
C129 C 0.35072 0.83175 0.47491 0.0
C130 C 0.31715 0.84718 0.45222 0.0
H131 H 0.25625 0.73355 0.49241 0.0
O132 O 0.1843 0.86535 0.51774 0.0
O133 O 0.21414 0.87587 0.45902 0.0
O134 O 0.18201 0.73917 0.46297 0.0
O135 O 0.21957 0.75392 0.40865 0.0
C136 C 0.38179 0.87882 0.4737 0.0
C137 C 0.37761 0.94317 0.45312 0.0
H138 H 0.35567 0.06822 0.42008 0.0
H139 H 0.28924 0.09602 0.40017 0.0
H140 H 0.31462 0.69456 0.52866 0.0
H141 H 0.37564 0.75903 0.51892 0.0
H142 H 0.40821 0.86792 0.49053 0.0
H143 H 0.40077 0.98072 0.45447 0.0
Mn144 Mn 0.64847 0.67392 0.94734 0.0
Mn145 Mn 0.72078 0.64977 0.8797 0.0
C146 C 0.70043 0.60381 0.96519 0.0
C147 C 0.58893 0.62261 0.96779 0.0
C148 C 0.71077 0.78432 0.93081 0.0
O149 O 0.62566 0.70779 0.89167 0.0
O150 O 0.67262 0.66952 0.84868 0.0
C151 C 0.69274 0.51741 0.84191 0.0
N152 N 0.72173 0.55565 0.8595 0.0
C153 C 0.76566 0.4591 0.85384 0.0
C154 C 0.73625 0.41882 0.83561 0.0
C155 C 0.69965 0.44784 0.82957 0.0
C156 C 0.75681 0.52754 0.86631 0.0
H157 H 0.66435 0.53919 0.83877 0.0
C158 C 0.63884 0.69366 0.85526 0.0
O159 O 0.59746 0.68691 0.97854 0.0
O160 O 0.61382 0.59124 0.94482 0.0
N161 N 0.76915 0.62827 0.90564 0.0
C162 C 0.79053 0.66671 0.93346 0.0
C163 C 0.8274 0.64355 0.94485 0.0
C164 C 0.84163 0.58026 0.92823 0.0
C165 C 0.81843 0.54001 0.90114 0.0
C166 C 0.78219 0.56647 0.89032 0.0
H167 H 0.77919 0.71352 0.94782 0.0
O168 O 0.67799 0.62761 0.9942 0.0
O169 O 0.69162 0.6221 0.92769 0.0
O170 O 0.68218 0.76552 0.95379 0.0
O171 O 0.72306 0.74711 0.90013 0.0
C172 C 0.82907 0.47317 0.88608 0.0
C173 C 0.80246 0.43242 0.86295 0.0
H174 H 0.74067 0.36422 0.82898 0.0
H175 H 0.67667 0.41613 0.81647 0.0
H176 H 0.84456 0.67388 0.96689 0.0
H177 H 0.86979 0.56186 0.93767 0.0
H178 H 0.85682 0.45109 0.89399 0.0
H179 H 0.81 0.37953 0.85408 0.0
Mn180 Mn 0.89086 0.2411 0.93721 0.0
Mn181 Mn 0.83836 0.18893 0.85255 0.0
C182 C 0.8253 0.26418 0.93696 0.0
C183 C 0.93047 0.32723 0.9708 0.0
C184 C 0.85909 0.09241 0.92342 0.0
O185 O 0.93215 0.22625 0.89328 0.0
O186 O 0.89411 0.19141 0.8403 0.0
C187 C 0.85508 0.30439 0.7943 0.0
N188 N 0.82923 0.26311 0.8141 0.0
C189 C 0.77863 0.29921 0.76743 0.0
C190 C 0.80479 0.34187 0.74648 0.0
C191 C 0.84308 0.34524 0.76039 0.0
C192 C 0.79201 0.26161 0.80201 0.0
H193 H 0.8846 0.30564 0.8041 0.0
C194 C 0.92706 0.2067 0.85555 0.0
O195 O 0.93162 0.26146 0.981 0.0
O196 O 0.90624 0.3429 0.9415 0.0
N197 N 0.78368 0.18274 0.85623 0.0
C198 C 0.76235 0.13596 0.87809 0.0
C199 C 0.72298 0.12871 0.86926 0.0
C200 C 0.70622 0.16713 0.83671 0.0
C201 C 0.72897 0.21264 0.81336 0.0
C202 C 0.7678 0.21943 0.8245 0.0
H203 H 0.7752 0.10433 0.90203 0.0
O204 O 0.8454 0.25764 0.97102 0.0
O205 O 0.8442 0.25501 0.90174 0.0
O206 O 0.88031 0.13436 0.94498 0.0
O207 O 0.84427 0.10801 0.88842 0.0
C208 C 0.71491 0.24955 0.7785 0.0
C209 C 0.73978 0.29245 0.75537 0.0
H210 H 0.7958 0.37222 0.71972 0.0
H211 H 0.86345 0.37816 0.74449 0.0
H212 H 0.7058 0.09236 0.88689 0.0
H213 H 0.67603 0.16018 0.82936 0.0
H214 H 0.68513 0.2447 0.76891 0.0
H215 H 0.7287 0.32033 0.72855 0.0
Mn216 Mn 0.64495 0.82286 0.55604 0.0
Mn217 Mn 0.71562 0.78639 0.62705 0.0
C218 C 0.69848 0.89311 0.56136 0.0
C219 C 0.58854 0.88505 0.53679 0.0
C220 C 0.70778 0.70953 0.54422 0.0
O221 O 0.61681 0.76041 0.59712 0.0
O222 O 0.66664 0.73941 0.6409 0.0
C223 C 0.68355 0.85347 0.7035 0.0
N224 N 0.71306 0.8442 0.67627 0.0
C225 C 0.75629 0.90862 0.72155 0.0
C226 C 0.72642 0.91812 0.75032 0.0
C227 C 0.6898 0.8909 0.74108 0.0
C228 C 0.74835 0.87066 0.68473 0.0
H229 H 0.65562 0.83211 0.69666 0.0
C230 C 0.63144 0.73255 0.62964 0.0
O231 O 0.59919 0.8284 0.51692 0.0
O232 O 0.60927 0.90283 0.56895 0.0
N233 N 0.76467 0.82871 0.6185 0.0
C234 C 0.78874 0.82242 0.58521 0.0
C235 C 0.8255 0.85255 0.58759 0.0
C236 C 0.83735 0.88767 0.62441 0.0
C237 C 0.81212 0.89315 0.65835 0.0
C238 C 0.77574 0.86257 0.65402 0.0
H239 H 0.77985 0.79495 0.55704 0.0
O240 O 0.67862 0.88937 0.5269 0.0
O241 O 0.68735 0.85417 0.59214 0.0
O242 O 0.67645 0.73786 0.53128 0.0
O243 O 0.72322 0.72414 0.57928 0.0
C244 C 0.82121 0.92936 0.69585 0.0
C245 C 0.79343 0.9363 0.72761 0.0
H246 H 0.73115 0.94701 0.77933 0.0
H247 H 0.66653 0.89831 0.76299 0.0
H248 H 0.84473 0.8484 0.5612 0.0
H249 H 0.86569 0.91097 0.62609 0.0
H250 H 0.84924 0.95301 0.70035 0.0
H251 H 0.80065 0.96413 0.7563 0.0
Mn252 Mn 0.90144 0.27353 0.56601 0.0
Mn253 Mn 0.83581 0.27578 0.64383 0.0
C254 C 0.8478 0.20436 0.55942 0.0
C255 C 0.95658 0.21355 0.53937 0.0
C256 C 0.83745 0.38567 0.57533 0.0
O257 O 0.93184 0.31745 0.61426 0.0
O258 O 0.88581 0.3151 0.6631 0.0
C259 C 0.87129 0.181 0.70584 0.0
N260 N 0.84058 0.19987 0.68197 0.0
C261 C 0.79798 0.12942 0.72299 0.0
C262 C 0.82911 0.11048 0.74853 0.0
C263 C 0.86603 0.13544 0.73947 0.0
C264 C 0.80506 0.1749 0.68993 0.0
H265 H 0.89933 0.20179 0.69979 0.0
C266 C 0.92012 0.32793 0.65144 0.0
O267 O 0.94767 0.27611 0.5266 0.0
O268 O 0.93528 0.18936 0.56843 0.0
N269 N 0.78592 0.23805 0.63175 0.0
C270 C 0.76104 0.25129 0.59979 0.0
C271 C 0.72346 0.22468 0.60131 0.0
C272 C 0.71203 0.18431 0.63555 0.0
C273 C 0.73883 0.16822 0.66695 0.0
C274 C 0.77599 0.19523 0.66325 0.0
H275 H 0.77026 0.28024 0.57288 0.0
O276 O 0.86755 0.22272 0.52725 0.0
O277 O 0.86015 0.22617 0.59617 0.0
O278 O 0.86776 0.36544 0.55528 0.0
O279 O 0.82634 0.35562 0.60837 0.0
C280 C 0.73067 0.12422 0.70088 0.0
C281 C 0.76018 0.10543 0.72912 0.0
H282 H 0.82507 0.07687 0.77518 0.0
H283 H 0.89022 0.12077 0.7589 0.0
H284 H 0.7034 0.23513 0.57613 0.0
H285 H 0.68304 0.16391 0.63665 0.0
H286 H 0.70204 0.10336 0.70503 0.0
H287 H 0.7536 0.07161 0.75504 0.0
H288 H 0.25922 0.11084 0.01475 0.0
H289 H 0.36559 -0.00046 0.03238 0.0
H290 H 0.33194 0.88803 0.0207 0.0
H291 H 0.27124 0.82361 0.02169 0.0
H292 H 0.16333 0.9346 0.0172 0.0
H293 H 0.19824 0.04516 0.00779 0.0
C294 C 0.27511 0.06232 0.0158 0.0
C295 C 0.31486 0.06364 0.02532 0.0
C296 C 0.25495 -0.00156 0.01219 0.0
C297 C 0.33523 0.00025 0.02472 0.0
C298 C 0.31577 0.93645 0.01874 0.0
C299 C 0.25509 0.87163 0.01762 0.0
C300 C 0.21448 0.87056 0.02075 0.0
C301 C 0.27542 0.935 0.01484 0.0
C302 C 0.19434 0.93344 0.01481 0.0
C303 C 0.21444 -0.0032 0.00997 0.0
H304 H 0.26504 0.66821 0.38908 0.0
H305 H 0.19695 0.60809 0.49532 0.0
H306 H 0.2416 0.50991 0.50784 0.0
H307 H 0.29967 0.44034 0.48646 0.0
H308 H 0.3671 0.51005 0.38237 0.0
H309 H 0.32474 0.61068 0.37387 0.0
C310 C 0.2593 0.63403 0.41516 0.0
C311 C 0.22688 0.64577 0.44091 0.0
C312 C 0.28632 0.58185 0.42389 0.0
C313 C 0.22094 0.60001 0.47441 0.0
C314 C 0.24701 0.54481 0.48206 0.0
C315 C 0.30612 0.47973 0.46336 0.0
C316 C 0.33695 0.4683 0.43537 0.0
C317 C 0.28013 0.5358 0.45723 0.0
C318 C 0.34429 0.51846 0.40482 0.0
C319 C 0.31935 0.57484 0.39921 0.0
H320 H 0.78301 0.80775 0.90356 0.0
H321 H 0.69554 0.90362 0.98065 0.0
H322 H 0.73854 0.00478 0.99318 0.0
H323 H 0.7993 0.06931 0.97583 0.0
H324 H 0.88543 0.96469 0.90156 0.0
H325 H 0.84549 0.85988 0.89741 0.0
C326 C 0.77304 0.84936 0.92417 0.0
C327 C 0.73548 0.84717 0.94104 0.0
C328 C 0.79837 0.90479 0.93278 0.0
C329 C 0.72392 0.90336 0.96698 0.0
C330 C 0.74871 0.961 0.97436 0.0
C331 C 0.81013 0.02209 0.96074 0.0
C332 C 0.84582 0.02441 0.93962 0.0
C333 C 0.78597 0.96252 0.95701 0.0
C334 C 0.85881 0.96376 0.91894 0.0
C335 C 0.83545 0.90445 0.91569 0.0
H336 H 0.69102 0.57522 0.55118 0.0
H337 H 0.77144 0.714 0.49407 0.0
H338 H 0.82048 0.62124 0.49324 0.0
H339 H 0.84424 0.50563 0.52255 0.0
H340 H 0.76241 0.38885 0.59543 0.0
H341 H 0.71197 0.46386 0.57555 0.0
C342 C 0.71857 0.58387 0.53633 0.0
C343 C 0.72705 0.65084 0.52195 0.0
C344 C 0.74759 0.53295 0.53986 0.0
C345 C 0.76364 0.66215 0.50448 0.0
C346 C 0.79214 0.60941 0.50501 0.0
C347 C 0.81532 0.49605 0.53338 0.0
C348 C 0.80808 0.43767 0.55917 0.0
C349 C 0.78522 0.54534 0.52496 0.0
C350 C 0.76997 0.42899 0.57364 0.0
C351 C 0.74029 0.47347 0.56289 0.0
H352 H 0.42017 0.09792 0.19354 0.0
H353 H 0.45466 0.29945 0.14761 0.0
H354 H 0.46366 0.34285 0.21894 0.0
H355 H 0.44 0.33234 0.29221 0.0
H356 H 0.41594 0.12658 0.33917 0.0
H357 H 0.42504 0.07541 0.26956 0.0
C358 C 0.43215 0.14974 0.19905 0.0
C359 C 0.43501 0.1963 0.16553 0.0
C360 C 0.43769 0.1744 0.24034 0.0
C361 C 0.45155 0.26274 0.17297 0.0
C362 C 0.45601 0.28831 0.21396 0.0
C363 C 0.43903 0.27593 0.28764 0.0
C364 C 0.42602 0.23336 0.32008 0.0
C365 C 0.44584 0.24623 0.24775 0.0
C366 C 0.42533 0.16028 0.31416 0.0
C367 C 0.43025 0.13097 0.2743 0.0
H368 H 0.11658 0.7925 0.32755 0.0
H369 H 0.20001 0.95639 0.31057 0.0
H370 H 0.18767 0.95503 0.23549 0.0
H371 H 0.16375 0.89021 0.17421 0.0
H372 H 0.0832 0.72167 0.1894 0.0
H373 H 0.0826 0.74309 0.26523 0.0
C374 C 0.1312 0.82922 0.30752 0.0
C375 C 0.15989 0.8735 0.32451 0.0
C376 C 0.12453 0.82693 0.26388 0.0
C377 C 0.17842 0.92095 0.29813 0.0
C378 C 0.17135 0.92021 0.25516 0.0
C379 C 0.14466 0.8605 0.194 0.0
C380 C 0.12357 0.80458 0.17643 0.0
C381 C 0.14593 0.87106 0.23752 0.0
C382 C 0.09924 0.76572 0.20222 0.0
C383 C 0.09953 0.7771 0.2457 0.0
H384 H 0.62434 0.5977 0.7953 0.0
H385 H 0.60092 0.81212 0.83024 0.0
H386 H 0.58071 0.83655 0.75811 0.0
H387 H 0.5875 0.80408 0.68359 0.0
H388 H 0.62414 0.59563 0.64967 0.0
H389 H 0.61888 0.55952 0.72243 0.0
C390 C 0.6137 0.64919 0.78741 0.0
C391 C 0.61475 0.70341 0.81763 0.0
C392 C 0.60427 0.66333 0.74571 0.0
C393 C 0.60034 0.76969 0.80737 0.0
C394 C 0.58911 0.78364 0.76606 0.0
C395 C 0.59223 0.74981 0.69201 0.0
C396 C 0.6066 0.70261 0.66168 0.0
C397 C 0.59331 0.73192 0.73455 0.0
C398 C 0.61287 0.63258 0.67255 0.0
C399 C 0.61076 0.61254 0.71434 0.0
H400 H 0.96832 0.22823 0.67545 0.0
H401 H 0.93113 0.43745 0.70635 0.0
H402 H 0.94882 0.41991 0.77967 0.0
H403 H 0.95161 0.33361 0.83538 0.0
H404 H 0.96441 0.11528 0.80326 0.0
H405 H 0.98118 0.14575 0.7316 0.0
C406 C 0.96623 0.27112 0.69801 0.0
C407 C 0.94843 0.3339 0.68577 0.0
C408 C 0.9712 0.25703 0.74079 0.0
C409 C 0.94501 0.3889 0.71508 0.0
C410 C 0.95447 0.37819 0.75718 0.0
C411 C 0.9603 0.29319 0.81313 0.0
C412 C 0.95666 0.22241 0.82432 0.0
C413 C 0.96426 0.31067 0.77076 0.0
C414 C 0.96721 0.17008 0.79535 0.0
C415 C 0.97603 0.18764 0.75412 0.0
H416 H 0.44684 0.47053 0.05325 0.0
H417 H 0.48277 0.30648 0.96762 0.0
H418 H 0.53264 0.3826 0.9405 0.0
H419 H 0.56711 0.49348 0.9416 0.0
H420 H 0.5337 0.65961 0.02673 0.0
H421 H 0.48151 0.58543 0.05305 0.0
C422 C 0.46561 0.45144 0.02866 0.0
C423 C 0.46096 0.38224 0.0127 0.0
C424 C 0.49457 0.49604 0.01294 0.0
C425 C 0.48552 0.35894 0.98068 0.0
C426 C 0.51412 0.40263 0.96505 0.0
C427 C 0.5484 0.51413 0.96581 0.0
C428 C 0.55456 0.58247 0.98212 0.0
C429 C 0.519 0.471 0.981 0.0
C430 C 0.52969 0.60763 0.01339 0.0
C431 C 0.49995 0.5649 0.02859 0.0
H432 H 0.05478 0.51225 0.06735 0.0
H433 H 1.01182 0.6717 0.9848 0.0
H434 H 0.96397 0.5887 0.95657 0.0
H435 H 0.93683 0.46777 0.95246 0.0
H436 H 0.98248 0.30913 0.0341 0.0
H437 H 0.02667 0.39462 0.06521 0.0
C438 C 0.03471 0.52953 0.04351 0.0
C439 C 0.03707 0.59878 0.02843 0.0
C440 C 1.0079 0.48104 0.02682 0.0
C441 C 1.01073 0.61927 0.99731 0.0
C442 C 0.98347 0.57147 0.98094 0.0
C443 C 0.95632 0.45193 0.9772 0.0
C444 C 0.95623 0.38142 0.99068 0.0
C445 C 0.98217 0.50174 0.99495 0.0
C446 C 0.98178 0.36243 0.02287 0.0
C447 C 1.00715 0.41151 0.04076 0.0
H448 H 0.5703 0.01751 0.56377 0.0
H449 H 0.53527 0.85706 0.47506 0.0
H450 H 0.4855 0.93507 0.44757 0.0
H451 H 0.45344 0.05075 0.44686 0.0
H452 H 0.48839 0.21113 0.53533 0.0
H453 H 0.53739 0.13236 0.56383 0.0
C454 C 0.55161 -0.00076 0.53863 0.0
C455 C 0.55657 0.93097 0.52172 0.0
C456 C 0.52335 0.04495 0.52249 0.0
C457 C 0.53219 0.90893 0.48883 0.0
C458 C 0.50376 0.95374 0.47296 0.0
C459 C 0.47124 0.06796 0.47295 0.0
C460 C 0.46663 0.1365 0.4894 0.0
C461 C 0.49924 0.02204 0.48933 0.0
C462 C 0.49114 0.15884 0.52206 0.0
C463 C 0.51909 0.11358 0.5385 0.0
H464 H 0.96148 0.07235 0.54399 0.0
H465 H 1.02 0.25039 0.4925 0.0
H466 H 0.0705 0.17212 0.46535 0.0
H467 H 0.09906 0.05314 0.45873 0.0
H468 H 0.03859 0.87579 0.50873 0.0
H469 H 0.98756 0.95385 0.53365 0.0
C470 C 0.98527 0.09439 0.52684 0.0
C471 C 0.9871 0.16767 0.52081 0.0
C472 C 1.01377 0.04897 0.51094 0.0
C473 C 1.01786 0.19458 0.49781 0.0
C474 C 0.04675 0.14969 0.48232 0.0
C475 C 0.07454 0.03133 0.47475 0.0
C476 C 0.07286 0.95821 0.48191 0.0
C477 C 0.04515 0.0768 0.489 0.0
C478 C 0.04073 0.93135 0.50262 0.0
C479 C 1.0116 0.97617 0.51707 0.0
H480 H 0.19497 0.53141 0.09524 0.0
H481 H 0.20827 0.5719 0.96392 0.0
H482 H 0.24671 0.46435 0.9559 0.0
H483 H 0.28271 0.36753 0.98909 0.0
H484 H 0.29158 0.37106 0.12296 0.0
H485 H 0.23478 0.44433 0.12827 0.0
C486 C 0.20717 0.51778 0.06508 0.0
C487 C 0.20106 0.56099 0.03081 0.0
C488 C 0.23154 0.46048 0.06158 0.0
C489 C 0.21419 0.54021 0.9911 0.0
C490 C 0.23599 0.479 0.98656 0.0
C491 C 0.27216 0.38449 0.01944 0.0
C492 C 0.28768 0.35607 0.05633 0.0
C493 C 0.24602 0.4402 0.02204 0.0
C494 C 0.27579 0.38272 0.09497 0.0
C495 C 0.24503 0.42843 0.0977 0.0
H496 H 0.34062 0.10832 0.50362 0.0
H497 H 0.24448 0.23334 0.46468 0.0
H498 H 0.20041 0.1386 0.48128 0.0
H499 H 0.19147 0.01437 0.49676 0.0
H500 H 0.28768 0.8881 0.53503 0.0
H501 H 0.32972 0.99127 0.5327 0.0
C502 C 0.30991 0.11505 0.49915 0.0
C503 C 0.29579 0.17496 0.47875 0.0
C504 C 0.28504 0.06092 0.51024 0.0
C505 C 0.25614 0.18476 0.47536 0.0
C506 C 0.23096 0.13137 0.48641 0.0
C507 C 0.22141 0.0101 0.50598 0.0
C508 C 0.23702 0.94412 0.51503 0.0
C509 C 0.24537 0.06815 0.50205 0.0
C510 C 0.27549 0.93857 0.52739 0.0
C511 C 0.29941 -0.00268 0.52568 0.0
H512 H 0.6866 0.47572 0.93502 0.0
H513 H 0.76568 0.59413 0.01234 0.0
H514 H 0.81077 0.49505 0.01177 0.0
H515 H 0.83055 0.38373 0.98034 0.0
H516 H 0.74967 0.26168 0.90728 0.0
H517 H 0.70196 0.35382 0.91474 0.0
C518 C 0.71354 0.47904 0.95222 0.0
C519 C 0.7241 0.54209 0.97221 0.0
C520 C 0.73888 0.4223 0.95173 0.0
C521 C 0.75792 0.54609 0.99592 0.0
C522 C 0.78351 0.48977 0.99547 0.0
C523 C 0.80236 0.3767 0.96618 0.0
C524 C 0.7945 0.31693 0.94109 0.0
C525 C 0.77489 0.4291 0.97181 0.0
C526 C 0.75762 0.3083 0.9241 0.0
C527 C 0.72992 0.36062 0.92936 0.0
H528 H 0.73427 0.96642 0.50107 0.0
H529 H 0.71734 0.95932 0.63383 0.0
H530 H 0.7719 0.03746 0.64571 0.0
H531 H 0.82218 0.11262 0.61641 0.0
H532 H 0.81364 0.16585 0.48614 0.0
H533 H 0.77092 0.06632 0.4735 0.0
C534 C 0.74236 0.98262 0.53259 0.0
C535 C 0.7262 0.9498 0.56726 0.0
C536 C 0.76803 0.03808 0.53882 0.0
C537 C 0.73389 0.97619 0.60746 0.0
C538 C 0.76359 0.02347 0.61404 0.0
C539 C 0.80894 0.10579 0.58599 0.0
C540 C 0.81932 0.14884 0.55309 0.0
C541 C 0.78078 0.05495 0.57982 0.0
C542 C 0.80516 0.13434 0.51248 0.0
C543 C 0.78073 0.07768 0.50514 0.0
loop_
_geom_bond_atom_site_label_1
_geom_bond_atom_site_label_2
_geom_bond_distance
_geom_bond_site_symmetry_2
_ccdc_geom_bond_type
Mn0 O5 2.095 . S
Mn0 O15 2.167 . S
Mn0 O16 2.297 . S
Mn0 O24 2.385 1_554 S
Mn0 O25 2.209 . S
Mn0 O26 2.094 . S
Mn1 O6 2.121 . S
Mn1 N8 2.257 . S
Mn1 N17 2.282 . S
Mn1 O25 2.215 . S
Mn1 O27 2.117 . S
C2 O24 1.234 1_554 S
C2 O25 1.283 . S
C3 O15 1.284 . S
C3 O16 1.236 . S
C4 O26 1.240 . S
C4 O27 1.264 . S
O5 Mn0 2.095 . S
O5 C14 1.250 . S
O6 Mn1 2.121 . S
O6 C14 1.258 . S
C7 N8 1.326 . S
C7 C11 1.460 . S
C7 H13 0.929 . S
N8 Mn1 2.257 . S
N8 C7 1.326 . S
N8 C12 1.362 . S
C9 C10 1.258 . S
C9 C12 1.431 . S
C9 C29 1.449 . S
C10 C9 1.258 . S
C10 C11 1.477 . S
C10 H30 0.931 . S
C11 C7 1.460 . S
C11 C10 1.477 . S
C11 H31 0.930 . S
C12 N8 1.362 . S
C12 C9 1.431 . S
C12 C22 1.476 . S
H13 C7 0.929 . S
C14 O5 1.250 . S
C14 O6 1.258 . S
O15 Mn0 2.167 . S
O15 C3 1.284 . S
O16 Mn0 2.297 . S
O16 C3 1.236 . S
N17 Mn1 2.282 . S
N17 C18 1.328 . S
N17 C22 1.318 . S
C18 N17 1.328 . S
C18 C19 1.457 . S
C18 H23 0.929 . S
C19 C18 1.457 . S
C19 C20 1.291 . S
C19 H32 0.931 1_554 S
C20 C19 1.291 . S
C20 C21 1.373 . S
C20 H33 0.929 . S
C21 C20 1.373 . S
C21 C22 1.396 . S
C21 C28 1.403 . S
C22 C12 1.476 . S
C22 N17 1.318 . S
C22 C21 1.396 . S
H23 C18 0.929 . S
O24 Mn0 2.385 1_556 S
O24 C2 1.234 1_556 S
O25 Mn0 2.209 . S
O25 Mn1 2.215 . S
O25 C2 1.283 . S
O26 Mn0 2.094 . S
O26 C4 1.240 . S
O27 Mn1 2.117 . S
O27 C4 1.264 . S
C28 C21 1.403 . S
C28 C29 1.399 . S
C28 H34 0.929 . S
C29 C9 1.449 . S
C29 C28 1.399 . S
C29 H35 0.930 . S
H30 C10 0.931 . S
H31 C11 0.930 . S
H32 C19 0.931 1_556 S
H33 C20 0.929 . S
H34 C28 0.929 . S
H35 C29 0.930 . S
Mn36 O41 2.095 . S
Mn36 O51 2.167 . S
Mn36 O52 2.297 . S
Mn36 O60 2.385 1_554 S
Mn36 O61 2.209 . S
Mn36 O62 2.094 . S
Mn37 O42 2.121 . S
Mn37 N44 2.257 . S
Mn37 N53 2.282 . S
Mn37 O61 2.215 . S
Mn37 O63 2.117 . S
C38 O60 1.234 1_554 S
C38 O61 1.283 . S
C39 O51 1.285 . S
C39 O52 1.236 . S
C40 O62 1.240 . S
C40 O63 1.264 . S
O41 Mn36 2.095 . S
O41 C50 1.250 . S
O42 Mn37 2.121 . S
O42 C50 1.258 . S
C43 N44 1.326 . S
C43 C47 1.460 . S
C43 H49 0.929 . S
N44 Mn37 2.257 . S
N44 C43 1.326 . S
N44 C48 1.362 . S
C45 C46 1.258 . S
C45 C48 1.431 . S
C45 C65 1.449 . S
C46 C45 1.258 . S
C46 C47 1.477 . S
C46 H66 0.931 . S
C47 C43 1.460 . S
C47 C46 1.477 . S
C47 H67 0.930 . S
C48 N44 1.362 . S
C48 C45 1.431 . S
C48 C58 1.476 . S
H49 C43 0.929 . S
C50 O41 1.250 . S
C50 O42 1.258 . S
O51 Mn36 2.167 . S
O51 C39 1.285 . S
O52 Mn36 2.297 . S
O52 C39 1.236 . S
N53 Mn37 2.282 . S
N53 C54 1.328 . S
N53 C58 1.318 . S
C54 N53 1.328 . S
C54 C55 1.457 . S
C54 H59 0.929 . S
C55 C54 1.457 . S
C55 C56 1.291 . S
C55 H68 0.931 1_554 S
C56 C55 1.291 . S
C56 C57 1.373 . S
C56 H69 0.929 . S
C57 C56 1.373 . S
C57 C58 1.396 . S
C57 C64 1.403 . S
C58 C48 1.476 . S
C58 N53 1.318 . S
C58 C57 1.396 . S
H59 C54 0.929 . S
O60 Mn36 2.385 1_556 S
O60 C38 1.234 1_556 S
O61 Mn36 2.209 . S
O61 Mn37 2.215 . S
O61 C38 1.283 . S
O62 Mn36 2.094 . S
O62 C40 1.240 . S
O63 Mn37 2.117 . S
O63 C40 1.264 . S
C64 C57 1.403 . S
C64 C65 1.399 . S
C64 H70 0.929 . S
C65 C45 1.449 . S
C65 C64 1.399 . S
C65 H71 0.930 . S
H66 C46 0.931 . S
H67 C47 0.930 . S
H68 C55 0.931 1_556 S
H69 C56 0.929 . S
H70 C64 0.929 . S
H71 C65 0.930 . S
Mn72 O77 2.095 . S
Mn72 O87 2.162 . S
Mn72 O88 2.297 . S
Mn72 O96 2.385 . S
Mn72 O97 2.209 . S
Mn72 O98 2.094 . S
Mn73 O78 2.121 . S
Mn73 N80 2.257 . S
Mn73 N89 2.282 . S
Mn73 O97 2.215 . S
Mn73 O99 2.117 . S
C74 O96 1.234 . S
C74 O97 1.283 . S
C75 O87 1.281 . S
C75 O88 1.236 . S
C76 O98 1.240 . S
C76 O99 1.264 . S
O77 Mn72 2.095 . S
O77 C86 1.250 . S
O78 Mn73 2.121 . S
O78 C86 1.258 . S
C79 N80 1.326 . S
C79 C83 1.460 . S
C79 H85 0.929 . S
N80 Mn73 2.257 . S
N80 C79 1.326 . S
N80 C84 1.362 . S
C81 C82 1.258 . S
C81 C84 1.431 . S
C81 C101 1.449 . S
C82 C81 1.258 . S
C82 C83 1.477 . S
C82 H102 0.931 . S
C83 C79 1.460 . S
C83 C82 1.477 . S
C83 H103 0.930 . S
C84 N80 1.362 . S
C84 C81 1.431 . S
C84 C94 1.476 . S
H85 C79 0.929 . S
C86 O77 1.250 . S
C86 O78 1.258 . S
O87 Mn72 2.162 . S
O87 C75 1.281 . S
O88 Mn72 2.297 . S
O88 C75 1.236 . S
N89 Mn73 2.282 . S
N89 C90 1.328 . S
N89 C94 1.318 . S
C90 N89 1.328 . S
C90 C91 1.457 . S
C90 H95 0.929 . S
C91 C90 1.457 . S
C91 C92 1.291 . S
C91 H104 0.931 . S
C92 C91 1.291 . S
C92 C93 1.373 . S
C92 H105 0.929 . S
C93 C92 1.373 . S
C93 C94 1.396 . S
C93 C100 1.403 . S
C94 C84 1.476 . S
C94 N89 1.318 . S
C94 C93 1.396 . S
H95 C90 0.929 . S
O96 Mn72 2.385 . S
O96 C74 1.234 . S
O97 Mn72 2.209 . S
O97 Mn73 2.215 . S
O97 C74 1.283 . S
O98 Mn72 2.094 . S
O98 C76 1.240 . S
O99 Mn73 2.117 . S
O99 C76 1.264 . S
C100 C93 1.403 . S
C100 C101 1.399 . S
C100 H106 0.929 . S
C101 C81 1.449 . S
C101 C100 1.399 . S
C101 H107 0.930 . S
H102 C82 0.931 . S
H103 C83 0.930 . S
H104 C91 0.931 . S
H105 C92 0.929 . S
H106 C100 0.929 . S
H107 C101 0.930 . S
Mn108 O113 2.095 . S
Mn108 O123 2.162 . S
Mn108 O124 2.297 . S
Mn108 O132 2.385 . S
Mn108 O133 2.209 . S
Mn108 O134 2.094 . S
Mn109 O114 2.121 . S
Mn109 N116 2.257 . S
Mn109 N125 2.282 . S
Mn109 O133 2.215 . S
Mn109 O135 2.117 . S
C110 O132 1.234 . S
C110 O133 1.283 . S
C111 O123 1.281 . S
C111 O124 1.236 . S
C112 O134 1.240 . S
C112 O135 1.264 . S
O113 Mn108 2.095 . S
O113 C122 1.250 . S
O114 Mn109 2.121 . S
O114 C122 1.258 . S
C115 N116 1.326 . S
C115 C119 1.460 . S
C115 H121 0.929 . S
N116 Mn109 2.257 . S
N116 C115 1.326 . S
N116 C120 1.362 . S
C117 C118 1.258 . S
C117 C120 1.431 . S
C117 C137 1.449 . S
C118 C117 1.258 . S
C118 C119 1.477 . S
C118 H138 0.931 . S
C119 C115 1.460 . S
C119 C118 1.477 . S
C119 H139 0.930 . S
C120 N116 1.362 . S
C120 C117 1.431 . S
C120 C130 1.476 . S
H121 C115 0.929 . S
C122 O113 1.250 . S
C122 O114 1.258 . S
O123 Mn108 2.162 . S
O123 C111 1.281 . S
O124 Mn108 2.297 . S
O124 C111 1.236 . S
N125 Mn109 2.282 . S
N125 C126 1.328 . S
N125 C130 1.318 . S
C126 N125 1.328 . S
C126 C127 1.457 . S
C126 H131 0.929 . S
C127 C126 1.457 . S
C127 C128 1.291 . S
C127 H140 0.931 . S
C128 C127 1.291 . S
C128 C129 1.373 . S
C128 H141 0.929 . S
C129 C128 1.373 . S
C129 C130 1.396 . S
C129 C136 1.403 . S
C130 C120 1.476 . S
C130 N125 1.318 . S
C130 C129 1.396 . S
H131 C126 0.929 . S
O132 Mn108 2.385 . S
O132 C110 1.234 . S
O133 Mn108 2.209 . S
O133 Mn109 2.215 . S
O133 C110 1.283 . S
O134 Mn108 2.094 . S
O134 C112 1.240 . S
O135 Mn109 2.117 . S
O135 C112 1.264 . S
C136 C129 1.403 . S
C136 C137 1.399 . S
C136 H142 0.929 . S
C137 C117 1.449 . S
C137 C136 1.399 . S
C137 H143 0.930 . S
H138 C118 0.931 . S
H139 C119 0.930 . S
H140 C127 0.931 . S
H141 C128 0.929 . S
H142 C136 0.929 . S
H143 C137 0.930 . S
Mn144 O149 2.095 . S
Mn144 O159 2.167 . S
Mn144 O160 2.297 . S
Mn144 O168 2.385 1_556 S
Mn144 O169 2.209 . S
Mn144 O170 2.094 . S
Mn145 O150 2.121 . S
Mn145 N152 2.257 . S
Mn145 N161 2.282 . S
Mn145 O169 2.215 . S
Mn145 O171 2.117 . S
C146 O168 1.234 1_556 S
C146 O169 1.283 . S
C147 O159 1.284 . S
C147 O160 1.236 . S
C148 O170 1.240 . S
C148 O171 1.264 . S
O149 Mn144 2.095 . S
O149 C158 1.250 . S
O150 Mn145 2.121 . S
O150 C158 1.258 . S
C151 N152 1.326 . S
C151 C155 1.460 . S
C151 H157 0.929 . S
N152 Mn145 2.257 . S
N152 C151 1.326 . S
N152 C156 1.362 . S
C153 C154 1.258 . S
C153 C156 1.431 . S
C153 C173 1.449 . S
C154 C153 1.258 . S
C154 C155 1.477 . S
C154 H174 0.931 . S
C155 C151 1.460 . S
C155 C154 1.477 . S
C155 H175 0.930 . S
C156 N152 1.362 . S
C156 C153 1.431 . S
C156 C166 1.476 . S
H157 C151 0.929 . S
C158 O149 1.250 . S
C158 O150 1.258 . S
O159 Mn144 2.167 . S
O159 C147 1.284 . S
O160 Mn144 2.297 . S
O160 C147 1.236 . S
N161 Mn145 2.282 . S
N161 C162 1.328 . S
N161 C166 1.318 . S
C162 N161 1.328 . S
C162 C163 1.457 . S
C162 H167 0.929 . S
C163 C162 1.457 . S
C163 C164 1.291 . S
C163 H176 0.931 1_556 S
C164 C163 1.291 . S
C164 C165 1.373 . S
C164 H177 0.929 . S
C165 C164 1.373 . S
C165 C166 1.396 . S
C165 C172 1.403 . S
C166 C156 1.476 . S
C166 N161 1.318 . S
C166 C165 1.396 . S
H167 C162 0.929 . S
O168 Mn144 2.385 1_554 S
O168 C146 1.234 1_554 S
O169 Mn144 2.209 . S
O169 Mn145 2.215 . S
O169 C146 1.283 . S
O170 Mn144 2.094 . S
O170 C148 1.240 . S
O171 Mn145 2.117 . S
O171 C148 1.264 . S
C172 C165 1.403 . S
C172 C173 1.399 . S
C172 H178 0.929 . S
C173 C153 1.449 . S
C173 C172 1.399 . S
C173 H179 0.930 . S
H174 C154 0.931 . S
H175 C155 0.930 . S
H176 C163 0.931 1_554 S
H177 C164 0.929 . S
H178 C172 0.929 . S
H179 C173 0.930 . S
Mn180 O185 2.095 . S
Mn180 O195 2.167 . S
Mn180 O196 2.297 . S
Mn180 O204 2.385 1_556 S
Mn180 O205 2.209 . S
Mn180 O206 2.094 . S
Mn181 O186 2.121 . S
Mn181 N188 2.257 . S
Mn181 N197 2.282 . S
Mn181 O205 2.215 . S
Mn181 O207 2.117 . S
C182 O204 1.234 1_556 S
C182 O205 1.283 . S
C183 O195 1.285 . S
C183 O196 1.236 . S
C184 O206 1.240 . S
C184 O207 1.264 . S
O185 Mn180 2.095 . S
O185 C194 1.250 . S
O186 Mn181 2.121 . S
O186 C194 1.258 . S
C187 N188 1.326 . S
C187 C191 1.460 . S
C187 H193 0.929 . S
N188 Mn181 2.257 . S
N188 C187 1.326 . S
N188 C192 1.362 . S
C189 C190 1.258 . S
C189 C192 1.431 . S
C189 C209 1.449 . S
C190 C189 1.258 . S
C190 C191 1.477 . S
C190 H210 0.931 . S
C191 C187 1.460 . S
C191 C190 1.477 . S
C191 H211 0.930 . S
C192 N188 1.362 . S
C192 C189 1.431 . S
C192 C202 1.476 . S
H193 C187 0.929 . S
C194 O185 1.250 . S
C194 O186 1.258 . S
O195 Mn180 2.167 . S
O195 C183 1.285 . S
O196 Mn180 2.297 . S
O196 C183 1.236 . S
N197 Mn181 2.282 . S
N197 C198 1.328 . S
N197 C202 1.318 . S
C198 N197 1.328 . S
C198 C199 1.457 . S
C198 H203 0.929 . S
C199 C198 1.457 . S
C199 C200 1.291 . S
C199 H212 0.931 1_556 S
C200 C199 1.291 . S
C200 C201 1.373 . S
C200 H213 0.929 . S
C201 C200 1.373 . S
C201 C202 1.396 . S
C201 C208 1.403 . S
C202 C192 1.476 . S
C202 N197 1.318 . S
C202 C201 1.396 . S
H203 C198 0.929 . S
O204 Mn180 2.385 1_554 S
O204 C182 1.234 1_554 S
O205 Mn180 2.209 . S
O205 Mn181 2.215 . S
O205 C182 1.283 . S
O206 Mn180 2.094 . S
O206 C184 1.240 . S
O207 Mn181 2.117 . S
O207 C184 1.264 . S
C208 C201 1.403 . S
C208 C209 1.399 . S
C208 H214 0.929 . S
C209 C189 1.449 . S
C209 C208 1.399 . S
C209 H215 0.930 . S
H210 C190 0.931 . S
H211 C191 0.930 . S
H212 C199 0.931 1_554 S
H213 C200 0.929 . S
H214 C208 0.929 . S
H215 C209 0.930 . S
Mn216 O221 2.095 . S
Mn216 O231 2.162 . S
Mn216 O232 2.297 . S
Mn216 O240 2.385 . S
Mn216 O241 2.209 . S
Mn216 O242 2.094 . S
Mn217 O222 2.121 . S
Mn217 N224 2.257 . S
Mn217 N233 2.282 . S
Mn217 O241 2.215 . S
Mn217 O243 2.117 . S
C218 O240 1.234 . S
C218 O241 1.283 . S
C219 O231 1.281 . S
C219 O232 1.236 . S
C220 O242 1.240 . S
C220 O243 1.264 . S
O221 Mn216 2.095 . S
O221 C230 1.250 . S
O222 Mn217 2.121 . S
O222 C230 1.258 . S
C223 N224 1.326 . S
C223 C227 1.460 . S
C223 H229 0.929 . S
N224 Mn217 2.257 . S
N224 C223 1.326 . S
N224 C228 1.362 . S
C225 C226 1.258 . S
C225 C228 1.431 . S
C225 C245 1.449 . S
C226 C225 1.258 . S
C226 C227 1.477 . S
C226 H246 0.931 . S
C227 C223 1.460 . S
C227 C226 1.477 . S
C227 H247 0.930 . S
C228 N224 1.362 . S
C228 C225 1.431 . S
C228 C238 1.476 . S
H229 C223 0.929 . S
C230 O221 1.250 . S
C230 O222 1.258 . S
O231 Mn216 2.162 . S
O231 C219 1.281 . S
O232 Mn216 2.297 . S
O232 C219 1.236 . S
N233 Mn217 2.282 . S
N233 C234 1.328 . S
N233 C238 1.318 . S
C234 N233 1.328 . S
C234 C235 1.457 . S
C234 H239 0.929 . S
C235 C234 1.457 . S
C235 C236 1.291 . S
C235 H248 0.931 . S
C236 C235 1.291 . S
C236 C237 1.373 . S
C236 H249 0.929 . S
C237 C236 1.373 . S
C237 C238 1.396 . S
C237 C244 1.403 . S
C238 C228 1.476 . S
C238 N233 1.318 . S
C238 C237 1.396 . S
H239 C234 0.929 . S
O240 Mn216 2.385 . S
O240 C218 1.234 . S
O241 Mn216 2.209 . S
O241 Mn217 2.215 . S
O241 C218 1.283 . S
O242 Mn216 2.094 . S
O242 C220 1.240 . S
O243 Mn217 2.117 . S
O243 C220 1.264 . S
C244 C237 1.403 . S
C244 C245 1.399 . S
C244 H250 0.929 . S
C245 C225 1.449 . S
C245 C244 1.399 . S
C245 H251 0.930 . S
H246 C226 0.931 . S
H247 C227 0.930 . S
H248 C235 0.931 . S
H249 C236 0.929 . S
H250 C244 0.929 . S
H251 C245 0.930 . S
Mn252 O257 2.095 . S
Mn252 O267 2.162 . S
Mn252 O268 2.297 . S
Mn252 O276 2.385 . S
Mn252 O277 2.209 . S
Mn252 O278 2.094 . S
Mn253 O258 2.121 . S
Mn253 N260 2.257 . S
Mn253 N269 2.282 . S
Mn253 O277 2.215 . S
Mn253 O279 2.117 . S
C254 O276 1.234 . S
C254 O277 1.283 . S
C255 O267 1.281 . S
C255 O268 1.236 . S
C256 O278 1.240 . S
C256 O279 1.264 . S
O257 Mn252 2.095 . S
O257 C266 1.250 . S
O258 Mn253 2.121 . S
O258 C266 1.258 . S
C259 N260 1.326 . S
C259 C263 1.460 . S
C259 H265 0.929 . S
N260 Mn253 2.257 . S
N260 C259 1.326 . S
N260 C264 1.362 . S
C261 C262 1.258 . S
C261 C264 1.431 . S
C261 C281 1.449 . S
C262 C261 1.258 . S
C262 C263 1.477 . S
C262 H282 0.931 . S
C263 C259 1.460 . S
C263 C262 1.477 . S
C263 H283 0.930 . S
C264 N260 1.362 . S
C264 C261 1.431 . S
C264 C274 1.476 . S
H265 C259 0.929 . S
C266 O257 1.250 . S
C266 O258 1.258 . S
O267 Mn252 2.162 . S
O267 C255 1.281 . S
O268 Mn252 2.297 . S
O268 C255 1.236 . S
N269 Mn253 2.282 . S
N269 C270 1.328 . S
N269 C274 1.318 . S
C270 N269 1.328 . S
C270 C271 1.457 . S
C270 H275 0.929 . S
C271 C270 1.457 . S
C271 C272 1.291 . S
C271 H284 0.931 . S
C272 C271 1.291 . S
C272 C273 1.373 . S
C272 H285 0.929 . S
C273 C272 1.373 . S
C273 C274 1.396 . S
C273 C280 1.403 . S
C274 C264 1.476 . S
C274 N269 1.318 . S
C274 C273 1.396 . S
H275 C270 0.929 . S
O276 Mn252 2.385 . S
O276 C254 1.234 . S
O277 Mn252 2.209 . S
O277 Mn253 2.215 . S
O277 C254 1.283 . S
O278 Mn252 2.094 . S
O278 C256 1.240 . S
O279 Mn253 2.117 . S
O279 C256 1.264 . S
C280 C273 1.403 . S
C280 C281 1.399 . S
C280 H286 0.929 . S
C281 C261 1.449 . S
C281 C280 1.399 . S
C281 H287 0.930 . S
H282 C262 0.931 . S
H283 C263 0.930 . S
H284 C271 0.931 . S
H285 C272 0.929 . S
H286 C280 0.929 . S
H287 C281 0.930 . S
H288 C294 0.930 . S
H289 C297 0.930 1_556 S
H290 C298 0.930 1_556 S
H291 C299 0.930 1_556 S
H292 C302 0.930 . S
H293 C303 0.930 . S
C294 H288 0.930 . S
C294 C295 1.355 . S
C294 C296 1.415 . S
C295 C294 1.355 . S
C295 C297 1.419 . S
C296 C294 1.415 . S
C296 C301 1.425 1_545 S
C296 C303 1.409 . S
C297 H289 0.930 1_554 S
C297 C295 1.419 . S
C297 C298 1.362 1_545 S
C298 H290 0.930 1_554 S
C298 C297 1.362 1_565 S
C298 C301 1.409 . S
C299 H291 0.930 1_554 S
C299 C300 1.355 . S
C299 C301 1.415 . S
C300 C299 1.355 . S
C300 C302 1.419 . S
C301 C296 1.425 1_565 S
C301 C298 1.409 . S
C301 C299 1.415 . S
C302 H292 0.930 . S
C302 C300 1.419 . S
C302 C303 1.362 1_565 S
C303 H293 0.930 . S
C303 C296 1.409 . S
C303 C302 1.362 1_545 S
H304 C310 0.930 . S
H305 C313 0.930 . S
H306 C314 0.930 . S
H307 C315 0.930 . S
H308 C318 0.930 . S
H309 C319 0.930 . S
C310 H304 0.930 . S
C310 C311 1.355 . S
C310 C312 1.415 . S
C311 C310 1.355 . S
C311 C313 1.419 . S
C312 C310 1.415 . S
C312 C317 1.425 . S
C312 C319 1.409 . S
C313 H305 0.930 . S
C313 C311 1.419 . S
C313 C314 1.362 . S
C314 H306 0.930 . S
C314 C313 1.362 . S
C314 C317 1.409 . S
C315 H307 0.930 . S
C315 C316 1.355 . S
C315 C317 1.415 . S
C316 C315 1.355 . S
C316 C318 1.419 . S
C317 C312 1.425 . S
C317 C314 1.409 . S
C317 C315 1.415 . S
C318 H308 0.930 . S
C318 C316 1.419 . S
C318 C319 1.362 . S
C319 H309 0.930 . S
C319 C312 1.409 . S
C319 C318 1.362 . S
H320 C326 0.930 . S
H321 C329 0.930 . S
H322 C330 0.930 . S
H323 C331 0.930 1_554 S
H324 C334 0.930 . S
H325 C335 0.930 . S
C326 H320 0.930 . S
C326 C327 1.355 . S
C326 C328 1.415 . S
C327 C326 1.355 . S
C327 C329 1.419 1_556 S
C328 C326 1.415 . S
C328 C333 1.425 1_565 S
C328 C335 1.409 . S
C329 H321 0.930 . S
C329 C327 1.419 1_554 S
C329 C330 1.362 1_565 S
C330 H322 0.930 . S
C330 C329 1.362 1_545 S
C330 C333 1.409 1_554 S
C331 H323 0.930 1_556 S
C331 C332 1.355 . S
C331 C333 1.415 . S
C332 C331 1.355 . S
C332 C334 1.419 . S
C333 C328 1.425 1_545 S
C333 C330 1.409 1_556 S
C333 C331 1.415 . S
C334 H324 0.930 . S
C334 C332 1.419 . S
C334 C335 1.362 1_545 S
C335 H325 0.930 . S
C335 C328 1.409 . S
C335 C334 1.362 1_565 S
H336 C342 0.930 . S
H337 C345 0.930 . S
H338 C346 0.930 . S
H339 C347 0.930 . S
H340 C350 0.930 . S
H341 C351 0.930 . S
C342 H336 0.930 . S
C342 C343 1.355 . S
C342 C344 1.415 . S
C343 C342 1.355 . S
C343 C345 1.419 . S
C344 C342 1.415 . S
C344 C349 1.425 . S
C344 C351 1.409 . S
C345 H337 0.930 . S
C345 C343 1.419 . S
C345 C346 1.362 . S
C346 H338 0.930 . S
C346 C345 1.362 . S
C346 C349 1.409 . S
C347 H339 0.930 . S
C347 C348 1.355 . S
C347 C349 1.415 . S
C348 C347 1.355 . S
C348 C350 1.419 . S
C349 C344 1.425 . S
C349 C346 1.409 . S
C349 C347 1.415 . S
C350 H340 0.930 . S
C350 C348 1.419 . S
C350 C351 1.362 . S
C351 H341 0.930 . S
C351 C344 1.409 . S
C351 C350 1.362 . S
H352 C358 0.930 . S
H353 C361 0.930 . S
H354 C362 0.930 . S
H355 C363 0.930 . S
H356 C366 0.930 . S
H357 C367 0.930 . S
C358 H352 0.930 . S
C358 C359 1.355 . S
C358 C360 1.415 . S
C359 C358 1.355 . S
C359 C361 1.419 . S
C360 C358 1.415 . S
C360 C365 1.425 . S
C360 C367 1.409 . S
C361 H353 0.930 . S
C361 C359 1.419 . S
C361 C362 1.362 . S
C362 H354 0.930 . S
C362 C361 1.362 . S
C362 C365 1.409 . S
C363 H355 0.930 . S
C363 C364 1.355 . S
C363 C365 1.415 . S
C364 C363 1.355 . S
C364 C366 1.419 . S
C365 C360 1.425 . S
C365 C362 1.409 . S
C365 C363 1.415 . S
C366 H356 0.930 . S
C366 C364 1.419 . S
C366 C367 1.362 . S
C367 H357 0.930 . S
C367 C360 1.409 . S
C367 C366 1.362 . S
H368 C374 0.930 . S
H369 C377 0.930 . S
H370 C378 0.930 . S
H371 C379 0.930 . S
H372 C382 0.930 . S
H373 C383 0.930 . S
C374 H368 0.930 . S
C374 C375 1.355 . S
C374 C376 1.415 . S
C375 C374 1.355 . S
C375 C377 1.419 . S
C376 C374 1.415 . S
C376 C381 1.425 . S
C376 C383 1.409 . S
C377 H369 0.930 . S
C377 C375 1.419 . S
C377 C378 1.362 . S
C378 H370 0.930 . S
C378 C377 1.362 . S
C378 C381 1.409 . S
C379 H371 0.930 . S
C379 C380 1.355 . S
C379 C381 1.415 . S
C380 C379 1.355 . S
C380 C382 1.419 . S
C381 C376 1.425 . S
C381 C378 1.409 . S
C381 C379 1.415 . S
C382 H372 0.930 . S
C382 C380 1.419 . S
C382 C383 1.362 . S
C383 H373 0.930 . S
C383 C376 1.409 . S
C383 C382 1.362 . S
H384 C390 0.930 . S
H385 C393 0.930 . S
H386 C394 0.930 . S
H387 C395 0.930 . S
H388 C398 0.930 . S
H389 C399 0.930 . S
C390 H384 0.930 . S
C390 C391 1.355 . S
C390 C392 1.415 . S
C391 C390 1.355 . S
C391 C393 1.419 . S
C392 C390 1.415 . S
C392 C397 1.425 . S
C392 C399 1.409 . S
C393 H385 0.930 . S
C393 C391 1.419 . S
C393 C394 1.362 . S
C394 H386 0.930 . S
C394 C393 1.362 . S
C394 C397 1.409 . S
C395 H387 0.930 . S
C395 C396 1.355 . S
C395 C397 1.415 . S
C396 C395 1.355 . S
C396 C398 1.419 . S
C397 C392 1.425 . S
C397 C394 1.409 . S
C397 C395 1.415 . S
C398 H388 0.930 . S
C398 C396 1.419 . S
C398 C399 1.362 . S
C399 H389 0.930 . S
C399 C392 1.409 . S
C399 C398 1.362 . S
H400 C406 0.930 . S
H401 C409 0.930 . S
H402 C410 0.930 . S
H403 C411 0.930 . S
H404 C414 0.930 . S
H405 C415 0.930 . S
C406 H400 0.930 . S
C406 C407 1.355 . S
C406 C408 1.415 . S
C407 C406 1.355 . S
C407 C409 1.419 . S
C408 C406 1.415 . S
C408 C413 1.425 . S
C408 C415 1.409 . S
C409 H401 0.930 . S
C409 C407 1.419 . S
C409 C410 1.362 . S
C410 H402 0.930 . S
C410 C409 1.362 . S
C410 C413 1.409 . S
C411 H403 0.930 . S
C411 C412 1.355 . S
C411 C413 1.415 . S
C412 C411 1.355 . S
C412 C414 1.419 . S
C413 C408 1.425 . S
C413 C410 1.409 . S
C413 C411 1.415 . S
C414 H404 0.930 . S
C414 C412 1.419 . S
C414 C415 1.362 . S
C415 H405 0.930 . S
C415 C408 1.409 . S
C415 C414 1.362 . S
H416 C422 0.930 . S
H417 C425 0.930 . S
H418 C426 0.930 . S
H419 C427 0.930 . S
H420 C430 0.930 . S
H421 C431 0.930 . S
C422 H416 0.930 . S
C422 C423 1.367 . S
C422 C424 1.415 . S
C423 C422 1.367 . S
C423 C425 1.403 1_554 S
C424 C422 1.415 . S
C424 C429 1.425 1_554 S
C424 C431 1.409 . S
C425 H417 0.930 . S
C425 C423 1.403 1_556 S
C425 C426 1.362 . S
C426 H418 0.930 . S
C426 C425 1.362 . S
C426 C429 1.409 . S
C427 H419 0.930 . S
C427 C428 1.367 . S
C427 C429 1.415 . S
C428 C427 1.367 . S
C428 C430 1.403 1_556 S
C429 C424 1.425 1_556 S
C429 C426 1.409 . S
C429 C427 1.415 . S
C430 H420 0.930 . S
C430 C428 1.403 1_554 S
C430 C431 1.362 . S
C431 H421 0.930 . S
C431 C424 1.409 . S
C431 C430 1.362 . S
H432 C438 0.930 . S
H433 C441 0.930 . S
H434 C442 0.930 . S
H435 C443 0.930 . S
H436 C446 0.930 . S
H437 C447 0.930 . S
C438 H432 0.930 . S
C438 C439 1.355 . S
C438 C440 1.415 . S
C439 C438 1.355 . S
C439 C441 1.419 1_554 S
C440 C438 1.415 . S
C440 C445 1.425 1_454 S
C440 C447 1.409 . S
C441 H433 0.930 . S
C441 C439 1.419 1_556 S
C441 C442 1.362 1_455 S
C442 H434 0.930 . S
C442 C441 1.362 1_655 S
C442 C445 1.409 . S
C443 H435 0.930 . S
C443 C444 1.355 . S
C443 C445 1.415 . S
C444 C443 1.355 . S
C444 C446 1.419 1_556 S
C445 C440 1.425 1_656 S
C445 C442 1.409 . S
C445 C443 1.415 . S
C446 H436 0.930 . S
C446 C444 1.419 1_554 S
C446 C447 1.362 1_655 S
C447 H437 0.930 . S
C447 C440 1.409 . S
C447 C446 1.362 1_455 S
H448 C454 0.930 . S
H449 C457 0.930 . S
H450 C458 0.930 . S
H451 C459 0.930 . S
H452 C462 0.930 . S
H453 C463 0.930 . S
C454 H448 0.930 . S
C454 C455 1.355 . S
C454 C456 1.415 1_565 S
C455 C454 1.355 . S
C455 C457 1.419 . S
C456 C454 1.415 1_545 S
C456 C461 1.425 1_545 S
C456 C463 1.409 . S
C457 H449 0.930 . S
C457 C455 1.419 . S
C457 C458 1.362 . S
C458 H450 0.930 . S
C458 C457 1.362 . S
C458 C461 1.409 . S
C459 H451 0.930 . S
C459 C460 1.355 . S
C459 C461 1.415 1_545 S
C460 C459 1.355 . S
C460 C462 1.419 . S
C461 C456 1.425 1_565 S
C461 C458 1.409 . S
C461 C459 1.415 1_565 S
C462 H452 0.930 . S
C462 C460 1.419 . S
C462 C463 1.362 . S
C463 H453 0.930 . S
C463 C456 1.409 . S
C463 C462 1.362 . S
H464 C470 0.930 . S
H465 C473 0.930 1_455 S
H466 C474 0.930 . S
H467 C475 0.930 . S
H468 C478 0.930 1_655 S
H469 C479 0.930 . S
C470 H464 0.930 . S
C470 C471 1.355 . S
C470 C472 1.415 1_545 S
C471 C470 1.355 . S
C471 C473 1.419 . S
C472 C470 1.415 1_565 S
C472 C477 1.425 1_665 S
C472 C479 1.409 . S
C473 H465 0.930 1_655 S
C473 C471 1.419 . S
C473 C474 1.362 1_655 S
C474 H466 0.930 . S
C474 C473 1.362 1_455 S
C474 C477 1.409 . S
C475 H467 0.930 . S
C475 C476 1.355 . S
C475 C477 1.415 1_565 S
C476 C475 1.355 . S
C476 C478 1.419 . S
C477 C472 1.425 1_445 S
C477 C474 1.409 . S
C477 C475 1.415 1_545 S
C478 H468 0.930 1_455 S
C478 C476 1.419 . S
C478 C479 1.362 1_455 S
C479 H469 0.930 . S
C479 C472 1.409 . S
C479 C478 1.362 1_655 S
H480 C486 0.930 . S
H481 C489 0.930 . S
H482 C490 0.930 . S
H483 C491 0.930 . S
H484 C494 0.930 . S
H485 C495 0.930 . S
C486 H480 0.930 . S
C486 C487 1.355 . S
C486 C488 1.415 . S
C487 C486 1.355 . S
C487 C489 1.419 1_554 S
C488 C486 1.415 . S
C488 C493 1.436 . S
C488 C495 1.409 . S
C489 H481 0.930 . S
C489 C487 1.419 1_556 S
C489 C490 1.362 . S
C490 H482 0.930 . S
C490 C489 1.362 . S
C490 C493 1.401 1_556 S
C491 H483 0.930 . S
C491 C492 1.355 1_556 S
C491 C493 1.413 1_556 S
C492 C491 1.355 1_554 S
C492 C494 1.419 . S
C493 C488 1.436 . S
C493 C490 1.401 1_554 S
C493 C491 1.413 1_554 S
C494 H484 0.930 . S
C494 C492 1.419 . S
C494 C495 1.362 . S
C495 H485 0.930 . S
C495 C488 1.409 . S
C495 C494 1.362 . S
H496 C502 0.930 . S
H497 C505 0.930 . S
H498 C506 0.930 . S
H499 C507 0.930 . S
H500 C510 0.930 . S
H501 C511 0.930 . S
C502 H496 0.930 . S
C502 C503 1.355 . S
C502 C504 1.415 1_545 S
C503 C502 1.355 . S
C503 C505 1.419 . S
C504 C502 1.415 1_565 S
C504 C509 1.425 1_565 S
C504 C511 1.409 . S
C505 H497 0.930 . S
C505 C503 1.419 . S
C505 C506 1.362 . S
C506 H498 0.930 . S
C506 C505 1.362 . S
C506 C509 1.409 . S
C507 H499 0.930 . S
C507 C508 1.355 . S
C507 C509 1.415 1_565 S
C508 C507 1.355 . S
C508 C510 1.419 . S
C509 C504 1.425 1_545 S
C509 C506 1.409 . S
C509 C507 1.415 1_545 S
C510 H500 0.930 . S
C510 C508 1.419 . S
C510 C511 1.362 . S
C511 H501 0.930 . S
C511 C504 1.409 . S
C511 C510 1.362 . S
H512 C518 0.930 . S
H513 C521 0.930 . S
H514 C522 0.930 . S
H515 C523 0.930 . S
H516 C526 0.930 . S
H517 C527 0.930 . S
C518 H512 0.930 . S
C518 C519 1.355 . S
C518 C520 1.415 . S
C519 C518 1.355 . S
C519 C521 1.419 . S
C520 C518 1.415 . S
C520 C525 1.425 . S
C520 C527 1.409 . S
C521 H513 0.930 . S
C521 C519 1.419 . S
C521 C522 1.362 . S
C522 H514 0.930 . S
C522 C521 1.362 . S
C522 C525 1.409 . S
C523 H515 0.930 . S
C523 C524 1.355 . S
C523 C525 1.415 . S
C524 C523 1.355 . S
C524 C526 1.419 . S
C525 C520 1.425 . S
C525 C522 1.409 . S
C525 C523 1.415 . S
C526 H516 0.930 . S
C526 C524 1.419 . S
C526 C527 1.362 . S
C527 H517 0.930 . S
C527 C520 1.409 . S
C527 C526 1.362 . S
H528 C534 0.930 . S
H529 C537 0.930 . S
H530 C538 0.930 . S
H531 C539 0.930 . S
H532 C542 0.930 . S
H533 C543 0.930 . S
C534 H528 0.930 . S
C534 C535 1.355 . S
C534 C536 1.415 1_565 S
C535 C534 1.355 . S
C535 C537 1.419 . S
C536 C534 1.415 1_545 S
C536 C541 1.425 1_545 S
C536 C543 1.409 . S
C537 H529 0.930 . S
C537 C535 1.419 . S
C537 C538 1.362 . S
C538 H530 0.930 . S
C538 C537 1.362 . S
C538 C541 1.409 . S
C539 H531 0.930 . S
C539 C540 1.355 . S
C539 C541 1.415 1_545 S
C540 C539 1.355 . S
C540 C542 1.419 . S
C541 C536 1.425 1_565 S
C541 C538 1.409 . S
C541 C539 1.415 1_565 S
C542 H532 0.930 . S
C542 C540 1.419 . S
C542 C543 1.362 . S
C543 H533 0.930 . S
C543 C536 1.409 . S
C543 C542 1.362 . S
C295 C4 1.495 . S
C300 C40 1.495 . S
C311 C112 1.467 . S
C316 C76 1.424 . S
C327 C148 1.499 . S
C332 C184 1.460 . S
C343 C220 1.427 . S
C348 C256 1.423 . S
C359 C14 1.466 . S
C364 C86 1.552 . S
C375 C122 1.513 . S
C380 C50 1.503 . S
C391 C158 1.541 . S
C396 C230 1.481 . S
C407 C266 1.522 . S
C412 C194 1.502 . S
C423 C3 1.512 . S
C428 C147 1.512 . S
C439 C39 1.510 . S
C444 C183 1.510 . S
C455 C219 1.487 . S
C460 C75 1.487 . S
C471 C255 1.485 . S
C476 C111 1.485 . S
C487 C38 1.117 . S
C492 C2 1.109 . S
C503 C74 1.109 . S
C508 C110 1.115 . S
C519 C146 1.114 . S
C524 C182 1.110 . S
C535 C218 1.110 . S
C540 C254 1.113 . S
