# Generated by pormake.
# Topology ull, (4)-cn, num edge types: 1
# Building blocks:
#     Node 0, Type 0, BuildingBlock: CEKHIL_clean_sbu_0, # of connection points: 4
#     Node 1, Type 0, BuildingBlock: CEKHIL_clean_sbu_0, # of connection points: 4
#     Node 2, Type 0, BuildingBlock: CEKHIL_clean_sbu_0, # of connection points: 4
#     Node 3, Type 0, BuildingBlock: CEKHIL_clean_sbu_0, # of connection points: 4
#     Node 4, Type 0, BuildingBlock: CEKHIL_clean_sbu_0, # of connection points: 4
#     Node 5, Type 0, BuildingBlock: CEKHIL_clean_sbu_0, # of connection points: 4
#     Node 6, Type 0, BuildingBlock: CEKHIL_clean_sbu_0, # of connection points: 4
#     Node 7, Type 0, BuildingBlock: CEKHIL_clean_sbu_0, # of connection points: 4
#     Node 8, Type 0, BuildingBlock: CEKHIL_clean_sbu_0, # of connection points: 4
#     Node 9, Type 0, BuildingBlock: CEKHIL_clean_sbu_0, # of connection points: 4
#     Node 10, Type 0, BuildingBlock: CEKHIL_clean_sbu_0, # of connection points: 4
#     Node 11, Type 0, BuildingBlock: CEKHIL_clean_sbu_0, # of connection points: 4
#     Node 12, Type 0, BuildingBlock: CEKHIL_clean_sbu_0, # of connection points: 4
#     Node 13, Type 0, BuildingBlock: CEKHIL_clean_sbu_0, # of connection points: 4
#     Node 14, Type 0, BuildingBlock: CEKHIL_clean_sbu_0, # of connection points: 4
#     Node 15, Type 0, BuildingBlock: CEKHIL_clean_sbu_0, # of connection points: 4
#     Node 16, Type 0, BuildingBlock: CEKHIL_clean_sbu_0, # of connection points: 4
#     Node 17, Type 0, BuildingBlock: CEKHIL_clean_sbu_0, # of connection points: 4
#     Node 18, Type 0, BuildingBlock: CEKHIL_clean_sbu_0, # of connection points: 4
#     Node 19, Type 0, BuildingBlock: CEKHIL_clean_sbu_0, # of connection points: 4
#     Node 20, Type 0, BuildingBlock: CEKHIL_clean_sbu_0, # of connection points: 4
#     Node 21, Type 0, BuildingBlock: CEKHIL_clean_sbu_0, # of connection points: 4
#     Node 22, Type 0, BuildingBlock: CEKHIL_clean_sbu_0, # of connection points: 4
#     Node 23, Type 0, BuildingBlock: CEKHIL_clean_sbu_0, # of connection points: 4
#     Node 24, Type 0, BuildingBlock: CEKHIL_clean_sbu_0, # of connection points: 4
#     Node 25, Type 0, BuildingBlock: CEKHIL_clean_sbu_0, # of connection points: 4
#     Node 26, Type 0, BuildingBlock: CEKHIL_clean_sbu_0, # of connection points: 4
#     Node 27, Type 0, BuildingBlock: CEKHIL_clean_sbu_0, # of connection points: 4
#     Node 28, Type 0, BuildingBlock: CEKHIL_clean_sbu_0, # of connection points: 4
#     Node 29, Type 0, BuildingBlock: CEKHIL_clean_sbu_0, # of connection points: 4
#     Node 30, Type 0, BuildingBlock: CEKHIL_clean_sbu_0, # of connection points: 4
#     Node 31, Type 0, BuildingBlock: CEKHIL_clean_sbu_0, # of connection points: 4
#     Node 32, Type 0, BuildingBlock: CEKHIL_clean_sbu_0, # of connection points: 4
#     Node 33, Type 0, BuildingBlock: CEKHIL_clean_sbu_0, # of connection points: 4
#     Node 34, Type 0, BuildingBlock: CEKHIL_clean_sbu_0, # of connection points: 4
#     Node 35, Type 0, BuildingBlock: CEKHIL_clean_sbu_0, # of connection points: 4
#     Node 36, Type 0, BuildingBlock: CEKHIL_clean_sbu_0, # of connection points: 4
#     Node 37, Type 0, BuildingBlock: CEKHIL_clean_sbu_0, # of connection points: 4
#     Node 38, Type 0, BuildingBlock: CEKHIL_clean_sbu_0, # of connection points: 4
#     Node 39, Type 0, BuildingBlock: CEKHIL_clean_sbu_0, # of connection points: 4
#     Node 40, Type 0, BuildingBlock: CEKHIL_clean_sbu_0, # of connection points: 4
#     Node 41, Type 0, BuildingBlock: CEKHIL_clean_sbu_0, # of connection points: 4
#     Node 42, Type 0, BuildingBlock: CEKHIL_clean_sbu_0, # of connection points: 4
#     Node 43, Type 0, BuildingBlock: CEKHIL_clean_sbu_0, # of connection points: 4
#     Node 44, Type 0, BuildingBlock: CEKHIL_clean_sbu_0, # of connection points: 4
#     Node 45, Type 0, BuildingBlock: CEKHIL_clean_sbu_0, # of connection points: 4
#     Node 46, Type 0, BuildingBlock: CEKHIL_clean_sbu_0, # of connection points: 4
#     Node 47, Type 0, BuildingBlock: CEKHIL_clean_sbu_0, # of connection points: 4
#     Edge 48, Type (0, 0), BuildingBlock: OJICUG_clean_linker_0, # of connection points: 2
#     Edge 49, Type (0, 0), BuildingBlock: OJICUG_clean_linker_0, # of connection points: 2
#     Edge 50, Type (0, 0), BuildingBlock: OJICUG_clean_linker_0, # of connection points: 2
#     Edge 51, Type (0, 0), BuildingBlock: OJICUG_clean_linker_0, # of connection points: 2
#     Edge 52, Type (0, 0), BuildingBlock: OJICUG_clean_linker_0, # of connection points: 2
#     Edge 53, Type (0, 0), BuildingBlock: OJICUG_clean_linker_0, # of connection points: 2
#     Edge 54, Type (0, 0), BuildingBlock: OJICUG_clean_linker_0, # of connection points: 2
#     Edge 55, Type (0, 0), BuildingBlock: OJICUG_clean_linker_0, # of connection points: 2
#     Edge 56, Type (0, 0), BuildingBlock: OJICUG_clean_linker_0, # of connection points: 2
#     Edge 57, Type (0, 0), BuildingBlock: OJICUG_clean_linker_0, # of connection points: 2
#     Edge 58, Type (0, 0), BuildingBlock: OJICUG_clean_linker_0, # of connection points: 2
#     Edge 59, Type (0, 0), BuildingBlock: OJICUG_clean_linker_0, # of connection points: 2
#     Edge 60, Type (0, 0), BuildingBlock: OJICUG_clean_linker_0, # of connection points: 2
#     Edge 61, Type (0, 0), BuildingBlock: OJICUG_clean_linker_0, # of connection points: 2
#     Edge 62, Type (0, 0), BuildingBlock: OJICUG_clean_linker_0, # of connection points: 2
#     Edge 63, Type (0, 0), BuildingBlock: OJICUG_clean_linker_0, # of connection points: 2
#     Edge 64, Type (0, 0), BuildingBlock: OJICUG_clean_linker_0, # of connection points: 2
#     Edge 65, Type (0, 0), BuildingBlock: OJICUG_clean_linker_0, # of connection points: 2
#     Edge 66, Type (0, 0), BuildingBlock: OJICUG_clean_linker_0, # of connection points: 2
#     Edge 67, Type (0, 0), BuildingBlock: OJICUG_clean_linker_0, # of connection points: 2
#     Edge 68, Type (0, 0), BuildingBlock: OJICUG_clean_linker_0, # of connection points: 2
#     Edge 69, Type (0, 0), BuildingBlock: OJICUG_clean_linker_0, # of connection points: 2
#     Edge 70, Type (0, 0), BuildingBlock: OJICUG_clean_linker_0, # of connection points: 2
#     Edge 71, Type (0, 0), BuildingBlock: OJICUG_clean_linker_0, # of connection points: 2
#     Edge 72, Type (0, 0), BuildingBlock: OJICUG_clean_linker_0, # of connection points: 2
#     Edge 73, Type (0, 0), BuildingBlock: OJICUG_clean_linker_0, # of connection points: 2
#     Edge 74, Type (0, 0), BuildingBlock: OJICUG_clean_linker_0, # of connection points: 2
#     Edge 75, Type (0, 0), BuildingBlock: OJICUG_clean_linker_0, # of connection points: 2
#     Edge 76, Type (0, 0), BuildingBlock: OJICUG_clean_linker_0, # of connection points: 2
#     Edge 77, Type (0, 0), BuildingBlock: OJICUG_clean_linker_0, # of connection points: 2
#     Edge 78, Type (0, 0), BuildingBlock: OJICUG_clean_linker_0, # of connection points: 2
#     Edge 79, Type (0, 0), BuildingBlock: OJICUG_clean_linker_0, # of connection points: 2
#     Edge 80, Type (0, 0), BuildingBlock: OJICUG_clean_linker_0, # of connection points: 2
#     Edge 81, Type (0, 0), BuildingBlock: OJICUG_clean_linker_0, # of connection points: 2
#     Edge 82, Type (0, 0), BuildingBlock: OJICUG_clean_linker_0, # of connection points: 2
#     Edge 83, Type (0, 0), BuildingBlock: OJICUG_clean_linker_0, # of connection points: 2
#     Edge 84, Type (0, 0), BuildingBlock: OJICUG_clean_linker_0, # of connection points: 2
#     Edge 85, Type (0, 0), BuildingBlock: OJICUG_clean_linker_0, # of connection points: 2
#     Edge 86, Type (0, 0), BuildingBlock: OJICUG_clean_linker_0, # of connection points: 2
#     Edge 87, Type (0, 0), BuildingBlock: OJICUG_clean_linker_0, # of connection points: 2
#     Edge 88, Type (0, 0), BuildingBlock: OJICUG_clean_linker_0, # of connection points: 2
#     Edge 89, Type (0, 0), BuildingBlock: OJICUG_clean_linker_0, # of connection points: 2
#     Edge 90, Type (0, 0), BuildingBlock: OJICUG_clean_linker_0, # of connection points: 2
#     Edge 91, Type (0, 0), BuildingBlock: OJICUG_clean_linker_0, # of connection points: 2
#     Edge 92, Type (0, 0), BuildingBlock: OJICUG_clean_linker_0, # of connection points: 2
#     Edge 93, Type (0, 0), BuildingBlock: OJICUG_clean_linker_0, # of connection points: 2
#     Edge 94, Type (0, 0), BuildingBlock: OJICUG_clean_linker_0, # of connection points: 2
#     Edge 95, Type (0, 0), BuildingBlock: OJICUG_clean_linker_0, # of connection points: 2
#     Edge 96, Type (0, 0), BuildingBlock: OJICUG_clean_linker_0, # of connection points: 2
#     Edge 97, Type (0, 0), BuildingBlock: OJICUG_clean_linker_0, # of connection points: 2
#     Edge 98, Type (0, 0), BuildingBlock: OJICUG_clean_linker_0, # of connection points: 2
#     Edge 99, Type (0, 0), BuildingBlock: OJICUG_clean_linker_0, # of connection points: 2
#     Edge 100, Type (0, 0), BuildingBlock: OJICUG_clean_linker_0, # of connection points: 2
#     Edge 101, Type (0, 0), BuildingBlock: OJICUG_clean_linker_0, # of connection points: 2
#     Edge 102, Type (0, 0), BuildingBlock: OJICUG_clean_linker_0, # of connection points: 2
#     Edge 103, Type (0, 0), BuildingBlock: OJICUG_clean_linker_0, # of connection points: 2
#     Edge 104, Type (0, 0), BuildingBlock: OJICUG_clean_linker_0, # of connection points: 2
#     Edge 105, Type (0, 0), BuildingBlock: OJICUG_clean_linker_0, # of connection points: 2
#     Edge 106, Type (0, 0), BuildingBlock: OJICUG_clean_linker_0, # of connection points: 2
#     Edge 107, Type (0, 0), BuildingBlock: OJICUG_clean_linker_0, # of connection points: 2
#     Edge 108, Type (0, 0), BuildingBlock: OJICUG_clean_linker_0, # of connection points: 2
#     Edge 109, Type (0, 0), BuildingBlock: OJICUG_clean_linker_0, # of connection points: 2
#     Edge 110, Type (0, 0), BuildingBlock: OJICUG_clean_linker_0, # of connection points: 2
#     Edge 111, Type (0, 0), BuildingBlock: OJICUG_clean_linker_0, # of connection points: 2
#     Edge 112, Type (0, 0), BuildingBlock: OJICUG_clean_linker_0, # of connection points: 2
#     Edge 113, Type (0, 0), BuildingBlock: OJICUG_clean_linker_0, # of connection points: 2
#     Edge 114, Type (0, 0), BuildingBlock: OJICUG_clean_linker_0, # of connection points: 2
#     Edge 115, Type (0, 0), BuildingBlock: OJICUG_clean_linker_0, # of connection points: 2
#     Edge 116, Type (0, 0), BuildingBlock: OJICUG_clean_linker_0, # of connection points: 2
#     Edge 117, Type (0, 0), BuildingBlock: OJICUG_clean_linker_0, # of connection points: 2
#     Edge 118, Type (0, 0), BuildingBlock: OJICUG_clean_linker_0, # of connection points: 2
#     Edge 119, Type (0, 0), BuildingBlock: OJICUG_clean_linker_0, # of connection points: 2
#     Edge 120, Type (0, 0), BuildingBlock: OJICUG_clean_linker_0, # of connection points: 2
#     Edge 121, Type (0, 0), BuildingBlock: OJICUG_clean_linker_0, # of connection points: 2
#     Edge 122, Type (0, 0), BuildingBlock: OJICUG_clean_linker_0, # of connection points: 2
#     Edge 123, Type (0, 0), BuildingBlock: OJICUG_clean_linker_0, # of connection points: 2
#     Edge 124, Type (0, 0), BuildingBlock: OJICUG_clean_linker_0, # of connection points: 2
#     Edge 125, Type (0, 0), BuildingBlock: OJICUG_clean_linker_0, # of connection points: 2
#     Edge 126, Type (0, 0), BuildingBlock: OJICUG_clean_linker_0, # of connection points: 2
#     Edge 127, Type (0, 0), BuildingBlock: OJICUG_clean_linker_0, # of connection points: 2
#     Edge 128, Type (0, 0), BuildingBlock: OJICUG_clean_linker_0, # of connection points: 2
#     Edge 129, Type (0, 0), BuildingBlock: OJICUG_clean_linker_0, # of connection points: 2
#     Edge 130, Type (0, 0), BuildingBlock: OJICUG_clean_linker_0, # of connection points: 2
#     Edge 131, Type (0, 0), BuildingBlock: OJICUG_clean_linker_0, # of connection points: 2
#     Edge 132, Type (0, 0), BuildingBlock: OJICUG_clean_linker_0, # of connection points: 2
#     Edge 133, Type (0, 0), BuildingBlock: OJICUG_clean_linker_0, # of connection points: 2
#     Edge 134, Type (0, 0), BuildingBlock: OJICUG_clean_linker_0, # of connection points: 2
#     Edge 135, Type (0, 0), BuildingBlock: OJICUG_clean_linker_0, # of connection points: 2
#     Edge 136, Type (0, 0), BuildingBlock: OJICUG_clean_linker_0, # of connection points: 2
#     Edge 137, Type (0, 0), BuildingBlock: OJICUG_clean_linker_0, # of connection points: 2
#     Edge 138, Type (0, 0), BuildingBlock: OJICUG_clean_linker_0, # of connection points: 2
#     Edge 139, Type (0, 0), BuildingBlock: OJICUG_clean_linker_0, # of connection points: 2
#     Edge 140, Type (0, 0), BuildingBlock: OJICUG_clean_linker_0, # of connection points: 2
#     Edge 141, Type (0, 0), BuildingBlock: OJICUG_clean_linker_0, # of connection points: 2
#     Edge 142, Type (0, 0), BuildingBlock: OJICUG_clean_linker_0, # of connection points: 2
#     Edge 143, Type (0, 0), BuildingBlock: OJICUG_clean_linker_0, # of connection points: 2
# Relax obj value: 0.022
# Max RMSD: 0.081
# Mean RMSD: 0.081
data_MOF--net-ull--node1-CEKHIL_clean_sbu_0--edge1-OJICUG_clean_linker_0
_symmetry_space_group_name_H-M    P1
_symmetry_Int_Tables_number       1
_symmetry_cell_setting            triclinic
loop_
_symmetry_equiv_pos_as_xyz
'x, y, z'
_cell_length_a     44.232155
_cell_length_b     44.270949
_cell_length_c     44.271148
_cell_angle_alpha  90.038225
_cell_angle_beta   89.973026
_cell_angle_gamma 90.007183
loop_
_atom_site_label
_atom_site_type_symbol
_atom_site_fract_x
_atom_site_fract_y
_atom_site_fract_z
_atom_type_partial_charge
Co0 Co 0.0467 0.3432 0.17037 0.0
O1 O 0.0808 0.3508 0.19545 0.0
O2 O 0.03767 0.37589 0.19876 0.0
C3 C 0.07324 0.34196 0.1266 0.0
O4 O 0.00715 0.3407 0.14644 0.0
Co5 Co 0.04692 0.28201 0.13494 0.0
O6 O 0.01084 0.30008 0.11573 0.0
C7 C 0.03417 0.28241 0.20035 0.0
C8 C 0.06523 0.37185 0.20841 0.0
C9 C 0.99686 0.32343 0.12526 0.0
O10 O 0.0316 0.31146 0.20015 0.0
O11 O 0.04332 0.26723 0.17747 0.0
O12 O 0.06469 0.36769 0.13779 0.0
O13 O 0.06806 0.3189 0.14353 0.0
Co14 Co 0.6635 0.04695 0.16798 0.0
O15 O 0.65628 0.08191 0.19194 0.0
O16 O 0.63098 0.03918 0.19699 0.0
C17 C 0.66434 0.07221 0.12344 0.0
O18 O 0.66545 0.00668 0.14526 0.0
Co19 Co 0.72425 0.04574 0.13168 0.0
O20 O 0.70575 0.00916 0.11394 0.0
C21 C 0.72467 0.03442 0.19741 0.0
C22 C 0.63496 0.06715 0.20539 0.0
C23 C 0.68244 0.99564 0.12422 0.0
O24 O 0.69554 0.03254 0.19784 0.0
O25 O 0.73961 0.04265 0.17403 0.0
O26 O 0.63871 0.06407 0.13515 0.0
O27 O 0.68761 0.06734 0.14021 0.0
Co28 Co 0.96088 0.66033 0.17173 0.0
O29 O 0.9269 0.65278 0.19702 0.0
O30 O 0.96986 0.62737 0.19985 0.0
C31 C 0.93405 0.66198 0.12821 0.0
O32 O 1.00025 0.6629 0.1474 0.0
Co33 Co 0.96047 0.7219 0.137 0.0
O34 O 0.99627 0.70385 0.11719 0.0
C35 C 0.97364 0.72081 0.20227 0.0
C36 C 0.94239 0.63156 0.20974 0.0
C37 C 0.01032 0.68037 0.12626 0.0
O38 O 0.97633 0.69178 0.20165 0.0
O39 O 0.96423 0.73624 0.17969 0.0
O40 O 0.94255 0.63614 0.13913 0.0
O41 O 0.93942 0.6849 0.14529 0.0
Co42 Co 0.34157 0.95738 0.16994 0.0
O43 O 0.34935 0.92239 0.19362 0.0
O44 O 0.37448 0.96521 0.19854 0.0
C45 C 0.34039 0.93224 0.12533 0.0
O46 O 0.33895 0.99766 0.14734 0.0
Co47 Co 0.28018 0.9581 0.13487 0.0
O48 O 0.29787 0.99506 0.11707 0.0
C49 C 0.28083 0.96948 0.20054 0.0
C50 C 0.37083 0.93716 0.20678 0.0
C51 C 0.32137 0.00868 0.12679 0.0
O52 O 0.30995 0.97156 0.20035 0.0
O53 O 0.26547 0.96105 0.17751 0.0
O54 O 0.36607 0.94057 0.13677 0.0
O55 O 0.31725 0.93683 0.14242 0.0
Co56 Co 0.04628 0.66105 0.83349 0.0
O57 O 0.07856 0.65409 0.80581 0.0
O58 O 0.03598 0.62781 0.80625 0.0
C59 C 0.07603 0.6633 0.87514 0.0
O60 O 0.00834 0.66274 0.86006 0.0
Co61 Co 0.04708 0.72207 0.86931 0.0
O62 O 0.01289 0.70312 0.89092 0.0
C63 C 0.02414 0.72073 0.80644 0.0
C64 C 0.06256 0.63246 0.79441 0.0
C65 C 0.99873 0.67974 0.88179 0.0
O66 O 0.02771 0.69185 0.80482 0.0
O67 O 0.03214 0.73662 0.82925 0.0
O68 O 0.06725 0.63735 0.86471 0.0
O69 O 0.06905 0.68621 0.85861 0.0
Co70 Co 0.3423 0.04717 0.83484 0.0
O71 O 0.34977 0.08191 0.81063 0.0
O72 O 0.37664 0.03997 0.80778 0.0
C73 C 0.33848 0.07321 0.87877 0.0
O74 O 0.34028 0.00722 0.85815 0.0
Co75 Co 0.27972 0.04456 0.86771 0.0
O76 O 0.29832 0.00898 0.88724 0.0
C77 C 0.28389 0.02721 0.80336 0.0
C78 C 0.37241 0.06771 0.79883 0.0
C79 C 0.32244 0.99591 0.87833 0.0
O80 O 0.31283 0.03069 0.80364 0.0
O81 O 0.26676 0.03331 0.82585 0.0
O82 O 0.36479 0.06557 0.86835 0.0
O83 O 0.31604 0.06749 0.86106 0.0
Co84 Co 0.95977 0.34462 0.83402 0.0
O85 O 0.92579 0.35547 0.80986 0.0
O86 O 0.97033 0.37809 0.80725 0.0
C87 C 0.93321 0.34264 0.87776 0.0
O88 O 0.99938 0.33953 0.85732 0.0
Co89 Co 0.95809 0.28257 0.86757 0.0
O90 O 0.99528 0.29821 0.88688 0.0
C91 C 0.9702 0.28456 0.80197 0.0
C92 C 0.94223 0.3768 0.79849 0.0
C93 C 0.00966 0.32146 0.87777 0.0
O94 O 0.97324 0.31356 0.8028 0.0
O95 O 0.96104 0.269 0.82456 0.0
O96 O 0.94313 0.36837 0.8678 0.0
O97 O 0.93749 0.32002 0.85995 0.0
Co98 Co 0.66308 0.95787 0.83382 0.0
O99 O 0.65584 0.92278 0.81 0.0
O100 O 0.63171 0.96603 0.80374 0.0
C101 C 0.66169 0.93333 0.87861 0.0
O102 O 0.66533 0.99841 0.85607 0.0
Co103 Co 0.72301 0.9579 0.87155 0.0
O104 O 0.7067 0.9969 0.88602 0.0
C105 C 0.7253 0.96918 0.80588 0.0
C106 C 0.6353 0.93789 0.79576 0.0
C107 C 0.68323 0.01022 0.87591 0.0
O108 O 0.69622 0.97136 0.80481 0.0
O109 O 0.73958 0.9607 0.82956 0.0
O110 O 0.63672 0.94172 0.86581 0.0
O111 O 0.6858 0.93734 0.8628 0.0
Co112 Co 0.17054 0.04567 0.34357 0.0
O113 O 0.19636 0.07954 0.34967 0.0
O114 O 0.19888 0.03758 0.37658 0.0
C115 C 0.12719 0.07303 0.34161 0.0
O116 O 0.14593 0.00644 0.34262 0.0
Co117 Co 0.1346 0.04421 0.28262 0.0
O118 O 0.11501 0.00914 0.30207 0.0
C119 C 0.19831 0.02375 0.28393 0.0
C120 C 0.209 0.06477 0.37145 0.0
C121 C 0.12474 0.9957 0.32561 0.0
O122 O 0.1999 0.02809 0.31271 0.0
O123 O 0.1751 0.03039 0.26801 0.0
O124 O 0.1385 0.06524 0.36748 0.0
O125 O 0.14385 0.06672 0.31855 0.0
Co126 Co 0.95906 0.17173 0.34358 0.0
O127 O 0.92536 0.19776 0.35001 0.0
O128 O 0.96744 0.19972 0.37684 0.0
C129 C 0.93133 0.12869 0.34129 0.0
O130 O 0.99816 0.14677 0.34229 0.0
Co131 Co 0.96005 0.13611 0.2824 0.0
O132 O 0.99455 0.11564 0.30198 0.0
C133 C 0.98052 0.19976 0.28397 0.0
C134 C 0.94029 0.21007 0.37189 0.0
C135 C 0.0084 0.12524 0.32537 0.0
O136 O 0.97668 0.20113 0.31283 0.0
O137 O 0.97354 0.17671 0.26795 0.0
O138 O 0.93929 0.13968 0.36726 0.0
O139 O 0.93771 0.14547 0.31839 0.0
Co140 Co 0.83517 0.95923 0.34064 0.0
O141 O 0.80981 0.92503 0.34651 0.0
O142 O 0.80653 0.96682 0.37357 0.0
C143 C 0.87867 0.93212 0.33904 0.0
O144 O 0.8594 0.99873 0.34006 0.0
Co145 Co 0.87205 0.96114 0.28024 0.0
O146 O 0.89145 0.99593 0.30039 0.0
C147 C 0.80802 0.98094 0.28079 0.0
C148 C 0.79711 0.93935 0.36857 0.0
C149 C 0.88107 0.00944 0.32364 0.0
O150 O 0.80595 0.9765 0.30952 0.0
O151 O 0.83158 0.97454 0.26524 0.0
O152 O 0.86712 0.93996 0.3648 0.0
O153 O 0.86228 0.93839 0.31581 0.0
Co154 Co 0.04645 0.83346 0.34509 0.0
O155 O 0.08056 0.80868 0.35341 0.0
O156 O 0.03765 0.8063 0.37889 0.0
C157 C 0.07343 0.87693 0.34271 0.0
O158 O 0.00699 0.85755 0.34204 0.0
Co159 Co 0.04666 0.86746 0.2831 0.0
O160 O 0.01139 0.88796 0.30131 0.0
C161 C 0.02716 0.80351 0.2857 0.0
C162 C 0.06551 0.79721 0.37564 0.0
C163 C 0.99704 0.87867 0.32452 0.0
O164 O 0.03039 0.80287 0.31466 0.0
O165 O 0.03408 0.8263 0.26931 0.0
O166 O 0.06466 0.86646 0.3686 0.0
O167 O 0.06815 0.85953 0.31994 0.0
Co168 Co 0.16942 0.95932 0.66165 0.0
O169 O 0.19346 0.92459 0.65381 0.0
O170 O 0.19705 0.96702 0.62786 0.0
C171 C 0.12533 0.93333 0.66455 0.0
O172 O 0.14634 0.99931 0.66434 0.0
Co173 Co 0.13632 0.96052 0.72406 0.0
O174 O 0.1177 0.99724 0.70659 0.0
C175 C 0.20168 0.9729 0.72104 0.0
C176 C 0.20583 0.93916 0.63175 0.0
C177 C 0.12644 0.01055 0.68255 0.0
O178 O 0.20041 0.97462 0.69198 0.0
O179 O 0.17946 0.9642 0.7374 0.0
O180 O 0.13587 0.94153 0.63847 0.0
O181 O 0.14294 0.93869 0.68711 0.0
Co182 Co 0.04668 0.17196 0.66134 0.0
O183 O 0.08039 0.19781 0.65474 0.0
O184 O 0.03842 0.19937 0.62764 0.0
C185 C 0.07432 0.12896 0.66448 0.0
O186 O 0.0076 0.14712 0.66284 0.0
Co187 Co 0.04532 0.13773 0.72322 0.0
O188 O 0.01102 0.11681 0.70373 0.0
C189 C 0.02469 0.20125 0.72015 0.0
C190 C 0.06552 0.20984 0.63268 0.0
C191 C 0.99729 0.12596 0.68011 0.0
O192 O 0.02889 0.20195 0.69134 0.0
O193 O 0.0314 0.17857 0.73677 0.0
O194 O 0.06651 0.13954 0.63831 0.0
O195 O 0.06788 0.14613 0.68712 0.0
Co196 Co 0.83515 0.04664 0.66314 0.0
O197 O 0.80911 0.08035 0.65751 0.0
O198 O 0.80654 0.03855 0.63034 0.0
C199 C 0.87821 0.07441 0.66464 0.0
O200 O 0.86011 0.00766 0.66352 0.0
Co201 Co 0.87234 0.04534 0.72337 0.0
O202 O 0.89287 0.01167 0.70246 0.0
C203 C 0.80883 0.02392 0.72307 0.0
C204 C 0.79658 0.0658 0.63551 0.0
C205 C 0.88244 0.99773 0.67949 0.0
O206 O 0.80641 0.02869 0.6944 0.0
O207 O 0.83236 0.03068 0.73848 0.0
O208 O 0.86669 0.06656 0.63888 0.0
O209 O 0.86194 0.06786 0.68788 0.0
Co210 Co 0.95759 0.83376 0.66304 0.0
O211 O 0.92278 0.80958 0.65566 0.0
O212 O 0.96572 0.80463 0.63065 0.0
C213 C 0.93217 0.87817 0.66362 0.0
O214 O 0.99775 0.85683 0.66546 0.0
Co215 Co 0.95777 0.86983 0.72392 0.0
O216 O 0.99454 0.88782 0.70598 0.0
C217 C 0.96945 0.80423 0.72424 0.0
C218 C 0.93779 0.796 0.63462 0.0
C219 C 0.00843 0.87786 0.68275 0.0
O220 O 0.97185 0.80401 0.69517 0.0
O221 O 0.96074 0.82745 0.73915 0.0
O222 O 0.94054 0.86646 0.63807 0.0
O223 O 0.93682 0.8614 0.6869 0.0
Co224 Co 0.34271 0.17016 0.04712 0.0
O225 O 0.35214 0.19393 0.08173 0.0
O226 O 0.37683 0.19705 0.03846 0.0
C227 C 0.33982 0.12612 0.07303 0.0
O228 O 0.3387 0.14714 0.00718 0.0
Co229 Co 0.28003 0.13753 0.04712 0.0
O230 O 0.29662 0.11837 0.01027 0.0
C231 C 0.28329 0.203 0.03506 0.0
C232 C 0.37422 0.20556 0.06655 0.0
C233 C 0.32039 0.12707 0.99643 0.0
O234 O 0.31235 0.20165 0.03283 0.0
O235 O 0.26703 0.18073 0.04383 0.0
O236 O 0.36586 0.13625 0.06411 0.0
O237 O 0.31735 0.14404 0.06837 0.0
Co238 Co 0.34439 0.83417 0.95726 0.0
O239 O 0.35207 0.8092 0.9231 0.0
O240 O 0.37866 0.80725 0.96526 0.0
C241 C 0.34104 0.87752 0.93018 0.0
O242 O 0.34213 0.85849 0.99665 0.0
Co243 Co 0.28214 0.86781 0.95846 0.0
O244 O 0.30127 0.88886 0.99288 0.0
C245 C 0.28565 0.80405 0.97842 0.0
C246 C 0.37475 0.79789 0.93759 0.0
C247 C 0.32479 0.87971 0.00679 0.0
O248 O 0.31452 0.80348 0.97425 0.0
O249 O 0.26895 0.82675 0.97192 0.0
O250 O 0.36723 0.86722 0.93832 0.0
O251 O 0.31851 0.86 0.93609 0.0
Co252 Co 0.17083 0.34343 0.95827 0.0
O253 O 0.19597 0.3506 0.92413 0.0
O254 O 0.1977 0.37773 0.96599 0.0
C255 C 0.12752 0.33951 0.93121 0.0
O256 O 0.14649 0.34187 0.99762 0.0
Co257 Co 0.13737 0.28117 0.96057 0.0
O258 O 0.11626 0.30086 0.99466 0.0
C259 C 0.20126 0.28519 0.98006 0.0
C260 C 0.20736 0.37334 0.9385 0.0
C261 C 0.12533 0.32469 0.0081 0.0
O262 O 0.20154 0.31399 0.97574 0.0
O263 O 0.17865 0.26825 0.97381 0.0
O264 O 0.13783 0.36584 0.93888 0.0
O265 O 0.14504 0.3171 0.9375 0.0
Co266 Co 0.66218 0.17122 0.95614 0.0
O267 O 0.65519 0.19687 0.92244 0.0
O268 O 0.62817 0.19834 0.9644 0.0
C269 C 0.66531 0.12845 0.92812 0.0
O270 O 0.6637 0.14624 0.99509 0.0
Co271 Co 0.72386 0.13659 0.95734 0.0
O272 O 0.70389 0.11504 0.99094 0.0
C273 C 0.72111 0.20017 0.9782 0.0
C274 C 0.6325 0.20817 0.93696 0.0
C275 C 0.68048 0.12445 0.00491 0.0
O276 O 0.69227 0.20124 0.97389 0.0
O277 O 0.7375 0.1773 0.97147 0.0
O278 O 0.63915 0.13881 0.93632 0.0
O279 O 0.68798 0.14554 0.93468 0.0
Co280 Co 0.83617 0.66133 0.96028 0.0
O281 O 0.81059 0.65456 0.92643 0.0
O282 O 0.80822 0.62824 0.96886 0.0
C283 C 0.8797 0.66351 0.93339 0.0
O284 O 0.86056 0.66282 0.99954 0.0
Co285 Co 0.87111 0.72276 0.96167 0.0
O286 O 0.89144 0.70334 0.99634 0.0
C287 C 0.80702 0.72094 0.98045 0.0
C288 C 0.79805 0.63299 0.94164 0.0
C289 C 0.88193 0.67978 0.00994 0.0
O290 O 0.80629 0.69201 0.97718 0.0
O291 O 0.82999 0.73721 0.97381 0.0
O292 O 0.86852 0.63758 0.94122 0.0
O293 O 0.86274 0.6865 0.93924 0.0
Co294 Co 0.66172 0.83389 0.0452 0.0
O295 O 0.65401 0.80937 0.07969 0.0
O296 O 0.62826 0.80614 0.03704 0.0
C297 C 0.66395 0.87755 0.07183 0.0
O298 O 0.66349 0.85757 0.00551 0.0
Co299 Co 0.72253 0.86972 0.04307 0.0
O300 O 0.70127 0.89142 0.01029 0.0
C301 C 0.72214 0.80395 0.03114 0.0
C302 C 0.63178 0.79743 0.06495 0.0
C303 C 0.67841 0.88089 0.99624 0.0
O304 O 0.69296 0.80366 0.02983 0.0
O305 O 0.73742 0.82726 0.03894 0.0
O306 O 0.63797 0.86681 0.06347 0.0
O307 O 0.68683 0.86052 0.066 0.0
Co308 Co 0.17176 0.66104 0.04498 0.0
O309 O 0.19547 0.6535 0.08004 0.0
O310 O 0.20009 0.62786 0.03747 0.0
C311 C 0.12721 0.66303 0.0703 0.0
O312 O 0.14926 0.6633 0.0046 0.0
Co313 Co 0.1371 0.72261 0.04339 0.0
O314 O 0.11961 0.70485 0.00628 0.0
C315 C 0.20288 0.72128 0.03238 0.0
C316 C 0.2085 0.63182 0.06543 0.0
C317 C 0.12916 0.68106 0.99307 0.0
O318 O 0.20243 0.69219 0.03041 0.0
O319 O 0.17996 0.73689 0.04068 0.0
O320 O 0.13834 0.63714 0.06219 0.0
O321 O 0.14447 0.6859 0.06526 0.0
Co322 Co 0.83478 0.34291 0.04599 0.0
O323 O 0.81042 0.34998 0.08072 0.0
O324 O 0.80637 0.37593 0.0383 0.0
C325 C 0.87898 0.34099 0.0718 0.0
O326 O 0.85802 0.34114 0.00599 0.0
Co327 Co 0.86988 0.28155 0.04436 0.0
O328 O 0.8883 0.30006 0.0081 0.0
C329 C 0.80423 0.28254 0.03264 0.0
C330 C 0.79741 0.37159 0.06603 0.0
C331 C 0.87875 0.32382 0.99487 0.0
O332 O 0.80455 0.31164 0.03075 0.0
O333 O 0.82716 0.26705 0.04111 0.0
O334 O 0.86778 0.36689 0.06389 0.0
O335 O 0.86189 0.31807 0.06638 0.0
Co336 Co 0.54737 0.84274 0.66871 0.0
O337 O 0.5824 0.85012 0.69256 0.0
O338 O 0.53948 0.87517 0.69777 0.0
C339 C 0.57246 0.84195 0.62408 0.0
O340 O 0.50692 0.84041 0.64623 0.0
Co341 Co 0.54637 0.78191 0.63266 0.0
O342 O 0.50914 0.79968 0.61548 0.0
C343 C 0.53577 0.78165 0.69847 0.0
C344 C 0.56743 0.87113 0.70625 0.0
C345 C 0.49562 0.82304 0.62564 0.0
O346 O 0.53333 0.81071 0.69869 0.0
O347 O 0.54414 0.76672 0.67514 0.0
O348 O 0.56421 0.86755 0.63576 0.0
O349 O 0.56778 0.81872 0.64092 0.0
Co350 Co 0.16209 0.54646 0.67048 0.0
O351 O 0.15373 0.5808 0.69502 0.0
O352 O 0.12786 0.53817 0.69733 0.0
C353 C 0.16534 0.57293 0.62684 0.0
O354 O 0.16502 0.50684 0.64665 0.0
Co355 Co 0.2246 0.54565 0.63711 0.0
O356 O 0.20636 0.51029 0.61684 0.0
C357 C 0.22091 0.52675 0.70114 0.0
C358 C 0.13125 0.56601 0.70638 0.0
C359 C 0.18277 0.4964 0.62591 0.0
O360 O 0.19197 0.53027 0.70143 0.0
O361 O 0.2377 0.53332 0.67853 0.0
O362 O 0.13918 0.56467 0.63717 0.0
O363 O 0.18788 0.56759 0.6445 0.0
Co364 Co 0.4582 0.16279 0.67122 0.0
O365 O 0.42497 0.15625 0.69782 0.0
O366 O 0.46737 0.12979 0.69913 0.0
C367 C 0.42985 0.16482 0.62859 0.0
O368 O 0.49698 0.1641 0.64584 0.0
Co369 Co 0.4587 0.22363 0.63512 0.0
O370 O 0.49332 0.20425 0.6146 0.0
C371 C 0.47952 0.22264 0.69869 0.0
C372 C 0.44041 0.13466 0.71001 0.0
C373 C 0.50717 0.18091 0.62424 0.0
O374 O 0.47596 0.19376 0.70026 0.0
O375 O 0.47224 0.23843 0.6756 0.0
O376 O 0.43813 0.13891 0.6395 0.0
O377 O 0.4364 0.18782 0.6452 0.0
Co378 Co 0.84719 0.46007 0.67258 0.0
O379 O 0.85654 0.42828 0.70012 0.0
O380 O 0.88132 0.47177 0.69791 0.0
C381 C 0.84353 0.4304 0.63107 0.0
O382 O 0.84317 0.49754 0.64594 0.0
Co383 Co 0.78389 0.45772 0.64156 0.0
O384 O 0.80019 0.49276 0.6189 0.0
C385 C 0.78839 0.47665 0.70505 0.0
C386 C 0.87806 0.44527 0.71028 0.0
C387 C 0.82438 0.50692 0.6257 0.0
O388 O 0.81742 0.47782 0.70279 0.0
O389 O 0.77117 0.46639 0.68422 0.0
O390 O 0.86981 0.43967 0.64026 0.0
O391 O 0.82129 0.43665 0.64888 0.0
Co392 Co 0.54851 0.16188 0.33364 0.0
O393 O 0.583 0.15458 0.30898 0.0
O394 O 0.53995 0.12957 0.30465 0.0
C395 C 0.57447 0.16251 0.37774 0.0
O396 O 0.50861 0.16411 0.35711 0.0
Co397 Co 0.5484 0.2226 0.36986 0.0
O398 O 0.51213 0.20427 0.38848 0.0
C399 C 0.53643 0.22312 0.3043 0.0
C400 C 0.56769 0.13366 0.29552 0.0
C401 C 0.49817 0.18111 0.37847 0.0
O402 O 0.53392 0.19405 0.30405 0.0
O403 O 0.54524 0.23796 0.32752 0.0
O404 O 0.56601 0.13693 0.36615 0.0
O405 O 0.56953 0.18577 0.36103 0.0
Co406 Co 0.84268 0.54587 0.33447 0.0
O407 O 0.8497 0.57951 0.30868 0.0
O408 O 0.8768 0.53766 0.30736 0.0
C409 C 0.83946 0.57405 0.37715 0.0
O410 O 0.84113 0.50701 0.35972 0.0
Co411 Co 0.78095 0.54479 0.36912 0.0
O412 O 0.80099 0.51146 0.39097 0.0
C413 C 0.7837 0.52386 0.30556 0.0
C414 C 0.87244 0.56505 0.29743 0.0
C415 C 0.82439 0.49741 0.38168 0.0
O416 O 0.81257 0.52803 0.3045 0.0
O417 O 0.76733 0.53074 0.3284 0.0
O418 O 0.86565 0.56585 0.36684 0.0
O419 O 0.81684 0.5674 0.36005 0.0
Co420 Co 0.45803 0.84216 0.33392 0.0
O421 O 0.42338 0.84994 0.30964 0.0
O422 O 0.46666 0.87456 0.30512 0.0
C423 C 0.43257 0.84142 0.37837 0.0
O424 O 0.4982 0.83944 0.35677 0.0
Co425 Co 0.45828 0.78119 0.36961 0.0
O426 O 0.49548 0.79861 0.38726 0.0
C427 C 0.46952 0.7811 0.30393 0.0
C428 C 0.43885 0.87072 0.29615 0.0
C429 C 0.50923 0.82193 0.37735 0.0
O430 O 0.47213 0.81014 0.30392 0.0
O431 O 0.46085 0.7661 0.32708 0.0
O432 O 0.44107 0.86699 0.36683 0.0
O433 O 0.43715 0.81819 0.36145 0.0
Co434 Co 0.16245 0.45947 0.33388 0.0
O435 O 0.15587 0.42508 0.30895 0.0
O436 O 0.12885 0.46691 0.30604 0.0
C437 C 0.16505 0.43268 0.37745 0.0
O438 O 0.16361 0.49909 0.35789 0.0
Co439 Co 0.22378 0.46161 0.36916 0.0
O440 O 0.20399 0.49636 0.38902 0.0
C441 C 0.22181 0.48067 0.30506 0.0
C442 C 0.13344 0.4393 0.29683 0.0
C443 C 0.18045 0.5098 0.37922 0.0
O444 O 0.19296 0.47646 0.30382 0.0
O445 O 0.23794 0.47443 0.32823 0.0
O446 O 0.139 0.44046 0.36651 0.0
O447 O 0.18791 0.43881 0.36045 0.0
Co448 Co 0.67184 0.54596 0.84507 0.0
O449 O 0.69587 0.58074 0.85242 0.0
O450 O 0.6993 0.53861 0.87896 0.0
C451 C 0.62756 0.57137 0.84181 0.0
O452 O 0.64863 0.50612 0.84285 0.0
Co453 Co 0.64005 0.54438 0.78205 0.0
O454 O 0.62039 0.50855 0.80038 0.0
C455 C 0.70489 0.53088 0.78613 0.0
C456 C 0.70818 0.56638 0.87464 0.0
C457 C 0.62859 0.49527 0.82463 0.0
O458 O 0.70295 0.53005 0.81517 0.0
O459 O 0.68321 0.53933 0.76898 0.0
O460 O 0.63829 0.56389 0.86802 0.0
O461 O 0.64536 0.56615 0.81931 0.0
Co462 Co 0.46109 0.67144 0.84212 0.0
O463 O 0.42833 0.69856 0.84886 0.0
O464 O 0.47075 0.69902 0.87532 0.0
C465 C 0.43205 0.6293 0.84001 0.0
O466 O 0.49938 0.64536 0.84061 0.0
Co467 Co 0.46096 0.63557 0.78113 0.0
O468 O 0.49522 0.61434 0.80029 0.0
C469 C 0.48294 0.69876 0.78241 0.0
C470 C 0.44396 0.71033 0.87056 0.0
C471 C 0.5092 0.62363 0.82371 0.0
O472 O 0.47931 0.70032 0.81128 0.0
O473 O 0.47534 0.67583 0.76651 0.0
O474 O 0.44055 0.64004 0.86592 0.0
O475 O 0.43879 0.64584 0.81702 0.0
Co476 Co 0.33444 0.46086 0.84417 0.0
O477 O 0.3095 0.42667 0.85178 0.0
O478 O 0.30621 0.46967 0.87708 0.0
C479 C 0.3783 0.43449 0.84233 0.0
O480 O 0.35811 0.50053 0.8415 0.0
Co481 Co 0.36903 0.46086 0.78245 0.0
O482 O 0.38752 0.49767 0.79982 0.0
C483 C 0.30358 0.47316 0.7839 0.0
C484 C 0.29651 0.44217 0.87287 0.0
C485 C 0.37843 0.51136 0.82353 0.0
O486 O 0.30431 0.47597 0.81289 0.0
O487 O 0.32616 0.46388 0.76835 0.0
O488 O 0.36735 0.44289 0.86822 0.0
O489 O 0.3611 0.43973 0.81948 0.0
Co490 Co 0.54562 0.33527 0.84296 0.0
O491 O 0.57931 0.30956 0.85018 0.0
O492 O 0.53618 0.30684 0.87542 0.0
C493 C 0.57305 0.37846 0.84188 0.0
O494 O 0.5064 0.35977 0.84093 0.0
Co495 Co 0.54593 0.37161 0.78232 0.0
O496 O 0.51008 0.39096 0.80072 0.0
C497 C 0.53275 0.30621 0.78192 0.0
C498 C 0.56354 0.29673 0.87116 0.0
C499 C 0.49616 0.38123 0.82401 0.0
O500 O 0.53006 0.30602 0.81096 0.0
O501 O 0.54209 0.32924 0.76712 0.0
O502 O 0.56429 0.36739 0.86759 0.0
O503 O 0.5673 0.36183 0.81874 0.0
Co504 Co 0.67028 0.4598 0.16105 0.0
O505 O 0.69384 0.42457 0.15373 0.0
O506 O 0.69952 0.46741 0.12874 0.0
C507 C 0.62523 0.43537 0.16169 0.0
O508 O 0.64821 0.5004 0.16325 0.0
Co509 Co 0.63439 0.4612 0.22197 0.0
O510 O 0.61781 0.49872 0.20428 0.0
C511 C 0.70025 0.47136 0.22214 0.0
C512 C 0.70774 0.43941 0.13277 0.0
C513 C 0.62792 0.512 0.18078 0.0
O514 O 0.70038 0.47368 0.19307 0.0
O515 O 0.67692 0.46316 0.23719 0.0
O516 O 0.63723 0.44326 0.13613 0.0
O517 O 0.64206 0.43979 0.18501 0.0
Co518 Co 0.54544 0.67149 0.16019 0.0
O519 O 0.57774 0.69921 0.15377 0.0
O520 O 0.53561 0.69866 0.1268 0.0
C521 C 0.57533 0.63 0.16278 0.0
O522 O 0.50764 0.64465 0.16128 0.0
Co523 Co 0.54556 0.63578 0.22119 0.0
O524 O 0.5128 0.61312 0.20099 0.0
C525 C 0.52267 0.69864 0.21968 0.0
C526 C 0.56212 0.7105 0.13184 0.0
C527 C 0.49854 0.62228 0.1777 0.0
O528 O 0.52641 0.70015 0.19082 0.0
O529 O 0.53049 0.67585 0.23566 0.0
O530 O 0.56686 0.64038 0.13673 0.0
O531 O 0.56796 0.6465 0.18562 0.0
Co532 Co 0.33557 0.54405 0.16035 0.0
O533 O 0.31151 0.57893 0.15291 0.0
O534 O 0.3066 0.53591 0.12795 0.0
C535 C 0.38028 0.56909 0.16119 0.0
O536 O 0.35814 0.50373 0.16271 0.0
Co537 Co 0.37123 0.54322 0.22138 0.0
O538 O 0.3885 0.50597 0.20371 0.0
C539 C 0.30547 0.53241 0.22134 0.0
C540 C 0.29786 0.56375 0.132 0.0
C541 C 0.37857 0.49245 0.18025 0.0
O542 O 0.3055 0.52989 0.19229 0.0
O543 O 0.32864 0.54094 0.23643 0.0
O544 O 0.36856 0.56096 0.13558 0.0
O545 O 0.36336 0.56449 0.18442 0.0
Co546 Co 0.46048 0.33247 0.16047 0.0
O547 O 0.4283 0.30457 0.15404 0.0
O548 O 0.47055 0.30512 0.12723 0.0
C549 C 0.43054 0.37396 0.1628 0.0
O550 O 0.49818 0.35948 0.16158 0.0
Co551 Co 0.46001 0.36846 0.22135 0.0
O552 O 0.4925 0.39136 0.20099 0.0
C553 C 0.48307 0.30568 0.22017 0.0
C554 C 0.44408 0.29318 0.13223 0.0
C555 C 0.50697 0.38211 0.17783 0.0
O556 O 0.47949 0.30403 0.19128 0.0
O557 O 0.47507 0.32851 0.23603 0.0
O558 O 0.43905 0.36341 0.13681 0.0
O559 O 0.43781 0.35756 0.18572 0.0
Co560 Co 0.84129 0.66952 0.5468 0.0
O561 O 0.84893 0.69315 0.58194 0.0
O562 O 0.87424 0.69812 0.5392 0.0
C563 C 0.83978 0.62468 0.57142 0.0
O564 O 0.83878 0.64719 0.50637 0.0
Co565 Co 0.77963 0.6348 0.54556 0.0
O566 O 0.79731 0.6174 0.50836 0.0
C567 C 0.78079 0.70047 0.53456 0.0
C568 C 0.87028 0.70654 0.56716 0.0
C569 C 0.821 0.62701 0.49499 0.0
O570 O 0.8099 0.70006 0.53259 0.0
O571 O 0.76519 0.67756 0.54285 0.0
O572 O 0.86556 0.63622 0.56349 0.0
O573 O 0.81672 0.64187 0.56697 0.0
Co574 Co 0.84291 0.33507 0.46093 0.0
O575 O 0.85042 0.31179 0.42549 0.0
O576 O 0.8759 0.30638 0.46801 0.0
C577 C 0.8414 0.37998 0.4363 0.0
O578 O 0.84079 0.35706 0.50166 0.0
Co579 Co 0.78171 0.37039 0.46317 0.0
O580 O 0.79945 0.38707 0.50063 0.0
C581 C 0.78224 0.30446 0.47296 0.0
C582 C 0.87204 0.29845 0.4399 0.0
C583 C 0.82321 0.37713 0.51358 0.0
O584 O 0.81137 0.3045 0.47495 0.0
O585 O 0.76694 0.32771 0.46509 0.0
O586 O 0.86719 0.3685 0.44424 0.0
O587 O 0.81833 0.36288 0.44107 0.0
Co588 Co 0.6711 0.84258 0.45626 0.0
O589 O 0.69715 0.84843 0.42257 0.0
O590 O 0.69888 0.87618 0.46403 0.0
C591 C 0.6282 0.83961 0.42838 0.0
O592 O 0.64596 0.84204 0.49519 0.0
Co593 Co 0.63564 0.78132 0.45821 0.0
O594 O 0.61446 0.80202 0.49162 0.0
C595 C 0.6991 0.78363 0.47942 0.0
C596 C 0.70918 0.87083 0.43694 0.0
C597 C 0.62409 0.8255 0.50528 0.0
O598 O 0.70056 0.81234 0.47464 0.0
O599 O 0.67608 0.76741 0.4728 0.0
O600 O 0.63906 0.86575 0.43595 0.0
O601 O 0.64502 0.81686 0.43526 0.0
Co602 Co 0.1614 0.67085 0.45992 0.0
O603 O 0.15257 0.69692 0.42687 0.0
O604 O 0.12847 0.69817 0.47075 0.0
C605 C 0.16291 0.62787 0.43216 0.0
O606 O 0.16506 0.64601 0.49864 0.0
Co607 Co 0.22313 0.63657 0.45803 0.0
O608 O 0.20667 0.61672 0.49457 0.0
C609 C 0.22186 0.70164 0.4721 0.0
C610 C 0.13175 0.70891 0.44354 0.0
C611 C 0.18308 0.6254 0.50872 0.0
O612 O 0.19287 0.70075 0.47527 0.0
O613 O 0.23733 0.67933 0.46207 0.0
O614 O 0.13715 0.63837 0.44151 0.0
O615 O 0.18585 0.64505 0.43736 0.0
Co616 Co 0.33593 0.16183 0.45788 0.0
O617 O 0.31206 0.15418 0.42293 0.0
O618 O 0.30744 0.12881 0.46562 0.0
C619 C 0.3804 0.16354 0.43237 0.0
O620 O 0.35854 0.16422 0.49821 0.0
Co621 Co 0.37114 0.22316 0.45915 0.0
O622 O 0.38869 0.20539 0.49618 0.0
C623 C 0.30535 0.22233 0.47032 0.0
C624 C 0.29895 0.13266 0.43767 0.0
C625 C 0.37888 0.18182 0.50958 0.0
O626 O 0.3055 0.19324 0.47238 0.0
O627 O 0.3284 0.2377 0.46194 0.0
O628 O 0.36924 0.13771 0.44062 0.0
O629 O 0.36323 0.18646 0.43744 0.0
Co630 Co 0.16382 0.33484 0.54564 0.0
O631 O 0.15698 0.3098 0.57983 0.0
O632 O 0.1301 0.30718 0.53789 0.0
C633 C 0.16645 0.37829 0.57265 0.0
O634 O 0.16536 0.35904 0.50619 0.0
Co635 Co 0.22544 0.36962 0.54402 0.0
O636 O 0.20601 0.38981 0.5093 0.0
C637 C 0.22295 0.30573 0.52426 0.0
C638 C 0.13456 0.29781 0.56546 0.0
C639 C 0.18246 0.38026 0.49568 0.0
O640 O 0.19412 0.3047 0.52854 0.0
O641 O 0.2393 0.32873 0.53063 0.0
O642 O 0.14042 0.36743 0.5647 0.0
O643 O 0.18931 0.36124 0.56659 0.0
Co644 Co 0.67036 0.16162 0.54715 0.0
O645 O 0.69555 0.15563 0.58143 0.0
O646 O 0.69859 0.12834 0.53974 0.0
C647 C 0.62666 0.16399 0.57387 0.0
O648 O 0.64626 0.1623 0.50762 0.0
Co649 Co 0.63466 0.22267 0.54479 0.0
O650 O 0.61447 0.20213 0.5107 0.0
C651 C 0.69867 0.22098 0.5252 0.0
C652 C 0.70813 0.13348 0.56714 0.0
C653 C 0.62455 0.17877 0.49713 0.0
O654 O 0.70013 0.19223 0.52979 0.0
O655 O 0.67538 0.23701 0.53137 0.0
O656 O 0.63796 0.13801 0.56642 0.0
O657 O 0.6435 0.18694 0.56766 0.0
Co658 Co 0.33407 0.84417 0.54619 0.0
O659 O 0.30785 0.85096 0.57961 0.0
O660 O 0.30658 0.87769 0.53743 0.0
C661 C 0.37691 0.84126 0.57416 0.0
O662 O 0.35927 0.84263 0.50733 0.0
Co663 Co 0.36857 0.78245 0.54518 0.0
O664 O 0.38973 0.80185 0.51097 0.0
C665 C 0.30485 0.78492 0.52524 0.0
C666 C 0.2958 0.87279 0.56441 0.0
C667 C 0.38065 0.82548 0.49721 0.0
O668 O 0.30429 0.81386 0.5285 0.0
O669 O 0.32753 0.76843 0.53231 0.0
O670 O 0.36633 0.86739 0.56615 0.0
O671 O 0.35983 0.81857 0.56765 0.0
C672 C 0.08908 0.43654 0.26025 0.0
C673 C 0.11398 0.42313 0.27486 0.0
H674 H 0.05331 0.4306 0.22755 0.0
C675 C 0.12058 0.39267 0.2689 0.0
H676 H 0.08327 0.45989 0.26462 0.0
C677 C 0.10365 0.37623 0.24833 0.0
C678 C 0.07946 0.38956 0.23288 0.0
H679 H 0.13922 0.38128 0.27994 0.0
H680 H 0.10998 0.35295 0.24416 0.0
C681 C 0.07181 0.41976 0.23933 0.0
C682 C 0.62496 0.11219 0.23684 0.0
C683 C 0.61636 0.08285 0.22841 0.0
H684 H 0.61611 0.15091 0.26369 0.0
C685 C 0.59011 0.07027 0.24133 0.0
H686 H 0.64487 0.12284 0.22735 0.0
C687 C 0.57312 0.08689 0.26261 0.0
C688 C 0.58243 0.11607 0.27121 0.0
H689 H 0.58279 0.04778 0.23507 0.0
H690 H 0.55331 0.07673 0.27278 0.0
C691 C 0.60833 0.12846 0.2578 0.0
C692 C 0.93456 0.58334 0.23991 0.0
C693 C 0.92816 0.614 0.23432 0.0
H694 H 0.92158 0.54311 0.26429 0.0
C695 C 0.90489 0.62801 0.25058 0.0
H696 H 0.95233 0.57197 0.22748 0.0
C697 C 0.88749 0.61183 0.27095 0.0
C698 C 0.89269 0.58093 0.27592 0.0
H699 H 0.89957 0.65166 0.24709 0.0
H700 H 0.86956 0.62378 0.28259 0.0
C701 C 0.91684 0.56682 0.26067 0.0
C702 C 0.43241 0.91815 0.26449 0.0
C703 C 0.42434 0.88824 0.27171 0.0
H704 H 0.42142 0.95781 0.23833 0.0
C705 C 0.39969 0.87499 0.25691 0.0
H706 H 0.45127 0.92893 0.27577 0.0
C707 C 0.38287 0.89118 0.23606 0.0
C708 C 0.39001 0.92132 0.22922 0.0
H709 H 0.39299 0.85193 0.2617 0.0
H710 H 0.36391 0.87985 0.22551 0.0
C711 C 0.41521 0.9347 0.24336 0.0
C712 C 0.11215 0.61349 0.72873 0.0
C713 C 0.11024 0.58186 0.72711 0.0
H714 H 0.09799 0.6539 0.75063 0.0
C715 C 0.08913 0.56682 0.74559 0.0
H716 H 0.12756 0.62601 0.71441 0.0
C717 C 0.07165 0.58326 0.76659 0.0
C718 C 0.07525 0.61476 0.76914 0.0
H719 H 0.08699 0.54247 0.74461 0.0
H720 H 0.05666 0.57128 0.78177 0.0
C721 C 0.09499 0.62963 0.74941 0.0
C722 C 0.38678 0.11476 0.77238 0.0
C723 C 0.3923 0.0839 0.77726 0.0
H724 H 0.39803 0.15462 0.74813 0.0
C725 C 0.41624 0.06996 0.76156 0.0
H726 H 0.36895 0.12655 0.78433 0.0
C727 C 0.43342 0.08656 0.74044 0.0
C728 C 0.42665 0.11714 0.73488 0.0
H729 H 0.42122 0.04627 0.76508 0.0
H730 H 0.45104 0.07529 0.72771 0.0
C731 C 0.40361 0.13104 0.75159 0.0
C732 C 0.92806 0.43184 0.73393 0.0
C733 C 0.8964 0.43434 0.73571 0.0
H734 H 0.96802 0.41117 0.75276 0.0
C735 C 0.88111 0.421 0.75993 0.0
H736 H 0.9402 0.44163 0.71507 0.0
C737 C 0.89667 0.40373 0.78097 0.0
C738 C 0.92796 0.39915 0.77825 0.0
H739 H 0.85672 0.42273 0.76178 0.0
H740 H 0.88386 0.39295 0.79883 0.0
C741 C 0.94387 0.4143 0.75526 0.0
C742 C 0.59017 0.93455 0.7603 0.0
C743 C 0.61697 0.92238 0.77243 0.0
H744 H 0.55267 0.9276 0.72984 0.0
C745 C 0.62614 0.89345 0.76324 0.0
H746 H 0.58242 0.95671 0.76719 0.0
C747 C 0.60937 0.87708 0.74247 0.0
C748 C 0.58274 0.88896 0.73005 0.0
H749 H 0.64654 0.88319 0.77207 0.0
H750 H 0.61752 0.8549 0.73606 0.0
C751 C 0.57302 0.91782 0.73926 0.0
C752 C 0.24144 0.07088 0.41849 0.0
C753 C 0.23336 0.07956 0.38898 0.0
H754 H 0.26854 0.08118 0.45775 0.0
C755 C 0.24735 0.10491 0.37614 0.0
H756 H 0.23084 0.0515 0.429 0.0
C757 C 0.2683 0.12166 0.3923 0.0
C758 C 0.27616 0.11374 0.42198 0.0
H759 H 0.24188 0.11221 0.35343 0.0
H760 H 0.27819 0.14115 0.3813 0.0
C761 C 0.26273 0.08798 0.43499 0.0
C762 C 0.88386 0.26958 0.39349 0.0
C763 C 0.89118 0.27622 0.42364 0.0
H764 H 0.89388 0.24443 0.35388 0.0
C765 C 0.91658 0.26209 0.43665 0.0
H766 H 0.86471 0.2801 0.38246 0.0
C767 C 0.9338 0.24122 0.41974 0.0
C768 C 0.92563 0.23425 0.38979 0.0
H769 H 0.92293 0.26696 0.45976 0.0
H770 H 0.95281 0.22998 0.43028 0.0
C771 C 0.90075 0.24903 0.37692 0.0
C772 C 0.74479 0.87776 0.3946 0.0
C773 C 0.73261 0.88915 0.42156 0.0
H774 H 0.77364 0.88464 0.35704 0.0
C775 C 0.74166 0.91801 0.43149 0.0
H776 H 0.73852 0.85565 0.38617 0.0
C777 C 0.76238 0.93513 0.4143 0.0
C778 C 0.77419 0.92345 0.38713 0.0
H779 H 0.73246 0.92744 0.4521 0.0
H780 H 0.7692 0.95724 0.42226 0.0
C781 C 0.76507 0.89458 0.3777 0.0
C782 C 0.11291 0.77521 0.39517 0.0
C783 C 0.0812 0.77641 0.3966 0.0
H784 H 0.15335 0.75345 0.40948 0.0
C785 C 0.066 0.75743 0.4171 0.0
H786 H 0.12554 0.78995 0.38025 0.0
C787 C 0.08241 0.73632 0.43442 0.0
C788 C 0.114 0.73419 0.43123 0.0
H789 H 0.04159 0.75807 0.41885 0.0
H790 H 0.07036 0.72071 0.44891 0.0
C791 C 0.129 0.7544 0.41213 0.0
C792 C 0.23375 0.89267 0.61843 0.0
C793 C 0.22801 0.92326 0.61228 0.0
H794 H 0.25878 0.85316 0.60782 0.0
C795 C 0.24335 0.93712 0.58807 0.0
H796 H 0.2222 0.88094 0.63653 0.0
C797 C 0.26477 0.92065 0.57109 0.0
C798 C 0.27101 0.89032 0.57835 0.0
H799 H 0.2392 0.9606 0.58264 0.0
H800 H 0.27708 0.93183 0.55314 0.0
C801 C 0.25481 0.87655 0.6018 0.0
C802 C 0.10441 0.24934 0.62827 0.0
C803 C 0.0801 0.23406 0.6149 0.0
H804 H 0.14023 0.28065 0.62334 0.0
C805 C 0.07257 0.24057 0.58469 0.0
H806 H 0.1107 0.24517 0.65155 0.0
C807 C 0.08999 0.26141 0.56799 0.0
C808 C 0.11497 0.27585 0.58146 0.0
H809 H 0.05397 0.22896 0.57381 0.0
H810 H 0.08423 0.26589 0.54465 0.0
C811 C 0.12152 0.26977 0.61189 0.0
C812 C 0.76257 0.0701 0.58934 0.0
C813 C 0.77319 0.08123 0.6172 0.0
H814 H 0.73357 0.07813 0.55092 0.0
C815 C 0.76259 0.10929 0.62749 0.0
H816 H 0.77054 0.04863 0.58074 0.0
C817 C 0.74218 0.12595 0.61064 0.0
C818 C 0.73135 0.11521 0.58285 0.0
H819 H 0.77019 0.11873 0.64876 0.0
H820 H 0.73482 0.14748 0.61969 0.0
C821 C 0.74172 0.08707 0.57219 0.0
C822 C 0.91667 0.7403 0.57189 0.0
C823 C 0.88857 0.72991 0.5827 0.0
H824 H 0.95508 0.76932 0.58013 0.0
C825 C 0.8778 0.74102 0.61037 0.0
H826 H 0.92564 0.73192 0.55071 0.0
C827 C 0.89436 0.7618 0.62692 0.0
C828 C 0.9224 0.77239 0.6165 0.0
H829 H 0.85629 0.73367 0.61949 0.0
H830 H 0.8849 0.76964 0.6481 0.0
C831 C 0.9336 0.7614 0.58881 0.0
C832 C 0.41155 0.24825 0.12977 0.0
C833 C 0.43119 0.26792 0.11468 0.0
H834 H 0.37876 0.21345 0.12653 0.0
C835 C 0.43435 0.26542 0.08313 0.0
H836 H 0.40886 0.24945 0.15409 0.0
C837 C 0.41655 0.24454 0.06688 0.0
C838 C 0.39556 0.22614 0.08217 0.0
H839 H 0.44924 0.28057 0.07098 0.0
H840 H 0.41837 0.24361 0.04251 0.0
C841 C 0.39409 0.22769 0.11383 0.0
C842 C 0.41801 0.7599 0.93607 0.0
C843 C 0.39538 0.77691 0.92153 0.0
H844 H 0.45194 0.72514 0.93112 0.0
C845 C 0.39182 0.77387 0.89014 0.0
H846 H 0.42146 0.762 0.96019 0.0
C847 C 0.40907 0.75342 0.87385 0.0
C848 C 0.43056 0.73524 0.88827 0.0
H849 H 0.37516 0.78699 0.87792 0.0
H850 H 0.4049 0.75125 0.84982 0.0
C851 C 0.43558 0.73909 0.91945 0.0
C852 C 0.26542 0.4349 0.92055 0.0
C853 C 0.27165 0.42805 0.89012 0.0
H854 H 0.24013 0.42255 0.96042 0.0
C855 C 0.25559 0.4047 0.87602 0.0
H856 H 0.27765 0.45276 0.93195 0.0
C857 C 0.23474 0.38765 0.89198 0.0
C858 C 0.22914 0.39329 0.92269 0.0
H859 H 0.25956 0.39908 0.85252 0.0
H860 H 0.22326 0.36963 0.88003 0.0
C861 C 0.24422 0.4175 0.93683 0.0
C862 C 0.61715 0.23433 0.89016 0.0
C863 C 0.61231 0.22969 0.92117 0.0
H864 H 0.60503 0.2583 0.8504 0.0
C865 C 0.58865 0.24542 0.93554 0.0
H866 H 0.63467 0.22227 0.87802 0.0
C867 C 0.57114 0.26644 0.91919 0.0
C868 C 0.5773 0.27178 0.88845 0.0
H869 H 0.5842 0.24205 0.95936 0.0
H870 H 0.55382 0.2793 0.93076 0.0
C871 C 0.59997 0.25498 0.87413 0.0
C872 C 0.74497 0.569 0.91876 0.0
C873 C 0.73051 0.58236 0.89377 0.0
H874 H 0.7779 0.57479 0.95429 0.0
C875 C 0.7372 0.61252 0.88657 0.0
H876 H 0.74006 0.54586 0.92497 0.0
C877 C 0.75824 0.62874 0.90309 0.0
C878 C 0.77344 0.61547 0.92745 0.0
H879 H 0.72638 0.62384 0.86777 0.0
H880 H 0.76291 0.6518 0.89634 0.0
C881 C 0.76635 0.58557 0.93563 0.0
C882 C 0.59565 0.75466 0.12877 0.0
C883 C 0.5753 0.73542 0.11405 0.0
H884 H 0.62895 0.78891 0.12495 0.0
C885 C 0.57155 0.73802 0.08259 0.0
H886 H 0.59881 0.75339 0.15302 0.0
C887 C 0.58934 0.75865 0.06604 0.0
C888 C 0.61094 0.77668 0.08093 0.0
H889 H 0.55611 0.7232 0.07071 0.0
H890 H 0.58693 0.75977 0.04173 0.0
C891 C 0.61315 0.77493 0.11253 0.0
C892 C 0.23911 0.62101 0.11088 0.0
C893 C 0.23112 0.61287 0.08127 0.0
H894 H 0.26557 0.61166 0.14976 0.0
C895 C 0.24426 0.58686 0.06845 0.0
H896 H 0.22939 0.64068 0.12174 0.0
C897 C 0.26539 0.56972 0.08505 0.0
C898 C 0.27365 0.57864 0.11444 0.0
H899 H 0.23835 0.57991 0.04575 0.0
H900 H 0.27578 0.55012 0.07469 0.0
C901 C 0.25996 0.60424 0.12711 0.0
C902 C 0.74263 0.39644 0.12598 0.0
C903 C 0.73144 0.42393 0.11491 0.0
H904 H 0.77137 0.35872 0.11925 0.0
C905 C 0.74194 0.43457 0.08682 0.0
H906 H 0.7352 0.38751 0.14752 0.0
C907 C 0.76312 0.41756 0.0701 0.0
C908 C 0.77407 0.38996 0.08151 0.0
H909 H 0.73352 0.45562 0.07766 0.0
H910 H 0.77104 0.42604 0.04857 0.0
C911 C 0.76351 0.3798 0.10962 0.0
C912 C 0.02256 0.21516 0.25089 0.0
C913 C 0.99742 0.22378 0.26814 0.0
H914 H 0.0544 0.22725 0.21686 0.0
C915 C 0.98712 0.25377 0.26651 0.0
H916 H 0.03112 0.19224 0.25199 0.0
C917 C 1.00046 0.27411 0.24594 0.0
C918 C 0.0242 0.26453 0.22695 0.0
H919 H 0.96765 0.26085 0.27958 0.0
H920 H 0.99094 0.29651 0.24351 0.0
C921 C 0.03587 0.23526 0.23072 0.0
C922 C 0.79298 0.02204 0.24638 0.0
C923 C 0.78408 0.99773 0.26462 0.0
H924 H 0.78093 0.05326 0.21187 0.0
C925 C 0.75369 0.98842 0.26417 0.0
H926 H 0.81617 0.02996 0.24664 0.0
C927 C 0.73318 1.00178 0.24376 0.0
C928 C 0.74295 0.02463 0.22383 0.0
H929 H 0.74633 0.96969 0.27808 0.0
H930 H 0.71039 0.99296 0.24225 0.0
C931 C 0.77271 0.0354 0.22644 0.0
C932 C 0.97116 0.76712 0.23388 0.0
C933 C 0.98371 0.73838 0.22902 0.0
H934 H 0.97515 0.80984 0.25597 0.0
C935 C 0.0084 0.72925 0.24696 0.0
H936 H 0.95193 0.77475 0.22079 0.0
C937 C 0.02176 0.74962 0.2675 0.0
C938 C 0.01044 0.77917 0.2702 0.0
H939 H 0.01863 0.70727 0.24364 0.0
H940 H 0.04194 0.743 0.27965 0.0
C941 C 0.98441 0.78724 0.25408 0.0
C942 C 0.25234 0.01703 0.26635 0.0
C943 C 0.22234 0.00671 0.26819 0.0
H944 H 0.29506 0.01302 0.24323 0.0
C945 C 0.21375 0.98128 0.25136 0.0
H946 H 0.25941 0.03668 0.27911 0.0
C947 C 0.23387 0.96774 0.23132 0.0
C948 C 0.26313 0.97943 0.22728 0.0
H949 H 0.19084 0.97268 0.25267 0.0
H950 H 0.22588 0.94903 0.21769 0.0
C951 C 0.27269 0.00344 0.24592 0.0
C952 C 0.98294 0.75543 0.79243 0.0
C953 C 0.00675 0.73682 0.78296 0.0
H954 H 0.95187 0.79034 0.78109 0.0
C955 C 0.0153 0.737 0.75237 0.0
H956 H 0.97567 0.75542 0.81582 0.0
C957 C 1.0017 0.75751 0.73216 0.0
C958 C 0.97939 0.77783 0.74243 0.0
H959 H 0.03367 0.7228 0.7446 0.0
H960 H 0.00996 0.75877 0.70917 0.0
C961 C 0.96932 0.77548 0.77246 0.0
C962 C 0.24212 0.01175 0.7304 0.0
C963 C 0.2288 0.98371 0.73735 0.0
H964 H 0.27052 0.04803 0.74631 0.0
C965 C 0.23788 0.96852 0.76364 0.0
H966 H 0.23512 0.02413 0.71049 0.0
C967 C 0.25803 0.982 0.78376 0.0
C968 C 0.26948 0.01098 0.77813 0.0
H969 H 0.228 0.94691 0.76952 0.0
H970 H 0.26323 0.97052 0.80475 0.0
C971 C 0.26227 0.02544 0.75084 0.0
C972 C 0.01885 0.25529 0.73752 0.0
C973 C 0.00761 0.22569 0.73507 0.0
H974 H 0.01542 0.29789 0.76084 0.0
C975 C 0.98123 0.21785 0.75074 0.0
H976 H 0.03927 0.26174 0.72566 0.0
C977 C 0.96755 0.23828 0.77036 0.0
C978 C 0.98012 0.26704 0.77514 0.0
H979 H 0.97201 0.19522 0.74898 0.0
H980 H 0.9481 0.23082 0.78324 0.0
C981 C 0.00514 0.27593 0.75753 0.0
C982 C 0.79461 0.98338 0.7586 0.0
C983 C 0.78522 0.00675 0.73939 0.0
H984 H 0.78293 0.95262 0.79367 0.0
C985 C 0.75447 0.01476 0.73881 0.0
H986 H 0.81809 0.97637 0.75912 0.0
C987 C 0.734 1.00113 0.75908 0.0
C988 C 0.74413 0.97925 0.77992 0.0
H989 H 0.7467 0.03272 0.72414 0.0
H990 H 0.71082 0.00899 0.75968 0.0
C991 C 0.77439 0.96973 0.77842 0.0
C992 C 0.25473 0.26593 0.98444 0.0
C993 C 0.22597 0.2707 0.99706 0.0
H994 H 0.29623 0.24061 0.98708 0.0
C995 C 0.21878 0.25707 0.02471 0.0
H996 H 0.26059 0.27603 0.96294 0.0
C997 C 0.23888 0.23712 0.03842 0.0
C998 C 0.26667 0.23017 0.02473 0.0
H999 H 0.19674 0.2605 0.03488 0.0
H1000 H 0.23185 0.22565 0.05887 0.0
C1001 C 0.27508 0.24576 0.99829 0.0
C1002 C 0.24748 0.72964 0.99754 0.0
C1003 C 0.22983 0.73865 0.0225 0.0
H1004 H 0.27964 0.74357 0.96359 0.0
C1005 C 0.23486 0.7673 0.03517 0.0
H1006 H 0.24394 0.70775 0.98718 0.0
C1007 C 0.25491 0.78749 0.02176 0.0
C1008 C 0.27067 0.77958 0.99543 0.0
H1009 H 0.22192 0.77483 0.05456 0.0
H1010 H 0.25689 0.81006 0.03109 0.0
C1011 C 0.26783 0.75008 0.98402 0.0
C1012 C 0.75913 0.27446 0.99832 0.0
C1013 C 0.77742 0.26501 0.02261 0.0
H1014 H 0.72627 0.26107 0.96481 0.0
C1015 C 0.77298 0.23598 0.0346 0.0
H1016 H 0.76215 0.29667 0.98852 0.0
C1017 C 0.75287 0.21591 0.02109 0.0
C1018 C 0.73643 0.22433 0.99538 0.0
H1019 H 0.78635 0.22809 0.05352 0.0
H1020 H 0.75132 0.19311 0.02988 0.0
C1021 C 0.73867 0.25416 0.98473 0.0
C1022 C 0.75287 0.7388 0.98424 0.0
C1023 C 0.78216 0.73651 0.99636 0.0
H1024 H 0.71015 0.76221 0.98607 0.0
C1025 C 0.78933 0.75284 0.02251 0.0
H1026 H 0.74695 0.72648 0.96394 0.0
C1027 C 0.76856 0.77279 0.03515 0.0
C1028 C 0.74008 0.7772 0.02182 0.0
H1029 H 0.8117 0.75125 0.03239 0.0
H1030 H 0.77547 0.78609 0.05451 0.0
C1031 C 0.73186 0.75912 0.99694 0.0
C1032 C 0.52409 0.71363 0.74795 0.0
C1033 C 0.49989 0.72259 0.76633 0.0
H1034 H 0.55501 0.72556 0.71304 0.0
C1035 C 0.49049 0.75292 0.76581 0.0
H1036 H 0.532 0.69045 0.74822 0.0
C1037 C 0.50364 0.77331 0.74518 0.0
C1038 C 0.52633 0.76349 0.72507 0.0
H1039 H 0.47179 0.76028 0.7798 0.0
H1040 H 0.49472 0.79604 0.74363 0.0
C1041 C 0.53725 0.7338 0.72776 0.0
C1042 C 0.25956 0.50854 0.77535 0.0
C1043 C 0.27674 0.48319 0.76657 0.0
H1044 H 0.22775 0.54267 0.76117 0.0
C1045 C 0.27121 0.47003 0.73823 0.0
H1046 H 0.26348 0.51923 0.79701 0.0
C1047 C 0.25112 0.48333 0.71806 0.0
C1048 C 0.23586 0.51 0.72571 0.0
H1049 H 0.28378 0.45033 0.73092 0.0
H1050 H 0.24874 0.47363 0.69569 0.0
C1051 C 0.2392 0.52196 0.75492 0.0
C1052 C 0.49993 0.25997 0.77332 0.0
C1053 C 0.52283 0.27988 0.76359 0.0
H1054 H 0.46794 0.22553 0.76016 0.0
C1055 C 0.53383 0.2771 0.73393 0.0
H1056 H 0.49098 0.26157 0.79604 0.0
C1057 C 0.52062 0.25701 0.71371 0.0
C1058 C 0.49629 0.23879 0.72257 0.0
H1059 H 0.55177 0.29163 0.72575 0.0
H1060 H 0.52866 0.25664 0.69057 0.0
C1061 C 0.48673 0.23942 0.75286 0.0
C1062 C 0.76921 0.52253 0.73094 0.0
C1063 C 0.7733 0.49108 0.73098 0.0
H1064 H 0.74392 0.55998 0.74868 0.0
C1065 C 0.75783 0.47351 0.75237 0.0
H1066 H 0.78048 0.5364 0.71421 0.0
C1067 C 0.73755 0.48709 0.7726 0.0
C1068 C 0.73183 0.51827 0.77105 0.0
H1069 H 0.7602 0.44915 0.75234 0.0
H1070 H 0.72458 0.47292 0.78777 0.0
C1071 C 0.74833 0.53598 0.75056 0.0
C1072 C 0.50454 0.23128 0.25733 0.0
C1073 C 0.52675 0.24139 0.27783 0.0
H1074 H 0.47304 0.24392 0.22228 0.0
C1075 C 0.53711 0.27132 0.27547 0.0
H1076 H 0.49606 0.20836 0.25857 0.0
C1077 C 0.52391 0.29135 0.2552 0.0
C1078 C 0.50021 0.28206 0.23637 0.0
H1079 H 0.55451 0.27983 0.29046 0.0
H1080 H 0.53139 0.31468 0.25519 0.0
C1081 C 0.49135 0.25155 0.23661 0.0
C1082 C 0.75063 0.48197 0.28969 0.0
C1083 C 0.7682 0.50696 0.2813 0.0
H1084 H 0.71625 0.45061 0.27726 0.0
C1085 C 0.76693 0.51731 0.25131 0.0
H1086 H 0.75141 0.4734 0.31261 0.0
C1087 C 0.74638 0.50422 0.23078 0.0
C1088 C 0.72701 0.48072 0.24015 0.0
H1089 H 0.78021 0.53667 0.2444 0.0
H1090 H 0.74419 0.51384 0.2084 0.0
C1091 C 0.73045 0.46894 0.2694 0.0
C1092 C 0.51508 0.75268 0.23659 0.0
C1093 C 0.50555 0.72239 0.23571 0.0
H1094 H 0.51091 0.79563 0.25915 0.0
C1095 C 0.48123 0.71338 0.25389 0.0
H1096 H 0.53391 0.76008 0.2228 0.0
C1097 C 0.46806 0.73343 0.27422 0.0
C1098 C 0.47907 0.76305 0.27725 0.0
H1099 H 0.47327 0.69022 0.25338 0.0
H1100 H 0.4502 0.72513 0.28879 0.0
C1101 C 0.5019 0.77296 0.25734 0.0
C1102 C 0.27476 0.53543 0.26824 0.0
C1103 C 0.2787 0.52303 0.23929 0.0
H1104 H 0.25335 0.5317 0.31132 0.0
C1105 C 0.25983 0.49898 0.23027 0.0
H1106 H 0.28857 0.55418 0.2758 0.0
C1107 C 0.23926 0.48606 0.25089 0.0
C1108 C 0.23748 0.49712 0.28061 0.0
H1109 H 0.26244 0.48887 0.20814 0.0
H1110 H 0.22636 0.46634 0.24428 0.0
C1111 C 0.25455 0.52257 0.28861 0.0
C1112 C 0.73432 0.73194 0.53631 0.0
C1113 C 0.76343 0.72734 0.52449 0.0
H1114 H 0.69154 0.75374 0.53126 0.0
C1115 C 0.77312 0.74547 0.50017 0.0
H1116 H 0.72626 0.71867 0.55524 0.0
C1117 C 0.75298 0.76591 0.48638 0.0
C1118 C 0.72307 0.7683 0.49684 0.0
H1119 H 0.79539 0.74231 0.49048 0.0
H1120 H 0.76008 0.77816 0.46643 0.0
C1121 C 0.71441 0.75204 0.5226 0.0
C1122 C 0.75291 0.23826 0.51935 0.0
C1123 C 0.72306 0.23661 0.50857 0.0
H1124 H 0.79575 0.26129 0.51622 0.0
C1125 C 0.71495 0.25366 0.48315 0.0
H1126 H 0.75962 0.22536 0.53901 0.0
C1127 C 0.73534 0.27374 0.47011 0.0
C1128 C 0.76441 0.27759 0.48229 0.0
H1129 H 0.69216 0.25253 0.47421 0.0
H1130 H 0.72768 0.28756 0.45143 0.0
C1131 C 0.77354 0.25873 0.50626 0.0
C1132 C 0.25137 0.76551 0.5214 0.0
C1133 C 0.28025 0.76957 0.5088 0.0
H1134 H 0.20955 0.74064 0.51932 0.0
C1135 C 0.28755 0.7547 0.48181 0.0
H1136 H 0.24543 0.77657 0.54242 0.0
C1137 C 0.26732 0.73447 0.46869 0.0
C1138 C 0.2393 0.72839 0.48234 0.0
H1139 H 0.30967 0.75759 0.47165 0.0
H1140 H 0.27434 0.72231 0.44862 0.0
C1141 C 0.23091 0.74502 0.50817 0.0
C1142 C 0.24036 0.25164 0.51838 0.0
C1143 C 0.23822 0.28134 0.50738 0.0
H1144 H 0.26353 0.20895 0.51492 0.0
C1145 C 0.25446 0.28933 0.48139 0.0
H1146 H 0.22808 0.24505 0.53851 0.0
C1147 C 0.27427 0.26896 0.46791 0.0
C1148 C 0.27863 0.24005 0.48022 0.0
H1149 H 0.25294 0.31202 0.47232 0.0
H1150 H 0.28752 0.27651 0.44876 0.0
C1151 C 0.26054 0.23103 0.50484 0.0
C1152 C 0.09752 0.36359 0.07976 0.0
C1153 C 0.08655 0.33865 0.09618 0.0
H1154 H 0.11904 0.37887 0.03884 0.0
C1155 C 0.08871 0.30974 0.08347 0.0
H1156 H 0.09626 0.38614 0.08916 0.0
C1157 C 0.10116 0.30571 0.05494 0.0
C1158 C 0.11226 0.33041 0.03835 0.0
H1159 H 0.08067 0.29003 0.09549 0.0
H1160 H 0.10242 0.28293 0.04605 0.0
C1161 C 0.11062 0.35945 0.05111 0.0
C1162 C 0.64228 0.0969 0.07706 0.0
C1163 C 0.66729 0.0852 0.09286 0.0
H1164 H 0.6267 0.11916 0.03667 0.0
C1165 C 0.69596 0.08657 0.07951 0.0
H1166 H 0.6199 0.09625 0.08698 0.0
C1167 C 0.69972 0.09909 0.05099 0.0
C1168 C 0.67497 0.11107 0.03506 0.0
H1169 H 0.71571 0.07792 0.09105 0.0
H1170 H 0.72234 0.0998 0.04163 0.0
C1171 C 0.64615 0.11009 0.04842 0.0
C1172 C 0.9186 0.69446 0.08531 0.0
C1173 C 0.92061 0.66551 0.09789 0.0
H1174 H 0.90502 0.72141 0.04796 0.0
C1175 C 0.90944 0.64068 0.08144 0.0
H1176 H 0.92681 0.71409 0.09737 0.0
C1177 C 0.89632 0.64495 0.05285 0.0
C1178 C 0.89487 0.67402 0.04019 0.0
H1179 H 0.91058 0.61809 0.09076 0.0
H1180 H 0.88777 0.6256 0.04054 0.0
C1181 C 0.90614 0.69863 0.05682 0.0
C1182 C 0.35883 0.89439 0.05034 0.0
C1183 C 0.33001 0.89295 0.03707 0.0
H1184 H 0.38495 0.9087 0.08878 0.0
C1185 C 0.3051 0.90452 0.05311 0.0
H1186 H 0.37841 0.88565 0.03852 0.0
C1187 C 0.30871 0.91717 0.08162 0.0
C1188 C 0.33741 0.91904 0.09484 0.0
H1189 H 0.28247 0.90347 0.04379 0.0
H1190 H 0.28889 0.92558 0.09325 0.0
C1191 C 0.36255 0.90766 0.07896 0.0
C1192 C 0.10055 0.64196 0.92196 0.0
C1193 C 0.09085 0.66697 0.90486 0.0
H1194 H 0.12088 0.62666 0.96343 0.0
C1195 C 0.0951 0.6961 0.91651 0.0
H1196 H 0.09768 0.61921 0.91341 0.0
C1197 C 0.1079 0.70026 0.94489 0.0
C1198 C 0.11721 0.67544 0.96235 0.0
H1199 H 0.08816 0.71586 0.90389 0.0
H1200 H 0.11049 0.72314 0.9532 0.0
C1201 C 0.11391 0.64618 0.95045 0.0
C1202 C 0.30543 0.08884 0.92154 0.0
C1203 C 0.3344 0.0871 0.90884 0.0
H1204 H 0.27846 0.10268 0.95896 0.0
C1205 C 0.3591 0.09901 0.92496 0.0
H1206 H 0.28596 0.07994 0.90968 0.0
C1207 C 0.35478 0.11257 0.9533 0.0
C1208 C 0.32576 0.11388 0.96614 0.0
H1209 H 0.38171 0.09807 0.91559 0.0
H1210 H 0.37412 0.12156 0.9653 0.0
C1211 C 0.3012 0.10185 0.94988 0.0
C1212 C 0.90094 0.30516 0.94694 0.0
C1213 C 0.89142 0.32982 0.96454 0.0
H1214 H 0.92119 0.28994 0.90603 0.0
C1215 C 0.89522 0.35921 0.95317 0.0
H1216 H 0.89803 0.28219 0.95487 0.0
C1217 C 0.90913 0.36371 0.92497 0.0
C1218 C 0.91881 0.33884 0.90764 0.0
H1219 H 0.88812 0.3786 0.96631 0.0
H1220 H 0.91219 0.38653 0.91671 0.0
C1221 C 0.91424 0.30959 0.91884 0.0
C1222 C 0.68399 0.92348 0.95979 0.0
C1223 C 0.67056 0.89559 0.96718 0.0
H1224 H 0.69171 0.95699 0.92596 0.0
C1225 C 0.65188 0.88142 0.94571 0.0
H1226 H 0.69807 0.9354 0.97589 0.0
C1227 C 0.64786 0.89435 0.91704 0.0
C1228 C 0.66278 0.92131 0.90948 0.0
H1229 H 0.64132 0.85989 0.9506 0.0
H1230 H 0.63426 0.88265 0.90039 0.0
C1231 C 0.6804 0.93597 0.93118 0.0
C1232 C 0.08351 0.08796 0.30973 0.0
C1233 C 0.09682 0.08659 0.33839 0.0
H1234 H 0.0455 0.101 0.28341 0.0
C1235 C 0.08094 0.09836 0.36335 0.0
H1236 H 0.0951 0.07924 0.29003 0.0
C1237 C 0.05222 0.11143 0.35951 0.0
C1238 C 0.03881 0.11226 0.33075 0.0
H1239 H 0.09079 0.0977 0.38574 0.0
H1240 H 0.0404 0.12043 0.37897 0.0
C1241 C 0.05489 0.10039 0.306 0.0
C1242 C 0.91592 0.08568 0.30877 0.0
C1243 C 0.91789 0.09833 0.3377 0.0
H1244 H 0.90294 0.048 0.28192 0.0
C1245 C 0.90701 0.08173 0.36258 0.0
H1246 H 0.92387 0.09785 0.28911 0.0
C1247 C 0.89441 0.05287 0.3584 0.0
C1248 C 0.89317 0.04008 0.32937 0.0
H1249 H 0.90814 0.09107 0.38517 0.0
H1250 H 0.88621 0.04041 0.37779 0.0
C1251 C 0.90396 0.05693 0.30469 0.0
C1252 C 0.92245 0.91634 0.30762 0.0
C1253 C 0.9089 0.91822 0.33616 0.0
H1254 H 0.9606 0.90256 0.2818 0.0
C1255 C 0.92436 0.90652 0.36138 0.0
H1256 H 0.91114 0.92497 0.28774 0.0
C1257 C 0.95294 0.8931 0.35794 0.0
C1258 C 0.96662 0.8918 0.32932 0.0
H1259 H 0.9143 0.90756 0.38367 0.0
H1260 H 0.96448 0.88424 0.3776 0.0
C1261 C 0.95095 0.90352 0.30428 0.0
C1262 C 0.10994 0.95276 0.36022 0.0
C1263 C 0.1124 0.96514 0.33113 0.0
H1264 H 0.09498 0.91501 0.38688 0.0
C1265 C 0.10254 0.94802 0.30622 0.0
H1266 H 0.11741 0.96544 0.37978 0.0
C1267 C 0.09026 0.91938 0.31016 0.0
C1268 C 0.08707 0.90717 0.33915 0.0
H1269 H 0.10453 0.95668 0.28342 0.0
H1270 H 0.08301 0.90695 0.29038 0.0
C1271 C 0.09704 0.92404 0.36424 0.0
C1272 C 0.0511 0.89315 0.64796 0.0
C1273 C 0.0388 0.89075 0.67713 0.0
H1274 H 0.08815 0.90923 0.62092 0.0
C1275 C 0.05539 0.90206 0.70177 0.0
H1276 H 0.03877 0.88473 0.62858 0.0
C1277 C 0.08342 0.91569 0.69749 0.0
C1278 C 0.09552 0.91877 0.66842 0.0
H1279 H 0.04674 0.90033 0.7246 0.0
H1280 H 0.09546 0.92407 0.71707 0.0
C1281 C 0.07918 0.90734 0.64361 0.0
C1282 C 0.11239 0.0537 0.64795 0.0
C1283 C 0.11378 0.04103 0.67701 0.0
H1284 H 0.09822 0.09153 0.62102 0.0
C1285 C 0.10251 0.05774 0.70161 0.0
H1286 H 0.12087 0.04136 0.62858 0.0
C1287 C 0.09004 0.08628 0.69739 0.0
C1288 C 0.08808 0.09881 0.6684 0.0
H1289 H 0.10351 0.04886 0.72438 0.0
H1290 H 0.0817 0.09841 0.71694 0.0
C1291 C 0.09935 0.0823 0.64364 0.0
C1292 C 0.95072 0.10167 0.69979 0.0
C1293 C 0.96686 0.11304 0.67488 0.0
H1294 H 0.91036 0.08117 0.71609 0.0
C1295 C 0.9534 0.112 0.64615 0.0
H1296 H 0.96013 0.1025 0.72237 0.0
C1297 C 0.92456 0.09917 0.6425 0.0
C1298 C 0.90863 0.08786 0.66763 0.0
H1299 H 0.96527 0.12067 0.62658 0.0
H1300 H 0.91466 0.0983 0.62014 0.0
C1301 C 0.92199 0.08948 0.69625 0.0
C1302 C 0.91792 0.92212 0.69519 0.0
C1303 C 0.91954 0.9089 0.6665 0.0
H1304 H 0.90514 0.96019 0.7215 0.0
C1305 C 0.90862 0.92507 0.64138 0.0
H1306 H 0.92593 0.9103 0.71503 0.0
C1307 C 0.89605 0.95401 0.64517 0.0
C1308 C 0.89497 0.96725 0.674 0.0
H1309 H 0.90947 0.91526 0.61898 0.0
H1310 H 0.88761 0.96611 0.62565 0.0
C1311 C 0.90604 0.95091 0.69886 0.0
C1312 C 0.30235 0.05614 0.1037 0.0
C1313 C 0.32703 0.03912 0.11425 0.0
H1314 H 0.28708 0.09673 0.08276 0.0
C1315 C 0.3563 0.05116 0.11156 0.0
H1316 H 0.27945 0.04767 0.10569 0.0
C1317 C 0.36071 0.07941 0.09784 0.0
C1318 C 0.33586 0.09619 0.08719 0.0
H1319 H 0.37572 0.0385 0.11942 0.0
H1320 H 0.38348 0.08817 0.09569 0.0
C1321 C 0.30669 0.08434 0.09056 0.0
C1322 C 0.35743 0.95323 0.893 0.0
C1323 C 0.3282 0.96543 0.89085 0.0
H1324 H 0.38458 0.91578 0.90777 0.0
C1325 C 0.30353 0.94824 0.90124 0.0
H1326 H 0.37683 0.96595 0.88518 0.0
C1327 C 0.30786 0.91971 0.91367 0.0
C1328 C 0.337 0.90767 0.91646 0.0
H1329 H 0.28063 0.95675 0.89957 0.0
H1330 H 0.28826 0.90721 0.92134 0.0
C1331 C 0.36183 0.92464 0.90601 0.0
C1332 C 0.05315 0.35557 0.89155 0.0
C1333 C 0.03999 0.32669 0.89091 0.0
H1334 H 0.09114 0.38242 0.90539 0.0
C1335 C 0.056 0.30225 0.90342 0.0
H1336 H 0.04133 0.37482 0.88217 0.0
C1337 C 0.08446 0.30648 0.91623 0.0
C1338 C 0.09746 0.33534 0.91732 0.0
H1339 H 0.04664 0.27963 0.9031 0.0
H1340 H 0.09614 0.28711 0.92552 0.0
C1341 C 0.08155 0.35991 0.90494 0.0
C1342 C 0.6443 0.08188 0.90308 0.0
C1343 C 0.66921 0.09862 0.91369 0.0
H1344 H 0.62909 0.04067 0.88216 0.0
C1345 C 0.69833 0.0866 0.9105 0.0
H1346 H 0.62157 0.09075 0.90512 0.0
C1347 C 0.70253 0.05818 0.89774 0.0
C1348 C 0.67776 0.0411 0.88747 0.0
H1349 H 0.71799 0.09894 0.91824 0.0
H1350 H 0.72538 0.04954 0.89601 0.0
C1351 C 0.64857 0.05337 0.88981 0.0
C1352 C 0.95469 0.64583 0.89519 0.0
C1353 C 0.96856 0.67439 0.89534 0.0
H1354 H 0.91563 0.61978 0.90775 0.0
C1355 C 0.95291 0.69896 0.90811 0.0
H1356 H 0.96616 0.62652 0.88546 0.0
C1357 C 0.92411 0.69527 0.92021 0.0
C1358 C 0.91028 0.66681 0.92039 0.0
H1359 H 0.96267 0.72141 0.9083 0.0
H1360 H 0.91276 0.71483 0.92955 0.0
C1361 C 0.92587 0.642 0.90797 0.0
C1362 C 0.70124 0.94796 0.10159 0.0
C1363 C 0.6766 0.96508 0.11204 0.0
H1364 H 0.71652 0.90719 0.08115 0.0
C1365 C 0.64732 0.95296 0.10972 0.0
H1366 H 0.72415 0.95646 0.10336 0.0
C1367 C 0.64288 0.92449 0.09638 0.0
C1368 C 0.66771 0.90764 0.08577 0.0
H1369 H 0.62794 0.96571 0.11755 0.0
H1370 H 0.62012 0.91565 0.09444 0.0
C1371 C 0.69688 0.9196 0.08884 0.0
C1372 C 0.05618 0.6994 0.09997 0.0
C1373 C 0.04032 0.67483 0.11242 0.0
H1374 H 0.09574 0.71488 0.07724 0.0
C1375 C 0.05326 0.64587 0.11083 0.0
H1376 H 0.04707 0.72209 0.101 0.0
C1377 C 0.08137 0.64168 0.0966 0.0
C1378 C 0.0971 0.66647 0.08435 0.0
H1379 H 0.04153 0.62653 0.12015 0.0
H1380 H 0.09094 0.61919 0.09552 0.0
C1381 C 0.08421 0.69531 0.08633 0.0
C1382 C 0.95363 0.35798 0.11097 0.0
C1383 C 0.96663 0.32902 0.11206 0.0
H1384 H 0.91564 0.38472 0.09665 0.0
C1385 C 0.95052 0.3045 0.09985 0.0
H1386 H 0.96556 0.37728 0.12014 0.0
C1387 C 0.9222 0.30864 0.0869 0.0
C1388 C 0.90927 0.33748 0.08537 0.0
H1389 H 0.95967 0.28181 0.10055 0.0
H1390 H 0.91051 0.28909 0.07797 0.0
C1391 C 0.92523 0.36223 0.09741 0.0
C1392 C 0.60956 0.86009 0.54856 0.0
C1393 C 0.61103 0.83115 0.53555 0.0
H1394 H 0.5954 0.88648 0.58693 0.0
C1395 C 0.59981 0.80636 0.55193 0.0
H1396 H 0.61809 0.87956 0.53646 0.0
C1397 C 0.58741 0.81018 0.58049 0.0
C1398 C 0.58543 0.83896 0.59348 0.0
H1399 H 0.60099 0.78365 0.54286 0.0
H1400 H 0.57932 0.79039 0.59235 0.0
C1401 C 0.5965 0.86402 0.57728 0.0
C1402 C 0.14461 0.59839 0.58062 0.0
C1403 C 0.16928 0.58622 0.59655 0.0
H1404 H 0.12958 0.62087 0.54031 0.0
C1405 C 0.19808 0.58701 0.58339 0.0
H1406 H 0.12214 0.59813 0.59035 0.0
C1407 C 0.20222 0.59947 0.55482 0.0
C1408 C 0.17773 0.61195 0.53885 0.0
H1409 H 0.21752 0.57784 0.59507 0.0
H1410 H 0.22484 0.59968 0.54542 0.0
C1411 C 0.14886 0.61147 0.55209 0.0
C1412 C 0.4007 0.20126 0.55746 0.0
C1413 C 0.39068 0.1764 0.54039 0.0
H1414 H 0.42036 0.21707 0.59843 0.0
C1415 C 0.39286 0.14731 0.55291 0.0
H1416 H 0.399 0.22404 0.5487 0.0
C1417 C 0.40569 0.14326 0.58167 0.0
C1418 C 0.41593 0.16829 0.59844 0.0
H1419 H 0.38533 0.12777 0.54025 0.0
H1420 H 0.4076 0.12063 0.59074 0.0
C1421 C 0.41294 0.19728 0.58611 0.0
C1422 C 0.8588 0.392 0.55565 0.0
C1423 C 0.82931 0.38891 0.54429 0.0
H1424 H 0.88657 0.40817 0.59208 0.0
C1425 C 0.80483 0.39852 0.56217 0.0
H1426 H 0.87806 0.38486 0.54233 0.0
C1427 C 0.80959 0.41141 0.59047 0.0
C1428 C 0.83899 0.41545 0.60153 0.0
H1429 H 0.78178 0.39615 0.55424 0.0
H1430 H 0.79014 0.41867 0.60344 0.0
C1431 C 0.86362 0.40546 0.58399 0.0
C1432 C 0.59784 0.14034 0.42482 0.0
C1433 C 0.58743 0.16548 0.40834 0.0
H1434 H 0.61845 0.12468 0.46608 0.0
C1435 C 0.58978 0.19431 0.42116 0.0
H1436 H 0.59643 0.11784 0.41532 0.0
C1437 C 0.60178 0.19809 0.44988 0.0
C1438 C 0.61223 0.1732 0.46658 0.0
H1439 H 0.58221 0.21418 0.4091 0.0
H1440 H 0.60319 0.22082 0.45887 0.0
C1441 C 0.61051 0.14422 0.4537 0.0
C1442 C 0.80627 0.59181 0.41882 0.0
C1443 C 0.83545 0.58846 0.40698 0.0
H1444 H 0.77903 0.60659 0.45565 0.0
C1445 C 0.86031 0.59892 0.42388 0.0
H1446 H 0.78664 0.5842 0.40634 0.0
C1447 C 0.85591 0.61229 0.45232 0.0
C1448 C 0.82665 0.61485 0.46438 0.0
H1449 H 0.88309 0.59674 0.41516 0.0
H1450 H 0.87534 0.61992 0.4651 0.0
C1451 C 0.80194 0.60463 0.44718 0.0
C1452 C 0.40554 0.8061 0.45082 0.0
C1453 C 0.39395 0.8309 0.46697 0.0
H1454 H 0.42631 0.79001 0.41054 0.0
C1455 C 0.39519 0.85973 0.45373 0.0
H1456 H 0.40461 0.78347 0.46009 0.0
C1457 C 0.40827 0.86355 0.42501 0.0
C1458 C 0.4196 0.83848 0.409 0.0
H1459 H 0.38641 0.87923 0.46562 0.0
H1460 H 0.40914 0.88593 0.4152 0.0
C1461 C 0.41795 0.8098 0.42223 0.0
C1462 C 0.19758 0.41682 0.42027 0.0
C1463 C 0.16864 0.41899 0.40764 0.0
H1464 H 0.22439 0.40303 0.45768 0.0
C1465 C 0.14371 0.40781 0.424 0.0
H1466 H 0.21726 0.42503 0.40826 0.0
C1467 C 0.14784 0.39464 0.45257 0.0
C1468 C 0.17688 0.39307 0.46532 0.0
H1469 H 0.12112 0.40909 0.41466 0.0
H1470 H 0.1284 0.38619 0.46482 0.0
C1471 C 0.20161 0.40425 0.44875 0.0
C1472 C 0.58376 0.58462 0.80926 0.0
C1473 C 0.5971 0.58442 0.83792 0.0
H1474 H 0.5457 0.59684 0.78253 0.0
C1475 C 0.58127 0.59708 0.86246 0.0
H1476 H 0.59536 0.57506 0.78994 0.0
C1477 C 0.55266 0.61012 0.85817 0.0
C1478 C 0.53925 0.61003 0.82942 0.0
H1479 H 0.59117 0.59729 0.88483 0.0
H1480 H 0.54099 0.61999 0.8773 0.0
C1481 C 0.55515 0.59702 0.8051 0.0
C1482 C 0.41458 0.58688 0.80769 0.0
C1483 C 0.41759 0.59941 0.8366 0.0
H1484 H 0.4 0.54954 0.78111 0.0
C1485 C 0.40682 0.58308 0.86169 0.0
H1486 H 0.42244 0.59887 0.78788 0.0
C1487 C 0.39338 0.55458 0.85777 0.0
C1488 C 0.39111 0.54186 0.82876 0.0
H1489 H 0.40874 0.59232 0.88427 0.0
H1490 H 0.3854 0.5423 0.87736 0.0
C1491 C 0.40173 0.55846 0.80385 0.0
C1492 C 0.42122 0.4191 0.8097 0.0
C1493 C 0.40856 0.42088 0.83867 0.0
H1494 H 0.45851 0.40537 0.78261 0.0
C1495 C 0.42479 0.40912 0.86335 0.0
H1496 H 0.40933 0.42778 0.79019 0.0
C1497 C 0.45322 0.39563 0.85892 0.0
C1498 C 0.46595 0.39437 0.82984 0.0
H1499 H 0.41541 0.41007 0.88593 0.0
H1500 H 0.46536 0.38667 0.87816 0.0
C1501 C 0.44956 0.40626 0.80539 0.0
C1502 C 0.59783 0.42499 0.86363 0.0
C1503 C 0.58747 0.40835 0.83858 0.0
H1504 H 0.6196 0.46574 0.879 0.0
C1505 C 0.59136 0.42028 0.80952 0.0
H1506 H 0.59525 0.41619 0.8863 0.0
C1507 C 0.60481 0.44832 0.80543 0.0
C1508 C 0.61515 0.4652 0.83026 0.0
H1509 H 0.58389 0.40803 0.78971 0.0
H1510 H 0.60731 0.45668 0.78257 0.0
C1511 C 0.61186 0.45318 0.85947 0.0
C1512 C 0.55142 0.3949 0.144 0.0
C1513 C 0.53661 0.39672 0.17206 0.0
H1514 H 0.59117 0.40645 0.11839 0.0
C1515 C 0.55093 0.41211 0.19593 0.0
H1516 H 0.541 0.3832 0.12521 0.0
C1517 C 0.57946 0.42475 0.19222 0.0
C1518 C 0.59439 0.42291 0.1644 0.0
H1519 H 0.54045 0.41382 0.21799 0.0
H1520 H 0.58984 0.43592 0.21134 0.0
C1521 C 0.58001 0.40826 0.14009 0.0
C1522 C 0.6134 0.55475 0.14591 0.0
C1523 C 0.6163 0.5428 0.17516 0.0
H1524 H 0.59755 0.59185 0.11886 0.0
C1525 C 0.60675 0.56024 0.19993 0.0
H1526 H 0.62056 0.54177 0.12643 0.0
C1527 C 0.59405 0.58865 0.19571 0.0
C1528 C 0.59016 0.60033 0.16656 0.0
H1529 H 0.60902 0.55187 0.22282 0.0
H1530 H 0.58687 0.60125 0.21542 0.0
C1531 C 0.60015 0.58327 0.14162 0.0
C1532 C 0.45376 0.59385 0.19616 0.0
C1533 C 0.46879 0.60796 0.17195 0.0
H1534 H 0.41436 0.57101 0.21171 0.0
C1535 C 0.45463 0.60868 0.14353 0.0
H1536 H 0.46373 0.59309 0.21849 0.0
C1537 C 0.42604 0.59534 0.13955 0.0
C1538 C 0.41102 0.58181 0.16411 0.0
H1539 H 0.46561 0.61941 0.12448 0.0
H1540 H 0.41543 0.5962 0.11752 0.0
C1541 C 0.42525 0.58122 0.19234 0.0
C1542 C 0.40541 0.42044 0.14153 0.0
C1543 C 0.4161 0.40385 0.16646 0.0
H1544 H 0.38454 0.46164 0.12621 0.0
C1545 C 0.41327 0.4162 0.19547 0.0
H1546 H 0.40719 0.41135 0.11888 0.0
C1547 C 0.40085 0.44476 0.19955 0.0
C1548 C 0.39044 0.46168 0.17478 0.0
H1549 H 0.42105 0.40401 0.21518 0.0
H1550 H 0.39935 0.45359 0.22234 0.0
C1551 C 0.39238 0.4491 0.14569 0.0
C1552 C 0.85798 0.55038 0.61025 0.0
C1553 C 0.8294 0.53648 0.6108 0.0
H1554 H 0.88387 0.58919 0.59674 0.0
C1555 C 0.80474 0.55159 0.59758 0.0
H1556 H 0.87741 0.53932 0.6202 0.0
C1557 C 0.80832 0.58006 0.58471 0.0
C1558 C 0.83675 0.59404 0.58422 0.0
H1559 H 0.78232 0.54173 0.59775 0.0
H1560 H 0.7887 0.59114 0.57521 0.0
C1561 C 0.86168 0.57883 0.59676 0.0
C1562 C 0.85889 0.45413 0.39635 0.0
C1563 C 0.83008 0.46753 0.39567 0.0
H1564 H 0.88534 0.41586 0.41052 0.0
C1565 C 0.80559 0.45196 0.40868 0.0
H1566 H 0.87816 0.46558 0.38652 0.0
C1567 C 0.80956 0.42376 0.42188 0.0
C1568 C 0.83821 0.41037 0.42289 0.0
H1569 H 0.78297 0.46136 0.40829 0.0
H1570 H 0.79001 0.41248 0.43133 0.0
C1571 C 0.86298 0.42583 0.41019 0.0
C1572 C 0.5565 0.80277 0.40088 0.0
C1573 C 0.53995 0.82737 0.38946 0.0
H1574 H 0.59715 0.78734 0.4216 0.0
C1575 C 0.55292 0.85633 0.39038 0.0
H1576 H 0.54736 0.78007 0.40023 0.0
C1577 C 0.58166 0.86056 0.4032 0.0
C1578 C 0.59798 0.8358 0.41469 0.0
H1579 H 0.54068 0.87569 0.38178 0.0
H1580 H 0.59111 0.88311 0.40403 0.0
C1581 C 0.58517 0.8069 0.41311 0.0
C1582 C 0.14135 0.581 0.40782 0.0
C1583 C 0.16639 0.59781 0.41805 0.0
H1584 H 0.12602 0.53981 0.38681 0.0
C1585 C 0.19546 0.58573 0.4146 0.0
H1586 H 0.11866 0.58991 0.41005 0.0
C1587 C 0.19955 0.55733 0.40186 0.0
C1588 C 0.17472 0.54025 0.39176 0.0
H1589 H 0.21524 0.59809 0.42201 0.0
H1590 H 0.22241 0.54881 0.39975 0.0
C1591 C 0.14552 0.55248 0.39443 0.0
C1592 C 0.45146 0.20009 0.40309 0.0
C1593 C 0.46781 0.17547 0.39141 0.0
H1594 H 0.41138 0.21556 0.42482 0.0
C1595 C 0.4551 0.14642 0.39313 0.0
H1596 H 0.4604 0.22284 0.40189 0.0
C1597 C 0.42676 0.14217 0.4069 0.0
C1598 C 0.41061 0.167 0.41854 0.0
H1599 H 0.46724 0.12705 0.38437 0.0
H1600 H 0.41741 0.1196 0.40819 0.0
C1601 C 0.42323 0.19593 0.41626 0.0
C1602 C 0.20248 0.44988 0.60133 0.0
C1603 C 0.17761 0.46603 0.61287 0.0
H1604 H 0.21844 0.40971 0.58002 0.0
C1605 C 0.14875 0.45288 0.61144 0.0
H1606 H 0.22513 0.45914 0.60239 0.0
C1607 C 0.14489 0.42436 0.59808 0.0
C1608 C 0.16992 0.40842 0.58655 0.0
H1609 H 0.12921 0.46479 0.62015 0.0
H1610 H 0.1224 0.41473 0.59694 0.0
C1611 C 0.19871 0.42141 0.58855 0.0
C1612 C 0.58009 0.14267 0.59882 0.0
C1613 C 0.59604 0.16743 0.58679 0.0
H1614 H 0.53935 0.12738 0.62069 0.0
C1615 C 0.58255 0.19604 0.58725 0.0
H1616 H 0.59007 0.12033 0.59884 0.0
C1617 C 0.55369 0.19992 0.59913 0.0
C1618 C 0.5376 0.17538 0.61137 0.0
H1619 H 0.59419 0.21559 0.57829 0.0
H1620 H 0.54418 0.22247 0.59911 0.0
C1621 C 0.55116 0.14667 0.61136 0.0
C1622 C 0.45231 0.85777 0.61214 0.0
C1623 C 0.46485 0.82865 0.61373 0.0
H1624 H 0.41458 0.88479 0.59774 0.0
C1625 C 0.44791 0.80404 0.60288 0.0
H1626 H 0.46487 0.87714 0.62028 0.0
C1627 C 0.41934 0.8083 0.59046 0.0
C1628 C 0.407 0.83735 0.58812 0.0
H1629 H 0.45672 0.78123 0.60405 0.0
H1630 H 0.4071 0.78872 0.58237 0.0
C1631 C 0.42367 0.86212 0.59914 0.0
loop_
_geom_bond_atom_site_label_1
_geom_bond_atom_site_label_2
_geom_bond_distance
_geom_bond_site_symmetry_2
_ccdc_geom_bond_type
Co0 O1 2.216 . S
Co0 O2 2.091 . S
Co0 O4 2.004 1_455 S
Co0 O10 2.021 . S
Co0 O12 2.137 . S
Co0 O13 2.244 . S
O1 Co0 2.216 . S
O1 C8 1.247 . S
O2 Co0 2.091 . S
O2 C8 1.261 . S
C3 O12 1.247 . S
C3 O13 1.272 . S
O4 Co0 2.004 1_655 S
O4 C9 1.259 . S
Co5 O6 2.061 1_455 S
Co5 O11 2.052 . S
Co5 O13 2.135 . S
O6 Co5 2.061 1_655 S
O6 C9 1.235 . S
C7 O10 1.238 . S
C7 O11 1.241 . S
C8 O1 1.247 . S
C8 O2 1.261 . S
C9 O4 1.259 . S
C9 O6 1.235 . S
O10 Co0 2.021 . S
O10 C7 1.238 . S
O11 Co5 2.052 . S
O11 C7 1.241 . S
O12 Co0 2.137 . S
O12 C3 1.247 . S
O13 Co0 2.244 . S
O13 C3 1.272 . S
O13 Co5 2.135 . S
Co14 O15 2.216 . S
Co14 O16 2.091 . S
Co14 O18 2.004 1_545 S
Co14 O24 2.021 . S
Co14 O26 2.137 . S
Co14 O27 2.244 . S
O15 Co14 2.216 . S
O15 C22 1.247 . S
O16 Co14 2.091 . S
O16 C22 1.261 . S
C17 O26 1.247 . S
C17 O27 1.272 . S
O18 Co14 2.004 1_565 S
O18 C23 1.259 . S
Co19 O20 2.061 1_545 S
Co19 O25 2.052 . S
Co19 O27 2.135 . S
O20 Co19 2.061 1_565 S
O20 C23 1.235 . S
C21 O24 1.238 . S
C21 O25 1.241 . S
C22 O15 1.247 . S
C22 O16 1.261 . S
C23 O18 1.259 . S
C23 O20 1.235 . S
O24 Co14 2.021 . S
O24 C21 1.238 . S
O25 Co19 2.052 . S
O25 C21 1.241 . S
O26 Co14 2.137 . S
O26 C17 1.247 . S
O27 Co14 2.244 . S
O27 C17 1.272 . S
O27 Co19 2.135 . S
Co28 O29 2.216 . S
Co28 O30 2.091 . S
Co28 O32 2.004 1_655 S
Co28 O38 2.021 . S
Co28 O40 2.137 . S
Co28 O41 2.244 . S
O29 Co28 2.216 . S
O29 C36 1.247 . S
O30 Co28 2.091 . S
O30 C36 1.261 . S
C31 O40 1.247 . S
C31 O41 1.272 . S
O32 Co28 2.004 1_455 S
O32 C37 1.259 . S
Co33 O34 2.061 1_655 S
Co33 O39 2.052 . S
Co33 O41 2.135 . S
O34 Co33 2.061 1_455 S
O34 C37 1.235 . S
C35 O38 1.238 . S
C35 O39 1.241 . S
C36 O29 1.247 . S
C36 O30 1.261 . S
C37 O32 1.259 . S
C37 O34 1.235 . S
O38 Co28 2.021 . S
O38 C35 1.238 . S
O39 Co33 2.052 . S
O39 C35 1.241 . S
O40 Co28 2.137 . S
O40 C31 1.247 . S
O41 Co28 2.244 . S
O41 C31 1.272 . S
O41 Co33 2.135 . S
Co42 O43 2.216 . S
Co42 O44 2.091 . S
Co42 O46 2.004 1_565 S
Co42 O52 2.021 . S
Co42 O54 2.137 . S
Co42 O55 2.244 . S
O43 Co42 2.216 . S
O43 C50 1.247 . S
O44 Co42 2.091 . S
O44 C50 1.261 . S
C45 O54 1.247 . S
C45 O55 1.272 . S
O46 Co42 2.004 1_545 S
O46 C51 1.259 . S
Co47 O48 2.061 1_565 S
Co47 O53 2.052 . S
Co47 O55 2.135 . S
O48 Co47 2.061 1_545 S
O48 C51 1.235 . S
C49 O52 1.238 . S
C49 O53 1.241 . S
C50 O43 1.247 . S
C50 O44 1.261 . S
C51 O46 1.259 . S
C51 O48 1.235 . S
O52 Co42 2.021 . S
O52 C49 1.238 . S
O53 Co47 2.052 . S
O53 C49 1.241 . S
O54 Co42 2.137 . S
O54 C45 1.247 . S
O55 Co42 2.244 . S
O55 C45 1.272 . S
O55 Co47 2.135 . S
Co56 O57 2.216 . S
Co56 O58 2.091 . S
Co56 O60 2.004 1_455 S
Co56 O66 2.021 . S
Co56 O68 2.137 . S
Co56 O69 2.244 . S
O57 Co56 2.216 . S
O57 C64 1.247 . S
O58 Co56 2.091 . S
O58 C64 1.261 . S
C59 O68 1.247 . S
C59 O69 1.272 . S
O60 Co56 2.004 1_655 S
O60 C65 1.259 . S
Co61 O62 2.061 1_455 S
Co61 O67 2.052 . S
Co61 O69 2.135 . S
O62 Co61 2.061 1_655 S
O62 C65 1.235 . S
C63 O66 1.238 . S
C63 O67 1.241 . S
C64 O57 1.247 . S
C64 O58 1.261 . S
C65 O60 1.259 . S
C65 O62 1.235 . S
O66 Co56 2.021 . S
O66 C63 1.238 . S
O67 Co61 2.052 . S
O67 C63 1.241 . S
O68 Co56 2.137 . S
O68 C59 1.247 . S
O69 Co56 2.244 . S
O69 C59 1.272 . S
O69 Co61 2.135 . S
Co70 O71 2.216 . S
Co70 O72 2.091 . S
Co70 O74 2.004 1_545 S
Co70 O80 2.021 . S
Co70 O82 2.137 . S
Co70 O83 2.244 . S
O71 Co70 2.216 . S
O71 C78 1.247 . S
O72 Co70 2.091 . S
O72 C78 1.261 . S
C73 O82 1.247 . S
C73 O83 1.272 . S
O74 Co70 2.004 1_565 S
O74 C79 1.259 . S
Co75 O76 2.061 1_545 S
Co75 O81 2.052 . S
Co75 O83 2.135 . S
O76 Co75 2.061 1_565 S
O76 C79 1.235 . S
C77 O80 1.238 . S
C77 O81 1.241 . S
C78 O71 1.247 . S
C78 O72 1.261 . S
C79 O74 1.259 . S
C79 O76 1.235 . S
O80 Co70 2.021 . S
O80 C77 1.238 . S
O81 Co75 2.052 . S
O81 C77 1.241 . S
O82 Co70 2.137 . S
O82 C73 1.247 . S
O83 Co70 2.244 . S
O83 C73 1.272 . S
O83 Co75 2.135 . S
Co84 O85 2.216 . S
Co84 O86 2.091 . S
Co84 O88 2.004 1_655 S
Co84 O94 2.021 . S
Co84 O96 2.137 . S
Co84 O97 2.244 . S
O85 Co84 2.216 . S
O85 C92 1.247 . S
O86 Co84 2.091 . S
O86 C92 1.261 . S
C87 O96 1.247 . S
C87 O97 1.272 . S
O88 Co84 2.004 1_455 S
O88 C93 1.259 . S
Co89 O90 2.061 1_655 S
Co89 O95 2.052 . S
Co89 O97 2.135 . S
O90 Co89 2.061 1_455 S
O90 C93 1.235 . S
C91 O94 1.238 . S
C91 O95 1.241 . S
C92 O85 1.247 . S
C92 O86 1.261 . S
C93 O88 1.259 . S
C93 O90 1.235 . S
O94 Co84 2.021 . S
O94 C91 1.238 . S
O95 Co89 2.052 . S
O95 C91 1.241 . S
O96 Co84 2.137 . S
O96 C87 1.247 . S
O97 Co84 2.244 . S
O97 C87 1.272 . S
O97 Co89 2.135 . S
Co98 O99 2.216 . S
Co98 O100 2.091 . S
Co98 O102 2.004 1_565 S
Co98 O108 2.021 . S
Co98 O110 2.137 . S
Co98 O111 2.244 . S
O99 Co98 2.216 . S
O99 C106 1.247 . S
O100 Co98 2.091 . S
O100 C106 1.261 . S
C101 O110 1.247 . S
C101 O111 1.272 . S
O102 Co98 2.004 1_545 S
O102 C107 1.259 . S
Co103 O104 2.061 1_565 S
Co103 O109 2.052 . S
Co103 O111 2.135 . S
O104 Co103 2.061 1_545 S
O104 C107 1.235 . S
C105 O108 1.238 . S
C105 O109 1.241 . S
C106 O99 1.247 . S
C106 O100 1.261 . S
C107 O102 1.259 . S
C107 O104 1.235 . S
O108 Co98 2.021 . S
O108 C105 1.238 . S
O109 Co103 2.052 . S
O109 C105 1.241 . S
O110 Co98 2.137 . S
O110 C101 1.247 . S
O111 Co98 2.244 . S
O111 C101 1.272 . S
O111 Co103 2.135 . S
Co112 O113 2.216 . S
Co112 O114 2.091 . S
Co112 O116 2.004 1_545 S
Co112 O122 2.021 . S
Co112 O124 2.137 . S
Co112 O125 2.244 . S
O113 Co112 2.216 . S
O113 C120 1.247 . S
O114 Co112 2.091 . S
O114 C120 1.261 . S
C115 O124 1.247 . S
C115 O125 1.272 . S
O116 Co112 2.004 1_565 S
O116 C121 1.259 . S
Co117 O118 2.061 1_545 S
Co117 O123 2.052 . S
Co117 O125 2.135 . S
O118 Co117 2.061 1_565 S
O118 C121 1.235 . S
C119 O122 1.238 . S
C119 O123 1.241 . S
C120 O113 1.247 . S
C120 O114 1.261 . S
C121 O116 1.259 . S
C121 O118 1.235 . S
O122 Co112 2.021 . S
O122 C119 1.238 . S
O123 Co117 2.052 . S
O123 C119 1.241 . S
O124 Co112 2.137 . S
O124 C115 1.247 . S
O125 Co112 2.244 . S
O125 C115 1.272 . S
O125 Co117 2.135 . S
Co126 O127 2.216 . S
Co126 O128 2.091 . S
Co126 O130 2.004 1_655 S
Co126 O136 2.021 . S
Co126 O138 2.137 . S
Co126 O139 2.244 . S
O127 Co126 2.216 . S
O127 C134 1.247 . S
O128 Co126 2.091 . S
O128 C134 1.261 . S
C129 O138 1.247 . S
C129 O139 1.272 . S
O130 Co126 2.004 1_455 S
O130 C135 1.259 . S
Co131 O132 2.061 1_655 S
Co131 O137 2.052 . S
Co131 O139 2.135 . S
O132 Co131 2.061 1_455 S
O132 C135 1.235 . S
C133 O136 1.238 . S
C133 O137 1.241 . S
C134 O127 1.247 . S
C134 O128 1.261 . S
C135 O130 1.259 . S
C135 O132 1.235 . S
O136 Co126 2.021 . S
O136 C133 1.238 . S
O137 Co131 2.052 . S
O137 C133 1.241 . S
O138 Co126 2.137 . S
O138 C129 1.247 . S
O139 Co126 2.244 . S
O139 C129 1.272 . S
O139 Co131 2.135 . S
Co140 O141 2.216 . S
Co140 O142 2.091 . S
Co140 O144 2.004 1_565 S
Co140 O150 2.021 . S
Co140 O152 2.137 . S
Co140 O153 2.244 . S
O141 Co140 2.216 . S
O141 C148 1.247 . S
O142 Co140 2.091 . S
O142 C148 1.261 . S
C143 O152 1.247 . S
C143 O153 1.272 . S
O144 Co140 2.004 1_545 S
O144 C149 1.259 . S
Co145 O146 2.061 1_565 S
Co145 O151 2.052 . S
Co145 O153 2.135 . S
O146 Co145 2.061 1_545 S
O146 C149 1.235 . S
C147 O150 1.238 . S
C147 O151 1.241 . S
C148 O141 1.247 . S
C148 O142 1.261 . S
C149 O144 1.259 . S
C149 O146 1.235 . S
O150 Co140 2.021 . S
O150 C147 1.238 . S
O151 Co145 2.052 . S
O151 C147 1.241 . S
O152 Co140 2.137 . S
O152 C143 1.247 . S
O153 Co140 2.244 . S
O153 C143 1.272 . S
O153 Co145 2.135 . S
Co154 O155 2.216 . S
Co154 O156 2.091 . S
Co154 O158 2.004 1_455 S
Co154 O164 2.021 . S
Co154 O166 2.137 . S
Co154 O167 2.244 . S
O155 Co154 2.216 . S
O155 C162 1.247 . S
O156 Co154 2.091 . S
O156 C162 1.261 . S
C157 O166 1.247 . S
C157 O167 1.272 . S
O158 Co154 2.004 1_655 S
O158 C163 1.259 . S
Co159 O160 2.061 1_455 S
Co159 O165 2.052 . S
Co159 O167 2.135 . S
O160 Co159 2.061 1_655 S
O160 C163 1.235 . S
C161 O164 1.238 . S
C161 O165 1.241 . S
C162 O155 1.247 . S
C162 O156 1.261 . S
C163 O158 1.259 . S
C163 O160 1.235 . S
O164 Co154 2.021 . S
O164 C161 1.238 . S
O165 Co159 2.052 . S
O165 C161 1.241 . S
O166 Co154 2.137 . S
O166 C157 1.247 . S
O167 Co154 2.244 . S
O167 C157 1.272 . S
O167 Co159 2.135 . S
Co168 O169 2.216 . S
Co168 O170 2.091 . S
Co168 O172 2.004 1_565 S
Co168 O178 2.021 . S
Co168 O180 2.137 . S
Co168 O181 2.244 . S
O169 Co168 2.216 . S
O169 C176 1.247 . S
O170 Co168 2.091 . S
O170 C176 1.261 . S
C171 O180 1.247 . S
C171 O181 1.272 . S
O172 Co168 2.004 1_545 S
O172 C177 1.259 . S
Co173 O174 2.061 1_565 S
Co173 O179 2.052 . S
Co173 O181 2.135 . S
O174 Co173 2.061 1_545 S
O174 C177 1.235 . S
C175 O178 1.238 . S
C175 O179 1.241 . S
C176 O169 1.247 . S
C176 O170 1.261 . S
C177 O172 1.259 . S
C177 O174 1.235 . S
O178 Co168 2.021 . S
O178 C175 1.238 . S
O179 Co173 2.052 . S
O179 C175 1.241 . S
O180 Co168 2.137 . S
O180 C171 1.247 . S
O181 Co168 2.244 . S
O181 C171 1.272 . S
O181 Co173 2.135 . S
Co182 O183 2.216 . S
Co182 O184 2.091 . S
Co182 O186 2.004 1_455 S
Co182 O192 2.021 . S
Co182 O194 2.137 . S
Co182 O195 2.244 . S
O183 Co182 2.216 . S
O183 C190 1.247 . S
O184 Co182 2.091 . S
O184 C190 1.261 . S
C185 O194 1.247 . S
C185 O195 1.272 . S
O186 Co182 2.004 1_655 S
O186 C191 1.259 . S
Co187 O188 2.061 1_455 S
Co187 O193 2.052 . S
Co187 O195 2.135 . S
O188 Co187 2.061 1_655 S
O188 C191 1.235 . S
C189 O192 1.238 . S
C189 O193 1.241 . S
C190 O183 1.247 . S
C190 O184 1.261 . S
C191 O186 1.259 . S
C191 O188 1.235 . S
O192 Co182 2.021 . S
O192 C189 1.238 . S
O193 Co187 2.052 . S
O193 C189 1.241 . S
O194 Co182 2.137 . S
O194 C185 1.247 . S
O195 Co182 2.244 . S
O195 C185 1.272 . S
O195 Co187 2.135 . S
Co196 O197 2.216 . S
Co196 O198 2.091 . S
Co196 O200 2.004 1_545 S
Co196 O206 2.021 . S
Co196 O208 2.137 . S
Co196 O209 2.244 . S
O197 Co196 2.216 . S
O197 C204 1.247 . S
O198 Co196 2.091 . S
O198 C204 1.261 . S
C199 O208 1.247 . S
C199 O209 1.272 . S
O200 Co196 2.004 1_565 S
O200 C205 1.259 . S
Co201 O202 2.061 1_545 S
Co201 O207 2.052 . S
Co201 O209 2.135 . S
O202 Co201 2.061 1_565 S
O202 C205 1.235 . S
C203 O206 1.238 . S
C203 O207 1.241 . S
C204 O197 1.247 . S
C204 O198 1.261 . S
C205 O200 1.259 . S
C205 O202 1.235 . S
O206 Co196 2.021 . S
O206 C203 1.238 . S
O207 Co201 2.052 . S
O207 C203 1.241 . S
O208 Co196 2.137 . S
O208 C199 1.247 . S
O209 Co196 2.244 . S
O209 C199 1.272 . S
O209 Co201 2.135 . S
Co210 O211 2.216 . S
Co210 O212 2.091 . S
Co210 O214 2.004 1_655 S
Co210 O220 2.021 . S
Co210 O222 2.137 . S
Co210 O223 2.244 . S
O211 Co210 2.216 . S
O211 C218 1.247 . S
O212 Co210 2.091 . S
O212 C218 1.261 . S
C213 O222 1.247 . S
C213 O223 1.272 . S
O214 Co210 2.004 1_455 S
O214 C219 1.259 . S
Co215 O216 2.061 1_655 S
Co215 O221 2.052 . S
Co215 O223 2.135 . S
O216 Co215 2.061 1_455 S
O216 C219 1.235 . S
C217 O220 1.238 . S
C217 O221 1.241 . S
C218 O211 1.247 . S
C218 O212 1.261 . S
C219 O214 1.259 . S
C219 O216 1.235 . S
O220 Co210 2.021 . S
O220 C217 1.238 . S
O221 Co215 2.052 . S
O221 C217 1.241 . S
O222 Co210 2.137 . S
O222 C213 1.247 . S
O223 Co210 2.244 . S
O223 C213 1.272 . S
O223 Co215 2.135 . S
Co224 O225 2.216 . S
Co224 O226 2.091 . S
Co224 O228 2.004 1_554 S
Co224 O234 2.021 . S
Co224 O236 2.137 . S
Co224 O237 2.244 . S
O225 Co224 2.216 . S
O225 C232 1.247 . S
O226 Co224 2.091 . S
O226 C232 1.261 . S
C227 O236 1.247 . S
C227 O237 1.272 . S
O228 Co224 2.004 1_556 S
O228 C233 1.259 . S
Co229 O230 2.061 1_554 S
Co229 O235 2.052 . S
Co229 O237 2.135 . S
O230 Co229 2.061 1_556 S
O230 C233 1.235 . S
C231 O234 1.238 . S
C231 O235 1.241 . S
C232 O225 1.247 . S
C232 O226 1.261 . S
C233 O228 1.259 . S
C233 O230 1.235 . S
O234 Co224 2.021 . S
O234 C231 1.238 . S
O235 Co229 2.052 . S
O235 C231 1.241 . S
O236 Co224 2.137 . S
O236 C227 1.247 . S
O237 Co224 2.244 . S
O237 C227 1.272 . S
O237 Co229 2.135 . S
Co238 O239 2.216 . S
Co238 O240 2.091 . S
Co238 O242 2.004 1_556 S
Co238 O248 2.021 . S
Co238 O250 2.137 . S
Co238 O251 2.244 . S
O239 Co238 2.216 . S
O239 C246 1.247 . S
O240 Co238 2.091 . S
O240 C246 1.261 . S
C241 O250 1.247 . S
C241 O251 1.272 . S
O242 Co238 2.004 1_554 S
O242 C247 1.259 . S
Co243 O244 2.061 1_556 S
Co243 O249 2.052 . S
Co243 O251 2.135 . S
O244 Co243 2.061 1_554 S
O244 C247 1.235 . S
C245 O248 1.238 . S
C245 O249 1.241 . S
C246 O239 1.247 . S
C246 O240 1.261 . S
C247 O242 1.259 . S
C247 O244 1.235 . S
O248 Co238 2.021 . S
O248 C245 1.238 . S
O249 Co243 2.052 . S
O249 C245 1.241 . S
O250 Co238 2.137 . S
O250 C241 1.247 . S
O251 Co238 2.244 . S
O251 C241 1.272 . S
O251 Co243 2.135 . S
Co252 O253 2.216 . S
Co252 O254 2.091 . S
Co252 O256 2.004 1_556 S
Co252 O262 2.021 . S
Co252 O264 2.137 . S
Co252 O265 2.244 . S
O253 Co252 2.216 . S
O253 C260 1.247 . S
O254 Co252 2.091 . S
O254 C260 1.261 . S
C255 O264 1.247 . S
C255 O265 1.272 . S
O256 Co252 2.004 1_554 S
O256 C261 1.259 . S
Co257 O258 2.061 1_556 S
Co257 O263 2.052 . S
Co257 O265 2.135 . S
O258 Co257 2.061 1_554 S
O258 C261 1.235 . S
C259 O262 1.238 . S
C259 O263 1.241 . S
C260 O253 1.247 . S
C260 O254 1.261 . S
C261 O256 1.259 . S
C261 O258 1.235 . S
O262 Co252 2.021 . S
O262 C259 1.238 . S
O263 Co257 2.052 . S
O263 C259 1.241 . S
O264 Co252 2.137 . S
O264 C255 1.247 . S
O265 Co252 2.244 . S
O265 C255 1.272 . S
O265 Co257 2.135 . S
Co266 O267 2.216 . S
Co266 O268 2.091 . S
Co266 O270 2.004 1_556 S
Co266 O276 2.021 . S
Co266 O278 2.137 . S
Co266 O279 2.244 . S
O267 Co266 2.216 . S
O267 C274 1.247 . S
O268 Co266 2.091 . S
O268 C274 1.261 . S
C269 O278 1.247 . S
C269 O279 1.272 . S
O270 Co266 2.004 1_554 S
O270 C275 1.259 . S
Co271 O272 2.061 1_556 S
Co271 O277 2.052 . S
Co271 O279 2.135 . S
O272 Co271 2.061 1_554 S
O272 C275 1.235 . S
C273 O276 1.238 . S
C273 O277 1.241 . S
C274 O267 1.247 . S
C274 O268 1.261 . S
C275 O270 1.259 . S
C275 O272 1.235 . S
O276 Co266 2.021 . S
O276 C273 1.238 . S
O277 Co271 2.052 . S
O277 C273 1.241 . S
O278 Co266 2.137 . S
O278 C269 1.247 . S
O279 Co266 2.244 . S
O279 C269 1.272 . S
O279 Co271 2.135 . S
Co280 O281 2.216 . S
Co280 O282 2.091 . S
Co280 O284 2.004 1_556 S
Co280 O290 2.021 . S
Co280 O292 2.137 . S
Co280 O293 2.244 . S
O281 Co280 2.216 . S
O281 C288 1.247 . S
O282 Co280 2.091 . S
O282 C288 1.261 . S
C283 O292 1.247 . S
C283 O293 1.272 . S
O284 Co280 2.004 1_554 S
O284 C289 1.259 . S
Co285 O286 2.061 1_556 S
Co285 O291 2.052 . S
Co285 O293 2.135 . S
O286 Co285 2.061 1_554 S
O286 C289 1.235 . S
C287 O290 1.238 . S
C287 O291 1.241 . S
C288 O281 1.247 . S
C288 O282 1.261 . S
C289 O284 1.259 . S
C289 O286 1.235 . S
O290 Co280 2.021 . S
O290 C287 1.238 . S
O291 Co285 2.052 . S
O291 C287 1.241 . S
O292 Co280 2.137 . S
O292 C283 1.247 . S
O293 Co280 2.244 . S
O293 C283 1.272 . S
O293 Co285 2.135 . S
Co294 O295 2.216 . S
Co294 O296 2.091 . S
Co294 O298 2.004 1_554 S
Co294 O304 2.021 . S
Co294 O306 2.137 . S
Co294 O307 2.244 . S
O295 Co294 2.216 . S
O295 C302 1.247 . S
O296 Co294 2.091 . S
O296 C302 1.261 . S
C297 O306 1.247 . S
C297 O307 1.272 . S
O298 Co294 2.004 1_556 S
O298 C303 1.259 . S
Co299 O300 2.061 1_554 S
Co299 O305 2.052 . S
Co299 O307 2.135 . S
O300 Co299 2.061 1_556 S
O300 C303 1.235 . S
C301 O304 1.238 . S
C301 O305 1.241 . S
C302 O295 1.247 . S
C302 O296 1.261 . S
C303 O298 1.259 . S
C303 O300 1.235 . S
O304 Co294 2.021 . S
O304 C301 1.238 . S
O305 Co299 2.052 . S
O305 C301 1.241 . S
O306 Co294 2.137 . S
O306 C297 1.247 . S
O307 Co294 2.244 . S
O307 C297 1.272 . S
O307 Co299 2.135 . S
Co308 O309 2.216 . S
Co308 O310 2.091 . S
Co308 O312 2.004 1_554 S
Co308 O318 2.021 . S
Co308 O320 2.137 . S
Co308 O321 2.244 . S
O309 Co308 2.216 . S
O309 C316 1.247 . S
O310 Co308 2.091 . S
O310 C316 1.261 . S
C311 O320 1.247 . S
C311 O321 1.272 . S
O312 Co308 2.004 1_556 S
O312 C317 1.259 . S
Co313 O314 2.061 1_554 S
Co313 O319 2.052 . S
Co313 O321 2.135 . S
O314 Co313 2.061 1_556 S
O314 C317 1.235 . S
C315 O318 1.238 . S
C315 O319 1.241 . S
C316 O309 1.247 . S
C316 O310 1.261 . S
C317 O312 1.259 . S
C317 O314 1.235 . S
O318 Co308 2.021 . S
O318 C315 1.238 . S
O319 Co313 2.052 . S
O319 C315 1.241 . S
O320 Co308 2.137 . S
O320 C311 1.247 . S
O321 Co308 2.244 . S
O321 C311 1.272 . S
O321 Co313 2.135 . S
Co322 O323 2.216 . S
Co322 O324 2.091 . S
Co322 O326 2.004 1_554 S
Co322 O332 2.021 . S
Co322 O334 2.137 . S
Co322 O335 2.244 . S
O323 Co322 2.216 . S
O323 C330 1.247 . S
O324 Co322 2.091 . S
O324 C330 1.261 . S
C325 O334 1.247 . S
C325 O335 1.272 . S
O326 Co322 2.004 1_556 S
O326 C331 1.259 . S
Co327 O328 2.061 1_554 S
Co327 O333 2.052 . S
Co327 O335 2.135 . S
O328 Co327 2.061 1_556 S
O328 C331 1.235 . S
C329 O332 1.238 . S
C329 O333 1.241 . S
C330 O323 1.247 . S
C330 O324 1.261 . S
C331 O326 1.259 . S
C331 O328 1.235 . S
O332 Co322 2.021 . S
O332 C329 1.238 . S
O333 Co327 2.052 . S
O333 C329 1.241 . S
O334 Co322 2.137 . S
O334 C325 1.247 . S
O335 Co322 2.244 . S
O335 C325 1.272 . S
O335 Co327 2.135 . S
Co336 O337 2.216 . S
Co336 O338 2.091 . S
Co336 O340 2.004 . S
Co336 O346 2.021 . S
Co336 O348 2.137 . S
Co336 O349 2.244 . S
O337 Co336 2.216 . S
O337 C344 1.247 . S
O338 Co336 2.091 . S
O338 C344 1.261 . S
C339 O348 1.247 . S
C339 O349 1.272 . S
O340 Co336 2.004 . S
O340 C345 1.259 . S
Co341 O342 2.061 . S
Co341 O347 2.052 . S
Co341 O349 2.135 . S
O342 Co341 2.061 . S
O342 C345 1.235 . S
C343 O346 1.238 . S
C343 O347 1.241 . S
C344 O337 1.247 . S
C344 O338 1.261 . S
C345 O340 1.259 . S
C345 O342 1.235 . S
O346 Co336 2.021 . S
O346 C343 1.238 . S
O347 Co341 2.052 . S
O347 C343 1.241 . S
O348 Co336 2.137 . S
O348 C339 1.247 . S
O349 Co336 2.244 . S
O349 C339 1.272 . S
O349 Co341 2.135 . S
Co350 O351 2.216 . S
Co350 O352 2.091 . S
Co350 O354 2.004 . S
Co350 O360 2.021 . S
Co350 O362 2.137 . S
Co350 O363 2.244 . S
O351 Co350 2.216 . S
O351 C358 1.247 . S
O352 Co350 2.091 . S
O352 C358 1.261 . S
C353 O362 1.247 . S
C353 O363 1.272 . S
O354 Co350 2.004 . S
O354 C359 1.259 . S
Co355 O356 2.061 . S
Co355 O361 2.052 . S
Co355 O363 2.135 . S
O356 Co355 2.061 . S
O356 C359 1.235 . S
C357 O360 1.238 . S
C357 O361 1.241 . S
C358 O351 1.247 . S
C358 O352 1.261 . S
C359 O354 1.259 . S
C359 O356 1.235 . S
O360 Co350 2.021 . S
O360 C357 1.238 . S
O361 Co355 2.052 . S
O361 C357 1.241 . S
O362 Co350 2.137 . S
O362 C353 1.247 . S
O363 Co350 2.244 . S
O363 C353 1.272 . S
O363 Co355 2.135 . S
Co364 O365 2.216 . S
Co364 O366 2.091 . S
Co364 O368 2.004 . S
Co364 O374 2.021 . S
Co364 O376 2.137 . S
Co364 O377 2.244 . S
O365 Co364 2.216 . S
O365 C372 1.247 . S
O366 Co364 2.091 . S
O366 C372 1.261 . S
C367 O376 1.247 . S
C367 O377 1.272 . S
O368 Co364 2.004 . S
O368 C373 1.259 . S
Co369 O370 2.061 . S
Co369 O375 2.052 . S
Co369 O377 2.135 . S
O370 Co369 2.061 . S
O370 C373 1.235 . S
C371 O374 1.238 . S
C371 O375 1.241 . S
C372 O365 1.247 . S
C372 O366 1.261 . S
C373 O368 1.259 . S
C373 O370 1.235 . S
O374 Co364 2.021 . S
O374 C371 1.238 . S
O375 Co369 2.052 . S
O375 C371 1.241 . S
O376 Co364 2.137 . S
O376 C367 1.247 . S
O377 Co364 2.244 . S
O377 C367 1.272 . S
O377 Co369 2.135 . S
Co378 O379 2.216 . S
Co378 O380 2.091 . S
Co378 O382 2.004 . S
Co378 O388 2.021 . S
Co378 O390 2.137 . S
Co378 O391 2.244 . S
O379 Co378 2.216 . S
O379 C386 1.247 . S
O380 Co378 2.091 . S
O380 C386 1.261 . S
C381 O390 1.247 . S
C381 O391 1.272 . S
O382 Co378 2.004 . S
O382 C387 1.259 . S
Co383 O384 2.061 . S
Co383 O389 2.052 . S
Co383 O391 2.135 . S
O384 Co383 2.061 . S
O384 C387 1.235 . S
C385 O388 1.238 . S
C385 O389 1.241 . S
C386 O379 1.247 . S
C386 O380 1.261 . S
C387 O382 1.259 . S
C387 O384 1.235 . S
O388 Co378 2.021 . S
O388 C385 1.238 . S
O389 Co383 2.052 . S
O389 C385 1.241 . S
O390 Co378 2.137 . S
O390 C381 1.247 . S
O391 Co378 2.244 . S
O391 C381 1.272 . S
O391 Co383 2.135 . S
Co392 O393 2.216 . S
Co392 O394 2.091 . S
Co392 O396 2.004 . S
Co392 O402 2.021 . S
Co392 O404 2.137 . S
Co392 O405 2.244 . S
O393 Co392 2.216 . S
O393 C400 1.247 . S
O394 Co392 2.091 . S
O394 C400 1.261 . S
C395 O404 1.247 . S
C395 O405 1.272 . S
O396 Co392 2.004 . S
O396 C401 1.259 . S
Co397 O398 2.061 . S
Co397 O403 2.052 . S
Co397 O405 2.135 . S
O398 Co397 2.061 . S
O398 C401 1.235 . S
C399 O402 1.238 . S
C399 O403 1.241 . S
C400 O393 1.247 . S
C400 O394 1.261 . S
C401 O396 1.259 . S
C401 O398 1.235 . S
O402 Co392 2.021 . S
O402 C399 1.238 . S
O403 Co397 2.052 . S
O403 C399 1.241 . S
O404 Co392 2.137 . S
O404 C395 1.247 . S
O405 Co392 2.244 . S
O405 C395 1.272 . S
O405 Co397 2.135 . S
Co406 O407 2.216 . S
Co406 O408 2.091 . S
Co406 O410 2.004 . S
Co406 O416 2.021 . S
Co406 O418 2.137 . S
Co406 O419 2.244 . S
O407 Co406 2.216 . S
O407 C414 1.247 . S
O408 Co406 2.091 . S
O408 C414 1.261 . S
C409 O418 1.247 . S
C409 O419 1.272 . S
O410 Co406 2.004 . S
O410 C415 1.259 . S
Co411 O412 2.061 . S
Co411 O417 2.052 . S
Co411 O419 2.135 . S
O412 Co411 2.061 . S
O412 C415 1.235 . S
C413 O416 1.238 . S
C413 O417 1.241 . S
C414 O407 1.247 . S
C414 O408 1.261 . S
C415 O410 1.259 . S
C415 O412 1.235 . S
O416 Co406 2.021 . S
O416 C413 1.238 . S
O417 Co411 2.052 . S
O417 C413 1.241 . S
O418 Co406 2.137 . S
O418 C409 1.247 . S
O419 Co406 2.244 . S
O419 C409 1.272 . S
O419 Co411 2.135 . S
Co420 O421 2.216 . S
Co420 O422 2.091 . S
Co420 O424 2.004 . S
Co420 O430 2.021 . S
Co420 O432 2.137 . S
Co420 O433 2.244 . S
O421 Co420 2.216 . S
O421 C428 1.247 . S
O422 Co420 2.091 . S
O422 C428 1.261 . S
C423 O432 1.247 . S
C423 O433 1.272 . S
O424 Co420 2.004 . S
O424 C429 1.259 . S
Co425 O426 2.061 . S
Co425 O431 2.052 . S
Co425 O433 2.135 . S
O426 Co425 2.061 . S
O426 C429 1.235 . S
C427 O430 1.238 . S
C427 O431 1.241 . S
C428 O421 1.247 . S
C428 O422 1.261 . S
C429 O424 1.259 . S
C429 O426 1.235 . S
O430 Co420 2.021 . S
O430 C427 1.238 . S
O431 Co425 2.052 . S
O431 C427 1.241 . S
O432 Co420 2.137 . S
O432 C423 1.247 . S
O433 Co420 2.244 . S
O433 C423 1.272 . S
O433 Co425 2.135 . S
Co434 O435 2.216 . S
Co434 O436 2.091 . S
Co434 O438 2.004 . S
Co434 O444 2.021 . S
Co434 O446 2.137 . S
Co434 O447 2.244 . S
O435 Co434 2.216 . S
O435 C442 1.247 . S
O436 Co434 2.091 . S
O436 C442 1.261 . S
C437 O446 1.247 . S
C437 O447 1.272 . S
O438 Co434 2.004 . S
O438 C443 1.259 . S
Co439 O440 2.061 . S
Co439 O445 2.052 . S
Co439 O447 2.135 . S
O440 Co439 2.061 . S
O440 C443 1.235 . S
C441 O444 1.238 . S
C441 O445 1.241 . S
C442 O435 1.247 . S
C442 O436 1.261 . S
C443 O438 1.259 . S
C443 O440 1.235 . S
O444 Co434 2.021 . S
O444 C441 1.238 . S
O445 Co439 2.052 . S
O445 C441 1.241 . S
O446 Co434 2.137 . S
O446 C437 1.247 . S
O447 Co434 2.244 . S
O447 C437 1.272 . S
O447 Co439 2.135 . S
Co448 O449 2.216 . S
Co448 O450 2.091 . S
Co448 O452 2.004 . S
Co448 O458 2.021 . S
Co448 O460 2.137 . S
Co448 O461 2.244 . S
O449 Co448 2.216 . S
O449 C456 1.247 . S
O450 Co448 2.091 . S
O450 C456 1.261 . S
C451 O460 1.247 . S
C451 O461 1.272 . S
O452 Co448 2.004 . S
O452 C457 1.259 . S
Co453 O454 2.061 . S
Co453 O459 2.052 . S
Co453 O461 2.135 . S
O454 Co453 2.061 . S
O454 C457 1.235 . S
C455 O458 1.238 . S
C455 O459 1.241 . S
C456 O449 1.247 . S
C456 O450 1.261 . S
C457 O452 1.259 . S
C457 O454 1.235 . S
O458 Co448 2.021 . S
O458 C455 1.238 . S
O459 Co453 2.052 . S
O459 C455 1.241 . S
O460 Co448 2.137 . S
O460 C451 1.247 . S
O461 Co448 2.244 . S
O461 C451 1.272 . S
O461 Co453 2.135 . S
Co462 O463 2.216 . S
Co462 O464 2.091 . S
Co462 O466 2.004 . S
Co462 O472 2.021 . S
Co462 O474 2.137 . S
Co462 O475 2.244 . S
O463 Co462 2.216 . S
O463 C470 1.247 . S
O464 Co462 2.091 . S
O464 C470 1.261 . S
C465 O474 1.247 . S
C465 O475 1.272 . S
O466 Co462 2.004 . S
O466 C471 1.259 . S
Co467 O468 2.061 . S
Co467 O473 2.052 . S
Co467 O475 2.135 . S
O468 Co467 2.061 . S
O468 C471 1.235 . S
C469 O472 1.238 . S
C469 O473 1.241 . S
C470 O463 1.247 . S
C470 O464 1.261 . S
C471 O466 1.259 . S
C471 O468 1.235 . S
O472 Co462 2.021 . S
O472 C469 1.238 . S
O473 Co467 2.052 . S
O473 C469 1.241 . S
O474 Co462 2.137 . S
O474 C465 1.247 . S
O475 Co462 2.244 . S
O475 C465 1.272 . S
O475 Co467 2.135 . S
Co476 O477 2.216 . S
Co476 O478 2.091 . S
Co476 O480 2.004 . S
Co476 O486 2.021 . S
Co476 O488 2.137 . S
Co476 O489 2.244 . S
O477 Co476 2.216 . S
O477 C484 1.247 . S
O478 Co476 2.091 . S
O478 C484 1.261 . S
C479 O488 1.247 . S
C479 O489 1.272 . S
O480 Co476 2.004 . S
O480 C485 1.259 . S
Co481 O482 2.061 . S
Co481 O487 2.052 . S
Co481 O489 2.135 . S
O482 Co481 2.061 . S
O482 C485 1.235 . S
C483 O486 1.238 . S
C483 O487 1.241 . S
C484 O477 1.247 . S
C484 O478 1.261 . S
C485 O480 1.259 . S
C485 O482 1.235 . S
O486 Co476 2.021 . S
O486 C483 1.238 . S
O487 Co481 2.052 . S
O487 C483 1.241 . S
O488 Co476 2.137 . S
O488 C479 1.247 . S
O489 Co476 2.244 . S
O489 C479 1.272 . S
O489 Co481 2.135 . S
Co490 O491 2.216 . S
Co490 O492 2.091 . S
Co490 O494 2.004 . S
Co490 O500 2.021 . S
Co490 O502 2.137 . S
Co490 O503 2.244 . S
O491 Co490 2.216 . S
O491 C498 1.247 . S
O492 Co490 2.091 . S
O492 C498 1.261 . S
C493 O502 1.247 . S
C493 O503 1.272 . S
O494 Co490 2.004 . S
O494 C499 1.259 . S
Co495 O496 2.061 . S
Co495 O501 2.052 . S
Co495 O503 2.135 . S
O496 Co495 2.061 . S
O496 C499 1.235 . S
C497 O500 1.238 . S
C497 O501 1.241 . S
C498 O491 1.247 . S
C498 O492 1.261 . S
C499 O494 1.259 . S
C499 O496 1.235 . S
O500 Co490 2.021 . S
O500 C497 1.238 . S
O501 Co495 2.052 . S
O501 C497 1.241 . S
O502 Co490 2.137 . S
O502 C493 1.247 . S
O503 Co490 2.244 . S
O503 C493 1.272 . S
O503 Co495 2.135 . S
Co504 O505 2.216 . S
Co504 O506 2.091 . S
Co504 O508 2.004 . S
Co504 O514 2.021 . S
Co504 O516 2.137 . S
Co504 O517 2.244 . S
O505 Co504 2.216 . S
O505 C512 1.247 . S
O506 Co504 2.091 . S
O506 C512 1.261 . S
C507 O516 1.247 . S
C507 O517 1.272 . S
O508 Co504 2.004 . S
O508 C513 1.259 . S
Co509 O510 2.061 . S
Co509 O515 2.052 . S
Co509 O517 2.135 . S
O510 Co509 2.061 . S
O510 C513 1.235 . S
C511 O514 1.238 . S
C511 O515 1.241 . S
C512 O505 1.247 . S
C512 O506 1.261 . S
C513 O508 1.259 . S
C513 O510 1.235 . S
O514 Co504 2.021 . S
O514 C511 1.238 . S
O515 Co509 2.052 . S
O515 C511 1.241 . S
O516 Co504 2.137 . S
O516 C507 1.247 . S
O517 Co504 2.244 . S
O517 C507 1.272 . S
O517 Co509 2.135 . S
Co518 O519 2.216 . S
Co518 O520 2.091 . S
Co518 O522 2.004 . S
Co518 O528 2.021 . S
Co518 O530 2.137 . S
Co518 O531 2.244 . S
O519 Co518 2.216 . S
O519 C526 1.247 . S
O520 Co518 2.091 . S
O520 C526 1.261 . S
C521 O530 1.247 . S
C521 O531 1.272 . S
O522 Co518 2.004 . S
O522 C527 1.259 . S
Co523 O524 2.061 . S
Co523 O529 2.052 . S
Co523 O531 2.135 . S
O524 Co523 2.061 . S
O524 C527 1.235 . S
C525 O528 1.238 . S
C525 O529 1.241 . S
C526 O519 1.247 . S
C526 O520 1.261 . S
C527 O522 1.259 . S
C527 O524 1.235 . S
O528 Co518 2.021 . S
O528 C525 1.238 . S
O529 Co523 2.052 . S
O529 C525 1.241 . S
O530 Co518 2.137 . S
O530 C521 1.247 . S
O531 Co518 2.244 . S
O531 C521 1.272 . S
O531 Co523 2.135 . S
Co532 O533 2.216 . S
Co532 O534 2.091 . S
Co532 O536 2.004 . S
Co532 O542 2.021 . S
Co532 O544 2.137 . S
Co532 O545 2.244 . S
O533 Co532 2.216 . S
O533 C540 1.247 . S
O534 Co532 2.091 . S
O534 C540 1.261 . S
C535 O544 1.247 . S
C535 O545 1.272 . S
O536 Co532 2.004 . S
O536 C541 1.259 . S
Co537 O538 2.061 . S
Co537 O543 2.052 . S
Co537 O545 2.135 . S
O538 Co537 2.061 . S
O538 C541 1.235 . S
C539 O542 1.238 . S
C539 O543 1.241 . S
C540 O533 1.247 . S
C540 O534 1.261 . S
C541 O536 1.259 . S
C541 O538 1.235 . S
O542 Co532 2.021 . S
O542 C539 1.238 . S
O543 Co537 2.052 . S
O543 C539 1.241 . S
O544 Co532 2.137 . S
O544 C535 1.247 . S
O545 Co532 2.244 . S
O545 C535 1.272 . S
O545 Co537 2.135 . S
Co546 O547 2.216 . S
Co546 O548 2.091 . S
Co546 O550 2.004 . S
Co546 O556 2.021 . S
Co546 O558 2.137 . S
Co546 O559 2.244 . S
O547 Co546 2.216 . S
O547 C554 1.247 . S
O548 Co546 2.091 . S
O548 C554 1.261 . S
C549 O558 1.247 . S
C549 O559 1.272 . S
O550 Co546 2.004 . S
O550 C555 1.259 . S
Co551 O552 2.061 . S
Co551 O557 2.052 . S
Co551 O559 2.135 . S
O552 Co551 2.061 . S
O552 C555 1.235 . S
C553 O556 1.238 . S
C553 O557 1.241 . S
C554 O547 1.247 . S
C554 O548 1.261 . S
C555 O550 1.259 . S
C555 O552 1.235 . S
O556 Co546 2.021 . S
O556 C553 1.238 . S
O557 Co551 2.052 . S
O557 C553 1.241 . S
O558 Co546 2.137 . S
O558 C549 1.247 . S
O559 Co546 2.244 . S
O559 C549 1.272 . S
O559 Co551 2.135 . S
Co560 O561 2.216 . S
Co560 O562 2.091 . S
Co560 O564 2.004 . S
Co560 O570 2.021 . S
Co560 O572 2.137 . S
Co560 O573 2.244 . S
O561 Co560 2.216 . S
O561 C568 1.247 . S
O562 Co560 2.091 . S
O562 C568 1.261 . S
C563 O572 1.247 . S
C563 O573 1.272 . S
O564 Co560 2.004 . S
O564 C569 1.259 . S
Co565 O566 2.061 . S
Co565 O571 2.052 . S
Co565 O573 2.135 . S
O566 Co565 2.061 . S
O566 C569 1.235 . S
C567 O570 1.238 . S
C567 O571 1.241 . S
C568 O561 1.247 . S
C568 O562 1.261 . S
C569 O564 1.259 . S
C569 O566 1.235 . S
O570 Co560 2.021 . S
O570 C567 1.238 . S
O571 Co565 2.052 . S
O571 C567 1.241 . S
O572 Co560 2.137 . S
O572 C563 1.247 . S
O573 Co560 2.244 . S
O573 C563 1.272 . S
O573 Co565 2.135 . S
Co574 O575 2.216 . S
Co574 O576 2.091 . S
Co574 O578 2.004 . S
Co574 O584 2.021 . S
Co574 O586 2.137 . S
Co574 O587 2.244 . S
O575 Co574 2.216 . S
O575 C582 1.247 . S
O576 Co574 2.091 . S
O576 C582 1.261 . S
C577 O586 1.247 . S
C577 O587 1.272 . S
O578 Co574 2.004 . S
O578 C583 1.259 . S
Co579 O580 2.061 . S
Co579 O585 2.052 . S
Co579 O587 2.135 . S
O580 Co579 2.061 . S
O580 C583 1.235 . S
C581 O584 1.238 . S
C581 O585 1.241 . S
C582 O575 1.247 . S
C582 O576 1.261 . S
C583 O578 1.259 . S
C583 O580 1.235 . S
O584 Co574 2.021 . S
O584 C581 1.238 . S
O585 Co579 2.052 . S
O585 C581 1.241 . S
O586 Co574 2.137 . S
O586 C577 1.247 . S
O587 Co574 2.244 . S
O587 C577 1.272 . S
O587 Co579 2.135 . S
Co588 O589 2.216 . S
Co588 O590 2.091 . S
Co588 O592 2.004 . S
Co588 O598 2.021 . S
Co588 O600 2.137 . S
Co588 O601 2.244 . S
O589 Co588 2.216 . S
O589 C596 1.247 . S
O590 Co588 2.091 . S
O590 C596 1.261 . S
C591 O600 1.247 . S
C591 O601 1.272 . S
O592 Co588 2.004 . S
O592 C597 1.259 . S
Co593 O594 2.061 . S
Co593 O599 2.052 . S
Co593 O601 2.135 . S
O594 Co593 2.061 . S
O594 C597 1.235 . S
C595 O598 1.238 . S
C595 O599 1.241 . S
C596 O589 1.247 . S
C596 O590 1.261 . S
C597 O592 1.259 . S
C597 O594 1.235 . S
O598 Co588 2.021 . S
O598 C595 1.238 . S
O599 Co593 2.052 . S
O599 C595 1.241 . S
O600 Co588 2.137 . S
O600 C591 1.247 . S
O601 Co588 2.244 . S
O601 C591 1.272 . S
O601 Co593 2.135 . S
Co602 O603 2.216 . S
Co602 O604 2.091 . S
Co602 O606 2.004 . S
Co602 O612 2.021 . S
Co602 O614 2.137 . S
Co602 O615 2.244 . S
O603 Co602 2.216 . S
O603 C610 1.247 . S
O604 Co602 2.091 . S
O604 C610 1.261 . S
C605 O614 1.247 . S
C605 O615 1.272 . S
O606 Co602 2.004 . S
O606 C611 1.259 . S
Co607 O608 2.061 . S
Co607 O613 2.052 . S
Co607 O615 2.135 . S
O608 Co607 2.061 . S
O608 C611 1.235 . S
C609 O612 1.238 . S
C609 O613 1.241 . S
C610 O603 1.247 . S
C610 O604 1.261 . S
C611 O606 1.259 . S
C611 O608 1.235 . S
O612 Co602 2.021 . S
O612 C609 1.238 . S
O613 Co607 2.052 . S
O613 C609 1.241 . S
O614 Co602 2.137 . S
O614 C605 1.247 . S
O615 Co602 2.244 . S
O615 C605 1.272 . S
O615 Co607 2.135 . S
Co616 O617 2.216 . S
Co616 O618 2.091 . S
Co616 O620 2.004 . S
Co616 O626 2.021 . S
Co616 O628 2.137 . S
Co616 O629 2.244 . S
O617 Co616 2.216 . S
O617 C624 1.247 . S
O618 Co616 2.091 . S
O618 C624 1.261 . S
C619 O628 1.247 . S
C619 O629 1.272 . S
O620 Co616 2.004 . S
O620 C625 1.259 . S
Co621 O622 2.061 . S
Co621 O627 2.052 . S
Co621 O629 2.135 . S
O622 Co621 2.061 . S
O622 C625 1.235 . S
C623 O626 1.238 . S
C623 O627 1.241 . S
C624 O617 1.247 . S
C624 O618 1.261 . S
C625 O620 1.259 . S
C625 O622 1.235 . S
O626 Co616 2.021 . S
O626 C623 1.238 . S
O627 Co621 2.052 . S
O627 C623 1.241 . S
O628 Co616 2.137 . S
O628 C619 1.247 . S
O629 Co616 2.244 . S
O629 C619 1.272 . S
O629 Co621 2.135 . S
Co630 O631 2.216 . S
Co630 O632 2.091 . S
Co630 O634 2.004 . S
Co630 O640 2.021 . S
Co630 O642 2.137 . S
Co630 O643 2.244 . S
O631 Co630 2.216 . S
O631 C638 1.247 . S
O632 Co630 2.091 . S
O632 C638 1.261 . S
C633 O642 1.247 . S
C633 O643 1.272 . S
O634 Co630 2.004 . S
O634 C639 1.259 . S
Co635 O636 2.061 . S
Co635 O641 2.052 . S
Co635 O643 2.135 . S
O636 Co635 2.061 . S
O636 C639 1.235 . S
C637 O640 1.238 . S
C637 O641 1.241 . S
C638 O631 1.247 . S
C638 O632 1.261 . S
C639 O634 1.259 . S
C639 O636 1.235 . S
O640 Co630 2.021 . S
O640 C637 1.238 . S
O641 Co635 2.052 . S
O641 C637 1.241 . S
O642 Co630 2.137 . S
O642 C633 1.247 . S
O643 Co630 2.244 . S
O643 C633 1.272 . S
O643 Co635 2.135 . S
Co644 O645 2.216 . S
Co644 O646 2.091 . S
Co644 O648 2.004 . S
Co644 O654 2.021 . S
Co644 O656 2.137 . S
Co644 O657 2.244 . S
O645 Co644 2.216 . S
O645 C652 1.247 . S
O646 Co644 2.091 . S
O646 C652 1.261 . S
C647 O656 1.247 . S
C647 O657 1.272 . S
O648 Co644 2.004 . S
O648 C653 1.259 . S
Co649 O650 2.061 . S
Co649 O655 2.052 . S
Co649 O657 2.135 . S
O650 Co649 2.061 . S
O650 C653 1.235 . S
C651 O654 1.238 . S
C651 O655 1.241 . S
C652 O645 1.247 . S
C652 O646 1.261 . S
C653 O648 1.259 . S
C653 O650 1.235 . S
O654 Co644 2.021 . S
O654 C651 1.238 . S
O655 Co649 2.052 . S
O655 C651 1.241 . S
O656 Co644 2.137 . S
O656 C647 1.247 . S
O657 Co644 2.244 . S
O657 C647 1.272 . S
O657 Co649 2.135 . S
Co658 O659 2.216 . S
Co658 O660 2.091 . S
Co658 O662 2.004 . S
Co658 O668 2.021 . S
Co658 O670 2.137 . S
Co658 O671 2.244 . S
O659 Co658 2.216 . S
O659 C666 1.247 . S
O660 Co658 2.091 . S
O660 C666 1.261 . S
C661 O670 1.247 . S
C661 O671 1.272 . S
O662 Co658 2.004 . S
O662 C667 1.259 . S
Co663 O664 2.061 . S
Co663 O669 2.052 . S
Co663 O671 2.135 . S
O664 Co663 2.061 . S
O664 C667 1.235 . S
C665 O668 1.238 . S
C665 O669 1.241 . S
C666 O659 1.247 . S
C666 O660 1.261 . S
C667 O662 1.259 . S
C667 O664 1.235 . S
O668 Co658 2.021 . S
O668 C665 1.238 . S
O669 Co663 2.052 . S
O669 C665 1.241 . S
O670 Co658 2.137 . S
O670 C661 1.247 . S
O671 Co658 2.244 . S
O671 C661 1.272 . S
O671 Co663 2.135 . S
C672 C673 1.387 . S
C672 H676 0.950 . S
C672 C681 1.390 . S
C673 C672 1.387 . S
C673 C675 1.387 . S
H674 C681 0.950 . S
C675 C673 1.387 . S
C675 C677 1.390 . S
C675 H679 0.950 . S
H676 C672 0.950 . S
C677 C675 1.390 . S
C677 C678 1.387 . S
C677 H680 0.950 . S
C678 C677 1.387 . S
C678 C681 1.387 . S
H679 C675 0.950 . S
H680 C677 0.950 . S
C681 C672 1.390 . S
C681 H674 0.950 . S
C681 C678 1.387 . S
C682 C683 1.387 . S
C682 H686 0.950 . S
C682 C691 1.390 . S
C683 C682 1.387 . S
C683 C685 1.387 . S
H684 C691 0.950 . S
C685 C683 1.387 . S
C685 C687 1.390 . S
C685 H689 0.950 . S
H686 C682 0.950 . S
C687 C685 1.390 . S
C687 C688 1.387 . S
C687 H690 0.950 . S
C688 C687 1.387 . S
C688 C691 1.387 . S
H689 C685 0.950 . S
H690 C687 0.950 . S
C691 C682 1.390 . S
C691 H684 0.950 . S
C691 C688 1.387 . S
C692 C693 1.387 . S
C692 H696 0.950 . S
C692 C701 1.390 . S
C693 C692 1.387 . S
C693 C695 1.387 . S
H694 C701 0.950 . S
C695 C693 1.387 . S
C695 C697 1.390 . S
C695 H699 0.950 . S
H696 C692 0.950 . S
C697 C695 1.390 . S
C697 C698 1.387 . S
C697 H700 0.950 . S
C698 C697 1.387 . S
C698 C701 1.387 . S
H699 C695 0.950 . S
H700 C697 0.950 . S
C701 C692 1.390 . S
C701 H694 0.950 . S
C701 C698 1.387 . S
C702 C703 1.387 . S
C702 H706 0.950 . S
C702 C711 1.390 . S
C703 C702 1.387 . S
C703 C705 1.387 . S
H704 C711 0.950 . S
C705 C703 1.387 . S
C705 C707 1.390 . S
C705 H709 0.950 . S
H706 C702 0.950 . S
C707 C705 1.390 . S
C707 C708 1.387 . S
C707 H710 0.950 . S
C708 C707 1.387 . S
C708 C711 1.387 . S
H709 C705 0.950 . S
H710 C707 0.950 . S
C711 C702 1.390 . S
C711 H704 0.950 . S
C711 C708 1.387 . S
C712 C713 1.387 . S
C712 H716 0.950 . S
C712 C721 1.390 . S
C713 C712 1.387 . S
C713 C715 1.387 . S
H714 C721 0.950 . S
C715 C713 1.387 . S
C715 C717 1.390 . S
C715 H719 0.950 . S
H716 C712 0.950 . S
C717 C715 1.390 . S
C717 C718 1.387 . S
C717 H720 0.950 . S
C718 C717 1.387 . S
C718 C721 1.387 . S
H719 C715 0.950 . S
H720 C717 0.950 . S
C721 C712 1.390 . S
C721 H714 0.950 . S
C721 C718 1.387 . S
C722 C723 1.387 . S
C722 H726 0.950 . S
C722 C731 1.390 . S
C723 C722 1.387 . S
C723 C725 1.387 . S
H724 C731 0.950 . S
C725 C723 1.387 . S
C725 C727 1.390 . S
C725 H729 0.950 . S
H726 C722 0.950 . S
C727 C725 1.390 . S
C727 C728 1.387 . S
C727 H730 0.950 . S
C728 C727 1.387 . S
C728 C731 1.387 . S
H729 C725 0.950 . S
H730 C727 0.950 . S
C731 C722 1.390 . S
C731 H724 0.950 . S
C731 C728 1.387 . S
C732 C733 1.387 . S
C732 H736 0.950 . S
C732 C741 1.390 . S
C733 C732 1.387 . S
C733 C735 1.387 . S
H734 C741 0.950 . S
C735 C733 1.387 . S
C735 C737 1.390 . S
C735 H739 0.950 . S
H736 C732 0.950 . S
C737 C735 1.390 . S
C737 C738 1.387 . S
C737 H740 0.950 . S
C738 C737 1.387 . S
C738 C741 1.387 . S
H739 C735 0.950 . S
H740 C737 0.950 . S
C741 C732 1.390 . S
C741 H734 0.950 . S
C741 C738 1.387 . S
C742 C743 1.387 . S
C742 H746 0.950 . S
C742 C751 1.390 . S
C743 C742 1.387 . S
C743 C745 1.387 . S
H744 C751 0.950 . S
C745 C743 1.387 . S
C745 C747 1.390 . S
C745 H749 0.950 . S
H746 C742 0.950 . S
C747 C745 1.390 . S
C747 C748 1.387 . S
C747 H750 0.950 . S
C748 C747 1.387 . S
C748 C751 1.387 . S
H749 C745 0.950 . S
H750 C747 0.950 . S
C751 C742 1.390 . S
C751 H744 0.950 . S
C751 C748 1.387 . S
C752 C753 1.387 . S
C752 H756 0.950 . S
C752 C761 1.390 . S
C753 C752 1.387 . S
C753 C755 1.387 . S
H754 C761 0.950 . S
C755 C753 1.387 . S
C755 C757 1.390 . S
C755 H759 0.950 . S
H756 C752 0.950 . S
C757 C755 1.390 . S
C757 C758 1.387 . S
C757 H760 0.950 . S
C758 C757 1.387 . S
C758 C761 1.387 . S
H759 C755 0.950 . S
H760 C757 0.950 . S
C761 C752 1.390 . S
C761 H754 0.950 . S
C761 C758 1.387 . S
C762 C763 1.387 . S
C762 H766 0.950 . S
C762 C771 1.390 . S
C763 C762 1.387 . S
C763 C765 1.387 . S
H764 C771 0.950 . S
C765 C763 1.387 . S
C765 C767 1.390 . S
C765 H769 0.950 . S
H766 C762 0.950 . S
C767 C765 1.390 . S
C767 C768 1.387 . S
C767 H770 0.950 . S
C768 C767 1.387 . S
C768 C771 1.387 . S
H769 C765 0.950 . S
H770 C767 0.950 . S
C771 C762 1.390 . S
C771 H764 0.950 . S
C771 C768 1.387 . S
C772 C773 1.387 . S
C772 H776 0.950 . S
C772 C781 1.390 . S
C773 C772 1.387 . S
C773 C775 1.387 . S
H774 C781 0.950 . S
C775 C773 1.387 . S
C775 C777 1.390 . S
C775 H779 0.950 . S
H776 C772 0.950 . S
C777 C775 1.390 . S
C777 C778 1.387 . S
C777 H780 0.950 . S
C778 C777 1.387 . S
C778 C781 1.387 . S
H779 C775 0.950 . S
H780 C777 0.950 . S
C781 C772 1.390 . S
C781 H774 0.950 . S
C781 C778 1.387 . S
C782 C783 1.387 . S
C782 H786 0.950 . S
C782 C791 1.390 . S
C783 C782 1.387 . S
C783 C785 1.387 . S
H784 C791 0.950 . S
C785 C783 1.387 . S
C785 C787 1.390 . S
C785 H789 0.950 . S
H786 C782 0.950 . S
C787 C785 1.390 . S
C787 C788 1.387 . S
C787 H790 0.950 . S
C788 C787 1.387 . S
C788 C791 1.387 . S
H789 C785 0.950 . S
H790 C787 0.950 . S
C791 C782 1.390 . S
C791 H784 0.950 . S
C791 C788 1.387 . S
C792 C793 1.387 . S
C792 H796 0.950 . S
C792 C801 1.390 . S
C793 C792 1.387 . S
C793 C795 1.387 . S
H794 C801 0.950 . S
C795 C793 1.387 . S
C795 C797 1.390 . S
C795 H799 0.950 . S
H796 C792 0.950 . S
C797 C795 1.390 . S
C797 C798 1.387 . S
C797 H800 0.950 . S
C798 C797 1.387 . S
C798 C801 1.387 . S
H799 C795 0.950 . S
H800 C797 0.950 . S
C801 C792 1.390 . S
C801 H794 0.950 . S
C801 C798 1.387 . S
C802 C803 1.387 . S
C802 H806 0.950 . S
C802 C811 1.390 . S
C803 C802 1.387 . S
C803 C805 1.387 . S
H804 C811 0.950 . S
C805 C803 1.387 . S
C805 C807 1.390 . S
C805 H809 0.950 . S
H806 C802 0.950 . S
C807 C805 1.390 . S
C807 C808 1.387 . S
C807 H810 0.950 . S
C808 C807 1.387 . S
C808 C811 1.387 . S
H809 C805 0.950 . S
H810 C807 0.950 . S
C811 C802 1.390 . S
C811 H804 0.950 . S
C811 C808 1.387 . S
C812 C813 1.387 . S
C812 H816 0.950 . S
C812 C821 1.390 . S
C813 C812 1.387 . S
C813 C815 1.387 . S
H814 C821 0.950 . S
C815 C813 1.387 . S
C815 C817 1.390 . S
C815 H819 0.950 . S
H816 C812 0.950 . S
C817 C815 1.390 . S
C817 C818 1.387 . S
C817 H820 0.950 . S
C818 C817 1.387 . S
C818 C821 1.387 . S
H819 C815 0.950 . S
H820 C817 0.950 . S
C821 C812 1.390 . S
C821 H814 0.950 . S
C821 C818 1.387 . S
C822 C823 1.387 . S
C822 H826 0.950 . S
C822 C831 1.390 . S
C823 C822 1.387 . S
C823 C825 1.387 . S
H824 C831 0.950 . S
C825 C823 1.387 . S
C825 C827 1.390 . S
C825 H829 0.950 . S
H826 C822 0.950 . S
C827 C825 1.390 . S
C827 C828 1.387 . S
C827 H830 0.950 . S
C828 C827 1.387 . S
C828 C831 1.387 . S
H829 C825 0.950 . S
H830 C827 0.950 . S
C831 C822 1.390 . S
C831 H824 0.950 . S
C831 C828 1.387 . S
C832 C833 1.387 . S
C832 H836 0.950 . S
C832 C841 1.390 . S
C833 C832 1.387 . S
C833 C835 1.387 . S
H834 C841 0.950 . S
C835 C833 1.387 . S
C835 C837 1.390 . S
C835 H839 0.950 . S
H836 C832 0.950 . S
C837 C835 1.390 . S
C837 C838 1.387 . S
C837 H840 0.950 . S
C838 C837 1.387 . S
C838 C841 1.387 . S
H839 C835 0.950 . S
H840 C837 0.950 . S
C841 C832 1.390 . S
C841 H834 0.950 . S
C841 C838 1.387 . S
C842 C843 1.387 . S
C842 H846 0.950 . S
C842 C851 1.390 . S
C843 C842 1.387 . S
C843 C845 1.387 . S
H844 C851 0.950 . S
C845 C843 1.387 . S
C845 C847 1.390 . S
C845 H849 0.950 . S
H846 C842 0.950 . S
C847 C845 1.390 . S
C847 C848 1.387 . S
C847 H850 0.950 . S
C848 C847 1.387 . S
C848 C851 1.387 . S
H849 C845 0.950 . S
H850 C847 0.950 . S
C851 C842 1.390 . S
C851 H844 0.950 . S
C851 C848 1.387 . S
C852 C853 1.387 . S
C852 H856 0.950 . S
C852 C861 1.390 . S
C853 C852 1.387 . S
C853 C855 1.387 . S
H854 C861 0.950 . S
C855 C853 1.387 . S
C855 C857 1.390 . S
C855 H859 0.950 . S
H856 C852 0.950 . S
C857 C855 1.390 . S
C857 C858 1.387 . S
C857 H860 0.950 . S
C858 C857 1.387 . S
C858 C861 1.387 . S
H859 C855 0.950 . S
H860 C857 0.950 . S
C861 C852 1.390 . S
C861 H854 0.950 . S
C861 C858 1.387 . S
C862 C863 1.387 . S
C862 H866 0.950 . S
C862 C871 1.390 . S
C863 C862 1.387 . S
C863 C865 1.387 . S
H864 C871 0.950 . S
C865 C863 1.387 . S
C865 C867 1.390 . S
C865 H869 0.950 . S
H866 C862 0.950 . S
C867 C865 1.390 . S
C867 C868 1.387 . S
C867 H870 0.950 . S
C868 C867 1.387 . S
C868 C871 1.387 . S
H869 C865 0.950 . S
H870 C867 0.950 . S
C871 C862 1.390 . S
C871 H864 0.950 . S
C871 C868 1.387 . S
C872 C873 1.387 . S
C872 H876 0.950 . S
C872 C881 1.390 . S
C873 C872 1.387 . S
C873 C875 1.387 . S
H874 C881 0.950 . S
C875 C873 1.387 . S
C875 C877 1.390 . S
C875 H879 0.950 . S
H876 C872 0.950 . S
C877 C875 1.390 . S
C877 C878 1.387 . S
C877 H880 0.950 . S
C878 C877 1.387 . S
C878 C881 1.387 . S
H879 C875 0.950 . S
H880 C877 0.950 . S
C881 C872 1.390 . S
C881 H874 0.950 . S
C881 C878 1.387 . S
C882 C883 1.387 . S
C882 H886 0.950 . S
C882 C891 1.390 . S
C883 C882 1.387 . S
C883 C885 1.387 . S
H884 C891 0.950 . S
C885 C883 1.387 . S
C885 C887 1.390 . S
C885 H889 0.950 . S
H886 C882 0.950 . S
C887 C885 1.390 . S
C887 C888 1.387 . S
C887 H890 0.950 . S
C888 C887 1.387 . S
C888 C891 1.387 . S
H889 C885 0.950 . S
H890 C887 0.950 . S
C891 C882 1.390 . S
C891 H884 0.950 . S
C891 C888 1.387 . S
C892 C893 1.387 . S
C892 H896 0.950 . S
C892 C901 1.390 . S
C893 C892 1.387 . S
C893 C895 1.387 . S
H894 C901 0.950 . S
C895 C893 1.387 . S
C895 C897 1.390 . S
C895 H899 0.950 . S
H896 C892 0.950 . S
C897 C895 1.390 . S
C897 C898 1.387 . S
C897 H900 0.950 . S
C898 C897 1.387 . S
C898 C901 1.387 . S
H899 C895 0.950 . S
H900 C897 0.950 . S
C901 C892 1.390 . S
C901 H894 0.950 . S
C901 C898 1.387 . S
C902 C903 1.387 . S
C902 H906 0.950 . S
C902 C911 1.390 . S
C903 C902 1.387 . S
C903 C905 1.387 . S
H904 C911 0.950 . S
C905 C903 1.387 . S
C905 C907 1.390 . S
C905 H909 0.950 . S
H906 C902 0.950 . S
C907 C905 1.390 . S
C907 C908 1.387 . S
C907 H910 0.950 . S
C908 C907 1.387 . S
C908 C911 1.387 . S
H909 C905 0.950 . S
H910 C907 0.950 . S
C911 C902 1.390 . S
C911 H904 0.950 . S
C911 C908 1.387 . S
C912 C913 1.387 1_455 S
C912 H916 0.950 . S
C912 C921 1.390 . S
C913 C912 1.387 1_655 S
C913 C915 1.387 . S
H914 C921 0.950 . S
C915 C913 1.387 . S
C915 C917 1.390 . S
C915 H919 0.950 . S
H916 C912 0.950 . S
C917 C915 1.390 . S
C917 C918 1.387 1_655 S
C917 H920 0.950 . S
C918 C917 1.387 1_455 S
C918 C921 1.387 . S
H919 C915 0.950 . S
H920 C917 0.950 . S
C921 C912 1.390 . S
C921 H914 0.950 . S
C921 C918 1.387 . S
C922 C923 1.387 . S
C922 H926 0.950 . S
C922 C931 1.390 1_565 S
C923 C922 1.387 . S
C923 C925 1.387 . S
H924 C931 0.950 . S
C925 C923 1.387 . S
C925 C927 1.390 1_565 S
C925 H929 0.950 . S
H926 C922 0.950 . S
C927 C925 1.390 1_545 S
C927 C928 1.387 . S
C927 H930 0.950 . S
C928 C927 1.387 . S
C928 C931 1.387 . S
H929 C925 0.950 . S
H930 C927 0.950 . S
C931 C922 1.390 1_545 S
C931 H924 0.950 . S
C931 C928 1.387 . S
C932 C933 1.387 . S
C932 H936 0.950 . S
C932 C941 1.390 . S
C933 C932 1.387 . S
C933 C935 1.387 1_655 S
H934 C941 0.950 . S
C935 C933 1.387 1_455 S
C935 C937 1.390 . S
C935 H939 0.950 . S
H936 C932 0.950 . S
C937 C935 1.390 . S
C937 C938 1.387 . S
C937 H940 0.950 . S
C938 C937 1.387 . S
C938 C941 1.387 1_455 S
H939 C935 0.950 . S
H940 C937 0.950 . S
C941 C932 1.390 . S
C941 H934 0.950 . S
C941 C938 1.387 1_655 S
C942 C943 1.387 . S
C942 H946 0.950 . S
C942 C951 1.390 . S
C943 C942 1.387 . S
C943 C945 1.387 1_545 S
H944 C951 0.950 . S
C945 C943 1.387 1_565 S
C945 C947 1.390 . S
C945 H949 0.950 . S
H946 C942 0.950 . S
C947 C945 1.390 . S
C947 C948 1.387 . S
C947 H950 0.950 . S
C948 C947 1.387 . S
C948 C951 1.387 1_565 S
H949 C945 0.950 . S
H950 C947 0.950 . S
C951 C942 1.390 . S
C951 H944 0.950 . S
C951 C948 1.387 1_545 S
C952 C953 1.387 . S
C952 H956 0.950 . S
C952 C961 1.390 1_455 S
C953 C952 1.387 . S
C953 C955 1.387 . S
H954 C961 0.950 . S
C955 C953 1.387 . S
C955 C957 1.390 1_455 S
C955 H959 0.950 . S
H956 C952 0.950 . S
C957 C955 1.390 1_655 S
C957 C958 1.387 . S
C957 H960 0.950 . S
C958 C957 1.387 . S
C958 C961 1.387 . S
H959 C955 0.950 . S
H960 C957 0.950 . S
C961 C952 1.390 1_655 S
C961 H954 0.950 . S
C961 C958 1.387 . S
C962 C963 1.387 1_545 S
C962 H966 0.950 . S
C962 C971 1.390 . S
C963 C962 1.387 1_565 S
C963 C965 1.387 . S
H964 C971 0.950 . S
C965 C963 1.387 . S
C965 C967 1.390 . S
C965 H969 0.950 . S
H966 C962 0.950 . S
C967 C965 1.390 . S
C967 C968 1.387 1_565 S
C967 H970 0.950 . S
C968 C967 1.387 1_545 S
C968 C971 1.387 . S
H969 C965 0.950 . S
H970 C967 0.950 . S
C971 C962 1.390 . S
C971 H964 0.950 . S
C971 C968 1.387 . S
C972 C973 1.387 . S
C972 H976 0.950 . S
C972 C981 1.390 . S
C973 C972 1.387 . S
C973 C975 1.387 1_455 S
H974 C981 0.950 . S
C975 C973 1.387 1_655 S
C975 C977 1.390 . S
C975 H979 0.950 . S
H976 C972 0.950 . S
C977 C975 1.390 . S
C977 C978 1.387 . S
C977 H980 0.950 . S
C978 C977 1.387 . S
C978 C981 1.387 1_655 S
H979 C975 0.950 . S
H980 C977 0.950 . S
C981 C972 1.390 . S
C981 H974 0.950 . S
C981 C978 1.387 1_455 S
C982 C983 1.387 1_565 S
C982 H986 0.950 . S
C982 C991 1.390 . S
C983 C982 1.387 1_545 S
C983 C985 1.387 . S
H984 C991 0.950 . S
C985 C983 1.387 . S
C985 C987 1.390 . S
C985 H989 0.950 . S
H986 C982 0.950 . S
C987 C985 1.390 . S
C987 C988 1.387 1_545 S
C987 H990 0.950 . S
C988 C987 1.387 1_565 S
C988 C991 1.387 . S
H989 C985 0.950 . S
H990 C987 0.950 . S
C991 C982 1.390 . S
C991 H984 0.950 . S
C991 C988 1.387 . S
C992 C993 1.387 . S
C992 H996 0.950 . S
C992 C1001 1.390 . S
C993 C992 1.387 . S
C993 C995 1.387 1_556 S
H994 C1001 0.950 . S
C995 C993 1.387 1_554 S
C995 C997 1.390 . S
C995 H999 0.950 . S
H996 C992 0.950 . S
C997 C995 1.390 . S
C997 C998 1.387 . S
C997 H1000 0.950 . S
C998 C997 1.387 . S
C998 C1001 1.387 1_554 S
H999 C995 0.950 . S
H1000 C997 0.950 . S
C1001 C992 1.390 . S
C1001 H994 0.950 . S
C1001 C998 1.387 1_556 S
C1002 C1003 1.387 1_556 S
C1002 H1006 0.950 . S
C1002 C1011 1.390 . S
C1003 C1002 1.387 1_554 S
C1003 C1005 1.387 . S
H1004 C1011 0.950 . S
C1005 C1003 1.387 . S
C1005 C1007 1.390 . S
C1005 H1009 0.950 . S
H1006 C1002 0.950 . S
C1007 C1005 1.390 . S
C1007 C1008 1.387 1_554 S
C1007 H1010 0.950 . S
C1008 C1007 1.387 1_556 S
C1008 C1011 1.387 . S
H1009 C1005 0.950 . S
H1010 C1007 0.950 . S
C1011 C1002 1.390 . S
C1011 H1004 0.950 . S
C1011 C1008 1.387 . S
C1012 C1013 1.387 1_556 S
C1012 H1016 0.950 . S
C1012 C1021 1.390 . S
C1013 C1012 1.387 1_554 S
C1013 C1015 1.387 . S
H1014 C1021 0.950 . S
C1015 C1013 1.387 . S
C1015 C1017 1.390 . S
C1015 H1019 0.950 . S
H1016 C1012 0.950 . S
C1017 C1015 1.390 . S
C1017 C1018 1.387 1_554 S
C1017 H1020 0.950 . S
C1018 C1017 1.387 1_556 S
C1018 C1021 1.387 . S
H1019 C1015 0.950 . S
H1020 C1017 0.950 . S
C1021 C1012 1.390 . S
C1021 H1014 0.950 . S
C1021 C1018 1.387 . S
C1022 C1023 1.387 . S
C1022 H1026 0.950 . S
C1022 C1031 1.390 . S
C1023 C1022 1.387 . S
C1023 C1025 1.387 1_556 S
H1024 C1031 0.950 . S
C1025 C1023 1.387 1_554 S
C1025 C1027 1.390 . S
C1025 H1029 0.950 . S
H1026 C1022 0.950 . S
C1027 C1025 1.390 . S
C1027 C1028 1.387 . S
C1027 H1030 0.950 . S
C1028 C1027 1.387 . S
C1028 C1031 1.387 1_554 S
H1029 C1025 0.950 . S
H1030 C1027 0.950 . S
C1031 C1022 1.390 . S
C1031 H1024 0.950 . S
C1031 C1028 1.387 1_556 S
C1032 C1033 1.387 . S
C1032 H1036 0.950 . S
C1032 C1041 1.390 . S
C1033 C1032 1.387 . S
C1033 C1035 1.387 . S
H1034 C1041 0.950 . S
C1035 C1033 1.387 . S
C1035 C1037 1.390 . S
C1035 H1039 0.950 . S
H1036 C1032 0.950 . S
C1037 C1035 1.390 . S
C1037 C1038 1.387 . S
C1037 H1040 0.950 . S
C1038 C1037 1.387 . S
C1038 C1041 1.387 . S
H1039 C1035 0.950 . S
H1040 C1037 0.950 . S
C1041 C1032 1.390 . S
C1041 H1034 0.950 . S
C1041 C1038 1.387 . S
C1042 C1043 1.387 . S
C1042 H1046 0.950 . S
C1042 C1051 1.390 . S
C1043 C1042 1.387 . S
C1043 C1045 1.387 . S
H1044 C1051 0.950 . S
C1045 C1043 1.387 . S
C1045 C1047 1.390 . S
C1045 H1049 0.950 . S
H1046 C1042 0.950 . S
C1047 C1045 1.390 . S
C1047 C1048 1.387 . S
C1047 H1050 0.950 . S
C1048 C1047 1.387 . S
C1048 C1051 1.387 . S
H1049 C1045 0.950 . S
H1050 C1047 0.950 . S
C1051 C1042 1.390 . S
C1051 H1044 0.950 . S
C1051 C1048 1.387 . S
C1052 C1053 1.387 . S
C1052 H1056 0.950 . S
C1052 C1061 1.390 . S
C1053 C1052 1.387 . S
C1053 C1055 1.387 . S
H1054 C1061 0.950 . S
C1055 C1053 1.387 . S
C1055 C1057 1.390 . S
C1055 H1059 0.950 . S
H1056 C1052 0.950 . S
C1057 C1055 1.390 . S
C1057 C1058 1.387 . S
C1057 H1060 0.950 . S
C1058 C1057 1.387 . S
C1058 C1061 1.387 . S
H1059 C1055 0.950 . S
H1060 C1057 0.950 . S
C1061 C1052 1.390 . S
C1061 H1054 0.950 . S
C1061 C1058 1.387 . S
C1062 C1063 1.387 . S
C1062 H1066 0.950 . S
C1062 C1071 1.390 . S
C1063 C1062 1.387 . S
C1063 C1065 1.387 . S
H1064 C1071 0.950 . S
C1065 C1063 1.387 . S
C1065 C1067 1.390 . S
C1065 H1069 0.950 . S
H1066 C1062 0.950 . S
C1067 C1065 1.390 . S
C1067 C1068 1.387 . S
C1067 H1070 0.950 . S
C1068 C1067 1.387 . S
C1068 C1071 1.387 . S
H1069 C1065 0.950 . S
H1070 C1067 0.950 . S
C1071 C1062 1.390 . S
C1071 H1064 0.950 . S
C1071 C1068 1.387 . S
C1072 C1073 1.387 . S
C1072 H1076 0.950 . S
C1072 C1081 1.390 . S
C1073 C1072 1.387 . S
C1073 C1075 1.387 . S
H1074 C1081 0.950 . S
C1075 C1073 1.387 . S
C1075 C1077 1.390 . S
C1075 H1079 0.950 . S
H1076 C1072 0.950 . S
C1077 C1075 1.390 . S
C1077 C1078 1.387 . S
C1077 H1080 0.950 . S
C1078 C1077 1.387 . S
C1078 C1081 1.387 . S
H1079 C1075 0.950 . S
H1080 C1077 0.950 . S
C1081 C1072 1.390 . S
C1081 H1074 0.950 . S
C1081 C1078 1.387 . S
C1082 C1083 1.387 . S
C1082 H1086 0.950 . S
C1082 C1091 1.390 . S
C1083 C1082 1.387 . S
C1083 C1085 1.387 . S
H1084 C1091 0.950 . S
C1085 C1083 1.387 . S
C1085 C1087 1.390 . S
C1085 H1089 0.950 . S
H1086 C1082 0.950 . S
C1087 C1085 1.390 . S
C1087 C1088 1.387 . S
C1087 H1090 0.950 . S
C1088 C1087 1.387 . S
C1088 C1091 1.387 . S
H1089 C1085 0.950 . S
H1090 C1087 0.950 . S
C1091 C1082 1.390 . S
C1091 H1084 0.950 . S
C1091 C1088 1.387 . S
C1092 C1093 1.387 . S
C1092 H1096 0.950 . S
C1092 C1101 1.390 . S
C1093 C1092 1.387 . S
C1093 C1095 1.387 . S
H1094 C1101 0.950 . S
C1095 C1093 1.387 . S
C1095 C1097 1.390 . S
C1095 H1099 0.950 . S
H1096 C1092 0.950 . S
C1097 C1095 1.390 . S
C1097 C1098 1.387 . S
C1097 H1100 0.950 . S
C1098 C1097 1.387 . S
C1098 C1101 1.387 . S
H1099 C1095 0.950 . S
H1100 C1097 0.950 . S
C1101 C1092 1.390 . S
C1101 H1094 0.950 . S
C1101 C1098 1.387 . S
C1102 C1103 1.387 . S
C1102 H1106 0.950 . S
C1102 C1111 1.390 . S
C1103 C1102 1.387 . S
C1103 C1105 1.387 . S
H1104 C1111 0.950 . S
C1105 C1103 1.387 . S
C1105 C1107 1.390 . S
C1105 H1109 0.950 . S
H1106 C1102 0.950 . S
C1107 C1105 1.390 . S
C1107 C1108 1.387 . S
C1107 H1110 0.950 . S
C1108 C1107 1.387 . S
C1108 C1111 1.387 . S
H1109 C1105 0.950 . S
H1110 C1107 0.950 . S
C1111 C1102 1.390 . S
C1111 H1104 0.950 . S
C1111 C1108 1.387 . S
C1112 C1113 1.387 . S
C1112 H1116 0.950 . S
C1112 C1121 1.390 . S
C1113 C1112 1.387 . S
C1113 C1115 1.387 . S
H1114 C1121 0.950 . S
C1115 C1113 1.387 . S
C1115 C1117 1.390 . S
C1115 H1119 0.950 . S
H1116 C1112 0.950 . S
C1117 C1115 1.390 . S
C1117 C1118 1.387 . S
C1117 H1120 0.950 . S
C1118 C1117 1.387 . S
C1118 C1121 1.387 . S
H1119 C1115 0.950 . S
H1120 C1117 0.950 . S
C1121 C1112 1.390 . S
C1121 H1114 0.950 . S
C1121 C1118 1.387 . S
C1122 C1123 1.387 . S
C1122 H1126 0.950 . S
C1122 C1131 1.390 . S
C1123 C1122 1.387 . S
C1123 C1125 1.387 . S
H1124 C1131 0.950 . S
C1125 C1123 1.387 . S
C1125 C1127 1.390 . S
C1125 H1129 0.950 . S
H1126 C1122 0.950 . S
C1127 C1125 1.390 . S
C1127 C1128 1.387 . S
C1127 H1130 0.950 . S
C1128 C1127 1.387 . S
C1128 C1131 1.387 . S
H1129 C1125 0.950 . S
H1130 C1127 0.950 . S
C1131 C1122 1.390 . S
C1131 H1124 0.950 . S
C1131 C1128 1.387 . S
C1132 C1133 1.387 . S
C1132 H1136 0.950 . S
C1132 C1141 1.390 . S
C1133 C1132 1.387 . S
C1133 C1135 1.387 . S
H1134 C1141 0.950 . S
C1135 C1133 1.387 . S
C1135 C1137 1.390 . S
C1135 H1139 0.950 . S
H1136 C1132 0.950 . S
C1137 C1135 1.390 . S
C1137 C1138 1.387 . S
C1137 H1140 0.950 . S
C1138 C1137 1.387 . S
C1138 C1141 1.387 . S
H1139 C1135 0.950 . S
H1140 C1137 0.950 . S
C1141 C1132 1.390 . S
C1141 H1134 0.950 . S
C1141 C1138 1.387 . S
C1142 C1143 1.387 . S
C1142 H1146 0.950 . S
C1142 C1151 1.390 . S
C1143 C1142 1.387 . S
C1143 C1145 1.387 . S
H1144 C1151 0.950 . S
C1145 C1143 1.387 . S
C1145 C1147 1.390 . S
C1145 H1149 0.950 . S
H1146 C1142 0.950 . S
C1147 C1145 1.390 . S
C1147 C1148 1.387 . S
C1147 H1150 0.950 . S
C1148 C1147 1.387 . S
C1148 C1151 1.387 . S
H1149 C1145 0.950 . S
H1150 C1147 0.950 . S
C1151 C1142 1.390 . S
C1151 H1144 0.950 . S
C1151 C1148 1.387 . S
C1152 C1153 1.387 . S
C1152 H1156 0.950 . S
C1152 C1161 1.390 . S
C1153 C1152 1.387 . S
C1153 C1155 1.387 . S
H1154 C1161 0.950 . S
C1155 C1153 1.387 . S
C1155 C1157 1.390 . S
C1155 H1159 0.950 . S
H1156 C1152 0.950 . S
C1157 C1155 1.390 . S
C1157 C1158 1.387 . S
C1157 H1160 0.950 . S
C1158 C1157 1.387 . S
C1158 C1161 1.387 . S
H1159 C1155 0.950 . S
H1160 C1157 0.950 . S
C1161 C1152 1.390 . S
C1161 H1154 0.950 . S
C1161 C1158 1.387 . S
C1162 C1163 1.387 . S
C1162 H1166 0.950 . S
C1162 C1171 1.390 . S
C1163 C1162 1.387 . S
C1163 C1165 1.387 . S
H1164 C1171 0.950 . S
C1165 C1163 1.387 . S
C1165 C1167 1.390 . S
C1165 H1169 0.950 . S
H1166 C1162 0.950 . S
C1167 C1165 1.390 . S
C1167 C1168 1.387 . S
C1167 H1170 0.950 . S
C1168 C1167 1.387 . S
C1168 C1171 1.387 . S
H1169 C1165 0.950 . S
H1170 C1167 0.950 . S
C1171 C1162 1.390 . S
C1171 H1164 0.950 . S
C1171 C1168 1.387 . S
C1172 C1173 1.387 . S
C1172 H1176 0.950 . S
C1172 C1181 1.390 . S
C1173 C1172 1.387 . S
C1173 C1175 1.387 . S
H1174 C1181 0.950 . S
C1175 C1173 1.387 . S
C1175 C1177 1.390 . S
C1175 H1179 0.950 . S
H1176 C1172 0.950 . S
C1177 C1175 1.390 . S
C1177 C1178 1.387 . S
C1177 H1180 0.950 . S
C1178 C1177 1.387 . S
C1178 C1181 1.387 . S
H1179 C1175 0.950 . S
H1180 C1177 0.950 . S
C1181 C1172 1.390 . S
C1181 H1174 0.950 . S
C1181 C1178 1.387 . S
C1182 C1183 1.387 . S
C1182 H1186 0.950 . S
C1182 C1191 1.390 . S
C1183 C1182 1.387 . S
C1183 C1185 1.387 . S
H1184 C1191 0.950 . S
C1185 C1183 1.387 . S
C1185 C1187 1.390 . S
C1185 H1189 0.950 . S
H1186 C1182 0.950 . S
C1187 C1185 1.390 . S
C1187 C1188 1.387 . S
C1187 H1190 0.950 . S
C1188 C1187 1.387 . S
C1188 C1191 1.387 . S
H1189 C1185 0.950 . S
H1190 C1187 0.950 . S
C1191 C1182 1.390 . S
C1191 H1184 0.950 . S
C1191 C1188 1.387 . S
C1192 C1193 1.387 . S
C1192 H1196 0.950 . S
C1192 C1201 1.390 . S
C1193 C1192 1.387 . S
C1193 C1195 1.387 . S
H1194 C1201 0.950 . S
C1195 C1193 1.387 . S
C1195 C1197 1.390 . S
C1195 H1199 0.950 . S
H1196 C1192 0.950 . S
C1197 C1195 1.390 . S
C1197 C1198 1.387 . S
C1197 H1200 0.950 . S
C1198 C1197 1.387 . S
C1198 C1201 1.387 . S
H1199 C1195 0.950 . S
H1200 C1197 0.950 . S
C1201 C1192 1.390 . S
C1201 H1194 0.950 . S
C1201 C1198 1.387 . S
C1202 C1203 1.387 . S
C1202 H1206 0.950 . S
C1202 C1211 1.390 . S
C1203 C1202 1.387 . S
C1203 C1205 1.387 . S
H1204 C1211 0.950 . S
C1205 C1203 1.387 . S
C1205 C1207 1.390 . S
C1205 H1209 0.950 . S
H1206 C1202 0.950 . S
C1207 C1205 1.390 . S
C1207 C1208 1.387 . S
C1207 H1210 0.950 . S
C1208 C1207 1.387 . S
C1208 C1211 1.387 . S
H1209 C1205 0.950 . S
H1210 C1207 0.950 . S
C1211 C1202 1.390 . S
C1211 H1204 0.950 . S
C1211 C1208 1.387 . S
C1212 C1213 1.387 . S
C1212 H1216 0.950 . S
C1212 C1221 1.390 . S
C1213 C1212 1.387 . S
C1213 C1215 1.387 . S
H1214 C1221 0.950 . S
C1215 C1213 1.387 . S
C1215 C1217 1.390 . S
C1215 H1219 0.950 . S
H1216 C1212 0.950 . S
C1217 C1215 1.390 . S
C1217 C1218 1.387 . S
C1217 H1220 0.950 . S
C1218 C1217 1.387 . S
C1218 C1221 1.387 . S
H1219 C1215 0.950 . S
H1220 C1217 0.950 . S
C1221 C1212 1.390 . S
C1221 H1214 0.950 . S
C1221 C1218 1.387 . S
C1222 C1223 1.387 . S
C1222 H1226 0.950 . S
C1222 C1231 1.390 . S
C1223 C1222 1.387 . S
C1223 C1225 1.387 . S
H1224 C1231 0.950 . S
C1225 C1223 1.387 . S
C1225 C1227 1.390 . S
C1225 H1229 0.950 . S
H1226 C1222 0.950 . S
C1227 C1225 1.390 . S
C1227 C1228 1.387 . S
C1227 H1230 0.950 . S
C1228 C1227 1.387 . S
C1228 C1231 1.387 . S
H1229 C1225 0.950 . S
H1230 C1227 0.950 . S
C1231 C1222 1.390 . S
C1231 H1224 0.950 . S
C1231 C1228 1.387 . S
C1232 C1233 1.387 . S
C1232 H1236 0.950 . S
C1232 C1241 1.390 . S
C1233 C1232 1.387 . S
C1233 C1235 1.387 . S
H1234 C1241 0.950 . S
C1235 C1233 1.387 . S
C1235 C1237 1.390 . S
C1235 H1239 0.950 . S
H1236 C1232 0.950 . S
C1237 C1235 1.390 . S
C1237 C1238 1.387 . S
C1237 H1240 0.950 . S
C1238 C1237 1.387 . S
C1238 C1241 1.387 . S
H1239 C1235 0.950 . S
H1240 C1237 0.950 . S
C1241 C1232 1.390 . S
C1241 H1234 0.950 . S
C1241 C1238 1.387 . S
C1242 C1243 1.387 . S
C1242 H1246 0.950 . S
C1242 C1251 1.390 . S
C1243 C1242 1.387 . S
C1243 C1245 1.387 . S
H1244 C1251 0.950 . S
C1245 C1243 1.387 . S
C1245 C1247 1.390 . S
C1245 H1249 0.950 . S
H1246 C1242 0.950 . S
C1247 C1245 1.390 . S
C1247 C1248 1.387 . S
C1247 H1250 0.950 . S
C1248 C1247 1.387 . S
C1248 C1251 1.387 . S
H1249 C1245 0.950 . S
H1250 C1247 0.950 . S
C1251 C1242 1.390 . S
C1251 H1244 0.950 . S
C1251 C1248 1.387 . S
C1252 C1253 1.387 . S
C1252 H1256 0.950 . S
C1252 C1261 1.390 . S
C1253 C1252 1.387 . S
C1253 C1255 1.387 . S
H1254 C1261 0.950 . S
C1255 C1253 1.387 . S
C1255 C1257 1.390 . S
C1255 H1259 0.950 . S
H1256 C1252 0.950 . S
C1257 C1255 1.390 . S
C1257 C1258 1.387 . S
C1257 H1260 0.950 . S
C1258 C1257 1.387 . S
C1258 C1261 1.387 . S
H1259 C1255 0.950 . S
H1260 C1257 0.950 . S
C1261 C1252 1.390 . S
C1261 H1254 0.950 . S
C1261 C1258 1.387 . S
C1262 C1263 1.387 . S
C1262 H1266 0.950 . S
C1262 C1271 1.390 . S
C1263 C1262 1.387 . S
C1263 C1265 1.387 . S
H1264 C1271 0.950 . S
C1265 C1263 1.387 . S
C1265 C1267 1.390 . S
C1265 H1269 0.950 . S
H1266 C1262 0.950 . S
C1267 C1265 1.390 . S
C1267 C1268 1.387 . S
C1267 H1270 0.950 . S
C1268 C1267 1.387 . S
C1268 C1271 1.387 . S
H1269 C1265 0.950 . S
H1270 C1267 0.950 . S
C1271 C1262 1.390 . S
C1271 H1264 0.950 . S
C1271 C1268 1.387 . S
C1272 C1273 1.387 . S
C1272 H1276 0.950 . S
C1272 C1281 1.390 . S
C1273 C1272 1.387 . S
C1273 C1275 1.387 . S
H1274 C1281 0.950 . S
C1275 C1273 1.387 . S
C1275 C1277 1.390 . S
C1275 H1279 0.950 . S
H1276 C1272 0.950 . S
C1277 C1275 1.390 . S
C1277 C1278 1.387 . S
C1277 H1280 0.950 . S
C1278 C1277 1.387 . S
C1278 C1281 1.387 . S
H1279 C1275 0.950 . S
H1280 C1277 0.950 . S
C1281 C1272 1.390 . S
C1281 H1274 0.950 . S
C1281 C1278 1.387 . S
C1282 C1283 1.387 . S
C1282 H1286 0.950 . S
C1282 C1291 1.390 . S
C1283 C1282 1.387 . S
C1283 C1285 1.387 . S
H1284 C1291 0.950 . S
C1285 C1283 1.387 . S
C1285 C1287 1.390 . S
C1285 H1289 0.950 . S
H1286 C1282 0.950 . S
C1287 C1285 1.390 . S
C1287 C1288 1.387 . S
C1287 H1290 0.950 . S
C1288 C1287 1.387 . S
C1288 C1291 1.387 . S
H1289 C1285 0.950 . S
H1290 C1287 0.950 . S
C1291 C1282 1.390 . S
C1291 H1284 0.950 . S
C1291 C1288 1.387 . S
C1292 C1293 1.387 . S
C1292 H1296 0.950 . S
C1292 C1301 1.390 . S
C1293 C1292 1.387 . S
C1293 C1295 1.387 . S
H1294 C1301 0.950 . S
C1295 C1293 1.387 . S
C1295 C1297 1.390 . S
C1295 H1299 0.950 . S
H1296 C1292 0.950 . S
C1297 C1295 1.390 . S
C1297 C1298 1.387 . S
C1297 H1300 0.950 . S
C1298 C1297 1.387 . S
C1298 C1301 1.387 . S
H1299 C1295 0.950 . S
H1300 C1297 0.950 . S
C1301 C1292 1.390 . S
C1301 H1294 0.950 . S
C1301 C1298 1.387 . S
C1302 C1303 1.387 . S
C1302 H1306 0.950 . S
C1302 C1311 1.390 . S
C1303 C1302 1.387 . S
C1303 C1305 1.387 . S
H1304 C1311 0.950 . S
C1305 C1303 1.387 . S
C1305 C1307 1.390 . S
C1305 H1309 0.950 . S
H1306 C1302 0.950 . S
C1307 C1305 1.390 . S
C1307 C1308 1.387 . S
C1307 H1310 0.950 . S
C1308 C1307 1.387 . S
C1308 C1311 1.387 . S
H1309 C1305 0.950 . S
H1310 C1307 0.950 . S
C1311 C1302 1.390 . S
C1311 H1304 0.950 . S
C1311 C1308 1.387 . S
C1312 C1313 1.387 . S
C1312 H1316 0.950 . S
C1312 C1321 1.390 . S
C1313 C1312 1.387 . S
C1313 C1315 1.387 . S
H1314 C1321 0.950 . S
C1315 C1313 1.387 . S
C1315 C1317 1.390 . S
C1315 H1319 0.950 . S
H1316 C1312 0.950 . S
C1317 C1315 1.390 . S
C1317 C1318 1.387 . S
C1317 H1320 0.950 . S
C1318 C1317 1.387 . S
C1318 C1321 1.387 . S
H1319 C1315 0.950 . S
H1320 C1317 0.950 . S
C1321 C1312 1.390 . S
C1321 H1314 0.950 . S
C1321 C1318 1.387 . S
C1322 C1323 1.387 . S
C1322 H1326 0.950 . S
C1322 C1331 1.390 . S
C1323 C1322 1.387 . S
C1323 C1325 1.387 . S
H1324 C1331 0.950 . S
C1325 C1323 1.387 . S
C1325 C1327 1.390 . S
C1325 H1329 0.950 . S
H1326 C1322 0.950 . S
C1327 C1325 1.390 . S
C1327 C1328 1.387 . S
C1327 H1330 0.950 . S
C1328 C1327 1.387 . S
C1328 C1331 1.387 . S
H1329 C1325 0.950 . S
H1330 C1327 0.950 . S
C1331 C1322 1.390 . S
C1331 H1324 0.950 . S
C1331 C1328 1.387 . S
C1332 C1333 1.387 . S
C1332 H1336 0.950 . S
C1332 C1341 1.390 . S
C1333 C1332 1.387 . S
C1333 C1335 1.387 . S
H1334 C1341 0.950 . S
C1335 C1333 1.387 . S
C1335 C1337 1.390 . S
C1335 H1339 0.950 . S
H1336 C1332 0.950 . S
C1337 C1335 1.390 . S
C1337 C1338 1.387 . S
C1337 H1340 0.950 . S
C1338 C1337 1.387 . S
C1338 C1341 1.387 . S
H1339 C1335 0.950 . S
H1340 C1337 0.950 . S
C1341 C1332 1.390 . S
C1341 H1334 0.950 . S
C1341 C1338 1.387 . S
C1342 C1343 1.387 . S
C1342 H1346 0.950 . S
C1342 C1351 1.390 . S
C1343 C1342 1.387 . S
C1343 C1345 1.387 . S
H1344 C1351 0.950 . S
C1345 C1343 1.387 . S
C1345 C1347 1.390 . S
C1345 H1349 0.950 . S
H1346 C1342 0.950 . S
C1347 C1345 1.390 . S
C1347 C1348 1.387 . S
C1347 H1350 0.950 . S
C1348 C1347 1.387 . S
C1348 C1351 1.387 . S
H1349 C1345 0.950 . S
H1350 C1347 0.950 . S
C1351 C1342 1.390 . S
C1351 H1344 0.950 . S
C1351 C1348 1.387 . S
C1352 C1353 1.387 . S
C1352 H1356 0.950 . S
C1352 C1361 1.390 . S
C1353 C1352 1.387 . S
C1353 C1355 1.387 . S
H1354 C1361 0.950 . S
C1355 C1353 1.387 . S
C1355 C1357 1.390 . S
C1355 H1359 0.950 . S
H1356 C1352 0.950 . S
C1357 C1355 1.390 . S
C1357 C1358 1.387 . S
C1357 H1360 0.950 . S
C1358 C1357 1.387 . S
C1358 C1361 1.387 . S
H1359 C1355 0.950 . S
H1360 C1357 0.950 . S
C1361 C1352 1.390 . S
C1361 H1354 0.950 . S
C1361 C1358 1.387 . S
C1362 C1363 1.387 . S
C1362 H1366 0.950 . S
C1362 C1371 1.390 . S
C1363 C1362 1.387 . S
C1363 C1365 1.387 . S
H1364 C1371 0.950 . S
C1365 C1363 1.387 . S
C1365 C1367 1.390 . S
C1365 H1369 0.950 . S
H1366 C1362 0.950 . S
C1367 C1365 1.390 . S
C1367 C1368 1.387 . S
C1367 H1370 0.950 . S
C1368 C1367 1.387 . S
C1368 C1371 1.387 . S
H1369 C1365 0.950 . S
H1370 C1367 0.950 . S
C1371 C1362 1.390 . S
C1371 H1364 0.950 . S
C1371 C1368 1.387 . S
C1372 C1373 1.387 . S
C1372 H1376 0.950 . S
C1372 C1381 1.390 . S
C1373 C1372 1.387 . S
C1373 C1375 1.387 . S
H1374 C1381 0.950 . S
C1375 C1373 1.387 . S
C1375 C1377 1.390 . S
C1375 H1379 0.950 . S
H1376 C1372 0.950 . S
C1377 C1375 1.390 . S
C1377 C1378 1.387 . S
C1377 H1380 0.950 . S
C1378 C1377 1.387 . S
C1378 C1381 1.387 . S
H1379 C1375 0.950 . S
H1380 C1377 0.950 . S
C1381 C1372 1.390 . S
C1381 H1374 0.950 . S
C1381 C1378 1.387 . S
C1382 C1383 1.387 . S
C1382 H1386 0.950 . S
C1382 C1391 1.390 . S
C1383 C1382 1.387 . S
C1383 C1385 1.387 . S
H1384 C1391 0.950 . S
C1385 C1383 1.387 . S
C1385 C1387 1.390 . S
C1385 H1389 0.950 . S
H1386 C1382 0.950 . S
C1387 C1385 1.390 . S
C1387 C1388 1.387 . S
C1387 H1390 0.950 . S
C1388 C1387 1.387 . S
C1388 C1391 1.387 . S
H1389 C1385 0.950 . S
H1390 C1387 0.950 . S
C1391 C1382 1.390 . S
C1391 H1384 0.950 . S
C1391 C1388 1.387 . S
C1392 C1393 1.387 . S
C1392 H1396 0.950 . S
C1392 C1401 1.390 . S
C1393 C1392 1.387 . S
C1393 C1395 1.387 . S
H1394 C1401 0.950 . S
C1395 C1393 1.387 . S
C1395 C1397 1.390 . S
C1395 H1399 0.950 . S
H1396 C1392 0.950 . S
C1397 C1395 1.390 . S
C1397 C1398 1.387 . S
C1397 H1400 0.950 . S
C1398 C1397 1.387 . S
C1398 C1401 1.387 . S
H1399 C1395 0.950 . S
H1400 C1397 0.950 . S
C1401 C1392 1.390 . S
C1401 H1394 0.950 . S
C1401 C1398 1.387 . S
C1402 C1403 1.387 . S
C1402 H1406 0.950 . S
C1402 C1411 1.390 . S
C1403 C1402 1.387 . S
C1403 C1405 1.387 . S
H1404 C1411 0.950 . S
C1405 C1403 1.387 . S
C1405 C1407 1.390 . S
C1405 H1409 0.950 . S
H1406 C1402 0.950 . S
C1407 C1405 1.390 . S
C1407 C1408 1.387 . S
C1407 H1410 0.950 . S
C1408 C1407 1.387 . S
C1408 C1411 1.387 . S
H1409 C1405 0.950 . S
H1410 C1407 0.950 . S
C1411 C1402 1.390 . S
C1411 H1404 0.950 . S
C1411 C1408 1.387 . S
C1412 C1413 1.387 . S
C1412 H1416 0.950 . S
C1412 C1421 1.390 . S
C1413 C1412 1.387 . S
C1413 C1415 1.387 . S
H1414 C1421 0.950 . S
C1415 C1413 1.387 . S
C1415 C1417 1.390 . S
C1415 H1419 0.950 . S
H1416 C1412 0.950 . S
C1417 C1415 1.390 . S
C1417 C1418 1.387 . S
C1417 H1420 0.950 . S
C1418 C1417 1.387 . S
C1418 C1421 1.387 . S
H1419 C1415 0.950 . S
H1420 C1417 0.950 . S
C1421 C1412 1.390 . S
C1421 H1414 0.950 . S
C1421 C1418 1.387 . S
C1422 C1423 1.387 . S
C1422 H1426 0.950 . S
C1422 C1431 1.390 . S
C1423 C1422 1.387 . S
C1423 C1425 1.387 . S
H1424 C1431 0.950 . S
C1425 C1423 1.387 . S
C1425 C1427 1.390 . S
C1425 H1429 0.950 . S
H1426 C1422 0.950 . S
C1427 C1425 1.390 . S
C1427 C1428 1.387 . S
C1427 H1430 0.950 . S
C1428 C1427 1.387 . S
C1428 C1431 1.387 . S
H1429 C1425 0.950 . S
H1430 C1427 0.950 . S
C1431 C1422 1.390 . S
C1431 H1424 0.950 . S
C1431 C1428 1.387 . S
C1432 C1433 1.387 . S
C1432 H1436 0.950 . S
C1432 C1441 1.390 . S
C1433 C1432 1.387 . S
C1433 C1435 1.387 . S
H1434 C1441 0.950 . S
C1435 C1433 1.387 . S
C1435 C1437 1.390 . S
C1435 H1439 0.950 . S
H1436 C1432 0.950 . S
C1437 C1435 1.390 . S
C1437 C1438 1.387 . S
C1437 H1440 0.950 . S
C1438 C1437 1.387 . S
C1438 C1441 1.387 . S
H1439 C1435 0.950 . S
H1440 C1437 0.950 . S
C1441 C1432 1.390 . S
C1441 H1434 0.950 . S
C1441 C1438 1.387 . S
C1442 C1443 1.387 . S
C1442 H1446 0.950 . S
C1442 C1451 1.390 . S
C1443 C1442 1.387 . S
C1443 C1445 1.387 . S
H1444 C1451 0.950 . S
C1445 C1443 1.387 . S
C1445 C1447 1.390 . S
C1445 H1449 0.950 . S
H1446 C1442 0.950 . S
C1447 C1445 1.390 . S
C1447 C1448 1.387 . S
C1447 H1450 0.950 . S
C1448 C1447 1.387 . S
C1448 C1451 1.387 . S
H1449 C1445 0.950 . S
H1450 C1447 0.950 . S
C1451 C1442 1.390 . S
C1451 H1444 0.950 . S
C1451 C1448 1.387 . S
C1452 C1453 1.387 . S
C1452 H1456 0.950 . S
C1452 C1461 1.390 . S
C1453 C1452 1.387 . S
C1453 C1455 1.387 . S
H1454 C1461 0.950 . S
C1455 C1453 1.387 . S
C1455 C1457 1.390 . S
C1455 H1459 0.950 . S
H1456 C1452 0.950 . S
C1457 C1455 1.390 . S
C1457 C1458 1.387 . S
C1457 H1460 0.950 . S
C1458 C1457 1.387 . S
C1458 C1461 1.387 . S
H1459 C1455 0.950 . S
H1460 C1457 0.950 . S
C1461 C1452 1.390 . S
C1461 H1454 0.950 . S
C1461 C1458 1.387 . S
C1462 C1463 1.387 . S
C1462 H1466 0.950 . S
C1462 C1471 1.390 . S
C1463 C1462 1.387 . S
C1463 C1465 1.387 . S
H1464 C1471 0.950 . S
C1465 C1463 1.387 . S
C1465 C1467 1.390 . S
C1465 H1469 0.950 . S
H1466 C1462 0.950 . S
C1467 C1465 1.390 . S
C1467 C1468 1.387 . S
C1467 H1470 0.950 . S
C1468 C1467 1.387 . S
C1468 C1471 1.387 . S
H1469 C1465 0.950 . S
H1470 C1467 0.950 . S
C1471 C1462 1.390 . S
C1471 H1464 0.950 . S
C1471 C1468 1.387 . S
C1472 C1473 1.387 . S
C1472 H1476 0.950 . S
C1472 C1481 1.390 . S
C1473 C1472 1.387 . S
C1473 C1475 1.387 . S
H1474 C1481 0.950 . S
C1475 C1473 1.387 . S
C1475 C1477 1.390 . S
C1475 H1479 0.950 . S
H1476 C1472 0.950 . S
C1477 C1475 1.390 . S
C1477 C1478 1.387 . S
C1477 H1480 0.950 . S
C1478 C1477 1.387 . S
C1478 C1481 1.387 . S
H1479 C1475 0.950 . S
H1480 C1477 0.950 . S
C1481 C1472 1.390 . S
C1481 H1474 0.950 . S
C1481 C1478 1.387 . S
C1482 C1483 1.387 . S
C1482 H1486 0.950 . S
C1482 C1491 1.390 . S
C1483 C1482 1.387 . S
C1483 C1485 1.387 . S
H1484 C1491 0.950 . S
C1485 C1483 1.387 . S
C1485 C1487 1.390 . S
C1485 H1489 0.950 . S
H1486 C1482 0.950 . S
C1487 C1485 1.390 . S
C1487 C1488 1.387 . S
C1487 H1490 0.950 . S
C1488 C1487 1.387 . S
C1488 C1491 1.387 . S
H1489 C1485 0.950 . S
H1490 C1487 0.950 . S
C1491 C1482 1.390 . S
C1491 H1484 0.950 . S
C1491 C1488 1.387 . S
C1492 C1493 1.387 . S
C1492 H1496 0.950 . S
C1492 C1501 1.390 . S
C1493 C1492 1.387 . S
C1493 C1495 1.387 . S
H1494 C1501 0.950 . S
C1495 C1493 1.387 . S
C1495 C1497 1.390 . S
C1495 H1499 0.950 . S
H1496 C1492 0.950 . S
C1497 C1495 1.390 . S
C1497 C1498 1.387 . S
C1497 H1500 0.950 . S
C1498 C1497 1.387 . S
C1498 C1501 1.387 . S
H1499 C1495 0.950 . S
H1500 C1497 0.950 . S
C1501 C1492 1.390 . S
C1501 H1494 0.950 . S
C1501 C1498 1.387 . S
C1502 C1503 1.387 . S
C1502 H1506 0.950 . S
C1502 C1511 1.390 . S
C1503 C1502 1.387 . S
C1503 C1505 1.387 . S
H1504 C1511 0.950 . S
C1505 C1503 1.387 . S
C1505 C1507 1.390 . S
C1505 H1509 0.950 . S
H1506 C1502 0.950 . S
C1507 C1505 1.390 . S
C1507 C1508 1.387 . S
C1507 H1510 0.950 . S
C1508 C1507 1.387 . S
C1508 C1511 1.387 . S
H1509 C1505 0.950 . S
H1510 C1507 0.950 . S
C1511 C1502 1.390 . S
C1511 H1504 0.950 . S
C1511 C1508 1.387 . S
C1512 C1513 1.387 . S
C1512 H1516 0.950 . S
C1512 C1521 1.390 . S
C1513 C1512 1.387 . S
C1513 C1515 1.387 . S
H1514 C1521 0.950 . S
C1515 C1513 1.387 . S
C1515 C1517 1.390 . S
C1515 H1519 0.950 . S
H1516 C1512 0.950 . S
C1517 C1515 1.390 . S
C1517 C1518 1.387 . S
C1517 H1520 0.950 . S
C1518 C1517 1.387 . S
C1518 C1521 1.387 . S
H1519 C1515 0.950 . S
H1520 C1517 0.950 . S
C1521 C1512 1.390 . S
C1521 H1514 0.950 . S
C1521 C1518 1.387 . S
C1522 C1523 1.387 . S
C1522 H1526 0.950 . S
C1522 C1531 1.390 . S
C1523 C1522 1.387 . S
C1523 C1525 1.387 . S
H1524 C1531 0.950 . S
C1525 C1523 1.387 . S
C1525 C1527 1.390 . S
C1525 H1529 0.950 . S
H1526 C1522 0.950 . S
C1527 C1525 1.390 . S
C1527 C1528 1.387 . S
C1527 H1530 0.950 . S
C1528 C1527 1.387 . S
C1528 C1531 1.387 . S
H1529 C1525 0.950 . S
H1530 C1527 0.950 . S
C1531 C1522 1.390 . S
C1531 H1524 0.950 . S
C1531 C1528 1.387 . S
C1532 C1533 1.387 . S
C1532 H1536 0.950 . S
C1532 C1541 1.390 . S
C1533 C1532 1.387 . S
C1533 C1535 1.387 . S
H1534 C1541 0.950 . S
C1535 C1533 1.387 . S
C1535 C1537 1.390 . S
C1535 H1539 0.950 . S
H1536 C1532 0.950 . S
C1537 C1535 1.390 . S
C1537 C1538 1.387 . S
C1537 H1540 0.950 . S
C1538 C1537 1.387 . S
C1538 C1541 1.387 . S
H1539 C1535 0.950 . S
H1540 C1537 0.950 . S
C1541 C1532 1.390 . S
C1541 H1534 0.950 . S
C1541 C1538 1.387 . S
C1542 C1543 1.387 . S
C1542 H1546 0.950 . S
C1542 C1551 1.390 . S
C1543 C1542 1.387 . S
C1543 C1545 1.387 . S
H1544 C1551 0.950 . S
C1545 C1543 1.387 . S
C1545 C1547 1.390 . S
C1545 H1549 0.950 . S
H1546 C1542 0.950 . S
C1547 C1545 1.390 . S
C1547 C1548 1.387 . S
C1547 H1550 0.950 . S
C1548 C1547 1.387 . S
C1548 C1551 1.387 . S
H1549 C1545 0.950 . S
H1550 C1547 0.950 . S
C1551 C1542 1.390 . S
C1551 H1544 0.950 . S
C1551 C1548 1.387 . S
C1552 C1553 1.387 . S
C1552 H1556 0.950 . S
C1552 C1561 1.390 . S
C1553 C1552 1.387 . S
C1553 C1555 1.387 . S
H1554 C1561 0.950 . S
C1555 C1553 1.387 . S
C1555 C1557 1.390 . S
C1555 H1559 0.950 . S
H1556 C1552 0.950 . S
C1557 C1555 1.390 . S
C1557 C1558 1.387 . S
C1557 H1560 0.950 . S
C1558 C1557 1.387 . S
C1558 C1561 1.387 . S
H1559 C1555 0.950 . S
H1560 C1557 0.950 . S
C1561 C1552 1.390 . S
C1561 H1554 0.950 . S
C1561 C1558 1.387 . S
C1562 C1563 1.387 . S
C1562 H1566 0.950 . S
C1562 C1571 1.390 . S
C1563 C1562 1.387 . S
C1563 C1565 1.387 . S
H1564 C1571 0.950 . S
C1565 C1563 1.387 . S
C1565 C1567 1.390 . S
C1565 H1569 0.950 . S
H1566 C1562 0.950 . S
C1567 C1565 1.390 . S
C1567 C1568 1.387 . S
C1567 H1570 0.950 . S
C1568 C1567 1.387 . S
C1568 C1571 1.387 . S
H1569 C1565 0.950 . S
H1570 C1567 0.950 . S
C1571 C1562 1.390 . S
C1571 H1564 0.950 . S
C1571 C1568 1.387 . S
C1572 C1573 1.387 . S
C1572 H1576 0.950 . S
C1572 C1581 1.390 . S
C1573 C1572 1.387 . S
C1573 C1575 1.387 . S
H1574 C1581 0.950 . S
C1575 C1573 1.387 . S
C1575 C1577 1.390 . S
C1575 H1579 0.950 . S
H1576 C1572 0.950 . S
C1577 C1575 1.390 . S
C1577 C1578 1.387 . S
C1577 H1580 0.950 . S
C1578 C1577 1.387 . S
C1578 C1581 1.387 . S
H1579 C1575 0.950 . S
H1580 C1577 0.950 . S
C1581 C1572 1.390 . S
C1581 H1574 0.950 . S
C1581 C1578 1.387 . S
C1582 C1583 1.387 . S
C1582 H1586 0.950 . S
C1582 C1591 1.390 . S
C1583 C1582 1.387 . S
C1583 C1585 1.387 . S
H1584 C1591 0.950 . S
C1585 C1583 1.387 . S
C1585 C1587 1.390 . S
C1585 H1589 0.950 . S
H1586 C1582 0.950 . S
C1587 C1585 1.390 . S
C1587 C1588 1.387 . S
C1587 H1590 0.950 . S
C1588 C1587 1.387 . S
C1588 C1591 1.387 . S
H1589 C1585 0.950 . S
H1590 C1587 0.950 . S
C1591 C1582 1.390 . S
C1591 H1584 0.950 . S
C1591 C1588 1.387 . S
C1592 C1593 1.387 . S
C1592 H1596 0.950 . S
C1592 C1601 1.390 . S
C1593 C1592 1.387 . S
C1593 C1595 1.387 . S
H1594 C1601 0.950 . S
C1595 C1593 1.387 . S
C1595 C1597 1.390 . S
C1595 H1599 0.950 . S
H1596 C1592 0.950 . S
C1597 C1595 1.390 . S
C1597 C1598 1.387 . S
C1597 H1600 0.950 . S
C1598 C1597 1.387 . S
C1598 C1601 1.387 . S
H1599 C1595 0.950 . S
H1600 C1597 0.950 . S
C1601 C1592 1.390 . S
C1601 H1594 0.950 . S
C1601 C1598 1.387 . S
C1602 C1603 1.387 . S
C1602 H1606 0.950 . S
C1602 C1611 1.390 . S
C1603 C1602 1.387 . S
C1603 C1605 1.387 . S
H1604 C1611 0.950 . S
C1605 C1603 1.387 . S
C1605 C1607 1.390 . S
C1605 H1609 0.950 . S
H1606 C1602 0.950 . S
C1607 C1605 1.390 . S
C1607 C1608 1.387 . S
C1607 H1610 0.950 . S
C1608 C1607 1.387 . S
C1608 C1611 1.387 . S
H1609 C1605 0.950 . S
H1610 C1607 0.950 . S
C1611 C1602 1.390 . S
C1611 H1604 0.950 . S
C1611 C1608 1.387 . S
C1612 C1613 1.387 . S
C1612 H1616 0.950 . S
C1612 C1621 1.390 . S
C1613 C1612 1.387 . S
C1613 C1615 1.387 . S
H1614 C1621 0.950 . S
C1615 C1613 1.387 . S
C1615 C1617 1.390 . S
C1615 H1619 0.950 . S
H1616 C1612 0.950 . S
C1617 C1615 1.390 . S
C1617 C1618 1.387 . S
C1617 H1620 0.950 . S
C1618 C1617 1.387 . S
C1618 C1621 1.387 . S
H1619 C1615 0.950 . S
H1620 C1617 0.950 . S
C1621 C1612 1.390 . S
C1621 H1614 0.950 . S
C1621 C1618 1.387 . S
C1622 C1623 1.387 . S
C1622 H1626 0.950 . S
C1622 C1631 1.390 . S
C1623 C1622 1.387 . S
C1623 C1625 1.387 . S
H1624 C1631 0.950 . S
C1625 C1623 1.387 . S
C1625 C1627 1.390 . S
C1625 H1629 0.950 . S
H1626 C1622 0.950 . S
C1627 C1625 1.390 . S
C1627 C1628 1.387 . S
C1627 H1630 0.950 . S
C1628 C1627 1.387 . S
C1628 C1631 1.387 . S
H1629 C1625 0.950 . S
H1630 C1627 0.950 . S
C1631 C1622 1.390 . S
C1631 H1624 0.950 . S
C1631 C1628 1.387 . S
C673 C442 1.420 . S
C678 C8 1.420 . S
C683 C22 1.420 . S
C688 C400 1.420 . S
C693 C36 1.420 . S
C698 C414 1.420 . S
C703 C428 1.420 . S
C708 C50 1.420 . S
C713 C358 1.420 . S
C718 C64 1.420 . S
C723 C78 1.420 . S
C728 C372 1.420 . S
C733 C386 1.420 . S
C738 C92 1.420 . S
C743 C106 1.420 . S
C748 C344 1.420 . S
C753 C120 1.420 . S
C758 C624 1.420 . S
C763 C582 1.420 . S
C768 C134 1.420 . S
C773 C596 1.420 . S
C778 C148 1.420 . S
C783 C162 1.420 . S
C788 C610 1.420 . S
C793 C176 1.420 . S
C798 C666 1.420 . S
C803 C190 1.420 . S
C808 C638 1.420 . S
C813 C204 1.420 . S
C818 C652 1.420 . S
C823 C568 1.420 . S
C828 C218 1.420 . S
C833 C554 1.420 . S
C838 C232 1.420 . S
C843 C246 1.420 . S
C848 C470 1.420 . S
C853 C484 1.420 . S
C858 C260 1.420 . S
C863 C274 1.420 . S
C868 C498 1.420 . S
C873 C456 1.420 . S
C878 C288 1.420 . S
C883 C526 1.420 . S
C888 C302 1.420 . S
C893 C316 1.420 . S
C898 C540 1.420 . S
C903 C512 1.420 . S
C908 C330 1.420 . S
C913 C133 1.365 . S
C918 C7 1.364 . S
C923 C147 1.365 . S
C928 C21 1.365 . S
C933 C35 1.364 . S
C938 C161 1.365 . S
C943 C119 1.364 . S
C948 C49 1.366 . S
C953 C63 1.365 . S
C958 C217 1.365 . S
C963 C175 1.366 . S
C968 C77 1.364 . S
C973 C189 1.364 . S
C978 C91 1.366 . S
C983 C203 1.366 . S
C988 C105 1.364 . S
C993 C259 1.364 . S
C998 C231 1.366 . S
C1003 C315 1.366 . S
C1008 C245 1.364 . S
C1013 C329 1.366 . S
C1018 C273 1.365 . S
C1023 C287 1.364 . S
C1028 C301 1.366 . S
C1033 C469 1.365 . S
C1038 C343 1.364 . S
C1043 C483 1.366 . S
C1048 C357 1.364 . S
C1053 C497 1.366 . S
C1058 C371 1.365 . S
C1063 C385 1.366 . S
C1068 C455 1.364 . S
C1073 C399 1.366 . S
C1078 C553 1.365 . S
C1083 C413 1.365 . S
C1088 C511 1.364 . S
C1093 C525 1.365 . S
C1098 C427 1.366 . S
C1103 C539 1.364 . S
C1108 C441 1.366 . S
C1113 C567 1.364 . S
C1118 C595 1.366 . S
C1123 C651 1.364 . S
C1128 C581 1.366 . S
C1133 C665 1.364 . S
C1138 C609 1.366 . S
C1143 C637 1.364 . S
C1148 C623 1.366 . S
C1153 C3 1.454 . S
C1158 C261 1.424 . S
C1163 C17 1.454 . S
C1168 C275 1.425 . S
C1173 C31 1.454 . S
C1178 C289 1.423 . S
C1183 C247 1.424 . S
C1188 C45 1.454 . S
C1193 C59 1.454 . S
C1198 C317 1.424 . S
C1203 C73 1.454 . S
C1208 C233 1.423 . S
C1213 C331 1.423 . S
C1218 C87 1.454 . S
C1223 C303 1.425 . S
C1228 C101 1.455 . S
C1233 C115 1.454 . S
C1238 C135 1.423 . S
C1243 C129 1.454 . S
C1248 C149 1.422 . S
C1253 C143 1.454 . S
C1258 C163 1.422 . S
C1263 C121 1.425 . S
C1268 C157 1.454 . S
C1273 C219 1.424 . S
C1278 C171 1.454 . S
C1283 C177 1.424 . S
C1288 C185 1.454 . S
C1293 C191 1.423 . S
C1298 C199 1.454 . S
C1303 C213 1.454 . S
C1308 C205 1.423 . S
C1313 C51 1.423 . S
C1318 C227 1.454 . S
C1323 C79 1.425 . S
C1328 C241 1.455 . S
C1333 C93 1.424 . S
C1338 C255 1.454 . S
C1343 C269 1.454 . S
C1348 C107 1.425 . S
C1353 C65 1.424 . S
C1358 C283 1.454 . S
C1363 C23 1.422 . S
C1368 C297 1.454 . S
C1373 C37 1.423 . S
C1378 C311 1.454 . S
C1383 C9 1.424 . S
C1388 C325 1.454 . S
C1393 C597 1.424 . S
C1398 C339 1.454 . S
C1403 C353 1.453 . S
C1408 C611 1.423 . S
C1413 C625 1.423 . S
C1418 C367 1.454 . S
C1423 C583 1.425 . S
C1428 C381 1.454 . S
C1433 C395 1.454 . S
C1438 C653 1.424 . S
C1443 C409 1.454 . S
C1448 C569 1.422 . S
C1453 C667 1.423 . S
C1458 C423 1.454 . S
C1463 C437 1.454 . S
C1468 C639 1.422 . S
C1473 C451 1.454 . S
C1478 C471 1.423 . S
C1483 C465 1.454 . S
C1488 C485 1.423 . S
C1493 C479 1.454 . S
C1498 C499 1.422 . S
C1503 C493 1.454 . S
C1508 C457 1.424 . S
C1513 C555 1.423 . S
C1518 C507 1.453 . S
C1523 C513 1.424 . S
C1528 C521 1.454 . S
C1533 C527 1.423 . S
C1538 C535 1.455 . S
C1543 C549 1.453 . S
C1548 C541 1.423 . S
C1553 C387 1.423 . S
C1558 C563 1.454 . S
C1563 C415 1.424 . S
C1568 C577 1.454 . S
C1573 C429 1.423 . S
C1578 C591 1.454 . S
C1583 C605 1.454 . S
C1588 C443 1.424 . S
C1593 C401 1.423 . S
C1598 C619 1.454 . S
C1603 C359 1.423 . S
C1608 C633 1.454 . S
C1613 C647 1.454 . S
C1618 C373 1.424 . S
C1623 C345 1.424 . S
C1628 C661 1.454 . S
