# Generated by pormake.
# Topology ske, (6)-cn, num edge types: 1
# Building blocks:
#     Node 0, Type 0, BuildingBlock: BETFAJ_clean_sbu_0, # of connection points: 6
#     Node 1, Type 0, BuildingBlock: BETFAJ_clean_sbu_0, # of connection points: 6
#     Node 2, Type 0, BuildingBlock: BETFAJ_clean_sbu_0, # of connection points: 6
#     Node 3, Type 0, BuildingBlock: BETFAJ_clean_sbu_0, # of connection points: 6
#     Node 4, Type 0, BuildingBlock: BETFAJ_clean_sbu_0, # of connection points: 6
#     Node 5, Type 0, BuildingBlock: BETFAJ_clean_sbu_0, # of connection points: 6
#     Node 6, Type 0, BuildingBlock: BETFAJ_clean_sbu_0, # of connection points: 6
#     Node 7, Type 0, BuildingBlock: BETFAJ_clean_sbu_0, # of connection points: 6
#     Edge 8, Type (0, 0), BuildingBlock: CIFDUS_clean_linker_0, # of connection points: 2
#     Edge 9, Type (0, 0), BuildingBlock: CIFDUS_clean_linker_0, # of connection points: 2
#     Edge 10, Type (0, 0), BuildingBlock: CIFDUS_clean_linker_0, # of connection points: 2
#     Edge 11, Type (0, 0), BuildingBlock: CIFDUS_clean_linker_0, # of connection points: 2
#     Edge 12, Type (0, 0), BuildingBlock: CIFDUS_clean_linker_0, # of connection points: 2
#     Edge 13, Type (0, 0), BuildingBlock: CIFDUS_clean_linker_0, # of connection points: 2
#     Edge 14, Type (0, 0), BuildingBlock: CIFDUS_clean_linker_0, # of connection points: 2
#     Edge 15, Type (0, 0), BuildingBlock: CIFDUS_clean_linker_0, # of connection points: 2
#     Edge 16, Type (0, 0), BuildingBlock: CIFDUS_clean_linker_0, # of connection points: 2
#     Edge 17, Type (0, 0), BuildingBlock: CIFDUS_clean_linker_0, # of connection points: 2
#     Edge 18, Type (0, 0), BuildingBlock: CIFDUS_clean_linker_0, # of connection points: 2
#     Edge 19, Type (0, 0), BuildingBlock: CIFDUS_clean_linker_0, # of connection points: 2
#     Edge 20, Type (0, 0), BuildingBlock: CIFDUS_clean_linker_0, # of connection points: 2
#     Edge 21, Type (0, 0), BuildingBlock: CIFDUS_clean_linker_0, # of connection points: 2
#     Edge 22, Type (0, 0), BuildingBlock: CIFDUS_clean_linker_0, # of connection points: 2
#     Edge 23, Type (0, 0), BuildingBlock: CIFDUS_clean_linker_0, # of connection points: 2
#     Edge 24, Type (0, 0), BuildingBlock: CIFDUS_clean_linker_0, # of connection points: 2
#     Edge 25, Type (0, 0), BuildingBlock: CIFDUS_clean_linker_0, # of connection points: 2
#     Edge 26, Type (0, 0), BuildingBlock: CIFDUS_clean_linker_0, # of connection points: 2
#     Edge 27, Type (0, 0), BuildingBlock: CIFDUS_clean_linker_0, # of connection points: 2
#     Edge 28, Type (0, 0), BuildingBlock: CIFDUS_clean_linker_0, # of connection points: 2
#     Edge 29, Type (0, 0), BuildingBlock: CIFDUS_clean_linker_0, # of connection points: 2
#     Edge 30, Type (0, 0), BuildingBlock: CIFDUS_clean_linker_0, # of connection points: 2
#     Edge 31, Type (0, 0), BuildingBlock: CIFDUS_clean_linker_0, # of connection points: 2
# Relax obj value: 0.206
# Max RMSD: 0.210
# Mean RMSD: 0.203
data_MOF--net-ske--node1-BETFAJ_clean_sbu_0--edge1-CIFDUS_clean_linker_0
_symmetry_space_group_name_H-M    P1
_symmetry_Int_Tables_number       1
_symmetry_cell_setting            triclinic
loop_
_symmetry_equiv_pos_as_xyz
'x, y, z'
_cell_length_a     96.49194
_cell_length_b     25.493526
_cell_length_c     13.720049
_cell_angle_alpha  90.256228
_cell_angle_beta   89.912714
_cell_angle_gamma 84.517787
loop_
_atom_site_label
_atom_site_type_symbol
_atom_site_fract_x
_atom_site_fract_y
_atom_site_fract_z
_atom_type_partial_charge
Sm0 Sm 0.1566 0.26017 0.54211 0.0
Sm1 Sm 0.12422 0.259 0.56066 0.0
C2 C 0.18276 0.28518 0.54458 0.0
C3 C 0.19683 0.27591 0.58791 0.0
C4 C 0.20465 0.31898 0.60172 0.0
C5 C 0.21848 0.31148 0.63359 0.0
C6 C 0.22485 0.26055 0.65252 0.0
C7 C 0.21683 0.21747 0.64101 0.0
C8 C 0.20297 0.22505 0.60896 0.0
C9 C 0.14781 0.16071 0.55114 0.0
C10 C 0.14219 0.26242 0.75983 0.0
C11 C 0.09778 0.23685 0.56234 0.0
C12 C 0.08295 0.24693 0.53193 0.0
C13 C 0.07752 0.21483 0.46061 0.0
C14 C 0.06315 0.21734 0.44353 0.0
C15 C 0.05377 0.25177 0.49777 0.0
C16 C 0.05926 0.28544 0.56634 0.0
C17 C 0.07365 0.28291 0.58346 0.0
C18 C 0.13347 0.35815 0.54532 0.0
C19 C 0.13875 0.25329 0.34317 0.0
O20 O 0.17282 0.30972 0.59732 0.0
O21 O 0.17841 0.24832 0.48884 0.0
O22 O 0.14245 0.20033 0.59787 0.0
O23 O 0.15923 0.17112 0.50855 0.0
O24 O 0.15248 0.27702 0.70569 0.0
O25 O 0.13106 0.2447 0.71992 0.0
O26 O 0.10704 0.21598 0.50003 0.0
O27 O 0.10291 0.26913 0.6241 0.0
O28 O 0.13838 0.31722 0.5014 0.0
O29 O 0.12218 0.34923 0.59121 0.0
O30 O 0.12846 0.23901 0.39801 0.0
O31 O 0.14981 0.27211 0.38228 0.0
H32 H 0.20017 0.35854 0.58524 0.0
H33 H 0.2243 0.34557 0.6402 0.0
H34 H 0.22129 0.17776 0.65627 0.0
H35 H 0.19716 0.19111 0.59909 0.0
H36 H 0.08434 0.18621 0.42038 0.0
H37 H 0.05937 0.19136 0.38908 0.0
H38 H 0.0524 0.31206 0.61033 0.0
H39 H 0.0774 0.30768 0.64005 0.0
Sm40 Sm 0.86827 0.27059 0.50776 0.0
Sm41 Sm 0.89918 0.27524 0.53139 0.0
C42 C 0.84206 0.24635 0.51077 0.0
C43 C 0.82884 0.25431 0.56589 0.0
C44 C 0.82846 0.25365 0.66827 0.0
C45 C 0.81566 0.25898 0.71784 0.0
C46 C 0.80301 0.26505 0.66603 0.0
C47 C 0.80351 0.26639 0.56356 0.0
C48 C 0.81627 0.26103 0.51423 0.0
C49 C 0.87572 0.37274 0.50553 0.0
C50 C 0.88117 0.27552 0.72813 0.0
C51 C 0.92556 0.29798 0.53755 0.0
C52 C 0.94051 0.28968 0.50905 0.0
C53 C 0.94637 0.32748 0.45178 0.0
C54 C 0.96084 0.32597 0.43953 0.0
C55 C 0.96987 0.28679 0.48483 0.0
C56 C 0.96395 0.24754 0.53848 0.0
C57 C 0.94948 0.24905 0.55067 0.0
C58 C 0.89102 0.1732 0.52253 0.0
C59 C 0.88608 0.2743 0.3105 0.0
O60 O 0.85242 0.21718 0.55041 0.0
O61 O 0.84604 0.28687 0.46404 0.0
O62 O 0.88099 0.33687 0.56203 0.0
O63 O 0.86578 0.35584 0.45442 0.0
O64 O 0.87131 0.2585 0.67327 0.0
O65 O 0.89216 0.29382 0.68845 0.0
O66 O 0.91637 0.32075 0.4773 0.0
O67 O 0.92042 0.26356 0.5942 0.0
O68 O 0.88636 0.21173 0.4714 0.0
O69 O 0.90119 0.18656 0.57587 0.0
O70 O 0.89606 0.29017 0.36616 0.0
O71 O 0.87507 0.25532 0.34923 0.0
H72 H 0.83802 0.24849 0.70988 0.0
H73 H 0.81569 0.25735 0.79669 0.0
H74 H 0.79403 0.27195 0.52122 0.0
H75 H 0.81632 0.26178 0.43526 0.0
H76 H 0.9398 0.35964 0.41961 0.0
H77 H 0.96496 0.35638 0.39633 0.0
H78 H 0.97053 0.21704 0.5753 0.0
H79 H 0.94538 0.21961 0.59638 0.0
Sm80 Sm 0.12734 0.75552 0.5131 0.0
Sm81 Sm 0.15949 0.75775 0.53076 0.0
C82 C 0.10114 0.73118 0.51491 0.0
C83 C 0.0863 0.74814 0.53448 0.0
C84 C 0.07841 0.7147 0.58772 0.0
C85 C 0.06399 0.72595 0.59724 0.0
C86 C 0.05711 0.77092 0.55333 0.0
C87 C 0.06513 0.80535 0.50263 0.0
C88 C 0.07957 0.79405 0.49317 0.0
C89 C 0.13582 0.85569 0.52706 0.0
C90 C 0.14201 0.74928 0.72897 0.0
C91 C 0.18569 0.7819 0.52882 0.0
C92 C 0.1995 0.7731 0.48139 0.0
C93 C 0.20101 0.77139 0.37954 0.0
C94 C 0.21431 0.76826 0.33708 0.0
C95 C 0.22634 0.76682 0.39553 0.0
C96 C 0.22473 0.76714 0.4975 0.0
C97 C 0.21146 0.77028 0.53976 0.0
C98 C 0.15065 0.65806 0.523 0.0
C99 C 0.1453 0.75873 0.31292 0.0
O100 O 0.10956 0.72271 0.58892 0.0
O101 O 0.10703 0.75133 0.43977 0.0
O102 O 0.14119 0.81563 0.57122 0.0
O103 O 0.12452 0.8452 0.48316 0.0
O104 O 0.13217 0.73215 0.67339 0.0
O105 O 0.15265 0.77084 0.69019 0.0
O106 O 0.17561 0.80791 0.48023 0.0
O107 O 0.18149 0.74384 0.58166 0.0
O108 O 0.14553 0.69742 0.47583 0.0
O109 O 0.16197 0.66853 0.56668 0.0
O110 O 0.15561 0.77321 0.36695 0.0
O111 O 0.13412 0.74154 0.35302 0.0
H112 H 0.08336 0.67894 0.61986 0.0
H113 H 0.05822 0.69906 0.63823 0.0
H114 H 0.06018 0.84011 0.46723 0.0
H115 H 0.08539 0.82045 0.45126 0.0
H116 H 0.19194 0.77341 0.33277 0.0
H117 H 0.21514 0.76729 0.25836 0.0
H118 H 0.23369 0.76679 0.54494 0.0
H119 H 0.21054 0.77194 0.61847 0.0
Sm120 Sm 0.90483 0.77233 0.53309 0.0
Sm121 Sm 0.87062 0.76193 0.50997 0.0
C122 C 0.92913 0.81204 0.55051 0.0
C123 C 0.94434 0.79811 0.5522 0.0
C124 C 0.95246 0.82454 0.61739 0.0
C125 C 0.96697 0.81431 0.61775 0.0
C126 C 0.97369 0.77739 0.55258 0.0
C127 C 0.96548 0.75037 0.48809 0.0
C128 C 0.95094 0.7606 0.48794 0.0
C129 C 0.89903 0.66735 0.53478 0.0
C130 C 0.88502 0.76656 0.7271 0.0
C131 C 0.8456 0.72774 0.49296 0.0
C132 C 0.83192 0.73901 0.44444 0.0
C133 C 0.83081 0.75247 0.34533 0.0
C134 C 0.81771 0.76055 0.30061 0.0
C135 C 0.80541 0.75539 0.35391 0.0
C136 C 0.80661 0.74242 0.45339 0.0
C137 C 0.81969 0.7343 0.49792 0.0
C138 C 0.87773 0.86622 0.51287 0.0
C139 C 0.88996 0.76981 0.3128 0.0
O140 O 0.92195 0.79773 0.62539 0.0
O141 O 0.92269 0.80795 0.4671 0.0
O142 O 0.89052 0.70788 0.52549 0.0
O143 O 0.91152 0.68232 0.54195 0.0
O144 O 0.89588 0.78698 0.68808 0.0
O145 O 0.87527 0.74699 0.67334 0.0
O146 O 0.8563 0.7106 0.43842 0.0
O147 O 0.84878 0.76025 0.56207 0.0
O148 O 0.88516 0.8236 0.52188 0.0
O149 O 0.86503 0.8545 0.49938 0.0
O150 O 0.87803 0.75742 0.35049 0.0
O151 O 0.90078 0.7808 0.36681 0.0
H152 H 0.94758 0.85358 0.66769 0.0
H153 H 0.9729 0.83519 0.66955 0.0
H154 H 0.97028 0.72207 0.43624 0.0
H155 H 0.9449 0.73966 0.43685 0.0
H156 H 0.84007 0.75627 0.30213 0.0
H157 H 0.81725 0.76993 0.22372 0.0
H158 H 0.79741 0.73894 0.49736 0.0
H159 H 0.82027 0.72397 0.57443 0.0
Sm160 Sm 0.66132 0.75621 1.01623 0.0
Sm161 Sm 0.62895 0.74692 0.03139 0.0
C162 C 0.68632 0.79154 1.01585 0.0
C163 C 0.70014 0.78123 0.06276 0.0
C164 C 0.70146 0.76729 0.16151 0.0
C165 C 0.71465 0.75938 0.20497 0.0
C166 C 0.72684 0.76504 0.1507 0.0
C167 C 0.72542 0.77864 0.05156 0.0
C168 C 0.71224 0.78666 1.00828 0.0
C169 C 0.65661 0.64958 0.03406 0.0
C170 C 0.64647 0.75068 0.23236 0.0
C171 C 0.60292 0.72231 1.01289 0.0
C172 C 0.5879 0.73332 0.03522 0.0
C173 C 0.57978 0.69082 0.04538 0.0
C174 C 0.56524 0.69928 0.05118 0.0
C175 C 0.55845 0.7506 0.04684 0.0
C176 C 0.56668 0.79332 0.04096 0.0
C177 C 0.58124 0.78479 0.03498 0.0
C178 C 0.63653 0.84956 0.04268 0.0
C179 C 0.64436 0.74086 0.81694 0.0
O180 O 0.67598 0.8114 0.07094 0.0
O181 O 0.68267 0.75614 0.95379 0.0
O182 O 0.64774 0.68915 0.03218 0.0
O183 O 0.66886 0.66634 0.02889 0.0
O184 O 0.6566 0.76767 0.17964 0.0
O185 O 0.63525 0.73373 0.19199 0.0
O186 O 0.61137 0.70187 0.08029 0.0
O187 O 0.60863 0.75516 0.95573 0.0
O188 O 0.64207 0.81347 0.98708 0.0
O189 O 0.62624 0.83216 0.08993 0.0
O190 O 0.63454 0.7237 0.8723 0.0
O191 O 0.65502 0.76257 0.85505 0.0
H192 H 0.6923 0.76287 0.20536 0.0
H193 H 0.71525 0.74959 0.28165 0.0
H194 H 0.73452 0.78255 1.00687 0.0
H195 H 0.71149 0.79729 0.93196 0.0
H196 H 0.58467 0.65074 0.04471 0.0
H197 H 0.55932 0.66534 0.05452 0.0
H198 H 0.56187 0.83345 0.03914 0.0
H199 H 0.58725 0.81831 0.02714 0.0
Sm200 Sm 0.37238 0.74934 0.05319 0.0
Sm201 Sm 0.40486 0.75195 0.0341 0.0
C202 C 0.34675 0.72297 0.08412 0.0
C203 C 0.3331 0.73394 0.13333 0.0
C204 C 0.3318 0.73558 0.23539 0.0
C205 C 0.31859 0.73984 0.27929 0.0
C206 C 0.30641 0.74236 0.22217 0.0
C207 C 0.30781 0.7421 0.12007 0.0
C208 C 0.32098 0.73791 0.07638 0.0
C209 C 0.38065 0.84855 0.03159 0.0
C210 C 0.3919 0.75088 0.25379 0.0
C211 C 0.43076 0.77371 0.99637 0.0
C212 C 0.44571 0.76569 1.02261 0.0
C213 C 0.45335 0.80977 0.02862 0.0
C214 C 0.46774 0.80375 0.04424 0.0
C215 C 0.47491 0.75333 0.05405 0.0
C216 C 0.46718 0.70914 0.05032 0.0
C217 C 0.45273 0.71524 0.03458 0.0
C218 C 0.39575 0.65318 0.0512 0.0
C219 C 0.38567 0.7512 0.83783 0.0
O220 O 0.35755 0.70476 0.13584 0.0
O221 O 0.3499 0.7545 1.01413 0.0
O222 O 0.38717 0.81162 0.07853 0.0
O223 O 0.36836 0.83635 1.00745 0.0
O224 O 0.37972 0.74331 0.21402 0.0
O225 O 0.40299 0.7585 0.20067 0.0
O226 O 0.42498 0.73462 0.95598 0.0
O227 O 0.42236 0.80216 0.05495 0.0
O228 O 0.38989 0.69117 1.00391 0.0
O229 O 0.40766 0.66484 0.08507 0.0
O230 O 0.39628 0.77184 0.87942 0.0
O231 O 0.37626 0.72978 0.89104 0.0
H232 H 0.34096 0.73249 0.28132 0.0
H233 H 0.31793 0.74066 0.35809 0.0
H234 H 0.29873 0.74315 0.07354 0.0
H235 H 0.32169 0.73608 0.99758 0.0
H236 H 0.44819 0.84909 1.01932 0.0
H237 H 0.47326 0.83873 0.04834 0.0
H238 H 0.47233 0.66969 0.05673 0.0
H239 H 0.44713 0.68047 0.02989 0.0
Sm240 Sm 0.6276 0.24861 0.98816 0.0
Sm241 Sm 0.65966 0.25686 1.00846 0.0
C242 C 0.60157 0.22211 0.98628 0.0
C243 C 0.58684 0.2346 1.01726 0.0
C244 C 0.58168 0.2106 0.10013 0.0
C245 C 0.56738 0.21503 0.12032 0.0
C246 C 0.55783 0.24326 0.0578 0.0
C247 C 0.56306 0.26914 0.97724 0.0
C248 C 0.57736 0.2647 0.95704 0.0
C249 C 0.63511 0.3515 0.98502 0.0
C250 C 0.64134 0.24935 0.20894 0.0
C251 C 0.68455 0.29282 1.01188 0.0
C252 C 0.69825 0.28382 0.96267 0.0
C253 C 0.69939 0.28187 0.86054 0.0
C254 C 0.71248 0.27519 0.81556 0.0
C255 C 0.72477 0.27 0.87151 0.0
C256 C 0.72356 0.27154 0.97381 0.0
C257 C 0.71046 0.27847 1.01873 0.0
C258 C 0.65528 0.15046 0.98235 0.0
C259 C 0.64619 0.24693 0.79255 0.0
O260 O 0.61082 0.20461 0.05098 0.0
O261 O 0.60665 0.25182 0.92029 0.0
O262 O 0.64058 0.31472 0.03853 0.0
O263 O 0.62474 0.33503 0.93763 0.0
O264 O 0.63032 0.24239 0.15482 0.0
O265 O 0.6534 0.25931 0.17047 0.0
O266 O 0.67409 0.31419 0.96011 0.0
O267 O 0.68103 0.25576 0.07036 0.0
O268 O 0.6462 0.1895 0.98513 0.0
O269 O 0.66744 0.16768 0.99057 0.0
O270 O 0.65549 0.26916 0.84501 0.0
O271 O 0.63566 0.22601 0.83411 0.0
H272 H 0.58864 0.18669 0.14759 0.0
H273 H 0.56376 0.19519 0.1838 0.0
H274 H 0.55604 0.29069 0.92679 0.0
H275 H 0.58092 0.28308 0.89175 0.0
H276 H 0.69017 0.28592 0.81523 0.0
H277 H 0.71296 0.27495 0.7367 0.0
H278 H 0.73274 0.26687 1.01942 0.0
H279 H 0.70986 0.2798 0.09759 0.0
Sm280 Sm 0.40326 0.24972 1.01021 0.0
Sm281 Sm 0.37116 0.25374 0.99612 0.0
C282 C 0.43002 0.26038 0.03561 0.0
C283 C 0.44517 0.26435 0.04793 0.0
C284 C 0.45016 0.30869 0.09205 0.0
C285 C 0.46453 0.31284 0.0992 0.0
C286 C 0.47421 0.27256 0.06293 0.0
C287 C 0.46914 0.22798 1.02 0.0
C288 C 0.45483 0.22398 1.01249 0.0
C289 C 0.3928 0.15275 0.99842 0.0
C290 C 0.38482 0.25012 0.212 0.0
C291 C 0.34487 0.23381 0.96919 0.0
C292 C 0.33147 0.24291 0.91651 0.0
C293 C 0.32375 0.19991 0.89876 0.0
C294 C 0.31015 0.2076 0.86256 0.0
C295 C 0.30389 0.25864 0.84314 0.0
C296 C 0.31188 0.30158 0.85735 0.0
C297 C 0.32551 0.29383 0.89386 0.0
C298 C 0.38117 0.35105 1.01203 0.0
C299 C 0.38973 0.25703 0.7947 0.0
O300 O 0.4203 0.29222 0.07753 0.0
O301 O 0.42542 0.22328 0.98198 0.0
O302 O 0.38758 0.19167 0.04698 0.0
O303 O 0.40445 0.16291 0.95943 0.0
O304 O 0.39642 0.26329 0.17106 0.0
O305 O 0.37443 0.23561 0.15874 0.0
O306 O 0.3554 0.20625 0.92718 0.0
O307 O 0.34862 0.27144 0.02567 0.0
O308 O 0.38675 0.31281 0.96291 0.0
O309 O 0.36912 0.34076 0.04491 0.0
O310 O 0.37815 0.24321 0.83493 0.0
O311 O 0.40015 0.27067 0.84868 0.0
H312 H 0.44297 0.34048 0.11994 0.0
H313 H 0.46806 0.34753 0.13341 0.0
H314 H 0.47625 0.19657 0.98994 0.0
H315 H 0.45135 0.18931 0.97788 0.0
H316 H 0.32806 0.16031 0.91664 0.0
H317 H 0.30434 0.17358 0.85389 0.0
H318 H 0.30754 0.34138 0.84168 0.0
H319 H 0.33121 0.32775 0.9069 0.0
H320 H 0.2394 0.32131 0.77368 0.0
H321 H 0.24441 0.18166 0.59312 0.0
H322 H 0.26908 0.16909 0.63472 0.0
H323 H 0.28943 0.19832 0.72017 0.0
H324 H 0.28435 0.33784 0.90113 0.0
H325 H 0.25974 0.35064 0.85873 0.0
C326 C 0.24588 0.2883 0.7427 0.0
C327 C 0.23992 0.25244 0.68044 0.0
C328 C 0.26016 0.28152 0.7661 0.0
C329 C 0.24855 0.20949 0.6425 0.0
C330 C 0.26274 0.20247 0.6656 0.0
C331 C 0.28295 0.23139 0.75094 0.0
C332 C 0.28889 0.26713 0.81361 0.0
C333 C 0.26867 0.23824 0.72727 0.0
C334 C 0.28024 0.31013 0.85135 0.0
C335 C 0.26608 0.31727 0.82784 0.0
H336 H 0.74873 0.31223 0.92534 0.0
H337 H 0.73237 0.21158 0.70853 0.0
H338 H 0.75492 0.20143 0.62667 0.0
H339 H 0.77933 0.22055 0.6164 0.0
H340 H 0.79584 0.32057 0.83335 0.0
H341 H 0.77334 0.33002 0.91675 0.0
C342 C 0.75011 0.28755 0.86085 0.0
C343 C 0.73874 0.26297 0.82323 0.0
C344 C 0.76319 0.28142 0.81429 0.0
C345 C 0.74078 0.23179 0.73853 0.0
C346 C 0.75373 0.22562 0.69187 0.0
C347 C 0.778 0.24481 0.68148 0.0
C348 C 0.78932 0.26994 0.71809 0.0
C349 C 0.76499 0.2504 0.72881 0.0
C350 C 0.78741 0.3003 0.80381 0.0
C351 C 0.7745 0.30602 0.85131 0.0
H352 H 0.28204 0.79789 0.16597 0.0
H353 H 0.29898 0.68701 0.38175 0.0
H354 H 0.27591 0.68469 0.45379 0.0
H355 H 0.25077 0.7123 0.45347 0.0
H356 H 0.23383 0.82288 0.23721 0.0
H357 H 0.25693 0.82565 0.16589 0.0
C358 C 0.2807 0.77292 0.22838 0.0
C359 C 0.29233 0.74279 0.26823 0.0
C360 C 0.26733 0.77117 0.26888 0.0
C361 C 0.29033 0.71135 0.35023 0.0
C362 C 0.27709 0.7096 0.39109 0.0
C363 C 0.25212 0.73732 0.39115 0.0
C364 C 0.24048 0.76715 0.3508 0.0
C365 C 0.2655 0.7392 0.35087 0.0
C366 C 0.24249 0.79874 0.26903 0.0
C367 C 0.25574 0.80073 0.22857 0.0
H368 H 0.74955 0.82022 0.12121 0.0
H369 H 0.73599 0.6902 0.28499 0.0
H370 H 0.7588 0.67624 0.36214 0.0
H371 H 0.78277 0.69985 0.382 0.0
H372 H 0.79639 0.82968 0.21809 0.0
H373 H 0.77359 0.84356 0.14047 0.0
C374 C 0.75159 0.78845 0.17302 0.0
C375 C 0.74093 0.75648 0.19708 0.0
C376 C 0.76484 0.78026 0.21686 0.0
C377 C 0.74383 0.71608 0.26581 0.0
C378 C 0.75694 0.70777 0.30966 0.0
C379 C 0.78074 0.73155 0.33001 0.0
C380 C 0.7914 0.76361 0.30629 0.0
C381 C 0.76753 0.73964 0.28591 0.0
C382 C 0.78854 0.80384 0.23717 0.0
C383 C 0.77544 0.81208 0.19306 0.0
H384 H 0.11934 0.94831 0.52501 0.0
H385 H 0.1618 0.88332 0.56431 0.0
H386 H 0.16943 0.97196 0.57267 0.0
H387 H 0.16401 0.0684 0.56289 0.0
H388 H 0.12122 0.13343 0.55218 0.0
H389 H 0.11359 0.04475 0.5398 0.0
C390 C 0.13025 0.95369 0.53559 0.0
C391 C 0.14011 0.90941 0.54046 0.0
C392 C 0.13443 1.00485 0.54572 0.0
C393 C 0.15412 0.91678 0.55736 0.0
C394 C 0.15846 0.96748 0.56278 0.0
C395 C 0.15301 0.06299 0.55857 0.0
C396 C 0.14316 0.10727 0.5561 0.0
C397 C 0.14872 0.01182 0.55586 0.0
C398 C 0.12895 0.09993 0.5528 0.0
C399 C 0.12461 0.04921 0.54568 0.0
H400 H 0.89801 0.41981 0.57971 0.0
H401 H 0.85801 0.45462 0.44292 0.0
H402 H 0.86104 0.54846 0.44429 0.0
H403 H 0.87544 0.62176 0.47893 0.0
H404 H 0.91605 0.58631 0.60599 0.0
H405 H 0.91242 0.49307 0.614 0.0
C406 C 0.88993 0.44803 0.55096 0.0
C407 C 0.87779 0.42993 0.5117 0.0
C408 C 0.89187 0.5024 0.54981 0.0
C409 C 0.86749 0.46718 0.47362 0.0
C410 C 0.8692 0.5211 0.47431 0.0
C411 C 0.88342 0.59363 0.50897 0.0
C412 C 0.89598 0.61124 0.54196 0.0
C413 C 0.88139 0.53934 0.51144 0.0
C414 C 0.90628 0.574 0.57981 0.0
C415 C 0.90422 0.52046 0.58452 0.0
H416 H 0.86392 0.95868 0.45205 0.0
H417 H 0.90218 0.89483 0.58618 0.0
H418 H 0.9096 0.98367 0.60347 0.0
H419 H 0.90503 0.0804 0.58281 0.0
H420 H 0.86758 0.1432 0.43677 0.0
H421 H 0.86003 0.05461 0.42213 0.0
C422 C 0.8739 0.96427 0.48473 0.0
C423 C 0.88246 0.92013 0.5182 0.0
C424 C 0.87822 0.01556 0.49276 0.0
C425 C 0.89541 0.92803 0.55965 0.0
C426 C 0.89964 0.97893 0.56984 0.0
C427 C 0.89522 0.07464 0.5478 0.0
C428 C 0.88679 0.11865 0.5121 0.0
C429 C 0.89111 0.02312 0.53714 0.0
C430 C 0.87421 0.11027 0.46571 0.0
C431 C 0.86989 0.05949 0.45712 0.0
H432 H 0.16524 0.5625 0.50203 0.0
H433 H 0.12376 0.6374 0.54327 0.0
H434 H 0.1147 0.55134 0.55868 0.0
H435 H 0.11881 0.45419 0.56459 0.0
H436 H 0.15955 0.37953 0.49436 0.0
H437 H 0.16877 0.46546 0.48623 0.0
C438 C 0.15421 0.55974 0.51389 0.0
C439 C 0.14516 0.60601 0.52325 0.0
C440 C 0.14903 0.51005 0.51818 0.0
C441 C 0.13088 0.60224 0.53659 0.0
C442 C 0.12572 0.55303 0.54554 0.0
C443 C 0.1297 0.45686 0.54753 0.0
C444 C 0.13864 0.41055 0.53376 0.0
C445 C 0.13473 0.50661 0.53734 0.0
C446 C 0.15261 0.41453 0.50855 0.0
C447 C 0.15785 0.46371 0.50311 0.0
H448 H 0.63316 0.6023 0.98121 0.0
H449 H 0.67458 0.56808 0.09546 0.0
H450 H 0.67166 0.47383 0.09589 0.0
H451 H 0.65757 0.39944 0.05845 0.0
H452 H 0.61687 0.43398 0.9318 0.0
H453 H 0.61925 0.52815 0.94169 0.0
C454 C 0.64148 0.57422 1.0071 0.0
C455 C 0.65404 0.59259 0.03903 0.0
C456 C 0.63989 0.51943 1.0044 0.0
C457 C 0.66478 0.55531 0.07073 0.0
C458 C 0.66313 0.50117 0.07087 0.0
C459 C 0.64922 0.4276 0.0334 0.0
C460 C 0.63703 0.40909 0.99466 0.0
C461 C 0.65078 0.48247 0.03702 0.0
C462 C 0.62639 0.44657 0.96188 0.0
C463 C 0.62772 0.50079 0.96755 0.0
H464 H 0.36482 0.94098 0.0562 0.0
H465 H 0.40627 0.87518 0.98243 0.0
H466 H 0.41367 0.9637 0.96252 0.0
H467 H 0.40824 0.05997 0.96584 0.0
H468 H 0.36716 0.12617 0.05024 0.0
H469 H 0.3596 0.03756 0.06529 0.0
C470 C 0.37547 0.94626 0.03602 0.0
C471 C 0.3851 0.90193 1.0221 0.0
C472 C 0.37963 0.9973 0.02595 0.0
C473 C 0.39885 0.90888 0.99611 0.0
C474 C 0.40301 0.95945 0.98369 0.0
C475 C 0.39762 0.05492 0.98711 0.0
C476 C 0.38821 0.09936 1.00592 0.0
C477 C 0.39349 1.00394 0.9985 0.0
C478 C 0.37454 0.09242 0.03481 0.0
C479 C 0.37023 0.04183 0.04362 0.0
H480 H 0.36574 0.44446 0.03095 0.0
H481 H 0.40805 0.3756 1.00116 0.0
H482 H 0.41656 0.46263 1.02039 0.0
H483 H 0.41175 0.55916 0.04465 0.0
H484 H 0.36923 0.62796 0.04368 0.0
H485 H 0.36091 0.54061 0.03827 0.0
C486 C 0.37682 0.44858 0.02876 0.0
C487 C 0.38631 0.40369 1.01708 0.0
C488 C 0.38154 0.49888 0.03501 0.0
C489 C 0.4006 0.40956 1.01188 0.0
C490 C 0.40545 0.45932 1.02264 0.0
C491 C 0.40068 0.55477 0.04411 0.0
C492 C 0.39106 0.59978 0.04823 0.0
C493 C 0.396 0.50433 0.03463 0.0
C494 C 0.37677 0.59386 0.04386 0.0
C495 C 0.37203 0.54391 0.0398 0.0
H496 H 0.63268 0.10089 0.04497 0.0
H497 H 0.67316 0.07052 0.91252 0.0
H498 H 0.67104 0.97568 0.91504 0.0
H499 H 0.65799 0.89974 0.96055 0.0
H500 H 0.61831 0.93063 0.10499 0.0
H501 H 0.61982 0.02522 0.09247 0.0
C502 C 0.64094 0.07352 1.01554 0.0
C503 C 0.653 0.09315 0.97757 0.0
C504 C 0.63986 0.01841 1.02024 0.0
C505 C 0.66372 0.05676 0.9417 0.0
C506 C 0.66254 1.00229 0.94339 0.0
C507 C 0.64967 0.92719 0.98903 0.0
C508 C 0.63803 0.90749 0.03346 0.0
C509 C 0.65072 0.98236 0.98346 0.0
C510 C 0.62743 0.9441 0.07054 0.0
C511 C 0.62825 0.99857 0.06326 0.0
H512 H 0.15691 0.28349 0.20642 0.0
H513 H 0.11757 0.21741 0.23701 0.0
H514 H 0.11514 0.21452 0.0602 0.0
H515 H 0.12407 0.23112 0.89638 0.0
H516 H 0.16343 0.29722 0.86634 0.0
H517 H 0.16589 0.29968 0.04298 0.0
C518 C 0.14781 0.26836 0.17461 0.0
C519 C 0.13745 0.25076 0.23541 0.0
C520 C 0.14644 0.26685 0.07262 0.0
C521 C 0.12572 0.2313 0.19239 0.0
C522 C 0.12431 0.22963 0.09105 0.0
C523 C 0.13319 0.2461 0.92833 0.0
C524 C 0.14353 0.26395 0.86765 0.0
C525 C 0.13458 0.2474 0.03039 0.0
C526 C 0.15528 0.28316 0.91081 0.0
C527 C 0.15672 0.28461 1.01208 0.0
H528 H 0.86722 0.24946 0.17435 0.0
H529 H 0.90774 0.30639 0.20437 0.0
H530 H 0.90968 0.31266 0.02752 0.0
H531 H 0.89994 0.30174 0.86413 0.0
H532 H 0.85942 0.24472 0.83458 0.0
H533 H 0.85744 0.23901 1.01132 0.0
C534 C 0.8765 0.26315 0.1424 0.0
C535 C 0.88732 0.2773 0.20291 0.0
C536 C 0.87755 0.26684 0.04053 0.0
C537 C 0.89924 0.29514 0.15984 0.0
C538 C 0.90036 0.29881 0.05855 0.0
C539 C 0.89065 0.28825 0.89622 0.0
C540 C 0.87985 0.27376 0.83579 0.0
C541 C 0.88958 0.2848 0.99816 0.0
C542 C 0.8679 0.25619 0.87899 0.0
C543 C 0.86676 0.25282 0.98025 0.0
H544 H 0.12738 0.72591 0.17594 0.0
H545 H 0.16639 0.79449 0.20645 0.0
H546 H 0.16886 0.79705 0.02985 0.0
H547 H 0.15998 0.78048 0.86623 0.0
H548 H 0.12106 0.7115 0.83479 0.0
H549 H 0.11861 0.7084 1.01169 0.0
C550 C 0.13643 0.74144 0.1441 0.0
C551 C 0.14666 0.76003 0.20498 0.0
C552 C 0.13784 0.74272 0.04195 0.0
C553 C 0.15832 0.77988 0.1619 0.0
C554 C 0.15976 0.7814 0.06062 0.0
C555 C 0.15096 0.76466 0.89786 0.0
C556 C 0.14073 0.74633 0.83678 0.0
C557 C 0.14959 0.76298 0.99989 0.0
C558 C 0.12912 0.72592 0.87961 0.0
C559 C 0.12769 0.72417 0.98101 0.0
H560 H 0.904 0.79224 0.86354 0.0
H561 H 0.86326 0.73691 0.83584 0.0
H562 H 0.86122 0.73317 1.01285 0.0
H563 H 0.87093 0.74519 0.17602 0.0
H564 H 0.91179 0.7995 0.20419 0.0
H565 H 0.91378 0.80386 0.02711 0.0
C566 C 0.89464 0.77947 0.89597 0.0
C567 C 0.8838 0.76498 0.83556 0.0
C568 C 0.89354 0.77708 0.99838 0.0
C569 C 0.8718 0.7483 0.87975 0.0
C570 C 0.87061 0.74613 0.98134 0.0
C571 C 0.8803 0.75803 0.14378 0.0
C572 C 0.89119 0.772 0.20434 0.0
C573 C 0.88142 0.76035 0.04145 0.0
C574 C 0.90322 0.78839 0.16021 0.0
C575 C 0.90438 0.79098 0.05858 0.0
H576 H 0.62915 0.71477 0.37098 0.0
H577 H 0.66735 0.78857 0.33755 0.0
H578 H 0.67019 0.791 0.5134 0.0
H579 H 0.66186 0.77343 0.67772 0.0
H580 H 0.62375 0.69946 0.71296 0.0
H581 H 0.62097 0.69579 0.53646 0.0
C582 C 0.63809 0.73141 0.40208 0.0
C583 C 0.64796 0.75155 0.34034 0.0
C584 C 0.63974 0.73265 0.50416 0.0
C585 C 0.65952 0.77276 0.38254 0.0
C586 C 0.6612 0.77421 0.48354 0.0
C587 C 0.65296 0.7563 0.64702 0.0
C588 C 0.64304 0.73684 0.70915 0.0
C589 C 0.65137 0.75439 0.54515 0.0
C590 C 0.63158 0.71481 0.66739 0.0
C591 C 0.62995 0.71273 0.56616 0.0
H592 H 0.40532 0.77278 0.7037 0.0
H593 H 0.36363 0.72591 0.72801 0.0
H594 H 0.3619 0.72153 0.55077 0.0
H595 H 0.37219 0.73053 0.38842 0.0
H596 H 0.41406 0.77563 0.36388 0.0
H597 H 0.41571 0.78088 0.54104 0.0
C598 C 0.39582 0.76181 0.67034 0.0
C599 C 0.38461 0.74983 0.72961 0.0
C600 C 0.39493 0.7588 0.56796 0.0
C601 C 0.37244 0.73529 0.68464 0.0
C602 C 0.37143 0.73276 0.58303 0.0
C603 C 0.3817 0.74147 0.42156 0.0
C604 C 0.39297 0.75267 0.36214 0.0
C605 C 0.38262 0.74429 0.5239 0.0
C606 C 0.40521 0.76664 0.40717 0.0
C607 C 0.40616 0.76979 0.50879 0.0
H608 H 0.6609 0.26691 0.34592 0.0
H609 H 0.6189 0.22402 0.31544 0.0
H610 H 0.61682 0.21768 0.49215 0.0
H611 H 0.62681 0.22525 0.65634 0.0
H612 H 0.66868 0.26971 0.6857 0.0
H613 H 0.67088 0.27414 0.50909 0.0
C614 C 0.65128 0.25616 0.37766 0.0
C615 C 0.64008 0.24608 0.31684 0.0
C616 C 0.65011 0.2527 0.47962 0.0
C617 C 0.6277 0.23221 0.35997 0.0
C618 C 0.62649 0.22845 0.4613 0.0
C619 C 0.63645 0.23557 0.62412 0.0
C620 C 0.64755 0.24708 0.68465 0.0
C621 C 0.63763 0.23865 0.52196 0.0
C622 C 0.65993 0.26078 0.6413 0.0
C623 C 0.66121 0.26336 0.54005 0.0
H624 H 0.40399 0.27513 0.34662 0.0
H625 H 0.36285 0.2231 0.32054 0.0
H626 H 0.36073 0.22096 0.49743 0.0
H627 H 0.37051 0.2333 0.65991 0.0
H628 H 0.41165 0.28519 0.68649 0.0
H629 H 0.41375 0.28788 0.50945 0.0
C630 C 0.39455 0.26332 0.37948 0.0
C631 C 0.38362 0.24923 0.31989 0.0
C632 C 0.39337 0.26211 0.48165 0.0
C633 C 0.37146 0.23411 0.36419 0.0
C634 C 0.37022 0.23286 0.4656 0.0
C635 C 0.37994 0.24526 0.62717 0.0
C636 C 0.39089 0.25901 0.68688 0.0
C637 C 0.38111 0.2467 0.52507 0.0
C638 C 0.40303 0.27438 0.6427 0.0
C639 C 0.40426 0.27594 0.54124 0.0
H640 H 0.03328 0.33441 0.49906 0.0
H641 H 0.0394 0.16494 0.47465 0.0
H642 H 1.0143 0.16079 0.46454 0.0
H643 H 0.99042 0.2048 0.46755 0.0
H644 H 0.9843 0.37406 0.49713 0.0
H645 H 1.00942 0.37851 0.49982 0.0
C646 C 0.02914 0.29652 0.49183 0.0
C647 C 0.03835 0.25012 0.48741 0.0
C648 C 1.01461 0.29426 0.48685 0.0
C649 C 0.03269 0.20148 0.4767 0.0
C650 C 0.01827 0.19898 0.47166 0.0
C651 C 0.99456 0.24269 0.47488 0.0
C652 C 0.98535 0.28899 0.48181 0.0
C653 C 1.00911 0.24505 0.47736 0.0
C654 C 0.99102 0.33773 0.48997 0.0
C655 C 1.00544 0.34035 0.49235 0.0
H656 H 0.99282 0.84931 0.57142 0.0
H657 H 0.98954 0.68291 0.53131 0.0
H658 H 1.01488 0.66647 0.52787 0.0
H659 H 0.03799 0.6992 0.53518 0.0
H660 H 0.04132 0.86518 0.58028 0.0
H661 H 0.01596 0.88175 0.58314 0.0
C662 C 0.99762 0.80933 0.56305 0.0
C663 C 0.9892 0.76746 0.55155 0.0
C664 C 1.01224 0.80004 0.56184 0.0
C665 C 0.99569 0.71606 0.53896 0.0
C666 C 1.01021 0.70654 0.5376 0.0
C667 C 0.03319 0.73895 0.54693 0.0
C668 C 0.04162 0.78084 0.55763 0.0
C669 C 0.01859 0.74821 0.5489 0.0
C670 C 0.03514 0.83222 0.57074 0.0
C671 C 0.02062 0.84172 0.57286 0.0
H672 H 0.53917 0.69846 0.14607 0.0
H673 H 0.54256 0.82156 0.93466 0.0
H674 H 0.51729 0.83382 0.92013 0.0
H675 H 0.4942 0.80783 0.96245 0.0
H676 H 0.49061 0.68429 0.17236 0.0
H677 H 0.51592 0.67313 0.19009 0.0
C678 C 0.5344 0.72786 0.09649 0.0
C679 C 0.54288 0.75918 0.04203 0.0
C680 C 0.51978 0.73434 0.08732 0.0
C681 C 0.5364 0.79748 0.97908 0.0
C682 C 0.52191 0.80425 0.96994 0.0
C683 C 0.4989 0.77887 1.01307 0.0
C684 C 0.49041 0.747 0.06597 0.0
C685 C 0.51349 0.77279 1.02333 0.0
C686 C 0.49682 0.70898 0.1297 0.0
C687 C 0.51132 0.70278 0.14037 0.0
H688 H 0.49496 0.19612 0.1078 0.0
H689 H 0.48796 0.35973 0.0263 0.0
H690 H 0.51307 0.36607 1.02226 0.0
H691 H 0.53714 0.32396 0.03446 0.0
H692 H 0.5439 0.1595 0.11135 0.0
H693 H 0.51887 0.15492 0.12484 0.0
C694 C 0.49891 0.23317 0.08887 0.0
C695 C 0.48952 0.27727 0.06685 0.0
C696 C 0.51338 0.23644 0.08581 0.0
C697 C 0.49488 0.32522 0.04441 0.0
C698 C 0.50928 0.3288 0.04141 0.0
C699 C 0.53314 0.2871 0.05412 0.0
C700 C 0.54249 0.24219 0.07196 0.0
C701 C 0.51864 0.28449 0.06083 0.0
C702 C 0.53705 0.19497 0.09863 0.0
C703 C 0.52269 0.19214 0.10562 0.0
loop_
_geom_bond_atom_site_label_1
_geom_bond_atom_site_label_2
_geom_bond_distance
_geom_bond_site_symmetry_2
_ccdc_geom_bond_type
Sm0 C2 2.846 . S
Sm0 O20 2.543 . S
Sm0 O21 2.450 . S
Sm0 O22 2.681 . S
Sm0 O23 2.464 . S
Sm0 O24 2.396 . S
Sm0 O28 2.386 . S
Sm0 O31 2.408 . S
Sm1 C11 2.846 . S
Sm1 O22 2.386 . S
Sm1 O25 2.408 . S
Sm1 O26 2.543 . S
Sm1 O27 2.450 . S
Sm1 O28 2.681 . S
Sm1 O29 2.464 . S
Sm1 O30 2.396 . S
C2 Sm0 2.846 . S
C2 C3 1.506 . S
C2 O20 1.261 . S
C2 O21 1.242 . S
C3 C2 1.506 . S
C3 C4 1.358 . S
C3 C8 1.382 . S
C4 C3 1.358 . S
C4 C5 1.385 . S
C4 H32 0.930 . S
C5 C4 1.385 . S
C5 C6 1.395 . S
C5 H33 0.929 . S
C6 C5 1.395 . S
C6 C7 1.335 . S
C7 C6 1.335 . S
C7 C8 1.398 . S
C7 H34 0.930 . S
C8 C3 1.382 . S
C8 C7 1.398 . S
C8 H35 0.929 . S
C9 O22 1.271 . S
C9 O23 1.251 . S
C10 O24 1.252 . S
C10 O25 1.272 . S
C11 Sm1 2.846 . S
C11 C12 1.506 . S
C11 O26 1.261 . S
C11 O27 1.242 . S
C12 C11 1.506 . S
C12 C13 1.358 . S
C12 C17 1.382 . S
C13 C12 1.358 . S
C13 C14 1.385 . S
C13 H36 0.930 . S
C14 C13 1.385 . S
C14 C15 1.395 . S
C14 H37 0.929 . S
C15 C14 1.395 . S
C15 C16 1.335 . S
C16 C15 1.335 . S
C16 C17 1.398 . S
C16 H38 0.930 . S
C17 C12 1.382 . S
C17 C16 1.398 . S
C17 H39 0.929 . S
C18 O28 1.271 . S
C18 O29 1.251 . S
C19 O30 1.252 . S
C19 O31 1.272 . S
O20 Sm0 2.543 . S
O20 C2 1.261 . S
O21 Sm0 2.450 . S
O21 C2 1.242 . S
O22 Sm0 2.681 . S
O22 Sm1 2.386 . S
O22 C9 1.271 . S
O23 Sm0 2.464 . S
O23 C9 1.251 . S
O24 Sm0 2.396 . S
O24 C10 1.252 . S
O25 Sm1 2.408 . S
O25 C10 1.272 . S
O26 Sm1 2.543 . S
O26 C11 1.261 . S
O27 Sm1 2.450 . S
O27 C11 1.242 . S
O28 Sm0 2.386 . S
O28 Sm1 2.681 . S
O28 C18 1.271 . S
O29 Sm1 2.464 . S
O29 C18 1.251 . S
O30 Sm1 2.396 . S
O30 C19 1.252 . S
O31 Sm0 2.408 . S
O31 C19 1.272 . S
H32 C4 0.930 . S
H33 C5 0.929 . S
H34 C7 0.930 . S
H35 C8 0.929 . S
H36 C13 0.930 . S
H37 C14 0.929 . S
H38 C16 0.930 . S
H39 C17 0.929 . S
Sm40 C42 2.846 . S
Sm40 O60 2.543 . S
Sm40 O61 2.450 . S
Sm40 O62 2.681 . S
Sm40 O63 2.464 . S
Sm40 O64 2.396 . S
Sm40 O68 2.386 . S
Sm40 O71 2.408 . S
Sm41 C51 2.846 . S
Sm41 O62 2.386 . S
Sm41 O65 2.408 . S
Sm41 O66 2.543 . S
Sm41 O67 2.450 . S
Sm41 O68 2.681 . S
Sm41 O69 2.464 . S
Sm41 O70 2.396 . S
C42 Sm40 2.846 . S
C42 C43 1.506 . S
C42 O60 1.261 . S
C42 O61 1.242 . S
C43 C42 1.506 . S
C43 C44 1.358 . S
C43 C48 1.382 . S
C44 C43 1.358 . S
C44 C45 1.385 . S
C44 H72 0.930 . S
C45 C44 1.385 . S
C45 C46 1.395 . S
C45 H73 0.929 . S
C46 C45 1.395 . S
C46 C47 1.335 . S
C47 C46 1.335 . S
C47 C48 1.398 . S
C47 H74 0.930 . S
C48 C43 1.382 . S
C48 C47 1.398 . S
C48 H75 0.929 . S
C49 O62 1.271 . S
C49 O63 1.251 . S
C50 O64 1.252 . S
C50 O65 1.272 . S
C51 Sm41 2.846 . S
C51 C52 1.506 . S
C51 O66 1.261 . S
C51 O67 1.242 . S
C52 C51 1.506 . S
C52 C53 1.358 . S
C52 C57 1.382 . S
C53 C52 1.358 . S
C53 C54 1.385 . S
C53 H76 0.930 . S
C54 C53 1.385 . S
C54 C55 1.395 . S
C54 H77 0.929 . S
C55 C54 1.395 . S
C55 C56 1.335 . S
C56 C55 1.335 . S
C56 C57 1.398 . S
C56 H78 0.930 . S
C57 C52 1.382 . S
C57 C56 1.398 . S
C57 H79 0.929 . S
C58 O68 1.271 . S
C58 O69 1.251 . S
C59 O70 1.252 . S
C59 O71 1.272 . S
O60 Sm40 2.543 . S
O60 C42 1.261 . S
O61 Sm40 2.450 . S
O61 C42 1.242 . S
O62 Sm40 2.681 . S
O62 Sm41 2.386 . S
O62 C49 1.271 . S
O63 Sm40 2.464 . S
O63 C49 1.251 . S
O64 Sm40 2.396 . S
O64 C50 1.252 . S
O65 Sm41 2.408 . S
O65 C50 1.272 . S
O66 Sm41 2.543 . S
O66 C51 1.261 . S
O67 Sm41 2.450 . S
O67 C51 1.242 . S
O68 Sm40 2.386 . S
O68 Sm41 2.681 . S
O68 C58 1.271 . S
O69 Sm41 2.464 . S
O69 C58 1.251 . S
O70 Sm41 2.396 . S
O70 C59 1.252 . S
O71 Sm40 2.408 . S
O71 C59 1.272 . S
H72 C44 0.930 . S
H73 C45 0.929 . S
H74 C47 0.930 . S
H75 C48 0.929 . S
H76 C53 0.930 . S
H77 C54 0.929 . S
H78 C56 0.930 . S
H79 C57 0.929 . S
Sm80 C82 2.846 . S
Sm80 O100 2.543 . S
Sm80 O101 2.450 . S
Sm80 O102 2.681 . S
Sm80 O103 2.464 . S
Sm80 O104 2.396 . S
Sm80 O108 2.386 . S
Sm80 O111 2.408 . S
Sm81 C91 2.846 . S
Sm81 O102 2.386 . S
Sm81 O105 2.408 . S
Sm81 O106 2.543 . S
Sm81 O107 2.450 . S
Sm81 O108 2.681 . S
Sm81 O109 2.464 . S
Sm81 O110 2.396 . S
C82 Sm80 2.846 . S
C82 C83 1.506 . S
C82 O100 1.261 . S
C82 O101 1.242 . S
C83 C82 1.506 . S
C83 C84 1.358 . S
C83 C88 1.382 . S
C84 C83 1.358 . S
C84 C85 1.385 . S
C84 H112 0.930 . S
C85 C84 1.385 . S
C85 C86 1.395 . S
C85 H113 0.929 . S
C86 C85 1.395 . S
C86 C87 1.335 . S
C87 C86 1.335 . S
C87 C88 1.398 . S
C87 H114 0.930 . S
C88 C83 1.382 . S
C88 C87 1.398 . S
C88 H115 0.929 . S
C89 O102 1.271 . S
C89 O103 1.251 . S
C90 O104 1.252 . S
C90 O105 1.272 . S
C91 Sm81 2.846 . S
C91 C92 1.506 . S
C91 O106 1.261 . S
C91 O107 1.242 . S
C92 C91 1.506 . S
C92 C93 1.358 . S
C92 C97 1.382 . S
C93 C92 1.358 . S
C93 C94 1.385 . S
C93 H116 0.930 . S
C94 C93 1.385 . S
C94 C95 1.395 . S
C94 H117 0.929 . S
C95 C94 1.395 . S
C95 C96 1.335 . S
C96 C95 1.335 . S
C96 C97 1.398 . S
C96 H118 0.930 . S
C97 C92 1.382 . S
C97 C96 1.398 . S
C97 H119 0.929 . S
C98 O108 1.271 . S
C98 O109 1.251 . S
C99 O110 1.252 . S
C99 O111 1.272 . S
O100 Sm80 2.543 . S
O100 C82 1.261 . S
O101 Sm80 2.450 . S
O101 C82 1.242 . S
O102 Sm80 2.681 . S
O102 Sm81 2.386 . S
O102 C89 1.271 . S
O103 Sm80 2.464 . S
O103 C89 1.251 . S
O104 Sm80 2.396 . S
O104 C90 1.252 . S
O105 Sm81 2.408 . S
O105 C90 1.272 . S
O106 Sm81 2.543 . S
O106 C91 1.261 . S
O107 Sm81 2.450 . S
O107 C91 1.242 . S
O108 Sm80 2.386 . S
O108 Sm81 2.681 . S
O108 C98 1.271 . S
O109 Sm81 2.464 . S
O109 C98 1.251 . S
O110 Sm81 2.396 . S
O110 C99 1.252 . S
O111 Sm80 2.408 . S
O111 C99 1.272 . S
H112 C84 0.930 . S
H113 C85 0.929 . S
H114 C87 0.930 . S
H115 C88 0.929 . S
H116 C93 0.930 . S
H117 C94 0.929 . S
H118 C96 0.930 . S
H119 C97 0.929 . S
Sm120 C122 2.846 . S
Sm120 O140 2.543 . S
Sm120 O141 2.450 . S
Sm120 O142 2.681 . S
Sm120 O143 2.464 . S
Sm120 O144 2.396 . S
Sm120 O148 2.386 . S
Sm120 O151 2.408 . S
Sm121 C131 2.846 . S
Sm121 O142 2.386 . S
Sm121 O145 2.408 . S
Sm121 O146 2.543 . S
Sm121 O147 2.450 . S
Sm121 O148 2.681 . S
Sm121 O149 2.464 . S
Sm121 O150 2.396 . S
C122 Sm120 2.846 . S
C122 C123 1.506 . S
C122 O140 1.261 . S
C122 O141 1.242 . S
C123 C122 1.506 . S
C123 C124 1.358 . S
C123 C128 1.382 . S
C124 C123 1.358 . S
C124 C125 1.385 . S
C124 H152 0.930 . S
C125 C124 1.385 . S
C125 C126 1.395 . S
C125 H153 0.929 . S
C126 C125 1.395 . S
C126 C127 1.335 . S
C127 C126 1.335 . S
C127 C128 1.398 . S
C127 H154 0.930 . S
C128 C123 1.382 . S
C128 C127 1.398 . S
C128 H155 0.929 . S
C129 O142 1.271 . S
C129 O143 1.251 . S
C130 O144 1.252 . S
C130 O145 1.272 . S
C131 Sm121 2.846 . S
C131 C132 1.506 . S
C131 O146 1.261 . S
C131 O147 1.242 . S
C132 C131 1.506 . S
C132 C133 1.358 . S
C132 C137 1.382 . S
C133 C132 1.358 . S
C133 C134 1.385 . S
C133 H156 0.930 . S
C134 C133 1.385 . S
C134 C135 1.395 . S
C134 H157 0.929 . S
C135 C134 1.395 . S
C135 C136 1.335 . S
C136 C135 1.335 . S
C136 C137 1.398 . S
C136 H158 0.930 . S
C137 C132 1.382 . S
C137 C136 1.398 . S
C137 H159 0.929 . S
C138 O148 1.271 . S
C138 O149 1.251 . S
C139 O150 1.252 . S
C139 O151 1.272 . S
O140 Sm120 2.543 . S
O140 C122 1.261 . S
O141 Sm120 2.450 . S
O141 C122 1.242 . S
O142 Sm120 2.681 . S
O142 Sm121 2.386 . S
O142 C129 1.271 . S
O143 Sm120 2.464 . S
O143 C129 1.251 . S
O144 Sm120 2.396 . S
O144 C130 1.252 . S
O145 Sm121 2.408 . S
O145 C130 1.272 . S
O146 Sm121 2.543 . S
O146 C131 1.261 . S
O147 Sm121 2.450 . S
O147 C131 1.242 . S
O148 Sm120 2.386 . S
O148 Sm121 2.681 . S
O148 C138 1.271 . S
O149 Sm121 2.464 . S
O149 C138 1.251 . S
O150 Sm121 2.396 . S
O150 C139 1.252 . S
O151 Sm120 2.408 . S
O151 C139 1.272 . S
H152 C124 0.930 . S
H153 C125 0.929 . S
H154 C127 0.930 . S
H155 C128 0.929 . S
H156 C133 0.930 . S
H157 C134 0.929 . S
H158 C136 0.930 . S
H159 C137 0.929 . S
Sm160 C162 2.846 1_556 S
Sm160 O180 2.543 1_556 S
Sm160 O181 2.450 1_556 S
Sm160 O182 2.681 . S
Sm160 O183 2.464 . S
Sm160 O184 2.396 1_556 S
Sm160 O188 2.386 1_556 S
Sm160 O191 2.408 . S
Sm161 C171 2.846 1_554 S
Sm161 O182 2.386 1_554 S
Sm161 O185 2.408 . S
Sm161 O186 2.543 1_554 S
Sm161 O187 2.450 1_554 S
Sm161 O188 2.681 . S
Sm161 O189 2.464 . S
Sm161 O190 2.396 1_554 S
C162 Sm160 2.846 1_554 S
C162 C163 1.506 . S
C162 O180 1.261 . S
C162 O181 1.242 . S
C163 C162 1.506 . S
C163 C164 1.358 . S
C163 C168 1.382 . S
C164 C163 1.358 . S
C164 C165 1.385 . S
C164 H192 0.930 . S
C165 C164 1.385 . S
C165 C166 1.395 . S
C165 H193 0.929 . S
C166 C165 1.395 . S
C166 C167 1.335 . S
C167 C166 1.335 . S
C167 C168 1.398 . S
C167 H194 0.930 . S
C168 C163 1.382 . S
C168 C167 1.398 . S
C168 H195 0.929 . S
C169 O182 1.271 . S
C169 O183 1.251 . S
C170 O184 1.252 . S
C170 O185 1.272 . S
C171 Sm161 2.846 1_556 S
C171 C172 1.506 . S
C171 O186 1.261 . S
C171 O187 1.242 . S
C172 C171 1.506 . S
C172 C173 1.358 . S
C172 C177 1.382 . S
C173 C172 1.358 . S
C173 C174 1.385 . S
C173 H196 0.930 . S
C174 C173 1.385 . S
C174 C175 1.395 . S
C174 H197 0.929 . S
C175 C174 1.395 . S
C175 C176 1.335 . S
C176 C175 1.335 . S
C176 C177 1.398 . S
C176 H198 0.930 . S
C177 C172 1.382 . S
C177 C176 1.398 . S
C177 H199 0.929 . S
C178 O188 1.271 . S
C178 O189 1.251 . S
C179 O190 1.252 . S
C179 O191 1.272 . S
O180 Sm160 2.543 1_554 S
O180 C162 1.261 . S
O181 Sm160 2.450 1_554 S
O181 C162 1.242 . S
O182 Sm160 2.681 . S
O182 Sm161 2.386 1_556 S
O182 C169 1.271 . S
O183 Sm160 2.464 . S
O183 C169 1.251 . S
O184 Sm160 2.396 1_554 S
O184 C170 1.252 . S
O185 Sm161 2.408 . S
O185 C170 1.272 . S
O186 Sm161 2.543 1_556 S
O186 C171 1.261 . S
O187 Sm161 2.450 1_556 S
O187 C171 1.242 . S
O188 Sm160 2.386 1_554 S
O188 Sm161 2.681 . S
O188 C178 1.271 . S
O189 Sm161 2.464 . S
O189 C178 1.251 . S
O190 Sm161 2.396 1_556 S
O190 C179 1.252 . S
O191 Sm160 2.408 . S
O191 C179 1.272 . S
H192 C164 0.930 . S
H193 C165 0.929 . S
H194 C167 0.930 . S
H195 C168 0.929 . S
H196 C173 0.930 . S
H197 C174 0.929 . S
H198 C176 0.930 . S
H199 C177 0.929 . S
Sm200 C202 2.846 1_556 S
Sm200 O220 2.543 1_556 S
Sm200 O221 2.450 1_556 S
Sm200 O222 2.681 . S
Sm200 O223 2.464 . S
Sm200 O224 2.396 1_556 S
Sm200 O228 2.386 1_556 S
Sm200 O231 2.408 . S
Sm201 C211 2.846 1_554 S
Sm201 O222 2.386 1_554 S
Sm201 O225 2.408 . S
Sm201 O226 2.543 1_554 S
Sm201 O227 2.450 1_554 S
Sm201 O228 2.681 . S
Sm201 O229 2.464 . S
Sm201 O230 2.396 1_554 S
C202 Sm200 2.846 1_554 S
C202 C203 1.506 . S
C202 O220 1.261 . S
C202 O221 1.242 . S
C203 C202 1.506 . S
C203 C204 1.358 . S
C203 C208 1.382 . S
C204 C203 1.358 . S
C204 C205 1.385 . S
C204 H232 0.930 . S
C205 C204 1.385 . S
C205 C206 1.395 . S
C205 H233 0.929 . S
C206 C205 1.395 . S
C206 C207 1.335 . S
C207 C206 1.335 . S
C207 C208 1.398 . S
C207 H234 0.930 . S
C208 C203 1.382 . S
C208 C207 1.398 . S
C208 H235 0.929 . S
C209 O222 1.271 . S
C209 O223 1.251 . S
C210 O224 1.252 . S
C210 O225 1.272 . S
C211 Sm201 2.846 1_556 S
C211 C212 1.506 . S
C211 O226 1.261 . S
C211 O227 1.242 . S
C212 C211 1.506 . S
C212 C213 1.358 . S
C212 C217 1.382 . S
C213 C212 1.358 . S
C213 C214 1.385 . S
C213 H236 0.930 . S
C214 C213 1.385 . S
C214 C215 1.395 . S
C214 H237 0.929 . S
C215 C214 1.395 . S
C215 C216 1.335 . S
C216 C215 1.335 . S
C216 C217 1.398 . S
C216 H238 0.930 . S
C217 C212 1.382 . S
C217 C216 1.398 . S
C217 H239 0.929 . S
C218 O228 1.271 . S
C218 O229 1.251 . S
C219 O230 1.252 . S
C219 O231 1.272 . S
O220 Sm200 2.543 1_554 S
O220 C202 1.261 . S
O221 Sm200 2.450 1_554 S
O221 C202 1.242 . S
O222 Sm200 2.681 . S
O222 Sm201 2.386 1_556 S
O222 C209 1.271 . S
O223 Sm200 2.464 . S
O223 C209 1.251 . S
O224 Sm200 2.396 1_554 S
O224 C210 1.252 . S
O225 Sm201 2.408 . S
O225 C210 1.272 . S
O226 Sm201 2.543 1_556 S
O226 C211 1.261 . S
O227 Sm201 2.450 1_556 S
O227 C211 1.242 . S
O228 Sm200 2.386 1_554 S
O228 Sm201 2.681 . S
O228 C218 1.271 . S
O229 Sm201 2.464 . S
O229 C218 1.251 . S
O230 Sm201 2.396 1_556 S
O230 C219 1.252 . S
O231 Sm200 2.408 . S
O231 C219 1.272 . S
H232 C204 0.930 . S
H233 C205 0.929 . S
H234 C207 0.930 . S
H235 C208 0.929 . S
H236 C213 0.930 . S
H237 C214 0.929 . S
H238 C216 0.930 . S
H239 C217 0.929 . S
Sm240 C242 2.846 1_556 S
Sm240 O260 2.543 1_556 S
Sm240 O261 2.450 1_556 S
Sm240 O262 2.681 . S
Sm240 O263 2.464 . S
Sm240 O264 2.396 1_556 S
Sm240 O268 2.386 1_556 S
Sm240 O271 2.408 . S
Sm241 C251 2.846 1_554 S
Sm241 O262 2.386 1_554 S
Sm241 O265 2.408 . S
Sm241 O266 2.543 1_554 S
Sm241 O267 2.450 1_554 S
Sm241 O268 2.681 . S
Sm241 O269 2.464 . S
Sm241 O270 2.396 1_554 S
C242 Sm240 2.846 1_554 S
C242 C243 1.506 . S
C242 O260 1.261 . S
C242 O261 1.242 . S
C243 C242 1.506 . S
C243 C244 1.358 . S
C243 C248 1.382 . S
C244 C243 1.358 . S
C244 C245 1.385 . S
C244 H272 0.930 . S
C245 C244 1.385 . S
C245 C246 1.395 . S
C245 H273 0.929 . S
C246 C245 1.395 . S
C246 C247 1.335 . S
C247 C246 1.335 . S
C247 C248 1.398 . S
C247 H274 0.930 . S
C248 C243 1.382 . S
C248 C247 1.398 . S
C248 H275 0.929 . S
C249 O262 1.271 . S
C249 O263 1.251 . S
C250 O264 1.252 . S
C250 O265 1.272 . S
C251 Sm241 2.846 1_556 S
C251 C252 1.506 . S
C251 O266 1.261 . S
C251 O267 1.242 . S
C252 C251 1.506 . S
C252 C253 1.358 . S
C252 C257 1.382 . S
C253 C252 1.358 . S
C253 C254 1.385 . S
C253 H276 0.930 . S
C254 C253 1.385 . S
C254 C255 1.395 . S
C254 H277 0.929 . S
C255 C254 1.395 . S
C255 C256 1.335 . S
C256 C255 1.335 . S
C256 C257 1.398 . S
C256 H278 0.930 . S
C257 C252 1.382 . S
C257 C256 1.398 . S
C257 H279 0.929 . S
C258 O268 1.271 . S
C258 O269 1.251 . S
C259 O270 1.252 . S
C259 O271 1.272 . S
O260 Sm240 2.543 1_554 S
O260 C242 1.261 . S
O261 Sm240 2.450 1_554 S
O261 C242 1.242 . S
O262 Sm240 2.681 . S
O262 Sm241 2.386 1_556 S
O262 C249 1.271 . S
O263 Sm240 2.464 . S
O263 C249 1.251 . S
O264 Sm240 2.396 1_554 S
O264 C250 1.252 . S
O265 Sm241 2.408 . S
O265 C250 1.272 . S
O266 Sm241 2.543 1_556 S
O266 C251 1.261 . S
O267 Sm241 2.450 1_556 S
O267 C251 1.242 . S
O268 Sm240 2.386 1_554 S
O268 Sm241 2.681 . S
O268 C258 1.271 . S
O269 Sm241 2.464 . S
O269 C258 1.251 . S
O270 Sm241 2.396 1_556 S
O270 C259 1.252 . S
O271 Sm240 2.408 . S
O271 C259 1.272 . S
H272 C244 0.930 . S
H273 C245 0.929 . S
H274 C247 0.930 . S
H275 C248 0.929 . S
H276 C253 0.930 . S
H277 C254 0.929 . S
H278 C256 0.930 . S
H279 C257 0.929 . S
Sm280 C282 2.846 1_556 S
Sm280 O300 2.543 1_556 S
Sm280 O301 2.450 1_556 S
Sm280 O302 2.681 . S
Sm280 O303 2.464 . S
Sm280 O304 2.396 1_556 S
Sm280 O308 2.386 1_556 S
Sm280 O311 2.408 . S
Sm281 C291 2.846 1_554 S
Sm281 O302 2.386 1_554 S
Sm281 O305 2.408 . S
Sm281 O306 2.543 1_554 S
Sm281 O307 2.450 1_554 S
Sm281 O308 2.681 . S
Sm281 O309 2.464 . S
Sm281 O310 2.396 1_554 S
C282 Sm280 2.846 1_554 S
C282 C283 1.506 . S
C282 O300 1.261 . S
C282 O301 1.242 . S
C283 C282 1.506 . S
C283 C284 1.358 . S
C283 C288 1.382 . S
C284 C283 1.358 . S
C284 C285 1.385 . S
C284 H312 0.930 . S
C285 C284 1.385 . S
C285 C286 1.395 . S
C285 H313 0.929 . S
C286 C285 1.395 . S
C286 C287 1.335 . S
C287 C286 1.335 . S
C287 C288 1.398 . S
C287 H314 0.930 . S
C288 C283 1.382 . S
C288 C287 1.398 . S
C288 H315 0.929 . S
C289 O302 1.271 . S
C289 O303 1.251 . S
C290 O304 1.252 . S
C290 O305 1.272 . S
C291 Sm281 2.846 1_556 S
C291 C292 1.506 . S
C291 O306 1.261 . S
C291 O307 1.242 . S
C292 C291 1.506 . S
C292 C293 1.358 . S
C292 C297 1.382 . S
C293 C292 1.358 . S
C293 C294 1.385 . S
C293 H316 0.930 . S
C294 C293 1.385 . S
C294 C295 1.395 . S
C294 H317 0.929 . S
C295 C294 1.395 . S
C295 C296 1.335 . S
C296 C295 1.335 . S
C296 C297 1.398 . S
C296 H318 0.930 . S
C297 C292 1.382 . S
C297 C296 1.398 . S
C297 H319 0.929 . S
C298 O308 1.271 . S
C298 O309 1.251 . S
C299 O310 1.252 . S
C299 O311 1.272 . S
O300 Sm280 2.543 1_554 S
O300 C282 1.261 . S
O301 Sm280 2.450 1_554 S
O301 C282 1.242 . S
O302 Sm280 2.681 . S
O302 Sm281 2.386 1_556 S
O302 C289 1.271 . S
O303 Sm280 2.464 . S
O303 C289 1.251 . S
O304 Sm280 2.396 1_554 S
O304 C290 1.252 . S
O305 Sm281 2.408 . S
O305 C290 1.272 . S
O306 Sm281 2.543 1_556 S
O306 C291 1.261 . S
O307 Sm281 2.450 1_556 S
O307 C291 1.242 . S
O308 Sm280 2.386 1_554 S
O308 Sm281 2.681 . S
O308 C298 1.271 . S
O309 Sm281 2.464 . S
O309 C298 1.251 . S
O310 Sm281 2.396 1_556 S
O310 C299 1.252 . S
O311 Sm280 2.408 . S
O311 C299 1.272 . S
H312 C284 0.930 . S
H313 C285 0.929 . S
H314 C287 0.930 . S
H315 C288 0.929 . S
H316 C293 0.930 . S
H317 C294 0.929 . S
H318 C296 0.930 . S
H319 C297 0.929 . S
H320 C326 0.930 . S
H321 C329 0.930 . S
H322 C330 0.930 . S
H323 C331 0.930 . S
H324 C334 0.930 . S
H325 C335 0.930 . S
C326 H320 0.930 . S
C326 C327 1.355 . S
C326 C328 1.415 . S
C327 C326 1.355 . S
C327 C329 1.419 . S
C328 C326 1.415 . S
C328 C333 1.425 . S
C328 C335 1.409 . S
C329 H321 0.930 . S
C329 C327 1.419 . S
C329 C330 1.362 . S
C330 H322 0.930 . S
C330 C329 1.362 . S
C330 C333 1.409 . S
C331 H323 0.930 . S
C331 C332 1.355 . S
C331 C333 1.415 . S
C332 C331 1.355 . S
C332 C334 1.419 . S
C333 C328 1.425 . S
C333 C330 1.409 . S
C333 C331 1.415 . S
C334 H324 0.930 . S
C334 C332 1.419 . S
C334 C335 1.362 . S
C335 H325 0.930 . S
C335 C328 1.409 . S
C335 C334 1.362 . S
H336 C342 0.930 . S
H337 C345 0.930 . S
H338 C346 0.930 . S
H339 C347 0.930 . S
H340 C350 0.930 . S
H341 C351 0.930 . S
C342 H336 0.930 . S
C342 C343 1.355 . S
C342 C344 1.415 . S
C343 C342 1.355 . S
C343 C345 1.419 . S
C344 C342 1.415 . S
C344 C349 1.425 . S
C344 C351 1.409 . S
C345 H337 0.930 . S
C345 C343 1.419 . S
C345 C346 1.362 . S
C346 H338 0.930 . S
C346 C345 1.362 . S
C346 C349 1.409 . S
C347 H339 0.930 . S
C347 C348 1.355 . S
C347 C349 1.415 . S
C348 C347 1.355 . S
C348 C350 1.419 . S
C349 C344 1.425 . S
C349 C346 1.409 . S
C349 C347 1.415 . S
C350 H340 0.930 . S
C350 C348 1.419 . S
C350 C351 1.362 . S
C351 H341 0.930 . S
C351 C344 1.409 . S
C351 C350 1.362 . S
H352 C358 0.930 . S
H353 C361 0.930 . S
H354 C362 0.930 . S
H355 C363 0.930 . S
H356 C366 0.930 . S
H357 C367 0.930 . S
C358 H352 0.930 . S
C358 C359 1.355 . S
C358 C360 1.415 . S
C359 C358 1.355 . S
C359 C361 1.419 . S
C360 C358 1.415 . S
C360 C365 1.425 . S
C360 C367 1.409 . S
C361 H353 0.930 . S
C361 C359 1.419 . S
C361 C362 1.362 . S
C362 H354 0.930 . S
C362 C361 1.362 . S
C362 C365 1.409 . S
C363 H355 0.930 . S
C363 C364 1.355 . S
C363 C365 1.415 . S
C364 C363 1.355 . S
C364 C366 1.419 . S
C365 C360 1.425 . S
C365 C362 1.409 . S
C365 C363 1.415 . S
C366 H356 0.930 . S
C366 C364 1.419 . S
C366 C367 1.362 . S
C367 H357 0.930 . S
C367 C360 1.409 . S
C367 C366 1.362 . S
H368 C374 0.930 . S
H369 C377 0.930 . S
H370 C378 0.930 . S
H371 C379 0.930 . S
H372 C382 0.930 . S
H373 C383 0.930 . S
C374 H368 0.930 . S
C374 C375 1.355 . S
C374 C376 1.415 . S
C375 C374 1.355 . S
C375 C377 1.419 . S
C376 C374 1.415 . S
C376 C381 1.425 . S
C376 C383 1.409 . S
C377 H369 0.930 . S
C377 C375 1.419 . S
C377 C378 1.362 . S
C378 H370 0.930 . S
C378 C377 1.362 . S
C378 C381 1.409 . S
C379 H371 0.930 . S
C379 C380 1.355 . S
C379 C381 1.415 . S
C380 C379 1.355 . S
C380 C382 1.419 . S
C381 C376 1.425 . S
C381 C378 1.409 . S
C381 C379 1.415 . S
C382 H372 0.930 . S
C382 C380 1.419 . S
C382 C383 1.362 . S
C383 H373 0.930 . S
C383 C376 1.409 . S
C383 C382 1.362 . S
H384 C390 0.930 . S
H385 C393 0.930 . S
H386 C394 0.930 . S
H387 C395 0.930 . S
H388 C398 0.930 . S
H389 C399 0.930 . S
C390 H384 0.930 . S
C390 C391 1.355 . S
C390 C392 1.415 . S
C391 C390 1.355 . S
C391 C393 1.419 . S
C392 C390 1.415 . S
C392 C397 1.425 1_565 S
C392 C399 1.409 1_565 S
C393 H385 0.930 . S
C393 C391 1.419 . S
C393 C394 1.362 . S
C394 H386 0.930 . S
C394 C393 1.362 . S
C394 C397 1.409 1_565 S
C395 H387 0.930 . S
C395 C396 1.355 . S
C395 C397 1.415 . S
C396 C395 1.355 . S
C396 C398 1.419 . S
C397 C392 1.425 1_545 S
C397 C394 1.409 1_545 S
C397 C395 1.415 . S
C398 H388 0.930 . S
C398 C396 1.419 . S
C398 C399 1.362 . S
C399 H389 0.930 . S
C399 C392 1.409 1_545 S
C399 C398 1.362 . S
H400 C406 0.930 . S
H401 C409 0.930 . S
H402 C410 0.930 . S
H403 C411 0.930 . S
H404 C414 0.930 . S
H405 C415 0.930 . S
C406 H400 0.930 . S
C406 C407 1.355 . S
C406 C408 1.415 . S
C407 C406 1.355 . S
C407 C409 1.419 . S
C408 C406 1.415 . S
C408 C413 1.425 . S
C408 C415 1.409 . S
C409 H401 0.930 . S
C409 C407 1.419 . S
C409 C410 1.362 . S
C410 H402 0.930 . S
C410 C409 1.362 . S
C410 C413 1.409 . S
C411 H403 0.930 . S
C411 C412 1.355 . S
C411 C413 1.415 . S
C412 C411 1.355 . S
C412 C414 1.419 . S
C413 C408 1.425 . S
C413 C410 1.409 . S
C413 C411 1.415 . S
C414 H404 0.930 . S
C414 C412 1.419 . S
C414 C415 1.362 . S
C415 H405 0.930 . S
C415 C408 1.409 . S
C415 C414 1.362 . S
H416 C422 0.930 . S
H417 C425 0.930 . S
H418 C426 0.930 1_545 S
H419 C427 0.930 . S
H420 C430 0.930 . S
H421 C431 0.930 1_565 S
C422 H416 0.930 . S
C422 C423 1.355 . S
C422 C424 1.415 . S
C423 C422 1.355 . S
C423 C425 1.419 . S
C424 C422 1.415 . S
C424 C429 1.425 1_565 S
C424 C431 1.409 1_565 S
C425 H417 0.930 . S
C425 C423 1.419 . S
C425 C426 1.362 . S
C426 H418 0.930 1_565 S
C426 C425 1.362 . S
C426 C429 1.409 1_565 S
C427 H419 0.930 . S
C427 C428 1.355 . S
C427 C429 1.415 . S
C428 C427 1.355 . S
C428 C430 1.419 . S
C429 C424 1.425 1_545 S
C429 C426 1.409 1_545 S
C429 C427 1.415 . S
C430 H420 0.930 . S
C430 C428 1.419 . S
C430 C431 1.362 . S
C431 H421 0.930 1_545 S
C431 C424 1.409 1_545 S
C431 C430 1.362 . S
H432 C438 0.930 . S
H433 C441 0.930 . S
H434 C442 0.930 . S
H435 C443 0.930 . S
H436 C446 0.930 . S
H437 C447 0.930 . S
C438 H432 0.930 . S
C438 C439 1.355 . S
C438 C440 1.415 . S
C439 C438 1.355 . S
C439 C441 1.419 . S
C440 C438 1.415 . S
C440 C445 1.425 . S
C440 C447 1.409 . S
C441 H433 0.930 . S
C441 C439 1.419 . S
C441 C442 1.362 . S
C442 H434 0.930 . S
C442 C441 1.362 . S
C442 C445 1.409 . S
C443 H435 0.930 . S
C443 C444 1.355 . S
C443 C445 1.415 . S
C444 C443 1.355 . S
C444 C446 1.419 . S
C445 C440 1.425 . S
C445 C442 1.409 . S
C445 C443 1.415 . S
C446 H436 0.930 . S
C446 C444 1.419 . S
C446 C447 1.362 . S
C447 H437 0.930 . S
C447 C440 1.409 . S
C447 C446 1.362 . S
H448 C454 0.930 . S
H449 C457 0.930 . S
H450 C458 0.930 . S
H451 C459 0.930 . S
H452 C462 0.930 . S
H453 C463 0.930 . S
C454 H448 0.930 . S
C454 C455 1.355 1_554 S
C454 C456 1.415 . S
C455 C454 1.355 1_556 S
C455 C457 1.419 . S
C456 C454 1.415 . S
C456 C461 1.425 1_554 S
C456 C463 1.409 . S
C457 H449 0.930 . S
C457 C455 1.419 . S
C457 C458 1.362 . S
C458 H450 0.930 . S
C458 C457 1.362 . S
C458 C461 1.409 . S
C459 H451 0.930 . S
C459 C460 1.355 . S
C459 C461 1.415 . S
C460 C459 1.355 . S
C460 C462 1.419 1_556 S
C461 C456 1.425 1_556 S
C461 C458 1.409 . S
C461 C459 1.415 . S
C462 H452 0.930 . S
C462 C460 1.419 1_554 S
C462 C463 1.362 . S
C463 H453 0.930 . S
C463 C456 1.409 . S
C463 C462 1.362 . S
H464 C470 0.930 . S
H465 C473 0.930 . S
H466 C474 0.930 . S
H467 C475 0.930 . S
H468 C478 0.930 . S
H469 C479 0.930 . S
C470 H464 0.930 . S
C470 C471 1.355 1_554 S
C470 C472 1.415 . S
C471 C470 1.355 1_556 S
C471 C473 1.419 . S
C472 C470 1.415 . S
C472 C477 1.425 1_564 S
C472 C479 1.409 1_565 S
C473 H465 0.930 . S
C473 C471 1.419 . S
C473 C474 1.362 . S
C474 H466 0.930 . S
C474 C473 1.362 . S
C474 C477 1.409 1_565 S
C475 H467 0.930 . S
C475 C476 1.353 1_556 S
C475 C477 1.415 . S
C476 C475 1.353 1_554 S
C476 C478 1.421 . S
C477 C472 1.425 1_546 S
C477 C474 1.409 1_545 S
C477 C475 1.415 . S
C478 H468 0.930 . S
C478 C476 1.421 . S
C478 C479 1.362 . S
C479 H469 0.930 . S
C479 C472 1.409 1_545 S
C479 C478 1.362 . S
H480 C486 0.930 . S
H481 C489 0.930 . S
H482 C490 0.930 . S
H483 C491 0.930 . S
H484 C494 0.930 . S
H485 C495 0.930 . S
C486 H480 0.930 . S
C486 C487 1.355 1_554 S
C486 C488 1.415 . S
C487 C486 1.355 1_556 S
C487 C489 1.419 . S
C488 C486 1.415 . S
C488 C493 1.425 1_554 S
C488 C495 1.409 . S
C489 H481 0.930 . S
C489 C487 1.419 . S
C489 C490 1.362 . S
C490 H482 0.930 . S
C490 C489 1.362 . S
C490 C493 1.409 . S
C491 H483 0.930 . S
C491 C492 1.355 1_556 S
C491 C493 1.415 . S
C492 C491 1.355 1_554 S
C492 C494 1.419 . S
C493 C488 1.425 1_556 S
C493 C490 1.409 . S
C493 C491 1.415 . S
C494 H484 0.930 . S
C494 C492 1.419 . S
C494 C495 1.362 . S
C495 H485 0.930 . S
C495 C488 1.409 . S
C495 C494 1.362 . S
H496 C502 0.930 . S
H497 C505 0.930 . S
H498 C506 0.930 . S
H499 C507 0.930 . S
H500 C510 0.930 . S
H501 C511 0.930 . S
C502 H496 0.930 . S
C502 C503 1.355 1_556 S
C502 C504 1.415 . S
C503 C502 1.355 1_554 S
C503 C505 1.419 . S
C504 C502 1.415 . S
C504 C509 1.425 1_546 S
C504 C511 1.409 1_545 S
C505 H497 0.930 . S
C505 C503 1.419 . S
C505 C506 1.362 . S
C506 H498 0.930 . S
C506 C505 1.362 . S
C506 C509 1.409 1_545 S
C507 H499 0.930 . S
C507 C508 1.355 1_554 S
C507 C509 1.415 . S
C508 C507 1.355 1_556 S
C508 C510 1.419 . S
C509 C504 1.425 1_564 S
C509 C506 1.409 1_565 S
C509 C507 1.415 . S
C510 H500 0.930 . S
C510 C508 1.419 . S
C510 C511 1.362 . S
C511 H501 0.930 . S
C511 C504 1.409 1_565 S
C511 C510 1.362 . S
H512 C518 0.930 . S
H513 C521 0.930 . S
H514 C522 0.930 . S
H515 C523 0.930 . S
H516 C526 0.930 . S
H517 C527 0.930 . S
C518 H512 0.930 . S
C518 C519 1.355 . S
C518 C520 1.415 1_554 S
C519 C518 1.355 . S
C519 C521 1.419 . S
C520 C518 1.415 1_556 S
C520 C525 1.425 . S
C520 C527 1.409 . S
C521 H513 0.930 . S
C521 C519 1.419 . S
C521 C522 1.362 1_554 S
C522 H514 0.930 . S
C522 C521 1.362 1_556 S
C522 C525 1.409 . S
C523 H515 0.930 . S
C523 C524 1.355 . S
C523 C525 1.415 . S
C524 C523 1.355 . S
C524 C526 1.419 . S
C525 C520 1.425 . S
C525 C522 1.409 . S
C525 C523 1.415 . S
C526 H516 0.930 . S
C526 C524 1.419 . S
C526 C527 1.362 . S
C527 H517 0.930 . S
C527 C520 1.409 . S
C527 C526 1.362 . S
H528 C534 0.930 . S
H529 C537 0.930 . S
H530 C538 0.930 . S
H531 C539 0.930 . S
H532 C542 0.930 . S
H533 C543 0.930 . S
C534 H528 0.930 . S
C534 C535 1.355 . S
C534 C536 1.415 1_554 S
C535 C534 1.355 . S
C535 C537 1.419 . S
C536 C534 1.415 1_556 S
C536 C541 1.425 . S
C536 C543 1.409 . S
C537 H529 0.930 . S
C537 C535 1.419 . S
C537 C538 1.362 1_554 S
C538 H530 0.930 . S
C538 C537 1.362 1_556 S
C538 C541 1.409 . S
C539 H531 0.930 . S
C539 C540 1.355 . S
C539 C541 1.415 . S
C540 C539 1.355 . S
C540 C542 1.419 . S
C541 C536 1.425 . S
C541 C538 1.409 . S
C541 C539 1.415 . S
C542 H532 0.930 . S
C542 C540 1.419 . S
C542 C543 1.362 . S
C543 H533 0.930 . S
C543 C536 1.409 . S
C543 C542 1.362 . S
H544 C550 0.930 . S
H545 C553 0.930 . S
H546 C554 0.930 . S
H547 C555 0.930 . S
H548 C558 0.930 . S
H549 C559 0.930 . S
C550 H544 0.930 . S
C550 C551 1.355 . S
C550 C552 1.415 . S
C551 C550 1.355 . S
C551 C553 1.419 . S
C552 C550 1.415 . S
C552 C557 1.425 . S
C552 C559 1.409 . S
C553 H545 0.930 . S
C553 C551 1.419 . S
C553 C554 1.362 . S
C554 H546 0.930 . S
C554 C553 1.362 . S
C554 C557 1.409 . S
C555 H547 0.930 . S
C555 C556 1.355 . S
C555 C557 1.415 1_556 S
C556 C555 1.355 . S
C556 C558 1.419 . S
C557 C552 1.425 . S
C557 C554 1.409 . S
C557 C555 1.415 1_554 S
C558 H548 0.930 . S
C558 C556 1.419 . S
C558 C559 1.362 1_556 S
C559 H549 0.930 . S
C559 C552 1.409 . S
C559 C558 1.362 1_554 S
H560 C566 0.930 . S
H561 C569 0.930 . S
H562 C570 0.930 . S
H563 C571 0.930 . S
H564 C574 0.930 . S
H565 C575 0.930 . S
C566 H560 0.930 . S
C566 C567 1.355 . S
C566 C568 1.415 1_556 S
C567 C566 1.355 . S
C567 C569 1.419 . S
C568 C566 1.415 1_554 S
C568 C573 1.425 . S
C568 C575 1.409 . S
C569 H561 0.930 . S
C569 C567 1.419 . S
C569 C570 1.362 1_556 S
C570 H562 0.930 . S
C570 C569 1.362 1_554 S
C570 C573 1.409 . S
C571 H563 0.930 . S
C571 C572 1.355 . S
C571 C573 1.415 . S
C572 C571 1.355 . S
C572 C574 1.419 . S
C573 C568 1.425 . S
C573 C570 1.409 . S
C573 C571 1.415 . S
C574 H564 0.930 . S
C574 C572 1.419 . S
C574 C575 1.362 . S
C575 H565 0.930 . S
C575 C568 1.409 . S
C575 C574 1.362 . S
H576 C582 0.930 . S
H577 C585 0.930 . S
H578 C586 0.930 . S
H579 C587 0.930 . S
H580 C590 0.930 . S
H581 C591 0.930 . S
C582 H576 0.930 . S
C582 C583 1.355 . S
C582 C584 1.415 . S
C583 C582 1.355 . S
C583 C585 1.419 . S
C584 C582 1.415 . S
C584 C589 1.425 . S
C584 C591 1.409 . S
C585 H577 0.930 . S
C585 C583 1.419 . S
C585 C586 1.362 . S
C586 H578 0.930 . S
C586 C585 1.362 . S
C586 C589 1.409 . S
C587 H579 0.930 . S
C587 C588 1.355 . S
C587 C589 1.415 . S
C588 C587 1.355 . S
C588 C590 1.419 . S
C589 C584 1.425 . S
C589 C586 1.409 . S
C589 C587 1.415 . S
C590 H580 0.930 . S
C590 C588 1.419 . S
C590 C591 1.362 . S
C591 H581 0.930 . S
C591 C584 1.409 . S
C591 C590 1.362 . S
H592 C598 0.930 . S
H593 C601 0.930 . S
H594 C602 0.930 . S
H595 C603 0.930 . S
H596 C606 0.930 . S
H597 C607 0.930 . S
C598 H592 0.930 . S
C598 C599 1.355 . S
C598 C600 1.415 . S
C599 C598 1.355 . S
C599 C601 1.419 . S
C600 C598 1.415 . S
C600 C605 1.425 . S
C600 C607 1.409 . S
C601 H593 0.930 . S
C601 C599 1.419 . S
C601 C602 1.362 . S
C602 H594 0.930 . S
C602 C601 1.362 . S
C602 C605 1.409 . S
C603 H595 0.930 . S
C603 C604 1.355 . S
C603 C605 1.415 . S
C604 C603 1.355 . S
C604 C606 1.419 . S
C605 C600 1.425 . S
C605 C602 1.409 . S
C605 C603 1.415 . S
C606 H596 0.930 . S
C606 C604 1.419 . S
C606 C607 1.362 . S
C607 H597 0.930 . S
C607 C600 1.409 . S
C607 C606 1.362 . S
H608 C614 0.930 . S
H609 C617 0.930 . S
H610 C618 0.930 . S
H611 C619 0.930 . S
H612 C622 0.930 . S
H613 C623 0.930 . S
C614 H608 0.930 . S
C614 C615 1.355 . S
C614 C616 1.415 . S
C615 C614 1.355 . S
C615 C617 1.419 . S
C616 C614 1.415 . S
C616 C621 1.425 . S
C616 C623 1.409 . S
C617 H609 0.930 . S
C617 C615 1.419 . S
C617 C618 1.362 . S
C618 H610 0.930 . S
C618 C617 1.362 . S
C618 C621 1.409 . S
C619 H611 0.930 . S
C619 C620 1.355 . S
C619 C621 1.415 . S
C620 C619 1.355 . S
C620 C622 1.419 . S
C621 C616 1.425 . S
C621 C618 1.409 . S
C621 C619 1.415 . S
C622 H612 0.930 . S
C622 C620 1.419 . S
C622 C623 1.362 . S
C623 H613 0.930 . S
C623 C616 1.409 . S
C623 C622 1.362 . S
H624 C630 0.930 . S
H625 C633 0.930 . S
H626 C634 0.930 . S
H627 C635 0.930 . S
H628 C638 0.930 . S
H629 C639 0.930 . S
C630 H624 0.930 . S
C630 C631 1.355 . S
C630 C632 1.415 . S
C631 C630 1.355 . S
C631 C633 1.419 . S
C632 C630 1.415 . S
C632 C637 1.425 . S
C632 C639 1.409 . S
C633 H625 0.930 . S
C633 C631 1.419 . S
C633 C634 1.362 . S
C634 H626 0.930 . S
C634 C633 1.362 . S
C634 C637 1.409 . S
C635 H627 0.930 . S
C635 C636 1.355 . S
C635 C637 1.415 . S
C636 C635 1.355 . S
C636 C638 1.419 . S
C637 C632 1.425 . S
C637 C634 1.409 . S
C637 C635 1.415 . S
C638 H628 0.930 . S
C638 C636 1.419 . S
C638 C639 1.362 . S
C639 H629 0.930 . S
C639 C632 1.409 . S
C639 C638 1.362 . S
H640 C646 0.930 . S
H641 C649 0.930 . S
H642 C650 0.930 . S
H643 C651 0.930 . S
H644 C654 0.930 . S
H645 C655 0.930 . S
C646 H640 0.930 . S
C646 C647 1.355 . S
C646 C648 1.415 . S
C647 C646 1.355 . S
C647 C649 1.419 . S
C648 C646 1.415 . S
C648 C653 1.425 1_455 S
C648 C655 1.409 1_455 S
C649 H641 0.930 . S
C649 C647 1.419 . S
C649 C650 1.362 . S
C650 H642 0.930 . S
C650 C649 1.362 . S
C650 C653 1.409 1_455 S
C651 H643 0.930 . S
C651 C652 1.355 . S
C651 C653 1.415 . S
C652 C651 1.355 . S
C652 C654 1.419 . S
C653 C648 1.425 1_655 S
C653 C650 1.409 1_655 S
C653 C651 1.415 . S
C654 H644 0.930 . S
C654 C652 1.419 . S
C654 C655 1.362 . S
C655 H645 0.930 . S
C655 C648 1.409 1_655 S
C655 C654 1.362 . S
H656 C662 0.930 . S
H657 C665 0.930 . S
H658 C666 0.930 . S
H659 C667 0.930 . S
H660 C670 0.930 . S
H661 C671 0.930 . S
C662 H656 0.930 . S
C662 C663 1.355 . S
C662 C664 1.415 . S
C663 C662 1.355 . S
C663 C665 1.419 . S
C664 C662 1.415 . S
C664 C669 1.425 1_655 S
C664 C671 1.409 1_655 S
C665 H657 0.930 . S
C665 C663 1.419 . S
C665 C666 1.362 . S
C666 H658 0.930 . S
C666 C665 1.362 . S
C666 C669 1.409 1_655 S
C667 H659 0.930 . S
C667 C668 1.355 . S
C667 C669 1.415 . S
C668 C667 1.355 . S
C668 C670 1.419 . S
C669 C664 1.425 1_455 S
C669 C666 1.409 1_455 S
C669 C667 1.415 . S
C670 H660 0.930 . S
C670 C668 1.419 . S
C670 C671 1.362 . S
C671 H661 0.930 . S
C671 C664 1.409 1_455 S
C671 C670 1.362 . S
H672 C678 0.930 . S
H673 C681 0.930 . S
H674 C682 0.930 . S
H675 C683 0.930 . S
H676 C686 0.930 . S
H677 C687 0.930 . S
C678 H672 0.930 . S
C678 C679 1.355 . S
C678 C680 1.415 . S
C679 C678 1.355 . S
C679 C681 1.419 . S
C680 C678 1.415 . S
C680 C685 1.425 . S
C680 C687 1.409 . S
C681 H673 0.930 . S
C681 C679 1.419 . S
C681 C682 1.362 . S
C682 H674 0.930 . S
C682 C681 1.362 . S
C682 C685 1.409 . S
C683 H675 0.930 . S
C683 C684 1.355 . S
C683 C685 1.415 . S
C684 C683 1.355 . S
C684 C686 1.419 . S
C685 C680 1.425 . S
C685 C682 1.409 . S
C685 C683 1.415 . S
C686 H676 0.930 . S
C686 C684 1.419 . S
C686 C687 1.362 . S
C687 H677 0.930 . S
C687 C680 1.409 . S
C687 C686 1.362 . S
H688 C694 0.930 . S
H689 C697 0.930 . S
H690 C698 0.930 . S
H691 C699 0.930 . S
H692 C702 0.930 . S
H693 C703 0.930 . S
C694 H688 0.930 . S
C694 C695 1.355 . S
C694 C696 1.415 . S
C695 C694 1.355 . S
C695 C697 1.419 . S
C696 C694 1.415 . S
C696 C701 1.425 . S
C696 C703 1.409 . S
C697 H689 0.930 . S
C697 C695 1.419 . S
C697 C698 1.362 . S
C698 H690 0.930 . S
C698 C697 1.362 . S
C698 C701 1.409 . S
C699 H691 0.930 . S
C699 C700 1.355 . S
C699 C701 1.415 . S
C700 C699 1.355 . S
C700 C702 1.419 . S
C701 C696 1.425 . S
C701 C698 1.409 . S
C701 C699 1.415 . S
C702 H692 0.930 . S
C702 C700 1.419 . S
C702 C703 1.362 . S
C703 H693 0.930 . S
C703 C696 1.409 . S
C703 C702 1.362 . S
C327 C6 1.655 . S
C332 C295 1.655 . S
C343 C255 1.690 . S
C348 C46 1.689 . S
C359 C206 1.680 . S
C364 C95 1.679 . S
C375 C166 1.686 . S
C380 C135 1.686 . S
C391 C89 1.578 . S
C396 C9 1.606 . S
C407 C49 1.561 . S
C412 C129 1.537 . S
C423 C138 1.611 . S
C428 C58 1.599 . S
C439 C98 1.592 . S
C444 C18 1.561 . S
C455 C169 1.404 . S
C460 C249 1.403 . S
C471 C209 1.405 . S
C476 C289 1.411 1_554 S
C487 C298 1.466 1_556 S
C492 C218 1.459 . S
C503 C258 1.408 . S
C508 C178 1.417 1_556 S
C519 C19 2.088 . S
C524 C10 2.088 . S
C535 C59 2.065 . S
C540 C50 2.065 . S
C551 C99 2.062 . S
C556 C90 2.062 . S
C567 C130 2.048 . S
C572 C139 2.048 . S
C583 C170 2.066 . S
C588 C179 2.066 . S
C599 C219 2.057 . S
C604 C210 2.057 . S
C615 C250 2.086 . S
C620 C259 2.086 . S
C631 C290 2.036 . S
C636 C299 2.036 . S
C647 C15 2.269 . S
C652 C55 2.286 . S
C663 C126 2.262 . S
C668 C86 2.286 . S
C679 C175 2.291 . S
C684 C215 2.261 . S
C695 C286 2.292 . S
C700 C246 2.266 . S
