# Generated by pormake.
# Topology dei, (4)-cn, num edge types: 1
# Building blocks:
#     Node 0, Type 0, BuildingBlock: NAHDIM_clean_sbu_0, # of connection points: 4
#     Node 1, Type 0, BuildingBlock: NAHDIM_clean_sbu_0, # of connection points: 4
#     Node 2, Type 0, BuildingBlock: NAHDIM_clean_sbu_0, # of connection points: 4
#     Node 3, Type 0, BuildingBlock: NAHDIM_clean_sbu_0, # of connection points: 4
#     Node 4, Type 0, BuildingBlock: NAHDIM_clean_sbu_0, # of connection points: 4
#     Node 5, Type 0, BuildingBlock: NAHDIM_clean_sbu_0, # of connection points: 4
#     Node 6, Type 0, BuildingBlock: NAHDIM_clean_sbu_0, # of connection points: 4
#     Node 7, Type 0, BuildingBlock: NAHDIM_clean_sbu_0, # of connection points: 4
#     Node 8, Type 0, BuildingBlock: NAHDIM_clean_sbu_0, # of connection points: 4
#     Node 9, Type 0, BuildingBlock: NAHDIM_clean_sbu_0, # of connection points: 4
#     Node 10, Type 0, BuildingBlock: NAHDIM_clean_sbu_0, # of connection points: 4
#     Node 11, Type 0, BuildingBlock: NAHDIM_clean_sbu_0, # of connection points: 4
#     Node 12, Type 0, BuildingBlock: NAHDIM_clean_sbu_0, # of connection points: 4
#     Node 13, Type 0, BuildingBlock: NAHDIM_clean_sbu_0, # of connection points: 4
#     Node 14, Type 0, BuildingBlock: NAHDIM_clean_sbu_0, # of connection points: 4
#     Node 15, Type 0, BuildingBlock: NAHDIM_clean_sbu_0, # of connection points: 4
#     Node 16, Type 0, BuildingBlock: NAHDIM_clean_sbu_0, # of connection points: 4
#     Node 17, Type 0, BuildingBlock: NAHDIM_clean_sbu_0, # of connection points: 4
#     Node 18, Type 0, BuildingBlock: NAHDIM_clean_sbu_0, # of connection points: 4
#     Node 19, Type 0, BuildingBlock: NAHDIM_clean_sbu_0, # of connection points: 4
#     Node 20, Type 0, BuildingBlock: NAHDIM_clean_sbu_0, # of connection points: 4
#     Node 21, Type 0, BuildingBlock: NAHDIM_clean_sbu_0, # of connection points: 4
#     Node 22, Type 0, BuildingBlock: NAHDIM_clean_sbu_0, # of connection points: 4
#     Node 23, Type 0, BuildingBlock: NAHDIM_clean_sbu_0, # of connection points: 4
#     Node 24, Type 0, BuildingBlock: NAHDIM_clean_sbu_0, # of connection points: 4
#     Node 25, Type 0, BuildingBlock: NAHDIM_clean_sbu_0, # of connection points: 4
#     Node 26, Type 0, BuildingBlock: NAHDIM_clean_sbu_0, # of connection points: 4
#     Node 27, Type 0, BuildingBlock: NAHDIM_clean_sbu_0, # of connection points: 4
#     Node 28, Type 0, BuildingBlock: NAHDIM_clean_sbu_0, # of connection points: 4
#     Node 29, Type 0, BuildingBlock: NAHDIM_clean_sbu_0, # of connection points: 4
#     Node 30, Type 0, BuildingBlock: NAHDIM_clean_sbu_0, # of connection points: 4
#     Node 31, Type 0, BuildingBlock: NAHDIM_clean_sbu_0, # of connection points: 4
#     Edge 32, Type (0, 0), BuildingBlock: ZUJKAS_clean_linker_0, # of connection points: 2
#     Edge 33, Type (0, 0), BuildingBlock: ZUJKAS_clean_linker_0, # of connection points: 2
#     Edge 34, Type (0, 0), BuildingBlock: ZUJKAS_clean_linker_0, # of connection points: 2
#     Edge 35, Type (0, 0), BuildingBlock: ZUJKAS_clean_linker_0, # of connection points: 2
#     Edge 36, Type (0, 0), BuildingBlock: ZUJKAS_clean_linker_0, # of connection points: 2
#     Edge 37, Type (0, 0), BuildingBlock: ZUJKAS_clean_linker_0, # of connection points: 2
#     Edge 38, Type (0, 0), BuildingBlock: ZUJKAS_clean_linker_0, # of connection points: 2
#     Edge 39, Type (0, 0), BuildingBlock: ZUJKAS_clean_linker_0, # of connection points: 2
#     Edge 40, Type (0, 0), BuildingBlock: ZUJKAS_clean_linker_0, # of connection points: 2
#     Edge 41, Type (0, 0), BuildingBlock: ZUJKAS_clean_linker_0, # of connection points: 2
#     Edge 42, Type (0, 0), BuildingBlock: ZUJKAS_clean_linker_0, # of connection points: 2
#     Edge 43, Type (0, 0), BuildingBlock: ZUJKAS_clean_linker_0, # of connection points: 2
#     Edge 44, Type (0, 0), BuildingBlock: ZUJKAS_clean_linker_0, # of connection points: 2
#     Edge 45, Type (0, 0), BuildingBlock: ZUJKAS_clean_linker_0, # of connection points: 2
#     Edge 46, Type (0, 0), BuildingBlock: ZUJKAS_clean_linker_0, # of connection points: 2
#     Edge 47, Type (0, 0), BuildingBlock: ZUJKAS_clean_linker_0, # of connection points: 2
#     Edge 48, Type (0, 0), BuildingBlock: ZUJKAS_clean_linker_0, # of connection points: 2
#     Edge 49, Type (0, 0), BuildingBlock: ZUJKAS_clean_linker_0, # of connection points: 2
#     Edge 50, Type (0, 0), BuildingBlock: ZUJKAS_clean_linker_0, # of connection points: 2
#     Edge 51, Type (0, 0), BuildingBlock: ZUJKAS_clean_linker_0, # of connection points: 2
#     Edge 52, Type (0, 0), BuildingBlock: ZUJKAS_clean_linker_0, # of connection points: 2
#     Edge 53, Type (0, 0), BuildingBlock: ZUJKAS_clean_linker_0, # of connection points: 2
#     Edge 54, Type (0, 0), BuildingBlock: ZUJKAS_clean_linker_0, # of connection points: 2
#     Edge 55, Type (0, 0), BuildingBlock: ZUJKAS_clean_linker_0, # of connection points: 2
#     Edge 56, Type (0, 0), BuildingBlock: ZUJKAS_clean_linker_0, # of connection points: 2
#     Edge 57, Type (0, 0), BuildingBlock: ZUJKAS_clean_linker_0, # of connection points: 2
#     Edge 58, Type (0, 0), BuildingBlock: ZUJKAS_clean_linker_0, # of connection points: 2
#     Edge 59, Type (0, 0), BuildingBlock: ZUJKAS_clean_linker_0, # of connection points: 2
#     Edge 60, Type (0, 0), BuildingBlock: ZUJKAS_clean_linker_0, # of connection points: 2
#     Edge 61, Type (0, 0), BuildingBlock: ZUJKAS_clean_linker_0, # of connection points: 2
#     Edge 62, Type (0, 0), BuildingBlock: ZUJKAS_clean_linker_0, # of connection points: 2
#     Edge 63, Type (0, 0), BuildingBlock: ZUJKAS_clean_linker_0, # of connection points: 2
#     Edge 64, Type (0, 0), BuildingBlock: ZUJKAS_clean_linker_0, # of connection points: 2
#     Edge 65, Type (0, 0), BuildingBlock: ZUJKAS_clean_linker_0, # of connection points: 2
#     Edge 66, Type (0, 0), BuildingBlock: ZUJKAS_clean_linker_0, # of connection points: 2
#     Edge 67, Type (0, 0), BuildingBlock: ZUJKAS_clean_linker_0, # of connection points: 2
#     Edge 68, Type (0, 0), BuildingBlock: ZUJKAS_clean_linker_0, # of connection points: 2
#     Edge 69, Type (0, 0), BuildingBlock: ZUJKAS_clean_linker_0, # of connection points: 2
#     Edge 70, Type (0, 0), BuildingBlock: ZUJKAS_clean_linker_0, # of connection points: 2
#     Edge 71, Type (0, 0), BuildingBlock: ZUJKAS_clean_linker_0, # of connection points: 2
#     Edge 72, Type (0, 0), BuildingBlock: ZUJKAS_clean_linker_0, # of connection points: 2
#     Edge 73, Type (0, 0), BuildingBlock: ZUJKAS_clean_linker_0, # of connection points: 2
#     Edge 74, Type (0, 0), BuildingBlock: ZUJKAS_clean_linker_0, # of connection points: 2
#     Edge 75, Type (0, 0), BuildingBlock: ZUJKAS_clean_linker_0, # of connection points: 2
#     Edge 76, Type (0, 0), BuildingBlock: ZUJKAS_clean_linker_0, # of connection points: 2
#     Edge 77, Type (0, 0), BuildingBlock: ZUJKAS_clean_linker_0, # of connection points: 2
#     Edge 78, Type (0, 0), BuildingBlock: ZUJKAS_clean_linker_0, # of connection points: 2
#     Edge 79, Type (0, 0), BuildingBlock: ZUJKAS_clean_linker_0, # of connection points: 2
#     Edge 80, Type (0, 0), BuildingBlock: ZUJKAS_clean_linker_0, # of connection points: 2
#     Edge 81, Type (0, 0), BuildingBlock: ZUJKAS_clean_linker_0, # of connection points: 2
#     Edge 82, Type (0, 0), BuildingBlock: ZUJKAS_clean_linker_0, # of connection points: 2
#     Edge 83, Type (0, 0), BuildingBlock: ZUJKAS_clean_linker_0, # of connection points: 2
#     Edge 84, Type (0, 0), BuildingBlock: ZUJKAS_clean_linker_0, # of connection points: 2
#     Edge 85, Type (0, 0), BuildingBlock: ZUJKAS_clean_linker_0, # of connection points: 2
#     Edge 86, Type (0, 0), BuildingBlock: ZUJKAS_clean_linker_0, # of connection points: 2
#     Edge 87, Type (0, 0), BuildingBlock: ZUJKAS_clean_linker_0, # of connection points: 2
#     Edge 88, Type (0, 0), BuildingBlock: ZUJKAS_clean_linker_0, # of connection points: 2
#     Edge 89, Type (0, 0), BuildingBlock: ZUJKAS_clean_linker_0, # of connection points: 2
#     Edge 90, Type (0, 0), BuildingBlock: ZUJKAS_clean_linker_0, # of connection points: 2
#     Edge 91, Type (0, 0), BuildingBlock: ZUJKAS_clean_linker_0, # of connection points: 2
#     Edge 92, Type (0, 0), BuildingBlock: ZUJKAS_clean_linker_0, # of connection points: 2
#     Edge 93, Type (0, 0), BuildingBlock: ZUJKAS_clean_linker_0, # of connection points: 2
#     Edge 94, Type (0, 0), BuildingBlock: ZUJKAS_clean_linker_0, # of connection points: 2
#     Edge 95, Type (0, 0), BuildingBlock: ZUJKAS_clean_linker_0, # of connection points: 2
# Relax obj value: 0.226
# Max RMSD: 0.088
# Mean RMSD: 0.088
data_MOF--net-dei--node1-NAHDIM_clean_sbu_0--edge1-ZUJKAS_clean_linker_0
_symmetry_space_group_name_H-M    P1
_symmetry_Int_Tables_number       1
_symmetry_cell_setting            triclinic
loop_
_symmetry_equiv_pos_as_xyz
'x, y, z'
_cell_length_a     68.383652
_cell_length_b     68.353005
_cell_length_c     121.06652
_cell_angle_alpha  89.981708
_cell_angle_beta   89.983567
_cell_angle_gamma 89.991593
loop_
_atom_site_label
_atom_site_type_symbol
_atom_site_fract_x
_atom_site_fract_y
_atom_site_fract_z
_atom_type_partial_charge
C0 C 0.15089 0.57429 0.03647 0.0
O1 O 0.13983 0.56981 0.04498 0.0
O2 O 0.14429 0.60849 0.05895 0.0
Zn3 Zn 0.13955 0.61278 0.04277 0.0
O4 O 0.11042 0.61116 0.04022 0.0
C5 C 0.16711 0.64434 0.04078 0.0
O6 O 0.17874 0.63184 0.04576 0.0
O7 O 0.15316 0.59215 0.03391 0.0
C8 C 0.09995 0.62628 0.03864 0.0
O9 O 0.10836 0.64354 0.03828 0.0
C10 C 0.13915 0.62198 0.06556 0.0
O11 O 0.13156 0.63812 0.06151 0.0
O12 O 0.14973 0.63922 0.03849 0.0
C13 C 0.67493 0.90996 0.28635 0.0
O14 O 0.6793 0.90001 0.2953 0.0
O15 O 0.64018 0.89979 0.3078 0.0
Zn16 Zn 0.63684 0.89566 0.29146 0.0
O17 O 0.63958 0.8667 0.28845 0.0
C18 C 0.60251 0.92052 0.28994 0.0
O19 O 0.61253 0.93226 0.29639 0.0
O20 O 0.6573 0.91042 0.28308 0.0
C21 C 0.62453 0.8558 0.28803 0.0
O22 O 0.60716 0.8637 0.28929 0.0
C23 C 0.62629 0.89515 0.31426 0.0
O24 O 0.60993 0.8884 0.31006 0.0
O25 O 0.61021 0.9046 0.28672 0.0
C26 C 0.3321 0.41533 0.53737 0.0
O27 O 0.32586 0.41438 0.54762 0.0
O28 O 0.35269 0.38809 0.55976 0.0
Zn29 Zn 0.35758 0.383 0.54366 0.0
O30 O 0.3867 0.38315 0.54122 0.0
C31 C 0.32986 0.35137 0.54213 0.0
O32 O 0.3182 0.36395 0.54703 0.0
O33 O 0.34516 0.40346 0.53408 0.0
C34 C 0.39716 0.37149 0.54687 0.0
O35 O 0.38854 0.3596 0.55388 0.0
C36 C 0.36231 0.40134 0.56472 0.0
O37 O 0.37461 0.41216 0.55905 0.0
O38 O 0.34722 0.35649 0.53976 0.0
C39 C 0.83063 0.08524 0.78384 0.0
O40 O 0.83327 0.07776 0.79372 0.0
O41 O 0.85105 0.10854 0.80735 0.0
Zn42 Zn 0.85698 0.11545 0.79158 0.0
O43 O 0.85313 0.14446 0.78984 0.0
C44 C 0.89325 0.09411 0.79243 0.0
O45 O 0.88314 0.08239 0.79886 0.0
O46 O 0.8393 0.10103 0.78123 0.0
C47 C 0.85924 0.15357 0.78136 0.0
O48 O 0.86788 0.14372 0.77342 0.0
C49 C 0.86167 0.1163 0.81475 0.0
O50 O 0.8758 0.12819 0.81175 0.0
O51 O 0.88494 0.10897 0.78823 0.0
C52 C 0.17193 0.41857 0.96227 0.0
O53 O 0.17977 0.4184 0.95237 0.0
O54 O 0.15684 0.39191 0.93854 0.0
Zn55 Zn 0.14783 0.38652 0.95406 0.0
O56 O 0.11838 0.38786 0.95465 0.0
C57 C 0.15961 0.34648 0.95145 0.0
O58 O 0.1581 0.35103 0.94094 0.0
O59 O 0.1586 0.40632 0.96465 0.0
C60 C 0.10799 0.37839 0.94779 0.0
O61 O 0.11668 0.36768 0.94024 0.0
C62 C 0.14876 0.40489 0.93257 0.0
O63 O 0.13465 0.4156 0.93678 0.0
O64 O 0.1562 0.35951 0.95868 0.0
C65 C 0.83137 0.92006 0.21355 0.0
O66 O 0.83399 0.92877 0.20399 0.0
O67 O 0.8562 0.90014 0.19005 0.0
Zn68 Zn 0.86155 0.89332 0.20591 0.0
O69 O 0.86054 0.86387 0.20728 0.0
C70 C 0.89521 0.91899 0.20667 0.0
O71 O 0.88441 0.93033 0.20038 0.0
O72 O 0.84148 0.90505 0.21595 0.0
C73 C 0.87596 0.85353 0.20789 0.0
O74 O 0.8931 0.86221 0.20788 0.0
C75 C 0.86876 0.89467 0.18297 0.0
O76 O 0.88447 0.88538 0.18638 0.0
O77 O 0.88821 0.90292 0.21015 0.0
C78 C 0.34113 0.57028 0.46283 0.0
O79 O 0.35156 0.56507 0.4542 0.0
O80 O 0.34819 0.6027 0.43933 0.0
Zn81 Zn 0.35292 0.60815 0.4555 0.0
O82 O 0.38193 0.60738 0.45842 0.0
C83 C 0.32984 0.64343 0.45361 0.0
O84 O 0.32102 0.63362 0.44572 0.0
O85 O 0.3393 0.58834 0.46505 0.0
C86 C 0.39246 0.62074 0.45418 0.0
O87 O 0.38398 0.63448 0.44828 0.0
C88 C 0.36059 0.59347 0.43349 0.0
O89 O 0.37652 0.58667 0.43818 0.0
O90 O 0.34342 0.63522 0.45907 0.0
C91 C 0.67737 0.08741 0.71053 0.0
O92 O 0.68186 0.0992 0.70235 0.0
O93 O 0.64388 0.09639 0.68791 0.0
Zn94 Zn 0.63902 0.09917 0.70431 0.0
O95 O 0.63954 0.12787 0.70817 0.0
C96 C 0.60237 0.07837 0.70165 0.0
O97 O 0.61021 0.0726 0.69229 0.0
O98 O 0.6595 0.08479 0.71296 0.0
C99 C 0.62563 0.1384 0.70454 0.0
O100 O 0.61159 0.13004 0.69883 0.0
C101 C 0.65234 0.10994 0.68251 0.0
O102 O 0.65852 0.12556 0.68777 0.0
O103 O 0.61228 0.08908 0.70814 0.0
C104 C 0.832 0.41871 0.96366 0.0
O105 O 0.82404 0.41692 0.95385 0.0
O106 O 0.85054 0.39362 0.94023 0.0
Zn107 Zn 0.85849 0.3884 0.95594 0.0
O108 O 0.88786 0.39013 0.95677 0.0
C109 C 0.83666 0.3523 0.95531 0.0
O110 O 0.82676 0.36148 0.94759 0.0
O111 O 0.84649 0.408 0.96625 0.0
C112 C 0.89776 0.38013 0.94991 0.0
O113 O 0.88847 0.36912 0.94272 0.0
C114 C 0.8571 0.40832 0.93499 0.0
O115 O 0.86879 0.42063 0.94008 0.0
O116 O 0.85052 0.36114 0.9602 0.0
C117 C 0.3267 0.07658 0.71241 0.0
O118 O 0.32724 0.069 0.70245 0.0
O119 O 0.34996 0.09539 0.68839 0.0
Zn120 Zn 0.35639 0.10307 0.70396 0.0
O121 O 0.35411 0.1324 0.70482 0.0
C122 C 0.39697 0.10167 0.70061 0.0
O123 O 0.39155 0.11294 0.69237 0.0
O124 O 0.33792 0.0908 0.71478 0.0
C125 C 0.36224 0.1428 0.7122 0.0
O126 O 0.37261 0.13424 0.71995 0.0
C127 C 0.33591 0.10379 0.68344 0.0
O128 O 0.32512 0.11645 0.68887 0.0
O129 O 0.38402 0.09518 0.70718 0.0
C130 C 0.66576 0.57512 0.46058 0.0
O131 O 0.66902 0.57455 0.44989 0.0
O132 O 0.64706 0.60561 0.43917 0.0
Zn133 Zn 0.64187 0.60923 0.4554 0.0
O134 O 0.61278 0.608 0.45789 0.0
C135 C 0.66594 0.64395 0.45567 0.0
O136 O 0.67639 0.63419 0.44842 0.0
O137 O 0.65505 0.58858 0.46455 0.0
C138 C 0.60221 0.62125 0.45359 0.0
O139 O 0.61067 0.63515 0.44781 0.0
C140 C 0.63657 0.5941 0.43345 0.0
O141 O 0.62275 0.58395 0.43834 0.0
O142 O 0.65099 0.6359 0.45993 0.0
C143 C 0.1751 0.90944 0.20859 0.0
O144 O 0.17945 0.89935 0.19969 0.0
O145 O 0.14077 0.89951 0.18713 0.0
Zn146 Zn 0.13715 0.89515 0.20343 0.0
O147 O 0.13984 0.86619 0.20666 0.0
C148 C 0.10243 0.91928 0.20344 0.0
O149 O 0.11215 0.92948 0.19606 0.0
O150 O 0.15747 0.91 0.21186 0.0
C151 C 0.12501 0.85574 0.20901 0.0
O152 O 0.10771 0.86402 0.20954 0.0
C153 C 0.132 0.88826 0.18041 0.0
O154 O 0.12084 0.87423 0.18432 0.0
O155 O 0.11045 0.90442 0.20782 0.0
C156 C 0.83899 0.57412 0.03818 0.0
O157 O 0.84959 0.56932 0.0468 0.0
O158 O 0.84587 0.60814 0.06115 0.0
Zn159 Zn 0.8507 0.61247 0.04486 0.0
O160 O 0.87967 0.61137 0.04184 0.0
C161 C 0.82544 0.64631 0.04461 0.0
O162 O 0.8148 0.63566 0.05136 0.0
O163 O 0.83699 0.59209 0.03574 0.0
C164 C 0.89077 0.62362 0.04664 0.0
O165 O 0.88296 0.63659 0.05333 0.0
C166 C 0.85775 0.59841 0.06708 0.0
O167 O 0.8733 0.59064 0.06246 0.0
O168 O 0.84114 0.63921 0.04069 0.0
C169 C 0.1775 0.09526 0.78916 0.0
O170 O 0.18334 0.10711 0.79703 0.0
O171 O 0.14686 0.10013 0.81374 0.0
Zn172 Zn 0.14082 0.10665 0.79788 0.0
O173 O 0.14329 0.13575 0.79562 0.0
C174 C 0.10035 0.10366 0.80182 0.0
O175 O 0.10601 0.11274 0.81084 0.0
O176 O 0.1593 0.09247 0.78781 0.0
C177 C 0.135 0.14439 0.7876 0.0
O178 O 0.12497 0.13403 0.78043 0.0
C179 C 0.15686 0.11162 0.81975 0.0
O180 O 0.1639 0.12778 0.81542 0.0
O181 O 0.1131 0.09897 0.79466 0.0
C182 C 0.662 0.42068 0.53648 0.0
O183 O 0.6565 0.426 0.54643 0.0
O184 O 0.65316 0.38736 0.5593 0.0
Zn185 Zn 0.6467 0.38305 0.54323 0.0
O186 O 0.61745 0.38407 0.54127 0.0
C187 C 0.67265 0.34988 0.54108 0.0
O188 O 0.68505 0.36127 0.54631 0.0
O189 O 0.65949 0.40308 0.53344 0.0
C190 C 0.60718 0.37151 0.5464 0.0
O191 O 0.61602 0.35852 0.55266 0.0
C192 C 0.64227 0.39797 0.56535 0.0
O193 O 0.6271 0.40676 0.5609 0.0
O194 O 0.65568 0.35628 0.53883 0.0
C195 C 0.3318 0.91913 0.28083 0.0
O196 O 0.33455 0.92771 0.29041 0.0
O197 O 0.35713 0.89898 0.30423 0.0
Zn198 Zn 0.3616 0.89183 0.28835 0.0
O199 O 0.3598 0.86251 0.28723 0.0
C200 C 0.39524 0.91701 0.28648 0.0
O201 O 0.38402 0.92937 0.29186 0.0
O202 O 0.34169 0.904 0.27839 0.0
C203 C 0.36814 0.85297 0.27955 0.0
O204 O 0.37797 0.86251 0.27193 0.0
C205 C 0.37031 0.89346 0.31093 0.0
O206 O 0.38562 0.88408 0.30705 0.0
O207 O 0.38852 0.9003 0.2839 0.0
C208 C 0.66003 0.08091 0.53579 0.0
O209 O 0.66579 0.08083 0.54614 0.0
O210 O 0.64439 0.10988 0.55828 0.0
Zn211 Zn 0.63739 0.11495 0.54239 0.0
O212 O 0.60807 0.11492 0.54121 0.0
C213 C 0.66558 0.14562 0.53853 0.0
O214 O 0.67798 0.13249 0.54224 0.0
O215 O 0.64827 0.09408 0.53249 0.0
C216 C 0.59935 0.12049 0.53249 0.0
O217 O 0.60977 0.1264 0.524 0.0
C218 C 0.64567 0.12401 0.56505 0.0
O219 O 0.64267 0.14193 0.56152 0.0
O220 O 0.64759 0.14118 0.53772 0.0
C221 C 0.16919 0.41902 0.78562 0.0
O222 O 0.16753 0.42859 0.79499 0.0
O223 O 0.14726 0.40166 0.81049 0.0
Zn224 Zn 0.14003 0.39312 0.79514 0.0
O225 O 0.14095 0.36371 0.79448 0.0
C226 C 0.10038 0.40353 0.79946 0.0
O227 O 0.10608 0.40002 0.80964 0.0
O228 O 0.1588 0.40388 0.78399 0.0
C229 C 0.13327 0.35462 0.78642 0.0
O230 O 0.12477 0.36469 0.77851 0.0
C231 C 0.16164 0.39409 0.81556 0.0
O232 O 0.17249 0.38104 0.81046 0.0
O233 O 0.11266 0.40184 0.79164 0.0
C234 C 0.83201 0.91439 0.03662 0.0
O235 O 0.82555 0.91343 0.04683 0.0
O236 O 0.85382 0.89174 0.05982 0.0
Zn237 Zn 0.85938 0.88466 0.04395 0.0
O238 O 0.88851 0.88608 0.0416 0.0
C239 C 0.83305 0.85203 0.0394 0.0
O240 O 0.81926 0.86542 0.03932 0.0
O241 O 0.84603 0.90338 0.03364 0.0
C242 C 0.89927 0.87372 0.04656 0.0
O243 O 0.891 0.86054 0.05293 0.0
C244 C 0.85082 0.87856 0.06704 0.0
O245 O 0.85092 0.86011 0.06402 0.0
O246 O 0.8507 0.85713 0.04094 0.0
C247 C 0.33037 0.5789 0.28591 0.0
O248 O 0.33044 0.57268 0.29617 0.0
O249 O 0.35614 0.59866 0.30905 0.0
Zn250 Zn 0.36162 0.60491 0.29313 0.0
O251 O 0.35969 0.6341 0.29128 0.0
C252 C 0.39655 0.58102 0.2931 0.0
O253 O 0.38609 0.56945 0.29944 0.0
O254 O 0.34239 0.59208 0.28297 0.0
C255 C 0.36756 0.64271 0.28311 0.0
O256 O 0.37685 0.63226 0.27566 0.0
C257 C 0.36769 0.60615 0.31609 0.0
O258 O 0.38226 0.61704 0.31257 0.0
O259 O 0.38892 0.5966 0.28935 0.0
C260 C 0.65008 0.92395 0.46124 0.0
O261 O 0.64019 0.92853 0.4523 0.0
O262 O 0.64397 0.89037 0.43846 0.0
Zn263 Zn 0.63843 0.88592 0.45456 0.0
O264 O 0.60934 0.88801 0.45666 0.0
C265 C 0.66293 0.85155 0.45549 0.0
O266 O 0.67451 0.86204 0.44917 0.0
O267 O 0.65175 0.90606 0.4639 0.0
C268 C 0.60091 0.88227 0.46543 0.0
O269 O 0.61151 0.87499 0.4735 0.0
C270 C 0.63744 0.87769 0.43174 0.0
O271 O 0.62816 0.86235 0.43566 0.0
O272 O 0.64701 0.85895 0.45891 0.0
C273 C 0.32388 0.40577 0.71065 0.0
O274 O 0.31976 0.39611 0.70156 0.0
O275 O 0.35952 0.39781 0.68921 0.0
Zn276 Zn 0.36229 0.39238 0.70546 0.0
O277 O 0.36035 0.36331 0.70818 0.0
C278 C 0.39622 0.41738 0.70759 0.0
O279 O 0.38595 0.4294 0.70141 0.0
O280 O 0.34148 0.40642 0.71398 0.0
C281 C 0.35094 0.352 0.70176 0.0
O282 O 0.34176 0.35945 0.69321 0.0
C283 C 0.37353 0.39328 0.68281 0.0
O284 O 0.38938 0.3854 0.68703 0.0
O285 O 0.38878 0.40114 0.71049 0.0
C286 C 0.83459 0.06744 0.96108 0.0
O287 O 0.84595 0.06251 0.95278 0.0
O288 O 0.84041 0.09952 0.93733 0.0
Zn289 Zn 0.84597 0.1047 0.95344 0.0
O290 O 0.87492 0.10225 0.95614 0.0
C291 C 0.84476 0.14518 0.95027 0.0
O292 O 0.85552 0.13948 0.94187 0.0
O293 O 0.83178 0.08547 0.96306 0.0
C294 C 0.88316 0.11007 0.96444 0.0
O295 O 0.87246 0.11974 0.97162 0.0
C296 C 0.85293 0.091 0.93123 0.0
O297 O 0.86931 0.0847 0.93564 0.0
O298 O 0.83814 0.13235 0.95688 0.0
C299 C 0.17527 0.59385 0.21189 0.0
O300 O 0.17989 0.60473 0.20333 0.0
O301 O 0.14099 0.6023 0.18967 0.0
Zn302 Zn 0.13705 0.60657 0.20594 0.0
O303 O 0.13941 0.63557 0.20887 0.0
C304 C 0.10455 0.57989 0.20801 0.0
O305 O 0.11652 0.56774 0.20301 0.0
O306 O 0.15742 0.59217 0.2146 0.0
C307 C 0.12437 0.64637 0.20985 0.0
O308 O 0.10693 0.63838 0.20923 0.0
C309 C 0.12721 0.60711 0.18318 0.0
O310 O 0.11091 0.6141 0.18736 0.0
O311 O 0.11037 0.59708 0.21027 0.0
C312 C 0.34797 0.92436 0.45838 0.0
O313 O 0.3622 0.92712 0.45125 0.0
O314 O 0.35022 0.89096 0.43471 0.0
Zn315 Zn 0.35458 0.88631 0.4509 0.0
O316 O 0.38354 0.88793 0.45373 0.0
C317 C 0.33114 0.85113 0.4502 0.0
O318 O 0.32188 0.86048 0.44229 0.0
O319 O 0.34131 0.90719 0.45973 0.0
C320 C 0.39128 0.88227 0.46272 0.0
O321 O 0.38006 0.87516 0.47056 0.0
C322 C 0.36177 0.88248 0.42803 0.0
O323 O 0.37539 0.87088 0.432 0.0
O324 O 0.34518 0.85955 0.45516 0.0
C325 C 0.83439 0.57817 0.21367 0.0
O326 O 0.83517 0.57103 0.2036 0.0
O327 O 0.86181 0.59662 0.19063 0.0
Zn328 Zn 0.86634 0.60363 0.20654 0.0
O329 O 0.86496 0.6329 0.20811 0.0
C330 C 0.89931 0.57773 0.20855 0.0
O331 O 0.88763 0.56552 0.20339 0.0
O332 O 0.84624 0.59158 0.2165 0.0
C333 C 0.87454 0.64377 0.20153 0.0
O334 O 0.88532 0.63558 0.19382 0.0
C335 C 0.84807 0.60443 0.18511 0.0
O336 O 0.83613 0.61668 0.19006 0.0
O337 O 0.89315 0.59476 0.21092 0.0
C338 C 0.16059 0.08092 0.96673 0.0
O339 O 0.17001 0.08467 0.95751 0.0
O340 O 0.13868 0.10023 0.94211 0.0
Zn341 Zn 0.13117 0.10711 0.9577 0.0
O342 O 0.10203 0.1041 0.9591 0.0
C343 C 0.15218 0.14157 0.96613 0.0
O344 O 0.16436 0.12908 0.97068 0.0
O345 O 0.14423 0.08914 0.96853 0.0
C346 C 0.093 0.11134 0.96731 0.0
O347 O 0.10301 0.12049 0.97499 0.0
C348 C 0.15249 0.10898 0.93711 0.0
O349 O 0.16259 0.12241 0.94236 0.0
O350 O 0.13772 0.13525 0.96059 0.0
C351 C 0.66798 0.41532 0.71135 0.0
O352 O 0.66569 0.42255 0.70138 0.0
O353 O 0.64101 0.39444 0.68894 0.0
Zn354 Zn 0.63732 0.38795 0.70498 0.0
O355 O 0.639 0.35876 0.70694 0.0
C356 C 0.60333 0.41272 0.70633 0.0
O357 O 0.6138 0.42423 0.69995 0.0
O358 O 0.65755 0.40092 0.71442 0.0
C359 C 0.62563 0.34814 0.7028 0.0
O360 O 0.61129 0.35658 0.69737 0.0
C361 C 0.65411 0.38615 0.68316 0.0
O362 O 0.66588 0.37345 0.68786 0.0
O363 O 0.61062 0.39667 0.70965 0.0
C364 C 0.34823 0.07679 0.53497 0.0
O365 O 0.36283 0.0745 0.5419 0.0
O366 O 0.34438 0.10972 0.55944 0.0
Zn367 Zn 0.3513 0.11479 0.54361 0.0
O368 O 0.38063 0.11473 0.5423 0.0
C369 C 0.32414 0.14697 0.54159 0.0
O370 O 0.31252 0.13532 0.5472 0.0
O371 O 0.34023 0.0935 0.53415 0.0
C372 C 0.38917 0.11982 0.53343 0.0
O373 O 0.37857 0.12529 0.52492 0.0
C374 C 0.34794 0.12288 0.56656 0.0
O375 O 0.35566 0.13951 0.56329 0.0
O376 O 0.34113 0.14103 0.53897 0.0
C377 C 0.67693 0.59494 0.28646 0.0
O378 O 0.68139 0.60612 0.29493 0.0
O379 O 0.643 0.60236 0.30895 0.0
Zn380 Zn 0.63872 0.60685 0.29271 0.0
O381 O 0.64073 0.6359 0.28974 0.0
C382 C 0.60444 0.58199 0.29267 0.0
O383 O 0.6148 0.57133 0.29955 0.0
O384 O 0.65907 0.59271 0.28389 0.0
C385 C 0.62551 0.64643 0.28872 0.0
O386 O 0.60821 0.63817 0.28942 0.0
C387 C 0.63007 0.60848 0.31565 0.0
O388 O 0.61447 0.61729 0.31172 0.0
O389 O 0.61197 0.59732 0.28853 0.0
C390 C 0.17305 0.91563 0.03554 0.0
O391 O 0.17707 0.91627 0.04614 0.0
O392 O 0.15347 0.88589 0.05737 0.0
Zn393 Zn 0.14871 0.88187 0.04115 0.0
O394 O 0.11962 0.88302 0.03871 0.0
C395 C 0.17484 0.84889 0.03974 0.0
O396 O 0.18655 0.86033 0.04541 0.0
O397 O 0.16182 0.90235 0.03185 0.0
C398 C 0.10902 0.87115 0.04413 0.0
O399 O 0.1175 0.85861 0.05083 0.0
C400 C 0.14499 0.89978 0.06243 0.0
O401 O 0.13405 0.91205 0.0568 0.0
O402 O 0.15813 0.85522 0.03686 0.0
C403 C 0.81772 0.41571 0.78807 0.0
O404 O 0.81191 0.40661 0.79705 0.0
O405 O 0.85006 0.40758 0.81133 0.0
Zn406 Zn 0.85418 0.40061 0.79534 0.0
O407 O 0.84997 0.37169 0.7931 0.0
C408 C 0.8948 0.39598 0.79604 0.0
O409 O 0.889 0.38197 0.80272 0.0
O410 O 0.83576 0.41555 0.7856 0.0
C411 C 0.85545 0.36345 0.78421 0.0
O412 O 0.8634 0.37414 0.77639 0.0
C413 C 0.84085 0.39638 0.8179 0.0
O414 O 0.8332 0.38009 0.8141 0.0
O415 O 0.88201 0.40679 0.79149 0.0
H416 H 0.15991 0.5959 0.17172 0.0
H417 H 0.16448 0.59578 0.15165 0.0
H418 H 0.10516 0.61569 0.14724 0.0
H419 H 0.10036 0.6157 0.16724 0.0
H420 H 0.11663 0.58467 0.13288 0.0
H421 H 0.16962 0.64647 0.13305 0.0
H422 H 0.17545 0.62612 0.14186 0.0
H423 H 0.15432 0.64082 0.14477 0.0
C424 C 0.1478 0.60016 0.16648 0.0
C425 C 0.12981 0.60594 0.17107 0.0
C426 C 0.15048 0.60016 0.15503 0.0
C427 C 0.13524 0.60598 0.14801 0.0
C428 C 0.11712 0.61122 0.15255 0.0
H429 H 0.12975 0.64813 0.08173 0.0
H430 H 0.13034 0.64293 0.10168 0.0
C431 C 0.11443 0.61125 0.16397 0.0
C432 C 0.13813 0.60702 0.13592 0.0
H433 H 0.16204 0.63252 0.11578 0.0
C434 C 0.12667 0.595 0.12912 0.0
C435 C 0.15111 0.62067 0.13109 0.0
C436 C 0.16325 0.6344 0.13803 0.0
C437 C 0.12765 0.59644 0.11757 0.0
C438 C 0.1406 0.61011 0.11274 0.0
C439 C 0.15225 0.62196 0.11954 0.0
C440 C 0.14127 0.61329 0.10066 0.0
C441 C 0.11433 0.58384 0.11064 0.0
C442 C 0.14757 0.59843 0.09351 0.0
C443 C 0.14724 0.60134 0.08208 0.0
C444 C 0.14063 0.61918 0.07764 0.0
C445 C 0.13483 0.63419 0.08487 0.0
C446 C 0.1352 0.63127 0.09628 0.0
H447 H 0.10263 0.57686 0.11565 0.0
H448 H 0.10739 0.59261 0.10398 0.0
H449 H 0.12304 0.57207 0.10668 0.0
H450 H 0.15259 0.58455 0.09676 0.0
H451 H 0.15189 0.58952 0.07673 0.0
H452 H 0.65252 0.9094 0.4208 0.0
H453 H 0.6535 0.9148 0.4008 0.0
H454 H 0.62718 0.85827 0.39547 0.0
H455 H 0.62625 0.85265 0.41539 0.0
H456 H 0.65988 0.86707 0.38142 0.0
H457 H 0.60371 0.92604 0.38206 0.0
H458 H 0.62431 0.92918 0.39112 0.0
H459 H 0.60738 0.90957 0.39354 0.0
C460 C 0.64704 0.89807 0.41537 0.0
C461 C 0.63918 0.88064 0.41968 0.0
C462 C 0.64754 0.90123 0.40396 0.0
C463 C 0.64018 0.88703 0.3967 0.0
C464 C 0.63286 0.86942 0.40096 0.0
H465 H 0.59912 0.88741 0.33018 0.0
H466 H 0.60392 0.88699 0.35018 0.0
C467 C 0.63231 0.86626 0.41235 0.0
C468 C 0.63968 0.89053 0.38465 0.0
H469 H 0.61695 0.91761 0.36474 0.0
C470 C 0.65065 0.87823 0.37775 0.0
C471 C 0.62745 0.90498 0.37995 0.0
C472 C 0.6149 0.91815 0.38701 0.0
C473 C 0.64951 0.87982 0.36622 0.0
C474 C 0.63722 0.89422 0.36151 0.0
C475 C 0.62645 0.90669 0.36841 0.0
C476 C 0.63432 0.89563 0.34943 0.0
C477 C 0.6609 0.86564 0.35915 0.0
C478 C 0.64976 0.90101 0.34243 0.0
C479 C 0.64707 0.90127 0.33098 0.0
C480 C 0.62889 0.89617 0.32638 0.0
C481 C 0.61333 0.89132 0.33346 0.0
C482 C 0.61602 0.89112 0.34489 0.0
H483 H 0.66682 0.85323 0.36404 0.0
H484 H 0.65154 0.85971 0.35244 0.0
H485 H 0.67337 0.87341 0.35525 0.0
H486 H 0.66391 0.90481 0.34582 0.0
H487 H 0.65932 0.90515 0.32575 0.0
H488 H 0.40178 0.38788 0.66718 0.0
H489 H 0.39871 0.3918 0.6472 0.0
H490 H 0.33837 0.40883 0.65113 0.0
H491 H 0.34139 0.4053 0.67116 0.0
H492 H 0.37418 0.37175 0.63351 0.0
H493 H 0.35947 0.45147 0.63085 0.0
H494 H 0.36873 0.43998 0.64322 0.0
H495 H 0.34316 0.43848 0.63987 0.0
C496 C 0.38789 0.39262 0.66382 0.0
C497 C 0.37183 0.39631 0.67076 0.0
C498 C 0.38617 0.39485 0.6524 0.0
C499 C 0.36839 0.40084 0.6477 0.0
C500 C 0.35234 0.40461 0.6546 0.0
H501 H 0.33792 0.38176 0.57881 0.0
H502 H 0.33822 0.38252 0.599 0.0
C503 C 0.35407 0.40247 0.66604 0.0
C504 C 0.36645 0.40207 0.63554 0.0
H505 H 0.35559 0.43313 0.6143 0.0
C506 C 0.37015 0.38518 0.6293 0.0
C507 C 0.36136 0.41966 0.63008 0.0
C508 C 0.35812 0.43849 0.63632 0.0
C509 C 0.3688 0.38533 0.61775 0.0
C510 C 0.36319 0.40276 0.61231 0.0
C511 C 0.35965 0.41973 0.61852 0.0
C512 C 0.36162 0.40374 0.60013 0.0
C513 C 0.37383 0.36693 0.61147 0.0
C514 C 0.37408 0.41606 0.59411 0.0
C515 C 0.37385 0.41578 0.58257 0.0
C516 C 0.36112 0.40317 0.57687 0.0
C517 C 0.34804 0.39149 0.58295 0.0
C518 C 0.34824 0.39184 0.59448 0.0
H519 H 0.38241 0.35652 0.61659 0.0
H520 H 0.36013 0.35949 0.60892 0.0
H521 H 0.38235 0.37038 0.6039 0.0
H522 H 0.38444 0.42543 0.59834 0.0
H523 H 0.38405 0.42502 0.57814 0.0
H524 H 0.82102 0.10293 0.91934 0.0
H525 H 0.81768 0.10396 0.89923 0.0
H526 H 0.87501 0.07837 0.89574 0.0
H527 H 0.87832 0.07691 0.91577 0.0
H528 H 0.84062 0.12489 0.88557 0.0
H529 H 0.84401 0.04691 0.87358 0.0
H530 H 0.83957 0.05464 0.88762 0.0
H531 H 0.86412 0.05369 0.88227 0.0
C532 C 0.83277 0.0972 0.91429 0.0
C533 C 0.84996 0.08988 0.91915 0.0
C534 C 0.83083 0.09779 0.9028 0.0
C535 C 0.84598 0.091 0.89599 0.0
C536 C 0.86293 0.08324 0.90083 0.0
H537 H 0.88239 0.12986 0.8324 0.0
H538 H 0.87648 0.12337 0.85194 0.0
C539 C 0.86486 0.08257 0.9123 0.0
C540 C 0.845 0.0938 0.88387 0.0
H541 H 0.85153 0.07032 0.85927 0.0
C542 C 0.8427 0.1129 0.87981 0.0
C543 C 0.84746 0.07815 0.87636 0.0
C544 C 0.84872 0.05717 0.88017 0.0
C545 C 0.84374 0.11689 0.86847 0.0
C546 C 0.84758 0.10143 0.86103 0.0
C547 C 0.84889 0.08219 0.86502 0.0
C548 C 0.85113 0.10508 0.84915 0.0
C549 C 0.84089 0.13768 0.86458 0.0
C550 C 0.83918 0.09644 0.8411 0.0
C551 C 0.84261 0.10001 0.82989 0.0
C552 C 0.85812 0.11219 0.82657 0.0
C553 C 0.87023 0.12054 0.83467 0.0
C554 C 0.86681 0.11694 0.84585 0.0
H555 H 0.83238 0.1464 0.87065 0.0
H556 H 0.85539 0.14475 0.86358 0.0
H557 H 0.83323 0.13813 0.8565 0.0
H558 H 0.82709 0.08711 0.84349 0.0
H559 H 0.83306 0.0933 0.82384 0.0
H560 H 0.13124 0.4276 0.91682 0.0
H561 H 0.13793 0.42784 0.89696 0.0
H562 H 0.18497 0.3867 0.90178 0.0
H563 H 0.1782 0.38608 0.9216 0.0
H564 H 0.17181 0.43634 0.88442 0.0
H565 H 0.14872 0.35876 0.87994 0.0
H566 H 0.14387 0.37281 0.89224 0.0
H567 H 0.16782 0.36284 0.88985 0.0
C568 C 0.14311 0.41872 0.91367 0.0
C569 C 0.15403 0.40664 0.92077 0.0
C570 C 0.14694 0.41891 0.90233 0.0
C571 C 0.16171 0.40703 0.8979 0.0
C572 C 0.17325 0.39567 0.90502 0.0
H573 H 0.18858 0.37775 0.82949 0.0
H574 H 0.19127 0.38246 0.84947 0.0
C575 C 0.16939 0.3954 0.91635 0.0
C576 C 0.16439 0.40582 0.88579 0.0
H577 H 0.16063 0.37445 0.86398 0.0
C578 C 0.16945 0.42282 0.87994 0.0
C579 C 0.16126 0.38814 0.87999 0.0
C580 C 0.15495 0.36962 0.88578 0.0
C581 C 0.17146 0.42258 0.86839 0.0
C582 C 0.16807 0.40496 0.86259 0.0
C583 C 0.16335 0.38791 0.86847 0.0
C584 C 0.16812 0.40398 0.85038 0.0
C585 C 0.17726 0.44115 0.86251 0.0
C586 C 0.15433 0.41465 0.84428 0.0
C587 C 0.15272 0.41197 0.83289 0.0
C588 C 0.16481 0.39846 0.82739 0.0
C589 C 0.17905 0.38826 0.83347 0.0
C590 C 0.18062 0.39093 0.84488 0.0
H591 H 0.18468 0.45156 0.86817 0.0
H592 H 0.18711 0.43799 0.85544 0.0
H593 H 0.16393 0.44841 0.85926 0.0
H594 H 0.14427 0.42449 0.8484 0.0
H595 H 0.14157 0.42004 0.82845 0.0
H596 H 0.84705 0.85373 0.08454 0.0
H597 H 0.84607 0.86211 0.10409 0.0
H598 H 0.84852 0.92348 0.09589 0.0
H599 H 0.84991 0.9152 0.07623 0.0
H600 H 0.87511 0.91378 0.1114 0.0
H601 H 0.80318 0.88387 0.12344 0.0
H602 H 0.81758 0.86587 0.11638 0.0
H603 H 0.81001 0.88767 0.10919 0.0
C604 C 0.84713 0.86903 0.08686 0.0
C605 C 0.8486 0.8838 0.07882 0.0
C606 C 0.8464 0.8738 0.09805 0.0
C607 C 0.84687 0.89343 0.10144 0.0
C608 C 0.84799 0.90824 0.09344 0.0
H609 H 0.83794 0.91331 0.17301 0.0
H610 H 0.8319 0.91684 0.15316 0.0
C611 C 0.84879 0.90348 0.08222 0.0
C612 C 0.84792 0.89821 0.11336 0.0
H613 H 0.82677 0.88772 0.13819 0.0
C614 C 0.86435 0.90841 0.11724 0.0
C615 C 0.83371 0.89154 0.12097 0.0
C616 C 0.81503 0.88182 0.11727 0.0
C617 C 0.86758 0.91099 0.12859 0.0
C618 C 0.85424 0.90279 0.13622 0.0
C619 C 0.83716 0.89374 0.13233 0.0
C620 C 0.85847 0.90204 0.14821 0.0
C621 C 0.88543 0.92219 0.13228 0.0
C622 C 0.87535 0.89249 0.15199 0.0
C623 C 0.87886 0.8905 0.16328 0.0
C624 C 0.86543 0.89782 0.17104 0.0
C625 C 0.84857 0.90752 0.16725 0.0
C626 C 0.8451 0.90956 0.15592 0.0
H627 H 0.89011 0.93291 0.1259 0.0
H628 H 0.88271 0.93011 0.14013 0.0
H629 H 0.89769 0.9118 0.13358 0.0
H630 H 0.88561 0.88612 0.1462 0.0
H631 H 0.89193 0.88285 0.16592 0.0
H632 H 0.32926 0.60552 0.42116 0.0
H633 H 0.32599 0.60465 0.40104 0.0
H634 H 0.38254 0.57708 0.39843 0.0
H635 H 0.38578 0.57752 0.41849 0.0
H636 H 0.34953 0.62325 0.38655 0.0
H637 H 0.35026 0.54389 0.37762 0.0
H638 H 0.34616 0.55347 0.39132 0.0
H639 H 0.37064 0.55116 0.38599 0.0
C640 C 0.34087 0.59899 0.41631 0.0
C641 C 0.3578 0.59159 0.42142 0.0
C642 C 0.33897 0.5985 0.40482 0.0
C643 C 0.35389 0.59055 0.39825 0.0
C644 C 0.37063 0.58284 0.40335 0.0
H645 H 0.38994 0.6202 0.333 0.0
H646 H 0.38458 0.61601 0.35278 0.0
C647 C 0.37252 0.58325 0.41483 0.0
C648 C 0.35285 0.59191 0.38605 0.0
H649 H 0.35792 0.56525 0.36238 0.0
C650 C 0.35108 0.61053 0.38126 0.0
C651 C 0.35461 0.57529 0.37915 0.0
C652 C 0.35532 0.55481 0.38378 0.0
C653 C 0.35194 0.61308 0.36979 0.0
C654 C 0.35503 0.59661 0.36294 0.0
C655 C 0.35584 0.57788 0.36767 0.0
C656 C 0.35831 0.59868 0.35092 0.0
C657 C 0.3497 0.63341 0.3651 0.0
C658 C 0.34563 0.58981 0.34332 0.0
C659 C 0.34871 0.59208 0.33197 0.0
C660 C 0.3646 0.60317 0.32806 0.0
C661 C 0.37748 0.61169 0.33572 0.0
C662 C 0.37439 0.6094 0.34704 0.0
H663 H 0.34182 0.64322 0.37091 0.0
H664 H 0.36441 0.63975 0.36361 0.0
H665 H 0.34168 0.63314 0.35713 0.0
H666 H 0.33322 0.58134 0.34617 0.0
H667 H 0.33857 0.58527 0.32627 0.0
H668 H 0.66408 0.1387 0.6684 0.0
H669 H 0.6652 0.13752 0.64827 0.0
H670 H 0.64664 0.07722 0.64898 0.0
H671 H 0.64491 0.07844 0.66917 0.0
H672 H 0.68595 0.11507 0.6339 0.0
H673 H 0.60628 0.10164 0.62884 0.0
H674 H 0.61692 0.10853 0.6419 0.0
H675 H 0.61873 0.08371 0.63708 0.0
C676 C 0.66027 0.12515 0.6643 0.0
C677 C 0.65422 0.10871 0.67038 0.0
C678 C 0.66095 0.1245 0.65278 0.0
C679 C 0.65567 0.1074 0.64713 0.0
C680 C 0.65031 0.09071 0.65318 0.0
H681 H 0.64586 0.0888 0.57582 0.0
H682 H 0.65007 0.0831 0.59566 0.0
C683 C 0.64944 0.0914 0.66471 0.0
C684 C 0.65546 0.10733 0.6349 0.0
H685 H 0.62529 0.10248 0.61259 0.0
C686 C 0.67271 0.11223 0.62924 0.0
C687 C 0.63814 0.10365 0.62883 0.0
C688 C 0.61891 0.09926 0.63445 0.0
C689 C 0.67305 0.11377 0.61769 0.0
C690 C 0.65569 0.11038 0.61168 0.0
C691 C 0.63858 0.10497 0.61727 0.0
C692 C 0.65461 0.11359 0.59964 0.0
C693 C 0.69189 0.11916 0.61197 0.0
C694 C 0.65576 0.13263 0.59538 0.0
C695 C 0.65319 0.13597 0.5841 0.0
C696 C 0.64948 0.1203 0.57688 0.0
C697 C 0.64874 0.10117 0.58116 0.0
C698 C 0.65113 0.09787 0.59247 0.0
H699 H 0.70477 0.11709 0.61744 0.0
H700 H 0.69394 0.11027 0.60438 0.0
H701 H 0.69131 0.13478 0.60949 0.0
H702 H 0.65818 0.14496 0.60083 0.0
H703 H 0.65388 0.15087 0.58106 0.0
H704 H 0.85587 0.42835 0.82853 0.0
H705 H 0.85639 0.4346 0.84842 0.0
H706 H 0.82456 0.38109 0.85415 0.0
H707 H 0.82375 0.3748 0.83427 0.0
H708 H 0.81136 0.4138 0.86689 0.0
H709 H 0.8919 0.40299 0.86943 0.0
H710 H 0.88377 0.42093 0.8596 0.0
H711 H 0.87778 0.3956 0.85755 0.0
C712 C 0.84886 0.41797 0.83401 0.0
C713 C 0.83993 0.40097 0.82983 0.0
C714 C 0.84923 0.42154 0.84537 0.0
C715 C 0.84078 0.40815 0.85273 0.0
C716 C 0.83123 0.39156 0.84858 0.0
H717 H 0.83412 0.385 0.92207 0.0
H718 H 0.82894 0.38741 0.90218 0.0
C719 C 0.83083 0.38797 0.83722 0.0
C720 C 0.8425 0.41096 0.8648 0.0
H721 H 0.87559 0.41126 0.88589 0.0
C722 C 0.82539 0.41335 0.87106 0.0
C723 C 0.86085 0.4104 0.87018 0.0
C724 C 0.87964 0.40719 0.86389 0.0
C725 C 0.82614 0.41509 0.88261 0.0
C726 C 0.84446 0.41405 0.888 0.0
C727 C 0.86158 0.41212 0.88171 0.0
C728 C 0.8462 0.41372 0.90019 0.0
C729 C 0.80735 0.41806 0.88891 0.0
C730 C 0.8578 0.4276 0.90565 0.0
C731 C 0.86093 0.42618 0.91703 0.0
C732 C 0.85262 0.41076 0.92312 0.0
C733 C 0.84069 0.3971 0.91764 0.0
C734 C 0.83758 0.39853 0.90627 0.0
H735 H 0.79576 0.42443 0.88358 0.0
H736 H 0.80204 0.40371 0.89197 0.0
H737 H 0.8096 0.42781 0.89614 0.0
H738 H 0.8647 0.43935 0.90107 0.0
H739 H 0.8702 0.43693 0.92101 0.0
H740 H 0.31167 0.1242 0.66969 0.0
H741 H 0.31111 0.12329 0.64955 0.0
H742 H 0.35389 0.07691 0.64974 0.0
H743 H 0.35488 0.07801 0.66991 0.0
H744 H 0.36486 0.10701 0.63685 0.0
H745 H 0.28869 0.08636 0.62671 0.0
H746 H 0.28992 0.10667 0.63607 0.0
H747 H 0.29895 0.08312 0.64033 0.0
C748 C 0.32068 0.11353 0.66547 0.0
C749 C 0.33342 0.10126 0.6714 0.0
C750 C 0.32023 0.11294 0.65394 0.0
C751 C 0.33231 0.09989 0.64815 0.0
C752 C 0.34441 0.08704 0.65406 0.0
H753 H 0.33457 0.08922 0.57621 0.0
H754 H 0.33053 0.08267 0.59596 0.0
C755 C 0.34495 0.0877 0.66559 0.0
C756 C 0.33393 0.10119 0.63597 0.0
H757 H 0.30735 0.10119 0.6121 0.0
C758 C 0.35232 0.1055 0.63143 0.0
C759 C 0.3176 0.09905 0.62891 0.0
C760 C 0.29772 0.09335 0.63324 0.0
C761 C 0.35472 0.10836 0.62006 0.0
C762 C 0.33821 0.10728 0.61307 0.0
C763 C 0.31993 0.10229 0.61753 0.0
C764 C 0.33968 0.11154 0.60112 0.0
C765 C 0.37495 0.11248 0.61563 0.0
C766 C 0.34573 0.13008 0.59751 0.0
C767 C 0.34812 0.13386 0.58626 0.0
C768 C 0.34435 0.11919 0.57842 0.0
C769 C 0.33767 0.10081 0.58205 0.0
C770 C 0.33533 0.09704 0.59332 0.0
H771 H 0.38649 0.10749 0.62145 0.0
H772 H 0.37727 0.10519 0.60754 0.0
H773 H 0.3767 0.12848 0.61444 0.0
H774 H 0.34878 0.14159 0.60341 0.0
H775 H 0.35312 0.14822 0.58373 0.0
H776 H 0.61379 0.57457 0.41855 0.0
H777 H 0.61617 0.57543 0.39843 0.0
H778 H 0.66715 0.61235 0.40074 0.0
H779 H 0.66465 0.61191 0.42089 0.0
H780 H 0.6402 0.62693 0.38664 0.0
H781 H 0.65326 0.54879 0.37711 0.0
H782 H 0.63211 0.55242 0.38563 0.0
H783 H 0.65594 0.55869 0.39085 0.0
C784 C 0.62567 0.58267 0.41479 0.0
C785 C 0.63901 0.5932 0.42132 0.0
C786 C 0.62709 0.58302 0.40328 0.0
C787 C 0.64201 0.59372 0.39809 0.0
C788 C 0.65559 0.60393 0.40459 0.0
H789 H 0.66124 0.59243 0.32661 0.0
H790 H 0.66547 0.5891 0.34661 0.0
C791 C 0.65413 0.60365 0.4161 0.0
C792 C 0.64248 0.59551 0.3859 0.0
H793 H 0.6428 0.56899 0.36201 0.0
C794 C 0.64099 0.61427 0.38125 0.0
C795 C 0.64375 0.57902 0.37888 0.0
C796 C 0.64656 0.55861 0.38337 0.0
C797 C 0.64004 0.61693 0.36979 0.0
C798 C 0.6402 0.60036 0.3628 0.0
C799 C 0.64242 0.58165 0.3674 0.0
C800 C 0.63758 0.60217 0.3507 0.0
C801 C 0.63892 0.63748 0.36526 0.0
C802 C 0.62036 0.6103 0.3464 0.0
C803 C 0.61791 0.61228 0.33501 0.0
C804 C 0.63259 0.60599 0.3277 0.0
C805 C 0.64969 0.59748 0.33202 0.0
C806 C 0.65213 0.59555 0.34344 0.0
H807 H 0.64462 0.64836 0.37127 0.0
H808 H 0.64731 0.63885 0.35745 0.0
H809 H 0.62342 0.64118 0.36354 0.0
H810 H 0.60877 0.6151 0.35187 0.0
H811 H 0.60451 0.61875 0.33195 0.0
H812 H 0.11861 0.86434 0.16405 0.0
H813 H 0.1226 0.8684 0.14414 0.0
H814 H 0.15411 0.92222 0.14954 0.0
H815 H 0.15059 0.91804 0.16951 0.0
H816 H 0.1097 0.89786 0.13091 0.0
H817 H 0.19067 0.89266 0.129 0.0
H818 H 0.17689 0.8859 0.14113 0.0
H819 H 0.1817 0.91123 0.13819 0.0
C820 C 0.12647 0.87701 0.16102 0.0
C821 C 0.13437 0.89082 0.16836 0.0
C822 C 0.12872 0.87931 0.14963 0.0
C823 C 0.13889 0.89546 0.14537 0.0
C824 C 0.1466 0.90942 0.15266 0.0
H825 H 0.13008 0.92846 0.07575 0.0
H826 H 0.1295 0.92905 0.09595 0.0
C827 C 0.14447 0.90706 0.16407 0.0
C828 C 0.1409 0.89783 0.13326 0.0
H829 H 0.17434 0.90089 0.11238 0.0
C830 C 0.12383 0.89856 0.12685 0.0
C831 C 0.15937 0.89854 0.128 0.0
C832 C 0.17822 0.89686 0.1344 0.0
C833 C 0.12468 0.89986 0.1153 0.0
C834 C 0.14313 0.90094 0.11005 0.0
C835 C 0.16022 0.90029 0.11645 0.0
C836 C 0.14496 0.90163 0.09787 0.0
C837 C 0.10582 0.89942 0.10883 0.0
C838 C 0.1546 0.88647 0.09227 0.0
C839 C 0.15516 0.88619 0.08075 0.0
C840 C 0.14604 0.90108 0.0746 0.0
C841 C 0.13706 0.91667 0.08024 0.0
C842 C 0.13663 0.91698 0.09178 0.0
H843 H 0.09346 0.89375 0.11385 0.0
H844 H 0.10206 0.9145 0.10617 0.0
H845 H 0.1073 0.89019 0.10133 0.0
H846 H 0.16122 0.87453 0.09683 0.0
H847 H 0.16225 0.87401 0.07666 0.0
H848 H 0.8798 0.57786 0.08186 0.0
H849 H 0.87577 0.57634 0.1019 0.0
H850 H 0.82507 0.61366 0.09965 0.0
H851 H 0.82879 0.61505 0.07957 0.0
H852 H 0.87716 0.60809 0.11596 0.0
H853 H 0.80596 0.56966 0.11982 0.0
H854 H 0.81997 0.56978 0.10717 0.0
H855 H 0.80547 0.59069 0.11092 0.0
C856 C 0.86765 0.58558 0.0856 0.0
C857 C 0.85462 0.59659 0.07912 0.0
C858 C 0.86537 0.58467 0.09705 0.0
C859 C 0.84999 0.59468 0.10224 0.0
C860 C 0.83679 0.60549 0.09579 0.0
H861 H 0.82237 0.62097 0.17051 0.0
H862 H 0.82228 0.61767 0.15037 0.0
C863 C 0.83903 0.60637 0.08432 0.0
C864 C 0.84867 0.59495 0.11444 0.0
H865 H 0.81898 0.58372 0.13623 0.0
C866 C 0.8645 0.60264 0.1204 0.0
C867 C 0.83208 0.58793 0.12019 0.0
C868 C 0.81496 0.57889 0.11422 0.0
C869 C 0.86409 0.60376 0.13195 0.0
C870 C 0.84753 0.59671 0.1377 0.0
C871 C 0.83166 0.58907 0.13177 0.0
C872 C 0.84651 0.59734 0.1499 0.0
C873 C 0.88122 0.61288 0.1379 0.0
C874 C 0.85981 0.58657 0.15628 0.0
C875 C 0.85994 0.58844 0.16776 0.0
C876 C 0.84669 0.60107 0.17307 0.0
C877 C 0.83282 0.6112 0.16667 0.0
C878 C 0.83272 0.60932 0.15517 0.0
H879 H 0.89053 0.62165 0.13223 0.0
H880 H 0.87615 0.62246 0.14473 0.0
H881 H 0.89042 0.60113 0.14151 0.0
H882 H 0.87035 0.57699 0.15235 0.0
H883 H 0.87071 0.5803 0.17245 0.0
H884 H 0.14204 0.08095 0.83164 0.0
H885 H 0.14386 0.076 0.85163 0.0
H886 H 0.17875 0.12822 0.85482 0.0
H887 H 0.17719 0.13325 0.83485 0.0
H888 H 0.19165 0.09479 0.86792 0.0
H889 H 0.11261 0.11226 0.87287 0.0
H890 H 0.11846 0.09334 0.8631 0.0
H891 H 0.12603 0.11806 0.86046 0.0
C892 C 0.15026 0.0913 0.83657 0.0
C893 C 0.15931 0.10762 0.83167 0.0
C894 C 0.15123 0.08846 0.84799 0.0
C895 C 0.16122 0.1019 0.85467 0.0
C896 C 0.17094 0.11773 0.84977 0.0
H897 H 0.17743 0.1284 0.92329 0.0
H898 H 0.18086 0.1242 0.90336 0.0
C899 C 0.16996 0.12061 0.83837 0.0
C900 C 0.16069 0.10011 0.86683 0.0
H901 H 0.13008 0.1042 0.88895 0.0
C902 C 0.17821 0.09673 0.87255 0.0
C903 C 0.14309 0.10264 0.87278 0.0
C904 C 0.12397 0.10693 0.86704 0.0
C905 C 0.17859 0.09585 0.88413 0.0
C906 C 0.16105 0.09884 0.8901 0.0
C907 C 0.14349 0.10185 0.88435 0.0
C908 C 0.16058 0.09995 0.90231 0.0
C909 C 0.19772 0.09162 0.88985 0.0
C910 C 0.14791 0.08783 0.90833 0.0
C911 C 0.14572 0.09036 0.91971 0.0
C912 C 0.15613 0.10511 0.92527 0.0
C913 C 0.16925 0.11685 0.91927 0.0
C914 C 0.17136 0.11437 0.90788 0.0
H915 H 0.20802 0.08374 0.88432 0.0
H916 H 0.20469 0.10564 0.89227 0.0
H917 H 0.19545 0.08274 0.89743 0.0
H918 H 0.13938 0.07669 0.90418 0.0
H919 H 0.13553 0.08104 0.9241 0.0
H920 H 0.62204 0.41971 0.58043 0.0
H921 H 0.6265 0.42035 0.60045 0.0
H922 H 0.67464 0.37991 0.59754 0.0
H923 H 0.67049 0.37938 0.57748 0.0
H924 H 0.62317 0.38805 0.61407 0.0
H925 H 0.69668 0.42167 0.61825 0.0
H926 H 0.68259 0.42307 0.60566 0.0
H927 H 0.6958 0.40113 0.60902 0.0
C928 C 0.63375 0.41114 0.58402 0.0
C929 C 0.6459 0.39947 0.57736 0.0
C930 C 0.63627 0.41154 0.59546 0.0
C931 C 0.65103 0.40036 0.60046 0.0
C932 C 0.66342 0.38897 0.59383 0.0
H933 H 0.67833 0.36885 0.66803 0.0
H934 H 0.67805 0.37318 0.64795 0.0
C935 C 0.66094 0.38859 0.58237 0.0
C936 C 0.65242 0.39944 0.61265 0.0
H937 H 0.68302 0.40745 0.63447 0.0
C938 C 0.6362 0.39243 0.61854 0.0
C939 C 0.66949 0.40505 0.61843 0.0
C940 C 0.68709 0.41332 0.61254 0.0
C941 C 0.63667 0.39058 0.63007 0.0
C942 C 0.65372 0.39619 0.63586 0.0
C943 C 0.66997 0.40319 0.62998 0.0
C944 C 0.65488 0.39473 0.64803 0.0
C945 C 0.61907 0.38218 0.63592 0.0
C946 C 0.6423 0.4058 0.6547 0.0
C947 C 0.64237 0.40334 0.66615 0.0
C948 C 0.65513 0.38982 0.67113 0.0
C949 C 0.66827 0.37931 0.66445 0.0
C950 C 0.66815 0.38177 0.65298 0.0
H951 H 0.60921 0.3743 0.63015 0.0
H952 H 0.62361 0.37195 0.64257 0.0
H953 H 0.61062 0.39426 0.63976 0.0
H954 H 0.63219 0.41613 0.65103 0.0
H955 H 0.63218 0.4118 0.67106 0.0
H956 H 0.3393 0.90973 0.322 0.0
H957 H 0.33541 0.91315 0.34204 0.0
H958 H 0.39231 0.88735 0.34697 0.0
H959 H 0.39642 0.88409 0.32707 0.0
H960 H 0.33552 0.88296 0.35739 0.0
H961 H 0.39467 0.93567 0.3666 0.0
H962 H 0.38539 0.93187 0.3528 0.0
H963 H 0.40321 0.91536 0.35855 0.0
C964 C 0.35108 0.90501 0.32736 0.0
C965 C 0.36818 0.89664 0.32295 0.0
C966 C 0.34882 0.90697 0.33879 0.0
C967 C 0.3637 0.90079 0.34597 0.0
C968 C 0.38084 0.89263 0.34157 0.0
H969 H 0.38671 0.8697 0.41203 0.0
H970 H 0.3851 0.87621 0.39221 0.0
C971 C 0.3831 0.89064 0.33018 0.0
C972 C 0.36097 0.90149 0.35808 0.0
H973 H 0.38338 0.91603 0.38188 0.0
C974 C 0.34572 0.89051 0.36277 0.0
C975 C 0.37426 0.91143 0.36505 0.0
C976 C 0.39018 0.92441 0.36049 0.0
C977 C 0.34416 0.88823 0.37426 0.0
C978 C 0.35812 0.89728 0.38117 0.0
C979 C 0.37279 0.909 0.37652 0.0
C980 C 0.35868 0.89351 0.39317 0.0
C981 C 0.32824 0.87538 0.37893 0.0
C982 C 0.34434 0.90116 0.40022 0.0
C983 C 0.34522 0.89751 0.41158 0.0
C984 C 0.36046 0.88612 0.41602 0.0
C985 C 0.37475 0.87846 0.40888 0.0
C986 C 0.3739 0.88221 0.39757 0.0
H987 H 0.31991 0.86767 0.37237 0.0
H988 H 0.3346 0.86435 0.38462 0.0
H989 H 0.31788 0.88448 0.38376 0.0
H990 H 0.33257 0.91005 0.39695 0.0
H991 H 0.33401 0.90364 0.41687 0.0
H992 H 0.07762 0.59326 0.04087 0.0
H993 H 0.04191 0.59095 0.04081 0.0
H994 H 0.03779 0.65306 0.035 0.0
H995 H 0.07345 0.65552 0.03497 0.0
H996 H 0.0167 0.61064 0.05538 0.0
H997 H 0.00059 0.62959 0.01175 0.0
H998 H 0.02459 0.62214 0.01634 0.0
H999 H 0.0163 0.64675 0.01864 0.0
C1000 C 0.06914 0.6064 0.03945 0.0
C1001 C 0.07839 0.62459 0.03792 0.0
C1002 C 0.04874 0.60505 0.03943 0.0
C1003 C 0.03723 0.62179 0.03777 0.0
C1004 C 0.04641 0.6399 0.03609 0.0
H1005 H 0.91852 0.64581 0.05694 0.0
H1006 H 0.95397 0.64428 0.05456 0.0
C1007 C 0.0668 0.64129 0.03614 0.0
C1008 C 0.01565 0.62056 0.0385 0.0
H1009 H 0.97355 0.62965 0.02422 0.0
C1010 C 0.00726 0.61465 0.04854 0.0
C1011 C 0.00339 0.62561 0.02954 0.0
C1012 C 0.01163 0.63121 0.01842 0.0
C1013 C 0.9869 0.61422 0.04997 0.0
C1014 C 0.97466 0.62006 0.04115 0.0
C1015 C 0.98301 0.62537 0.031 0.0
C1016 C 0.95316 0.62109 0.04242 0.0
C1017 C 0.97864 0.60751 0.06089 0.0
C1018 C 0.94096 0.60883 0.03619 0.0
C1019 C 0.92066 0.60966 0.03753 0.0
C1020 C 0.91222 0.62291 0.04504 0.0
C1021 C 0.92452 0.63539 0.05112 0.0
C1022 C 0.9448 0.63449 0.04981 0.0
H1023 H 0.98953 0.59908 0.06575 0.0
H1024 H 0.97428 0.62049 0.06581 0.0
H1025 H 0.96546 0.59828 0.05964 0.0
H1026 H 0.94717 0.59847 0.0304 0.0
H1027 H 0.91159 0.59989 0.03269 0.0
H1028 H 0.59582 0.67283 0.28642 0.0
H1029 H 0.59837 0.7083 0.28463 0.0
H1030 H 0.66126 0.70418 0.28567 0.0
H1031 H 0.65888 0.66858 0.2876 0.0
H1032 H 0.64607 0.73216 0.29994 0.0
H1033 H 0.61484 0.74106 0.25802 0.0
H1034 H 0.59946 0.7271 0.26708 0.0
H1035 H 0.62309 0.71773 0.26325 0.0
C1036 C 0.61022 0.67941 0.28617 0.0
C1037 C 0.62715 0.66785 0.28714 0.0
C1038 C 0.61164 0.69969 0.28507 0.0
C1039 C 0.63001 0.70883 0.28483 0.0
C1040 C 0.64696 0.69737 0.28575 0.0
H1041 H 0.65822 0.83426 0.28617 0.0
H1042 H 0.66114 0.79863 0.28472 0.0
C1043 C 0.64556 0.67705 0.28685 0.0
C1044 C 0.63137 0.73045 0.28425 0.0
H1045 H 0.61694 0.77002 0.26908 0.0
C1046 C 0.63996 0.74046 0.29313 0.0
C1047 C 0.62338 0.7412 0.27534 0.0
C1048 C 0.61484 0.73123 0.26533 0.0
C1049 C 0.64001 0.76099 0.29357 0.0
C1050 C 0.63151 0.77173 0.28481 0.0
C1051 C 0.6234 0.76172 0.27579 0.0
C1052 C 0.62995 0.79333 0.28514 0.0
C1053 C 0.64842 0.771 0.30361 0.0
C1054 C 0.61145 0.80215 0.28554 0.0
C1055 C 0.60972 0.82246 0.28632 0.0
C1056 C 0.62648 0.83436 0.28667 0.0
C1057 C 0.64502 0.8255 0.28599 0.0
C1058 C 0.64673 0.80515 0.28521 0.0
H1059 H 0.65073 0.76063 0.31056 0.0
H1060 H 0.66277 0.77753 0.30145 0.0
H1061 H 0.63865 0.78296 0.30645 0.0
H1062 H 0.59832 0.79327 0.28546 0.0
H1063 H 0.59522 0.82879 0.28679 0.0
H1064 H 0.42341 0.34822 0.55766 0.0
H1065 H 0.45907 0.34907 0.55638 0.0
H1066 H 0.45548 0.39575 0.5325 0.0
H1067 H 0.41975 0.39516 0.53379 0.0
H1068 H 0.48302 0.34386 0.5374 0.0
H1069 H 0.49285 0.41732 0.55636 0.0
H1070 H 0.47029 0.40373 0.55748 0.0
H1071 H 0.47625 0.41623 0.54487 0.0
C1072 C 0.43017 0.35869 0.55214 0.0
C1073 C 0.41873 0.37169 0.54586 0.0
C1074 C 0.45055 0.35913 0.55141 0.0
C1075 C 0.45989 0.37264 0.54446 0.0
C1076 C 0.44855 0.38544 0.53806 0.0
H1077 H 0.58417 0.39622 0.53419 0.0
H1078 H 0.54841 0.39635 0.53292 0.0
C1079 C 0.42814 0.38501 0.53877 0.0
C1080 C 0.48152 0.37313 0.5439 0.0
H1081 H 0.52126 0.40146 0.54984 0.0
C1082 C 0.4914 0.35645 0.5401 0.0
C1083 C 0.49236 0.38963 0.54738 0.0
C1084 C 0.48247 0.40772 0.55184 0.0
C1085 C 0.5119 0.3558 0.5397 0.0
C1086 C 0.52277 0.37214 0.54341 0.0
C1087 C 0.51287 0.38896 0.54701 0.0
C1088 C 0.54441 0.37182 0.54399 0.0
C1089 C 0.52173 0.3377 0.53522 0.0
C1090 C 0.55397 0.35813 0.55073 0.0
C1091 C 0.57435 0.35799 0.55146 0.0
C1092 C 0.58558 0.37165 0.54552 0.0
C1093 C 0.57595 0.38547 0.53884 0.0
C1094 C 0.55554 0.38558 0.53811 0.0
H1095 H 0.51171 0.32913 0.52986 0.0
H1096 H 0.53501 0.34151 0.5304 0.0
H1097 H 0.52619 0.32819 0.54221 0.0
H1098 H 0.54565 0.34768 0.55554 0.0
H1099 H 0.58128 0.34724 0.55674 0.0
H1100 H 0.86775 0.34103 0.76683 0.0
H1101 H 0.86657 0.30537 0.7652 0.0
H1102 H 0.83898 0.30156 0.79716 0.0
H1103 H 0.83992 0.33718 0.79884 0.0
H1104 H 0.88422 0.27847 0.77959 0.0
H1105 H 0.80394 0.26717 0.77764 0.0
H1106 H 0.81519 0.2907 0.77527 0.0
H1107 H 0.81187 0.28179 0.78912 0.0
C1108 C 0.86124 0.33264 0.77347 0.0
C1109 C 0.85389 0.34196 0.78296 0.0
C1110 C 0.8606 0.31226 0.77252 0.0
C1111 C 0.85246 0.30086 0.78099 0.0
C1112 C 0.84497 0.31012 0.79043 0.0
H1113 H 0.84322 0.17826 0.79666 0.0
H1114 H 0.84154 0.21396 0.79595 0.0
C1115 C 0.84563 0.33048 0.7914 0.0
C1116 C 0.85277 0.27923 0.78024 0.0
H1117 H 0.8235 0.23877 0.78044 0.0
C1118 C 0.87095 0.26977 0.77967 0.0
C1119 C 0.83543 0.26797 0.78038 0.0
C1120 C 0.81548 0.2774 0.78053 0.0
C1121 C 0.8723 0.24928 0.77956 0.0
C1122 C 0.85496 0.238 0.77982 0.0
C1123 C 0.83676 0.24747 0.78025 0.0
C1124 C 0.85544 0.21633 0.77996 0.0
C1125 C 0.89227 0.23989 0.77954 0.0
C1126 C 0.8635 0.20583 0.7711 0.0
C1127 C 0.86453 0.18541 0.77148 0.0
C1128 C 0.8574 0.17513 0.78071 0.0
C1129 C 0.8489 0.18571 0.78945 0.0
C1130 C 0.8479 0.20611 0.78906 0.0
H1131 H 0.9039 0.25038 0.78198 0.0
H1132 H 0.89272 0.22717 0.78525 0.0
H1133 H 0.89565 0.23456 0.7711 0.0
H1134 H 0.86906 0.21344 0.76391 0.0
H1135 H 0.87105 0.17771 0.76458 0.0
H1136 H 0.92169 0.40069 0.96388 0.0
H1137 H 0.9575 0.40189 0.96372 0.0
H1138 H 0.95853 0.36239 0.93596 0.0
H1139 H 0.92284 0.3612 0.93599 0.0
H1140 H 0.98416 0.37044 0.96593 0.0
H1141 H 0.99289 0.40825 0.92567 0.0
H1142 H 0.96996 0.40768 0.93306 0.0
H1143 H 0.97768 0.38686 0.9251 0.0
C1144 C 0.92953 0.39231 0.95772 0.0
C1145 C 0.9194 0.38091 0.94992 0.0
C1146 C 0.94998 0.39301 0.95764 0.0
C1147 C 0.96063 0.38247 0.94972 0.0
C1148 C 0.95057 0.37094 0.942 0.0
H1149 H 0.08165 0.35999 0.93437 0.0
H1150 H 0.04596 0.36146 0.9353 0.0
C1151 C 0.93016 0.3702 0.94208 0.0
C1152 C 0.98228 0.38306 0.94968 0.0
H1153 H 0.02164 0.39452 0.93357 0.0
C1154 C 0.99239 0.37585 0.95891 0.0
C1155 C 0.99293 0.39013 0.94049 0.0
C1156 C 0.98284 0.39884 0.93055 0.0
C1157 C 0.0129 0.37497 0.95906 0.0
C1158 C 0.02354 0.38178 0.9498 0.0
C1159 C 0.01343 0.38924 0.94064 0.0
C1160 C 0.04518 0.38097 0.94936 0.0
C1161 C 0.02299 0.36619 0.96898 0.0
C1162 C 0.05656 0.39163 0.95688 0.0
C1163 C 0.07697 0.39081 0.95639 0.0
C1164 C 0.08637 0.37938 0.94831 0.0
C1165 C 0.0749 0.36889 0.94071 0.0
C1166 C 0.0545 0.36972 0.94122 0.0
H1167 H 0.01276 0.3575 0.97415 0.0
H1168 H 0.03529 0.35662 0.96639 0.0
H1169 H 0.02905 0.37812 0.97416 0.0
H1170 H 0.04965 0.4007 0.9631 0.0
H1171 H 0.08537 0.39916 0.96233 0.0
H1172 H 0.84303 0.83076 0.207 0.0
H1173 H 0.84122 0.795 0.20686 0.0
H1174 H 0.90407 0.79165 0.20902 0.0
H1175 H 0.90605 0.82733 0.20928 0.0
H1176 H 0.85812 0.76961 0.19143 0.0
H1177 H 0.88567 0.75477 0.2337 0.0
H1178 H 0.8773 0.77864 0.2294 0.0
H1179 H 0.90136 0.77033 0.22567 0.0
C1180 C 0.85647 0.82243 0.20754 0.0
C1181 C 0.87469 0.83191 0.20818 0.0
C1182 C 0.8554 0.802 0.20745 0.0
C1183 C 0.87249 0.7907 0.20808 0.0
C1184 C 0.89068 0.8001 0.20875 0.0
H1185 H 0.89252 0.67104 0.1885 0.0
H1186 H 0.89094 0.70664 0.19017 0.0
C1187 C 0.89178 0.82051 0.20883 0.0
C1188 C 0.8714 0.76908 0.20756 0.0
H1189 H 0.88368 0.72745 0.22151 0.0
C1190 C 0.86357 0.76037 0.19804 0.0
C1191 C 0.87831 0.75709 0.21624 0.0
C1192 C 0.88597 0.76565 0.22688 0.0
C1193 C 0.86299 0.73996 0.19683 0.0
C1194 C 0.87068 0.728 0.20532 0.0
C1195 C 0.87798 0.73668 0.21497 0.0
C1196 C 0.87149 0.70643 0.20428 0.0
C1197 C 0.85406 0.73138 0.18652 0.0
C1198 C 0.86141 0.69451 0.2118 0.0
C1199 C 0.86235 0.67414 0.2109 0.0
C1200 C 0.87351 0.66533 0.2025 0.0
C1201 C 0.88372 0.67734 0.19504 0.0
C1202 C 0.88275 0.6977 0.19594 0.0
H1203 H 0.84433 0.74202 0.18229 0.0
H1204 H 0.8659 0.72728 0.18069 0.0
H1205 H 0.8455 0.718 0.18847 0.0
H1206 H 0.85273 0.70099 0.21833 0.0
H1207 H 0.85434 0.66532 0.2168 0.0
H1208 H 0.41879 0.64704 0.44601 0.0
H1209 H 0.45441 0.64594 0.44742 0.0
H1210 H 0.45059 0.5929 0.46659 0.0
H1211 H 0.41488 0.59372 0.46512 0.0
H1212 H 0.4783 0.6457 0.46645 0.0
H1213 H 0.48803 0.57833 0.44127 0.0
H1214 H 0.46543 0.59197 0.44146 0.0
H1215 H 0.4716 0.57617 0.45279 0.0
C1216 C 0.42549 0.63513 0.45054 0.0
C1217 C 0.41399 0.6204 0.4554 0.0
C1218 C 0.44585 0.63455 0.45135 0.0
C1219 C 0.45512 0.61921 0.45698 0.0
C1220 C 0.44372 0.60468 0.46204 0.0
H1221 H 0.57985 0.59387 0.46427 0.0
H1222 H 0.54417 0.59327 0.46607 0.0
C1223 C 0.42332 0.60524 0.46124 0.0
C1224 C 0.47675 0.61853 0.45751 0.0
H1225 H 0.51648 0.59231 0.44896 0.0
C1226 C 0.48667 0.63401 0.46266 0.0
C1227 C 0.48759 0.6032 0.45258 0.0
C1228 C 0.47769 0.58653 0.44663 0.0
C1229 C 0.50717 0.63464 0.46297 0.0
C1230 C 0.51801 0.61955 0.45783 0.0
C1231 C 0.5081 0.60384 0.45289 0.0
C1232 C 0.53962 0.62022 0.45705 0.0
C1233 C 0.51705 0.65139 0.46886 0.0
C1234 C 0.54883 0.63546 0.45129 0.0
C1235 C 0.56916 0.63584 0.45024 0.0
C1236 C 0.58069 0.62092 0.45488 0.0
C1237 C 0.57141 0.60562 0.46063 0.0
C1238 C 0.55103 0.60524 0.46166 0.0
H1239 H 0.50712 0.65845 0.47493 0.0
H1240 H 0.53042 0.64638 0.47323 0.0
H1241 H 0.52141 0.66262 0.46271 0.0
H1242 H 0.54025 0.64694 0.44747 0.0
H1243 H 0.57582 0.64779 0.44572 0.0
H1244 H 0.59845 0.16472 0.69736 0.0
H1245 H 0.59974 0.20034 0.69867 0.0
H1246 H 0.65439 0.19652 0.7163 0.0
H1247 H 0.6534 0.16078 0.71489 0.0
H1248 H 0.60175 0.22479 0.71732 0.0
H1249 H 0.66708 0.23312 0.69033 0.0
H1250 H 0.65337 0.2106 0.69115 0.0
H1251 H 0.6701 0.2171 0.70198 0.0
C1252 C 0.61075 0.17141 0.70154 0.0
C1253 C 0.6259 0.15991 0.70595 0.0
C1254 C 0.61143 0.19178 0.7023 0.0
C1255 C 0.6273 0.20106 0.70743 0.0
C1256 C 0.6422 0.18964 0.71212 0.0
H1257 H 0.65372 0.32589 0.71293 0.0
H1258 H 0.65434 0.29024 0.71497 0.0
C1259 C 0.64154 0.16923 0.71136 0.0
C1260 C 0.62819 0.22271 0.70773 0.0
H1261 H 0.65393 0.26194 0.69804 0.0
C1262 C 0.61319 0.23293 0.71314 0.0
C1263 C 0.64317 0.23326 0.70229 0.0
C1264 C 0.65928 0.22303 0.69602 0.0
C1265 C 0.61269 0.25345 0.7132 0.0
C1266 C 0.62742 0.26399 0.70756 0.0
C1267 C 0.64267 0.25379 0.70236 0.0
C1268 C 0.62683 0.28558 0.70655 0.0
C1269 C 0.59645 0.26369 0.71936 0.0
C1270 C 0.61129 0.29471 0.70102 0.0
C1271 C 0.6109 0.31503 0.69982 0.0
C1272 C 0.62611 0.32661 0.70409 0.0
C1273 C 0.64175 0.3174 0.70957 0.0
C1274 C 0.64214 0.29704 0.71075 0.0
H1275 H 0.58972 0.25401 0.72568 0.0
H1276 H 0.60189 0.27714 0.72348 0.0
H1277 H 0.58486 0.26798 0.71342 0.0
H1278 H 0.59954 0.28608 0.69751 0.0
H1279 H 0.59869 0.32163 0.69551 0.0
H1280 H 0.33365 0.3237 0.68914 0.0
H1281 H 0.33495 0.28826 0.69183 0.0
H1282 H 0.37003 0.29631 0.72107 0.0
H1283 H 0.36867 0.33178 0.71853 0.0
H1284 H 0.36897 0.26517 0.69244 0.0
H1285 H 0.32672 0.25888 0.7315 0.0
H1286 H 0.32605 0.28051 0.72293 0.0
H1287 H 0.34657 0.27609 0.73186 0.0
C1288 C 0.3415 0.31797 0.69621 0.0
C1289 C 0.35103 0.33059 0.70363 0.0
C1290 C 0.34224 0.29771 0.69772 0.0
C1291 C 0.35238 0.28969 0.70672 0.0
C1292 C 0.36181 0.30222 0.71419 0.0
H1293 H 0.37812 0.16973 0.72638 0.0
H1294 H 0.376 0.20546 0.72517 0.0
C1295 C 0.3611 0.32249 0.71268 0.0
C1296 C 0.35387 0.26818 0.70796 0.0
H1297 H 0.34237 0.2301 0.72505 0.0
C1298 C 0.36309 0.25748 0.69955 0.0
C1299 C 0.3463 0.25824 0.71728 0.0
C1300 C 0.3357 0.26895 0.72638 0.0
C1301 C 0.3651 0.23709 0.70024 0.0
C1302 C 0.35735 0.22712 0.7095 0.0
C1303 C 0.34828 0.23782 0.71796 0.0
C1304 C 0.3582 0.20553 0.7104 0.0
C1305 C 0.37577 0.22643 0.69114 0.0
C1306 C 0.34859 0.19378 0.70262 0.0
C1307 C 0.34976 0.17342 0.70328 0.0
C1308 C 0.36051 0.16439 0.71178 0.0
C1309 C 0.36979 0.17621 0.71971 0.0
C1310 C 0.36858 0.19662 0.71904 0.0
H1311 H 0.38514 0.23648 0.68623 0.0
H1312 H 0.38506 0.21454 0.69454 0.0
H1313 H 0.36494 0.21975 0.68545 0.0
H1314 H 0.34019 0.20037 0.69601 0.0
H1315 H 0.34233 0.16477 0.69707 0.0
H1316 H 0.09524 0.67326 0.21267 0.0
H1317 H 0.09842 0.70881 0.21384 0.0
H1318 H 0.16108 0.7037 0.21115 0.0
H1319 H 0.15808 0.66806 0.2099 0.0
H1320 H 0.12037 0.73216 0.22927 0.0
H1321 H 0.14544 0.74153 0.18584 0.0
H1322 H 0.13399 0.71932 0.19067 0.0
H1323 H 0.15901 0.72442 0.19412 0.0
C1324 C 0.10972 0.67965 0.21236 0.0
C1325 C 0.1264 0.66782 0.21112 0.0
C1326 C 0.1115 0.69997 0.21305 0.0
C1327 C 0.12995 0.70886 0.21244 0.0
C1328 C 0.14668 0.69711 0.21147 0.0
H1329 H 0.15833 0.83349 0.20775 0.0
H1330 H 0.16104 0.7979 0.20961 0.0
C1331 C 0.14494 0.67675 0.2108 0.0
C1332 C 0.13151 0.73046 0.21267 0.0
H1333 H 0.14289 0.77 0.19668 0.0
C1334 C 0.12538 0.74046 0.22218 0.0
C1335 C 0.13815 0.74119 0.20341 0.0
C1336 C 0.1444 0.73115 0.19288 0.0
C1337 C 0.12555 0.76098 0.22264 0.0
C1338 C 0.13163 0.77174 0.21326 0.0
C1339 C 0.13824 0.76171 0.20386 0.0
C1340 C 0.13023 0.79336 0.21279 0.0
C1341 C 0.11928 0.77094 0.23318 0.0
C1342 C 0.11201 0.80258 0.2139 0.0
C1343 C 0.11041 0.82286 0.21286 0.0
C1344 C 0.12699 0.83434 0.21059 0.0
C1345 C 0.14527 0.82509 0.20953 0.0
C1346 C 0.14686 0.80476 0.21058 0.0
H1347 H 0.12094 0.76111 0.24043 0.0
H1348 H 0.12789 0.78446 0.23467 0.0
H1349 H 0.10362 0.77502 0.23254 0.0
H1350 H 0.09892 0.79404 0.21534 0.0
H1351 H 0.09609 0.82949 0.21367 0.0
H1352 H 0.11808 0.16762 0.77185 0.0
H1353 H 0.11877 0.20336 0.77071 0.0
H1354 H 0.15425 0.20572 0.80012 0.0
H1355 H 0.15387 0.17004 0.80126 0.0
H1356 H 0.10514 0.22982 0.78643 0.0
H1357 H 0.18434 0.24072 0.77865 0.0
H1358 H 0.1725 0.21729 0.77701 0.0
H1359 H 0.17919 0.22587 0.79054 0.0
C1360 C 0.12618 0.17572 0.77802 0.0
C1361 C 0.13597 0.16597 0.78663 0.0
C1362 C 0.12654 0.19615 0.77736 0.0
C1363 C 0.13679 0.20717 0.78524 0.0
C1364 C 0.1466 0.19748 0.79382 0.0
H1365 H 0.15059 0.32953 0.80106 0.0
H1366 H 0.15107 0.29377 0.8004 0.0
C1367 C 0.14626 0.17707 0.79449 0.0
C1368 C 0.13648 0.22883 0.78479 0.0
H1369 H 0.16591 0.26911 0.78336 0.0
C1370 C 0.1184 0.23843 0.78566 0.0
C1371 C 0.15381 0.23999 0.7838 0.0
C1372 C 0.17355 0.23047 0.78234 0.0
C1373 C 0.11722 0.25893 0.78587 0.0
C1374 C 0.13458 0.27008 0.78502 0.0
C1375 C 0.15264 0.26049 0.78404 0.0
C1376 C 0.13432 0.29173 0.78529 0.0
C1377 C 0.09749 0.26848 0.7873 0.0
C1378 C 0.12494 0.30242 0.77694 0.0
C1379 C 0.12463 0.32286 0.77728 0.0
C1380 C 0.13377 0.33298 0.78598 0.0
C1381 C 0.14335 0.3222 0.79427 0.0
C1382 C 0.14367 0.30177 0.7939 0.0
H1383 H 0.08632 0.25798 0.79036 0.0
H1384 H 0.09839 0.28094 0.79317 0.0
H1385 H 0.09246 0.27425 0.77922 0.0
H1386 H 0.11792 0.29494 0.77012 0.0
H1387 H 0.1172 0.3307 0.77074 0.0
H1388 H 0.34924 0.66847 0.29696 0.0
H1389 H 0.34856 0.70415 0.29564 0.0
H1390 H 0.38358 0.70156 0.26605 0.0
H1391 H 0.38413 0.66584 0.2672 0.0
H1392 H 0.38047 0.72939 0.29591 0.0
H1393 H 0.33836 0.73728 0.25694 0.0
H1394 H 0.33928 0.71464 0.26461 0.0
H1395 H 0.3594 0.72166 0.25592 0.0
C1396 C 0.35668 0.67546 0.29012 0.0
C1397 C 0.3667 0.66429 0.28216 0.0
C1398 C 0.35628 0.69585 0.28939 0.0
C1399 C 0.36579 0.70547 0.28067 0.0
C1400 C 0.3758 0.6944 0.27272 0.0
H1401 H 0.38522 0.82795 0.26475 0.0
H1402 H 0.38472 0.79213 0.26504 0.0
C1403 C 0.37619 0.67398 0.27343 0.0
C1404 C 0.3659 0.72713 0.28019 0.0
H1405 H 0.35249 0.76619 0.26431 0.0
C1406 C 0.37428 0.73745 0.28902 0.0
C1407 C 0.35789 0.73757 0.27118 0.0
C1408 C 0.34806 0.72726 0.26166 0.0
C1409 C 0.37507 0.75796 0.28903 0.0
C1410 C 0.36697 0.76841 0.28004 0.0
C1411 C 0.35868 0.7581 0.27118 0.0
C1412 C 0.36685 0.79007 0.27974 0.0
C1413 C 0.3849 0.76825 0.29855 0.0
C1414 C 0.35667 0.80073 0.2878 0.0
C1415 C 0.35694 0.82116 0.28767 0.0
C1416 C 0.36731 0.83133 0.27944 0.0
C1417 C 0.37715 0.82058 0.27123 0.0
C1418 C 0.37687 0.80012 0.27137 0.0
H1419 H 0.39466 0.75824 0.30324 0.0
H1420 H 0.39364 0.78092 0.29561 0.0
H1421 H 0.37357 0.77379 0.30432 0.0
H1422 H 0.34852 0.79324 0.2942 0.0
H1423 H 0.3491 0.82898 0.29407 0.0
H1424 H 0.41217 0.13099 0.51601 0.0
H1425 H 0.44794 0.13052 0.51497 0.0
H1426 H 0.45079 0.10794 0.54819 0.0
H1427 H 0.41512 0.10818 0.54929 0.0
H1428 H 0.47488 0.15015 0.5288 0.0
H1429 H 0.48497 0.06965 0.53048 0.0
H1430 H 0.46171 0.08088 0.52738 0.0
H1431 H 0.47011 0.07932 0.54142 0.0
C1432 C 0.4204 0.12583 0.52308 0.0
C1433 C 0.41078 0.11954 0.53272 0.0
C1434 C 0.44082 0.1256 0.52247 0.0
C1435 C 0.45197 0.11892 0.53144 0.0
C1436 C 0.44244 0.11278 0.54109 0.0
H1437 H 0.57372 0.1089 0.54854 0.0
H1438 H 0.53802 0.10895 0.54774 0.0
C1439 C 0.42204 0.11304 0.54173 0.0
C1440 C 0.4736 0.11889 0.53085 0.0
H1441 H 0.51354 0.08911 0.53275 0.0
C1442 C 0.48336 0.1368 0.52956 0.0
C1443 C 0.48457 0.10144 0.53185 0.0
C1444 C 0.47484 0.0817 0.53276 0.0
C1445 C 0.50387 0.13781 0.5296 0.0
C1446 C 0.51484 0.12038 0.53076 0.0
C1447 C 0.50507 0.10244 0.53189 0.0
C1448 C 0.53649 0.12048 0.53112 0.0
C1449 C 0.51363 0.15756 0.52875 0.0
C1450 C 0.54746 0.12675 0.52199 0.0
C1451 C 0.5679 0.12676 0.52241 0.0
C1452 C 0.57772 0.1204 0.53197 0.0
C1453 C 0.56664 0.11394 0.54106 0.0
C1454 C 0.54623 0.11393 0.54062 0.0
H1455 H 0.50325 0.16969 0.53046 0.0
H1456 H 0.5261 0.15864 0.53459 0.0
H1457 H 0.51939 0.15953 0.52025 0.0
H1458 H 0.54021 0.13152 0.5145 0.0
H1459 H 0.57598 0.13173 0.51525 0.0
H1460 H 0.92605 0.84974 0.05636 0.0
H1461 H 0.96159 0.85062 0.0545 0.0
H1462 H 0.95691 0.89926 0.03196 0.0
H1463 H 0.92125 0.89867 0.03387 0.0
H1464 H 0.98421 0.84646 0.03527 0.0
H1465 H 0.99614 0.91883 0.05516 0.0
H1466 H 0.97338 0.90562 0.05637 0.0
H1467 H 0.97906 0.91862 0.04388 0.0
C1468 C 0.93254 0.86067 0.05102 0.0
C1469 C 0.92081 0.8742 0.0453 0.0
C1470 C 0.95286 0.86113 0.04996 0.0
C1471 C 0.96188 0.87515 0.04321 0.0
C1472 C 0.95025 0.88855 0.03738 0.0
H1473 H 0.08659 0.89625 0.03182 0.0
H1474 H 0.05083 0.89727 0.03061 0.0
C1475 C 0.92987 0.88812 0.03844 0.0
C1476 C 0.98347 0.87545 0.04221 0.0
H1477 H 0.02397 0.9028 0.04803 0.0
C1478 C 0.99291 0.85879 0.03803 0.0
C1479 C 0.99476 0.89161 0.04577 0.0
C1480 C 0.98539 0.90965 0.05063 0.0
C1481 C 0.01337 0.85779 0.03738 0.0
C1482 C 0.02467 0.87374 0.0412 0.0
C1483 C 0.01524 0.8906 0.04512 0.0
C1484 C 0.04629 0.87284 0.04168 0.0
C1485 C 0.02272 0.83968 0.03259 0.0
C1486 C 0.05554 0.8589 0.04839 0.0
C1487 C 0.07591 0.85827 0.0491 0.0
C1488 C 0.08744 0.87166 0.04316 0.0
C1489 C 0.07813 0.88568 0.03646 0.0
C1490 C 0.05772 0.88631 0.03577 0.0
H1491 H 0.01235 0.83146 0.02726 0.0
H1492 H 0.03588 0.84344 0.02765 0.0
H1493 H 0.02729 0.82987 0.03942 0.0
H1494 H 0.04697 0.84863 0.05319 0.0
H1495 H 0.08259 0.84736 0.05438 0.0
H1496 H 0.41294 0.87002 0.48046 0.0
H1497 H 0.44855 0.87133 0.48259 0.0
H1498 H 0.45371 0.89791 0.45041 0.0
H1499 H 0.41824 0.89685 0.44824 0.0
H1500 H 0.47672 0.85374 0.46889 0.0
H1501 H 0.4862 0.93427 0.47013 0.0
H1502 H 0.4628 0.92258 0.47223 0.0
H1503 H 0.47225 0.92589 0.45849 0.0
C1504 C 0.42164 0.87628 0.47387 0.0
C1505 C 0.41274 0.88339 0.46419 0.0
C1506 C 0.44197 0.877 0.4751 0.0
C1507 C 0.45372 0.88499 0.46673 0.0
C1508 C 0.44488 0.89207 0.45707 0.0
H1509 H 0.57497 0.89628 0.4502 0.0
H1510 H 0.53932 0.89683 0.45144 0.0
C1511 C 0.4246 0.89133 0.45582 0.0
C1512 C 0.47529 0.88514 0.46783 0.0
H1513 H 0.51507 0.91529 0.46724 0.0
C1514 C 0.48513 0.86719 0.46867 0.0
C1515 C 0.48617 0.90273 0.46753 0.0
C1516 C 0.47633 0.92248 0.46715 0.0
C1517 C 0.50564 0.8663 0.46877 0.0
C1518 C 0.51653 0.88387 0.46821 0.0
C1519 C 0.50667 0.90185 0.46763 0.0
C1520 C 0.53817 0.88387 0.46773 0.0
C1521 C 0.5155 0.84655 0.46905 0.0
C1522 C 0.54934 0.87666 0.47656 0.0
C1523 C 0.56976 0.87629 0.47588 0.0
C1524 C 0.57934 0.88321 0.46636 0.0
C1525 C 0.56807 0.89078 0.45763 0.0
C1526 C 0.54769 0.89114 0.45833 0.0
H1527 H 0.50517 0.83451 0.46706 0.0
H1528 H 0.52788 0.84603 0.46313 0.0
H1529 H 0.5214 0.84389 0.47746 0.0
H1530 H 0.54226 0.8713 0.48397 0.0
H1531 H 0.578 0.87047 0.48277 0.0
H1532 H 0.06804 0.09339 0.95285 0.0
H1533 H 0.03231 0.0926 0.95358 0.0
H1534 H 0.03333 0.12552 0.98395 0.0
H1535 H 0.06907 0.12657 0.98326 0.0
H1536 H 0.00725 0.07782 0.97041 0.0
H1537 H 0.99706 0.15764 0.96361 0.0
H1538 H 0.01995 0.14537 0.96091 0.0
H1539 H 0.013 0.1512 0.97484 0.0
C1540 C 0.06069 0.10046 0.9597 0.0
C1541 C 0.07141 0.11016 0.96796 0.0
C1542 C 0.04028 0.09996 0.9601 0.0
C1543 C 0.03021 0.10924 0.96873 0.0
C1544 C 0.04084 0.11857 0.97712 0.0
H1545 H 0.90567 0.12637 0.98072 0.0
H1546 H 0.94132 0.12525 0.98245 0.0
C1547 C 0.06126 0.11907 0.97673 0.0
C1548 C 0.00856 0.10918 0.96889 0.0
H1549 H 0.96865 0.13902 0.96713 0.0
C1550 C 0.99878 0.09119 0.9697 0.0
C1551 C 0.9976 0.12666 0.96799 0.0
C1552 C 0.00738 0.14632 0.9667 0.0
C1553 C 0.97828 0.09021 0.96968 0.0
C1554 C 0.96732 0.10767 0.96863 0.0
C1555 C 0.97711 0.12567 0.96796 0.0
C1556 C 0.94571 0.10756 0.96785 0.0
C1557 C 0.96852 0.07053 0.97092 0.0
C1558 C 0.9364 0.09808 0.95902 0.0
C1559 C 0.91606 0.09867 0.958 0.0
C1560 C 0.90465 0.10888 0.96576 0.0
C1561 C 0.91402 0.11833 0.97462 0.0
C1562 C 0.93439 0.11773 0.97562 0.0
H1563 H 0.97852 0.05958 0.97468 0.0
H1564 H 0.95514 0.07163 0.97608 0.0
H1565 H 0.9642 0.06507 0.96264 0.0
H1566 H 0.9449 0.0905 0.9528 0.0
H1567 H 0.90933 0.09132 0.95105 0.0
H1568 H 0.19408 0.4514 0.9588 0.0
H1569 H 0.19923 0.47859 0.97167 0.0
H1570 H 0.16643 0.44779 0.99664 0.0
H1571 H 0.16131 0.42063 0.98394 0.0
H1572 H 0.16799 0.49966 0.98042 0.0
H1573 H 0.21324 0.46879 0.01404 0.0
H1574 H 0.21165 0.45766 0.00053 0.0
H1575 H 0.19278 0.45352 0.01063 0.0
C1576 C 0.18832 0.45025 0.96711 0.0
C1577 C 0.17718 0.43393 0.97033 0.0
C1578 C 0.1913 0.46578 0.97444 0.0
C1579 C 0.18343 0.46506 0.98514 0.0
C1580 C 0.17299 0.44845 0.9885 0.0
H1581 H 0.14497 0.53489 0.03805 0.0
H1582 H 0.1565 0.50955 0.0254 0.0
C1583 C 0.16992 0.43301 0.98118 0.0
C1584 C 0.18382 0.48251 0.99234 0.0
H1585 H 0.19392 0.49721 0.01866 0.0
C1586 C 0.17404 0.49934 0.9887 0.0
C1587 C 0.19167 0.48195 0.00314 0.0
C1588 C 0.2031 0.46456 0.00729 0.0
C1589 C 0.17075 0.51519 0.9958 0.0
C1590 C 0.17784 0.51428 0.00677 0.0
C1591 C 0.18847 0.49782 0.01025 0.0
C1592 C 0.17281 0.52947 0.01499 0.0
C1593 C 0.15869 0.53222 0.99171 0.0
C1594 C 0.17861 0.54896 0.01348 0.0
C1595 C 0.17189 0.56352 0.02064 0.0
C1596 C 0.15941 0.55875 0.02948 0.0
C1597 C 0.15446 0.53906 0.03128 0.0
C1598 C 0.16109 0.52455 0.02409 0.0
H1599 H 0.15107 0.52882 0.98383 0.0
H1600 H 0.14758 0.53652 0.99794 0.0
H1601 H 0.1684 0.54496 0.99025 0.0
H1602 H 0.18796 0.55298 0.00663 0.0
H1603 H 0.17616 0.57853 0.01911 0.0
H1604 H 0.8253 0.90795 0.2347 0.0
H1605 H 0.79788 0.91604 0.24674 0.0
H1606 H 0.77491 0.95507 0.22194 0.0
H1607 H 0.80242 0.94701 0.20974 0.0
H1608 H 0.78231 0.95417 0.25469 0.0
H1609 H 0.73201 0.91198 0.22732 0.0
H1610 H 0.75821 0.9092 0.22652 0.0
H1611 H 0.74681 0.9309 0.22124 0.0
C1612 C 0.81456 0.91842 0.23182 0.0
C1613 C 0.81589 0.92665 0.22121 0.0
C1614 C 0.79896 0.9231 0.23874 0.0
C1615 C 0.78436 0.93601 0.23517 0.0
C1616 C 0.78603 0.94497 0.22479 0.0
H1617 H 0.6707 0.9333 0.26814 0.0
H1618 H 0.69652 0.94523 0.25589 0.0
C1619 C 0.80173 0.94036 0.21785 0.0
C1620 C 0.7667 0.93851 0.24203 0.0
H1621 H 0.71993 0.92188 0.24447 0.0
C1622 C 0.76851 0.94747 0.2524 0.0
C1623 C 0.74876 0.92983 0.23896 0.0
C1624 C 0.74619 0.91983 0.22794 0.0
C1625 C 0.75303 0.94722 0.26001 0.0
C1626 C 0.73555 0.93731 0.25723 0.0
C1627 C 0.73337 0.92942 0.2466 0.0
C1628 C 0.72021 0.93295 0.26551 0.0
C1629 C 0.75572 0.95722 0.271 0.0
C1630 C 0.72496 0.92229 0.27505 0.0
C1631 C 0.71027 0.91553 0.28209 0.0
C1632 C 0.69051 0.91904 0.27961 0.0
C1633 C 0.68579 0.93027 0.27025 0.0
C1634 C 0.70052 0.93715 0.26325 0.0
H1635 H 0.76598 0.96976 0.2703 0.0
H1636 H 0.74159 0.96259 0.27436 0.0
H1637 H 0.76211 0.94668 0.27697 0.0
H1638 H 0.73999 0.91838 0.27681 0.0
H1639 H 0.71439 0.90687 0.28921 0.0
H1640 H 0.31029 0.44768 0.5426 0.0
H1641 H 0.30224 0.47524 0.53045 0.0
H1642 H 0.33067 0.44599 0.50327 0.0
H1643 H 0.33867 0.4185 0.51526 0.0
H1644 H 0.33108 0.49736 0.52002 0.0
H1645 H 0.28035 0.46643 0.48908 0.0
H1646 H 0.28471 0.45499 0.50231 0.0
H1647 H 0.30154 0.45136 0.49107 0.0
C1648 C 0.31448 0.44697 0.53398 0.0
C1649 C 0.32522 0.43098 0.5299 0.0
C1650 C 0.30985 0.46269 0.52706 0.0
C1651 C 0.31562 0.4625 0.51594 0.0
C1652 C 0.32569 0.44623 0.51177 0.0
H1653 H 0.34576 0.53073 0.46151 0.0
H1654 H 0.33537 0.50618 0.47491 0.0
C1655 C 0.33043 0.43061 0.51867 0.0
C1656 C 0.31348 0.48014 0.50896 0.0
H1657 H 0.29885 0.49488 0.48334 0.0
C1658 C 0.32363 0.49707 0.51211 0.0
C1659 C 0.30375 0.47962 0.49867 0.0
C1660 C 0.2918 0.46217 0.49513 0.0
C1661 C 0.3256 0.51296 0.50488 0.0
C1662 C 0.31681 0.51199 0.49431 0.0
C1663 C 0.30564 0.49554 0.49143 0.0
C1664 C 0.32095 0.52683 0.48573 0.0
C1665 C 0.33821 0.53005 0.50832 0.0
C1666 C 0.31581 0.54652 0.48723 0.0
C1667 C 0.3219 0.56066 0.47963 0.0
C1668 C 0.33306 0.55527 0.47035 0.0
C1669 C 0.33729 0.53539 0.4686 0.0
C1670 C 0.3313 0.52132 0.47622 0.0
H1671 H 0.34678 0.52686 0.5159 0.0
H1672 H 0.34853 0.53408 0.50161 0.0
H1673 H 0.32876 0.54289 0.51002 0.0
H1674 H 0.3075 0.55101 0.49442 0.0
H1675 H 0.31822 0.57584 0.48114 0.0
H1676 H 0.80293 0.05734 0.78819 0.0
H1677 H 0.77688 0.04616 0.77578 0.0
H1678 H 0.80025 0.08235 0.74974 0.0
H1679 H 0.82618 0.09353 0.76199 0.0
H1680 H 0.75035 0.07285 0.76683 0.0
H1681 H 0.78683 0.03148 0.73349 0.0
H1682 H 0.79799 0.03543 0.74684 0.0
H1683 H 0.79903 0.05414 0.73638 0.0
C1684 C 0.80275 0.06257 0.77974 0.0
C1685 C 0.81649 0.07644 0.77608 0.0
C1686 C 0.7879 0.05613 0.77267 0.0
C1687 C 0.78683 0.06322 0.76181 0.0
C1688 C 0.80107 0.07636 0.75801 0.0
H1689 H 0.71648 0.0948 0.70951 0.0
H1690 H 0.74172 0.0836 0.72224 0.0
C1691 C 0.81577 0.0829 0.76507 0.0
C1692 C 0.76943 0.05943 0.7549 0.0
H1693 H 0.75624 0.04736 0.72862 0.0
C1694 C 0.75142 0.06677 0.75858 0.0
C1695 C 0.77096 0.05148 0.74417 0.0
C1696 C 0.78972 0.0425 0.74003 0.0
C1697 C 0.73532 0.06802 0.75145 0.0
C1698 C 0.73724 0.06129 0.74044 0.0
C1699 C 0.75484 0.05259 0.73704 0.0
C1700 C 0.7222 0.06565 0.73201 0.0
C1701 C 0.71695 0.07796 0.75552 0.0
C1702 C 0.70296 0.05878 0.73309 0.0
C1703 C 0.6884 0.06539 0.7259 0.0
C1704 C 0.69294 0.07875 0.71743 0.0
C1705 C 0.71246 0.08462 0.71598 0.0
C1706 C 0.72694 0.07816 0.72323 0.0
H1707 H 0.71915 0.08535 0.76359 0.0
H1708 H 0.7118 0.08899 0.74944 0.0
H1709 H 0.70523 0.06689 0.75657 0.0
H1710 H 0.69911 0.04879 0.73969 0.0
H1711 H 0.67352 0.0604 0.72713 0.0
H1712 H 0.84462 0.53474 0.03974 0.0
H1713 H 0.8347 0.50969 0.02655 0.0
H1714 H 0.8051 0.55336 0.007 0.0
H1715 H 0.8154 0.57872 0.02005 0.0
H1716 H 0.79899 0.49679 0.01845 0.0
H1717 H 0.84434 0.5305 0.98527 0.0
H1718 H 0.84606 0.53811 -0.00051 0.0
H1719 H 0.82574 0.54584 0.99116 0.0
C1720 C 0.83586 0.53904 0.03269 0.0
C1721 C 0.83106 0.55876 0.03085 0.0
C1722 C 0.83015 0.52468 0.02518 0.0
C1723 C 0.81947 0.52973 0.01571 0.0
C1724 C 0.81369 0.54923 0.01414 0.0
H1725 H 0.80789 0.44974 0.95926 0.0
H1726 H 0.79979 0.47693 0.97165 0.0
C1727 C 0.81953 0.56367 0.02163 0.0
C1728 C 0.81568 0.51464 0.00721 0.0
H1729 H 0.82946 0.50051 0.98132 0.0
C1730 C 0.80539 0.49771 0.01027 0.0
C1731 C 0.82402 0.51592 0.99653 0.0
C1732 C 0.83579 0.53347 0.99289 0.0
C1733 C 0.80393 0.48167 0.00309 0.0
C1734 C 0.81313 0.4826 0.99265 0.0
C1735 C 0.8224 0.49992 0.98934 0.0
C1736 C 0.81555 0.4651 0.98562 0.0
C1737 C 0.79304 0.46367 0.00682 0.0
C1738 C 0.82701 0.44948 0.98942 0.0
C1739 C 0.83183 0.43409 0.98237 0.0
C1740 C 0.82524 0.43403 0.97138 0.0
C1741 C 0.81315 0.44935 0.9677 0.0
C1742 C 0.80848 0.46487 0.97475 0.0
H1743 H 0.78207 0.46724 0.01329 0.0
H1744 H 0.78551 0.45648 -0.00021 0.0
H1745 H 0.80359 0.45308 0.0104 0.0
H1746 H 0.83294 0.44959 0.99772 0.0
H1747 H 0.84113 0.42249 0.98546 0.0
H1748 H 0.21693 0.10092 0.78886 0.0
H1749 H 0.24044 0.08817 0.77554 0.0
H1750 H 0.19447 0.05602 0.75925 0.0
H1751 H 0.17065 0.06907 0.77245 0.0
H1752 H 0.25141 0.05006 0.76941 0.0
H1753 H 0.2165 0.09064 0.73465 0.0
H1754 H 0.21035 0.09541 0.74889 0.0
H1755 H 0.20123 0.07386 0.74215 0.0
C1756 C 0.21179 0.09105 0.78249 0.0
C1757 C 0.19188 0.08621 0.78162 0.0
C1758 C 0.22527 0.08371 0.77491 0.0
C1759 C 0.21913 0.07138 0.76633 0.0
C1760 C 0.19942 0.0658 0.76571 0.0
H1761 H 0.29526 0.05253 0.70893 0.0
H1762 H 0.26874 0.04532 0.72193 0.0
C1763 C 0.18586 0.07323 0.77327 0.0
C1764 C 0.23335 0.06555 0.75774 0.0
H1765 H 0.24619 0.07501 0.73104 0.0
C1766 C 0.25014 0.0552 0.76096 0.0
C1767 C 0.23156 0.07218 0.74671 0.0
C1768 C 0.21404 0.08375 0.74285 0.0
C1769 C 0.26566 0.05219 0.75359 0.0
C1770 C 0.26439 0.05994 0.74279 0.0
C1771 C 0.24708 0.06909 0.73934 0.0
C1772 C 0.28166 0.06137 0.73549 0.0
C1773 C 0.28354 0.04131 0.75752 0.0
C1774 C 0.29773 0.07262 0.73886 0.0
C1775 C 0.31276 0.07688 0.73146 0.0
C1776 C 0.31198 0.07001 0.72053 0.0
C1777 C 0.29628 0.05801 0.7173 0.0
C1778 C 0.28114 0.05386 0.72471 0.0
H1779 H 0.2798 0.03083 0.76421 0.0
H1780 H 0.29062 0.03319 0.75065 0.0
H1781 H 0.29425 0.05194 0.76089 0.0
H1782 H 0.2982 0.07893 0.74706 0.0
H1783 H 0.32467 0.08611 0.73422 0.0
H1784 H 0.66287 0.46036 0.539 0.0
H1785 H 0.67116 0.48478 0.52503 0.0
H1786 H 0.68632 0.43888 0.50214 0.0
H1787 H 0.67758 0.41429 0.51598 0.0
H1788 H 0.70443 0.49333 0.51267 0.0
H1789 H 0.64317 0.46813 0.48594 0.0
H1790 H 0.64595 0.46003 0.50002 0.0
H1791 H 0.66104 0.44984 0.48931 0.0
C1792 C 0.66814 0.45544 0.53103 0.0
C1793 C 0.66926 0.43539 0.52853 0.0
C1794 C 0.67293 0.46942 0.52307 0.0
C1795 C 0.67898 0.46362 0.5125 0.0
C1796 C 0.68125 0.44364 0.51018 0.0
H1797 H 0.68232 0.54027 0.4545 0.0
H1798 H 0.69017 0.51255 0.46655 0.0
C1799 C 0.67631 0.42962 0.51811 0.0
C1800 C 0.68154 0.47853 0.50375 0.0
H1801 H 0.66126 0.49509 0.47976 0.0
C1802 C 0.69516 0.49362 0.5054 0.0
C1803 C 0.66941 0.47883 0.49428 0.0
C1804 C 0.65395 0.46346 0.49228 0.0
C1805 C 0.69659 0.50931 0.49797 0.0
C1806 C 0.68396 0.50996 0.48875 0.0
C1807 C 0.67098 0.49445 0.48683 0.0
C1808 C 0.68227 0.52748 0.48165 0.0
C1809 C 0.71135 0.52525 0.50015 0.0
C1810 C 0.6754 0.54505 0.4862 0.0
C1811 C 0.67076 0.56082 0.47936 0.0
C1812 C 0.67287 0.55927 0.46784 0.0
C1813 C 0.68054 0.54192 0.46335 0.0
C1814 C 0.68506 0.52609 0.4702 0.0
H1815 H 0.72362 0.51986 0.50534 0.0
H1816 H 0.71736 0.53115 0.4923 0.0
H1817 H 0.7041 0.5374 0.50464 0.0
H1818 H 0.67275 0.54629 0.49499 0.0
H1819 H 0.66494 0.57399 0.48309 0.0
H1820 H 0.17097 0.93313 0.22666 0.0
H1821 H 0.19686 0.94527 0.23878 0.0
H1822 H 0.2402 0.91792 0.21799 0.0
H1823 H 0.21453 0.9062 0.20571 0.0
H1824 H 0.22023 0.92216 0.25033 0.0
H1825 H 0.2664 0.96927 0.22412 0.0
H1826 H 0.24199 0.96211 0.22012 0.0
H1827 H 0.26245 0.94608 0.21759 0.0
C1828 C 0.18605 0.93004 0.22455 0.0
C1829 C 0.19071 0.9186 0.21526 0.0
C1830 C 0.20082 0.93704 0.23147 0.0
C1831 C 0.22049 0.93276 0.22921 0.0
C1832 C 0.22518 0.92189 0.21974 0.0
H1833 H 0.32545 0.90716 0.25969 0.0
H1834 H 0.29804 0.91561 0.24773 0.0
C1835 C 0.21045 0.91501 0.21277 0.0
C1836 C 0.23587 0.93724 0.23744 0.0
H1837 H 0.28279 0.95374 0.23975 0.0
C1838 C 0.2337 0.92956 0.24812 0.0
C1839 C 0.25341 0.94696 0.23456 0.0
C1840 C 0.2561 0.95675 0.2235 0.0
C1841 C 0.24916 0.92996 0.25572 0.0
C1842 C 0.26716 0.93841 0.25254 0.0
C1843 C 0.26896 0.9472 0.24212 0.0
C1844 C 0.28488 0.93575 0.25933 0.0
C1845 C 0.24659 0.92014 0.2668 0.0
C1846 C 0.28676 0.94471 0.2697 0.0
C1847 C 0.30246 0.93989 0.27659 0.0
C1848 C 0.31639 0.92598 0.2732 0.0
C1849 C 0.31487 0.91778 0.26259 0.0
C1850 C 0.29929 0.92267 0.25572 0.0
H1851 H 0.23234 0.91244 0.26749 0.0
H1852 H 0.25852 0.90941 0.26822 0.0
H1853 H 0.24739 0.93129 0.27344 0.0
H1854 H 0.2758 0.95496 0.27257 0.0
H1855 H 0.30329 0.94653 0.2847 0.0
H1856 H 0.6793 0.04695 0.54085 0.0
H1857 H 0.68576 0.01929 0.52851 0.0
H1858 H 0.66008 0.05116 0.5014 0.0
H1859 H 0.65365 0.07881 0.51359 0.0
H1860 H 0.65571 -0.00055 0.5175 0.0
H1861 H 0.70991 0.02813 0.48764 0.0
H1862 H 0.70565 0.03932 0.50095 0.0
H1863 H 0.68945 0.04422 0.48958 0.0
C1864 C 0.67535 0.0482 0.53221 0.0
C1865 C 0.66586 0.06502 0.5282 0.0
C1866 C 0.67908 0.0324 0.52518 0.0
C1867 C 0.67363 0.03331 0.51402 0.0
C1868 C 0.66477 0.05033 0.50993 0.0
H1869 H 0.64591 0.96346 0.45893 0.0
H1870 H 0.65511 0.98878 0.47217 0.0
C1871 C 0.66095 0.06605 0.51694 0.0
C1872 C 0.67499 0.01579 0.50691 0.0
H1873 H 0.69112 0.0002 0.48173 0.0
C1874 C 0.66378 -0.00061 0.50979 0.0
C1875 C 0.68549 0.01587 0.49685 0.0
C1876 C 0.69846 0.03276 0.49361 0.0
C1877 C 0.66179 0.98351 0.50255 0.0
C1878 C 0.67163 0.98394 0.49227 0.0
C1879 C 0.68357 -4e-05 0.48961 0.0
C1880 C 0.66827 0.9687 0.48382 0.0
C1881 C 0.64825 0.96697 0.50569 0.0
C1882 C 0.67315 0.9491 0.48586 0.0
C1883 C 0.66778 0.93455 0.47834 0.0
C1884 C 0.65758 0.93942 0.46863 0.0
C1885 C 0.65364 0.9592 0.46636 0.0
C1886 C 0.65894 0.97371 0.4739 0.0
H1887 H 0.63887 0.97075 0.51288 0.0
H1888 H 0.63865 0.96295 0.49865 0.0
H1889 H 0.65705 0.95392 0.50793 0.0
H1890 H 0.68067 0.94501 0.49338 0.0
H1891 H 0.67121 0.91947 0.48027 0.0
H1892 H 0.17377 0.40453 0.76482 0.0
H1893 H 0.20045 0.4111 0.75195 0.0
H1894 H 0.22508 0.45273 0.77479 0.0
H1895 H 0.19836 0.44624 0.7878 0.0
H1896 H 0.2158 0.44845 0.7424 0.0
H1897 H 0.26732 0.40852 0.77012 0.0
H1898 H 0.24115 0.40603 0.77141 0.0
H1899 H 0.25296 0.42803 0.77593 0.0
C1900 C 0.18472 0.41526 0.76708 0.0
C1901 C 0.18409 0.42469 0.77739 0.0
C1902 C 0.19989 0.41906 0.75969 0.0
C1903 C 0.21474 0.43225 0.76249 0.0
C1904 C 0.21375 0.44239 0.77254 0.0
H1905 H 0.32755 0.42959 0.72867 0.0
H1906 H 0.30148 0.44103 0.7409 0.0
C1907 C 0.19849 0.43867 0.77995 0.0
C1908 C 0.23201 0.43392 0.75524 0.0
H1909 H 0.27888 0.4176 0.75269 0.0
C1910 C 0.22972 0.44201 0.74467 0.0
C1911 C 0.25012 0.42557 0.7583 0.0
C1912 C 0.25317 0.41643 0.76952 0.0
C1913 C 0.24497 0.44141 0.73692 0.0
C1914 C 0.26271 0.432 0.73976 0.0
C1915 C 0.26527 0.42479 0.75052 0.0
C1916 C 0.2781 0.4277 0.7315 0.0
C1917 C 0.24183 0.45064 0.72575 0.0
C1918 C 0.2736 0.41658 0.72209 0.0
C1919 C 0.28843 0.41013 0.71505 0.0
C1920 C 0.30809 0.41438 0.71741 0.0
C1921 C 0.31254 0.42599 0.72666 0.0
C1922 C 0.29767 0.43258 0.73364 0.0
H1923 H 0.23125 0.46295 0.72625 0.0
H1924 H 0.25575 0.45617 0.7222 0.0
H1925 H 0.23563 0.43957 0.72003 0.0
H1926 H 0.25869 0.41214 0.72043 0.0
H1927 H 0.28453 0.40114 0.70803 0.0
H1928 H 0.80766 0.94513 0.04127 0.0
H1929 H 0.79818 0.97175 0.0288 0.0
H1930 H 0.82972 0.944 0.00223 0.0
H1931 H 0.83918 0.91742 0.01454 0.0
H1932 H 0.82605 0.99554 0.01859 0.0
H1933 H 0.77858 0.96077 0.98728 0.0
H1934 H 0.7831 0.94996 0.00067 0.0
H1935 H 0.80062 0.94716 0.98968 0.0
C1936 C 0.81224 0.94451 0.03271 0.0
C1937 C 0.82428 0.92925 0.0289 0.0
C1938 C 0.80679 0.9597 0.02561 0.0
C1939 C 0.81303 0.95969 0.01457 0.0
C1940 C 0.82439 0.94408 0.01066 0.0
H1941 H 0.84098 0.02814 0.96008 0.0
H1942 H 0.83123 0.00343 0.97351 0.0
C1943 C 0.82995 0.92899 0.01774 0.0
C1944 C 0.80999 0.97701 0.00746 0.0
H1945 H 0.7953 0.99031 0.98161 0.0
C1946 C 0.8189 0.99462 0.01061 0.0
C1947 C 0.80066 0.97568 0.99708 0.0
C1948 C 0.79003 0.95741 0.99352 0.0
C1949 C 0.82009 0.01049 0.0033 0.0
C1950 C 0.81174 0.00876 0.99265 0.0
C1951 C 0.80174 0.99157 0.98976 0.0
C1952 C 0.81537 0.02359 0.98398 0.0
C1953 C 0.83149 0.02839 0.00676 0.0
C1954 C 0.8092 0.04304 0.98526 0.0
C1955 C 0.81493 0.0573 0.97763 0.0
C1956 C 0.82676 0.05225 0.96856 0.0
C1957 C 0.83199 0.03255 0.96701 0.0
C1958 C 0.82636 0.01838 0.97466 0.0
H1959 H 0.83994 0.0259 0.01446 0.0
H1960 H 0.8418 0.03291 0.00014 0.0
H1961 H 0.8212 0.04066 0.00825 0.0
H1962 H 0.80039 0.04727 0.9923 0.0
H1963 H 0.81049 0.07232 0.97898 0.0
H1964 H 0.29799 0.55655 0.29023 0.0
H1965 H 0.27092 0.54941 0.2776 0.0
H1966 H 0.3013 0.57946 0.25138 0.0
H1967 H 0.32835 0.5865 0.26384 0.0
H1968 H 0.2495 0.57906 0.26795 0.0
H1969 H 0.28036 0.53118 0.23556 0.0
H1970 H 0.29182 0.5343 0.24889 0.0
H1971 H 0.29549 0.55212 0.23813 0.0
C1972 C 0.29909 0.56125 0.28171 0.0
C1973 C 0.31523 0.57222 0.27805 0.0
C1974 C 0.28363 0.55713 0.27451 0.0
C1975 C 0.28423 0.56368 0.26353 0.0
C1976 C 0.30073 0.57387 0.25975 0.0
H1977 H 0.21475 0.5989 0.21012 0.0
H1978 H 0.23993 0.58749 0.22289 0.0
C1979 C 0.3161 0.57806 0.26693 0.0
C1980 C 0.26671 0.56243 0.2564 0.0
H1981 H 0.252 0.55032 0.23036 0.0
C1982 C 0.24982 0.57237 0.25983 0.0
C1983 C 0.26726 0.55374 0.24582 0.0
C1984 C 0.28466 0.54207 0.24192 0.0
C1985 C 0.23396 0.57507 0.25266 0.0
C1986 C 0.2349 0.56722 0.24186 0.0
C1987 C 0.25137 0.55637 0.23863 0.0
C1988 C 0.21982 0.57185 0.2335 0.0
C1989 C 0.2169 0.58737 0.25648 0.0
C1990 C 0.20027 0.56632 0.23507 0.0
C1991 C 0.1858 0.57298 0.22784 0.0
C1992 C 0.19071 0.58511 0.21887 0.0
C1993 C 0.21047 0.58968 0.21698 0.0
C1994 C 0.22489 0.58312 0.22425 0.0
H1995 H 0.22021 0.59542 0.26423 0.0
H1996 H 0.2127 0.59814 0.25004 0.0
H1997 H 0.20414 0.57776 0.25806 0.0
H1998 H 0.19614 0.55731 0.24205 0.0
H1999 H 0.17073 0.569 0.22943 0.0
H2000 H 0.31552 0.07465 0.52197 0.0
H2001 H 0.30621 0.04799 0.50952 0.0
H2002 H 0.35791 0.01598 0.51908 0.0
H2003 H 0.36689 0.0421 0.53176 0.0
H2004 H 0.32458 0.0355 0.49199 0.0
H2005 H 0.31841 0.97326 0.52062 0.0
H2006 H 0.31949 0.99822 0.52544 0.0
H2007 H 0.34165 0.98484 0.52253 0.0
C2008 C 0.32473 0.06178 0.52153 0.0
C2009 C 0.34192 0.06043 0.52786 0.0
C2010 C 0.31938 0.04656 0.51443 0.0
C2011 C 0.33113 0.02979 0.51353 0.0
C2012 C 0.34824 0.02845 0.5199 0.0
H2013 H 0.36399 0.96065 0.46016 0.0
H2014 H 0.35492 0.98651 0.47297 0.0
C2015 C 0.35347 0.04351 0.52707 0.0
C2016 C 0.32673 0.01448 0.50523 0.0
H2017 H 0.32746 0.96504 0.50164 0.0
C2018 C 0.32475 0.02009 0.49413 0.0
C2019 C 0.32634 0.99438 0.508 0.0
C2020 C 0.32635 0.98738 0.51982 0.0
C2021 C 0.32409 0.00611 0.48567 0.0
C2022 C 0.3261 0.98607 0.48837 0.0
C2023 C 0.32636 0.98042 0.49952 0.0
C2024 C 0.33012 0.97101 0.47987 0.0
C2025 C 0.32169 0.01304 0.47391 0.0
C2026 C 0.31948 0.95345 0.47962 0.0
C2027 C 0.32492 0.93839 0.47243 0.0
C2028 C 0.34109 0.94069 0.46536 0.0
C2029 C 0.35137 0.95847 0.46543 0.0
C2030 C 0.34607 0.97338 0.47269 0.0
H2031 H 0.31275 0.0266 0.47358 0.0
H2032 H 0.33628 0.01656 0.47042 0.0
H2033 H 0.31466 0.00174 0.46866 0.0
H2034 H 0.30722 0.95124 0.48515 0.0
H2035 H 0.3167 0.92485 0.47255 0.0
H2036 H 0.71632 0.60053 0.28826 0.0
H2037 H 0.74174 0.58917 0.27563 0.0
H2038 H 0.69845 0.55837 0.25645 0.0
H2039 H 0.67278 0.57 0.26893 0.0
H2040 H 0.75403 0.55186 0.26862 0.0
H2041 H 0.72301 0.59583 0.23405 0.0
H2042 H 0.71513 0.59898 0.24816 0.0
H2043 H 0.70684 0.57831 0.24029 0.0
C2044 C 0.71219 0.59121 0.28141 0.0
C2045 C 0.6925 0.58641 0.2795 0.0
C2046 C 0.72675 0.58468 0.27423 0.0
C2047 C 0.72191 0.57321 0.26502 0.0
C2048 C 0.70241 0.56753 0.2634 0.0
H2049 H 0.80205 0.55582 0.20925 0.0
H2050 H 0.77441 0.54939 0.22163 0.0
C2051 C 0.68779 0.57415 0.27055 0.0
C2052 C 0.7372 0.56838 0.25682 0.0
H2053 H 0.7525 0.5795 0.23074 0.0
C2054 C 0.7536 0.55767 0.26029 0.0
C2055 C 0.73653 0.5759 0.24594 0.0
C2056 C 0.71953 0.58802 0.24186 0.0
C2057 C 0.7697 0.55489 0.25327 0.0
C2058 C 0.76943 0.56328 0.2426 0.0
C2059 C 0.75261 0.57306 0.23893 0.0
C2060 C 0.78716 0.56436 0.23563 0.0
C2061 C 0.78703 0.5434 0.25743 0.0
C2062 C 0.80349 0.57475 0.23945 0.0
C2063 C 0.81917 0.57855 0.23241 0.0
C2064 C 0.8188 0.57208 0.22139 0.0
C2065 C 0.80277 0.56098 0.2177 0.0
C2066 C 0.78699 0.55727 0.22475 0.0
H2067 H 0.78261 0.53273 0.26389 0.0
H2068 H 0.79436 0.53539 0.2506 0.0
H2069 H 0.79776 0.55361 0.26116 0.0
H2070 H 0.80372 0.58074 0.24773 0.0
H2071 H 0.83131 0.5871 0.23552 0.0
H2072 H 0.17429 0.91507 0.01307 0.0
H2073 H 0.17984 0.94278 0.00073 0.0
H2074 H 0.19077 0.97997 0.02885 0.0
H2075 H 0.18585 0.95215 0.04123 0.0
H2076 H 0.15611 0.97324 0.00096 0.0
H2077 H 0.23171 -0.00035 0.00758 0.0
H2078 H 0.22361 0.9758 0.01209 0.0
H2079 H 0.21844 0.99715 0.02028 0.0
C2080 C 0.17834 0.92905 0.01661 0.0
C2081 C 0.17945 0.93151 0.02811 0.0
C2082 C 0.18156 0.94485 0.00955 0.0
C2083 C 0.18583 0.96343 0.01386 0.0
C2084 C 0.18794 0.96569 0.02532 0.0
H2085 H 0.14615 0.07187 0.98708 0.0
H2086 H 0.15478 0.04384 -0.00141 0.0
C2087 C 0.18496 0.9498 0.0324 0.0
C2088 C 0.18509 0.98078 0.00654 0.0
H2089 H 0.20933 0.02247 -0.0009 0.0
C2090 C 0.16789 0.98384 0.00045 0.0
C2091 C 0.20047 0.99457 0.00583 0.0
C2092 C 0.21967 0.99154 0.01171 0.0
C2093 C 0.16539 0.00056 0.99395 0.0
C2094 C 0.18031 0.01485 0.99372 0.0
C2095 C 0.19782 0.01157 -0.00054 0.0
C2096 C 0.17752 0.03337 0.98766 0.0
C2097 C 0.14671 0.00287 0.98743 0.0
C2098 C 0.18809 0.03717 0.97797 0.0
C2099 C 0.18323 0.05325 0.97137 0.0
C2100 C 0.16771 0.06567 0.97438 0.0
C2101 C 0.15801 0.06244 0.98446 0.0
C2102 C 0.16292 0.04646 0.99105 0.0
H2103 H 0.13902 0.98868 0.98634 0.0
H2104 H 0.13674 0.01294 0.9919 0.0
H2105 H 0.14969 0.00921 0.97915 0.0
H2106 H 0.19944 0.02721 0.97527 0.0
H2107 H 0.19105 0.05542 0.96369 0.0
H2108 H 0.82469 0.43587 0.76892 0.0
H2109 H 0.80058 0.44645 0.75523 0.0
H2110 H 0.75415 0.42462 0.77597 0.0
H2111 H 0.77799 0.41449 0.78976 0.0
H2112 H 0.77758 0.42195 0.74433 0.0
H2113 H 0.73049 0.47517 0.76582 0.0
H2114 H 0.7542 0.46818 0.77108 0.0
H2115 H 0.73296 0.45338 0.77393 0.0
C2116 C 0.80931 0.43371 0.77066 0.0
C2117 C 0.80325 0.42424 0.7804 0.0
C2118 C 0.79556 0.43981 0.76284 0.0
C2119 C 0.77554 0.4366 0.76464 0.0
C2120 C 0.76945 0.42777 0.77453 0.0
H2121 H 0.6731 0.40675 0.73311 0.0
H2122 H 0.69994 0.41687 0.74507 0.0
C2123 C 0.78315 0.42178 0.78237 0.0
C2124 C 0.76119 0.43988 0.75567 0.0
H2125 H 0.71497 0.45671 0.75089 0.0
C2126 C 0.76413 0.43004 0.74562 0.0
C2127 C 0.74369 0.45051 0.75735 0.0
C2128 C 0.74027 0.46257 0.7676 0.0
C2129 C 0.74938 0.42918 0.73761 0.0
C2130 C 0.73132 0.43853 0.73968 0.0
C2131 C 0.72884 0.44948 0.74938 0.0
C2132 C 0.71412 0.43469 0.73266 0.0
C2133 C 0.75265 0.41712 0.72733 0.0
C2134 C 0.71305 0.44174 0.7218 0.0
C2135 C 0.69767 0.43597 0.71491 0.0
C2136 C 0.68326 0.42299 0.7188 0.0
C2137 C 0.68405 0.41662 0.72983 0.0
C2138 C 0.69931 0.42247 0.7367 0.0
H2139 H 0.76692 0.40934 0.72745 0.0
H2140 H 0.74078 0.40616 0.72638 0.0
H2141 H 0.75232 0.4268 0.71997 0.0
H2142 H 0.72435 0.45128 0.71859 0.0
H2143 H 0.69741 0.44119 0.70646 0.0
H2144 H 0.2075 0.82913 0.04665 0.0
H2145 H 0.21428 0.79411 0.04462 0.0
H2146 H 0.16074 0.78709 0.02621 0.0
H2147 H 0.15399 0.82191 0.02806 0.0
H2148 H 0.1906 0.76551 0.05295 0.0
H2149 H 0.19872 0.75501 0.00795 0.0
H2150 H 0.20051 0.77877 0.0144 0.0
H2151 H 0.17695 0.76844 0.01122 0.0
C2152 C 0.19737 0.82019 0.04198 0.0
C2153 C 0.18016 0.82828 0.03755 0.0
C2154 C 0.20128 0.8002 0.04083 0.0
C2155 C 0.18817 0.78807 0.03512 0.0
C2156 C 0.17132 0.79625 0.03041 0.0
H2157 H 0.14646 0.67347 0.03072 0.0
H2158 H 0.1557 0.70778 0.02881 0.0
C2159 C 0.16739 0.81616 0.03156 0.0
C2160 C 0.19068 0.76656 0.03518 0.0
H2161 H 0.1888 0.72645 0.01844 0.0
C2162 C 0.1907 0.75693 0.04542 0.0
C2163 C 0.19082 0.75545 0.02533 0.0
C2164 C 0.19196 0.76497 0.01411 0.0
C2165 C 0.18944 0.73649 0.04607 0.0
C2166 C 0.18843 0.72544 0.03621 0.0
C2167 C 0.1895 0.735 0.02597 0.0
C2168 C 0.18411 0.70426 0.03641 0.0
C2169 C 0.18794 0.72695 0.05729 0.0
C2170 C 0.19726 0.69085 0.04107 0.0
C2171 C 0.192 0.67118 0.04222 0.0
C2172 C 0.17352 0.66466 0.03868 0.0
C2173 C 0.16075 0.67802 0.03359 0.0
C2174 C 0.16603 0.69763 0.03245 0.0
H2175 H 0.18587 0.73784 0.06401 0.0
H2176 H 0.17555 0.71646 0.0575 0.0
H2177 H 0.20157 0.71868 0.059 0.0
H2178 H 0.21139 0.69569 0.04405 0.0
H2179 H 0.20221 0.66123 0.04611 0.0
H2180 H 0.57934 0.9499 0.2981 0.0
H2181 H 0.54386 0.95331 0.29588 0.0
H2182 H 0.54325 0.90345 0.27409 0.0
H2183 H 0.57853 0.8998 0.27628 0.0
H2184 H 0.51792 0.95575 0.27582 0.0
H2185 H 0.50823 0.88897 0.30147 0.0
H2186 H 0.5308 0.90265 0.30116 0.0
H2187 H 0.52478 0.88637 0.29003 0.0
C2188 C 0.5717 0.93985 0.2927 0.0
C2189 C 0.5817 0.92441 0.28749 0.0
C2190 C 0.55146 0.94186 0.29143 0.0
C2191 C 0.54102 0.92847 0.28494 0.0
C2192 C 0.5511 0.91378 0.27923 0.0
H2193 H 0.42164 0.89522 0.27493 0.0
H2194 H 0.45689 0.9003 0.27368 0.0
C2195 C 0.57126 0.91173 0.2805 0.0
C2196 C 0.51944 0.92867 0.28486 0.0
H2197 H 0.47998 0.90162 0.29278 0.0
C2198 C 0.50955 0.94402 0.27956 0.0
C2199 C 0.50868 0.91336 0.28983 0.0
C2200 C 0.5186 0.89697 0.29603 0.0
C2201 C 0.48903 0.94408 0.2788 0.0
C2202 C 0.47833 0.92853 0.28357 0.0
C2203 C 0.48827 0.91343 0.28904 0.0
C2204 C 0.45677 0.9273 0.283 0.0
C2205 C 0.47899 0.96044 0.27266 0.0
C2206 C 0.44502 0.94102 0.2885 0.0
C2207 C 0.4248 0.93817 0.28922 0.0
C2208 C 0.41611 0.92145 0.28455 0.0
C2209 C 0.42788 0.90819 0.27867 0.0
C2210 C 0.44802 0.91108 0.27793 0.0
H2211 H 0.48938 0.96887 0.26745 0.0
H2212 H 0.46711 0.95463 0.26734 0.0
H2213 H 0.47232 0.97066 0.27871 0.0
H2214 H 0.45155 0.95345 0.29263 0.0
H2215 H 0.41614 0.94863 0.29382 0.0
H2216 H 0.29112 0.16621 0.54841 0.0
H2217 H 0.28379 0.2011 0.54632 0.0
H2218 H 0.33722 0.20888 0.52789 0.0
H2219 H 0.34452 0.17417 0.5298 0.0
H2220 H 0.30713 0.23008 0.55462 0.0
H2221 H 0.29871 0.24038 0.50962 0.0
H2222 H 0.29722 0.21661 0.5161 0.0
H2223 H 0.32065 0.22722 0.51288 0.0
C2224 C 0.3011 0.17528 0.54372 0.0
C2225 C 0.31844 0.16744 0.5393 0.0
C2226 C 0.29688 0.1952 0.54253 0.0
C2227 C 0.30981 0.20752 0.53681 0.0
C2228 C 0.32679 0.19957 0.5321 0.0
H2229 H 0.35045 0.32225 0.53204 0.0
H2230 H 0.34133 0.2879 0.53026 0.0
C2231 C 0.33103 0.17973 0.53329 0.0
C2232 C 0.30699 0.22899 0.53685 0.0
H2233 H 0.30834 0.26908 0.52007 0.0
C2234 C 0.30689 0.23864 0.54708 0.0
C2235 C 0.30667 0.24007 0.52699 0.0
C2236 C 0.30561 0.23051 0.51578 0.0
C2237 C 0.30793 0.2591 0.54771 0.0
C2238 C 0.30879 0.27013 0.53784 0.0
C2239 C 0.30776 0.26054 0.52761 0.0
C2240 C 0.31302 0.29134 0.538 0.0
C2241 C 0.30938 0.26867 0.55892 0.0
C2242 C 0.29989 0.30472 0.54271 0.0
C2243 C 0.30509 0.32443 0.54379 0.0
C2244 C 0.32349 0.331 0.54014 0.0
C2245 C 0.33623 0.31766 0.535 0.0
C2246 C 0.33101 0.29803 0.53394 0.0
H2247 H 0.31156 0.25782 0.56565 0.0
H2248 H 0.32169 0.27926 0.5591 0.0
H2249 H 0.2957 0.27684 0.56064 0.0
H2250 H 0.28582 0.29985 0.54576 0.0
H2251 H 0.29491 0.33437 0.54771 0.0
H2252 H 0.91726 0.1124 0.77769 0.0
H2253 H 0.95289 0.11058 0.77674 0.0
H2254 H 0.95302 0.06852 0.80332 0.0
H2255 H 0.91736 0.06984 0.80411 0.0
H2256 H 0.9764 0.12163 0.79299 0.0
H2257 H 0.99249 0.04443 0.78268 0.0
H2258 H 0.96844 0.05497 0.78104 0.0
H2259 H 0.97652 0.04655 0.79438 0.0
C2260 C 0.92485 0.10248 0.78319 0.0
C2261 C 0.91452 0.09132 0.79101 0.0
C2262 C 0.94521 0.10143 0.78263 0.0
C2263 C 0.95562 0.08927 0.78988 0.0
C2264 C 0.94529 0.07764 0.79746 0.0
H2265 H 0.07006 0.1099 0.81602 0.0
H2266 H 0.03521 0.1056 0.81243 0.0
C2267 C 0.92489 0.07853 0.79795 0.0
C2268 C 0.97723 0.09045 0.79038 0.0
H2269 H 0.01896 0.06301 0.79056 0.0
C2270 C 0.9857 0.10883 0.79231 0.0
C2271 C 0.98938 0.07379 0.78939 0.0
C2272 C 0.98126 0.05386 0.78664 0.0
C2273 C 0.00593 0.11093 0.79366 0.0
C2274 C 0.01795 0.09411 0.79333 0.0
C2275 C 0.00963 0.07582 0.79098 0.0
C2276 C 0.03913 0.09532 0.79567 0.0
C2277 C 0.01422 0.13115 0.79544 0.0
C2278 C 0.05288 0.09025 0.78756 0.0
C2279 C 0.07287 0.09256 0.78962 0.0
C2280 C 0.07937 0.09994 0.79982 0.0
C2281 C 0.06554 0.10437 0.80804 0.0
C2282 C 0.04561 0.10199 0.80599 0.0
H2283 H 0.00414 0.14268 0.79236 0.0
H2284 H 0.01644 0.13359 0.80441 0.0
H2285 H 0.02855 0.13283 0.79122 0.0
H2286 H 0.04812 0.08496 0.77957 0.0
H2287 H 0.08317 0.08895 0.78313 0.0
H2288 H 0.12967 0.1706 0.95747 0.0
H2289 H 0.1356 0.20568 0.95798 0.0
H2290 H 0.18787 0.19626 0.97719 0.0
H2291 H 0.1822 0.16082 0.97659 0.0
H2292 H 0.13905 0.23062 0.97621 0.0
H2293 H 0.20682 0.22919 0.95068 0.0
H2294 H 0.19047 0.20852 0.95155 0.0
H2295 H 0.2065 0.21409 0.96285 0.0
C2296 C 0.14244 0.1759 0.96183 0.0
C2297 C 0.15554 0.16288 0.96693 0.0
C2298 C 0.14577 0.19599 0.96213 0.0
C2299 C 0.16226 0.20353 0.96753 0.0
C2300 C 0.17521 0.19068 0.97284 0.0
H2301 H 0.16522 0.33219 0.97237 0.0
H2302 H 0.16903 0.29791 0.97784 0.0
C2303 C 0.1719 0.17047 0.97253 0.0
C2304 C 0.16569 0.22488 0.96734 0.0
H2305 H 0.19443 0.26002 0.95559 0.0
C2306 C 0.1513 0.23712 0.97186 0.0
C2307 C 0.18165 0.23319 0.96158 0.0
C2308 C 0.19723 0.22065 0.95631 0.0
C2309 C 0.15193 0.25745 0.97035 0.0
C2310 C 0.16763 0.26574 0.96434 0.0
C2311 C 0.18249 0.25357 0.96024 0.0
C2312 C 0.16766 0.28665 0.96116 0.0
C2313 C 0.13518 0.2697 0.97462 0.0
C2314 C 0.16648 0.29169 0.94995 0.0
C2315 C 0.1645 0.31122 0.94679 0.0
C2316 C 0.16361 0.32607 0.95479 0.0
C2317 C 0.16564 0.32106 0.96601 0.0
C2318 C 0.16775 0.30149 0.96916 0.0
H2319 H 0.12249 0.26059 0.97716 0.0
H2320 H 0.14012 0.27814 0.98193 0.0
H2321 H 0.13021 0.28026 0.96824 0.0
H2322 H 0.16642 0.28044 0.94364 0.0
H2323 H 0.16307 0.31458 0.93808 0.0
H2324 H 0.92056 0.89973 0.22022 0.0
H2325 H 0.95584 0.90438 0.22161 0.0
H2326 H 0.95253 0.95263 0.19872 0.0
H2327 H 0.91708 0.94828 0.19739 0.0
H2328 H 0.97959 0.90035 0.20317 0.0
H2329 H 0.99 0.97325 0.22262 0.0
H2330 H 0.96725 0.9599 0.22349 0.0
H2331 H 0.97354 0.97278 0.21105 0.0
C2332 C 0.92725 0.91159 0.21564 0.0
C2333 C 0.91605 0.92356 0.20863 0.0
C2334 C 0.94741 0.91424 0.21646 0.0
C2335 C 0.95676 0.92892 0.21033 0.0
C2336 C 0.94554 0.94144 0.20368 0.0
H2337 H 0.07895 0.94654 0.19346 0.0
H2338 H 0.04356 0.95046 0.19577 0.0
C2339 C 0.92531 0.93885 0.20288 0.0
C2340 C 0.97836 0.92948 0.20991 0.0
H2341 H 0.01837 0.95783 0.21527 0.0
C2342 C 0.98807 0.91288 0.20588 0.0
C2343 C 0.98931 0.94594 0.21333 0.0
C2344 C 0.97955 0.96395 0.21796 0.0
C2345 C 0.00848 0.91227 0.20514 0.0
C2346 C 0.01948 0.92859 0.2087 0.0
C2347 C 0.00982 0.94533 0.21261 0.0
C2348 C 0.04106 0.92825 0.20841 0.0
C2349 C 0.01811 0.89425 0.2004 0.0
C2350 C 0.05133 0.91493 0.21503 0.0
C2351 C 0.07145 0.91258 0.21371 0.0
C2352 C 0.08166 0.9236 0.20578 0.0
C2353 C 0.07149 0.93776 0.1996 0.0
C2354 C 0.0513 0.94006 0.20092 0.0
H2355 H 0.00758 0.88504 0.19572 0.0
H2356 H 0.03036 0.8983 0.19482 0.0
H2357 H 0.02416 0.88529 0.20724 0.0
H2358 H 0.04365 0.90586 0.22096 0.0
H2359 H 0.07888 0.90168 0.21868 0.0
H2360 H 0.30604 0.66709 0.44128 0.0
H2361 H 0.30279 0.70267 0.44263 0.0
H2362 H 0.34081 0.70288 0.47103 0.0
H2363 H 0.34441 0.6674 0.46967 0.0
H2364 H 0.291 0.72886 0.46001 0.0
H2365 H 0.36905 0.73759 0.44816 0.0
H2366 H 0.35612 0.71475 0.44664 0.0
H2367 H 0.36494 0.72222 0.45997 0.0
C2368 C 0.31352 0.67466 0.4479 0.0
C2369 C 0.32571 0.66446 0.45527 0.0
C2370 C 0.31161 0.69498 0.44866 0.0
C2371 C 0.32184 0.70538 0.4568 0.0
C2372 C 0.33308 0.69512 0.46457 0.0
H2373 H 0.34675 0.82821 0.46643 0.0
H2374 H 0.34228 0.79307 0.46904 0.0
C2375 C 0.33508 0.67485 0.46379 0.0
C2376 C 0.32188 0.72701 0.4567 0.0
H2377 H 0.35189 0.76628 0.45292 0.0
C2378 C 0.30428 0.73709 0.45848 0.0
C2379 C 0.33924 0.73763 0.45462 0.0
C2380 C 0.35839 0.72754 0.45214 0.0
C2381 C 0.30367 0.75765 0.4584 0.0
C2382 C 0.32105 0.76824 0.45635 0.0
C2383 C 0.33861 0.7581 0.45458 0.0
C2384 C 0.32151 0.78985 0.45568 0.0
C2385 C 0.28452 0.76784 0.46068 0.0
C2386 C 0.3111 0.79973 0.4474 0.0
C2387 C 0.31359 0.81985 0.44589 0.0
C2388 C 0.3267 0.83038 0.45257 0.0
C2389 C 0.33659 0.82053 0.46111 0.0
C2390 C 0.33404 0.80045 0.46263 0.0
H2391 H 0.27401 0.75806 0.46498 0.0
H2392 H 0.28679 0.78114 0.46579 0.0
H2393 H 0.27785 0.77239 0.45273 0.0
H2394 H 0.30166 0.79175 0.4418 0.0
H2395 H 0.3058 0.82699 0.43922 0.0
H2396 H 0.41324 0.07844 0.71663 0.0
H2397 H 0.448 0.07108 0.71934 0.0
H2398 H 0.46244 0.10625 0.69091 0.0
H2399 H 0.42791 0.11381 0.68818 0.0
H2400 H 0.47535 0.05346 0.70432 0.0
H2401 H 0.49642 0.12895 0.71607 0.0
H2402 H 0.47136 0.12062 0.71613 0.0
H2403 H 0.48287 0.12773 0.70338 0.0
C2404 C 0.42383 0.08463 0.71097 0.0
C2405 C 0.41784 0.09683 0.70223 0.0
C2406 C 0.44364 0.08037 0.71252 0.0
C2407 C 0.45774 0.08836 0.70542 0.0
C2408 C 0.45178 0.10023 0.69659 0.0
H2409 H 0.57504 0.06266 0.68777 0.0
H2410 H 0.53966 0.06216 0.69042 0.0
C2411 C 0.43202 0.10448 0.69502 0.0
C2412 C 0.47875 0.08438 0.70713 0.0
H2413 H 0.5224 0.10743 0.71095 0.0
C2414 C 0.48567 0.06517 0.70592 0.0
C2415 C 0.49207 0.09966 0.70942 0.0
C2416 C 0.48531 0.12037 0.71144 0.0
C2417 C 0.50576 0.06101 0.70637 0.0
C2418 C 0.51917 0.07652 0.70792 0.0
C2419 C 0.51212 0.09555 0.70968 0.0
C2420 C 0.5406 0.07379 0.70704 0.0
C2421 C 0.51243 0.04009 0.7051 0.0
C2422 C 0.55291 0.0804 0.71553 0.0
C2423 C 0.57313 0.08096 0.71398 0.0
C2424 C 0.58141 0.07494 0.70391 0.0
C2425 C 0.56913 0.06735 0.69564 0.0
C2426 C 0.54889 0.06691 0.69717 0.0
H2427 H 0.50082 0.02967 0.70768 0.0
H2428 H 0.5158 0.03723 0.69628 0.0
H2429 H 0.5258 0.03718 0.71004 0.0
H2430 H 0.5468 0.08584 0.72319 0.0
H2431 H 0.5822 0.08679 0.72054 0.0
H2432 H 0.81442 0.32694 0.94323 0.0
H2433 H 0.8125 0.29149 0.94529 0.0
H2434 H 0.84906 0.2946 0.97427 0.0
H2435 H 0.85153 0.33006 0.97208 0.0
H2436 H 0.86301 0.26916 0.95991 0.0
H2437 H 0.78416 0.25436 0.96543 0.0
H2438 H 0.7886 0.26902 0.95341 0.0
H2439 H 0.79442 0.27857 0.96688 0.0
C2440 C 0.82175 0.32014 0.95017 0.0
C2441 C 0.83324 0.33129 0.95744 0.0
C2442 C 0.8205 0.29986 0.95139 0.0
C2443 C 0.83042 0.29039 0.96002 0.0
C2444 C 0.84122 0.30161 0.96758 0.0
H2445 H 0.82665 0.16253 0.96797 0.0
H2446 H 0.82274 0.19768 0.97142 0.0
C2447 C 0.84263 0.32187 0.9663 0.0
C2448 C 0.83149 0.26874 0.96035 0.0
H2449 H 0.80385 0.22719 0.95908 0.0
C2450 C 0.85005 0.26 0.95991 0.0
C2451 C 0.81462 0.25675 0.96048 0.0
C2452 C 0.79435 0.26517 0.9617 0.0
C2453 C 0.8522 0.23968 0.95909 0.0
C2454 C 0.83532 0.22781 0.95843 0.0
C2455 C 0.81676 0.23639 0.95941 0.0
C2456 C 0.83676 0.20658 0.9562 0.0
C2457 C 0.87255 0.23113 0.95884 0.0
C2458 C 0.84549 0.20003 0.9464 0.0
C2459 C 0.84781 0.18007 0.94443 0.0
C2460 C 0.84126 0.16625 0.95219 0.0
C2461 C 0.83191 0.17282 0.96186 0.0
C2462 C 0.82965 0.19287 0.96384 0.0
H2463 H 0.88336 0.24115 0.96271 0.0
H2464 H 0.87309 0.21683 0.96318 0.0
H2465 H 0.87703 0.22881 0.95013 0.0
H2466 H 0.85067 0.21039 0.94029 0.0
H2467 H 0.85489 0.1755 0.93685 0.0
H2468 H 0.64298 0.82667 0.46903 0.0
H2469 H 0.64775 0.79147 0.47108 0.0
H2470 H 0.6969 0.79387 0.44879 0.0
H2471 H 0.69243 0.82922 0.4468 0.0
H2472 H 0.64478 0.76627 0.45329 0.0
H2473 H 0.71712 0.75848 0.4737 0.0
H2474 H 0.70347 0.78111 0.47381 0.0
H2475 H 0.71693 0.77399 0.46171 0.0
C2476 C 0.65502 0.8198 0.4647 0.0
C2477 C 0.66726 0.83072 0.4577 0.0
C2478 C 0.65774 0.79969 0.4659 0.0
C2479 C 0.67276 0.79011 0.46016 0.0
C2480 C 0.68545 0.80105 0.45346 0.0
H2481 H 0.69317 0.66749 0.44571 0.0
H2482 H 0.69634 0.70304 0.44755 0.0
C2483 C 0.68279 0.82123 0.45228 0.0
C2484 C 0.67367 0.76849 0.46025 0.0
H2485 H 0.7026 0.72936 0.46668 0.0
C2486 C 0.65737 0.75821 0.45629 0.0
C2487 C 0.69021 0.75806 0.46405 0.0
C2488 C 0.70789 0.76843 0.46865 0.0
C2489 C 0.65717 0.73774 0.45597 0.0
C2490 C 0.67359 0.72728 0.45988 0.0
C2491 C 0.69001 0.7375 0.46374 0.0
C2492 C 0.67373 0.70567 0.45995 0.0
C2493 C 0.63948 0.72748 0.45126 0.0
C2494 C 0.66045 0.69542 0.46661 0.0
C2495 C 0.65853 0.67519 0.46555 0.0
C2496 C 0.66994 0.66486 0.45785 0.0
C2497 C 0.68409 0.67504 0.45168 0.0
C2498 C 0.68597 0.69533 0.45273 0.0
H2499 H 0.63016 0.73755 0.44634 0.0
H2500 H 0.64393 0.71503 0.44593 0.0
H2501 H 0.63049 0.72158 0.45813 0.0
H2502 H 0.65106 0.70318 0.47233 0.0
H2503 H 0.64763 0.66778 0.47052 0.0
H2504 H 0.79564 0.66774 0.05368 0.0
H2505 H 0.78947 0.70279 0.05137 0.0
H2506 H 0.83756 0.70658 0.02842 0.0
H2507 H 0.84372 0.67166 0.03058 0.0
H2508 H 0.81647 0.731 0.05687 0.0
H2509 H 0.79542 0.73882 0.01296 0.0
H2510 H 0.79458 0.71565 0.02015 0.0
H2511 H 0.81732 0.72468 0.01466 0.0
C2512 C 0.80466 0.67596 0.04798 0.0
C2513 C 0.82023 0.66693 0.04236 0.0
C2514 C 0.80109 0.69597 0.04667 0.0
C2515 C 0.81288 0.70722 0.03961 0.0
C2516 C 0.828 0.6981 0.03371 0.0
H2517 H 0.85789 0.82108 0.04143 0.0
H2518 H 0.84971 0.78637 0.04141 0.0
C2519 C 0.83161 0.67815 0.03504 0.0
C2520 C 0.81105 0.72879 0.03938 0.0
H2521 H 0.80828 0.76783 0.02183 0.0
C2522 C 0.81426 0.73905 0.04924 0.0
C2523 C 0.80802 0.73927 0.02945 0.0
C2524 C 0.80344 0.72903 0.01872 0.0
C2525 C 0.81575 0.75949 0.04932 0.0
C2526 C 0.81413 0.76985 0.03927 0.0
C2527 C 0.80971 0.75975 0.02951 0.0
C2528 C 0.8188 0.7909 0.03866 0.0
C2529 C 0.81974 0.76985 0.06009 0.0
C2530 C 0.80411 0.80486 0.03687 0.0
C2531 C 0.80872 0.82482 0.0369 0.0
C2532 C 0.82811 0.83101 0.03864 0.0
C2533 C 0.84281 0.81685 0.0401 0.0
C2534 C 0.83818 0.797 0.04012 0.0
H2535 H 0.81605 0.76055 0.06732 0.0
H2536 H 0.83552 0.77358 0.06056 0.0
H2537 H 0.81127 0.78369 0.06061 0.0
H2538 H 0.78908 0.80032 0.03568 0.0
H2539 H 0.79709 0.83536 0.03572 0.0
H2540 H 0.70621 0.33008 0.54644 0.0
H2541 H 0.71307 0.29526 0.54353 0.0
H2542 H 0.65729 0.28851 0.52735 0.0
H2543 H 0.65044 0.32313 0.53007 0.0
H2544 H 0.69111 0.26554 0.55217 0.0
H2545 H 0.69319 0.25857 0.50674 0.0
H2546 H 0.69551 0.28186 0.51367 0.0
H2547 H 0.67173 0.27137 0.51124 0.0
C2548 C 0.69557 0.32124 0.54209 0.0
C2549 C 0.67776 0.32936 0.53851 0.0
C2550 C 0.69952 0.30137 0.54043 0.0
C2551 C 0.68584 0.28938 0.53506 0.0
C2552 C 0.66829 0.29758 0.53125 0.0
H2553 H 0.64382 0.17549 0.53008 0.0
H2554 H 0.65307 0.20984 0.52846 0.0
C2555 C 0.66431 0.31737 0.53291 0.0
C2556 C 0.68869 0.26794 0.53449 0.0
H2557 H 0.68485 0.22912 0.51691 0.0
C2558 C 0.69026 0.25754 0.54444 0.0
C2559 C 0.68761 0.25758 0.5244 0.0
C2560 C 0.68712 0.26796 0.5134 0.0
C2561 C 0.68928 0.23705 0.54465 0.0
C2562 C 0.68695 0.22676 0.5346 0.0
C2563 C 0.68655 0.23709 0.52459 0.0
C2564 C 0.68254 0.20559 0.53448 0.0
C2565 C 0.68944 0.22665 0.55565 0.0
C2566 C 0.69626 0.19178 0.53813 0.0
C2567 C 0.69101 0.17207 0.53909 0.0
C2568 C 0.67195 0.16594 0.53641 0.0
C2569 C 0.65857 0.17974 0.53229 0.0
C2570 C 0.66384 0.19937 0.53131 0.0
H2571 H 0.68854 0.23699 0.56271 0.0
H2572 H 0.67702 0.21623 0.5562 0.0
H2573 H 0.70318 0.21813 0.55646 0.0
H2574 H 0.71085 0.19631 0.54049 0.0
H2575 H 0.70168 0.16177 0.54224 0.0
H2576 H 0.91215 0.42538 0.78412 0.0
H2577 H 0.94728 0.43068 0.78127 0.0
H2578 H 0.95997 0.37921 0.80059 0.0
H2579 H 0.92511 0.37373 0.80343 0.0
H2580 H 0.97593 0.43626 0.79784 0.0
H2581 H 0.99225 0.37118 0.77226 0.0
H2582 H 0.96772 0.38039 0.77418 0.0
H2583 H 0.97886 0.36518 0.78455 0.0
C2584 C 0.92244 0.41511 0.78769 0.0
C2585 C 0.91586 0.39911 0.79399 0.0
C2586 C 0.94246 0.41817 0.78605 0.0
C2587 C 0.95614 0.40515 0.79057 0.0
C2588 C 0.9496 0.38918 0.79684 0.0
H2589 H 0.07095 0.40893 0.81434 0.0
H2590 H 0.03618 0.4129 0.81052 0.0
C2591 C 0.92967 0.38616 0.79851 0.0
C2592 C 0.97735 0.40862 0.78933 0.0
H2593 H 0.01957 0.38574 0.78176 0.0
C2594 C 0.98549 0.42542 0.79414 0.0
C2595 C 0.98973 0.39464 0.78432 0.0
C2596 C 0.98169 0.37693 0.77843 0.0
C2597 C 0.00582 0.42792 0.79475 0.0
C2598 C 0.01821 0.4131 0.79057 0.0
C2599 C 0.01004 0.39699 0.78507 0.0
C2600 C 0.0395 0.41297 0.79273 0.0
C2601 C 0.01384 0.44617 0.80008 0.0
C2602 C 0.0529 0.41153 0.78399 0.0
C2603 C 0.07284 0.40911 0.78616 0.0
C2604 C 0.07964 0.40789 0.7971 0.0
C2605 C 0.06621 0.40983 0.80582 0.0
C2606 C 0.04633 0.41228 0.80365 0.0
H2607 H 0.00335 0.45852 0.79941 0.0
H2608 H 0.01637 0.44332 0.80899 0.0
H2609 H 0.02794 0.4506 0.79628 0.0
H2610 H 0.04788 0.41186 0.77551 0.0
H2611 H 0.08282 0.40765 0.77926 0.0
H2612 H 0.42144 0.60104 0.27961 0.0
H2613 H 0.45676 0.59695 0.27796 0.0
H2614 H 0.45471 0.54854 0.30078 0.0
H2615 H 0.41922 0.55235 0.30239 0.0
H2616 H 0.48152 0.60084 0.29608 0.0
H2617 H 0.49087 0.52821 0.27612 0.0
H2618 H 0.46809 0.54158 0.27568 0.0
H2619 H 0.47504 0.5286 0.28797 0.0
C2620 C 0.42842 0.58931 0.28415 0.0
C2621 C 0.41754 0.57708 0.29118 0.0
C2622 C 0.4486 0.58698 0.28317 0.0
C2623 C 0.4583 0.57236 0.28918 0.0
C2624 C 0.44744 0.55968 0.29592 0.0
H2625 H 0.58184 0.55416 0.30279 0.0
H2626 H 0.54629 0.55037 0.30142 0.0
C2627 C 0.42719 0.56196 0.29688 0.0
C2628 C 0.47992 0.57182 0.28922 0.0
H2629 H 0.51963 0.54369 0.28283 0.0
C2630 C 0.48985 0.58838 0.29313 0.0
C2631 C 0.49069 0.55545 0.28549 0.0
C2632 C 0.48069 0.53748 0.28099 0.0
C2633 C 0.5103 0.58904 0.29342 0.0
C2634 C 0.52111 0.57283 0.28951 0.0
C2635 C 0.51123 0.55612 0.28575 0.0
C2636 C 0.5427 0.57326 0.28925 0.0
C2637 C 0.52017 0.60701 0.29806 0.0
C2638 C 0.55241 0.58691 0.28258 0.0
C2639 C 0.57263 0.58918 0.28336 0.0
C2640 C 0.58351 0.57773 0.29081 0.0
C2641 C 0.57386 0.56325 0.29702 0.0
C2642 C 0.55358 0.56104 0.29624 0.0
H2643 H 0.50999 0.61596 0.30312 0.0
H2644 H 0.53294 0.60293 0.30324 0.0
H2645 H 0.5255 0.61625 0.29115 0.0
H2646 H 0.54425 0.59626 0.27701 0.0
H2647 H 0.57963 0.60033 0.27838 0.0
H2648 H 0.42066 0.39632 0.72082 0.0
H2649 H 0.45598 0.40003 0.72271 0.0
H2650 H 0.45444 0.4507 0.70149 0.0
H2651 H 0.41896 0.44724 0.69963 0.0
H2652 H 0.47996 0.39776 0.70383 0.0
H2653 H 0.49189 0.46725 0.72675 0.0
H2654 H 0.46896 0.45412 0.72715 0.0
H2655 H 0.47527 0.4685 0.71526 0.0
C2656 C 0.42774 0.40849 0.71672 0.0
C2657 C 0.41703 0.42139 0.70999 0.0
C2658 C 0.44792 0.4106 0.71783 0.0
C2659 C 0.45777 0.42568 0.71229 0.0
C2660 C 0.44705 0.43916 0.70598 0.0
H2661 H 0.58115 0.44256 0.69787 0.0
H2662 H 0.54581 0.44718 0.69998 0.0
C2663 C 0.42679 0.43708 0.70488 0.0
C2664 C 0.47937 0.4257 0.71203 0.0
H2665 H 0.52001 0.45183 0.71919 0.0
C2666 C 0.48872 0.40954 0.70724 0.0
C2667 C 0.49068 0.44122 0.71636 0.0
C2668 C 0.48126 0.45873 0.72175 0.0
C2669 C 0.50912 0.40842 0.70665 0.0
C2670 C 0.52048 0.42373 0.71116 0.0
C2671 C 0.51119 0.44008 0.71581 0.0
C2672 C 0.54205 0.42271 0.71111 0.0
C2673 C 0.51834 0.39097 0.70104 0.0
C2674 C 0.55163 0.40784 0.71697 0.0
C2675 C 0.57171 0.40508 0.71574 0.0
C2676 C 0.5826 0.41724 0.70867 0.0
C2677 C 0.57315 0.43288 0.70332 0.0
C2678 C 0.55299 0.43558 0.70453 0.0
H2679 H 0.50774 0.38308 0.69571 0.0
H2680 H 0.53103 0.3955 0.69591 0.0
H2681 H 0.52367 0.38059 0.70742 0.0
H2682 H 0.54342 0.39795 0.72221 0.0
H2683 H 0.57859 0.39304 0.72007 0.0
H2684 H 0.91861 0.54424 0.20256 0.0
H2685 H 0.95352 0.53718 0.20473 0.0
H2686 H 0.96145 0.59236 0.2214 0.0
H2687 H 0.92671 0.59944 0.2194 0.0
H2688 H 0.98268 0.55983 0.1957 0.0
H2689 H 0.9925 0.55522 0.24095 0.0
H2690 H 0.96882 0.5532 0.23443 0.0
H2691 H 0.97947 0.57687 0.23695 0.0
C2692 C 0.92773 0.55471 0.20687 0.0
C2693 C 0.9199 0.57244 0.21078 0.0
C2694 C 0.94765 0.55064 0.2081 0.0
C2695 C 0.96 0.56411 0.21337 0.0
C2696 C 0.95211 0.58154 0.21755 0.0
H2697 H 0.07617 0.60208 0.2177 0.0
H2698 H 0.04152 0.59433 0.21957 0.0
C2699 C 0.93225 0.58564 0.2163 0.0
C2700 C 0.98144 0.56116 0.21345 0.0
H2701 H 0.02139 0.56305 0.2303 0.0
C2702 C 0.99117 0.56007 0.20327 0.0
C2703 C 0.99243 0.56147 0.22334 0.0
C2704 C 0.98274 0.56155 0.23454 0.0
C2705 C 0.01165 0.56064 0.20267 0.0
C2706 C 0.02262 0.56201 0.21254 0.0
C2707 C 0.01291 0.56207 0.22275 0.0
C2708 C 0.04395 0.56549 0.21235 0.0
C2709 C 0.02131 0.561 0.19145 0.0
C2710 C 0.05687 0.55161 0.20791 0.0
C2711 C 0.07675 0.55603 0.20678 0.0
C2712 C 0.08398 0.57437 0.21012 0.0
C2713 C 0.07108 0.58787 0.21499 0.0
C2714 C 0.05127 0.58345 0.2161 0.0
H2715 H 0.01059 0.5632 0.18467 0.0
H2716 H 0.03241 0.57285 0.19104 0.0
H2717 H 0.0289 0.54688 0.19003 0.0
H2718 H 0.05152 0.53755 0.20512 0.0
H2719 H 0.08633 0.54526 0.20306 0.0
loop_
_geom_bond_atom_site_label_1
_geom_bond_atom_site_label_2
_geom_bond_distance
_geom_bond_site_symmetry_2
_ccdc_geom_bond_type
C0 O1 1.160 . S
C0 O7 1.185 . S
O1 C0 1.160 . S
O2 Zn3 1.899 . S
O2 C10 1.284 . S
Zn3 O2 1.899 . S
Zn3 O4 2.032 . S
Zn3 O7 2.086 . S
Zn3 O12 1.977 . S
O4 Zn3 2.032 . S
O4 C8 1.278 . S
C5 O6 1.203 . S
C5 O12 1.267 . S
O6 C5 1.203 . S
O7 C0 1.185 . S
O7 Zn3 2.086 . S
C8 O4 1.278 . S
C8 O9 1.211 . S
O9 C8 1.211 . S
C10 O2 1.284 . S
C10 O11 1.273 . S
O11 C10 1.273 . S
O12 Zn3 1.977 . S
O12 C5 1.267 . S
C13 O14 1.160 . S
C13 O20 1.185 . S
O14 C13 1.160 . S
O15 Zn16 1.899 . S
O15 C23 1.284 . S
Zn16 O15 1.899 . S
Zn16 O17 2.032 . S
Zn16 O20 2.086 . S
Zn16 O25 1.977 . S
O17 Zn16 2.032 . S
O17 C21 1.278 . S
C18 O19 1.203 . S
C18 O25 1.267 . S
O19 C18 1.203 . S
O20 C13 1.185 . S
O20 Zn16 2.086 . S
C21 O17 1.278 . S
C21 O22 1.211 . S
O22 C21 1.211 . S
C23 O15 1.284 . S
C23 O24 1.273 . S
O24 C23 1.273 . S
O25 Zn16 1.977 . S
O25 C18 1.267 . S
C26 O27 1.160 . S
C26 O33 1.185 . S
O27 C26 1.160 . S
O28 Zn29 1.899 . S
O28 C36 1.284 . S
Zn29 O28 1.899 . S
Zn29 O30 2.032 . S
Zn29 O33 2.086 . S
Zn29 O38 1.977 . S
O30 Zn29 2.032 . S
O30 C34 1.278 . S
C31 O32 1.203 . S
C31 O38 1.267 . S
O32 C31 1.203 . S
O33 C26 1.185 . S
O33 Zn29 2.086 . S
C34 O30 1.278 . S
C34 O35 1.211 . S
O35 C34 1.211 . S
C36 O28 1.284 . S
C36 O37 1.273 . S
O37 C36 1.273 . S
O38 Zn29 1.977 . S
O38 C31 1.267 . S
C39 O40 1.160 . S
C39 O46 1.185 . S
O40 C39 1.160 . S
O41 Zn42 1.899 . S
O41 C49 1.284 . S
Zn42 O41 1.899 . S
Zn42 O43 2.032 . S
Zn42 O46 2.086 . S
Zn42 O51 1.977 . S
O43 Zn42 2.032 . S
O43 C47 1.278 . S
C44 O45 1.203 . S
C44 O51 1.267 . S
O45 C44 1.203 . S
O46 C39 1.185 . S
O46 Zn42 2.086 . S
C47 O43 1.278 . S
C47 O48 1.211 . S
O48 C47 1.211 . S
C49 O41 1.284 . S
C49 O50 1.273 . S
O50 C49 1.273 . S
O51 Zn42 1.977 . S
O51 C44 1.267 . S
C52 O53 1.160 . S
C52 O59 1.185 . S
O53 C52 1.160 . S
O54 Zn55 1.899 . S
O54 C62 1.284 . S
Zn55 O54 1.899 . S
Zn55 O56 2.032 . S
Zn55 O59 2.086 . S
Zn55 O64 1.977 . S
O56 Zn55 2.032 . S
O56 C60 1.278 . S
C57 O58 1.203 . S
C57 O64 1.267 . S
O58 C57 1.203 . S
O59 C52 1.185 . S
O59 Zn55 2.086 . S
C60 O56 1.278 . S
C60 O61 1.211 . S
O61 C60 1.211 . S
C62 O54 1.284 . S
C62 O63 1.273 . S
O63 C62 1.273 . S
O64 Zn55 1.977 . S
O64 C57 1.267 . S
C65 O66 1.160 . S
C65 O72 1.185 . S
O66 C65 1.160 . S
O67 Zn68 1.899 . S
O67 C75 1.284 . S
Zn68 O67 1.899 . S
Zn68 O69 2.032 . S
Zn68 O72 2.086 . S
Zn68 O77 1.977 . S
O69 Zn68 2.032 . S
O69 C73 1.278 . S
C70 O71 1.203 . S
C70 O77 1.267 . S
O71 C70 1.203 . S
O72 C65 1.185 . S
O72 Zn68 2.086 . S
C73 O69 1.278 . S
C73 O74 1.211 . S
O74 C73 1.211 . S
C75 O67 1.284 . S
C75 O76 1.273 . S
O76 C75 1.273 . S
O77 Zn68 1.977 . S
O77 C70 1.267 . S
C78 O79 1.160 . S
C78 O85 1.185 . S
O79 C78 1.160 . S
O80 Zn81 1.899 . S
O80 C88 1.284 . S
Zn81 O80 1.899 . S
Zn81 O82 2.032 . S
Zn81 O85 2.086 . S
Zn81 O90 1.977 . S
O82 Zn81 2.032 . S
O82 C86 1.278 . S
C83 O84 1.203 . S
C83 O90 1.267 . S
O84 C83 1.203 . S
O85 C78 1.185 . S
O85 Zn81 2.086 . S
C86 O82 1.278 . S
C86 O87 1.211 . S
O87 C86 1.211 . S
C88 O80 1.284 . S
C88 O89 1.273 . S
O89 C88 1.273 . S
O90 Zn81 1.977 . S
O90 C83 1.267 . S
C91 O92 1.160 . S
C91 O98 1.185 . S
O92 C91 1.160 . S
O93 Zn94 1.899 . S
O93 C101 1.284 . S
Zn94 O93 1.899 . S
Zn94 O95 2.032 . S
Zn94 O98 2.086 . S
Zn94 O103 1.977 . S
O95 Zn94 2.032 . S
O95 C99 1.278 . S
C96 O97 1.203 . S
C96 O103 1.267 . S
O97 C96 1.203 . S
O98 C91 1.185 . S
O98 Zn94 2.086 . S
C99 O95 1.278 . S
C99 O100 1.211 . S
O100 C99 1.211 . S
C101 O93 1.284 . S
C101 O102 1.273 . S
O102 C101 1.273 . S
O103 Zn94 1.977 . S
O103 C96 1.267 . S
C104 O105 1.160 . S
C104 O111 1.185 . S
O105 C104 1.160 . S
O106 Zn107 1.899 . S
O106 C114 1.284 . S
Zn107 O106 1.899 . S
Zn107 O108 2.032 . S
Zn107 O111 2.086 . S
Zn107 O116 1.977 . S
O108 Zn107 2.032 . S
O108 C112 1.278 . S
C109 O110 1.203 . S
C109 O116 1.267 . S
O110 C109 1.203 . S
O111 C104 1.185 . S
O111 Zn107 2.086 . S
C112 O108 1.278 . S
C112 O113 1.211 . S
O113 C112 1.211 . S
C114 O106 1.284 . S
C114 O115 1.273 . S
O115 C114 1.273 . S
O116 Zn107 1.977 . S
O116 C109 1.267 . S
C117 O118 1.160 . S
C117 O124 1.185 . S
O118 C117 1.160 . S
O119 Zn120 1.899 . S
O119 C127 1.284 . S
Zn120 O119 1.899 . S
Zn120 O121 2.032 . S
Zn120 O124 2.086 . S
Zn120 O129 1.977 . S
O121 Zn120 2.032 . S
O121 C125 1.278 . S
C122 O123 1.203 . S
C122 O129 1.267 . S
O123 C122 1.203 . S
O124 C117 1.185 . S
O124 Zn120 2.086 . S
C125 O121 1.278 . S
C125 O126 1.211 . S
O126 C125 1.211 . S
C127 O119 1.284 . S
C127 O128 1.273 . S
O128 C127 1.273 . S
O129 Zn120 1.977 . S
O129 C122 1.267 . S
C130 O131 1.160 . S
C130 O137 1.185 . S
O131 C130 1.160 . S
O132 Zn133 1.899 . S
O132 C140 1.284 . S
Zn133 O132 1.899 . S
Zn133 O134 2.032 . S
Zn133 O137 2.086 . S
Zn133 O142 1.977 . S
O134 Zn133 2.032 . S
O134 C138 1.278 . S
C135 O136 1.203 . S
C135 O142 1.267 . S
O136 C135 1.203 . S
O137 C130 1.185 . S
O137 Zn133 2.086 . S
C138 O134 1.278 . S
C138 O139 1.211 . S
O139 C138 1.211 . S
C140 O132 1.284 . S
C140 O141 1.273 . S
O141 C140 1.273 . S
O142 Zn133 1.977 . S
O142 C135 1.267 . S
C143 O144 1.160 . S
C143 O150 1.185 . S
O144 C143 1.160 . S
O145 Zn146 1.899 . S
O145 C153 1.284 . S
Zn146 O145 1.899 . S
Zn146 O147 2.032 . S
Zn146 O150 2.086 . S
Zn146 O155 1.977 . S
O147 Zn146 2.032 . S
O147 C151 1.278 . S
C148 O149 1.203 . S
C148 O155 1.267 . S
O149 C148 1.203 . S
O150 C143 1.185 . S
O150 Zn146 2.086 . S
C151 O147 1.278 . S
C151 O152 1.211 . S
O152 C151 1.211 . S
C153 O145 1.284 . S
C153 O154 1.273 . S
O154 C153 1.273 . S
O155 Zn146 1.977 . S
O155 C148 1.267 . S
C156 O157 1.160 . S
C156 O163 1.185 . S
O157 C156 1.160 . S
O158 Zn159 1.899 . S
O158 C166 1.284 . S
Zn159 O158 1.899 . S
Zn159 O160 2.032 . S
Zn159 O163 2.086 . S
Zn159 O168 1.977 . S
O160 Zn159 2.032 . S
O160 C164 1.278 . S
C161 O162 1.203 . S
C161 O168 1.267 . S
O162 C161 1.203 . S
O163 C156 1.185 . S
O163 Zn159 2.086 . S
C164 O160 1.278 . S
C164 O165 1.211 . S
O165 C164 1.211 . S
C166 O158 1.284 . S
C166 O167 1.273 . S
O167 C166 1.273 . S
O168 Zn159 1.977 . S
O168 C161 1.267 . S
C169 O170 1.160 . S
C169 O176 1.185 . S
O170 C169 1.160 . S
O171 Zn172 1.899 . S
O171 C179 1.284 . S
Zn172 O171 1.899 . S
Zn172 O173 2.032 . S
Zn172 O176 2.086 . S
Zn172 O181 1.977 . S
O173 Zn172 2.032 . S
O173 C177 1.278 . S
C174 O175 1.203 . S
C174 O181 1.267 . S
O175 C174 1.203 . S
O176 C169 1.185 . S
O176 Zn172 2.086 . S
C177 O173 1.278 . S
C177 O178 1.211 . S
O178 C177 1.211 . S
C179 O171 1.284 . S
C179 O180 1.273 . S
O180 C179 1.273 . S
O181 Zn172 1.977 . S
O181 C174 1.267 . S
C182 O183 1.160 . S
C182 O189 1.185 . S
O183 C182 1.160 . S
O184 Zn185 1.899 . S
O184 C192 1.284 . S
Zn185 O184 1.899 . S
Zn185 O186 2.032 . S
Zn185 O189 2.086 . S
Zn185 O194 1.977 . S
O186 Zn185 2.032 . S
O186 C190 1.278 . S
C187 O188 1.203 . S
C187 O194 1.267 . S
O188 C187 1.203 . S
O189 C182 1.185 . S
O189 Zn185 2.086 . S
C190 O186 1.278 . S
C190 O191 1.211 . S
O191 C190 1.211 . S
C192 O184 1.284 . S
C192 O193 1.273 . S
O193 C192 1.273 . S
O194 Zn185 1.977 . S
O194 C187 1.267 . S
C195 O196 1.160 . S
C195 O202 1.185 . S
O196 C195 1.160 . S
O197 Zn198 1.899 . S
O197 C205 1.284 . S
Zn198 O197 1.899 . S
Zn198 O199 2.032 . S
Zn198 O202 2.086 . S
Zn198 O207 1.977 . S
O199 Zn198 2.032 . S
O199 C203 1.278 . S
C200 O201 1.203 . S
C200 O207 1.267 . S
O201 C200 1.203 . S
O202 C195 1.185 . S
O202 Zn198 2.086 . S
C203 O199 1.278 . S
C203 O204 1.211 . S
O204 C203 1.211 . S
C205 O197 1.284 . S
C205 O206 1.273 . S
O206 C205 1.273 . S
O207 Zn198 1.977 . S
O207 C200 1.267 . S
C208 O209 1.160 . S
C208 O215 1.185 . S
O209 C208 1.160 . S
O210 Zn211 1.899 . S
O210 C218 1.284 . S
Zn211 O210 1.899 . S
Zn211 O212 2.032 . S
Zn211 O215 2.086 . S
Zn211 O220 1.977 . S
O212 Zn211 2.032 . S
O212 C216 1.278 . S
C213 O214 1.203 . S
C213 O220 1.267 . S
O214 C213 1.203 . S
O215 C208 1.185 . S
O215 Zn211 2.086 . S
C216 O212 1.278 . S
C216 O217 1.211 . S
O217 C216 1.211 . S
C218 O210 1.284 . S
C218 O219 1.273 . S
O219 C218 1.273 . S
O220 Zn211 1.977 . S
O220 C213 1.267 . S
C221 O222 1.160 . S
C221 O228 1.185 . S
O222 C221 1.160 . S
O223 Zn224 1.899 . S
O223 C231 1.284 . S
Zn224 O223 1.899 . S
Zn224 O225 2.032 . S
Zn224 O228 2.086 . S
Zn224 O233 1.977 . S
O225 Zn224 2.032 . S
O225 C229 1.278 . S
C226 O227 1.203 . S
C226 O233 1.267 . S
O227 C226 1.203 . S
O228 C221 1.185 . S
O228 Zn224 2.086 . S
C229 O225 1.278 . S
C229 O230 1.211 . S
O230 C229 1.211 . S
C231 O223 1.284 . S
C231 O232 1.273 . S
O232 C231 1.273 . S
O233 Zn224 1.977 . S
O233 C226 1.267 . S
C234 O235 1.160 . S
C234 O241 1.185 . S
O235 C234 1.160 . S
O236 Zn237 1.899 . S
O236 C244 1.284 . S
Zn237 O236 1.899 . S
Zn237 O238 2.032 . S
Zn237 O241 2.086 . S
Zn237 O246 1.977 . S
O238 Zn237 2.032 . S
O238 C242 1.278 . S
C239 O240 1.203 . S
C239 O246 1.267 . S
O240 C239 1.203 . S
O241 C234 1.185 . S
O241 Zn237 2.086 . S
C242 O238 1.278 . S
C242 O243 1.211 . S
O243 C242 1.211 . S
C244 O236 1.284 . S
C244 O245 1.273 . S
O245 C244 1.273 . S
O246 Zn237 1.977 . S
O246 C239 1.267 . S
C247 O248 1.160 . S
C247 O254 1.185 . S
O248 C247 1.160 . S
O249 Zn250 1.899 . S
O249 C257 1.284 . S
Zn250 O249 1.899 . S
Zn250 O251 2.032 . S
Zn250 O254 2.086 . S
Zn250 O259 1.977 . S
O251 Zn250 2.032 . S
O251 C255 1.278 . S
C252 O253 1.203 . S
C252 O259 1.267 . S
O253 C252 1.203 . S
O254 C247 1.185 . S
O254 Zn250 2.086 . S
C255 O251 1.278 . S
C255 O256 1.211 . S
O256 C255 1.211 . S
C257 O249 1.284 . S
C257 O258 1.273 . S
O258 C257 1.273 . S
O259 Zn250 1.977 . S
O259 C252 1.267 . S
C260 O261 1.160 . S
C260 O267 1.185 . S
O261 C260 1.160 . S
O262 Zn263 1.899 . S
O262 C270 1.284 . S
Zn263 O262 1.899 . S
Zn263 O264 2.032 . S
Zn263 O267 2.086 . S
Zn263 O272 1.977 . S
O264 Zn263 2.032 . S
O264 C268 1.278 . S
C265 O266 1.203 . S
C265 O272 1.267 . S
O266 C265 1.203 . S
O267 C260 1.185 . S
O267 Zn263 2.086 . S
C268 O264 1.278 . S
C268 O269 1.211 . S
O269 C268 1.211 . S
C270 O262 1.284 . S
C270 O271 1.273 . S
O271 C270 1.273 . S
O272 Zn263 1.977 . S
O272 C265 1.267 . S
C273 O274 1.160 . S
C273 O280 1.185 . S
O274 C273 1.160 . S
O275 Zn276 1.899 . S
O275 C283 1.284 . S
Zn276 O275 1.899 . S
Zn276 O277 2.032 . S
Zn276 O280 2.086 . S
Zn276 O285 1.977 . S
O277 Zn276 2.032 . S
O277 C281 1.278 . S
C278 O279 1.203 . S
C278 O285 1.267 . S
O279 C278 1.203 . S
O280 C273 1.185 . S
O280 Zn276 2.086 . S
C281 O277 1.278 . S
C281 O282 1.211 . S
O282 C281 1.211 . S
C283 O275 1.284 . S
C283 O284 1.273 . S
O284 C283 1.273 . S
O285 Zn276 1.977 . S
O285 C278 1.267 . S
C286 O287 1.160 . S
C286 O293 1.185 . S
O287 C286 1.160 . S
O288 Zn289 1.899 . S
O288 C296 1.284 . S
Zn289 O288 1.899 . S
Zn289 O290 2.032 . S
Zn289 O293 2.086 . S
Zn289 O298 1.977 . S
O290 Zn289 2.032 . S
O290 C294 1.278 . S
C291 O292 1.203 . S
C291 O298 1.267 . S
O292 C291 1.203 . S
O293 C286 1.185 . S
O293 Zn289 2.086 . S
C294 O290 1.278 . S
C294 O295 1.211 . S
O295 C294 1.211 . S
C296 O288 1.284 . S
C296 O297 1.273 . S
O297 C296 1.273 . S
O298 Zn289 1.977 . S
O298 C291 1.267 . S
C299 O300 1.160 . S
C299 O306 1.185 . S
O300 C299 1.160 . S
O301 Zn302 1.899 . S
O301 C309 1.284 . S
Zn302 O301 1.899 . S
Zn302 O303 2.032 . S
Zn302 O306 2.086 . S
Zn302 O311 1.977 . S
O303 Zn302 2.032 . S
O303 C307 1.278 . S
C304 O305 1.203 . S
C304 O311 1.267 . S
O305 C304 1.203 . S
O306 C299 1.185 . S
O306 Zn302 2.086 . S
C307 O303 1.278 . S
C307 O308 1.211 . S
O308 C307 1.211 . S
C309 O301 1.284 . S
C309 O310 1.273 . S
O310 C309 1.273 . S
O311 Zn302 1.977 . S
O311 C304 1.267 . S
C312 O313 1.160 . S
C312 O319 1.185 . S
O313 C312 1.160 . S
O314 Zn315 1.899 . S
O314 C322 1.284 . S
Zn315 O314 1.899 . S
Zn315 O316 2.032 . S
Zn315 O319 2.086 . S
Zn315 O324 1.977 . S
O316 Zn315 2.032 . S
O316 C320 1.278 . S
C317 O318 1.203 . S
C317 O324 1.267 . S
O318 C317 1.203 . S
O319 C312 1.185 . S
O319 Zn315 2.086 . S
C320 O316 1.278 . S
C320 O321 1.211 . S
O321 C320 1.211 . S
C322 O314 1.284 . S
C322 O323 1.273 . S
O323 C322 1.273 . S
O324 Zn315 1.977 . S
O324 C317 1.267 . S
C325 O326 1.160 . S
C325 O332 1.185 . S
O326 C325 1.160 . S
O327 Zn328 1.899 . S
O327 C335 1.284 . S
Zn328 O327 1.899 . S
Zn328 O329 2.032 . S
Zn328 O332 2.086 . S
Zn328 O337 1.977 . S
O329 Zn328 2.032 . S
O329 C333 1.278 . S
C330 O331 1.203 . S
C330 O337 1.267 . S
O331 C330 1.203 . S
O332 C325 1.185 . S
O332 Zn328 2.086 . S
C333 O329 1.278 . S
C333 O334 1.211 . S
O334 C333 1.211 . S
C335 O327 1.284 . S
C335 O336 1.273 . S
O336 C335 1.273 . S
O337 Zn328 1.977 . S
O337 C330 1.267 . S
C338 O339 1.160 . S
C338 O345 1.185 . S
O339 C338 1.160 . S
O340 Zn341 1.899 . S
O340 C348 1.284 . S
Zn341 O340 1.899 . S
Zn341 O342 2.032 . S
Zn341 O345 2.086 . S
Zn341 O350 1.977 . S
O342 Zn341 2.032 . S
O342 C346 1.278 . S
C343 O344 1.203 . S
C343 O350 1.267 . S
O344 C343 1.203 . S
O345 C338 1.185 . S
O345 Zn341 2.086 . S
C346 O342 1.278 . S
C346 O347 1.211 . S
O347 C346 1.211 . S
C348 O340 1.284 . S
C348 O349 1.273 . S
O349 C348 1.273 . S
O350 Zn341 1.977 . S
O350 C343 1.267 . S
C351 O352 1.160 . S
C351 O358 1.185 . S
O352 C351 1.160 . S
O353 Zn354 1.899 . S
O353 C361 1.284 . S
Zn354 O353 1.899 . S
Zn354 O355 2.032 . S
Zn354 O358 2.086 . S
Zn354 O363 1.977 . S
O355 Zn354 2.032 . S
O355 C359 1.278 . S
C356 O357 1.203 . S
C356 O363 1.267 . S
O357 C356 1.203 . S
O358 C351 1.185 . S
O358 Zn354 2.086 . S
C359 O355 1.278 . S
C359 O360 1.211 . S
O360 C359 1.211 . S
C361 O353 1.284 . S
C361 O362 1.273 . S
O362 C361 1.273 . S
O363 Zn354 1.977 . S
O363 C356 1.267 . S
C364 O365 1.160 . S
C364 O371 1.185 . S
O365 C364 1.160 . S
O366 Zn367 1.899 . S
O366 C374 1.284 . S
Zn367 O366 1.899 . S
Zn367 O368 2.032 . S
Zn367 O371 2.086 . S
Zn367 O376 1.977 . S
O368 Zn367 2.032 . S
O368 C372 1.278 . S
C369 O370 1.203 . S
C369 O376 1.267 . S
O370 C369 1.203 . S
O371 C364 1.185 . S
O371 Zn367 2.086 . S
C372 O368 1.278 . S
C372 O373 1.211 . S
O373 C372 1.211 . S
C374 O366 1.284 . S
C374 O375 1.273 . S
O375 C374 1.273 . S
O376 Zn367 1.977 . S
O376 C369 1.267 . S
C377 O378 1.160 . S
C377 O384 1.185 . S
O378 C377 1.160 . S
O379 Zn380 1.899 . S
O379 C387 1.284 . S
Zn380 O379 1.899 . S
Zn380 O381 2.032 . S
Zn380 O384 2.086 . S
Zn380 O389 1.977 . S
O381 Zn380 2.032 . S
O381 C385 1.278 . S
C382 O383 1.203 . S
C382 O389 1.267 . S
O383 C382 1.203 . S
O384 C377 1.185 . S
O384 Zn380 2.086 . S
C385 O381 1.278 . S
C385 O386 1.211 . S
O386 C385 1.211 . S
C387 O379 1.284 . S
C387 O388 1.273 . S
O388 C387 1.273 . S
O389 Zn380 1.977 . S
O389 C382 1.267 . S
C390 O391 1.160 . S
C390 O397 1.185 . S
O391 C390 1.160 . S
O392 Zn393 1.899 . S
O392 C400 1.284 . S
Zn393 O392 1.899 . S
Zn393 O394 2.032 . S
Zn393 O397 2.086 . S
Zn393 O402 1.977 . S
O394 Zn393 2.032 . S
O394 C398 1.278 . S
C395 O396 1.203 . S
C395 O402 1.267 . S
O396 C395 1.203 . S
O397 C390 1.185 . S
O397 Zn393 2.086 . S
C398 O394 1.278 . S
C398 O399 1.211 . S
O399 C398 1.211 . S
C400 O392 1.284 . S
C400 O401 1.273 . S
O401 C400 1.273 . S
O402 Zn393 1.977 . S
O402 C395 1.267 . S
C403 O404 1.160 . S
C403 O410 1.185 . S
O404 C403 1.160 . S
O405 Zn406 1.899 . S
O405 C413 1.284 . S
Zn406 O405 1.899 . S
Zn406 O407 2.032 . S
Zn406 O410 2.086 . S
Zn406 O415 1.977 . S
O407 Zn406 2.032 . S
O407 C411 1.278 . S
C408 O409 1.203 . S
C408 O415 1.267 . S
O409 C408 1.203 . S
O410 C403 1.185 . S
O410 Zn406 2.086 . S
C411 O407 1.278 . S
C411 O412 1.211 . S
O412 C411 1.211 . S
C413 O405 1.284 . S
C413 O414 1.273 . S
O414 C413 1.273 . S
O415 Zn406 1.977 . S
O415 C408 1.267 . S
H416 C424 0.929 . S
H417 C426 0.930 . S
H418 C428 0.930 . S
H419 C431 0.929 . S
H420 C434 0.930 . S
H421 C436 0.960 . S
H422 C436 0.960 . S
H423 C436 0.960 . S
C424 H416 0.929 . S
C424 C425 1.377 . S
C424 C426 1.384 . S
C425 C424 1.377 . S
C425 C431 1.390 . S
C426 H417 0.930 . S
C426 C424 1.384 . S
C426 C427 1.372 . S
C427 C426 1.372 . S
C427 C428 1.400 . S
C427 C432 1.490 . S
C428 H418 0.930 . S
C428 C427 1.400 . S
C428 C431 1.386 . S
H429 C445 0.930 . S
H430 C446 0.931 . S
C431 H419 0.929 . S
C431 C425 1.390 . S
C431 C428 1.386 . S
C432 C427 1.490 . S
C432 C434 1.395 . S
C432 C435 1.403 . S
H433 C439 0.930 . S
C434 H420 0.930 . S
C434 C432 1.395 . S
C434 C437 1.403 . S
C435 C432 1.403 . S
C435 C436 1.524 . S
C435 C439 1.400 . S
C436 H421 0.960 . S
C436 H422 0.960 . S
C436 H423 0.960 . S
C436 C435 1.524 . S
C437 C434 1.403 . S
C437 C438 1.392 . S
C437 C441 1.495 . S
C438 C437 1.392 . S
C438 C439 1.385 . S
C438 C440 1.478 . S
C439 H433 0.930 . S
C439 C435 1.400 . S
C439 C438 1.385 . S
C440 C438 1.478 . S
C440 C442 1.381 . S
C440 C446 1.383 . S
C441 C437 1.495 . S
C441 H447 0.959 . S
C441 H448 0.961 . S
C441 H449 0.960 . S
C442 C440 1.381 . S
C442 C443 1.394 . S
C442 H450 0.930 . S
C443 C442 1.394 . S
C443 C444 1.383 . S
C443 H451 0.929 . S
C444 C443 1.383 . S
C444 C445 1.377 . S
C445 H429 0.930 . S
C445 C444 1.377 . S
C445 C446 1.379 . S
C446 H430 0.931 . S
C446 C440 1.383 . S
C446 C445 1.379 . S
H447 C441 0.959 . S
H448 C441 0.961 . S
H449 C441 0.960 . S
H450 C442 0.930 . S
H451 C443 0.929 . S
H452 C460 0.929 . S
H453 C462 0.930 . S
H454 C464 0.930 . S
H455 C467 0.929 . S
H456 C470 0.930 . S
H457 C472 0.960 . S
H458 C472 0.960 . S
H459 C472 0.960 . S
C460 H452 0.929 . S
C460 C461 1.377 . S
C460 C462 1.384 . S
C461 C460 1.377 . S
C461 C467 1.390 . S
C462 H453 0.930 . S
C462 C460 1.384 . S
C462 C463 1.372 . S
C463 C462 1.372 . S
C463 C464 1.400 . S
C463 C468 1.490 . S
C464 H454 0.930 . S
C464 C463 1.400 . S
C464 C467 1.386 . S
H465 C481 0.930 . S
H466 C482 0.931 . S
C467 H455 0.929 . S
C467 C461 1.390 . S
C467 C464 1.386 . S
C468 C463 1.490 . S
C468 C470 1.395 . S
C468 C471 1.403 . S
H469 C475 0.930 . S
C470 H456 0.930 . S
C470 C468 1.395 . S
C470 C473 1.403 . S
C471 C468 1.403 . S
C471 C472 1.524 . S
C471 C475 1.400 . S
C472 H457 0.960 . S
C472 H458 0.960 . S
C472 H459 0.960 . S
C472 C471 1.524 . S
C473 C470 1.403 . S
C473 C474 1.392 . S
C473 C477 1.495 . S
C474 C473 1.392 . S
C474 C475 1.385 . S
C474 C476 1.478 . S
C475 H469 0.930 . S
C475 C471 1.400 . S
C475 C474 1.385 . S
C476 C474 1.478 . S
C476 C478 1.381 . S
C476 C482 1.383 . S
C477 C473 1.495 . S
C477 H483 0.959 . S
C477 H484 0.961 . S
C477 H485 0.960 . S
C478 C476 1.381 . S
C478 C479 1.394 . S
C478 H486 0.930 . S
C479 C478 1.394 . S
C479 C480 1.383 . S
C479 H487 0.929 . S
C480 C479 1.383 . S
C480 C481 1.377 . S
C481 H465 0.930 . S
C481 C480 1.377 . S
C481 C482 1.379 . S
C482 H466 0.931 . S
C482 C476 1.383 . S
C482 C481 1.379 . S
H483 C477 0.959 . S
H484 C477 0.961 . S
H485 C477 0.960 . S
H486 C478 0.930 . S
H487 C479 0.929 . S
H488 C496 0.929 . S
H489 C498 0.930 . S
H490 C500 0.930 . S
H491 C503 0.929 . S
H492 C506 0.930 . S
H493 C508 0.960 . S
H494 C508 0.960 . S
H495 C508 0.960 . S
C496 H488 0.929 . S
C496 C497 1.377 . S
C496 C498 1.384 . S
C497 C496 1.377 . S
C497 C503 1.390 . S
C498 H489 0.930 . S
C498 C496 1.384 . S
C498 C499 1.372 . S
C499 C498 1.372 . S
C499 C500 1.400 . S
C499 C504 1.490 . S
C500 H490 0.930 . S
C500 C499 1.400 . S
C500 C503 1.386 . S
H501 C517 0.930 . S
H502 C518 0.931 . S
C503 H491 0.929 . S
C503 C497 1.390 . S
C503 C500 1.386 . S
C504 C499 1.490 . S
C504 C506 1.395 . S
C504 C507 1.403 . S
H505 C511 0.930 . S
C506 H492 0.930 . S
C506 C504 1.395 . S
C506 C509 1.403 . S
C507 C504 1.403 . S
C507 C508 1.524 . S
C507 C511 1.400 . S
C508 H493 0.960 . S
C508 H494 0.960 . S
C508 H495 0.960 . S
C508 C507 1.524 . S
C509 C506 1.403 . S
C509 C510 1.392 . S
C509 C513 1.495 . S
C510 C509 1.392 . S
C510 C511 1.385 . S
C510 C512 1.478 . S
C511 H505 0.930 . S
C511 C507 1.400 . S
C511 C510 1.385 . S
C512 C510 1.478 . S
C512 C514 1.381 . S
C512 C518 1.383 . S
C513 C509 1.495 . S
C513 H519 0.959 . S
C513 H520 0.961 . S
C513 H521 0.960 . S
C514 C512 1.381 . S
C514 C515 1.394 . S
C514 H522 0.930 . S
C515 C514 1.394 . S
C515 C516 1.383 . S
C515 H523 0.929 . S
C516 C515 1.383 . S
C516 C517 1.377 . S
C517 H501 0.930 . S
C517 C516 1.377 . S
C517 C518 1.379 . S
C518 H502 0.931 . S
C518 C512 1.383 . S
C518 C517 1.379 . S
H519 C513 0.959 . S
H520 C513 0.961 . S
H521 C513 0.960 . S
H522 C514 0.930 . S
H523 C515 0.929 . S
H524 C532 0.929 . S
H525 C534 0.930 . S
H526 C536 0.930 . S
H527 C539 0.929 . S
H528 C542 0.930 . S
H529 C544 0.960 . S
H530 C544 0.960 . S
H531 C544 0.960 . S
C532 H524 0.929 . S
C532 C533 1.377 . S
C532 C534 1.384 . S
C533 C532 1.377 . S
C533 C539 1.390 . S
C534 H525 0.930 . S
C534 C532 1.384 . S
C534 C535 1.372 . S
C535 C534 1.372 . S
C535 C536 1.400 . S
C535 C540 1.490 . S
C536 H526 0.930 . S
C536 C535 1.400 . S
C536 C539 1.386 . S
H537 C553 0.930 . S
H538 C554 0.931 . S
C539 H527 0.929 . S
C539 C533 1.390 . S
C539 C536 1.386 . S
C540 C535 1.490 . S
C540 C542 1.395 . S
C540 C543 1.403 . S
H541 C547 0.930 . S
C542 H528 0.930 . S
C542 C540 1.395 . S
C542 C545 1.403 . S
C543 C540 1.403 . S
C543 C544 1.524 . S
C543 C547 1.400 . S
C544 H529 0.960 . S
C544 H530 0.960 . S
C544 H531 0.960 . S
C544 C543 1.524 . S
C545 C542 1.403 . S
C545 C546 1.392 . S
C545 C549 1.495 . S
C546 C545 1.392 . S
C546 C547 1.385 . S
C546 C548 1.478 . S
C547 H541 0.930 . S
C547 C543 1.400 . S
C547 C546 1.385 . S
C548 C546 1.478 . S
C548 C550 1.381 . S
C548 C554 1.383 . S
C549 C545 1.495 . S
C549 H555 0.959 . S
C549 H556 0.961 . S
C549 H557 0.960 . S
C550 C548 1.381 . S
C550 C551 1.394 . S
C550 H558 0.930 . S
C551 C550 1.394 . S
C551 C552 1.383 . S
C551 H559 0.929 . S
C552 C551 1.383 . S
C552 C553 1.377 . S
C553 H537 0.930 . S
C553 C552 1.377 . S
C553 C554 1.379 . S
C554 H538 0.931 . S
C554 C548 1.383 . S
C554 C553 1.379 . S
H555 C549 0.959 . S
H556 C549 0.961 . S
H557 C549 0.960 . S
H558 C550 0.930 . S
H559 C551 0.929 . S
H560 C568 0.929 . S
H561 C570 0.930 . S
H562 C572 0.930 . S
H563 C575 0.929 . S
H564 C578 0.930 . S
H565 C580 0.960 . S
H566 C580 0.960 . S
H567 C580 0.960 . S
C568 H560 0.929 . S
C568 C569 1.377 . S
C568 C570 1.384 . S
C569 C568 1.377 . S
C569 C575 1.390 . S
C570 H561 0.930 . S
C570 C568 1.384 . S
C570 C571 1.372 . S
C571 C570 1.372 . S
C571 C572 1.400 . S
C571 C576 1.490 . S
C572 H562 0.930 . S
C572 C571 1.400 . S
C572 C575 1.386 . S
H573 C589 0.930 . S
H574 C590 0.931 . S
C575 H563 0.929 . S
C575 C569 1.390 . S
C575 C572 1.386 . S
C576 C571 1.490 . S
C576 C578 1.395 . S
C576 C579 1.403 . S
H577 C583 0.930 . S
C578 H564 0.930 . S
C578 C576 1.395 . S
C578 C581 1.403 . S
C579 C576 1.403 . S
C579 C580 1.524 . S
C579 C583 1.400 . S
C580 H565 0.960 . S
C580 H566 0.960 . S
C580 H567 0.960 . S
C580 C579 1.524 . S
C581 C578 1.403 . S
C581 C582 1.392 . S
C581 C585 1.495 . S
C582 C581 1.392 . S
C582 C583 1.385 . S
C582 C584 1.478 . S
C583 H577 0.930 . S
C583 C579 1.400 . S
C583 C582 1.385 . S
C584 C582 1.478 . S
C584 C586 1.381 . S
C584 C590 1.383 . S
C585 C581 1.495 . S
C585 H591 0.959 . S
C585 H592 0.961 . S
C585 H593 0.960 . S
C586 C584 1.381 . S
C586 C587 1.394 . S
C586 H594 0.930 . S
C587 C586 1.394 . S
C587 C588 1.383 . S
C587 H595 0.929 . S
C588 C587 1.383 . S
C588 C589 1.377 . S
C589 H573 0.930 . S
C589 C588 1.377 . S
C589 C590 1.379 . S
C590 H574 0.931 . S
C590 C584 1.383 . S
C590 C589 1.379 . S
H591 C585 0.959 . S
H592 C585 0.961 . S
H593 C585 0.960 . S
H594 C586 0.930 . S
H595 C587 0.929 . S
H596 C604 0.929 . S
H597 C606 0.930 . S
H598 C608 0.930 . S
H599 C611 0.929 . S
H600 C614 0.930 . S
H601 C616 0.960 . S
H602 C616 0.960 . S
H603 C616 0.960 . S
C604 H596 0.929 . S
C604 C605 1.377 . S
C604 C606 1.384 . S
C605 C604 1.377 . S
C605 C611 1.390 . S
C606 H597 0.930 . S
C606 C604 1.384 . S
C606 C607 1.372 . S
C607 C606 1.372 . S
C607 C608 1.400 . S
C607 C612 1.490 . S
C608 H598 0.930 . S
C608 C607 1.400 . S
C608 C611 1.386 . S
H609 C625 0.930 . S
H610 C626 0.931 . S
C611 H599 0.929 . S
C611 C605 1.390 . S
C611 C608 1.386 . S
C612 C607 1.490 . S
C612 C614 1.395 . S
C612 C615 1.403 . S
H613 C619 0.930 . S
C614 H600 0.930 . S
C614 C612 1.395 . S
C614 C617 1.403 . S
C615 C612 1.403 . S
C615 C616 1.524 . S
C615 C619 1.400 . S
C616 H601 0.960 . S
C616 H602 0.960 . S
C616 H603 0.960 . S
C616 C615 1.524 . S
C617 C614 1.403 . S
C617 C618 1.392 . S
C617 C621 1.495 . S
C618 C617 1.392 . S
C618 C619 1.385 . S
C618 C620 1.478 . S
C619 H613 0.930 . S
C619 C615 1.400 . S
C619 C618 1.385 . S
C620 C618 1.478 . S
C620 C622 1.381 . S
C620 C626 1.383 . S
C621 C617 1.495 . S
C621 H627 0.959 . S
C621 H628 0.961 . S
C621 H629 0.960 . S
C622 C620 1.381 . S
C622 C623 1.394 . S
C622 H630 0.930 . S
C623 C622 1.394 . S
C623 C624 1.383 . S
C623 H631 0.929 . S
C624 C623 1.383 . S
C624 C625 1.377 . S
C625 H609 0.930 . S
C625 C624 1.377 . S
C625 C626 1.379 . S
C626 H610 0.931 . S
C626 C620 1.383 . S
C626 C625 1.379 . S
H627 C621 0.959 . S
H628 C621 0.961 . S
H629 C621 0.960 . S
H630 C622 0.930 . S
H631 C623 0.929 . S
H632 C640 0.929 . S
H633 C642 0.930 . S
H634 C644 0.930 . S
H635 C647 0.929 . S
H636 C650 0.930 . S
H637 C652 0.960 . S
H638 C652 0.960 . S
H639 C652 0.960 . S
C640 H632 0.929 . S
C640 C641 1.377 . S
C640 C642 1.384 . S
C641 C640 1.377 . S
C641 C647 1.390 . S
C642 H633 0.930 . S
C642 C640 1.384 . S
C642 C643 1.372 . S
C643 C642 1.372 . S
C643 C644 1.400 . S
C643 C648 1.490 . S
C644 H634 0.930 . S
C644 C643 1.400 . S
C644 C647 1.386 . S
H645 C661 0.930 . S
H646 C662 0.931 . S
C647 H635 0.929 . S
C647 C641 1.390 . S
C647 C644 1.386 . S
C648 C643 1.490 . S
C648 C650 1.395 . S
C648 C651 1.403 . S
H649 C655 0.930 . S
C650 H636 0.930 . S
C650 C648 1.395 . S
C650 C653 1.403 . S
C651 C648 1.403 . S
C651 C652 1.524 . S
C651 C655 1.400 . S
C652 H637 0.960 . S
C652 H638 0.960 . S
C652 H639 0.960 . S
C652 C651 1.524 . S
C653 C650 1.403 . S
C653 C654 1.392 . S
C653 C657 1.495 . S
C654 C653 1.392 . S
C654 C655 1.385 . S
C654 C656 1.478 . S
C655 H649 0.930 . S
C655 C651 1.400 . S
C655 C654 1.385 . S
C656 C654 1.478 . S
C656 C658 1.381 . S
C656 C662 1.383 . S
C657 C653 1.495 . S
C657 H663 0.959 . S
C657 H664 0.961 . S
C657 H665 0.960 . S
C658 C656 1.381 . S
C658 C659 1.394 . S
C658 H666 0.930 . S
C659 C658 1.394 . S
C659 C660 1.383 . S
C659 H667 0.929 . S
C660 C659 1.383 . S
C660 C661 1.377 . S
C661 H645 0.930 . S
C661 C660 1.377 . S
C661 C662 1.379 . S
C662 H646 0.931 . S
C662 C656 1.383 . S
C662 C661 1.379 . S
H663 C657 0.959 . S
H664 C657 0.961 . S
H665 C657 0.960 . S
H666 C658 0.930 . S
H667 C659 0.929 . S
H668 C676 0.929 . S
H669 C678 0.930 . S
H670 C680 0.930 . S
H671 C683 0.929 . S
H672 C686 0.930 . S
H673 C688 0.960 . S
H674 C688 0.960 . S
H675 C688 0.960 . S
C676 H668 0.929 . S
C676 C677 1.377 . S
C676 C678 1.384 . S
C677 C676 1.377 . S
C677 C683 1.390 . S
C678 H669 0.930 . S
C678 C676 1.384 . S
C678 C679 1.372 . S
C679 C678 1.372 . S
C679 C680 1.400 . S
C679 C684 1.490 . S
C680 H670 0.930 . S
C680 C679 1.400 . S
C680 C683 1.386 . S
H681 C697 0.930 . S
H682 C698 0.931 . S
C683 H671 0.929 . S
C683 C677 1.390 . S
C683 C680 1.386 . S
C684 C679 1.490 . S
C684 C686 1.395 . S
C684 C687 1.403 . S
H685 C691 0.930 . S
C686 H672 0.930 . S
C686 C684 1.395 . S
C686 C689 1.403 . S
C687 C684 1.403 . S
C687 C688 1.524 . S
C687 C691 1.400 . S
C688 H673 0.960 . S
C688 H674 0.960 . S
C688 H675 0.960 . S
C688 C687 1.524 . S
C689 C686 1.403 . S
C689 C690 1.392 . S
C689 C693 1.495 . S
C690 C689 1.392 . S
C690 C691 1.385 . S
C690 C692 1.478 . S
C691 H685 0.930 . S
C691 C687 1.400 . S
C691 C690 1.385 . S
C692 C690 1.478 . S
C692 C694 1.381 . S
C692 C698 1.383 . S
C693 C689 1.495 . S
C693 H699 0.959 . S
C693 H700 0.961 . S
C693 H701 0.960 . S
C694 C692 1.381 . S
C694 C695 1.394 . S
C694 H702 0.930 . S
C695 C694 1.394 . S
C695 C696 1.383 . S
C695 H703 0.929 . S
C696 C695 1.383 . S
C696 C697 1.377 . S
C697 H681 0.930 . S
C697 C696 1.377 . S
C697 C698 1.379 . S
C698 H682 0.931 . S
C698 C692 1.383 . S
C698 C697 1.379 . S
H699 C693 0.959 . S
H700 C693 0.961 . S
H701 C693 0.960 . S
H702 C694 0.930 . S
H703 C695 0.929 . S
H704 C712 0.929 . S
H705 C714 0.930 . S
H706 C716 0.930 . S
H707 C719 0.929 . S
H708 C722 0.930 . S
H709 C724 0.960 . S
H710 C724 0.960 . S
H711 C724 0.960 . S
C712 H704 0.929 . S
C712 C713 1.377 . S
C712 C714 1.384 . S
C713 C712 1.377 . S
C713 C719 1.390 . S
C714 H705 0.930 . S
C714 C712 1.384 . S
C714 C715 1.372 . S
C715 C714 1.372 . S
C715 C716 1.400 . S
C715 C720 1.490 . S
C716 H706 0.930 . S
C716 C715 1.400 . S
C716 C719 1.386 . S
H717 C733 0.930 . S
H718 C734 0.931 . S
C719 H707 0.929 . S
C719 C713 1.390 . S
C719 C716 1.386 . S
C720 C715 1.490 . S
C720 C722 1.395 . S
C720 C723 1.403 . S
H721 C727 0.930 . S
C722 H708 0.930 . S
C722 C720 1.395 . S
C722 C725 1.403 . S
C723 C720 1.403 . S
C723 C724 1.524 . S
C723 C727 1.400 . S
C724 H709 0.960 . S
C724 H710 0.960 . S
C724 H711 0.960 . S
C724 C723 1.524 . S
C725 C722 1.403 . S
C725 C726 1.392 . S
C725 C729 1.495 . S
C726 C725 1.392 . S
C726 C727 1.385 . S
C726 C728 1.478 . S
C727 H721 0.930 . S
C727 C723 1.400 . S
C727 C726 1.385 . S
C728 C726 1.478 . S
C728 C730 1.381 . S
C728 C734 1.383 . S
C729 C725 1.495 . S
C729 H735 0.959 . S
C729 H736 0.961 . S
C729 H737 0.960 . S
C730 C728 1.381 . S
C730 C731 1.394 . S
C730 H738 0.930 . S
C731 C730 1.394 . S
C731 C732 1.383 . S
C731 H739 0.929 . S
C732 C731 1.383 . S
C732 C733 1.377 . S
C733 H717 0.930 . S
C733 C732 1.377 . S
C733 C734 1.379 . S
C734 H718 0.931 . S
C734 C728 1.383 . S
C734 C733 1.379 . S
H735 C729 0.959 . S
H736 C729 0.961 . S
H737 C729 0.960 . S
H738 C730 0.930 . S
H739 C731 0.929 . S
H740 C748 0.929 . S
H741 C750 0.930 . S
H742 C752 0.930 . S
H743 C755 0.929 . S
H744 C758 0.930 . S
H745 C760 0.960 . S
H746 C760 0.960 . S
H747 C760 0.960 . S
C748 H740 0.929 . S
C748 C749 1.377 . S
C748 C750 1.384 . S
C749 C748 1.377 . S
C749 C755 1.390 . S
C750 H741 0.930 . S
C750 C748 1.384 . S
C750 C751 1.372 . S
C751 C750 1.372 . S
C751 C752 1.400 . S
C751 C756 1.490 . S
C752 H742 0.930 . S
C752 C751 1.400 . S
C752 C755 1.386 . S
H753 C769 0.930 . S
H754 C770 0.931 . S
C755 H743 0.929 . S
C755 C749 1.390 . S
C755 C752 1.386 . S
C756 C751 1.490 . S
C756 C758 1.395 . S
C756 C759 1.403 . S
H757 C763 0.930 . S
C758 H744 0.930 . S
C758 C756 1.395 . S
C758 C761 1.403 . S
C759 C756 1.403 . S
C759 C760 1.524 . S
C759 C763 1.400 . S
C760 H745 0.960 . S
C760 H746 0.960 . S
C760 H747 0.960 . S
C760 C759 1.524 . S
C761 C758 1.403 . S
C761 C762 1.392 . S
C761 C765 1.495 . S
C762 C761 1.392 . S
C762 C763 1.385 . S
C762 C764 1.478 . S
C763 H757 0.930 . S
C763 C759 1.400 . S
C763 C762 1.385 . S
C764 C762 1.478 . S
C764 C766 1.381 . S
C764 C770 1.383 . S
C765 C761 1.495 . S
C765 H771 0.959 . S
C765 H772 0.961 . S
C765 H773 0.960 . S
C766 C764 1.381 . S
C766 C767 1.394 . S
C766 H774 0.930 . S
C767 C766 1.394 . S
C767 C768 1.383 . S
C767 H775 0.929 . S
C768 C767 1.383 . S
C768 C769 1.377 . S
C769 H753 0.930 . S
C769 C768 1.377 . S
C769 C770 1.379 . S
C770 H754 0.931 . S
C770 C764 1.383 . S
C770 C769 1.379 . S
H771 C765 0.959 . S
H772 C765 0.961 . S
H773 C765 0.960 . S
H774 C766 0.930 . S
H775 C767 0.929 . S
H776 C784 0.929 . S
H777 C786 0.930 . S
H778 C788 0.930 . S
H779 C791 0.929 . S
H780 C794 0.930 . S
H781 C796 0.960 . S
H782 C796 0.960 . S
H783 C796 0.960 . S
C784 H776 0.929 . S
C784 C785 1.377 . S
C784 C786 1.384 . S
C785 C784 1.377 . S
C785 C791 1.390 . S
C786 H777 0.930 . S
C786 C784 1.384 . S
C786 C787 1.372 . S
C787 C786 1.372 . S
C787 C788 1.400 . S
C787 C792 1.490 . S
C788 H778 0.930 . S
C788 C787 1.400 . S
C788 C791 1.386 . S
H789 C805 0.930 . S
H790 C806 0.931 . S
C791 H779 0.929 . S
C791 C785 1.390 . S
C791 C788 1.386 . S
C792 C787 1.490 . S
C792 C794 1.395 . S
C792 C795 1.403 . S
H793 C799 0.930 . S
C794 H780 0.930 . S
C794 C792 1.395 . S
C794 C797 1.403 . S
C795 C792 1.403 . S
C795 C796 1.524 . S
C795 C799 1.400 . S
C796 H781 0.960 . S
C796 H782 0.960 . S
C796 H783 0.960 . S
C796 C795 1.524 . S
C797 C794 1.403 . S
C797 C798 1.392 . S
C797 C801 1.495 . S
C798 C797 1.392 . S
C798 C799 1.385 . S
C798 C800 1.478 . S
C799 H793 0.930 . S
C799 C795 1.400 . S
C799 C798 1.385 . S
C800 C798 1.478 . S
C800 C802 1.381 . S
C800 C806 1.383 . S
C801 C797 1.495 . S
C801 H807 0.959 . S
C801 H808 0.961 . S
C801 H809 0.960 . S
C802 C800 1.381 . S
C802 C803 1.394 . S
C802 H810 0.930 . S
C803 C802 1.394 . S
C803 C804 1.383 . S
C803 H811 0.929 . S
C804 C803 1.383 . S
C804 C805 1.377 . S
C805 H789 0.930 . S
C805 C804 1.377 . S
C805 C806 1.379 . S
C806 H790 0.931 . S
C806 C800 1.383 . S
C806 C805 1.379 . S
H807 C801 0.959 . S
H808 C801 0.961 . S
H809 C801 0.960 . S
H810 C802 0.930 . S
H811 C803 0.929 . S
H812 C820 0.929 . S
H813 C822 0.930 . S
H814 C824 0.930 . S
H815 C827 0.929 . S
H816 C830 0.930 . S
H817 C832 0.960 . S
H818 C832 0.960 . S
H819 C832 0.960 . S
C820 H812 0.929 . S
C820 C821 1.377 . S
C820 C822 1.384 . S
C821 C820 1.377 . S
C821 C827 1.390 . S
C822 H813 0.930 . S
C822 C820 1.384 . S
C822 C823 1.372 . S
C823 C822 1.372 . S
C823 C824 1.400 . S
C823 C828 1.490 . S
C824 H814 0.930 . S
C824 C823 1.400 . S
C824 C827 1.386 . S
H825 C841 0.930 . S
H826 C842 0.931 . S
C827 H815 0.929 . S
C827 C821 1.390 . S
C827 C824 1.386 . S
C828 C823 1.490 . S
C828 C830 1.395 . S
C828 C831 1.403 . S
H829 C835 0.930 . S
C830 H816 0.930 . S
C830 C828 1.395 . S
C830 C833 1.403 . S
C831 C828 1.403 . S
C831 C832 1.524 . S
C831 C835 1.400 . S
C832 H817 0.960 . S
C832 H818 0.960 . S
C832 H819 0.960 . S
C832 C831 1.524 . S
C833 C830 1.403 . S
C833 C834 1.392 . S
C833 C837 1.495 . S
C834 C833 1.392 . S
C834 C835 1.385 . S
C834 C836 1.478 . S
C835 H829 0.930 . S
C835 C831 1.400 . S
C835 C834 1.385 . S
C836 C834 1.478 . S
C836 C838 1.381 . S
C836 C842 1.383 . S
C837 C833 1.495 . S
C837 H843 0.959 . S
C837 H844 0.961 . S
C837 H845 0.960 . S
C838 C836 1.381 . S
C838 C839 1.394 . S
C838 H846 0.930 . S
C839 C838 1.394 . S
C839 C840 1.383 . S
C839 H847 0.929 . S
C840 C839 1.383 . S
C840 C841 1.377 . S
C841 H825 0.930 . S
C841 C840 1.377 . S
C841 C842 1.379 . S
C842 H826 0.931 . S
C842 C836 1.383 . S
C842 C841 1.379 . S
H843 C837 0.959 . S
H844 C837 0.961 . S
H845 C837 0.960 . S
H846 C838 0.930 . S
H847 C839 0.929 . S
H848 C856 0.929 . S
H849 C858 0.930 . S
H850 C860 0.930 . S
H851 C863 0.929 . S
H852 C866 0.930 . S
H853 C868 0.960 . S
H854 C868 0.960 . S
H855 C868 0.960 . S
C856 H848 0.929 . S
C856 C857 1.377 . S
C856 C858 1.384 . S
C857 C856 1.377 . S
C857 C863 1.390 . S
C858 H849 0.930 . S
C858 C856 1.384 . S
C858 C859 1.372 . S
C859 C858 1.372 . S
C859 C860 1.400 . S
C859 C864 1.490 . S
C860 H850 0.930 . S
C860 C859 1.400 . S
C860 C863 1.386 . S
H861 C877 0.930 . S
H862 C878 0.931 . S
C863 H851 0.929 . S
C863 C857 1.390 . S
C863 C860 1.386 . S
C864 C859 1.490 . S
C864 C866 1.395 . S
C864 C867 1.403 . S
H865 C871 0.930 . S
C866 H852 0.930 . S
C866 C864 1.395 . S
C866 C869 1.403 . S
C867 C864 1.403 . S
C867 C868 1.524 . S
C867 C871 1.400 . S
C868 H853 0.960 . S
C868 H854 0.960 . S
C868 H855 0.960 . S
C868 C867 1.524 . S
C869 C866 1.403 . S
C869 C870 1.392 . S
C869 C873 1.495 . S
C870 C869 1.392 . S
C870 C871 1.385 . S
C870 C872 1.478 . S
C871 H865 0.930 . S
C871 C867 1.400 . S
C871 C870 1.385 . S
C872 C870 1.478 . S
C872 C874 1.381 . S
C872 C878 1.383 . S
C873 C869 1.495 . S
C873 H879 0.959 . S
C873 H880 0.961 . S
C873 H881 0.960 . S
C874 C872 1.381 . S
C874 C875 1.394 . S
C874 H882 0.930 . S
C875 C874 1.394 . S
C875 C876 1.383 . S
C875 H883 0.929 . S
C876 C875 1.383 . S
C876 C877 1.377 . S
C877 H861 0.930 . S
C877 C876 1.377 . S
C877 C878 1.379 . S
C878 H862 0.931 . S
C878 C872 1.383 . S
C878 C877 1.379 . S
H879 C873 0.959 . S
H880 C873 0.961 . S
H881 C873 0.960 . S
H882 C874 0.930 . S
H883 C875 0.929 . S
H884 C892 0.929 . S
H885 C894 0.930 . S
H886 C896 0.930 . S
H887 C899 0.929 . S
H888 C902 0.930 . S
H889 C904 0.960 . S
H890 C904 0.960 . S
H891 C904 0.960 . S
C892 H884 0.929 . S
C892 C893 1.377 . S
C892 C894 1.384 . S
C893 C892 1.377 . S
C893 C899 1.390 . S
C894 H885 0.930 . S
C894 C892 1.384 . S
C894 C895 1.372 . S
C895 C894 1.372 . S
C895 C896 1.400 . S
C895 C900 1.490 . S
C896 H886 0.930 . S
C896 C895 1.400 . S
C896 C899 1.386 . S
H897 C913 0.930 . S
H898 C914 0.931 . S
C899 H887 0.929 . S
C899 C893 1.390 . S
C899 C896 1.386 . S
C900 C895 1.490 . S
C900 C902 1.395 . S
C900 C903 1.403 . S
H901 C907 0.930 . S
C902 H888 0.930 . S
C902 C900 1.395 . S
C902 C905 1.403 . S
C903 C900 1.403 . S
C903 C904 1.524 . S
C903 C907 1.400 . S
C904 H889 0.960 . S
C904 H890 0.960 . S
C904 H891 0.960 . S
C904 C903 1.524 . S
C905 C902 1.403 . S
C905 C906 1.392 . S
C905 C909 1.495 . S
C906 C905 1.392 . S
C906 C907 1.385 . S
C906 C908 1.478 . S
C907 H901 0.930 . S
C907 C903 1.400 . S
C907 C906 1.385 . S
C908 C906 1.478 . S
C908 C910 1.381 . S
C908 C914 1.383 . S
C909 C905 1.495 . S
C909 H915 0.959 . S
C909 H916 0.961 . S
C909 H917 0.960 . S
C910 C908 1.381 . S
C910 C911 1.394 . S
C910 H918 0.930 . S
C911 C910 1.394 . S
C911 C912 1.383 . S
C911 H919 0.929 . S
C912 C911 1.383 . S
C912 C913 1.377 . S
C913 H897 0.930 . S
C913 C912 1.377 . S
C913 C914 1.379 . S
C914 H898 0.931 . S
C914 C908 1.383 . S
C914 C913 1.379 . S
H915 C909 0.959 . S
H916 C909 0.961 . S
H917 C909 0.960 . S
H918 C910 0.930 . S
H919 C911 0.929 . S
H920 C928 0.929 . S
H921 C930 0.930 . S
H922 C932 0.930 . S
H923 C935 0.929 . S
H924 C938 0.930 . S
H925 C940 0.960 . S
H926 C940 0.960 . S
H927 C940 0.960 . S
C928 H920 0.929 . S
C928 C929 1.377 . S
C928 C930 1.384 . S
C929 C928 1.377 . S
C929 C935 1.390 . S
C930 H921 0.930 . S
C930 C928 1.384 . S
C930 C931 1.372 . S
C931 C930 1.372 . S
C931 C932 1.400 . S
C931 C936 1.490 . S
C932 H922 0.930 . S
C932 C931 1.400 . S
C932 C935 1.386 . S
H933 C949 0.930 . S
H934 C950 0.931 . S
C935 H923 0.929 . S
C935 C929 1.390 . S
C935 C932 1.386 . S
C936 C931 1.490 . S
C936 C938 1.395 . S
C936 C939 1.403 . S
H937 C943 0.930 . S
C938 H924 0.930 . S
C938 C936 1.395 . S
C938 C941 1.403 . S
C939 C936 1.403 . S
C939 C940 1.524 . S
C939 C943 1.400 . S
C940 H925 0.960 . S
C940 H926 0.960 . S
C940 H927 0.960 . S
C940 C939 1.524 . S
C941 C938 1.403 . S
C941 C942 1.392 . S
C941 C945 1.495 . S
C942 C941 1.392 . S
C942 C943 1.385 . S
C942 C944 1.478 . S
C943 H937 0.930 . S
C943 C939 1.400 . S
C943 C942 1.385 . S
C944 C942 1.478 . S
C944 C946 1.381 . S
C944 C950 1.383 . S
C945 C941 1.495 . S
C945 H951 0.959 . S
C945 H952 0.961 . S
C945 H953 0.960 . S
C946 C944 1.381 . S
C946 C947 1.394 . S
C946 H954 0.930 . S
C947 C946 1.394 . S
C947 C948 1.383 . S
C947 H955 0.929 . S
C948 C947 1.383 . S
C948 C949 1.377 . S
C949 H933 0.930 . S
C949 C948 1.377 . S
C949 C950 1.379 . S
C950 H934 0.931 . S
C950 C944 1.383 . S
C950 C949 1.379 . S
H951 C945 0.959 . S
H952 C945 0.961 . S
H953 C945 0.960 . S
H954 C946 0.930 . S
H955 C947 0.929 . S
H956 C964 0.929 . S
H957 C966 0.930 . S
H958 C968 0.930 . S
H959 C971 0.929 . S
H960 C974 0.930 . S
H961 C976 0.960 . S
H962 C976 0.960 . S
H963 C976 0.960 . S
C964 H956 0.929 . S
C964 C965 1.377 . S
C964 C966 1.384 . S
C965 C964 1.377 . S
C965 C971 1.390 . S
C966 H957 0.930 . S
C966 C964 1.384 . S
C966 C967 1.372 . S
C967 C966 1.372 . S
C967 C968 1.400 . S
C967 C972 1.490 . S
C968 H958 0.930 . S
C968 C967 1.400 . S
C968 C971 1.386 . S
H969 C985 0.930 . S
H970 C986 0.931 . S
C971 H959 0.929 . S
C971 C965 1.390 . S
C971 C968 1.386 . S
C972 C967 1.490 . S
C972 C974 1.395 . S
C972 C975 1.403 . S
H973 C979 0.930 . S
C974 H960 0.930 . S
C974 C972 1.395 . S
C974 C977 1.403 . S
C975 C972 1.403 . S
C975 C976 1.524 . S
C975 C979 1.400 . S
C976 H961 0.960 . S
C976 H962 0.960 . S
C976 H963 0.960 . S
C976 C975 1.524 . S
C977 C974 1.403 . S
C977 C978 1.392 . S
C977 C981 1.495 . S
C978 C977 1.392 . S
C978 C979 1.385 . S
C978 C980 1.478 . S
C979 H973 0.930 . S
C979 C975 1.400 . S
C979 C978 1.385 . S
C980 C978 1.478 . S
C980 C982 1.381 . S
C980 C986 1.383 . S
C981 C977 1.495 . S
C981 H987 0.959 . S
C981 H988 0.961 . S
C981 H989 0.960 . S
C982 C980 1.381 . S
C982 C983 1.394 . S
C982 H990 0.930 . S
C983 C982 1.394 . S
C983 C984 1.383 . S
C983 H991 0.929 . S
C984 C983 1.383 . S
C984 C985 1.377 . S
C985 H969 0.930 . S
C985 C984 1.377 . S
C985 C986 1.379 . S
C986 H970 0.931 . S
C986 C980 1.383 . S
C986 C985 1.379 . S
H987 C981 0.959 . S
H988 C981 0.961 . S
H989 C981 0.960 . S
H990 C982 0.930 . S
H991 C983 0.929 . S
H992 C1000 0.929 . S
H993 C1002 0.930 . S
H994 C1004 0.930 . S
H995 C1007 0.929 . S
H996 C1010 0.930 . S
H997 C1012 0.960 . S
H998 C1012 0.960 . S
H999 C1012 0.960 . S
C1000 H992 0.929 . S
C1000 C1001 1.377 . S
C1000 C1002 1.384 . S
C1001 C1000 1.377 . S
C1001 C1007 1.390 . S
C1002 H993 0.930 . S
C1002 C1000 1.384 . S
C1002 C1003 1.372 . S
C1003 C1002 1.372 . S
C1003 C1004 1.400 . S
C1003 C1008 1.490 . S
C1004 H994 0.930 . S
C1004 C1003 1.400 . S
C1004 C1007 1.386 . S
H1005 C1021 0.930 . S
H1006 C1022 0.931 . S
C1007 H995 0.929 . S
C1007 C1001 1.390 . S
C1007 C1004 1.386 . S
C1008 C1003 1.490 . S
C1008 C1010 1.395 . S
C1008 C1011 1.403 . S
H1009 C1015 0.930 . S
C1010 H996 0.930 . S
C1010 C1008 1.395 . S
C1010 C1013 1.403 1_455 S
C1011 C1008 1.403 . S
C1011 C1012 1.524 . S
C1011 C1015 1.400 1_455 S
C1012 H997 0.960 . S
C1012 H998 0.960 . S
C1012 H999 0.960 . S
C1012 C1011 1.524 . S
C1013 C1010 1.403 1_655 S
C1013 C1014 1.392 . S
C1013 C1017 1.495 . S
C1014 C1013 1.392 . S
C1014 C1015 1.385 . S
C1014 C1016 1.478 . S
C1015 H1009 0.930 . S
C1015 C1011 1.400 1_655 S
C1015 C1014 1.385 . S
C1016 C1014 1.478 . S
C1016 C1018 1.381 . S
C1016 C1022 1.383 . S
C1017 C1013 1.495 . S
C1017 H1023 0.959 . S
C1017 H1024 0.961 . S
C1017 H1025 0.960 . S
C1018 C1016 1.381 . S
C1018 C1019 1.394 . S
C1018 H1026 0.930 . S
C1019 C1018 1.394 . S
C1019 C1020 1.383 . S
C1019 H1027 0.929 . S
C1020 C1019 1.383 . S
C1020 C1021 1.377 . S
C1021 H1005 0.930 . S
C1021 C1020 1.377 . S
C1021 C1022 1.379 . S
C1022 H1006 0.931 . S
C1022 C1016 1.383 . S
C1022 C1021 1.379 . S
H1023 C1017 0.959 . S
H1024 C1017 0.961 . S
H1025 C1017 0.960 . S
H1026 C1018 0.930 . S
H1027 C1019 0.929 . S
H1028 C1036 0.929 . S
H1029 C1038 0.930 . S
H1030 C1040 0.930 . S
H1031 C1043 0.929 . S
H1032 C1046 0.930 . S
H1033 C1048 0.960 . S
H1034 C1048 0.960 . S
H1035 C1048 0.960 . S
C1036 H1028 0.929 . S
C1036 C1037 1.377 . S
C1036 C1038 1.384 . S
C1037 C1036 1.377 . S
C1037 C1043 1.390 . S
C1038 H1029 0.930 . S
C1038 C1036 1.384 . S
C1038 C1039 1.372 . S
C1039 C1038 1.372 . S
C1039 C1040 1.400 . S
C1039 C1044 1.490 . S
C1040 H1030 0.930 . S
C1040 C1039 1.400 . S
C1040 C1043 1.386 . S
H1041 C1057 0.930 . S
H1042 C1058 0.931 . S
C1043 H1031 0.929 . S
C1043 C1037 1.390 . S
C1043 C1040 1.386 . S
C1044 C1039 1.490 . S
C1044 C1046 1.395 . S
C1044 C1047 1.403 . S
H1045 C1051 0.930 . S
C1046 H1032 0.930 . S
C1046 C1044 1.395 . S
C1046 C1049 1.403 . S
C1047 C1044 1.403 . S
C1047 C1048 1.524 . S
C1047 C1051 1.400 . S
C1048 H1033 0.960 . S
C1048 H1034 0.960 . S
C1048 H1035 0.960 . S
C1048 C1047 1.524 . S
C1049 C1046 1.403 . S
C1049 C1050 1.392 . S
C1049 C1053 1.495 . S
C1050 C1049 1.392 . S
C1050 C1051 1.385 . S
C1050 C1052 1.478 . S
C1051 H1045 0.930 . S
C1051 C1047 1.400 . S
C1051 C1050 1.385 . S
C1052 C1050 1.478 . S
C1052 C1054 1.381 . S
C1052 C1058 1.383 . S
C1053 C1049 1.495 . S
C1053 H1059 0.959 . S
C1053 H1060 0.961 . S
C1053 H1061 0.960 . S
C1054 C1052 1.381 . S
C1054 C1055 1.394 . S
C1054 H1062 0.930 . S
C1055 C1054 1.394 . S
C1055 C1056 1.383 . S
C1055 H1063 0.929 . S
C1056 C1055 1.383 . S
C1056 C1057 1.377 . S
C1057 H1041 0.930 . S
C1057 C1056 1.377 . S
C1057 C1058 1.379 . S
C1058 H1042 0.931 . S
C1058 C1052 1.383 . S
C1058 C1057 1.379 . S
H1059 C1053 0.959 . S
H1060 C1053 0.961 . S
H1061 C1053 0.960 . S
H1062 C1054 0.930 . S
H1063 C1055 0.929 . S
H1064 C1072 0.929 . S
H1065 C1074 0.930 . S
H1066 C1076 0.930 . S
H1067 C1079 0.929 . S
H1068 C1082 0.930 . S
H1069 C1084 0.960 . S
H1070 C1084 0.960 . S
H1071 C1084 0.960 . S
C1072 H1064 0.929 . S
C1072 C1073 1.377 . S
C1072 C1074 1.384 . S
C1073 C1072 1.377 . S
C1073 C1079 1.390 . S
C1074 H1065 0.930 . S
C1074 C1072 1.384 . S
C1074 C1075 1.372 . S
C1075 C1074 1.372 . S
C1075 C1076 1.400 . S
C1075 C1080 1.490 . S
C1076 H1066 0.930 . S
C1076 C1075 1.400 . S
C1076 C1079 1.386 . S
H1077 C1093 0.930 . S
H1078 C1094 0.931 . S
C1079 H1067 0.929 . S
C1079 C1073 1.390 . S
C1079 C1076 1.386 . S
C1080 C1075 1.490 . S
C1080 C1082 1.395 . S
C1080 C1083 1.403 . S
H1081 C1087 0.930 . S
C1082 H1068 0.930 . S
C1082 C1080 1.395 . S
C1082 C1085 1.403 . S
C1083 C1080 1.403 . S
C1083 C1084 1.524 . S
C1083 C1087 1.400 . S
C1084 H1069 0.960 . S
C1084 H1070 0.960 . S
C1084 H1071 0.960 . S
C1084 C1083 1.524 . S
C1085 C1082 1.403 . S
C1085 C1086 1.392 . S
C1085 C1089 1.495 . S
C1086 C1085 1.392 . S
C1086 C1087 1.385 . S
C1086 C1088 1.478 . S
C1087 H1081 0.930 . S
C1087 C1083 1.400 . S
C1087 C1086 1.385 . S
C1088 C1086 1.478 . S
C1088 C1090 1.381 . S
C1088 C1094 1.383 . S
C1089 C1085 1.495 . S
C1089 H1095 0.959 . S
C1089 H1096 0.961 . S
C1089 H1097 0.960 . S
C1090 C1088 1.381 . S
C1090 C1091 1.394 . S
C1090 H1098 0.930 . S
C1091 C1090 1.394 . S
C1091 C1092 1.383 . S
C1091 H1099 0.929 . S
C1092 C1091 1.383 . S
C1092 C1093 1.377 . S
C1093 H1077 0.930 . S
C1093 C1092 1.377 . S
C1093 C1094 1.379 . S
C1094 H1078 0.931 . S
C1094 C1088 1.383 . S
C1094 C1093 1.379 . S
H1095 C1089 0.959 . S
H1096 C1089 0.961 . S
H1097 C1089 0.960 . S
H1098 C1090 0.930 . S
H1099 C1091 0.929 . S
H1100 C1108 0.929 . S
H1101 C1110 0.930 . S
H1102 C1112 0.930 . S
H1103 C1115 0.929 . S
H1104 C1118 0.930 . S
H1105 C1120 0.960 . S
H1106 C1120 0.960 . S
H1107 C1120 0.960 . S
C1108 H1100 0.929 . S
C1108 C1109 1.377 . S
C1108 C1110 1.384 . S
C1109 C1108 1.377 . S
C1109 C1115 1.390 . S
C1110 H1101 0.930 . S
C1110 C1108 1.384 . S
C1110 C1111 1.372 . S
C1111 C1110 1.372 . S
C1111 C1112 1.400 . S
C1111 C1116 1.490 . S
C1112 H1102 0.930 . S
C1112 C1111 1.400 . S
C1112 C1115 1.386 . S
H1113 C1129 0.930 . S
H1114 C1130 0.931 . S
C1115 H1103 0.929 . S
C1115 C1109 1.390 . S
C1115 C1112 1.386 . S
C1116 C1111 1.490 . S
C1116 C1118 1.395 . S
C1116 C1119 1.403 . S
H1117 C1123 0.930 . S
C1118 H1104 0.930 . S
C1118 C1116 1.395 . S
C1118 C1121 1.403 . S
C1119 C1116 1.403 . S
C1119 C1120 1.524 . S
C1119 C1123 1.400 . S
C1120 H1105 0.960 . S
C1120 H1106 0.960 . S
C1120 H1107 0.960 . S
C1120 C1119 1.524 . S
C1121 C1118 1.403 . S
C1121 C1122 1.392 . S
C1121 C1125 1.495 . S
C1122 C1121 1.392 . S
C1122 C1123 1.385 . S
C1122 C1124 1.478 . S
C1123 H1117 0.930 . S
C1123 C1119 1.400 . S
C1123 C1122 1.385 . S
C1124 C1122 1.478 . S
C1124 C1126 1.381 . S
C1124 C1130 1.383 . S
C1125 C1121 1.495 . S
C1125 H1131 0.959 . S
C1125 H1132 0.961 . S
C1125 H1133 0.960 . S
C1126 C1124 1.381 . S
C1126 C1127 1.394 . S
C1126 H1134 0.930 . S
C1127 C1126 1.394 . S
C1127 C1128 1.383 . S
C1127 H1135 0.929 . S
C1128 C1127 1.383 . S
C1128 C1129 1.377 . S
C1129 H1113 0.930 . S
C1129 C1128 1.377 . S
C1129 C1130 1.379 . S
C1130 H1114 0.931 . S
C1130 C1124 1.383 . S
C1130 C1129 1.379 . S
H1131 C1125 0.959 . S
H1132 C1125 0.961 . S
H1133 C1125 0.960 . S
H1134 C1126 0.930 . S
H1135 C1127 0.929 . S
H1136 C1144 0.929 . S
H1137 C1146 0.930 . S
H1138 C1148 0.930 . S
H1139 C1151 0.929 . S
H1140 C1154 0.930 . S
H1141 C1156 0.960 . S
H1142 C1156 0.960 . S
H1143 C1156 0.960 . S
C1144 H1136 0.929 . S
C1144 C1145 1.377 . S
C1144 C1146 1.384 . S
C1145 C1144 1.377 . S
C1145 C1151 1.390 . S
C1146 H1137 0.930 . S
C1146 C1144 1.384 . S
C1146 C1147 1.372 . S
C1147 C1146 1.372 . S
C1147 C1148 1.400 . S
C1147 C1152 1.490 . S
C1148 H1138 0.930 . S
C1148 C1147 1.400 . S
C1148 C1151 1.386 . S
H1149 C1165 0.930 . S
H1150 C1166 0.931 . S
C1151 H1139 0.929 . S
C1151 C1145 1.390 . S
C1151 C1148 1.386 . S
C1152 C1147 1.490 . S
C1152 C1154 1.395 . S
C1152 C1155 1.403 . S
H1153 C1159 0.930 . S
C1154 H1140 0.930 . S
C1154 C1152 1.395 . S
C1154 C1157 1.403 1_655 S
C1155 C1152 1.403 . S
C1155 C1156 1.524 . S
C1155 C1159 1.400 1_655 S
C1156 H1141 0.960 . S
C1156 H1142 0.960 . S
C1156 H1143 0.960 . S
C1156 C1155 1.524 . S
C1157 C1154 1.403 1_455 S
C1157 C1158 1.392 . S
C1157 C1161 1.495 . S
C1158 C1157 1.392 . S
C1158 C1159 1.385 . S
C1158 C1160 1.478 . S
C1159 H1153 0.930 . S
C1159 C1155 1.400 1_455 S
C1159 C1158 1.385 . S
C1160 C1158 1.478 . S
C1160 C1162 1.381 . S
C1160 C1166 1.383 . S
C1161 C1157 1.495 . S
C1161 H1167 0.959 . S
C1161 H1168 0.961 . S
C1161 H1169 0.960 . S
C1162 C1160 1.381 . S
C1162 C1163 1.394 . S
C1162 H1170 0.930 . S
C1163 C1162 1.394 . S
C1163 C1164 1.383 . S
C1163 H1171 0.929 . S
C1164 C1163 1.383 . S
C1164 C1165 1.377 . S
C1165 H1149 0.930 . S
C1165 C1164 1.377 . S
C1165 C1166 1.379 . S
C1166 H1150 0.931 . S
C1166 C1160 1.383 . S
C1166 C1165 1.379 . S
H1167 C1161 0.959 . S
H1168 C1161 0.961 . S
H1169 C1161 0.960 . S
H1170 C1162 0.930 . S
H1171 C1163 0.929 . S
H1172 C1180 0.929 . S
H1173 C1182 0.930 . S
H1174 C1184 0.930 . S
H1175 C1187 0.929 . S
H1176 C1190 0.930 . S
H1177 C1192 0.960 . S
H1178 C1192 0.960 . S
H1179 C1192 0.960 . S
C1180 H1172 0.929 . S
C1180 C1181 1.377 . S
C1180 C1182 1.384 . S
C1181 C1180 1.377 . S
C1181 C1187 1.390 . S
C1182 H1173 0.930 . S
C1182 C1180 1.384 . S
C1182 C1183 1.372 . S
C1183 C1182 1.372 . S
C1183 C1184 1.400 . S
C1183 C1188 1.490 . S
C1184 H1174 0.930 . S
C1184 C1183 1.400 . S
C1184 C1187 1.386 . S
H1185 C1201 0.930 . S
H1186 C1202 0.931 . S
C1187 H1175 0.929 . S
C1187 C1181 1.390 . S
C1187 C1184 1.386 . S
C1188 C1183 1.490 . S
C1188 C1190 1.395 . S
C1188 C1191 1.403 . S
H1189 C1195 0.930 . S
C1190 H1176 0.930 . S
C1190 C1188 1.395 . S
C1190 C1193 1.403 . S
C1191 C1188 1.403 . S
C1191 C1192 1.524 . S
C1191 C1195 1.400 . S
C1192 H1177 0.960 . S
C1192 H1178 0.960 . S
C1192 H1179 0.960 . S
C1192 C1191 1.524 . S
C1193 C1190 1.403 . S
C1193 C1194 1.392 . S
C1193 C1197 1.495 . S
C1194 C1193 1.392 . S
C1194 C1195 1.385 . S
C1194 C1196 1.478 . S
C1195 H1189 0.930 . S
C1195 C1191 1.400 . S
C1195 C1194 1.385 . S
C1196 C1194 1.478 . S
C1196 C1198 1.381 . S
C1196 C1202 1.383 . S
C1197 C1193 1.495 . S
C1197 H1203 0.959 . S
C1197 H1204 0.961 . S
C1197 H1205 0.960 . S
C1198 C1196 1.381 . S
C1198 C1199 1.394 . S
C1198 H1206 0.930 . S
C1199 C1198 1.394 . S
C1199 C1200 1.383 . S
C1199 H1207 0.929 . S
C1200 C1199 1.383 . S
C1200 C1201 1.377 . S
C1201 H1185 0.930 . S
C1201 C1200 1.377 . S
C1201 C1202 1.379 . S
C1202 H1186 0.931 . S
C1202 C1196 1.383 . S
C1202 C1201 1.379 . S
H1203 C1197 0.959 . S
H1204 C1197 0.961 . S
H1205 C1197 0.960 . S
H1206 C1198 0.930 . S
H1207 C1199 0.929 . S
H1208 C1216 0.929 . S
H1209 C1218 0.930 . S
H1210 C1220 0.930 . S
H1211 C1223 0.929 . S
H1212 C1226 0.930 . S
H1213 C1228 0.960 . S
H1214 C1228 0.960 . S
H1215 C1228 0.960 . S
C1216 H1208 0.929 . S
C1216 C1217 1.377 . S
C1216 C1218 1.384 . S
C1217 C1216 1.377 . S
C1217 C1223 1.390 . S
C1218 H1209 0.930 . S
C1218 C1216 1.384 . S
C1218 C1219 1.372 . S
C1219 C1218 1.372 . S
C1219 C1220 1.400 . S
C1219 C1224 1.490 . S
C1220 H1210 0.930 . S
C1220 C1219 1.400 . S
C1220 C1223 1.386 . S
H1221 C1237 0.930 . S
H1222 C1238 0.931 . S
C1223 H1211 0.929 . S
C1223 C1217 1.390 . S
C1223 C1220 1.386 . S
C1224 C1219 1.490 . S
C1224 C1226 1.395 . S
C1224 C1227 1.403 . S
H1225 C1231 0.930 . S
C1226 H1212 0.930 . S
C1226 C1224 1.395 . S
C1226 C1229 1.403 . S
C1227 C1224 1.403 . S
C1227 C1228 1.524 . S
C1227 C1231 1.400 . S
C1228 H1213 0.960 . S
C1228 H1214 0.960 . S
C1228 H1215 0.960 . S
C1228 C1227 1.524 . S
C1229 C1226 1.403 . S
C1229 C1230 1.392 . S
C1229 C1233 1.495 . S
C1230 C1229 1.392 . S
C1230 C1231 1.385 . S
C1230 C1232 1.478 . S
C1231 H1225 0.930 . S
C1231 C1227 1.400 . S
C1231 C1230 1.385 . S
C1232 C1230 1.478 . S
C1232 C1234 1.381 . S
C1232 C1238 1.383 . S
C1233 C1229 1.495 . S
C1233 H1239 0.959 . S
C1233 H1240 0.961 . S
C1233 H1241 0.960 . S
C1234 C1232 1.381 . S
C1234 C1235 1.394 . S
C1234 H1242 0.930 . S
C1235 C1234 1.394 . S
C1235 C1236 1.383 . S
C1235 H1243 0.929 . S
C1236 C1235 1.383 . S
C1236 C1237 1.377 . S
C1237 H1221 0.930 . S
C1237 C1236 1.377 . S
C1237 C1238 1.379 . S
C1238 H1222 0.931 . S
C1238 C1232 1.383 . S
C1238 C1237 1.379 . S
H1239 C1233 0.959 . S
H1240 C1233 0.961 . S
H1241 C1233 0.960 . S
H1242 C1234 0.930 . S
H1243 C1235 0.929 . S
H1244 C1252 0.929 . S
H1245 C1254 0.930 . S
H1246 C1256 0.930 . S
H1247 C1259 0.929 . S
H1248 C1262 0.930 . S
H1249 C1264 0.960 . S
H1250 C1264 0.960 . S
H1251 C1264 0.960 . S
C1252 H1244 0.929 . S
C1252 C1253 1.377 . S
C1252 C1254 1.384 . S
C1253 C1252 1.377 . S
C1253 C1259 1.390 . S
C1254 H1245 0.930 . S
C1254 C1252 1.384 . S
C1254 C1255 1.372 . S
C1255 C1254 1.372 . S
C1255 C1256 1.400 . S
C1255 C1260 1.490 . S
C1256 H1246 0.930 . S
C1256 C1255 1.400 . S
C1256 C1259 1.386 . S
H1257 C1273 0.930 . S
H1258 C1274 0.931 . S
C1259 H1247 0.929 . S
C1259 C1253 1.390 . S
C1259 C1256 1.386 . S
C1260 C1255 1.490 . S
C1260 C1262 1.395 . S
C1260 C1263 1.403 . S
H1261 C1267 0.930 . S
C1262 H1248 0.930 . S
C1262 C1260 1.395 . S
C1262 C1265 1.403 . S
C1263 C1260 1.403 . S
C1263 C1264 1.524 . S
C1263 C1267 1.400 . S
C1264 H1249 0.960 . S
C1264 H1250 0.960 . S
C1264 H1251 0.960 . S
C1264 C1263 1.524 . S
C1265 C1262 1.403 . S
C1265 C1266 1.392 . S
C1265 C1269 1.495 . S
C1266 C1265 1.392 . S
C1266 C1267 1.385 . S
C1266 C1268 1.478 . S
C1267 H1261 0.930 . S
C1267 C1263 1.400 . S
C1267 C1266 1.385 . S
C1268 C1266 1.478 . S
C1268 C1270 1.381 . S
C1268 C1274 1.383 . S
C1269 C1265 1.495 . S
C1269 H1275 0.959 . S
C1269 H1276 0.961 . S
C1269 H1277 0.960 . S
C1270 C1268 1.381 . S
C1270 C1271 1.394 . S
C1270 H1278 0.930 . S
C1271 C1270 1.394 . S
C1271 C1272 1.383 . S
C1271 H1279 0.929 . S
C1272 C1271 1.383 . S
C1272 C1273 1.377 . S
C1273 H1257 0.930 . S
C1273 C1272 1.377 . S
C1273 C1274 1.379 . S
C1274 H1258 0.931 . S
C1274 C1268 1.383 . S
C1274 C1273 1.379 . S
H1275 C1269 0.959 . S
H1276 C1269 0.961 . S
H1277 C1269 0.960 . S
H1278 C1270 0.930 . S
H1279 C1271 0.929 . S
H1280 C1288 0.929 . S
H1281 C1290 0.930 . S
H1282 C1292 0.930 . S
H1283 C1295 0.929 . S
H1284 C1298 0.930 . S
H1285 C1300 0.960 . S
H1286 C1300 0.960 . S
H1287 C1300 0.960 . S
C1288 H1280 0.929 . S
C1288 C1289 1.377 . S
C1288 C1290 1.384 . S
C1289 C1288 1.377 . S
C1289 C1295 1.390 . S
C1290 H1281 0.930 . S
C1290 C1288 1.384 . S
C1290 C1291 1.372 . S
C1291 C1290 1.372 . S
C1291 C1292 1.400 . S
C1291 C1296 1.490 . S
C1292 H1282 0.930 . S
C1292 C1291 1.400 . S
C1292 C1295 1.386 . S
H1293 C1309 0.930 . S
H1294 C1310 0.931 . S
C1295 H1283 0.929 . S
C1295 C1289 1.390 . S
C1295 C1292 1.386 . S
C1296 C1291 1.490 . S
C1296 C1298 1.395 . S
C1296 C1299 1.403 . S
H1297 C1303 0.930 . S
C1298 H1284 0.930 . S
C1298 C1296 1.395 . S
C1298 C1301 1.403 . S
C1299 C1296 1.403 . S
C1299 C1300 1.524 . S
C1299 C1303 1.400 . S
C1300 H1285 0.960 . S
C1300 H1286 0.960 . S
C1300 H1287 0.960 . S
C1300 C1299 1.524 . S
C1301 C1298 1.403 . S
C1301 C1302 1.392 . S
C1301 C1305 1.495 . S
C1302 C1301 1.392 . S
C1302 C1303 1.385 . S
C1302 C1304 1.478 . S
C1303 H1297 0.930 . S
C1303 C1299 1.400 . S
C1303 C1302 1.385 . S
C1304 C1302 1.478 . S
C1304 C1306 1.381 . S
C1304 C1310 1.383 . S
C1305 C1301 1.495 . S
C1305 H1311 0.959 . S
C1305 H1312 0.961 . S
C1305 H1313 0.960 . S
C1306 C1304 1.381 . S
C1306 C1307 1.394 . S
C1306 H1314 0.930 . S
C1307 C1306 1.394 . S
C1307 C1308 1.383 . S
C1307 H1315 0.929 . S
C1308 C1307 1.383 . S
C1308 C1309 1.377 . S
C1309 H1293 0.930 . S
C1309 C1308 1.377 . S
C1309 C1310 1.379 . S
C1310 H1294 0.931 . S
C1310 C1304 1.383 . S
C1310 C1309 1.379 . S
H1311 C1305 0.959 . S
H1312 C1305 0.961 . S
H1313 C1305 0.960 . S
H1314 C1306 0.930 . S
H1315 C1307 0.929 . S
H1316 C1324 0.929 . S
H1317 C1326 0.930 . S
H1318 C1328 0.930 . S
H1319 C1331 0.929 . S
H1320 C1334 0.930 . S
H1321 C1336 0.960 . S
H1322 C1336 0.960 . S
H1323 C1336 0.960 . S
C1324 H1316 0.929 . S
C1324 C1325 1.377 . S
C1324 C1326 1.384 . S
C1325 C1324 1.377 . S
C1325 C1331 1.390 . S
C1326 H1317 0.930 . S
C1326 C1324 1.384 . S
C1326 C1327 1.372 . S
C1327 C1326 1.372 . S
C1327 C1328 1.400 . S
C1327 C1332 1.490 . S
C1328 H1318 0.930 . S
C1328 C1327 1.400 . S
C1328 C1331 1.386 . S
H1329 C1345 0.930 . S
H1330 C1346 0.931 . S
C1331 H1319 0.929 . S
C1331 C1325 1.390 . S
C1331 C1328 1.386 . S
C1332 C1327 1.490 . S
C1332 C1334 1.395 . S
C1332 C1335 1.403 . S
H1333 C1339 0.930 . S
C1334 H1320 0.930 . S
C1334 C1332 1.395 . S
C1334 C1337 1.403 . S
C1335 C1332 1.403 . S
C1335 C1336 1.524 . S
C1335 C1339 1.400 . S
C1336 H1321 0.960 . S
C1336 H1322 0.960 . S
C1336 H1323 0.960 . S
C1336 C1335 1.524 . S
C1337 C1334 1.403 . S
C1337 C1338 1.392 . S
C1337 C1341 1.495 . S
C1338 C1337 1.392 . S
C1338 C1339 1.385 . S
C1338 C1340 1.478 . S
C1339 H1333 0.930 . S
C1339 C1335 1.400 . S
C1339 C1338 1.385 . S
C1340 C1338 1.478 . S
C1340 C1342 1.381 . S
C1340 C1346 1.383 . S
C1341 C1337 1.495 . S
C1341 H1347 0.959 . S
C1341 H1348 0.961 . S
C1341 H1349 0.960 . S
C1342 C1340 1.381 . S
C1342 C1343 1.394 . S
C1342 H1350 0.930 . S
C1343 C1342 1.394 . S
C1343 C1344 1.383 . S
C1343 H1351 0.929 . S
C1344 C1343 1.383 . S
C1344 C1345 1.377 . S
C1345 H1329 0.930 . S
C1345 C1344 1.377 . S
C1345 C1346 1.379 . S
C1346 H1330 0.931 . S
C1346 C1340 1.383 . S
C1346 C1345 1.379 . S
H1347 C1341 0.959 . S
H1348 C1341 0.961 . S
H1349 C1341 0.960 . S
H1350 C1342 0.930 . S
H1351 C1343 0.929 . S
H1352 C1360 0.929 . S
H1353 C1362 0.930 . S
H1354 C1364 0.930 . S
H1355 C1367 0.929 . S
H1356 C1370 0.930 . S
H1357 C1372 0.960 . S
H1358 C1372 0.960 . S
H1359 C1372 0.960 . S
C1360 H1352 0.929 . S
C1360 C1361 1.377 . S
C1360 C1362 1.384 . S
C1361 C1360 1.377 . S
C1361 C1367 1.390 . S
C1362 H1353 0.930 . S
C1362 C1360 1.384 . S
C1362 C1363 1.372 . S
C1363 C1362 1.372 . S
C1363 C1364 1.400 . S
C1363 C1368 1.490 . S
C1364 H1354 0.930 . S
C1364 C1363 1.400 . S
C1364 C1367 1.386 . S
H1365 C1381 0.930 . S
H1366 C1382 0.931 . S
C1367 H1355 0.929 . S
C1367 C1361 1.390 . S
C1367 C1364 1.386 . S
C1368 C1363 1.490 . S
C1368 C1370 1.395 . S
C1368 C1371 1.403 . S
H1369 C1375 0.930 . S
C1370 H1356 0.930 . S
C1370 C1368 1.395 . S
C1370 C1373 1.403 . S
C1371 C1368 1.403 . S
C1371 C1372 1.524 . S
C1371 C1375 1.400 . S
C1372 H1357 0.960 . S
C1372 H1358 0.960 . S
C1372 H1359 0.960 . S
C1372 C1371 1.524 . S
C1373 C1370 1.403 . S
C1373 C1374 1.392 . S
C1373 C1377 1.495 . S
C1374 C1373 1.392 . S
C1374 C1375 1.385 . S
C1374 C1376 1.478 . S
C1375 H1369 0.930 . S
C1375 C1371 1.400 . S
C1375 C1374 1.385 . S
C1376 C1374 1.478 . S
C1376 C1378 1.381 . S
C1376 C1382 1.383 . S
C1377 C1373 1.495 . S
C1377 H1383 0.959 . S
C1377 H1384 0.961 . S
C1377 H1385 0.960 . S
C1378 C1376 1.381 . S
C1378 C1379 1.394 . S
C1378 H1386 0.930 . S
C1379 C1378 1.394 . S
C1379 C1380 1.383 . S
C1379 H1387 0.929 . S
C1380 C1379 1.383 . S
C1380 C1381 1.377 . S
C1381 H1365 0.930 . S
C1381 C1380 1.377 . S
C1381 C1382 1.379 . S
C1382 H1366 0.931 . S
C1382 C1376 1.383 . S
C1382 C1381 1.379 . S
H1383 C1377 0.959 . S
H1384 C1377 0.961 . S
H1385 C1377 0.960 . S
H1386 C1378 0.930 . S
H1387 C1379 0.929 . S
H1388 C1396 0.929 . S
H1389 C1398 0.930 . S
H1390 C1400 0.930 . S
H1391 C1403 0.929 . S
H1392 C1406 0.930 . S
H1393 C1408 0.960 . S
H1394 C1408 0.960 . S
H1395 C1408 0.960 . S
C1396 H1388 0.929 . S
C1396 C1397 1.377 . S
C1396 C1398 1.384 . S
C1397 C1396 1.377 . S
C1397 C1403 1.390 . S
C1398 H1389 0.930 . S
C1398 C1396 1.384 . S
C1398 C1399 1.372 . S
C1399 C1398 1.372 . S
C1399 C1400 1.400 . S
C1399 C1404 1.490 . S
C1400 H1390 0.930 . S
C1400 C1399 1.400 . S
C1400 C1403 1.386 . S
H1401 C1417 0.930 . S
H1402 C1418 0.931 . S
C1403 H1391 0.929 . S
C1403 C1397 1.390 . S
C1403 C1400 1.386 . S
C1404 C1399 1.490 . S
C1404 C1406 1.395 . S
C1404 C1407 1.403 . S
H1405 C1411 0.930 . S
C1406 H1392 0.930 . S
C1406 C1404 1.395 . S
C1406 C1409 1.403 . S
C1407 C1404 1.403 . S
C1407 C1408 1.524 . S
C1407 C1411 1.400 . S
C1408 H1393 0.960 . S
C1408 H1394 0.960 . S
C1408 H1395 0.960 . S
C1408 C1407 1.524 . S
C1409 C1406 1.403 . S
C1409 C1410 1.392 . S
C1409 C1413 1.495 . S
C1410 C1409 1.392 . S
C1410 C1411 1.385 . S
C1410 C1412 1.478 . S
C1411 H1405 0.930 . S
C1411 C1407 1.400 . S
C1411 C1410 1.385 . S
C1412 C1410 1.478 . S
C1412 C1414 1.381 . S
C1412 C1418 1.383 . S
C1413 C1409 1.495 . S
C1413 H1419 0.959 . S
C1413 H1420 0.961 . S
C1413 H1421 0.960 . S
C1414 C1412 1.381 . S
C1414 C1415 1.394 . S
C1414 H1422 0.930 . S
C1415 C1414 1.394 . S
C1415 C1416 1.383 . S
C1415 H1423 0.929 . S
C1416 C1415 1.383 . S
C1416 C1417 1.377 . S
C1417 H1401 0.930 . S
C1417 C1416 1.377 . S
C1417 C1418 1.379 . S
C1418 H1402 0.931 . S
C1418 C1412 1.383 . S
C1418 C1417 1.379 . S
H1419 C1413 0.959 . S
H1420 C1413 0.961 . S
H1421 C1413 0.960 . S
H1422 C1414 0.930 . S
H1423 C1415 0.929 . S
H1424 C1432 0.929 . S
H1425 C1434 0.930 . S
H1426 C1436 0.930 . S
H1427 C1439 0.929 . S
H1428 C1442 0.930 . S
H1429 C1444 0.960 . S
H1430 C1444 0.960 . S
H1431 C1444 0.960 . S
C1432 H1424 0.929 . S
C1432 C1433 1.377 . S
C1432 C1434 1.384 . S
C1433 C1432 1.377 . S
C1433 C1439 1.390 . S
C1434 H1425 0.930 . S
C1434 C1432 1.384 . S
C1434 C1435 1.372 . S
C1435 C1434 1.372 . S
C1435 C1436 1.400 . S
C1435 C1440 1.490 . S
C1436 H1426 0.930 . S
C1436 C1435 1.400 . S
C1436 C1439 1.386 . S
H1437 C1453 0.930 . S
H1438 C1454 0.931 . S
C1439 H1427 0.929 . S
C1439 C1433 1.390 . S
C1439 C1436 1.386 . S
C1440 C1435 1.490 . S
C1440 C1442 1.395 . S
C1440 C1443 1.403 . S
H1441 C1447 0.930 . S
C1442 H1428 0.930 . S
C1442 C1440 1.395 . S
C1442 C1445 1.403 . S
C1443 C1440 1.403 . S
C1443 C1444 1.524 . S
C1443 C1447 1.400 . S
C1444 H1429 0.960 . S
C1444 H1430 0.960 . S
C1444 H1431 0.960 . S
C1444 C1443 1.524 . S
C1445 C1442 1.403 . S
C1445 C1446 1.392 . S
C1445 C1449 1.495 . S
C1446 C1445 1.392 . S
C1446 C1447 1.385 . S
C1446 C1448 1.478 . S
C1447 H1441 0.930 . S
C1447 C1443 1.400 . S
C1447 C1446 1.385 . S
C1448 C1446 1.478 . S
C1448 C1450 1.381 . S
C1448 C1454 1.383 . S
C1449 C1445 1.495 . S
C1449 H1455 0.959 . S
C1449 H1456 0.961 . S
C1449 H1457 0.960 . S
C1450 C1448 1.381 . S
C1450 C1451 1.394 . S
C1450 H1458 0.930 . S
C1451 C1450 1.394 . S
C1451 C1452 1.383 . S
C1451 H1459 0.929 . S
C1452 C1451 1.383 . S
C1452 C1453 1.377 . S
C1453 H1437 0.930 . S
C1453 C1452 1.377 . S
C1453 C1454 1.379 . S
C1454 H1438 0.931 . S
C1454 C1448 1.383 . S
C1454 C1453 1.379 . S
H1455 C1449 0.959 . S
H1456 C1449 0.961 . S
H1457 C1449 0.960 . S
H1458 C1450 0.930 . S
H1459 C1451 0.929 . S
H1460 C1468 0.929 . S
H1461 C1470 0.930 . S
H1462 C1472 0.930 . S
H1463 C1475 0.929 . S
H1464 C1478 0.930 . S
H1465 C1480 0.960 . S
H1466 C1480 0.960 . S
H1467 C1480 0.960 . S
C1468 H1460 0.929 . S
C1468 C1469 1.377 . S
C1468 C1470 1.384 . S
C1469 C1468 1.377 . S
C1469 C1475 1.390 . S
C1470 H1461 0.930 . S
C1470 C1468 1.384 . S
C1470 C1471 1.372 . S
C1471 C1470 1.372 . S
C1471 C1472 1.400 . S
C1471 C1476 1.490 . S
C1472 H1462 0.930 . S
C1472 C1471 1.400 . S
C1472 C1475 1.386 . S
H1473 C1489 0.930 . S
H1474 C1490 0.931 . S
C1475 H1463 0.929 . S
C1475 C1469 1.390 . S
C1475 C1472 1.386 . S
C1476 C1471 1.490 . S
C1476 C1478 1.395 . S
C1476 C1479 1.403 . S
H1477 C1483 0.930 . S
C1478 H1464 0.930 . S
C1478 C1476 1.395 . S
C1478 C1481 1.403 1_655 S
C1479 C1476 1.403 . S
C1479 C1480 1.524 . S
C1479 C1483 1.400 1_655 S
C1480 H1465 0.960 . S
C1480 H1466 0.960 . S
C1480 H1467 0.960 . S
C1480 C1479 1.524 . S
C1481 C1478 1.403 1_455 S
C1481 C1482 1.392 . S
C1481 C1485 1.495 . S
C1482 C1481 1.392 . S
C1482 C1483 1.385 . S
C1482 C1484 1.478 . S
C1483 H1477 0.930 . S
C1483 C1479 1.400 1_455 S
C1483 C1482 1.385 . S
C1484 C1482 1.478 . S
C1484 C1486 1.381 . S
C1484 C1490 1.383 . S
C1485 C1481 1.495 . S
C1485 H1491 0.959 . S
C1485 H1492 0.961 . S
C1485 H1493 0.960 . S
C1486 C1484 1.381 . S
C1486 C1487 1.394 . S
C1486 H1494 0.930 . S
C1487 C1486 1.394 . S
C1487 C1488 1.383 . S
C1487 H1495 0.929 . S
C1488 C1487 1.383 . S
C1488 C1489 1.377 . S
C1489 H1473 0.930 . S
C1489 C1488 1.377 . S
C1489 C1490 1.379 . S
C1490 H1474 0.931 . S
C1490 C1484 1.383 . S
C1490 C1489 1.379 . S
H1491 C1485 0.959 . S
H1492 C1485 0.961 . S
H1493 C1485 0.960 . S
H1494 C1486 0.930 . S
H1495 C1487 0.929 . S
H1496 C1504 0.929 . S
H1497 C1506 0.930 . S
H1498 C1508 0.930 . S
H1499 C1511 0.929 . S
H1500 C1514 0.930 . S
H1501 C1516 0.960 . S
H1502 C1516 0.960 . S
H1503 C1516 0.960 . S
C1504 H1496 0.929 . S
C1504 C1505 1.377 . S
C1504 C1506 1.384 . S
C1505 C1504 1.377 . S
C1505 C1511 1.390 . S
C1506 H1497 0.930 . S
C1506 C1504 1.384 . S
C1506 C1507 1.372 . S
C1507 C1506 1.372 . S
C1507 C1508 1.400 . S
C1507 C1512 1.490 . S
C1508 H1498 0.930 . S
C1508 C1507 1.400 . S
C1508 C1511 1.386 . S
H1509 C1525 0.930 . S
H1510 C1526 0.931 . S
C1511 H1499 0.929 . S
C1511 C1505 1.390 . S
C1511 C1508 1.386 . S
C1512 C1507 1.490 . S
C1512 C1514 1.395 . S
C1512 C1515 1.403 . S
H1513 C1519 0.930 . S
C1514 H1500 0.930 . S
C1514 C1512 1.395 . S
C1514 C1517 1.403 . S
C1515 C1512 1.403 . S
C1515 C1516 1.524 . S
C1515 C1519 1.400 . S
C1516 H1501 0.960 . S
C1516 H1502 0.960 . S
C1516 H1503 0.960 . S
C1516 C1515 1.524 . S
C1517 C1514 1.403 . S
C1517 C1518 1.392 . S
C1517 C1521 1.495 . S
C1518 C1517 1.392 . S
C1518 C1519 1.385 . S
C1518 C1520 1.478 . S
C1519 H1513 0.930 . S
C1519 C1515 1.400 . S
C1519 C1518 1.385 . S
C1520 C1518 1.478 . S
C1520 C1522 1.381 . S
C1520 C1526 1.383 . S
C1521 C1517 1.495 . S
C1521 H1527 0.959 . S
C1521 H1528 0.961 . S
C1521 H1529 0.960 . S
C1522 C1520 1.381 . S
C1522 C1523 1.394 . S
C1522 H1530 0.930 . S
C1523 C1522 1.394 . S
C1523 C1524 1.383 . S
C1523 H1531 0.929 . S
C1524 C1523 1.383 . S
C1524 C1525 1.377 . S
C1525 H1509 0.930 . S
C1525 C1524 1.377 . S
C1525 C1526 1.379 . S
C1526 H1510 0.931 . S
C1526 C1520 1.383 . S
C1526 C1525 1.379 . S
H1527 C1521 0.959 . S
H1528 C1521 0.961 . S
H1529 C1521 0.960 . S
H1530 C1522 0.930 . S
H1531 C1523 0.929 . S
H1532 C1540 0.929 . S
H1533 C1542 0.930 . S
H1534 C1544 0.930 . S
H1535 C1547 0.929 . S
H1536 C1550 0.930 . S
H1537 C1552 0.960 . S
H1538 C1552 0.960 . S
H1539 C1552 0.960 . S
C1540 H1532 0.929 . S
C1540 C1541 1.377 . S
C1540 C1542 1.384 . S
C1541 C1540 1.377 . S
C1541 C1547 1.390 . S
C1542 H1533 0.930 . S
C1542 C1540 1.384 . S
C1542 C1543 1.372 . S
C1543 C1542 1.372 . S
C1543 C1544 1.400 . S
C1543 C1548 1.490 . S
C1544 H1534 0.930 . S
C1544 C1543 1.400 . S
C1544 C1547 1.386 . S
H1545 C1561 0.930 . S
H1546 C1562 0.931 . S
C1547 H1535 0.929 . S
C1547 C1541 1.390 . S
C1547 C1544 1.386 . S
C1548 C1543 1.490 . S
C1548 C1550 1.395 . S
C1548 C1551 1.403 . S
H1549 C1555 0.930 . S
C1550 H1536 0.930 . S
C1550 C1548 1.395 . S
C1550 C1553 1.403 1_455 S
C1551 C1548 1.403 . S
C1551 C1552 1.524 . S
C1551 C1555 1.400 1_455 S
C1552 H1537 0.960 . S
C1552 H1538 0.960 . S
C1552 H1539 0.960 . S
C1552 C1551 1.524 . S
C1553 C1550 1.403 1_655 S
C1553 C1554 1.392 . S
C1553 C1557 1.495 . S
C1554 C1553 1.392 . S
C1554 C1555 1.385 . S
C1554 C1556 1.478 . S
C1555 H1549 0.930 . S
C1555 C1551 1.400 1_655 S
C1555 C1554 1.385 . S
C1556 C1554 1.478 . S
C1556 C1558 1.381 . S
C1556 C1562 1.383 . S
C1557 C1553 1.495 . S
C1557 H1563 0.959 . S
C1557 H1564 0.961 . S
C1557 H1565 0.960 . S
C1558 C1556 1.381 . S
C1558 C1559 1.394 . S
C1558 H1566 0.930 . S
C1559 C1558 1.394 . S
C1559 C1560 1.383 . S
C1559 H1567 0.929 . S
C1560 C1559 1.383 . S
C1560 C1561 1.377 . S
C1561 H1545 0.930 . S
C1561 C1560 1.377 . S
C1561 C1562 1.379 . S
C1562 H1546 0.931 . S
C1562 C1556 1.383 . S
C1562 C1561 1.379 . S
H1563 C1557 0.959 . S
H1564 C1557 0.961 . S
H1565 C1557 0.960 . S
H1566 C1558 0.930 . S
H1567 C1559 0.929 . S
H1568 C1576 0.929 . S
H1569 C1578 0.930 . S
H1570 C1580 0.930 . S
H1571 C1583 0.929 . S
H1572 C1586 0.930 . S
H1573 C1588 0.960 . S
H1574 C1588 0.960 . S
H1575 C1588 0.960 . S
C1576 H1568 0.929 . S
C1576 C1577 1.377 . S
C1576 C1578 1.384 . S
C1577 C1576 1.377 . S
C1577 C1583 1.390 . S
C1578 H1569 0.930 . S
C1578 C1576 1.384 . S
C1578 C1579 1.372 . S
C1579 C1578 1.372 . S
C1579 C1580 1.400 . S
C1579 C1584 1.490 . S
C1580 H1570 0.930 . S
C1580 C1579 1.400 . S
C1580 C1583 1.386 . S
H1581 C1597 0.930 . S
H1582 C1598 0.931 . S
C1583 H1571 0.929 . S
C1583 C1577 1.390 . S
C1583 C1580 1.386 . S
C1584 C1579 1.490 . S
C1584 C1586 1.395 . S
C1584 C1587 1.403 . S
H1585 C1591 0.930 . S
C1586 H1572 0.930 . S
C1586 C1584 1.395 . S
C1586 C1589 1.403 1_556 S
C1587 C1584 1.403 . S
C1587 C1588 1.524 . S
C1587 C1591 1.400 1_556 S
C1588 H1573 0.960 . S
C1588 H1574 0.960 . S
C1588 H1575 0.960 . S
C1588 C1587 1.524 . S
C1589 C1586 1.403 1_554 S
C1589 C1590 1.392 . S
C1589 C1593 1.495 . S
C1590 C1589 1.392 . S
C1590 C1591 1.385 . S
C1590 C1592 1.478 . S
C1591 H1585 0.930 . S
C1591 C1587 1.400 1_554 S
C1591 C1590 1.385 . S
C1592 C1590 1.478 . S
C1592 C1594 1.381 . S
C1592 C1598 1.383 . S
C1593 C1589 1.495 . S
C1593 H1599 0.958 . S
C1593 H1600 0.961 . S
C1593 H1601 0.960 . S
C1594 C1592 1.381 . S
C1594 C1595 1.394 . S
C1594 H1602 0.930 . S
C1595 C1594 1.394 . S
C1595 C1596 1.383 . S
C1595 H1603 0.929 . S
C1596 C1595 1.383 . S
C1596 C1597 1.377 . S
C1597 H1581 0.930 . S
C1597 C1596 1.377 . S
C1597 C1598 1.379 . S
C1598 H1582 0.931 . S
C1598 C1592 1.383 . S
C1598 C1597 1.379 . S
H1599 C1593 0.958 . S
H1600 C1593 0.961 . S
H1601 C1593 0.960 . S
H1602 C1594 0.930 . S
H1603 C1595 0.929 . S
H1604 C1612 0.929 . S
H1605 C1614 0.930 . S
H1606 C1616 0.930 . S
H1607 C1619 0.929 . S
H1608 C1622 0.930 . S
H1609 C1624 0.960 . S
H1610 C1624 0.960 . S
H1611 C1624 0.960 . S
C1612 H1604 0.929 . S
C1612 C1613 1.377 . S
C1612 C1614 1.384 . S
C1613 C1612 1.377 . S
C1613 C1619 1.390 . S
C1614 H1605 0.930 . S
C1614 C1612 1.384 . S
C1614 C1615 1.372 . S
C1615 C1614 1.372 . S
C1615 C1616 1.400 . S
C1615 C1620 1.490 . S
C1616 H1606 0.930 . S
C1616 C1615 1.400 . S
C1616 C1619 1.386 . S
H1617 C1633 0.930 . S
H1618 C1634 0.931 . S
C1619 H1607 0.929 . S
C1619 C1613 1.390 . S
C1619 C1616 1.386 . S
C1620 C1615 1.490 . S
C1620 C1622 1.395 . S
C1620 C1623 1.403 . S
H1621 C1627 0.930 . S
C1622 H1608 0.930 . S
C1622 C1620 1.395 . S
C1622 C1625 1.403 . S
C1623 C1620 1.403 . S
C1623 C1624 1.524 . S
C1623 C1627 1.400 . S
C1624 H1609 0.960 . S
C1624 H1610 0.960 . S
C1624 H1611 0.960 . S
C1624 C1623 1.524 . S
C1625 C1622 1.403 . S
C1625 C1626 1.392 . S
C1625 C1629 1.495 . S
C1626 C1625 1.392 . S
C1626 C1627 1.385 . S
C1626 C1628 1.478 . S
C1627 H1621 0.930 . S
C1627 C1623 1.400 . S
C1627 C1626 1.385 . S
C1628 C1626 1.478 . S
C1628 C1630 1.381 . S
C1628 C1634 1.383 . S
C1629 C1625 1.495 . S
C1629 H1635 0.959 . S
C1629 H1636 0.961 . S
C1629 H1637 0.960 . S
C1630 C1628 1.381 . S
C1630 C1631 1.394 . S
C1630 H1638 0.930 . S
C1631 C1630 1.394 . S
C1631 C1632 1.383 . S
C1631 H1639 0.929 . S
C1632 C1631 1.383 . S
C1632 C1633 1.377 . S
C1633 H1617 0.930 . S
C1633 C1632 1.377 . S
C1633 C1634 1.379 . S
C1634 H1618 0.931 . S
C1634 C1628 1.383 . S
C1634 C1633 1.379 . S
H1635 C1629 0.959 . S
H1636 C1629 0.961 . S
H1637 C1629 0.960 . S
H1638 C1630 0.930 . S
H1639 C1631 0.929 . S
H1640 C1648 0.929 . S
H1641 C1650 0.930 . S
H1642 C1652 0.930 . S
H1643 C1655 0.929 . S
H1644 C1658 0.930 . S
H1645 C1660 0.960 . S
H1646 C1660 0.960 . S
H1647 C1660 0.960 . S
C1648 H1640 0.929 . S
C1648 C1649 1.377 . S
C1648 C1650 1.384 . S
C1649 C1648 1.377 . S
C1649 C1655 1.390 . S
C1650 H1641 0.930 . S
C1650 C1648 1.384 . S
C1650 C1651 1.372 . S
C1651 C1650 1.372 . S
C1651 C1652 1.400 . S
C1651 C1656 1.490 . S
C1652 H1642 0.930 . S
C1652 C1651 1.400 . S
C1652 C1655 1.386 . S
H1653 C1669 0.930 . S
H1654 C1670 0.931 . S
C1655 H1643 0.929 . S
C1655 C1649 1.390 . S
C1655 C1652 1.386 . S
C1656 C1651 1.490 . S
C1656 C1658 1.395 . S
C1656 C1659 1.403 . S
H1657 C1663 0.930 . S
C1658 H1644 0.930 . S
C1658 C1656 1.395 . S
C1658 C1661 1.403 . S
C1659 C1656 1.403 . S
C1659 C1660 1.524 . S
C1659 C1663 1.400 . S
C1660 H1645 0.960 . S
C1660 H1646 0.960 . S
C1660 H1647 0.960 . S
C1660 C1659 1.524 . S
C1661 C1658 1.403 . S
C1661 C1662 1.392 . S
C1661 C1665 1.495 . S
C1662 C1661 1.392 . S
C1662 C1663 1.385 . S
C1662 C1664 1.478 . S
C1663 H1657 0.930 . S
C1663 C1659 1.400 . S
C1663 C1662 1.385 . S
C1664 C1662 1.478 . S
C1664 C1666 1.381 . S
C1664 C1670 1.383 . S
C1665 C1661 1.495 . S
C1665 H1671 0.959 . S
C1665 H1672 0.961 . S
C1665 H1673 0.960 . S
C1666 C1664 1.381 . S
C1666 C1667 1.394 . S
C1666 H1674 0.930 . S
C1667 C1666 1.394 . S
C1667 C1668 1.383 . S
C1667 H1675 0.929 . S
C1668 C1667 1.383 . S
C1668 C1669 1.377 . S
C1669 H1653 0.930 . S
C1669 C1668 1.377 . S
C1669 C1670 1.379 . S
C1670 H1654 0.931 . S
C1670 C1664 1.383 . S
C1670 C1669 1.379 . S
H1671 C1665 0.959 . S
H1672 C1665 0.961 . S
H1673 C1665 0.960 . S
H1674 C1666 0.930 . S
H1675 C1667 0.929 . S
H1676 C1684 0.929 . S
H1677 C1686 0.930 . S
H1678 C1688 0.930 . S
H1679 C1691 0.929 . S
H1680 C1694 0.930 . S
H1681 C1696 0.960 . S
H1682 C1696 0.960 . S
H1683 C1696 0.960 . S
C1684 H1676 0.929 . S
C1684 C1685 1.377 . S
C1684 C1686 1.384 . S
C1685 C1684 1.377 . S
C1685 C1691 1.390 . S
C1686 H1677 0.930 . S
C1686 C1684 1.384 . S
C1686 C1687 1.372 . S
C1687 C1686 1.372 . S
C1687 C1688 1.400 . S
C1687 C1692 1.490 . S
C1688 H1678 0.930 . S
C1688 C1687 1.400 . S
C1688 C1691 1.386 . S
H1689 C1705 0.930 . S
H1690 C1706 0.931 . S
C1691 H1679 0.929 . S
C1691 C1685 1.390 . S
C1691 C1688 1.386 . S
C1692 C1687 1.490 . S
C1692 C1694 1.395 . S
C1692 C1695 1.403 . S
H1693 C1699 0.930 . S
C1694 H1680 0.930 . S
C1694 C1692 1.395 . S
C1694 C1697 1.403 . S
C1695 C1692 1.403 . S
C1695 C1696 1.524 . S
C1695 C1699 1.400 . S
C1696 H1681 0.960 . S
C1696 H1682 0.960 . S
C1696 H1683 0.960 . S
C1696 C1695 1.524 . S
C1697 C1694 1.403 . S
C1697 C1698 1.392 . S
C1697 C1701 1.495 . S
C1698 C1697 1.392 . S
C1698 C1699 1.385 . S
C1698 C1700 1.478 . S
C1699 H1693 0.930 . S
C1699 C1695 1.400 . S
C1699 C1698 1.385 . S
C1700 C1698 1.478 . S
C1700 C1702 1.381 . S
C1700 C1706 1.383 . S
C1701 C1697 1.495 . S
C1701 H1707 0.959 . S
C1701 H1708 0.961 . S
C1701 H1709 0.960 . S
C1702 C1700 1.381 . S
C1702 C1703 1.394 . S
C1702 H1710 0.930 . S
C1703 C1702 1.394 . S
C1703 C1704 1.383 . S
C1703 H1711 0.929 . S
C1704 C1703 1.383 . S
C1704 C1705 1.377 . S
C1705 H1689 0.930 . S
C1705 C1704 1.377 . S
C1705 C1706 1.379 . S
C1706 H1690 0.931 . S
C1706 C1700 1.383 . S
C1706 C1705 1.379 . S
H1707 C1701 0.959 . S
H1708 C1701 0.961 . S
H1709 C1701 0.960 . S
H1710 C1702 0.930 . S
H1711 C1703 0.929 . S
H1712 C1720 0.929 . S
H1713 C1722 0.930 . S
H1714 C1724 0.930 . S
H1715 C1727 0.929 . S
H1716 C1730 0.930 . S
H1717 C1732 0.960 1_556 S
H1718 C1732 0.960 . S
H1719 C1732 0.949 1_556 S
C1720 H1712 0.929 . S
C1720 C1721 1.377 . S
C1720 C1722 1.384 . S
C1721 C1720 1.377 . S
C1721 C1727 1.390 . S
C1722 H1713 0.930 . S
C1722 C1720 1.384 . S
C1722 C1723 1.372 . S
C1723 C1722 1.372 . S
C1723 C1724 1.400 . S
C1723 C1728 1.490 . S
C1724 H1714 0.930 . S
C1724 C1723 1.400 . S
C1724 C1727 1.386 . S
H1725 C1741 0.930 . S
H1726 C1742 0.931 . S
C1727 H1715 0.929 . S
C1727 C1721 1.390 . S
C1727 C1724 1.386 . S
C1728 C1723 1.490 . S
C1728 C1730 1.395 . S
C1728 C1731 1.403 . S
H1729 C1735 0.930 . S
C1730 H1716 0.930 . S
C1730 C1728 1.395 . S
C1730 C1733 1.402 . S
C1731 C1728 1.403 . S
C1731 C1732 1.524 . S
C1731 C1735 1.400 1_554 S
C1732 H1717 0.960 1_554 S
C1732 H1718 0.960 . S
C1732 H1719 0.949 1_554 S
C1732 C1731 1.524 . S
C1733 C1730 1.402 . S
C1733 C1734 1.393 1_554 S
C1733 C1737 1.495 1_554 S
C1734 C1733 1.393 1_556 S
C1734 C1735 1.385 . S
C1734 C1736 1.478 . S
C1735 H1729 0.930 . S
C1735 C1731 1.400 1_556 S
C1735 C1734 1.385 . S
C1736 C1734 1.478 . S
C1736 C1738 1.381 . S
C1736 C1742 1.383 . S
C1737 C1733 1.495 1_556 S
C1737 H1743 0.942 1_556 S
C1737 H1744 0.989 . S
C1737 H1745 0.951 1_556 S
C1738 C1736 1.381 . S
C1738 C1739 1.394 . S
C1738 H1746 0.930 . S
C1739 C1738 1.394 . S
C1739 C1740 1.383 . S
C1739 H1747 0.929 . S
C1740 C1739 1.383 . S
C1740 C1741 1.377 . S
C1741 H1725 0.930 . S
C1741 C1740 1.377 . S
C1741 C1742 1.379 . S
C1742 H1726 0.931 . S
C1742 C1736 1.383 . S
C1742 C1741 1.379 . S
H1743 C1737 0.942 1_554 S
H1744 C1737 0.989 . S
H1745 C1737 0.951 1_554 S
H1746 C1738 0.930 . S
H1747 C1739 0.929 . S
H1748 C1756 0.929 . S
H1749 C1758 0.930 . S
H1750 C1760 0.930 . S
H1751 C1763 0.929 . S
H1752 C1766 0.930 . S
H1753 C1768 0.960 . S
H1754 C1768 0.960 . S
H1755 C1768 0.960 . S
C1756 H1748 0.929 . S
C1756 C1757 1.377 . S
C1756 C1758 1.384 . S
C1757 C1756 1.377 . S
C1757 C1763 1.390 . S
C1758 H1749 0.930 . S
C1758 C1756 1.384 . S
C1758 C1759 1.372 . S
C1759 C1758 1.372 . S
C1759 C1760 1.400 . S
C1759 C1764 1.490 . S
C1760 H1750 0.930 . S
C1760 C1759 1.400 . S
C1760 C1763 1.386 . S
H1761 C1777 0.930 . S
H1762 C1778 0.931 . S
C1763 H1751 0.929 . S
C1763 C1757 1.390 . S
C1763 C1760 1.386 . S
C1764 C1759 1.490 . S
C1764 C1766 1.395 . S
C1764 C1767 1.403 . S
H1765 C1771 0.930 . S
C1766 H1752 0.930 . S
C1766 C1764 1.395 . S
C1766 C1769 1.403 . S
C1767 C1764 1.403 . S
C1767 C1768 1.524 . S
C1767 C1771 1.400 . S
C1768 H1753 0.960 . S
C1768 H1754 0.960 . S
C1768 H1755 0.960 . S
C1768 C1767 1.524 . S
C1769 C1766 1.403 . S
C1769 C1770 1.392 . S
C1769 C1773 1.495 . S
C1770 C1769 1.392 . S
C1770 C1771 1.385 . S
C1770 C1772 1.478 . S
C1771 H1765 0.930 . S
C1771 C1767 1.400 . S
C1771 C1770 1.385 . S
C1772 C1770 1.478 . S
C1772 C1774 1.381 . S
C1772 C1778 1.383 . S
C1773 C1769 1.495 . S
C1773 H1779 0.959 . S
C1773 H1780 0.961 . S
C1773 H1781 0.960 . S
C1774 C1772 1.381 . S
C1774 C1775 1.394 . S
C1774 H1782 0.930 . S
C1775 C1774 1.394 . S
C1775 C1776 1.383 . S
C1775 H1783 0.929 . S
C1776 C1775 1.383 . S
C1776 C1777 1.377 . S
C1777 H1761 0.930 . S
C1777 C1776 1.377 . S
C1777 C1778 1.379 . S
C1778 H1762 0.931 . S
C1778 C1772 1.383 . S
C1778 C1777 1.379 . S
H1779 C1773 0.959 . S
H1780 C1773 0.961 . S
H1781 C1773 0.960 . S
H1782 C1774 0.930 . S
H1783 C1775 0.929 . S
H1784 C1792 0.929 . S
H1785 C1794 0.930 . S
H1786 C1796 0.930 . S
H1787 C1799 0.929 . S
H1788 C1802 0.930 . S
H1789 C1804 0.960 . S
H1790 C1804 0.960 . S
H1791 C1804 0.960 . S
C1792 H1784 0.929 . S
C1792 C1793 1.377 . S
C1792 C1794 1.384 . S
C1793 C1792 1.377 . S
C1793 C1799 1.390 . S
C1794 H1785 0.930 . S
C1794 C1792 1.384 . S
C1794 C1795 1.372 . S
C1795 C1794 1.372 . S
C1795 C1796 1.400 . S
C1795 C1800 1.490 . S
C1796 H1786 0.930 . S
C1796 C1795 1.400 . S
C1796 C1799 1.386 . S
H1797 C1813 0.930 . S
H1798 C1814 0.931 . S
C1799 H1787 0.929 . S
C1799 C1793 1.390 . S
C1799 C1796 1.386 . S
C1800 C1795 1.490 . S
C1800 C1802 1.395 . S
C1800 C1803 1.403 . S
H1801 C1807 0.930 . S
C1802 H1788 0.930 . S
C1802 C1800 1.395 . S
C1802 C1805 1.403 . S
C1803 C1800 1.403 . S
C1803 C1804 1.524 . S
C1803 C1807 1.400 . S
C1804 H1789 0.960 . S
C1804 H1790 0.960 . S
C1804 H1791 0.960 . S
C1804 C1803 1.524 . S
C1805 C1802 1.403 . S
C1805 C1806 1.392 . S
C1805 C1809 1.495 . S
C1806 C1805 1.392 . S
C1806 C1807 1.385 . S
C1806 C1808 1.478 . S
C1807 H1801 0.930 . S
C1807 C1803 1.400 . S
C1807 C1806 1.385 . S
C1808 C1806 1.478 . S
C1808 C1810 1.381 . S
C1808 C1814 1.383 . S
C1809 C1805 1.495 . S
C1809 H1815 0.959 . S
C1809 H1816 0.961 . S
C1809 H1817 0.960 . S
C1810 C1808 1.381 . S
C1810 C1811 1.394 . S
C1810 H1818 0.930 . S
C1811 C1810 1.394 . S
C1811 C1812 1.383 . S
C1811 H1819 0.929 . S
C1812 C1811 1.383 . S
C1812 C1813 1.377 . S
C1813 H1797 0.930 . S
C1813 C1812 1.377 . S
C1813 C1814 1.379 . S
C1814 H1798 0.931 . S
C1814 C1808 1.383 . S
C1814 C1813 1.379 . S
H1815 C1809 0.959 . S
H1816 C1809 0.961 . S
H1817 C1809 0.960 . S
H1818 C1810 0.930 . S
H1819 C1811 0.929 . S
H1820 C1828 0.929 . S
H1821 C1830 0.930 . S
H1822 C1832 0.930 . S
H1823 C1835 0.929 . S
H1824 C1838 0.930 . S
H1825 C1840 0.960 . S
H1826 C1840 0.960 . S
H1827 C1840 0.960 . S
C1828 H1820 0.929 . S
C1828 C1829 1.377 . S
C1828 C1830 1.384 . S
C1829 C1828 1.377 . S
C1829 C1835 1.390 . S
C1830 H1821 0.930 . S
C1830 C1828 1.384 . S
C1830 C1831 1.372 . S
C1831 C1830 1.372 . S
C1831 C1832 1.400 . S
C1831 C1836 1.490 . S
C1832 H1822 0.930 . S
C1832 C1831 1.400 . S
C1832 C1835 1.386 . S
H1833 C1849 0.930 . S
H1834 C1850 0.931 . S
C1835 H1823 0.929 . S
C1835 C1829 1.390 . S
C1835 C1832 1.386 . S
C1836 C1831 1.490 . S
C1836 C1838 1.395 . S
C1836 C1839 1.403 . S
H1837 C1843 0.930 . S
C1838 H1824 0.930 . S
C1838 C1836 1.395 . S
C1838 C1841 1.403 . S
C1839 C1836 1.403 . S
C1839 C1840 1.524 . S
C1839 C1843 1.400 . S
C1840 H1825 0.960 . S
C1840 H1826 0.960 . S
C1840 H1827 0.960 . S
C1840 C1839 1.524 . S
C1841 C1838 1.403 . S
C1841 C1842 1.392 . S
C1841 C1845 1.495 . S
C1842 C1841 1.392 . S
C1842 C1843 1.385 . S
C1842 C1844 1.478 . S
C1843 H1837 0.930 . S
C1843 C1839 1.400 . S
C1843 C1842 1.385 . S
C1844 C1842 1.478 . S
C1844 C1846 1.381 . S
C1844 C1850 1.383 . S
C1845 C1841 1.495 . S
C1845 H1851 0.959 . S
C1845 H1852 0.961 . S
C1845 H1853 0.960 . S
C1846 C1844 1.381 . S
C1846 C1847 1.394 . S
C1846 H1854 0.930 . S
C1847 C1846 1.394 . S
C1847 C1848 1.383 . S
C1847 H1855 0.929 . S
C1848 C1847 1.383 . S
C1848 C1849 1.377 . S
C1849 H1833 0.930 . S
C1849 C1848 1.377 . S
C1849 C1850 1.379 . S
C1850 H1834 0.931 . S
C1850 C1844 1.383 . S
C1850 C1849 1.379 . S
H1851 C1845 0.959 . S
H1852 C1845 0.961 . S
H1853 C1845 0.960 . S
H1854 C1846 0.930 . S
H1855 C1847 0.929 . S
H1856 C1864 0.929 . S
H1857 C1866 0.930 . S
H1858 C1868 0.930 . S
H1859 C1871 0.929 . S
H1860 C1874 0.930 . S
H1861 C1876 0.960 . S
H1862 C1876 0.960 . S
H1863 C1876 0.960 . S
C1864 H1856 0.929 . S
C1864 C1865 1.377 . S
C1864 C1866 1.384 . S
C1865 C1864 1.377 . S
C1865 C1871 1.390 . S
C1866 H1857 0.930 . S
C1866 C1864 1.384 . S
C1866 C1867 1.372 . S
C1867 C1866 1.372 . S
C1867 C1868 1.400 . S
C1867 C1872 1.490 . S
C1868 H1858 0.930 . S
C1868 C1867 1.400 . S
C1868 C1871 1.386 . S
H1869 C1885 0.930 . S
H1870 C1886 0.931 . S
C1871 H1859 0.929 . S
C1871 C1865 1.390 . S
C1871 C1868 1.386 . S
C1872 C1867 1.490 . S
C1872 C1874 1.395 . S
C1872 C1875 1.403 . S
H1873 C1879 0.930 . S
C1874 H1860 0.930 . S
C1874 C1872 1.395 . S
C1874 C1877 1.403 1_545 S
C1875 C1872 1.403 . S
C1875 C1876 1.524 . S
C1875 C1879 1.400 1_545 S
C1876 H1861 0.960 . S
C1876 H1862 0.960 . S
C1876 H1863 0.960 . S
C1876 C1875 1.524 . S
C1877 C1874 1.403 1_565 S
C1877 C1878 1.392 . S
C1877 C1881 1.495 . S
C1878 C1877 1.392 . S
C1878 C1879 1.385 . S
C1878 C1880 1.478 . S
C1879 H1873 0.930 . S
C1879 C1875 1.400 1_565 S
C1879 C1878 1.385 . S
C1880 C1878 1.478 . S
C1880 C1882 1.381 . S
C1880 C1886 1.383 . S
C1881 C1877 1.495 . S
C1881 H1887 0.959 . S
C1881 H1888 0.961 . S
C1881 H1889 0.960 . S
C1882 C1880 1.381 . S
C1882 C1883 1.394 . S
C1882 H1890 0.930 . S
C1883 C1882 1.394 . S
C1883 C1884 1.383 . S
C1883 H1891 0.929 . S
C1884 C1883 1.383 . S
C1884 C1885 1.377 . S
C1885 H1869 0.930 . S
C1885 C1884 1.377 . S
C1885 C1886 1.379 . S
C1886 H1870 0.931 . S
C1886 C1880 1.383 . S
C1886 C1885 1.379 . S
H1887 C1881 0.959 . S
H1888 C1881 0.961 . S
H1889 C1881 0.960 . S
H1890 C1882 0.930 . S
H1891 C1883 0.929 . S
H1892 C1900 0.929 . S
H1893 C1902 0.930 . S
H1894 C1904 0.930 . S
H1895 C1907 0.929 . S
H1896 C1910 0.930 . S
H1897 C1912 0.960 . S
H1898 C1912 0.960 . S
H1899 C1912 0.960 . S
C1900 H1892 0.929 . S
C1900 C1901 1.377 . S
C1900 C1902 1.384 . S
C1901 C1900 1.377 . S
C1901 C1907 1.390 . S
C1902 H1893 0.930 . S
C1902 C1900 1.384 . S
C1902 C1903 1.372 . S
C1903 C1902 1.372 . S
C1903 C1904 1.400 . S
C1903 C1908 1.490 . S
C1904 H1894 0.930 . S
C1904 C1903 1.400 . S
C1904 C1907 1.386 . S
H1905 C1921 0.930 . S
H1906 C1922 0.931 . S
C1907 H1895 0.929 . S
C1907 C1901 1.390 . S
C1907 C1904 1.386 . S
C1908 C1903 1.490 . S
C1908 C1910 1.395 . S
C1908 C1911 1.403 . S
H1909 C1915 0.930 . S
C1910 H1896 0.930 . S
C1910 C1908 1.395 . S
C1910 C1913 1.403 . S
C1911 C1908 1.403 . S
C1911 C1912 1.524 . S
C1911 C1915 1.400 . S
C1912 H1897 0.960 . S
C1912 H1898 0.960 . S
C1912 H1899 0.960 . S
C1912 C1911 1.524 . S
C1913 C1910 1.403 . S
C1913 C1914 1.392 . S
C1913 C1917 1.495 . S
C1914 C1913 1.392 . S
C1914 C1915 1.385 . S
C1914 C1916 1.478 . S
C1915 H1909 0.930 . S
C1915 C1911 1.400 . S
C1915 C1914 1.385 . S
C1916 C1914 1.478 . S
C1916 C1918 1.381 . S
C1916 C1922 1.383 . S
C1917 C1913 1.495 . S
C1917 H1923 0.959 . S
C1917 H1924 0.961 . S
C1917 H1925 0.960 . S
C1918 C1916 1.381 . S
C1918 C1919 1.394 . S
C1918 H1926 0.930 . S
C1919 C1918 1.394 . S
C1919 C1920 1.383 . S
C1919 H1927 0.929 . S
C1920 C1919 1.383 . S
C1920 C1921 1.377 . S
C1921 H1905 0.930 . S
C1921 C1920 1.377 . S
C1921 C1922 1.379 . S
C1922 H1906 0.931 . S
C1922 C1916 1.383 . S
C1922 C1921 1.379 . S
H1923 C1917 0.959 . S
H1924 C1917 0.961 . S
H1925 C1917 0.960 . S
H1926 C1918 0.930 . S
H1927 C1919 0.929 . S
H1928 C1936 0.929 . S
H1929 C1938 0.930 . S
H1930 C1940 0.930 . S
H1931 C1943 0.929 . S
H1932 C1946 0.930 . S
H1933 C1948 0.960 . S
H1934 C1948 0.960 . S
H1935 C1948 0.960 . S
C1936 H1928 0.929 . S
C1936 C1937 1.377 . S
C1936 C1938 1.384 . S
C1937 C1936 1.377 . S
C1937 C1943 1.390 . S
C1938 H1929 0.930 . S
C1938 C1936 1.384 . S
C1938 C1939 1.372 . S
C1939 C1938 1.372 . S
C1939 C1940 1.400 . S
C1939 C1944 1.490 . S
C1940 H1930 0.930 . S
C1940 C1939 1.400 . S
C1940 C1943 1.386 . S
H1941 C1957 0.930 . S
H1942 C1958 0.931 . S
C1943 H1931 0.929 . S
C1943 C1937 1.390 . S
C1943 C1940 1.386 . S
C1944 C1939 1.490 . S
C1944 C1946 1.395 1_565 S
C1944 C1947 1.403 1_554 S
H1945 C1951 0.930 . S
C1946 H1932 0.930 . S
C1946 C1944 1.395 1_545 S
C1946 C1949 1.403 . S
C1947 C1944 1.403 1_556 S
C1947 C1948 1.524 . S
C1947 C1951 1.400 1_565 S
C1948 H1933 0.960 . S
C1948 H1934 0.960 . S
C1948 H1935 0.960 . S
C1948 C1947 1.524 . S
C1949 C1946 1.403 . S
C1949 C1950 1.392 1_554 S
C1949 C1953 1.495 . S
C1950 C1949 1.392 1_556 S
C1950 C1951 1.385 . S
C1950 C1952 1.478 . S
C1951 H1945 0.930 . S
C1951 C1947 1.400 1_545 S
C1951 C1950 1.385 . S
C1952 C1950 1.478 . S
C1952 C1954 1.381 . S
C1952 C1958 1.383 . S
C1953 C1949 1.495 . S
C1953 H1959 0.959 . S
C1953 H1960 0.961 . S
C1953 H1961 0.960 . S
C1954 C1952 1.381 . S
C1954 C1955 1.394 . S
C1954 H1962 0.930 . S
C1955 C1954 1.394 . S
C1955 C1956 1.383 . S
C1955 H1963 0.929 . S
C1956 C1955 1.383 . S
C1956 C1957 1.377 . S
C1957 H1941 0.930 . S
C1957 C1956 1.377 . S
C1957 C1958 1.379 . S
C1958 H1942 0.931 . S
C1958 C1952 1.383 . S
C1958 C1957 1.379 . S
H1959 C1953 0.959 . S
H1960 C1953 0.961 . S
H1961 C1953 0.960 . S
H1962 C1954 0.930 . S
H1963 C1955 0.929 . S
H1964 C1972 0.929 . S
H1965 C1974 0.930 . S
H1966 C1976 0.930 . S
H1967 C1979 0.929 . S
H1968 C1982 0.930 . S
H1969 C1984 0.960 . S
H1970 C1984 0.960 . S
H1971 C1984 0.960 . S
C1972 H1964 0.929 . S
C1972 C1973 1.377 . S
C1972 C1974 1.384 . S
C1973 C1972 1.377 . S
C1973 C1979 1.390 . S
C1974 H1965 0.930 . S
C1974 C1972 1.384 . S
C1974 C1975 1.372 . S
C1975 C1974 1.372 . S
C1975 C1976 1.400 . S
C1975 C1980 1.490 . S
C1976 H1966 0.930 . S
C1976 C1975 1.400 . S
C1976 C1979 1.386 . S
H1977 C1993 0.930 . S
H1978 C1994 0.931 . S
C1979 H1967 0.929 . S
C1979 C1973 1.390 . S
C1979 C1976 1.386 . S
C1980 C1975 1.490 . S
C1980 C1982 1.395 . S
C1980 C1983 1.403 . S
H1981 C1987 0.930 . S
C1982 H1968 0.930 . S
C1982 C1980 1.395 . S
C1982 C1985 1.403 . S
C1983 C1980 1.403 . S
C1983 C1984 1.524 . S
C1983 C1987 1.400 . S
C1984 H1969 0.960 . S
C1984 H1970 0.960 . S
C1984 H1971 0.960 . S
C1984 C1983 1.524 . S
C1985 C1982 1.403 . S
C1985 C1986 1.392 . S
C1985 C1989 1.495 . S
C1986 C1985 1.392 . S
C1986 C1987 1.385 . S
C1986 C1988 1.478 . S
C1987 H1981 0.930 . S
C1987 C1983 1.400 . S
C1987 C1986 1.385 . S
C1988 C1986 1.478 . S
C1988 C1990 1.381 . S
C1988 C1994 1.383 . S
C1989 C1985 1.495 . S
C1989 H1995 0.959 . S
C1989 H1996 0.961 . S
C1989 H1997 0.960 . S
C1990 C1988 1.381 . S
C1990 C1991 1.394 . S
C1990 H1998 0.930 . S
C1991 C1990 1.394 . S
C1991 C1992 1.383 . S
C1991 H1999 0.929 . S
C1992 C1991 1.383 . S
C1992 C1993 1.377 . S
C1993 H1977 0.930 . S
C1993 C1992 1.377 . S
C1993 C1994 1.379 . S
C1994 H1978 0.931 . S
C1994 C1988 1.383 . S
C1994 C1993 1.379 . S
H1995 C1989 0.959 . S
H1996 C1989 0.961 . S
H1997 C1989 0.960 . S
H1998 C1990 0.930 . S
H1999 C1991 0.929 . S
H2000 C2008 0.929 . S
H2001 C2010 0.930 . S
H2002 C2012 0.930 . S
H2003 C2015 0.929 . S
H2004 C2018 0.930 . S
H2005 C2020 0.960 . S
H2006 C2020 0.960 . S
H2007 C2020 0.960 1_545 S
C2008 H2000 0.929 . S
C2008 C2009 1.377 . S
C2008 C2010 1.384 . S
C2009 C2008 1.377 . S
C2009 C2015 1.390 . S
C2010 H2001 0.930 . S
C2010 C2008 1.384 . S
C2010 C2011 1.372 . S
C2011 C2010 1.372 . S
C2011 C2012 1.400 . S
C2011 C2016 1.490 . S
C2012 H2002 0.930 . S
C2012 C2011 1.400 . S
C2012 C2015 1.386 . S
H2013 C2029 0.930 . S
H2014 C2030 0.931 . S
C2015 H2003 0.929 . S
C2015 C2009 1.390 . S
C2015 C2012 1.386 . S
C2016 C2011 1.490 . S
C2016 C2018 1.395 . S
C2016 C2019 1.403 1_545 S
H2017 C2023 0.930 . S
C2018 H2004 0.930 . S
C2018 C2016 1.395 . S
C2018 C2021 1.403 . S
C2019 C2016 1.403 1_565 S
C2019 C2020 1.524 . S
C2019 C2023 1.400 . S
C2020 H2005 0.960 . S
C2020 H2006 0.960 . S
C2020 H2007 0.960 1_565 S
C2020 C2019 1.524 . S
C2021 C2018 1.403 . S
C2021 C2022 1.392 1_545 S
C2021 C2025 1.495 . S
C2022 C2021 1.392 1_565 S
C2022 C2023 1.385 . S
C2022 C2024 1.478 . S
C2023 H2017 0.930 . S
C2023 C2019 1.400 . S
C2023 C2022 1.385 . S
C2024 C2022 1.478 . S
C2024 C2026 1.381 . S
C2024 C2030 1.383 . S
C2025 C2021 1.495 . S
C2025 H2031 0.959 . S
C2025 H2032 0.961 . S
C2025 H2033 0.960 1_545 S
C2026 C2024 1.381 . S
C2026 C2027 1.394 . S
C2026 H2034 0.930 . S
C2027 C2026 1.394 . S
C2027 C2028 1.383 . S
C2027 H2035 0.929 . S
C2028 C2027 1.383 . S
C2028 C2029 1.377 . S
C2029 H2013 0.930 . S
C2029 C2028 1.377 . S
C2029 C2030 1.379 . S
C2030 H2014 0.931 . S
C2030 C2024 1.383 . S
C2030 C2029 1.379 . S
H2031 C2025 0.959 . S
H2032 C2025 0.961 . S
H2033 C2025 0.960 1_565 S
H2034 C2026 0.930 . S
H2035 C2027 0.929 . S
H2036 C2044 0.929 . S
H2037 C2046 0.930 . S
H2038 C2048 0.930 . S
H2039 C2051 0.929 . S
H2040 C2054 0.930 . S
H2041 C2056 0.960 . S
H2042 C2056 0.960 . S
H2043 C2056 0.960 . S
C2044 H2036 0.929 . S
C2044 C2045 1.377 . S
C2044 C2046 1.384 . S
C2045 C2044 1.377 . S
C2045 C2051 1.390 . S
C2046 H2037 0.930 . S
C2046 C2044 1.384 . S
C2046 C2047 1.372 . S
C2047 C2046 1.372 . S
C2047 C2048 1.400 . S
C2047 C2052 1.490 . S
C2048 H2038 0.930 . S
C2048 C2047 1.400 . S
C2048 C2051 1.386 . S
H2049 C2065 0.930 . S
H2050 C2066 0.931 . S
C2051 H2039 0.929 . S
C2051 C2045 1.390 . S
C2051 C2048 1.386 . S
C2052 C2047 1.490 . S
C2052 C2054 1.395 . S
C2052 C2055 1.403 . S
H2053 C2059 0.930 . S
C2054 H2040 0.930 . S
C2054 C2052 1.395 . S
C2054 C2057 1.403 . S
C2055 C2052 1.403 . S
C2055 C2056 1.524 . S
C2055 C2059 1.400 . S
C2056 H2041 0.960 . S
C2056 H2042 0.960 . S
C2056 H2043 0.960 . S
C2056 C2055 1.524 . S
C2057 C2054 1.403 . S
C2057 C2058 1.392 . S
C2057 C2061 1.495 . S
C2058 C2057 1.392 . S
C2058 C2059 1.385 . S
C2058 C2060 1.478 . S
C2059 H2053 0.930 . S
C2059 C2055 1.400 . S
C2059 C2058 1.385 . S
C2060 C2058 1.478 . S
C2060 C2062 1.381 . S
C2060 C2066 1.383 . S
C2061 C2057 1.495 . S
C2061 H2067 0.959 . S
C2061 H2068 0.961 . S
C2061 H2069 0.960 . S
C2062 C2060 1.381 . S
C2062 C2063 1.394 . S
C2062 H2070 0.930 . S
C2063 C2062 1.394 . S
C2063 C2064 1.383 . S
C2063 H2071 0.929 . S
C2064 C2063 1.383 . S
C2064 C2065 1.377 . S
C2065 H2049 0.930 . S
C2065 C2064 1.377 . S
C2065 C2066 1.379 . S
C2066 H2050 0.931 . S
C2066 C2060 1.383 . S
C2066 C2065 1.379 . S
H2067 C2061 0.959 . S
H2068 C2061 0.961 . S
H2069 C2061 0.960 . S
H2070 C2062 0.930 . S
H2071 C2063 0.929 . S
H2072 C2080 0.929 . S
H2073 C2082 0.930 . S
H2074 C2084 0.930 . S
H2075 C2087 0.929 . S
H2076 C2090 0.930 . S
H2077 C2092 0.960 . S
H2078 C2092 0.960 1_565 S
H2079 C2092 0.961 1_565 S
C2080 H2072 0.929 . S
C2080 C2081 1.377 . S
C2080 C2082 1.384 . S
C2081 C2080 1.377 . S
C2081 C2087 1.390 . S
C2082 H2073 0.930 . S
C2082 C2080 1.384 . S
C2082 C2083 1.372 . S
C2083 C2082 1.372 . S
C2083 C2084 1.400 . S
C2083 C2088 1.490 . S
C2084 H2074 0.930 . S
C2084 C2083 1.400 . S
C2084 C2087 1.386 . S
H2085 C2101 0.930 . S
H2086 C2102 0.931 . S
C2087 H2075 0.929 . S
C2087 C2081 1.390 . S
C2087 C2084 1.386 . S
C2088 C2083 1.490 . S
C2088 C2090 1.395 1_554 S
C2088 C2091 1.397 1_565 S
H2089 C2095 0.930 . S
C2090 H2076 0.930 . S
C2090 C2088 1.395 1_556 S
C2090 C2093 1.403 . S
C2091 C2088 1.397 1_545 S
C2091 C2092 1.524 . S
C2091 C2095 1.405 . S
C2092 H2077 0.960 . S
C2092 H2078 0.960 1_545 S
C2092 H2079 0.961 1_545 S
C2092 C2091 1.524 . S
C2093 C2090 1.403 . S
C2093 C2094 1.392 1_565 S
C2093 C2097 1.495 . S
C2094 C2093 1.392 1_545 S
C2094 C2095 1.385 1_556 S
C2094 C2096 1.478 . S
C2095 H2089 0.930 . S
C2095 C2091 1.405 . S
C2095 C2094 1.385 1_554 S
C2096 C2094 1.478 . S
C2096 C2098 1.381 . S
C2096 C2102 1.383 . S
C2097 C2093 1.495 . S
C2097 H2103 0.959 . S
C2097 H2104 0.961 1_565 S
C2097 H2105 0.960 . S
C2098 C2096 1.381 . S
C2098 C2099 1.394 . S
C2098 H2106 0.930 . S
C2099 C2098 1.394 . S
C2099 C2100 1.383 . S
C2099 H2107 0.929 . S
C2100 C2099 1.383 . S
C2100 C2101 1.377 . S
C2101 H2085 0.930 . S
C2101 C2100 1.377 . S
C2101 C2102 1.379 . S
C2102 H2086 0.931 . S
C2102 C2096 1.383 . S
C2102 C2101 1.379 . S
H2103 C2097 0.959 . S
H2104 C2097 0.961 1_545 S
H2105 C2097 0.960 . S
H2106 C2098 0.930 . S
H2107 C2099 0.929 . S
H2108 C2116 0.929 . S
H2109 C2118 0.930 . S
H2110 C2120 0.930 . S
H2111 C2123 0.929 . S
H2112 C2126 0.930 . S
H2113 C2128 0.960 . S
H2114 C2128 0.960 . S
H2115 C2128 0.960 . S
C2116 H2108 0.929 . S
C2116 C2117 1.377 . S
C2116 C2118 1.384 . S
C2117 C2116 1.377 . S
C2117 C2123 1.390 . S
C2118 H2109 0.930 . S
C2118 C2116 1.384 . S
C2118 C2119 1.372 . S
C2119 C2118 1.372 . S
C2119 C2120 1.400 . S
C2119 C2124 1.490 . S
C2120 H2110 0.930 . S
C2120 C2119 1.400 . S
C2120 C2123 1.386 . S
H2121 C2137 0.930 . S
H2122 C2138 0.931 . S
C2123 H2111 0.929 . S
C2123 C2117 1.390 . S
C2123 C2120 1.386 . S
C2124 C2119 1.490 . S
C2124 C2126 1.395 . S
C2124 C2127 1.403 . S
H2125 C2131 0.930 . S
C2126 H2112 0.930 . S
C2126 C2124 1.395 . S
C2126 C2129 1.403 . S
C2127 C2124 1.403 . S
C2127 C2128 1.524 . S
C2127 C2131 1.400 . S
C2128 H2113 0.960 . S
C2128 H2114 0.960 . S
C2128 H2115 0.960 . S
C2128 C2127 1.524 . S
C2129 C2126 1.403 . S
C2129 C2130 1.392 . S
C2129 C2133 1.495 . S
C2130 C2129 1.392 . S
C2130 C2131 1.385 . S
C2130 C2132 1.478 . S
C2131 H2125 0.930 . S
C2131 C2127 1.400 . S
C2131 C2130 1.385 . S
C2132 C2130 1.478 . S
C2132 C2134 1.381 . S
C2132 C2138 1.383 . S
C2133 C2129 1.495 . S
C2133 H2139 0.959 . S
C2133 H2140 0.961 . S
C2133 H2141 0.960 . S
C2134 C2132 1.381 . S
C2134 C2135 1.394 . S
C2134 H2142 0.930 . S
C2135 C2134 1.394 . S
C2135 C2136 1.383 . S
C2135 H2143 0.929 . S
C2136 C2135 1.383 . S
C2136 C2137 1.377 . S
C2137 H2121 0.930 . S
C2137 C2136 1.377 . S
C2137 C2138 1.379 . S
C2138 H2122 0.931 . S
C2138 C2132 1.383 . S
C2138 C2137 1.379 . S
H2139 C2133 0.959 . S
H2140 C2133 0.961 . S
H2141 C2133 0.960 . S
H2142 C2134 0.930 . S
H2143 C2135 0.929 . S
H2144 C2152 0.929 . S
H2145 C2154 0.930 . S
H2146 C2156 0.930 . S
H2147 C2159 0.929 . S
H2148 C2162 0.930 . S
H2149 C2164 0.960 . S
H2150 C2164 0.960 . S
H2151 C2164 0.960 . S
C2152 H2144 0.929 . S
C2152 C2153 1.377 . S
C2152 C2154 1.384 . S
C2153 C2152 1.377 . S
C2153 C2159 1.390 . S
C2154 H2145 0.930 . S
C2154 C2152 1.384 . S
C2154 C2155 1.372 . S
C2155 C2154 1.372 . S
C2155 C2156 1.400 . S
C2155 C2160 1.490 . S
C2156 H2146 0.930 . S
C2156 C2155 1.400 . S
C2156 C2159 1.386 . S
H2157 C2173 0.930 . S
H2158 C2174 0.931 . S
C2159 H2147 0.929 . S
C2159 C2153 1.390 . S
C2159 C2156 1.386 . S
C2160 C2155 1.490 . S
C2160 C2162 1.395 . S
C2160 C2163 1.403 . S
H2161 C2167 0.930 . S
C2162 H2148 0.930 . S
C2162 C2160 1.395 . S
C2162 C2165 1.403 . S
C2163 C2160 1.403 . S
C2163 C2164 1.524 . S
C2163 C2167 1.400 . S
C2164 H2149 0.960 . S
C2164 H2150 0.960 . S
C2164 H2151 0.960 . S
C2164 C2163 1.524 . S
C2165 C2162 1.403 . S
C2165 C2166 1.392 . S
C2165 C2169 1.495 . S
C2166 C2165 1.392 . S
C2166 C2167 1.385 . S
C2166 C2168 1.478 . S
C2167 H2161 0.930 . S
C2167 C2163 1.400 . S
C2167 C2166 1.385 . S
C2168 C2166 1.478 . S
C2168 C2170 1.381 . S
C2168 C2174 1.383 . S
C2169 C2165 1.495 . S
C2169 H2175 0.959 . S
C2169 H2176 0.961 . S
C2169 H2177 0.960 . S
C2170 C2168 1.381 . S
C2170 C2171 1.394 . S
C2170 H2178 0.930 . S
C2171 C2170 1.394 . S
C2171 C2172 1.383 . S
C2171 H2179 0.929 . S
C2172 C2171 1.383 . S
C2172 C2173 1.377 . S
C2173 H2157 0.930 . S
C2173 C2172 1.377 . S
C2173 C2174 1.379 . S
C2174 H2158 0.931 . S
C2174 C2168 1.383 . S
C2174 C2173 1.379 . S
H2175 C2169 0.959 . S
H2176 C2169 0.961 . S
H2177 C2169 0.960 . S
H2178 C2170 0.930 . S
H2179 C2171 0.929 . S
H2180 C2188 0.929 . S
H2181 C2190 0.930 . S
H2182 C2192 0.930 . S
H2183 C2195 0.929 . S
H2184 C2198 0.930 . S
H2185 C2200 0.960 . S
H2186 C2200 0.960 . S
H2187 C2200 0.960 . S
C2188 H2180 0.929 . S
C2188 C2189 1.377 . S
C2188 C2190 1.384 . S
C2189 C2188 1.377 . S
C2189 C2195 1.390 . S
C2190 H2181 0.930 . S
C2190 C2188 1.384 . S
C2190 C2191 1.372 . S
C2191 C2190 1.372 . S
C2191 C2192 1.400 . S
C2191 C2196 1.490 . S
C2192 H2182 0.930 . S
C2192 C2191 1.400 . S
C2192 C2195 1.386 . S
H2193 C2209 0.930 . S
H2194 C2210 0.931 . S
C2195 H2183 0.929 . S
C2195 C2189 1.390 . S
C2195 C2192 1.386 . S
C2196 C2191 1.490 . S
C2196 C2198 1.395 . S
C2196 C2199 1.403 . S
H2197 C2203 0.930 . S
C2198 H2184 0.930 . S
C2198 C2196 1.395 . S
C2198 C2201 1.403 . S
C2199 C2196 1.403 . S
C2199 C2200 1.524 . S
C2199 C2203 1.400 . S
C2200 H2185 0.960 . S
C2200 H2186 0.960 . S
C2200 H2187 0.960 . S
C2200 C2199 1.524 . S
C2201 C2198 1.403 . S
C2201 C2202 1.392 . S
C2201 C2205 1.495 . S
C2202 C2201 1.392 . S
C2202 C2203 1.385 . S
C2202 C2204 1.478 . S
C2203 H2197 0.930 . S
C2203 C2199 1.400 . S
C2203 C2202 1.385 . S
C2204 C2202 1.478 . S
C2204 C2206 1.381 . S
C2204 C2210 1.383 . S
C2205 C2201 1.495 . S
C2205 H2211 0.959 . S
C2205 H2212 0.961 . S
C2205 H2213 0.960 . S
C2206 C2204 1.381 . S
C2206 C2207 1.394 . S
C2206 H2214 0.930 . S
C2207 C2206 1.394 . S
C2207 C2208 1.383 . S
C2207 H2215 0.929 . S
C2208 C2207 1.383 . S
C2208 C2209 1.377 . S
C2209 H2193 0.930 . S
C2209 C2208 1.377 . S
C2209 C2210 1.379 . S
C2210 H2194 0.931 . S
C2210 C2204 1.383 . S
C2210 C2209 1.379 . S
H2211 C2205 0.959 . S
H2212 C2205 0.961 . S
H2213 C2205 0.960 . S
H2214 C2206 0.930 . S
H2215 C2207 0.929 . S
H2216 C2224 0.929 . S
H2217 C2226 0.930 . S
H2218 C2228 0.930 . S
H2219 C2231 0.929 . S
H2220 C2234 0.930 . S
H2221 C2236 0.960 . S
H2222 C2236 0.960 . S
H2223 C2236 0.960 . S
C2224 H2216 0.929 . S
C2224 C2225 1.377 . S
C2224 C2226 1.384 . S
C2225 C2224 1.377 . S
C2225 C2231 1.390 . S
C2226 H2217 0.930 . S
C2226 C2224 1.384 . S
C2226 C2227 1.372 . S
C2227 C2226 1.372 . S
C2227 C2228 1.400 . S
C2227 C2232 1.490 . S
C2228 H2218 0.930 . S
C2228 C2227 1.400 . S
C2228 C2231 1.386 . S
H2229 C2245 0.930 . S
H2230 C2246 0.931 . S
C2231 H2219 0.929 . S
C2231 C2225 1.390 . S
C2231 C2228 1.386 . S
C2232 C2227 1.490 . S
C2232 C2234 1.395 . S
C2232 C2235 1.403 . S
H2233 C2239 0.930 . S
C2234 H2220 0.930 . S
C2234 C2232 1.395 . S
C2234 C2237 1.403 . S
C2235 C2232 1.403 . S
C2235 C2236 1.524 . S
C2235 C2239 1.400 . S
C2236 H2221 0.960 . S
C2236 H2222 0.960 . S
C2236 H2223 0.960 . S
C2236 C2235 1.524 . S
C2237 C2234 1.403 . S
C2237 C2238 1.392 . S
C2237 C2241 1.495 . S
C2238 C2237 1.392 . S
C2238 C2239 1.385 . S
C2238 C2240 1.478 . S
C2239 H2233 0.930 . S
C2239 C2235 1.400 . S
C2239 C2238 1.385 . S
C2240 C2238 1.478 . S
C2240 C2242 1.381 . S
C2240 C2246 1.383 . S
C2241 C2237 1.495 . S
C2241 H2247 0.959 . S
C2241 H2248 0.961 . S
C2241 H2249 0.960 . S
C2242 C2240 1.381 . S
C2242 C2243 1.394 . S
C2242 H2250 0.930 . S
C2243 C2242 1.394 . S
C2243 C2244 1.383 . S
C2243 H2251 0.929 . S
C2244 C2243 1.383 . S
C2244 C2245 1.377 . S
C2245 H2229 0.930 . S
C2245 C2244 1.377 . S
C2245 C2246 1.379 . S
C2246 H2230 0.931 . S
C2246 C2240 1.383 . S
C2246 C2245 1.379 . S
H2247 C2241 0.959 . S
H2248 C2241 0.961 . S
H2249 C2241 0.960 . S
H2250 C2242 0.930 . S
H2251 C2243 0.929 . S
H2252 C2260 0.929 . S
H2253 C2262 0.930 . S
H2254 C2264 0.930 . S
H2255 C2267 0.929 . S
H2256 C2270 0.930 . S
H2257 C2272 0.960 . S
H2258 C2272 0.960 . S
H2259 C2272 0.960 . S
C2260 H2252 0.929 . S
C2260 C2261 1.377 . S
C2260 C2262 1.384 . S
C2261 C2260 1.377 . S
C2261 C2267 1.390 . S
C2262 H2253 0.930 . S
C2262 C2260 1.384 . S
C2262 C2263 1.372 . S
C2263 C2262 1.372 . S
C2263 C2264 1.400 . S
C2263 C2268 1.490 . S
C2264 H2254 0.930 . S
C2264 C2263 1.400 . S
C2264 C2267 1.386 . S
H2265 C2281 0.930 . S
H2266 C2282 0.931 . S
C2267 H2255 0.929 . S
C2267 C2261 1.390 . S
C2267 C2264 1.386 . S
C2268 C2263 1.490 . S
C2268 C2270 1.395 . S
C2268 C2271 1.403 . S
H2269 C2275 0.930 . S
C2270 H2256 0.930 . S
C2270 C2268 1.395 . S
C2270 C2273 1.403 1_655 S
C2271 C2268 1.403 . S
C2271 C2272 1.524 . S
C2271 C2275 1.400 1_655 S
C2272 H2257 0.960 . S
C2272 H2258 0.960 . S
C2272 H2259 0.960 . S
C2272 C2271 1.524 . S
C2273 C2270 1.403 1_455 S
C2273 C2274 1.392 . S
C2273 C2277 1.495 . S
C2274 C2273 1.392 . S
C2274 C2275 1.385 . S
C2274 C2276 1.478 . S
C2275 H2269 0.930 . S
C2275 C2271 1.400 1_455 S
C2275 C2274 1.385 . S
C2276 C2274 1.478 . S
C2276 C2278 1.381 . S
C2276 C2282 1.383 . S
C2277 C2273 1.495 . S
C2277 H2283 0.959 . S
C2277 H2284 0.961 . S
C2277 H2285 0.960 . S
C2278 C2276 1.381 . S
C2278 C2279 1.394 . S
C2278 H2286 0.930 . S
C2279 C2278 1.394 . S
C2279 C2280 1.383 . S
C2279 H2287 0.929 . S
C2280 C2279 1.383 . S
C2280 C2281 1.377 . S
C2281 H2265 0.930 . S
C2281 C2280 1.377 . S
C2281 C2282 1.379 . S
C2282 H2266 0.931 . S
C2282 C2276 1.383 . S
C2282 C2281 1.379 . S
H2283 C2277 0.959 . S
H2284 C2277 0.961 . S
H2285 C2277 0.960 . S
H2286 C2278 0.930 . S
H2287 C2279 0.929 . S
H2288 C2296 0.929 . S
H2289 C2298 0.930 . S
H2290 C2300 0.930 . S
H2291 C2303 0.929 . S
H2292 C2306 0.930 . S
H2293 C2308 0.960 . S
H2294 C2308 0.960 . S
H2295 C2308 0.960 . S
C2296 H2288 0.929 . S
C2296 C2297 1.377 . S
C2296 C2298 1.384 . S
C2297 C2296 1.377 . S
C2297 C2303 1.390 . S
C2298 H2289 0.930 . S
C2298 C2296 1.384 . S
C2298 C2299 1.372 . S
C2299 C2298 1.372 . S
C2299 C2300 1.400 . S
C2299 C2304 1.490 . S
C2300 H2290 0.930 . S
C2300 C2299 1.400 . S
C2300 C2303 1.386 . S
H2301 C2317 0.930 . S
H2302 C2318 0.931 . S
C2303 H2291 0.929 . S
C2303 C2297 1.390 . S
C2303 C2300 1.386 . S
C2304 C2299 1.490 . S
C2304 C2306 1.395 . S
C2304 C2307 1.403 . S
H2305 C2311 0.930 . S
C2306 H2292 0.930 . S
C2306 C2304 1.395 . S
C2306 C2309 1.403 . S
C2307 C2304 1.403 . S
C2307 C2308 1.524 . S
C2307 C2311 1.400 . S
C2308 H2293 0.960 . S
C2308 H2294 0.960 . S
C2308 H2295 0.960 . S
C2308 C2307 1.524 . S
C2309 C2306 1.403 . S
C2309 C2310 1.392 . S
C2309 C2313 1.495 . S
C2310 C2309 1.392 . S
C2310 C2311 1.385 . S
C2310 C2312 1.478 . S
C2311 H2305 0.930 . S
C2311 C2307 1.400 . S
C2311 C2310 1.385 . S
C2312 C2310 1.478 . S
C2312 C2314 1.381 . S
C2312 C2318 1.383 . S
C2313 C2309 1.495 . S
C2313 H2319 0.959 . S
C2313 H2320 0.961 . S
C2313 H2321 0.960 . S
C2314 C2312 1.381 . S
C2314 C2315 1.394 . S
C2314 H2322 0.930 . S
C2315 C2314 1.394 . S
C2315 C2316 1.383 . S
C2315 H2323 0.929 . S
C2316 C2315 1.383 . S
C2316 C2317 1.377 . S
C2317 H2301 0.930 . S
C2317 C2316 1.377 . S
C2317 C2318 1.379 . S
C2318 H2302 0.931 . S
C2318 C2312 1.383 . S
C2318 C2317 1.379 . S
H2319 C2313 0.959 . S
H2320 C2313 0.961 . S
H2321 C2313 0.960 . S
H2322 C2314 0.930 . S
H2323 C2315 0.929 . S
H2324 C2332 0.929 . S
H2325 C2334 0.930 . S
H2326 C2336 0.930 . S
H2327 C2339 0.929 . S
H2328 C2342 0.930 . S
H2329 C2344 0.960 . S
H2330 C2344 0.960 . S
H2331 C2344 0.960 . S
C2332 H2324 0.929 . S
C2332 C2333 1.377 . S
C2332 C2334 1.384 . S
C2333 C2332 1.377 . S
C2333 C2339 1.390 . S
C2334 H2325 0.930 . S
C2334 C2332 1.384 . S
C2334 C2335 1.372 . S
C2335 C2334 1.372 . S
C2335 C2336 1.400 . S
C2335 C2340 1.490 . S
C2336 H2326 0.930 . S
C2336 C2335 1.400 . S
C2336 C2339 1.386 . S
H2337 C2353 0.930 . S
H2338 C2354 0.931 . S
C2339 H2327 0.929 . S
C2339 C2333 1.390 . S
C2339 C2336 1.386 . S
C2340 C2335 1.490 . S
C2340 C2342 1.395 . S
C2340 C2343 1.403 . S
H2341 C2347 0.930 . S
C2342 H2328 0.930 . S
C2342 C2340 1.395 . S
C2342 C2345 1.403 1_655 S
C2343 C2340 1.403 . S
C2343 C2344 1.524 . S
C2343 C2347 1.400 1_655 S
C2344 H2329 0.960 . S
C2344 H2330 0.960 . S
C2344 H2331 0.960 . S
C2344 C2343 1.524 . S
C2345 C2342 1.403 1_455 S
C2345 C2346 1.392 . S
C2345 C2349 1.495 . S
C2346 C2345 1.392 . S
C2346 C2347 1.385 . S
C2346 C2348 1.478 . S
C2347 H2341 0.930 . S
C2347 C2343 1.400 1_455 S
C2347 C2346 1.385 . S
C2348 C2346 1.478 . S
C2348 C2350 1.381 . S
C2348 C2354 1.383 . S
C2349 C2345 1.495 . S
C2349 H2355 0.959 . S
C2349 H2356 0.961 . S
C2349 H2357 0.960 . S
C2350 C2348 1.381 . S
C2350 C2351 1.394 . S
C2350 H2358 0.930 . S
C2351 C2350 1.394 . S
C2351 C2352 1.383 . S
C2351 H2359 0.929 . S
C2352 C2351 1.383 . S
C2352 C2353 1.377 . S
C2353 H2337 0.930 . S
C2353 C2352 1.377 . S
C2353 C2354 1.379 . S
C2354 H2338 0.931 . S
C2354 C2348 1.383 . S
C2354 C2353 1.379 . S
H2355 C2349 0.959 . S
H2356 C2349 0.961 . S
H2357 C2349 0.960 . S
H2358 C2350 0.930 . S
H2359 C2351 0.929 . S
H2360 C2368 0.929 . S
H2361 C2370 0.930 . S
H2362 C2372 0.930 . S
H2363 C2375 0.929 . S
H2364 C2378 0.930 . S
H2365 C2380 0.960 . S
H2366 C2380 0.960 . S
H2367 C2380 0.960 . S
C2368 H2360 0.929 . S
C2368 C2369 1.377 . S
C2368 C2370 1.384 . S
C2369 C2368 1.377 . S
C2369 C2375 1.390 . S
C2370 H2361 0.930 . S
C2370 C2368 1.384 . S
C2370 C2371 1.372 . S
C2371 C2370 1.372 . S
C2371 C2372 1.400 . S
C2371 C2376 1.490 . S
C2372 H2362 0.930 . S
C2372 C2371 1.400 . S
C2372 C2375 1.386 . S
H2373 C2389 0.930 . S
H2374 C2390 0.931 . S
C2375 H2363 0.929 . S
C2375 C2369 1.390 . S
C2375 C2372 1.386 . S
C2376 C2371 1.490 . S
C2376 C2378 1.395 . S
C2376 C2379 1.403 . S
H2377 C2383 0.930 . S
C2378 H2364 0.930 . S
C2378 C2376 1.395 . S
C2378 C2381 1.403 . S
C2379 C2376 1.403 . S
C2379 C2380 1.524 . S
C2379 C2383 1.400 . S
C2380 H2365 0.960 . S
C2380 H2366 0.960 . S
C2380 H2367 0.960 . S
C2380 C2379 1.524 . S
C2381 C2378 1.403 . S
C2381 C2382 1.392 . S
C2381 C2385 1.495 . S
C2382 C2381 1.392 . S
C2382 C2383 1.385 . S
C2382 C2384 1.478 . S
C2383 H2377 0.930 . S
C2383 C2379 1.400 . S
C2383 C2382 1.385 . S
C2384 C2382 1.478 . S
C2384 C2386 1.381 . S
C2384 C2390 1.383 . S
C2385 C2381 1.495 . S
C2385 H2391 0.959 . S
C2385 H2392 0.961 . S
C2385 H2393 0.960 . S
C2386 C2384 1.381 . S
C2386 C2387 1.394 . S
C2386 H2394 0.930 . S
C2387 C2386 1.394 . S
C2387 C2388 1.383 . S
C2387 H2395 0.929 . S
C2388 C2387 1.383 . S
C2388 C2389 1.377 . S
C2389 H2373 0.930 . S
C2389 C2388 1.377 . S
C2389 C2390 1.379 . S
C2390 H2374 0.931 . S
C2390 C2384 1.383 . S
C2390 C2389 1.379 . S
H2391 C2385 0.959 . S
H2392 C2385 0.961 . S
H2393 C2385 0.960 . S
H2394 C2386 0.930 . S
H2395 C2387 0.929 . S
H2396 C2404 0.929 . S
H2397 C2406 0.930 . S
H2398 C2408 0.930 . S
H2399 C2411 0.929 . S
H2400 C2414 0.930 . S
H2401 C2416 0.960 . S
H2402 C2416 0.960 . S
H2403 C2416 0.960 . S
C2404 H2396 0.929 . S
C2404 C2405 1.377 . S
C2404 C2406 1.384 . S
C2405 C2404 1.377 . S
C2405 C2411 1.390 . S
C2406 H2397 0.930 . S
C2406 C2404 1.384 . S
C2406 C2407 1.372 . S
C2407 C2406 1.372 . S
C2407 C2408 1.400 . S
C2407 C2412 1.490 . S
C2408 H2398 0.930 . S
C2408 C2407 1.400 . S
C2408 C2411 1.386 . S
H2409 C2425 0.930 . S
H2410 C2426 0.931 . S
C2411 H2399 0.929 . S
C2411 C2405 1.390 . S
C2411 C2408 1.386 . S
C2412 C2407 1.490 . S
C2412 C2414 1.395 . S
C2412 C2415 1.403 . S
H2413 C2419 0.930 . S
C2414 H2400 0.930 . S
C2414 C2412 1.395 . S
C2414 C2417 1.403 . S
C2415 C2412 1.403 . S
C2415 C2416 1.524 . S
C2415 C2419 1.400 . S
C2416 H2401 0.960 . S
C2416 H2402 0.960 . S
C2416 H2403 0.960 . S
C2416 C2415 1.524 . S
C2417 C2414 1.403 . S
C2417 C2418 1.392 . S
C2417 C2421 1.495 . S
C2418 C2417 1.392 . S
C2418 C2419 1.385 . S
C2418 C2420 1.478 . S
C2419 H2413 0.930 . S
C2419 C2415 1.400 . S
C2419 C2418 1.385 . S
C2420 C2418 1.478 . S
C2420 C2422 1.381 . S
C2420 C2426 1.383 . S
C2421 C2417 1.495 . S
C2421 H2427 0.959 . S
C2421 H2428 0.961 . S
C2421 H2429 0.960 . S
C2422 C2420 1.381 . S
C2422 C2423 1.394 . S
C2422 H2430 0.930 . S
C2423 C2422 1.394 . S
C2423 C2424 1.383 . S
C2423 H2431 0.929 . S
C2424 C2423 1.383 . S
C2424 C2425 1.377 . S
C2425 H2409 0.930 . S
C2425 C2424 1.377 . S
C2425 C2426 1.379 . S
C2426 H2410 0.931 . S
C2426 C2420 1.383 . S
C2426 C2425 1.379 . S
H2427 C2421 0.959 . S
H2428 C2421 0.961 . S
H2429 C2421 0.960 . S
H2430 C2422 0.930 . S
H2431 C2423 0.929 . S
H2432 C2440 0.929 . S
H2433 C2442 0.930 . S
H2434 C2444 0.930 . S
H2435 C2447 0.929 . S
H2436 C2450 0.930 . S
H2437 C2452 0.960 . S
H2438 C2452 0.960 . S
H2439 C2452 0.960 . S
C2440 H2432 0.929 . S
C2440 C2441 1.377 . S
C2440 C2442 1.384 . S
C2441 C2440 1.377 . S
C2441 C2447 1.390 . S
C2442 H2433 0.930 . S
C2442 C2440 1.384 . S
C2442 C2443 1.372 . S
C2443 C2442 1.372 . S
C2443 C2444 1.400 . S
C2443 C2448 1.490 . S
C2444 H2434 0.930 . S
C2444 C2443 1.400 . S
C2444 C2447 1.386 . S
H2445 C2461 0.930 . S
H2446 C2462 0.931 . S
C2447 H2435 0.929 . S
C2447 C2441 1.390 . S
C2447 C2444 1.386 . S
C2448 C2443 1.490 . S
C2448 C2450 1.395 . S
C2448 C2451 1.403 . S
H2449 C2455 0.930 . S
C2450 H2436 0.930 . S
C2450 C2448 1.395 . S
C2450 C2453 1.403 . S
C2451 C2448 1.403 . S
C2451 C2452 1.524 . S
C2451 C2455 1.400 . S
C2452 H2437 0.960 . S
C2452 H2438 0.960 . S
C2452 H2439 0.960 . S
C2452 C2451 1.524 . S
C2453 C2450 1.403 . S
C2453 C2454 1.392 . S
C2453 C2457 1.495 . S
C2454 C2453 1.392 . S
C2454 C2455 1.385 . S
C2454 C2456 1.478 . S
C2455 H2449 0.930 . S
C2455 C2451 1.400 . S
C2455 C2454 1.385 . S
C2456 C2454 1.478 . S
C2456 C2458 1.381 . S
C2456 C2462 1.383 . S
C2457 C2453 1.495 . S
C2457 H2463 0.959 . S
C2457 H2464 0.961 . S
C2457 H2465 0.960 . S
C2458 C2456 1.381 . S
C2458 C2459 1.394 . S
C2458 H2466 0.930 . S
C2459 C2458 1.394 . S
C2459 C2460 1.383 . S
C2459 H2467 0.929 . S
C2460 C2459 1.383 . S
C2460 C2461 1.377 . S
C2461 H2445 0.930 . S
C2461 C2460 1.377 . S
C2461 C2462 1.379 . S
C2462 H2446 0.931 . S
C2462 C2456 1.383 . S
C2462 C2461 1.379 . S
H2463 C2457 0.959 . S
H2464 C2457 0.961 . S
H2465 C2457 0.960 . S
H2466 C2458 0.930 . S
H2467 C2459 0.929 . S
H2468 C2476 0.929 . S
H2469 C2478 0.930 . S
H2470 C2480 0.930 . S
H2471 C2483 0.929 . S
H2472 C2486 0.930 . S
H2473 C2488 0.960 . S
H2474 C2488 0.960 . S
H2475 C2488 0.960 . S
C2476 H2468 0.929 . S
C2476 C2477 1.377 . S
C2476 C2478 1.384 . S
C2477 C2476 1.377 . S
C2477 C2483 1.390 . S
C2478 H2469 0.930 . S
C2478 C2476 1.384 . S
C2478 C2479 1.372 . S
C2479 C2478 1.372 . S
C2479 C2480 1.400 . S
C2479 C2484 1.490 . S
C2480 H2470 0.930 . S
C2480 C2479 1.400 . S
C2480 C2483 1.386 . S
H2481 C2497 0.930 . S
H2482 C2498 0.931 . S
C2483 H2471 0.929 . S
C2483 C2477 1.390 . S
C2483 C2480 1.386 . S
C2484 C2479 1.490 . S
C2484 C2486 1.395 . S
C2484 C2487 1.403 . S
H2485 C2491 0.930 . S
C2486 H2472 0.930 . S
C2486 C2484 1.395 . S
C2486 C2489 1.403 . S
C2487 C2484 1.403 . S
C2487 C2488 1.524 . S
C2487 C2491 1.400 . S
C2488 H2473 0.960 . S
C2488 H2474 0.960 . S
C2488 H2475 0.960 . S
C2488 C2487 1.524 . S
C2489 C2486 1.403 . S
C2489 C2490 1.392 . S
C2489 C2493 1.495 . S
C2490 C2489 1.392 . S
C2490 C2491 1.385 . S
C2490 C2492 1.478 . S
C2491 H2485 0.930 . S
C2491 C2487 1.400 . S
C2491 C2490 1.385 . S
C2492 C2490 1.478 . S
C2492 C2494 1.381 . S
C2492 C2498 1.383 . S
C2493 C2489 1.495 . S
C2493 H2499 0.959 . S
C2493 H2500 0.961 . S
C2493 H2501 0.960 . S
C2494 C2492 1.381 . S
C2494 C2495 1.394 . S
C2494 H2502 0.930 . S
C2495 C2494 1.394 . S
C2495 C2496 1.383 . S
C2495 H2503 0.929 . S
C2496 C2495 1.383 . S
C2496 C2497 1.377 . S
C2497 H2481 0.930 . S
C2497 C2496 1.377 . S
C2497 C2498 1.379 . S
C2498 H2482 0.931 . S
C2498 C2492 1.383 . S
C2498 C2497 1.379 . S
H2499 C2493 0.959 . S
H2500 C2493 0.961 . S
H2501 C2493 0.960 . S
H2502 C2494 0.930 . S
H2503 C2495 0.929 . S
H2504 C2512 0.929 . S
H2505 C2514 0.930 . S
H2506 C2516 0.930 . S
H2507 C2519 0.929 . S
H2508 C2522 0.930 . S
H2509 C2524 0.960 . S
H2510 C2524 0.960 . S
H2511 C2524 0.960 . S
C2512 H2504 0.929 . S
C2512 C2513 1.377 . S
C2512 C2514 1.384 . S
C2513 C2512 1.377 . S
C2513 C2519 1.390 . S
C2514 H2505 0.930 . S
C2514 C2512 1.384 . S
C2514 C2515 1.372 . S
C2515 C2514 1.372 . S
C2515 C2516 1.400 . S
C2515 C2520 1.490 . S
C2516 H2506 0.930 . S
C2516 C2515 1.400 . S
C2516 C2519 1.386 . S
H2517 C2533 0.930 . S
H2518 C2534 0.931 . S
C2519 H2507 0.929 . S
C2519 C2513 1.390 . S
C2519 C2516 1.386 . S
C2520 C2515 1.490 . S
C2520 C2522 1.395 . S
C2520 C2523 1.403 . S
H2521 C2527 0.930 . S
C2522 H2508 0.930 . S
C2522 C2520 1.395 . S
C2522 C2525 1.403 . S
C2523 C2520 1.403 . S
C2523 C2524 1.524 . S
C2523 C2527 1.400 . S
C2524 H2509 0.960 . S
C2524 H2510 0.960 . S
C2524 H2511 0.960 . S
C2524 C2523 1.524 . S
C2525 C2522 1.403 . S
C2525 C2526 1.392 . S
C2525 C2529 1.495 . S
C2526 C2525 1.392 . S
C2526 C2527 1.385 . S
C2526 C2528 1.478 . S
C2527 H2521 0.930 . S
C2527 C2523 1.400 . S
C2527 C2526 1.385 . S
C2528 C2526 1.478 . S
C2528 C2530 1.381 . S
C2528 C2534 1.383 . S
C2529 C2525 1.495 . S
C2529 H2535 0.959 . S
C2529 H2536 0.961 . S
C2529 H2537 0.960 . S
C2530 C2528 1.381 . S
C2530 C2531 1.394 . S
C2530 H2538 0.930 . S
C2531 C2530 1.394 . S
C2531 C2532 1.383 . S
C2531 H2539 0.929 . S
C2532 C2531 1.383 . S
C2532 C2533 1.377 . S
C2533 H2517 0.930 . S
C2533 C2532 1.377 . S
C2533 C2534 1.379 . S
C2534 H2518 0.931 . S
C2534 C2528 1.383 . S
C2534 C2533 1.379 . S
H2535 C2529 0.959 . S
H2536 C2529 0.961 . S
H2537 C2529 0.960 . S
H2538 C2530 0.930 . S
H2539 C2531 0.929 . S
H2540 C2548 0.929 . S
H2541 C2550 0.930 . S
H2542 C2552 0.930 . S
H2543 C2555 0.929 . S
H2544 C2558 0.930 . S
H2545 C2560 0.960 . S
H2546 C2560 0.960 . S
H2547 C2560 0.960 . S
C2548 H2540 0.929 . S
C2548 C2549 1.377 . S
C2548 C2550 1.384 . S
C2549 C2548 1.377 . S
C2549 C2555 1.390 . S
C2550 H2541 0.930 . S
C2550 C2548 1.384 . S
C2550 C2551 1.372 . S
C2551 C2550 1.372 . S
C2551 C2552 1.400 . S
C2551 C2556 1.490 . S
C2552 H2542 0.930 . S
C2552 C2551 1.400 . S
C2552 C2555 1.386 . S
H2553 C2569 0.930 . S
H2554 C2570 0.931 . S
C2555 H2543 0.929 . S
C2555 C2549 1.390 . S
C2555 C2552 1.386 . S
C2556 C2551 1.490 . S
C2556 C2558 1.395 . S
C2556 C2559 1.403 . S
H2557 C2563 0.930 . S
C2558 H2544 0.930 . S
C2558 C2556 1.395 . S
C2558 C2561 1.403 . S
C2559 C2556 1.403 . S
C2559 C2560 1.524 . S
C2559 C2563 1.400 . S
C2560 H2545 0.960 . S
C2560 H2546 0.960 . S
C2560 H2547 0.960 . S
C2560 C2559 1.524 . S
C2561 C2558 1.403 . S
C2561 C2562 1.392 . S
C2561 C2565 1.495 . S
C2562 C2561 1.392 . S
C2562 C2563 1.385 . S
C2562 C2564 1.478 . S
C2563 H2557 0.930 . S
C2563 C2559 1.400 . S
C2563 C2562 1.385 . S
C2564 C2562 1.478 . S
C2564 C2566 1.381 . S
C2564 C2570 1.383 . S
C2565 C2561 1.495 . S
C2565 H2571 0.959 . S
C2565 H2572 0.961 . S
C2565 H2573 0.960 . S
C2566 C2564 1.381 . S
C2566 C2567 1.394 . S
C2566 H2574 0.930 . S
C2567 C2566 1.394 . S
C2567 C2568 1.383 . S
C2567 H2575 0.929 . S
C2568 C2567 1.383 . S
C2568 C2569 1.377 . S
C2569 H2553 0.930 . S
C2569 C2568 1.377 . S
C2569 C2570 1.379 . S
C2570 H2554 0.931 . S
C2570 C2564 1.383 . S
C2570 C2569 1.379 . S
H2571 C2565 0.959 . S
H2572 C2565 0.961 . S
H2573 C2565 0.960 . S
H2574 C2566 0.930 . S
H2575 C2567 0.929 . S
H2576 C2584 0.929 . S
H2577 C2586 0.930 . S
H2578 C2588 0.930 . S
H2579 C2591 0.929 . S
H2580 C2594 0.930 . S
H2581 C2596 0.960 . S
H2582 C2596 0.960 . S
H2583 C2596 0.960 . S
C2584 H2576 0.929 . S
C2584 C2585 1.377 . S
C2584 C2586 1.384 . S
C2585 C2584 1.377 . S
C2585 C2591 1.390 . S
C2586 H2577 0.930 . S
C2586 C2584 1.384 . S
C2586 C2587 1.372 . S
C2587 C2586 1.372 . S
C2587 C2588 1.400 . S
C2587 C2592 1.490 . S
C2588 H2578 0.930 . S
C2588 C2587 1.400 . S
C2588 C2591 1.386 . S
H2589 C2605 0.930 . S
H2590 C2606 0.931 . S
C2591 H2579 0.929 . S
C2591 C2585 1.390 . S
C2591 C2588 1.386 . S
C2592 C2587 1.490 . S
C2592 C2594 1.395 . S
C2592 C2595 1.403 . S
H2593 C2599 0.930 . S
C2594 H2580 0.930 . S
C2594 C2592 1.395 . S
C2594 C2597 1.403 1_655 S
C2595 C2592 1.403 . S
C2595 C2596 1.524 . S
C2595 C2599 1.400 1_655 S
C2596 H2581 0.960 . S
C2596 H2582 0.960 . S
C2596 H2583 0.960 . S
C2596 C2595 1.524 . S
C2597 C2594 1.403 1_455 S
C2597 C2598 1.392 . S
C2597 C2601 1.495 . S
C2598 C2597 1.392 . S
C2598 C2599 1.385 . S
C2598 C2600 1.478 . S
C2599 H2593 0.930 . S
C2599 C2595 1.400 1_455 S
C2599 C2598 1.385 . S
C2600 C2598 1.478 . S
C2600 C2602 1.381 . S
C2600 C2606 1.383 . S
C2601 C2597 1.495 . S
C2601 H2607 0.959 . S
C2601 H2608 0.961 . S
C2601 H2609 0.960 . S
C2602 C2600 1.381 . S
C2602 C2603 1.394 . S
C2602 H2610 0.930 . S
C2603 C2602 1.394 . S
C2603 C2604 1.383 . S
C2603 H2611 0.929 . S
C2604 C2603 1.383 . S
C2604 C2605 1.377 . S
C2605 H2589 0.930 . S
C2605 C2604 1.377 . S
C2605 C2606 1.379 . S
C2606 H2590 0.931 . S
C2606 C2600 1.383 . S
C2606 C2605 1.379 . S
H2607 C2601 0.959 . S
H2608 C2601 0.961 . S
H2609 C2601 0.960 . S
H2610 C2602 0.930 . S
H2611 C2603 0.929 . S
H2612 C2620 0.929 . S
H2613 C2622 0.930 . S
H2614 C2624 0.930 . S
H2615 C2627 0.929 . S
H2616 C2630 0.930 . S
H2617 C2632 0.960 . S
H2618 C2632 0.960 . S
H2619 C2632 0.960 . S
C2620 H2612 0.929 . S
C2620 C2621 1.377 . S
C2620 C2622 1.384 . S
C2621 C2620 1.377 . S
C2621 C2627 1.390 . S
C2622 H2613 0.930 . S
C2622 C2620 1.384 . S
C2622 C2623 1.372 . S
C2623 C2622 1.372 . S
C2623 C2624 1.400 . S
C2623 C2628 1.490 . S
C2624 H2614 0.930 . S
C2624 C2623 1.400 . S
C2624 C2627 1.386 . S
H2625 C2641 0.930 . S
H2626 C2642 0.931 . S
C2627 H2615 0.929 . S
C2627 C2621 1.390 . S
C2627 C2624 1.386 . S
C2628 C2623 1.490 . S
C2628 C2630 1.395 . S
C2628 C2631 1.403 . S
H2629 C2635 0.930 . S
C2630 H2616 0.930 . S
C2630 C2628 1.395 . S
C2630 C2633 1.403 . S
C2631 C2628 1.403 . S
C2631 C2632 1.524 . S
C2631 C2635 1.400 . S
C2632 H2617 0.960 . S
C2632 H2618 0.960 . S
C2632 H2619 0.960 . S
C2632 C2631 1.524 . S
C2633 C2630 1.403 . S
C2633 C2634 1.392 . S
C2633 C2637 1.495 . S
C2634 C2633 1.392 . S
C2634 C2635 1.385 . S
C2634 C2636 1.478 . S
C2635 H2629 0.930 . S
C2635 C2631 1.400 . S
C2635 C2634 1.385 . S
C2636 C2634 1.478 . S
C2636 C2638 1.381 . S
C2636 C2642 1.383 . S
C2637 C2633 1.495 . S
C2637 H2643 0.959 . S
C2637 H2644 0.961 . S
C2637 H2645 0.960 . S
C2638 C2636 1.381 . S
C2638 C2639 1.394 . S
C2638 H2646 0.930 . S
C2639 C2638 1.394 . S
C2639 C2640 1.383 . S
C2639 H2647 0.929 . S
C2640 C2639 1.383 . S
C2640 C2641 1.377 . S
C2641 H2625 0.930 . S
C2641 C2640 1.377 . S
C2641 C2642 1.379 . S
C2642 H2626 0.931 . S
C2642 C2636 1.383 . S
C2642 C2641 1.379 . S
H2643 C2637 0.959 . S
H2644 C2637 0.961 . S
H2645 C2637 0.960 . S
H2646 C2638 0.930 . S
H2647 C2639 0.929 . S
H2648 C2656 0.929 . S
H2649 C2658 0.930 . S
H2650 C2660 0.930 . S
H2651 C2663 0.929 . S
H2652 C2666 0.930 . S
H2653 C2668 0.960 . S
H2654 C2668 0.960 . S
H2655 C2668 0.960 . S
C2656 H2648 0.929 . S
C2656 C2657 1.377 . S
C2656 C2658 1.384 . S
C2657 C2656 1.377 . S
C2657 C2663 1.390 . S
C2658 H2649 0.930 . S
C2658 C2656 1.384 . S
C2658 C2659 1.372 . S
C2659 C2658 1.372 . S
C2659 C2660 1.400 . S
C2659 C2664 1.490 . S
C2660 H2650 0.930 . S
C2660 C2659 1.400 . S
C2660 C2663 1.386 . S
H2661 C2677 0.930 . S
H2662 C2678 0.931 . S
C2663 H2651 0.929 . S
C2663 C2657 1.390 . S
C2663 C2660 1.386 . S
C2664 C2659 1.490 . S
C2664 C2666 1.395 . S
C2664 C2667 1.403 . S
H2665 C2671 0.930 . S
C2666 H2652 0.930 . S
C2666 C2664 1.395 . S
C2666 C2669 1.403 . S
C2667 C2664 1.403 . S
C2667 C2668 1.524 . S
C2667 C2671 1.400 . S
C2668 H2653 0.960 . S
C2668 H2654 0.960 . S
C2668 H2655 0.960 . S
C2668 C2667 1.524 . S
C2669 C2666 1.403 . S
C2669 C2670 1.392 . S
C2669 C2673 1.495 . S
C2670 C2669 1.392 . S
C2670 C2671 1.385 . S
C2670 C2672 1.478 . S
C2671 H2665 0.930 . S
C2671 C2667 1.400 . S
C2671 C2670 1.385 . S
C2672 C2670 1.478 . S
C2672 C2674 1.381 . S
C2672 C2678 1.383 . S
C2673 C2669 1.495 . S
C2673 H2679 0.959 . S
C2673 H2680 0.961 . S
C2673 H2681 0.960 . S
C2674 C2672 1.381 . S
C2674 C2675 1.394 . S
C2674 H2682 0.930 . S
C2675 C2674 1.394 . S
C2675 C2676 1.383 . S
C2675 H2683 0.929 . S
C2676 C2675 1.383 . S
C2676 C2677 1.377 . S
C2677 H2661 0.930 . S
C2677 C2676 1.377 . S
C2677 C2678 1.379 . S
C2678 H2662 0.931 . S
C2678 C2672 1.383 . S
C2678 C2677 1.379 . S
H2679 C2673 0.959 . S
H2680 C2673 0.961 . S
H2681 C2673 0.960 . S
H2682 C2674 0.930 . S
H2683 C2675 0.929 . S
H2684 C2692 0.929 . S
H2685 C2694 0.930 . S
H2686 C2696 0.930 . S
H2687 C2699 0.929 . S
H2688 C2702 0.930 . S
H2689 C2704 0.960 . S
H2690 C2704 0.960 . S
H2691 C2704 0.960 . S
C2692 H2684 0.929 . S
C2692 C2693 1.377 . S
C2692 C2694 1.384 . S
C2693 C2692 1.377 . S
C2693 C2699 1.390 . S
C2694 H2685 0.930 . S
C2694 C2692 1.384 . S
C2694 C2695 1.372 . S
C2695 C2694 1.372 . S
C2695 C2696 1.400 . S
C2695 C2700 1.490 . S
C2696 H2686 0.930 . S
C2696 C2695 1.400 . S
C2696 C2699 1.386 . S
H2697 C2713 0.930 . S
H2698 C2714 0.931 . S
C2699 H2687 0.929 . S
C2699 C2693 1.390 . S
C2699 C2696 1.386 . S
C2700 C2695 1.490 . S
C2700 C2702 1.395 . S
C2700 C2703 1.403 . S
H2701 C2707 0.930 . S
C2702 H2688 0.930 . S
C2702 C2700 1.395 . S
C2702 C2705 1.403 1_655 S
C2703 C2700 1.403 . S
C2703 C2704 1.524 . S
C2703 C2707 1.400 1_655 S
C2704 H2689 0.960 . S
C2704 H2690 0.960 . S
C2704 H2691 0.960 . S
C2704 C2703 1.524 . S
C2705 C2702 1.403 1_455 S
C2705 C2706 1.392 . S
C2705 C2709 1.495 . S
C2706 C2705 1.392 . S
C2706 C2707 1.385 . S
C2706 C2708 1.478 . S
C2707 H2701 0.930 . S
C2707 C2703 1.400 1_455 S
C2707 C2706 1.385 . S
C2708 C2706 1.478 . S
C2708 C2710 1.381 . S
C2708 C2714 1.383 . S
C2709 C2705 1.495 . S
C2709 H2715 0.959 . S
C2709 H2716 0.961 . S
C2709 H2717 0.960 . S
C2710 C2708 1.381 . S
C2710 C2711 1.394 . S
C2710 H2718 0.930 . S
C2711 C2710 1.394 . S
C2711 C2712 1.383 . S
C2711 H2719 0.929 . S
C2712 C2711 1.383 . S
C2712 C2713 1.377 . S
C2713 H2697 0.930 . S
C2713 C2712 1.377 . S
C2713 C2714 1.379 . S
C2714 H2698 0.931 . S
C2714 C2708 1.383 . S
C2714 C2713 1.379 . S
H2715 C2709 0.959 . S
H2716 C2709 0.961 . S
H2717 C2709 0.960 . S
H2718 C2710 0.930 . S
H2719 C2711 0.929 . S
C425 C309 1.354 . S
C444 C10 1.349 . S
C461 C270 1.358 . S
C480 C23 1.332 . S
C497 C283 1.358 . S
C516 C36 1.338 . S
C533 C296 1.359 . S
C552 C49 1.324 . S
C569 C62 1.348 . S
C588 C231 1.381 . S
C605 C244 1.356 . S
C624 C75 1.346 . S
C641 C88 1.359 . S
C660 C257 1.327 . S
C677 C101 1.350 . S
C696 C218 1.376 . S
C713 C413 1.356 . S
C732 C114 1.380 . S
C749 C127 1.352 . S
C768 C374 1.321 . S
C785 C140 1.349 . S
C804 C387 1.320 . S
C821 C153 1.350 . S
C840 C400 1.320 . S
C857 C166 1.354 . S
C876 C335 1.328 . S
C893 C179 1.360 . S
C912 C348 1.382 . S
C929 C192 1.359 . S
C948 C361 1.351 . S
C965 C205 1.360 . S
C984 C322 1.357 . S
C1001 C8 1.475 . S
C1020 C164 1.470 . S
C1037 C385 1.467 . S
C1056 C21 1.483 . S
C1073 C34 1.472 . S
C1092 C190 1.448 . S
C1109 C411 1.474 . S
C1128 C47 1.447 . S
C1145 C112 1.474 . S
C1164 C60 1.448 . S
C1181 C73 1.474 . S
C1200 C333 1.476 . S
C1217 C86 1.469 . S
C1236 C138 1.458 . S
C1253 C99 1.471 . S
C1272 C359 1.452 . S
C1289 C281 1.475 . S
C1308 C125 1.448 . S
C1325 C307 1.467 . S
C1344 C151 1.472 . S
C1361 C177 1.473 . S
C1380 C229 1.447 . S
C1397 C255 1.476 . S
C1416 C203 1.457 . S
C1433 C372 1.473 . S
C1452 C216 1.447 . S
C1469 C242 1.474 . S
C1488 C398 1.447 . S
C1505 C320 1.474 . S
C1524 C268 1.448 . S
C1541 C346 1.471 . S
C1560 C294 1.487 . S
C1577 C52 0.971 . S
C1596 C0 0.963 . S
C1613 C65 0.971 . S
C1632 C13 0.944 . S
C1649 C26 0.978 . S
C1668 C78 0.994 . S
C1685 C39 0.982 . S
C1704 C91 1.006 . S
C1721 C156 0.969 . S
C1740 C104 0.992 . S
C1757 C169 0.973 . S
C1776 C117 1.006 . S
C1793 C182 0.970 . S
C1812 C130 0.998 . S
C1829 C143 0.976 . S
C1848 C195 0.942 . S
C1865 C208 0.971 . S
C1884 C260 0.961 . S
C1901 C221 0.971 . S
C1920 C273 0.944 . S
C1937 C234 0.978 . S
C1956 C286 0.996 . S
C1973 C247 0.976 . S
C1992 C299 0.988 . S
C2009 C364 0.972 . S
C2028 C312 0.950 . S
C2045 C377 0.975 . S
C2064 C325 1.006 . S
C2081 C390 0.979 . S
C2100 C338 0.943 . S
C2117 C403 0.976 . S
C2136 C351 0.942 . S
C2153 C395 1.194 . S
C2172 C5 1.154 . S
C2189 C18 1.179 . S
C2208 C200 1.216 . S
C2225 C369 1.191 . S
C2244 C31 1.145 . S
C2261 C44 1.194 . S
C2280 C174 1.173 . S
C2297 C343 1.179 . S
C2316 C57 1.192 . S
C2333 C70 1.193 . S
C2352 C148 1.149 . S
C2369 C83 1.179 . S
C2388 C317 1.186 . S
C2405 C122 1.191 . S
C2424 C96 1.202 . S
C2441 C109 1.182 . S
C2460 C291 1.164 . S
C2477 C265 1.194 . S
C2496 C135 1.151 . S
C2513 C161 1.187 . S
C2532 C239 1.148 . S
C2549 C187 1.193 . S
C2568 C213 1.148 . S
C2585 C408 1.194 . S
C2604 C226 1.184 . S
C2621 C252 1.193 . S
C2640 C382 1.192 . S
C2657 C278 1.191 . S
C2676 C356 1.145 . S
C2693 C330 1.194 . S
C2712 C304 1.160 . S
