# Generated by pormake.
# Topology smm, (6)-cn, num edge types: 1
# Building blocks:
#     Node 0, Type 0, BuildingBlock: BETDIP_clean_sbu_0, # of connection points: 6
#     Node 1, Type 0, BuildingBlock: BETDIP_clean_sbu_0, # of connection points: 6
#     Node 2, Type 0, BuildingBlock: BETDIP_clean_sbu_0, # of connection points: 6
#     Node 3, Type 0, BuildingBlock: BETDIP_clean_sbu_0, # of connection points: 6
#     Node 4, Type 0, BuildingBlock: BETDIP_clean_sbu_0, # of connection points: 6
#     Node 5, Type 0, BuildingBlock: BETDIP_clean_sbu_0, # of connection points: 6
#     Node 6, Type 0, BuildingBlock: BETDIP_clean_sbu_0, # of connection points: 6
#     Node 7, Type 0, BuildingBlock: BETDIP_clean_sbu_0, # of connection points: 6
#     Node 8, Type 0, BuildingBlock: BETDIP_clean_sbu_0, # of connection points: 6
#     Edge 9, Type (0, 0), BuildingBlock: MIFKUJ_clean_linker_0, # of connection points: 2
#     Edge 10, Type (0, 0), BuildingBlock: MIFKUJ_clean_linker_0, # of connection points: 2
#     Edge 11, Type (0, 0), BuildingBlock: MIFKUJ_clean_linker_0, # of connection points: 2
#     Edge 12, Type (0, 0), BuildingBlock: MIFKUJ_clean_linker_0, # of connection points: 2
#     Edge 13, Type (0, 0), BuildingBlock: MIFKUJ_clean_linker_0, # of connection points: 2
#     Edge 14, Type (0, 0), BuildingBlock: MIFKUJ_clean_linker_0, # of connection points: 2
#     Edge 15, Type (0, 0), BuildingBlock: MIFKUJ_clean_linker_0, # of connection points: 2
#     Edge 16, Type (0, 0), BuildingBlock: MIFKUJ_clean_linker_0, # of connection points: 2
#     Edge 17, Type (0, 0), BuildingBlock: MIFKUJ_clean_linker_0, # of connection points: 2
#     Edge 18, Type (0, 0), BuildingBlock: MIFKUJ_clean_linker_0, # of connection points: 2
#     Edge 19, Type (0, 0), BuildingBlock: MIFKUJ_clean_linker_0, # of connection points: 2
#     Edge 20, Type (0, 0), BuildingBlock: MIFKUJ_clean_linker_0, # of connection points: 2
#     Edge 21, Type (0, 0), BuildingBlock: MIFKUJ_clean_linker_0, # of connection points: 2
#     Edge 22, Type (0, 0), BuildingBlock: MIFKUJ_clean_linker_0, # of connection points: 2
#     Edge 23, Type (0, 0), BuildingBlock: MIFKUJ_clean_linker_0, # of connection points: 2
#     Edge 24, Type (0, 0), BuildingBlock: MIFKUJ_clean_linker_0, # of connection points: 2
#     Edge 25, Type (0, 0), BuildingBlock: MIFKUJ_clean_linker_0, # of connection points: 2
#     Edge 26, Type (0, 0), BuildingBlock: MIFKUJ_clean_linker_0, # of connection points: 2
#     Edge 27, Type (0, 0), BuildingBlock: MIFKUJ_clean_linker_0, # of connection points: 2
#     Edge 28, Type (0, 0), BuildingBlock: MIFKUJ_clean_linker_0, # of connection points: 2
#     Edge 29, Type (0, 0), BuildingBlock: MIFKUJ_clean_linker_0, # of connection points: 2
#     Edge 30, Type (0, 0), BuildingBlock: MIFKUJ_clean_linker_0, # of connection points: 2
#     Edge 31, Type (0, 0), BuildingBlock: MIFKUJ_clean_linker_0, # of connection points: 2
#     Edge 32, Type (0, 0), BuildingBlock: MIFKUJ_clean_linker_0, # of connection points: 2
#     Edge 33, Type (0, 0), BuildingBlock: MIFKUJ_clean_linker_0, # of connection points: 2
#     Edge 34, Type (0, 0), BuildingBlock: MIFKUJ_clean_linker_0, # of connection points: 2
#     Edge 35, Type (0, 0), BuildingBlock: MIFKUJ_clean_linker_0, # of connection points: 2
# Relax obj value: 0.043
# Max RMSD: 0.118
# Mean RMSD: 0.118
data_MOF--net-smm--node1-BETDIP_clean_sbu_0--edge1-MIFKUJ_clean_linker_0
_symmetry_space_group_name_H-M    P1
_symmetry_Int_Tables_number       1
_symmetry_cell_setting            triclinic
loop_
_symmetry_equiv_pos_as_xyz
'x, y, z'
_cell_length_a     86.081161
_cell_length_b     85.999013
_cell_length_c     18.611858
_cell_angle_alpha  89.953795
_cell_angle_beta   90.051748
_cell_angle_gamma 120.01842
loop_
_atom_site_label
_atom_site_type_symbol
_atom_site_fract_x
_atom_site_fract_y
_atom_site_fract_z
_atom_type_partial_charge
Tb0 Tb 1.02392 0.2006 1e-05 0.0
Tb1 Tb 0.05714 0.19805 0.96446 0.0
C2 C 1.002 0.2079 0.06025 0.0
C3 C 0.99684 0.22199 0.06915 0.0
C4 C 1.00113 0.23209 0.13287 0.0
C5 C 0.994 0.24331 0.14712 0.0
C6 C 0.98225 0.24471 0.09813 0.0
C7 C 0.97852 0.23509 0.03309 0.0
C8 C 0.98563 0.22385 0.01897 0.0
C9 C 1.02749 0.19482 0.86415 0.0
C10 C 0.06087 0.2363 0.95677 0.0
C11 C 0.07985 0.1903 0.91572 0.0
C12 C 0.08677 0.17777 0.93049 0.0
C13 C 0.08214 0.16296 0.88528 0.0
C14 C 0.08984 0.15205 0.89495 0.0
C15 C 0.10256 0.15576 0.94966 0.0
C16 C 0.107 0.17043 -0.0046 0.0
C17 C 0.09925 0.18127 -0.01404 0.0
C18 C 0.05237 0.20234 0.10169 0.0
C19 C 1.01922 0.16203 -0.00858 0.0
O20 O 1.0169 0.21051 0.09039 0.0
O21 O 0.99925 0.19999 -0.00234 0.0
O22 O 0.03994 0.20464 0.90655 0.0
O23 O 1.01216 0.18944 0.89529 0.0
O24 O 0.04511 0.22922 -0.00978 0.0
O25 O 0.06699 0.22591 0.93175 0.0
O26 O 0.06352 0.18352 0.89038 0.0
O27 O 0.08356 0.20297 0.96286 0.0
O28 O 0.04052 0.19304 0.05667 0.0
O29 O 0.06788 0.20831 0.07191 0.0
O30 O 0.03567 0.16968 0.96414 0.0
O31 O 1.01259 0.17178 0.01873 0.0
H32 H 1.00953 0.23083 0.17304 0.0
H33 H 0.99714 0.25032 0.19803 0.0
H34 H 0.96987 0.23603 -0.00682 0.0
H35 H 0.98188 0.2162 0.96948 0.0
H36 H 0.07281 0.16003 0.8413 0.0
H37 H 0.08622 0.14103 0.85808 0.0
H38 H 0.11654 0.1736 0.03868 0.0
H39 H 0.10331 0.19261 0.02162 0.0
Tb40 Tb 0.86828 0.84397 -0.00579 0.0
Tb41 Tb 0.87057 0.8798 0.95979 0.0
C42 C 0.86162 0.81498 0.05512 0.0
C43 C 0.84869 0.79546 0.06303 0.0
C44 C 0.83029 0.78855 0.07599 0.0
C45 C 0.81894 0.77012 0.08985 0.0
C46 C 0.82574 0.7582 0.09124 0.0
C47 C 0.84413 0.76525 0.07718 0.0
C48 C 0.85539 0.78357 0.06327 0.0
C49 C 0.87403 0.85364 0.85828 0.0
C50 C 0.83251 0.84503 0.9507 0.0
C51 C 0.87825 0.9103 0.9114 0.0
C52 C 0.89099 0.92972 0.92558 0.0
C53 C 0.90427 0.94016 0.87483 0.0
C54 C 0.91522 0.95879 0.88402 0.0
C55 C 0.9131 0.96754 0.944 0.0
C56 C 0.90003 0.95701 -0.00453 0.0
C57 C 0.88914 0.93839 -0.01358 0.0
C58 C 0.86563 0.87007 0.096 0.0
C59 C 0.90667 0.87831 -0.01004 0.0
O60 O 0.85741 0.82646 0.0823 0.0
O61 O 0.87021 0.82052 -0.00595 0.0
O62 O 0.86427 0.85617 0.90124 0.0
O63 O 0.87929 0.84351 0.88884 0.0
O64 O 0.83963 0.83624 0.98318 0.0
O65 O 0.8428 0.86169 0.92676 0.0
O66 O 0.88477 0.90062 0.88484 0.0
O67 O 0.86583 0.90143 0.9596 0.0
O68 O 0.87527 0.86787 0.05159 0.0
O69 O 0.8597 0.8797 0.06647 0.0
O70 O 0.89905 0.88718 0.96302 0.0
O71 O 0.89694 0.86169 0.01502 0.0
H72 H 0.82472 0.7974 0.07638 0.0
H73 H 0.80484 0.76523 0.09951 0.0
H74 H 0.85005 0.75672 0.07898 0.0
H75 H 0.86956 0.78856 0.0544 0.0
H76 H 0.90592 0.93396 0.82698 0.0
H77 H 0.92498 0.96641 0.84282 0.0
H78 H 0.89816 0.96317 0.04291 0.0
H79 H 0.87905 0.93088 0.02669 0.0
Tb80 Tb 0.22474 0.04474 -0.00384 0.0
Tb81 Tb 0.18876 1.01145 0.9622 0.0
C82 C 0.25411 0.06668 0.05569 0.0
C83 C 0.27332 0.07182 0.06528 0.0
C84 C 0.2792 0.06858 0.13124 0.0
C85 C 0.29755 0.07573 0.14545 0.0
C86 C 0.31061 0.08648 0.09428 0.0
C87 C 0.30467 0.08925 0.02743 0.0
C88 C 0.28632 0.08208 0.01319 0.0
C89 C 0.215 0.04087 0.86042 0.0
C90 C 0.22308 1.00752 0.9542 0.0
C91 C 0.15817 0.98874 0.91449 0.0
C92 C 0.13878 0.98201 0.92961 0.0
C93 C 0.12893 0.98778 0.88811 0.0
C94 C 0.11034 0.9802 0.89778 0.0
C95 C 0.10103 0.96651 0.94885 0.0
C96 C 0.11097 0.96098 -0.00887 0.0
C97 C 0.12953 0.96856 0.98155 0.0
C98 C 0.19848 1.01618 0.09835 0.0
C99 C 0.19078 0.0494 -0.0087 0.0
O100 O 0.24179 0.05187 0.08624 0.0
O101 O 0.24897 0.06929 -0.00724 0.0
O102 O 0.21242 0.02851 0.90331 0.0
O103 O 0.22507 0.05627 0.89109 0.0
O104 O 0.23196 0.0234 -0.01323 0.0
O105 O 0.20655 1.00141 0.92946 0.0
O106 O 0.16782 1.00498 0.88811 0.0
O107 O 0.1671 0.98508 0.96201 0.0
O108 O 0.20082 0.02808 0.05382 0.0
O109 O 0.18872 1.00063 0.06899 0.0
O110 O 0.18173 0.03282 0.96511 0.0
O111 O 0.20743 0.05623 0.01579 0.0
H112 H 0.26961 0.06104 0.17312 0.0
H113 H 0.30151 0.07343 0.19783 0.0
H114 H 0.31425 0.0972 -0.01381 0.0
H115 H 0.28238 0.08504 0.96201 0.0
H116 H 0.13553 0.99791 0.84691 0.0
H117 H 0.10318 0.9847 0.86358 0.0
H118 H 0.1044 0.95069 0.03173 0.0
H119 H 0.13655 0.96362 0.01423 0.0
Tb120 Tb 0.68917 0.53346 0.3268 0.0
Tb121 Tb 0.72235 0.53092 0.28974 0.0
C122 C 0.66726 0.54064 0.38792 0.0
C123 C 0.66195 0.55462 0.39704 0.0
C124 C 0.66687 0.56527 0.45939 0.0
C125 C 0.65964 0.57639 0.47419 0.0
C126 C 0.64719 0.57714 0.42713 0.0
C127 C 0.64282 0.56697 0.36334 0.0
C128 C 0.65 0.55582 0.34872 0.0
C129 C 0.69274 0.52806 0.19036 0.0
C130 C 0.72615 0.56921 0.28432 0.0
C131 C 0.74491 0.52336 0.23781 0.0
C132 C 0.75141 0.51042 0.248 0.0
C133 C 0.75549 0.50339 0.18752 0.0
C134 C 0.76324 0.4925 0.19514 0.0
C135 C 0.7672 0.48836 0.26366 0.0
C136 C 0.76263 0.49506 0.32434 0.0
C137 C 0.75483 0.50593 0.31663 0.0
C138 C 0.71775 0.53502 0.42732 0.0
C139 C 0.68449 0.49489 0.31714 0.0
O140 O 0.68228 0.5434 0.41744 0.0
O141 O 0.66441 0.53266 0.32543 0.0
O142 O 0.70516 0.53771 0.23312 0.0
O143 O 0.67741 0.52262 0.22157 0.0
O144 O 0.71045 0.56211 0.3182 0.0
O145 O 0.7322 0.55885 0.2584 0.0
O146 O 0.72872 0.51716 0.2118 0.0
O147 O 0.74853 0.53516 0.28886 0.0
O148 O 0.70583 0.52579 0.38237 0.0
O149 O 0.73324 0.54107 0.39716 0.0
O150 O 0.7009 0.50257 0.28946 0.0
O151 O 0.6779 0.50461 0.34507 0.0
H152 H 0.67586 0.56454 0.49815 0.0
H153 H 0.6633 0.58383 0.52411 0.0
H154 H 0.63361 0.5674 0.32481 0.0
H155 H 0.64575 0.54773 0.30038 0.0
H156 H 0.75299 0.50663 0.13404 0.0
H157 H 0.76618 0.48736 0.14709 0.0
H158 H 0.76556 0.49235 0.37797 0.0
H159 H 0.75185 0.51116 0.36438 0.0
Tb160 Tb 0.53592 0.1768 0.32137 0.0
Tb161 Tb 0.53834 0.21262 0.28636 0.0
C162 C 0.52887 0.14761 0.38166 0.0
C163 C 0.51497 0.12833 0.39151 0.0
C164 C 0.50662 0.12232 0.45873 0.0
C165 C 0.49554 0.10393 0.47275 0.0
C166 C 0.49258 0.09097 0.42007 0.0
C167 C 0.50055 0.09703 0.35211 0.0
C168 C 0.51162 0.11544 0.33804 0.0
C169 C 0.54176 0.18638 0.18563 0.0
C170 C 0.50022 0.17799 0.27823 0.0
C171 C 0.54597 0.24307 0.23768 0.0
C172 C 0.55853 0.26249 0.25222 0.0
C173 C 0.57072 0.27334 0.19895 0.0
C174 C 0.58149 0.29195 0.20874 0.0
C175 C 0.58025 0.30027 0.27196 0.0
C176 C 0.56828 0.28934 0.32586 0.0
C177 C 0.55758 0.27071 0.31621 0.0
C178 C 0.53385 0.20332 0.4232 0.0
C179 C 0.57441 0.2109 0.31443 0.0
O180 O 0.5262 0.15984 0.41189 0.0
O181 O 0.53657 0.15274 0.31868 0.0
O182 O 0.53192 0.18893 0.22814 0.0
O183 O 0.5471 0.17635 0.21654 0.0
O184 O 0.5073 0.16928 0.31156 0.0
O185 O 0.51057 0.19454 0.25338 0.0
O186 O 0.55273 0.23354 0.21198 0.0
O187 O 0.53339 0.23411 0.2852 0.0
O188 O 0.54325 0.20086 0.37838 0.0
O189 O 0.5279 0.2129 0.39345 0.0
O190 O 0.56676 0.2198 0.288 0.0
O191 O 0.56472 0.19433 0.34009 0.0
H192 H 0.50917 0.13183 0.50157 0.0
H193 H 0.48987 0.09986 0.52601 0.0
H194 H 0.49842 0.08753 0.30981 0.0
H195 H 0.51793 0.1195 0.28581 0.0
H196 H 0.57163 0.26746 0.14879 0.0
H197 H 0.59038 0.2999 0.16567 0.0
H198 H 0.56712 0.29518 0.37566 0.0
H199 H 0.54835 0.26283 0.35853 0.0
Tb200 Tb 0.89103 0.37927 0.3223 0.0
Tb201 Tb 0.85548 0.34581 0.28539 0.0
C202 C 0.92009 0.4014 0.38318 0.0
C203 C 0.93935 0.40664 0.39219 0.0
C204 C 0.94516 0.40218 0.45554 0.0
C205 C 0.96351 0.40929 0.46979 0.0
C206 C 0.97665 0.42118 0.42116 0.0
C207 C 0.97077 0.4251 0.35648 0.0
C208 C 0.95242 0.41802 0.34239 0.0
C209 C 0.88201 0.37557 0.18593 0.0
C210 C 0.89021 0.34246 0.28062 0.0
C211 C 0.8257 0.3227 0.23239 0.0
C212 C 0.80618 0.31535 0.24232 0.0
C213 C 0.7942 0.29893 0.20985 0.0
C214 C 0.77567 0.29111 0.22011 0.0
C215 C 0.76858 0.29952 0.26324 0.0
C216 C 0.78065 0.31618 0.295 0.0
C217 C 0.79928 0.32399 0.28487 0.0
C218 C 0.8642 0.35053 0.42299 0.0
C219 C 0.85685 0.38347 0.31258 0.0
O220 O 0.90784 0.38645 0.41317 0.0
O221 O 0.91493 0.40412 0.3205 0.0
O222 O 0.87939 0.36318 0.22869 0.0
O223 O 0.89176 0.39095 0.21711 0.0
O224 O 0.89872 0.35825 0.31402 0.0
O225 O 0.87378 0.33622 0.25467 0.0
O226 O 0.8352 0.33917 0.20833 0.0
O227 O 0.83398 0.31929 0.28357 0.0
O228 O 0.86679 0.36241 0.37796 0.0
O229 O 0.85479 0.335 0.39295 0.0
O230 O 0.84819 0.36698 0.28539 0.0
O231 O 0.87324 0.39031 0.33999 0.0
H232 H 0.93549 0.39363 0.49539 0.0
H233 H 0.96736 0.406 0.52043 0.0
H234 H 0.98035 0.43386 0.3168 0.0
H235 H 0.94854 0.42191 0.29319 0.0
H236 H 0.79921 0.29205 0.17668 0.0
H237 H 0.76686 0.27847 0.1937 0.0
H238 H 0.77573 0.323 0.32892 0.0
H239 H 0.80828 0.33664 0.31078 0.0
Tb240 Tb 0.35819 0.86895 0.66966 0.0
Tb241 Tb 0.38921 0.86313 0.62809 0.0
C242 C 0.33365 0.87148 0.73381 0.0
C243 C 0.32728 0.8845 0.74727 0.0
C244 C 0.33079 0.89361 0.81335 0.0
C245 C 0.3233 0.90444 0.8294 0.0
C246 C 0.31196 0.90637 0.78002 0.0
C247 C 0.30869 0.89746 0.71349 0.0
C248 C 0.31619 0.88666 0.69742 0.0
C249 C 0.36413 0.86994 0.53103 0.0
C250 C 0.39413 0.90263 0.62361 0.0
C251 C 0.41518 0.86054 0.57929 0.0
C252 C 0.42287 0.84849 0.58951 0.0
C253 C 0.41621 0.83225 0.55137 0.0
C254 C 0.42402 0.82139 0.55944 0.0
C255 C 0.43879 0.82649 0.60561 0.0
C256 C 0.4454 0.84273 0.64378 0.0
C257 C 0.43761 0.85358 0.63564 0.0
C258 C 0.38288 0.8629 0.76695 0.0
C259 C 0.35233 0.82883 0.6577 0.0
O260 O 0.34864 0.87458 0.76455 0.0
O261 O 0.33213 0.86519 0.66852 0.0
O262 O 0.36559 0.8597 0.57584 0.0
O263 O 0.35769 0.87895 0.5626 0.0
O264 O 0.37939 0.89692 0.66274 0.0
O265 O 0.39911 0.89136 0.59782 0.0
O266 O 0.39962 0.85393 0.54684 0.0
O267 O 0.41649 0.87081 0.6336 0.0
O268 O 0.38205 0.873 0.72027 0.0
O269 O 0.38842 0.853 0.73697 0.0
O270 O 0.36811 0.83531 0.62603 0.0
O271 O 0.3467 0.83955 0.68418 0.0
H272 H 0.33902 0.89205 0.85352 0.0
H273 H 0.32597 0.91085 0.88156 0.0
H274 H 0.30024 0.89877 0.67365 0.0
H275 H 0.31299 0.87974 0.64628 0.0
H276 H 0.40504 0.82797 0.5146 0.0
H277 H 0.41869 0.80916 0.52822 0.0
H278 H 0.45656 0.84706 0.68056 0.0
H279 H 0.44323 0.86605 0.66542 0.0
Tb280 Tb 0.20136 0.51133 0.65987 0.0
Tb281 Tb 0.20364 0.54726 0.62761 0.0
C282 C 0.19452 0.48162 0.71487 0.0
C283 C 0.18037 0.4625 0.72692 0.0
C284 C 0.17127 0.45707 0.79308 0.0
C285 C 0.16011 0.43878 0.80927 0.0
C286 C 0.15784 0.42536 0.76002 0.0
C287 C 0.16651 0.43084 0.69296 0.0
C288 C 0.17763 0.44911 0.67675 0.0
C289 C 0.20863 0.52236 0.52576 0.0
C290 C 0.16585 0.51231 0.61383 0.0
C291 C 0.21073 0.57753 0.57835 0.0
C292 C 0.22219 0.59703 0.5927 0.0
C293 C 0.21604 0.60867 0.57137 0.0
C294 C 0.22646 0.6272 0.58299 0.0
C295 C 0.24338 0.63467 0.61638 0.0
C296 C 0.24954 0.62293 0.63783 0.0
C297 C 0.23903 0.6043 0.62629 0.0
C298 C 0.19739 0.53668 0.76328 0.0
C299 C 0.23967 0.54576 0.65926 0.0
O300 O 0.19341 0.49423 0.74998 0.0
O301 O 0.20059 0.48663 0.6495 0.0
O302 O 0.19812 0.52417 0.56716 0.0
O303 O 0.21412 0.51248 0.55685 0.0
O304 O 0.17276 0.50366 0.64873 0.0
O305 O 0.17629 0.52895 0.5901 0.0
O306 O 0.2186 0.56869 0.55664 0.0
O307 O 0.19792 0.56833 0.62458 0.0
O308 O 0.20744 0.53471 0.72005 0.0
O309 O 0.19256 0.54718 0.73355 0.0
O310 O 0.23209 0.55471 0.63271 0.0
O311 O 0.22993 0.52897 0.6826 0.0
H312 H 0.17329 0.46694 0.83363 0.0
H313 H 0.15387 0.43517 0.86174 0.0
H314 H 0.16492 0.42098 0.65312 0.0
H315 H 0.18455 0.4527 0.6256 0.0
H316 H 0.20313 0.6034 0.54512 0.0
H317 H 0.22133 0.63573 0.56457 0.0
H318 H 0.26239 0.62811 0.66434 0.0
H319 H 0.24406 0.5956 0.64359 0.0
Tb320 Tb 0.55775 0.71263 0.65826 0.0
Tb321 Tb 0.52167 0.67934 0.62532 0.0
C322 C 0.58718 0.73464 0.71719 0.0
C323 C 0.60629 0.73955 0.72812 0.0
C324 C 0.61185 0.73607 0.79438 0.0
C325 C 0.63013 0.74308 0.80973 0.0
C326 C 0.64342 0.75391 0.75947 0.0
C327 C 0.6378 0.7569 0.69232 0.0
C328 C 0.61953 0.74988 0.67694 0.0
C329 C 0.54763 0.70869 0.52303 0.0
C330 C 0.55603 0.67543 0.6159 0.0
C331 C 0.49099 0.65674 0.57811 0.0
C332 C 0.47167 0.65027 0.59307 0.0
C333 C 0.46083 0.65161 0.53969 0.0
C334 C 0.44226 0.64404 0.54996 0.0
C335 C 0.43398 0.63476 0.61379 0.0
C336 C 0.44493 0.63378 0.66781 0.0
C337 C 0.46349 0.64142 0.65767 0.0
C338 C 0.53163 0.68422 0.76118 0.0
C339 C 0.52393 0.71745 0.65401 0.0
O340 O 0.57464 0.72017 0.74898 0.0
O341 O 0.58226 0.73688 0.6532 0.0
O342 O 0.54521 0.69637 0.56581 0.0
O343 O 0.55773 0.72412 0.55344 0.0
O344 O 0.56492 0.69128 0.6487 0.0
O345 O 0.53944 0.6693 0.59173 0.0
O346 O 0.50071 0.67291 0.55128 0.0
O347 O 0.49985 0.65307 0.62591 0.0
O348 O 0.5339 0.69606 0.7165 0.0
O349 O 0.52187 0.66863 0.7321 0.0
O350 O 0.51472 0.70079 0.62879 0.0
O351 O 0.54065 0.72431 0.6776 0.0
H352 H 0.60208 0.72847 0.83561 0.0
H353 H 0.63386 0.74061 0.8623 0.0
H354 H 0.64756 0.76493 0.65175 0.0
H355 H 0.61583 0.75303 0.6256 0.0
H356 H 0.46666 0.65817 0.48909 0.0
H357 H 0.43431 0.64495 0.5068 0.0
H358 H 0.43914 0.62702 0.71811 0.0
H359 H 0.47136 0.64009 0.70012 0.0
H360 H 0.0518 0.26191 -0.0091 0.0
H361 H 0.06782 0.29383 0.95959 0.0
H362 H 0.10856 0.28725 0.85247 0.0
H363 H 0.09277 0.25541 0.88441 0.0
H364 H 0.12389 0.31737 0.92792 0.0
H365 H 0.07553 0.29076 0.7583 0.0
H366 H 0.04399 0.27284 0.7195 0.0
H367 H 0.03111 0.30819 0.83448 0.0
H368 H 0.06255 0.3262 0.87477 0.0
H369 H 0.16542 0.39859 0.72879 0.0
H370 H 0.14865 0.36695 0.763 0.0
H371 H 0.10971 0.37593 0.87236 0.0
H372 H 0.12617 0.40759 0.83645 0.0
H373 H 0.09319 0.34484 0.79837 0.0
H374 H 0.14203 0.37184 0.96562 0.0
H375 H 0.17368 0.38963 0.00322 0.0
H376 H 0.18576 0.35335 0.89106 0.0
H377 H 0.15422 0.33547 0.85193 0.0
C378 C 0.06419 0.26722 0.96086 0.0
C379 C 0.0709 0.25595 0.94009 0.0
C380 C 0.07332 0.28553 0.94257 0.0
C381 C 0.08935 0.29304 0.90265 0.0
C382 C 0.09624 0.28188 0.88311 0.0
C383 C 0.08713 0.26359 0.90137 0.0
C384 C 0.09895 0.31248 0.88121 0.0
C385 C 0.1172 0.32328 0.8988 0.0
C386 C 0.09024 0.32046 0.84454 0.0
C387 C 0.07135 0.30972 0.82016 0.0
C388 C 0.06594 0.29463 0.77576 0.0
C389 C 0.04809 0.28448 0.75342 0.0
C390 C 0.03554 0.28935 0.77467 0.0
C391 C 0.04084 0.30442 0.81815 0.0
C392 C 0.05868 0.31462 0.84071 0.0
C393 C 0.15317 0.39386 0.75933 0.0
C394 C 0.14722 0.4058 0.77971 0.0
C395 C 0.14367 0.37572 0.77963 0.0
C396 C 0.12798 0.36897 0.82128 0.0
C397 C 0.12179 0.38075 0.84057 0.0
C398 C 0.13133 0.39893 0.8204 0.0
C399 C 0.11814 0.3497 0.84484 0.0
C400 C 0.09986 0.33893 0.82764 0.0
C401 C 0.12683 0.34172 0.88169 0.0
C402 C 0.1458 0.35242 0.90528 0.0
C403 C 0.15147 0.36774 0.94851 0.0
C404 C 0.16938 0.37782 0.97017 0.0
C405 C 0.18173 0.37265 0.94939 0.0
C406 C 0.17618 0.35735 0.90704 0.0
C407 C 0.15829 0.34723 0.88515 0.0
H408 H 0.1956 0.38047 0.96623 0.0
H409 H 1.02172 0.28146 0.75732 0.0
H410 H 0.80688 0.81038 -0.01445 0.0
H411 H 0.77494 0.7946 0.955 0.0
H412 H 0.78167 0.84191 0.84659 0.0
H413 H 0.8135 0.85785 0.87787 0.0
H414 H 0.75182 0.82758 0.92243 0.0
H415 H 0.77765 0.80494 0.75349 0.0
H416 H 0.79524 0.79095 0.71494 0.0
H417 H 0.75987 0.7431 0.83236 0.0
H418 H 0.7422 0.75691 0.87239 0.0
H419 H 0.67033 0.788 0.72557 0.0
H420 H 0.70201 0.80269 0.75858 0.0
H421 H 0.69277 0.75497 0.87115 0.0
H422 H 0.66107 0.73995 0.83643 0.0
H423 H 0.72363 0.76899 0.79574 0.0
H424 H 0.69736 0.7919 0.96193 0.0
H425 H 0.67995 0.80624 -0.00169 0.0
H426 H 0.71641 0.85405 0.88316 0.0
H427 H 0.73392 0.8399 0.84524 0.0
C428 C 0.80159 0.81747 0.95533 0.0
C429 C 0.81289 0.83543 0.93407 0.0
C430 C 0.78327 0.80837 0.9375 0.0
C431 C 0.7758 0.81692 0.8975 0.0
C432 C 0.78701 0.83494 0.87734 0.0
C433 C 0.80529 0.84405 0.89522 0.0
C434 C 0.75636 0.8072 0.87666 0.0
C435 C 0.74575 0.81487 0.89395 0.0
C436 C 0.74817 0.7904 0.84075 0.0
C437 C 0.75872 0.78203 0.81654 0.0
C438 C 0.77371 0.79149 0.77153 0.0
C439 C 0.78367 0.78358 0.74934 0.0
C440 C 0.77871 0.76617 0.77136 0.0
C441 C 0.76372 0.7566 0.81544 0.0
C442 C 0.75371 0.76445 0.83785 0.0
C443 C 0.67502 0.78048 0.75654 0.0
C444 C 0.66299 0.76271 0.77822 0.0
C445 C 0.69318 0.78902 0.77614 0.0
C446 C 0.69986 0.78009 0.81836 0.0
C447 C 0.688 0.76223 0.8389 0.0
C448 C 0.6698 0.75368 0.81941 0.0
C449 C 0.71914 0.78942 0.84128 0.0
C450 C 0.7297 0.78167 0.82439 0.0
C451 C 0.72732 0.80621 0.87725 0.0
C452 C 0.71685 0.81477 0.90019 0.0
C453 C 0.70159 0.80542 0.94391 0.0
C454 C 0.69172 0.81352 0.96489 0.0
C455 C 0.69704 0.83103 0.94292 0.0
C456 C 0.71229 0.84048 0.90006 0.0
C457 C 0.7222 0.83243 0.87887 0.0
H458 H 0.68938 0.83728 0.95922 0.0
H459 H 0.78644 0.76007 0.75412 0.0
H460 H 0.25782 1.01656 -0.01315 0.0
H461 H 0.27312 0.99978 0.95911 0.0
H462 H 0.22499 0.95829 0.85878 0.0
H463 H 0.20954 0.97486 0.88701 0.0
H464 H 0.23973 0.9435 0.93892 0.0
H465 H 0.26101 0.9894 0.75875 0.0
H466 H 0.27473 0.02037 0.71248 0.0
H467 H 0.32352 0.03438 0.82551 0.0
H468 H 0.31 1.00353 0.87325 0.0
H469 H 0.27754 0.89865 0.74986 0.0
H470 H 0.26313 0.91607 0.78038 0.0
H471 H 0.31167 0.95582 0.88419 0.0
H472 H 0.32637 0.93866 0.85217 0.0
H473 H 0.29718 0.97174 0.80448 0.0
H474 H 0.27563 0.92515 0.98229 0.0
H475 H 0.26159 0.89397 0.0264 0.0
H476 H 0.21287 0.88105 0.91514 0.0
H477 H 0.22671 0.91211 0.8695 0.0
C478 C 0.25044 1.00385 0.95898 0.0
C479 C 0.23241 0.99715 0.93903 0.0
C480 C 0.25927 0.99428 0.94278 0.0
C481 C 0.25033 0.97779 0.90594 0.0
C482 C 0.23224 0.97095 0.8871 0.0
C483 C 0.22342 0.98051 0.90319 0.0
C484 C 0.25976 0.96766 0.88707 0.0
C485 C 0.25218 0.94965 0.90875 0.0
C486 C 0.27623 0.97567 0.84896 0.0
C487 C 0.28443 0.99421 0.82018 0.0
C488 C 0.27462 0.99912 0.77419 0.0
C489 C 0.28237 1.01664 0.74762 0.0
C490 C 0.29997 0.02934 0.76621 0.0
C491 C 0.30988 0.02453 0.81126 0.0
C492 C 0.30218 1.00702 0.83804 0.0
C493 C 0.28527 0.91119 0.77854 0.0
C494 C 0.30319 0.91718 0.79845 0.0
C495 C 0.27691 0.92108 0.79665 0.0
C496 C 0.28619 0.93722 0.83547 0.0
C497 C 0.30416 0.9434 0.85451 0.0
C498 C 0.31252 0.93347 0.83661 0.0
C499 C 0.27712 0.94758 0.85618 0.0
C500 C 0.28476 0.96562 0.83483 0.0
C501 C 0.26065 0.93958 0.89433 0.0
C502 C 0.25227 0.92092 0.92193 0.0
C503 C 0.26197 0.91563 0.96677 0.0
C504 C 0.25404 0.89798 -0.00787 0.0
C505 C 0.23636 0.88553 0.97344 0.0
C506 C 0.22656 0.89071 0.9295 0.0
C507 C 0.23444 0.90834 0.90392 0.0
H508 H 0.23024 0.87187 -0.00687 0.0
H509 H 0.30595 0.0429 0.74558 0.0
H510 H 0.48135 0.19048 0.20217 0.0
H511 H 0.44946 0.17465 0.17227 0.0
H512 H 0.44237 0.12795 0.28692 0.0
H513 H 0.47443 0.14364 0.31607 0.0
H514 H 0.42446 0.11801 0.16319 0.0
H515 H 0.42833 0.15649 0.35712 0.0
H516 H 0.43992 0.18521 0.42178 0.0
H517 H 0.42345 0.20653 0.24783 0.0
H518 H 0.41197 0.17801 0.18168 0.0
H519 H 0.32862 0.07285 0.17078 0.0
H520 H 0.36044 0.08796 0.20295 0.0
H521 H 0.36917 0.13535 0.08912 0.0
H522 H 0.3373 0.12054 0.05866 0.0
H523 H 0.38613 0.14461 0.21454 0.0
H524 H 0.38262 0.10656 0.01992 0.0
H525 H 0.37116 0.07804 0.95393 0.0
H526 H 0.38701 0.05609 0.12765 0.0
H527 H 0.39835 0.08442 0.19516 0.0
C528 C 0.47305 0.17687 0.22142 0.0
C529 C 0.48057 0.16842 0.26193 0.0
C530 C 0.45472 0.16782 0.20442 0.0
C531 C 0.44331 0.15011 0.22799 0.0
C532 C 0.4508 0.14159 0.26808 0.0
C533 C 0.46917 0.15063 0.285 0.0
C534 C 0.42368 0.14048 0.21014 0.0
C535 C 0.41604 0.12372 0.17549 0.0
C536 C 0.41264 0.14803 0.22435 0.0
C537 C 0.41944 0.16516 0.26418 0.0
C538 C 0.4273 0.16734 0.33244 0.0
C539 C 0.43383 0.18358 0.36939 0.0
C540 C 0.43246 0.1977 0.33886 0.0
C541 C 0.42452 0.19559 0.27138 0.0
C542 C 0.41798 0.17939 0.23417 0.0
C543 C 0.33727 0.08651 0.15276 0.0
C544 C 0.33026 0.09538 0.11174 0.0
C545 C 0.35556 0.09512 0.17071 0.0
C546 C 0.36739 0.11281 0.14797 0.0
C547 C 0.36043 0.12171 0.10726 0.0
C548 C 0.34216 0.11312 0.0892 0.0
C549 C 0.38691 0.12216 0.16746 0.0
C550 C 0.39453 0.13887 0.20242 0.0
C551 C 0.39793 0.11458 0.15341 0.0
C552 C 0.39116 0.09755 0.11291 0.0
C553 C 0.38353 0.0956 0.04431 0.0
C554 C 0.37708 0.07948 0.00658 0.0
C555 C 0.37831 0.06524 0.03666 0.0
C556 C 0.38604 0.06712 0.10447 0.0
C557 C 0.39249 0.08321 0.14246 0.0
H558 H 0.37331 0.05277 0.00736 0.0
H559 H 0.43753 0.21026 0.36755 0.0
H560 H 0.87819 0.31134 0.20348 0.0
H561 H 0.8942 0.29542 0.17465 0.0
H562 H 0.94021 0.33468 0.29347 0.0
H563 H 0.92435 0.35094 0.32153 0.0
H564 H 0.95079 0.32715 0.17017 0.0
H565 H 0.91134 0.2917 0.36073 0.0
H566 H 0.88226 0.27429 0.42255 0.0
H567 H 0.86196 0.23728 0.2459 0.0
H568 H 0.89085 0.2546 0.18257 0.0
H569 H 0.99614 0.27674 0.1727 0.0
H570 H 0.98103 0.29332 0.20609 0.0
H571 H 0.93322 0.25415 0.09628 0.0
H572 H 0.94789 0.23703 0.06577 0.0
H573 H 0.924 0.26197 0.21826 0.0
H574 H 0.96268 0.29734 0.02612 0.0
H575 H 0.99141 0.31466 0.96188 0.0
H576 H 1.01279 0.35169 0.13821 0.0
H577 H 0.98425 0.33444 0.20394 0.0
C578 C 0.89169 0.3166 0.22392 0.0
C579 C 0.89989 0.33245 0.26523 0.0
C580 C 0.90084 0.3074 0.20751 0.0
C581 C 0.91841 0.31363 0.23255 0.0
C582 C 0.92668 0.32951 0.2735 0.0
C583 C 0.91754 0.33878 0.2898 0.0
C584 C 0.92814 0.3037 0.21521 0.0
C585 C 0.94503 0.31295 0.18176 0.0
C586 C 0.92055 0.28505 0.22843 0.0
C587 C 0.90321 0.27454 0.26666 0.0
C588 C 0.90063 0.27991 0.33486 0.0
C589 C 0.88419 0.27005 0.3702 0.0
C590 C 0.87026 0.25471 0.3381 0.0
C591 C 0.87276 0.24917 0.27067 0.0
C592 C 0.88917 0.25899 0.23507 0.0
C593 C 0.98237 0.27153 0.15595 0.0
C594 C 0.97336 0.25547 0.11606 0.0
C595 C 0.97377 0.28119 0.17448 0.0
C596 C 0.95597 0.27521 0.15305 0.0
C597 C 0.94694 0.25918 0.11341 0.0
C598 C 0.95549 0.24947 0.09518 0.0
C599 C 0.94663 0.28539 0.17284 0.0
C600 C 0.9298 0.27618 0.20681 0.0
C601 C 0.95425 0.30406 0.15976 0.0
C602 C 0.97139 0.31449 0.12025 0.0
C603 C 0.97355 0.3091 0.05142 0.0
C604 C 0.9898 0.31892 0.0147 0.0
C605 C 1.00393 0.33424 0.04603 0.0
C606 C 1.00183 0.3398 0.11406 0.0
C607 C 0.98562 0.33002 0.15104 0.0
H608 H 1.0165 0.34182 0.01752 0.0
H609 H 0.85754 0.2471 0.36554 0.0
H610 H 0.8269 0.72923 0.03429 0.0
H611 H 0.80934 0.69773 0.06867 0.0
H612 H 0.77977 0.7107 0.22078 0.0
H613 H 0.79796 0.7425 0.18912 0.0
H614 H 0.78772 0.68796 0.28058 0.0
H615 H 0.76145 0.68909 0.05601 0.0
H616 H 0.76087 0.6957 0.92742 0.0
H617 H 0.78347 0.6626 0.87381 0.0
H618 H 0.78443 0.65599 0.00222 0.0
H619 H 0.71984 0.59564 0.33504 0.0
H620 H 0.73574 0.62762 0.30361 0.0
H621 H 0.77078 0.61928 0.16367 0.0
H622 H 0.75504 0.58739 0.19474 0.0
H623 H 0.75858 0.63962 0.09873 0.0
H624 H 0.78552 0.63943 0.32498 0.0
H625 H 0.78557 0.63269 0.45375 0.0
H626 H 0.76064 0.66389 0.50389 0.0
H627 H 0.76022 0.67061 0.3752 0.0
C628 C 0.81676 0.7255 0.07544 0.0
C629 C 0.81399 0.73861 0.10888 0.0
C630 C 0.80651 0.70733 0.09452 0.0
C631 C 0.79297 0.70162 0.14685 0.0
C632 C 0.79006 0.71464 0.1801 0.0
C633 C 0.80039 0.73287 0.16128 0.0
C634 C 0.78219 0.68219 0.16779 0.0
C635 C 0.7811 0.67744 0.24075 0.0
C636 C 0.77375 0.66827 0.11615 0.0
C637 C 0.77316 0.67218 0.03884 0.0
C638 C 0.76642 0.68333 0.01685 0.0
C639 C 0.76601 0.68706 0.94398 0.0
C640 C 0.77217 0.67961 0.89249 0.0
C641 C 0.77872 0.66837 0.91377 0.0
C642 C 0.77919 0.66462 -0.01342 0.0
C643 C 0.73098 0.6006 0.29782 0.0
C644 C 0.73614 0.58885 0.26769 0.0
C645 C 0.74011 0.61895 0.27999 0.0
C646 C 0.75456 0.62598 0.23139 0.0
C647 C 0.75969 0.61425 0.20118 0.0
C648 C 0.75069 0.59597 0.21939 0.0
C649 C 0.76425 0.64546 0.21124 0.0
C650 C 0.76512 0.65018 0.13845 0.0
C651 C 0.77238 0.65934 0.26302 0.0
C652 C 0.77266 0.65536 0.34039 0.0
C653 C 0.77991 0.64472 0.3634 0.0
C654 C 0.78003 0.64093 0.43638 0.0
C655 C 0.77306 0.64781 0.48695 0.0
C656 C 0.76601 0.65854 0.46464 0.0
C657 C 0.76584 0.66236 0.39169 0.0
H658 H 0.77317 0.64486 0.54343 0.0
H659 H 0.77183 0.68251 0.8361 0.0
H660 H 0.13984 0.47807 0.65173 0.0
H661 H 0.10805 0.46222 0.61871 0.0
H662 H 0.11584 0.50843 0.49825 0.0
H663 H 0.14754 0.52444 0.53183 0.0
H664 H 0.086 0.49547 0.57617 0.0
H665 H 0.11056 0.46966 0.41341 0.0
H666 H 0.12716 0.45421 0.37998 0.0
H667 H 0.09158 0.40886 0.50919 0.0
H668 H 0.0748 0.42404 0.54354 0.0
H669 H 1.0035 0.45552 0.38856 0.0
H670 H 0.03523 0.47012 0.41959 0.0
H671 H 1.02638 0.42219 0.52934 0.0
H672 H 0.99472 0.4071 0.49509 0.0
H673 H 0.05666 0.43563 0.45931 0.0
H674 H 0.0316 0.46054 0.62038 0.0
H675 H 1.01468 0.4755 0.65548 0.0
H676 H 0.0511 0.52229 0.53481 0.0
H677 H 0.0681 0.50751 0.49817 0.0
C678 C 0.13482 0.4849 0.61824 0.0
C679 C 0.14636 0.50261 0.59469 0.0
C680 C 0.11659 0.47574 0.59896 0.0
C681 C 0.10944 0.48399 0.5552 0.0
C682 C 0.12093 0.50171 0.53205 0.0
C683 C 0.13913 0.51087 0.55135 0.0
C684 C 0.08998 0.47437 0.53462 0.0
C685 C 0.07967 0.48249 0.54971 0.0
C686 C 0.08144 0.45717 0.50199 0.0
C687 C 0.09155 0.44806 0.48159 0.0
C688 C 0.10637 0.45645 0.4351 0.0
C689 C 0.11579 0.44774 0.41591 0.0
C690 C 0.11049 0.43062 0.44274 0.0
C691 C 0.0957 0.42214 0.48856 0.0
C692 C 0.0862 0.43077 0.50777 0.0
C693 C 1.00825 0.4479 0.41829 0.0
C694 C 0.99631 0.43002 0.43916 0.0
C695 C 1.02647 0.45641 0.43702 0.0
C696 C 0.03331 0.44746 0.47818 0.0
C697 C 1.02153 0.42952 0.49801 0.0
C698 C 1.0033 0.42093 0.47887 0.0
C699 C 0.05268 0.45678 0.50042 0.0
C700 C 0.06297 0.4486 0.48578 0.0
C701 C 0.06119 0.4739 0.53394 0.0
C702 C 0.05102 0.48284 0.55598 0.0
C703 C 0.03592 0.47397 0.60089 0.0
C704 C 1.02633 0.48243 0.62113 0.0
C705 C 0.03179 0.49982 0.59724 0.0
C706 C 0.04687 0.50881 0.5532 0.0
C707 C 0.0565 0.5004 0.53272 0.0
H708 H 1.02435 0.50635 0.61298 0.0
H709 H 0.11781 0.42391 0.42783 0.0
H710 H 0.54325 0.64388 0.54074 0.0
H711 H 0.55895 0.62769 0.51053 0.0
H712 H 0.60591 0.66743 0.62319 0.0
H713 H 0.59037 0.6839 0.65271 0.0
H714 H 0.61544 0.65937 0.49856 0.0
H715 H 0.5776 0.62494 0.69469 0.0
H716 H 0.54904 0.60782 0.76024 0.0
H717 H 0.52748 0.5698 0.58722 0.0
H718 H 0.55584 0.58684 0.52019 0.0
H719 H 0.66142 0.60966 0.49838 0.0
H720 H 0.64634 0.6262 0.5327 0.0
H721 H 0.59773 0.58593 0.43092 0.0
H722 H 0.61239 0.56883 0.39982 0.0
H723 H 0.58935 0.59455 0.55242 0.0
H724 H 0.62647 0.62888 0.35485 0.0
H725 H 0.65467 0.64597 0.28697 0.0
H726 H 0.67718 0.68404 0.45945 0.0
H727 H 0.64918 0.66704 0.52879 0.0
C728 C 0.55689 0.64918 0.55951 0.0
C729 C 0.56546 0.66522 0.59952 0.0
C730 C 0.56587 0.63983 0.54232 0.0
C731 C 0.58362 0.64615 0.56517 0.0
C732 C 0.59224 0.66221 0.60487 0.0
C733 C 0.58328 0.6716 0.622 0.0
C734 C 0.59323 0.63615 0.54691 0.0
C735 C 0.60984 0.64525 0.51135 0.0
C736 C 0.58582 0.61759 0.56173 0.0
C737 C 0.5688 0.60726 0.60216 0.0
C738 C 0.56673 0.613 0.67041 0.0
C739 C 0.55058 0.6033 0.70786 0.0
C740 C 0.53644 0.58776 0.67784 0.0
C741 C 0.53844 0.58185 0.61038 0.0
C742 C 0.55455 0.59151 0.57266 0.0
C743 C 0.64748 0.60419 0.48365 0.0
C744 C 0.63825 0.58783 0.44579 0.0
C745 C 0.63889 0.61383 0.50266 0.0
C746 C 0.62088 0.60754 0.48366 0.0
C747 C 0.61163 0.5912 0.44614 0.0
C748 C 0.62015 0.58151 0.42752 0.0
C749 C 0.61156 0.61774 0.50373 0.0
C750 C 0.59499 0.60867 0.53968 0.0
C751 C 0.61898 0.63631 0.48894 0.0
C752 C 0.6358 0.64658 0.4473 0.0
C753 C 0.63749 0.64082 0.37852 0.0
C754 C 0.65343 0.65051 0.33975 0.0
C755 C 0.66773 0.66606 0.36896 0.0
C756 C 0.6661 0.67198 0.43694 0.0
C757 C 0.6502 0.66234 0.47597 0.0
H758 H 0.68006 0.67354 0.33886 0.0
H759 H 0.52395 0.58027 0.70691 0.0
H760 H 0.4617 0.07305 0.50063 0.0
H761 H 0.44521 0.04125 0.53324 0.0
H762 H 0.48256 0.03225 0.4113 0.0
H763 H 0.49913 0.06405 0.37851 0.0
H764 H 0.4494 1.00509 0.39023 0.0
H765 H 0.48474 0.0356 0.59674 0.0
H766 H 0.49636 0.05815 0.69373 0.0
H767 H 0.44308 0.03691 0.77757 0.0
H768 H 0.4311 1.01438 0.68043 0.0
H769 H 0.42482 0.91974 0.54202 0.0
H770 H 0.44158 0.95138 0.50717 0.0
H771 H 0.4043 0.9613 0.62508 0.0
H772 H 0.38766 0.92976 0.6613 0.0
H773 H 0.43777 0.98787 0.64736 0.0
H774 H 0.40264 0.95685 0.43954 0.0
H775 H 0.39178 0.93357 0.34536 0.0
H776 H 0.44547 0.95537 0.26525 0.0
H777 H 0.4567 0.9786 0.35978 0.0
C778 C 0.46648 0.06436 0.4809 0.0
C779 C 0.48187 0.07127 0.4371 0.0
C780 C 0.457 0.0461 0.49961 0.0
C781 C 0.46273 0.03426 0.47572 0.0
C782 C 0.4778 0.04102 0.43053 0.0
C783 C 0.48726 0.05927 0.41158 0.0
C784 C 0.45321 1.01497 0.49891 0.0
C785 C 0.44706 1.00137 0.44652 0.0
C786 C 0.44984 1.00992 0.57231 0.0
C787 C 0.457 0.02342 0.63087 0.0
C788 C 0.47549 0.03583 0.63553 0.0
C789 C 0.48214 0.04859 0.69058 0.0
C790 C 0.47046 0.04899 0.74166 0.0
C791 C 0.4521 0.0366 0.73789 0.0
C792 C 0.44537 0.02382 0.68288 0.0
C793 C 0.4202 0.92863 0.56093 0.0
C794 C 0.40481 0.92208 0.60448 0.0
C795 C 0.42977 0.94677 0.54053 0.0
C796 C 0.42411 0.95879 0.56251 0.0
C797 C 0.40897 0.95236 0.60717 0.0
C798 C 0.39942 0.93425 0.62777 0.0
C799 C 0.43385 0.97802 0.53876 0.0
C800 C 0.44008 0.99161 0.59105 0.0
C801 C 0.43734 0.98302 0.46534 0.0
C802 C 0.43053 0.96939 0.40713 0.0
C803 C 0.41214 0.95664 0.40204 0.0
C804 C 0.40592 0.94345 0.34862 0.0
C805 C 0.41793 0.94298 0.29943 0.0
C806 C 0.43618 0.95574 0.30343 0.0
C807 C 0.44248 0.96894 0.35689 0.0
H808 H 0.41309 0.93276 0.25812 0.0
H809 H 0.47564 0.05888 0.78425 0.0
H810 H 0.15499 0.03777 0.97387 0.0
H811 H 0.14007 0.05554 0.97317 0.0
H812 H 0.19075 0.1036 0.0121 0.0
H813 H 0.20573 0.08572 0.01536 0.0
H814 H 0.16561 0.10516 0.08677 0.0
H815 H 0.1702 0.09061 0.84133 0.0
H816 H 0.16587 0.07035 0.7404 0.0
H817 H 0.10872 0.04464 0.76655 0.0
H818 H 0.11273 0.0644 0.86931 0.0
H819 H 0.13799 0.16731 0.97959 0.0
H820 H 0.15267 0.1494 -0.00831 0.0
H821 H 0.10228 0.10118 0.95066 0.0
H822 H 0.08753 0.11907 0.93783 0.0
H823 H 0.12737 0.09982 0.8781 0.0
H824 H 0.12216 0.1133 0.1234 0.0
H825 H 0.12579 0.13266 0.22716 0.0
H826 H 0.18303 0.15981 0.20221 0.0
H827 H 0.17973 0.14077 0.09765 0.0
C828 C 0.16301 0.05212 0.98259 0.0
C829 C 0.18165 0.06029 -0.00583 0.0
C830 C 0.15443 0.06232 0.98182 0.0
C831 C 0.16426 0.08107 -0.00904 0.0
C832 C 0.1828 0.08921 0.00453 0.0
C833 C 0.19138 0.07895 0.00625 0.0
C834 C 0.15528 0.09216 0.98499 0.0
C835 C 0.15745 0.10414 0.04062 0.0
C836 C 0.14419 0.09063 0.92576 0.0
C837 C 0.14178 0.07889 0.86342 0.0
C838 C 0.15671 0.08055 0.82591 0.0
C839 C 0.1543 0.06915 0.76832 0.0
C840 C 0.13701 0.05623 0.74691 0.0
C841 C 0.1221 0.05465 0.78321 0.0
C842 C 0.12443 0.06593 0.84122 0.0
C843 C 0.12995 0.15287 0.97395 0.0
C844 C 0.1115 0.14469 0.95802 0.0
C845 C 0.1384 0.14259 0.98098 0.0
C846 C 0.12862 0.12381 0.97321 0.0
C847 C 0.11021 0.11561 0.95698 0.0
C848 C 0.10177 0.1259 0.94947 0.0
C849 C 0.13762 0.11277 0.97998 0.0
C850 C 0.1355 0.10083 0.92434 0.0
C851 C 0.14866 0.11428 0.03934 0.0
C852 C 0.15069 0.12573 0.10225 0.0
C853 C 0.13552 0.12349 0.13969 0.0
C854 C 0.13752 0.13439 0.19871 0.0
C855 C 0.15463 0.14749 0.22114 0.0
C856 C 0.16978 0.14968 0.18471 0.0
C857 C 0.16786 0.13883 0.1256 0.0
H858 H 0.15615 0.15591 0.26685 0.0
H859 H 0.13513 0.04745 0.70213 0.0
H860 H 0.94894 0.98992 0.91362 0.0
H861 H 0.96653 0.02263 0.92485 0.0
H862 H 0.91992 0.02342 0.00452 0.0
H863 H 0.90213 0.99078 -0.00838 0.0
H864 H 0.93715 0.04977 0.90895 0.0
H865 H 0.95407 0.02914 0.11754 0.0
H866 H 0.9651 1.01191 0.18504 0.0
H867 H 1.01523 0.03923 0.07187 0.0
H868 H 1.00439 0.05645 0.00293 0.0
H869 H 0.98396 0.14062 0.03278 0.0
H870 H 0.96586 0.10778 0.02854 0.0
H871 H 1.01125 0.10514 0.94588 0.0
H872 H 0.02943 0.13783 0.95045 0.0
H873 H 0.99422 0.07971 0.04602 0.0
H874 H 0.97701 0.09985 0.83578 0.0
H875 H 0.96601 0.11716 0.76862 0.0
H876 H 0.91638 0.09074 0.88546 0.0
H877 H 0.9272 0.07346 0.95411 0.0
C878 C 0.94237 0.99703 0.93316 0.0
C879 C 0.92406 0.98758 0.95196 0.0
C880 C 0.95252 1.01578 0.9402 0.0
C881 C 0.94467 0.02561 0.96637 0.0
C882 C 0.92637 1.01623 0.98448 0.0
C883 C 0.91623 0.99749 0.97767 0.0
C884 C 0.95545 0.04563 0.97415 0.0
C885 C 0.94949 0.05627 0.93984 0.0
C886 C 0.97178 0.05428 0.01319 0.0
C887 C 0.97835 0.04395 0.05455 0.0
C888 C 0.96739 0.03137 0.10661 0.0
C889 C 0.97362 0.02162 0.14521 0.0
C890 C 0.99084 0.02443 0.13261 0.0
C891 C 1.00188 0.03704 0.0815 0.0
C892 C 0.99571 0.04681 0.04268 0.0
C893 C 0.99014 0.13307 0.01399 0.0
C894 C 1.0082 0.14199 -0.00818 0.0
C895 C 0.97972 0.11425 0.01125 0.0
C896 C 0.98708 0.10388 -0.01387 0.0
C897 C 1.0052 0.11275 0.96542 0.0
C898 C 1.01559 0.13153 0.96791 0.0
C899 C 0.97595 0.08384 0.98064 0.0
C900 C 0.98185 0.07319 0.01533 0.0
C901 C 0.95956 0.07518 0.94198 0.0
C902 C 0.953 0.08551 0.90062 0.0
C903 C 0.96381 0.09784 0.84757 0.0
C904 C 0.9576 0.10763 0.80916 0.0
C905 C 0.94053 0.10509 0.82291 0.0
C906 C 0.92961 0.09272 0.87496 0.0
C907 C 0.93578 0.08292 0.91361 0.0
H908 H 0.93574 0.11268 0.7931 0.0
H909 H 0.99564 1.01688 0.16257 0.0
H910 H 0.93067 0.91424 0.97487 0.0
H911 H 0.96338 0.92933 0.97434 0.0
H912 H 0.96094 0.87856 0.00889 0.0
H913 H 0.92811 0.86343 0.0122 0.0
H914 H 0.98755 0.90324 0.08413 0.0
H915 H 0.96846 0.89989 0.83945 0.0
H916 H 0.9523 0.90455 0.74018 0.0
H917 H 0.98341 0.96163 0.77088 0.0
H918 H 0.9994 0.95727 0.87199 0.0
H919 H 0.07675 0.93076 0.97151 0.0
H920 H 0.04421 0.91627 0.98367 0.0
H921 H 0.04711 0.96743 0.9554 0.0
H922 H 0.07975 0.98206 0.94327 0.0
H923 H 1.02039 0.94273 0.87824 0.0
H924 H 0.03931 0.94629 0.12284 0.0
H925 H 0.05509 0.94185 0.22444 0.0
H926 H 1.02466 0.88475 0.19331 0.0
H927 H 1.00886 0.88887 0.09084 0.0
C928 C 0.93705 0.90625 0.98269 0.0
C929 C 0.92667 0.88755 -0.00692 0.0
C930 C 0.95584 0.91492 0.98201 0.0
C931 C 0.9648 0.90511 -0.01008 0.0
C932 C 0.95446 0.8865 0.00231 0.0
C933 C 0.93564 0.87783 0.00406 0.0
C934 C 0.98486 0.91418 0.98386 0.0
C935 C 0.99468 0.91167 0.03856 0.0
C936 C 0.99438 0.92559 0.92535 0.0
C937 C 0.98501 0.92824 0.86371 0.0
C938 C 0.97178 0.91343 0.82535 0.0
C939 C 0.96264 0.91602 0.76872 0.0
C940 C 0.96685 0.93339 0.7491 0.0
C941 C 0.98017 0.94819 0.78616 0.0
C942 C 0.98925 0.94567 0.84322 0.0
C943 C 0.07055 0.93903 0.9688 0.0
C944 C 0.08103 0.95767 0.9568 0.0
C945 C 0.05185 0.93067 0.97573 0.0
C946 C 0.04307 0.94073 0.9715 0.0
C947 C 0.05347 0.95931 0.95895 0.0
C948 C 0.07219 0.96768 0.95179 0.0
C949 C 1.02307 0.93182 0.97852 0.0
C950 C 1.01326 0.93432 0.92386 0.0
C951 C 1.01358 0.92042 0.03703 0.0
C952 C 1.02303 0.9179 0.09872 0.0
C953 C 0.03608 0.93279 0.1373 0.0
C954 C 0.04501 0.93033 0.19511 0.0
C955 C 0.04091 0.91303 0.2152 0.0
C956 C 1.02784 0.89815 0.17762 0.0
C957 C 1.01888 0.90054 0.11972 0.0
H958 H 0.04784 0.91115 0.25998 0.0
H959 H 0.95982 0.93541 0.70514 0.0
H960 H 0.79387 0.48925 0.17918 0.0
H961 H 0.80872 0.47152 0.19108 0.0
H962 H 0.77687 0.44539 0.37852 0.0
H963 H 0.76174 0.46295 0.36655 0.0
H964 H 0.81099 0.4537 0.40054 0.0
H965 H 0.76716 0.42393 0.21614 0.0
H966 H 0.75127 0.42153 0.10272 0.0
H967 H 0.80013 0.43926 0.98462 0.0
H968 H 0.81637 0.44201 0.09751 0.0
H969 H 0.82207 0.37248 0.27496 0.0
H970 H 0.80698 0.39007 0.27188 0.0
H971 H 0.85541 0.43669 0.34537 0.0
H972 H 0.87054 0.41899 0.35021 0.0
H973 H 0.81192 0.41729 0.19578 0.0
H974 H 0.84514 0.46473 0.43782 0.0
H975 H 0.85852 0.46479 0.55521 0.0
H976 H 0.82633 0.40732 0.56552 0.0
H977 H 0.8126 0.40694 0.4487 0.0
C978 C 0.78981 0.4796 0.22254 0.0
C979 C 0.77641 0.47752 0.2715 0.0
C980 C 0.79842 0.46949 0.22947 0.0
C981 C 0.79386 0.45692 0.28532 0.0
C982 C 0.78071 0.455 0.33502 0.0
C983 C 0.77207 0.46511 0.32812 0.0
C984 C 0.80262 0.44567 0.29123 0.0
C985 C 0.81121 0.44577 0.35567 0.0
C986 C 0.80274 0.43503 0.23334 0.0
C987 C 0.79301 0.43334 0.16534 0.0
C988 C 0.77454 0.42745 0.16603 0.0
C989 C 0.76547 0.426 0.10184 0.0
C990 C 0.7747 0.43028 0.03653 0.0
C991 C 0.79301 0.43597 0.03527 0.0
C992 C 0.80215 0.43747 0.09933 0.0
C993 C 0.82956 0.38645 0.29099 0.0
C994 C 0.84758 0.39425 0.31311 0.0
C995 C 0.82087 0.39655 0.2889 0.0
C996 C 0.82992 0.41476 0.3088 0.0
C997 C 0.84795 0.42261 0.33087 0.0
C998 C 0.85664 0.41247 0.33339 0.0
C999 C 0.82052 0.42546 0.30486 0.0
C1000 C 0.81179 0.42527 0.24066 0.0
C1001 C 0.82 0.43574 0.36345 0.0
C1002 C 0.82799 0.43581 0.43417 0.0
C1003 C 0.84088 0.45212 0.46529 0.0
C1004 C 0.84853 0.45221 0.5317 0.0
C1005 C 0.84332 0.43607 0.56768 0.0
C1006 C 0.8304 0.41981 0.53746 0.0
C1007 C 0.8227 0.41965 0.47111 0.0
H1008 H 0.84927 0.43616 0.61905 0.0
H1009 H 0.76765 0.42915 -0.01312 0.0
H1010 H 0.64967 0.4733 0.36373 0.0
H1011 H 0.63167 0.44045 0.35934 0.0
H1012 H 0.67645 0.4382 0.26724 0.0
H1013 H 0.69436 0.47088 0.27033 0.0
H1014 H 0.64692 0.41633 0.19661 0.0
H1015 H 0.6633 0.42705 0.44658 0.0
H1016 H 0.66555 0.44034 0.5662 0.0
H1017 H 0.60816 0.41525 0.5768 0.0
H1018 H 0.60557 0.40199 0.45676 0.0
H1019 H 0.61542 0.3232 0.23419 0.0
H1020 H 0.6326 0.35591 0.24516 0.0
H1021 H 0.58673 0.35557 0.33993 0.0
H1022 H 0.56953 0.32284 0.32958 0.0
H1023 H 0.61592 0.37879 0.4093 0.0
H1024 H 0.59929 0.36789 0.16101 0.0
H1025 H 0.59668 0.3547 0.04091 0.0
H1026 H 0.65406 0.38035 0.02625 0.0
H1027 H 0.65701 0.3935 0.14674 0.0
C1028 C 0.65573 0.46582 0.34289 0.0
C1029 C 0.67353 0.47485 0.31755 0.0
C1030 C 0.64542 0.44698 0.34062 0.0
C1031 C 0.65268 0.4367 0.31349 0.0
C1032 C 0.67045 0.44572 0.28835 0.0
C1033 C 0.68073 0.4645 0.29043 0.0
C1034 C 0.6418 0.41661 0.30968 0.0
C1035 C 0.64035 0.40814 0.24344 0.0
C1036 C 0.63273 0.4058 0.37008 0.0
C1037 C 0.63425 0.41368 0.44238 0.0
C1038 C 0.65116 0.42447 0.47419 0.0
C1039 C 0.6525 0.43198 0.5421 0.0
C1040 C 0.63701 0.42868 0.57899 0.0
C1041 C 0.62014 0.41781 0.54812 0.0
C1042 C 0.61874 0.41029 0.48018 0.0
C1043 C 0.60893 0.33007 0.25704 0.0
C1044 C 0.59101 0.32028 0.28065 0.0
C1045 C 0.6188 0.34884 0.2633 0.0
C1046 C 0.61095 0.35839 0.2924 0.0
C1047 C 0.59317 0.34862 0.31729 0.0
C1048 C 0.58333 0.32984 0.31146 0.0
C1049 C 0.6212 0.37851 0.29635 0.0
C1050 C 0.62249 0.38698 0.36249 0.0
C1051 C 0.63008 0.38935 0.23578 0.0
C1052 C 0.62836 0.38154 0.16318 0.0
C1053 C 0.61135 0.37061 0.13239 0.0
C1054 C 0.60981 0.36316 0.06421 0.0
C1055 C 0.62519 0.36665 0.02605 0.0
C1056 C 0.64216 0.37764 0.05591 0.0
C1057 C 0.64377 0.38511 0.12412 0.0
H1058 H 0.62398 0.36087 0.97328 0.0
H1059 H 0.63807 0.43451 0.63156 0.0
H1060 H 0.59587 0.19603 0.33672 0.0
H1061 H 0.62866 0.21109 0.33258 0.0
H1062 H 0.63112 0.26172 0.29315 0.0
H1063 H 0.59842 0.24666 0.29466 0.0
H1064 H 0.65351 0.25976 0.20891 0.0
H1065 H 0.64225 0.24927 0.46167 0.0
H1066 H 0.62864 0.23128 0.57088 0.0
H1067 H 0.65283 0.19922 0.52437 0.0
H1068 H 0.66639 0.21687 0.41433 0.0
H1069 H 0.74753 0.31533 0.26714 0.0
H1070 H 0.71492 0.30069 0.28175 0.0
H1071 H 0.71186 0.24923 0.29896 0.0
H1072 H 0.74444 0.2638 0.28618 0.0
H1073 H 0.69004 0.25188 0.39604 0.0
H1074 H 0.70096 0.26256 0.14229 0.0
H1075 H 0.71467 0.28096 0.03409 0.0
H1076 H 0.69111 0.31336 0.08517 0.0
H1077 H 0.67746 0.29529 0.19425 0.0
C1078 C 0.60339 0.21039 0.32769 0.0
C1079 C 0.59442 0.22009 0.31617 0.0
C1080 C 0.62221 0.21905 0.32563 0.0
C1081 C 0.63257 0.23769 0.31344 0.0
C1082 C 0.62358 0.24737 0.30253 0.0
C1083 C 0.6048 0.2387 0.30366 0.0
C1084 C 0.65269 0.24707 0.30985 0.0
C1085 C 0.66145 0.25821 0.25059 0.0
C1086 C 0.66325 0.24486 0.36308 0.0
C1087 C 0.65519 0.23429 0.4294 0.0
C1088 C 0.64456 0.23831 0.47447 0.0
C1089 C 0.63688 0.22818 0.53656 0.0
C1090 C 0.63983 0.21409 0.55445 0.0
C1091 C 0.65053 0.21013 0.51039 0.0
C1092 C 0.65823 0.2202 0.44819 0.0
C1093 C 0.73997 0.30092 0.27482 0.0
C1094 C 0.74871 0.29078 0.27485 0.0
C1095 C 0.72125 0.29252 0.28257 0.0
C1096 C 0.71079 0.27376 0.29054 0.0
C1097 C 0.71954 0.26368 0.29258 0.0
C1098 C 0.73821 0.27205 0.28459 0.0
C1099 C 0.69075 0.26458 0.29546 0.0
C1100 C 0.68204 0.25346 0.35473 0.0
C1101 C 0.68022 0.26687 0.24252 0.0
C1102 C 0.68834 0.27769 0.1768 0.0
C1103 C 0.69881 0.27369 0.13073 0.0
C1104 C 0.70656 0.28405 0.0692 0.0
C1105 C 0.7038 0.29835 0.05287 0.0
C1106 C 0.69326 0.3023 0.09794 0.0
C1107 C 0.6855 0.29199 0.15959 0.0
H1108 H 0.70981 0.30635 0.00521 0.0
H1109 H 0.63387 0.20627 0.60254 0.0
H1110 H 0.48803 0.70599 0.64315 0.0
H1111 H 0.47346 0.72411 0.64134 0.0
H1112 H 0.52492 0.77222 0.6657 0.0
H1113 H 0.53953 0.75403 0.67043 0.0
H1114 H 0.50135 0.77562 0.74179 0.0
H1115 H 0.50204 0.75687 0.49965 0.0
H1116 H 0.49612 0.73466 0.40469 0.0
H1117 H 0.43947 0.70999 0.44331 0.0
H1118 H 0.44511 0.73175 0.54022 0.0
H1119 H 0.47469 0.83747 0.62006 0.0
H1120 H 0.48868 0.81895 0.63332 0.0
H1121 H 0.43671 0.7711 0.62085 0.0
H1122 H 0.42256 0.78954 0.60832 0.0
H1123 H 0.4603 0.7675 0.53986 0.0
H1124 H 0.45951 0.78602 0.78192 0.0
H1125 H 0.46534 0.80759 0.87974 0.0
H1126 H 0.52198 0.83278 0.84028 0.0
H1127 H 0.51647 0.8115 0.74152 0.0
C1128 C 0.49628 0.72042 0.64848 0.0
C1129 C 0.51501 0.72852 0.65644 0.0
C1130 C 0.48791 0.73083 0.64707 0.0
C1131 C 0.49806 0.74967 0.65168 0.0
C1132 C 0.51672 0.75775 0.66168 0.0
C1133 C 0.52509 0.74731 0.66425 0.0
C1134 C 0.48929 0.76093 0.64455 0.0
C1135 C 0.49257 0.77398 0.69704 0.0
C1136 C 0.47746 0.75865 0.58713 0.0
C1137 C 0.47401 0.74585 0.52763 0.0
C1138 C 0.48832 0.74665 0.48817 0.0
C1139 C 0.48501 0.73412 0.434 0.0
C1140 C 0.46741 0.72092 0.41785 0.0
C1141 C 0.45309 0.72022 0.4559 0.0
C1142 C 0.45634 0.73263 0.51055 0.0
C1143 C 0.46615 0.82301 0.62104 0.0
C1144 C 0.4474 0.81509 0.61342 0.0
C1145 C 0.47422 0.8124 0.62852 0.0
C1146 C 0.46379 0.79355 0.629 0.0
C1147 C 0.44511 0.78558 0.62065 0.0
C1148 C 0.43702 0.79619 0.61318 0.0
C1149 C 0.47237 0.78217 0.63704 0.0
C1150 C 0.46908 0.76913 0.58461 0.0
C1151 C 0.4842 0.78449 0.69441 0.0
C1152 C 0.48756 0.79728 0.75385 0.0
C1153 C 0.4732 0.79625 0.79372 0.0
C1154 C 0.47645 0.80841 0.8494 0.0
C1155 C 0.49402 0.82158 0.86609 0.0
C1156 C 0.50838 0.82259 0.82723 0.0
C1157 C 0.5052 0.81047 0.77143 0.0
H1158 H 0.49651 0.83098 0.90923 0.0
H1159 H 0.46485 0.71124 0.37585 0.0
H1160 H 0.27994 0.65657 0.60141 0.0
H1161 H 0.29771 0.68918 0.61564 0.0
H1162 H 0.24987 0.69073 0.67083 0.0
H1163 H 0.23203 0.65815 0.65682 0.0
H1164 H 0.2691 0.71687 0.57971 0.0
H1165 H 0.28189 0.69636 0.79884 0.0
H1166 H 0.29132 0.67899 0.87443 0.0
H1167 H 0.34335 0.70553 0.77551 0.0
H1168 H 0.33415 0.72291 0.6986 0.0
H1169 H 0.31653 0.80886 0.69542 0.0
H1170 H 0.29747 0.77601 0.69545 0.0
H1171 H 0.34256 0.77081 0.62815 0.0
H1172 H 0.36159 0.80338 0.62822 0.0
H1173 H 0.32381 0.74657 0.73115 0.0
H1174 H 0.31045 0.76604 0.50883 0.0
H1175 H 0.30097 0.78335 0.43305 0.0
H1176 H 0.24984 0.75866 0.53922 0.0
H1177 H 0.25912 0.74138 0.61638 0.0
C1178 C 0.2732 0.66378 0.61753 0.0
C1179 C 0.25448 0.65459 0.62787 0.0
C1180 C 0.28341 0.68251 0.62559 0.0
C1181 C 0.27523 0.69255 0.64498 0.0
C1182 C 0.25657 0.6834 0.6556 0.0
C1183 C 0.24635 0.6647 0.64736 0.0
C1184 C 0.28603 0.71259 0.65279 0.0
C1185 C 0.28089 0.72331 0.61382 0.0
C1186 C 0.30166 0.72119 0.69615 0.0
C1187 C 0.30727 0.71082 0.74249 0.0
C1188 C 0.2953 0.6984 0.79283 0.0
C1189 C 0.30061 0.68857 0.83597 0.0
C1190 C 0.31791 0.69112 0.82965 0.0
C1191 C 0.32995 0.70355 0.78028 0.0
C1192 C 0.3247 0.71341 0.73695 0.0
C1193 C 0.32241 0.80072 0.68101 0.0
C1194 C 0.34063 0.80888 0.66148 0.0
C1195 C 0.31146 0.78191 0.68072 0.0
C1196 C 0.31849 0.77083 0.66115 0.0
C1197 C 0.33676 0.77896 0.64342 0.0
C1198 C 0.34764 0.79769 0.64323 0.0
C1199 C 0.30692 0.7508 0.65781 0.0
C1200 C 0.31193 0.74009 0.69751 0.0
C1201 C 0.29116 0.74222 0.61525 0.0
C1202 C 0.28556 0.75258 0.56894 0.0
C1203 C 0.29724 0.76442 0.51645 0.0
C1204 C 0.29189 0.77421 0.47317 0.0
C1205 C 0.27483 0.77215 0.48147 0.0
C1206 C 0.26307 0.76027 0.53296 0.0
C1207 C 0.26836 0.75047 0.57645 0.0
H1208 H 0.27072 0.77973 0.44789 0.0
H1209 H 0.322 0.68349 0.8631 0.0
H1210 H 0.41115 0.64702 0.57373 0.0
H1211 H 0.3785 0.63185 0.58676 0.0
H1212 H 0.37876 0.58696 0.68877 0.0
H1213 H 0.41134 0.60184 0.67436 0.0
H1214 H 0.35212 0.57529 0.59244 0.0
H1215 H 0.37284 0.61751 0.78629 0.0
H1216 H 0.38984 0.64726 0.84355 0.0
H1217 H 0.3615 0.66662 0.71563 0.0
H1218 H 0.3445 0.63704 0.65679 0.0
H1219 H 0.26107 0.53275 0.71058 0.0
H1220 H 0.29389 0.54764 0.70918 0.0
H1221 H 0.29654 0.5944 0.6116 0.0
H1222 H 0.26388 0.57979 0.61388 0.0
H1223 H 0.32183 0.60467 0.71033 0.0
H1224 H 0.30203 0.56303 0.51314 0.0
H1225 H 0.28497 0.53336 0.45521 0.0
H1226 H 0.31159 0.51307 0.58857 0.0
H1227 H 0.32864 0.54257 0.64802 0.0
C1228 C 0.40428 0.63388 0.59866 0.0
C1229 C 0.41401 0.62574 0.62318 0.0
C1230 C 0.38557 0.62526 0.60668 0.0
C1231 C 0.37606 0.60828 0.63951 0.0
C1232 C 0.38571 0.60006 0.66352 0.0
C1233 C 0.40442 0.60869 0.65578 0.0
C1234 C 0.35607 0.59898 0.64784 0.0
C1235 C 0.34554 0.58164 0.6192 0.0
C1236 C 0.34731 0.60729 0.6814 0.0
C1237 C 0.35753 0.6251 0.7166 0.0
C1238 C 0.37034 0.62815 0.76991 0.0
C1239 C 0.37996 0.64498 0.80273 0.0
C1240 C 0.37679 0.65883 0.7831 0.0
C1241 C 0.36396 0.65588 0.7307 0.0
C1242 C 0.35433 0.63908 0.69763 0.0
C1243 C 0.26862 0.54623 0.68912 0.0
C1244 C 0.2597 0.55497 0.66206 0.0
C1245 C 0.28744 0.55473 0.68801 0.0
C1246 C 0.29782 0.57212 0.65929 0.0
C1247 C 0.28894 0.58101 0.63395 0.0
C1248 C 0.27017 0.57256 0.63517 0.0
C1249 C 0.31787 0.58103 0.65454 0.0
C1250 C 0.32841 0.5983 0.6838 0.0
C1251 C 0.32664 0.57267 0.6214 0.0
C1252 C 0.31646 0.55495 0.58555 0.0
C1253 C 0.30414 0.5522 0.53048 0.0
C1254 C 0.29449 0.53542 0.49732 0.0
C1255 C 0.29716 0.52133 0.51833 0.0
C1256 C 0.30952 0.524 0.57243 0.0
C1257 C 0.31919 0.54074 0.60586 0.0
H1258 H 0.28967 0.50835 0.49258 0.0
H1259 H 0.38424 0.67185 0.8086 0.0
H1260 H 1.00141 0.17647 0.76506 0.0
H1261 H 1.00507 0.17595 0.63476 0.0
H1262 H 0.06234 0.21005 0.65853 0.0
H1263 H 0.05877 0.21031 0.78878 0.0
H1264 H 1.01778 0.20355 0.54365 0.0
H1265 H 0.08382 0.20108 0.52594 0.0
H1266 H 0.09959 0.18867 0.5952 0.0
H1267 H 0.04939 0.14753 0.68084 0.0
H1268 H 0.0333 0.15949 0.61117 0.0
H1269 H 0.07747 0.21903 0.20602 0.0
H1270 H 0.07267 0.21698 0.33621 0.0
H1271 H 1.01581 0.18229 0.303 0.0
H1272 H 1.02053 0.18443 0.1729 0.0
H1273 H 0.05933 0.18779 0.42227 0.0
H1274 H 0.99306 0.18915 0.43762 0.0
H1275 H 0.97708 0.20223 0.37438 0.0
H1276 H 1.02719 0.24533 0.29687 0.0
H1277 H 0.04349 0.23259 0.36009 0.0
C1278 C 1.01479 0.18368 0.74239 0.0
C1279 C 0.02981 0.19348 0.78663 0.0
C1280 C 1.01685 0.18342 0.66811 0.0
C1281 C 0.03397 0.19289 0.63704 0.0
C1282 C 0.04903 0.20243 0.68145 0.0
C1283 C 0.04698 0.20264 0.75575 0.0
C1284 C 0.03602 0.1935 0.55795 0.0
C1285 C 1.02662 0.19981 0.51693 0.0
C1286 C 0.04787 0.18899 0.52351 0.0
C1287 C 0.05738 0.18131 0.5638 0.0
C1288 C 0.07614 0.18932 0.55916 0.0
C1289 C 0.08513 0.18237 0.59857 0.0
C1290 C 0.0755 0.16736 0.6426 0.0
C1291 C 0.05684 0.15919 0.64692 0.0
C1292 C 0.04778 0.16606 0.6075 0.0
C1293 C 0.06394 0.2111 0.22661 0.0
C1294 C 0.04936 0.20194 0.17965 0.0
C1295 C 0.06123 0.20988 0.30085 0.0
C1296 C 0.04389 0.19956 0.32922 0.0
C1297 C 0.02928 0.19052 0.28223 0.0
C1298 C 0.03199 0.19174 0.208 0.0
C1299 C 0.04115 0.19794 0.40803 0.0
C1300 C 0.05041 0.19143 0.44899 0.0
C1301 C 1.0291 0.20218 0.44248 0.0
C1302 C 1.01946 0.20981 0.40302 0.0
C1303 C 1.00066 0.20141 0.40704 0.0
C1304 C 0.99155 0.20877 0.37123 0.0
C1305 C 1.00111 0.22458 0.3316 0.0
C1306 C 1.01981 0.23305 0.32746 0.0
C1307 C 1.02898 0.22573 0.36306 0.0
H1308 H 0.99403 0.23029 0.3043 0.0
H1309 H 0.0825 0.16205 0.67328 0.0
H1310 H 0.89168 0.84557 0.75707 0.0
H1311 H 0.89049 0.8484 0.6265 0.0
H1312 H 0.85641 0.87147 0.65358 0.0
H1313 H 0.85753 0.86862 0.78409 0.0
H1314 H 0.84298 0.8444 0.55507 0.0
H1315 H 0.89931 0.89744 0.60392 0.0
H1316 H 0.93019 0.91576 0.64901 0.0
H1317 H 0.94714 0.88574 0.51881 0.0
H1318 H 0.91624 0.86704 0.47369 0.0
H1319 H 0.84733 0.87669 0.19908 0.0
H1320 H 0.84829 0.87275 0.32899 0.0
H1321 H 0.88362 0.8513 0.29687 0.0
H1322 H 0.88296 0.85552 0.1671 0.0
H1323 H 0.89625 0.87683 0.39771 0.0
H1324 H 0.84026 0.82416 0.34641 0.0
H1325 H 0.80972 0.80669 0.29648 0.0
H1326 H 0.79225 0.83583 0.42924 0.0
H1327 H 0.82277 0.85369 0.4792 0.0
C1328 C 0.88409 0.8514 0.73508 0.0
C1329 C 0.87462 0.85679 0.78038 0.0
C1330 C 0.88345 0.85306 0.66063 0.0
C1331 C 0.87337 0.86016 0.63048 0.0
C1332 C 0.86421 0.8659 0.67585 0.0
C1333 C 0.86491 0.86432 0.75028 0.0
C1334 C 0.87177 0.86093 0.55156 0.0
C1335 C 0.8546 0.85168 0.52065 0.0
C1336 C 0.88698 0.86997 0.50671 0.0
C1337 C 0.90541 0.88073 0.53597 0.0
C1338 C 0.90956 0.89459 0.58562 0.0
C1339 C 0.9271 0.90508 0.61099 0.0
C1340 C 0.94064 0.90193 0.58672 0.0
C1341 C 0.93664 0.88818 0.5375 0.0
C1342 C 0.91912 0.87762 0.51202 0.0
C1343 C 0.85515 0.87098 0.21983 0.0
C1344 C 0.86508 0.86641 0.17338 0.0
C1345 C 0.85562 0.86866 0.29389 0.0
C1346 C 0.86593 0.86162 0.32246 0.0
C1347 C 0.87558 0.85674 0.27585 0.0
C1348 C 0.87513 0.85909 0.20184 0.0
C1349 C 0.86747 0.86033 0.40117 0.0
C1350 C 0.88463 0.86947 0.43207 0.0
C1351 C 0.85225 0.85113 0.44591 0.0
C1352 C 0.83386 0.84039 0.41605 0.0
C1353 C 0.82995 0.82696 0.36452 0.0
C1354 C 0.81263 0.81696 0.33629 0.0
C1355 C 0.79906 0.82018 0.35954 0.0
C1356 C 0.80278 0.83337 0.41121 0.0
C1357 C 0.82008 0.84343 0.43955 0.0
H1358 H 0.78566 0.81242 0.33764 0.0
H1359 H 0.95426 0.91018 0.60576 0.0
H1360 H 0.22393 0.06679 0.7591 0.0
H1361 H 0.22133 0.06285 0.62855 0.0
H1362 H 0.19679 1.00549 0.65566 0.0
H1363 H 0.19947 1.00937 0.78624 0.0
H1364 H 0.2237 1.01827 0.55764 0.0
H1365 H 0.17195 0.02393 0.60492 0.0
H1366 H 0.15458 0.03757 0.64935 0.0
H1367 H 0.1862 0.08436 0.51983 0.0
H1368 H 0.20397 0.07106 0.47535 0.0
H1369 H 0.19149 0.99114 0.20151 0.0
H1370 H 0.19556 0.996 0.33131 0.0
H1371 H 0.21804 0.05299 0.29883 0.0
H1372 H 0.2135 0.04811 0.16924 0.0
H1373 H 0.19305 0.04101 0.39942 0.0
H1374 H 0.24435 0.03523 0.34894 0.0
H1375 H 0.2608 0.02104 0.29941 0.0
H1376 H 0.23021 0.97473 0.43256 0.0
H1377 H 0.21338 0.98853 0.48214 0.0
C1378 C 0.21783 0.05334 0.73713 0.0
C1379 C 0.21197 0.03839 0.78247 0.0
C1380 C 0.21631 0.0511 0.66267 0.0
C1381 C 0.20884 0.03387 0.63254 0.0
C1382 C 0.20265 1.0189 0.67793 0.0
C1383 C 0.20412 0.02112 0.75238 0.0
C1384 C 0.2081 0.03153 0.55362 0.0
C1385 C 0.21681 0.02303 0.52301 0.0
C1386 C 0.19959 0.03825 0.50849 0.0
C1387 C 0.1894 0.04657 0.53736 0.0
C1388 C 0.17536 0.03722 0.58663 0.0
C1389 C 0.16539 0.04488 0.61162 0.0
C1390 C 0.16926 0.06183 0.58735 0.0
C1391 C 0.18321 0.07122 0.53851 0.0
C1392 C 0.19323 0.06364 0.51341 0.0
C1393 C 0.19744 1.00471 0.22216 0.0
C1394 C 0.20221 1.01926 0.17565 0.0
C1395 C 0.19986 1.00749 0.29617 0.0
C1396 C 0.20726 0.02488 0.32462 0.0
C1397 C 0.21234 0.03947 0.27793 0.0
C1398 C 0.20983 0.03668 0.20399 0.0
C1399 C 0.20863 0.02773 0.4033 0.0
C1400 C 0.20004 0.03633 0.43393 0.0
C1401 C 0.21733 0.02117 0.4483 0.0
C1402 C 0.22748 1.01286 0.41879 0.0
C1403 C 0.24102 0.02196 0.36725 0.0
C1404 C 0.25044 1.014 0.33924 0.0
C1405 C 0.24652 0.99698 0.3627 0.0
C1406 C 0.23322 0.98791 0.41438 0.0
C1407 C 0.22374 0.9958 0.44251 0.0
H1408 H 0.25383 0.99083 0.34095 0.0
H1409 H 0.16142 0.06767 0.60608 0.0
H1410 H 0.68598 0.51714 0.49907 0.0
H1411 H 0.68135 0.51517 0.6292 0.0
H1412 H 0.73822 0.54994 0.66164 0.0
H1413 H 0.74293 0.55181 0.53139 0.0
H1414 H 0.72503 0.52103 0.74879 0.0
H1415 H 0.70895 0.56559 0.68566 0.0
H1416 H 0.69258 0.57821 0.62214 0.0
H1417 H 0.64251 0.53495 0.69924 0.0
H1418 H 0.65858 0.52201 0.76291 0.0
H1419 H 0.7241 0.54356 0.1154 0.0
H1420 H 0.72783 0.54326 0.98526 0.0
H1421 H 0.67057 0.50927 0.9605 0.0
H1422 H 0.66676 0.50982 0.09069 0.0
H1423 H 0.68327 0.53665 0.8692 0.0
H1424 H 0.69908 0.49285 0.93785 0.0
H1425 H 0.71525 0.48085 0.00674 0.0
H1426 H 0.76536 0.52206 0.92081 0.0
H1427 H 0.74952 0.53451 0.85228 0.0
C1428 C 0.69746 0.52449 0.53399 0.0
C1429 C 0.71481 0.53467 0.50538 0.0
C1430 C 0.6948 0.52338 0.60827 0.0
C1431 C 0.70943 0.53251 0.6551 0.0
C1432 C 0.72676 0.54278 0.62645 0.0
C1433 C 0.72942 0.5439 0.55216 0.0
C1434 C 0.70674 0.53102 0.734 0.0
C1435 C 0.71607 0.52465 0.7753 0.0
C1436 C 0.69464 0.53523 0.76824 0.0
C1437 C 0.68496 0.54275 0.72848 0.0
C1438 C 0.69444 0.55868 0.68849 0.0
C1439 C 0.68522 0.56592 0.65269 0.0
C1440 C 0.66652 0.55737 0.65662 0.0
C1441 C 0.657 0.54155 0.69625 0.0
C1442 C 0.66615 0.53428 0.7323 0.0
C1443 C 0.71234 0.53591 0.08219 0.0
C1444 C 0.69514 0.52677 0.1128 0.0
C1445 C 0.71448 0.53567 0.00793 0.0
C1446 C 0.69948 0.52613 0.96322 0.0
C1447 C 0.68232 0.51672 -0.00597 0.0
C1448 C 0.68016 0.51701 0.06828 0.0
C1449 C 0.70161 0.52674 0.8841 0.0
C1450 C 0.69217 0.53294 0.84273 0.0
C1451 C 0.71354 0.5223 0.84989 0.0
C1452 C 0.72311 0.51471 0.89035 0.0
C1453 C 0.71356 0.49944 0.93401 0.0
C1454 C 0.72267 0.49254 0.97297 0.0
C1455 C 0.74132 0.50071 0.96824 0.0
C1456 C 0.75091 0.51576 0.92444 0.0
C1457 C 0.74187 0.52274 0.88548 0.0
H1458 H 0.74835 0.49534 -0.00161 0.0
H1459 H 0.6594 0.56302 0.62917 0.0
H1460 H 0.51793 0.2126 0.52746 0.0
H1461 H 0.52025 0.21013 0.65765 0.0
H1462 H 0.55299 0.18577 0.6246 0.0
H1463 H 0.55084 0.18835 0.49433 0.0
H1464 H 0.52675 0.16846 0.72906 0.0
H1465 H 0.5729 0.22817 0.66958 0.0
H1466 H 0.58534 0.25822 0.61527 0.0
H1467 H 0.55095 0.26895 0.74773 0.0
H1468 H 0.53809 0.23882 0.80209 0.0
H1469 H 0.55863 0.17722 0.08505 0.0
H1470 H 0.55835 0.18085 0.95467 0.0
H1471 H 0.52705 0.207 0.98103 0.0
H1472 H 0.52744 0.20355 0.11156 0.0
H1473 H 0.55328 0.22353 0.87932 0.0
H1474 H 0.50663 0.16364 0.93667 0.0
H1475 H 0.494 0.13353 -0.00934 0.0
H1476 H 0.52914 0.12309 0.8618 0.0
H1477 H 0.54218 0.15328 0.8078 0.0
C1478 C 0.52553 0.20663 0.54804 0.0
C1479 C 0.53422 0.20067 0.50111 0.0
C1480 C 0.52689 0.20528 0.62224 0.0
C1481 C 0.53695 0.19794 0.65051 0.0
C1482 C 0.54519 0.19149 0.60366 0.0
C1483 C 0.54393 0.19295 0.52943 0.0
C1484 C 0.53908 0.19728 0.72905 0.0
C1485 C 0.53277 0.18051 0.76187 0.0
C1486 C 0.54664 0.213 0.77169 0.0
C1487 C 0.5544 0.23116 0.73937 0.0
C1488 C 0.56787 0.23687 0.68669 0.0
C1489 C 0.57502 0.25393 0.65597 0.0
C1490 C 0.5689 0.26547 0.67789 0.0
C1491 C 0.55566 0.25998 0.73073 0.0
C1492 C 0.54844 0.24292 0.76155 0.0
C1493 C 0.55183 0.18387 0.06298 0.0
C1494 C 0.5429 0.18994 0.10801 0.0
C1495 C 0.55163 0.18589 -0.01136 0.0
C1496 C 0.54244 0.19393 0.95831 0.0
C1497 C 0.53415 0.20069 0.00347 0.0
C1498 C 0.53434 0.19867 0.07786 0.0
C1499 C 0.54089 0.1947 0.87941 0.0
C1500 C 0.5473 0.21149 0.8465 0.0
C1501 C 0.5334 0.17898 0.83666 0.0
C1502 C 0.52551 0.16079 0.86875 0.0
C1503 C 0.51177 0.15498 0.92027 0.0
C1504 C 0.50452 0.13789 0.9508 0.0
C1505 C 0.5108 0.12642 0.92982 0.0
C1506 C 0.52431 0.132 0.87809 0.0
C1507 C 0.53163 0.1491 0.84747 0.0
H1508 H 0.50517 0.11319 0.95351 0.0
H1509 H 0.57445 0.27868 0.65405 0.0
H1510 H 0.87797 0.38234 0.49464 0.0
H1511 H 0.88068 0.387 0.62478 0.0
H1512 H 0.85888 0.33012 0.6573 0.0
H1513 H 0.85601 0.32539 0.52707 0.0
H1514 H 0.84299 0.34319 0.74404 0.0
H1515 H 0.90367 0.35959 0.68136 0.0
H1516 H 0.93272 0.37609 0.61854 0.0
H1517 H 0.93942 0.42607 0.69634 0.0
H1518 H 0.91035 0.40988 0.75924 0.0
H1519 H 0.86638 0.34418 0.1109 0.0
H1520 H 0.86246 0.34046 0.98068 0.0
H1521 H 0.88538 0.39773 0.95605 0.0
H1522 H 0.88962 0.40153 0.08629 0.0
H1523 H 0.90028 0.38515 0.86508 0.0
H1524 H 0.84058 0.3691 0.93253 0.0
H1525 H 0.81251 0.35281 0.00179 0.0
H1526 H 0.80392 0.3027 0.91695 0.0
H1527 H 0.83211 0.31867 0.84801 0.0
C1528 C 0.87393 0.37087 0.52958 0.0
C1529 C 0.86683 0.35351 0.50101 0.0
C1530 C 0.8755 0.37354 0.60385 0.0
C1531 C 0.87008 0.35891 0.65069 0.0
C1532 C 0.86311 0.34158 0.62209 0.0
C1533 C 0.86155 0.33891 0.54781 0.0
C1534 C 0.87126 0.36161 0.72957 0.0
C1535 C 0.85555 0.3522 0.77067 0.0
C1536 C 0.88754 0.37376 0.76397 0.0
C1537 C 0.90476 0.38353 0.72443 0.0
C1538 C 0.91126 0.37411 0.68446 0.0
C1539 C 0.92776 0.3834 0.64909 0.0
C1540 C 0.9379 0.40212 0.65345 0.0
C1541 C 0.93155 0.41158 0.69302 0.0
C1542 C 0.91508 0.40235 0.72863 0.0
C1543 C 0.87043 0.35594 0.07769 0.0
C1544 C 0.87837 0.37315 0.10834 0.0
C1545 C 0.86812 0.3538 0.00339 0.0
C1546 C 0.87352 0.36882 0.95873 0.0
C1547 C 0.88114 0.38598 -0.01044 0.0
C1548 C 0.88351 0.38813 0.06384 0.0
C1549 C 0.87205 0.3667 0.87961 0.0
C1550 C 0.88769 0.37621 0.83845 0.0
C1551 C 0.8557 0.35472 0.84523 0.0
C1552 C 0.83855 0.34508 0.88556 0.0
C1553 C 0.83277 0.3546 0.92898 0.0
C1554 C 0.81683 0.34542 0.96816 0.0
C1555 C 0.80646 0.32673 0.96393 0.0
C1556 C 0.81198 0.31718 0.92024 0.0
C1557 C 0.82793 0.32629 0.88103 0.0
H1558 H 0.79414 0.31965 -0.0056 0.0
H1559 H 0.9507 0.4093 0.62636 0.0
H1560 H 0.37252 0.84828 0.45234 0.0
H1561 H 0.37693 0.84896 0.32196 0.0
H1562 H 0.36732 0.89348 0.30387 0.0
H1563 H 0.36286 0.8928 0.43389 0.0
H1564 H 0.34902 0.86867 0.20245 0.0
H1565 H 0.40879 0.90092 0.28713 0.0
H1566 H 0.43473 0.90695 0.36269 0.0
H1567 H 0.43462 0.86075 0.2747 0.0
H1568 H 0.40847 0.85428 0.19922 0.0
H1569 H 0.37926 0.88861 0.83871 0.0
H1570 H 0.37723 0.89144 0.96886 0.0
H1571 H 0.38211 0.84441 0.00179 0.0
H1572 H 0.38401 0.84144 0.8716 0.0
H1573 H 0.40366 0.87267 0.09495 0.0
H1574 H 0.34172 0.84099 0.01203 0.0
H1575 H 0.31732 0.83805 0.93331 0.0
H1576 H 0.3236 0.88744 0.01637 0.0
H1577 H 0.3482 0.89078 0.09504 0.0
C1578 C 0.3715 0.85828 0.42053 0.0
C1579 C 0.36738 0.87049 0.45305 0.0
C1580 C 0.374 0.85867 0.34613 0.0
C1581 C 0.3725 0.87132 0.30318 0.0
C1582 C 0.36845 0.88355 0.33583 0.0
C1583 C 0.36596 0.88317 0.4101 0.0
C1584 C 0.37499 0.87165 0.22413 0.0
C1585 C 0.36106 0.86977 0.17898 0.0
C1586 C 0.3907 0.87311 0.19341 0.0
C1587 C 0.40656 0.87702 0.23798 0.0
C1588 C 0.41421 0.89197 0.28421 0.0
C1589 C 0.42897 0.89548 0.32699 0.0
C1590 C 0.43629 0.88421 0.32365 0.0
C1591 C 0.42891 0.86945 0.27729 0.0
C1592 C 0.41413 0.86586 0.23442 0.0
C1593 C 0.37969 0.87876 0.8737 0.0
C1594 C 0.38149 0.86463 0.84519 0.0
C1595 C 0.37863 0.88045 0.94799 0.0
C1596 C 0.37939 0.86805 -0.00508 0.0
C1597 C 0.38152 0.85412 0.9665 0.0
C1598 C 0.38251 0.85239 0.89222 0.0
C1599 C 0.37756 0.86931 0.07362 0.0
C1600 C 0.39164 0.87157 0.11862 0.0
C1601 C 0.36215 0.86857 0.10411 0.0
C1602 C 0.34687 0.86618 0.05907 0.0
C1603 C 0.33792 0.85123 0.01341 0.0
C1604 C 0.32406 0.8495 0.9688 0.0
C1605 C 0.31892 0.86255 0.96983 0.0
C1606 C 0.32758 0.87732 0.01574 0.0
C1607 C 0.34146 0.87913 0.06041 0.0
H1608 H 0.30825 0.86123 0.93502 0.0
H1609 H 0.44771 0.88694 0.35686 0.0
H1610 H 0.21669 0.56401 0.85496 0.0
H1611 H 0.21947 0.5622 -0.01443 0.0
H1612 H 0.18361 0.50488 0.97714 0.0
H1613 H 0.18067 0.50678 0.84653 0.0
H1614 H 0.17582 0.52093 0.08927 0.0
H1615 H 0.22699 0.52023 -0.00837 0.0
H1616 H 0.25402 0.53144 0.91606 0.0
H1617 H 0.27923 0.58096 0.03421 0.0
H1618 H 0.25222 0.57016 0.10973 0.0
H1619 H 0.22377 0.51153 0.42347 0.0
H1620 H 0.22311 0.51515 0.29322 0.0
H1621 H 0.19708 0.54645 0.32373 0.0
H1622 H 0.19707 0.54224 0.45374 0.0
H1623 H 0.23565 0.54206 0.19943 0.0
H1624 H 0.16585 0.53601 0.19306 0.0
H1625 H 0.1391 0.52449 0.27066 0.0
H1626 H 0.15088 0.48558 0.36089 0.0
H1627 H 0.17736 0.49649 0.28234 0.0
C1628 C 0.20942 0.55107 0.88133 0.0
C1629 C 0.1987 0.53548 0.84135 0.0
C1630 C 0.21103 0.55003 0.95559 0.0
C1631 C 0.20189 0.53337 -0.00919 0.0
C1632 C 0.19083 0.51783 0.95086 0.0
C1633 C 0.1893 0.51888 0.87644 0.0
C1634 C 0.20408 0.53219 0.06921 0.0
C1635 C 0.18889 0.52553 0.11341 0.0
C1636 C 0.22112 0.53803 0.10044 0.0
C1637 C 0.23751 0.54444 0.05594 0.0
C1638 C 0.23825 0.53356 0.00119 0.0
C1639 C 0.25358 0.53983 0.95839 0.0
C1640 C 0.26832 0.55692 0.97022 0.0
C1641 C 0.26779 0.56773 0.02506 0.0
C1642 C 0.25248 0.56154 0.06791 0.0
C1643 C 0.21805 0.5193 0.4023 0.0
C1644 C 0.21025 0.5264 0.44836 0.0
C1645 C 0.21775 0.52143 0.32797 0.0
C1646 C 0.20974 0.53077 0.29868 0.0
C1647 C 0.20298 0.53886 0.34508 0.0
C1648 C 0.20305 0.53651 0.4193 0.0
C1649 C 0.20742 0.53104 0.21977 0.0
C1650 C 0.22258 0.53748 0.17539 0.0
C1651 C 0.1903 0.52475 0.18828 0.0
C1652 C 0.17369 0.5172 0.23224 0.0
C1653 C 0.1626 0.52485 0.22881 0.0
C1654 C 0.14748 0.51842 0.27299 0.0
C1655 C 0.1433 0.50432 0.32074 0.0
C1656 C 0.1541 0.49646 0.32377 0.0
C1657 C 0.16914 0.50274 0.27933 0.0
H1658 H 0.13171 0.4995 0.35542 0.0
H1659 H 0.28017 0.56176 0.93699 0.0
H1660 H 0.55477 0.73437 0.4224 0.0
H1661 H 0.55169 0.73041 0.29181 0.0
H1662 H 0.52994 0.67337 0.3182 0.0
H1663 H 0.53298 0.67725 0.44869 0.0
H1664 H 0.55736 0.68807 0.22011 0.0
H1665 H 0.50308 0.68903 0.26903 0.0
H1666 H 0.48387 0.70059 0.31393 0.0
H1667 H 0.51256 0.74786 0.18384 0.0
H1668 H 0.53214 0.7367 0.13887 0.0
H1669 H 0.52556 0.65946 0.8645 0.0
H1670 H 0.52923 0.66439 -0.00555 0.0
H1671 H 0.54921 0.72097 0.96189 0.0
H1672 H 0.54531 0.71606 0.83206 0.0
H1673 H 0.5234 0.70718 0.06277 0.0
H1674 H 0.57733 0.70644 0.0118 0.0
H1675 H 0.59582 0.69459 0.96147 0.0
H1676 H 0.56819 0.64748 0.09324 0.0
H1677 H 0.54933 0.65893 0.14361 0.0
C1678 C 0.54915 0.72098 0.40025 0.0
C1679 C 0.54422 0.70613 0.44531 0.0
C1680 C 0.54736 0.71873 0.32582 0.0
C1681 C 0.54059 0.7016 0.29551 0.0
C1682 C 0.53525 0.6867 0.34065 0.0
C1683 C 0.53694 0.68893 0.41506 0.0
C1684 C 0.53993 0.69933 0.21662 0.0
C1685 C 0.54974 0.69202 0.18569 0.0
C1686 C 0.53046 0.70503 0.17181 0.0
C1687 C 0.51919 0.7121 0.20112 0.0
C1688 C 0.50546 0.70201 0.25072 0.0
C1689 C 0.49445 0.70846 0.27598 0.0
C1690 C 0.49698 0.72495 0.25166 0.0
C1691 C 0.51061 0.73509 0.20254 0.0
C1692 C 0.52166 0.7287 0.17716 0.0
C1693 C 0.53089 0.67296 0.88517 0.0
C1694 C 0.53516 0.68738 0.83858 0.0
C1695 C 0.53305 0.67577 0.95923 0.0
C1696 C 0.53959 0.69306 -0.01236 0.0
C1697 C 0.54415 0.70753 0.94095 0.0
C1698 C 0.542 0.70473 0.86691 0.0
C1699 C 0.54077 0.69588 0.06628 0.0
C1700 C 0.53108 0.7033 0.09716 0.0
C1701 C 0.55043 0.69038 0.11097 0.0
C1702 C 0.56179 0.68347 0.08099 0.0
C1703 C 0.57509 0.69348 0.02962 0.0
C1704 C 0.58566 0.68685 0.00116 0.0
C1705 C 0.58315 0.67027 0.02402 0.0
C1706 C 0.5701 0.66031 0.07553 0.0
C1707 C 0.55948 0.66687 0.1041 0.0
H1708 H 0.59135 0.66516 0.00193 0.0
H1709 H 0.48834 0.72985 0.27062 0.0
loop_
_geom_bond_atom_site_label_1
_geom_bond_atom_site_label_2
_geom_bond_distance
_geom_bond_site_symmetry_2
_ccdc_geom_bond_type
Tb0 C2 2.809 . S
Tb0 O20 2.484 . S
Tb0 O21 2.440 1_554 S
Tb0 O22 2.658 1_654 S
Tb0 O23 2.409 1_554 S
Tb0 O24 2.378 1_654 S
Tb0 O28 2.325 1_655 S
Tb0 O31 2.341 . S
Tb1 C11 2.809 1_554 S
Tb1 O22 2.325 1_554 S
Tb1 O25 2.341 1_554 S
Tb1 O26 2.484 1_554 S
Tb1 O27 2.440 . S
Tb1 O28 2.658 . S
Tb1 O29 2.409 . S
Tb1 O30 2.378 . S
C2 Tb0 2.809 . S
C2 C3 1.514 . S
C2 O20 1.248 . S
C2 O21 1.266 1_554 S
C3 C2 1.514 . S
C3 C4 1.359 . S
C3 C8 1.348 1_554 S
C4 C3 1.359 . S
C4 C5 1.380 . S
C4 H32 0.929 . S
C5 C4 1.380 . S
C5 C6 1.347 . S
C5 H33 0.931 . S
C6 C5 1.347 . S
C6 C7 1.369 1_554 S
C7 C6 1.369 1_556 S
C7 C8 1.408 . S
C7 H34 0.930 . S
C8 C3 1.348 1_556 S
C8 C7 1.408 . S
C8 H35 0.930 . S
C9 O22 1.281 . S
C9 O23 1.254 1_455 S
C10 O24 1.236 . S
C10 O25 1.266 . S
C11 Tb1 2.809 1_556 S
C11 C12 1.514 . S
C11 O26 1.248 . S
C11 O27 1.266 1_556 S
C12 C11 1.514 . S
C12 C13 1.359 . S
C12 C17 1.348 1_556 S
C13 C12 1.359 . S
C13 C14 1.380 . S
C13 H36 0.929 . S
C14 C13 1.380 . S
C14 C15 1.347 . S
C14 H37 0.931 . S
C15 C14 1.347 . S
C15 C16 1.369 1_556 S
C16 C15 1.369 1_554 S
C16 C17 1.408 . S
C16 H38 0.930 . S
C17 C12 1.348 1_554 S
C17 C16 1.408 . S
C17 H39 0.930 . S
C18 O28 1.281 . S
C18 O29 1.254 . S
C19 O30 1.236 1_655 S
C19 O31 1.266 . S
O20 Tb0 2.484 . S
O20 C2 1.248 . S
O21 Tb0 2.440 1_556 S
O21 C2 1.266 1_556 S
O22 Tb0 2.658 1_456 S
O22 Tb1 2.325 1_556 S
O22 C9 1.281 . S
O23 Tb0 2.409 1_556 S
O23 C9 1.254 1_655 S
O24 Tb0 2.378 1_456 S
O24 C10 1.236 . S
O25 Tb1 2.341 1_556 S
O25 C10 1.266 . S
O26 Tb1 2.484 1_556 S
O26 C11 1.248 . S
O27 Tb1 2.440 . S
O27 C11 1.266 1_554 S
O28 Tb0 2.325 1_455 S
O28 Tb1 2.658 . S
O28 C18 1.281 . S
O29 Tb1 2.409 . S
O29 C18 1.254 . S
O30 Tb1 2.378 . S
O30 C19 1.236 1_455 S
O31 Tb0 2.341 . S
O31 C19 1.266 . S
H32 C4 0.929 . S
H33 C5 0.931 . S
H34 C7 0.930 . S
H35 C8 0.930 . S
H36 C13 0.929 . S
H37 C14 0.931 . S
H38 C16 0.930 . S
H39 C17 0.930 . S
Tb40 C42 2.809 . S
Tb40 O60 2.484 . S
Tb40 O61 2.440 1_554 S
Tb40 O62 2.658 1_554 S
Tb40 O63 2.409 1_554 S
Tb40 O64 2.378 1_554 S
Tb40 O68 2.325 . S
Tb40 O71 2.341 . S
Tb41 C51 2.809 1_554 S
Tb41 O62 2.325 1_554 S
Tb41 O65 2.341 1_554 S
Tb41 O66 2.484 1_554 S
Tb41 O67 2.440 . S
Tb41 O68 2.658 . S
Tb41 O69 2.409 . S
Tb41 O70 2.378 . S
C42 Tb40 2.809 . S
C42 C43 1.514 . S
C42 O60 1.248 . S
C42 O61 1.266 1_554 S
C43 C42 1.514 . S
C43 C44 1.359 . S
C43 C48 1.348 1_554 S
C44 C43 1.359 . S
C44 C45 1.380 . S
C44 H72 0.929 . S
C45 C44 1.380 . S
C45 C46 1.347 . S
C45 H73 0.931 . S
C46 C45 1.347 . S
C46 C47 1.369 1_554 S
C47 C46 1.369 1_556 S
C47 C48 1.408 . S
C47 H74 0.930 . S
C48 C43 1.348 1_556 S
C48 C47 1.408 . S
C48 H75 0.930 . S
C49 O62 1.281 . S
C49 O63 1.254 . S
C50 O64 1.236 . S
C50 O65 1.266 . S
C51 Tb41 2.809 1_556 S
C51 C52 1.514 . S
C51 O66 1.248 . S
C51 O67 1.266 1_556 S
C52 C51 1.514 . S
C52 C53 1.359 . S
C52 C57 1.348 1_556 S
C53 C52 1.359 . S
C53 C54 1.380 . S
C53 H76 0.929 . S
C54 C53 1.380 . S
C54 C55 1.347 . S
C54 H77 0.931 . S
C55 C54 1.347 . S
C55 C56 1.369 1_556 S
C56 C55 1.369 1_554 S
C56 C57 1.408 . S
C56 H78 0.930 . S
C57 C52 1.348 1_554 S
C57 C56 1.408 . S
C57 H79 0.930 . S
C58 O68 1.281 . S
C58 O69 1.254 . S
C59 O70 1.236 . S
C59 O71 1.266 . S
O60 Tb40 2.484 . S
O60 C42 1.248 . S
O61 Tb40 2.440 1_556 S
O61 C42 1.266 1_556 S
O62 Tb40 2.658 1_556 S
O62 Tb41 2.325 1_556 S
O62 C49 1.281 . S
O63 Tb40 2.409 1_556 S
O63 C49 1.254 . S
O64 Tb40 2.378 1_556 S
O64 C50 1.236 . S
O65 Tb41 2.341 1_556 S
O65 C50 1.266 . S
O66 Tb41 2.484 1_556 S
O66 C51 1.248 . S
O67 Tb41 2.440 . S
O67 C51 1.266 1_554 S
O68 Tb40 2.325 . S
O68 Tb41 2.658 . S
O68 C58 1.281 . S
O69 Tb41 2.409 . S
O69 C58 1.254 . S
O70 Tb41 2.378 . S
O70 C59 1.236 . S
O71 Tb40 2.341 . S
O71 C59 1.266 . S
H72 C44 0.929 . S
H73 C45 0.931 . S
H74 C47 0.930 . S
H75 C48 0.930 . S
H76 C53 0.929 . S
H77 C54 0.931 . S
H78 C56 0.930 . S
H79 C57 0.930 . S
Tb80 C82 2.809 . S
Tb80 O100 2.484 . S
Tb80 O101 2.440 1_554 S
Tb80 O102 2.658 1_554 S
Tb80 O103 2.409 1_554 S
Tb80 O104 2.378 1_554 S
Tb80 O108 2.325 . S
Tb80 O111 2.341 . S
Tb81 C91 2.809 1_554 S
Tb81 O102 2.325 1_564 S
Tb81 O105 2.341 1_554 S
Tb81 O106 2.484 1_554 S
Tb81 O107 2.440 . S
Tb81 O108 2.658 1_565 S
Tb81 O109 2.409 . S
Tb81 O110 2.378 1_565 S
C82 Tb80 2.809 . S
C82 C83 1.514 . S
C82 O100 1.248 . S
C82 O101 1.266 1_554 S
C83 C82 1.514 . S
C83 C84 1.359 . S
C83 C88 1.348 1_554 S
C84 C83 1.359 . S
C84 C85 1.380 . S
C84 H112 0.929 . S
C85 C84 1.380 . S
C85 C86 1.347 . S
C85 H113 0.931 . S
C86 C85 1.347 . S
C86 C87 1.369 1_554 S
C87 C86 1.369 1_556 S
C87 C88 1.408 . S
C87 H114 0.930 . S
C88 C83 1.348 1_556 S
C88 C87 1.408 . S
C88 H115 0.930 . S
C89 O102 1.281 . S
C89 O103 1.254 . S
C90 O104 1.236 1_565 S
C90 O105 1.266 . S
C91 Tb81 2.809 1_556 S
C91 C92 1.514 . S
C91 O106 1.248 . S
C91 O107 1.266 1_556 S
C92 C91 1.514 . S
C92 C93 1.359 . S
C92 C97 1.348 1_556 S
C93 C92 1.359 . S
C93 C94 1.380 . S
C93 H116 0.929 . S
C94 C93 1.380 . S
C94 C95 1.347 . S
C94 H117 0.931 . S
C95 C94 1.347 . S
C95 C96 1.369 1_556 S
C96 C95 1.369 1_554 S
C96 C97 1.408 . S
C96 H118 0.930 . S
C97 C92 1.348 1_554 S
C97 C96 1.408 . S
C97 H119 0.930 . S
C98 O108 1.281 . S
C98 O109 1.254 1_545 S
C99 O110 1.236 . S
C99 O111 1.266 . S
O100 Tb80 2.484 . S
O100 C82 1.248 . S
O101 Tb80 2.440 1_556 S
O101 C82 1.266 1_556 S
O102 Tb80 2.658 1_556 S
O102 Tb81 2.325 1_546 S
O102 C89 1.281 . S
O103 Tb80 2.409 1_556 S
O103 C89 1.254 . S
O104 Tb80 2.378 1_556 S
O104 C90 1.236 1_545 S
O105 Tb81 2.341 1_556 S
O105 C90 1.266 . S
O106 Tb81 2.484 1_556 S
O106 C91 1.248 . S
O107 Tb81 2.440 . S
O107 C91 1.266 1_554 S
O108 Tb80 2.325 . S
O108 Tb81 2.658 1_545 S
O108 C98 1.281 . S
O109 Tb81 2.409 . S
O109 C98 1.254 1_565 S
O110 Tb81 2.378 1_545 S
O110 C99 1.236 . S
O111 Tb80 2.341 . S
O111 C99 1.266 . S
H112 C84 0.929 . S
H113 C85 0.931 . S
H114 C87 0.930 . S
H115 C88 0.930 . S
H116 C93 0.929 . S
H117 C94 0.931 . S
H118 C96 0.930 . S
H119 C97 0.930 . S
Tb120 C122 2.809 . S
Tb120 O140 2.484 . S
Tb120 O141 2.440 . S
Tb120 O142 2.658 . S
Tb120 O143 2.409 . S
Tb120 O144 2.378 . S
Tb120 O148 2.325 . S
Tb120 O151 2.341 . S
Tb121 C131 2.809 . S
Tb121 O142 2.325 . S
Tb121 O145 2.341 . S
Tb121 O146 2.484 . S
Tb121 O147 2.440 . S
Tb121 O148 2.658 . S
Tb121 O149 2.409 . S
Tb121 O150 2.378 . S
C122 Tb120 2.809 . S
C122 C123 1.514 . S
C122 O140 1.248 . S
C122 O141 1.266 . S
C123 C122 1.514 . S
C123 C124 1.359 . S
C123 C128 1.348 . S
C124 C123 1.359 . S
C124 C125 1.380 . S
C124 H152 0.929 . S
C125 C124 1.380 . S
C125 C126 1.347 . S
C125 H153 0.931 . S
C126 C125 1.347 . S
C126 C127 1.369 . S
C127 C126 1.369 . S
C127 C128 1.408 . S
C127 H154 0.930 . S
C128 C123 1.348 . S
C128 C127 1.408 . S
C128 H155 0.930 . S
C129 O142 1.281 . S
C129 O143 1.254 . S
C130 O144 1.236 . S
C130 O145 1.266 . S
C131 Tb121 2.809 . S
C131 C132 1.514 . S
C131 O146 1.248 . S
C131 O147 1.266 . S
C132 C131 1.514 . S
C132 C133 1.359 . S
C132 C137 1.348 . S
C133 C132 1.359 . S
C133 C134 1.380 . S
C133 H156 0.929 . S
C134 C133 1.380 . S
C134 C135 1.347 . S
C134 H157 0.931 . S
C135 C134 1.347 . S
C135 C136 1.369 . S
C136 C135 1.369 . S
C136 C137 1.408 . S
C136 H158 0.930 . S
C137 C132 1.348 . S
C137 C136 1.408 . S
C137 H159 0.930 . S
C138 O148 1.281 . S
C138 O149 1.254 . S
C139 O150 1.236 . S
C139 O151 1.266 . S
O140 Tb120 2.484 . S
O140 C122 1.248 . S
O141 Tb120 2.440 . S
O141 C122 1.266 . S
O142 Tb120 2.658 . S
O142 Tb121 2.325 . S
O142 C129 1.281 . S
O143 Tb120 2.409 . S
O143 C129 1.254 . S
O144 Tb120 2.378 . S
O144 C130 1.236 . S
O145 Tb121 2.341 . S
O145 C130 1.266 . S
O146 Tb121 2.484 . S
O146 C131 1.248 . S
O147 Tb121 2.440 . S
O147 C131 1.266 . S
O148 Tb120 2.325 . S
O148 Tb121 2.658 . S
O148 C138 1.281 . S
O149 Tb121 2.409 . S
O149 C138 1.254 . S
O150 Tb121 2.378 . S
O150 C139 1.236 . S
O151 Tb120 2.341 . S
O151 C139 1.266 . S
H152 C124 0.929 . S
H153 C125 0.931 . S
H154 C127 0.930 . S
H155 C128 0.930 . S
H156 C133 0.929 . S
H157 C134 0.931 . S
H158 C136 0.930 . S
H159 C137 0.930 . S
Tb160 C162 2.809 . S
Tb160 O180 2.484 . S
Tb160 O181 2.440 . S
Tb160 O182 2.658 . S
Tb160 O183 2.409 . S
Tb160 O184 2.378 . S
Tb160 O188 2.325 . S
Tb160 O191 2.341 . S
Tb161 C171 2.809 . S
Tb161 O182 2.325 . S
Tb161 O185 2.341 . S
Tb161 O186 2.484 . S
Tb161 O187 2.440 . S
Tb161 O188 2.658 . S
Tb161 O189 2.409 . S
Tb161 O190 2.378 . S
C162 Tb160 2.809 . S
C162 C163 1.514 . S
C162 O180 1.248 . S
C162 O181 1.266 . S
C163 C162 1.514 . S
C163 C164 1.359 . S
C163 C168 1.348 . S
C164 C163 1.359 . S
C164 C165 1.380 . S
C164 H192 0.929 . S
C165 C164 1.380 . S
C165 C166 1.347 . S
C165 H193 0.931 . S
C166 C165 1.347 . S
C166 C167 1.369 . S
C167 C166 1.369 . S
C167 C168 1.408 . S
C167 H194 0.930 . S
C168 C163 1.348 . S
C168 C167 1.408 . S
C168 H195 0.930 . S
C169 O182 1.281 . S
C169 O183 1.254 . S
C170 O184 1.236 . S
C170 O185 1.266 . S
C171 Tb161 2.809 . S
C171 C172 1.514 . S
C171 O186 1.248 . S
C171 O187 1.266 . S
C172 C171 1.514 . S
C172 C173 1.359 . S
C172 C177 1.348 . S
C173 C172 1.359 . S
C173 C174 1.380 . S
C173 H196 0.929 . S
C174 C173 1.380 . S
C174 C175 1.347 . S
C174 H197 0.931 . S
C175 C174 1.347 . S
C175 C176 1.369 . S
C176 C175 1.369 . S
C176 C177 1.408 . S
C176 H198 0.930 . S
C177 C172 1.348 . S
C177 C176 1.408 . S
C177 H199 0.930 . S
C178 O188 1.281 . S
C178 O189 1.254 . S
C179 O190 1.236 . S
C179 O191 1.266 . S
O180 Tb160 2.484 . S
O180 C162 1.248 . S
O181 Tb160 2.440 . S
O181 C162 1.266 . S
O182 Tb160 2.658 . S
O182 Tb161 2.325 . S
O182 C169 1.281 . S
O183 Tb160 2.409 . S
O183 C169 1.254 . S
O184 Tb160 2.378 . S
O184 C170 1.236 . S
O185 Tb161 2.341 . S
O185 C170 1.266 . S
O186 Tb161 2.484 . S
O186 C171 1.248 . S
O187 Tb161 2.440 . S
O187 C171 1.266 . S
O188 Tb160 2.325 . S
O188 Tb161 2.658 . S
O188 C178 1.281 . S
O189 Tb161 2.409 . S
O189 C178 1.254 . S
O190 Tb161 2.378 . S
O190 C179 1.236 . S
O191 Tb160 2.341 . S
O191 C179 1.266 . S
H192 C164 0.929 . S
H193 C165 0.931 . S
H194 C167 0.930 . S
H195 C168 0.930 . S
H196 C173 0.929 . S
H197 C174 0.931 . S
H198 C176 0.930 . S
H199 C177 0.930 . S
Tb200 C202 2.809 . S
Tb200 O220 2.484 . S
Tb200 O221 2.440 . S
Tb200 O222 2.658 . S
Tb200 O223 2.409 . S
Tb200 O224 2.378 . S
Tb200 O228 2.325 . S
Tb200 O231 2.341 . S
Tb201 C211 2.809 . S
Tb201 O222 2.325 . S
Tb201 O225 2.341 . S
Tb201 O226 2.484 . S
Tb201 O227 2.440 . S
Tb201 O228 2.658 . S
Tb201 O229 2.409 . S
Tb201 O230 2.378 . S
C202 Tb200 2.809 . S
C202 C203 1.514 . S
C202 O220 1.248 . S
C202 O221 1.266 . S
C203 C202 1.514 . S
C203 C204 1.359 . S
C203 C208 1.348 . S
C204 C203 1.359 . S
C204 C205 1.380 . S
C204 H232 0.929 . S
C205 C204 1.380 . S
C205 C206 1.347 . S
C205 H233 0.931 . S
C206 C205 1.347 . S
C206 C207 1.369 . S
C207 C206 1.369 . S
C207 C208 1.408 . S
C207 H234 0.930 . S
C208 C203 1.348 . S
C208 C207 1.408 . S
C208 H235 0.930 . S
C209 O222 1.281 . S
C209 O223 1.254 . S
C210 O224 1.236 . S
C210 O225 1.266 . S
C211 Tb201 2.809 . S
C211 C212 1.514 . S
C211 O226 1.248 . S
C211 O227 1.266 . S
C212 C211 1.514 . S
C212 C213 1.359 . S
C212 C217 1.348 . S
C213 C212 1.359 . S
C213 C214 1.380 . S
C213 H236 0.929 . S
C214 C213 1.380 . S
C214 C215 1.347 . S
C214 H237 0.931 . S
C215 C214 1.347 . S
C215 C216 1.369 . S
C216 C215 1.369 . S
C216 C217 1.408 . S
C216 H238 0.930 . S
C217 C212 1.348 . S
C217 C216 1.408 . S
C217 H239 0.930 . S
C218 O228 1.281 . S
C218 O229 1.254 . S
C219 O230 1.236 . S
C219 O231 1.266 . S
O220 Tb200 2.484 . S
O220 C202 1.248 . S
O221 Tb200 2.440 . S
O221 C202 1.266 . S
O222 Tb200 2.658 . S
O222 Tb201 2.325 . S
O222 C209 1.281 . S
O223 Tb200 2.409 . S
O223 C209 1.254 . S
O224 Tb200 2.378 . S
O224 C210 1.236 . S
O225 Tb201 2.341 . S
O225 C210 1.266 . S
O226 Tb201 2.484 . S
O226 C211 1.248 . S
O227 Tb201 2.440 . S
O227 C211 1.266 . S
O228 Tb200 2.325 . S
O228 Tb201 2.658 . S
O228 C218 1.281 . S
O229 Tb201 2.409 . S
O229 C218 1.254 . S
O230 Tb201 2.378 . S
O230 C219 1.236 . S
O231 Tb200 2.341 . S
O231 C219 1.266 . S
H232 C204 0.929 . S
H233 C205 0.931 . S
H234 C207 0.930 . S
H235 C208 0.930 . S
H236 C213 0.929 . S
H237 C214 0.931 . S
H238 C216 0.930 . S
H239 C217 0.930 . S
Tb240 C242 2.809 . S
Tb240 O260 2.484 . S
Tb240 O261 2.440 . S
Tb240 O262 2.658 . S
Tb240 O263 2.409 . S
Tb240 O264 2.378 . S
Tb240 O268 2.325 . S
Tb240 O271 2.341 . S
Tb241 C251 2.809 . S
Tb241 O262 2.325 . S
Tb241 O265 2.341 . S
Tb241 O266 2.484 . S
Tb241 O267 2.440 . S
Tb241 O268 2.658 . S
Tb241 O269 2.409 . S
Tb241 O270 2.378 . S
C242 Tb240 2.809 . S
C242 C243 1.514 . S
C242 O260 1.248 . S
C242 O261 1.266 . S
C243 C242 1.514 . S
C243 C244 1.359 . S
C243 C248 1.348 . S
C244 C243 1.359 . S
C244 C245 1.380 . S
C244 H272 0.929 . S
C245 C244 1.380 . S
C245 C246 1.347 . S
C245 H273 0.931 . S
C246 C245 1.347 . S
C246 C247 1.369 . S
C247 C246 1.369 . S
C247 C248 1.408 . S
C247 H274 0.930 . S
C248 C243 1.348 . S
C248 C247 1.408 . S
C248 H275 0.930 . S
C249 O262 1.281 . S
C249 O263 1.254 . S
C250 O264 1.236 . S
C250 O265 1.266 . S
C251 Tb241 2.809 . S
C251 C252 1.514 . S
C251 O266 1.248 . S
C251 O267 1.266 . S
C252 C251 1.514 . S
C252 C253 1.359 . S
C252 C257 1.348 . S
C253 C252 1.359 . S
C253 C254 1.380 . S
C253 H276 0.929 . S
C254 C253 1.380 . S
C254 C255 1.347 . S
C254 H277 0.931 . S
C255 C254 1.347 . S
C255 C256 1.369 . S
C256 C255 1.369 . S
C256 C257 1.408 . S
C256 H278 0.930 . S
C257 C252 1.348 . S
C257 C256 1.408 . S
C257 H279 0.930 . S
C258 O268 1.281 . S
C258 O269 1.254 . S
C259 O270 1.236 . S
C259 O271 1.266 . S
O260 Tb240 2.484 . S
O260 C242 1.248 . S
O261 Tb240 2.440 . S
O261 C242 1.266 . S
O262 Tb240 2.658 . S
O262 Tb241 2.325 . S
O262 C249 1.281 . S
O263 Tb240 2.409 . S
O263 C249 1.254 . S
O264 Tb240 2.378 . S
O264 C250 1.236 . S
O265 Tb241 2.341 . S
O265 C250 1.266 . S
O266 Tb241 2.484 . S
O266 C251 1.248 . S
O267 Tb241 2.440 . S
O267 C251 1.266 . S
O268 Tb240 2.325 . S
O268 Tb241 2.658 . S
O268 C258 1.281 . S
O269 Tb241 2.409 . S
O269 C258 1.254 . S
O270 Tb241 2.378 . S
O270 C259 1.236 . S
O271 Tb240 2.341 . S
O271 C259 1.266 . S
H272 C244 0.929 . S
H273 C245 0.931 . S
H274 C247 0.930 . S
H275 C248 0.930 . S
H276 C253 0.929 . S
H277 C254 0.931 . S
H278 C256 0.930 . S
H279 C257 0.930 . S
Tb280 C282 2.809 . S
Tb280 O300 2.484 . S
Tb280 O301 2.440 . S
Tb280 O302 2.658 . S
Tb280 O303 2.409 . S
Tb280 O304 2.378 . S
Tb280 O308 2.325 . S
Tb280 O311 2.341 . S
Tb281 C291 2.809 . S
Tb281 O302 2.325 . S
Tb281 O305 2.341 . S
Tb281 O306 2.484 . S
Tb281 O307 2.440 . S
Tb281 O308 2.658 . S
Tb281 O309 2.409 . S
Tb281 O310 2.378 . S
C282 Tb280 2.809 . S
C282 C283 1.514 . S
C282 O300 1.248 . S
C282 O301 1.266 . S
C283 C282 1.514 . S
C283 C284 1.359 . S
C283 C288 1.348 . S
C284 C283 1.359 . S
C284 C285 1.380 . S
C284 H312 0.929 . S
C285 C284 1.380 . S
C285 C286 1.347 . S
C285 H313 0.931 . S
C286 C285 1.347 . S
C286 C287 1.369 . S
C287 C286 1.369 . S
C287 C288 1.408 . S
C287 H314 0.930 . S
C288 C283 1.348 . S
C288 C287 1.408 . S
C288 H315 0.930 . S
C289 O302 1.281 . S
C289 O303 1.254 . S
C290 O304 1.236 . S
C290 O305 1.266 . S
C291 Tb281 2.809 . S
C291 C292 1.514 . S
C291 O306 1.248 . S
C291 O307 1.266 . S
C292 C291 1.514 . S
C292 C293 1.359 . S
C292 C297 1.348 . S
C293 C292 1.359 . S
C293 C294 1.380 . S
C293 H316 0.929 . S
C294 C293 1.380 . S
C294 C295 1.347 . S
C294 H317 0.931 . S
C295 C294 1.347 . S
C295 C296 1.369 . S
C296 C295 1.369 . S
C296 C297 1.408 . S
C296 H318 0.930 . S
C297 C292 1.348 . S
C297 C296 1.408 . S
C297 H319 0.930 . S
C298 O308 1.281 . S
C298 O309 1.254 . S
C299 O310 1.236 . S
C299 O311 1.266 . S
O300 Tb280 2.484 . S
O300 C282 1.248 . S
O301 Tb280 2.440 . S
O301 C282 1.266 . S
O302 Tb280 2.658 . S
O302 Tb281 2.325 . S
O302 C289 1.281 . S
O303 Tb280 2.409 . S
O303 C289 1.254 . S
O304 Tb280 2.378 . S
O304 C290 1.236 . S
O305 Tb281 2.341 . S
O305 C290 1.266 . S
O306 Tb281 2.484 . S
O306 C291 1.248 . S
O307 Tb281 2.440 . S
O307 C291 1.266 . S
O308 Tb280 2.325 . S
O308 Tb281 2.658 . S
O308 C298 1.281 . S
O309 Tb281 2.409 . S
O309 C298 1.254 . S
O310 Tb281 2.378 . S
O310 C299 1.236 . S
O311 Tb280 2.341 . S
O311 C299 1.266 . S
H312 C284 0.929 . S
H313 C285 0.931 . S
H314 C287 0.930 . S
H315 C288 0.930 . S
H316 C293 0.929 . S
H317 C294 0.931 . S
H318 C296 0.930 . S
H319 C297 0.930 . S
Tb320 C322 2.809 . S
Tb320 O340 2.484 . S
Tb320 O341 2.440 . S
Tb320 O342 2.658 . S
Tb320 O343 2.409 . S
Tb320 O344 2.378 . S
Tb320 O348 2.325 . S
Tb320 O351 2.341 . S
Tb321 C331 2.809 . S
Tb321 O342 2.325 . S
Tb321 O345 2.341 . S
Tb321 O346 2.484 . S
Tb321 O347 2.440 . S
Tb321 O348 2.658 . S
Tb321 O349 2.409 . S
Tb321 O350 2.378 . S
C322 Tb320 2.809 . S
C322 C323 1.514 . S
C322 O340 1.248 . S
C322 O341 1.266 . S
C323 C322 1.514 . S
C323 C324 1.359 . S
C323 C328 1.348 . S
C324 C323 1.359 . S
C324 C325 1.380 . S
C324 H352 0.929 . S
C325 C324 1.380 . S
C325 C326 1.347 . S
C325 H353 0.931 . S
C326 C325 1.347 . S
C326 C327 1.369 . S
C327 C326 1.369 . S
C327 C328 1.408 . S
C327 H354 0.930 . S
C328 C323 1.348 . S
C328 C327 1.408 . S
C328 H355 0.930 . S
C329 O342 1.281 . S
C329 O343 1.254 . S
C330 O344 1.236 . S
C330 O345 1.266 . S
C331 Tb321 2.809 . S
C331 C332 1.514 . S
C331 O346 1.248 . S
C331 O347 1.266 . S
C332 C331 1.514 . S
C332 C333 1.359 . S
C332 C337 1.348 . S
C333 C332 1.359 . S
C333 C334 1.380 . S
C333 H356 0.929 . S
C334 C333 1.380 . S
C334 C335 1.347 . S
C334 H357 0.931 . S
C335 C334 1.347 . S
C335 C336 1.369 . S
C336 C335 1.369 . S
C336 C337 1.408 . S
C336 H358 0.930 . S
C337 C332 1.348 . S
C337 C336 1.408 . S
C337 H359 0.930 . S
C338 O348 1.281 . S
C338 O349 1.254 . S
C339 O350 1.236 . S
C339 O351 1.266 . S
O340 Tb320 2.484 . S
O340 C322 1.248 . S
O341 Tb320 2.440 . S
O341 C322 1.266 . S
O342 Tb320 2.658 . S
O342 Tb321 2.325 . S
O342 C329 1.281 . S
O343 Tb320 2.409 . S
O343 C329 1.254 . S
O344 Tb320 2.378 . S
O344 C330 1.236 . S
O345 Tb321 2.341 . S
O345 C330 1.266 . S
O346 Tb321 2.484 . S
O346 C331 1.248 . S
O347 Tb321 2.440 . S
O347 C331 1.266 . S
O348 Tb320 2.325 . S
O348 Tb321 2.658 . S
O348 C338 1.281 . S
O349 Tb321 2.409 . S
O349 C338 1.254 . S
O350 Tb321 2.378 . S
O350 C339 1.236 . S
O351 Tb320 2.341 . S
O351 C339 1.266 . S
H352 C324 0.929 . S
H353 C325 0.931 . S
H354 C327 0.930 . S
H355 C328 0.930 . S
H356 C333 0.929 . S
H357 C334 0.931 . S
H358 C336 0.930 . S
H359 C337 0.930 . S
H360 C378 0.951 . S
H361 C380 0.951 . S
H362 C382 0.950 . S
H363 C383 0.950 . S
H364 C385 0.950 . S
H365 C388 0.950 . S
H366 C389 0.950 . S
H367 C391 0.950 . S
H368 C392 0.950 . S
H369 C393 0.951 . S
H370 C395 0.951 . S
H371 C397 0.950 . S
H372 C398 0.950 . S
H373 C400 0.950 . S
H374 C403 0.950 . S
H375 C404 0.950 . S
H376 C406 0.950 . S
H377 C407 0.950 . S
C378 H360 0.951 . S
C378 C379 1.366 . S
C378 C380 1.388 . S
C379 C378 1.366 . S
C379 C383 1.385 . S
C380 H361 0.951 . S
C380 C378 1.388 . S
C380 C381 1.366 . S
C381 C380 1.366 . S
C381 C382 1.414 . S
C381 C384 1.499 . S
C382 H362 0.950 . S
C382 C381 1.414 . S
C382 C383 1.374 . S
C383 H363 0.950 . S
C383 C379 1.385 . S
C383 C382 1.374 . S
C384 C381 1.499 . S
C384 C385 1.373 . S
C384 C386 1.389 . S
C385 H364 0.950 . S
C385 C384 1.373 . S
C385 C401 1.377 . S
C386 C384 1.389 . S
C386 C387 1.524 . S
C386 C400 1.377 . S
C387 C386 1.524 . S
C387 C388 1.397 . S
C387 C392 1.363 . S
C388 H365 0.950 . S
C388 C387 1.397 . S
C388 C389 1.334 . S
C389 H366 0.950 . S
C389 C388 1.334 . S
C389 C390 1.287 . S
C390 C389 1.287 . S
C390 C391 1.524 . S
C390 H409 0.913 . S
C391 H367 0.950 . S
C391 C390 1.524 . S
C391 C392 1.415 . S
C392 H368 0.950 . S
C392 C387 1.363 . S
C392 C391 1.415 . S
C393 H369 0.951 . S
C393 C394 1.366 . S
C393 C395 1.388 . S
C394 C393 1.366 . S
C394 C398 1.385 . S
C395 H370 0.951 . S
C395 C393 1.388 . S
C395 C396 1.366 . S
C396 C395 1.366 . S
C396 C397 1.414 . S
C396 C399 1.499 . S
C397 H371 0.950 . S
C397 C396 1.414 . S
C397 C398 1.374 . S
C398 H372 0.950 . S
C398 C394 1.385 . S
C398 C397 1.374 . S
C399 C396 1.499 . S
C399 C400 1.373 . S
C399 C401 1.389 . S
C400 H373 0.950 . S
C400 C386 1.377 . S
C400 C399 1.373 . S
C401 C385 1.377 . S
C401 C399 1.389 . S
C401 C402 1.524 . S
C402 C401 1.524 . S
C402 C403 1.397 . S
C402 C407 1.363 . S
C403 H374 0.950 . S
C403 C402 1.397 . S
C403 C404 1.334 1_556 S
C404 H375 0.950 . S
C404 C403 1.334 1_554 S
C404 C405 1.287 . S
C405 C404 1.287 . S
C405 C406 1.524 . S
C405 H408 0.999 . S
C406 H376 0.950 . S
C406 C405 1.524 . S
C406 C407 1.415 1_554 S
C407 H377 0.950 . S
C407 C402 1.363 . S
C407 C406 1.415 1_556 S
H408 C405 0.999 . S
H409 C390 0.913 . S
H410 C428 0.951 . S
H411 C430 0.951 . S
H412 C432 0.950 . S
H413 C433 0.950 . S
H414 C435 0.950 . S
H415 C438 0.950 . S
H416 C439 0.950 . S
H417 C441 0.950 . S
H418 C442 0.950 . S
H419 C443 0.951 . S
H420 C445 0.951 . S
H421 C447 0.950 . S
H422 C448 0.950 . S
H423 C450 0.950 . S
H424 C453 0.950 . S
H425 C454 0.950 . S
H426 C456 0.950 . S
H427 C457 0.950 . S
C428 H410 0.951 . S
C428 C429 1.366 . S
C428 C430 1.388 . S
C429 C428 1.366 . S
C429 C433 1.385 . S
C430 H411 0.951 . S
C430 C428 1.388 . S
C430 C431 1.366 . S
C431 C430 1.366 . S
C431 C432 1.414 . S
C431 C434 1.499 . S
C432 H412 0.950 . S
C432 C431 1.414 . S
C432 C433 1.374 . S
C433 H413 0.950 . S
C433 C429 1.385 . S
C433 C432 1.374 . S
C434 C431 1.499 . S
C434 C435 1.373 . S
C434 C436 1.389 . S
C435 H414 0.950 . S
C435 C434 1.373 . S
C435 C451 1.377 . S
C436 C434 1.389 . S
C436 C437 1.524 . S
C436 C450 1.377 . S
C437 C436 1.524 . S
C437 C438 1.397 . S
C437 C442 1.363 . S
C438 H415 0.950 . S
C438 C437 1.397 . S
C438 C439 1.334 . S
C439 H416 0.950 . S
C439 C438 1.334 . S
C439 C440 1.287 . S
C440 C439 1.287 . S
C440 C441 1.524 . S
C440 H459 0.913 . S
C441 H417 0.950 . S
C441 C440 1.524 . S
C441 C442 1.415 . S
C442 H418 0.950 . S
C442 C437 1.363 . S
C442 C441 1.415 . S
C443 H419 0.951 . S
C443 C444 1.366 . S
C443 C445 1.388 . S
C444 C443 1.366 . S
C444 C448 1.385 . S
C445 H420 0.951 . S
C445 C443 1.388 . S
C445 C446 1.366 . S
C446 C445 1.366 . S
C446 C447 1.414 . S
C446 C449 1.499 . S
C447 H421 0.950 . S
C447 C446 1.414 . S
C447 C448 1.374 . S
C448 H422 0.950 . S
C448 C444 1.385 . S
C448 C447 1.374 . S
C449 C446 1.499 . S
C449 C450 1.373 . S
C449 C451 1.389 . S
C450 H423 0.950 . S
C450 C436 1.377 . S
C450 C449 1.373 . S
C451 C435 1.377 . S
C451 C449 1.389 . S
C451 C452 1.524 . S
C452 C451 1.524 . S
C452 C453 1.397 . S
C452 C457 1.363 . S
C453 H424 0.950 . S
C453 C452 1.397 . S
C453 C454 1.334 1_556 S
C454 H425 0.950 . S
C454 C453 1.334 1_554 S
C454 C455 1.287 . S
C455 C454 1.287 . S
C455 C456 1.524 1_554 S
C455 H458 0.999 . S
C456 H426 0.950 . S
C456 C455 1.524 1_556 S
C456 C457 1.415 . S
C457 H427 0.950 . S
C457 C452 1.363 . S
C457 C456 1.415 . S
H458 C455 0.999 . S
H459 C440 0.913 . S
H460 C478 0.951 1_545 S
H461 C480 0.951 . S
H462 C482 0.950 . S
H463 C483 0.950 . S
H464 C485 0.950 . S
H465 C488 0.950 . S
H466 C489 0.950 . S
H467 C491 0.950 . S
H468 C492 0.950 . S
H469 C493 0.951 . S
H470 C495 0.951 . S
H471 C497 0.950 . S
H472 C498 0.950 . S
H473 C500 0.950 . S
H474 C503 0.950 . S
H475 C504 0.950 . S
H476 C506 0.950 . S
H477 C507 0.950 . S
C478 H460 0.951 1_565 S
C478 C479 1.366 . S
C478 C480 1.388 . S
C479 C478 1.366 . S
C479 C483 1.385 . S
C480 H461 0.951 . S
C480 C478 1.388 . S
C480 C481 1.366 . S
C481 C480 1.366 . S
C481 C482 1.414 . S
C481 C484 1.499 . S
C482 H462 0.950 . S
C482 C481 1.414 . S
C482 C483 1.374 . S
C483 H463 0.950 . S
C483 C479 1.385 . S
C483 C482 1.374 . S
C484 C481 1.499 . S
C484 C485 1.373 . S
C484 C486 1.389 . S
C485 H464 0.950 . S
C485 C484 1.373 . S
C485 C501 1.377 . S
C486 C484 1.389 . S
C486 C487 1.524 . S
C486 C500 1.377 . S
C487 C486 1.524 . S
C487 C488 1.397 . S
C487 C492 1.363 . S
C488 H465 0.950 . S
C488 C487 1.397 . S
C488 C489 1.334 . S
C489 H466 0.950 . S
C489 C488 1.334 . S
C489 C490 1.287 . S
C490 C489 1.287 . S
C490 C491 1.524 1_565 S
C490 H509 0.913 1_565 S
C491 H467 0.950 . S
C491 C490 1.524 1_545 S
C491 C492 1.415 1_545 S
C492 H468 0.950 . S
C492 C487 1.363 . S
C492 C491 1.415 1_565 S
C493 H469 0.951 . S
C493 C494 1.366 . S
C493 C495 1.388 . S
C494 C493 1.366 . S
C494 C498 1.385 . S
C495 H470 0.951 . S
C495 C493 1.388 . S
C495 C496 1.366 . S
C496 C495 1.366 . S
C496 C497 1.414 . S
C496 C499 1.499 . S
C497 H471 0.950 . S
C497 C496 1.414 . S
C497 C498 1.374 . S
C498 H472 0.950 . S
C498 C494 1.385 . S
C498 C497 1.374 . S
C499 C496 1.499 . S
C499 C500 1.373 . S
C499 C501 1.389 . S
C500 H473 0.950 . S
C500 C486 1.377 . S
C500 C499 1.373 . S
C501 C485 1.377 . S
C501 C499 1.389 . S
C501 C502 1.524 . S
C502 C501 1.524 . S
C502 C503 1.397 . S
C502 C507 1.363 . S
C503 H474 0.950 . S
C503 C502 1.397 . S
C503 C504 1.334 1_556 S
C504 H475 0.950 . S
C504 C503 1.334 1_554 S
C504 C505 1.287 . S
C505 C504 1.287 . S
C505 C506 1.524 . S
C505 H508 0.999 . S
C506 H476 0.950 . S
C506 C505 1.524 . S
C506 C507 1.415 1_554 S
C507 H477 0.950 . S
C507 C502 1.363 . S
C507 C506 1.415 1_556 S
H508 C505 0.999 . S
H509 C490 0.913 1_545 S
H510 C528 0.951 . S
H511 C530 0.951 . S
H512 C532 0.950 . S
H513 C533 0.950 . S
H514 C535 0.950 . S
H515 C538 0.950 . S
H516 C539 0.950 . S
H517 C541 0.950 . S
H518 C542 0.950 . S
H519 C543 0.951 . S
H520 C545 0.951 . S
H521 C547 0.950 . S
H522 C548 0.950 . S
H523 C550 0.950 . S
H524 C553 0.950 . S
H525 C554 0.950 1_556 S
H526 C556 0.950 . S
H527 C557 0.950 . S
C528 H510 0.951 . S
C528 C529 1.366 . S
C528 C530 1.388 . S
C529 C528 1.366 . S
C529 C533 1.385 . S
C530 H511 0.951 . S
C530 C528 1.388 . S
C530 C531 1.366 . S
C531 C530 1.366 . S
C531 C532 1.414 . S
C531 C534 1.499 . S
C532 H512 0.950 . S
C532 C531 1.414 . S
C532 C533 1.374 . S
C533 H513 0.950 . S
C533 C529 1.385 . S
C533 C532 1.374 . S
C534 C531 1.499 . S
C534 C535 1.373 . S
C534 C536 1.389 . S
C535 H514 0.950 . S
C535 C534 1.373 . S
C535 C551 1.377 . S
C536 C534 1.389 . S
C536 C537 1.524 . S
C536 C550 1.377 . S
C537 C536 1.524 . S
C537 C538 1.397 . S
C537 C542 1.363 . S
C538 H515 0.950 . S
C538 C537 1.397 . S
C538 C539 1.334 . S
C539 H516 0.950 . S
C539 C538 1.334 . S
C539 C540 1.287 . S
C540 C539 1.287 . S
C540 C541 1.524 . S
C540 H559 0.913 . S
C541 H517 0.950 . S
C541 C540 1.524 . S
C541 C542 1.415 . S
C542 H518 0.950 . S
C542 C537 1.363 . S
C542 C541 1.415 . S
C543 H519 0.951 . S
C543 C544 1.366 . S
C543 C545 1.388 . S
C544 C543 1.366 . S
C544 C548 1.385 . S
C545 H520 0.951 . S
C545 C543 1.388 . S
C545 C546 1.366 . S
C546 C545 1.366 . S
C546 C547 1.414 . S
C546 C549 1.499 . S
C547 H521 0.950 . S
C547 C546 1.414 . S
C547 C548 1.374 . S
C548 H522 0.950 . S
C548 C544 1.385 . S
C548 C547 1.374 . S
C549 C546 1.499 . S
C549 C550 1.373 . S
C549 C551 1.389 . S
C550 H523 0.950 . S
C550 C536 1.377 . S
C550 C549 1.373 . S
C551 C535 1.377 . S
C551 C549 1.389 . S
C551 C552 1.524 . S
C552 C551 1.524 . S
C552 C553 1.397 . S
C552 C557 1.363 . S
C553 H524 0.950 . S
C553 C552 1.397 . S
C553 C554 1.334 . S
C554 H525 0.950 1_554 S
C554 C553 1.334 . S
C554 C555 1.287 . S
C555 C554 1.287 . S
C555 C556 1.524 . S
C555 H558 0.999 . S
C556 H526 0.950 . S
C556 C555 1.524 . S
C556 C557 1.415 . S
C557 H527 0.950 . S
C557 C552 1.363 . S
C557 C556 1.415 . S
H558 C555 0.999 . S
H559 C540 0.913 . S
H560 C578 0.951 . S
H561 C580 0.951 . S
H562 C582 0.950 . S
H563 C583 0.950 . S
H564 C585 0.950 . S
H565 C588 0.950 . S
H566 C589 0.950 . S
H567 C591 0.950 . S
H568 C592 0.950 . S
H569 C593 0.951 . S
H570 C595 0.951 . S
H571 C597 0.950 . S
H572 C598 0.950 . S
H573 C600 0.950 . S
H574 C603 0.950 . S
H575 C604 0.950 1_556 S
H576 C606 0.950 . S
H577 C607 0.950 . S
C578 H560 0.951 . S
C578 C579 1.366 . S
C578 C580 1.388 . S
C579 C578 1.366 . S
C579 C583 1.385 . S
C580 H561 0.951 . S
C580 C578 1.388 . S
C580 C581 1.366 . S
C581 C580 1.366 . S
C581 C582 1.414 . S
C581 C584 1.499 . S
C582 H562 0.950 . S
C582 C581 1.414 . S
C582 C583 1.374 . S
C583 H563 0.950 . S
C583 C579 1.385 . S
C583 C582 1.374 . S
C584 C581 1.499 . S
C584 C585 1.373 . S
C584 C586 1.389 . S
C585 H564 0.950 . S
C585 C584 1.373 . S
C585 C601 1.377 . S
C586 C584 1.389 . S
C586 C587 1.524 . S
C586 C600 1.377 . S
C587 C586 1.524 . S
C587 C588 1.397 . S
C587 C592 1.363 . S
C588 H565 0.950 . S
C588 C587 1.397 . S
C588 C589 1.334 . S
C589 H566 0.950 . S
C589 C588 1.334 . S
C589 C590 1.287 . S
C590 C589 1.287 . S
C590 C591 1.524 . S
C590 H609 0.913 . S
C591 H567 0.950 . S
C591 C590 1.524 . S
C591 C592 1.415 . S
C592 H568 0.950 . S
C592 C587 1.363 . S
C592 C591 1.415 . S
C593 H569 0.951 . S
C593 C594 1.366 . S
C593 C595 1.388 . S
C594 C593 1.366 . S
C594 C598 1.385 . S
C595 H570 0.951 . S
C595 C593 1.388 . S
C595 C596 1.366 . S
C596 C595 1.366 . S
C596 C597 1.414 . S
C596 C599 1.499 . S
C597 H571 0.950 . S
C597 C596 1.414 . S
C597 C598 1.374 . S
C598 H572 0.950 . S
C598 C594 1.385 . S
C598 C597 1.374 . S
C599 C596 1.499 . S
C599 C600 1.373 . S
C599 C601 1.389 . S
C600 H573 0.950 . S
C600 C586 1.377 . S
C600 C599 1.373 . S
C601 C585 1.377 . S
C601 C599 1.389 . S
C601 C602 1.524 . S
C602 C601 1.524 . S
C602 C603 1.397 . S
C602 C607 1.363 . S
C603 H574 0.950 . S
C603 C602 1.397 . S
C603 C604 1.334 . S
C604 H575 0.950 1_554 S
C604 C603 1.334 . S
C604 C605 1.287 . S
C605 C604 1.287 . S
C605 C606 1.524 . S
C605 H608 0.999 . S
C606 H576 0.950 . S
C606 C605 1.524 . S
C606 C607 1.415 . S
C607 H577 0.950 . S
C607 C602 1.363 . S
C607 C606 1.415 . S
H608 C605 0.999 . S
H609 C590 0.913 . S
H610 C628 0.951 1_556 S
H611 C630 0.951 . S
H612 C632 0.950 . S
H613 C633 0.950 . S
H614 C635 0.950 . S
H615 C638 0.950 . S
H616 C639 0.950 . S
H617 C641 0.950 . S
H618 C642 0.950 . S
H619 C643 0.951 . S
H620 C645 0.951 . S
H621 C647 0.950 . S
H622 C648 0.950 . S
H623 C650 0.950 . S
H624 C653 0.950 . S
H625 C654 0.950 . S
H626 C656 0.950 . S
H627 C657 0.950 . S
C628 H610 0.951 1_554 S
C628 C629 1.366 . S
C628 C630 1.388 . S
C629 C628 1.366 . S
C629 C633 1.385 . S
C630 H611 0.951 . S
C630 C628 1.388 . S
C630 C631 1.366 . S
C631 C630 1.366 . S
C631 C632 1.414 . S
C631 C634 1.499 . S
C632 H612 0.950 . S
C632 C631 1.414 . S
C632 C633 1.374 . S
C633 H613 0.950 . S
C633 C629 1.385 . S
C633 C632 1.374 . S
C634 C631 1.499 . S
C634 C635 1.373 . S
C634 C636 1.389 . S
C635 H614 0.950 . S
C635 C634 1.373 . S
C635 C651 1.377 . S
C636 C634 1.389 . S
C636 C637 1.524 . S
C636 C650 1.377 . S
C637 C636 1.524 . S
C637 C638 1.397 . S
C637 C642 1.363 . S
C638 H615 0.950 . S
C638 C637 1.397 . S
C638 C639 1.334 . S
C639 H616 0.950 . S
C639 C638 1.334 . S
C639 C640 1.287 1_554 S
C640 C639 1.287 1_556 S
C640 C641 1.524 . S
C640 H659 0.913 . S
C641 H617 0.950 . S
C641 C640 1.524 . S
C641 C642 1.415 1_556 S
C642 H618 0.950 . S
C642 C637 1.363 . S
C642 C641 1.415 1_554 S
C643 H619 0.951 . S
C643 C644 1.366 . S
C643 C645 1.388 . S
C644 C643 1.366 . S
C644 C648 1.385 . S
C645 H620 0.951 . S
C645 C643 1.388 . S
C645 C646 1.366 . S
C646 C645 1.366 . S
C646 C647 1.414 . S
C646 C649 1.499 . S
C647 H621 0.950 . S
C647 C646 1.414 . S
C647 C648 1.374 . S
C648 H622 0.950 . S
C648 C644 1.385 . S
C648 C647 1.374 . S
C649 C646 1.499 . S
C649 C650 1.373 . S
C649 C651 1.389 . S
C650 H623 0.950 . S
C650 C636 1.377 . S
C650 C649 1.373 . S
C651 C635 1.377 . S
C651 C649 1.389 . S
C651 C652 1.524 . S
C652 C651 1.524 . S
C652 C653 1.397 . S
C652 C657 1.363 . S
C653 H624 0.950 . S
C653 C652 1.397 . S
C653 C654 1.334 . S
C654 H625 0.950 . S
C654 C653 1.334 . S
C654 C655 1.287 . S
C655 C654 1.287 . S
C655 C656 1.524 . S
C655 H658 0.999 . S
C656 H626 0.950 . S
C656 C655 1.524 . S
C656 C657 1.415 . S
C657 H627 0.950 . S
C657 C652 1.363 . S
C657 C656 1.415 . S
H658 C655 0.999 . S
H659 C640 0.913 . S
H660 C678 0.951 . S
H661 C680 0.951 . S
H662 C682 0.950 . S
H663 C683 0.950 . S
H664 C685 0.950 . S
H665 C688 0.950 . S
H666 C689 0.950 . S
H667 C691 0.950 . S
H668 C692 0.950 . S
H669 C693 0.951 . S
H670 C695 0.951 . S
H671 C697 0.950 1_455 S
H672 C698 0.950 . S
H673 C700 0.950 . S
H674 C703 0.950 . S
H675 C704 0.950 1_655 S
H676 C706 0.950 . S
H677 C707 0.950 . S
C678 H660 0.951 . S
C678 C679 1.366 . S
C678 C680 1.388 . S
C679 C678 1.366 . S
C679 C683 1.385 . S
C680 H661 0.951 . S
C680 C678 1.388 . S
C680 C681 1.366 . S
C681 C680 1.366 . S
C681 C682 1.414 . S
C681 C684 1.499 . S
C682 H662 0.950 . S
C682 C681 1.414 . S
C682 C683 1.374 . S
C683 H663 0.950 . S
C683 C679 1.385 . S
C683 C682 1.374 . S
C684 C681 1.499 . S
C684 C685 1.373 . S
C684 C686 1.389 . S
C685 H664 0.950 . S
C685 C684 1.373 . S
C685 C701 1.377 . S
C686 C684 1.389 . S
C686 C687 1.524 . S
C686 C700 1.377 . S
C687 C686 1.524 . S
C687 C688 1.397 . S
C687 C692 1.363 . S
C688 H665 0.950 . S
C688 C687 1.397 . S
C688 C689 1.334 . S
C689 H666 0.950 . S
C689 C688 1.334 . S
C689 C690 1.287 . S
C690 C689 1.287 . S
C690 C691 1.524 . S
C690 H709 0.913 . S
C691 H667 0.950 . S
C691 C690 1.524 . S
C691 C692 1.415 . S
C692 H668 0.950 . S
C692 C687 1.363 . S
C692 C691 1.415 . S
C693 H669 0.951 . S
C693 C694 1.366 . S
C693 C695 1.388 1_655 S
C694 C693 1.366 . S
C694 C698 1.385 . S
C695 H670 0.951 . S
C695 C693 1.388 1_455 S
C695 C696 1.366 . S
C696 C695 1.366 . S
C696 C697 1.414 1_455 S
C696 C699 1.499 . S
C697 H671 0.950 1_655 S
C697 C696 1.414 1_655 S
C697 C698 1.374 . S
C698 H672 0.950 . S
C698 C694 1.385 . S
C698 C697 1.374 . S
C699 C696 1.499 . S
C699 C700 1.373 . S
C699 C701 1.389 . S
C700 H673 0.950 . S
C700 C686 1.377 . S
C700 C699 1.373 . S
C701 C685 1.377 . S
C701 C699 1.389 . S
C701 C702 1.524 . S
C702 C701 1.524 . S
C702 C703 1.397 . S
C702 C707 1.363 . S
C703 H674 0.950 . S
C703 C702 1.397 . S
C703 C704 1.334 . S
C704 H675 0.950 1_455 S
C704 C703 1.334 . S
C704 C705 1.287 . S
C705 C704 1.287 . S
C705 C706 1.524 . S
C705 H708 0.999 . S
C706 H676 0.950 . S
C706 C705 1.524 . S
C706 C707 1.415 . S
C707 H677 0.950 . S
C707 C702 1.363 . S
C707 C706 1.415 . S
H708 C705 0.999 . S
H709 C690 0.913 . S
H710 C728 0.951 . S
H711 C730 0.951 . S
H712 C732 0.950 . S
H713 C733 0.950 . S
H714 C735 0.950 . S
H715 C738 0.950 . S
H716 C739 0.950 . S
H717 C741 0.950 . S
H718 C742 0.950 . S
H719 C743 0.951 . S
H720 C745 0.951 . S
H721 C747 0.950 . S
H722 C748 0.950 . S
H723 C750 0.950 . S
H724 C753 0.950 . S
H725 C754 0.950 . S
H726 C756 0.950 . S
H727 C757 0.950 . S
C728 H710 0.951 . S
C728 C729 1.366 . S
C728 C730 1.388 . S
C729 C728 1.366 . S
C729 C733 1.385 . S
C730 H711 0.951 . S
C730 C728 1.388 . S
C730 C731 1.366 . S
C731 C730 1.366 . S
C731 C732 1.414 . S
C731 C734 1.499 . S
C732 H712 0.950 . S
C732 C731 1.414 . S
C732 C733 1.374 . S
C733 H713 0.950 . S
C733 C729 1.385 . S
C733 C732 1.374 . S
C734 C731 1.499 . S
C734 C735 1.373 . S
C734 C736 1.389 . S
C735 H714 0.950 . S
C735 C734 1.373 . S
C735 C751 1.377 . S
C736 C734 1.389 . S
C736 C737 1.524 . S
C736 C750 1.377 . S
C737 C736 1.524 . S
C737 C738 1.397 . S
C737 C742 1.363 . S
C738 H715 0.950 . S
C738 C737 1.397 . S
C738 C739 1.334 . S
C739 H716 0.950 . S
C739 C738 1.334 . S
C739 C740 1.287 . S
C740 C739 1.287 . S
C740 C741 1.524 . S
C740 H759 0.913 . S
C741 H717 0.950 . S
C741 C740 1.524 . S
C741 C742 1.415 . S
C742 H718 0.950 . S
C742 C737 1.363 . S
C742 C741 1.415 . S
C743 H719 0.951 . S
C743 C744 1.366 . S
C743 C745 1.388 . S
C744 C743 1.366 . S
C744 C748 1.385 . S
C745 H720 0.951 . S
C745 C743 1.388 . S
C745 C746 1.366 . S
C746 C745 1.366 . S
C746 C747 1.414 . S
C746 C749 1.499 . S
C747 H721 0.950 . S
C747 C746 1.414 . S
C747 C748 1.374 . S
C748 H722 0.950 . S
C748 C744 1.385 . S
C748 C747 1.374 . S
C749 C746 1.499 . S
C749 C750 1.373 . S
C749 C751 1.389 . S
C750 H723 0.950 . S
C750 C736 1.377 . S
C750 C749 1.373 . S
C751 C735 1.377 . S
C751 C749 1.389 . S
C751 C752 1.524 . S
C752 C751 1.524 . S
C752 C753 1.397 . S
C752 C757 1.363 . S
C753 H724 0.950 . S
C753 C752 1.397 . S
C753 C754 1.334 . S
C754 H725 0.950 . S
C754 C753 1.334 . S
C754 C755 1.287 . S
C755 C754 1.287 . S
C755 C756 1.524 . S
C755 H758 0.999 . S
C756 H726 0.950 . S
C756 C755 1.524 . S
C756 C757 1.415 . S
C757 H727 0.950 . S
C757 C752 1.363 . S
C757 C756 1.415 . S
H758 C755 0.999 . S
H759 C740 0.913 . S
H760 C778 0.951 . S
H761 C780 0.951 . S
H762 C782 0.950 . S
H763 C783 0.950 . S
H764 C785 0.950 . S
H765 C788 0.950 . S
H766 C789 0.950 . S
H767 C791 0.950 . S
H768 C792 0.950 . S
H769 C793 0.951 . S
H770 C795 0.951 . S
H771 C797 0.950 . S
H772 C798 0.950 . S
H773 C800 0.950 . S
H774 C803 0.950 . S
H775 C804 0.950 . S
H776 C806 0.950 . S
H777 C807 0.950 . S
C778 H760 0.951 . S
C778 C779 1.366 . S
C778 C780 1.388 . S
C779 C778 1.366 . S
C779 C783 1.385 . S
C780 H761 0.951 . S
C780 C778 1.388 . S
C780 C781 1.366 . S
C781 C780 1.366 . S
C781 C782 1.414 . S
C781 C784 1.499 1_545 S
C782 H762 0.950 . S
C782 C781 1.414 . S
C782 C783 1.374 . S
C783 H763 0.950 . S
C783 C779 1.385 . S
C783 C782 1.374 . S
C784 C781 1.499 1_565 S
C784 C785 1.373 . S
C784 C786 1.389 . S
C785 H764 0.950 . S
C785 C784 1.373 . S
C785 C801 1.377 . S
C786 C784 1.389 . S
C786 C787 1.548 . S
C786 C800 1.377 . S
C787 C786 1.548 . S
C787 C788 1.389 1_565 S
C787 C792 1.351 . S
C788 H765 0.950 . S
C788 C787 1.389 1_545 S
C788 C789 1.334 . S
C789 H766 0.950 . S
C789 C788 1.334 . S
C789 C790 1.287 . S
C790 C789 1.287 . S
C790 C791 1.524 . S
C790 H809 0.913 . S
C791 H767 0.950 . S
C791 C790 1.524 . S
C791 C792 1.415 1_545 S
C792 H768 0.950 . S
C792 C787 1.351 . S
C792 C791 1.415 1_565 S
C793 H769 0.951 . S
C793 C794 1.366 . S
C793 C795 1.388 . S
C794 C793 1.366 . S
C794 C798 1.385 . S
C795 H770 0.951 . S
C795 C793 1.388 . S
C795 C796 1.366 . S
C796 C795 1.366 . S
C796 C797 1.414 . S
C796 C799 1.499 . S
C797 H771 0.950 . S
C797 C796 1.414 . S
C797 C798 1.374 . S
C798 H772 0.950 . S
C798 C794 1.385 . S
C798 C797 1.374 . S
C799 C796 1.499 . S
C799 C800 1.373 . S
C799 C801 1.389 . S
C800 H773 0.950 . S
C800 C786 1.377 . S
C800 C799 1.373 . S
C801 C785 1.377 . S
C801 C799 1.389 . S
C801 C802 1.524 . S
C802 C801 1.524 . S
C802 C803 1.397 . S
C802 C807 1.363 . S
C803 H774 0.950 . S
C803 C802 1.397 . S
C803 C804 1.334 . S
C804 H775 0.950 . S
C804 C803 1.334 . S
C804 C805 1.287 . S
C805 C804 1.287 . S
C805 C806 1.524 . S
C805 H808 0.999 . S
C806 H776 0.950 . S
C806 C805 1.524 . S
C806 C807 1.415 . S
C807 H777 0.950 . S
C807 C802 1.363 . S
C807 C806 1.415 . S
H808 C805 0.999 . S
H809 C790 0.913 . S
H810 C828 0.951 . S
H811 C830 0.951 . S
H812 C832 0.950 . S
H813 C833 0.950 . S
H814 C835 0.950 . S
H815 C838 0.950 . S
H816 C839 0.950 . S
H817 C841 0.950 . S
H818 C842 0.950 . S
H819 C843 0.951 1_554 S
H820 C845 0.951 1_554 S
H821 C847 0.950 . S
H822 C848 0.950 . S
H823 C850 0.950 . S
H824 C853 0.950 . S
H825 C854 0.950 . S
H826 C856 0.950 . S
H827 C857 0.950 . S
C828 H810 0.951 . S
C828 C829 1.366 1_556 S
C828 C830 1.388 . S
C829 C828 1.366 1_554 S
C829 C833 1.385 . S
C830 H811 0.951 . S
C830 C828 1.388 . S
C830 C831 1.366 . S
C831 C830 1.366 . S
C831 C832 1.414 1_556 S
C831 C834 1.499 . S
C832 H812 0.950 . S
C832 C831 1.414 1_554 S
C832 C833 1.374 . S
C833 H813 0.950 . S
C833 C829 1.385 . S
C833 C832 1.374 . S
C834 C831 1.499 . S
C834 C835 1.373 1_556 S
C834 C836 1.389 . S
C835 H814 0.950 . S
C835 C834 1.373 1_554 S
C835 C851 1.377 . S
C836 C834 1.389 . S
C836 C837 1.524 . S
C836 C850 1.377 . S
C837 C836 1.524 . S
C837 C838 1.397 . S
C837 C842 1.363 . S
C838 H815 0.950 . S
C838 C837 1.397 . S
C838 C839 1.334 . S
C839 H816 0.950 . S
C839 C838 1.334 . S
C839 C840 1.287 . S
C840 C839 1.287 . S
C840 C841 1.524 . S
C840 H859 0.913 . S
C841 H817 0.950 . S
C841 C840 1.524 . S
C841 C842 1.415 . S
C842 H818 0.950 . S
C842 C837 1.363 . S
C842 C841 1.415 . S
C843 H819 0.951 1_556 S
C843 C844 1.366 . S
C843 C845 1.388 . S
C844 C843 1.366 . S
C844 C848 1.385 . S
C845 H820 0.951 1_556 S
C845 C843 1.388 . S
C845 C846 1.365 . S
C846 C845 1.365 . S
C846 C847 1.414 . S
C846 C849 1.499 . S
C847 H821 0.950 . S
C847 C846 1.414 . S
C847 C848 1.374 . S
C848 H822 0.950 . S
C848 C844 1.385 . S
C848 C847 1.374 . S
C849 C846 1.499 . S
C849 C850 1.373 . S
C849 C851 1.389 1_556 S
C850 H823 0.950 . S
C850 C836 1.377 . S
C850 C849 1.373 . S
C851 C835 1.377 . S
C851 C849 1.389 1_554 S
C851 C852 1.524 . S
C852 C851 1.524 . S
C852 C853 1.397 . S
C852 C857 1.363 . S
C853 H824 0.950 . S
C853 C852 1.397 . S
C853 C854 1.334 . S
C854 H825 0.950 . S
C854 C853 1.334 . S
C854 C855 1.287 . S
C855 C854 1.287 . S
C855 C856 1.524 . S
C855 H858 0.999 . S
C856 H826 0.950 . S
C856 C855 1.524 . S
C856 C857 1.415 . S
C857 H827 0.950 . S
C857 C852 1.363 . S
C857 C856 1.415 . S
H858 C855 0.999 . S
H859 C840 0.913 . S
H860 C878 0.951 . S
H861 C880 0.951 . S
H862 C882 0.950 . S
H863 C883 0.950 . S
H864 C885 0.950 . S
H865 C888 0.950 . S
H866 C889 0.950 . S
H867 C891 0.950 . S
H868 C892 0.950 . S
H869 C893 0.951 . S
H870 C895 0.951 . S
H871 C897 0.950 . S
H872 C898 0.950 1_455 S
H873 C900 0.950 . S
H874 C903 0.950 . S
H875 C904 0.950 . S
H876 C906 0.950 . S
H877 C907 0.950 . S
C878 H860 0.951 . S
C878 C879 1.366 . S
C878 C880 1.388 1_565 S
C879 C878 1.366 . S
C879 C883 1.385 . S
C880 H861 0.951 . S
C880 C878 1.388 1_545 S
C880 C881 1.366 . S
C881 C880 1.366 . S
C881 C882 1.414 . S
C881 C884 1.499 . S
C882 H862 0.950 . S
C882 C881 1.414 . S
C882 C883 1.374 1_545 S
C883 H863 0.950 . S
C883 C879 1.385 . S
C883 C882 1.374 1_565 S
C884 C881 1.499 . S
C884 C885 1.373 . S
C884 C886 1.389 1_556 S
C885 H864 0.950 . S
C885 C884 1.373 . S
C885 C901 1.377 . S
C886 C884 1.389 1_554 S
C886 C887 1.524 . S
C886 C900 1.377 . S
C887 C886 1.524 . S
C887 C888 1.397 . S
C887 C892 1.363 . S
C888 H865 0.950 . S
C888 C887 1.397 . S
C888 C889 1.334 . S
C889 H866 0.950 . S
C889 C888 1.334 . S
C889 C890 1.287 . S
C890 C889 1.287 . S
C890 C891 1.524 . S
C890 H909 0.913 . S
C891 H867 0.950 . S
C891 C890 1.524 . S
C891 C892 1.415 . S
C892 H868 0.950 . S
C892 C887 1.363 . S
C892 C891 1.415 . S
C893 H869 0.951 . S
C893 C894 1.366 1_556 S
C893 C895 1.388 . S
C894 C893 1.366 1_554 S
C894 C898 1.385 . S
C895 H870 0.951 . S
C895 C893 1.388 . S
C895 C896 1.366 . S
C896 C895 1.366 . S
C896 C897 1.414 1_556 S
C896 C899 1.499 . S
C897 H871 0.950 . S
C897 C896 1.414 1_554 S
C897 C898 1.374 . S
C898 H872 0.950 1_655 S
C898 C894 1.385 . S
C898 C897 1.374 . S
C899 C896 1.499 . S
C899 C900 1.373 1_556 S
C899 C901 1.389 . S
C900 H873 0.950 . S
C900 C886 1.377 . S
C900 C899 1.373 1_554 S
C901 C885 1.377 . S
C901 C899 1.389 . S
C901 C902 1.524 . S
C902 C901 1.524 . S
C902 C903 1.397 . S
C902 C907 1.363 . S
C903 H874 0.950 . S
C903 C902 1.397 . S
C903 C904 1.334 . S
C904 H875 0.950 . S
C904 C903 1.334 . S
C904 C905 1.287 . S
C905 C904 1.287 . S
C905 C906 1.524 . S
C905 H908 0.999 . S
C906 H876 0.950 . S
C906 C905 1.524 . S
C906 C907 1.415 . S
C907 H877 0.950 . S
C907 C902 1.363 . S
C907 C906 1.415 . S
H908 C905 0.999 . S
H909 C890 0.913 . S
H910 C928 0.951 . S
H911 C930 0.951 . S
H912 C932 0.950 . S
H913 C933 0.950 . S
H914 C935 0.950 . S
H915 C938 0.950 . S
H916 C939 0.950 . S
H917 C941 0.950 . S
H918 C942 0.950 . S
H919 C943 0.951 . S
H920 C945 0.951 . S
H921 C947 0.950 . S
H922 C948 0.950 . S
H923 C950 0.950 . S
H924 C953 0.950 . S
H925 C954 0.950 . S
H926 C956 0.950 . S
H927 C957 0.950 . S
C928 H910 0.951 . S
C928 C929 1.366 1_556 S
C928 C930 1.388 . S
C929 C928 1.366 1_554 S
C929 C933 1.385 . S
C930 H911 0.951 . S
C930 C928 1.388 . S
C930 C931 1.366 . S
C931 C930 1.366 . S
C931 C932 1.414 1_556 S
C931 C934 1.499 . S
C932 H912 0.950 . S
C932 C931 1.414 1_554 S
C932 C933 1.374 . S
C933 H913 0.950 . S
C933 C929 1.385 . S
C933 C932 1.374 . S
C934 C931 1.499 . S
C934 C935 1.373 1_556 S
C934 C936 1.389 . S
C935 H914 0.950 . S
C935 C934 1.373 1_554 S
C935 C951 1.377 . S
C936 C934 1.389 . S
C936 C937 1.524 . S
C936 C950 1.377 . S
C937 C936 1.524 . S
C937 C938 1.397 . S
C937 C942 1.363 . S
C938 H915 0.950 . S
C938 C937 1.397 . S
C938 C939 1.334 . S
C939 H916 0.950 . S
C939 C938 1.334 . S
C939 C940 1.287 . S
C940 C939 1.287 . S
C940 C941 1.524 . S
C940 H959 0.913 . S
C941 H917 0.950 . S
C941 C940 1.524 . S
C941 C942 1.415 . S
C942 H918 0.950 . S
C942 C937 1.363 . S
C942 C941 1.415 . S
C943 H919 0.951 . S
C943 C944 1.366 1_554 S
C943 C945 1.388 . S
C944 C943 1.366 1_556 S
C944 C948 1.385 . S
C945 H920 0.951 . S
C945 C943 1.388 . S
C945 C946 1.366 1_554 S
C946 C945 1.366 1_556 S
C946 C947 1.414 . S
C946 C949 1.499 1_455 S
C947 H921 0.950 . S
C947 C946 1.414 . S
C947 C948 1.374 . S
C948 H922 0.950 . S
C948 C944 1.385 . S
C948 C947 1.374 . S
C949 C946 1.499 1_655 S
C949 C950 1.373 . S
C949 C951 1.389 1_556 S
C950 H923 0.950 . S
C950 C936 1.377 . S
C950 C949 1.373 . S
C951 C935 1.377 . S
C951 C949 1.389 1_554 S
C951 C952 1.524 . S
C952 C951 1.524 . S
C952 C953 1.397 1_655 S
C952 C957 1.363 . S
C953 H924 0.950 . S
C953 C952 1.397 1_455 S
C953 C954 1.334 . S
C954 H925 0.950 . S
C954 C953 1.334 . S
C954 C955 1.287 . S
C955 C954 1.287 . S
C955 C956 1.524 1_455 S
C955 H958 0.999 . S
C956 H926 0.950 . S
C956 C955 1.524 1_655 S
C956 C957 1.415 . S
C957 H927 0.950 . S
C957 C952 1.363 . S
C957 C956 1.415 . S
H958 C955 0.999 . S
H959 C940 0.913 . S
H960 C978 0.951 . S
H961 C980 0.951 . S
H962 C982 0.950 . S
H963 C983 0.950 . S
H964 C985 0.950 . S
H965 C988 0.950 . S
H966 C989 0.950 . S
H967 C991 0.950 . S
H968 C992 0.950 . S
H969 C993 0.951 . S
H970 C995 0.951 . S
H971 C997 0.950 . S
H972 C998 0.950 . S
H973 C1000 0.950 . S
H974 C1003 0.950 . S
H975 C1004 0.950 . S
H976 C1006 0.950 . S
H977 C1007 0.950 . S
C978 H960 0.951 . S
C978 C979 1.366 . S
C978 C980 1.388 . S
C979 C978 1.366 . S
C979 C983 1.385 . S
C980 H961 0.951 . S
C980 C978 1.388 . S
C980 C981 1.366 . S
C981 C980 1.366 . S
C981 C982 1.414 . S
C981 C984 1.499 . S
C982 H962 0.950 . S
C982 C981 1.414 . S
C982 C983 1.374 . S
C983 H963 0.950 . S
C983 C979 1.385 . S
C983 C982 1.374 . S
C984 C981 1.499 . S
C984 C985 1.373 . S
C984 C986 1.389 . S
C985 H964 0.950 . S
C985 C984 1.373 . S
C985 C1001 1.377 . S
C986 C984 1.389 . S
C986 C987 1.524 . S
C986 C1000 1.377 . S
C987 C986 1.524 . S
C987 C988 1.397 . S
C987 C992 1.363 . S
C988 H965 0.950 . S
C988 C987 1.397 . S
C988 C989 1.334 . S
C989 H966 0.950 . S
C989 C988 1.334 . S
C989 C990 1.287 . S
C990 C989 1.287 . S
C990 C991 1.524 . S
C990 H1009 0.913 1_554 S
C991 H967 0.950 . S
C991 C990 1.524 . S
C991 C992 1.415 . S
C992 H968 0.950 . S
C992 C987 1.363 . S
C992 C991 1.415 . S
C993 H969 0.951 . S
C993 C994 1.366 . S
C993 C995 1.388 . S
C994 C993 1.366 . S
C994 C998 1.385 . S
C995 H970 0.951 . S
C995 C993 1.388 . S
C995 C996 1.366 . S
C996 C995 1.366 . S
C996 C997 1.414 . S
C996 C999 1.499 . S
C997 H971 0.950 . S
C997 C996 1.414 . S
C997 C998 1.374 . S
C998 H972 0.950 . S
C998 C994 1.385 . S
C998 C997 1.374 . S
C999 C996 1.499 . S
C999 C1000 1.373 . S
C999 C1001 1.389 . S
C1000 H973 0.950 . S
C1000 C986 1.377 . S
C1000 C999 1.373 . S
C1001 C985 1.377 . S
C1001 C999 1.389 . S
C1001 C1002 1.524 . S
C1002 C1001 1.524 . S
C1002 C1003 1.397 . S
C1002 C1007 1.363 . S
C1003 H974 0.950 . S
C1003 C1002 1.397 . S
C1003 C1004 1.334 . S
C1004 H975 0.950 . S
C1004 C1003 1.334 . S
C1004 C1005 1.287 . S
C1005 C1004 1.287 . S
C1005 C1006 1.524 . S
C1005 H1008 0.999 . S
C1006 H976 0.950 . S
C1006 C1005 1.524 . S
C1006 C1007 1.415 . S
C1007 H977 0.950 . S
C1007 C1002 1.363 . S
C1007 C1006 1.415 . S
H1008 C1005 0.999 . S
H1009 C990 0.913 1_556 S
H1010 C1028 0.951 . S
H1011 C1030 0.951 . S
H1012 C1032 0.950 . S
H1013 C1033 0.950 . S
H1014 C1035 0.950 . S
H1015 C1038 0.950 . S
H1016 C1039 0.950 . S
H1017 C1041 0.950 . S
H1018 C1042 0.950 . S
H1019 C1043 0.951 . S
H1020 C1045 0.951 . S
H1021 C1047 0.950 . S
H1022 C1048 0.950 . S
H1023 C1050 0.950 . S
H1024 C1053 0.950 . S
H1025 C1054 0.950 . S
H1026 C1056 0.950 . S
H1027 C1057 0.950 . S
C1028 H1010 0.951 . S
C1028 C1029 1.366 . S
C1028 C1030 1.388 . S
C1029 C1028 1.366 . S
C1029 C1033 1.385 . S
C1030 H1011 0.951 . S
C1030 C1028 1.388 . S
C1030 C1031 1.366 . S
C1031 C1030 1.366 . S
C1031 C1032 1.414 . S
C1031 C1034 1.499 . S
C1032 H1012 0.950 . S
C1032 C1031 1.414 . S
C1032 C1033 1.374 . S
C1033 H1013 0.950 . S
C1033 C1029 1.385 . S
C1033 C1032 1.374 . S
C1034 C1031 1.499 . S
C1034 C1035 1.373 . S
C1034 C1036 1.389 . S
C1035 H1014 0.950 . S
C1035 C1034 1.373 . S
C1035 C1051 1.377 . S
C1036 C1034 1.389 . S
C1036 C1037 1.524 . S
C1036 C1050 1.377 . S
C1037 C1036 1.524 . S
C1037 C1038 1.397 . S
C1037 C1042 1.363 . S
C1038 H1015 0.950 . S
C1038 C1037 1.397 . S
C1038 C1039 1.334 . S
C1039 H1016 0.950 . S
C1039 C1038 1.334 . S
C1039 C1040 1.287 . S
C1040 C1039 1.287 . S
C1040 C1041 1.524 . S
C1040 H1059 0.913 . S
C1041 H1017 0.950 . S
C1041 C1040 1.524 . S
C1041 C1042 1.415 . S
C1042 H1018 0.950 . S
C1042 C1037 1.363 . S
C1042 C1041 1.415 . S
C1043 H1019 0.951 . S
C1043 C1044 1.366 . S
C1043 C1045 1.388 . S
C1044 C1043 1.366 . S
C1044 C1048 1.385 . S
C1045 H1020 0.951 . S
C1045 C1043 1.388 . S
C1045 C1046 1.366 . S
C1046 C1045 1.366 . S
C1046 C1047 1.414 . S
C1046 C1049 1.499 . S
C1047 H1021 0.950 . S
C1047 C1046 1.414 . S
C1047 C1048 1.374 . S
C1048 H1022 0.950 . S
C1048 C1044 1.385 . S
C1048 C1047 1.374 . S
C1049 C1046 1.499 . S
C1049 C1050 1.373 . S
C1049 C1051 1.389 . S
C1050 H1023 0.950 . S
C1050 C1036 1.377 . S
C1050 C1049 1.373 . S
C1051 C1035 1.377 . S
C1051 C1049 1.389 . S
C1051 C1052 1.524 . S
C1052 C1051 1.524 . S
C1052 C1053 1.397 . S
C1052 C1057 1.363 . S
C1053 H1024 0.950 . S
C1053 C1052 1.397 . S
C1053 C1054 1.334 . S
C1054 H1025 0.950 . S
C1054 C1053 1.334 . S
C1054 C1055 1.287 . S
C1055 C1054 1.287 . S
C1055 C1056 1.524 . S
C1055 H1058 0.999 1_554 S
C1056 H1026 0.950 . S
C1056 C1055 1.524 . S
C1056 C1057 1.415 . S
C1057 H1027 0.950 . S
C1057 C1052 1.363 . S
C1057 C1056 1.415 . S
H1058 C1055 0.999 1_556 S
H1059 C1040 0.913 . S
H1060 C1078 0.951 . S
H1061 C1080 0.951 . S
H1062 C1082 0.950 . S
H1063 C1083 0.950 . S
H1064 C1085 0.950 . S
H1065 C1088 0.950 . S
H1066 C1089 0.950 . S
H1067 C1091 0.950 . S
H1068 C1092 0.950 . S
H1069 C1093 0.951 . S
H1070 C1095 0.951 . S
H1071 C1097 0.950 . S
H1072 C1098 0.950 . S
H1073 C1100 0.950 . S
H1074 C1103 0.950 . S
H1075 C1104 0.950 . S
H1076 C1106 0.950 . S
H1077 C1107 0.950 . S
C1078 H1060 0.951 . S
C1078 C1079 1.366 . S
C1078 C1080 1.388 . S
C1079 C1078 1.366 . S
C1079 C1083 1.385 . S
C1080 H1061 0.951 . S
C1080 C1078 1.388 . S
C1080 C1081 1.366 . S
C1081 C1080 1.366 . S
C1081 C1082 1.414 . S
C1081 C1084 1.499 . S
C1082 H1062 0.950 . S
C1082 C1081 1.414 . S
C1082 C1083 1.374 . S
C1083 H1063 0.950 . S
C1083 C1079 1.385 . S
C1083 C1082 1.374 . S
C1084 C1081 1.499 . S
C1084 C1085 1.373 . S
C1084 C1086 1.389 . S
C1085 H1064 0.950 . S
C1085 C1084 1.373 . S
C1085 C1101 1.377 . S
C1086 C1084 1.389 . S
C1086 C1087 1.524 . S
C1086 C1100 1.377 . S
C1087 C1086 1.524 . S
C1087 C1088 1.397 . S
C1087 C1092 1.363 . S
C1088 H1065 0.950 . S
C1088 C1087 1.397 . S
C1088 C1089 1.334 . S
C1089 H1066 0.950 . S
C1089 C1088 1.334 . S
C1089 C1090 1.287 . S
C1090 C1089 1.287 . S
C1090 C1091 1.524 . S
C1090 H1109 0.913 . S
C1091 H1067 0.950 . S
C1091 C1090 1.524 . S
C1091 C1092 1.415 . S
C1092 H1068 0.950 . S
C1092 C1087 1.363 . S
C1092 C1091 1.415 . S
C1093 H1069 0.951 . S
C1093 C1094 1.366 . S
C1093 C1095 1.388 . S
C1094 C1093 1.366 . S
C1094 C1098 1.385 . S
C1095 H1070 0.951 . S
C1095 C1093 1.388 . S
C1095 C1096 1.366 . S
C1096 C1095 1.366 . S
C1096 C1097 1.414 . S
C1096 C1099 1.499 . S
C1097 H1071 0.950 . S
C1097 C1096 1.414 . S
C1097 C1098 1.374 . S
C1098 H1072 0.950 . S
C1098 C1094 1.385 . S
C1098 C1097 1.374 . S
C1099 C1096 1.499 . S
C1099 C1100 1.373 . S
C1099 C1101 1.389 . S
C1100 H1073 0.950 . S
C1100 C1086 1.377 . S
C1100 C1099 1.373 . S
C1101 C1085 1.377 . S
C1101 C1099 1.389 . S
C1101 C1102 1.524 . S
C1102 C1101 1.524 . S
C1102 C1103 1.397 . S
C1102 C1107 1.363 . S
C1103 H1074 0.950 . S
C1103 C1102 1.397 . S
C1103 C1104 1.334 . S
C1104 H1075 0.950 . S
C1104 C1103 1.334 . S
C1104 C1105 1.287 . S
C1105 C1104 1.287 . S
C1105 C1106 1.524 . S
C1105 H1108 0.999 . S
C1106 H1076 0.950 . S
C1106 C1105 1.524 . S
C1106 C1107 1.415 . S
C1107 H1077 0.950 . S
C1107 C1102 1.363 . S
C1107 C1106 1.415 . S
H1108 C1105 0.999 . S
H1109 C1090 0.913 . S
H1110 C1128 0.951 . S
H1111 C1130 0.951 . S
H1112 C1132 0.950 . S
H1113 C1133 0.950 . S
H1114 C1135 0.950 . S
H1115 C1138 0.950 . S
H1116 C1139 0.950 . S
H1117 C1141 0.950 . S
H1118 C1142 0.950 . S
H1119 C1143 0.951 . S
H1120 C1145 0.951 . S
H1121 C1147 0.950 . S
H1122 C1148 0.950 . S
H1123 C1150 0.950 . S
H1124 C1153 0.950 . S
H1125 C1154 0.950 . S
H1126 C1156 0.950 . S
H1127 C1157 0.950 . S
C1128 H1110 0.951 . S
C1128 C1129 1.366 . S
C1128 C1130 1.388 . S
C1129 C1128 1.366 . S
C1129 C1133 1.385 . S
C1130 H1111 0.951 . S
C1130 C1128 1.388 . S
C1130 C1131 1.366 . S
C1131 C1130 1.366 . S
C1131 C1132 1.414 . S
C1131 C1134 1.499 . S
C1132 H1112 0.950 . S
C1132 C1131 1.414 . S
C1132 C1133 1.374 . S
C1133 H1113 0.950 . S
C1133 C1129 1.385 . S
C1133 C1132 1.374 . S
C1134 C1131 1.499 . S
C1134 C1135 1.373 . S
C1134 C1136 1.389 . S
C1135 H1114 0.950 . S
C1135 C1134 1.373 . S
C1135 C1151 1.377 . S
C1136 C1134 1.389 . S
C1136 C1137 1.524 . S
C1136 C1150 1.377 . S
C1137 C1136 1.524 . S
C1137 C1138 1.397 . S
C1137 C1142 1.363 . S
C1138 H1115 0.950 . S
C1138 C1137 1.397 . S
C1138 C1139 1.334 . S
C1139 H1116 0.950 . S
C1139 C1138 1.334 . S
C1139 C1140 1.287 . S
C1140 C1139 1.287 . S
C1140 C1141 1.524 . S
C1140 H1159 0.913 . S
C1141 H1117 0.950 . S
C1141 C1140 1.524 . S
C1141 C1142 1.415 . S
C1142 H1118 0.950 . S
C1142 C1137 1.363 . S
C1142 C1141 1.415 . S
C1143 H1119 0.951 . S
C1143 C1144 1.366 . S
C1143 C1145 1.388 . S
C1144 C1143 1.366 . S
C1144 C1148 1.385 . S
C1145 H1120 0.951 . S
C1145 C1143 1.388 . S
C1145 C1146 1.366 . S
C1146 C1145 1.366 . S
C1146 C1147 1.414 . S
C1146 C1149 1.499 . S
C1147 H1121 0.950 . S
C1147 C1146 1.414 . S
C1147 C1148 1.374 . S
C1148 H1122 0.950 . S
C1148 C1144 1.385 . S
C1148 C1147 1.374 . S
C1149 C1146 1.499 . S
C1149 C1150 1.373 . S
C1149 C1151 1.389 . S
C1150 H1123 0.950 . S
C1150 C1136 1.377 . S
C1150 C1149 1.373 . S
C1151 C1135 1.377 . S
C1151 C1149 1.389 . S
C1151 C1152 1.524 . S
C1152 C1151 1.524 . S
C1152 C1153 1.397 . S
C1152 C1157 1.363 . S
C1153 H1124 0.950 . S
C1153 C1152 1.397 . S
C1153 C1154 1.334 . S
C1154 H1125 0.950 . S
C1154 C1153 1.334 . S
C1154 C1155 1.287 . S
C1155 C1154 1.287 . S
C1155 C1156 1.524 . S
C1155 H1158 0.999 . S
C1156 H1126 0.950 . S
C1156 C1155 1.524 . S
C1156 C1157 1.415 . S
C1157 H1127 0.950 . S
C1157 C1152 1.363 . S
C1157 C1156 1.415 . S
H1158 C1155 0.999 . S
H1159 C1140 0.913 . S
H1160 C1178 0.951 . S
H1161 C1180 0.951 . S
H1162 C1182 0.950 . S
H1163 C1183 0.950 . S
H1164 C1185 0.950 . S
H1165 C1188 0.950 . S
H1166 C1189 0.950 . S
H1167 C1191 0.950 . S
H1168 C1192 0.950 . S
H1169 C1193 0.951 . S
H1170 C1195 0.951 . S
H1171 C1197 0.950 . S
H1172 C1198 0.950 . S
H1173 C1200 0.950 . S
H1174 C1203 0.950 . S
H1175 C1204 0.950 . S
H1176 C1206 0.950 . S
H1177 C1207 0.950 . S
C1178 H1160 0.951 . S
C1178 C1179 1.366 . S
C1178 C1180 1.388 . S
C1179 C1178 1.366 . S
C1179 C1183 1.385 . S
C1180 H1161 0.951 . S
C1180 C1178 1.388 . S
C1180 C1181 1.366 . S
C1181 C1180 1.366 . S
C1181 C1182 1.414 . S
C1181 C1184 1.499 . S
C1182 H1162 0.950 . S
C1182 C1181 1.414 . S
C1182 C1183 1.374 . S
C1183 H1163 0.950 . S
C1183 C1179 1.385 . S
C1183 C1182 1.374 . S
C1184 C1181 1.499 . S
C1184 C1185 1.373 . S
C1184 C1186 1.389 . S
C1185 H1164 0.950 . S
C1185 C1184 1.373 . S
C1185 C1201 1.377 . S
C1186 C1184 1.389 . S
C1186 C1187 1.524 . S
C1186 C1200 1.377 . S
C1187 C1186 1.524 . S
C1187 C1188 1.397 . S
C1187 C1192 1.363 . S
C1188 H1165 0.950 . S
C1188 C1187 1.397 . S
C1188 C1189 1.334 . S
C1189 H1166 0.950 . S
C1189 C1188 1.334 . S
C1189 C1190 1.287 . S
C1190 C1189 1.287 . S
C1190 C1191 1.524 . S
C1190 H1209 0.913 . S
C1191 H1167 0.950 . S
C1191 C1190 1.524 . S
C1191 C1192 1.415 . S
C1192 H1168 0.950 . S
C1192 C1187 1.363 . S
C1192 C1191 1.415 . S
C1193 H1169 0.951 . S
C1193 C1194 1.366 . S
C1193 C1195 1.388 . S
C1194 C1193 1.366 . S
C1194 C1198 1.385 . S
C1195 H1170 0.951 . S
C1195 C1193 1.388 . S
C1195 C1196 1.366 . S
C1196 C1195 1.366 . S
C1196 C1197 1.414 . S
C1196 C1199 1.499 . S
C1197 H1171 0.950 . S
C1197 C1196 1.414 . S
C1197 C1198 1.374 . S
C1198 H1172 0.950 . S
C1198 C1194 1.385 . S
C1198 C1197 1.374 . S
C1199 C1196 1.499 . S
C1199 C1200 1.373 . S
C1199 C1201 1.389 . S
C1200 H1173 0.950 . S
C1200 C1186 1.377 . S
C1200 C1199 1.373 . S
C1201 C1185 1.377 . S
C1201 C1199 1.389 . S
C1201 C1202 1.524 . S
C1202 C1201 1.524 . S
C1202 C1203 1.397 . S
C1202 C1207 1.363 . S
C1203 H1174 0.950 . S
C1203 C1202 1.397 . S
C1203 C1204 1.334 . S
C1204 H1175 0.950 . S
C1204 C1203 1.334 . S
C1204 C1205 1.287 . S
C1205 C1204 1.287 . S
C1205 C1206 1.524 . S
C1205 H1208 0.999 . S
C1206 H1176 0.950 . S
C1206 C1205 1.524 . S
C1206 C1207 1.415 . S
C1207 H1177 0.950 . S
C1207 C1202 1.363 . S
C1207 C1206 1.415 . S
H1208 C1205 0.999 . S
H1209 C1190 0.913 . S
H1210 C1228 0.951 . S
H1211 C1230 0.951 . S
H1212 C1232 0.950 . S
H1213 C1233 0.950 . S
H1214 C1235 0.950 . S
H1215 C1238 0.950 . S
H1216 C1239 0.950 . S
H1217 C1241 0.950 . S
H1218 C1242 0.950 . S
H1219 C1243 0.951 . S
H1220 C1245 0.951 . S
H1221 C1247 0.950 . S
H1222 C1248 0.950 . S
H1223 C1250 0.950 . S
H1224 C1253 0.950 . S
H1225 C1254 0.950 . S
H1226 C1256 0.950 . S
H1227 C1257 0.950 . S
C1228 H1210 0.951 . S
C1228 C1229 1.366 . S
C1228 C1230 1.388 . S
C1229 C1228 1.366 . S
C1229 C1233 1.385 . S
C1230 H1211 0.951 . S
C1230 C1228 1.388 . S
C1230 C1231 1.366 . S
C1231 C1230 1.366 . S
C1231 C1232 1.414 . S
C1231 C1234 1.499 . S
C1232 H1212 0.950 . S
C1232 C1231 1.414 . S
C1232 C1233 1.374 . S
C1233 H1213 0.950 . S
C1233 C1229 1.385 . S
C1233 C1232 1.374 . S
C1234 C1231 1.499 . S
C1234 C1235 1.373 . S
C1234 C1236 1.389 . S
C1235 H1214 0.950 . S
C1235 C1234 1.373 . S
C1235 C1251 1.377 . S
C1236 C1234 1.389 . S
C1236 C1237 1.524 . S
C1236 C1250 1.377 . S
C1237 C1236 1.524 . S
C1237 C1238 1.397 . S
C1237 C1242 1.363 . S
C1238 H1215 0.950 . S
C1238 C1237 1.397 . S
C1238 C1239 1.334 . S
C1239 H1216 0.950 . S
C1239 C1238 1.334 . S
C1239 C1240 1.287 . S
C1240 C1239 1.287 . S
C1240 C1241 1.524 . S
C1240 H1259 0.913 . S
C1241 H1217 0.950 . S
C1241 C1240 1.524 . S
C1241 C1242 1.415 . S
C1242 H1218 0.950 . S
C1242 C1237 1.363 . S
C1242 C1241 1.415 . S
C1243 H1219 0.951 . S
C1243 C1244 1.366 . S
C1243 C1245 1.388 . S
C1244 C1243 1.366 . S
C1244 C1248 1.385 . S
C1245 H1220 0.951 . S
C1245 C1243 1.388 . S
C1245 C1246 1.366 . S
C1246 C1245 1.366 . S
C1246 C1247 1.414 . S
C1246 C1249 1.499 . S
C1247 H1221 0.950 . S
C1247 C1246 1.414 . S
C1247 C1248 1.374 . S
C1248 H1222 0.950 . S
C1248 C1244 1.385 . S
C1248 C1247 1.374 . S
C1249 C1246 1.499 . S
C1249 C1250 1.373 . S
C1249 C1251 1.389 . S
C1250 H1223 0.950 . S
C1250 C1236 1.377 . S
C1250 C1249 1.373 . S
C1251 C1235 1.377 . S
C1251 C1249 1.389 . S
C1251 C1252 1.524 . S
C1252 C1251 1.524 . S
C1252 C1253 1.397 . S
C1252 C1257 1.363 . S
C1253 H1224 0.950 . S
C1253 C1252 1.397 . S
C1253 C1254 1.334 . S
C1254 H1225 0.950 . S
C1254 C1253 1.334 . S
C1254 C1255 1.287 . S
C1255 C1254 1.287 . S
C1255 C1256 1.524 . S
C1255 H1258 0.999 . S
C1256 H1226 0.950 . S
C1256 C1255 1.524 . S
C1256 C1257 1.415 . S
C1257 H1227 0.950 . S
C1257 C1252 1.363 . S
C1257 C1256 1.415 . S
H1258 C1255 0.999 . S
H1259 C1240 0.913 . S
H1260 C1278 0.951 . S
H1261 C1280 0.951 . S
H1262 C1282 0.950 . S
H1263 C1283 0.950 . S
H1264 C1285 0.950 1_655 S
H1265 C1288 0.950 . S
H1266 C1289 0.950 . S
H1267 C1291 0.950 . S
H1268 C1292 0.950 . S
H1269 C1293 0.951 . S
H1270 C1295 0.951 . S
H1271 C1297 0.950 . S
H1272 C1298 0.950 . S
H1273 C1300 0.950 . S
H1274 C1303 0.950 . S
H1275 C1304 0.950 . S
H1276 C1306 0.950 . S
H1277 C1307 0.950 . S
C1278 H1260 0.951 . S
C1278 C1279 1.366 . S
C1278 C1280 1.388 . S
C1279 C1278 1.366 . S
C1279 C1283 1.385 . S
C1280 H1261 0.951 . S
C1280 C1278 1.388 . S
C1280 C1281 1.366 . S
C1281 C1280 1.366 . S
C1281 C1282 1.414 . S
C1281 C1284 1.499 . S
C1282 H1262 0.950 . S
C1282 C1281 1.414 . S
C1282 C1283 1.374 . S
C1283 H1263 0.950 . S
C1283 C1279 1.385 . S
C1283 C1282 1.374 . S
C1284 C1281 1.499 . S
C1284 C1285 1.373 . S
C1284 C1286 1.389 . S
C1285 H1264 0.950 1_455 S
C1285 C1284 1.373 . S
C1285 C1301 1.377 . S
C1286 C1284 1.389 . S
C1286 C1287 1.524 . S
C1286 C1300 1.377 . S
C1287 C1286 1.524 . S
C1287 C1288 1.397 . S
C1287 C1292 1.363 . S
C1288 H1265 0.950 . S
C1288 C1287 1.397 . S
C1288 C1289 1.334 . S
C1289 H1266 0.950 . S
C1289 C1288 1.334 . S
C1289 C1290 1.287 . S
C1290 C1289 1.287 . S
C1290 C1291 1.524 . S
C1290 H1309 0.913 . S
C1291 H1267 0.950 . S
C1291 C1290 1.524 . S
C1291 C1292 1.415 . S
C1292 H1268 0.950 . S
C1292 C1287 1.363 . S
C1292 C1291 1.415 . S
C1293 H1269 0.951 . S
C1293 C1294 1.366 . S
C1293 C1295 1.388 . S
C1294 C1293 1.366 . S
C1294 C1298 1.385 . S
C1295 H1270 0.951 . S
C1295 C1293 1.388 . S
C1295 C1296 1.366 . S
C1296 C1295 1.366 . S
C1296 C1297 1.414 . S
C1296 C1299 1.499 . S
C1297 H1271 0.950 . S
C1297 C1296 1.414 . S
C1297 C1298 1.374 . S
C1298 H1272 0.950 . S
C1298 C1294 1.385 . S
C1298 C1297 1.374 . S
C1299 C1296 1.499 . S
C1299 C1300 1.373 . S
C1299 C1301 1.401 . S
C1300 H1273 0.950 . S
C1300 C1286 1.377 . S
C1300 C1299 1.373 . S
C1301 C1285 1.377 . S
C1301 C1299 1.401 . S
C1301 C1302 1.511 1_455 S
C1302 C1301 1.511 1_655 S
C1302 C1303 1.397 . S
C1302 C1307 1.363 . S
C1303 H1274 0.950 . S
C1303 C1302 1.397 . S
C1303 C1304 1.334 . S
C1304 H1275 0.950 . S
C1304 C1303 1.334 . S
C1304 C1305 1.287 . S
C1305 C1304 1.287 . S
C1305 C1306 1.524 . S
C1305 H1308 0.999 . S
C1306 H1276 0.950 . S
C1306 C1305 1.524 . S
C1306 C1307 1.415 . S
C1307 H1277 0.950 . S
C1307 C1302 1.363 . S
C1307 C1306 1.415 . S
H1308 C1305 0.999 . S
H1309 C1290 0.913 . S
H1310 C1328 0.951 . S
H1311 C1330 0.951 . S
H1312 C1332 0.950 . S
H1313 C1333 0.950 . S
H1314 C1335 0.950 . S
H1315 C1338 0.950 . S
H1316 C1339 0.950 . S
H1317 C1341 0.950 . S
H1318 C1342 0.950 . S
H1319 C1343 0.951 . S
H1320 C1345 0.951 . S
H1321 C1347 0.950 . S
H1322 C1348 0.950 . S
H1323 C1350 0.950 . S
H1324 C1353 0.950 . S
H1325 C1354 0.950 . S
H1326 C1356 0.950 . S
H1327 C1357 0.950 . S
C1328 H1310 0.951 . S
C1328 C1329 1.366 . S
C1328 C1330 1.388 . S
C1329 C1328 1.366 . S
C1329 C1333 1.385 . S
C1330 H1311 0.951 . S
C1330 C1328 1.388 . S
C1330 C1331 1.366 . S
C1331 C1330 1.366 . S
C1331 C1332 1.414 . S
C1331 C1334 1.499 . S
C1332 H1312 0.950 . S
C1332 C1331 1.414 . S
C1332 C1333 1.374 . S
C1333 H1313 0.950 . S
C1333 C1329 1.385 . S
C1333 C1332 1.374 . S
C1334 C1331 1.499 . S
C1334 C1335 1.373 . S
C1334 C1336 1.389 . S
C1335 H1314 0.950 . S
C1335 C1334 1.373 . S
C1335 C1351 1.377 . S
C1336 C1334 1.389 . S
C1336 C1337 1.524 . S
C1336 C1350 1.377 . S
C1337 C1336 1.524 . S
C1337 C1338 1.397 . S
C1337 C1342 1.363 . S
C1338 H1315 0.950 . S
C1338 C1337 1.397 . S
C1338 C1339 1.334 . S
C1339 H1316 0.950 . S
C1339 C1338 1.334 . S
C1339 C1340 1.287 . S
C1340 C1339 1.287 . S
C1340 C1341 1.524 . S
C1340 H1359 0.913 . S
C1341 H1317 0.950 . S
C1341 C1340 1.524 . S
C1341 C1342 1.415 . S
C1342 H1318 0.950 . S
C1342 C1337 1.363 . S
C1342 C1341 1.415 . S
C1343 H1319 0.951 . S
C1343 C1344 1.366 . S
C1343 C1345 1.388 . S
C1344 C1343 1.366 . S
C1344 C1348 1.385 . S
C1345 H1320 0.951 . S
C1345 C1343 1.388 . S
C1345 C1346 1.366 . S
C1346 C1345 1.366 . S
C1346 C1347 1.414 . S
C1346 C1349 1.499 . S
C1347 H1321 0.950 . S
C1347 C1346 1.414 . S
C1347 C1348 1.374 . S
C1348 H1322 0.950 . S
C1348 C1344 1.385 . S
C1348 C1347 1.374 . S
C1349 C1346 1.499 . S
C1349 C1350 1.373 . S
C1349 C1351 1.389 . S
C1350 H1323 0.950 . S
C1350 C1336 1.377 . S
C1350 C1349 1.373 . S
C1351 C1335 1.377 . S
C1351 C1349 1.389 . S
C1351 C1352 1.524 . S
C1352 C1351 1.524 . S
C1352 C1353 1.397 . S
C1352 C1357 1.363 . S
C1353 H1324 0.950 . S
C1353 C1352 1.397 . S
C1353 C1354 1.334 . S
C1354 H1325 0.950 . S
C1354 C1353 1.334 . S
C1354 C1355 1.287 . S
C1355 C1354 1.287 . S
C1355 C1356 1.524 . S
C1355 H1358 0.999 . S
C1356 H1326 0.950 . S
C1356 C1355 1.524 . S
C1356 C1357 1.415 . S
C1357 H1327 0.950 . S
C1357 C1352 1.363 . S
C1357 C1356 1.415 . S
H1358 C1355 0.999 . S
H1359 C1340 0.913 . S
H1360 C1378 0.951 . S
H1361 C1380 0.951 . S
H1362 C1382 0.950 . S
H1363 C1383 0.950 . S
H1364 C1385 0.950 . S
H1365 C1388 0.950 . S
H1366 C1389 0.950 . S
H1367 C1391 0.950 . S
H1368 C1392 0.950 . S
H1369 C1393 0.951 . S
H1370 C1395 0.939 . S
H1371 C1397 0.950 . S
H1372 C1398 0.950 . S
H1373 C1400 0.950 . S
H1374 C1403 0.950 . S
H1375 C1404 0.950 . S
H1376 C1406 0.950 . S
H1377 C1407 0.950 . S
C1378 H1360 0.951 . S
C1378 C1379 1.366 . S
C1378 C1380 1.388 . S
C1379 C1378 1.366 . S
C1379 C1383 1.385 . S
C1380 H1361 0.951 . S
C1380 C1378 1.388 . S
C1380 C1381 1.366 . S
C1381 C1380 1.366 . S
C1381 C1382 1.414 . S
C1381 C1384 1.499 . S
C1382 H1362 0.950 . S
C1382 C1381 1.414 . S
C1382 C1383 1.374 . S
C1383 H1363 0.950 . S
C1383 C1379 1.385 . S
C1383 C1382 1.374 . S
C1384 C1381 1.499 . S
C1384 C1385 1.373 1_545 S
C1384 C1386 1.389 . S
C1385 H1364 0.950 . S
C1385 C1384 1.373 1_565 S
C1385 C1401 1.377 . S
C1386 C1384 1.389 . S
C1386 C1387 1.524 . S
C1386 C1400 1.377 . S
C1387 C1386 1.524 . S
C1387 C1388 1.397 . S
C1387 C1392 1.363 . S
C1388 H1365 0.950 . S
C1388 C1387 1.397 . S
C1388 C1389 1.334 . S
C1389 H1366 0.950 . S
C1389 C1388 1.334 . S
C1389 C1390 1.287 . S
C1390 C1389 1.287 . S
C1390 C1391 1.524 . S
C1390 H1409 0.913 . S
C1391 H1367 0.950 . S
C1391 C1390 1.524 . S
C1391 C1392 1.415 . S
C1392 H1368 0.950 . S
C1392 C1387 1.363 . S
C1392 C1391 1.415 . S
C1393 H1369 0.951 . S
C1393 C1394 1.366 . S
C1393 C1395 1.388 . S
C1394 C1393 1.366 . S
C1394 C1398 1.385 . S
C1395 H1370 0.939 . S
C1395 C1393 1.388 . S
C1395 C1396 1.366 . S
C1396 C1395 1.366 . S
C1396 C1397 1.414 . S
C1396 C1399 1.499 . S
C1397 H1371 0.950 . S
C1397 C1396 1.414 . S
C1397 C1398 1.374 . S
C1398 H1372 0.950 . S
C1398 C1394 1.385 . S
C1398 C1397 1.374 . S
C1399 C1396 1.499 . S
C1399 C1400 1.373 . S
C1399 C1401 1.389 1_545 S
C1400 H1373 0.950 . S
C1400 C1386 1.377 . S
C1400 C1399 1.373 . S
C1401 C1385 1.377 . S
C1401 C1399 1.389 1_565 S
C1401 C1402 1.524 . S
C1402 C1401 1.524 . S
C1402 C1403 1.397 . S
C1402 C1407 1.363 . S
C1403 H1374 0.950 . S
C1403 C1402 1.397 . S
C1403 C1404 1.334 . S
C1404 H1375 0.950 . S
C1404 C1403 1.334 . S
C1404 C1405 1.287 . S
C1405 C1404 1.287 . S
C1405 C1406 1.524 . S
C1405 H1408 0.999 . S
C1406 H1376 0.950 . S
C1406 C1405 1.524 . S
C1406 C1407 1.415 . S
C1407 H1377 0.950 . S
C1407 C1402 1.363 . S
C1407 C1406 1.415 . S
H1408 C1405 0.999 . S
H1409 C1390 0.913 . S
H1410 C1428 0.951 . S
H1411 C1430 0.951 . S
H1412 C1432 0.950 . S
H1413 C1433 0.950 . S
H1414 C1435 0.950 . S
H1415 C1438 0.950 . S
H1416 C1439 0.950 . S
H1417 C1441 0.950 . S
H1418 C1442 0.950 . S
H1419 C1443 0.951 . S
H1420 C1445 0.951 . S
H1421 C1447 0.950 . S
H1422 C1448 0.950 . S
H1423 C1450 0.950 . S
H1424 C1453 0.950 . S
H1425 C1454 0.950 1_554 S
H1426 C1456 0.950 . S
H1427 C1457 0.950 . S
C1428 H1410 0.951 . S
C1428 C1429 1.366 . S
C1428 C1430 1.388 . S
C1429 C1428 1.366 . S
C1429 C1433 1.385 . S
C1430 H1411 0.951 . S
C1430 C1428 1.388 . S
C1430 C1431 1.366 . S
C1431 C1430 1.366 . S
C1431 C1432 1.414 . S
C1431 C1434 1.499 . S
C1432 H1412 0.950 . S
C1432 C1431 1.414 . S
C1432 C1433 1.374 . S
C1433 H1413 0.950 . S
C1433 C1429 1.385 . S
C1433 C1432 1.374 . S
C1434 C1431 1.499 . S
C1434 C1435 1.373 . S
C1434 C1436 1.389 . S
C1435 H1414 0.950 . S
C1435 C1434 1.373 . S
C1435 C1451 1.377 . S
C1436 C1434 1.389 . S
C1436 C1437 1.524 . S
C1436 C1450 1.377 . S
C1437 C1436 1.524 . S
C1437 C1438 1.397 . S
C1437 C1442 1.363 . S
C1438 H1415 0.950 . S
C1438 C1437 1.397 . S
C1438 C1439 1.334 . S
C1439 H1416 0.950 . S
C1439 C1438 1.334 . S
C1439 C1440 1.287 . S
C1440 C1439 1.287 . S
C1440 C1441 1.524 . S
C1440 H1459 0.913 . S
C1441 H1417 0.950 . S
C1441 C1440 1.524 . S
C1441 C1442 1.415 . S
C1442 H1418 0.950 . S
C1442 C1437 1.363 . S
C1442 C1441 1.415 . S
C1443 H1419 0.951 . S
C1443 C1444 1.366 . S
C1443 C1445 1.388 . S
C1444 C1443 1.366 . S
C1444 C1448 1.385 . S
C1445 H1420 0.951 . S
C1445 C1443 1.388 . S
C1445 C1446 1.363 1_554 S
C1446 C1445 1.363 1_556 S
C1446 C1447 1.411 1_556 S
C1446 C1449 1.504 . S
C1447 H1421 0.950 . S
C1447 C1446 1.411 1_554 S
C1447 C1448 1.374 . S
C1448 H1422 0.950 . S
C1448 C1444 1.385 . S
C1448 C1447 1.374 . S
C1449 C1446 1.504 . S
C1449 C1450 1.373 . S
C1449 C1451 1.389 . S
C1450 H1423 0.950 . S
C1450 C1436 1.377 . S
C1450 C1449 1.373 . S
C1451 C1435 1.377 . S
C1451 C1449 1.389 . S
C1451 C1452 1.524 . S
C1452 C1451 1.524 . S
C1452 C1453 1.397 . S
C1452 C1457 1.363 . S
C1453 H1424 0.950 . S
C1453 C1452 1.397 . S
C1453 C1454 1.334 . S
C1454 H1425 0.950 1_556 S
C1454 C1453 1.334 . S
C1454 C1455 1.287 . S
C1455 C1454 1.287 . S
C1455 C1456 1.524 . S
C1455 H1458 0.999 . S
C1456 H1426 0.950 . S
C1456 C1455 1.524 . S
C1456 C1457 1.415 . S
C1457 H1427 0.950 . S
C1457 C1452 1.363 . S
C1457 C1456 1.415 . S
H1458 C1455 0.999 . S
H1459 C1440 0.913 . S
H1460 C1478 0.951 . S
H1461 C1480 0.951 . S
H1462 C1482 0.950 . S
H1463 C1483 0.950 . S
H1464 C1485 0.950 . S
H1465 C1488 0.950 . S
H1466 C1489 0.950 . S
H1467 C1491 0.950 . S
H1468 C1492 0.950 . S
H1469 C1493 0.951 . S
H1470 C1495 0.951 . S
H1471 C1497 0.950 . S
H1472 C1498 0.950 . S
H1473 C1500 0.950 . S
H1474 C1503 0.950 . S
H1475 C1504 0.950 1_554 S
H1476 C1506 0.950 . S
H1477 C1507 0.950 . S
C1478 H1460 0.951 . S
C1478 C1479 1.366 . S
C1478 C1480 1.388 . S
C1479 C1478 1.366 . S
C1479 C1483 1.385 . S
C1480 H1461 0.951 . S
C1480 C1478 1.388 . S
C1480 C1481 1.366 . S
C1481 C1480 1.366 . S
C1481 C1482 1.414 . S
C1481 C1484 1.499 . S
C1482 H1462 0.950 . S
C1482 C1481 1.414 . S
C1482 C1483 1.374 . S
C1483 H1463 0.950 . S
C1483 C1479 1.385 . S
C1483 C1482 1.374 . S
C1484 C1481 1.499 . S
C1484 C1485 1.373 . S
C1484 C1486 1.389 . S
C1485 H1464 0.950 . S
C1485 C1484 1.373 . S
C1485 C1501 1.377 . S
C1486 C1484 1.389 . S
C1486 C1487 1.524 . S
C1486 C1500 1.377 . S
C1487 C1486 1.524 . S
C1487 C1488 1.397 . S
C1487 C1492 1.363 . S
C1488 H1465 0.950 . S
C1488 C1487 1.397 . S
C1488 C1489 1.334 . S
C1489 H1466 0.950 . S
C1489 C1488 1.334 . S
C1489 C1490 1.287 . S
C1490 C1489 1.287 . S
C1490 C1491 1.524 . S
C1490 H1509 0.913 . S
C1491 H1467 0.950 . S
C1491 C1490 1.524 . S
C1491 C1492 1.415 . S
C1492 H1468 0.950 . S
C1492 C1487 1.363 . S
C1492 C1491 1.415 . S
C1493 H1469 0.951 . S
C1493 C1494 1.366 . S
C1493 C1495 1.388 . S
C1494 C1493 1.366 . S
C1494 C1498 1.385 . S
C1495 H1470 0.951 . S
C1495 C1493 1.388 . S
C1495 C1496 1.365 1_554 S
C1496 C1495 1.365 1_556 S
C1496 C1497 1.413 1_556 S
C1496 C1499 1.500 . S
C1497 H1471 0.950 . S
C1497 C1496 1.413 1_554 S
C1497 C1498 1.374 . S
C1498 H1472 0.950 . S
C1498 C1494 1.385 . S
C1498 C1497 1.374 . S
C1499 C1496 1.500 . S
C1499 C1500 1.373 . S
C1499 C1501 1.389 . S
C1500 H1473 0.950 . S
C1500 C1486 1.377 . S
C1500 C1499 1.373 . S
C1501 C1485 1.377 . S
C1501 C1499 1.389 . S
C1501 C1502 1.524 . S
C1502 C1501 1.524 . S
C1502 C1503 1.397 . S
C1502 C1507 1.363 . S
C1503 H1474 0.950 . S
C1503 C1502 1.397 . S
C1503 C1504 1.334 . S
C1504 H1475 0.950 1_556 S
C1504 C1503 1.334 . S
C1504 C1505 1.287 . S
C1505 C1504 1.287 . S
C1505 C1506 1.524 . S
C1505 H1508 0.999 . S
C1506 H1476 0.950 . S
C1506 C1505 1.524 . S
C1506 C1507 1.415 . S
C1507 H1477 0.950 . S
C1507 C1502 1.363 . S
C1507 C1506 1.415 . S
H1508 C1505 0.999 . S
H1509 C1490 0.913 . S
H1510 C1528 0.951 . S
H1511 C1530 0.951 . S
H1512 C1532 0.950 . S
H1513 C1533 0.950 . S
H1514 C1535 0.950 . S
H1515 C1538 0.950 . S
H1516 C1539 0.950 . S
H1517 C1541 0.950 . S
H1518 C1542 0.950 . S
H1519 C1543 0.951 . S
H1520 C1545 0.951 . S
H1521 C1547 0.950 . S
H1522 C1548 0.950 . S
H1523 C1550 0.950 . S
H1524 C1553 0.950 . S
H1525 C1554 0.950 1_554 S
H1526 C1556 0.950 . S
H1527 C1557 0.950 . S
C1528 H1510 0.951 . S
C1528 C1529 1.366 . S
C1528 C1530 1.388 . S
C1529 C1528 1.366 . S
C1529 C1533 1.385 . S
C1530 H1511 0.951 . S
C1530 C1528 1.388 . S
C1530 C1531 1.366 . S
C1531 C1530 1.366 . S
C1531 C1532 1.414 . S
C1531 C1534 1.499 . S
C1532 H1512 0.950 . S
C1532 C1531 1.414 . S
C1532 C1533 1.374 . S
C1533 H1513 0.950 . S
C1533 C1529 1.385 . S
C1533 C1532 1.374 . S
C1534 C1531 1.499 . S
C1534 C1535 1.373 . S
C1534 C1536 1.389 . S
C1535 H1514 0.950 . S
C1535 C1534 1.373 . S
C1535 C1551 1.377 . S
C1536 C1534 1.389 . S
C1536 C1537 1.524 . S
C1536 C1550 1.377 . S
C1537 C1536 1.524 . S
C1537 C1538 1.397 . S
C1537 C1542 1.363 . S
C1538 H1515 0.950 . S
C1538 C1537 1.397 . S
C1538 C1539 1.334 . S
C1539 H1516 0.950 . S
C1539 C1538 1.334 . S
C1539 C1540 1.287 . S
C1540 C1539 1.287 . S
C1540 C1541 1.524 . S
C1540 H1559 0.913 . S
C1541 H1517 0.950 . S
C1541 C1540 1.524 . S
C1541 C1542 1.415 . S
C1542 H1518 0.950 . S
C1542 C1537 1.363 . S
C1542 C1541 1.415 . S
C1543 H1519 0.951 . S
C1543 C1544 1.366 . S
C1543 C1545 1.388 . S
C1544 C1543 1.366 . S
C1544 C1548 1.385 . S
C1545 H1520 0.951 . S
C1545 C1543 1.388 . S
C1545 C1546 1.366 1_554 S
C1546 C1545 1.366 1_556 S
C1546 C1547 1.414 1_556 S
C1546 C1549 1.498 . S
C1547 H1521 0.950 . S
C1547 C1546 1.414 1_554 S
C1547 C1548 1.374 . S
C1548 H1522 0.950 . S
C1548 C1544 1.385 . S
C1548 C1547 1.374 . S
C1549 C1546 1.498 . S
C1549 C1550 1.373 . S
C1549 C1551 1.389 . S
C1550 H1523 0.950 . S
C1550 C1536 1.377 . S
C1550 C1549 1.373 . S
C1551 C1535 1.377 . S
C1551 C1549 1.389 . S
C1551 C1552 1.524 . S
C1552 C1551 1.524 . S
C1552 C1553 1.397 . S
C1552 C1557 1.363 . S
C1553 H1524 0.950 . S
C1553 C1552 1.397 . S
C1553 C1554 1.334 . S
C1554 H1525 0.950 1_556 S
C1554 C1553 1.334 . S
C1554 C1555 1.287 . S
C1555 C1554 1.287 . S
C1555 C1556 1.524 . S
C1555 H1558 0.999 . S
C1556 H1526 0.950 . S
C1556 C1555 1.524 . S
C1556 C1557 1.415 . S
C1557 H1527 0.950 . S
C1557 C1552 1.363 . S
C1557 C1556 1.415 . S
H1558 C1555 0.999 . S
H1559 C1540 0.913 . S
H1560 C1578 0.951 . S
H1561 C1580 0.951 . S
H1562 C1582 0.950 . S
H1563 C1583 0.950 . S
H1564 C1585 0.950 . S
H1565 C1588 0.950 . S
H1566 C1589 0.950 . S
H1567 C1591 0.950 . S
H1568 C1592 0.950 . S
H1569 C1593 0.951 . S
H1570 C1595 0.951 . S
H1571 C1597 0.948 1_554 S
H1572 C1598 0.950 . S
H1573 C1600 0.950 . S
H1574 C1603 0.950 . S
H1575 C1604 0.950 1_556 S
H1576 C1606 0.950 . S
H1577 C1607 0.950 . S
C1578 H1560 0.951 . S
C1578 C1579 1.366 . S
C1578 C1580 1.388 . S
C1579 C1578 1.366 . S
C1579 C1583 1.385 . S
C1580 H1561 0.951 . S
C1580 C1578 1.388 . S
C1580 C1581 1.366 . S
C1581 C1580 1.366 . S
C1581 C1582 1.414 . S
C1581 C1584 1.499 . S
C1582 H1562 0.950 . S
C1582 C1581 1.414 . S
C1582 C1583 1.374 . S
C1583 H1563 0.950 . S
C1583 C1579 1.385 . S
C1583 C1582 1.374 . S
C1584 C1581 1.499 . S
C1584 C1585 1.373 . S
C1584 C1586 1.389 . S
C1585 H1564 0.950 . S
C1585 C1584 1.373 . S
C1585 C1601 1.377 . S
C1586 C1584 1.389 . S
C1586 C1587 1.524 . S
C1586 C1600 1.377 . S
C1587 C1586 1.524 . S
C1587 C1588 1.397 . S
C1587 C1592 1.363 . S
C1588 H1565 0.950 . S
C1588 C1587 1.397 . S
C1588 C1589 1.334 . S
C1589 H1566 0.950 . S
C1589 C1588 1.334 . S
C1589 C1590 1.287 . S
C1590 C1589 1.287 . S
C1590 C1591 1.524 . S
C1590 H1609 0.913 . S
C1591 H1567 0.950 . S
C1591 C1590 1.524 . S
C1591 C1592 1.415 . S
C1592 H1568 0.950 . S
C1592 C1587 1.363 . S
C1592 C1591 1.415 . S
C1593 H1569 0.951 . S
C1593 C1594 1.366 . S
C1593 C1595 1.388 . S
C1594 C1593 1.366 . S
C1594 C1598 1.385 . S
C1595 H1570 0.951 . S
C1595 C1593 1.388 . S
C1595 C1596 1.366 1_556 S
C1596 C1595 1.366 1_554 S
C1596 C1597 1.414 1_554 S
C1596 C1599 1.499 . S
C1597 H1571 0.948 1_556 S
C1597 C1596 1.414 1_556 S
C1597 C1598 1.374 . S
C1598 H1572 0.950 . S
C1598 C1594 1.385 . S
C1598 C1597 1.374 . S
C1599 C1596 1.499 . S
C1599 C1600 1.373 . S
C1599 C1601 1.389 . S
C1600 H1573 0.950 . S
C1600 C1586 1.377 . S
C1600 C1599 1.373 . S
C1601 C1585 1.377 . S
C1601 C1599 1.389 . S
C1601 C1602 1.524 . S
C1602 C1601 1.524 . S
C1602 C1603 1.397 . S
C1602 C1607 1.363 . S
C1603 H1574 0.950 . S
C1603 C1602 1.397 . S
C1603 C1604 1.334 . S
C1604 H1575 0.950 1_554 S
C1604 C1603 1.334 . S
C1604 C1605 1.287 . S
C1605 C1604 1.287 . S
C1605 C1606 1.524 . S
C1605 H1608 0.999 . S
C1606 H1576 0.950 . S
C1606 C1605 1.524 . S
C1606 C1607 1.415 . S
C1607 H1577 0.950 . S
C1607 C1602 1.363 . S
C1607 C1606 1.415 . S
H1608 C1605 0.999 . S
H1609 C1590 0.913 . S
H1610 C1628 0.951 . S
H1611 C1630 0.953 . S
H1612 C1632 0.950 . S
H1613 C1633 0.950 . S
H1614 C1635 0.950 . S
H1615 C1638 0.950 . S
H1616 C1639 0.950 1_556 S
H1617 C1641 0.950 . S
H1618 C1642 0.950 . S
H1619 C1643 0.951 . S
H1620 C1645 0.951 . S
H1621 C1647 0.950 . S
H1622 C1648 0.950 . S
H1623 C1650 0.950 . S
H1624 C1653 0.950 . S
H1625 C1654 0.950 . S
H1626 C1656 0.950 . S
H1627 C1657 0.950 . S
C1628 H1610 0.951 . S
C1628 C1629 1.366 . S
C1628 C1630 1.388 . S
C1629 C1628 1.366 . S
C1629 C1633 1.385 . S
C1630 H1611 0.953 . S
C1630 C1628 1.388 . S
C1630 C1631 1.366 1_556 S
C1631 C1630 1.366 1_554 S
C1631 C1632 1.414 1_554 S
C1631 C1634 1.499 . S
C1632 H1612 0.950 . S
C1632 C1631 1.414 1_556 S
C1632 C1633 1.374 . S
C1633 H1613 0.950 . S
C1633 C1629 1.385 . S
C1633 C1632 1.374 . S
C1634 C1631 1.499 . S
C1634 C1635 1.373 . S
C1634 C1636 1.389 . S
C1635 H1614 0.950 . S
C1635 C1634 1.373 . S
C1635 C1651 1.377 . S
C1636 C1634 1.389 . S
C1636 C1637 1.524 . S
C1636 C1650 1.377 . S
C1637 C1636 1.524 . S
C1637 C1638 1.397 . S
C1637 C1642 1.363 . S
C1638 H1615 0.950 . S
C1638 C1637 1.397 . S
C1638 C1639 1.334 . S
C1639 H1616 0.950 1_554 S
C1639 C1638 1.334 . S
C1639 C1640 1.287 . S
C1640 C1639 1.287 . S
C1640 C1641 1.524 . S
C1640 H1659 0.913 . S
C1641 H1617 0.950 . S
C1641 C1640 1.524 . S
C1641 C1642 1.415 . S
C1642 H1618 0.950 . S
C1642 C1637 1.363 . S
C1642 C1641 1.415 . S
C1643 H1619 0.951 . S
C1643 C1644 1.366 . S
C1643 C1645 1.388 . S
C1644 C1643 1.366 . S
C1644 C1648 1.385 . S
C1645 H1620 0.951 . S
C1645 C1643 1.388 . S
C1645 C1646 1.366 . S
C1646 C1645 1.366 . S
C1646 C1647 1.414 . S
C1646 C1649 1.499 . S
C1647 H1621 0.950 . S
C1647 C1646 1.414 . S
C1647 C1648 1.374 . S
C1648 H1622 0.950 . S
C1648 C1644 1.385 . S
C1648 C1647 1.374 . S
C1649 C1646 1.499 . S
C1649 C1650 1.373 . S
C1649 C1651 1.389 . S
C1650 H1623 0.950 . S
C1650 C1636 1.377 . S
C1650 C1649 1.373 . S
C1651 C1635 1.377 . S
C1651 C1649 1.389 . S
C1651 C1652 1.524 . S
C1652 C1651 1.524 . S
C1652 C1653 1.397 . S
C1652 C1657 1.363 . S
C1653 H1624 0.950 . S
C1653 C1652 1.397 . S
C1653 C1654 1.334 . S
C1654 H1625 0.950 . S
C1654 C1653 1.334 . S
C1654 C1655 1.287 . S
C1655 C1654 1.287 . S
C1655 C1656 1.524 . S
C1655 H1658 0.999 . S
C1656 H1626 0.950 . S
C1656 C1655 1.524 . S
C1656 C1657 1.415 . S
C1657 H1627 0.950 . S
C1657 C1652 1.363 . S
C1657 C1656 1.415 . S
H1658 C1655 0.999 . S
H1659 C1640 0.913 . S
H1660 C1678 0.951 . S
H1661 C1680 0.951 . S
H1662 C1682 0.950 . S
H1663 C1683 0.950 . S
H1664 C1685 0.950 . S
H1665 C1688 0.950 . S
H1666 C1689 0.950 . S
H1667 C1691 0.950 . S
H1668 C1692 0.950 . S
H1669 C1693 0.951 . S
H1670 C1695 0.947 1_554 S
H1671 C1697 0.950 . S
H1672 C1698 0.950 . S
H1673 C1700 0.950 . S
H1674 C1703 0.950 . S
H1675 C1704 0.954 . S
H1676 C1706 0.950 . S
H1677 C1707 0.950 . S
C1678 H1660 0.951 . S
C1678 C1679 1.366 . S
C1678 C1680 1.388 . S
C1679 C1678 1.366 . S
C1679 C1683 1.385 . S
C1680 H1661 0.951 . S
C1680 C1678 1.388 . S
C1680 C1681 1.366 . S
C1681 C1680 1.366 . S
C1681 C1682 1.414 . S
C1681 C1684 1.499 . S
C1682 H1662 0.950 . S
C1682 C1681 1.414 . S
C1682 C1683 1.374 . S
C1683 H1663 0.950 . S
C1683 C1679 1.385 . S
C1683 C1682 1.374 . S
C1684 C1681 1.499 . S
C1684 C1685 1.373 . S
C1684 C1686 1.389 . S
C1685 H1664 0.950 . S
C1685 C1684 1.373 . S
C1685 C1701 1.377 . S
C1686 C1684 1.389 . S
C1686 C1687 1.524 . S
C1686 C1700 1.377 . S
C1687 C1686 1.524 . S
C1687 C1688 1.397 . S
C1687 C1692 1.363 . S
C1688 H1665 0.950 . S
C1688 C1687 1.397 . S
C1688 C1689 1.334 . S
C1689 H1666 0.950 . S
C1689 C1688 1.334 . S
C1689 C1690 1.287 . S
C1690 C1689 1.287 . S
C1690 C1691 1.524 . S
C1690 H1709 0.913 . S
C1691 H1667 0.950 . S
C1691 C1690 1.524 . S
C1691 C1692 1.415 . S
C1692 H1668 0.950 . S
C1692 C1687 1.363 . S
C1692 C1691 1.415 . S
C1693 H1669 0.951 . S
C1693 C1694 1.366 . S
C1693 C1695 1.388 . S
C1694 C1693 1.366 . S
C1694 C1698 1.385 . S
C1695 H1670 0.947 1_556 S
C1695 C1693 1.388 . S
C1695 C1696 1.366 1_556 S
C1696 C1695 1.366 1_554 S
C1696 C1697 1.414 1_554 S
C1696 C1699 1.499 . S
C1697 H1671 0.950 . S
C1697 C1696 1.414 1_556 S
C1697 C1698 1.374 . S
C1698 H1672 0.950 . S
C1698 C1694 1.385 . S
C1698 C1697 1.374 . S
C1699 C1696 1.499 . S
C1699 C1700 1.373 . S
C1699 C1701 1.389 . S
C1700 H1673 0.950 . S
C1700 C1686 1.377 . S
C1700 C1699 1.373 . S
C1701 C1685 1.377 . S
C1701 C1699 1.389 . S
C1701 C1702 1.524 . S
C1702 C1701 1.524 . S
C1702 C1703 1.397 . S
C1702 C1707 1.363 . S
C1703 H1674 0.950 . S
C1703 C1702 1.397 . S
C1703 C1704 1.334 . S
C1704 H1675 0.954 . S
C1704 C1703 1.334 . S
C1704 C1705 1.287 . S
C1705 C1704 1.287 . S
C1705 C1706 1.524 . S
C1705 H1708 0.999 . S
C1706 H1676 0.950 . S
C1706 C1705 1.524 . S
C1706 C1707 1.415 . S
C1707 H1677 0.950 . S
C1707 C1702 1.363 . S
C1707 C1706 1.415 . S
H1708 C1705 0.999 . S
H1709 C1690 0.913 . S
C379 C10 1.918 . S
C394 C286 1.966 . S
C429 C50 1.917 . S
C444 C326 1.966 . S
C479 C90 1.918 . S
C494 C246 1.967 . S
C529 C170 1.917 . S
C544 C86 1.966 . S
C579 C210 1.918 . S
C594 C6 1.967 . S
C629 C46 1.966 . S
C644 C130 1.917 . S
C679 C290 1.917 . S
C694 C206 1.966 . S
C729 C330 1.918 . S
C744 C126 1.967 . S
C779 C166 1.966 . S
C794 C250 1.918 . S
C829 C99 1.765 . S
C844 C15 1.758 . S
C879 C55 1.757 . S
C894 C19 1.765 . S
C929 C59 1.764 . S
C944 C95 1.757 . S
C979 C135 1.758 . S
C994 C219 1.766 . S
C1029 C139 1.765 . S
C1044 C175 1.757 . S
C1079 C179 1.764 . S
C1094 C215 1.756 . S
C1129 C339 1.765 . S
C1144 C255 1.758 . S
C1179 C295 1.757 . S
C1194 C259 1.764 . S
C1229 C335 1.757 . S
C1244 C299 1.765 . S
C1279 C9 0.915 . S
C1294 C18 0.915 . S
C1329 C49 0.916 . S
C1344 C58 0.916 . S
C1379 C89 0.916 . S
C1394 C98 0.916 . S
C1429 C138 0.915 . S
C1444 C129 0.915 . S
C1479 C178 0.916 . S
C1494 C169 0.916 . S
C1529 C218 0.915 . S
C1544 C209 0.915 . S
C1579 C249 0.916 . S
C1594 C258 0.916 . S
C1629 C298 0.915 . S
C1644 C289 0.915 . S
C1679 C329 0.916 . S
C1694 C338 0.916 . S
