# Generated by pormake.
# Topology pcb, (4)-cn, num edge types: 1
# Building blocks:
#     Node 0, Type 0, BuildingBlock: QUQFOY_clean_sbu_3, # of connection points: 4
#     Node 1, Type 0, BuildingBlock: QUQFOY_clean_sbu_3, # of connection points: 4
#     Node 2, Type 0, BuildingBlock: QUQFOY_clean_sbu_3, # of connection points: 4
#     Node 3, Type 0, BuildingBlock: QUQFOY_clean_sbu_3, # of connection points: 4
#     Node 4, Type 0, BuildingBlock: QUQFOY_clean_sbu_3, # of connection points: 4
#     Node 5, Type 0, BuildingBlock: QUQFOY_clean_sbu_3, # of connection points: 4
#     Node 6, Type 0, BuildingBlock: QUQFOY_clean_sbu_3, # of connection points: 4
#     Node 7, Type 0, BuildingBlock: QUQFOY_clean_sbu_3, # of connection points: 4
#     Node 8, Type 0, BuildingBlock: QUQFOY_clean_sbu_3, # of connection points: 4
#     Node 9, Type 0, BuildingBlock: QUQFOY_clean_sbu_3, # of connection points: 4
#     Node 10, Type 0, BuildingBlock: QUQFOY_clean_sbu_3, # of connection points: 4
#     Node 11, Type 0, BuildingBlock: QUQFOY_clean_sbu_3, # of connection points: 4
#     Node 12, Type 0, BuildingBlock: QUQFOY_clean_sbu_3, # of connection points: 4
#     Node 13, Type 0, BuildingBlock: QUQFOY_clean_sbu_3, # of connection points: 4
#     Node 14, Type 0, BuildingBlock: QUQFOY_clean_sbu_3, # of connection points: 4
#     Node 15, Type 0, BuildingBlock: QUQFOY_clean_sbu_3, # of connection points: 4
#     Edge 16, Type (0, 0), BuildingBlock: EYOCIG_clean_linker_4, # of connection points: 2
#     Edge 17, Type (0, 0), BuildingBlock: EYOCIG_clean_linker_4, # of connection points: 2
#     Edge 18, Type (0, 0), BuildingBlock: EYOCIG_clean_linker_4, # of connection points: 2
#     Edge 19, Type (0, 0), BuildingBlock: EYOCIG_clean_linker_4, # of connection points: 2
#     Edge 20, Type (0, 0), BuildingBlock: EYOCIG_clean_linker_4, # of connection points: 2
#     Edge 21, Type (0, 0), BuildingBlock: EYOCIG_clean_linker_4, # of connection points: 2
#     Edge 22, Type (0, 0), BuildingBlock: EYOCIG_clean_linker_4, # of connection points: 2
#     Edge 23, Type (0, 0), BuildingBlock: EYOCIG_clean_linker_4, # of connection points: 2
#     Edge 24, Type (0, 0), BuildingBlock: EYOCIG_clean_linker_4, # of connection points: 2
#     Edge 25, Type (0, 0), BuildingBlock: EYOCIG_clean_linker_4, # of connection points: 2
#     Edge 26, Type (0, 0), BuildingBlock: EYOCIG_clean_linker_4, # of connection points: 2
#     Edge 27, Type (0, 0), BuildingBlock: EYOCIG_clean_linker_4, # of connection points: 2
#     Edge 28, Type (0, 0), BuildingBlock: EYOCIG_clean_linker_4, # of connection points: 2
#     Edge 29, Type (0, 0), BuildingBlock: EYOCIG_clean_linker_4, # of connection points: 2
#     Edge 30, Type (0, 0), BuildingBlock: EYOCIG_clean_linker_4, # of connection points: 2
#     Edge 31, Type (0, 0), BuildingBlock: EYOCIG_clean_linker_4, # of connection points: 2
#     Edge 32, Type (0, 0), BuildingBlock: EYOCIG_clean_linker_4, # of connection points: 2
#     Edge 33, Type (0, 0), BuildingBlock: EYOCIG_clean_linker_4, # of connection points: 2
#     Edge 34, Type (0, 0), BuildingBlock: EYOCIG_clean_linker_4, # of connection points: 2
#     Edge 35, Type (0, 0), BuildingBlock: EYOCIG_clean_linker_4, # of connection points: 2
#     Edge 36, Type (0, 0), BuildingBlock: EYOCIG_clean_linker_4, # of connection points: 2
#     Edge 37, Type (0, 0), BuildingBlock: EYOCIG_clean_linker_4, # of connection points: 2
#     Edge 38, Type (0, 0), BuildingBlock: EYOCIG_clean_linker_4, # of connection points: 2
#     Edge 39, Type (0, 0), BuildingBlock: EYOCIG_clean_linker_4, # of connection points: 2
#     Edge 40, Type (0, 0), BuildingBlock: EYOCIG_clean_linker_4, # of connection points: 2
#     Edge 41, Type (0, 0), BuildingBlock: EYOCIG_clean_linker_4, # of connection points: 2
#     Edge 42, Type (0, 0), BuildingBlock: EYOCIG_clean_linker_4, # of connection points: 2
#     Edge 43, Type (0, 0), BuildingBlock: EYOCIG_clean_linker_4, # of connection points: 2
#     Edge 44, Type (0, 0), BuildingBlock: EYOCIG_clean_linker_4, # of connection points: 2
#     Edge 45, Type (0, 0), BuildingBlock: EYOCIG_clean_linker_4, # of connection points: 2
#     Edge 46, Type (0, 0), BuildingBlock: EYOCIG_clean_linker_4, # of connection points: 2
#     Edge 47, Type (0, 0), BuildingBlock: EYOCIG_clean_linker_4, # of connection points: 2
# Relax obj value: 0.312
# Max RMSD: 0.172
# Mean RMSD: 0.172
data_MOF--net-pcb--node1-QUQFOY_clean_sbu_3--edge1-EYOCIG_clean_linker_4
_symmetry_space_group_name_H-M    P1
_symmetry_Int_Tables_number       1
_symmetry_cell_setting            triclinic
loop_
_symmetry_equiv_pos_as_xyz
'x, y, z'
_cell_length_a     34.77195
_cell_length_b     41.591169
_cell_length_c     41.618205
_cell_angle_alpha  90.003433
_cell_angle_beta   90.006369
_cell_angle_gamma 89.979791
loop_
_atom_site_label
_atom_site_type_symbol
_atom_site_fract_x
_atom_site_fract_y
_atom_site_fract_z
_atom_type_partial_charge
C0 C 0.05386 0.11173 0.12243 0.0
O1 O 0.05319 0.08622 0.10573 0.0
Cd2 Cd 0.10731 0.05455 0.09035 0.0
O3 O 0.08532 0.12368 0.13266 0.0
Cd4 Cd 0.15539 0.10979 0.13023 0.0
C5 C 0.15969 0.11064 0.04814 0.0
O6 O 0.14311 0.05362 0.13893 0.0
O7 O 0.20299 0.06458 0.13223 0.0
O8 O 0.15788 0.13298 0.18395 0.0
C9 C 0.17729 0.04365 0.13747 0.0
O10 O 0.14038 0.08468 0.0483 0.0
C11 C 0.18563 0.15177 0.1779 0.0
O12 O 0.16744 0.12567 0.07399 0.0
O13 O 0.20012 0.15078 0.14994 0.0
C14 C 0.87425 0.12285 0.11095 0.0
O15 O 0.87489 0.106 0.08555 0.0
Cd16 Cd 0.8206 0.09055 0.05412 0.0
O17 O 0.84281 0.13315 0.12286 0.0
Cd18 Cd 0.77274 0.1307 0.10909 0.0
C19 C 0.76827 0.04862 0.11042 0.0
O20 O 0.78485 0.13921 0.05289 0.0
O21 O 0.72499 0.13258 0.06403 0.0
O22 O 0.77055 0.18456 0.13202 0.0
C23 C 0.75062 0.13777 0.04303 0.0
O24 O 0.78754 0.04863 0.08445 0.0
C25 C 0.74288 0.17866 0.15092 0.0
O26 O 0.76058 0.07456 0.12533 0.0
O27 O 0.72827 0.15072 0.15009 0.0
C28 C 0.87464 0.82697 0.12252 0.0
O29 O 0.87521 0.85252 0.10588 0.0
Cd30 Cd 0.82086 0.88402 0.09068 0.0
O31 O 0.84324 0.81495 0.13277 0.0
Cd32 Cd 0.77317 0.82877 0.13052 0.0
C33 C 0.76874 0.82776 0.0485 0.0
O34 O 0.78516 0.88498 0.13933 0.0
O35 O 0.72535 0.87379 0.13251 0.0
O36 O 0.77102 0.80561 0.18423 0.0
C37 C 0.75092 0.8948 0.13788 0.0
O38 O 0.78791 0.85379 0.04863 0.0
C39 C 0.74329 0.78678 0.17827 0.0
O40 O 0.76108 0.81273 0.07436 0.0
O41 O 0.72865 0.78773 0.15036 0.0
C42 C 0.05428 0.8152 0.11059 0.0
O43 O 0.05369 0.83174 0.08499 0.0
Cd44 Cd 0.10805 0.84698 0.05356 0.0
O45 O 0.0857 0.80511 0.12272 0.0
Cd46 Cd 0.1558 0.80755 0.1091 0.0
C47 C 0.15984 0.88967 0.10965 0.0
O48 O 0.14399 0.7984 0.05297 0.0
O49 O 0.20376 0.80538 0.06424 0.0
O50 O 0.15813 0.75394 0.13254 0.0
C51 C 0.17825 0.79985 0.04322 0.0
O52 O 0.14073 0.88934 0.0836 0.0
C53 C 0.18579 0.76008 0.1514 0.0
O54 O 0.16757 0.86388 0.12482 0.0
O55 O 0.2003 0.78805 0.15034 0.0
C56 C 0.05421 0.82688 0.81576 0.0
O57 O 0.05375 0.85227 0.83263 0.0
Cd58 Cd 0.10825 0.88351 0.84798 0.0
O59 O 0.08555 0.81485 0.80537 0.0
Cd60 Cd 0.15566 0.82831 0.80758 0.0
C61 C 0.16063 0.82691 0.88958 0.0
O62 O 0.14375 0.88457 0.79925 0.0
O63 O 0.20362 0.87321 0.8055 0.0
O64 O 0.15722 0.80548 0.75371 0.0
C65 C 0.17803 0.89432 0.80055 0.0
O66 O 0.14145 0.85295 0.88965 0.0
C67 C 0.18482 0.78641 0.75942 0.0
O68 O 0.16811 0.81198 0.86361 0.0
O69 O 0.19969 0.78712 0.78726 0.0
C70 C 0.05431 0.12203 0.82677 0.0
O71 O 0.05383 0.10553 0.8524 0.0
Cd72 Cd 0.1081 0.09061 0.88408 0.0
O73 O 0.08566 0.1323 0.81466 0.0
Cd74 Cd 0.1558 0.13032 0.82835 0.0
C75 C 0.1605 0.04819 0.82812 0.0
O76 O 0.14358 0.13936 0.88441 0.0
O77 O 0.2035 0.13291 0.87345 0.0
O78 O 0.15791 0.18387 0.80467 0.0
C79 C 0.17777 0.13814 0.89436 0.0
O80 O 0.14128 0.04846 0.85412 0.0
C81 C 0.18566 0.17774 0.78591 0.0
O82 O 0.16808 0.07398 0.81291 0.0
O83 O 0.20032 0.14983 0.78713 0.0
C84 C 0.87444 0.11015 0.81542 0.0
O85 O 0.87479 0.08464 0.83213 0.0
Cd86 Cd 0.82016 0.05348 0.84732 0.0
O87 O 0.84314 0.12234 0.80513 0.0
Cd88 Cd 0.77291 0.10917 0.80722 0.0
C89 C 0.76815 0.11008 0.88929 0.0
O90 O 0.78457 0.05294 0.79863 0.0
O91 O 0.72474 0.06441 0.80488 0.0
O92 O 0.7714 0.13235 0.75347 0.0
C93 C 0.75027 0.04326 0.79987 0.0
O94 O 0.78721 0.08398 0.8892 0.0
C95 C 0.74392 0.15149 0.75931 0.0
O96 O 0.76067 0.12516 0.86341 0.0
O97 O 0.72909 0.15068 0.78716 0.0
C98 C 0.87447 0.81572 0.82677 0.0
O99 O 0.87504 0.8325 0.85222 0.0
Cd100 Cd 0.82076 0.84767 0.88379 0.0
O101 O 0.84308 0.80533 0.81485 0.0
Cd102 Cd 0.77304 0.80747 0.82869 0.0
C103 C 0.76805 0.88957 0.82768 0.0
O104 O 0.78538 0.79885 0.88482 0.0
O105 O 0.72543 0.80517 0.8738 0.0
O106 O 0.77118 0.7537 0.80557 0.0
C107 C 0.75117 0.80008 0.89474 0.0
O108 O 0.78738 0.88955 0.85362 0.0
C109 C 0.74338 0.75955 0.78676 0.0
O110 O 0.7605 0.86364 0.8127 0.0
O111 O 0.72857 0.78741 0.78772 0.0
C112 C 0.55427 0.61138 0.62203 0.0
O113 O 0.55375 0.58597 0.60517 0.0
Cd114 Cd 0.60815 0.55454 0.58994 0.0
O115 O 0.58563 0.62331 0.63245 0.0
Cd116 Cd 0.65571 0.60961 0.63035 0.0
C117 C 0.66078 0.61091 0.54832 0.0
O118 O 0.64353 0.5534 0.63874 0.0
O119 O 0.70346 0.56454 0.63259 0.0
O120 O 0.65727 0.63255 0.68418 0.0
C121 C 0.67777 0.54353 0.63754 0.0
O122 O 0.6415 0.58494 0.54825 0.0
C123 C 0.685 0.65147 0.67849 0.0
O124 O 0.66829 0.62583 0.57428 0.0
O125 O 0.69992 0.65065 0.65068 0.0
C126 C 0.37455 0.62255 0.61104 0.0
O127 O 0.37511 0.60571 0.58562 0.0
Cd128 Cd 0.32075 0.59037 0.55426 0.0
O129 O 0.34315 0.63288 0.623 0.0
Cd130 Cd 0.27308 0.63047 0.60927 0.0
C131 C 0.26856 0.54837 0.61057 0.0
O132 O 0.28522 0.63916 0.55309 0.0
O133 O 0.22535 0.6326 0.56423 0.0
O134 O 0.27105 0.68422 0.63242 0.0
C135 C 0.25098 0.63786 0.54325 0.0
O136 O 0.28775 0.54839 0.58457 0.0
C137 C 0.24323 0.67833 0.65118 0.0
O138 O 0.26092 0.57432 0.62549 0.0
O139 O 0.22849 0.65045 0.65018 0.0
C140 C 0.37498 0.32734 0.62162 0.0
O141 O 0.37532 0.353 0.60515 0.0
Cd142 Cd 0.32076 0.38452 0.59044 0.0
O143 O 0.34371 0.31516 0.63197 0.0
Cd144 Cd 0.27352 0.32863 0.6303 0.0
C145 C 0.26838 0.3284 0.54821 0.0
O146 O 0.2855 0.38476 0.63929 0.0
O147 O 0.22558 0.37356 0.63323 0.0
O148 O 0.2721 0.30488 0.68381 0.0
C149 C 0.25123 0.39458 0.63828 0.0
O150 O 0.28751 0.35445 0.54841 0.0
C151 C 0.24441 0.28599 0.67787 0.0
O152 O 0.26097 0.31317 0.57401 0.0
O153 O 0.22946 0.28719 0.65008 0.0
C154 C 0.55492 0.31545 0.60975 0.0
O155 O 0.55455 0.33209 0.58421 0.0
Cd156 Cd 0.60911 0.34737 0.55306 0.0
O157 O 0.58623 0.30524 0.622 0.0
Cd158 Cd 0.65647 0.30753 0.60876 0.0
C159 C 0.66069 0.38964 0.60963 0.0
O160 O 0.64496 0.29876 0.55255 0.0
O161 O 0.70469 0.30552 0.56405 0.0
O162 O 0.65855 0.25378 0.63196 0.0
C163 C 0.67927 0.30023 0.54291 0.0
O164 O 0.64173 0.38946 0.5835 0.0
C165 C 0.68603 0.25982 0.65103 0.0
O166 O 0.66828 0.36379 0.62474 0.0
O167 O 0.70057 0.28778 0.65019 0.0
C168 C 0.55447 0.32729 0.31626 0.0
O169 O 0.55408 0.3528 0.33297 0.0
Cd170 Cd 0.60857 0.38429 0.3478 0.0
O171 O 0.58574 0.31529 0.30572 0.0
Cd172 Cd 0.65585 0.32894 0.30734 0.0
C173 C 0.66144 0.32798 0.38936 0.0
O174 O 0.64359 0.38512 0.29883 0.0
O175 O 0.70357 0.37399 0.30467 0.0
O176 O 0.65697 0.30578 0.25358 0.0
C177 C 0.67783 0.39499 0.29982 0.0
O178 O 0.64217 0.35396 0.38943 0.0
C179 C 0.68476 0.28688 0.25919 0.0
O180 O 0.66879 0.31296 0.36342 0.0
O181 O 0.69992 0.28781 0.28691 0.0
C182 C 0.55435 0.62259 0.32754 0.0
O183 O 0.55396 0.60595 0.35308 0.0
Cd184 Cd 0.60854 0.59085 0.38433 0.0
O185 O 0.58565 0.6329 0.3154 0.0
Cd186 Cd 0.65579 0.63089 0.32882 0.0
C187 C 0.66047 0.5488 0.3278 0.0
O188 O 0.64404 0.63962 0.38501 0.0
O189 O 0.70387 0.6332 0.37362 0.0
O190 O 0.65724 0.68462 0.30559 0.0
C191 C 0.67834 0.63837 0.39471 0.0
O192 O 0.64143 0.54888 0.35388 0.0
C193 C 0.68486 0.67879 0.2866 0.0
O194 O 0.66799 0.5747 0.31277 0.0
O195 O 0.69978 0.65096 0.28752 0.0
C196 C 0.37454 0.61082 0.31583 0.0
O197 O 0.37494 0.5853 0.33251 0.0
Cd198 Cd 0.32034 0.55407 0.3476 0.0
O199 O 0.34324 0.62296 0.30549 0.0
Cd200 Cd 0.2731 0.60959 0.30747 0.0
C201 C 0.26831 0.61068 0.38949 0.0
O202 O 0.2849 0.55335 0.29882 0.0
O203 O 0.22504 0.56475 0.3051 0.0
O204 O 0.27173 0.63284 0.25378 0.0
C205 C 0.2506 0.54364 0.30002 0.0
O206 O 0.28737 0.58459 0.38944 0.0
C207 C 0.24411 0.65186 0.25957 0.0
O208 O 0.26081 0.62571 0.36359 0.0
O209 O 0.22914 0.65093 0.28735 0.0
C210 C 0.37453 0.31607 0.32763 0.0
O211 O 0.37483 0.33288 0.35306 0.0
Cd212 Cd 0.32022 0.34812 0.38421 0.0
O213 O 0.34326 0.30568 0.31547 0.0
Cd214 Cd 0.27303 0.30774 0.32858 0.0
C215 C 0.26806 0.38987 0.32755 0.0
O216 O 0.28482 0.29933 0.38478 0.0
O217 O 0.22493 0.30528 0.3734 0.0
O218 O 0.2717 0.25394 0.30539 0.0
C219 C 0.25054 0.30047 0.39451 0.0
O220 O 0.28714 0.38987 0.35361 0.0
C221 C 0.24418 0.25974 0.28628 0.0
O222 O 0.26063 0.36393 0.31254 0.0
O223 O 0.22924 0.28757 0.28714 0.0
C224 C 0.22126 0.21599 0.2446 0.0
C225 C 0.2316 0.23606 0.26358 0.0
C226 C 0.2096 0.19312 0.22157 0.0
C227 C 0.19887 0.17434 0.20145 0.0
C228 C 0.70775 0.24543 0.21525 0.0
C229 C 0.69739 0.2643 0.23542 0.0
C230 C 0.71932 0.22246 0.19229 0.0
C231 C 0.7299 0.20232 0.17348 0.0
C232 C 0.71958 0.74541 0.222 0.0
C233 C 0.73021 0.76422 0.20187 0.0
C234 C 0.70796 0.72252 0.245 0.0
C235 C 0.69755 0.70244 0.26393 0.0
C236 C 0.22114 0.69353 0.21585 0.0
C237 C 0.23148 0.67457 0.23593 0.0
C238 C 0.20956 0.71653 0.19293 0.0
C239 C 0.19893 0.7366 0.17406 0.0
C240 C 0.21956 0.72208 0.69254 0.0
C241 C 0.23019 0.70196 0.67373 0.0
C242 C 0.20793 0.74503 0.71549 0.0
C243 C 0.19751 0.76387 0.73565 0.0
C244 C 0.20946 0.22121 0.74427 0.0
C245 C 0.19882 0.20119 0.76319 0.0
C246 C 0.22116 0.24419 0.72137 0.0
C247 C 0.2316 0.26321 0.70137 0.0
C248 C 0.72096 0.19314 0.71555 0.0
C249 C 0.73128 0.17419 0.73566 0.0
C250 C 0.70945 0.21613 0.69259 0.0
C251 C 0.69895 0.23624 0.6737 0.0
C252 C 0.71985 0.71575 0.74538 0.0
C253 C 0.73042 0.73589 0.7642 0.0
C254 C 0.70822 0.69282 0.72242 0.0
C255 C 0.69776 0.674 0.70225 0.0
C256 C 0.18598 0.13474 0.95714 0.0
C257 C 0.18535 0.1361 0.9282 0.0
C258 C 0.18084 0.12998 -0.00952 0.0
C259 C 0.17248 0.12302 0.01774 0.0
C260 C 0.7471 0.12955 0.94693 0.0
C261 C 0.7554 0.12257 0.91966 0.0
C262 C 0.7421 0.13431 -0.01972 0.0
C263 C 0.7429 0.13568 0.00922 0.0
C264 C 0.7428 0.80347 0.9575 0.0
C265 C 0.74354 0.80211 0.92857 0.0
C266 C 0.7478 0.80826 -0.00916 0.0
C267 C 0.75606 0.81528 0.01811 0.0
C268 C 0.18696 0.8028 -0.01952 0.0
C269 C 0.1861 0.80167 0.00942 0.0
C270 C 0.18194 0.80739 0.94711 0.0
C271 C 0.17356 0.81435 0.91986 0.0
C272 C -0.01573 0.13296 0.13377 0.0
C273 C 0.01774 0.12621 0.13061 0.0
C274 C 0.94381 0.13444 0.13215 0.0
C275 C 0.91038 0.13114 0.12534 0.0
C276 C 0.74227 0.95759 0.13463 0.0
C277 C 0.74313 0.92864 0.13591 0.0
C278 C 0.74722 -0.00902 0.12993 0.0
C279 C 0.75549 0.01826 0.12294 0.0
C280 C 0.94425 0.80561 0.13361 0.0
C281 C 0.91079 0.81246 0.13054 0.0
C282 C -0.01531 0.80397 0.1319 0.0
C283 C 0.01813 0.80714 0.12506 0.0
C284 C 0.18556 -0.01916 0.13381 0.0
C285 C 0.18484 0.00979 0.13527 0.0
C286 C 0.18057 0.94748 0.12897 0.0
C287 C 0.17238 0.92017 0.122 0.0
C288 C 0.94409 0.80437 0.80564 0.0
C289 C 0.91063 0.80755 0.81238 0.0
C290 C -0.01545 0.80591 0.80419 0.0
C291 C 0.018 0.81263 0.80749 0.0
C292 C 0.1867 0.95707 0.80418 0.0
C293 C 0.18588 0.92812 0.80271 0.0
C294 C 0.18165 -0.00957 0.80897 0.0
C295 C 0.17328 0.01772 0.81585 0.0
C296 C -0.0154 0.13289 0.80556 0.0
C297 C 0.0181 0.12991 0.81231 0.0
C298 C 0.94415 0.13116 0.80408 0.0
C299 C 0.9107 0.12439 0.80732 0.0
C300 C 0.74661 0.94716 0.80826 0.0
C301 C 0.75508 0.91991 0.81524 0.0
C302 C 0.7415 -0.01949 0.80344 0.0
C303 C 0.74232 0.00947 0.802 0.0
C304 C 0.68716 0.63513 0.45744 0.0
C305 C 0.68628 0.63642 0.4285 0.0
C306 C 0.68214 0.63043 0.49079 0.0
C307 C 0.67373 0.62346 0.51803 0.0
C308 C 0.24239 0.63484 0.48049 0.0
C309 C 0.24323 0.63602 0.50943 0.0
C310 C 0.24733 0.6302 0.44712 0.0
C311 C 0.25558 0.62323 0.41984 0.0
C312 C 0.24192 0.30426 0.45723 0.0
C313 C 0.24267 0.3027 0.4283 0.0
C314 C 0.24706 0.30913 0.49055 0.0
C315 C 0.25552 0.31607 0.5178 0.0
C316 C 0.68303 0.30853 0.44686 0.0
C317 C 0.67451 0.31548 0.41964 0.0
C318 C 0.68812 0.30376 0.4802 0.0
C319 C 0.68725 0.30236 0.50914 0.0
C320 C 0.48464 0.6325 0.63351 0.0
C321 C 0.51809 0.62572 0.63025 0.0
C322 C 0.44419 0.63404 0.63206 0.0
C323 C 0.41071 0.63081 0.62536 0.0
C324 C 0.24757 0.49075 0.6302 0.0
C325 C 0.25583 0.51802 0.62314 0.0
C326 C 0.24261 0.45738 0.63501 0.0
C327 C 0.24343 0.42842 0.63633 0.0
C328 C 0.48516 0.30434 0.63075 0.0
C329 C 0.51865 0.30745 0.62404 0.0
C330 C 0.44472 0.30605 0.63239 0.0
C331 C 0.41125 0.31291 0.62941 0.0
C332 C 0.68631 0.48074 0.63402 0.0
C333 C 0.6855 0.50969 0.63544 0.0
C334 C 0.68139 0.44738 0.62918 0.0
C335 C 0.67322 0.42008 0.62214 0.0
C336 C 0.4443 0.30467 0.30682 0.0
C337 C 0.41082 0.30791 0.31348 0.0
C338 C 0.48475 0.30618 0.30525 0.0
C339 C 0.51822 0.31294 0.3083 0.0
C340 C 0.68632 0.45778 0.30328 0.0
C341 C 0.68554 0.42883 0.30186 0.0
C342 C 0.68135 0.49114 0.30815 0.0
C343 C 0.67311 0.51841 0.31523 0.0
C344 C 0.48466 0.63363 0.30637 0.0
C345 C 0.51812 0.63055 0.31317 0.0
C346 C 0.44423 0.63196 0.30472 0.0
C347 C 0.41077 0.62516 0.30783 0.0
C348 C 0.24685 0.44749 0.30802 0.0
C349 C 0.25521 0.42022 0.31501 0.0
C350 C 0.24184 0.48087 0.3033 0.0
C351 C 0.24269 0.50983 0.30199 0.0
loop_
_geom_bond_atom_site_label_1
_geom_bond_atom_site_label_2
_geom_bond_distance
_geom_bond_site_symmetry_2
_ccdc_geom_bond_type
C0 O1 1.306 . S
C0 O3 1.160 . S
O1 C0 1.306 . S
O1 Cd2 2.228 . S
Cd2 O1 2.228 . S
Cd2 O6 2.273 . S
Cd2 O10 2.277 . S
O3 C0 1.160 . S
O3 Cd4 2.203 . S
Cd4 O3 2.203 . S
Cd4 O6 2.411 . S
Cd4 O7 2.333 . S
Cd4 O8 2.352 . S
Cd4 O12 2.277 . S
Cd4 O13 2.356 . S
C5 O10 1.209 . S
C5 O12 1.226 . S
O6 Cd2 2.273 . S
O6 Cd4 2.411 . S
O6 C9 1.320 . S
O7 Cd4 2.333 . S
O7 C9 1.214 . S
O8 Cd4 2.352 . S
O8 C11 1.258 . S
C9 O6 1.320 . S
C9 O7 1.214 . S
O10 Cd2 2.277 . S
O10 C5 1.209 . S
C11 O8 1.258 . S
C11 O13 1.282 . S
O12 Cd4 2.277 . S
O12 C5 1.226 . S
O13 Cd4 2.356 . S
O13 C11 1.282 . S
C14 O15 1.306 . S
C14 O17 1.160 . S
O15 C14 1.306 . S
O15 Cd16 2.228 . S
Cd16 O15 2.228 . S
Cd16 O20 2.273 . S
Cd16 O24 2.277 . S
O17 C14 1.160 . S
O17 Cd18 2.203 . S
Cd18 O17 2.203 . S
Cd18 O20 2.411 . S
Cd18 O21 2.333 . S
Cd18 O22 2.352 . S
Cd18 O26 2.277 . S
Cd18 O27 2.356 . S
C19 O24 1.209 . S
C19 O26 1.226 . S
O20 Cd16 2.273 . S
O20 Cd18 2.411 . S
O20 C23 1.320 . S
O21 Cd18 2.333 . S
O21 C23 1.214 . S
O22 Cd18 2.352 . S
O22 C25 1.258 . S
C23 O20 1.320 . S
C23 O21 1.214 . S
O24 Cd16 2.277 . S
O24 C19 1.209 . S
C25 O22 1.258 . S
C25 O27 1.282 . S
O26 Cd18 2.277 . S
O26 C19 1.226 . S
O27 Cd18 2.356 . S
O27 C25 1.282 . S
C28 O29 1.306 . S
C28 O31 1.160 . S
O29 C28 1.306 . S
O29 Cd30 2.228 . S
Cd30 O29 2.228 . S
Cd30 O34 2.273 . S
Cd30 O38 2.277 . S
O31 C28 1.160 . S
O31 Cd32 2.203 . S
Cd32 O31 2.203 . S
Cd32 O34 2.411 . S
Cd32 O35 2.333 . S
Cd32 O36 2.352 . S
Cd32 O40 2.277 . S
Cd32 O41 2.356 . S
C33 O38 1.209 . S
C33 O40 1.226 . S
O34 Cd30 2.273 . S
O34 Cd32 2.411 . S
O34 C37 1.320 . S
O35 Cd32 2.333 . S
O35 C37 1.214 . S
O36 Cd32 2.352 . S
O36 C39 1.258 . S
C37 O34 1.320 . S
C37 O35 1.214 . S
O38 Cd30 2.277 . S
O38 C33 1.209 . S
C39 O36 1.258 . S
C39 O41 1.282 . S
O40 Cd32 2.277 . S
O40 C33 1.226 . S
O41 Cd32 2.356 . S
O41 C39 1.282 . S
C42 O43 1.306 . S
C42 O45 1.160 . S
O43 C42 1.306 . S
O43 Cd44 2.228 . S
Cd44 O43 2.228 . S
Cd44 O48 2.273 . S
Cd44 O52 2.277 . S
O45 C42 1.160 . S
O45 Cd46 2.203 . S
Cd46 O45 2.203 . S
Cd46 O48 2.411 . S
Cd46 O49 2.333 . S
Cd46 O50 2.352 . S
Cd46 O54 2.277 . S
Cd46 O55 2.356 . S
C47 O52 1.209 . S
C47 O54 1.226 . S
O48 Cd44 2.273 . S
O48 Cd46 2.411 . S
O48 C51 1.320 . S
O49 Cd46 2.333 . S
O49 C51 1.214 . S
O50 Cd46 2.352 . S
O50 C53 1.258 . S
C51 O48 1.320 . S
C51 O49 1.214 . S
O52 Cd44 2.277 . S
O52 C47 1.209 . S
C53 O50 1.258 . S
C53 O55 1.282 . S
O54 Cd46 2.277 . S
O54 C47 1.226 . S
O55 Cd46 2.356 . S
O55 C53 1.282 . S
C56 O57 1.306 . S
C56 O59 1.160 . S
O57 C56 1.306 . S
O57 Cd58 2.228 . S
Cd58 O57 2.228 . S
Cd58 O62 2.273 . S
Cd58 O66 2.277 . S
O59 C56 1.160 . S
O59 Cd60 2.203 . S
Cd60 O59 2.203 . S
Cd60 O62 2.411 . S
Cd60 O63 2.333 . S
Cd60 O64 2.352 . S
Cd60 O68 2.277 . S
Cd60 O69 2.356 . S
C61 O66 1.209 . S
C61 O68 1.226 . S
O62 Cd58 2.273 . S
O62 Cd60 2.411 . S
O62 C65 1.320 . S
O63 Cd60 2.333 . S
O63 C65 1.214 . S
O64 Cd60 2.352 . S
O64 C67 1.258 . S
C65 O62 1.320 . S
C65 O63 1.214 . S
O66 Cd58 2.277 . S
O66 C61 1.209 . S
C67 O64 1.258 . S
C67 O69 1.282 . S
O68 Cd60 2.277 . S
O68 C61 1.226 . S
O69 Cd60 2.356 . S
O69 C67 1.282 . S
C70 O71 1.306 . S
C70 O73 1.160 . S
O71 C70 1.306 . S
O71 Cd72 2.228 . S
Cd72 O71 2.228 . S
Cd72 O76 2.273 . S
Cd72 O80 2.277 . S
O73 C70 1.160 . S
O73 Cd74 2.203 . S
Cd74 O73 2.203 . S
Cd74 O76 2.411 . S
Cd74 O77 2.333 . S
Cd74 O78 2.352 . S
Cd74 O82 2.277 . S
Cd74 O83 2.356 . S
C75 O80 1.209 . S
C75 O82 1.226 . S
O76 Cd72 2.273 . S
O76 Cd74 2.411 . S
O76 C79 1.320 . S
O77 Cd74 2.333 . S
O77 C79 1.214 . S
O78 Cd74 2.352 . S
O78 C81 1.258 . S
C79 O76 1.320 . S
C79 O77 1.214 . S
O80 Cd72 2.277 . S
O80 C75 1.209 . S
C81 O78 1.258 . S
C81 O83 1.282 . S
O82 Cd74 2.277 . S
O82 C75 1.226 . S
O83 Cd74 2.356 . S
O83 C81 1.282 . S
C84 O85 1.306 . S
C84 O87 1.160 . S
O85 C84 1.306 . S
O85 Cd86 2.228 . S
Cd86 O85 2.228 . S
Cd86 O90 2.273 . S
Cd86 O94 2.277 . S
O87 C84 1.160 . S
O87 Cd88 2.203 . S
Cd88 O87 2.203 . S
Cd88 O90 2.411 . S
Cd88 O91 2.333 . S
Cd88 O92 2.352 . S
Cd88 O96 2.277 . S
Cd88 O97 2.356 . S
C89 O94 1.209 . S
C89 O96 1.226 . S
O90 Cd86 2.273 . S
O90 Cd88 2.411 . S
O90 C93 1.320 . S
O91 Cd88 2.333 . S
O91 C93 1.214 . S
O92 Cd88 2.352 . S
O92 C95 1.258 . S
C93 O90 1.320 . S
C93 O91 1.214 . S
O94 Cd86 2.277 . S
O94 C89 1.209 . S
C95 O92 1.258 . S
C95 O97 1.282 . S
O96 Cd88 2.277 . S
O96 C89 1.226 . S
O97 Cd88 2.356 . S
O97 C95 1.282 . S
C98 O99 1.306 . S
C98 O101 1.160 . S
O99 C98 1.306 . S
O99 Cd100 2.228 . S
Cd100 O99 2.228 . S
Cd100 O104 2.273 . S
Cd100 O108 2.277 . S
O101 C98 1.160 . S
O101 Cd102 2.203 . S
Cd102 O101 2.203 . S
Cd102 O104 2.411 . S
Cd102 O105 2.333 . S
Cd102 O106 2.352 . S
Cd102 O110 2.277 . S
Cd102 O111 2.356 . S
C103 O108 1.209 . S
C103 O110 1.226 . S
O104 Cd100 2.273 . S
O104 Cd102 2.411 . S
O104 C107 1.320 . S
O105 Cd102 2.333 . S
O105 C107 1.214 . S
O106 Cd102 2.352 . S
O106 C109 1.258 . S
C107 O104 1.320 . S
C107 O105 1.214 . S
O108 Cd100 2.277 . S
O108 C103 1.209 . S
C109 O106 1.258 . S
C109 O111 1.282 . S
O110 Cd102 2.277 . S
O110 C103 1.226 . S
O111 Cd102 2.356 . S
O111 C109 1.282 . S
C112 O113 1.306 . S
C112 O115 1.160 . S
O113 C112 1.306 . S
O113 Cd114 2.228 . S
Cd114 O113 2.228 . S
Cd114 O118 2.273 . S
Cd114 O122 2.277 . S
O115 C112 1.160 . S
O115 Cd116 2.203 . S
Cd116 O115 2.203 . S
Cd116 O118 2.411 . S
Cd116 O119 2.333 . S
Cd116 O120 2.352 . S
Cd116 O124 2.277 . S
Cd116 O125 2.356 . S
C117 O122 1.209 . S
C117 O124 1.226 . S
O118 Cd114 2.273 . S
O118 Cd116 2.411 . S
O118 C121 1.320 . S
O119 Cd116 2.333 . S
O119 C121 1.214 . S
O120 Cd116 2.352 . S
O120 C123 1.258 . S
C121 O118 1.320 . S
C121 O119 1.214 . S
O122 Cd114 2.277 . S
O122 C117 1.209 . S
C123 O120 1.258 . S
C123 O125 1.282 . S
O124 Cd116 2.277 . S
O124 C117 1.226 . S
O125 Cd116 2.356 . S
O125 C123 1.282 . S
C126 O127 1.306 . S
C126 O129 1.160 . S
O127 C126 1.306 . S
O127 Cd128 2.228 . S
Cd128 O127 2.228 . S
Cd128 O132 2.273 . S
Cd128 O136 2.277 . S
O129 C126 1.160 . S
O129 Cd130 2.203 . S
Cd130 O129 2.203 . S
Cd130 O132 2.411 . S
Cd130 O133 2.333 . S
Cd130 O134 2.352 . S
Cd130 O138 2.277 . S
Cd130 O139 2.356 . S
C131 O136 1.209 . S
C131 O138 1.226 . S
O132 Cd128 2.273 . S
O132 Cd130 2.411 . S
O132 C135 1.320 . S
O133 Cd130 2.333 . S
O133 C135 1.214 . S
O134 Cd130 2.352 . S
O134 C137 1.258 . S
C135 O132 1.320 . S
C135 O133 1.214 . S
O136 Cd128 2.277 . S
O136 C131 1.209 . S
C137 O134 1.258 . S
C137 O139 1.282 . S
O138 Cd130 2.277 . S
O138 C131 1.226 . S
O139 Cd130 2.356 . S
O139 C137 1.282 . S
C140 O141 1.306 . S
C140 O143 1.160 . S
O141 C140 1.306 . S
O141 Cd142 2.228 . S
Cd142 O141 2.228 . S
Cd142 O146 2.273 . S
Cd142 O150 2.277 . S
O143 C140 1.160 . S
O143 Cd144 2.203 . S
Cd144 O143 2.203 . S
Cd144 O146 2.411 . S
Cd144 O147 2.333 . S
Cd144 O148 2.352 . S
Cd144 O152 2.277 . S
Cd144 O153 2.356 . S
C145 O150 1.209 . S
C145 O152 1.226 . S
O146 Cd142 2.273 . S
O146 Cd144 2.411 . S
O146 C149 1.320 . S
O147 Cd144 2.333 . S
O147 C149 1.214 . S
O148 Cd144 2.352 . S
O148 C151 1.258 . S
C149 O146 1.320 . S
C149 O147 1.214 . S
O150 Cd142 2.277 . S
O150 C145 1.209 . S
C151 O148 1.258 . S
C151 O153 1.282 . S
O152 Cd144 2.277 . S
O152 C145 1.226 . S
O153 Cd144 2.356 . S
O153 C151 1.282 . S
C154 O155 1.306 . S
C154 O157 1.160 . S
O155 C154 1.306 . S
O155 Cd156 2.228 . S
Cd156 O155 2.228 . S
Cd156 O160 2.273 . S
Cd156 O164 2.277 . S
O157 C154 1.160 . S
O157 Cd158 2.203 . S
Cd158 O157 2.203 . S
Cd158 O160 2.411 . S
Cd158 O161 2.333 . S
Cd158 O162 2.352 . S
Cd158 O166 2.277 . S
Cd158 O167 2.356 . S
C159 O164 1.209 . S
C159 O166 1.226 . S
O160 Cd156 2.273 . S
O160 Cd158 2.411 . S
O160 C163 1.320 . S
O161 Cd158 2.333 . S
O161 C163 1.214 . S
O162 Cd158 2.352 . S
O162 C165 1.258 . S
C163 O160 1.320 . S
C163 O161 1.214 . S
O164 Cd156 2.277 . S
O164 C159 1.209 . S
C165 O162 1.258 . S
C165 O167 1.282 . S
O166 Cd158 2.277 . S
O166 C159 1.226 . S
O167 Cd158 2.356 . S
O167 C165 1.282 . S
C168 O169 1.306 . S
C168 O171 1.160 . S
O169 C168 1.306 . S
O169 Cd170 2.228 . S
Cd170 O169 2.228 . S
Cd170 O174 2.273 . S
Cd170 O178 2.277 . S
O171 C168 1.160 . S
O171 Cd172 2.203 . S
Cd172 O171 2.203 . S
Cd172 O174 2.411 . S
Cd172 O175 2.333 . S
Cd172 O176 2.352 . S
Cd172 O180 2.277 . S
Cd172 O181 2.356 . S
C173 O178 1.209 . S
C173 O180 1.226 . S
O174 Cd170 2.273 . S
O174 Cd172 2.411 . S
O174 C177 1.320 . S
O175 Cd172 2.333 . S
O175 C177 1.214 . S
O176 Cd172 2.352 . S
O176 C179 1.258 . S
C177 O174 1.320 . S
C177 O175 1.214 . S
O178 Cd170 2.277 . S
O178 C173 1.209 . S
C179 O176 1.258 . S
C179 O181 1.282 . S
O180 Cd172 2.277 . S
O180 C173 1.226 . S
O181 Cd172 2.356 . S
O181 C179 1.282 . S
C182 O183 1.306 . S
C182 O185 1.160 . S
O183 C182 1.306 . S
O183 Cd184 2.228 . S
Cd184 O183 2.228 . S
Cd184 O188 2.273 . S
Cd184 O192 2.277 . S
O185 C182 1.160 . S
O185 Cd186 2.203 . S
Cd186 O185 2.203 . S
Cd186 O188 2.411 . S
Cd186 O189 2.333 . S
Cd186 O190 2.352 . S
Cd186 O194 2.277 . S
Cd186 O195 2.356 . S
C187 O192 1.209 . S
C187 O194 1.226 . S
O188 Cd184 2.273 . S
O188 Cd186 2.411 . S
O188 C191 1.320 . S
O189 Cd186 2.333 . S
O189 C191 1.214 . S
O190 Cd186 2.352 . S
O190 C193 1.258 . S
C191 O188 1.320 . S
C191 O189 1.214 . S
O192 Cd184 2.277 . S
O192 C187 1.209 . S
C193 O190 1.258 . S
C193 O195 1.282 . S
O194 Cd186 2.277 . S
O194 C187 1.226 . S
O195 Cd186 2.356 . S
O195 C193 1.282 . S
C196 O197 1.306 . S
C196 O199 1.160 . S
O197 C196 1.306 . S
O197 Cd198 2.228 . S
Cd198 O197 2.228 . S
Cd198 O202 2.273 . S
Cd198 O206 2.277 . S
O199 C196 1.160 . S
O199 Cd200 2.203 . S
Cd200 O199 2.203 . S
Cd200 O202 2.411 . S
Cd200 O203 2.333 . S
Cd200 O204 2.352 . S
Cd200 O208 2.277 . S
Cd200 O209 2.356 . S
C201 O206 1.209 . S
C201 O208 1.226 . S
O202 Cd198 2.273 . S
O202 Cd200 2.411 . S
O202 C205 1.320 . S
O203 Cd200 2.333 . S
O203 C205 1.214 . S
O204 Cd200 2.352 . S
O204 C207 1.258 . S
C205 O202 1.320 . S
C205 O203 1.214 . S
O206 Cd198 2.277 . S
O206 C201 1.209 . S
C207 O204 1.258 . S
C207 O209 1.282 . S
O208 Cd200 2.277 . S
O208 C201 1.226 . S
O209 Cd200 2.356 . S
O209 C207 1.282 . S
C210 O211 1.306 . S
C210 O213 1.160 . S
O211 C210 1.306 . S
O211 Cd212 2.228 . S
Cd212 O211 2.228 . S
Cd212 O216 2.273 . S
Cd212 O220 2.277 . S
O213 C210 1.160 . S
O213 Cd214 2.203 . S
Cd214 O213 2.203 . S
Cd214 O216 2.411 . S
Cd214 O217 2.333 . S
Cd214 O218 2.352 . S
Cd214 O222 2.277 . S
Cd214 O223 2.356 . S
C215 O220 1.209 . S
C215 O222 1.226 . S
O216 Cd212 2.273 . S
O216 Cd214 2.411 . S
O216 C219 1.320 . S
O217 Cd214 2.333 . S
O217 C219 1.214 . S
O218 Cd214 2.352 . S
O218 C221 1.258 . S
C219 O216 1.320 . S
C219 O217 1.214 . S
O220 Cd212 2.277 . S
O220 C215 1.209 . S
C221 O218 1.258 . S
C221 O223 1.282 . S
O222 Cd214 2.277 . S
O222 C215 1.226 . S
O223 Cd214 2.356 . S
O223 C221 1.282 . S
C224 C225 1.170 . S
C224 C226 1.380 . S
C225 C224 1.170 . S
C226 C224 1.380 . S
C226 C227 1.170 . S
C227 C226 1.170 . S
C228 C229 1.170 . S
C228 C230 1.380 . S
C229 C228 1.170 . S
C230 C228 1.380 . S
C230 C231 1.170 . S
C231 C230 1.170 . S
C232 C233 1.170 . S
C232 C234 1.380 . S
C233 C232 1.170 . S
C234 C232 1.380 . S
C234 C235 1.170 . S
C235 C234 1.170 . S
C236 C237 1.170 . S
C236 C238 1.380 . S
C237 C236 1.170 . S
C238 C236 1.380 . S
C238 C239 1.170 . S
C239 C238 1.170 . S
C240 C241 1.170 . S
C240 C242 1.380 . S
C241 C240 1.170 . S
C242 C240 1.380 . S
C242 C243 1.170 . S
C243 C242 1.170 . S
C244 C245 1.170 . S
C244 C246 1.380 . S
C245 C244 1.170 . S
C246 C244 1.380 . S
C246 C247 1.170 . S
C247 C246 1.170 . S
C248 C249 1.170 . S
C248 C250 1.380 . S
C249 C248 1.170 . S
C250 C248 1.380 . S
C250 C251 1.170 . S
C251 C250 1.170 . S
C252 C253 1.170 . S
C252 C254 1.380 . S
C253 C252 1.170 . S
C254 C252 1.380 . S
C254 C255 1.170 . S
C255 C254 1.170 . S
C256 C257 1.170 . S
C256 C258 1.380 1_556 S
C257 C256 1.170 . S
C258 C256 1.380 1_554 S
C258 C259 1.170 . S
C259 C258 1.170 . S
C260 C261 1.170 . S
C260 C262 1.380 1_556 S
C261 C260 1.170 . S
C262 C260 1.380 1_554 S
C262 C263 1.170 . S
C263 C262 1.170 . S
C264 C265 1.170 . S
C264 C266 1.380 1_556 S
C265 C264 1.170 . S
C266 C264 1.380 1_554 S
C266 C267 1.170 . S
C267 C266 1.170 . S
C268 C269 1.170 . S
C268 C270 1.380 1_554 S
C269 C268 1.170 . S
C270 C268 1.380 1_556 S
C270 C271 1.170 . S
C271 C270 1.170 . S
C272 C273 1.170 . S
C272 C274 1.380 1_455 S
C273 C272 1.170 . S
C274 C272 1.380 1_655 S
C274 C275 1.170 . S
C275 C274 1.170 . S
C276 C277 1.170 . S
C276 C278 1.380 1_565 S
C277 C276 1.170 . S
C278 C276 1.380 1_545 S
C278 C279 1.170 . S
C279 C278 1.170 . S
C280 C281 1.170 . S
C280 C282 1.380 1_655 S
C281 C280 1.170 . S
C282 C280 1.380 1_455 S
C282 C283 1.170 . S
C283 C282 1.170 . S
C284 C285 1.170 . S
C284 C286 1.380 1_545 S
C285 C284 1.170 . S
C286 C284 1.380 1_565 S
C286 C287 1.170 . S
C287 C286 1.170 . S
C288 C289 1.170 . S
C288 C290 1.380 1_655 S
C289 C288 1.170 . S
C290 C288 1.380 1_455 S
C290 C291 1.170 . S
C291 C290 1.170 . S
C292 C293 1.170 . S
C292 C294 1.380 1_565 S
C293 C292 1.170 . S
C294 C292 1.380 1_545 S
C294 C295 1.170 . S
C295 C294 1.170 . S
C296 C297 1.170 . S
C296 C298 1.380 1_455 S
C297 C296 1.170 . S
C298 C296 1.380 1_655 S
C298 C299 1.170 . S
C299 C298 1.170 . S
C300 C301 1.170 . S
C300 C302 1.380 1_565 S
C301 C300 1.170 . S
C302 C300 1.380 1_545 S
C302 C303 1.170 . S
C303 C302 1.170 . S
C304 C305 1.170 . S
C304 C306 1.380 . S
C305 C304 1.170 . S
C306 C304 1.380 . S
C306 C307 1.170 . S
C307 C306 1.170 . S
C308 C309 1.170 . S
C308 C310 1.380 . S
C309 C308 1.170 . S
C310 C308 1.380 . S
C310 C311 1.170 . S
C311 C310 1.170 . S
C312 C313 1.170 . S
C312 C314 1.380 . S
C313 C312 1.170 . S
C314 C312 1.380 . S
C314 C315 1.170 . S
C315 C314 1.170 . S
C316 C317 1.170 . S
C316 C318 1.380 . S
C317 C316 1.170 . S
C318 C316 1.380 . S
C318 C319 1.170 . S
C319 C318 1.170 . S
C320 C321 1.170 . S
C320 C322 1.380 . S
C321 C320 1.170 . S
C322 C320 1.380 . S
C322 C323 1.170 . S
C323 C322 1.170 . S
C324 C325 1.170 . S
C324 C326 1.380 . S
C325 C324 1.170 . S
C326 C324 1.380 . S
C326 C327 1.170 . S
C327 C326 1.170 . S
C328 C329 1.170 . S
C328 C330 1.380 . S
C329 C328 1.170 . S
C330 C328 1.380 . S
C330 C331 1.170 . S
C331 C330 1.170 . S
C332 C333 1.170 . S
C332 C334 1.380 . S
C333 C332 1.170 . S
C334 C332 1.380 . S
C334 C335 1.170 . S
C335 C334 1.170 . S
C336 C337 1.170 . S
C336 C338 1.380 . S
C337 C336 1.170 . S
C338 C336 1.380 . S
C338 C339 1.170 . S
C339 C338 1.170 . S
C340 C341 1.170 . S
C340 C342 1.380 . S
C341 C340 1.170 . S
C342 C340 1.380 . S
C342 C343 1.170 . S
C343 C342 1.170 . S
C344 C345 1.170 . S
C344 C346 1.380 . S
C345 C344 1.170 . S
C346 C344 1.380 . S
C346 C347 1.170 . S
C347 C346 1.170 . S
C348 C349 1.170 . S
C348 C350 1.380 . S
C349 C348 1.170 . S
C350 C348 1.380 . S
C350 C351 1.170 . S
C351 C350 1.170 . S
C225 C221 1.164 . S
C227 C11 1.170 . S
C229 C179 1.172 . S
C231 C25 1.176 . S
C233 C39 1.175 . S
C235 C193 1.170 . S
C237 C207 1.159 . S
C239 C53 1.165 . S
C241 C137 1.166 . S
C243 C67 1.161 . S
C245 C81 1.162 . S
C247 C151 1.157 . S
C249 C95 1.171 . S
C251 C165 1.176 . S
C253 C109 1.178 . S
C255 C123 1.176 . S
C257 C79 1.481 . S
C259 C5 1.541 . S
C261 C89 1.540 . S
C263 C23 1.506 . S
C265 C107 1.480 . S
C267 C33 1.541 . S
C269 C51 1.509 . S
C271 C61 1.538 . S
C273 C0 1.564 . S
C275 C14 1.561 . S
C277 C37 1.514 . S
C279 C19 1.539 . S
C281 C28 1.563 . S
C283 C42 1.557 . S
C285 C9 1.480 . S
C287 C47 1.541 . S
C289 C98 1.560 . S
C291 C56 1.564 . S
C293 C65 1.489 . S
C295 C75 1.542 . S
C297 C70 1.547 . S
C299 C84 1.538 . S
C301 C103 1.540 . S
C303 C93 1.504 . S
C305 C191 1.514 . S
C307 C117 1.539 . S
C309 C135 1.503 . S
C311 C201 1.538 . S
C313 C219 1.481 . S
C315 C145 1.542 . S
C317 C173 1.540 . S
C319 C163 1.506 . S
C321 C112 1.560 . S
C323 C126 1.564 . S
C325 C131 1.539 . S
C327 C149 1.493 . S
C329 C154 1.533 . S
C331 C140 1.540 . S
C333 C121 1.482 . S
C335 C159 1.542 . S
C337 C210 1.540 . S
C339 C168 1.549 . S
C341 C177 1.480 . S
C343 C187 1.541 . S
C345 C182 1.564 . S
C347 C196 1.564 . S
C349 C215 1.539 . S
C351 C205 1.513 . S
