# Generated by pormake.
# Topology uof, (4)-cn, num edge types: 1
# Building blocks:
#     Node 0, Type 0, BuildingBlock: NAHDIM_clean_sbu_0, # of connection points: 4
#     Node 1, Type 0, BuildingBlock: NAHDIM_clean_sbu_0, # of connection points: 4
#     Node 2, Type 0, BuildingBlock: NAHDIM_clean_sbu_0, # of connection points: 4
#     Node 3, Type 0, BuildingBlock: NAHDIM_clean_sbu_0, # of connection points: 4
#     Node 4, Type 0, BuildingBlock: NAHDIM_clean_sbu_0, # of connection points: 4
#     Node 5, Type 0, BuildingBlock: NAHDIM_clean_sbu_0, # of connection points: 4
#     Node 6, Type 0, BuildingBlock: NAHDIM_clean_sbu_0, # of connection points: 4
#     Node 7, Type 0, BuildingBlock: NAHDIM_clean_sbu_0, # of connection points: 4
#     Node 8, Type 0, BuildingBlock: NAHDIM_clean_sbu_0, # of connection points: 4
#     Node 9, Type 0, BuildingBlock: NAHDIM_clean_sbu_0, # of connection points: 4
#     Node 10, Type 0, BuildingBlock: NAHDIM_clean_sbu_0, # of connection points: 4
#     Node 11, Type 0, BuildingBlock: NAHDIM_clean_sbu_0, # of connection points: 4
#     Edge 12, Type (0, 0), BuildingBlock: XIVTED_clean_linker_0, # of connection points: 2
#     Edge 13, Type (0, 0), BuildingBlock: XIVTED_clean_linker_0, # of connection points: 2
#     Edge 14, Type (0, 0), BuildingBlock: XIVTED_clean_linker_0, # of connection points: 2
#     Edge 15, Type (0, 0), BuildingBlock: XIVTED_clean_linker_0, # of connection points: 2
#     Edge 16, Type (0, 0), BuildingBlock: XIVTED_clean_linker_0, # of connection points: 2
#     Edge 17, Type (0, 0), BuildingBlock: XIVTED_clean_linker_0, # of connection points: 2
#     Edge 18, Type (0, 0), BuildingBlock: XIVTED_clean_linker_0, # of connection points: 2
#     Edge 19, Type (0, 0), BuildingBlock: XIVTED_clean_linker_0, # of connection points: 2
#     Edge 20, Type (0, 0), BuildingBlock: XIVTED_clean_linker_0, # of connection points: 2
#     Edge 21, Type (0, 0), BuildingBlock: XIVTED_clean_linker_0, # of connection points: 2
#     Edge 22, Type (0, 0), BuildingBlock: XIVTED_clean_linker_0, # of connection points: 2
#     Edge 23, Type (0, 0), BuildingBlock: XIVTED_clean_linker_0, # of connection points: 2
#     Edge 24, Type (0, 0), BuildingBlock: XIVTED_clean_linker_0, # of connection points: 2
#     Edge 25, Type (0, 0), BuildingBlock: XIVTED_clean_linker_0, # of connection points: 2
#     Edge 26, Type (0, 0), BuildingBlock: XIVTED_clean_linker_0, # of connection points: 2
#     Edge 27, Type (0, 0), BuildingBlock: XIVTED_clean_linker_0, # of connection points: 2
#     Edge 28, Type (0, 0), BuildingBlock: XIVTED_clean_linker_0, # of connection points: 2
#     Edge 29, Type (0, 0), BuildingBlock: XIVTED_clean_linker_0, # of connection points: 2
#     Edge 30, Type (0, 0), BuildingBlock: XIVTED_clean_linker_0, # of connection points: 2
#     Edge 31, Type (0, 0), BuildingBlock: XIVTED_clean_linker_0, # of connection points: 2
#     Edge 32, Type (0, 0), BuildingBlock: XIVTED_clean_linker_0, # of connection points: 2
#     Edge 33, Type (0, 0), BuildingBlock: XIVTED_clean_linker_0, # of connection points: 2
#     Edge 34, Type (0, 0), BuildingBlock: XIVTED_clean_linker_0, # of connection points: 2
#     Edge 35, Type (0, 0), BuildingBlock: XIVTED_clean_linker_0, # of connection points: 2
# Relax obj value: 0.217
# Max RMSD: 0.169
# Mean RMSD: 0.169
data_MOF--net-uof--node1-NAHDIM_clean_sbu_0--edge1-XIVTED_clean_linker_0
_symmetry_space_group_name_H-M    P1
_symmetry_Int_Tables_number       1
_symmetry_cell_setting            triclinic
loop_
_symmetry_equiv_pos_as_xyz
'x, y, z'
_cell_length_a     32.698798
_cell_length_b     32.568048
_cell_length_c     60.628372
_cell_angle_alpha  90.025832
_cell_angle_beta   89.984746
_cell_angle_gamma 120.01879
loop_
_atom_site_label
_atom_site_type_symbol
_atom_site_fract_x
_atom_site_fract_y
_atom_site_fract_z
_atom_type_partial_charge
C0 C 0.14462 0.34072 0.2019 0.0
O1 O 0.13786 0.32922 0.22288 0.0
O2 O 0.22097 0.32956 0.2414 0.0
Zn3 Zn 0.23415 0.34395 0.20894 0.0
O4 O 0.23527 0.28937 0.19426 0.0
C5 C 0.32823 0.40461 0.1915 0.0
O6 O 0.31354 0.37317 0.17552 0.0
O7 O 0.18411 0.35165 0.19315 0.0
C8 C 0.25842 0.27061 0.2017 0.0
O9 O 0.28275 0.28686 0.22002 0.0
C10 C 0.19871 0.28764 0.2491 0.0
O11 O 0.17926 0.25152 0.23544 0.0
O12 O 0.29939 0.40087 0.20652 0.0
C13 C 0.84298 0.17857 0.51641 0.0
O14 O 0.87796 0.21308 0.50546 0.0
O15 O 0.89941 0.22027 0.58529 0.0
Zn16 Zn 0.90018 0.23361 0.55265 0.0
O17 O 0.9568 0.23406 0.53973 0.0
C18 C 0.92641 0.32893 0.56429 0.0
O19 O 0.92822 0.31233 0.58377 0.0
O20 O 0.84277 0.18102 0.53735 0.0
C21 C -0.00188 0.26463 0.54599 0.0
O22 O 0.00337 0.29604 0.56098 0.0
C23 C 0.92168 0.20108 0.59341 0.0
O24 O 0.94131 0.18408 0.5801 0.0
O25 O 0.91138 0.30055 0.54795 0.0
C26 C 0.65927 0.8054 0.86964 0.0
O27 O 0.66726 0.80701 0.89094 0.0
O28 O 0.67036 0.88992 0.91075 0.0
Zn29 Zn 0.65612 0.89157 0.8784 0.0
O30 O 0.71097 0.95016 0.86599 0.0
C31 C 0.57932 0.90452 0.89242 0.0
O32 O 0.59055 0.89455 0.91168 0.0
O33 O 0.65084 0.83606 0.8611 0.0
C34 C 0.71906 0.99048 0.87275 0.0
O35 O 0.69049 0.99278 0.88731 0.0
C36 C 0.71223 0.91277 0.91829 0.0
O37 O 0.74787 0.93314 0.90449 0.0
O38 O 0.5999 0.90141 0.87522 0.0
C39 C 0.85993 0.66216 0.21191 0.0
O40 O 0.86639 0.67334 0.23293 0.0
O41 O 0.7806 0.66717 0.25198 0.0
Zn42 Zn 0.77227 0.66257 0.21884 0.0
O43 O 0.78022 0.72432 0.20776 0.0
C44 C 0.67315 0.60528 0.22534 0.0
O45 O 0.6856 0.62757 0.24435 0.0
O46 O 0.82114 0.65295 0.2029 0.0
C47 C 0.76089 0.74535 0.21702 0.0
O48 O 0.73471 0.72658 0.23464 0.0
C49 C 0.80626 0.70664 0.26161 0.0
O50 O 0.83295 0.74447 0.24969 0.0
O51 O 0.7051 0.61243 0.21137 0.0
C52 C 0.18421 0.85974 0.53893 0.0
O53 O 0.1815 0.85856 0.56056 0.0
O54 O 0.0912 0.77598 0.57477 0.0
Zn55 Zn 0.09661 0.76869 0.54205 0.0
O56 O 0.0393 0.76657 0.52934 0.0
C57 C 0.09813 0.68354 0.5521 0.0
O58 O 0.11893 0.70793 0.56996 0.0
O59 O 0.15378 0.82426 0.52794 0.0
C60 C -0.0008 0.73449 0.53621 0.0
O61 O 0.99702 0.70324 0.55057 0.0
C62 C 0.07673 0.80276 0.5825 0.0
O63 O 0.07082 0.83103 0.56907 0.0
O64 O 0.0891 0.70394 0.53653 0.0
C65 C 0.30813 0.16969 0.8776 0.0
O66 O 0.28353 0.1521 0.89576 0.0
O67 O 0.30377 0.07834 0.91412 0.0
Zn68 Zn 0.32181 0.08903 0.88189 0.0
O69 O 0.26886 0.03606 0.86522 0.0
C70 C 0.40371 0.08331 0.89405 0.0
O71 O 0.3961 0.09742 0.91313 0.0
O72 O 0.33016 0.15031 0.86945 0.0
C73 C 0.26502 0.99527 0.86514 0.0
O74 O 0.29627 0.98872 0.8758 0.0
C75 C 0.26116 0.05443 0.92063 0.0
O76 O 0.22681 0.04045 0.90617 0.0
O77 O 0.37881 0.08121 0.87753 0.0
C78 C 0.68753 0.86268 0.44513 0.0
O79 O 0.71025 0.86153 0.42748 0.0
O80 O 0.69254 0.76911 0.4172 0.0
Zn81 Zn 0.6671 0.76619 0.44791 0.0
O82 O 0.71643 0.76701 0.46775 0.0
C83 C 0.58247 0.68148 0.43449 0.0
O84 O 0.59205 0.70453 0.41569 0.0
O85 O 0.6629 0.82453 0.45592 0.0
C86 C 0.7112 0.73222 0.47934 0.0
O87 O 0.67013 0.69285 0.47963 0.0
C88 C 0.70053 0.73567 0.41251 0.0
O89 O 0.69081 0.70249 0.42727 0.0
O90 O 0.60694 0.7028 0.45141 0.0
C91 C 0.81375 0.67707 0.77459 0.0
O92 O 0.82655 0.69539 0.75477 0.0
O93 O 0.90854 0.68623 0.73947 0.0
Zn94 Zn 0.89818 0.66882 0.77172 0.0
O95 O 0.95117 0.72257 0.788 0.0
C96 C 0.90849 0.58875 0.7602 0.0
O97 O 0.89841 0.59787 0.74048 0.0
O98 O 0.83737 0.66097 0.7842 0.0
C99 C 0.99208 0.72718 0.78729 0.0
O100 O -0.00144 0.69642 0.77603 0.0
C101 C 0.92954 0.7289 0.7327 0.0
O102 O 0.94032 0.76337 0.74687 0.0
O103 O 0.90636 0.61187 0.77664 0.0
C104 C 0.1447 0.81119 0.11882 0.0
O105 O 0.14112 0.81207 0.09727 0.0
O106 O 0.22524 0.90713 0.08121 0.0
Zn107 Zn 0.23282 0.90343 0.11407 0.0
O108 O 0.23371 0.95948 0.12883 0.0
C109 C 0.33105 0.94747 0.11077 0.0
O110 O 0.32162 0.97522 0.09872 0.0
O111 O 0.18063 0.84439 0.12842 0.0
C112 C 0.24144 0.99683 0.11865 0.0
O113 O 0.24865 -0.0001 0.09727 0.0
C114 C 0.19261 0.91112 0.07184 0.0
O115 O 0.1577 0.90822 0.08378 0.0
O116 O 0.29699 0.91081 0.11952 0.0
C117 C 0.33503 0.17761 0.46965 0.0
O118 O 0.34528 0.21303 0.48316 0.0
O119 O 0.29306 0.23093 0.41 0.0
Zn120 Zn 0.31808 0.23705 0.441 0.0
O121 O 0.2673 0.23424 0.46051 0.0
C122 C 0.3993 0.32599 0.42788 0.0
O123 O 0.38998 0.3051 0.40852 0.0
O124 O 0.32575 0.18128 0.44962 0.0
C125 C 0.2746 0.2635 0.47594 0.0
O126 O 0.31791 0.29733 0.48022 0.0
C127 C 0.27996 0.26061 0.40513 0.0
O128 O 0.284 0.29164 0.42009 0.0
O129 O 0.37604 0.30222 0.44461 0.0
C130 C 0.17033 0.31981 0.78732 0.0
O131 O 0.15597 0.30144 0.7676 0.0
O132 O 0.0701 0.30293 0.75499 0.0
Zn133 Zn 0.08556 0.32709 0.78633 0.0
O134 O 0.03517 0.27513 0.80458 0.0
C135 C 0.08344 0.4102 0.77213 0.0
O136 O 0.10033 0.40249 0.75391 0.0
O137 O 0.14768 0.33623 0.79756 0.0
C138 C 0.00717 0.28014 0.81734 0.0
O139 O 0.01179 0.3223 0.81995 0.0
C140 C 0.02828 0.29156 0.74928 0.0
O141 O 0.0012 0.29709 0.76358 0.0
O142 O 0.07827 0.38489 0.78899 0.0
C143 C 0.85944 0.16624 0.11227 0.0
O144 O 0.86623 0.14664 0.09474 0.0
O145 O 0.77272 0.06694 0.07971 0.0
Zn146 Zn 0.76806 0.08117 0.11172 0.0
O147 O 0.77709 0.03416 0.12917 0.0
C148 C 0.66987 0.03371 0.12567 0.0
O149 O 0.67931 0.00119 0.13266 0.0
O150 O 0.81908 0.14594 0.12143 0.0
C151 C 0.77822 0.03372 0.15009 0.0
O152 O 0.77313 0.0654 0.16132 0.0
C153 C 0.74435 0.0241 0.07431 0.0
O154 O 0.71581 0.9948 0.08937 0.0
O155 O 0.7026 0.07143 0.11691 0.0
H156 H 0.86117 0.20486 0.1527 0.0
H157 H 0.14291 0.34762 0.15687 0.0
H158 H 0.95079 0.21798 0.09769 0.0
H159 H 0.05354 0.31174 0.21437 0.0
H160 H 0.07296 0.3173 0.13346 0.0
H161 H 0.93111 0.2605 0.17358 0.0
C162 C 0.89545 0.22005 0.14485 0.0
C163 C 0.90017 0.20608 0.12352 0.0
C164 C 0.06872 0.3167 0.15119 0.0
C165 C 0.98039 0.26963 0.14741 0.0
C166 C 0.10869 0.33418 0.1646 0.0
C167 C 0.10405 0.33143 0.18766 0.0
C168 C 0.02376 0.29636 0.1609 0.0
C169 C 0.05878 0.31398 0.19669 0.0
C170 C 0.9354 0.25172 0.15683 0.0
C171 C 0.9455 0.22721 0.11418 0.0
N172 N 0.02034 0.29653 0.18329 0.0
N173 N 0.98389 0.25749 0.12628 0.0
H174 H 0.83478 0.16146 0.47199 0.0
H175 H 0.66424 0.88178 0.48598 0.0
H176 H 0.77448 0.09434 0.53431 0.0
H177 H 0.735 0.94968 0.42538 0.0
H178 H 0.69307 0.96007 0.50261 0.0
H179 H 0.78743 0.08539 0.45352 0.0
C180 C 0.81112 0.13086 0.48179 0.0
C181 C 0.8091 0.13429 0.5048 0.0
C182 C 0.70176 0.9578 0.48559 0.0
C183 C 0.75491 0.04665 0.48369 0.0
C184 C 0.68512 0.91308 0.47604 0.0
C185 C 0.69766 0.90908 0.45431 0.0
C186 C 0.73109 0.99882 0.47331 0.0
C187 C 0.72483 0.95096 0.44225 0.0
C188 C 0.78412 0.08732 0.47121 0.0
C189 C 0.77747 0.09336 0.51656 0.0
N190 N 0.74096 0.99396 0.45196 0.0
N191 N 0.75204 0.05115 0.50591 0.0
H192 H 0.68303 0.73907 0.882 0.0
H193 H 0.76 0.71467 0.76011 0.0
H194 H 0.65637 0.80016 0.82445 0.0
H195 H 0.78624 0.65317 0.81764 0.0
H196 H 0.711 0.7355 0.78255 0.0
H197 H 0.70973 0.69688 0.85801 0.0
C198 C 0.68213 0.74312 0.86431 0.0
C199 C 0.66807 0.7738 0.85527 0.0
C200 C 0.72697 0.71691 0.79022 0.0
C201 C 0.69906 0.72586 0.82766 0.0
C202 C 0.75493 0.70491 0.77739 0.0
C203 C 0.77789 0.68275 0.78705 0.0
C204 C 0.7221 0.70695 0.81292 0.0
C205 C 0.76966 0.67068 0.8095 0.0
C206 C 0.69748 0.71904 0.8506 0.0
C207 C 0.66735 0.77729 0.83219 0.0
N208 N 0.74297 0.68348 0.82172 0.0
N209 N 0.68322 0.75414 0.81922 0.0
H210 H 0.86157 0.64967 0.16718 0.0
H211 H 0.14242 0.79532 0.16324 0.0
H212 H 0.95057 0.69133 0.22498 0.0
H213 H 0.05459 0.74829 0.10507 0.0
H214 H 0.07285 0.74719 0.18587 0.0
H215 H 0.93141 0.67484 0.14411 0.0
C216 C 0.89568 0.66339 0.17507 0.0
C217 C 0.90026 0.6691 0.19807 0.0
C218 C 0.0688 0.74686 0.16814 0.0
C219 C 0.98047 0.69844 0.17169 0.0
C220 C 0.10858 0.77438 0.15518 0.0
C221 C 0.10426 0.77642 0.13223 0.0
C222 C 0.02417 0.7215 0.15813 0.0
C223 C 0.05955 0.74811 0.12271 0.0
C224 C 0.9356 0.67785 0.16186 0.0
C225 C 0.94534 0.68677 0.20733 0.0
N226 N 0.02113 0.72237 0.13573 0.0
N227 N 0.98372 0.7014 0.1941 0.0
H228 H 0.35105 0.15761 0.51154 0.0
H229 H 0.19417 0.87762 0.49439 0.0
H230 H 0.29672 0.09169 0.44833 0.0
H231 H 0.24917 0.9445 0.55737 0.0
H232 H 0.24055 0.95464 0.4764 0.0
H233 H 0.32357 0.0794 0.52759 0.0
C234 C 0.33393 0.12675 0.50094 0.0
C235 C 0.3257 0.1313 0.47859 0.0
C236 C 0.24292 0.95238 0.49413 0.0
C237 C 0.29356 0.04129 0.49698 0.0
C238 C 0.21649 0.90834 0.50443 0.0
C239 C 0.21728 0.90457 0.52749 0.0
C240 C 0.27026 0.99308 0.50696 0.0
C241 C 0.24707 0.94567 0.53958 0.0
C242 C 0.31813 0.082 0.51015 0.0
C243 C 0.30359 0.08995 0.46567 0.0
N244 N 0.27192 0.9882 0.52921 0.0
N245 N 0.28776 0.04668 0.47511 0.0
H246 H 0.34484 0.20628 0.8368 0.0
H247 H 0.22435 0.28406 0.77106 0.0
H248 H 0.25972 0.21499 0.88902 0.0
H249 H 0.19612 0.33754 0.83085 0.0
H250 H 0.27039 0.25805 0.79227 0.0
H251 H 0.32523 0.25531 0.81366 0.0
C252 C 0.32227 0.21877 0.84347 0.0
C253 C 0.30307 0.20559 0.86475 0.0
C254 C 0.25552 0.27677 0.80076 0.0
C255 C 0.27917 0.26057 0.83804 0.0
C256 C 0.22881 0.2914 0.78859 0.0
C257 C 0.20585 0.31257 0.79919 0.0
C258 C 0.25919 0.28321 0.82377 0.0
C259 C 0.21291 0.32111 0.82197 0.0
C260 C 0.3106 0.24636 0.83011 0.0
C261 C 0.27471 0.22355 0.87261 0.0
N262 N 0.23822 0.30563 0.83353 0.0
N263 N 0.26325 0.24967 0.85918 0.0
H264 H 0.59792 0.58966 0.25071 0.0
H265 H 0.40144 0.41765 0.16466 0.0
H266 H 0.63268 0.55436 0.1874 0.0
H267 H 0.37142 0.4693 0.2246 0.0
H268 H 0.48601 0.4677 0.17202 0.0
H269 H 0.51462 0.54449 0.24118 0.0
C270 C 0.58806 0.57222 0.2348 0.0
C271 C 0.62245 0.57578 0.21984 0.0
C272 C 0.46087 0.46833 0.18345 0.0
C273 C 0.5266 0.52394 0.20874 0.0
C274 C 0.41257 0.4399 0.17923 0.0
C275 C 0.37921 0.43903 0.19411 0.0
C276 C 0.47587 0.49587 0.20274 0.0
C277 C 0.39575 0.46861 0.2127 0.0
C278 C 0.54035 0.54656 0.22932 0.0
C279 C 0.60736 0.55248 0.19945 0.0
N280 N 0.44283 0.49548 0.21655 0.0
N281 N 0.56049 0.52744 0.1945 0.0
H282 H 0.10428 0.62862 0.58442 0.0
H283 H 0.93616 0.37919 0.52602 0.0
H284 H 0.0444 0.61926 0.51988 0.0
H285 H 0.96865 0.39748 0.5956 0.0
H286 H 0.98051 0.46589 0.52161 0.0
H287 H 0.06204 0.54245 0.58652 0.0
C288 C 0.08266 0.60848 0.57055 0.0
C289 C 0.07773 0.63136 0.55199 0.0
C290 C 0.97762 0.45072 0.53782 0.0
C291 C 0.02863 0.53217 0.55441 0.0
C292 C 0.95218 0.40132 0.54037 0.0
C293 C 0.94864 0.38093 0.56121 0.0
C294 C 1e-05 0.47972 0.5562 0.0
C295 C 0.97034 0.41138 0.5792 0.0
C296 C 0.05823 0.55915 0.57183 0.0
C297 C 0.04917 0.60314 0.53453 0.0
N298 N 0.99523 0.45902 0.57624 0.0
N299 N 0.0255 0.55495 0.53619 0.0
H300 H 0.45149 0.07037 0.92775 0.0
H301 H 0.55123 0.934 0.85579 0.0
H302 H 0.42442 0.04596 0.85789 0.0
H303 H 0.54156 0.92828 0.92687 0.0
H304 H 0.51046 0.97999 0.85536 0.0
H305 H 0.49303 0.02576 0.92675 0.0
C306 C 0.45472 0.05611 0.91212 0.0
C307 C 0.43422 0.06179 0.89289 0.0
C308 C 0.51706 0.96833 0.87101 0.0
C309 C 0.48148 0.01012 0.89169 0.0
C310 C 0.54013 0.94194 0.87127 0.0
C311 C 0.54991 0.92728 0.8914 0.0
C312 C 0.50421 0.98053 0.89102 0.0
C313 C 0.53485 0.93876 0.91095 0.0
C314 C 0.47817 0.03028 0.9116 0.0
C315 C 0.43961 0.04239 0.87313 0.0
N316 N 0.51312 0.96495 0.91027 0.0
N317 N 0.46263 0.01727 0.87304 0.0
H318 H 0.55613 0.62092 0.47002 0.0
H319 H 0.4418 0.38899 0.39417 0.0
H320 H 0.53844 0.62276 0.39952 0.0
H321 H 0.42534 0.38226 0.46497 0.0
H322 H 0.48415 0.47531 0.39632 0.0
H323 H 0.5127 0.53401 0.46902 0.0
C324 C 0.54265 0.60313 0.45438 0.0
C325 C 0.55101 0.62929 0.43482 0.0
C326 C 0.47142 0.455 0.41141 0.0
C327 C 0.50218 0.52993 0.43353 0.0
C328 C 0.44752 0.40561 0.41022 0.0
C329 C 0.42986 0.3782 0.42942 0.0
C330 C 0.47813 0.47741 0.43196 0.0
C331 C 0.43831 0.40193 0.44974 0.0
C332 C 0.51804 0.55353 0.45382 0.0
C333 C 0.53286 0.60423 0.41503 0.0
N334 N 0.46181 0.45019 0.45048 0.0
N335 N 0.5097 0.55607 0.41488 0.0
H336 H 0.93087 0.54582 0.72745 0.0
H337 H 0.04568 0.43503 0.80663 0.0
H338 H 0.93705 0.56408 0.79815 0.0
H339 H 0.07081 0.45388 0.73646 0.0
H340 H 0.00134 0.47723 0.80434 0.0
H341 H 0.97533 0.50443 0.73091 0.0
C342 C 0.94111 0.5407 0.74375 0.0
C343 C 0.93027 0.55861 0.76254 0.0
C344 C 0.01692 0.47241 0.7895 0.0
C345 C 0.98173 0.51149 0.76658 0.0
C346 C 0.04237 0.44849 0.79079 0.0
C347 C 0.06198 0.44085 0.77169 0.0
C348 C 0.01057 0.48823 0.76894 0.0
C349 C 0.05642 0.45896 0.75162 0.0
C350 C 0.96687 0.51736 0.74569 0.0
C351 C 0.94465 0.5509 0.78322 0.0
N352 N 0.03092 0.48142 0.75075 0.0
N353 N 0.96972 0.52795 0.78469 0.0
H354 H 0.36488 0.89777 0.13367 0.0
H355 H 0.63577 0.08918 0.10928 0.0
H356 H 0.41042 0.02619 0.09621 0.0
H357 H 0.59161 0.95597 0.14228 0.0
H358 H 0.55329 0.06917 0.10699 0.0
H359 H 0.44779 0.92046 0.13923 0.0
C360 C 0.39226 0.93069 0.12662 0.0
C361 C 0.38068 0.96001 0.11438 0.0
C362 C 0.56164 0.04439 0.11483 0.0
C363 C 0.47543 0.98629 0.12076 0.0
C364 C 0.60879 0.05589 0.1162 0.0
C365 C 0.62063 0.0241 0.12587 0.0
C366 C 0.52601 0.00077 0.12317 0.0
C367 C 0.58412 0.98147 0.13458 0.0
C368 C 0.43955 0.94366 0.12982 0.0
C369 C 0.4176 0.00235 0.10568 0.0
N370 N 0.53844 0.97096 0.13294 0.0
N371 N 0.46323 0.01416 0.10903 0.0
H372 H 0.23965 0.0735 0.10169 0.0
H373 H 0.28524 0.20827 0.21678 0.0
H374 H 0.24856 0.01193 0.16328 0.0
H375 H 0.22858 0.2416 0.15962 0.0
H376 H 0.2812 0.14101 0.19668 0.0
H377 H 0.24458 0.14059 0.12202 0.0
C378 C 0.24265 0.0741 0.11949 0.0
C379 C 0.2436 0.03707 0.13083 0.0
C380 C 0.26963 0.16309 0.1886 0.0
C381 C 0.24961 0.11383 0.15414 0.0
C382 C 0.27212 0.20154 0.2 0.0
C383 C 0.25714 0.23045 0.18985 0.0
C384 C 0.25267 0.15404 0.16683 0.0
C385 C 0.24028 0.22007 0.16811 0.0
C386 C 0.24533 0.11232 0.13108 0.0
C387 C 0.24746 0.03965 0.15391 0.0
N388 N 0.23869 0.18282 0.15729 0.0
N389 N 0.25056 0.07755 0.16483 0.0
H390 H 0.09157 0.32545 0.55505 0.0
H391 H 0.18128 0.19744 0.47129 0.0
H392 H -0.00087 0.20225 0.51616 0.0
H393 H 0.27558 0.32416 0.50762 0.0
H394 H 0.11431 0.19643 0.48936 0.0
H395 H 0.15961 0.32371 0.53938 0.0
C396 C 0.08557 0.29801 0.54324 0.0
C397 C 0.03962 0.26403 0.53684 0.0
C398 C 0.14962 0.2244 0.49346 0.0
C399 C 0.1172 0.2618 0.51893 0.0
C400 C 0.18795 0.22498 0.48316 0.0
C401 C 0.23412 0.2611 0.48787 0.0
C402 C 0.15741 0.26026 0.50858 0.0
C403 C 0.24056 0.29571 0.50346 0.0
C404 C 0.12442 0.29704 0.53432 0.0
C405 C 0.03392 0.22926 0.52152 0.0
N406 N 0.20256 0.29456 0.5132 0.0
N407 N 0.07226 0.2291 0.51308 0.0
H408 H 0.98617 0.18806 0.81382 0.0
H409 H 0.74586 0.08266 0.88268 0.0
H410 H 0.93664 0.27578 0.84354 0.0
H411 H 0.78948 0.99733 0.84604 0.0
H412 H 0.81764 0.15399 0.87064 0.0
H413 H 0.91689 0.11795 0.82811 0.0
C414 C 0.96085 0.19264 0.82348 0.0
C415 C 0.9671 0.23789 0.8274 0.0
C416 C 0.81143 0.11964 0.86524 0.0
C417 C 0.88739 0.15752 0.84373 0.0
C418 C 0.77047 0.07892 0.87209 0.0
C419 C 0.76162 0.03399 0.8653 0.0
C420 C 0.84379 0.1153 0.8516 0.0
C421 C 0.79475 0.03123 0.85161 0.0
C422 C 0.92117 0.15251 0.83158 0.0
C423 C 0.93315 0.24156 0.84007 0.0
N424 N 0.83436 0.07132 0.84524 0.0
N425 N 0.89459 0.20183 0.84773 0.0
H426 H 0.76117 0.00803 0.19368 0.0
H427 H 0.80516 0.78906 0.17867 0.0
H428 H 0.80195 0.97171 0.1322 0.0
H429 H 0.73295 0.80464 0.23491 0.0
H430 H 0.81437 0.86253 0.16346 0.0
H431 H 0.76095 0.94007 0.21114 0.0
C432 C 0.77047 0.98604 0.18391 0.0
C433 C 0.78128 0.99529 0.16143 0.0
C434 C 0.79659 0.84993 0.17916 0.0
C435 C 0.78111 0.91782 0.18123 0.0
C436 C 0.79136 0.80801 0.18787 0.0
C437 C 0.76792 0.79051 0.20802 0.0
C438 C 0.77848 0.87473 0.19071 0.0
C439 C 0.75093 0.81667 0.21924 0.0
C440 C 0.77014 0.94721 0.19386 0.0
C441 C 0.79303 0.96566 0.14954 0.0
N442 N 0.75648 0.8575 0.21041 0.0
N443 N 0.79254 0.92822 0.15958 0.0
H444 H 0.80161 0.8067 0.47985 0.0
H445 H 0.90745 0.66746 0.54509 0.0
H446 H 0.71552 0.66318 0.50345 0.0
H447 H 0.99218 0.80011 0.51096 0.0
H448 H 0.83618 0.66789 0.53317 0.0
H449 H 0.87118 0.80794 0.49493 0.0
C450 C 0.79724 0.77551 0.48835 0.0
C451 C 0.75267 0.73461 0.49025 0.0
C452 C 0.8704 0.69686 0.5283 0.0
C453 C 0.83243 0.73576 0.50746 0.0
C454 C 0.91107 0.69664 0.53508 0.0
C455 C 0.9558 0.73372 0.52892 0.0
C456 C 0.87458 0.73457 0.51541 0.0
C457 C 0.95843 0.77067 0.516 0.0
C458 C 0.83708 0.7762 0.49689 0.0
C459 C 0.74923 0.69538 0.50153 0.0
N460 N 0.91838 0.77016 0.5097 0.0
N461 N 0.78869 0.69684 0.50964 0.0
H462 H 0.25388 0.90817 0.85564 0.0
H463 H 0.99518 0.80545 0.80556 0.0
H464 H 0.18574 0.99178 0.84838 0.0
H465 H 0.07967 0.73916 0.79531 0.0
H466 H 0.06185 0.87093 0.82454 0.0
H467 H 0.1873 0.84249 0.83664 0.0
C468 C 0.22492 0.91271 0.85006 0.0
C469 C 0.22534 0.95549 0.85355 0.0
C470 C 0.06579 0.84208 0.81809 0.0
C471 C 0.14911 0.88055 0.83197 0.0
C472 C 0.02773 0.80463 0.80734 0.0
C473 C 0.03195 0.76685 0.79884 0.0
C474 C 0.10816 0.84148 0.82057 0.0
C475 C 0.07497 0.76768 0.80155 0.0
C476 C 0.18704 0.87528 0.83917 0.0
C477 C 0.18694 0.95947 0.84594 0.0
N478 N 0.1114 0.80436 0.81226 0.0
N479 N 0.15025 0.92237 0.83559 0.0
H480 H 0.26206 0.3277 0.38832 0.0
H481 H 0.18004 0.20534 0.26986 0.0
H482 H 0.25762 0.19685 0.37118 0.0
H483 H 0.22469 0.35229 0.28256 0.0
H484 H 0.19478 0.19596 0.30862 0.0
H485 H 0.23551 0.3315 0.35119 0.0
C486 C 0.2553 0.2996 0.37678 0.0
C487 C 0.26237 0.26202 0.38283 0.0
C488 C 0.20096 0.23012 0.30292 0.0
C489 C 0.23172 0.26614 0.34026 0.0
C490 C 0.19226 0.23545 0.28085 0.0
C491 C 0.20143 0.27978 0.27294 0.0
C492 C 0.21848 0.26926 0.3172 0.0
C493 C 0.21744 0.31758 0.28792 0.0
C494 C 0.2402 0.30188 0.35556 0.0
C495 C 0.25293 0.22662 0.36716 0.0
N496 N 0.22559 0.31149 0.3093 0.0
N497 N 0.23811 0.22956 0.34655 0.0
H498 H 0.98632 0.1856 0.61502 0.0
H499 H 0.94488 0.27474 0.73137 0.0
H500 H 0.88218 0.22791 0.62612 0.0
H501 H 0.06999 0.26715 0.71628 0.0
H502 H 0.91529 0.24647 0.69433 0.0
H503 H 0.01052 0.20335 0.65365 0.0
C504 C 0.96805 0.19795 0.62564 0.0
C505 C 0.93228 0.2055 0.61729 0.0
C506 C 0.94918 0.25088 0.69911 0.0
C507 C 0.96004 0.2261 0.66143 0.0
C508 C 0.96614 0.267 0.72028 0.0
C509 C 0.01015 0.27358 0.72691 0.0
C510 C 0.97621 0.24092 0.6844 0.0
C511 C 0.03601 0.26284 0.71181 0.0
C512 C 0.98214 0.20838 0.64765 0.0
C513 C 0.91004 0.22177 0.63181 0.0
N514 N 0.01864 0.24704 0.69122 0.0
N515 N 0.92439 0.23166 0.65313 0.0
H516 H 0.80536 0.0698 0.03994 0.0
H517 H 0.64906 0.87037 0.95195 0.0
H518 H 0.67947 0.93882 0.05698 0.0
H519 H 0.79225 0.98069 0.93878 0.0
H520 H 0.65905 0.89582 0.99044 0.0
H521 H 0.80046 0.03952 0.00241 0.0
C522 C 0.77675 0.03473 0.0358 0.0
C523 C 0.7427 0.00687 0.05159 0.0
C524 C 0.68847 0.91415 0.97918 0.0
C525 C 0.73685 0.97212 0.00881 0.0
C526 C 0.6828 0.89958 0.95722 0.0
C527 C 0.71983 0.9235 0.94212 0.0
C528 C 0.73126 0.95337 0.98606 0.0
C529 C 0.76278 0.96115 0.94987 0.0
C530 C 0.7741 0.01738 0.01444 0.0
C531 C 0.7065 0.96158 0.04536 0.0
N532 N 0.76715 0.97529 0.97125 0.0
N533 N 0.70438 0.94577 0.02445 0.0
H534 H 0.7619 0.63607 0.29217 0.0
H535 H 0.73868 0.80431 0.38046 0.0
H536 H 0.83184 0.78816 0.28471 0.0
H537 H 0.70665 0.66159 0.39525 0.0
H538 H 0.7703 0.79863 0.34465 0.0
H539 H 0.73971 0.64421 0.32972 0.0
C540 C 0.77313 0.67123 0.29853 0.0
C541 C 0.79867 0.71148 0.28527 0.0
C542 C 0.75657 0.76869 0.35581 0.0
C543 C 0.77263 0.72098 0.32807 0.0
C544 C 0.73829 0.77182 0.37618 0.0
C545 C 0.7199 0.73333 0.39082 0.0
C546 C 0.75588 0.72658 0.34997 0.0
C547 C 0.72049 0.69216 0.38448 0.0
C548 C 0.76039 0.67585 0.31996 0.0
C549 C 0.81225 0.75617 0.29437 0.0
N550 N 0.73789 0.68977 0.36448 0.0
N551 N 0.79856 0.75968 0.31512 0.0
H552 H 0.05101 0.85819 0.60612 0.0
H553 H 0.93291 0.66833 0.70254 0.0
H554 H 0.06109 0.73127 0.6109 0.0
H555 H 0.96894 0.8143 0.71101 0.0
H556 H 0.97054 0.68825 0.66637 0.0
H557 H 0.01384 0.84104 0.64268 0.0
C558 C 0.04583 0.82701 0.61493 0.0
C559 C 0.05919 0.79613 0.60544 0.0
C560 C 0.97011 0.71591 0.67612 0.0
C561 C 0.01595 0.77592 0.64691 0.0
C562 C 0.94828 0.7045 0.69671 0.0
C563 C 0.94786 0.73975 0.70987 0.0
C564 C 0.99128 0.76279 0.66845 0.0
C565 C 0.96858 0.78606 0.70144 0.0
C566 C 0.02457 0.81724 0.63574 0.0
C567 C 0.05155 0.75619 0.61757 0.0
N568 N 0.98945 0.79628 0.68121 0.0
N569 N 0.03005 0.74702 0.63756 0.0
H570 H 0.13043 0.92231 0.0455 0.0
H571 H 0.32373 0.06112 0.95228 0.0
H572 H 0.27036 0.93983 0.04577 0.0
H573 H 0.17488 0.00647 0.94116 0.0
H574 H 0.30546 0.02464 0.98873 0.0
H575 H 0.14621 0.95865 0.00876 0.0
C576 C 0.16424 0.93335 0.03778 0.0
C577 C 0.19911 0.928 0.04875 0.0
C578 C 0.27678 0.02071 0.97834 0.0
C579 C 0.21761 0.9703 0.00703 0.0
C580 C 0.28721 0.04186 0.95757 0.0
C581 C 0.25075 0.03674 0.94359 0.0
C582 C 0.22958 0.99452 0.98533 0.0
C583 C 0.20407 0.0112 0.95137 0.0
C584 C 0.17324 0.95417 0.01686 0.0
C585 C 0.24234 0.94308 0.03797 0.0
N586 N 0.19478 0.99099 0.97175 0.0
N587 N 0.25046 0.96385 0.01782 0.0
loop_
_geom_bond_atom_site_label_1
_geom_bond_atom_site_label_2
_geom_bond_distance
_geom_bond_site_symmetry_2
_ccdc_geom_bond_type
C0 O1 1.160 . S
C0 O7 1.185 . S
O1 C0 1.160 . S
O2 Zn3 1.899 . S
O2 C10 1.284 . S
Zn3 O2 1.899 . S
Zn3 O4 2.032 . S
Zn3 O7 2.086 . S
Zn3 O12 1.977 . S
O4 Zn3 2.032 . S
O4 C8 1.278 . S
C5 O6 1.203 . S
C5 O12 1.267 . S
O6 C5 1.203 . S
O7 C0 1.185 . S
O7 Zn3 2.086 . S
C8 O4 1.278 . S
C8 O9 1.211 . S
O9 C8 1.211 . S
C10 O2 1.284 . S
C10 O11 1.273 . S
O11 C10 1.273 . S
O12 Zn3 1.977 . S
O12 C5 1.267 . S
C13 O14 1.160 . S
C13 O20 1.185 . S
O14 C13 1.160 . S
O15 Zn16 1.899 . S
O15 C23 1.284 . S
Zn16 O15 1.899 . S
Zn16 O17 2.032 . S
Zn16 O20 2.086 . S
Zn16 O25 1.977 . S
O17 Zn16 2.032 . S
O17 C21 1.278 1_655 S
C18 O19 1.203 . S
C18 O25 1.267 . S
O19 C18 1.203 . S
O20 C13 1.185 . S
O20 Zn16 2.086 . S
C21 O17 1.278 1_455 S
C21 O22 1.211 . S
O22 C21 1.211 . S
C23 O15 1.284 . S
C23 O24 1.273 1_655 S
O24 C23 1.273 1_455 S
O25 Zn16 1.977 . S
O25 C18 1.267 . S
C26 O27 1.160 . S
C26 O33 1.185 . S
O27 C26 1.160 . S
O28 Zn29 1.899 . S
O28 C36 1.284 . S
Zn29 O28 1.899 . S
Zn29 O30 2.032 . S
Zn29 O33 2.086 . S
Zn29 O38 1.977 . S
O30 Zn29 2.032 . S
O30 C34 1.278 1_565 S
C31 O32 1.203 . S
C31 O38 1.267 . S
O32 C31 1.203 . S
O33 C26 1.185 . S
O33 Zn29 2.086 . S
C34 O30 1.278 1_545 S
C34 O35 1.211 . S
O35 C34 1.211 . S
C36 O28 1.284 . S
C36 O37 1.273 1_565 S
O37 C36 1.273 1_545 S
O38 Zn29 1.977 . S
O38 C31 1.267 . S
C39 O40 1.160 . S
C39 O46 1.185 . S
O40 C39 1.160 . S
O41 Zn42 1.899 . S
O41 C49 1.284 . S
Zn42 O41 1.899 . S
Zn42 O43 2.032 . S
Zn42 O46 2.086 . S
Zn42 O51 1.977 . S
O43 Zn42 2.032 . S
O43 C47 1.278 . S
C44 O45 1.203 . S
C44 O51 1.267 . S
O45 C44 1.203 . S
O46 C39 1.185 . S
O46 Zn42 2.086 . S
C47 O43 1.278 . S
C47 O48 1.211 . S
O48 C47 1.211 . S
C49 O41 1.284 . S
C49 O50 1.273 . S
O50 C49 1.273 . S
O51 Zn42 1.977 . S
O51 C44 1.267 . S
C52 O53 1.160 . S
C52 O59 1.185 . S
O53 C52 1.160 . S
O54 Zn55 1.899 . S
O54 C62 1.284 . S
Zn55 O54 1.899 . S
Zn55 O56 2.032 . S
Zn55 O59 2.086 . S
Zn55 O64 1.977 . S
O56 Zn55 2.032 . S
O56 C60 1.278 1_455 S
C57 O58 1.203 . S
C57 O64 1.267 . S
O58 C57 1.203 . S
O59 C52 1.185 . S
O59 Zn55 2.086 . S
C60 O56 1.278 1_655 S
C60 O61 1.211 . S
O61 C60 1.211 . S
C62 O54 1.284 . S
C62 O63 1.273 1_455 S
O63 C62 1.273 1_655 S
O64 Zn55 1.977 . S
O64 C57 1.267 . S
C65 O66 1.160 . S
C65 O72 1.185 . S
O66 C65 1.160 . S
O67 Zn68 1.899 . S
O67 C75 1.284 . S
Zn68 O67 1.899 . S
Zn68 O69 2.032 . S
Zn68 O72 2.086 . S
Zn68 O77 1.977 . S
O69 Zn68 2.032 . S
O69 C73 1.278 1_545 S
C70 O71 1.203 . S
C70 O77 1.267 . S
O71 C70 1.203 . S
O72 C65 1.185 . S
O72 Zn68 2.086 . S
C73 O69 1.278 1_565 S
C73 O74 1.211 . S
O74 C73 1.211 . S
C75 O67 1.284 . S
C75 O76 1.273 1_545 S
O76 C75 1.273 1_565 S
O77 Zn68 1.977 . S
O77 C70 1.267 . S
C78 O79 1.160 . S
C78 O85 1.185 . S
O79 C78 1.160 . S
O80 Zn81 1.899 . S
O80 C88 1.284 . S
Zn81 O80 1.899 . S
Zn81 O82 2.032 . S
Zn81 O85 2.086 . S
Zn81 O90 1.977 . S
O82 Zn81 2.032 . S
O82 C86 1.278 . S
C83 O84 1.203 . S
C83 O90 1.267 . S
O84 C83 1.203 . S
O85 C78 1.185 . S
O85 Zn81 2.086 . S
C86 O82 1.278 . S
C86 O87 1.211 . S
O87 C86 1.211 . S
C88 O80 1.284 . S
C88 O89 1.273 . S
O89 C88 1.273 . S
O90 Zn81 1.977 . S
O90 C83 1.267 . S
C91 O92 1.160 . S
C91 O98 1.185 . S
O92 C91 1.160 . S
O93 Zn94 1.899 . S
O93 C101 1.284 . S
Zn94 O93 1.899 . S
Zn94 O95 2.032 . S
Zn94 O98 2.086 . S
Zn94 O103 1.977 . S
O95 Zn94 2.032 . S
O95 C99 1.278 1_655 S
C96 O97 1.203 . S
C96 O103 1.267 . S
O97 C96 1.203 . S
O98 C91 1.185 . S
O98 Zn94 2.086 . S
C99 O95 1.278 1_455 S
C99 O100 1.211 . S
O100 C99 1.211 . S
C101 O93 1.284 . S
C101 O102 1.273 1_655 S
O102 C101 1.273 1_455 S
O103 Zn94 1.977 . S
O103 C96 1.267 . S
C104 O105 1.160 . S
C104 O111 1.185 . S
O105 C104 1.160 . S
O106 Zn107 1.899 . S
O106 C114 1.284 . S
Zn107 O106 1.899 . S
Zn107 O108 2.032 . S
Zn107 O111 2.086 . S
Zn107 O116 1.977 . S
O108 Zn107 2.032 . S
O108 C112 1.278 1_565 S
C109 O110 1.203 . S
C109 O116 1.267 . S
O110 C109 1.203 . S
O111 C104 1.185 . S
O111 Zn107 2.086 . S
C112 O108 1.278 1_545 S
C112 O113 1.211 . S
O113 C112 1.211 . S
C114 O106 1.284 . S
C114 O115 1.273 1_565 S
O115 C114 1.273 1_545 S
O116 Zn107 1.977 . S
O116 C109 1.267 . S
C117 O118 1.160 . S
C117 O124 1.185 . S
O118 C117 1.160 . S
O119 Zn120 1.899 . S
O119 C127 1.284 . S
Zn120 O119 1.899 . S
Zn120 O121 2.032 . S
Zn120 O124 2.086 . S
Zn120 O129 1.977 . S
O121 Zn120 2.032 . S
O121 C125 1.278 . S
C122 O123 1.203 . S
C122 O129 1.267 . S
O123 C122 1.203 . S
O124 C117 1.185 . S
O124 Zn120 2.086 . S
C125 O121 1.278 . S
C125 O126 1.211 . S
O126 C125 1.211 . S
C127 O119 1.284 . S
C127 O128 1.273 . S
O128 C127 1.273 . S
O129 Zn120 1.977 . S
O129 C122 1.267 . S
C130 O131 1.160 . S
C130 O137 1.185 . S
O131 C130 1.160 . S
O132 Zn133 1.899 . S
O132 C140 1.284 . S
Zn133 O132 1.899 . S
Zn133 O134 2.032 . S
Zn133 O137 2.086 . S
Zn133 O142 1.977 . S
O134 Zn133 2.032 . S
O134 C138 1.278 1_455 S
C135 O136 1.203 . S
C135 O142 1.267 . S
O136 C135 1.203 . S
O137 C130 1.185 . S
O137 Zn133 2.086 . S
C138 O134 1.278 1_655 S
C138 O139 1.211 . S
O139 C138 1.211 . S
C140 O132 1.284 . S
C140 O141 1.273 1_455 S
O141 C140 1.273 1_655 S
O142 Zn133 1.977 . S
O142 C135 1.267 . S
C143 O144 1.160 . S
C143 O150 1.185 . S
O144 C143 1.160 . S
O145 Zn146 1.899 . S
O145 C153 1.284 . S
Zn146 O145 1.899 . S
Zn146 O147 2.032 . S
Zn146 O150 2.086 . S
Zn146 O155 1.977 . S
O147 Zn146 2.032 . S
O147 C151 1.278 1_545 S
C148 O149 1.203 . S
C148 O155 1.267 . S
O149 C148 1.203 . S
O150 C143 1.185 . S
O150 Zn146 2.086 . S
C151 O147 1.278 1_565 S
C151 O152 1.211 . S
O152 C151 1.211 . S
C153 O145 1.284 . S
C153 O154 1.273 1_545 S
O154 C153 1.273 1_565 S
O155 Zn146 1.977 . S
O155 C148 1.267 . S
H156 C162 0.930 . S
H157 C166 0.930 . S
H158 C171 0.929 . S
H159 C169 0.929 . S
H160 C164 0.929 . S
H161 C170 0.929 . S
C162 H156 0.930 . S
C162 C163 1.367 . S
C162 C170 1.378 . S
C163 C162 1.367 . S
C163 C171 1.433 . S
C164 H160 0.929 . S
C164 C166 1.378 . S
C164 C168 1.350 . S
C165 C168 1.463 1_655 S
C165 C170 1.350 . S
C165 N173 1.427 . S
C166 H157 0.930 . S
C166 C164 1.378 . S
C166 C167 1.367 . S
C167 C166 1.367 . S
C167 C169 1.433 . S
C168 C164 1.350 . S
C168 C165 1.463 1_455 S
C168 N172 1.427 . S
C169 H159 0.929 . S
C169 C167 1.433 . S
C169 N172 1.384 . S
C170 H161 0.929 . S
C170 C162 1.378 . S
C170 C165 1.350 . S
C171 H158 0.929 . S
C171 C163 1.433 . S
C171 N173 1.384 . S
N172 C168 1.427 . S
N172 C169 1.384 . S
N173 C165 1.427 . S
N173 C171 1.384 . S
H174 C180 0.930 . S
H175 C184 0.930 . S
H176 C189 0.929 . S
H177 C187 0.929 . S
H178 C182 0.929 . S
H179 C188 0.929 . S
C180 H174 0.930 . S
C180 C181 1.367 . S
C180 C188 1.378 . S
C181 C180 1.367 . S
C181 C189 1.433 . S
C182 H178 0.929 . S
C182 C184 1.378 . S
C182 C186 1.350 . S
C183 C186 1.463 1_545 S
C183 C188 1.350 . S
C183 N191 1.427 . S
C184 H175 0.930 . S
C184 C182 1.378 . S
C184 C185 1.367 . S
C185 C184 1.367 . S
C185 C187 1.433 . S
C186 C182 1.350 . S
C186 C183 1.463 1_565 S
C186 N190 1.427 . S
C187 H177 0.929 . S
C187 C185 1.433 . S
C187 N190 1.384 . S
C188 H179 0.929 . S
C188 C180 1.378 . S
C188 C183 1.350 . S
C189 H176 0.929 . S
C189 C181 1.433 . S
C189 N191 1.384 . S
N190 C186 1.427 . S
N190 C187 1.384 . S
N191 C183 1.427 . S
N191 C189 1.384 . S
H192 C198 0.930 . S
H193 C202 0.930 . S
H194 C207 0.929 . S
H195 C205 0.929 . S
H196 C200 0.929 . S
H197 C206 0.929 . S
C198 H192 0.930 . S
C198 C199 1.367 . S
C198 C206 1.378 . S
C199 C198 1.367 . S
C199 C207 1.433 . S
C200 H196 0.929 . S
C200 C202 1.378 . S
C200 C204 1.350 . S
C201 C204 1.463 . S
C201 C206 1.350 . S
C201 N209 1.427 . S
C202 H193 0.930 . S
C202 C200 1.378 . S
C202 C203 1.367 . S
C203 C202 1.367 . S
C203 C205 1.433 . S
C204 C200 1.350 . S
C204 C201 1.463 . S
C204 N208 1.427 . S
C205 H195 0.929 . S
C205 C203 1.433 . S
C205 N208 1.384 . S
C206 H197 0.929 . S
C206 C198 1.378 . S
C206 C201 1.350 . S
C207 H194 0.929 . S
C207 C199 1.433 . S
C207 N209 1.384 . S
N208 C204 1.427 . S
N208 C205 1.384 . S
N209 C201 1.427 . S
N209 C207 1.384 . S
H210 C216 0.930 . S
H211 C220 0.930 . S
H212 C225 0.929 . S
H213 C223 0.929 . S
H214 C218 0.929 . S
H215 C224 0.929 . S
C216 H210 0.930 . S
C216 C217 1.367 . S
C216 C224 1.378 . S
C217 C216 1.367 . S
C217 C225 1.433 . S
C218 H214 0.929 . S
C218 C220 1.378 . S
C218 C222 1.350 . S
C219 C222 1.463 1_655 S
C219 C224 1.350 . S
C219 N227 1.427 . S
C220 H211 0.930 . S
C220 C218 1.378 . S
C220 C221 1.367 . S
C221 C220 1.367 . S
C221 C223 1.433 . S
C222 C218 1.350 . S
C222 C219 1.463 1_455 S
C222 N226 1.427 . S
C223 H213 0.929 . S
C223 C221 1.433 . S
C223 N226 1.384 . S
C224 H215 0.929 . S
C224 C216 1.378 . S
C224 C219 1.350 . S
C225 H212 0.929 . S
C225 C217 1.433 . S
C225 N227 1.384 . S
N226 C222 1.427 . S
N226 C223 1.384 . S
N227 C219 1.427 . S
N227 C225 1.384 . S
H228 C234 0.930 . S
H229 C238 0.930 . S
H230 C243 0.929 . S
H231 C241 0.929 . S
H232 C236 0.929 . S
H233 C242 0.929 . S
C234 H228 0.930 . S
C234 C235 1.367 . S
C234 C242 1.378 . S
C235 C234 1.367 . S
C235 C243 1.433 . S
C236 H232 0.929 . S
C236 C238 1.378 . S
C236 C240 1.350 . S
C237 C240 1.463 1_545 S
C237 C242 1.350 . S
C237 N245 1.427 . S
C238 H229 0.930 . S
C238 C236 1.378 . S
C238 C239 1.367 . S
C239 C238 1.367 . S
C239 C241 1.433 . S
C240 C236 1.350 . S
C240 C237 1.463 1_565 S
C240 N244 1.427 . S
C241 H231 0.929 . S
C241 C239 1.433 . S
C241 N244 1.384 . S
C242 H233 0.929 . S
C242 C234 1.378 . S
C242 C237 1.350 . S
C243 H230 0.929 . S
C243 C235 1.433 . S
C243 N245 1.384 . S
N244 C240 1.427 . S
N244 C241 1.384 . S
N245 C237 1.427 . S
N245 C243 1.384 . S
H246 C252 0.930 . S
H247 C256 0.930 . S
H248 C261 0.929 . S
H249 C259 0.929 . S
H250 C254 0.929 . S
H251 C260 0.929 . S
C252 H246 0.930 . S
C252 C253 1.367 . S
C252 C260 1.378 . S
C253 C252 1.367 . S
C253 C261 1.433 . S
C254 H250 0.929 . S
C254 C256 1.378 . S
C254 C258 1.350 . S
C255 C258 1.463 . S
C255 C260 1.350 . S
C255 N263 1.427 . S
C256 H247 0.930 . S
C256 C254 1.378 . S
C256 C257 1.367 . S
C257 C256 1.367 . S
C257 C259 1.433 . S
C258 C254 1.350 . S
C258 C255 1.463 . S
C258 N262 1.427 . S
C259 H249 0.929 . S
C259 C257 1.433 . S
C259 N262 1.384 . S
C260 H251 0.929 . S
C260 C252 1.378 . S
C260 C255 1.350 . S
C261 H248 0.929 . S
C261 C253 1.433 . S
C261 N263 1.384 . S
N262 C258 1.427 . S
N262 C259 1.384 . S
N263 C255 1.427 . S
N263 C261 1.384 . S
H264 C270 0.930 . S
H265 C274 0.930 . S
H266 C279 0.929 . S
H267 C277 0.929 . S
H268 C272 0.929 . S
H269 C278 0.929 . S
C270 H264 0.930 . S
C270 C271 1.367 . S
C270 C278 1.378 . S
C271 C270 1.367 . S
C271 C279 1.433 . S
C272 H268 0.929 . S
C272 C274 1.378 . S
C272 C276 1.350 . S
C273 C276 1.463 . S
C273 C278 1.350 . S
C273 N281 1.427 . S
C274 H265 0.930 . S
C274 C272 1.378 . S
C274 C275 1.367 . S
C275 C274 1.367 . S
C275 C277 1.433 . S
C276 C272 1.350 . S
C276 C273 1.463 . S
C276 N280 1.427 . S
C277 H267 0.929 . S
C277 C275 1.433 . S
C277 N280 1.384 . S
C278 H269 0.929 . S
C278 C270 1.378 . S
C278 C273 1.350 . S
C279 H266 0.929 . S
C279 C271 1.433 . S
C279 N281 1.384 . S
N280 C276 1.427 . S
N280 C277 1.384 . S
N281 C273 1.427 . S
N281 C279 1.384 . S
H282 C288 0.930 . S
H283 C292 0.930 . S
H284 C297 0.929 1_655 S
H285 C295 0.929 1_455 S
H286 C290 0.929 . S
H287 C296 0.929 . S
C288 H282 0.930 . S
C288 C289 1.367 . S
C288 C296 1.378 . S
C289 C288 1.367 . S
C289 C297 1.433 . S
C290 H286 0.929 . S
C290 C292 1.378 . S
C290 C294 1.350 . S
C291 C294 1.463 1_455 S
C291 C296 1.350 . S
C291 N299 1.427 1_455 S
C292 H283 0.930 . S
C292 C290 1.378 . S
C292 C293 1.367 . S
C293 C292 1.367 . S
C293 C295 1.433 . S
C294 C290 1.350 . S
C294 C291 1.463 1_655 S
C294 N298 1.427 1_655 S
C295 H285 0.929 1_655 S
C295 C293 1.433 . S
C295 N298 1.384 1_655 S
C296 H287 0.929 . S
C296 C288 1.378 . S
C296 C291 1.350 . S
C297 H284 0.929 1_455 S
C297 C289 1.433 . S
C297 N299 1.384 1_455 S
N298 C294 1.427 1_455 S
N298 C295 1.384 1_455 S
N299 C291 1.427 1_655 S
N299 C297 1.384 1_655 S
H300 C306 0.930 . S
H301 C310 0.930 . S
H302 C315 0.929 . S
H303 C313 0.929 . S
H304 C308 0.929 . S
H305 C314 0.929 . S
C306 H300 0.930 . S
C306 C307 1.367 . S
C306 C314 1.378 . S
C307 C306 1.367 . S
C307 C315 1.433 . S
C308 H304 0.929 . S
C308 C310 1.378 . S
C308 C312 1.350 . S
C309 C312 1.463 1_545 S
C309 C314 1.350 . S
C309 N317 1.427 . S
C310 H301 0.930 . S
C310 C308 1.378 . S
C310 C311 1.367 . S
C311 C310 1.367 . S
C311 C313 1.433 . S
C312 C308 1.350 . S
C312 C309 1.463 1_565 S
C312 N316 1.427 . S
C313 H303 0.929 . S
C313 C311 1.433 . S
C313 N316 1.384 . S
C314 H305 0.929 . S
C314 C306 1.378 . S
C314 C309 1.350 . S
C315 H302 0.929 . S
C315 C307 1.433 . S
C315 N317 1.384 . S
N316 C312 1.427 . S
N316 C313 1.384 . S
N317 C309 1.427 . S
N317 C315 1.384 . S
H318 C324 0.930 . S
H319 C328 0.930 . S
H320 C333 0.929 . S
H321 C331 0.929 . S
H322 C326 0.929 . S
H323 C332 0.929 . S
C324 H318 0.930 . S
C324 C325 1.367 . S
C324 C332 1.378 . S
C325 C324 1.367 . S
C325 C333 1.433 . S
C326 H322 0.929 . S
C326 C328 1.378 . S
C326 C330 1.350 . S
C327 C330 1.463 . S
C327 C332 1.350 . S
C327 N335 1.427 . S
C328 H319 0.930 . S
C328 C326 1.378 . S
C328 C329 1.367 . S
C329 C328 1.367 . S
C329 C331 1.433 . S
C330 C326 1.350 . S
C330 C327 1.463 . S
C330 N334 1.427 . S
C331 H321 0.929 . S
C331 C329 1.433 . S
C331 N334 1.384 . S
C332 H323 0.929 . S
C332 C324 1.378 . S
C332 C327 1.350 . S
C333 H320 0.929 . S
C333 C325 1.433 . S
C333 N335 1.384 . S
N334 C330 1.427 . S
N334 C331 1.384 . S
N335 C327 1.427 . S
N335 C333 1.384 . S
H336 C342 0.930 1_455 S
H337 C346 0.930 1_655 S
H338 C351 0.929 . S
H339 C349 0.929 . S
H340 C344 0.929 . S
H341 C350 0.929 . S
C342 H336 0.930 1_655 S
C342 C343 1.367 . S
C342 C350 1.378 1_655 S
C343 C342 1.367 . S
C343 C351 1.433 . S
C344 H340 0.929 . S
C344 C346 1.378 1_655 S
C344 C348 1.350 1_655 S
C345 C348 1.463 1_655 S
C345 C350 1.350 1_655 S
C345 N353 1.427 . S
C346 H337 0.930 1_455 S
C346 C344 1.378 1_455 S
C346 C347 1.367 . S
C347 C346 1.367 . S
C347 C349 1.433 . S
C348 C344 1.350 1_455 S
C348 C345 1.463 1_455 S
C348 N352 1.427 . S
C349 H339 0.929 . S
C349 C347 1.433 . S
C349 N352 1.384 . S
C350 H341 0.929 . S
C350 C342 1.378 1_455 S
C350 C345 1.350 1_455 S
C351 H338 0.929 . S
C351 C343 1.433 . S
C351 N353 1.384 . S
N352 C348 1.427 . S
N352 C349 1.384 . S
N353 C345 1.427 . S
N353 C351 1.384 . S
H354 C360 0.930 . S
H355 C364 0.930 . S
H356 C369 0.929 1_545 S
H357 C367 0.929 1_565 S
H358 C362 0.929 . S
H359 C368 0.929 . S
C360 H354 0.930 . S
C360 C361 1.367 . S
C360 C368 1.378 . S
C361 C360 1.367 . S
C361 C369 1.433 . S
C362 H358 0.929 . S
C362 C364 1.378 . S
C362 C366 1.350 . S
C363 C366 1.463 1_565 S
C363 C368 1.350 . S
C363 N371 1.427 1_565 S
C364 H355 0.930 . S
C364 C362 1.378 . S
C364 C365 1.367 . S
C365 C364 1.367 . S
C365 C367 1.433 . S
C366 C362 1.350 . S
C366 C363 1.463 1_545 S
C366 N370 1.427 1_545 S
C367 H357 0.929 1_545 S
C367 C365 1.433 . S
C367 N370 1.384 1_545 S
C368 H359 0.929 . S
C368 C360 1.378 . S
C368 C363 1.350 . S
C369 H356 0.929 1_565 S
C369 C361 1.433 . S
C369 N371 1.384 1_565 S
N370 C366 1.427 1_565 S
N370 C367 1.384 1_565 S
N371 C363 1.427 1_545 S
N371 C369 1.384 1_545 S
H372 C378 0.930 . S
H373 C382 0.930 . S
H374 C387 0.929 . S
H375 C385 0.929 . S
H376 C380 0.929 . S
H377 C386 0.929 . S
C378 H372 0.930 . S
C378 C379 1.367 . S
C378 C386 1.378 . S
C379 C378 1.367 . S
C379 C387 1.433 . S
C380 H376 0.929 . S
C380 C382 1.378 . S
C380 C384 1.350 . S
C381 C384 1.463 . S
C381 C386 1.350 . S
C381 N389 1.427 . S
C382 H373 0.930 . S
C382 C380 1.378 . S
C382 C383 1.367 . S
C383 C382 1.367 . S
C383 C385 1.433 . S
C384 C380 1.350 . S
C384 C381 1.463 . S
C384 N388 1.427 . S
C385 H375 0.929 . S
C385 C383 1.433 . S
C385 N388 1.384 . S
C386 H377 0.929 . S
C386 C378 1.378 . S
C386 C381 1.350 . S
C387 H374 0.929 . S
C387 C379 1.433 . S
C387 N389 1.384 . S
N388 C384 1.427 . S
N388 C385 1.384 . S
N389 C381 1.427 . S
N389 C387 1.384 . S
H390 C396 0.930 . S
H391 C400 0.930 . S
H392 C405 0.929 . S
H393 C403 0.929 . S
H394 C398 0.929 . S
H395 C404 0.929 . S
C396 H390 0.930 . S
C396 C397 1.367 . S
C396 C404 1.378 . S
C397 C396 1.367 . S
C397 C405 1.433 . S
C398 H394 0.929 . S
C398 C400 1.378 . S
C398 C402 1.350 . S
C399 C402 1.463 . S
C399 C404 1.350 . S
C399 N407 1.427 . S
C400 H391 0.930 . S
C400 C398 1.378 . S
C400 C401 1.367 . S
C401 C400 1.367 . S
C401 C403 1.433 . S
C402 C398 1.350 . S
C402 C399 1.463 . S
C402 N406 1.427 . S
C403 H393 0.929 . S
C403 C401 1.433 . S
C403 N406 1.384 . S
C404 H395 0.929 . S
C404 C396 1.378 . S
C404 C399 1.350 . S
C405 H392 0.929 . S
C405 C397 1.433 . S
C405 N407 1.384 . S
N406 C402 1.427 . S
N406 C403 1.384 . S
N407 C399 1.427 . S
N407 C405 1.384 . S
H408 C414 0.930 . S
H409 C418 0.930 . S
H410 C423 0.929 . S
H411 C421 0.929 . S
H412 C416 0.929 . S
H413 C422 0.929 . S
C414 H408 0.930 . S
C414 C415 1.367 . S
C414 C422 1.378 . S
C415 C414 1.367 . S
C415 C423 1.433 . S
C416 H412 0.929 . S
C416 C418 1.378 . S
C416 C420 1.350 . S
C417 C420 1.463 . S
C417 C422 1.350 . S
C417 N425 1.427 . S
C418 H409 0.930 . S
C418 C416 1.378 . S
C418 C419 1.367 . S
C419 C418 1.367 . S
C419 C421 1.433 . S
C420 C416 1.350 . S
C420 C417 1.463 . S
C420 N424 1.427 . S
C421 H411 0.929 . S
C421 C419 1.433 . S
C421 N424 1.384 . S
C422 H413 0.929 . S
C422 C414 1.378 . S
C422 C417 1.350 . S
C423 H410 0.929 . S
C423 C415 1.433 . S
C423 N425 1.384 . S
N424 C420 1.427 . S
N424 C421 1.384 . S
N425 C417 1.427 . S
N425 C423 1.384 . S
H426 C432 0.930 . S
H427 C436 0.930 . S
H428 C441 0.929 . S
H429 C439 0.929 . S
H430 C434 0.929 . S
H431 C440 0.929 . S
C432 H426 0.930 . S
C432 C433 1.367 . S
C432 C440 1.378 . S
C433 C432 1.367 . S
C433 C441 1.433 . S
C434 H430 0.929 . S
C434 C436 1.378 . S
C434 C438 1.350 . S
C435 C438 1.463 . S
C435 C440 1.350 . S
C435 N443 1.427 . S
C436 H427 0.930 . S
C436 C434 1.378 . S
C436 C437 1.367 . S
C437 C436 1.367 . S
C437 C439 1.433 . S
C438 C434 1.350 . S
C438 C435 1.463 . S
C438 N442 1.427 . S
C439 H429 0.929 . S
C439 C437 1.433 . S
C439 N442 1.384 . S
C440 H431 0.929 . S
C440 C432 1.378 . S
C440 C435 1.350 . S
C441 H428 0.929 . S
C441 C433 1.433 . S
C441 N443 1.384 . S
N442 C438 1.427 . S
N442 C439 1.384 . S
N443 C435 1.427 . S
N443 C441 1.384 . S
H444 C450 0.930 . S
H445 C454 0.930 . S
H446 C459 0.929 . S
H447 C457 0.929 . S
H448 C452 0.929 . S
H449 C458 0.929 . S
C450 H444 0.930 . S
C450 C451 1.367 . S
C450 C458 1.378 . S
C451 C450 1.367 . S
C451 C459 1.433 . S
C452 H448 0.929 . S
C452 C454 1.378 . S
C452 C456 1.350 . S
C453 C456 1.463 . S
C453 C458 1.350 . S
C453 N461 1.427 . S
C454 H445 0.930 . S
C454 C452 1.378 . S
C454 C455 1.367 . S
C455 C454 1.367 . S
C455 C457 1.433 . S
C456 C452 1.350 . S
C456 C453 1.463 . S
C456 N460 1.427 . S
C457 H447 0.929 . S
C457 C455 1.433 . S
C457 N460 1.384 . S
C458 H449 0.929 . S
C458 C450 1.378 . S
C458 C453 1.350 . S
C459 H446 0.929 . S
C459 C451 1.433 . S
C459 N461 1.384 . S
N460 C456 1.427 . S
N460 C457 1.384 . S
N461 C453 1.427 . S
N461 C459 1.384 . S
H462 C468 0.930 . S
H463 C472 0.930 . S
H464 C477 0.929 . S
H465 C475 0.929 . S
H466 C470 0.929 . S
H467 C476 0.929 . S
C468 H462 0.930 . S
C468 C469 1.367 . S
C468 C476 1.378 . S
C469 C468 1.367 . S
C469 C477 1.433 . S
C470 H466 0.929 . S
C470 C472 1.378 . S
C470 C474 1.350 . S
C471 C474 1.463 . S
C471 C476 1.350 . S
C471 N479 1.427 . S
C472 H463 0.930 . S
C472 C470 1.378 . S
C472 C473 1.367 . S
C473 C472 1.367 . S
C473 C475 1.433 . S
C474 C470 1.350 . S
C474 C471 1.463 . S
C474 N478 1.427 . S
C475 H465 0.929 . S
C475 C473 1.433 . S
C475 N478 1.384 . S
C476 H467 0.929 . S
C476 C468 1.378 . S
C476 C471 1.350 . S
C477 H464 0.929 . S
C477 C469 1.433 . S
C477 N479 1.384 . S
N478 C474 1.427 . S
N478 C475 1.384 . S
N479 C471 1.427 . S
N479 C477 1.384 . S
H480 C486 0.930 . S
H481 C490 0.930 . S
H482 C495 0.929 . S
H483 C493 0.929 . S
H484 C488 0.929 . S
H485 C494 0.929 . S
C486 H480 0.930 . S
C486 C487 1.367 . S
C486 C494 1.378 . S
C487 C486 1.367 . S
C487 C495 1.433 . S
C488 H484 0.929 . S
C488 C490 1.378 . S
C488 C492 1.350 . S
C489 C492 1.463 . S
C489 C494 1.350 . S
C489 N497 1.427 . S
C490 H481 0.930 . S
C490 C488 1.378 . S
C490 C491 1.367 . S
C491 C490 1.367 . S
C491 C493 1.433 . S
C492 C488 1.350 . S
C492 C489 1.463 . S
C492 N496 1.427 . S
C493 H483 0.929 . S
C493 C491 1.433 . S
C493 N496 1.384 . S
C494 H485 0.929 . S
C494 C486 1.378 . S
C494 C489 1.350 . S
C495 H482 0.929 . S
C495 C487 1.433 . S
C495 N497 1.384 . S
N496 C492 1.427 . S
N496 C493 1.384 . S
N497 C489 1.427 . S
N497 C495 1.384 . S
H498 C504 0.930 . S
H499 C508 0.930 . S
H500 C513 0.929 . S
H501 C511 0.929 . S
H502 C506 0.929 . S
H503 C512 0.929 . S
C504 H498 0.930 . S
C504 C505 1.367 1_455 S
C504 C512 1.378 . S
C505 C504 1.367 1_655 S
C505 C513 1.433 . S
C506 H502 0.929 . S
C506 C508 1.378 . S
C506 C510 1.350 1_655 S
C507 C510 1.463 1_655 S
C507 C512 1.350 1_655 S
C507 N515 1.427 . S
C508 H499 0.930 . S
C508 C506 1.378 . S
C508 C509 1.367 1_655 S
C509 C508 1.367 1_455 S
C509 C511 1.433 . S
C510 C506 1.350 1_455 S
C510 C507 1.463 1_455 S
C510 N514 1.427 . S
C511 H501 0.929 . S
C511 C509 1.433 . S
C511 N514 1.384 . S
C512 H503 0.929 . S
C512 C504 1.378 . S
C512 C507 1.350 1_455 S
C513 H500 0.929 . S
C513 C505 1.433 . S
C513 N515 1.384 . S
N514 C510 1.427 . S
N514 C511 1.384 . S
N515 C507 1.427 . S
N515 C513 1.384 . S
H516 C522 0.930 . S
H517 C526 0.930 . S
H518 C531 0.929 . S
H519 C529 0.929 . S
H520 C524 0.929 . S
H521 C530 0.929 . S
C522 H516 0.930 . S
C522 C523 1.367 . S
C522 C530 1.378 . S
C523 C522 1.367 . S
C523 C531 1.433 1_545 S
C524 H520 0.929 . S
C524 C526 1.378 . S
C524 C528 1.350 . S
C525 C528 1.463 1_544 S
C525 C530 1.350 . S
C525 N533 1.427 1_545 S
C526 H517 0.930 . S
C526 C524 1.378 . S
C526 C527 1.367 . S
C527 C526 1.367 . S
C527 C529 1.433 1_565 S
C528 C524 1.350 . S
C528 C525 1.463 1_566 S
C528 N532 1.427 1_565 S
C529 H519 0.929 . S
C529 C527 1.433 1_545 S
C529 N532 1.384 . S
C530 H521 0.929 . S
C530 C522 1.378 . S
C530 C525 1.350 . S
C531 H518 0.929 . S
C531 C523 1.433 1_565 S
C531 N533 1.384 . S
N532 C528 1.427 1_545 S
N532 C529 1.384 . S
N533 C525 1.427 1_565 S
N533 C531 1.384 . S
H534 C540 0.930 . S
H535 C544 0.930 . S
H536 C549 0.929 . S
H537 C547 0.929 . S
H538 C542 0.929 . S
H539 C548 0.929 . S
C540 H534 0.930 . S
C540 C541 1.367 . S
C540 C548 1.378 . S
C541 C540 1.367 . S
C541 C549 1.433 . S
C542 H538 0.929 . S
C542 C544 1.378 . S
C542 C546 1.350 . S
C543 C546 1.463 . S
C543 C548 1.350 . S
C543 N551 1.427 . S
C544 H535 0.930 . S
C544 C542 1.378 . S
C544 C545 1.367 . S
C545 C544 1.367 . S
C545 C547 1.433 . S
C546 C542 1.350 . S
C546 C543 1.463 . S
C546 N550 1.427 . S
C547 H537 0.929 . S
C547 C545 1.433 . S
C547 N550 1.384 . S
C548 H539 0.929 . S
C548 C540 1.378 . S
C548 C543 1.350 . S
C549 H536 0.929 . S
C549 C541 1.433 . S
C549 N551 1.384 . S
N550 C546 1.427 . S
N550 C547 1.384 . S
N551 C543 1.427 . S
N551 C549 1.384 . S
H552 C558 0.930 . S
H553 C562 0.930 . S
H554 C567 0.929 . S
H555 C565 0.929 . S
H556 C560 0.929 . S
H557 C566 0.929 . S
C558 H552 0.930 . S
C558 C559 1.367 . S
C558 C566 1.378 . S
C559 C558 1.367 . S
C559 C567 1.433 . S
C560 H556 0.929 . S
C560 C562 1.378 . S
C560 C564 1.350 . S
C561 C564 1.463 1_455 S
C561 C566 1.350 . S
C561 N569 1.427 . S
C562 H553 0.930 . S
C562 C560 1.378 . S
C562 C563 1.367 . S
C563 C562 1.367 . S
C563 C565 1.433 . S
C564 C560 1.350 . S
C564 C561 1.463 1_655 S
C564 N568 1.427 . S
C565 H555 0.929 . S
C565 C563 1.433 . S
C565 N568 1.384 . S
C566 H557 0.929 . S
C566 C558 1.378 . S
C566 C561 1.350 . S
C567 H554 0.929 . S
C567 C559 1.433 . S
C567 N569 1.384 . S
N568 C564 1.427 . S
N568 C565 1.384 . S
N569 C561 1.427 . S
N569 C567 1.384 . S
H570 C576 0.930 . S
H571 C580 0.930 . S
H572 C585 0.929 . S
H573 C583 0.929 . S
H574 C578 0.929 . S
H575 C584 0.929 . S
C576 H570 0.930 . S
C576 C577 1.367 . S
C576 C584 1.378 . S
C577 C576 1.367 . S
C577 C585 1.433 . S
C578 H574 0.929 . S
C578 C580 1.378 . S
C578 C582 1.350 . S
C579 C582 1.463 1_564 S
C579 C584 1.350 . S
C579 N587 1.427 . S
C580 H571 0.930 . S
C580 C578 1.378 . S
C580 C581 1.367 . S
C581 C580 1.367 . S
C581 C583 1.433 . S
C582 C578 1.350 . S
C582 C579 1.463 1_546 S
C582 N586 1.427 . S
C583 H573 0.929 . S
C583 C581 1.433 . S
C583 N586 1.384 . S
C584 H575 0.929 . S
C584 C576 1.378 . S
C584 C579 1.350 . S
C585 H572 0.929 . S
C585 C577 1.433 . S
C585 N587 1.384 . S
N586 C582 1.427 . S
N586 C583 1.384 . S
N587 C579 1.427 . S
N587 C585 1.384 . S
C163 C143 1.471 . S
C167 C0 1.469 . S
C181 C13 1.463 . S
C185 C78 1.471 . S
C199 C26 1.463 . S
C203 C91 1.458 . S
C217 C39 1.467 . S
C221 C104 1.472 . S
C235 C117 1.466 . S
C239 C52 1.472 . S
C253 C65 1.468 . S
C257 C130 1.459 . S
C271 C44 1.129 . S
C275 C5 1.131 . S
C289 C57 1.148 . S
C293 C18 1.153 . S
C307 C70 1.130 . S
C311 C31 1.147 . S
C325 C83 1.141 . S
C329 C122 1.127 . S
C343 C96 1.126 . S
C347 C135 1.137 . S
C361 C109 1.153 . S
C365 C148 1.148 . S
C379 C112 0.600 . S
C383 C8 0.603 . S
C397 C21 0.596 . S
C401 C125 0.607 . S
C415 C138 0.606 . S
C419 C34 0.598 . S
C433 C151 0.596 . S
C437 C47 0.605 . S
C451 C86 0.609 . S
C455 C60 0.592 . S
C469 C73 0.596 . S
C473 C99 0.607 . S
C487 C127 1.553 . S
C491 C10 1.551 . S
C505 C23 1.548 . S
C509 C140 1.549 . S
C523 C153 1.559 . S
C527 C36 1.559 . S
C541 C49 1.559 . S
C545 C88 1.558 . S
C559 C62 1.555 . S
C563 C101 1.556 . S
C577 C114 1.554 . S
C581 C75 1.555 . S
