# Generated by pormake.
# Topology gsi, (4)-cn, num edge types: 1
# Building blocks:
#     Node 0, Type 0, BuildingBlock: KUFVIS_clean_sbu_0, # of connection points: 4
#     Node 1, Type 0, BuildingBlock: KUFVIS_clean_sbu_0, # of connection points: 4
#     Node 2, Type 0, BuildingBlock: KUFVIS_clean_sbu_0, # of connection points: 4
#     Node 3, Type 0, BuildingBlock: KUFVIS_clean_sbu_0, # of connection points: 4
#     Node 4, Type 0, BuildingBlock: KUFVIS_clean_sbu_0, # of connection points: 4
#     Node 5, Type 0, BuildingBlock: KUFVIS_clean_sbu_0, # of connection points: 4
#     Node 6, Type 0, BuildingBlock: KUFVIS_clean_sbu_0, # of connection points: 4
#     Node 7, Type 0, BuildingBlock: KUFVIS_clean_sbu_0, # of connection points: 4
#     Node 8, Type 0, BuildingBlock: KUFVIS_clean_sbu_0, # of connection points: 4
#     Node 9, Type 0, BuildingBlock: KUFVIS_clean_sbu_0, # of connection points: 4
#     Node 10, Type 0, BuildingBlock: KUFVIS_clean_sbu_0, # of connection points: 4
#     Node 11, Type 0, BuildingBlock: KUFVIS_clean_sbu_0, # of connection points: 4
#     Node 12, Type 0, BuildingBlock: KUFVIS_clean_sbu_0, # of connection points: 4
#     Node 13, Type 0, BuildingBlock: KUFVIS_clean_sbu_0, # of connection points: 4
#     Node 14, Type 0, BuildingBlock: KUFVIS_clean_sbu_0, # of connection points: 4
#     Node 15, Type 0, BuildingBlock: KUFVIS_clean_sbu_0, # of connection points: 4
#     Edge 16, Type (0, 0), BuildingBlock: AJUNOK_clean_linker_0, # of connection points: 2
#     Edge 17, Type (0, 0), BuildingBlock: AJUNOK_clean_linker_0, # of connection points: 2
#     Edge 18, Type (0, 0), BuildingBlock: AJUNOK_clean_linker_0, # of connection points: 2
#     Edge 19, Type (0, 0), BuildingBlock: AJUNOK_clean_linker_0, # of connection points: 2
#     Edge 20, Type (0, 0), BuildingBlock: AJUNOK_clean_linker_0, # of connection points: 2
#     Edge 21, Type (0, 0), BuildingBlock: AJUNOK_clean_linker_0, # of connection points: 2
#     Edge 22, Type (0, 0), BuildingBlock: AJUNOK_clean_linker_0, # of connection points: 2
#     Edge 23, Type (0, 0), BuildingBlock: AJUNOK_clean_linker_0, # of connection points: 2
#     Edge 24, Type (0, 0), BuildingBlock: AJUNOK_clean_linker_0, # of connection points: 2
#     Edge 25, Type (0, 0), BuildingBlock: AJUNOK_clean_linker_0, # of connection points: 2
#     Edge 26, Type (0, 0), BuildingBlock: AJUNOK_clean_linker_0, # of connection points: 2
#     Edge 27, Type (0, 0), BuildingBlock: AJUNOK_clean_linker_0, # of connection points: 2
#     Edge 28, Type (0, 0), BuildingBlock: AJUNOK_clean_linker_0, # of connection points: 2
#     Edge 29, Type (0, 0), BuildingBlock: AJUNOK_clean_linker_0, # of connection points: 2
#     Edge 30, Type (0, 0), BuildingBlock: AJUNOK_clean_linker_0, # of connection points: 2
#     Edge 31, Type (0, 0), BuildingBlock: AJUNOK_clean_linker_0, # of connection points: 2
#     Edge 32, Type (0, 0), BuildingBlock: AJUNOK_clean_linker_0, # of connection points: 2
#     Edge 33, Type (0, 0), BuildingBlock: AJUNOK_clean_linker_0, # of connection points: 2
#     Edge 34, Type (0, 0), BuildingBlock: AJUNOK_clean_linker_0, # of connection points: 2
#     Edge 35, Type (0, 0), BuildingBlock: AJUNOK_clean_linker_0, # of connection points: 2
#     Edge 36, Type (0, 0), BuildingBlock: AJUNOK_clean_linker_0, # of connection points: 2
#     Edge 37, Type (0, 0), BuildingBlock: AJUNOK_clean_linker_0, # of connection points: 2
#     Edge 38, Type (0, 0), BuildingBlock: AJUNOK_clean_linker_0, # of connection points: 2
#     Edge 39, Type (0, 0), BuildingBlock: AJUNOK_clean_linker_0, # of connection points: 2
#     Edge 40, Type (0, 0), BuildingBlock: AJUNOK_clean_linker_0, # of connection points: 2
#     Edge 41, Type (0, 0), BuildingBlock: AJUNOK_clean_linker_0, # of connection points: 2
#     Edge 42, Type (0, 0), BuildingBlock: AJUNOK_clean_linker_0, # of connection points: 2
#     Edge 43, Type (0, 0), BuildingBlock: AJUNOK_clean_linker_0, # of connection points: 2
#     Edge 44, Type (0, 0), BuildingBlock: AJUNOK_clean_linker_0, # of connection points: 2
#     Edge 45, Type (0, 0), BuildingBlock: AJUNOK_clean_linker_0, # of connection points: 2
#     Edge 46, Type (0, 0), BuildingBlock: AJUNOK_clean_linker_0, # of connection points: 2
#     Edge 47, Type (0, 0), BuildingBlock: AJUNOK_clean_linker_0, # of connection points: 2
# Relax obj value: 0.108
# Max RMSD: 0.171
# Mean RMSD: 0.121
data_MOF--net-gsi--node1-KUFVIS_clean_sbu_0--edge1-AJUNOK_clean_linker_0
_symmetry_space_group_name_H-M    P1
_symmetry_Int_Tables_number       1
_symmetry_cell_setting            triclinic
loop_
_symmetry_equiv_pos_as_xyz
'x, y, z'
_cell_length_a     31.923053
_cell_length_b     29.336865
_cell_length_c     29.040894
_cell_angle_alpha  92.443098
_cell_angle_beta   91.24547
_cell_angle_gamma 97.531723
loop_
_atom_site_label
_atom_site_type_symbol
_atom_site_fract_x
_atom_site_fract_y
_atom_site_fract_z
_atom_type_partial_charge
Mn0 Mn 0.15191 0.1751 0.15617 0.0
Mn1 Mn 0.12085 0.1907 0.26406 0.0
C2 C 0.19109 0.23485 0.20256 0.0
C3 C 0.19016 0.14262 0.09755 0.0
C4 C 0.06876 0.20782 0.18113 0.0
O5 O 0.12091 0.11096 0.17382 0.0
O6 O 0.11458 0.1244 0.25049 0.0
C7 C 0.166 0.13617 0.3338 0.0
N8 N 0.15858 0.18459 0.31432 0.0
C9 C 0.21452 0.24974 0.37182 0.0
C10 C 0.23209 0.17108 0.4051 0.0
C11 C 0.20115 0.1264 0.37632 0.0
C12 C 0.17577 0.23515 0.32852 0.0
H13 H 0.14789 0.10533 0.3188 0.0
C14 C 0.11366 0.09716 0.2149 0.0
O15 O 0.15394 0.15636 0.0895 0.0
O16 O 0.20339 0.14536 0.14035 0.0
N17 N 0.12766 0.25695 0.27774 0.0
C18 C 0.11213 0.29049 0.25394 0.0
C19 C 0.11816 0.33626 0.27098 0.0
C20 C 0.14377 0.34851 0.31026 0.0
C21 C 0.16499 0.31535 0.33077 0.0
C22 C 0.15549 0.26924 0.31296 0.0
H23 H 0.09736 0.2836 0.22076 0.0
O24 O 0.18892 0.23631 0.15793 0.0
O25 O 0.16814 0.19906 0.21916 0.0
O26 O 0.09764 0.20845 0.15171 0.0
O27 O 0.07433 0.19251 0.22027 0.0
C28 C 0.19724 0.32934 0.36484 0.0
C29 C 0.22325 0.29996 0.38458 0.0
H30 H 0.25379 0.16334 0.43249 0.0
H31 H 0.20348 0.09148 0.38554 0.0
H32 H 0.10465 0.36242 0.25259 0.0
H33 H 0.14951 0.38434 0.32221 0.0
H34 H 0.20401 0.36547 0.37539 0.0
H35 H 0.22048 0.26655 0.37959 0.0
Mn36 Mn 0.84987 0.36061 0.18002 0.0
Mn37 Mn 0.88816 0.34667 0.28697 0.0
C38 C 0.81494 0.30248 0.22403 0.0
C39 C 0.80636 0.39028 0.12578 0.0
C40 C 0.93279 0.32347 0.19932 0.0
O41 O 0.88178 0.42463 0.20016 0.0
O42 O 0.89957 0.41256 0.27413 0.0
C43 C 0.85453 0.41137 0.35943 0.0
N44 N 0.85339 0.36063 0.33703 0.0
C45 C 0.79453 0.30649 0.39043 0.0
C46 C 0.79062 0.38965 0.43023 0.0
C47 C 0.82495 0.42862 0.40337 0.0
C48 C 0.82981 0.31283 0.34855 0.0
H49 H 0.87601 0.43874 0.34602 0.0
C50 C 0.89563 0.43902 0.24088 0.0
O51 O 0.84224 0.37732 0.11506 0.0
O52 O 0.7966 0.3887 0.16894 0.0
N53 N 0.87645 0.2825 0.30054 0.0
C54 C 0.89539 0.24678 0.28281 0.0
C55 C 0.88515 0.20255 0.29882 0.0
C56 C 0.85438 0.1948 0.33202 0.0
C57 C 0.83325 0.2311 0.34804 0.0
C58 C 0.8457 0.27498 0.33143 0.0
H59 H 0.91799 0.25144 0.25633 0.0
O60 O 0.81417 0.29887 0.17924 0.0
O61 O 0.83899 0.33881 0.24193 0.0
O62 O 0.90413 0.32946 0.17015 0.0
O63 O 0.92915 0.33303 0.24181 0.0
C64 C 0.80013 0.2235 0.37905 0.0
C65 C 0.77977 0.25898 0.39827 0.0
H66 H 0.77231 0.40147 0.45872 0.0
H67 H 0.82845 0.46452 0.41477 0.0
H68 H 0.90064 0.17438 0.28518 0.0
H69 H 0.84629 0.16036 0.34403 0.0
H70 H 0.78978 0.18874 0.38913 0.0
H71 H 0.75522 0.24779 0.42186 0.0
Mn72 Mn 0.16212 0.89641 0.37589 0.0
Mn73 Mn 0.15535 0.79389 0.4282 0.0
C74 C 0.21298 0.84776 0.3616 0.0
C75 C 0.14262 0.94306 0.31677 0.0
C76 C 0.18959 0.88486 0.47683 0.0
O77 O 0.10116 0.88662 0.3967 0.0
O78 O 0.10112 0.81787 0.42764 0.0
C79 C 0.09684 0.73845 0.36024 0.0
N80 N 0.13325 0.74407 0.38639 0.0
C81 C 0.14785 0.668 0.36397 0.0
C82 C 0.11038 0.66124 0.33698 0.0
C83 C 0.08489 0.69674 0.33492 0.0
C84 C 0.15814 0.71035 0.38828 0.0
H85 H 0.07705 0.76552 0.35883 0.0
C86 C 0.08258 0.85147 0.41571 0.0
O87 O 0.15507 0.95995 0.35749 0.0
O88 O 0.14151 0.89891 0.30981 0.0
N89 N 0.20473 0.764 0.43199 0.0
C90 C 0.24049 0.77686 0.45824 0.0
C91 C 0.26873 0.7449 0.46523 0.0
C92 C 0.26024 0.7003 0.44466 0.0
C93 C 0.22366 0.68808 0.4171 0.0
C94 C 0.19582 0.72075 0.41297 0.0
H95 H 0.24663 0.81068 0.47511 0.0
O96 O 0.21997 0.8915 0.35448 0.0
O97 O 0.1755 0.83282 0.37639 0.0
O98 O 0.18589 0.9104 0.44276 0.0
O99 O 0.17831 0.84155 0.47483 0.0
C100 C 0.21339 0.64457 0.39419 0.0
C101 C 0.17572 0.63472 0.36719 0.0
H102 H 0.10106 0.62911 0.3174 0.0
H103 H 0.056 0.69188 0.31405 0.0
H104 H 0.29624 0.75436 0.48759 0.0
H105 H 0.28135 0.67524 0.45106 0.0
H106 H 0.23447 0.61863 0.39666 0.0
H107 H 0.16854 0.6015 0.349 0.0
Mn108 Mn 0.84629 0.68355 0.39262 0.0
Mn109 Mn 0.87188 0.71098 0.28277 0.0
C110 C 0.81847 0.74253 0.35736 0.0
C111 C 0.80553 0.6476 0.45109 0.0
C112 C 0.92802 0.74204 0.36612 0.0
O113 O 0.86859 0.62502 0.36681 0.0
O114 O 0.88447 0.64789 0.29502 0.0
C115 C 0.81229 0.6434 0.22682 0.0
N116 N 0.82726 0.68783 0.23942 0.0
C117 C 0.78399 0.71546 0.18051 0.0
C118 C 0.76678 0.66999 0.16845 0.0
C119 C 0.78117 0.63376 0.19161 0.0
C120 C 0.81445 0.7229 0.21646 0.0
H121 H 0.82493 0.61565 0.24253 0.0
C122 C 0.88227 0.61808 0.32617 0.0
O123 O 0.84507 0.6635 0.45742 0.0
O124 O 0.79039 0.64868 0.40921 0.0
N125 N 0.8609 0.77075 0.26576 0.0
C126 C 0.88021 0.81285 0.28174 0.0
C127 C 0.8702 0.85265 0.26129 0.0
C128 C 0.84075 0.84882 0.22435 0.0
C129 C 0.82164 0.80519 0.2081 0.0
C130 C 0.83276 0.76673 0.22995 0.0
H131 H 0.90239 0.81623 0.31053 0.0
O132 O 0.82108 0.74193 0.40199 0.0
O133 O 0.83189 0.7087 0.33414 0.0
O134 O 0.90498 0.72073 0.39551 0.0
O135 O 0.91941 0.73862 0.32305 0.0
C136 C 0.79159 0.79839 0.1715 0.0
C137 C 0.77252 0.75366 0.15786 0.0
H138 H 0.74309 0.66248 0.14095 0.0
H139 H 0.76893 0.59845 0.18175 0.0
H140 H 0.88487 0.88623 0.27425 0.0
H141 H 0.83261 0.87966 0.20928 0.0
H142 H 0.78289 0.82734 0.15369 0.0
H143 H 0.74926 0.74903 0.12976 0.0
Mn144 Mn 0.35428 0.87298 0.67804 0.0
Mn145 Mn 0.40096 0.85431 0.78025 0.0
C146 C 0.32382 0.81134 0.72006 0.0
C147 C 0.30658 0.90389 0.62931 0.0
C148 C 0.43805 0.83378 0.68768 0.0
O149 O 0.38593 0.93644 0.69888 0.0
O150 O 0.41196 0.92107 0.76873 0.0
C151 C 0.36967 0.91759 0.85632 0.0
N152 N 0.36786 0.86757 0.83217 0.0
C153 C 0.30579 0.81297 0.8815 0.0
C154 C 0.303 0.89507 0.92409 0.0
C155 C 0.33923 0.93416 0.89982 0.0
C156 C 0.34256 0.81988 0.84104 0.0
H157 H 0.39212 0.94489 0.84425 0.0
C158 C 0.40366 0.94917 0.73828 0.0
O159 O 0.34216 0.89285 0.61499 0.0
O160 O 0.29967 0.89985 0.67297 0.0
N161 N 0.39028 0.79042 0.79388 0.0
C162 C 0.4131 0.75633 0.78019 0.0
C163 C 0.40187 0.71157 0.79462 0.0
C164 C 0.36777 0.70238 0.82381 0.0
C165 C 0.34536 0.73813 0.83879 0.0
C166 C 0.35818 0.78219 0.82306 0.0
H167 H 0.44052 0.7634 0.75941 0.0
O168 O 0.32071 0.81052 0.67535 0.0
O169 O 0.34847 0.84708 0.7388 0.0
O170 O 0.40781 0.84397 0.66285 0.0
O171 O 0.43942 0.83945 0.73125 0.0
C172 C 0.311 0.73005 0.86832 0.0
C173 C 0.28998 0.76533 0.88726 0.0
H174 H 0.28425 0.90645 0.9524 0.0
H175 H 0.34332 0.96967 0.91258 0.0
H176 H 0.41975 0.68433 0.78368 0.0
H177 H 0.35926 0.66768 0.83493 0.0
H178 H 0.30025 0.69511 0.87756 0.0
H179 H 0.26428 0.75386 0.90936 0.0
Mn180 Mn 0.86092 0.87566 0.8791 0.0
Mn181 Mn 0.82901 0.76829 0.91534 0.0
C182 C 0.83187 0.81833 0.82382 0.0
C183 C 0.86101 0.95301 0.8578 0.0
C184 C 0.92002 0.81133 0.91747 0.0
O185 O 0.84461 0.88729 0.94695 0.0
O186 O 0.81782 0.81446 0.96411 0.0
C187 C 0.73677 0.7577 0.94694 0.0
N188 N 0.7701 0.74659 0.90956 0.0
C189 C 0.718 0.69397 0.83796 0.0
C190 C 0.65896 0.71372 0.89611 0.0
C191 C 0.68306 0.74452 0.94292 0.0
C192 C 0.76661 0.71843 0.86299 0.0
H193 H 0.74865 0.77471 0.97904 0.0
C194 C 0.82395 0.85818 0.97292 0.0
O195 O 0.89363 0.93755 0.87462 0.0
O196 O 0.8262 0.92425 0.85606 0.0
N197 N 0.83849 0.72347 0.86701 0.0
C198 C 0.87614 0.71177 0.85241 0.0
C199 C 0.8769 0.67769 0.8173 0.0
C200 C 0.83899 0.65638 0.79649 0.0
C201 C 0.80031 0.66957 0.81038 0.0
C202 C 0.80195 0.70393 0.84631 0.0
H203 H 0.90569 0.72853 0.86685 0.0
O204 O 0.8612 0.85115 0.8136 0.0
O205 O 0.82364 0.81674 0.8679 0.0
O206 O 0.91351 0.84661 0.89641 0.0
O207 O 0.88999 0.78174 0.92821 0.0
C208 C 0.76196 0.65079 0.78675 0.0
C209 C 0.72161 0.66232 0.79712 0.0
H210 H 0.62455 0.70512 0.89552 0.0
H211 H 0.66408 0.75479 0.97096 0.0
H212 H 0.90678 0.66823 0.8059 0.0
H213 H 0.84006 0.63055 0.76889 0.0
H214 H 0.76335 0.62661 0.75775 0.0
H215 H 0.71483 0.682 0.8233 0.0
Mn216 Mn 0.15377 0.70489 0.89117 0.0
Mn217 Mn 0.1862 0.81697 0.92201 0.0
C218 C 0.17931 0.75429 0.83374 0.0
C219 C 0.15773 0.62676 0.87273 0.0
C220 C 0.09486 0.77438 0.9222 0.0
O221 O 0.17166 0.70289 0.95948 0.0
O222 O 0.19494 0.77834 0.97503 0.0
C223 C 0.27892 0.8241 0.95788 0.0
N224 N 0.24616 0.83439 0.91871 0.0
C225 C 0.29829 0.87767 0.85111 0.0
C226 C 0.35738 0.86023 0.91196 0.0
C227 C 0.33263 0.83428 0.95715 0.0
C228 C 0.25095 0.85867 0.8722 0.0
H229 H 0.26687 0.8085 0.98858 0.0
C230 C 0.19021 0.73606 0.98594 0.0
O231 O 0.12388 0.64114 0.88787 0.0
O232 O 0.19113 0.65735 0.87224 0.0
N233 N 0.17865 0.85546 0.87113 0.0
C234 C 0.14144 0.86627 0.85339 0.0
C235 C 0.14155 0.89627 0.81719 0.0
C236 C 0.17989 0.91416 0.79852 0.0
C237 C 0.21784 0.90151 0.8159 0.0
C238 C 0.21566 0.87193 0.8528 0.0
H239 H 0.11158 0.85181 0.86612 0.0
O240 O 0.15014 0.71963 0.82468 0.0
O241 O 0.18926 0.76231 0.87774 0.0
O242 O 0.1013 0.73516 0.90626 0.0
O243 O 0.12469 0.80684 0.93009 0.0
C244 C 0.25634 0.91511 0.79473 0.0
C245 C 0.29511 0.90248 0.80979 0.0
H246 H 0.39192 0.86678 0.91252 0.0
H247 H 0.35118 0.82476 0.98593 0.0
H248 H 0.11206 0.905 0.80324 0.0
H249 H 0.17973 0.93659 0.76984 0.0
H250 H 0.25594 0.93429 0.7638 0.0
H251 H 0.32182 0.91451 0.78935 0.0
Mn252 Mn 0.84589 0.19573 0.70866 0.0
Mn253 Mn 0.91243 0.23203 0.79889 0.0
C254 C 0.81744 0.22191 0.77656 0.0
C255 C 0.80229 0.20506 0.64406 0.0
C256 C 0.88677 0.13103 0.76993 0.0
O257 O 0.90177 0.21484 0.67582 0.0
O258 O 0.94132 0.2401 0.73931 0.0
C259 C 0.9295 0.33187 0.78245 0.0
N260 N 0.91935 0.29716 0.8114 0.0
C261 C 0.92422 0.35052 0.87718 0.0
C262 C 0.93554 0.38681 0.84809 0.0
C263 C 0.93776 0.37746 0.80041 0.0
C264 C 0.91599 0.30591 0.85712 0.0
H265 H 0.93115 0.32467 0.7461 0.0
C266 C 0.93622 0.23419 0.69554 0.0
O267 O 0.81614 0.16632 0.6512 0.0
O268 O 0.81653 0.23931 0.67235 0.0
N269 N 0.89102 0.22789 0.85991 0.0
C270 C 0.87852 0.18922 0.88314 0.0
C271 C 0.87584 0.19223 0.93136 0.0
C272 C 0.886 0.23494 0.95538 0.0
C273 C 0.89833 0.27437 0.93087 0.0
C274 C 0.90175 0.26898 0.88301 0.0
H275 H 0.87137 0.15604 0.86526 0.0
O276 O 0.79782 0.18869 0.75027 0.0
O277 O 0.85682 0.23462 0.7664 0.0
O278 O 0.86412 0.1375 0.73503 0.0
O279 O 0.90822 0.16421 0.79302 0.0
C280 C 0.90786 0.31873 0.9521 0.0
C281 C 0.92029 0.35688 0.92519 0.0
H282 H 0.94212 0.42198 0.86189 0.0
H283 H 0.94606 0.40527 0.77761 0.0
H284 H 0.86606 0.16162 0.94999 0.0
H285 H 0.88359 0.23716 0.99254 0.0
H286 H 0.90536 0.32396 0.98904 0.0
H287 H 0.92679 0.39093 0.94178 0.0
Mn288 Mn 0.17716 0.38818 0.6959 0.0
Mn289 Mn 0.12824 0.34716 0.79165 0.0
C290 C 0.21521 0.36179 0.75626 0.0
C291 C 0.20721 0.3807 0.62272 0.0
C292 C 0.14392 0.44854 0.77171 0.0
O293 O 0.11512 0.36929 0.67292 0.0
O294 O 0.08805 0.33721 0.73767 0.0
C295 C 0.10286 0.2471 0.77446 0.0
N296 N 0.12776 0.28232 0.79759 0.0
C297 C 0.15411 0.22979 0.84915 0.0
C298 C 0.13019 0.19288 0.82442 0.0
C299 C 0.10413 0.20164 0.78715 0.0
C300 C 0.15122 0.27439 0.83507 0.0
H301 H 0.08121 0.25378 0.74754 0.0
C302 C 0.0855 0.34588 0.69473 0.0
O303 O 0.19615 0.41939 0.63797 0.0
O304 O 0.19743 0.34573 0.64824 0.0
N305 N 0.16629 0.35403 0.84436 0.0
C306 C 0.18587 0.39342 0.86626 0.0
C307 C 0.21246 0.3906 0.90489 0.0
C308 C 0.21859 0.3474 0.92082 0.0
C309 C 0.19799 0.30738 0.89798 0.0
C310 C 0.17191 0.31229 0.85955 0.0
H311 H 0.18155 0.42681 0.85432 0.0
O312 O 0.23359 0.39154 0.72884 0.0
O313 O 0.17515 0.34952 0.74864 0.0
O314 O 0.16411 0.44446 0.73479 0.0
O315 O 0.12658 0.41408 0.79262 0.0
C316 C 0.20254 0.26279 0.9117 0.0
C317 C 0.18044 0.22408 0.88742 0.0
H318 H 0.13118 0.15778 0.83412 0.0
H319 H 0.08466 0.17348 0.76862 0.0
H320 H 0.22829 0.42169 0.92229 0.0
H321 H 0.23924 0.34537 0.95055 0.0
H322 H 0.22275 0.25787 0.94103 0.0
H323 H 0.18392 0.19007 0.89845 0.0
Mn324 Mn 0.64802 0.1941 0.39826 0.0
Mn325 Mn 0.67668 0.30607 0.4327 0.0
C326 C 0.6732 0.24492 0.34183 0.0
C327 C 0.65389 0.11624 0.38016 0.0
C328 C 0.58724 0.26061 0.42796 0.0
O329 O 0.66371 0.19182 0.46782 0.0
O330 O 0.68824 0.26684 0.48348 0.0
C331 C 0.76966 0.31972 0.46737 0.0
N332 N 0.73547 0.32734 0.42867 0.0
C333 C 0.78406 0.3693 0.35793 0.0
C334 C 0.84578 0.35627 0.41757 0.0
C335 C 0.82317 0.33151 0.46457 0.0
C336 C 0.73796 0.34978 0.38115 0.0
H337 H 0.75873 0.30465 0.49886 0.0
C338 C 0.68249 0.22478 0.4945 0.0
O339 O 0.61924 0.12983 0.39384 0.0
O340 O 0.68693 0.14746 0.38106 0.0
N341 N 0.66588 0.34558 0.38391 0.0
C342 C 0.62816 0.35924 0.37138 0.0
C343 C 0.62611 0.38865 0.33492 0.0
C344 C 0.66297 0.4044 0.31202 0.0
C345 C 0.70174 0.39125 0.3263 0.0
C346 C 0.70162 0.36167 0.36298 0.0
H347 H 0.59973 0.34853 0.38946 0.0
O348 O 0.64574 0.20892 0.33202 0.0
O349 O 0.68232 0.25293 0.38622 0.0
O350 O 0.59442 0.22323 0.40856 0.0
O351 O 0.61616 0.29177 0.44201 0.0
C352 C 0.73908 0.40473 0.3028 0.0
C353 C 0.77872 0.39277 0.31612 0.0
H354 H 0.88022 0.364 0.41683 0.0
H355 H 0.84295 0.32376 0.49312 0.0
H356 H 0.59619 0.39922 0.32457 0.0
H357 H 0.66115 0.42674 0.28348 0.0
H358 H 0.73708 0.42363 0.27185 0.0
H359 H 0.8044 0.40425 0.29405 0.0
Mn360 Mn 0.65067 0.68302 0.6605 0.0
Mn361 Mn 0.61011 0.70479 0.76473 0.0
C362 C 0.68416 0.74611 0.70622 0.0
C363 C 0.69346 0.65054 0.60583 0.0
C364 C 0.56665 0.72017 0.67493 0.0
O365 O 0.62011 0.61943 0.67896 0.0
O366 O 0.60194 0.6378 0.75158 0.0
C367 C 0.6475 0.65032 0.84086 0.0
N368 N 0.64647 0.69752 0.81603 0.0
C369 C 0.70879 0.76071 0.86823 0.0
C370 C 0.71545 0.68335 0.91099 0.0
C371 C 0.67996 0.64011 0.88585 0.0
C372 C 0.66979 0.74699 0.82491 0.0
H373 H 0.62587 0.62085 0.82838 0.0
C374 C 0.60664 0.60825 0.71904 0.0
O375 O 0.65685 0.66187 0.59527 0.0
O376 O 0.70463 0.65528 0.64935 0.0
N377 N 0.61837 0.77004 0.77902 0.0
C378 C 0.59291 0.80142 0.76631 0.0
C379 C 0.60314 0.84772 0.78079 0.0
C380 C 0.63875 0.86124 0.80953 0.0
C381 C 0.66362 0.82832 0.82451 0.0
C382 C 0.65181 0.78235 0.80793 0.0
H383 H 0.5642 0.79108 0.74637 0.0
O384 O 0.6849 0.74539 0.66147 0.0
O385 O 0.66066 0.71081 0.72304 0.0
O386 O 0.59678 0.71301 0.64913 0.0
O387 O 0.56717 0.71268 0.71746 0.0
C388 C 0.69915 0.84168 0.85475 0.0
C389 C 0.72304 0.81097 0.87585 0.0
H390 H 0.73519 0.67549 0.9401 0.0
H391 H 0.67766 0.60596 0.89899 0.0
H392 H 0.58324 0.87283 0.77037 0.0
H393 H 0.64625 0.89714 0.82076 0.0
H394 H 0.7086 0.87794 0.86317 0.0
H395 H 0.71654 0.7774 0.87446 0.0
Mn396 Mn 0.66073 0.39895 0.87149 0.0
Mn397 Mn 0.66163 0.29093 0.9096 0.0
C398 C 0.71173 0.35405 0.84745 0.0
C399 C 0.63683 0.45049 0.81944 0.0
C400 C 0.69616 0.37662 0.96668 0.0
O401 O 0.60126 0.38382 0.8971 0.0
O402 O 0.60805 0.31336 0.9205 0.0
C403 C 0.59778 0.24501 0.8412 0.0
N404 N 0.63682 0.24819 0.86196 0.0
C405 C 0.65216 0.18025 0.81984 0.0
C406 C 0.61204 0.17605 0.79821 0.0
C407 C 0.58486 0.20879 0.80871 0.0
C408 C 0.66359 0.21764 0.8512 0.0
H409 H 0.57661 0.26982 0.84941 0.0
C410 C 0.58664 0.34644 0.91558 0.0
O411 O 0.65064 0.46378 0.86083 0.0
O412 O 0.63638 0.40718 0.80807 0.0
N413 N 0.71145 0.26238 0.90175 0.0
C414 C 0.74746 0.26925 0.92848 0.0
C415 C 0.77703 0.23814 0.92419 0.0
C416 C 0.76925 0.19999 0.89284 0.0
C417 C 0.73153 0.19292 0.86654 0.0
C418 C 0.70282 0.22466 0.8729 0.0
H419 H 0.7532 0.29775 0.95356 0.0
O420 O 0.71816 0.39844 0.84437 0.0
O421 O 0.67569 0.33711 0.86334 0.0
O422 O 0.68777 0.40583 0.93741 0.0
O423 O 0.68799 0.33305 0.95974 0.0
C424 C 0.72079 0.15495 0.83521 0.0
C425 C 0.68127 0.14886 0.81153 0.0
H426 H 0.60184 0.14792 0.77344 0.0
H427 H 0.55389 0.2059 0.79208 0.0
H428 H 0.80515 0.24325 0.94589 0.0
H429 H 0.79177 0.17562 0.88997 0.0
H430 H 0.74263 0.13014 0.82922 0.0
H431 H 0.67338 0.11965 0.7874 0.0
Mn432 Mn 0.34486 0.188 0.88943 0.0
Mn433 Mn 0.37918 0.22105 0.78417 0.0
C434 C 0.31756 0.24654 0.85307 0.0
C435 C 0.30176 0.14831 0.94353 0.0
C436 C 0.42494 0.25407 0.87388 0.0
O437 O 0.37005 0.13149 0.86468 0.0
O438 O 0.3973 0.16023 0.79908 0.0
C439 C 0.33535 0.14785 0.71991 0.0
N440 N 0.34053 0.1923 0.73676 0.0
C441 C 0.29263 0.21287 0.67829 0.0
C442 C 0.28421 0.16656 0.66302 0.0
C443 C 0.3062 0.13398 0.68351 0.0
C444 C 0.32131 0.22434 0.71549 0.0
H445 H 0.35457 0.12363 0.73279 0.0
C446 C 0.39041 0.12784 0.82746 0.0
O447 O 0.34047 0.16573 0.95292 0.0
O448 O 0.28863 0.15066 0.90101 0.0
N449 N 0.36298 0.27768 0.76407 0.0
C450 C 0.38211 0.32121 0.77437 0.0
C451 C 0.36723 0.35868 0.75396 0.0
C452 C 0.33408 0.35075 0.72105 0.0
C453 C 0.31752 0.30538 0.7078 0.0
C454 C 0.33337 0.26955 0.72985 0.0
H455 H 0.40963 0.32696 0.79626 0.0
O456 O 0.31748 0.24488 0.89768 0.0
O457 O 0.33396 0.21426 0.83035 0.0
O458 O 0.40268 0.22626 0.89865 0.0
O459 O 0.41969 0.25481 0.83031 0.0
C460 C 0.2867 0.29447 0.67264 0.0
C461 C 0.27431 0.24825 0.65752 0.0
H462 H 0.26214 0.15595 0.63452 0.0
H463 H 0.30152 0.0985 0.67052 0.0
H464 H 0.3819 0.39342 0.76281 0.0
H465 H 0.32274 0.37959 0.7049 0.0
H466 H 0.27312 0.32188 0.65705 0.0
H467 H 0.2512 0.2402 0.62956 0.0
Mn468 Mn 0.35833 0.37651 0.3776 0.0
Mn469 Mn 0.33615 0.26829 0.41531 0.0
C470 C 0.33455 0.31641 0.32295 0.0
C471 C 0.35308 0.45264 0.35491 0.0
C472 C 0.42302 0.31949 0.41586 0.0
O473 O 0.34046 0.38655 0.44592 0.0
O474 O 0.3212 0.31218 0.46322 0.0
C475 C 0.24538 0.24279 0.44836 0.0
N476 N 0.27921 0.24074 0.40914 0.0
C477 C 0.23139 0.1897 0.33396 0.0
C478 C 0.17094 0.19347 0.3953 0.0
C479 C 0.19274 0.22209 0.44449 0.0
C480 C 0.27796 0.21793 0.36002 0.0
H481 H 0.2559 0.25924 0.48098 0.0
C482 C 0.32305 0.35558 0.47248 0.0
O483 O 0.38664 0.44037 0.37303 0.0
O484 O 0.31995 0.42138 0.35307 0.0
N485 N 0.34979 0.22578 0.36744 0.0
C486 C 0.38835 0.21327 0.35761 0.0
C487 C 0.39205 0.18192 0.32069 0.0
C488 C 0.35599 0.16315 0.29459 0.0
C489 C 0.31618 0.17544 0.30563 0.0
C490 C 0.3149 0.20761 0.34291 0.0
H491 H 0.41611 0.22651 0.3782 0.0
O492 O 0.36103 0.35173 0.31239 0.0
O493 O 0.32607 0.31482 0.36701 0.0
O494 O 0.41377 0.35279 0.39353 0.0
O495 O 0.39566 0.28825 0.42857 0.0
C496 C 0.27937 0.15654 0.27937 0.0
C497 C 0.23781 0.16346 0.29009 0.0
H498 H 0.13732 0.1799 0.39457 0.0
H499 H 0.17308 0.2265 0.47377 0.0
H500 H 0.42262 0.17202 0.31252 0.0
H501 H 0.35922 0.13884 0.26615 0.0
H502 H 0.28288 0.13486 0.24894 0.0
H503 H 0.22924 0.17899 0.31816 0.0
Mn504 Mn 0.34761 0.70038 0.20408 0.0
Mn505 Mn 0.4134 0.73014 0.29701 0.0
C506 C 0.32045 0.72731 0.27224 0.0
C507 C 0.30814 0.71182 0.13698 0.0
C508 C 0.38045 0.63091 0.26703 0.0
O509 O 0.40562 0.71444 0.17401 0.0
O510 O 0.44528 0.7355 0.23869 0.0
C511 C 0.44828 0.82771 0.2855 0.0
N512 N 0.42611 0.79512 0.31066 0.0
C513 C 0.42841 0.84854 0.3764 0.0
C514 C 0.4503 0.88279 0.35056 0.0
C515 C 0.46019 0.87231 0.30484 0.0
C516 C 0.41654 0.80489 0.35486 0.0
H517 H 0.45759 0.81955 0.25138 0.0
C518 C 0.44065 0.73065 0.19467 0.0
O519 O 0.31909 0.67221 0.14605 0.0
O520 O 0.32293 0.74607 0.1652 0.0
N521 N 0.38689 0.72807 0.35559 0.0
C522 C 0.37036 0.69008 0.37781 0.0
C523 C 0.36334 0.69363 0.4252 0.0
C524 C 0.37208 0.73641 0.44923 0.0
C525 C 0.38808 0.77529 0.42567 0.0
C526 C 0.3959 0.76939 0.37864 0.0
H527 H 0.36415 0.65675 0.36014 0.0
O528 O 0.29784 0.69885 0.24315 0.0
O529 O 0.36017 0.7378 0.26229 0.0
O530 O 0.35956 0.63988 0.23167 0.0
O531 O 0.40399 0.66213 0.29062 0.0
C532 C 0.3989 0.81907 0.44773 0.0
C533 C 0.41875 0.85579 0.42299 0.0
H534 H 0.46011 0.91704 0.36565 0.0
H535 H 0.47773 0.89828 0.28483 0.0
H536 H 0.35204 0.66318 0.44336 0.0
H537 H 0.36736 0.73877 0.48602 0.0
H538 H 0.39291 0.82463 0.48398 0.0
H539 H 0.42744 0.88917 0.44046 0.0
Mn540 Mn 0.68282 0.88553 0.19831 0.0
Mn541 Mn 0.63332 0.83802 0.29099 0.0
C542 C 0.72074 0.86031 0.25922 0.0
C543 C 0.71509 0.8834 0.12627 0.0
C544 C 0.64476 0.94039 0.27532 0.0
O545 O 0.62163 0.86403 0.17295 0.0
O546 O 0.59475 0.82789 0.23566 0.0
C547 C 0.6186 0.7382 0.26565 0.0
N548 N 0.6373 0.77358 0.29384 0.0
C549 C 0.66578 0.72082 0.34354 0.0
C550 C 0.64805 0.68403 0.31394 0.0
C551 C 0.62411 0.69277 0.27496 0.0
C552 C 0.65922 0.7654 0.33235 0.0
H553 H 0.59896 0.74464 0.23695 0.0
C554 C 0.59246 0.8382 0.19317 0.0
O555 O 0.7016 0.92033 0.14273 0.0
O556 O 0.70691 0.84667 0.14965 0.0
N557 N 0.6691 0.84488 0.3456 0.0
C558 C 0.68496 0.88413 0.37039 0.0
C559 C 0.70942 0.88123 0.41066 0.0
C560 C 0.7173 0.83808 0.42523 0.0
C561 C 0.70047 0.79815 0.39948 0.0
C562 C 0.67607 0.80313 0.35974 0.0
H563 H 0.67925 0.91751 0.35957 0.0
O564 O 0.73868 0.89145 0.23297 0.0
O565 O 0.68144 0.8456 0.24971 0.0
O566 O 0.66586 0.9387 0.23876 0.0
O567 O 0.62792 0.90447 0.2945 0.0
C568 C 0.70741 0.75363 0.41138 0.0
C569 C 0.69007 0.715 0.38343 0.0
H570 H 0.65231 0.64895 0.32102 0.0
H571 H 0.60958 0.66452 0.25239 0.0
H572 H 0.72236 0.91225 0.43031 0.0
H573 H 0.73651 0.83603 0.45609 0.0
H574 H 0.72633 0.74873 0.44176 0.0
H575 H 0.69586 0.68099 0.3927 0.0
C576 C 0.22935 0.30036 0.2542 0.0
C577 C 0.23017 0.25943 0.22776 0.0
C578 C 0.26328 0.31842 0.28461 0.0
C579 C 0.30096 0.29839 0.28692 0.0
H580 H 0.20231 0.31851 0.25118 0.0
H581 H 0.26043 0.34896 0.3059 0.0
S582 S 0.33066 0.21683 0.196 0.0
N583 N 0.27901 0.21534 0.18812 0.0
N584 N 0.34435 0.25296 0.24077 0.0
C585 C 0.30626 0.26603 0.25101 0.0
C586 C 0.27066 0.24582 0.22209 0.0
C587 C 0.74205 0.30926 0.25231 0.0
C588 C 0.77584 0.28316 0.2479 0.0
C589 C 0.70712 0.29513 0.27987 0.0
C590 C 0.70611 0.25606 0.3061 0.0
H591 H 0.74267 0.34079 0.23417 0.0
H592 H 0.68071 0.31458 0.28057 0.0
S593 S 0.76649 0.16002 0.27393 0.0
N594 N 0.79147 0.20458 0.24829 0.0
N595 N 0.7283 0.17978 0.30319 0.0
C596 C 0.73391 0.22459 0.29225 0.0
C597 C 0.76841 0.23799 0.26251 0.0
C598 C 0.255 0.7417 0.3116 0.0
C599 C 0.29722 0.75757 0.30176 0.0
C600 C 0.22806 0.77168 0.32916 0.0
C601 C 0.24303 0.81692 0.34413 0.0
H602 H 0.24147 0.70668 0.30194 0.0
H603 H 0.19468 0.76015 0.32825 0.0
S604 S 0.3457 0.87992 0.31256 0.0
N605 N 0.34769 0.82625 0.29417 0.0
N606 N 0.30062 0.8792 0.33926 0.0
C607 C 0.28484 0.83393 0.33358 0.0
C608 C 0.31114 0.80481 0.3104 0.0
C609 C 0.76277 0.75587 0.30171 0.0
C610 C 0.79352 0.77413 0.33496 0.0
C611 C 0.74002 0.78459 0.27712 0.0
C612 C 0.74612 0.8324 0.28616 0.0
H613 H 0.75675 0.71909 0.29402 0.0
H614 H 0.71744 0.76915 0.25069 0.0
S615 S 0.82168 0.89701 0.37142 0.0
N616 N 0.82825 0.84254 0.37714 0.0
N617 N 0.78481 0.89707 0.33055 0.0
C618 C 0.77628 0.85125 0.31983 0.0
C619 C 0.79963 0.8218 0.34504 0.0
C620 C 0.25035 0.81795 0.74634 0.0
C621 C 0.28451 0.79214 0.74366 0.0
C622 C 0.21432 0.80356 0.77203 0.0
C623 C 0.21223 0.76425 0.79789 0.0
H624 H 0.25143 0.84947 0.72825 0.0
H625 H 0.18819 0.82343 0.77218 0.0
S626 S 0.27428 0.66875 0.76907 0.0
N627 N 0.30018 0.71354 0.74459 0.0
N628 N 0.23479 0.68815 0.79634 0.0
C629 C 0.24071 0.73301 0.78562 0.0
C630 C 0.27649 0.74679 0.75771 0.0
C631 C 0.75842 0.74341 0.73602 0.0
C632 C 0.7238 0.76827 0.73144 0.0
C633 C 0.79507 0.76129 0.76256 0.0
C634 C 0.79741 0.80338 0.78778 0.0
H635 H 0.75725 0.70995 0.71851 0.0
H636 H 0.82163 0.74209 0.76365 0.0
S637 S 0.73191 0.89396 0.75716 0.0
N638 N 0.70644 0.84637 0.73188 0.0
N639 N 0.77277 0.87827 0.78552 0.0
C640 C 0.7677 0.83244 0.77454 0.0
C641 C 0.73137 0.81508 0.74557 0.0
C642 C 0.78153 0.32478 0.84292 0.0
C643 C 0.74003 0.32423 0.82619 0.0
C644 C 0.80621 0.29153 0.82685 0.0
C645 C 0.79078 0.2571 0.79342 0.0
H646 H 0.79419 0.34941 0.87021 0.0
H647 H 0.83689 0.29212 0.84183 0.0
S648 S 0.68659 0.24963 0.73076 0.0
N649 N 0.68631 0.29244 0.7694 0.0
N650 N 0.7325 0.23055 0.7384 0.0
C651 C 0.75006 0.25917 0.77373 0.0
C652 C 0.72492 0.29276 0.79026 0.0
C653 C 0.27228 0.3522 0.81428 0.0
C654 C 0.24035 0.33278 0.78257 0.0
C655 C 0.2968 0.32405 0.8383 0.0
C656 C 0.29085 0.27607 0.82985 0.0
H657 H 0.27815 0.38916 0.82062 0.0
H658 H 0.32128 0.33987 0.8625 0.0
S659 S 0.21146 0.20873 0.7503 0.0
N660 N 0.20459 0.26289 0.74365 0.0
N661 N 0.24971 0.21024 0.78973 0.0
C662 C 0.25857 0.25637 0.79894 0.0
C663 C 0.2338 0.28477 0.77464 0.0
C664 C 0.15375 0.98665 0.244 0.0
C665 C 0.12828 0.97321 0.28138 0.0
C666 C 0.14523 1.02345 0.21683 0.0
C667 C 0.11083 0.04779 0.22609 0.0
H668 H 0.18223 0.97111 0.23801 0.0
H669 H 0.1681 0.03583 0.1917 0.0
S670 S 0.03135 1.02114 0.31579 0.0
N671 N 0.06496 0.98357 0.32287 0.0
N672 N 0.04851 0.05164 0.27185 0.0
C673 C 0.08305 1.03138 0.26055 0.0
C674 C 0.09202 0.9946 0.28837 0.0
C675 C 0.93019 0.51489 0.27646 0.0
C676 C 0.89438 0.4877 0.25595 0.0
C677 C 0.92657 0.55678 0.30106 0.0
C678 C 0.88669 0.57071 0.30917 0.0
H679 H 0.96105 0.50363 0.27358 0.0
H680 H 0.95497 0.5782 0.31397 0.0
S681 S 0.78345 0.51114 0.26506 0.0
N682 N 0.81817 0.47912 0.24429 0.0
N683 N 0.81098 0.5531 0.29668 0.0
C684 C 0.85082 0.54276 0.29061 0.0
C685 C 0.85473 0.50252 0.26253 0.0
C686 C 0.2889 0.14091 1.02785 0.0
C687 C 0.27295 0.13483 0.98193 0.0
C688 C 0.26193 0.13955 0.06546 0.0
C689 C 0.21778 0.13222 0.05883 0.0
H690 H 0.32252 0.14963 1.03494 0.0
H691 H 0.27582 0.14749 0.09971 0.0
S692 S 0.16007 0.10333 0.94681 0.0
N693 N 0.21026 0.11294 0.93287 0.0
N694 N 0.15951 0.11108 1.00345 0.0
C695 C 0.2015 0.12171 1.01355 0.0
C696 C 0.22907 0.12276 0.97516 0.0
C697 C 0.79115 0.41152 0.04525 0.0
C698 C 0.77594 0.39887 0.08874 0.0
C699 C 0.76399 0.40878 1.00623 0.0
C700 C 0.72078 0.39266 1.00922 0.0
H701 H 0.82471 0.42107 0.04074 0.0
H702 H 0.77747 0.41582 0.97293 0.0
S703 S 0.66424 0.35935 0.1152 0.0
N704 N 0.71393 0.37372 0.13291 0.0
N705 N 0.66331 0.36712 0.05919 0.0
C706 C 0.70468 0.38263 0.05278 0.0
C707 C 0.73214 0.3863 0.09272 0.0
C708 C 0.2848 0.92921 0.55216 0.0
C709 C 0.27321 0.91211 0.59535 0.0
C710 C 0.25565 0.92548 0.51473 0.0
C711 C 0.21412 0.90355 0.51892 0.0
H712 H 0.31737 0.94288 0.54638 0.0
H713 H 0.26687 0.93583 0.48131 0.0
S714 S 0.16646 0.85779 0.62569 0.0
N715 N 0.21586 0.87721 0.64126 0.0
N716 N 0.16168 0.86864 0.5706 0.0
C717 C 0.20128 0.88955 0.56274 0.0
C718 C 0.23065 0.89429 0.60109 0.0
C719 C 0.7065 0.63264 0.52244 0.0
C720 C 0.72241 0.63936 0.56833 0.0
C721 C 0.73346 0.63159 0.48485 0.0
C722 C 0.77768 0.63749 0.49128 0.0
H723 H 0.67285 0.63036 0.51516 0.0
H724 H 0.71947 0.6287 0.45039 0.0
S725 S 0.83548 0.64956 0.60472 0.0
N726 N 0.78525 0.64688 0.61814 0.0
N727 N 0.83596 0.64496 0.54786 0.0
C728 C 0.79393 0.64066 0.53717 0.0
C729 C 0.76634 0.64158 0.57553 0.0
C730 C 0.99104 0.28316 0.22622 0.0
C731 C 0.96892 0.29714 0.18813 0.0
C732 C 0.01862 0.25112 0.22196 0.0
C733 C 0.03257 0.23597 0.1789 0.0
H734 H 0.9855 0.29473 0.26122 0.0
H735 H 0.03117 0.24067 0.25424 0.0
S736 S 0.98924 0.26571 0.06602 0.0
N737 N 0.9624 0.29285 0.10419 0.0
N738 N 0.0229 0.23919 0.09576 0.0
C739 C 0.01332 0.2517 0.13937 0.0
C740 C 0.98038 0.28121 0.14401 0.0
C741 C 0.98458 0.80692 0.35157 0.0
C742 C 0.96438 0.77607 0.38265 0.0
C743 C 0.01952 0.83877 0.36536 0.0
C744 C 0.03661 0.83988 0.41035 0.0
H745 H 0.97459 0.80543 0.31562 0.0
H746 H 0.03611 0.85869 0.33915 0.0
S747 S 0.99261 0.77218 0.50707 0.0
N748 N 0.96101 0.75366 0.46252 0.0
N749 N 0.02816 0.81226 0.48755 0.0
C750 C 0.01473 0.8124 0.44282 0.0
C751 C 0.97861 0.78043 0.42909 0.0
C752 C 0.49058 0.72845 0.66321 0.0
C753 C 0.53319 0.74676 0.65894 0.0
C754 C 0.45881 0.7573 0.66639 0.0
C755 C 0.46876 0.80553 0.66741 0.0
H756 H 0.48221 0.69197 0.66787 0.0
H757 H 0.42683 0.74195 0.67281 0.0
S758 S 0.57485 0.87035 0.65317 0.0
N759 N 0.58291 0.81581 0.65053 0.0
N760 N 0.52355 0.87008 0.66002 0.0
C761 C 0.51065 0.82408 0.6598 0.0
C762 C 0.54278 0.79459 0.65456 0.0
C763 C 0.84668 0.05144 0.77856 0.0
C764 C 0.88251 0.08417 0.78966 0.0
C765 C 0.83867 1.00995 0.80181 0.0
C766 C 0.86619 0.99927 0.83713 0.0
H767 H 0.82396 0.05833 0.75237 0.0
H768 H 0.81111 0.98579 0.7915 0.0
S769 S 0.96432 0.07288 0.87994 0.0
N770 N 0.94571 0.10222 0.83869 0.0
N771 N 0.93065 1.02536 0.8823 0.0
C772 C 0.90207 1.03166 0.84852 0.0
C773 C 0.91025 0.07363 0.82487 0.0
C774 C 0.18591 0.5699 0.81805 0.0
C775 C 0.15548 0.57992 0.85001 0.0
C776 C 0.18095 0.52833 0.79124 0.0
C777 C 0.14559 0.49471 0.79571 0.0
H778 H 0.21344 0.59466 0.81302 0.0
H779 H 0.20558 0.52207 0.76761 0.0
S780 S 0.05735 0.50317 0.87554 0.0
N781 N 0.08897 0.55201 0.88513 0.0
N782 N 0.07997 0.47414 0.83533 0.0
C783 C 0.11525 0.50403 0.82804 0.0
C784 C 0.12013 0.54641 0.85503 0.0
C785 C 0.72646 0.86893 0.04211 0.0
C786 C 0.74295 0.88445 0.08593 0.0
C787 C 0.75325 0.86517 1.00475 0.0
C788 C 0.79763 0.87471 1.01015 0.0
H789 H 0.69277 0.85871 1.03688 0.0
H790 H 0.73916 0.8527 0.9716 0.0
S791 S 0.85597 0.92259 0.11652 0.0
N792 N 0.80585 0.91592 0.13122 0.0
N793 N 0.85636 0.90478 0.06177 0.0
C794 C 0.81431 0.89283 0.05309 0.0
C795 C 0.78687 0.89845 0.09083 0.0
C796 C 0.22681 0.76108 0.06208 0.0
C797 C 0.21445 0.72577 1.02804 0.0
C798 C 0.25731 0.75653 0.09665 0.0
C799 C 0.27678 0.71634 0.09903 0.0
H800 H 0.21386 0.79338 0.0611 0.0
H801 H 0.26581 0.78496 0.12156 0.0
S802 S 0.2549 0.61275 1.0195 0.0
N803 N 0.22365 0.64857 0.99993 0.0
N804 N 0.2803 0.63967 0.06503 0.0
C805 C 0.26375 0.68008 0.0662 0.0
C806 C 0.23271 0.68478 1.03088 0.0
C807 C 0.72714 0.17631 0.53916 0.0
C808 C 0.70545 0.21504 0.53752 0.0
C809 C 0.75814 0.17313 0.57385 0.0
C810 C 0.76903 0.20877 0.60792 0.0
H811 H 0.72192 0.14949 0.51206 0.0
H812 H 0.77459 0.14309 0.57306 0.0
S813 S 0.71796 0.31502 0.62198 0.0
N814 N 0.69414 0.28757 0.57588 0.0
N815 N 0.7528 0.28227 0.63969 0.0
C816 C 0.74611 0.24659 0.60781 0.0
C817 C 0.71421 0.24946 0.57312 0.0
C818 C 0.24989 0.33518 0.57226 0.0
C819 C 0.23538 0.37736 0.58242 0.0
C820 C 0.28229 0.33124 0.54153 0.0
C821 C 0.29796 0.36746 0.51351 0.0
H822 H 0.23687 0.30465 0.58921 0.0
H823 H 0.29394 0.29825 0.53867 0.0
S824 S 0.26787 0.48546 0.52268 0.0
N825 N 0.23987 0.45764 0.56247 0.0
N826 N 0.29538 0.4478 0.49766 0.0
C827 C 0.28267 0.40997 0.52167 0.0
C828 C 0.25207 0.41519 0.55677 0.0
C829 C 0.04028 0.82898 0.92422 0.0
C830 C 0.05055 0.78398 0.92815 0.0
C831 C 0.99813 0.83772 0.92211 0.0
C832 C 0.96439 0.80224 0.92619 0.0
H833 H 0.06477 0.85773 0.92107 0.0
H834 H 0.99201 0.87254 0.91648 0.0
S835 S 0.97488 0.68049 0.94993 0.0
N836 N 0.02386 0.70479 0.94318 0.0
N837 N 0.94492 0.7217 0.94369 0.0
C838 C 0.97448 0.75798 0.93552 0.0
C839 C 0.01739 0.74874 0.93545 0.0
C840 C 0.00952 0.33739 0.66906 0.0
C841 C 0.04839 0.31986 0.66934 0.0
C842 C 0.97106 0.30755 0.66694 0.0
C843 C 0.97027 0.25943 0.66879 0.0
H844 H 0.00877 0.37396 0.67511 0.0
H845 H 0.94194 0.3225 0.66999 0.0
S846 S 0.063 0.19671 0.65651 0.0
N847 N 0.08324 0.25161 0.65799 0.0
N848 N 0.01137 0.19588 0.66092 0.0
C849 C 0.00857 0.24171 0.66277 0.0
C850 C 0.04753 0.27199 0.6616 0.0
C851 C 0.52435 0.28648 0.4653 0.0
C852 C 0.5445 0.27341 0.42527 0.0
C853 C 0.48538 0.30354 0.46228 0.0
C854 C 0.46689 0.31029 0.41915 0.0
H855 H 0.53855 0.28295 0.49897 0.0
H856 H 0.46945 0.31116 0.4937 0.0
S857 S 0.50852 0.28368 0.30446 0.0
N858 N 0.54375 0.26888 0.34153 0.0
N859 N 0.4717 0.30338 0.33588 0.0
C860 C 0.4875 0.29873 0.37902 0.0
C861 C 0.52608 0.27962 0.38208 0.0
C862 C 0.6359 0.53249 0.72084 0.0
C863 C 0.60447 0.55975 0.73396 0.0
C864 C 0.64449 0.4949 0.74684 0.0
C865 C 0.62236 0.48368 0.78717 0.0
H866 H 0.65638 0.54251 0.69274 0.0
H867 H 0.67055 0.47661 0.73717 0.0
S868 S 0.53253 0.53859 0.83196 0.0
N869 N 0.5471 0.5678 0.78631 0.0
N870 N 0.56458 0.49897 0.83565 0.0
C871 C 0.58888 0.50818 0.79848 0.0
C872 C 0.57946 0.54553 0.77162 0.0
C873 C 0.43461 0.06543 0.8032 0.0
C874 C 0.395 0.08098 0.80853 0.0
C875 C 0.43812 1.02326 0.77891 0.0
C876 C 0.40272 0.99736 0.75605 0.0
H877 H 0.4628 0.08563 0.81823 0.0
H878 H 0.46862 1.01092 0.77783 0.0
S879 S 0.29283 1.02587 0.75697 0.0
N880 N 0.31991 0.06668 0.7904 0.0
N881 N 0.32735 0.99219 0.73904 0.0
C882 C 0.36346 1.01386 0.75994 0.0
C883 C 0.35941 0.05433 0.78764 0.0
C884 C 0.4883 0.26528 0.92584 0.0
C885 C 0.46072 0.28434 0.89644 0.0
C886 C 0.52727 0.28998 0.93933 0.0
C887 C 0.54079 0.33364 0.92178 0.0
H888 H 0.48124 0.2299 0.93559 0.0
H889 H 0.54881 0.27224 0.95907 0.0
S890 S 0.47141 0.40613 0.86345 0.0
N891 N 0.44208 0.35572 0.86707 0.0
N892 N 0.51792 0.40029 0.88682 0.0
C893 C 0.51056 0.35591 0.89934 0.0
C894 C 0.46994 0.33138 0.88751 0.0
C895 C 0.40032 0.57229 0.32141 0.0
C896 C 0.37316 0.58365 0.28606 0.0
C897 C 0.39216 0.53098 0.34424 0.0
C898 C 0.35628 0.49848 0.33329 0.0
H899 H 0.42824 0.59579 0.33204 0.0
H900 H 0.41471 0.52438 0.37075 0.0
S901 S 0.27408 0.51107 0.24422 0.0
N902 N 0.30781 0.55867 0.24182 0.0
N903 N 0.29299 0.48076 0.28462 0.0
C904 C 0.32849 0.50921 0.29831 0.0
C905 C 0.33687 0.55158 0.2747 0.0
C906 C 0.68429 0.06085 0.32584 0.0
C907 C 0.65294 0.06967 0.35708 0.0
C908 C 0.6804 1.01992 0.29811 0.0
C909 C 0.6453 0.98561 0.30097 0.0
H910 H 0.71167 0.08613 0.32199 0.0
H911 H 0.70567 1.01475 0.27494 0.0
S912 S 0.55528 0.99046 0.37897 0.0
N913 N 0.58598 0.03969 0.39012 0.0
N914 N 0.57921 0.96277 0.33882 0.0
C915 C 0.61421 0.99349 0.33286 0.0
C916 C 0.61791 0.03536 0.36069 0.0
C917 C 0.51658 0.83254 0.16824 0.0
C918 C 0.55488 0.81383 0.167 0.0
C919 C 0.4775 0.80376 0.16708 0.0
C920 C 0.4756 0.75551 0.16865 0.0
H921 H 0.51686 0.86916 0.17514 0.0
H922 H 0.44902 0.81964 0.17193 0.0
S923 S 0.56562 0.68997 0.14963 0.0
N924 N 0.58721 0.74446 0.15142 0.0
N925 N 0.51453 0.69056 0.15735 0.0
C926 C 0.51303 0.73661 0.16075 0.0
C927 C 0.55248 0.7659 0.15813 0.0
loop_
_geom_bond_atom_site_label_1
_geom_bond_atom_site_label_2
_geom_bond_distance
_geom_bond_site_symmetry_2
_ccdc_geom_bond_type
Mn0 O5 2.095 . S
Mn0 O15 2.162 . S
Mn0 O16 2.297 . S
Mn0 O24 2.385 . S
Mn0 O25 2.209 . S
Mn0 O26 2.094 . S
Mn1 O6 2.121 . S
Mn1 N8 2.257 . S
Mn1 N17 2.282 . S
Mn1 O25 2.215 . S
Mn1 O27 2.117 . S
C2 O24 1.234 . S
C2 O25 1.283 . S
C3 O15 1.281 . S
C3 O16 1.236 . S
C4 O26 1.240 . S
C4 O27 1.264 . S
O5 Mn0 2.095 . S
O5 C14 1.250 . S
O6 Mn1 2.121 . S
O6 C14 1.258 . S
C7 N8 1.326 . S
C7 C11 1.460 . S
C7 H13 0.929 . S
N8 Mn1 2.257 . S
N8 C7 1.326 . S
N8 C12 1.362 . S
C9 C10 1.258 . S
C9 C12 1.431 . S
C9 C29 1.449 . S
C10 C9 1.258 . S
C10 C11 1.477 . S
C10 H30 0.931 . S
C11 C7 1.460 . S
C11 C10 1.477 . S
C11 H31 0.930 . S
C12 N8 1.362 . S
C12 C9 1.431 . S
C12 C22 1.476 . S
H13 C7 0.929 . S
C14 O5 1.250 . S
C14 O6 1.258 . S
O15 Mn0 2.162 . S
O15 C3 1.281 . S
O16 Mn0 2.297 . S
O16 C3 1.236 . S
N17 Mn1 2.282 . S
N17 C18 1.328 . S
N17 C22 1.318 . S
C18 N17 1.328 . S
C18 C19 1.457 . S
C18 H23 0.929 . S
C19 C18 1.457 . S
C19 C20 1.291 . S
C19 H32 0.931 . S
C20 C19 1.291 . S
C20 C21 1.373 . S
C20 H33 0.929 . S
C21 C20 1.373 . S
C21 C22 1.396 . S
C21 C28 1.403 . S
C22 C12 1.476 . S
C22 N17 1.318 . S
C22 C21 1.396 . S
H23 C18 0.929 . S
O24 Mn0 2.385 . S
O24 C2 1.234 . S
O25 Mn0 2.209 . S
O25 Mn1 2.215 . S
O25 C2 1.283 . S
O26 Mn0 2.094 . S
O26 C4 1.240 . S
O27 Mn1 2.117 . S
O27 C4 1.264 . S
C28 C21 1.403 . S
C28 C29 1.399 . S
C28 H34 0.929 . S
C29 C9 1.449 . S
C29 C28 1.399 . S
C29 H35 0.930 . S
H30 C10 0.931 . S
H31 C11 0.930 . S
H32 C19 0.931 . S
H33 C20 0.929 . S
H34 C28 0.929 . S
H35 C29 0.930 . S
Mn36 O41 2.095 . S
Mn36 O51 2.162 . S
Mn36 O52 2.297 . S
Mn36 O60 2.385 . S
Mn36 O61 2.209 . S
Mn36 O62 2.094 . S
Mn37 O42 2.121 . S
Mn37 N44 2.257 . S
Mn37 N53 2.282 . S
Mn37 O61 2.215 . S
Mn37 O63 2.117 . S
C38 O60 1.234 . S
C38 O61 1.283 . S
C39 O51 1.281 . S
C39 O52 1.236 . S
C40 O62 1.240 . S
C40 O63 1.264 . S
O41 Mn36 2.095 . S
O41 C50 1.250 . S
O42 Mn37 2.121 . S
O42 C50 1.258 . S
C43 N44 1.326 . S
C43 C47 1.460 . S
C43 H49 0.929 . S
N44 Mn37 2.257 . S
N44 C43 1.326 . S
N44 C48 1.362 . S
C45 C46 1.258 . S
C45 C48 1.431 . S
C45 C65 1.449 . S
C46 C45 1.258 . S
C46 C47 1.477 . S
C46 H66 0.931 . S
C47 C43 1.460 . S
C47 C46 1.477 . S
C47 H67 0.930 . S
C48 N44 1.362 . S
C48 C45 1.431 . S
C48 C58 1.476 . S
H49 C43 0.929 . S
C50 O41 1.250 . S
C50 O42 1.258 . S
O51 Mn36 2.162 . S
O51 C39 1.281 . S
O52 Mn36 2.297 . S
O52 C39 1.236 . S
N53 Mn37 2.282 . S
N53 C54 1.328 . S
N53 C58 1.318 . S
C54 N53 1.328 . S
C54 C55 1.457 . S
C54 H59 0.929 . S
C55 C54 1.457 . S
C55 C56 1.291 . S
C55 H68 0.931 . S
C56 C55 1.291 . S
C56 C57 1.373 . S
C56 H69 0.929 . S
C57 C56 1.373 . S
C57 C58 1.396 . S
C57 C64 1.403 . S
C58 C48 1.476 . S
C58 N53 1.318 . S
C58 C57 1.396 . S
H59 C54 0.929 . S
O60 Mn36 2.385 . S
O60 C38 1.234 . S
O61 Mn36 2.209 . S
O61 Mn37 2.215 . S
O61 C38 1.283 . S
O62 Mn36 2.094 . S
O62 C40 1.240 . S
O63 Mn37 2.117 . S
O63 C40 1.264 . S
C64 C57 1.403 . S
C64 C65 1.399 . S
C64 H70 0.929 . S
C65 C45 1.449 . S
C65 C64 1.399 . S
C65 H71 0.930 . S
H66 C46 0.931 . S
H67 C47 0.930 . S
H68 C55 0.931 . S
H69 C56 0.929 . S
H70 C64 0.929 . S
H71 C65 0.930 . S
Mn72 O77 2.095 . S
Mn72 O87 2.162 . S
Mn72 O88 2.297 . S
Mn72 O96 2.385 . S
Mn72 O97 2.209 . S
Mn72 O98 2.094 . S
Mn73 O78 2.121 . S
Mn73 N80 2.257 . S
Mn73 N89 2.282 . S
Mn73 O97 2.215 . S
Mn73 O99 2.117 . S
C74 O96 1.234 . S
C74 O97 1.283 . S
C75 O87 1.281 . S
C75 O88 1.236 . S
C76 O98 1.240 . S
C76 O99 1.264 . S
O77 Mn72 2.095 . S
O77 C86 1.250 . S
O78 Mn73 2.121 . S
O78 C86 1.258 . S
C79 N80 1.326 . S
C79 C83 1.460 . S
C79 H85 0.929 . S
N80 Mn73 2.257 . S
N80 C79 1.326 . S
N80 C84 1.362 . S
C81 C82 1.258 . S
C81 C84 1.431 . S
C81 C101 1.449 . S
C82 C81 1.258 . S
C82 C83 1.477 . S
C82 H102 0.931 . S
C83 C79 1.460 . S
C83 C82 1.477 . S
C83 H103 0.930 . S
C84 N80 1.362 . S
C84 C81 1.431 . S
C84 C94 1.476 . S
H85 C79 0.929 . S
C86 O77 1.250 . S
C86 O78 1.258 . S
O87 Mn72 2.162 . S
O87 C75 1.281 . S
O88 Mn72 2.297 . S
O88 C75 1.236 . S
N89 Mn73 2.282 . S
N89 C90 1.328 . S
N89 C94 1.318 . S
C90 N89 1.328 . S
C90 C91 1.457 . S
C90 H95 0.929 . S
C91 C90 1.457 . S
C91 C92 1.291 . S
C91 H104 0.931 . S
C92 C91 1.291 . S
C92 C93 1.373 . S
C92 H105 0.929 . S
C93 C92 1.373 . S
C93 C94 1.396 . S
C93 C100 1.403 . S
C94 C84 1.476 . S
C94 N89 1.318 . S
C94 C93 1.396 . S
H95 C90 0.929 . S
O96 Mn72 2.385 . S
O96 C74 1.234 . S
O97 Mn72 2.209 . S
O97 Mn73 2.215 . S
O97 C74 1.283 . S
O98 Mn72 2.094 . S
O98 C76 1.240 . S
O99 Mn73 2.117 . S
O99 C76 1.264 . S
C100 C93 1.403 . S
C100 C101 1.399 . S
C100 H106 0.929 . S
C101 C81 1.449 . S
C101 C100 1.399 . S
C101 H107 0.930 . S
H102 C82 0.931 . S
H103 C83 0.930 . S
H104 C91 0.931 . S
H105 C92 0.929 . S
H106 C100 0.929 . S
H107 C101 0.930 . S
Mn108 O113 2.095 . S
Mn108 O123 2.162 . S
Mn108 O124 2.297 . S
Mn108 O132 2.385 . S
Mn108 O133 2.209 . S
Mn108 O134 2.094 . S
Mn109 O114 2.121 . S
Mn109 N116 2.257 . S
Mn109 N125 2.282 . S
Mn109 O133 2.215 . S
Mn109 O135 2.117 . S
C110 O132 1.234 . S
C110 O133 1.283 . S
C111 O123 1.281 . S
C111 O124 1.236 . S
C112 O134 1.240 . S
C112 O135 1.264 . S
O113 Mn108 2.095 . S
O113 C122 1.250 . S
O114 Mn109 2.121 . S
O114 C122 1.258 . S
C115 N116 1.326 . S
C115 C119 1.460 . S
C115 H121 0.929 . S
N116 Mn109 2.257 . S
N116 C115 1.326 . S
N116 C120 1.362 . S
C117 C118 1.258 . S
C117 C120 1.431 . S
C117 C137 1.449 . S
C118 C117 1.258 . S
C118 C119 1.477 . S
C118 H138 0.931 . S
C119 C115 1.460 . S
C119 C118 1.477 . S
C119 H139 0.930 . S
C120 N116 1.362 . S
C120 C117 1.431 . S
C120 C130 1.476 . S
H121 C115 0.929 . S
C122 O113 1.250 . S
C122 O114 1.258 . S
O123 Mn108 2.162 . S
O123 C111 1.281 . S
O124 Mn108 2.297 . S
O124 C111 1.236 . S
N125 Mn109 2.282 . S
N125 C126 1.328 . S
N125 C130 1.318 . S
C126 N125 1.328 . S
C126 C127 1.457 . S
C126 H131 0.929 . S
C127 C126 1.457 . S
C127 C128 1.291 . S
C127 H140 0.931 . S
C128 C127 1.291 . S
C128 C129 1.373 . S
C128 H141 0.929 . S
C129 C128 1.373 . S
C129 C130 1.396 . S
C129 C136 1.403 . S
C130 C120 1.476 . S
C130 N125 1.318 . S
C130 C129 1.396 . S
H131 C126 0.929 . S
O132 Mn108 2.385 . S
O132 C110 1.234 . S
O133 Mn108 2.209 . S
O133 Mn109 2.215 . S
O133 C110 1.283 . S
O134 Mn108 2.094 . S
O134 C112 1.240 . S
O135 Mn109 2.117 . S
O135 C112 1.264 . S
C136 C129 1.403 . S
C136 C137 1.399 . S
C136 H142 0.929 . S
C137 C117 1.449 . S
C137 C136 1.399 . S
C137 H143 0.930 . S
H138 C118 0.931 . S
H139 C119 0.930 . S
H140 C127 0.931 . S
H141 C128 0.929 . S
H142 C136 0.929 . S
H143 C137 0.930 . S
Mn144 O149 2.095 . S
Mn144 O159 2.162 . S
Mn144 O160 2.297 . S
Mn144 O168 2.385 . S
Mn144 O169 2.209 . S
Mn144 O170 2.094 . S
Mn145 O150 2.121 . S
Mn145 N152 2.257 . S
Mn145 N161 2.282 . S
Mn145 O169 2.215 . S
Mn145 O171 2.117 . S
C146 O168 1.234 . S
C146 O169 1.283 . S
C147 O159 1.281 . S
C147 O160 1.236 . S
C148 O170 1.240 . S
C148 O171 1.264 . S
O149 Mn144 2.095 . S
O149 C158 1.250 . S
O150 Mn145 2.121 . S
O150 C158 1.258 . S
C151 N152 1.326 . S
C151 C155 1.460 . S
C151 H157 0.929 . S
N152 Mn145 2.257 . S
N152 C151 1.326 . S
N152 C156 1.362 . S
C153 C154 1.258 . S
C153 C156 1.431 . S
C153 C173 1.449 . S
C154 C153 1.258 . S
C154 C155 1.477 . S
C154 H174 0.931 . S
C155 C151 1.460 . S
C155 C154 1.477 . S
C155 H175 0.930 . S
C156 N152 1.362 . S
C156 C153 1.431 . S
C156 C166 1.476 . S
H157 C151 0.929 . S
C158 O149 1.250 . S
C158 O150 1.258 . S
O159 Mn144 2.162 . S
O159 C147 1.281 . S
O160 Mn144 2.297 . S
O160 C147 1.236 . S
N161 Mn145 2.282 . S
N161 C162 1.328 . S
N161 C166 1.318 . S
C162 N161 1.328 . S
C162 C163 1.457 . S
C162 H167 0.929 . S
C163 C162 1.457 . S
C163 C164 1.291 . S
C163 H176 0.931 . S
C164 C163 1.291 . S
C164 C165 1.373 . S
C164 H177 0.929 . S
C165 C164 1.373 . S
C165 C166 1.396 . S
C165 C172 1.403 . S
C166 C156 1.476 . S
C166 N161 1.318 . S
C166 C165 1.396 . S
H167 C162 0.929 . S
O168 Mn144 2.385 . S
O168 C146 1.234 . S
O169 Mn144 2.209 . S
O169 Mn145 2.215 . S
O169 C146 1.283 . S
O170 Mn144 2.094 . S
O170 C148 1.240 . S
O171 Mn145 2.117 . S
O171 C148 1.264 . S
C172 C165 1.403 . S
C172 C173 1.399 . S
C172 H178 0.929 . S
C173 C153 1.449 . S
C173 C172 1.399 . S
C173 H179 0.930 . S
H174 C154 0.931 . S
H175 C155 0.930 . S
H176 C163 0.931 . S
H177 C164 0.929 . S
H178 C172 0.929 . S
H179 C173 0.930 . S
Mn180 O185 2.095 . S
Mn180 O195 2.162 . S
Mn180 O196 2.297 . S
Mn180 O204 2.385 . S
Mn180 O205 2.209 . S
Mn180 O206 2.094 . S
Mn181 O186 2.121 . S
Mn181 N188 2.257 . S
Mn181 N197 2.282 . S
Mn181 O205 2.215 . S
Mn181 O207 2.117 . S
C182 O204 1.234 . S
C182 O205 1.283 . S
C183 O195 1.281 . S
C183 O196 1.236 . S
C184 O206 1.240 . S
C184 O207 1.264 . S
O185 Mn180 2.095 . S
O185 C194 1.250 . S
O186 Mn181 2.121 . S
O186 C194 1.258 . S
C187 N188 1.326 . S
C187 C191 1.460 . S
C187 H193 0.929 . S
N188 Mn181 2.257 . S
N188 C187 1.326 . S
N188 C192 1.362 . S
C189 C190 1.258 . S
C189 C192 1.431 . S
C189 C209 1.449 . S
C190 C189 1.258 . S
C190 C191 1.477 . S
C190 H210 0.931 . S
C191 C187 1.460 . S
C191 C190 1.477 . S
C191 H211 0.930 . S
C192 N188 1.362 . S
C192 C189 1.431 . S
C192 C202 1.476 . S
H193 C187 0.929 . S
C194 O185 1.250 . S
C194 O186 1.258 . S
O195 Mn180 2.162 . S
O195 C183 1.281 . S
O196 Mn180 2.297 . S
O196 C183 1.236 . S
N197 Mn181 2.282 . S
N197 C198 1.328 . S
N197 C202 1.318 . S
C198 N197 1.328 . S
C198 C199 1.457 . S
C198 H203 0.929 . S
C199 C198 1.457 . S
C199 C200 1.291 . S
C199 H212 0.931 . S
C200 C199 1.291 . S
C200 C201 1.373 . S
C200 H213 0.929 . S
C201 C200 1.373 . S
C201 C202 1.396 . S
C201 C208 1.403 . S
C202 C192 1.476 . S
C202 N197 1.318 . S
C202 C201 1.396 . S
H203 C198 0.929 . S
O204 Mn180 2.385 . S
O204 C182 1.234 . S
O205 Mn180 2.209 . S
O205 Mn181 2.215 . S
O205 C182 1.283 . S
O206 Mn180 2.094 . S
O206 C184 1.240 . S
O207 Mn181 2.117 . S
O207 C184 1.264 . S
C208 C201 1.403 . S
C208 C209 1.399 . S
C208 H214 0.929 . S
C209 C189 1.449 . S
C209 C208 1.399 . S
C209 H215 0.930 . S
H210 C190 0.931 . S
H211 C191 0.930 . S
H212 C199 0.931 . S
H213 C200 0.929 . S
H214 C208 0.929 . S
H215 C209 0.930 . S
Mn216 O221 2.095 . S
Mn216 O231 2.162 . S
Mn216 O232 2.297 . S
Mn216 O240 2.385 . S
Mn216 O241 2.209 . S
Mn216 O242 2.094 . S
Mn217 O222 2.121 . S
Mn217 N224 2.257 . S
Mn217 N233 2.282 . S
Mn217 O241 2.215 . S
Mn217 O243 2.117 . S
C218 O240 1.234 . S
C218 O241 1.283 . S
C219 O231 1.281 . S
C219 O232 1.236 . S
C220 O242 1.240 . S
C220 O243 1.264 . S
O221 Mn216 2.095 . S
O221 C230 1.250 . S
O222 Mn217 2.121 . S
O222 C230 1.258 . S
C223 N224 1.326 . S
C223 C227 1.460 . S
C223 H229 0.929 . S
N224 Mn217 2.257 . S
N224 C223 1.326 . S
N224 C228 1.362 . S
C225 C226 1.258 . S
C225 C228 1.431 . S
C225 C245 1.449 . S
C226 C225 1.258 . S
C226 C227 1.477 . S
C226 H246 0.931 . S
C227 C223 1.460 . S
C227 C226 1.477 . S
C227 H247 0.930 . S
C228 N224 1.362 . S
C228 C225 1.431 . S
C228 C238 1.476 . S
H229 C223 0.929 . S
C230 O221 1.250 . S
C230 O222 1.258 . S
O231 Mn216 2.162 . S
O231 C219 1.281 . S
O232 Mn216 2.297 . S
O232 C219 1.236 . S
N233 Mn217 2.282 . S
N233 C234 1.328 . S
N233 C238 1.318 . S
C234 N233 1.328 . S
C234 C235 1.457 . S
C234 H239 0.929 . S
C235 C234 1.457 . S
C235 C236 1.291 . S
C235 H248 0.931 . S
C236 C235 1.291 . S
C236 C237 1.373 . S
C236 H249 0.929 . S
C237 C236 1.373 . S
C237 C238 1.396 . S
C237 C244 1.403 . S
C238 C228 1.476 . S
C238 N233 1.318 . S
C238 C237 1.396 . S
H239 C234 0.929 . S
O240 Mn216 2.385 . S
O240 C218 1.234 . S
O241 Mn216 2.209 . S
O241 Mn217 2.215 . S
O241 C218 1.283 . S
O242 Mn216 2.094 . S
O242 C220 1.240 . S
O243 Mn217 2.117 . S
O243 C220 1.264 . S
C244 C237 1.403 . S
C244 C245 1.399 . S
C244 H250 0.929 . S
C245 C225 1.449 . S
C245 C244 1.399 . S
C245 H251 0.930 . S
H246 C226 0.931 . S
H247 C227 0.930 . S
H248 C235 0.931 . S
H249 C236 0.929 . S
H250 C244 0.929 . S
H251 C245 0.930 . S
Mn252 O257 2.095 . S
Mn252 O267 2.162 . S
Mn252 O268 2.297 . S
Mn252 O276 2.385 . S
Mn252 O277 2.209 . S
Mn252 O278 2.094 . S
Mn253 O258 2.121 . S
Mn253 N260 2.257 . S
Mn253 N269 2.282 . S
Mn253 O277 2.215 . S
Mn253 O279 2.117 . S
C254 O276 1.234 . S
C254 O277 1.283 . S
C255 O267 1.281 . S
C255 O268 1.236 . S
C256 O278 1.240 . S
C256 O279 1.264 . S
O257 Mn252 2.095 . S
O257 C266 1.250 . S
O258 Mn253 2.121 . S
O258 C266 1.258 . S
C259 N260 1.326 . S
C259 C263 1.460 . S
C259 H265 0.929 . S
N260 Mn253 2.257 . S
N260 C259 1.326 . S
N260 C264 1.362 . S
C261 C262 1.258 . S
C261 C264 1.431 . S
C261 C281 1.449 . S
C262 C261 1.258 . S
C262 C263 1.477 . S
C262 H282 0.931 . S
C263 C259 1.460 . S
C263 C262 1.477 . S
C263 H283 0.930 . S
C264 N260 1.362 . S
C264 C261 1.431 . S
C264 C274 1.476 . S
H265 C259 0.929 . S
C266 O257 1.250 . S
C266 O258 1.258 . S
O267 Mn252 2.162 . S
O267 C255 1.281 . S
O268 Mn252 2.297 . S
O268 C255 1.236 . S
N269 Mn253 2.282 . S
N269 C270 1.328 . S
N269 C274 1.318 . S
C270 N269 1.328 . S
C270 C271 1.457 . S
C270 H275 0.929 . S
C271 C270 1.457 . S
C271 C272 1.291 . S
C271 H284 0.931 . S
C272 C271 1.291 . S
C272 C273 1.373 . S
C272 H285 0.929 . S
C273 C272 1.373 . S
C273 C274 1.396 . S
C273 C280 1.403 . S
C274 C264 1.476 . S
C274 N269 1.318 . S
C274 C273 1.396 . S
H275 C270 0.929 . S
O276 Mn252 2.385 . S
O276 C254 1.234 . S
O277 Mn252 2.209 . S
O277 Mn253 2.215 . S
O277 C254 1.283 . S
O278 Mn252 2.094 . S
O278 C256 1.240 . S
O279 Mn253 2.117 . S
O279 C256 1.264 . S
C280 C273 1.403 . S
C280 C281 1.399 . S
C280 H286 0.929 . S
C281 C261 1.449 . S
C281 C280 1.399 . S
C281 H287 0.930 . S
H282 C262 0.931 . S
H283 C263 0.930 . S
H284 C271 0.931 . S
H285 C272 0.929 . S
H286 C280 0.929 . S
H287 C281 0.930 . S
Mn288 O293 2.095 . S
Mn288 O303 2.162 . S
Mn288 O304 2.297 . S
Mn288 O312 2.385 . S
Mn288 O313 2.209 . S
Mn288 O314 2.094 . S
Mn289 O294 2.121 . S
Mn289 N296 2.257 . S
Mn289 N305 2.282 . S
Mn289 O313 2.215 . S
Mn289 O315 2.117 . S
C290 O312 1.234 . S
C290 O313 1.283 . S
C291 O303 1.281 . S
C291 O304 1.236 . S
C292 O314 1.240 . S
C292 O315 1.264 . S
O293 Mn288 2.095 . S
O293 C302 1.250 . S
O294 Mn289 2.121 . S
O294 C302 1.258 . S
C295 N296 1.326 . S
C295 C299 1.460 . S
C295 H301 0.929 . S
N296 Mn289 2.257 . S
N296 C295 1.326 . S
N296 C300 1.362 . S
C297 C298 1.258 . S
C297 C300 1.431 . S
C297 C317 1.449 . S
C298 C297 1.258 . S
C298 C299 1.477 . S
C298 H318 0.931 . S
C299 C295 1.460 . S
C299 C298 1.477 . S
C299 H319 0.930 . S
C300 N296 1.362 . S
C300 C297 1.431 . S
C300 C310 1.476 . S
H301 C295 0.929 . S
C302 O293 1.250 . S
C302 O294 1.258 . S
O303 Mn288 2.162 . S
O303 C291 1.281 . S
O304 Mn288 2.297 . S
O304 C291 1.236 . S
N305 Mn289 2.282 . S
N305 C306 1.328 . S
N305 C310 1.318 . S
C306 N305 1.328 . S
C306 C307 1.457 . S
C306 H311 0.929 . S
C307 C306 1.457 . S
C307 C308 1.291 . S
C307 H320 0.931 . S
C308 C307 1.291 . S
C308 C309 1.373 . S
C308 H321 0.929 . S
C309 C308 1.373 . S
C309 C310 1.396 . S
C309 C316 1.403 . S
C310 C300 1.476 . S
C310 N305 1.318 . S
C310 C309 1.396 . S
H311 C306 0.929 . S
O312 Mn288 2.385 . S
O312 C290 1.234 . S
O313 Mn288 2.209 . S
O313 Mn289 2.215 . S
O313 C290 1.283 . S
O314 Mn288 2.094 . S
O314 C292 1.240 . S
O315 Mn289 2.117 . S
O315 C292 1.264 . S
C316 C309 1.403 . S
C316 C317 1.399 . S
C316 H322 0.929 . S
C317 C297 1.449 . S
C317 C316 1.399 . S
C317 H323 0.930 . S
H318 C298 0.931 . S
H319 C299 0.930 . S
H320 C307 0.931 . S
H321 C308 0.929 . S
H322 C316 0.929 . S
H323 C317 0.930 . S
Mn324 O329 2.095 . S
Mn324 O339 2.162 . S
Mn324 O340 2.297 . S
Mn324 O348 2.385 . S
Mn324 O349 2.209 . S
Mn324 O350 2.094 . S
Mn325 O330 2.121 . S
Mn325 N332 2.257 . S
Mn325 N341 2.282 . S
Mn325 O349 2.215 . S
Mn325 O351 2.117 . S
C326 O348 1.234 . S
C326 O349 1.283 . S
C327 O339 1.281 . S
C327 O340 1.236 . S
C328 O350 1.240 . S
C328 O351 1.264 . S
O329 Mn324 2.095 . S
O329 C338 1.250 . S
O330 Mn325 2.121 . S
O330 C338 1.258 . S
C331 N332 1.326 . S
C331 C335 1.460 . S
C331 H337 0.929 . S
N332 Mn325 2.257 . S
N332 C331 1.326 . S
N332 C336 1.362 . S
C333 C334 1.258 . S
C333 C336 1.431 . S
C333 C353 1.449 . S
C334 C333 1.258 . S
C334 C335 1.477 . S
C334 H354 0.931 . S
C335 C331 1.460 . S
C335 C334 1.477 . S
C335 H355 0.930 . S
C336 N332 1.362 . S
C336 C333 1.431 . S
C336 C346 1.476 . S
H337 C331 0.929 . S
C338 O329 1.250 . S
C338 O330 1.258 . S
O339 Mn324 2.162 . S
O339 C327 1.281 . S
O340 Mn324 2.297 . S
O340 C327 1.236 . S
N341 Mn325 2.282 . S
N341 C342 1.328 . S
N341 C346 1.318 . S
C342 N341 1.328 . S
C342 C343 1.457 . S
C342 H347 0.929 . S
C343 C342 1.457 . S
C343 C344 1.291 . S
C343 H356 0.931 . S
C344 C343 1.291 . S
C344 C345 1.373 . S
C344 H357 0.929 . S
C345 C344 1.373 . S
C345 C346 1.396 . S
C345 C352 1.403 . S
C346 C336 1.476 . S
C346 N341 1.318 . S
C346 C345 1.396 . S
H347 C342 0.929 . S
O348 Mn324 2.385 . S
O348 C326 1.234 . S
O349 Mn324 2.209 . S
O349 Mn325 2.215 . S
O349 C326 1.283 . S
O350 Mn324 2.094 . S
O350 C328 1.240 . S
O351 Mn325 2.117 . S
O351 C328 1.264 . S
C352 C345 1.403 . S
C352 C353 1.399 . S
C352 H358 0.929 . S
C353 C333 1.449 . S
C353 C352 1.399 . S
C353 H359 0.930 . S
H354 C334 0.931 . S
H355 C335 0.930 . S
H356 C343 0.931 . S
H357 C344 0.929 . S
H358 C352 0.929 . S
H359 C353 0.930 . S
Mn360 O365 2.095 . S
Mn360 O375 2.162 . S
Mn360 O376 2.297 . S
Mn360 O384 2.385 . S
Mn360 O385 2.209 . S
Mn360 O386 2.094 . S
Mn361 O366 2.121 . S
Mn361 N368 2.257 . S
Mn361 N377 2.282 . S
Mn361 O385 2.215 . S
Mn361 O387 2.117 . S
C362 O384 1.234 . S
C362 O385 1.283 . S
C363 O375 1.281 . S
C363 O376 1.236 . S
C364 O386 1.240 . S
C364 O387 1.264 . S
O365 Mn360 2.095 . S
O365 C374 1.250 . S
O366 Mn361 2.121 . S
O366 C374 1.258 . S
C367 N368 1.326 . S
C367 C371 1.460 . S
C367 H373 0.929 . S
N368 Mn361 2.257 . S
N368 C367 1.326 . S
N368 C372 1.362 . S
C369 C370 1.258 . S
C369 C372 1.431 . S
C369 C389 1.449 . S
C370 C369 1.258 . S
C370 C371 1.477 . S
C370 H390 0.931 . S
C371 C367 1.460 . S
C371 C370 1.477 . S
C371 H391 0.930 . S
C372 N368 1.362 . S
C372 C369 1.431 . S
C372 C382 1.476 . S
H373 C367 0.929 . S
C374 O365 1.250 . S
C374 O366 1.258 . S
O375 Mn360 2.162 . S
O375 C363 1.281 . S
O376 Mn360 2.297 . S
O376 C363 1.236 . S
N377 Mn361 2.282 . S
N377 C378 1.328 . S
N377 C382 1.318 . S
C378 N377 1.328 . S
C378 C379 1.457 . S
C378 H383 0.929 . S
C379 C378 1.457 . S
C379 C380 1.291 . S
C379 H392 0.931 . S
C380 C379 1.291 . S
C380 C381 1.373 . S
C380 H393 0.929 . S
C381 C380 1.373 . S
C381 C382 1.396 . S
C381 C388 1.403 . S
C382 C372 1.476 . S
C382 N377 1.318 . S
C382 C381 1.396 . S
H383 C378 0.929 . S
O384 Mn360 2.385 . S
O384 C362 1.234 . S
O385 Mn360 2.209 . S
O385 Mn361 2.215 . S
O385 C362 1.283 . S
O386 Mn360 2.094 . S
O386 C364 1.240 . S
O387 Mn361 2.117 . S
O387 C364 1.264 . S
C388 C381 1.403 . S
C388 C389 1.399 . S
C388 H394 0.929 . S
C389 C369 1.449 . S
C389 C388 1.399 . S
C389 H395 0.930 . S
H390 C370 0.931 . S
H391 C371 0.930 . S
H392 C379 0.931 . S
H393 C380 0.929 . S
H394 C388 0.929 . S
H395 C389 0.930 . S
Mn396 O401 2.095 . S
Mn396 O411 2.162 . S
Mn396 O412 2.297 . S
Mn396 O420 2.385 . S
Mn396 O421 2.209 . S
Mn396 O422 2.094 . S
Mn397 O402 2.121 . S
Mn397 N404 2.257 . S
Mn397 N413 2.282 . S
Mn397 O421 2.215 . S
Mn397 O423 2.117 . S
C398 O420 1.234 . S
C398 O421 1.283 . S
C399 O411 1.281 . S
C399 O412 1.236 . S
C400 O422 1.240 . S
C400 O423 1.264 . S
O401 Mn396 2.095 . S
O401 C410 1.250 . S
O402 Mn397 2.121 . S
O402 C410 1.258 . S
C403 N404 1.326 . S
C403 C407 1.460 . S
C403 H409 0.929 . S
N404 Mn397 2.257 . S
N404 C403 1.326 . S
N404 C408 1.362 . S
C405 C406 1.258 . S
C405 C408 1.431 . S
C405 C425 1.449 . S
C406 C405 1.258 . S
C406 C407 1.477 . S
C406 H426 0.931 . S
C407 C403 1.460 . S
C407 C406 1.477 . S
C407 H427 0.930 . S
C408 N404 1.362 . S
C408 C405 1.431 . S
C408 C418 1.476 . S
H409 C403 0.929 . S
C410 O401 1.250 . S
C410 O402 1.258 . S
O411 Mn396 2.162 . S
O411 C399 1.281 . S
O412 Mn396 2.297 . S
O412 C399 1.236 . S
N413 Mn397 2.282 . S
N413 C414 1.328 . S
N413 C418 1.318 . S
C414 N413 1.328 . S
C414 C415 1.457 . S
C414 H419 0.929 . S
C415 C414 1.457 . S
C415 C416 1.291 . S
C415 H428 0.931 . S
C416 C415 1.291 . S
C416 C417 1.373 . S
C416 H429 0.929 . S
C417 C416 1.373 . S
C417 C418 1.396 . S
C417 C424 1.403 . S
C418 C408 1.476 . S
C418 N413 1.318 . S
C418 C417 1.396 . S
H419 C414 0.929 . S
O420 Mn396 2.385 . S
O420 C398 1.234 . S
O421 Mn396 2.209 . S
O421 Mn397 2.215 . S
O421 C398 1.283 . S
O422 Mn396 2.094 . S
O422 C400 1.240 . S
O423 Mn397 2.117 . S
O423 C400 1.264 . S
C424 C417 1.403 . S
C424 C425 1.399 . S
C424 H430 0.929 . S
C425 C405 1.449 . S
C425 C424 1.399 . S
C425 H431 0.930 . S
H426 C406 0.931 . S
H427 C407 0.930 . S
H428 C415 0.931 . S
H429 C416 0.929 . S
H430 C424 0.929 . S
H431 C425 0.930 . S
Mn432 O437 2.095 . S
Mn432 O447 2.162 . S
Mn432 O448 2.297 . S
Mn432 O456 2.385 . S
Mn432 O457 2.209 . S
Mn432 O458 2.094 . S
Mn433 O438 2.121 . S
Mn433 N440 2.257 . S
Mn433 N449 2.282 . S
Mn433 O457 2.215 . S
Mn433 O459 2.117 . S
C434 O456 1.234 . S
C434 O457 1.283 . S
C435 O447 1.281 . S
C435 O448 1.236 . S
C436 O458 1.240 . S
C436 O459 1.264 . S
O437 Mn432 2.095 . S
O437 C446 1.250 . S
O438 Mn433 2.121 . S
O438 C446 1.258 . S
C439 N440 1.326 . S
C439 C443 1.460 . S
C439 H445 0.929 . S
N440 Mn433 2.257 . S
N440 C439 1.326 . S
N440 C444 1.362 . S
C441 C442 1.258 . S
C441 C444 1.431 . S
C441 C461 1.449 . S
C442 C441 1.258 . S
C442 C443 1.477 . S
C442 H462 0.931 . S
C443 C439 1.460 . S
C443 C442 1.477 . S
C443 H463 0.930 . S
C444 N440 1.362 . S
C444 C441 1.431 . S
C444 C454 1.476 . S
H445 C439 0.929 . S
C446 O437 1.250 . S
C446 O438 1.258 . S
O447 Mn432 2.162 . S
O447 C435 1.281 . S
O448 Mn432 2.297 . S
O448 C435 1.236 . S
N449 Mn433 2.282 . S
N449 C450 1.328 . S
N449 C454 1.318 . S
C450 N449 1.328 . S
C450 C451 1.457 . S
C450 H455 0.929 . S
C451 C450 1.457 . S
C451 C452 1.291 . S
C451 H464 0.931 . S
C452 C451 1.291 . S
C452 C453 1.373 . S
C452 H465 0.929 . S
C453 C452 1.373 . S
C453 C454 1.396 . S
C453 C460 1.403 . S
C454 C444 1.476 . S
C454 N449 1.318 . S
C454 C453 1.396 . S
H455 C450 0.929 . S
O456 Mn432 2.385 . S
O456 C434 1.234 . S
O457 Mn432 2.209 . S
O457 Mn433 2.215 . S
O457 C434 1.283 . S
O458 Mn432 2.094 . S
O458 C436 1.240 . S
O459 Mn433 2.117 . S
O459 C436 1.264 . S
C460 C453 1.403 . S
C460 C461 1.399 . S
C460 H466 0.929 . S
C461 C441 1.449 . S
C461 C460 1.399 . S
C461 H467 0.930 . S
H462 C442 0.931 . S
H463 C443 0.930 . S
H464 C451 0.931 . S
H465 C452 0.929 . S
H466 C460 0.929 . S
H467 C461 0.930 . S
Mn468 O473 2.095 . S
Mn468 O483 2.162 . S
Mn468 O484 2.297 . S
Mn468 O492 2.385 . S
Mn468 O493 2.209 . S
Mn468 O494 2.094 . S
Mn469 O474 2.121 . S
Mn469 N476 2.257 . S
Mn469 N485 2.282 . S
Mn469 O493 2.215 . S
Mn469 O495 2.117 . S
C470 O492 1.234 . S
C470 O493 1.283 . S
C471 O483 1.281 . S
C471 O484 1.236 . S
C472 O494 1.240 . S
C472 O495 1.264 . S
O473 Mn468 2.095 . S
O473 C482 1.250 . S
O474 Mn469 2.121 . S
O474 C482 1.258 . S
C475 N476 1.326 . S
C475 C479 1.460 . S
C475 H481 0.929 . S
N476 Mn469 2.257 . S
N476 C475 1.326 . S
N476 C480 1.362 . S
C477 C478 1.258 . S
C477 C480 1.431 . S
C477 C497 1.449 . S
C478 C477 1.258 . S
C478 C479 1.477 . S
C478 H498 0.931 . S
C479 C475 1.460 . S
C479 C478 1.477 . S
C479 H499 0.930 . S
C480 N476 1.362 . S
C480 C477 1.431 . S
C480 C490 1.476 . S
H481 C475 0.929 . S
C482 O473 1.250 . S
C482 O474 1.258 . S
O483 Mn468 2.162 . S
O483 C471 1.281 . S
O484 Mn468 2.297 . S
O484 C471 1.236 . S
N485 Mn469 2.282 . S
N485 C486 1.328 . S
N485 C490 1.318 . S
C486 N485 1.328 . S
C486 C487 1.457 . S
C486 H491 0.929 . S
C487 C486 1.457 . S
C487 C488 1.291 . S
C487 H500 0.931 . S
C488 C487 1.291 . S
C488 C489 1.373 . S
C488 H501 0.929 . S
C489 C488 1.373 . S
C489 C490 1.396 . S
C489 C496 1.403 . S
C490 C480 1.476 . S
C490 N485 1.318 . S
C490 C489 1.396 . S
H491 C486 0.929 . S
O492 Mn468 2.385 . S
O492 C470 1.234 . S
O493 Mn468 2.209 . S
O493 Mn469 2.215 . S
O493 C470 1.283 . S
O494 Mn468 2.094 . S
O494 C472 1.240 . S
O495 Mn469 2.117 . S
O495 C472 1.264 . S
C496 C489 1.403 . S
C496 C497 1.399 . S
C496 H502 0.929 . S
C497 C477 1.449 . S
C497 C496 1.399 . S
C497 H503 0.930 . S
H498 C478 0.931 . S
H499 C479 0.930 . S
H500 C487 0.931 . S
H501 C488 0.929 . S
H502 C496 0.929 . S
H503 C497 0.930 . S
Mn504 O509 2.095 . S
Mn504 O519 2.162 . S
Mn504 O520 2.297 . S
Mn504 O528 2.385 . S
Mn504 O529 2.209 . S
Mn504 O530 2.094 . S
Mn505 O510 2.121 . S
Mn505 N512 2.257 . S
Mn505 N521 2.282 . S
Mn505 O529 2.215 . S
Mn505 O531 2.117 . S
C506 O528 1.234 . S
C506 O529 1.283 . S
C507 O519 1.281 . S
C507 O520 1.236 . S
C508 O530 1.240 . S
C508 O531 1.264 . S
O509 Mn504 2.095 . S
O509 C518 1.250 . S
O510 Mn505 2.121 . S
O510 C518 1.258 . S
C511 N512 1.326 . S
C511 C515 1.460 . S
C511 H517 0.929 . S
N512 Mn505 2.257 . S
N512 C511 1.326 . S
N512 C516 1.362 . S
C513 C514 1.258 . S
C513 C516 1.431 . S
C513 C533 1.449 . S
C514 C513 1.258 . S
C514 C515 1.477 . S
C514 H534 0.931 . S
C515 C511 1.460 . S
C515 C514 1.477 . S
C515 H535 0.930 . S
C516 N512 1.362 . S
C516 C513 1.431 . S
C516 C526 1.476 . S
H517 C511 0.929 . S
C518 O509 1.250 . S
C518 O510 1.258 . S
O519 Mn504 2.162 . S
O519 C507 1.281 . S
O520 Mn504 2.297 . S
O520 C507 1.236 . S
N521 Mn505 2.282 . S
N521 C522 1.328 . S
N521 C526 1.318 . S
C522 N521 1.328 . S
C522 C523 1.457 . S
C522 H527 0.929 . S
C523 C522 1.457 . S
C523 C524 1.291 . S
C523 H536 0.931 . S
C524 C523 1.291 . S
C524 C525 1.373 . S
C524 H537 0.929 . S
C525 C524 1.373 . S
C525 C526 1.396 . S
C525 C532 1.403 . S
C526 C516 1.476 . S
C526 N521 1.318 . S
C526 C525 1.396 . S
H527 C522 0.929 . S
O528 Mn504 2.385 . S
O528 C506 1.234 . S
O529 Mn504 2.209 . S
O529 Mn505 2.215 . S
O529 C506 1.283 . S
O530 Mn504 2.094 . S
O530 C508 1.240 . S
O531 Mn505 2.117 . S
O531 C508 1.264 . S
C532 C525 1.403 . S
C532 C533 1.399 . S
C532 H538 0.929 . S
C533 C513 1.449 . S
C533 C532 1.399 . S
C533 H539 0.930 . S
H534 C514 0.931 . S
H535 C515 0.930 . S
H536 C523 0.931 . S
H537 C524 0.929 . S
H538 C532 0.929 . S
H539 C533 0.930 . S
Mn540 O545 2.095 . S
Mn540 O555 2.162 . S
Mn540 O556 2.297 . S
Mn540 O564 2.385 . S
Mn540 O565 2.209 . S
Mn540 O566 2.094 . S
Mn541 O546 2.121 . S
Mn541 N548 2.257 . S
Mn541 N557 2.282 . S
Mn541 O565 2.215 . S
Mn541 O567 2.117 . S
C542 O564 1.234 . S
C542 O565 1.283 . S
C543 O555 1.281 . S
C543 O556 1.236 . S
C544 O566 1.240 . S
C544 O567 1.264 . S
O545 Mn540 2.095 . S
O545 C554 1.250 . S
O546 Mn541 2.121 . S
O546 C554 1.258 . S
C547 N548 1.326 . S
C547 C551 1.460 . S
C547 H553 0.929 . S
N548 Mn541 2.257 . S
N548 C547 1.326 . S
N548 C552 1.362 . S
C549 C550 1.258 . S
C549 C552 1.431 . S
C549 C569 1.449 . S
C550 C549 1.258 . S
C550 C551 1.477 . S
C550 H570 0.931 . S
C551 C547 1.460 . S
C551 C550 1.477 . S
C551 H571 0.930 . S
C552 N548 1.362 . S
C552 C549 1.431 . S
C552 C562 1.476 . S
H553 C547 0.929 . S
C554 O545 1.250 . S
C554 O546 1.258 . S
O555 Mn540 2.162 . S
O555 C543 1.281 . S
O556 Mn540 2.297 . S
O556 C543 1.236 . S
N557 Mn541 2.282 . S
N557 C558 1.328 . S
N557 C562 1.318 . S
C558 N557 1.328 . S
C558 C559 1.457 . S
C558 H563 0.929 . S
C559 C558 1.457 . S
C559 C560 1.291 . S
C559 H572 0.931 . S
C560 C559 1.291 . S
C560 C561 1.373 . S
C560 H573 0.929 . S
C561 C560 1.373 . S
C561 C562 1.396 . S
C561 C568 1.403 . S
C562 C552 1.476 . S
C562 N557 1.318 . S
C562 C561 1.396 . S
H563 C558 0.929 . S
O564 Mn540 2.385 . S
O564 C542 1.234 . S
O565 Mn540 2.209 . S
O565 Mn541 2.215 . S
O565 C542 1.283 . S
O566 Mn540 2.094 . S
O566 C544 1.240 . S
O567 Mn541 2.117 . S
O567 C544 1.264 . S
C568 C561 1.403 . S
C568 C569 1.399 . S
C568 H574 0.929 . S
C569 C549 1.449 . S
C569 C568 1.399 . S
C569 H575 0.930 . S
H570 C550 0.931 . S
H571 C551 0.930 . S
H572 C559 0.931 . S
H573 C560 0.929 . S
H574 C568 0.929 . S
H575 C569 0.930 . S
C576 C577 1.369 . S
C576 C578 1.419 . S
C576 H580 0.930 . S
C577 C576 1.369 . S
C577 C586 1.429 . S
C578 C576 1.419 . S
C578 C579 1.363 . S
C578 H581 0.929 . S
C579 C578 1.363 . S
C579 C585 1.428 . S
H580 C576 0.930 . S
H581 C578 0.929 . S
S582 N583 1.613 . S
S582 N584 1.610 . S
N583 S582 1.613 . S
N583 C586 1.350 . S
N584 S582 1.610 . S
N584 C585 1.351 . S
C585 C579 1.428 . S
C585 N584 1.351 . S
C585 C586 1.434 . S
C586 C577 1.429 . S
C586 N583 1.350 . S
C586 C585 1.434 . S
C587 C588 1.369 . S
C587 C589 1.419 . S
C587 H591 0.930 . S
C588 C587 1.369 . S
C588 C597 1.429 . S
C589 C587 1.419 . S
C589 C590 1.363 . S
C589 H592 0.929 . S
C590 C589 1.363 . S
C590 C596 1.428 . S
H591 C587 0.930 . S
H592 C589 0.929 . S
S593 N594 1.613 . S
S593 N595 1.610 . S
N594 S593 1.613 . S
N594 C597 1.350 . S
N595 S593 1.610 . S
N595 C596 1.351 . S
C596 C590 1.428 . S
C596 N595 1.351 . S
C596 C597 1.434 . S
C597 C588 1.429 . S
C597 N594 1.350 . S
C597 C596 1.434 . S
C598 C599 1.369 . S
C598 C600 1.419 . S
C598 H602 0.930 . S
C599 C598 1.369 . S
C599 C608 1.429 . S
C600 C598 1.419 . S
C600 C601 1.363 . S
C600 H603 0.929 . S
C601 C600 1.363 . S
C601 C607 1.428 . S
H602 C598 0.930 . S
H603 C600 0.929 . S
S604 N605 1.613 . S
S604 N606 1.610 . S
N605 S604 1.613 . S
N605 C608 1.350 . S
N606 S604 1.610 . S
N606 C607 1.351 . S
C607 C601 1.428 . S
C607 N606 1.351 . S
C607 C608 1.434 . S
C608 C599 1.429 . S
C608 N605 1.350 . S
C608 C607 1.434 . S
C609 C610 1.369 . S
C609 C611 1.419 . S
C609 H613 0.930 . S
C610 C609 1.369 . S
C610 C619 1.429 . S
C611 C609 1.419 . S
C611 C612 1.363 . S
C611 H614 0.929 . S
C612 C611 1.363 . S
C612 C618 1.428 . S
H613 C609 0.930 . S
H614 C611 0.929 . S
S615 N616 1.613 . S
S615 N617 1.610 . S
N616 S615 1.613 . S
N616 C619 1.350 . S
N617 S615 1.610 . S
N617 C618 1.351 . S
C618 C612 1.428 . S
C618 N617 1.351 . S
C618 C619 1.434 . S
C619 C610 1.429 . S
C619 N616 1.350 . S
C619 C618 1.434 . S
C620 C621 1.369 . S
C620 C622 1.419 . S
C620 H624 0.930 . S
C621 C620 1.369 . S
C621 C630 1.429 . S
C622 C620 1.419 . S
C622 C623 1.363 . S
C622 H625 0.929 . S
C623 C622 1.363 . S
C623 C629 1.428 . S
H624 C620 0.930 . S
H625 C622 0.929 . S
S626 N627 1.613 . S
S626 N628 1.610 . S
N627 S626 1.613 . S
N627 C630 1.350 . S
N628 S626 1.610 . S
N628 C629 1.351 . S
C629 C623 1.428 . S
C629 N628 1.351 . S
C629 C630 1.434 . S
C630 C621 1.429 . S
C630 N627 1.350 . S
C630 C629 1.434 . S
C631 C632 1.369 . S
C631 C633 1.419 . S
C631 H635 0.930 . S
C632 C631 1.369 . S
C632 C641 1.429 . S
C633 C631 1.419 . S
C633 C634 1.363 . S
C633 H636 0.929 . S
C634 C633 1.363 . S
C634 C640 1.428 . S
H635 C631 0.930 . S
H636 C633 0.929 . S
S637 N638 1.613 . S
S637 N639 1.610 . S
N638 S637 1.613 . S
N638 C641 1.350 . S
N639 S637 1.610 . S
N639 C640 1.351 . S
C640 C634 1.428 . S
C640 N639 1.351 . S
C640 C641 1.434 . S
C641 C632 1.429 . S
C641 N638 1.350 . S
C641 C640 1.434 . S
C642 C643 1.369 . S
C642 C644 1.419 . S
C642 H646 0.930 . S
C643 C642 1.369 . S
C643 C652 1.429 . S
C644 C642 1.419 . S
C644 C645 1.363 . S
C644 H647 0.929 . S
C645 C644 1.363 . S
C645 C651 1.428 . S
H646 C642 0.930 . S
H647 C644 0.929 . S
S648 N649 1.613 . S
S648 N650 1.610 . S
N649 S648 1.613 . S
N649 C652 1.350 . S
N650 S648 1.610 . S
N650 C651 1.351 . S
C651 C645 1.428 . S
C651 N650 1.351 . S
C651 C652 1.434 . S
C652 C643 1.429 . S
C652 N649 1.350 . S
C652 C651 1.434 . S
C653 C654 1.369 . S
C653 C655 1.419 . S
C653 H657 0.930 . S
C654 C653 1.369 . S
C654 C663 1.429 . S
C655 C653 1.419 . S
C655 C656 1.363 . S
C655 H658 0.929 . S
C656 C655 1.363 . S
C656 C662 1.428 . S
H657 C653 0.930 . S
H658 C655 0.929 . S
S659 N660 1.613 . S
S659 N661 1.610 . S
N660 S659 1.613 . S
N660 C663 1.350 . S
N661 S659 1.610 . S
N661 C662 1.351 . S
C662 C656 1.428 . S
C662 N661 1.351 . S
C662 C663 1.434 . S
C663 C654 1.429 . S
C663 N660 1.350 . S
C663 C662 1.434 . S
C664 C665 1.369 . S
C664 C666 1.419 1_565 S
C664 H668 0.930 . S
C665 C664 1.369 . S
C665 C674 1.429 . S
C666 C664 1.419 1_545 S
C666 C667 1.363 . S
C666 H669 0.929 . S
C667 C666 1.363 . S
C667 C673 1.428 . S
H668 C664 0.930 . S
H669 C666 0.929 . S
S670 N671 1.613 1_545 S
S670 N672 1.610 . S
N671 S670 1.613 1_565 S
N671 C674 1.350 . S
N672 S670 1.610 . S
N672 C673 1.351 . S
C673 C667 1.428 . S
C673 N672 1.351 . S
C673 C674 1.434 1_545 S
C674 C665 1.429 . S
C674 N671 1.350 . S
C674 C673 1.434 1_565 S
C675 C676 1.369 . S
C675 C677 1.419 . S
C675 H679 0.930 . S
C676 C675 1.369 . S
C676 C685 1.429 . S
C677 C675 1.419 . S
C677 C678 1.363 . S
C677 H680 0.929 . S
C678 C677 1.363 . S
C678 C684 1.428 . S
H679 C675 0.930 . S
H680 C677 0.929 . S
S681 N682 1.613 . S
S681 N683 1.610 . S
N682 S681 1.613 . S
N682 C685 1.350 . S
N683 S681 1.610 . S
N683 C684 1.351 . S
C684 C678 1.428 . S
C684 N683 1.351 . S
C684 C685 1.434 . S
C685 C676 1.429 . S
C685 N682 1.350 . S
C685 C684 1.434 . S
C686 C687 1.369 . S
C686 C688 1.419 1_556 S
C686 H690 0.930 . S
C687 C686 1.369 . S
C687 C696 1.429 . S
C688 C686 1.419 1_554 S
C688 C689 1.363 . S
C688 H691 0.929 . S
C689 C688 1.363 . S
C689 C695 1.428 1_554 S
H690 C686 0.930 . S
H691 C688 0.929 . S
S692 N693 1.613 . S
S692 N694 1.610 . S
N693 S692 1.613 . S
N693 C696 1.350 . S
N694 S692 1.610 . S
N694 C695 1.351 . S
C695 C689 1.428 1_556 S
C695 N694 1.351 . S
C695 C696 1.434 . S
C696 C687 1.429 . S
C696 N693 1.350 . S
C696 C695 1.434 . S
C697 C698 1.369 . S
C697 C699 1.419 1_554 S
C697 H701 0.930 . S
C698 C697 1.369 . S
C698 C707 1.429 . S
C699 C697 1.419 1_556 S
C699 C700 1.363 . S
C699 H702 0.929 . S
C700 C699 1.363 . S
C700 C706 1.428 . S
H701 C697 0.930 . S
H702 C699 0.929 . S
S703 N704 1.613 . S
S703 N705 1.610 1_554 S
N704 S703 1.613 . S
N704 C707 1.350 . S
N705 S703 1.610 1_556 S
N705 C706 1.351 . S
C706 C700 1.428 . S
C706 N705 1.351 . S
C706 C707 1.434 1_556 S
C707 C698 1.429 . S
C707 N704 1.350 . S
C707 C706 1.434 1_554 S
C708 C709 1.369 . S
C708 C710 1.419 . S
C708 H712 0.930 . S
C709 C708 1.369 . S
C709 C718 1.429 . S
C710 C708 1.419 . S
C710 C711 1.363 . S
C710 H713 0.929 . S
C711 C710 1.363 . S
C711 C717 1.428 . S
H712 C708 0.930 . S
H713 C710 0.929 . S
S714 N715 1.613 . S
S714 N716 1.610 . S
N715 S714 1.613 . S
N715 C718 1.350 . S
N716 S714 1.610 . S
N716 C717 1.351 . S
C717 C711 1.428 . S
C717 N716 1.351 . S
C717 C718 1.434 . S
C718 C709 1.429 . S
C718 N715 1.350 . S
C718 C717 1.434 . S
C719 C720 1.369 . S
C719 C721 1.419 . S
C719 H723 0.930 . S
C720 C719 1.369 . S
C720 C729 1.429 . S
C721 C719 1.419 . S
C721 C722 1.363 . S
C721 H724 0.929 . S
C722 C721 1.363 . S
C722 C728 1.428 . S
H723 C719 0.930 . S
H724 C721 0.929 . S
S725 N726 1.613 . S
S725 N727 1.610 . S
N726 S725 1.613 . S
N726 C729 1.350 . S
N727 S725 1.610 . S
N727 C728 1.351 . S
C728 C722 1.428 . S
C728 N727 1.351 . S
C728 C729 1.434 . S
C729 C720 1.429 . S
C729 N726 1.350 . S
C729 C728 1.434 . S
C730 C731 1.369 . S
C730 C732 1.419 1_655 S
C730 H734 0.930 . S
C731 C730 1.369 . S
C731 C740 1.429 . S
C732 C730 1.419 1_455 S
C732 C733 1.363 . S
C732 H735 0.929 . S
C733 C732 1.363 . S
C733 C739 1.428 1_455 S
H734 C730 0.930 . S
H735 C732 0.929 . S
S736 N737 1.613 . S
S736 N738 1.610 . S
N737 S736 1.613 . S
N737 C740 1.350 . S
N738 S736 1.610 . S
N738 C739 1.351 . S
C739 C733 1.428 1_655 S
C739 N738 1.351 . S
C739 C740 1.434 . S
C740 C731 1.429 . S
C740 N737 1.350 . S
C740 C739 1.434 . S
C741 C742 1.369 . S
C741 C743 1.419 1_655 S
C741 H745 0.930 . S
C742 C741 1.369 . S
C742 C751 1.429 1_655 S
C743 C741 1.419 1_455 S
C743 C744 1.363 . S
C743 H746 0.929 . S
C744 C743 1.363 . S
C744 C750 1.428 . S
H745 C741 0.930 . S
H746 C743 0.929 . S
S747 N748 1.613 . S
S747 N749 1.610 . S
N748 S747 1.613 . S
N748 C751 1.350 . S
N749 S747 1.610 . S
N749 C750 1.351 . S
C750 C744 1.428 . S
C750 N749 1.351 . S
C750 C751 1.434 . S
C751 C742 1.429 1_455 S
C751 N748 1.350 . S
C751 C750 1.434 . S
C752 C753 1.369 . S
C752 C754 1.419 . S
C752 H756 0.930 . S
C753 C752 1.369 . S
C753 C762 1.429 . S
C754 C752 1.419 . S
C754 C755 1.363 . S
C754 H757 0.929 . S
C755 C754 1.363 . S
C755 C761 1.428 . S
H756 C752 0.930 . S
H757 C754 0.929 . S
S758 N759 1.613 . S
S758 N760 1.610 . S
N759 S758 1.613 . S
N759 C762 1.350 . S
N760 S758 1.610 . S
N760 C761 1.351 . S
C761 C755 1.428 . S
C761 N760 1.351 . S
C761 C762 1.434 . S
C762 C753 1.429 . S
C762 N759 1.350 . S
C762 C761 1.434 . S
C763 C764 1.369 . S
C763 C765 1.419 1_545 S
C763 H767 0.930 . S
C764 C763 1.369 . S
C764 C773 1.429 . S
C765 C763 1.419 1_565 S
C765 C766 1.363 . S
C765 H768 0.929 . S
C766 C765 1.363 . S
C766 C772 1.428 1_565 S
H767 C763 0.930 . S
H768 C765 0.929 . S
S769 N770 1.613 . S
S769 N771 1.610 . S
N770 S769 1.613 . S
N770 C773 1.350 . S
N771 S769 1.610 . S
N771 C772 1.351 . S
C772 C766 1.428 1_545 S
C772 N771 1.351 . S
C772 C773 1.434 . S
C773 C764 1.429 . S
C773 N770 1.350 . S
C773 C772 1.434 . S
C774 C775 1.369 . S
C774 C776 1.419 . S
C774 H778 0.930 . S
C775 C774 1.369 . S
C775 C784 1.429 . S
C776 C774 1.419 . S
C776 C777 1.363 . S
C776 H779 0.929 . S
C777 C776 1.363 . S
C777 C783 1.428 . S
H778 C774 0.930 . S
H779 C776 0.929 . S
S780 N781 1.613 . S
S780 N782 1.610 . S
N781 S780 1.613 . S
N781 C784 1.350 . S
N782 S780 1.610 . S
N782 C783 1.351 . S
C783 C777 1.428 . S
C783 N782 1.351 . S
C783 C784 1.434 . S
C784 C775 1.429 . S
C784 N781 1.350 . S
C784 C783 1.434 . S
C785 C786 1.369 1_556 S
C785 C787 1.419 . S
C785 H789 0.930 . S
C786 C785 1.369 1_554 S
C786 C795 1.429 . S
C787 C785 1.419 . S
C787 C788 1.363 . S
C787 H790 0.929 . S
C788 C787 1.363 . S
C788 C794 1.428 1_556 S
H789 C785 0.930 . S
H790 C787 0.929 . S
S791 N792 1.613 . S
S791 N793 1.610 . S
N792 S791 1.613 . S
N792 C795 1.350 . S
N793 S791 1.610 . S
N793 C794 1.351 . S
C794 C788 1.428 1_554 S
C794 N793 1.351 . S
C794 C795 1.434 . S
C795 C786 1.429 . S
C795 N792 1.350 . S
C795 C794 1.434 . S
C796 C797 1.369 . S
C796 C798 1.419 1_556 S
C796 H800 0.930 . S
C797 C796 1.369 . S
C797 C806 1.429 . S
C798 C796 1.419 1_554 S
C798 C799 1.363 . S
C798 H801 0.929 . S
C799 C798 1.363 . S
C799 C805 1.428 . S
H800 C796 0.930 . S
H801 C798 0.929 . S
S802 N803 1.613 . S
S802 N804 1.610 1_556 S
N803 S802 1.613 . S
N803 C806 1.350 . S
N804 S802 1.610 1_554 S
N804 C805 1.351 . S
C805 C799 1.428 . S
C805 N804 1.351 . S
C805 C806 1.434 1_554 S
C806 C797 1.429 . S
C806 N803 1.350 . S
C806 C805 1.434 1_556 S
C807 C808 1.369 . S
C807 C809 1.419 . S
C807 H811 0.930 . S
C808 C807 1.369 . S
C808 C817 1.429 . S
C809 C807 1.419 . S
C809 C810 1.363 . S
C809 H812 0.929 . S
C810 C809 1.363 . S
C810 C816 1.428 . S
H811 C807 0.930 . S
H812 C809 0.929 . S
S813 N814 1.613 . S
S813 N815 1.610 . S
N814 S813 1.613 . S
N814 C817 1.350 . S
N815 S813 1.610 . S
N815 C816 1.351 . S
C816 C810 1.428 . S
C816 N815 1.351 . S
C816 C817 1.434 . S
C817 C808 1.429 . S
C817 N814 1.350 . S
C817 C816 1.434 . S
C818 C819 1.369 . S
C818 C820 1.419 . S
C818 H822 0.930 . S
C819 C818 1.369 . S
C819 C828 1.429 . S
C820 C818 1.419 . S
C820 C821 1.363 . S
C820 H823 0.929 . S
C821 C820 1.363 . S
C821 C827 1.428 . S
H822 C818 0.930 . S
H823 C820 0.929 . S
S824 N825 1.613 . S
S824 N826 1.610 . S
N825 S824 1.613 . S
N825 C828 1.350 . S
N826 S824 1.610 . S
N826 C827 1.351 . S
C827 C821 1.428 . S
C827 N826 1.351 . S
C827 C828 1.434 . S
C828 C819 1.429 . S
C828 N825 1.350 . S
C828 C827 1.434 . S
C829 C830 1.369 . S
C829 C831 1.419 . S
C829 H833 0.930 . S
C830 C829 1.369 . S
C830 C839 1.429 1_455 S
C831 C829 1.419 . S
C831 C832 1.363 1_455 S
C831 H834 0.929 . S
C832 C831 1.363 1_655 S
C832 C838 1.428 . S
H833 C829 0.930 . S
H834 C831 0.929 . S
S835 N836 1.613 . S
S835 N837 1.610 . S
N836 S835 1.613 . S
N836 C839 1.350 . S
N837 S835 1.610 . S
N837 C838 1.351 . S
C838 C832 1.428 . S
C838 N837 1.351 . S
C838 C839 1.434 . S
C839 C830 1.429 1_655 S
C839 N836 1.350 . S
C839 C838 1.434 . S
C840 C841 1.369 . S
C840 C842 1.419 1_455 S
C840 H844 0.930 . S
C841 C840 1.369 . S
C841 C850 1.429 . S
C842 C840 1.419 1_655 S
C842 C843 1.363 . S
C842 H845 0.929 . S
C843 C842 1.363 . S
C843 C849 1.428 1_655 S
H844 C840 0.930 . S
H845 C842 0.929 . S
S846 N847 1.613 . S
S846 N848 1.610 . S
N847 S846 1.613 . S
N847 C850 1.350 . S
N848 S846 1.610 . S
N848 C849 1.351 . S
C849 C843 1.428 1_455 S
C849 N848 1.351 . S
C849 C850 1.434 . S
C850 C841 1.429 . S
C850 N847 1.350 . S
C850 C849 1.434 . S
C851 C852 1.369 . S
C851 C853 1.419 . S
C851 H855 0.930 . S
C852 C851 1.369 . S
C852 C861 1.429 . S
C853 C851 1.419 . S
C853 C854 1.363 . S
C853 H856 0.929 . S
C854 C853 1.363 . S
C854 C860 1.428 . S
H855 C851 0.930 . S
H856 C853 0.929 . S
S857 N858 1.613 . S
S857 N859 1.610 . S
N858 S857 1.613 . S
N858 C861 1.350 . S
N859 S857 1.610 . S
N859 C860 1.351 . S
C860 C854 1.428 . S
C860 N859 1.351 . S
C860 C861 1.434 . S
C861 C852 1.429 . S
C861 N858 1.350 . S
C861 C860 1.434 . S
C862 C863 1.369 . S
C862 C864 1.419 . S
C862 H866 0.930 . S
C863 C862 1.369 . S
C863 C872 1.429 . S
C864 C862 1.419 . S
C864 C865 1.363 . S
C864 H867 0.929 . S
C865 C864 1.363 . S
C865 C871 1.428 . S
H866 C862 0.930 . S
H867 C864 0.929 . S
S868 N869 1.613 . S
S868 N870 1.610 . S
N869 S868 1.613 . S
N869 C872 1.350 . S
N870 S868 1.610 . S
N870 C871 1.351 . S
C871 C865 1.428 . S
C871 N870 1.351 . S
C871 C872 1.434 . S
C872 C863 1.429 . S
C872 N869 1.350 . S
C872 C871 1.434 . S
C873 C874 1.369 1_565 S
C873 C875 1.419 . S
C873 H877 0.930 . S
C874 C873 1.369 1_545 S
C874 C883 1.429 . S
C875 C873 1.419 . S
C875 C876 1.363 . S
C875 H878 0.929 . S
C876 C875 1.363 . S
C876 C882 1.428 . S
H877 C873 0.930 . S
H878 C875 0.929 . S
S879 N880 1.613 . S
S879 N881 1.610 1_545 S
N880 S879 1.613 . S
N880 C883 1.350 . S
N881 S879 1.610 1_565 S
N881 C882 1.351 . S
C882 C876 1.428 . S
C882 N881 1.351 . S
C882 C883 1.434 1_565 S
C883 C874 1.429 . S
C883 N880 1.350 . S
C883 C882 1.434 1_545 S
C884 C885 1.369 . S
C884 C886 1.419 . S
C884 H888 0.930 . S
C885 C884 1.369 . S
C885 C894 1.429 . S
C886 C884 1.419 . S
C886 C887 1.363 . S
C886 H889 0.929 . S
C887 C886 1.363 . S
C887 C893 1.428 . S
H888 C884 0.930 . S
H889 C886 0.929 . S
S890 N891 1.613 . S
S890 N892 1.610 . S
N891 S890 1.613 . S
N891 C894 1.350 . S
N892 S890 1.610 . S
N892 C893 1.351 . S
C893 C887 1.428 . S
C893 N892 1.351 . S
C893 C894 1.434 . S
C894 C885 1.429 . S
C894 N891 1.350 . S
C894 C893 1.434 . S
C895 C896 1.369 . S
C895 C897 1.419 . S
C895 H899 0.930 . S
C896 C895 1.369 . S
C896 C905 1.429 . S
C897 C895 1.419 . S
C897 C898 1.363 . S
C897 H900 0.929 . S
C898 C897 1.363 . S
C898 C904 1.428 . S
H899 C895 0.930 . S
H900 C897 0.929 . S
S901 N902 1.613 . S
S901 N903 1.610 . S
N902 S901 1.613 . S
N902 C905 1.350 . S
N903 S901 1.610 . S
N903 C904 1.351 . S
C904 C898 1.428 . S
C904 N903 1.351 . S
C904 C905 1.434 . S
C905 C896 1.429 . S
C905 N902 1.350 . S
C905 C904 1.434 . S
C906 C907 1.369 . S
C906 C908 1.419 1_545 S
C906 H910 0.930 . S
C907 C906 1.369 . S
C907 C916 1.429 . S
C908 C906 1.419 1_565 S
C908 C909 1.363 . S
C908 H911 0.929 . S
C909 C908 1.363 . S
C909 C915 1.428 . S
H910 C906 0.930 . S
H911 C908 0.929 . S
S912 N913 1.613 1_565 S
S912 N914 1.610 . S
N913 S912 1.613 1_545 S
N913 C916 1.350 . S
N914 S912 1.610 . S
N914 C915 1.351 . S
C915 C909 1.428 . S
C915 N914 1.351 . S
C915 C916 1.434 1_565 S
C916 C907 1.429 . S
C916 N913 1.350 . S
C916 C915 1.434 1_545 S
C917 C918 1.369 . S
C917 C919 1.419 . S
C917 H921 0.930 . S
C918 C917 1.369 . S
C918 C927 1.429 . S
C919 C917 1.419 . S
C919 C920 1.363 . S
C919 H922 0.929 . S
C920 C919 1.363 . S
C920 C926 1.428 . S
H921 C917 0.930 . S
H922 C919 0.929 . S
S923 N924 1.613 . S
S923 N925 1.610 . S
N924 S923 1.613 . S
N924 C927 1.350 . S
N925 S923 1.610 . S
N925 C926 1.351 . S
C926 C920 1.428 . S
C926 N925 1.351 . S
C926 C927 1.434 . S
C927 C918 1.429 . S
C927 N924 1.350 . S
C927 C926 1.434 . S
C577 C2 1.337 . S
C579 C470 1.336 . S
C588 C38 1.163 . S
C590 C326 1.159 . S
C599 C506 1.189 . S
C601 C74 1.187 . S
C610 C110 1.331 . S
C612 C542 1.336 . S
C621 C146 1.163 . S
C623 C218 1.160 . S
C632 C362 1.336 . S
C634 C182 1.335 . S
C643 C398 1.186 . S
C645 C254 1.188 . S
C654 C290 1.337 . S
C656 C434 1.334 . S
C665 C75 1.619 . S
C667 C14 1.499 . S
C676 C50 1.626 . S
C678 C122 1.606 . S
C687 C435 1.609 . S
C689 C3 1.609 . S
C698 C39 1.668 . S
C700 C400 1.666 . S
C709 C147 1.666 . S
C711 C76 1.664 . S
C720 C363 1.609 . S
C722 C111 1.608 . S
C731 C40 1.717 . S
C733 C4 1.707 . S
C742 C112 1.173 . S
C744 C86 1.085 . S
C753 C364 1.701 . S
C755 C148 1.720 . S
C764 C256 1.626 . S
C766 C183 1.628 . S
C775 C219 1.333 . S
C777 C292 1.328 . S
C786 C543 1.683 . S
C788 C194 1.557 . S
C797 C230 1.436 . S
C799 C507 1.532 . S
C808 C338 1.427 . S
C810 C255 1.533 . S
C819 C291 1.683 . S
C821 C482 1.558 . S
C830 C220 1.628 . S
C832 C184 1.628 . S
C841 C302 1.648 . S
C843 C266 1.683 . S
C852 C328 1.626 . S
C854 C472 1.630 . S
C863 C374 1.495 . S
C865 C399 1.619 . S
C874 C446 1.609 . S
C876 C158 1.623 . S
C885 C436 1.167 . S
C887 C410 1.094 . S
C896 C508 1.626 . S
C898 C471 1.628 . S
C907 C327 1.332 . S
C909 C544 1.329 . S
C918 C554 1.645 . S
C920 C518 1.681 . S
