# Generated by pormake.
# Topology vcc, (6)-cn, num edge types: 1
# Building blocks:
#     Node 0, Type 0, BuildingBlock: GEDQOX_clean_sbu_0, # of connection points: 6
#     Node 1, Type 0, BuildingBlock: GEDQOX_clean_sbu_0, # of connection points: 6
#     Node 2, Type 0, BuildingBlock: GEDQOX_clean_sbu_0, # of connection points: 6
#     Node 3, Type 0, BuildingBlock: GEDQOX_clean_sbu_0, # of connection points: 6
#     Node 4, Type 0, BuildingBlock: GEDQOX_clean_sbu_0, # of connection points: 6
#     Node 5, Type 0, BuildingBlock: GEDQOX_clean_sbu_0, # of connection points: 6
#     Node 6, Type 0, BuildingBlock: GEDQOX_clean_sbu_0, # of connection points: 6
#     Node 7, Type 0, BuildingBlock: GEDQOX_clean_sbu_0, # of connection points: 6
#     Node 8, Type 0, BuildingBlock: GEDQOX_clean_sbu_0, # of connection points: 6
#     Node 9, Type 0, BuildingBlock: GEDQOX_clean_sbu_0, # of connection points: 6
#     Node 10, Type 0, BuildingBlock: GEDQOX_clean_sbu_0, # of connection points: 6
#     Node 11, Type 0, BuildingBlock: GEDQOX_clean_sbu_0, # of connection points: 6
#     Node 12, Type 0, BuildingBlock: GEDQOX_clean_sbu_0, # of connection points: 6
#     Node 13, Type 0, BuildingBlock: GEDQOX_clean_sbu_0, # of connection points: 6
#     Node 14, Type 0, BuildingBlock: GEDQOX_clean_sbu_0, # of connection points: 6
#     Node 15, Type 0, BuildingBlock: GEDQOX_clean_sbu_0, # of connection points: 6
#     Node 16, Type 0, BuildingBlock: GEDQOX_clean_sbu_0, # of connection points: 6
#     Node 17, Type 0, BuildingBlock: GEDQOX_clean_sbu_0, # of connection points: 6
#     Node 18, Type 0, BuildingBlock: GEDQOX_clean_sbu_0, # of connection points: 6
#     Node 19, Type 0, BuildingBlock: GEDQOX_clean_sbu_0, # of connection points: 6
#     Node 20, Type 0, BuildingBlock: GEDQOX_clean_sbu_0, # of connection points: 6
#     Node 21, Type 0, BuildingBlock: GEDQOX_clean_sbu_0, # of connection points: 6
#     Node 22, Type 0, BuildingBlock: GEDQOX_clean_sbu_0, # of connection points: 6
#     Node 23, Type 0, BuildingBlock: GEDQOX_clean_sbu_0, # of connection points: 6
#     Node 24, Type 0, BuildingBlock: GEDQOX_clean_sbu_0, # of connection points: 6
#     Node 25, Type 0, BuildingBlock: GEDQOX_clean_sbu_0, # of connection points: 6
#     Node 26, Type 0, BuildingBlock: GEDQOX_clean_sbu_0, # of connection points: 6
#     Node 27, Type 0, BuildingBlock: GEDQOX_clean_sbu_0, # of connection points: 6
#     Node 28, Type 0, BuildingBlock: GEDQOX_clean_sbu_0, # of connection points: 6
#     Node 29, Type 0, BuildingBlock: GEDQOX_clean_sbu_0, # of connection points: 6
#     Node 30, Type 0, BuildingBlock: GEDQOX_clean_sbu_0, # of connection points: 6
#     Node 31, Type 0, BuildingBlock: GEDQOX_clean_sbu_0, # of connection points: 6
#     Edge 32, Type (0, 0), BuildingBlock: KIFKEQ_clean_linker_1, # of connection points: 2
#     Edge 33, Type (0, 0), BuildingBlock: KIFKEQ_clean_linker_1, # of connection points: 2
#     Edge 34, Type (0, 0), BuildingBlock: KIFKEQ_clean_linker_1, # of connection points: 2
#     Edge 35, Type (0, 0), BuildingBlock: KIFKEQ_clean_linker_1, # of connection points: 2
#     Edge 36, Type (0, 0), BuildingBlock: KIFKEQ_clean_linker_1, # of connection points: 2
#     Edge 37, Type (0, 0), BuildingBlock: KIFKEQ_clean_linker_1, # of connection points: 2
#     Edge 38, Type (0, 0), BuildingBlock: KIFKEQ_clean_linker_1, # of connection points: 2
#     Edge 39, Type (0, 0), BuildingBlock: KIFKEQ_clean_linker_1, # of connection points: 2
#     Edge 40, Type (0, 0), BuildingBlock: KIFKEQ_clean_linker_1, # of connection points: 2
#     Edge 41, Type (0, 0), BuildingBlock: KIFKEQ_clean_linker_1, # of connection points: 2
#     Edge 42, Type (0, 0), BuildingBlock: KIFKEQ_clean_linker_1, # of connection points: 2
#     Edge 43, Type (0, 0), BuildingBlock: KIFKEQ_clean_linker_1, # of connection points: 2
#     Edge 44, Type (0, 0), BuildingBlock: KIFKEQ_clean_linker_1, # of connection points: 2
#     Edge 45, Type (0, 0), BuildingBlock: KIFKEQ_clean_linker_1, # of connection points: 2
#     Edge 46, Type (0, 0), BuildingBlock: KIFKEQ_clean_linker_1, # of connection points: 2
#     Edge 47, Type (0, 0), BuildingBlock: KIFKEQ_clean_linker_1, # of connection points: 2
#     Edge 48, Type (0, 0), BuildingBlock: KIFKEQ_clean_linker_1, # of connection points: 2
#     Edge 49, Type (0, 0), BuildingBlock: KIFKEQ_clean_linker_1, # of connection points: 2
#     Edge 50, Type (0, 0), BuildingBlock: KIFKEQ_clean_linker_1, # of connection points: 2
#     Edge 51, Type (0, 0), BuildingBlock: KIFKEQ_clean_linker_1, # of connection points: 2
#     Edge 52, Type (0, 0), BuildingBlock: KIFKEQ_clean_linker_1, # of connection points: 2
#     Edge 53, Type (0, 0), BuildingBlock: KIFKEQ_clean_linker_1, # of connection points: 2
#     Edge 54, Type (0, 0), BuildingBlock: KIFKEQ_clean_linker_1, # of connection points: 2
#     Edge 55, Type (0, 0), BuildingBlock: KIFKEQ_clean_linker_1, # of connection points: 2
#     Edge 56, Type (0, 0), BuildingBlock: KIFKEQ_clean_linker_1, # of connection points: 2
#     Edge 57, Type (0, 0), BuildingBlock: KIFKEQ_clean_linker_1, # of connection points: 2
#     Edge 58, Type (0, 0), BuildingBlock: KIFKEQ_clean_linker_1, # of connection points: 2
#     Edge 59, Type (0, 0), BuildingBlock: KIFKEQ_clean_linker_1, # of connection points: 2
#     Edge 60, Type (0, 0), BuildingBlock: KIFKEQ_clean_linker_1, # of connection points: 2
#     Edge 61, Type (0, 0), BuildingBlock: KIFKEQ_clean_linker_1, # of connection points: 2
#     Edge 62, Type (0, 0), BuildingBlock: KIFKEQ_clean_linker_1, # of connection points: 2
#     Edge 63, Type (0, 0), BuildingBlock: KIFKEQ_clean_linker_1, # of connection points: 2
#     Edge 64, Type (0, 0), BuildingBlock: KIFKEQ_clean_linker_1, # of connection points: 2
#     Edge 65, Type (0, 0), BuildingBlock: KIFKEQ_clean_linker_1, # of connection points: 2
#     Edge 66, Type (0, 0), BuildingBlock: KIFKEQ_clean_linker_1, # of connection points: 2
#     Edge 67, Type (0, 0), BuildingBlock: KIFKEQ_clean_linker_1, # of connection points: 2
#     Edge 68, Type (0, 0), BuildingBlock: KIFKEQ_clean_linker_1, # of connection points: 2
#     Edge 69, Type (0, 0), BuildingBlock: KIFKEQ_clean_linker_1, # of connection points: 2
#     Edge 70, Type (0, 0), BuildingBlock: KIFKEQ_clean_linker_1, # of connection points: 2
#     Edge 71, Type (0, 0), BuildingBlock: KIFKEQ_clean_linker_1, # of connection points: 2
#     Edge 72, Type (0, 0), BuildingBlock: KIFKEQ_clean_linker_1, # of connection points: 2
#     Edge 73, Type (0, 0), BuildingBlock: KIFKEQ_clean_linker_1, # of connection points: 2
#     Edge 74, Type (0, 0), BuildingBlock: KIFKEQ_clean_linker_1, # of connection points: 2
#     Edge 75, Type (0, 0), BuildingBlock: KIFKEQ_clean_linker_1, # of connection points: 2
#     Edge 76, Type (0, 0), BuildingBlock: KIFKEQ_clean_linker_1, # of connection points: 2
#     Edge 77, Type (0, 0), BuildingBlock: KIFKEQ_clean_linker_1, # of connection points: 2
#     Edge 78, Type (0, 0), BuildingBlock: KIFKEQ_clean_linker_1, # of connection points: 2
#     Edge 79, Type (0, 0), BuildingBlock: KIFKEQ_clean_linker_1, # of connection points: 2
#     Edge 80, Type (0, 0), BuildingBlock: KIFKEQ_clean_linker_1, # of connection points: 2
#     Edge 81, Type (0, 0), BuildingBlock: KIFKEQ_clean_linker_1, # of connection points: 2
#     Edge 82, Type (0, 0), BuildingBlock: KIFKEQ_clean_linker_1, # of connection points: 2
#     Edge 83, Type (0, 0), BuildingBlock: KIFKEQ_clean_linker_1, # of connection points: 2
#     Edge 84, Type (0, 0), BuildingBlock: KIFKEQ_clean_linker_1, # of connection points: 2
#     Edge 85, Type (0, 0), BuildingBlock: KIFKEQ_clean_linker_1, # of connection points: 2
#     Edge 86, Type (0, 0), BuildingBlock: KIFKEQ_clean_linker_1, # of connection points: 2
#     Edge 87, Type (0, 0), BuildingBlock: KIFKEQ_clean_linker_1, # of connection points: 2
#     Edge 88, Type (0, 0), BuildingBlock: KIFKEQ_clean_linker_1, # of connection points: 2
#     Edge 89, Type (0, 0), BuildingBlock: KIFKEQ_clean_linker_1, # of connection points: 2
#     Edge 90, Type (0, 0), BuildingBlock: KIFKEQ_clean_linker_1, # of connection points: 2
#     Edge 91, Type (0, 0), BuildingBlock: KIFKEQ_clean_linker_1, # of connection points: 2
#     Edge 92, Type (0, 0), BuildingBlock: KIFKEQ_clean_linker_1, # of connection points: 2
#     Edge 93, Type (0, 0), BuildingBlock: KIFKEQ_clean_linker_1, # of connection points: 2
#     Edge 94, Type (0, 0), BuildingBlock: KIFKEQ_clean_linker_1, # of connection points: 2
#     Edge 95, Type (0, 0), BuildingBlock: KIFKEQ_clean_linker_1, # of connection points: 2
#     Edge 96, Type (0, 0), BuildingBlock: KIFKEQ_clean_linker_1, # of connection points: 2
#     Edge 97, Type (0, 0), BuildingBlock: KIFKEQ_clean_linker_1, # of connection points: 2
#     Edge 98, Type (0, 0), BuildingBlock: KIFKEQ_clean_linker_1, # of connection points: 2
#     Edge 99, Type (0, 0), BuildingBlock: KIFKEQ_clean_linker_1, # of connection points: 2
#     Edge 100, Type (0, 0), BuildingBlock: KIFKEQ_clean_linker_1, # of connection points: 2
#     Edge 101, Type (0, 0), BuildingBlock: KIFKEQ_clean_linker_1, # of connection points: 2
#     Edge 102, Type (0, 0), BuildingBlock: KIFKEQ_clean_linker_1, # of connection points: 2
#     Edge 103, Type (0, 0), BuildingBlock: KIFKEQ_clean_linker_1, # of connection points: 2
#     Edge 104, Type (0, 0), BuildingBlock: KIFKEQ_clean_linker_1, # of connection points: 2
#     Edge 105, Type (0, 0), BuildingBlock: KIFKEQ_clean_linker_1, # of connection points: 2
#     Edge 106, Type (0, 0), BuildingBlock: KIFKEQ_clean_linker_1, # of connection points: 2
#     Edge 107, Type (0, 0), BuildingBlock: KIFKEQ_clean_linker_1, # of connection points: 2
#     Edge 108, Type (0, 0), BuildingBlock: KIFKEQ_clean_linker_1, # of connection points: 2
#     Edge 109, Type (0, 0), BuildingBlock: KIFKEQ_clean_linker_1, # of connection points: 2
#     Edge 110, Type (0, 0), BuildingBlock: KIFKEQ_clean_linker_1, # of connection points: 2
#     Edge 111, Type (0, 0), BuildingBlock: KIFKEQ_clean_linker_1, # of connection points: 2
#     Edge 112, Type (0, 0), BuildingBlock: KIFKEQ_clean_linker_1, # of connection points: 2
#     Edge 113, Type (0, 0), BuildingBlock: KIFKEQ_clean_linker_1, # of connection points: 2
#     Edge 114, Type (0, 0), BuildingBlock: KIFKEQ_clean_linker_1, # of connection points: 2
#     Edge 115, Type (0, 0), BuildingBlock: KIFKEQ_clean_linker_1, # of connection points: 2
#     Edge 116, Type (0, 0), BuildingBlock: KIFKEQ_clean_linker_1, # of connection points: 2
#     Edge 117, Type (0, 0), BuildingBlock: KIFKEQ_clean_linker_1, # of connection points: 2
#     Edge 118, Type (0, 0), BuildingBlock: KIFKEQ_clean_linker_1, # of connection points: 2
#     Edge 119, Type (0, 0), BuildingBlock: KIFKEQ_clean_linker_1, # of connection points: 2
#     Edge 120, Type (0, 0), BuildingBlock: KIFKEQ_clean_linker_1, # of connection points: 2
#     Edge 121, Type (0, 0), BuildingBlock: KIFKEQ_clean_linker_1, # of connection points: 2
#     Edge 122, Type (0, 0), BuildingBlock: KIFKEQ_clean_linker_1, # of connection points: 2
#     Edge 123, Type (0, 0), BuildingBlock: KIFKEQ_clean_linker_1, # of connection points: 2
#     Edge 124, Type (0, 0), BuildingBlock: KIFKEQ_clean_linker_1, # of connection points: 2
#     Edge 125, Type (0, 0), BuildingBlock: KIFKEQ_clean_linker_1, # of connection points: 2
#     Edge 126, Type (0, 0), BuildingBlock: KIFKEQ_clean_linker_1, # of connection points: 2
#     Edge 127, Type (0, 0), BuildingBlock: KIFKEQ_clean_linker_1, # of connection points: 2
# Relax obj value: 0.677
# Max RMSD: 0.266
# Mean RMSD: 0.266
data_MOF--net-vcc--node1-GEDQOX_clean_sbu_0--edge1-KIFKEQ_clean_linker_1
_symmetry_space_group_name_H-M    P1
_symmetry_Int_Tables_number       1
_symmetry_cell_setting            triclinic
loop_
_symmetry_equiv_pos_as_xyz
'x, y, z'
_cell_length_a     73.055945
_cell_length_b     57.859557
_cell_length_c     39.858354
_cell_angle_alpha  89.870239
_cell_angle_beta   89.818546
_cell_angle_gamma 89.870915
loop_
_atom_site_label
_atom_site_type_symbol
_atom_site_fract_x
_atom_site_fract_y
_atom_site_fract_z
_atom_type_partial_charge
Nd0 Nd 0.31791 0.99064 0.21412 0.0
Nd1 Nd 0.34612 0.0009 0.24227 0.0
C2 C 0.29079 0.9738 0.17788 0.0
C3 C 0.28635 0.95633 1.15242 0.0
C4 C 0.29029 0.93276 1.15743 0.0
C5 C 0.28211 0.91601 1.13717 0.0
C6 C 0.26991 0.92259 1.11165 0.0
C7 C 0.26752 0.94631 1.10478 0.0
C8 C 0.27562 0.96297 1.12504 0.0
C9 C 0.3173 0.03866 0.23092 0.0
C10 C 0.35196 -0.00174 1.15699 0.0
C11 C 0.37337 0.01994 0.27575 0.0
C12 C 0.39198 0.02583 0.26524 0.0
C13 C 0.40058 0.04509 0.27921 0.0
C14 C 0.41761 0.0522 0.26717 0.0
C15 C 0.42627 0.04015 0.24087 0.0
C16 C 0.4175 0.02096 0.2267 0.0
C17 C 0.40042 0.01393 0.23867 0.0
C18 C 0.3529 0.95492 0.2251 0.0
C19 C 0.30691 0.99449 0.29422 0.0
O20 O 0.29509 0.96626 0.20771 0.0
O21 O 0.30026 0.99183 0.16862 0.0
O22 O 0.30449 0.02399 0.23753 0.0
O23 O 0.32991 0.0279 0.21581 0.0
O24 O 0.33525 0.98962 0.16186 0.0
O25 O 0.35949 0.00597 0.18563 0.0
O26 O 0.36939 -0.00197 0.27786 0.0
O27 O 0.36069 0.03181 0.26068 0.0
O28 O 0.36344 0.97229 0.21884 0.0
O29 O 0.33758 0.96244 0.2374 0.0
O30 O 0.32475 0.00083 0.29219 0.0
O31 O 0.30047 0.98759 0.2649 0.0
H32 H 0.29874 0.92718 0.17822 0.0
H33 H 0.28442 0.89792 1.14281 0.0
H34 H 0.25806 0.95215 1.08567 0.0
H35 H 0.27242 0.98104 1.12073 0.0
H36 H 0.39407 0.05471 0.29929 0.0
H37 H 0.4242 0.06679 0.27904 0.0
H38 H 0.42386 0.01139 0.20643 0.0
H39 H 0.39375 -0.00066 0.22698 0.0
Nd40 Nd 0.95221 0.25572 0.21229 0.0
Nd41 Nd 0.92352 0.24716 0.24355 0.0
C42 C 0.97858 0.27187 0.17361 0.0
C43 C 0.97993 0.28543 1.14223 0.0
C44 C 0.9787 0.30971 1.14244 0.0
C45 C 0.98209 0.3224 1.11319 0.0
C46 C 0.98686 0.31107 1.08324 0.0
C47 C 0.98684 0.28676 1.08264 0.0
C48 C 0.9835 0.27411 1.11181 0.0
C49 C 0.95207 0.20857 0.23313 0.0
C50 C 0.91836 0.24839 1.1563 0.0
C51 C 0.89346 0.22831 0.26857 0.0
C52 C 0.8801 0.21109 0.25717 0.0
C53 C 0.8745 0.19372 0.27939 0.0
C54 C 0.86051 0.17861 0.27047 0.0
C55 C 0.85178 0.18067 0.23915 0.0
C56 C 0.85828 0.1971 0.21602 0.0
C57 C 0.87238 0.21217 0.22492 0.0
C58 C 0.92365 0.29532 0.24304 0.0
C59 C 0.96243 0.25322 0.29398 0.0
O60 O 0.97269 0.28265 0.20041 0.0
O61 O 0.97218 0.25085 0.17109 0.0
O62 O 0.96534 0.22295 0.23783 0.0
O63 O 0.93943 0.21924 0.21803 0.0
O64 O 0.9362 0.2524 0.15952 0.0
O65 O 0.90989 0.24535 0.1862 0.0
O66 O 0.89365 0.24805 0.25278 0.0
O67 O 0.90983 0.22064 0.27524 0.0
O68 O 0.92258 0.28261 0.2698 0.0
O69 O 0.92799 0.28235 0.21818 0.0
O70 O 0.94532 0.24436 0.29198 0.0
O71 O 0.96783 0.2624 0.2649 0.0
H72 H 0.97584 0.31898 0.16545 0.0
H73 H 0.98193 0.3411 1.11442 0.0
H74 H 0.9908 0.2774 1.06025 0.0
H75 H 0.98453 0.25544 1.11081 0.0
H76 H 0.88042 0.19247 0.30423 0.0
H77 H 0.85567 0.16643 0.28915 0.0
H78 H 0.85188 0.19903 0.1917 0.0
H79 H 0.87671 0.22519 0.20705 0.0
Nd80 Nd 0.31907 0.254 0.34501 0.0
Nd81 Nd 0.34629 0.24539 0.31692 0.0
C82 C 0.29293 0.26733 0.38669 0.0
C83 C 0.29154 0.27884 0.41948 0.0
C84 C 0.30016 0.30006 0.42606 0.0
C85 C 0.29718 0.31136 0.45666 0.0
C86 C 0.28568 0.30149 0.48115 0.0
C87 C 0.27805 0.27956 0.47498 0.0
C88 C 0.28093 0.26844 0.44451 0.0
C89 C 0.31889 0.20631 0.32596 0.0
C90 C 0.3528 0.24596 0.40159 0.0
C91 C 0.37139 0.22816 0.27535 0.0
C92 C 0.38027 0.20612 0.26739 0.0
C93 C 0.38118 0.18807 0.29089 0.0
C94 C 0.39193 0.16854 0.28436 0.0
C95 C 0.40224 0.16703 0.25449 0.0
C96 C 0.40013 0.1846 0.23018 0.0
C97 C 0.38921 0.20386 0.23657 0.0
C98 C 0.35287 0.29183 0.33156 0.0
C99 C 0.30681 0.25318 0.26598 0.0
O100 O 0.29832 0.27972 0.36108 0.0
O101 O 0.29997 0.24662 0.38692 0.0
O102 O 0.30638 0.22138 0.31898 0.0
O103 O 0.33147 0.21656 0.34178 0.0
O104 O 0.33668 0.25604 0.39658 0.0
O105 O 0.35952 0.23701 0.37292 0.0
O106 O 0.37512 0.23708 0.30438 0.0
O107 O 0.35421 0.2302 0.26768 0.0
O108 O 0.36397 0.27484 0.33565 0.0
O109 O 0.33726 0.28391 0.32154 0.0
O110 O 0.3247 0.24697 0.2674 0.0
O111 O 0.30052 0.25909 0.29595 0.0
H112 H 0.3087 0.30826 0.40725 0.0
H113 H 0.30329 0.32816 0.46063 0.0
H114 H 0.26877 0.27156 0.49275 0.0
H115 H 0.27427 0.25201 0.44002 0.0
H116 H 0.37433 0.18962 0.31489 0.0
H117 H 0.39292 0.15525 0.30343 0.0
H118 H 0.40798 0.18453 0.2071 0.0
H119 H 0.3886 0.21765 0.21814 0.0
Nd120 Nd 0.95199 0.99314 0.34839 0.0
Nd121 Nd 0.92314 0.00053 0.31721 0.0
C122 C 0.97996 0.97751 0.38344 0.0
C123 C 0.98464 0.96017 0.40902 0.0
C124 C 0.97952 0.93688 0.40531 0.0
C125 C 0.98807 0.91972 0.4244 0.0
C126 C 1.0017 0.92565 0.4476 0.0
C127 C 1.00521 0.94918 0.45377 0.0
C128 C 0.9968 0.96628 0.4345 0.0
C129 C 0.95131 0.04018 0.32705 0.0
C130 C 0.91798 -0.00115 0.40443 0.0
C131 C 0.89196 0.01721 0.29337 0.0
C132 C 0.87629 0.02992 0.30757 0.0
C133 C 0.86901 0.04876 0.28996 0.0
C134 C 0.85309 0.05961 0.30133 0.0
C135 C 0.84412 0.05169 0.33045 0.0
C136 C 0.85204 0.03369 0.34914 0.0
C137 C 0.86805 0.02294 0.33788 0.0
C138 C 0.9246 0.95242 0.31905 0.0
C139 C 0.96181 0.9957 0.26643 0.0
O140 O 0.97531 0.96951 0.35403 0.0
O141 O 0.97049 0.99566 0.39263 0.0
O142 O 0.96492 0.02615 0.3235 0.0
O143 O 0.9386 0.02934 0.34179 0.0
O144 O 0.93595 0.99569 0.40129 0.0
O145 O 0.90947 0.00146 0.37459 0.0
O146 O 0.89409 0.99596 0.30338 0.0
O147 O 0.9074 0.02832 0.29132 0.0
O148 O 0.92365 0.96473 0.29182 0.0
O149 O 0.92842 0.96585 0.34358 0.0
O150 O 0.94463 0.00433 0.26852 0.0
O151 O 0.96723 0.98643 0.29533 0.0
H152 H 0.96993 0.93176 0.38605 0.0
H153 H 0.98498 0.90176 0.41937 0.0
H154 H 0.01576 0.95437 0.47122 0.0
H155 H 1.00088 0.98412 0.43779 0.0
H156 H 0.87525 0.0545 0.26669 0.0
H157 H 0.84717 0.07323 0.2861 0.0
H158 H 0.84545 0.02732 0.37171 0.0
H159 H 0.87356 0.00864 0.35225 0.0
Nd160 Nd 0.67309 0.99462 1.06869 0.0
Nd161 Nd 0.70165 0.00565 1.09656 0.0
C162 C 0.64564 0.97513 1.03636 0.0
C163 C 0.62677 0.97054 1.0471 0.0
C164 C 0.61796 0.95046 1.03628 0.0
C165 C 0.60065 0.94483 1.04878 0.0
C166 C 0.59191 0.95921 1.07237 0.0
C167 C 0.6009 0.97921 1.08343 0.0
C168 C 0.61823 0.98476 1.07102 0.0
C169 C 0.66613 0.04053 1.08589 0.0
C170 C 0.71228 0.00247 1.01632 0.0
C171 C 0.7277 0.02258 1.13528 0.0
C172 C 0.72908 0.03453 0.16795 0.0
C173 C 0.72882 0.0588 0.16981 0.0
C174 C 0.73233 0.06997 0.20021 0.0
C175 C 0.73633 0.05709 0.22925 0.0
C176 C 0.73545 0.03282 0.22768 0.0
C177 C 0.73192 0.0217 0.19741 0.0
C178 C 0.70238 0.95793 1.07855 0.0
C179 C 0.66766 -0.0027 1.15407 0.0
O180 O 0.65023 -0.00328 1.03213 0.0
O181 O 0.65796 0.96344 1.05273 0.0
O182 O 0.65579 0.02306 1.09258 0.0
O183 O 0.68139 0.03318 1.07319 0.0
O184 O 0.69466 0.99507 1.01874 0.0
O185 O 0.71862 0.01002 1.04544 0.0
O186 O 0.72053 0.03406 1.11028 0.0
O187 O 0.72261 0.00097 1.13593 0.0
O188 O 0.71485 0.97291 1.07096 0.0
O189 O 0.69003 0.96836 1.09488 0.0
O190 O 0.68442 0.00572 1.14902 0.0
O191 O 0.65992 0.9898 1.1255 0.0
H192 H 0.62451 0.93906 1.01833 0.0
H193 H 0.59393 0.9295 1.03934 0.0
H194 H 0.59453 0.99055 1.10166 0.0
H195 H 0.62499 7e-05 1.08034 0.0
H196 H 0.7266 0.06921 1.14757 0.0
H197 H 0.73277 0.08868 0.2006 0.0
H198 H 0.73879 0.02225 0.24928 0.0
H199 H 0.73225 0.00298 0.19687 0.0
Nd200 Nd 0.09924 0.75372 1.06526 0.0
Nd201 Nd 0.07162 0.74415 1.09366 0.0
C202 C 0.12487 0.7735 1.02766 0.0
C203 C 0.14216 0.78557 1.03354 0.0
C204 C 0.14542 0.79728 1.0638 0.0
C205 C 0.1618 0.80932 1.06845 0.0
C206 C 0.17509 0.80977 1.04291 0.0
C207 C 0.17174 0.79773 1.01287 0.0
C208 C 0.1554 0.78583 1.00822 0.0
C209 C 0.10611 0.70769 1.08179 0.0
C210 C 0.05979 0.74592 1.01424 0.0
C211 C 0.0452 0.72872 1.13284 0.0
C212 C 0.04295 0.71289 0.16135 0.0
C213 C 0.04872 0.6897 0.15977 0.0
C214 C 0.04313 0.67397 0.1844 0.0
C215 C 0.03174 0.68126 0.21083 0.0
C216 C 0.02778 0.70502 0.21404 0.0
C217 C 0.03327 0.72062 0.18944 0.0
C218 C 0.07123 0.79195 1.07572 0.0
C219 C 0.10563 0.75163 1.15038 0.0
O220 O 0.12456 0.75145 1.03409 0.0
O221 O 0.11022 0.78404 1.03814 0.0
O222 O 0.1169 0.72495 1.08725 0.0
O223 O 0.09062 0.71526 1.0704 0.0
O224 O 0.0778 0.75159 1.01551 0.0
O225 O 0.05334 0.74035 1.04423 0.0
O226 O 0.04934 0.71949 1.10393 0.0
O227 O 0.05381 0.74805 1.13851 0.0
O228 O 0.05882 0.77704 1.06809 0.0
O229 O 0.08362 0.78136 1.09172 0.0
O230 O 0.08911 0.74253 1.14556 0.0
O231 O 0.11287 0.7598 1.12155 0.0
H232 H 0.13528 0.79721 1.08369 0.0
H233 H 0.16399 0.81841 1.09182 0.0
H234 H 0.1819 0.79719 0.99302 0.0
H235 H 0.15311 0.77679 0.98481 0.0
H236 H 0.05658 0.68342 1.13857 0.0
H237 H 0.04662 0.65588 0.18147 0.0
H238 H 0.01888 0.7114 0.23374 0.0
H239 H 0.02887 0.73848 0.19126 0.0
Nd240 Nd 0.67276 0.74855 0.99781 0.0
Nd241 Nd 0.70035 0.74286 0.96511 0.0
C242 C 0.64312 0.76981 1.0201 0.0
C243 C 0.63747 0.78974 1.04065 0.0
C244 C 0.64138 0.81259 1.03072 0.0
C245 C 0.63266 0.83121 1.04645 0.0
C246 C 0.61998 0.82726 1.07239 0.0
C247 C 0.61739 0.8045 1.08409 0.0
C248 C 0.626 0.78596 1.06828 0.0
C249 C 0.6708 0.70102 0.99126 0.0
C250 C 0.71161 0.74516 1.04764 0.0
C251 C 0.73096 0.72539 0.94044 0.0
C252 C 0.73772 0.707 0.91808 0.0
C253 C 0.73439 0.68352 0.9251 0.0
C254 C 0.74398 0.66627 0.90789 0.0
C255 C 0.75692 0.67224 0.88327 0.0
C256 C 0.75908 0.69566 0.8745 0.0
C257 C 0.74962 0.71286 0.89185 0.0
C258 C 0.69728 0.79061 0.98223 0.0
C259 C 0.66748 0.74746 0.90916 0.0
O260 O 0.65088 0.77435 0.9913 0.0
O261 O 0.65028 0.75193 1.03535 0.0
O262 O 0.66852 0.71232 1.01897 0.0
O263 O 0.67659 0.71482 0.96798 0.0
O264 O 0.69356 0.75042 1.04744 0.0
O265 O 0.71768 0.73977 1.01707 0.0
O266 O 0.72356 0.71878 0.96875 0.0
O267 O 0.72272 0.74321 0.92695 0.0
O268 O 0.70008 0.78306 0.95195 0.0
O269 O 0.69582 0.77336 1.00108 0.0
O270 O 0.68517 0.74286 0.91186 0.0
O271 O 0.65957 0.75125 0.93949 0.0
H272 H 0.65035 0.81607 1.00963 0.0
H273 H 0.63504 0.84854 1.03708 0.0
H274 H 0.60753 0.80072 1.10367 0.0
H275 H 0.62275 0.76854 1.07635 0.0
H276 H 0.72513 0.67845 0.94507 0.0
H277 H 0.74196 0.64837 0.915 0.0
H278 H 0.76915 0.70091 0.856 0.0
H279 H 0.75244 0.73082 0.88608 0.0
Nd280 Nd 0.09652 0.00205 0.99617 0.0
Nd281 Nd 0.06895 0.00779 0.96409 0.0
C282 C 0.12645 0.98107 1.01753 0.0
C283 C 0.13246 0.96023 1.03578 0.0
C284 C 0.12917 0.93797 1.02294 0.0
C285 C 0.13885 0.91894 1.03534 0.0
C286 C 0.15181 0.92189 1.06089 0.0
C287 C 0.15353 0.94372 1.07607 0.0
C288 C 0.14401 0.96274 1.06346 0.0
C289 C 0.09839 0.04966 0.99013 0.0
C290 C 0.05776 0.00504 1.0466 0.0
C291 C 0.03807 0.02469 0.93993 0.0
C292 C 0.03087 0.04289 0.91766 0.0
C293 C 0.03373 0.06647 0.92454 0.0
C294 C 0.02362 0.08341 0.90768 0.0
C295 C 0.0106 0.07706 0.88358 0.0
C296 C 1.00894 0.05358 0.87486 0.0
C297 C 0.01893 0.03668 0.89184 0.0
C298 C 0.07254 0.95992 0.98078 0.0
C299 C 0.10143 0.00322 0.90738 0.0
O300 O 0.11927 0.97783 0.98799 0.0
O301 O 0.11851 -0.00234 1.0344 0.0
O302 O 0.10078 0.0381 1.01762 0.0
O303 O 0.09255 0.03607 0.96681 0.0
O304 O 0.07574 -0.00054 1.04599 0.0
O305 O 0.05173 0.01094 1.01626 0.0
O306 O 0.04548 0.03147 0.96801 0.0
O307 O 0.04652 0.00707 0.92633 0.0
O308 O 0.06979 0.96765 0.95057 0.0
O309 O 0.07369 0.97705 0.99974 0.0
O310 O 0.08389 0.00852 0.91056 0.0
O311 O 0.10933 -0.00117 0.93748 0.0
H312 H 0.12011 0.93544 1.0018 0.0
H313 H 0.13718 0.90229 1.02338 0.0
H314 H 0.16355 0.94663 1.09557 0.0
H315 H 0.14674 0.9797 1.07377 0.0
H316 H 0.043 0.07181 0.94419 0.0
H317 H 0.02528 0.10136 0.91473 0.0
H318 H 0.99885 0.04799 0.85677 0.0
H319 H 0.01646 0.01864 0.88619 0.0
Nd320 Nd 0.31882 0.49213 0.71395 0.0
Nd321 Nd 0.34655 0.49799 0.74639 0.0
C322 C 0.28852 0.47428 0.68918 0.0
C323 C 0.28245 0.45628 0.66558 0.0
C324 C 0.28657 0.43277 0.6709 0.0
C325 C 0.27808 0.4157 0.65167 0.0
C326 C 0.26545 0.42186 0.6267 0.0
C327 C 0.26239 0.44547 0.61998 0.0
C328 C 0.27076 0.46246 0.6393 0.0
C329 C 0.32191 0.53993 0.73085 0.0
C330 C 0.3515 0.49715 0.65762 0.0
C331 C 0.37619 0.51913 0.76814 0.0
C332 C 0.38175 0.5398 0.78704 0.0
C333 C 0.37798 0.56219 0.77492 0.0
C334 C 0.38718 0.58127 0.78803 0.0
C335 C 0.40016 0.57824 0.81356 0.0
C336 C 0.40234 0.55619 0.82804 0.0
C337 C 0.39329 0.53713 0.81474 0.0
C338 C 0.34838 0.45044 0.73998 0.0
C339 C 0.30776 0.49472 0.79657 0.0
O340 O 0.29616 0.4672 0.71698 0.0
O341 O 0.29618 0.49282 0.67669 0.0
O342 O 0.31901 0.53235 0.70065 0.0
O343 O 0.3234 0.52272 0.74972 0.0
O344 O 0.33388 0.49233 0.66059 0.0
O345 O 0.35946 0.50097 0.68778 0.0
O346 O 0.36895 0.52271 0.7387 0.0
O347 O 0.36858 0.50207 0.78453 0.0
O348 O 0.3506 0.46173 0.76767 0.0
O349 O 0.34284 0.46434 0.71669 0.0
O350 O 0.32575 0.50012 0.79608 0.0
O351 O 0.30165 0.48915 0.76619 0.0
H352 H 0.29569 0.42746 0.69087 0.0
H353 H 0.28078 0.39769 0.6573 0.0
H354 H 0.25249 0.45088 0.60135 0.0
H355 H 0.26733 0.48044 0.6348 0.0
H356 H 0.36891 0.56484 0.75379 0.0
H357 H 0.38515 0.59808 0.7766 0.0
H358 H 0.4124 0.55321 0.84751 0.0
H359 H 0.39638 0.52007 0.82452 0.0
Nd360 Nd 0.95175 0.75304 0.71326 0.0
Nd361 Nd 0.92468 0.74782 0.74637 0.0
C362 C 0.981 0.76751 0.68081 0.0
C363 C 0.98354 0.77795 0.64727 0.0
C364 C 0.98026 0.8016 0.64145 0.0
C365 C 0.98272 0.81103 0.6094 0.0
C366 C 0.98842 0.79695 0.58263 0.0
C367 C 0.99114 0.77321 0.58839 0.0
C368 C 0.98883 0.76387 0.6203 0.0
C369 C 0.94833 0.70552 0.73185 0.0
C370 C 0.91881 0.74875 0.65771 0.0
C371 C 0.89534 0.72655 0.76961 0.0
C372 C 0.89016 0.70656 0.79054 0.0
C373 C 0.89369 0.68375 0.78003 0.0
C374 C 0.88521 0.66514 0.79616 0.0
C375 C 0.87316 0.66906 0.82306 0.0
C376 C 0.8711 0.6917 0.83543 0.0
C377 C 0.87946 0.71026 0.81921 0.0
C378 C 0.9225 0.79519 0.73934 0.0
C379 C 0.96373 0.75233 0.79522 0.0
O380 O 0.97268 0.78001 0.70357 0.0
O381 O 0.97572 0.74597 0.68106 0.0
O382 O 0.94946 0.7128 0.70102 0.0
O383 O 0.94778 0.72296 0.75036 0.0
O384 O 0.9365 0.75289 0.66026 0.0
O385 O 0.911 0.74523 0.68823 0.0
O386 O 0.90286 0.72202 0.74061 0.0
O387 O 0.90245 0.74454 0.78442 0.0
O388 O 0.92071 0.78405 0.76737 0.0
O389 O 0.92795 0.78126 0.71599 0.0
O390 O 0.94586 0.7463 0.79539 0.0
O391 O 0.96942 0.75812 0.7645 0.0
H392 H 0.97605 0.8129 0.66169 0.0
H393 H 0.98069 0.82941 0.60574 0.0
H394 H 0.99606 0.76196 0.56861 0.0
H395 H 0.99151 0.74561 0.62395 0.0
H396 H 0.90209 0.68031 0.75816 0.0
H397 H 0.88715 0.64787 0.78627 0.0
H398 H 0.86173 0.69543 0.85582 0.0
H399 H 0.87654 0.72765 0.82777 0.0
Nd400 Nd 0.31969 0.75488 0.84533 0.0
Nd401 Nd 0.34781 0.74454 0.81665 0.0
C402 C 0.29373 0.77049 0.88563 0.0
C403 C 0.29261 0.78179 0.91862 0.0
C404 C 0.30135 0.80293 0.92528 0.0
C405 C 0.29857 0.8141 0.95602 0.0
C406 C 0.28713 0.80422 0.98057 0.0
C407 C 0.2794 0.78236 0.97436 0.0
C408 C 0.28207 0.77135 0.94374 0.0
C409 C 0.31925 0.70722 0.82734 0.0
C410 C 0.35403 0.74679 0.90186 0.0
C411 C 0.37368 0.72432 0.78018 0.0
C412 C 0.39134 0.71324 0.78705 0.0
C413 C 0.39475 0.70235 0.81799 0.0
C414 C 0.41141 0.69107 0.82361 0.0
C415 C 0.42488 0.6906 0.79839 0.0
C416 C 0.42143 0.70192 0.7677 0.0
C417 C 0.40478 0.71305 0.76208 0.0
C418 C 0.35447 0.79051 0.833 0.0
C419 C 0.3084 0.75288 0.7654 0.0
O420 O 0.30034 0.7825 0.86059 0.0
O421 O 0.29934 0.74908 0.88572 0.0
O422 O 0.30683 0.72226 0.8196 0.0
O423 O 0.33166 0.71764 0.8434 0.0
O424 O 0.33732 0.75549 0.89716 0.0
O425 O 0.36147 0.73896 0.87303 0.0
O426 O 0.37273 0.7466 0.78437 0.0
O427 O 0.35939 0.71365 0.79192 0.0
O428 O 0.36523 0.77322 0.83897 0.0
O429 O 0.33911 0.78294 0.82117 0.0
O430 O 0.32629 0.74649 0.76703 0.0
O431 O 0.30193 0.75919 0.79514 0.0
H432 H 0.30983 0.81119 0.90643 0.0
H433 H 0.30474 0.83086 0.96003 0.0
H434 H 0.27015 0.77434 0.99218 0.0
H435 H 0.2753 0.75501 0.93921 0.0
H436 H 0.38447 0.7024 0.83766 0.0
H437 H 0.41366 0.68252 0.84744 0.0
H438 H 0.43169 0.70243 0.74805 0.0
H439 H 0.4024 0.72147 0.73817 0.0
Nd440 Nd 0.95228 0.49054 0.84771 0.0
Nd441 Nd 0.92393 0.50181 0.81963 0.0
C442 C 0.97809 0.473 0.88652 0.0
C443 C 0.97922 0.4599 0.91835 0.0
C444 C 0.97876 0.4356 0.91859 0.0
C445 C 0.98238 0.42334 0.9481 0.0
C446 C 0.98671 0.43513 0.97784 0.0
C447 C 0.98576 0.45943 0.97804 0.0
C448 C 0.98213 0.47165 0.94862 0.0
C449 C 0.95311 0.53843 0.83024 0.0
C450 C 0.91817 0.49857 0.90493 0.0
C451 C 0.89683 0.52208 0.78694 0.0
C452 C 0.87822 0.52789 0.7978 0.0
C453 C 0.8695 0.54737 0.78444 0.0
C454 C 0.85235 0.5541 0.79651 0.0
C455 C 0.84367 0.54143 0.8222 0.0
C456 C 0.85262 0.52212 0.83593 0.0
C457 C 0.86982 0.51548 0.82394 0.0
C458 C 0.91704 0.45568 0.8357 0.0
C459 C 0.96332 0.49428 0.76777 0.0
O460 O 0.97156 0.46225 0.86039 0.0
O461 O 0.97256 0.49443 0.88839 0.0
O462 O 0.96559 0.52342 0.82271 0.0
O463 O 0.94067 0.52795 0.84625 0.0
O464 O 0.93488 0.48991 0.89993 0.0
O465 O 0.91059 0.50647 0.87637 0.0
O466 O 0.90072 0.50017 0.78378 0.0
O467 O 0.90959 0.53341 0.80248 0.0
O468 O 0.90654 0.47305 0.84249 0.0
O469 O 0.93233 0.46326 0.82348 0.0
O470 O 0.94559 0.50139 0.76988 0.0
O471 O 0.96964 0.48683 0.797 0.0
H472 H 0.97643 0.42601 0.8957 0.0
H473 H 0.98288 0.40464 0.94718 0.0
H474 H 0.98931 0.46917 1.00025 0.0
H475 H 0.98255 0.49036 0.94932 0.0
H476 H 0.87597 0.5574 0.76472 0.0
H477 H 0.84564 0.56881 0.78498 0.0
H478 H 0.84629 0.51209 0.85578 0.0
H479 H 0.87656 0.5007 0.83518 0.0
Nd480 Nd 0.67244 0.49958 0.5634 0.0
Nd481 Nd 0.69966 0.5036 0.59629 0.0
C482 C 0.64199 0.48006 0.54231 0.0
C483 C 0.63435 0.45949 0.52592 0.0
C484 C 0.63606 0.43751 0.54089 0.0
C485 C 0.62378 0.41996 0.53279 0.0
C486 C 0.60994 0.42407 0.50921 0.0
C487 C 0.60994 0.44493 0.49103 0.0
C488 C 0.62199 0.4626 0.49954 0.0
C489 C 0.67118 0.54689 0.57066 0.0
C490 C 0.71139 0.50255 0.5141 0.0
C491 C 0.72931 0.51692 0.62821 0.0
C492 C 0.73224 0.52733 0.66156 0.0
C493 C 0.72915 0.55101 0.66736 0.0
C494 C 0.73197 0.56041 0.69923 0.0
C495 C 0.73782 0.54628 0.72584 0.0
C496 C 0.7404 0.52253 0.72012 0.0
C497 C 0.73774 0.51321 0.68836 0.0
C498 C 0.69516 0.4564 0.5775 0.0
C499 C 0.66662 0.49963 0.65192 0.0
O500 O 0.64899 0.4769 0.57202 0.0
O501 O 0.65073 0.49546 0.52438 0.0
O502 O 0.66902 0.53595 0.54266 0.0
O503 O 0.67661 0.5328 0.59382 0.0
O504 O 0.69344 0.49704 0.51418 0.0
O505 O 0.71725 0.5082 0.54467 0.0
O506 O 0.72128 0.5297 0.60546 0.0
O507 O 0.72344 0.49562 0.62834 0.0
O508 O 0.69653 0.4634 0.60837 0.0
O509 O 0.69497 0.47396 0.55915 0.0
O510 O 0.68438 0.50341 0.64938 0.0
O511 O 0.65881 0.49661 0.62149 0.0
H512 H 0.6457 0.43449 0.56103 0.0
H513 H 0.6241 0.40394 0.5469 0.0
H514 H 0.59932 0.44858 0.47283 0.0
H515 H 0.62045 0.47936 0.48767 0.0
H516 H 0.7248 0.56236 0.64724 0.0
H517 H 0.73004 0.57881 0.70287 0.0
H518 H 0.74542 0.51125 0.7398 0.0
H519 H 0.74028 0.49493 0.68469 0.0
Nd520 Nd 0.0969 0.25318 0.56677 0.0
Nd521 Nd 0.06847 0.24336 0.59559 0.0
C522 C 0.12292 0.27255 0.5297 0.0
C523 C 0.14053 0.28386 0.53572 0.0
C524 C 0.14393 0.29584 0.56572 0.0
C525 C 0.16052 0.30745 0.57025 0.0
C526 C 0.17389 0.3072 0.54485 0.0
C527 C 0.17047 0.29476 0.51518 0.0
C528 C 0.15392 0.28329 0.51065 0.0
C529 C 0.10266 0.2071 0.58428 0.0
C530 C 0.05726 0.24542 0.51561 0.0
C531 C 0.04286 0.22758 0.63646 0.0
C532 C 0.04243 0.21715 0.67033 0.0
C533 C 0.04508 0.19328 0.67509 0.0
C534 C 0.04272 0.18338 0.70685 0.0
C535 C 0.03756 0.19714 0.73435 0.0
C536 C 0.0362 0.22121 0.72987 0.0
C537 C 0.03852 0.23106 0.69824 0.0
C538 C 0.06865 0.29094 0.57743 0.0
C539 C 0.10298 0.25177 0.65194 0.0
O540 O 0.12207 0.2504 0.53525 0.0
O541 O 0.10856 0.2835 0.5407 0.0
O542 O 0.11363 0.22404 0.59055 0.0
O543 O 0.08768 0.2151 0.57145 0.0
O544 O 0.07521 0.25154 0.51723 0.0
O545 O 0.05073 0.23927 0.5454 0.0
O546 O 0.04992 0.21526 0.6122 0.0
O547 O 0.04747 0.24932 0.63469 0.0
O548 O 0.05599 0.27629 0.56973 0.0
O549 O 0.08092 0.28019 0.59357 0.0
O550 O 0.08617 0.24335 0.64747 0.0
O551 O 0.11054 0.25911 0.62293 0.0
H552 H 0.13371 0.29641 0.58545 0.0
H553 H 0.16278 0.31686 0.59333 0.0
H554 H 0.18067 0.29367 0.49548 0.0
H555 H 0.15154 0.27404 0.48746 0.0
H556 H 0.04827 0.18209 0.65411 0.0
H557 H 0.04395 0.16481 0.70951 0.0
H558 H 0.03189 0.23237 0.75021 0.0
H559 H 0.03644 0.24951 0.69544 0.0
Nd560 Nd 0.67466 0.24692 0.49447 0.0
Nd561 Nd 0.7018 0.24195 0.46148 0.0
C562 C 0.64441 0.267 0.51608 0.0
C563 C 0.6372 0.28759 0.53324 0.0
C564 C 0.63902 0.30968 0.51871 0.0
C565 C 0.6271 0.32747 0.52793 0.0
C566 C 0.61348 0.32343 0.5521 0.0
C567 C 0.61347 0.3024 0.56985 0.0
C568 C 0.62518 0.28452 0.56028 0.0
C569 C 0.67316 0.19948 0.48829 0.0
C570 C 0.71353 0.24422 0.54405 0.0
C571 C 0.73172 0.22569 0.4327 0.0
C572 C 0.73598 0.21009 0.40438 0.0
C573 C 0.74002 0.18669 0.41044 0.0
C574 C 0.74554 0.17229 0.38423 0.0
C575 C 0.74734 0.18105 0.35148 0.0
C576 C 0.74233 0.20411 0.34511 0.0
C577 C 0.73674 0.21851 0.3713 0.0
C578 C 0.69787 0.28949 0.47942 0.0
C579 C 0.66881 0.24644 0.40583 0.0
O580 O 0.65149 0.2703 0.48639 0.0
O581 O 0.65287 0.2511 0.5335 0.0
O582 O 0.67132 0.21082 0.51604 0.0
O583 O 0.67847 0.21326 0.46464 0.0
O584 O 0.6955 0.24951 0.5439 0.0
O585 O 0.71948 0.23866 0.51337 0.0
O586 O 0.72418 0.2162 0.45914 0.0
O587 O 0.72474 0.24593 0.42549 0.0
O588 O 0.69976 0.28225 0.44874 0.0
O589 O 0.69736 0.27208 0.49799 0.0
O590 O 0.68652 0.24202 0.40832 0.0
O591 O 0.66108 0.24998 0.43636 0.0
H592 H 0.64843 0.31267 0.49811 0.0
H593 H 0.62743 0.34362 0.51413 0.0
H594 H 0.60304 0.29878 0.58851 0.0
H595 H 0.62358 0.26768 0.57188 0.0
H596 H 0.73949 0.17966 0.43563 0.0
H597 H 0.74925 0.15457 0.38986 0.0
H598 H 0.74386 0.21151 0.32028 0.0
H599 H 0.73368 0.23643 0.36574 0.0
Nd600 Nd 0.09852 0.5001 0.49883 0.0
Nd601 Nd 0.07112 0.50651 0.46627 0.0
C602 C 0.12777 0.47797 0.52079 0.0
C603 C 0.13285 0.45699 0.53968 0.0
C604 C 0.12927 0.4348 0.52684 0.0
C605 C 0.13801 0.41542 0.54041 0.0
C606 C 0.15031 0.41795 0.56712 0.0
C607 C 0.15225 0.4398 0.58215 0.0
C608 C 0.14367 0.45916 0.5684 0.0
C609 C 0.10104 0.54764 0.49234 0.0
C610 C 0.05944 0.50356 0.54851 0.0
C611 C 0.0417 0.52595 0.44062 0.0
C612 C 0.03773 0.54445 0.41612 0.0
C613 C 0.03633 0.56758 0.42666 0.0
C614 C 0.03006 0.58461 0.40468 0.0
C615 C 0.02494 0.57879 0.37188 0.0
C616 C 0.02782 0.55607 0.36054 0.0
C617 C 0.03407 0.53902 0.38252 0.0
C618 C 0.0737 0.45866 0.48275 0.0
C619 C 0.10373 0.5011 0.41007 0.0
O620 O 0.12061 0.47482 0.4912 0.0
O621 O 0.12037 0.49519 0.53715 0.0
O622 O 0.10322 0.53621 0.52002 0.0
O623 O 0.09524 0.53397 0.4691 0.0
O624 O 0.07747 0.49823 0.54832 0.0
O625 O 0.05346 0.50909 0.51799 0.0
O626 O 0.04908 0.53247 0.46888 0.0
O627 O 0.04854 0.50657 0.42917 0.0
O628 O 0.07103 0.46647 0.45255 0.0
O629 O 0.07521 0.4757 0.50184 0.0
O630 O 0.08611 0.50594 0.41292 0.0
O631 O 0.11164 0.49727 0.44032 0.0
H632 H 0.12075 0.43251 0.50492 0.0
H633 H 0.13619 0.39877 0.52851 0.0
H634 H 0.16179 0.4424 0.60253 0.0
H635 H 0.1466 0.47605 0.57877 0.0
H636 H 0.03918 0.5724 0.45236 0.0
H637 H 0.02796 0.60199 0.41402 0.0
H638 H 0.02372 0.55096 0.33554 0.0
H639 H 0.03508 0.52138 0.37362 0.0
Nd640 Nd 0.81867 0.99154 0.71569 0.0
Nd641 Nd 0.84644 -0.00086 0.74279 0.0
C642 C 0.79093 0.97825 0.67783 0.0
C643 C 0.78556 0.95905 0.65598 0.0
C644 C 0.78947 0.936 0.66465 0.0
C645 C 0.78055 0.91789 0.64831 0.0
C646 C 0.76772 0.92263 0.62299 0.0
C647 C 0.76532 0.94566 0.61227 0.0
C648 C 0.77413 0.96369 0.62872 0.0
C649 C 0.81896 0.03939 0.73471 0.0
C650 C 0.85239 -0.00212 0.65801 0.0
C651 C 0.87312 0.01399 0.78226 0.0
C652 C 0.8777 0.0345 0.80215 0.0
C653 C 0.87364 0.05682 0.79035 0.0
C654 C 0.88157 0.07616 0.80532 0.0
C655 C 0.89375 0.07339 0.83225 0.0
C656 C 0.8963 0.05113 0.84595 0.0
C657 C 0.88836 0.03186 0.83095 0.0
C658 C 0.85168 0.95277 0.7247 0.0
C659 C 0.80721 0.99383 0.7949 0.0
O660 O 0.79248 0.97337 0.7096 0.0
O661 O 0.80357 0.99233 0.66709 0.0
O662 O 0.80591 0.02493 0.74017 0.0
O663 O 0.83153 0.02871 0.71945 0.0
O664 O 0.83577 0.98912 0.66321 0.0
O665 O 0.85982 0.00571 0.68659 0.0
O666 O 0.87277 0.01691 0.74994 0.0
O667 O 0.85991 0.00082 0.79298 0.0
O668 O 0.86289 0.96947 0.71963 0.0
O669 O 0.83674 0.96103 0.73723 0.0
O670 O 0.8246 0.00178 0.79212 0.0
O671 O 0.80136 0.98547 0.76603 0.0
H672 H 0.79847 0.93203 0.68544 0.0
H673 H 0.78281 0.90034 0.65686 0.0
H674 H 0.75539 0.95003 0.59314 0.0
H675 H 0.77099 0.98136 0.62166 0.0
H676 H 0.86541 0.05915 0.76817 0.0
H677 H 0.87917 0.09306 0.7944 0.0
H678 H 0.90576 0.04824 0.86641 0.0
H679 H 0.89162 0.01478 0.84044 0.0
Nd680 Nd 0.45062 0.25281 0.71409 0.0
Nd681 Nd 0.42266 0.24533 0.74133 0.0
C682 C 0.4779 0.26588 0.67485 0.0
C683 C 0.48136 0.28129 0.64624 0.0
C684 C 0.47502 0.30425 0.64579 0.0
C685 C 0.48137 0.31967 0.62134 0.0
C686 C 0.49408 0.3123 0.59704 0.0
C687 C 0.49896 0.28873 0.59593 0.0
C688 C 0.49268 0.27343 0.62035 0.0
C689 C 0.45056 0.20536 0.73459 0.0
C690 C 0.41702 0.24624 0.65635 0.0
C691 C 0.39564 0.23045 0.78051 0.0
C692 C 0.38975 0.20939 0.79805 0.0
C693 C 0.39225 0.18749 0.78357 0.0
C694 C 0.38284 0.16833 0.79619 0.0
C695 C 0.37065 0.17089 0.8233 0.0
C696 C 0.36968 0.19244 0.83968 0.0
C697 C 0.37914 0.2115 0.8271 0.0
C698 C 0.41774 0.29184 0.72348 0.0
C699 C 0.46178 0.25088 0.79365 0.0
O700 O 0.47409 0.27565 0.70352 0.0
O701 O 0.46818 0.24744 0.66916 0.0
O702 O 0.46347 0.22007 0.73991 0.0
O703 O 0.4379 0.21565 0.71895 0.0
O704 O 0.43368 0.2548 0.66148 0.0
O705 O 0.40945 0.23863 0.68509 0.0
O706 O 0.39547 0.22957 0.74797 0.0
O707 O 0.4098 0.24145 0.79202 0.0
O708 O 0.40643 0.27529 0.71839 0.0
O709 O 0.43257 0.28332 0.7359 0.0
O710 O 0.44412 0.24382 0.79121 0.0
O711 O 0.46813 0.25805 0.76429 0.0
H712 H 0.46597 0.31059 0.66531 0.0
H713 H 0.4772 0.33763 0.62266 0.0
H714 H 0.50891 0.28236 0.578 0.0
H715 H 0.4976 0.25574 0.62018 0.0
H716 H 0.4004 0.18555 0.76109 0.0
H717 H 0.38411 0.15195 0.78328 0.0
H718 H 0.36031 0.19526 0.86037 0.0
H719 H 0.37706 0.22826 0.83862 0.0
Nd720 Nd 0.82016 0.25526 0.84383 0.0
Nd721 Nd 0.84776 0.24618 0.81633 0.0
C722 C 0.79417 0.26588 0.88728 0.0
C723 C 0.7885 0.25141 0.91558 0.0
C724 C 0.7748 0.25866 0.93771 0.0
C725 C 0.76853 0.24363 0.96269 0.0
C726 C 0.77587 0.22115 0.96574 0.0
C727 C 0.79016 0.21439 0.94433 0.0
C728 C 0.79643 0.22941 0.91947 0.0
C729 C 0.82037 0.20706 0.8286 0.0
C730 C 0.8539 0.24687 0.90146 0.0
C731 C 0.87536 0.22822 0.78192 0.0
C732 C 0.89387 0.22181 0.79261 0.0
C733 C 0.90246 0.20259 0.77821 0.0
C734 C 0.91928 0.19488 0.79046 0.0
C735 C 0.92777 0.20627 0.81741 0.0
C736 C 0.91903 0.22545 0.83197 0.0
C737 C 0.90216 0.23308 0.81978 0.0
C738 C 0.85348 0.2925 0.83255 0.0
C739 C 0.80875 0.25427 0.76476 0.0
O740 O 0.81071 0.27408 0.88926 0.0
O741 O 0.7908 0.25712 0.85792 0.0
O742 O 0.80756 0.22152 0.82124 0.0
O743 O 0.83289 0.21814 0.84334 0.0
O744 O 0.83658 0.25331 0.89698 0.0
O745 O 0.86205 0.2414 0.87223 0.0
O746 O 0.87138 0.25019 0.78143 0.0
O747 O 0.86247 0.21592 0.79555 0.0
O748 O 0.86404 0.27535 0.84014 0.0
O749 O 0.83843 0.28458 0.81988 0.0
O750 O 0.82591 0.24541 0.76727 0.0
O751 O 0.80333 0.26353 0.79356 0.0
H752 H 0.76856 0.27556 0.93498 0.0
H753 H 0.75724 0.2492 0.97841 0.0
H754 H 0.79606 0.19724 0.94609 0.0
H755 H 0.80707 0.22357 0.90249 0.0
H756 H 0.89608 0.19343 0.75766 0.0
H757 H 0.92584 0.18031 0.7783 0.0
H758 H 0.92522 0.23451 0.85278 0.0
H759 H 0.89551 0.24763 0.83181 0.0
Nd760 Nd 0.45144 0.98974 0.84636 0.0
Nd761 Nd 0.42299 0.00044 0.81766 0.0
C762 C 0.47667 0.97271 0.88682 0.0
C763 C 0.47708 0.96465 0.92204 0.0
C764 C 0.47474 0.94116 0.93005 0.0
C765 C 0.47697 0.93343 0.96307 0.0
C766 C 0.48177 0.94901 0.98861 0.0
C767 C 0.48285 0.9727 0.98079 0.0
C768 C 0.48058 0.9804 0.94796 0.0
C769 C 0.45196 0.03748 0.82914 0.0
C770 C 0.41706 -0.00154 0.90299 0.0
C771 C 0.39588 0.01985 0.78395 0.0
C772 C 0.37736 0.02615 0.79469 0.0
C773 C 0.36885 0.04554 0.78065 0.0
C774 C 0.3519 0.05294 0.79281 0.0
C775 C 0.34322 0.04104 0.81927 0.0
C776 C 0.35193 0.02175 0.83356 0.0
C777 C 0.36893 0.01444 0.82149 0.0
C778 C 0.41674 0.95434 0.83427 0.0
C779 C 0.46247 0.99282 0.76637 0.0
O780 O 0.46779 0.96005 0.86524 0.0
O781 O 0.4741 0.99478 0.88211 0.0
O782 O 0.46472 0.0227 0.82199 0.0
O783 O 0.43932 0.02686 0.84453 0.0
O784 O 0.43409 0.99073 0.89859 0.0
O785 O 0.40924 0.0052 0.87403 0.0
O786 O 0.39965 -0.00215 0.78222 0.0
O787 O 0.40874 0.03155 0.79858 0.0
O788 O 0.40606 0.97151 0.84111 0.0
O789 O 0.43189 0.96216 0.82177 0.0
O790 O 0.44479 4e-05 0.76833 0.0
O791 O 0.46873 0.98533 0.79565 0.0
H792 H 0.47187 0.92862 0.91065 0.0
H793 H 0.47589 0.9151 0.96826 0.0
H794 H 0.48685 0.98525 0.99948 0.0
H795 H 0.48241 -0.00137 0.94273 0.0
H796 H 0.37535 0.05502 0.76041 0.0
H797 H 0.34535 0.06761 0.78085 0.0
H798 H 0.34557 0.01231 0.85398 0.0
H799 H 0.37554 -0.00026 0.83323 0.0
Nd800 Nd 0.17278 4e-05 0.56423 0.0
Nd801 Nd 0.20008 0.00526 0.59684 0.0
C802 C 0.14322 0.97881 0.54232 0.0
C803 C 0.13756 0.95851 0.52267 0.0
C804 C 0.14123 0.93586 0.53386 0.0
C805 C 0.13209 0.91707 0.51969 0.0
C806 C 0.11925 0.92066 0.49404 0.0
C807 C 0.11708 0.94307 0.48073 0.0
C808 C 0.12609 0.9618 0.49503 0.0
C809 C 0.17089 0.0475 0.57041 0.0
C810 C 0.2117 0.00391 0.51464 0.0
C811 C 0.22947 0.01972 0.62847 0.0
C812 C 0.2321 0.03025 0.66183 0.0
C813 C 0.22917 0.054 0.66723 0.0
C814 C 0.23173 0.06355 0.69909 0.0
C815 C 0.23719 0.04949 0.72607 0.0
C816 C 0.23956 0.02566 0.72074 0.0
C817 C 0.23715 0.0162 0.68902 0.0
C818 C 0.19639 0.95775 0.57908 0.0
C819 C 0.16712 0.00124 0.65284 0.0
O820 O 0.15074 0.97471 0.5714 0.0
O821 O 0.15056 0.99629 0.52644 0.0
O822 O 0.16869 0.03615 0.54275 0.0
O823 O 0.17651 0.03374 0.59387 0.0
O824 O 0.19382 -0.00204 0.51493 0.0
O825 O 0.21753 0.00989 0.54508 0.0
O826 O 0.22111 0.03217 0.60573 0.0
O827 O 0.22414 -0.00181 0.62859 0.0
O828 O 0.19774 0.96512 0.60977 0.0
O829 O 0.19583 0.97513 0.56033 0.0
O830 O 0.18483 0.0053 0.65 0.0
O831 O 0.15924 -0.00231 0.62254 0.0
H832 H 0.15023 0.93274 0.55495 0.0
H833 H 0.13415 0.9 0.53024 0.0
H834 H 0.10714 0.94656 0.46126 0.0
H835 H 0.12305 0.97907 0.48599 0.0
H836 H 0.22516 0.06529 0.64681 0.0
H837 H 0.22997 0.08199 0.70242 0.0
H838 H 0.24429 0.01441 0.74069 0.0
H839 H 0.23955 -0.00214 0.6857 0.0
Nd840 Nd 0.59568 0.75069 0.57026 0.0
Nd841 Nd 0.56697 0.74106 0.59858 0.0
C842 C 0.62329 0.76918 0.53676 0.0
C843 C 0.64184 0.775 0.54764 0.0
C844 C 0.65052 0.79447 0.53417 0.0
C845 C 0.66748 0.80143 0.54649 0.0
C846 C 0.67602 0.78901 0.57253 0.0
C847 C 0.66716 0.76965 0.58626 0.0
C848 C 0.65014 0.76278 0.57405 0.0
C849 C 0.60117 0.7047 0.58856 0.0
C850 C 0.5564 0.74339 0.51822 0.0
C851 C 0.54084 0.72625 0.63901 0.0
C852 C 0.54001 0.71583 0.67267 0.0
C853 C 0.54972 0.69558 0.68089 0.0
C854 C 0.5476 0.68539 0.71257 0.0
C855 C 0.53588 0.69545 0.73652 0.0
C856 C 0.5271 0.71647 0.72863 0.0
C857 C 0.52911 0.72646 0.69707 0.0
C858 C 0.56719 0.78846 0.57946 0.0
C859 C 0.60139 0.74851 0.65553 0.0
O860 O 0.61921 0.74727 0.53513 0.0
O861 O 0.6105 0.78133 0.5511 0.0
O862 O 0.61202 0.72165 0.59521 0.0
O863 O 0.58634 0.71267 0.57522 0.0
O864 O 0.57422 0.75004 0.52031 0.0
O865 O 0.54982 0.73662 0.54773 0.0
O866 O 0.54765 0.71372 0.61473 0.0
O867 O 0.54616 0.74773 0.63784 0.0
O868 O 0.55452 0.77377 0.57206 0.0
O869 O 0.57937 0.77786 0.59596 0.0
O870 O 0.58447 0.74051 0.65079 0.0
O871 O 0.60916 0.7557 0.62668 0.0
H872 H 0.64412 0.80434 0.51425 0.0
H873 H 0.67414 0.81617 0.53497 0.0
H874 H 0.67343 0.75981 0.60634 0.0
H875 H 0.64341 0.74803 0.58538 0.0
H876 H 0.55853 0.68725 0.66262 0.0
H877 H 0.55452 0.66922 0.71787 0.0
H878 H 0.51762 0.72452 0.74599 0.0
H879 H 0.52163 0.74217 0.69134 0.0
Nd880 Nd 0.17504 0.75256 0.49117 0.0
Nd881 Nd 0.2037 0.74333 0.46324 0.0
C882 C 0.14729 0.77071 0.52477 0.0
C883 C 0.1287 0.77644 0.5139 0.0
C884 C 0.11982 0.7957 0.52755 0.0
C885 C 0.10282 0.8026 0.51521 0.0
C886 C 0.09444 0.79032 0.48898 0.0
C887 C 0.1035 0.77116 0.47509 0.0
C888 C 0.12057 0.76435 0.48733 0.0
C889 C 0.16982 0.70648 0.47342 0.0
C890 C 0.21434 0.74527 0.54328 0.0
C891 C 0.22966 0.72817 0.42267 0.0
C892 C 0.23007 0.71906 0.38808 0.0
C893 C 0.22661 0.69561 0.38137 0.0
C894 C 0.22848 0.68699 0.34878 0.0
C895 C 0.23391 0.70163 0.32238 0.0
C896 C 0.23622 0.72533 0.32891 0.0
C897 C 0.23441 0.7339 0.36136 0.0
C898 C 0.2031 0.79077 0.48224 0.0
C899 C 0.16959 0.75116 0.40576 0.0
O900 O 0.15155 0.74884 0.52633 0.0
O901 O 0.15998 0.78301 0.51043 0.0
O902 O 0.15895 0.72341 0.46627 0.0
O903 O 0.18459 0.7146 0.4867 0.0
O904 O 0.19648 0.75185 0.54118 0.0
O905 O 0.22097 0.73869 0.51379 0.0
O906 O 0.22213 0.71526 0.44581 0.0
O907 O 0.22546 0.74998 0.42586 0.0
O908 O 0.21584 0.7761 0.48984 0.0
O909 O 0.19105 0.78011 0.46562 0.0
O910 O 0.18669 0.74376 0.41054 0.0
O911 O 0.16151 0.75753 0.4347 0.0
H912 H 0.12609 0.80548 0.54761 0.0
H913 H 0.09599 0.81718 0.52685 0.0
H914 H 0.09737 0.76142 0.45487 0.0
H915 H 0.12745 0.74976 0.47587 0.0
H916 H 0.22306 0.68375 0.40141 0.0
H917 H 0.22656 0.66867 0.34454 0.0
H918 H 0.2408 0.7371 0.30947 0.0
H919 H 0.23712 0.75205 0.36566 0.0
Nd920 Nd 0.59664 -0.00327 0.49665 0.0
Nd921 Nd 0.56931 0.00255 0.46363 0.0
C922 C 0.62614 0.97554 0.51947 0.0
C923 C 0.63189 0.95585 0.54048 0.0
C924 C 0.6286 0.93287 0.53063 0.0
C925 C 0.63772 0.91459 0.54643 0.0
C926 C 0.6502 0.91902 0.57237 0.0
C927 C 0.65205 0.94183 0.58416 0.0
C928 C 0.64305 0.96004 0.56826 0.0
C929 C 0.5986 0.04415 0.48976 0.0
C930 C 0.55771 0.00111 0.546 0.0
C931 C 0.54014 0.0179 0.43194 0.0
C932 C 0.53757 0.02847 0.3985 0.0
C933 C 0.54012 0.05231 0.39322 0.0
C934 C 0.53751 0.06195 0.36136 0.0
C935 C 0.53234 0.04793 0.33426 0.0
C936 C 0.53039 0.02402 0.33948 0.0
C937 C 0.53288 0.01445 0.37118 0.0
C938 C 0.57274 0.95505 0.48151 0.0
C939 C 0.6024 -0.00249 0.40816 0.0
O940 O 0.61839 0.97068 0.49088 0.0
O941 O 0.619 0.9936 0.53425 0.0
O942 O 0.60027 0.03288 0.5177 0.0
O943 O 0.59327 0.03033 0.46632 0.0
O944 O 0.57553 0.99483 0.54579 0.0
O945 O 0.55195 0.00728 0.51552 0.0
O946 O 0.54876 0.03014 0.45446 0.0
O947 O 0.5451 0.9962 0.43207 0.0
O948 O 0.57137 0.96243 0.45079 0.0
O949 O 0.57336 0.97236 0.50024 0.0
O950 O 0.5847 0.00186 0.41071 0.0
O951 O 0.61023 0.99402 0.43853 0.0
H952 H 0.61987 0.92906 0.50943 0.0
H953 H 0.6359 0.89721 0.53702 0.0
H954 H 0.66173 0.94597 0.60377 0.0
H955 H 0.64582 0.97757 0.57628 0.0
H956 H 0.54384 0.06358 0.41374 0.0
H957 H 0.53898 0.08045 0.35814 0.0
H958 H 0.5259 0.01277 0.31945 0.0
H959 H 0.53076 0.99604 0.37439 0.0
Nd960 Nd 0.81884 0.49182 0.21482 0.0
Nd961 Nd 0.84666 0.4968 0.24583 0.0
C962 C 0.79196 0.48049 0.17417 0.0
C963 C 0.7903 0.46878 1.14146 0.0
C964 C 0.79288 0.44478 1.13825 0.0
C965 C 0.78955 0.43384 1.10763 0.0
C966 C 0.78363 0.4467 1.07973 0.0
C967 C 0.78222 0.47087 1.08255 0.0
C968 C 0.78544 0.48175 1.1131 0.0
C969 C 0.82066 0.53846 0.23829 0.0
C970 C 0.85308 0.49743 0.15926 0.0
C971 C 0.87668 0.51135 0.27595 0.0
C972 C 0.88891 0.5313 0.27457 0.0
C973 C 0.89393 0.54169 0.30476 0.0
C974 C 0.90632 0.55986 0.30481 0.0
C975 C 0.91398 0.56792 0.27458 0.0
C976 C 0.9083 0.55817 0.2441 0.0
C977 C 0.89573 0.54 0.24406 0.0
C978 C 0.84509 0.44872 0.24334 0.0
C979 C 0.80744 0.49225 0.29535 0.0
O980 O 0.79673 0.46786 0.20002 0.0
O981 O 0.79978 0.50077 0.17379 0.0
O982 O 0.80709 0.52451 0.24283 0.0
O983 O 0.83297 0.52755 0.22253 0.0
O984 O 0.83512 0.49458 0.16221 0.0
O985 O 0.8614 0.4994 0.18935 0.0
O986 O 0.86026 0.51547 0.28717 0.0
O987 O 0.87687 0.49721 0.25057 0.0
O988 O 0.84601 0.46077 0.27052 0.0
O989 O 0.84132 0.46242 0.219 0.0
O990 O 0.82468 0.50052 0.29378 0.0
O991 O 0.80216 0.48378 0.26597 0.0
H992 H 0.79684 0.4343 0.15959 0.0
H993 H 0.79077 0.4152 1.10619 0.0
H994 H 0.77734 0.48129 1.0618 0.0
H995 H 0.78341 0.50027 1.11485 0.0
H996 H 0.88867 0.53527 0.32848 0.0
H997 H 0.91069 0.56665 0.32879 0.0
H998 H 0.914 0.5641 0.22049 0.0
H999 H 0.89173 0.53241 0.22037 0.0
Nd1000 Nd 0.45222 0.75599 0.21456 0.0
Nd1001 Nd 0.42388 0.74561 0.24234 0.0
C1002 C 0.47964 0.77327 0.17901 0.0
C1003 C 0.48463 0.79265 1.15689 0.0
C1004 C 0.4812 0.81569 0.16626 0.0
C1005 C 0.49026 0.8338 1.14996 0.0
C1006 C 0.50279 0.8291 1.12402 0.0
C1007 C 0.50459 0.80621 1.11247 0.0
C1008 C 0.49563 0.78816 1.12887 0.0
C1009 C 0.45293 0.70789 0.2311 0.0
C1010 C 0.41854 0.74821 1.15678 0.0
C1011 C 0.39611 0.7267 0.27502 0.0
C1012 C 0.37743 0.72163 0.26399 0.0
C1013 C 0.36846 0.70204 0.27638 0.0
C1014 C 0.35138 0.6958 0.26369 0.0
C1015 C 0.34304 0.70907 0.23831 0.0
C1016 C 0.35219 0.72858 0.22571 0.0
C1017 C 0.36929 0.73474 0.23832 0.0
C1018 C 0.41728 0.79172 0.22504 0.0
C1019 C 0.4628 0.75197 0.29493 0.0
O1020 O 0.47642 0.77831 0.21032 0.0
O1021 O 0.46884 0.75724 0.16742 0.0
O1022 O 0.46574 0.72252 0.23745 0.0
O1023 O 0.44032 0.71866 0.21614 0.0
O1024 O 0.43529 0.75673 0.16178 0.0
O1025 O 0.4108 0.7407 0.18551 0.0
O1026 O 0.40052 0.74843 0.27802 0.0
O1027 O 0.40868 0.71477 0.25971 0.0
O1028 O 0.40685 0.77435 0.21843 0.0
O1029 O 0.43246 0.78413 0.23763 0.0
O1030 O 0.44501 0.74538 0.29261 0.0
O1031 O 0.46931 0.75916 0.26567 0.0
H1032 H 0.47255 0.81963 0.18763 0.0
H1033 H 0.48844 0.85126 0.15913 0.0
H1034 H 0.51425 0.80186 1.0928 0.0
H1035 H 0.49843 0.77053 1.12125 0.0
H1036 H 0.37471 0.69149 0.29572 0.0
H1037 H 0.34452 0.6809 0.27433 0.0
H1038 H 0.34612 0.73906 0.20611 0.0
H1039 H 0.37621 0.74962 0.2278 0.0
Nd1040 Nd 0.82024 0.75465 0.34784 0.0
Nd1041 Nd 0.84694 0.7503 0.31506 0.0
C1042 C 0.79064 0.76835 0.38007 0.0
C1043 C 0.78776 0.77853 0.41364 0.0
C1044 C 0.79057 0.80223 0.41961 0.0
C1045 C 0.78776 0.81142 0.45166 0.0
C1046 C 0.78219 0.79706 0.47827 0.0
C1047 C 0.77994 0.7733 0.47236 0.0
C1048 C 0.78259 0.76419 0.44044 0.0
C1049 C 0.82466 0.70693 0.33073 0.0
C1050 C 0.85288 0.75026 0.40366 0.0
C1051 C 0.87765 0.73209 0.29199 0.0
C1052 C 0.88561 0.71228 0.27406 0.0
C1053 C 0.88446 0.68985 0.28767 0.0
C1054 C 0.89708 0.67297 0.2781 0.0
C1055 C 0.9107 0.67825 0.25444 0.0
C1056 C 0.91012 0.69953 0.23748 0.0
C1057 C 0.89771 0.71654 0.24745 0.0
C1058 C 0.84806 0.79786 0.32112 0.0
C1059 C 0.80799 0.75321 0.2661 0.0
O1060 O 0.79885 0.78114 0.3575 0.0
O1061 O 0.79629 0.74694 0.37978 0.0
O1062 O 0.82335 0.71464 0.36126 0.0
O1063 O 0.82485 0.7241 0.31153 0.0
O1064 O 0.83524 0.75476 0.40105 0.0
O1065 O 0.86062 0.7467 0.37313 0.0
O1066 O 0.87091 0.72797 0.32172 0.0
O1067 O 0.86845 0.74763 0.27523 0.0
O1068 O 0.84934 0.78657 0.29325 0.0
O1069 O 0.84328 0.78387 0.34492 0.0
O1070 O 0.82591 0.74744 0.26605 0.0
O1071 O 0.8023 0.75915 0.29672 0.0
H1072 H 0.79467 0.81374 0.3995 0.0
H1073 H 0.78944 0.82982 0.45545 0.0
H1074 H 0.77513 0.76183 0.49201 0.0
H1075 H 0.78027 0.74589 0.43666 0.0
H1076 H 0.87503 0.68596 0.30793 0.0
H1077 H 0.89729 0.6566 0.29135 0.0
H1078 H 0.92058 0.70399 0.21927 0.0
H1079 H 0.89879 0.73368 0.23659 0.0
Nd1080 Nd 0.44981 0.49238 0.34488 0.0
Nd1081 Nd 0.42203 0.50196 0.31763 0.0
C1082 C 0.47659 0.47738 0.3836 0.0
C1083 C 0.47946 0.4622 0.4127 0.0
C1084 C 0.47323 0.43922 0.41324 0.0
C1085 C 0.47899 0.42411 0.43857 0.0
C1086 C 0.49103 0.4318 0.46363 0.0
C1087 C 0.49575 0.4554 0.46451 0.0
C1088 C 0.49005 0.47038 0.43925 0.0
C1089 C 0.45092 0.54015 0.32604 0.0
C1090 C 0.41621 0.49914 0.40277 0.0
C1091 C 0.39561 0.5194 0.27955 0.0
C1092 C 0.39063 0.54019 0.26034 0.0
C1093 C 0.39351 0.56242 0.27339 0.0
C1094 C 0.38465 0.58155 0.25934 0.0
C1095 C 0.37261 0.57865 0.23224 0.0
C1096 C 0.37132 0.55666 0.21724 0.0
C1097 C 0.38025 0.53763 0.23121 0.0
C1098 C 0.4153 0.45555 0.33333 0.0
C1099 C 0.46126 0.49553 0.2654 0.0
O1100 O 0.4721 0.46758 0.35533 0.0
O1101 O 0.46793 0.49676 0.38899 0.0
O1102 O 0.4635 0.52501 0.32006 0.0
O1103 O 0.43807 0.5301 0.34148 0.0
O1104 O 0.43273 0.49014 0.39732 0.0
O1105 O 0.40882 0.50752 0.37437 0.0
O1106 O 0.39645 0.52173 0.31193 0.0
O1107 O 0.40839 0.50593 0.26776 0.0
O1108 O 0.40445 0.4727 0.33824 0.0
O1109 O 0.43075 0.46331 0.32226 0.0
O1110 O 0.44382 0.50352 0.26808 0.0
O1111 O 0.46724 0.48729 0.29438 0.0
H1112 H 0.46473 0.43262 0.39323 0.0
H1113 H 0.47494 0.40614 0.43738 0.0
H1114 H 0.5052 0.46203 0.48299 0.0
H1115 H 0.49488 0.48809 0.43939 0.0
H1116 H 0.40148 0.56477 0.29589 0.0
H1117 H 0.38619 0.59826 0.27119 0.0
H1118 H 0.36205 0.55357 0.19659 0.0
H1119 H 0.37785 0.52062 0.22079 0.0
Nd1120 Nd 0.17404 0.49649 1.06994 0.0
Nd1121 Nd 0.20232 0.50692 1.0977 0.0
C1122 C 0.14742 0.47615 1.03596 0.0
C1123 C 0.12978 0.4662 1.04583 0.0
C1124 C 0.1225 0.44802 1.02708 0.0
C1125 C 0.10624 0.43746 1.03717 0.0
C1126 C 0.09699 0.4449 1.06625 0.0
C1127 C 0.10454 0.46291 1.08533 0.0
C1128 C 0.12088 0.4734 1.07529 0.0
C1129 C 0.1675 0.54278 1.0855 0.0
C1130 C 0.21305 0.50351 1.01758 0.0
C1131 C 0.22979 0.52347 1.13338 0.0
C1132 C 0.23495 0.54219 1.15634 0.0
C1133 C 0.23123 0.56546 1.14857 0.0
C1134 C 0.24047 0.58314 0.16527 0.0
C1135 C 0.25349 0.57777 0.19 0.0
C1136 C 0.25559 0.55456 0.20009 0.0
C1137 C 0.24643 0.53695 0.18331 0.0
C1138 C 0.20287 0.45886 1.08119 0.0
C1139 C 0.1685 0.49969 1.15529 0.0
O1140 O 0.14911 0.4985 1.03814 0.0
O1141 O 0.1616 0.46526 1.04766 0.0
O1142 O 0.15673 0.52562 1.09195 0.0
O1143 O 0.18286 0.53499 1.07376 0.0
O1144 O 0.19518 0.4973 1.01968 0.0
O1145 O 0.21962 0.51017 1.04689 0.0
O1146 O 0.22637 0.52939 1.10246 0.0
O1147 O 0.21909 0.50709 1.14448 0.0
O1148 O 0.21559 0.47355 1.07432 0.0
O1149 O 0.19035 0.46963 1.09658 0.0
O1150 O 0.18499 0.50885 1.14992 0.0
O1151 O 0.16109 0.49123 1.12696 0.0
H1152 H 0.12938 0.44203 1.00459 0.0
H1153 H 0.1006 0.42394 1.02156 0.0
H1154 H 0.09774 0.46896 1.10786 0.0
H1155 H 0.12655 0.48711 1.09048 0.0
H1156 H 0.2222 0.56995 1.12803 0.0
H1157 H 0.23839 0.60085 1.15727 0.0
H1158 H 0.26562 0.54969 0.21879 0.0
H1159 H 0.24946 0.51913 0.18968 0.0
Nd1160 Nd 0.59465 0.24834 1.06786 0.0
Nd1161 Nd 0.56786 0.24284 1.09523 0.0
C1162 C 0.62276 0.25373 1.02738 0.0
C1163 C 0.63867 0.23795 1.02548 0.0
C1164 C 0.63743 0.21703 1.00759 0.0
C1165 C 0.65118 0.20035 1.01009 0.0
C1166 C 0.66652 0.20424 1.03035 0.0
C1167 C 0.6679 0.22527 1.04783 0.0
C1168 C 0.65415 0.24194 1.04539 0.0
C1169 C 0.60026 0.20259 1.08734 0.0
C1170 C 0.55557 0.24369 1.01639 0.0
C1171 C 0.5401 0.23212 1.13507 0.0
C1172 C 0.53507 0.21463 0.16009 0.0
C1173 C 0.54022 0.19136 1.15624 0.0
C1174 C 0.53225 0.17431 0.17639 0.0
C1175 C 0.51914 0.18036 0.20074 0.0
C1176 C 0.5153 0.20391 0.20629 0.0
C1177 C 0.52318 0.22087 0.18607 0.0
C1178 C 0.56863 0.29032 1.07356 0.0
C1179 C 0.60174 0.24797 1.1525 0.0
O1180 O 0.60728 0.24496 1.0176 0.0
O1181 O 0.62094 0.26565 1.05496 0.0
O1182 O 0.61099 0.21967 1.09289 0.0
O1183 O 0.58492 0.2105 1.07587 0.0
O1184 O 0.57304 0.25127 1.01859 0.0
O1185 O 0.5498 0.23603 1.04586 0.0
O1186 O 0.54176 0.22486 1.10428 0.0
O1187 O 0.55259 0.24711 1.14332 0.0
O1188 O 0.5554 0.27594 1.06941 0.0
O1189 O 0.58128 0.2798 1.08883 0.0
O1190 O 0.5848 0.24018 1.14787 0.0
O1191 O 0.60918 0.25497 1.12326 0.0
H1192 H 0.62563 0.21325 0.99219 0.0
H1193 H 0.64981 0.18439 0.99616 0.0
H1194 H 0.67984 0.22911 1.06283 0.0
H1195 H 0.6555 0.25778 1.05959 0.0
H1196 H 0.5496 0.18624 1.13648 0.0
H1197 H 0.53558 0.15634 0.17175 0.0
H1198 H 0.50508 0.20921 0.22447 0.0
H1199 H 0.5191 0.23874 0.1894 0.0
Nd1200 Nd 0.17376 0.25423 0.99166 0.0
Nd1201 Nd 0.20206 0.24455 0.96363 0.0
C1202 C 0.14675 0.2735 1.0263 0.0
C1203 C 0.12892 0.28286 1.01646 0.0
C1204 C 0.12123 0.30094 1.03501 0.0
C1205 C 0.10495 0.31127 1.02454 0.0
C1206 C 0.09611 0.30368 0.99525 0.0
C1207 C 0.10401 0.28569 0.97645 0.0
C1208 C 0.12037 0.27544 0.98689 0.0
C1209 C 0.16783 0.20821 0.97397 0.0
C1210 C 0.2128 0.24686 1.04382 0.0
C1211 C 0.2295 0.22873 0.9268 0.0
C1212 C 0.23426 0.2106 0.90254 0.0
C1213 C 0.22978 0.18732 0.90847 0.0
C1214 C 0.23846 0.1698 0.89024 0.0
C1215 C 0.25166 0.17538 0.86583 0.0
C1216 C 0.25453 0.19879 0.85762 0.0
C1217 C 0.24593 0.21622 0.87592 0.0
C1218 C 0.20238 0.29232 0.9816 0.0
C1219 C 0.16806 0.25201 0.90635 0.0
O1220 O 0.149 0.25121 1.02401 0.0
O1221 O 0.16065 0.28491 1.01451 0.0
O1222 O 0.15702 0.22536 0.96753 0.0
O1223 O 0.18284 0.21594 0.98684 0.0
O1224 O 0.19486 0.25291 1.04191 0.0
O1225 O 0.21945 0.24071 1.01422 0.0
O1226 O 0.22605 0.22194 0.95738 0.0
O1227 O 0.21896 0.24564 0.91691 0.0
O1228 O 0.21516 0.27755 0.98793 0.0
O1229 O 0.18988 0.28178 0.96602 0.0
O1230 O 0.18476 0.24325 0.91132 0.0
O1231 O 0.16051 0.25986 0.93505 0.0
H1232 H 0.12785 0.30711 1.05757 0.0
H1233 H 0.099 0.32476 1.03993 0.0
H1234 H 0.09751 0.27952 0.9538 0.0
H1235 H 0.12637 0.26181 0.97183 0.0
H1236 H 0.22057 0.18258 0.9287 0.0
H1237 H 0.2358 0.15195 0.89682 0.0
H1238 H 0.26472 0.2038 0.83923 0.0
H1239 H 0.24952 0.23407 0.87093 0.0
Nd1240 Nd 0.59501 0.49655 0.9909 0.0
Nd1241 Nd 0.56658 0.5069 0.96308 0.0
C1242 C 0.62216 0.47688 1.02443 0.0
C1243 C 0.64029 0.4688 1.01388 0.0
C1244 C 0.64862 0.45053 1.03111 0.0
C1245 C 0.66533 0.44164 1.01997 0.0
C1246 C 0.67396 0.45089 0.99133 0.0
C1247 C 0.66539 0.46898 0.97377 0.0
C1248 C 0.64862 0.47779 0.98487 0.0
C1249 C 0.60112 0.54271 0.97364 0.0
C1250 C 0.55583 0.50353 1.0433 0.0
C1251 C 0.53924 0.52354 0.92693 0.0
C1252 C 0.53461 0.54137 0.90198 0.0
C1253 C 0.53873 0.56482 0.90731 0.0
C1254 C 0.53038 0.58194 0.88775 0.0
C1255 C 0.51785 0.57584 0.8626 0.0
C1256 C 0.51525 0.55224 0.85535 0.0
C1257 C 0.52352 0.53522 0.87493 0.0
C1258 C 0.56636 0.45885 0.97998 0.0
C1259 C 0.60061 0.49946 0.90563 0.0
O1260 O 0.61933 0.49913 1.02409 0.0
O1261 O 0.60863 0.46544 1.01153 0.0
O1262 O 0.61186 0.52555 0.96692 0.0
O1263 O 0.58608 0.53493 0.98658 0.0
O1264 O 0.57371 0.49713 1.04114 0.0
O1265 O 0.54928 0.51028 1.01394 0.0
O1266 O 0.54328 0.53069 0.95701 0.0
O1267 O 0.54912 0.50593 0.91729 0.0
O1268 O 0.55356 0.47348 0.987 0.0
O1269 O 0.57877 0.4697 0.96447 0.0
O1270 O 0.58402 0.50853 0.91082 0.0
O1271 O 0.60808 0.49122 0.9341 0.0
H1272 H 0.6422 0.44315 1.05321 0.0
H1273 H 0.67177 0.42801 1.03442 0.0
H1274 H 0.67171 0.4764 0.95163 0.0
H1275 H 0.64215 0.49159 0.9708 0.0
H1276 H 0.54746 0.57001 0.92787 0.0
H1277 H 0.53285 0.59992 0.89366 0.0
H1278 H 0.50554 0.54679 0.83651 0.0
H1279 H 0.52018 0.51725 0.8704 0.0
H1280 H 0.43249 0.83573 0.24177 0.0
H1281 H 0.38183 0.8042 0.21158 0.0
H1282 H 0.41695 0.87365 0.24333 0.0
H1283 H 0.36651 0.84144 0.21317 0.0
H1284 H 0.33753 0.9108 0.24137 0.0
H1285 H 0.35304 0.87286 0.2429 0.0
H1286 H 0.40371 0.90521 0.2136 0.0
H1287 H 0.38842 0.94247 0.21204 0.0
C1288 C 0.4181 0.83666 0.23545 0.0
C1289 C 0.40873 0.81622 0.22652 0.0
C1290 C 0.40902 0.85869 0.23621 0.0
C1291 C 0.39006 0.86138 0.22852 0.0
C1292 C 0.38085 0.84081 0.21986 0.0
C1293 C 0.38989 0.81907 0.21872 0.0
C1294 C 0.35196 0.90989 0.23523 0.0
C1295 C 0.3614 0.93039 0.22656 0.0
C1296 C 0.36103 0.88786 0.23598 0.0
C1297 C 0.38005 0.88519 0.22852 0.0
C1298 C 0.38933 0.90581 0.22011 0.0
C1299 C 0.3803 0.92756 0.21898 0.0
H1300 H 0.86109 0.42377 0.29419 0.0
H1301 H 0.85411 0.4205 0.18721 0.0
H1302 H 0.87997 0.38953 0.29289 0.0
H1303 H 0.87257 0.38485 0.18571 0.0
H1304 H 0.91646 0.3252 0.18793 0.0
H1305 H 0.89792 0.36076 0.18648 0.0
H1306 H 0.88639 0.35247 0.29211 0.0
H1307 H 0.90537 0.31829 0.29349 0.0
C1308 C 0.86326 0.41553 0.27014 0.0
C1309 C 0.85557 0.42548 0.24091 0.0
C1310 C 0.87426 0.39526 0.26933 0.0
C1311 C 0.8782 0.38313 0.23922 0.0
C1312 C 0.87038 0.39304 0.20975 0.0
C1313 C 0.85944 0.41369 0.21056 0.0
C1314 C 0.91018 0.33117 0.21098 0.0
C1315 C 0.91294 0.31841 0.24095 0.0
C1316 C 0.8992 0.35178 0.21017 0.0
C1317 C 0.89022 0.36067 0.23923 0.0
C1318 C 0.89303 0.34755 0.26895 0.0
C1319 C 0.90408 0.32732 0.26979 0.0
H1320 H 0.43098 0.41182 0.31564 0.0
H1321 H 0.38014 0.44262 0.34764 0.0
H1322 H 0.41574 0.37384 0.3135 0.0
H1323 H 0.36513 0.40533 0.34558 0.0
H1324 H 0.33663 0.33598 0.31703 0.0
H1325 H 0.35173 0.37414 0.31585 0.0
H1326 H 0.40296 0.34206 0.34259 0.0
H1327 H 0.38815 0.30471 0.34371 0.0
C1328 C 0.41663 0.4107 0.32229 0.0
C1329 C 0.4071 0.43096 0.33182 0.0
C1330 C 0.40771 0.38866 0.32117 0.0
C1331 C 0.38878 0.38577 0.3292 0.0
C1332 C 0.37943 0.40613 0.33856 0.0
C1333 C 0.38831 0.42789 0.33998 0.0
C1334 C 0.35109 0.337 0.32265 0.0
C1335 C 0.36086 0.31656 0.33041 0.0
C1336 C 0.35993 0.35915 0.32211 0.0
C1337 C 0.37898 0.36193 0.32893 0.0
C1338 C 0.38854 0.34138 0.33651 0.0
C1339 C 0.37978 0.31955 0.33738 0.0
H1340 H 0.86368 0.82322 0.27075 0.0
H1341 H 0.85683 0.82611 0.37791 0.0
H1342 H 0.88205 0.85756 0.27175 0.0
H1343 H 0.87482 0.86218 0.37906 0.0
H1344 H 0.91805 0.92285 0.37482 0.0
H1345 H 0.89991 0.88703 0.37736 0.0
H1346 H 0.88758 0.89466 0.27205 0.0
H1347 H 0.90619 0.92898 0.26956 0.0
C1348 C 0.86576 0.83139 0.29485 0.0
C1349 C 0.85826 0.82123 0.32416 0.0
C1350 C 0.87645 0.8518 0.29544 0.0
C1351 C 0.88026 0.86401 0.32542 0.0
C1352 C 0.87266 0.85393 0.35508 0.0
C1353 C 0.86201 0.83305 0.3545 0.0
C1354 C 0.91169 0.91665 0.35206 0.0
C1355 C 0.91413 0.92925 0.32181 0.0
C1356 C 0.90096 0.8959 0.35352 0.0
C1357 C 0.89191 0.88671 0.32488 0.0
C1358 C 0.89435 0.89973 0.29492 0.0
C1359 C 0.90517 0.92007 0.29342 0.0
H1360 H 0.67983 0.084 1.06254 0.0
H1361 H 0.63184 0.05326 1.10677 0.0
H1362 H 0.66381 0.12155 1.06065 0.0
H1363 H 0.61606 0.09017 1.10514 0.0
H1364 H 0.58438 0.15766 1.07904 0.0
H1365 H 0.60022 0.11995 1.07707 0.0
H1366 H 0.65216 0.15434 1.08785 0.0
H1367 H 0.6366 0.19124 1.08971 0.0
C1368 C 0.66596 0.08506 1.07204 0.0
C1369 C 0.65746 0.06494 1.08487 0.0
C1370 C 0.65658 0.10687 1.07105 0.0
C1371 C 0.63817 0.10967 1.08258 0.0
C1372 C 0.62987 0.08944 1.09533 0.0
C1373 C 0.6392 0.0679 1.09652 0.0
C1374 C 0.59916 0.15723 1.08089 0.0
C1375 C 0.60885 0.17818 1.08474 0.0
C1376 C 0.60844 0.13534 1.07996 0.0
C1377 C 0.62789 0.13328 1.08236 0.0
C1378 C 0.6374 0.15437 1.08553 0.0
C1379 C 0.62821 0.17597 1.08687 0.0
H1380 H 0.14147 0.69445 1.09447 0.0
H1381 H 0.0899 0.66386 1.06757 0.0
H1382 H 0.15607 0.65674 1.09396 0.0
H1383 H 0.1047 0.62548 1.06702 0.0
H1384 H 0.1323 0.55636 1.09937 0.0
H1385 H 0.11766 0.59403 1.0971 0.0
H1386 H 0.16865 0.62448 1.06535 0.0
H1387 H 0.18348 0.58617 1.0677 0.0
C1388 C 0.13306 0.67969 1.08827 0.0
C1389 C 0.1142 0.68294 1.08104 0.0
C1390 C 0.14167 0.65766 1.08775 0.0
C1391 C 0.13198 0.63722 1.08031 0.0
C1392 C 0.11299 0.64033 1.07321 0.0
C1393 C 0.10434 0.66262 1.07338 0.0
C1394 C 0.14062 0.57094 1.09176 0.0
C1395 C 0.15939 0.56749 1.08375 0.0
C1396 C 0.13198 0.59293 1.09021 0.0
C1397 C 0.14155 0.61314 1.08088 0.0
C1398 C 0.16045 0.60983 1.073 0.0
C1399 C 0.16913 0.58757 1.07422 0.0
H1400 H 0.66603 0.6729 0.93353 0.0
H1401 H 0.65197 0.67549 1.03841 0.0
H1402 H 0.64843 0.63681 0.92811 0.0
H1403 H 0.63452 0.63991 1.03315 0.0
H1404 H 0.59175 0.58237 1.01232 0.0
H1405 H 0.6079 0.6197 1.0151 0.0
H1406 H 0.64562 0.59645 0.93892 0.0
H1407 H 0.62958 0.55963 0.93628 0.0
C1408 C 0.65935 0.66587 0.95558 0.0
C1409 C 0.66081 0.67769 0.9865 0.0
C1410 C 0.6491 0.64488 0.95254 0.0
C1411 C 0.63955 0.63475 0.98012 0.0
C1412 C 0.64111 0.64671 1.01089 0.0
C1413 C 0.65146 0.66738 1.01398 0.0
C1414 C 0.60329 0.58529 0.99577 0.0
C1415 C 0.60902 0.56745 0.97388 0.0
C1416 C 0.61286 0.60686 0.99758 0.0
C1417 C 0.6285 0.61184 0.97733 0.0
C1418 C 0.63376 0.59411 0.95489 0.0
C1419 C 0.62441 0.57261 0.95343 0.0
H1420 H 0.13957 0.19151 0.93638 0.0
H1421 H 0.17719 0.16827 1.01218 0.0
H1422 H 0.12358 0.15463 0.93866 0.0
H1423 H 0.1611 0.13087 1.01457 0.0
H1424 H 0.11703 0.07488 1.03746 0.0
H1425 H 0.13446 0.11052 1.03247 0.0
H1426 H 0.12083 0.11437 0.92749 0.0
H1427 H 0.10325 0.07822 0.93263 0.0
C1428 C 0.1447 0.1784 0.95339 0.0
C1429 C 0.16002 0.18344 0.97389 0.0
C1430 C 0.13539 0.15687 0.95463 0.0
C1431 C 0.1406 0.13898 0.97689 0.0
C1432 C 0.15617 0.14384 0.99718 0.0
C1433 C 0.16571 0.16545 0.99559 0.0
C1434 C 0.11759 0.08317 1.01309 0.0
C1435 C 0.10833 0.07305 0.98554 0.0
C1436 C 0.12793 0.10387 1.01016 0.0
C1437 C 0.12957 0.11605 0.9795 0.0
C1438 C 0.1201 0.10612 0.95185 0.0
C1439 C 0.10986 0.0851 0.95472 0.0
H1440 H 0.42663 0.33091 0.76364 0.0
H1441 H 0.39094 0.30984 0.68376 0.0
H1442 H 0.41061 0.36845 0.76614 0.0
H1443 H 0.37501 0.34681 0.68616 0.0
H1444 H 0.35452 0.42311 0.68188 0.0
H1445 H 0.37236 0.38711 0.67661 0.0
H1446 H 0.38365 0.38864 0.78265 0.0
H1447 H 0.36599 0.42418 0.78772 0.0
C1448 C 0.41565 0.33428 0.74612 0.0
C1449 C 0.41045 0.31687 0.72324 0.0
C1450 C 0.40613 0.35595 0.74779 0.0
C1451 C 0.39107 0.3614 0.72644 0.0
C1452 C 0.38641 0.34411 0.70299 0.0
C1453 C 0.39571 0.32254 0.70164 0.0
C1454 C 0.36066 0.41574 0.70416 0.0
C1455 C 0.35842 0.42711 0.7353 0.0
C1456 C 0.37105 0.39481 0.70121 0.0
C1457 C 0.37994 0.38428 0.72915 0.0
C1458 C 0.37759 0.39577 0.76014 0.0
C1459 C 0.36712 0.41641 0.76311 0.0
H1460 H 0.84331 0.91346 0.76505 0.0
H1461 H 0.8783 0.93523 0.68399 0.0
H1462 H 0.85967 0.87613 0.76705 0.0
H1463 H 0.89455 0.89846 0.68586 0.0
H1464 H 0.91557 0.8223 0.68116 0.0
H1465 H 0.89736 0.85805 0.6763 0.0
H1466 H 0.88708 0.85655 0.78281 0.0
H1467 H 0.90512 0.82131 0.7875 0.0
C1468 C 0.8542 0.91027 0.74716 0.0
C1469 C 0.85911 0.92782 0.7241 0.0
C1470 C 0.86392 0.88874 0.74853 0.0
C1471 C 0.87888 0.88356 0.72669 0.0
C1472 C 0.88323 0.90096 0.70306 0.0
C1473 C 0.87376 0.92241 0.70201 0.0
C1474 C 0.90958 0.82963 0.70363 0.0
C1475 C 0.91222 0.81837 0.73479 0.0
C1476 C 0.89897 0.85041 0.70091 0.0
C1477 C 0.89024 0.86085 0.72912 0.0
C1478 C 0.893 0.84947 0.76012 0.0
C1479 C 0.90369 0.829 0.76286 0.0
H1480 H 0.43244 0.91077 0.81621 0.0
H1481 H 0.38156 0.94126 0.84862 0.0
H1482 H 0.41737 0.87266 0.81431 0.0
H1483 H 0.36671 0.90383 0.8467 0.0
H1484 H 0.33852 0.83443 0.81759 0.0
H1485 H 0.35355 0.8726 0.8163 0.0
H1486 H 0.40468 0.84077 0.84422 0.0
H1487 H 0.38986 0.8033 0.84555 0.0
C1488 C 0.41811 0.90956 0.82296 0.0
C1489 C 0.40852 0.92976 0.83261 0.0
C1490 C 0.4093 0.88744 0.82199 0.0
C1491 C 0.39042 0.88442 0.8302 0.0
C1492 C 0.38099 0.90474 0.83958 0.0
C1493 C 0.38977 0.92658 0.84092 0.0
C1494 C 0.35295 0.83551 0.82346 0.0
C1495 C 0.36267 0.81511 0.83167 0.0
C1496 C 0.36173 0.85766 0.82285 0.0
C1497 C 0.38073 0.86051 0.83001 0.0
C1498 C 0.39029 0.84 0.83795 0.0
C1499 C 0.38154 0.81813 0.83895 0.0
H1500 H 0.88864 0.30518 0.84693 0.0
H1501 H 0.83802 0.33653 0.81525 0.0
H1502 H 0.90368 0.34247 0.84595 0.0
H1503 H 0.85331 0.37457 0.81436 0.0
H1504 H 0.8814 0.44326 0.84767 0.0
H1505 H 0.8662 0.40602 0.84511 0.0
H1506 H 0.91714 0.37392 0.81634 0.0
H1507 H 0.93254 0.4118 0.81885 0.0
C1508 C 0.88052 0.32002 0.83957 0.0
C1509 C 0.86177 0.31709 0.83118 0.0
C1510 C 0.88941 0.3418 0.83879 0.0
C1511 C 0.88014 0.36234 0.82993 0.0
C1512 C 0.86127 0.3596 0.82163 0.0
C1513 C 0.85233 0.33752 0.82201 0.0
C1514 C 0.88959 0.42841 0.84064 0.0
C1515 C 0.90853 0.43125 0.83353 0.0
C1516 C 0.88062 0.40668 0.83893 0.0
C1517 C 0.89002 0.38616 0.83039 0.0
C1518 C 0.90907 0.38886 0.82335 0.0
C1519 C 0.91807 0.41086 0.82466 0.0
H1520 H 0.65391 0.57359 0.52314 0.0
H1521 H 0.66496 0.57375 0.62919 0.0
H1522 H 0.63622 0.60904 0.52862 0.0
H1523 H 0.64711 0.60975 0.63482 0.0
H1524 H 0.62853 0.68725 0.62771 0.0
H1525 H 0.64471 0.65042 0.62511 0.0
H1526 H 0.60884 0.62832 0.5458 0.0
H1527 H 0.59256 0.66565 0.54853 0.0
C1528 C 0.65269 0.58115 0.54788 0.0
C1529 C 0.66126 0.57023 0.57563 0.0
C1530 C 0.64221 0.60172 0.55107 0.0
C1531 C 0.63972 0.61292 0.58223 0.0
C1532 C 0.64852 0.60222 0.61012 0.0
C1533 C 0.65892 0.58132 0.60695 0.0
C1534 C 0.62379 0.67449 0.60992 0.0
C1535 C 0.6089 0.67992 0.58856 0.0
C1536 C 0.63321 0.65301 0.60847 0.0
C1537 C 0.62852 0.63567 0.58514 0.0
C1538 C 0.61334 0.6409 0.56403 0.0
C1539 C 0.60369 0.66244 0.56581 0.0
H1540 H 0.15287 0.07317 0.52259 0.0
H1541 H 0.16573 0.07588 0.62783 0.0
H1542 H 0.13565 0.10907 0.52709 0.0
H1543 H 0.14836 0.11232 0.63248 0.0
H1544 H 0.13048 0.18989 0.62265 0.0
H1545 H 0.14616 0.1527 0.62098 0.0
H1546 H 0.10893 0.12966 0.54441 0.0
H1547 H 0.09315 0.16736 0.5462 0.0
C1548 C 0.15214 0.08137 0.54695 0.0
C1549 C 0.16108 0.07101 0.57476 0.0
C1550 C 0.14193 0.10223 0.54959 0.0
C1551 C 0.14011 0.11431 0.58021 0.0
C1552 C 0.14925 0.10413 0.60815 0.0
C1553 C 0.15937 0.08296 0.60556 0.0
C1554 C 0.12534 0.17687 0.60563 0.0
C1555 C 0.11021 0.18219 0.58474 0.0
C1556 C 0.13447 0.15517 0.60474 0.0
C1557 C 0.12924 0.1374 0.58248 0.0
C1558 C 0.11384 0.14253 0.56182 0.0
C1559 C 0.10449 0.16431 0.56306 0.0
H1560 H 0.66655 0.17053 0.43132 0.0
H1561 H 0.6557 0.17497 0.53733 0.0
H1562 H 0.64885 0.13416 0.42915 0.0
H1563 H 0.63762 0.14045 0.5351 0.0
H1564 H 0.61689 0.06815 0.53797 0.0
H1565 H 0.63504 0.1026 0.53502 0.0
H1566 H 0.6225 0.10964 0.42976 0.0
H1567 H 0.60473 0.07333 0.43261 0.0
C1568 C 0.66054 0.16389 0.45424 0.0
C1569 C 0.6631 0.17615 0.48464 0.0
C1570 C 0.65009 0.14287 0.45301 0.0
C1571 C 0.64159 0.13319 0.48206 0.0
C1572 C 0.64409 0.14592 0.51201 0.0
C1573 C 0.65458 0.16641 0.51328 0.0
C1574 C 0.61774 0.07685 0.51393 0.0
C1575 C 0.60883 0.06735 0.48569 0.0
C1576 C 0.62827 0.0973 0.51225 0.0
C1577 C 0.63041 0.11024 0.48227 0.0
C1578 C 0.62154 0.10077 0.45361 0.0
C1579 C 0.61106 0.07978 0.45525 0.0
H1580 H 0.14185 0.68905 0.43585 0.0
H1581 H 0.17921 0.66714 0.5129 0.0
H1582 H 0.12603 0.6521 0.43893 0.0
H1583 H 0.16331 0.62963 0.51606 0.0
H1584 H 0.1196 0.57325 0.53941 0.0
H1585 H 0.13689 0.60899 0.53392 0.0
H1586 H 0.12339 0.6119 0.42881 0.0
H1587 H 0.10593 0.57572 0.4345 0.0
C1588 C 0.14697 0.67621 0.4533 0.0
C1589 C 0.16216 0.68164 0.4739 0.0
C1590 C 0.13775 0.65463 0.45501 0.0
C1591 C 0.14295 0.63708 0.47784 0.0
C1592 C 0.1584 0.64233 0.49824 0.0
C1593 C 0.16783 0.66399 0.4962 0.0
C1594 C 0.12017 0.58136 0.51492 0.0
C1595 C 0.11098 0.57099 0.48751 0.0
C1596 C 0.13042 0.60212 0.51169 0.0
C1597 C 0.13204 0.61408 0.48083 0.0
C1598 C 0.12266 0.60385 0.45331 0.0
C1599 C 0.1125 0.58281 0.4565 0.0
H1600 H 0.26896 0.9831 0.30354 0.0
H1601 H 0.31248 0.00941 0.36415 0.0
H1602 H 0.24797 0.98521 0.35149 0.0
H1603 H 0.29144 0.01156 0.41255 0.0
H1604 H 0.25008 0.0148 0.50656 0.0
H1605 H 0.27127 0.01281 0.4587 0.0
H1606 H 0.22769 0.98796 0.39657 0.0
H1607 H 0.20654 0.99002 0.44467 0.0
C1608 C 0.27448 0.98938 0.32697 0.0
C1609 C 0.29351 0.99586 0.32749 0.0
C1610 C 0.26191 0.99069 0.3557 0.0
C1611 C 0.26676 -0.00133 0.38871 0.0
C1612 C 0.28587 0.00518 0.38926 0.0
C1613 C 0.29849 0.00388 0.36038 0.0
C1614 C 0.2446 0.00889 0.4829 0.0
C1615 C 0.2255 0.00278 0.48191 0.0
C1616 C 0.25728 0.00767 0.45424 0.0
C1617 C 0.25244 0.00011 0.42098 0.0
C1618 C 0.23327 0.99398 0.42005 0.0
C1619 C 0.22057 0.99523 0.44877 0.0
H1620 H 0.01946 0.23272 0.50597 0.0
H1621 H 0.06261 0.26073 0.44547 0.0
H1622 H 0.99859 0.23434 0.45793 0.0
H1623 H 0.04169 0.26248 0.39707 0.0
H1624 H 0.99975 0.26835 0.3042 0.0
H1625 H 0.02077 0.26662 0.35212 0.0
H1626 H 0.97909 0.23348 0.41094 0.0
H1627 H 0.9581 0.23521 0.36272 0.0
C1628 C 0.02496 0.23928 0.48257 0.0
C1629 C 0.04388 0.24636 0.48219 0.0
C1630 C 0.01244 0.24027 0.45375 0.0
C1631 C 0.01717 0.24863 0.42072 0.0
C1632 C 0.03616 0.25579 0.42032 0.0
C1633 C 0.04875 0.25471 0.44925 0.0
C1634 C 0.99463 0.26061 0.32711 0.0
C1635 C 0.97607 0.25212 0.32702 0.0
C1636 C 1.00723 0.25952 0.35584 0.0
C1637 C 1.00291 0.24982 0.3883 0.0
C1638 C 0.98427 0.24132 0.38819 0.0
C1639 C 0.97166 0.24235 0.35935 0.0
H1640 H 0.20689 0.26054 1.11441 0.0
H1641 H 0.25084 0.23545 1.05306 0.0
H1642 H 0.2277 0.26198 0.16296 0.0
H1643 H 0.27161 0.23683 1.1012 0.0
H1644 H 0.3125 0.23959 0.19551 0.0
H1645 H 0.29164 0.23818 1.14709 0.0
H1646 H 0.24781 0.26334 0.20903 0.0
H1647 H 0.26866 0.26469 0.25712 0.0
C1648 C 0.22092 0.25513 1.11048 0.0
C1649 C 0.22607 0.24769 1.07729 0.0
C1650 C 0.23342 0.25601 1.13948 0.0
C1651 C 0.2526 0.24959 1.13884 0.0
C1652 C 0.25761 0.24217 1.10554 0.0
C1653 C 0.24516 0.24131 1.07668 0.0
C1654 C 0.29847 0.24502 0.19951 0.0
C1655 C 0.29338 0.25245 0.23273 0.0
C1656 C 0.28594 0.24415 0.17058 0.0
C1657 C 0.26677 0.25058 0.1713 0.0
C1658 C 0.2618 0.258 0.20464 0.0
C1659 C 0.2743 0.25884 0.23346 0.0
H1660 H 0.95749 0.01377 0.19786 0.0
H1661 H 0.99923 0.98105 0.2565 0.0
H1662 H 0.97871 0.01585 1.14976 0.0
H1663 H 0.02046 0.98313 0.20875 0.0
H1664 H 0.06278 0.99019 1.11656 0.0
H1665 H 0.04155 0.98812 0.16462 0.0
H1666 H 0.99834 0.01477 1.10282 0.0
H1667 H 0.01957 0.01672 1.05504 0.0
C1668 C 0.97112 0.0068 0.20125 0.0
C1669 C 0.97552 -0.00297 0.23351 0.0
C1670 C 0.98385 0.00803 0.17252 0.0
C1671 C 1.00256 -0.00024 0.17259 0.0
C1672 C 1.00687 0.99006 0.20498 0.0
C1673 C 0.99415 0.98876 0.23357 0.0
C1674 C 0.04882 0.99579 1.11251 0.0
C1675 C 0.04401 0.00381 1.07946 0.0
C1676 C 0.03607 0.99451 1.1412 0.0
C1677 C 0.01697 0.00117 1.14039 0.0
C1678 C 0.01227 0.00923 1.10724 0.0
C1679 C 0.02498 0.01041 1.0786 0.0
H1680 H 0.74962 0.01656 1.00593 0.0
H1681 H 0.7074 0.98533 0.94723 0.0
H1682 H 0.77064 0.01478 0.95793 0.0
H1683 H 0.72845 0.98346 0.89884 0.0
H1684 H 0.76996 0.97926 0.80537 0.0
H1685 H 0.7489 0.98111 0.85333 0.0
H1686 H 0.79071 0.01365 0.91189 0.0
H1687 H 0.8118 0.01175 0.86355 0.0
C1688 C 0.74438 0.00924 0.98292 0.0
C1689 C 0.72569 0.00131 0.98296 0.0
C1690 C 0.75698 0.00814 0.95416 0.0
C1691 C 0.75251 -0.00111 0.92166 0.0
C1692 C 0.73374 0.9909 0.92169 0.0
C1693 C 0.72109 0.99203 0.95058 0.0
C1694 C 0.7751 0.98689 0.82825 0.0
C1695 C 0.7937 0.99516 0.82809 0.0
C1696 C 0.76247 0.98803 0.85698 0.0
C1697 C 0.76684 -0.00238 0.88932 0.0
C1698 C 0.78552 0.00593 0.88917 0.0
C1699 C 0.79818 0.00479 0.86031 0.0
H1700 H 0.02157 0.73537 1.00641 0.0
H1701 H 0.06531 0.7587 0.94315 0.0
H1702 H 1.00042 0.7368 0.95885 0.0
H1703 H 0.04411 0.76018 0.89514 0.0
H1704 H 1.0022 0.76312 0.80216 0.0
H1705 H 0.02355 0.76172 0.84961 0.0
H1706 H 0.98011 0.73804 0.91364 0.0
H1707 H 0.9588 0.73948 0.86594 0.0
C1708 C 0.02712 0.74083 0.98248 0.0
C1709 C 0.04627 0.74671 0.98114 0.0
C1710 C 0.01444 0.74173 0.95395 0.0
C1711 C 0.01928 0.74868 0.92032 0.0
C1712 C 0.03851 0.75459 0.91895 0.0
C1713 C 0.05124 0.75369 0.94761 0.0
C1714 C 0.99678 0.75758 0.82616 0.0
C1715 C 0.97765 0.75159 0.82775 0.0
C1716 C 1.00956 0.75671 0.85459 0.0
C1717 C 1.00483 0.74969 0.88827 0.0
C1718 C 0.98563 0.74368 0.88981 0.0
C1719 C 0.97284 0.74456 0.86131 0.0
H1720 H 0.70626 0.75766 1.11851 0.0
H1721 H 0.75021 0.73547 1.05485 0.0
H1722 H 0.72751 0.75947 0.16632 0.0
H1723 H 0.77146 0.73723 1.10233 0.0
H1724 H 0.81307 0.7403 0.19549 0.0
H1725 H 0.79179 0.7385 1.14777 0.0
H1726 H 0.74805 0.76163 0.21159 0.0
H1727 H 0.76937 0.76338 0.25903 0.0
C1728 C 0.7204 0.75299 1.11392 0.0
C1729 C 0.7254 0.74624 1.08034 0.0
C1730 C 0.73316 0.75409 1.14248 0.0
C1731 C 0.75248 0.74859 1.14099 0.0
C1732 C 0.75737 0.74184 1.1073 0.0
C1733 C 0.74464 0.74076 1.07883 0.0
C1734 C 0.79898 0.74516 0.20007 0.0
C1735 C 0.79407 0.75216 0.23358 0.0
C1736 C 0.78619 0.74408 0.17155 0.0
C1737 C 0.76692 0.74983 0.17303 0.0
C1738 C 0.76211 0.7568 0.20666 0.0
C1739 C 0.77487 0.75789 0.23509 0.0
H1740 H 0.20727 0.4892 0.94744 0.0
H1741 H 0.25102 0.51463 1.00827 0.0
H1742 H 0.22823 0.48722 0.89891 0.0
H1743 H 0.27194 0.5127 0.96021 0.0
H1744 H 0.31327 0.50784 0.86686 0.0
H1745 H 0.2922 0.50978 0.91511 0.0
H1746 H 0.24824 0.48642 0.85264 0.0
H1747 H 0.26934 0.48455 0.80466 0.0
C1748 C 0.22129 0.49457 0.95123 0.0
C1749 C 0.22637 0.50229 0.98421 0.0
C1750 C 0.23387 0.49338 0.92228 0.0
C1751 C 0.25302 0.4997 0.92288 0.0
C1752 C 0.25796 0.50738 0.95598 0.0
C1753 C 0.24543 0.50859 0.98477 0.0
C1754 C 0.29916 0.50296 0.86272 0.0
C1755 C 0.29409 0.49586 0.82945 0.0
C1756 C 0.28652 0.50414 0.89152 0.0
C1757 C 0.26728 0.49836 0.89054 0.0
C1758 C 0.2623 0.49126 0.85715 0.0
C1759 C 0.27492 0.49012 0.82842 0.0
H1760 H 0.20861 0.76002 0.61348 0.0
H1761 H 0.25226 0.7333 0.55287 0.0
H1762 H 0.22945 0.76174 0.66197 0.0
H1763 H 0.27306 0.73498 0.60095 0.0
H1764 H 0.31405 0.73852 0.69514 0.0
H1765 H 0.29319 0.73684 0.64673 0.0
H1766 H 0.24952 0.76309 0.7081 0.0
H1767 H 0.27037 0.76471 0.75616 0.0
C1768 C 0.22258 0.7543 0.6097 0.0
C1769 C 0.22763 0.74631 0.57673 0.0
C1770 C 0.2351 0.75534 0.63867 0.0
C1771 C 0.2542 0.74858 0.63822 0.0
C1772 C 0.25913 0.74062 0.60514 0.0
C1773 C 0.24665 0.73958 0.57631 0.0
C1774 C 0.30007 0.74414 0.69902 0.0
C1775 C 0.29502 0.75197 0.73208 0.0
C1776 C 0.28752 0.74311 0.6701 0.0
C1777 C 0.2684 0.74975 0.67066 0.0
C1778 C 0.26347 0.75756 0.70382 0.0
C1779 C 0.27598 0.75857 0.73264 0.0
H1780 H 0.06448 0.48999 0.61891 0.0
H1781 H 0.02098 0.51405 0.55598 0.0
H1782 H 0.04312 0.48797 0.66674 0.0
H1783 H 0.9996 0.51211 0.60354 0.0
H1784 H 0.9582 0.51003 0.69793 0.0
H1785 H 0.97947 0.51212 0.64983 0.0
H1786 H 0.02236 0.48409 0.7111 0.0
H1787 H 1.00115 0.48203 0.75873 0.0
C1788 C 0.05042 0.49503 0.61451 0.0
C1789 C 0.04557 0.50236 0.58116 0.0
C1790 C 0.03759 0.4938 0.64306 0.0
C1791 C 0.01836 0.49977 0.64176 0.0
C1792 C 0.01362 0.50713 0.6083 0.0
C1793 C 0.02641 0.5083 0.57982 0.0
C1794 C 0.9721 0.50411 0.70181 0.0
C1795 C 0.97685 0.49563 0.73465 0.0
C1796 C 0.98486 0.50536 0.6731 0.0
C1797 C 1.0039 0.49838 0.67383 0.0
C1798 C 1.00851 0.48996 0.70679 0.0
C1799 C 0.99579 0.48868 0.73532 0.0
H1800 H 0.81188 0.50963 0.36382 0.0
H1801 H 0.76979 0.4785 0.30467 0.0
H1802 H 0.79065 0.51197 0.41181 0.0
H1803 H 0.74853 0.48082 0.35235 0.0
H1804 H 0.70635 0.48817 0.44435 0.0
H1805 H 0.72759 0.48585 0.39639 0.0
H1806 H 0.77098 0.51137 0.45841 0.0
H1807 H 0.74971 0.51358 0.50611 0.0
C1808 C 0.79816 0.50306 0.36033 0.0
C1809 C 0.79365 0.49365 0.32801 0.0
C1810 C 0.78543 0.50445 0.38897 0.0
C1811 C 0.76663 0.49671 0.38869 0.0
C1812 C 0.76221 0.48735 0.35623 0.0
C1813 C 0.77493 0.4859 0.3277 0.0
C1814 C 0.72036 0.49347 0.44843 0.0
C1815 C 0.72522 0.50128 0.48147 0.0
C1816 C 0.73311 0.49204 0.41983 0.0
C1817 C 0.75224 0.4983 0.42079 0.0
C1818 C 0.757 0.50615 0.45394 0.0
C1819 C 0.74429 0.50748 0.4825 0.0
H1820 H 0.70832 0.25879 0.61402 0.0
H1821 H 0.75197 0.23303 0.55258 0.0
H1822 H 0.72934 0.26106 0.6621 0.0
H1823 H 0.773 0.23515 0.60046 0.0
H1824 H 0.81341 0.23618 0.6962 0.0
H1825 H 0.79246 0.23395 0.64794 0.0
H1826 H 0.75032 0.26657 0.70632 0.0
H1827 H 0.77129 0.26883 0.75421 0.0
C1828 C 0.72234 0.2534 0.60997 0.0
C1829 C 0.7273 0.24552 0.57687 0.0
C1830 C 0.73498 0.25479 0.63872 0.0
C1831 C 0.75415 0.24841 0.63803 0.0
C1832 C 0.75901 0.24049 0.60484 0.0
C1833 C 0.74641 0.2392 0.57612 0.0
C1834 C 0.79976 0.24313 0.69944 0.0
C1835 C 0.7952 0.25294 0.73163 0.0
C1836 C 0.78717 0.2418 0.67059 0.0
C1837 C 0.76842 0.24996 0.67038 0.0
C1838 C 0.76395 0.2597 0.7027 0.0
C1839 C 0.77653 0.26111 0.7314 0.0
H1840 H 0.56065 0.26012 0.94699 0.0
H1841 H 0.51799 0.2299 1.0064 0.0
H1842 H 0.53988 0.26167 0.89845 0.0
H1843 H 0.4972 0.2314 0.95816 0.0
H1844 H 0.45633 0.23485 0.86338 0.0
H1845 H 0.47705 0.23327 0.91206 0.0
H1846 H 0.52004 0.26267 0.85218 0.0
H1847 H 0.49935 0.26418 0.80389 0.0
C1848 C 0.5469 0.25361 0.95049 0.0
C1849 C 0.54212 0.24472 0.98315 0.0
C1850 C 0.53442 0.25453 0.92147 0.0
C1851 C 0.5156 0.24673 0.92152 0.0
C1852 C 0.51092 0.23788 0.9543 0.0
C1853 C 0.52337 0.23695 0.98322 0.0
C1854 C 0.47014 0.24116 0.85989 0.0
C1855 C 0.47505 0.24981 0.82715 0.0
C1856 C 0.48259 0.24021 0.88898 0.0
C1857 C 0.50148 0.24777 0.88892 0.0
C1858 C 0.50627 0.2564 0.85608 0.0
C1859 C 0.49386 0.25732 0.82711 0.0
H1860 H 0.4572 0.00866 0.69677 0.0
H1861 H 0.5002 0.98008 0.75685 0.0
H1862 H 0.47824 0.01056 0.64836 0.0
H1863 H 0.52121 0.98194 0.70889 0.0
H1864 H 0.56274 0.98673 0.61586 0.0
H1865 H 0.5416 0.98491 0.66398 0.0
H1866 H 0.49827 0.01114 0.60205 0.0
H1867 H 0.51947 0.01288 0.55416 0.0
C1868 C 0.47107 0.00257 0.70041 0.0
C1869 C 0.4759 0.994 0.73315 0.0
C1870 C 0.48369 0.00371 0.67153 0.0
C1871 C 0.50267 0.9965 0.67195 0.0
C1872 C 0.50738 0.98798 0.70481 0.0
C1873 C 0.49479 0.98681 0.73354 0.0
C1874 C 0.54877 0.99229 0.61181 0.0
C1875 C 0.54391 0.00014 0.57872 0.0
C1876 C 0.53607 0.99118 0.64053 0.0
C1877 C 0.51698 -0.00222 0.63967 0.0
C1878 C 0.51221 0.00564 0.60646 0.0
C1879 C 0.52489 0.00671 0.57778 0.0
H1880 H 0.45712 0.73648 0.36495 0.0
H1881 H 0.50061 0.76426 0.30505 0.0
H1882 H 0.47785 0.73458 0.41361 0.0
H1883 H 0.52131 0.76241 0.35332 0.0
H1884 H 0.56208 0.75865 0.44815 0.0
H1885 H 0.54135 0.76052 0.39951 0.0
H1886 H 0.49785 0.73293 0.45992 0.0
H1887 H 0.51855 0.73111 0.50819 0.0
C1888 C 0.47103 0.74239 0.36135 0.0
C1889 C 0.47606 0.75072 0.32849 0.0
C1890 C 0.48349 0.74124 0.39044 0.0
C1891 C 0.50252 0.74825 0.39028 0.0
C1892 C 0.50743 0.75655 0.35731 0.0
C1893 C 0.49501 0.75769 0.32836 0.0
C1894 C 0.54816 0.75277 0.45178 0.0
C1895 C 0.54313 0.74451 0.48467 0.0
C1896 C 0.5357 0.75391 0.4227 0.0
C1897 C 0.51665 0.74696 0.4229 0.0
C1898 C 0.51174 0.73873 0.4559 0.0
C1899 C 0.52416 0.73761 0.48485 0.0
H1900 H 0.4987 0.48145 0.25515 0.0
H1901 H 0.45639 0.51278 0.19629 0.0
H1902 H 0.51969 0.48318 0.20708 0.0
H1903 H 0.4774 0.51455 1.14784 0.0
H1904 H 0.51813 0.51633 1.05318 0.0
H1905 H 0.49721 0.5147 1.10133 0.0
H1906 H 0.54027 0.48625 0.16176 0.0
H1907 H 0.56124 0.48796 1.11322 0.0
C1908 C 0.49344 0.48879 0.23211 0.0
C1909 C 0.47473 0.49678 0.23212 0.0
C1910 C 0.50602 0.48987 0.2033 0.0
C1911 C 0.50151 0.49909 0.17073 0.0
C1912 C 0.48272 0.50711 0.17073 0.0
C1913 C 0.4701 0.50606 0.19967 0.0
C1914 C 0.52359 0.50968 1.07651 0.0
C1915 C 0.54249 0.50248 1.07677 0.0
C1916 C 0.51105 0.50869 1.10537 0.0
C1917 C 0.51578 0.50026 1.13828 0.0
C1918 C 0.53477 0.493 1.13857 0.0
C1919 C 0.54737 0.49405 1.10959 0.0
H1920 H 0.38959 0.00642 1.13471 0.0
H1921 H 0.33767 0.99119 1.09031 0.0
H1922 H 0.40392 0.00643 1.07856 0.0
H1923 H 0.35181 0.99173 1.03421 0.0
H1924 H 0.37917 0.00505 0.92509 0.0
H1925 H 0.36487 0.00495 0.98125 0.0
H1926 H 0.41746 0.99334 1.02592 0.0
H1927 H 0.4316 0.99292 0.96982 0.0
C1928 C 0.38085 0.00312 1.11338 0.0
C1929 C 0.36176 -0.00117 1.11981 0.0
C1930 C 0.38939 0.00304 1.07988 0.0
C1931 C 0.37977 -0.00088 1.04882 0.0
C1932 C 0.36064 0.99507 1.05538 0.0
C1933 C 0.3522 0.99471 1.08886 0.0
C1934 C 0.38803 0.00244 0.94649 0.0
C1935 C 0.40725 -0.00094 0.94016 0.0
C1936 C 0.37951 0.00229 0.98 0.0
C1937 C 0.38926 -0.00082 1.01116 0.0
C1938 C 0.40852 0.99603 1.00468 0.0
C1939 C 0.41696 0.99574 0.9712 0.0
H1940 H 0.93315 0.25027 1.08906 0.0
H1941 H 0.88008 0.24494 1.13441 0.0
H1942 H 0.9192 0.24955 1.03308 0.0
H1943 H 0.86597 0.2445 1.07827 0.0
H1944 H 0.83912 0.25257 0.96834 0.0
H1945 H 0.853 0.25259 1.02446 0.0
H1946 H 0.90579 0.24069 0.98019 0.0
H1947 H 0.89175 0.24042 0.92401 0.0
C1948 C 0.91839 0.24889 1.08788 0.0
C1949 C 0.90849 0.24761 1.11916 0.0
C1950 C 0.91004 0.24844 1.05438 0.0
C1951 C 0.89067 0.24694 1.04792 0.0
C1952 C 0.88072 0.24578 1.07932 0.0
C1953 C 0.88913 0.24597 1.1129 0.0
C1954 C 0.85376 0.24982 0.96979 0.0
C1955 C 0.86358 0.24641 0.93877 0.0
C1956 C 0.86207 0.2498 1.00336 0.0
C1957 C 0.88131 0.24668 1.01009 0.0
C1958 C 0.89115 0.24336 0.97893 0.0
C1959 C 0.88279 0.24311 0.94533 0.0
H1960 H 0.39025 0.23616 0.42427 0.0
H1961 H 0.33861 0.25444 0.46814 0.0
H1962 H 0.40439 0.23636 0.48048 0.0
H1963 H 0.35253 0.25397 0.52428 0.0
H1964 H 0.37927 0.23953 0.63388 0.0
H1965 H 0.36521 0.23952 0.57765 0.0
H1966 H 0.41793 0.25103 0.53313 0.0
H1967 H 0.43182 0.25172 0.58934 0.0
C1968 C 0.38151 0.24014 0.44547 0.0
C1969 C 0.36255 0.24521 0.43882 0.0
C1970 C 0.38994 0.24035 0.47902 0.0
C1971 C 0.38034 0.24513 0.51 0.0
C1972 C 0.36134 0.24993 0.50323 0.0
C1973 C 0.35303 0.25023 0.46969 0.0
C1974 C 0.38821 0.24212 0.61252 0.0
C1975 C 0.4074 0.24559 0.61901 0.0
C1976 C 0.37984 0.2422 0.57894 0.0
C1977 C 0.38969 0.24522 0.54776 0.0
C1978 C 0.40891 0.24842 0.55436 0.0
C1979 C 0.4172 0.24886 0.58793 0.0
H1980 H 0.87955 -0.00081 0.42574 0.0
H1981 H 0.93252 -0.00092 0.47158 0.0
H1982 H 0.8651 -0.00105 0.48176 0.0
H1983 H 0.91821 -0.00081 0.52743 0.0
H1984 H 0.88943 0.00897 0.63533 0.0
H1985 H 0.90376 0.00922 0.57927 0.0
H1986 H 0.85275 0.98852 0.53563 0.0
H1987 H 0.83861 0.98797 0.5917 0.0
C1988 C 0.88848 -0.00081 0.44735 0.0
C1989 C 0.90792 -0.00081 0.44137 0.0
C1990 C 0.87989 -0.00102 0.48081 0.0
C1991 C 0.88972 -0.00093 0.5122 0.0
C1992 C 0.90916 -0.00075 0.50602 0.0
C1993 C 0.91771 -0.00086 0.47266 0.0
C1994 C 0.88093 0.00439 0.61417 0.0
C1995 C 0.86215 -0.00153 0.62081 0.0
C1996 C 0.88947 0.00445 0.5807 0.0
C1997 C 0.88017 -0.00108 0.54983 0.0
C1998 C 0.86134 0.99317 0.5566 0.0
C1999 C 0.85289 0.9928 0.59008 0.0
H2000 H 0.63044 0.98738 0.17706 0.0
H2001 H 0.68186 0.00628 0.22039 0.0
H2002 H 0.61628 0.98736 0.23327 0.0
H2003 H 0.66788 0.00594 0.27661 0.0
H2004 H 0.64099 0.99554 0.38682 0.0
H2005 H 0.65538 0.99549 0.33068 0.0
H2006 H 0.60223 -0.00207 0.28528 0.0
H2007 H 0.58802 -0.00166 0.34115 0.0
C2008 C 0.6391 0.99153 0.19817 0.0
C2009 C 0.658 -0.00321 0.19139 0.0
C2010 C 0.63067 0.99161 0.23175 0.0
C2011 C 0.64018 -0.00337 0.2626 0.0
C2012 C 0.65912 0.00171 0.25568 0.0
C2013 C 0.66748 0.00196 0.2221 0.0
C2014 C 0.63204 0.99605 0.36525 0.0
C2015 C 0.61262 -0.00313 0.37132 0.0
C2016 C 0.64059 0.9961 0.33172 0.0
C2017 C 0.63073 -0.00334 0.30034 0.0
C2018 C 0.61131 -0.00269 0.30663 0.0
C2019 C 0.60281 -0.00241 0.34003 0.0
H2020 H 0.09129 0.74363 0.21709 0.0
H2021 H 0.14316 0.76062 0.17319 0.0
H2022 H 0.10514 0.744 0.27327 0.0
H2023 H 0.15721 0.76041 0.22945 0.0
H2024 H 0.18458 0.74662 0.3387 0.0
H2025 H 0.17077 0.74725 0.28245 0.0
H2026 H 0.11774 0.75692 0.3268 0.0
H2027 H 0.13171 0.75687 0.38309 0.0
C2028 C 0.10575 0.74751 0.21863 0.0
C2029 C 0.11535 0.75218 0.1877 0.0
C2030 C 0.11403 0.74777 0.25222 0.0
C2031 C 0.13306 0.75222 0.25906 0.0
C2032 C 0.14273 0.75669 0.22802 0.0
C2033 C 0.13435 0.75689 0.1944 0.0
C2034 C 0.16991 0.74905 0.33726 0.0
C2035 C 0.16 0.75179 0.36834 0.0
C2036 C 0.16165 0.74945 0.30364 0.0
C2037 C 0.14237 0.75214 0.29692 0.0
C2038 C 0.13242 0.75465 0.32811 0.0
C2039 C 0.14075 0.75471 0.36176 0.0
H2040 H 0.62887 0.74974 0.88821 0.0
H2041 H 0.68172 0.74651 0.84158 0.0
H2042 H 0.61436 0.74993 0.83235 0.0
H2043 H 0.66736 0.74709 0.78594 0.0
H2044 H 0.63885 0.7577 0.67786 0.0
H2045 H 0.65318 0.75749 0.73377 0.0
H2046 H 0.60152 0.73995 0.77839 0.0
H2047 H 0.58735 0.7398 0.72246 0.0
C2048 C 0.63779 0.74915 0.86649 0.0
C2049 C 0.65723 0.74815 0.8723 0.0
C2050 C 0.62914 0.74919 0.83308 0.0
C2051 C 0.63889 0.74858 0.80145 0.0
C2052 C 0.65833 0.74775 0.80746 0.0
C2053 C 0.66693 0.74737 0.84076 0.0
C2054 C 0.63019 0.75373 0.69918 0.0
C2055 C 0.6112 0.74883 0.69276 0.0
C2056 C 0.63874 0.75353 0.73262 0.0
C2057 C 0.6293 0.74872 0.76379 0.0
C2058 C 0.61026 0.74399 0.75724 0.0
C2059 C 0.60179 0.74387 0.7238 0.0
H2060 H 0.08708 0.00733 0.84033 0.0
H2061 H 0.13968 -0.00261 0.88537 0.0
H2062 H 0.10115 0.00658 0.78432 0.0
H2063 H 0.15393 -0.00313 0.82919 0.0
H2064 H 0.18152 0.00418 0.71985 0.0
H2065 H 0.16741 0.0043 0.77581 0.0
H2066 H 0.11434 -0.00166 0.73089 0.0
H2067 H 0.12862 -0.00202 0.67472 0.0
C2068 C 0.10176 0.00493 0.83907 0.0
C2069 C 0.11148 0.00239 0.87028 0.0
C2070 C 0.11019 0.00445 0.80555 0.0
C2071 C 0.12948 0.00164 0.79898 0.0
C2072 C 0.13925 -0.0008 0.83031 0.0
C2073 C 0.13076 -0.00055 0.86393 0.0
C2074 C 0.16676 0.00277 0.72109 0.0
C2075 C 0.15697 0.00097 0.68986 0.0
C2076 C 0.15831 0.00282 0.75459 0.0
C2077 C 0.13893 0.00134 0.76113 0.0
C2078 C 0.12909 -0.00035 0.72978 0.0
C2079 C 0.13759 -0.00064 0.69617 0.0
H2080 H 0.33691 0.49684 0.59063 0.0
H2081 H 0.38999 0.49925 0.63583 0.0
H2082 H 0.35098 0.49769 0.5346 0.0
H2083 H 0.40423 0.49967 0.57956 0.0
H2084 H 0.43035 0.48891 0.46884 0.0
H2085 H 0.41649 0.48889 0.52517 0.0
H2086 H 0.36506 0.50933 0.48262 0.0
H2087 H 0.37911 0.50974 0.42629 0.0
C2088 C 0.35169 0.49757 0.58939 0.0
C2089 C 0.36157 0.49804 0.62061 0.0
C2090 C 0.36011 0.49812 0.55589 0.0
C2091 C 0.37951 0.49878 0.54941 0.0
C2092 C 0.38945 0.49908 0.58072 0.0
C2093 C 0.38098 0.49891 0.61434 0.0
C2094 C 0.41603 0.49358 0.47073 0.0
C2095 C 0.40658 0.4994 0.44018 0.0
C2096 C 0.40775 0.49361 0.50439 0.0
C2097 C 0.38889 0.49908 0.51158 0.0
C2098 C 0.37939 0.50475 0.48089 0.0
C2099 C 0.38776 0.50507 0.44724 0.0
H2100 H 0.93312 0.75194 0.59044 0.0
H2101 H 0.88028 0.74504 0.63619 0.0
H2102 H 0.91903 0.75197 0.53464 0.0
H2103 H 0.86601 0.74528 0.58017 0.0
H2104 H 0.83859 0.75341 0.47095 0.0
H2105 H 0.85268 0.75277 0.52676 0.0
H2106 H 0.90562 0.74511 0.4812 0.0
H2107 H 0.89135 0.74553 0.42517 0.0
C2108 C 0.91838 0.75036 0.58939 0.0
C2109 C 0.90862 0.7484 0.62078 0.0
C2110 C 0.90993 0.75035 0.55596 0.0
C2111 C 0.89057 0.74863 0.5496 0.0
C2112 C 0.88074 0.74677 0.58109 0.0
C2113 C 0.88925 0.74656 0.61464 0.0
C2114 C 0.85332 0.75147 0.47199 0.0
C2115 C 0.86306 0.74947 0.4406 0.0
C2116 C 0.86176 0.75107 0.50543 0.0
C2117 C 0.8811 0.74886 0.51178 0.0
C2118 C 0.8909 0.74695 0.48028 0.0
C2119 C 0.8824 0.74714 0.44673 0.0
H2120 H 0.33963 0.75404 0.9687 0.0
H2121 H 0.39178 0.73891 0.9244 0.0
H2122 H 0.3536 0.75387 1.0248 0.0
H2123 H 0.40595 0.73935 0.98056 0.0
H2124 H 0.43319 0.75404 1.08961 0.0
H2125 H 0.41925 0.75319 1.03346 0.0
H2126 H 0.36672 0.7407 1.07817 0.0
H2127 H 0.38083 0.74094 1.13434 0.0
C2128 C 0.35418 0.75061 0.97013 0.0
C2129 C 0.36382 0.74636 0.93913 0.0
C2130 C 0.36253 0.75048 1.00367 0.0
C2131 C 0.38168 0.74662 1.01035 0.0
C2132 C 0.39139 0.7426 0.97924 0.0
C2133 C 0.38294 0.74226 0.94568 0.0
C2134 C 0.41861 0.75095 1.08827 0.0
C2135 C 0.40889 0.74751 1.11941 0.0
C2136 C 0.41027 0.7504 1.05471 0.0
C2137 C 0.39108 0.74686 1.04814 0.0
C2138 C 0.38131 0.74364 1.07939 0.0
C2139 C 0.38973 0.74371 1.11296 0.0
H2140 H 0.88108 0.50948 0.92806 0.0
H2141 H 0.93211 0.48823 0.97106 0.0
H2142 H 0.8669 0.50927 0.98426 0.0
H2143 H 0.91812 0.48831 1.02724 0.0
H2144 H 0.89156 0.49752 1.1376 0.0
H2145 H 0.90585 0.49779 1.08143 0.0
H2146 H 0.85262 0.49928 1.03628 0.0
H2147 H 0.83847 0.49868 1.09225 0.0
C2148 C 0.88965 0.50475 0.94909 0.0
C2149 C 0.90846 0.49892 0.94222 0.0
C2150 C 0.88121 0.50454 0.98267 0.0
C2151 C 0.8906 0.49878 1.01343 0.0
C2152 C 0.90945 0.49311 1.0064 0.0
C2153 C 0.91781 0.49303 0.97284 0.0
C2154 C 0.88257 0.49793 1.11609 0.0
C2155 C 0.86314 0.49814 1.12227 0.0
C2156 C 0.89106 0.49802 1.08252 0.0
C2157 C 0.88116 0.49861 1.05119 0.0
C2158 C 0.86174 0.49897 1.05759 0.0
C2159 C 0.85328 0.49858 1.09104 0.0
H2160 H 0.63771 0.48841 0.88282 0.0
H2161 H 0.58683 0.50966 0.83923 0.0
H2162 H 0.65204 0.48841 0.82675 0.0
H2163 H 0.60099 0.50932 0.78314 0.0
H2164 H 0.62796 0.49882 0.673 0.0
H2165 H 0.61344 0.49881 0.72903 0.0
H2166 H 0.66649 0.49901 0.7749 0.0
H2167 H 0.68085 0.49941 0.71913 0.0
C2168 C 0.6292 0.4931 0.86168 0.0
C2169 C 0.61039 0.49901 0.86837 0.0
C2170 C 0.63774 0.49318 0.82818 0.0
C2171 C 0.62844 0.49885 0.79728 0.0
C2172 C 0.60958 0.50458 0.8041 0.0
C2173 C 0.60113 0.50483 0.83761 0.0
C2174 C 0.63687 0.49884 0.69465 0.0
C2175 C 0.65632 0.49904 0.68872 0.0
C2176 C 0.62823 0.49891 0.72812 0.0
C2177 C 0.63801 0.49886 0.75961 0.0
C2178 C 0.65745 0.49889 0.75346 0.0
C2179 C 0.66605 0.49916 0.72012 0.0
H2180 H 0.18244 0.24522 0.83927 0.0
H2181 H 0.13031 0.25973 0.88409 0.0
H2182 H 0.16835 0.24569 0.78325 0.0
H2183 H 0.11604 0.2596 0.82804 0.0
H2184 H 0.08858 0.2456 0.71911 0.0
H2185 H 0.10267 0.24614 0.77512 0.0
H2186 H 0.15506 0.25908 0.73011 0.0
H2187 H 0.1408 0.25914 0.67405 0.0
C2188 C 0.16788 0.24856 0.83797 0.0
C2189 C 0.15828 0.25253 0.86909 0.0
C2190 C 0.15946 0.24888 0.80449 0.0
C2191 C 0.14028 0.25268 0.79798 0.0
C2192 C 0.13062 0.25641 0.82921 0.0
C2193 C 0.13913 0.25657 0.8627 0.0
C2194 C 0.10317 0.24875 0.72035 0.0
C2195 C 0.11279 0.25243 0.68916 0.0
C2196 C 0.11159 0.2491 0.75383 0.0
C2197 C 0.13079 0.25266 0.76027 0.0
C2198 C 0.14047 0.25611 0.72898 0.0
C2199 C 0.13196 0.25622 0.69548 0.0
H2200 H 0.58794 0.23975 0.21974 0.0
H2201 H 0.63946 0.25662 0.17445 0.0
H2202 H 0.6023 0.23978 0.2755 0.0
H2203 H 0.65399 0.2563 0.23022 0.0
H2204 H 0.6828 0.24555 0.33801 0.0
H2205 H 0.66829 0.24625 0.28251 0.0
H2206 H 0.61543 0.24918 0.32944 0.0
H2207 H 0.6301 0.24886 0.38516 0.0
C2208 C 0.60243 0.24355 0.22087 0.0
C2209 C 0.61175 0.24826 0.18965 0.0
C2210 C 0.61102 0.24361 0.25424 0.0
C2211 C 0.63013 0.24802 0.26061 0.0
C2212 C 0.6395 0.25259 0.22926 0.0
C2213 C 0.63083 0.25286 0.19588 0.0
C2214 C 0.66801 0.24646 0.33735 0.0
C2215 C 0.65843 0.24721 0.36903 0.0
C2216 C 0.65931 0.2469 0.30411 0.0
C2217 C 0.63985 0.2478 0.29823 0.0
C2218 C 0.63022 0.2484 0.33001 0.0
C2219 C 0.63896 0.24828 0.36337 0.0
H2220 H 0.13145 0.48895 0.17879 0.0
H2221 H 0.18257 0.50983 0.22134 0.0
H2222 H 0.11738 0.48921 0.23511 0.0
H2223 H 0.16869 0.5097 0.27766 0.0
H2224 H 0.14225 0.49904 0.38832 0.0
H2225 H 0.15649 0.49874 0.33205 0.0
H2226 H 0.10324 0.50078 0.28708 0.0
H2227 H 0.08916 0.50151 0.34309 0.0
C2228 C 0.14007 0.4936 0.19974 0.0
C2229 C 0.15886 0.49934 0.19269 0.0
C2230 C 0.13168 0.49384 0.23338 0.0
C2231 C 0.14115 0.49947 0.26406 0.0
C2232 C 0.15998 0.505 0.25688 0.0
C2233 C 0.16827 0.50512 0.22324 0.0
C2234 C 0.13324 0.49941 0.36683 0.0
C2235 C 0.11383 0.50025 0.37309 0.0
C2236 C 0.14171 0.49932 0.33321 0.0
C2237 C 0.13177 0.49967 0.3019 0.0
C2238 C 0.11237 0.50031 0.30837 0.0
C2239 C 0.10395 0.50078 0.34186 0.0
H2240 H 0.2917 0.18311 0.29232 0.0
H2241 H 0.34615 0.17239 0.33018 0.0
H2242 H 0.29159 0.14392 0.26949 0.0
H2243 H 0.34634 0.13315 0.30646 0.0
H2244 H 0.34607 0.07048 0.23042 0.0
H2245 H 0.34688 0.10974 0.25394 0.0
H2246 H 0.2904 0.10308 0.28396 0.0
H2247 H 0.28976 0.06388 0.26111 0.0
C2248 C 0.30372 0.17241 0.29594 0.0
C2249 C 0.31896 0.18137 0.31332 0.0
C2250 C 0.30365 0.14967 0.28274 0.0
C2251 C 0.31895 0.13478 0.28573 0.0
C2252 C 0.33428 0.14379 0.30304 0.0
C2253 C 0.33419 0.16648 0.31683 0.0
C2254 C 0.33379 0.07734 0.242 0.0
C2255 C 0.31782 0.0636 0.24354 0.0
C2256 C 0.33427 0.10001 0.25579 0.0
C2257 C 0.3187 0.11016 0.27117 0.0
C2258 C 0.3027 0.09642 0.27222 0.0
C2259 C 0.30233 0.07368 0.25901 0.0
H2260 H 0.97918 0.06523 0.29804 0.0
H2261 H 0.92248 0.07211 0.32599 0.0
H2262 H 0.97902 0.10447 0.27549 0.0
H2263 H 0.92223 0.11176 0.30361 0.0
H2264 H 0.92329 0.17686 0.23332 0.0
H2265 H 0.92264 0.13731 0.25593 0.0
H2266 H 0.97894 0.14432 0.28656 0.0
H2267 H 0.97951 0.18352 0.26376 0.0
C2268 C 0.96663 0.07516 0.2997 0.0
C2269 C 0.9509 0.06513 0.31435 0.0
C2270 C 0.96653 0.098 0.28674 0.0
C2271 C 0.95064 0.11204 0.28747 0.0
C2272 C 0.93481 0.1019 0.302 0.0
C2273 C 0.93496 0.07901 0.31524 0.0
C2274 C 0.93559 0.16993 0.24467 0.0
C2275 C 0.95153 0.18371 0.24616 0.0
C2276 C 0.9352 0.14709 0.25805 0.0
C2277 C 0.95076 0.13689 0.27333 0.0
C2278 C 0.96665 0.15084 0.27472 0.0
C2279 C 0.96699 0.17365 0.26161 0.0
H2280 H 0.70787 0.83149 0.94956 0.0
H2281 H 0.68754 0.80676 1.04453 0.0
H2282 H 0.70884 0.87103 0.97212 0.0
H2283 H 0.68841 0.84595 1.06705 0.0
H2284 H 0.67709 0.923 1.09187 0.0
H2285 H 0.67547 0.88393 1.06821 0.0
H2286 H 0.72393 0.89757 1.00942 0.0
H2287 H 0.72543 0.93654 1.03307 0.0
C2288 C 0.70356 0.83439 0.97523 0.0
C2289 C 0.69768 0.81551 0.995 0.0
C2290 C 0.70421 0.85724 0.98843 0.0
C2291 C 0.69874 0.86232 1.02184 0.0
C2292 C 0.69261 0.84335 1.04126 0.0
C2293 C 0.69222 0.82057 1.02826 0.0
C2294 C 0.68749 0.91768 1.07404 0.0
C2295 C 0.70149 0.93328 1.06485 0.0
C2296 C 0.68661 0.89502 1.06036 0.0
C2297 C 0.69957 0.88694 1.0365 0.0
C2298 C 0.71348 0.90272 1.02723 0.0
C2299 C 0.71446 0.92525 1.04116 0.0
H2300 H 0.09652 0.82716 1.08798 0.0
H2301 H 0.04751 0.81331 1.03189 0.0
H2302 H 0.09737 0.8665 1.06459 0.0
H2303 H 0.04829 0.85239 1.0085 0.0
H2304 H 0.0627 0.9189 0.9481 0.0
H2305 H 0.06284 0.87919 0.97036 0.0
H2306 H 0.08355 0.90433 1.06463 0.0
H2307 H 0.08328 0.94371 1.04245 0.0
C2308 C 0.08583 0.83246 1.07083 0.0
C2309 C 0.07185 0.81671 1.06232 0.0
C2310 C 0.08627 0.85524 1.05729 0.0
C2311 C 0.07289 0.86324 1.03424 0.0
C2312 C 0.05903 0.84731 1.02565 0.0
C2313 C 0.05849 0.8247 1.03945 0.0
C2314 C 0.0673 0.91599 0.97356 0.0
C2315 C 0.07288 0.93493 0.99327 0.0
C2316 C 0.0673 0.89304 0.98658 0.0
C2317 C 0.07317 0.88794 1.01972 0.0
C2318 C 0.07905 0.90697 1.03906 0.0
C2319 C 0.07878 0.92984 1.02625 0.0
H2320 H 0.34463 0.67196 0.83948 0.0
H2321 H 0.29575 0.68618 0.78298 0.0
H2322 H 0.34576 0.63283 0.8157 0.0
H2323 H 0.29678 0.64726 0.75922 0.0
H2324 H 0.31164 0.58109 0.69851 0.0
H2325 H 0.31141 0.62065 0.72109 0.0
H2326 H 0.33233 0.59502 0.81518 0.0
H2327 H 0.33244 0.55582 0.79266 0.0
C2328 C 0.33402 0.66678 0.82216 0.0
C2329 C 0.32 0.68257 0.81364 0.0
C2330 C 0.33462 0.64412 0.80839 0.0
C2331 C 0.32136 0.63626 0.78512 0.0
C2332 C 0.30745 0.65224 0.77653 0.0
C2333 C 0.30675 0.67475 0.79054 0.0
C2334 C 0.31621 0.58387 0.72399 0.0
C2335 C 0.32198 0.56484 0.74354 0.0
C2336 C 0.316 0.60673 0.73721 0.0
C2337 C 0.32182 0.61165 0.77039 0.0
C2338 C 0.32786 0.59254 0.78957 0.0
C2339 C 0.32781 0.56976 0.77657 0.0
H2340 H 0.93985 0.68996 0.79522 0.0
H2341 H 0.95712 0.66414 0.69897 0.0
H2342 H 0.94051 0.65078 0.81823 0.0
H2343 H 0.95799 0.62467 0.72208 0.0
H2344 H 0.97565 0.55931 0.78346 0.0
H2345 H 0.97407 0.59822 0.7593 0.0
H2346 H 0.9266 0.61293 0.82021 0.0
H2347 H 0.92822 0.57384 0.84425 0.0
C2348 C 0.94382 0.67592 0.77878 0.0
C2349 C 0.94848 0.68066 0.74499 0.0
C2350 C 0.94409 0.65317 0.79208 0.0
C2351 C 0.94936 0.63392 0.77245 0.0
C2352 C 0.95403 0.63868 0.73852 0.0
C2353 C 0.95344 0.6615 0.72503 0.0
C2354 C 0.96488 0.57081 0.79191 0.0
C2355 C 0.95217 0.56306 0.81628 0.0
C2356 C 0.96386 0.5933 0.77769 0.0
C2357 C 0.9502 0.60935 0.7874 0.0
C2358 C 0.93752 0.60158 0.81198 0.0
C2359 C 0.9384 0.57893 0.82588 0.0
H2360 H 0.70437 0.33159 0.44641 0.0
H2361 H 0.68988 0.30397 0.54322 0.0
H2362 H 0.70402 0.37075 0.46988 0.0
H2363 H 0.68877 0.34276 0.5665 0.0
H2364 H 0.70144 0.41441 0.6107 0.0
H2365 H 0.70241 0.37534 0.58713 0.0
H2366 H 0.68934 0.40315 0.48945 0.0
H2367 H 0.68911 0.44196 0.51295 0.0
C2368 C 0.70098 0.3338 0.47267 0.0
C2369 C 0.69728 0.31422 0.49268 0.0
C2370 C 0.70064 0.35651 0.48637 0.0
C2371 C 0.69642 0.36072 0.52069 0.0
C2372 C 0.69251 0.34094 0.54037 0.0
C2373 C 0.69301 0.31836 0.52677 0.0
C2374 C 0.69878 0.41219 0.58419 0.0
C2375 C 0.69527 0.43173 0.56398 0.0
C2376 C 0.69922 0.38952 0.57041 0.0
C2377 C 0.69601 0.38528 0.5358 0.0
C2378 C 0.6923 0.40501 0.51587 0.0
C2379 C 0.69201 0.42758 0.52958 0.0
H2380 H 0.04541 0.31294 0.53332 0.0
H2381 H 0.09452 0.32529 0.58987 0.0
H2382 H 0.04701 0.35201 0.50994 0.0
H2383 H 0.09622 0.36455 0.56648 0.0
H2384 H 0.08385 0.44206 0.54449 0.0
H2385 H 0.08315 0.40269 0.56659 0.0
H2386 H 0.06223 0.37837 0.472 0.0
H2387 H 0.06304 0.4181 0.44984 0.0
C2388 C 0.05658 0.32399 0.54097 0.0
C2389 C 0.06972 0.31563 0.56396 0.0
C2390 C 0.0576 0.34658 0.52719 0.0
C2391 C 0.07176 0.36206 0.53593 0.0
C2392 C 0.08491 0.35365 0.55909 0.0
C2393 C 0.08398 0.33091 0.57262 0.0
C2394 C 0.07909 0.42838 0.52821 0.0
C2395 C 0.07343 0.43368 0.49518 0.0
C2396 C 0.07881 0.40551 0.54096 0.0
C2397 C 0.07258 0.38673 0.5215 0.0
C2398 C 0.06694 0.39205 0.48831 0.0
C2399 C 0.06748 0.41499 0.47535 0.0
H2400 H 0.7933 0.06229 0.77305 0.0
H2401 H 0.84556 0.0735 0.72568 0.0
H2402 H 0.79407 0.10139 0.79615 0.0
H2403 H 0.8467 0.1126 0.7498 0.0
H2404 H 0.84944 0.17532 0.82597 0.0
H2405 H 0.84953 0.13584 0.80288 0.0
H2406 H 0.79198 0.14216 0.78111 0.0
H2407 H 0.79202 0.18143 0.80347 0.0
C2408 C 0.80501 0.07307 0.76741 0.0
C2409 C 0.81941 0.06427 0.74742 0.0
C2410 C 0.80547 0.09574 0.7808 0.0
C2411 C 0.82049 0.11069 0.77529 0.0
C2412 C 0.83494 0.10187 0.75524 0.0
C2413 C 0.83429 0.07927 0.74125 0.0
C2414 C 0.83677 0.16828 0.81641 0.0
C2415 C 0.8207 0.18193 0.81695 0.0
C2416 C 0.83684 0.14553 0.80284 0.0
C2417 C 0.82074 0.13527 0.78983 0.0
C2418 C 0.80467 0.14891 0.79098 0.0
C2419 C 0.8047 0.17169 0.80391 0.0
H2420 H 0.42401 0.17099 0.72781 0.0
H2421 H 0.47731 0.18245 0.77023 0.0
H2422 H 0.42371 0.13174 0.75178 0.0
H2423 H 0.47741 0.14312 0.79292 0.0
H2424 H 0.47964 0.06266 0.79953 0.0
H2425 H 0.47911 0.10202 0.77688 0.0
H2426 H 0.42248 0.1088 0.80589 0.0
H2427 H 0.4232 0.06946 0.82943 0.0
C2428 C 0.43566 0.16527 0.74233 0.0
C2429 C 0.45057 0.18039 0.74718 0.0
C2430 C 0.43553 0.14256 0.75615 0.0
C2431 C 0.45054 0.13374 0.77465 0.0
C2432 C 0.46559 0.1488 0.7788 0.0
C2433 C 0.46553 0.17159 0.76566 0.0
C2434 C 0.46706 0.07253 0.80145 0.0
C2435 C 0.45149 0.06247 0.81664 0.0
C2436 C 0.46675 0.09533 0.78836 0.0
C2437 C 0.45074 0.10911 0.78917 0.0
C2438 C 0.43509 0.099 0.80426 0.0
C2439 C 0.43552 0.07629 0.81802 0.0
H2440 H 0.17773 0.82561 0.46811 0.0
H2441 H 0.22524 0.81209 0.52874 0.0
H2442 H 0.17559 0.86469 0.49184 0.0
H2443 H 0.22314 0.85096 0.55255 0.0
H2444 H 0.20554 0.9166 0.61232 0.0
H2445 H 0.20677 0.87711 0.58961 0.0
H2446 H 0.18901 0.90278 0.4934 0.0
H2447 H 0.18795 0.94198 0.51604 0.0
C2448 C 0.18781 0.83092 0.48637 0.0
C2449 C 0.20176 0.81535 0.49604 0.0
C2450 C 0.18662 0.85356 0.5001 0.0
C2451 C 0.19917 0.86159 0.52452 0.0
C2452 C 0.21301 0.84583 0.53429 0.0
C2453 C 0.21432 0.82336 0.52027 0.0
C2454 C 0.20186 0.91385 0.58634 0.0
C2455 C 0.19671 0.93289 0.56623 0.0
C2456 C 0.20267 0.89103 0.57307 0.0
C2457 C 0.19805 0.88615 0.53925 0.0
C2458 C 0.19256 0.90526 0.51949 0.0
C2459 C 0.19206 0.92802 0.53256 0.0
H2460 H 0.59253 0.82319 0.59286 0.0
H2461 H 0.5447 0.80966 0.53328 0.0
H2462 H 0.59443 0.86222 0.56873 0.0
H2463 H 0.54653 0.8485 0.5091 0.0
H2464 H 0.56372 0.91396 0.44851 0.0
H2465 H 0.56278 0.87446 0.47149 0.0
H2466 H 0.58067 0.9002 0.56737 0.0
H2467 H 0.58145 0.93937 0.54448 0.0
C2468 C 0.58233 0.8285 0.57474 0.0
C2469 C 0.56836 0.81297 0.56547 0.0
C2470 C 0.58337 0.8511 0.5608 0.0
C2471 C 0.57064 0.85908 0.53658 0.0
C2472 C 0.55679 0.84336 0.5272 0.0
C2473 C 0.55563 0.82093 0.54143 0.0
C2474 C 0.56749 0.9112 0.47447 0.0
C2475 C 0.57259 0.93022 0.49444 0.0
C2476 C 0.56685 0.8884 0.48788 0.0
C2477 C 0.5716 0.88358 0.52168 0.0
C2478 C 0.57703 0.90267 0.5413 0.0
C2479 C 0.57737 0.92541 0.52808 0.0
H2480 H 0.84677 0.57273 0.22625 0.0
H2481 H 0.79717 0.56066 0.2821 0.0
H2482 H 0.84821 0.61219 0.24887 0.0
H2483 H 0.79865 0.59986 0.30501 0.0
H2484 H 0.81504 0.66621 0.36465 0.0
H2485 H 0.81443 0.62637 0.34314 0.0
H2486 H 0.83419 0.65057 0.24732 0.0
H2487 H 0.83453 0.69017 0.2687 0.0
C2488 C 0.8361 0.57842 0.24327 0.0
C2489 C 0.82175 0.56315 0.25185 0.0
C2490 C 0.83689 0.60128 0.25635 0.0
C2491 C 0.82354 0.60983 0.27913 0.0
C2492 C 0.80935 0.59434 0.28797 0.0
C2493 C 0.80842 0.57167 0.27449 0.0
C2494 C 0.81929 0.66308 0.33901 0.0
C2495 C 0.82477 0.68184 0.31862 0.0
C2496 C 0.81885 0.64005 0.32644 0.0
C2497 C 0.82423 0.63464 0.2931 0.0
C2498 C 0.83005 0.65347 0.27307 0.0
C2499 C 0.83015 0.67646 0.28542 0.0
H2500 H 0.47778 0.56253 0.28975 0.0
H2501 H 0.42476 0.57499 0.3335 0.0
H2502 H 0.47809 0.60186 0.26695 0.0
H2503 H 0.42466 0.61423 0.30949 0.0
H2504 H 0.42405 0.67631 0.23183 0.0
H2505 H 0.42327 0.63702 0.25549 0.0
H2506 H 0.48013 0.643 0.28252 0.0
H2507 H 0.48072 0.68233 0.25973 0.0
C2508 C 0.46612 0.57363 0.29462 0.0
C2509 C 0.45117 0.56512 0.31349 0.0
C2510 C 0.46629 0.59641 0.28141 0.0
C2511 C 0.45137 0.61173 0.28591 0.0
C2512 C 0.43638 0.6032 0.30485 0.0
C2513 C 0.43641 0.58052 0.31872 0.0
C2514 C 0.43641 0.66931 0.24282 0.0
C2515 C 0.45247 0.68291 0.2436 0.0
C2516 C 0.43595 0.64663 0.25665 0.0
C2517 C 0.45164 0.63632 0.27124 0.0
C2518 C 0.46774 0.64985 0.27145 0.0
C2519 C 0.46809 0.67264 0.25827 0.0
H2520 H 0.2301 0.43456 1.04894 0.0
H2521 H 0.1744 0.42642 1.08238 0.0
H2522 H 0.2296 0.39578 1.02491 0.0
H2523 H 0.17375 0.3874 1.05791 0.0
H2524 H 0.17389 0.3249 0.98175 0.0
H2525 H 0.1735 0.36393 1.00624 0.0
H2526 H 0.22964 0.35519 1.03683 0.0
H2527 H 0.2299 0.31641 1.01276 0.0
C2528 C 0.2177 0.42447 1.05145 0.0
C2529 C 0.20235 0.43403 1.06805 0.0
C2530 C 0.21741 0.40194 1.03756 0.0
C2531 C 0.20164 0.3878 1.0391 0.0
C2532 C 0.18619 0.39742 1.05563 0.0
C2533 C 0.18658 0.41995 1.07001 0.0
C2534 C 0.1862 0.3313 0.99357 0.0
C2535 C 0.20197 0.31712 0.99483 0.0
C2536 C 0.18595 0.35383 1.00798 0.0
C2537 C 0.20156 0.36335 1.02384 0.0
C2538 C 0.21733 0.34911 1.0247 0.0
C2539 C 0.21748 0.32658 1.01079 0.0
H2540 H 0.5972 0.32243 1.07142 0.0
H2541 H 0.54027 0.31536 1.04599 0.0
H2542 H 0.59705 0.36201 1.04872 0.0
H2543 H 0.54002 0.35464 1.0234 0.0
H2544 H 0.53957 0.43413 1.01297 0.0
H2545 H 0.54042 0.39487 1.03559 0.0
H2546 H 0.59573 0.38685 0.9993 0.0
H2547 H 0.59475 0.42636 0.9765 0.0
C2548 C 0.58457 0.32928 1.06122 0.0
C2549 C 0.5687 0.31534 1.06106 0.0
C2550 C 0.5845 0.35213 1.0478 0.0
C2551 C 0.56849 0.3622 1.03393 0.0
C2552 C 0.55264 0.34816 1.03406 0.0
C2553 C 0.55279 0.32533 1.04708 0.0
C2554 C 0.55192 0.42403 1.00947 0.0
C2555 C 0.56703 0.43383 0.99246 0.0
C2556 C 0.55242 0.4012 1.02252 0.0
C2557 C 0.56814 0.38699 1.01961 0.0
C2558 C 0.58334 0.39688 1.00266 0.0
C2559 C 0.58275 0.4197 0.98922 0.0
H2560 H 0.25264 0.88661 1.1433 0.0
H2561 H 0.25724 0.9205 1.04701 0.0
H2562 H 0.22332 0.87065 1.127 0.0
H2563 H 0.22744 0.9061 1.03164 0.0
H2564 H 0.17129 0.89861 1.01359 0.0
H2565 H 0.20206 0.88395 1.02095 0.0
H2566 H 0.19652 0.89233 1.12837 0.0
H2567 H 0.16569 0.90672 1.12071 0.0
C2568 C 0.24776 0.89 1.11814 0.0
C2569 C 0.25687 0.90575 1.09698 0.0
C2570 C 0.23074 0.88111 1.10898 0.0
C2571 C 0.22245 0.88812 1.07883 0.0
C2572 C 0.23305 0.90059 1.05544 0.0
C2573 C 0.25019 0.90912 1.06435 0.0
C2574 C 0.1763 0.89615 1.03891 0.0
C2575 C 0.16632 0.90444 1.06657 0.0
C2576 C 0.19409 0.88787 1.04315 0.0
C2577 C 0.20215 0.88755 1.07514 0.0
C2578 C 0.19099 0.89235 1.10321 0.0
C2579 C 0.17324 0.90079 1.09893 0.0
H2580 H 0.06609 0.27915 0.97686 0.0
H2581 H 0.08455 0.34879 0.99523 0.0
H2582 H 0.03468 0.29182 0.98094 0.0
H2583 H 0.05286 0.36178 0.9988 0.0
H2584 H 0.01141 0.34621 1.08768 0.0
H2585 H 0.03513 0.35365 1.04735 0.0
H2586 H 1.00665 0.31244 0.97395 0.0
H2587 H 0.98273 0.30448 1.01523 0.0
C2588 C 0.06341 0.29742 0.98023 0.0
C2589 C 0.07773 0.31283 0.9869 0.0
C2590 C 0.04528 0.30483 0.98237 0.0
C2591 C 0.04114 0.3278 0.99128 0.0
C2592 C 0.05553 0.34387 0.99287 0.0
C2593 C 0.0737 0.33641 0.99097 0.0
C2594 C 1.00959 0.33968 1.06247 0.0
C2595 C 0.99564 0.32383 1.05515 0.0
C2596 C 0.02331 0.34407 1.039 0.0
C2597 C 0.02327 0.33276 1.00779 0.0
C2598 C 1.00743 0.32068 0.99827 0.0
C2599 C 0.99372 0.31611 1.02191 0.0
H2600 H 0.27869 0.28701 0.54562 0.0
H2601 H 0.27623 0.34744 0.48205 0.0
H2602 H 0.25265 0.30104 0.57717 0.0
H2603 H 0.25114 0.36249 0.51552 0.0
H2604 H 0.19577 0.30899 0.60089 0.0
H2605 H 0.22782 0.32106 0.6027 0.0
H2606 H 0.22394 0.34344 0.4993 0.0
H2607 H 0.19217 0.3326 0.49829 0.0
C2608 C 0.27323 0.30393 0.53953 0.0
C2609 C 0.27855 0.31525 0.50983 0.0
C2610 C 0.25834 0.3122 0.55798 0.0
C2611 C 0.24894 0.33209 0.54713 0.0
C2612 C 0.25749 0.34638 0.52318 0.0
C2613 C 0.27204 0.3378 0.50407 0.0
C2614 C 0.20167 0.3173 0.57903 0.0
C2615 C 0.19169 0.31911 0.54902 0.0
C2616 C 0.22005 0.32413 0.58003 0.0
C2617 C 0.22869 0.33281 0.55102 0.0
C2618 C 0.21797 0.33689 0.52231 0.0
C2619 C 0.19972 0.33022 0.52141 0.0
H2620 H 0.01621 0.92116 0.51049 0.0
H2621 H 0.01775 0.89119 0.41142 0.0
H2622 H 0.04597 0.90459 0.52244 0.0
H2623 H 0.04728 0.87379 0.42371 0.0
H2624 H 0.10553 0.90913 0.4325 0.0
H2625 H 0.07463 0.89558 0.42368 0.0
H2626 H 0.07031 0.87766 0.52875 0.0
H2627 H 0.10102 0.89244 0.53782 0.0
C2628 C 0.02256 0.91013 0.49183 0.0
C2629 C 0.01497 0.90816 0.45969 0.0
C2630 C 0.03964 0.90044 0.49869 0.0
C2631 C 0.04939 0.88858 0.47347 0.0
C2632 C 0.04041 0.88352 0.44324 0.0
C2633 C 0.02333 0.89325 0.43638 0.0
C2634 C 0.09824 0.90148 0.45346 0.0
C2635 C 0.10534 0.90289 0.48605 0.0
C2636 C 0.08048 0.89348 0.44842 0.0
C2637 C 0.06964 0.88658 0.47594 0.0
C2638 C 0.07808 0.88377 0.50732 0.0
C2639 C 0.09581 0.89201 0.51242 0.0
H2640 H 0.81471 0.0248 0.34476 0.0
H2641 H 0.83063 0.09601 0.33096 0.0
H2642 H 0.78304 0.03522 0.33635 0.0
H2643 H 0.79855 0.10662 0.32366 0.0
H2644 H 0.76118 0.09219 0.22962 0.0
H2645 H 0.78348 0.09885 0.27262 0.0
H2646 H 0.7539 0.0536 0.33996 0.0
H2647 H 0.73126 0.04683 0.2962 0.0
C2648 C 0.81134 0.04292 0.34164 0.0
C2649 C 0.82518 0.05949 0.33749 0.0
C2650 C 0.79304 0.049 0.33694 0.0
C2651 C 0.78826 0.07179 0.32813 0.0
C2652 C 0.80187 0.08889 0.32929 0.0
C2653 C 0.82023 0.08279 0.33351 0.0
C2654 C 0.7588 0.08451 0.25404 0.0
C2655 C 0.74486 0.06815 0.25895 0.0
C2656 C 0.77171 0.0884 0.27904 0.0
C2657 C 0.77096 0.07594 0.30939 0.0
C2658 C 0.75524 0.06279 0.31637 0.0
C2659 C 0.74228 0.05887 0.29128 0.0
H2660 H 0.02104 0.68288 0.27685 0.0
H2661 H 0.01605 0.64137 0.18751 0.0
H2662 H 0.99081 0.67159 0.29399 0.0
H2663 H 0.98646 0.62783 0.20642 0.0
H2664 H 0.92848 0.65985 0.20034 0.0
H2665 H 0.96035 0.64816 0.19847 0.0
H2666 H 0.96384 0.65691 0.30624 0.0
H2667 H 0.93207 0.66865 0.30746 0.0
C2668 C 0.01383 0.67033 0.26172 0.0
C2669 C 0.02029 0.66449 0.22966 0.0
C2670 C 0.99632 0.66365 0.27161 0.0
C2671 C 0.98539 0.65021 0.25006 0.0
C2672 C 0.99389 0.63969 0.22228 0.0
C2673 C 0.01118 0.64703 0.21183 0.0
C2674 C 0.93599 0.65835 0.22364 0.0
C2675 C 0.92789 0.66498 0.25398 0.0
C2676 C 0.95433 0.65154 0.2228 0.0
C2677 C 0.96503 0.65161 0.25229 0.0
C2678 C 0.95639 0.65705 0.28283 0.0
C2679 C 0.938 0.66337 0.28372 0.0
H2680 H 0.86168 0.65849 0.88669 0.0
H2681 H 0.85385 0.6398 0.78294 0.0
H2682 H 0.83137 0.64436 0.90003 0.0
H2683 H 0.82376 0.62456 0.79649 0.0
H2684 H 0.77508 0.63939 0.91965 0.0
H2685 H 0.80437 0.62213 0.90455 0.0
H2686 H 0.79927 0.65063 0.80461 0.0
H2687 H 0.76974 0.66674 0.81929 0.0
C2688 C 0.85381 0.65029 0.86706 0.0
C2689 C 0.85977 0.65123 0.83359 0.0
C2690 C 0.83639 0.64196 0.8747 0.0
C2691 C 0.82474 0.63431 0.84893 0.0
C2692 C 0.83213 0.63123 0.81663 0.0
C2693 C 0.84953 0.63972 0.80895 0.0
C2694 C 0.7798 0.64096 0.89396 0.0
C2695 C 0.77046 0.65511 0.87091 0.0
C2696 C 0.79672 0.63128 0.88543 0.0
C2697 C 0.80459 0.63583 0.85388 0.0
C2698 C 0.79385 0.64692 0.82934 0.0
C2699 C 0.77691 0.65642 0.83779 0.0
H2700 H 0.9113 0.1034 0.79002 0.0
H2701 H 0.90606 0.08529 0.89477 0.0
H2702 H 0.94084 0.12082 0.80101 0.0
H2703 H 0.93596 0.1015 0.9055 0.0
H2704 H 0.99223 0.10932 0.92079 0.0
H2705 H 0.96222 0.12512 0.90756 0.0
H2706 H 0.96644 0.09654 0.80766 0.0
H2707 H 0.99669 0.08203 0.82037 0.0
C2708 C 0.91604 0.104 0.81571 0.0
C2709 C 0.90673 0.09203 0.84134 0.0
C2710 C 0.93314 0.1138 0.82194 0.0
C2711 C 0.94123 0.11151 0.85372 0.0
C2712 C 0.9304 0.10331 0.88049 0.0
C2713 C 0.91324 0.09373 0.87433 0.0
C2714 C 0.98714 0.10746 0.89545 0.0
C2715 C 0.99649 0.09367 0.87193 0.0
C2716 C 0.96981 0.11631 0.888 0.0
C2717 C 0.96151 0.11123 0.85712 0.0
C2718 C 0.97216 0.10062 0.83194 0.0
C2719 C 0.98954 0.09203 0.83927 0.0
H2720 H 0.25417 0.41892 0.56148 0.0
H2721 H 0.24856 0.3854 0.6578 0.0
H2722 H 0.22552 0.40238 0.54373 0.0
H2723 H 0.22029 0.36743 0.63933 0.0
H2724 H 0.16231 0.40243 0.62817 0.0
H2725 H 0.19289 0.38796 0.63838 0.0
H2726 H 0.20097 0.37938 0.53156 0.0
H2727 H 0.17043 0.39386 0.52166 0.0
C2728 C 0.24716 0.40718 0.57836 0.0
C2729 C 0.25312 0.40442 0.61155 0.0
C2730 C 0.2307 0.39737 0.56808 0.0
C2731 C 0.21998 0.38445 0.5908 0.0
C2732 C 0.22777 0.37818 0.62176 0.0
C2733 C 0.24414 0.38828 0.63222 0.0
C2734 C 0.17034 0.39632 0.60706 0.0
C2735 C 0.16424 0.39999 0.57414 0.0
C2736 C 0.18796 0.38785 0.61281 0.0
C2737 C 0.1998 0.3831 0.58567 0.0
C2738 C 0.19246 0.38318 0.55309 0.0
C2739 C 0.17479 0.39143 0.54738 0.0
H2740 H 0.07977 0.83306 0.47649 0.0
H2741 H 0.06621 0.76051 0.47982 0.0
H2742 H 0.04727 0.84264 0.47891 0.0
H2743 H 0.03407 0.77007 0.4825 0.0
H2744 H 0.9826 0.78124 0.51856 0.0
H2745 H 1.00455 0.78627 0.47291 0.0
H2746 H 0.03121 0.84019 0.52954 0.0
H2747 H 1.00944 0.83524 0.57433 0.0
C2748 C 0.06982 0.8192 0.47658 0.0
C2749 C 0.07547 0.79607 0.47916 0.0
C2750 C 0.05123 0.82473 0.47768 0.0
C2751 C 0.03806 0.80733 0.48188 0.0
C2752 C 0.0437 0.7841 0.47935 0.0
C2753 C 0.06226 0.77853 0.47803 0.0
C2754 C 0.99268 0.79488 0.52041 0.0
C2755 C 0.99493 0.80705 0.5506 0.0
C2756 C 1.00526 0.79776 0.49428 0.0
C2757 C 0.02026 0.81265 0.49837 0.0
C2758 C 0.02011 0.82813 0.52561 0.0
C2759 C 1.00753 0.82529 0.55162 0.0
H2760 H 0.27765 0.85012 0.98135 0.0
H2761 H 0.2802 0.78979 1.0451 0.0
H2762 H 0.25233 0.86492 1.01427 0.0
H2763 H 0.25394 0.80358 1.07621 0.0
H2764 H 0.19692 0.81086 1.09901 0.0
H2765 H 0.22895 0.82281 1.10117 0.0
H2766 H 0.2251 0.84666 0.99844 0.0
H2767 H 0.1933 0.83603 0.99719 0.0
C2768 C 0.27343 0.84046 1.00334 0.0
C2769 C 0.28003 0.81798 1.00925 0.0
C2770 C 0.25871 0.8489 1.02214 0.0
C2771 C 0.25014 0.83454 1.04599 0.0
C2772 C 0.25963 0.81478 1.05708 0.0
C2773 C 0.27467 0.80666 1.03891 0.0
C2774 C 0.20281 0.81947 1.0774 0.0
C2775 C 0.19282 0.82177 1.04748 0.0
C2776 C 0.2212 0.82619 1.07857 0.0
C2777 C 0.22987 0.8352 1.04979 0.0
C2778 C 0.21914 0.8398 1.02125 0.0
C2779 C 0.20085 0.83327 1.02021 0.0
H2780 H 0.0666 0.46922 1.08409 0.0
H2781 H 0.08566 0.39973 1.06543 0.0
H2782 H 0.0353 0.4564 1.07942 0.0
H2783 H 0.05406 0.38659 1.06125 0.0
H2784 H 0.01242 0.40123 0.97306 0.0
H2785 H 0.03656 0.39506 1.01264 0.0
H2786 H 1.00738 0.43543 1.08656 0.0
H2787 H 0.983 0.44225 1.04594 0.0
C2788 C 0.06408 0.45095 1.08052 0.0
C2789 C 0.07856 0.43563 1.07401 0.0
C2790 C 0.04601 0.44347 1.07803 0.0
C2791 C 0.04208 0.4205 1.06895 0.0
C2792 C 0.05659 0.40451 1.06737 0.0
C2793 C 0.0747 0.41205 1.06961 0.0
C2794 C 0.01053 0.40783 0.99824 0.0
C2795 C 0.99615 0.4231 1.00584 0.0
C2796 C 0.02451 0.40413 1.02129 0.0
C2797 C 0.0243 0.41544 1.05248 0.0
C2798 C 1.00824 0.42712 1.06228 0.0
C2799 C 0.99427 0.43102 1.03902 0.0
H2800 H 0.73202 0.53064 0.79008 0.0
H2801 H 0.75912 0.58433 0.73345 0.0
H2802 H 0.75361 0.53613 0.83593 0.0
H2803 H 0.78058 0.58969 0.77846 0.0
H2804 H 0.8284 0.58382 0.83432 0.0
H2805 H 0.79579 0.59308 0.83034 0.0
H2806 H 0.78341 0.5202 0.82681 0.0
H2807 H 0.81558 0.51116 0.83058 0.0
C2808 C 0.74209 0.54429 0.78805 0.0
C2809 C 0.74447 0.55632 0.75767 0.0
C2810 C 0.75445 0.54745 0.81429 0.0
C2811 C 0.7694 0.56246 0.81016 0.0
C2812 C 0.76947 0.57763 0.78247 0.0
C2813 C 0.7571 0.57453 0.75635 0.0
C2814 C 0.81856 0.56989 0.83376 0.0
C2815 C 0.82449 0.54686 0.83143 0.0
C2816 C 0.79993 0.57518 0.83183 0.0
C2817 C 0.78702 0.55752 0.8273 0.0
C2818 C 0.79286 0.53439 0.83021 0.0
C2819 C 0.81145 0.52911 0.83216 0.0
H2820 H 0.04121 0.2111 0.80007 0.0
H2821 H 0.01527 0.15957 0.73819 0.0
H2822 H 0.01724 0.20617 0.8422 0.0
H2823 H 0.99164 0.15473 0.7795 0.0
H2824 H 0.94121 0.16267 0.82783 0.0
H2825 H 0.97351 0.15162 0.82767 0.0
H2826 H 0.98856 0.22374 0.82968 0.0
H2827 H 0.95664 0.23457 0.82992 0.0
C2828 C 0.03086 0.19802 0.79609 0.0
C2829 C 0.02957 0.18662 0.76506 0.0
C2830 C 0.01712 0.19519 0.82023 0.0
C2831 C 1.00195 0.18106 0.81339 0.0
C2832 C 1.00285 0.16619 0.78553 0.0
C2833 C 0.01655 0.16899 0.76151 0.0
C2834 C 0.95151 0.17603 0.82928 0.0
C2835 C 0.94648 0.19945 0.8277 0.0
C2836 C 0.96997 0.1697 0.82952 0.0
C2837 C 0.98367 0.18668 0.82781 0.0
C2838 C 0.97851 0.21005 0.83102 0.0
C2839 C 0.96008 0.21636 0.83092 0.0
H2840 H 0.73997 0.17677 0.28396 0.0
H2841 H 0.77856 0.15675 0.36065 0.0
H2842 H 0.76197 0.1649 0.24067 0.0
H2843 H 0.80044 0.14625 0.31822 0.0
H2844 H 0.84236 0.13579 0.25372 0.0
H2845 H 0.81154 0.12374 0.26927 0.0
H2846 H 0.79002 0.18778 0.22969 0.0
H2847 H 0.82055 0.19969 0.21418 0.0
C2848 C 0.75285 0.1691 0.29155 0.0
C2849 C 0.75761 0.16789 0.32569 0.0
C2850 C 0.76539 0.16225 0.26682 0.0
C2851 C 0.78291 0.15438 0.27594 0.0
C2852 C 0.78686 0.15123 0.31013 0.0
C2853 C 0.7743 0.1576 0.33467 0.0
C2854 C 0.83092 0.14677 0.24694 0.0
C2855 C 0.83392 0.16909 0.2341 0.0
C2856 C 0.81324 0.13982 0.2557 0.0
C2857 C 0.79847 0.15524 0.252 0.0
C2858 C 0.80111 0.17558 0.23328 0.0
C2859 C 0.81875 0.18249 0.22443 0.0
H2860 H 0.94616 0.56401 0.24056 0.0
H2861 H 0.9179 0.60667 0.31277 0.0
H2862 H 0.97501 0.57971 0.25808 0.0
H2863 H 0.94676 0.62242 0.33109 0.0
H2864 H 0.0259 0.58988 0.3047 0.0
H2865 H 0.99922 0.60105 0.27195 0.0
H2866 H 0.96872 0.61077 0.36436 0.0
H2867 H 0.99537 0.60135 0.396 0.0
C2868 C 0.94607 0.57758 0.25924 0.0
C2869 C 0.92988 0.58357 0.27611 0.0
C2870 C 0.96278 0.58668 0.26957 0.0
C2871 C 0.96361 0.60191 0.29711 0.0
C2872 C 0.94699 0.61001 0.31085 0.0
C2873 C 0.93032 0.6012 0.30011 0.0
C2874 C 0.01363 0.59548 0.31771 0.0
C2875 C 0.01248 0.59401 0.35279 0.0
C2876 C 0.9982 0.60156 0.29902 0.0
C2877 C 0.98127 0.60542 0.31518 0.0
C2878 C 0.98117 0.60761 0.35039 0.0
C2879 C 0.99666 0.60213 0.36893 0.0
H2880 H 0.75022 0.89094 0.66257 0.0
H2881 H 0.75421 0.91474 0.56006 0.0
H2882 H 0.72063 0.87382 0.65062 0.0
H2883 H 0.72427 0.89892 0.54854 0.0
H2884 H 0.66315 0.90981 0.63537 0.0
H2885 H 0.69373 0.89591 0.64687 0.0
H2886 H 0.69925 0.87377 0.54379 0.0
H2887 H 0.66892 0.889 0.53191 0.0
C2888 C 0.74514 0.89176 0.6371 0.0
C2889 C 0.75421 0.90498 0.61252 0.0
C2890 C 0.72801 0.8822 0.63039 0.0
C2891 C 0.71961 0.88598 0.59917 0.0
C2892 C 0.73006 0.89591 0.57313 0.0
C2893 C 0.74726 0.90522 0.57975 0.0
C2894 C 0.67065 0.90124 0.61545 0.0
C2895 C 0.664 0.90151 0.58246 0.0
C2896 C 0.68823 0.89301 0.62206 0.0
C2897 C 0.69935 0.88472 0.59577 0.0
C2898 C 0.69131 0.88099 0.56424 0.0
C2899 C 0.67378 0.88947 0.55755 0.0
H2900 H 0.50752 0.35378 0.61886 0.0
H2901 H 0.50662 0.30911 0.53222 0.0
H2902 H 0.5361 0.37043 0.59959 0.0
H2903 H 0.53587 0.32429 0.51442 0.0
H2904 H 0.59319 0.33703 0.49887 0.0
H2905 H 0.56086 0.34673 0.50047 0.0
H2906 H 0.56329 0.35019 0.60885 0.0
H2907 H 0.59558 0.3406 0.60687 0.0
C2908 C 0.51298 0.34811 0.59497 0.0
C2909 C 0.50536 0.32916 0.57799 0.0
C2910 C 0.5296 0.35743 0.5842 0.0
C2911 C 0.53893 0.34756 0.55685 0.0
C2912 C 0.52944 0.33194 0.53624 0.0
C2913 C 0.51264 0.32301 0.54659 0.0
C2914 C 0.58696 0.34093 0.52291 0.0
C2915 C 0.59676 0.33777 0.55285 0.0
C2916 C 0.56833 0.3461 0.52387 0.0
C2917 C 0.55924 0.34876 0.55477 0.0
C2918 C 0.56969 0.34844 0.58446 0.0
C2919 C 0.58827 0.34292 0.58349 0.0
H2920 H 0.76423 0.22709 1.03029 0.0
H2921 H 0.76668 0.17657 0.95086 0.0
H2922 H 0.73965 0.20579 1.05665 0.0
H2923 H 0.74247 0.15453 0.97799 0.0
H2924 H 0.68758 0.18962 1.08328 0.0
H2925 H 0.71939 0.177 1.07845 0.0
H2926 H 0.71256 0.17018 0.9712 0.0
H2927 H 0.68122 0.18251 0.97615 0.0
C2928 C 0.76002 0.21086 1.01927 0.0
C2929 C 0.76673 0.20407 0.98781 0.0
C2930 C 0.74605 0.19833 1.03465 0.0
C2931 C 0.7385 0.1789 1.01859 0.0
C2932 C 0.74761 0.16983 0.9904 0.0
C2933 C 0.76154 0.18247 0.97488 0.0
C2934 C 0.69279 0.18453 1.05891 0.0
C2935 C 0.68229 0.18815 1.02987 0.0
C2936 C 0.71095 0.17716 1.05616 0.0
C2937 C 0.71882 0.17375 1.0243 0.0
C2938 C 0.70718 0.17302 0.9962 0.0
C2939 C 0.68906 0.18029 0.99896 0.0
H2940 H 0.50361 0.91132 0.99863 0.0
H2941 H 0.47814 0.96799 1.05173 0.0
H2942 H 0.52693 0.90893 1.04076 0.0
H2943 H 0.50203 0.96584 1.09424 0.0
H2944 H 0.56381 0.99001 1.07676 0.0
H2945 H 0.53152 0.98108 1.07725 0.0
H2946 H 0.54399 0.90885 1.09139 0.0
H2947 H 0.5767 0.91776 1.09064 0.0
C2948 C 0.50235 0.92252 1.02024 0.0
C2949 C 0.48957 0.9407 1.02084 0.0
C2950 C 0.51589 0.92115 1.0447 0.0
C2951 C 0.5169 0.93806 1.06995 0.0
C2952 C 0.50199 0.95317 1.07428 0.0
C2953 C 0.48834 0.95444 1.04986 0.0
C2954 C 0.55972 0.9723 1.0814 0.0
C2955 C 0.57277 0.95448 1.08254 0.0
C2956 C 0.54109 0.96714 1.08196 0.0
C2957 C 0.53518 0.94402 1.08361 0.0
C2958 C 0.54822 0.92664 1.08944 0.0
C2959 C 0.56689 0.93176 1.0887 0.0
H2960 H 0.25879 0.08731 0.73331 0.0
H2961 H 0.2312 0.03432 0.79055 0.0
H2962 H 0.28066 0.09202 0.77763 0.0
H2963 H 0.25326 0.03914 0.8358 0.0
H2964 H 0.31452 0.01199 0.82937 0.0
H2965 H 0.28253 0.02225 0.82655 0.0
H2966 H 0.29678 0.09453 0.82772 0.0
H2967 H 0.32913 0.08423 0.8305 0.0
C2968 C 0.25675 0.07755 0.75624 0.0
C2969 C 0.24388 0.05962 0.75781 0.0
C2970 C 0.2694 0.08025 0.782 0.0
C2971 C 0.26935 0.06497 0.80957 0.0
C2972 C 0.25413 0.05045 0.81416 0.0
C2973 C 0.24148 0.0477 0.78828 0.0
C2974 C 0.31084 0.03011 0.83063 0.0
C2975 C 0.3243 0.04733 0.82895 0.0
C2976 C 0.29236 0.03609 0.82923 0.0
C2977 C 0.28706 0.05941 0.82602 0.0
C2978 C 0.30047 0.07656 0.82958 0.0
C2979 C 0.31898 0.07061 0.83084 0.0
H2980 H 0.44635 0.69086 0.85502 0.0
H2981 H 0.44383 0.66407 0.75414 0.0
H2982 H 0.47844 0.6791 0.85864 0.0
H2983 H 0.47564 0.65342 0.75691 0.0
H2984 H 0.52932 0.71174 0.80011 0.0
H2985 H 0.50343 0.69831 0.83257 0.0
H2986 H 0.50277 0.63509 0.77517 0.0
H2987 H 0.52781 0.64934 0.74109 0.0
C2988 C 0.45249 0.68194 0.83395 0.0
C2989 C 0.44278 0.6791 0.80383 0.0
C2990 C 0.4709 0.67527 0.83598 0.0
C2991 C 0.47986 0.66574 0.80791 0.0
C2992 C 0.46943 0.66068 0.77922 0.0
C2993 C 0.45115 0.66724 0.77727 0.0
C2994 C 0.52415 0.69452 0.79538 0.0
C2995 C 0.5296 0.68239 0.7665 0.0
C2996 C 0.50933 0.68662 0.8143 0.0
C2997 C 0.50014 0.66637 0.80466 0.0
C2998 C 0.50895 0.65141 0.78193 0.0
C2999 C 0.52348 0.65956 0.76243 0.0
H3000 H 0.32826 0.66687 0.22336 0.0
H3001 H 0.31496 0.73945 0.2299 0.0
H3002 H 0.29564 0.65768 0.22271 0.0
H3003 H 0.28274 0.73031 0.22951 0.0
H3004 H 0.22997 0.71884 0.25828 0.0
H3005 H 0.25349 0.71484 0.21513 0.0
H3006 H 0.27791 0.65895 0.27172 0.0
H3007 H 0.25475 0.66296 0.31414 0.0
C3008 C 0.31837 0.68084 0.22365 0.0
C3009 C 0.32409 0.70381 0.22782 0.0
C3010 C 0.29974 0.67556 0.22297 0.0
C3011 C 0.28655 0.69305 0.2269 0.0
C3012 C 0.29238 0.71624 0.22637 0.0
C3013 C 0.31098 0.72155 0.22686 0.0
C3014 C 0.23993 0.70503 0.26062 0.0
C3015 C 0.24114 0.69208 0.29045 0.0
C3016 C 0.25341 0.70274 0.2359 0.0
C3017 C 0.26819 0.68754 0.24093 0.0
C3018 C 0.26702 0.67128 0.26719 0.0
C3019 C 0.25359 0.67359 0.29184 0.0
H3020 H 0.51049 0.0857 0.32694 0.0
H3021 H 0.53837 0.03293 0.26976 0.0
H3022 H 0.48865 0.09054 0.28251 0.0
H3023 H 0.51628 0.0378 0.22453 0.0
H3024 H 0.45494 0.01084 0.23125 0.0
H3025 H 0.48695 0.0209 0.23411 0.0
H3026 H 0.4727 0.09325 0.23193 0.0
H3027 H 0.4404 0.08319 0.22919 0.0
C3028 C 0.51259 0.076 0.30403 0.0
C3029 C 0.52555 0.0581 0.30251 0.0
C3030 C 0.49996 0.07878 0.27822 0.0
C3031 C 0.5001 0.06358 0.25066 0.0
C3032 C 0.51537 0.04906 0.24614 0.0
C3033 C 0.52802 0.04627 0.27204 0.0
C3034 C 0.45865 0.02893 0.22978 0.0
C3035 C 0.4452 0.04624 0.23118 0.0
C3036 C 0.47713 0.03479 0.2312 0.0
C3037 C 0.48243 0.05809 0.23414 0.0
C3038 C 0.46903 0.0753 0.23028 0.0
C3039 C 0.45053 0.06949 0.22902 0.0
H3040 H 0.68768 0.40676 0.98802 0.0
H3041 H 0.70284 0.47833 0.97538 0.0
H3042 H 0.71999 0.39602 0.99075 0.0
H3043 H 0.73475 0.46795 0.97886 0.0
H3044 H 0.78711 0.45784 1.01288 0.0
H3045 H 0.76365 0.45036 0.97086 0.0
H3046 H 0.73732 0.40275 1.03938 0.0
H3047 H 0.76067 0.40985 1.08039 0.0
C3048 C 0.69794 0.42009 0.98489 0.0
C3049 C 0.69279 0.44345 0.98261 0.0
C3050 C 0.71644 0.41396 0.98633 0.0
C3051 C 0.73003 0.43116 0.98621 0.0
C3052 C 0.72481 0.45411 0.97913 0.0
C3053 C 0.70637 0.46018 0.97735 0.0
C3054 C 0.77672 0.445 1.01821 0.0
C3055 C 0.77526 0.43517 1.05039 0.0
C3056 C 0.76326 0.44073 0.99419 0.0
C3057 C 0.74807 0.42687 1.00232 0.0
C3058 C 0.7486 0.41381 1.03216 0.0
C3059 C 0.7621 0.41794 1.056 0.0
H3060 H 0.60739 0.83657 1.13567 0.0
H3061 H 0.60239 0.85886 1.03266 0.0
H3062 H 0.5774 0.85214 1.14783 0.0
H3063 H 0.57271 0.87589 1.04525 0.0
H3064 H 0.52119 0.85924 0.16433 0.0
H3065 H 0.55125 0.87519 1.15251 0.0
H3066 H 0.54675 0.85239 1.04961 0.0
H3067 H 0.51638 0.83775 1.06107 0.0
C3068 C 0.60022 0.8458 1.11599 0.0
C3069 C 0.60683 0.84545 1.0829 0.0
C3070 C 0.58298 0.85501 1.12299 0.0
C3071 C 0.57217 0.86427 1.09701 0.0
C3072 C 0.58036 0.86792 1.06546 0.0
C3073 C 0.59753 0.8584 1.05835 0.0
C3074 C 0.52621 0.85871 1.13875 0.0
C3075 C 0.51673 0.84641 1.11387 0.0
C3076 C 0.54362 0.86756 1.1321 0.0
C3077 C 0.55187 0.86404 1.10061 0.0
C3078 C 0.54108 0.85517 1.0744 0.0
C3079 C 0.52363 0.84653 1.08097 0.0
H3080 H 0.70453 0.75936 0.58121 0.0
H3081 H 0.69037 0.83175 0.58534 0.0
H3082 H 0.73659 0.76918 0.57826 0.0
H3083 H 0.72282 0.84166 0.58249 0.0
H3084 H 0.76049 0.83486 0.48653 0.0
H3085 H 0.73866 0.83935 0.53134 0.0
H3086 H 0.766 0.78566 0.58797 0.0
H3087 H 0.78803 0.7811 0.54232 0.0
C3088 C 0.70834 0.7774 0.5831 0.0
C3089 C 0.69498 0.79484 0.58226 0.0
C3090 C 0.72684 0.78312 0.58163 0.0
C3091 C 0.73229 0.80641 0.57919 0.0
C3092 C 0.71899 0.8237 0.58365 0.0
C3093 C 0.70045 0.818 0.58497 0.0
C3094 C 0.76252 0.82486 0.50924 0.0
C3095 C 0.77538 0.80684 0.51028 0.0
C3096 C 0.74992 0.82745 0.53526 0.0
C3097 C 0.74999 0.81193 0.56255 0.0
C3098 C 0.76516 0.7972 0.56659 0.0
C3099 C 0.77777 0.79458 0.54046 0.0
H3100 H 0.50234 0.43588 0.52903 0.0
H3101 H 0.50493 0.38989 0.44394 0.0
H3102 H 0.5317 0.42173 0.54787 0.0
H3103 H 0.53356 0.37417 0.46444 0.0
H3104 H 0.5921 0.40613 0.45532 0.0
H3105 H 0.56004 0.39556 0.45408 0.0
H3106 H 0.55748 0.40088 0.56234 0.0
H3107 H 0.58963 0.41157 0.56315 0.0
C3108 C 0.50874 0.42189 0.51525 0.0
C3109 C 0.50197 0.41519 0.48381 0.0
C3110 C 0.52561 0.41355 0.52623 0.0
C3111 C 0.53561 0.39793 0.50625 0.0
C3112 C 0.52667 0.38726 0.47923 0.0
C3113 C 0.51002 0.39605 0.46776 0.0
C3114 C 0.58482 0.40406 0.47886 0.0
C3115 C 0.59322 0.40987 0.50919 0.0
C3116 C 0.56638 0.39796 0.47832 0.0
C3117 C 0.55594 0.39771 0.50817 0.0
C3118 C 0.56493 0.40137 0.53883 0.0
C3119 C 0.58346 0.40711 0.53935 0.0
H3120 H 0.35857 0.59032 0.17065 0.0
H3121 H 0.35443 0.60732 0.27589 0.0
H3122 H 0.32781 0.60444 0.16198 0.0
H3123 H 0.32412 0.62322 0.26673 0.0
H3124 H 0.26835 0.58439 0.25227 0.0
H3125 H 0.29873 0.59926 0.26234 0.0
H3126 H 0.30087 0.62579 0.16085 0.0
H3127 H 0.27084 0.60953 1.15027 0.0
C3128 C 0.35139 0.59802 0.19168 0.0
C3129 C 0.35857 0.59647 0.22423 0.0
C3130 C 0.3337 0.60644 0.18668 0.0
C3131 C 0.32303 0.61386 0.21413 0.0
C3132 C 0.33164 0.61655 0.24537 0.0
C3133 C 0.34922 0.60771 0.2505 0.0
C3134 C 0.2751 0.59399 0.23241 0.0
C3135 C 0.26753 0.59488 0.20013 0.0
C3136 C 0.29256 0.60277 0.23821 0.0
C3137 C 0.3027 0.61285 0.21185 0.0
C3138 C 0.29378 0.61721 0.18126 0.0
C3139 C 0.27637 0.60819 0.17537 0.0
H3140 H 0.42421 0.14882 0.30416 0.0
H3141 H 0.41547 0.14639 0.19706 0.0
H3142 H 0.45535 0.13575 0.29616 0.0
H3143 H 0.44711 0.13624 0.18872 0.0
H3144 H 0.50378 0.14298 0.17008 0.0
H3145 H 0.47617 0.12343 0.188 0.0
H3146 H 0.47848 0.15987 0.28274 0.0
H3147 H 0.50661 0.17803 0.26538 0.0
C3148 C 0.42868 0.14497 0.27887 0.0
C3149 C 0.41763 0.15023 0.25101 0.0
C3150 C 0.4468 0.13785 0.27423 0.0
C3151 C 0.45435 0.13682 0.24174 0.0
C3152 C 0.44225 0.13765 0.21428 0.0
C3153 C 0.42397 0.1439 0.219 0.0
C3154 C 0.49886 0.14592 0.19538 0.0
C3155 C 0.50698 0.16269 0.21592 0.0
C3156 C 0.48276 0.13497 0.20552 0.0
C3157 C 0.47436 0.14077 0.23626 0.0
C3158 C 0.48414 0.15491 0.25871 0.0
C3159 C 0.50032 0.16564 0.24866 0.0
H3160 H 0.35208 0.14452 0.77763 0.0
H3161 H 0.35613 0.15773 0.88397 0.0
H3162 H 0.32136 0.12966 0.78559 0.0
H3163 H 0.32501 0.14464 0.89159 0.0
H3164 H 0.26793 0.14129 0.90287 0.0
H3165 H 0.29762 0.12421 0.891 0.0
H3166 H 0.29654 0.15462 0.79178 0.0
H3167 H 0.26645 0.17033 0.80301 0.0
C3168 C 0.34674 0.14348 0.80296 0.0
C3169 C 0.35622 0.1534 0.83002 0.0
C3170 C 0.32894 0.13524 0.80742 0.0
C3171 C 0.32026 0.13724 0.83881 0.0
C3172 C 0.33097 0.14323 0.86679 0.0
C3173 C 0.34887 0.15105 0.86242 0.0
C3174 C 0.27359 0.14333 0.8779 0.0
C3175 C 0.26518 0.15794 0.85425 0.0
C3176 C 0.29081 0.13383 0.87131 0.0
C3177 C 0.29996 0.13903 0.84114 0.0
C3178 C 0.29018 0.15047 0.81559 0.0
C3179 C 0.27288 0.15971 0.82206 0.0
H3180 H 0.50467 0.57893 0.79844 0.0
H3181 H 0.50103 0.61162 0.89552 0.0
H3182 H 0.47493 0.59418 0.78403 0.0
H3183 H 0.47173 0.62838 0.88025 0.0
H3184 H 0.41393 0.59266 0.87375 0.0
H3185 H 0.44472 0.60697 0.88149 0.0
H3186 H 0.44981 0.61741 0.77434 0.0
H3187 H 0.41909 0.60284 0.76687 0.0
C3188 C 0.49785 0.59022 0.81617 0.0
C3189 C 0.50478 0.59306 0.84869 0.0
C3190 C 0.48074 0.59925 0.80782 0.0
C3191 C 0.47042 0.61167 0.83168 0.0
C3192 C 0.47895 0.61804 0.86184 0.0
C3193 C 0.49595 0.60868 0.87041 0.0
C3194 C 0.42136 0.59906 0.85209 0.0
C3195 C 0.41436 0.59593 0.8197 0.0
C3196 C 0.43909 0.60744 0.85643 0.0
C3197 C 0.45013 0.6127 0.82837 0.0
C3198 C 0.44192 0.61308 0.7965 0.0
C3199 C 0.42416 0.60486 0.79221 0.0
loop_
_geom_bond_atom_site_label_1
_geom_bond_atom_site_label_2
_geom_bond_distance
_geom_bond_site_symmetry_2
_ccdc_geom_bond_type
Nd0 C2 2.834 1_545 S
Nd0 O20 2.500 1_545 S
Nd0 O21 2.492 . S
Nd0 O22 2.487 . S
Nd0 O23 2.682 . S
Nd0 O24 2.410 . S
Nd0 O29 2.414 1_545 S
Nd0 O31 2.425 . S
Nd1 C11 2.836 . S
Nd1 O23 2.414 . S
Nd1 O25 2.424 . S
Nd1 O26 2.500 . S
Nd1 O27 2.492 1_545 S
Nd1 O28 2.487 1_545 S
Nd1 O29 2.682 1_545 S
Nd1 O30 2.410 1_545 S
C2 Nd0 2.834 1_565 S
C2 C3 1.500 1_554 S
C2 O20 1.279 . S
C2 O21 1.217 1_565 S
C3 C2 1.500 1_556 S
C3 C4 1.366 . S
C3 C8 1.407 1_565 S
C4 C3 1.366 . S
C4 C5 1.392 . S
C4 H32 0.930 . S
C5 C4 1.392 . S
C5 C6 1.398 . S
C5 H33 0.929 . S
C6 C5 1.398 . S
C6 C7 1.352 1_565 S
C7 C6 1.352 1_545 S
C7 C8 1.384 . S
C7 H34 0.930 . S
C8 C3 1.407 1_545 S
C8 C7 1.384 . S
C8 H35 0.958 . S
C9 O22 1.241 . S
C9 O23 1.273 . S
C10 O24 1.251 . S
C10 O25 1.268 . S
C11 Nd1 2.836 . S
C11 C12 1.498 . S
C11 O26 1.258 . S
C11 O27 1.239 1_545 S
C12 C11 1.498 . S
C12 C13 1.366 . S
C12 C17 1.407 1_545 S
C13 C12 1.366 . S
C13 C14 1.392 . S
C13 H36 0.930 . S
C14 C13 1.392 . S
C14 C15 1.398 . S
C14 H37 0.929 . S
C15 C14 1.398 . S
C15 C16 1.352 1_545 S
C16 C15 1.352 1_565 S
C16 C17 1.384 . S
C16 H38 0.930 . S
C17 C12 1.407 1_565 S
C17 C16 1.384 . S
C17 H39 0.929 . S
C18 O28 1.241 . S
C18 O29 1.273 . S
C19 O30 1.251 . S
C19 O31 1.267 1_565 S
O20 Nd0 2.500 1_565 S
O20 C2 1.279 . S
O21 Nd0 2.492 . S
O21 C2 1.217 1_545 S
O22 Nd0 2.487 . S
O22 C9 1.241 . S
O23 Nd0 2.682 . S
O23 Nd1 2.414 . S
O23 C9 1.273 . S
O24 Nd0 2.410 . S
O24 C10 1.251 . S
O25 Nd1 2.424 . S
O25 C10 1.268 . S
O26 Nd1 2.500 . S
O26 C11 1.258 . S
O27 Nd1 2.492 1_565 S
O27 C11 1.239 1_565 S
O28 Nd1 2.487 1_565 S
O28 C18 1.241 . S
O29 Nd0 2.414 1_565 S
O29 Nd1 2.682 1_565 S
O29 C18 1.273 . S
O30 Nd1 2.410 1_565 S
O30 C19 1.251 . S
O31 Nd0 2.425 . S
O31 C19 1.267 1_545 S
H32 C4 0.930 . S
H33 C5 0.929 . S
H34 C7 0.930 . S
H35 C8 0.958 . S
H36 C13 0.930 . S
H37 C14 0.929 . S
H38 C16 0.930 . S
H39 C17 0.929 . S
Nd40 C42 2.836 . S
Nd40 O60 2.500 . S
Nd40 O61 2.492 . S
Nd40 O62 2.487 . S
Nd40 O63 2.682 . S
Nd40 O64 2.410 . S
Nd40 O69 2.414 . S
Nd40 O71 2.424 . S
Nd41 C51 2.836 . S
Nd41 O63 2.414 . S
Nd41 O65 2.424 . S
Nd41 O66 2.500 . S
Nd41 O67 2.492 . S
Nd41 O68 2.487 . S
Nd41 O69 2.682 . S
Nd41 O70 2.410 . S
C42 Nd40 2.836 . S
C42 C43 1.498 1_554 S
C42 O60 1.258 . S
C42 O61 1.239 . S
C43 C42 1.498 1_556 S
C43 C44 1.366 . S
C43 C48 1.407 . S
C44 C43 1.366 . S
C44 C45 1.392 . S
C44 H72 0.930 . S
C45 C44 1.392 . S
C45 C46 1.398 . S
C45 H73 0.929 . S
C46 C45 1.398 . S
C46 C47 1.352 . S
C47 C46 1.352 . S
C47 C48 1.384 . S
C47 H74 0.930 1_655 S
C48 C43 1.407 . S
C48 C47 1.384 . S
C48 H75 0.958 . S
C49 O62 1.241 . S
C49 O63 1.273 . S
C50 O64 1.251 . S
C50 O65 1.268 . S
C51 Nd41 2.836 . S
C51 C52 1.498 . S
C51 O66 1.258 . S
C51 O67 1.239 . S
C52 C51 1.498 . S
C52 C53 1.366 . S
C52 C57 1.407 . S
C53 C52 1.366 . S
C53 C54 1.392 . S
C53 H76 0.930 . S
C54 C53 1.392 . S
C54 C55 1.398 . S
C54 H77 0.929 . S
C55 C54 1.398 . S
C55 C56 1.352 . S
C56 C55 1.352 . S
C56 C57 1.384 . S
C56 H78 0.930 . S
C57 C52 1.407 . S
C57 C56 1.384 . S
C57 H79 0.929 . S
C58 O68 1.241 . S
C58 O69 1.273 . S
C59 O70 1.251 . S
C59 O71 1.268 . S
O60 Nd40 2.500 . S
O60 C42 1.258 . S
O61 Nd40 2.492 . S
O61 C42 1.239 . S
O62 Nd40 2.487 . S
O62 C49 1.241 . S
O63 Nd40 2.682 . S
O63 Nd41 2.414 . S
O63 C49 1.273 . S
O64 Nd40 2.410 . S
O64 C50 1.251 . S
O65 Nd41 2.424 . S
O65 C50 1.268 . S
O66 Nd41 2.500 . S
O66 C51 1.258 . S
O67 Nd41 2.492 . S
O67 C51 1.239 . S
O68 Nd41 2.487 . S
O68 C58 1.241 . S
O69 Nd40 2.414 . S
O69 Nd41 2.682 . S
O69 C58 1.273 . S
O70 Nd41 2.410 . S
O70 C59 1.251 . S
O71 Nd40 2.424 . S
O71 C59 1.268 . S
H72 C44 0.930 . S
H73 C45 0.929 . S
H74 C47 0.930 1_455 S
H75 C48 0.958 . S
H76 C53 0.930 . S
H77 C54 0.929 . S
H78 C56 0.930 . S
H79 C57 0.929 . S
Nd80 C82 2.836 . S
Nd80 O100 2.500 . S
Nd80 O101 2.492 . S
Nd80 O102 2.487 . S
Nd80 O103 2.682 . S
Nd80 O104 2.410 . S
Nd80 O109 2.414 . S
Nd80 O111 2.424 . S
Nd81 C91 2.836 . S
Nd81 O103 2.414 . S
Nd81 O105 2.424 . S
Nd81 O106 2.500 . S
Nd81 O107 2.492 . S
Nd81 O108 2.487 . S
Nd81 O109 2.682 . S
Nd81 O110 2.410 . S
C82 Nd80 2.836 . S
C82 C83 1.498 . S
C82 O100 1.258 . S
C82 O101 1.239 . S
C83 C82 1.498 . S
C83 C84 1.366 . S
C83 C88 1.407 . S
C84 C83 1.366 . S
C84 C85 1.392 . S
C84 H112 0.930 . S
C85 C84 1.392 . S
C85 C86 1.398 . S
C85 H113 0.929 . S
C86 C85 1.398 . S
C86 C87 1.352 . S
C87 C86 1.352 . S
C87 C88 1.384 . S
C87 H114 0.930 . S
C88 C83 1.407 . S
C88 C87 1.384 . S
C88 H115 0.929 . S
C89 O102 1.241 . S
C89 O103 1.273 . S
C90 O104 1.251 . S
C90 O105 1.268 . S
C91 Nd81 2.836 . S
C91 C92 1.498 . S
C91 O106 1.258 . S
C91 O107 1.239 . S
C92 C91 1.498 . S
C92 C93 1.366 . S
C92 C97 1.407 . S
C93 C92 1.366 . S
C93 C94 1.392 . S
C93 H116 0.930 . S
C94 C93 1.392 . S
C94 C95 1.398 . S
C94 H117 0.929 . S
C95 C94 1.398 . S
C95 C96 1.352 . S
C96 C95 1.352 . S
C96 C97 1.384 . S
C96 H118 0.930 . S
C97 C92 1.407 . S
C97 C96 1.384 . S
C97 H119 0.929 . S
C98 O108 1.241 . S
C98 O109 1.273 . S
C99 O110 1.251 . S
C99 O111 1.268 . S
O100 Nd80 2.500 . S
O100 C82 1.258 . S
O101 Nd80 2.492 . S
O101 C82 1.239 . S
O102 Nd80 2.487 . S
O102 C89 1.241 . S
O103 Nd80 2.682 . S
O103 Nd81 2.414 . S
O103 C89 1.273 . S
O104 Nd80 2.410 . S
O104 C90 1.251 . S
O105 Nd81 2.424 . S
O105 C90 1.268 . S
O106 Nd81 2.500 . S
O106 C91 1.258 . S
O107 Nd81 2.492 . S
O107 C91 1.239 . S
O108 Nd81 2.487 . S
O108 C98 1.241 . S
O109 Nd80 2.414 . S
O109 Nd81 2.682 . S
O109 C98 1.273 . S
O110 Nd81 2.410 . S
O110 C99 1.251 . S
O111 Nd80 2.424 . S
O111 C99 1.268 . S
H112 C84 0.930 . S
H113 C85 0.929 . S
H114 C87 0.930 . S
H115 C88 0.929 . S
H116 C93 0.930 . S
H117 C94 0.929 . S
H118 C96 0.930 . S
H119 C97 0.929 . S
Nd120 C122 2.834 1_545 S
Nd120 O140 2.500 1_545 S
Nd120 O141 2.492 . S
Nd120 O142 2.487 . S
Nd120 O143 2.682 . S
Nd120 O144 2.410 . S
Nd120 O149 2.414 1_545 S
Nd120 O151 2.425 . S
Nd121 C131 2.836 . S
Nd121 O143 2.414 . S
Nd121 O145 2.424 . S
Nd121 O146 2.500 . S
Nd121 O147 2.492 1_545 S
Nd121 O148 2.487 1_545 S
Nd121 O149 2.682 1_545 S
Nd121 O150 2.410 1_545 S
C122 Nd120 2.834 1_565 S
C122 C123 1.500 . S
C122 O140 1.279 . S
C122 O141 1.217 1_565 S
C123 C122 1.500 . S
C123 C124 1.366 . S
C123 C128 1.407 1_565 S
C124 C123 1.366 . S
C124 C125 1.392 . S
C124 H152 0.930 . S
C125 C124 1.392 . S
C125 C126 1.398 . S
C125 H153 0.929 . S
C126 C125 1.398 . S
C126 C127 1.352 1_565 S
C127 C126 1.352 1_545 S
C127 C128 1.384 . S
C127 H154 0.930 1_655 S
C128 C123 1.407 1_545 S
C128 C127 1.384 . S
C128 H155 0.929 . S
C129 O142 1.241 . S
C129 O143 1.273 . S
C130 O144 1.251 . S
C130 O145 1.268 . S
C131 Nd121 2.836 . S
C131 C132 1.498 . S
C131 O146 1.258 . S
C131 O147 1.239 1_545 S
C132 C131 1.498 . S
C132 C133 1.366 . S
C132 C137 1.407 1_545 S
C133 C132 1.366 . S
C133 C134 1.392 . S
C133 H156 0.930 . S
C134 C133 1.392 . S
C134 C135 1.398 . S
C134 H157 0.929 . S
C135 C134 1.398 . S
C135 C136 1.352 1_545 S
C136 C135 1.352 1_565 S
C136 C137 1.384 . S
C136 H158 0.930 . S
C137 C132 1.407 1_565 S
C137 C136 1.384 . S
C137 H159 0.929 . S
C138 O148 1.241 . S
C138 O149 1.273 . S
C139 O150 1.251 . S
C139 O151 1.267 1_565 S
O140 Nd120 2.500 1_565 S
O140 C122 1.279 . S
O141 Nd120 2.492 . S
O141 C122 1.217 1_545 S
O142 Nd120 2.487 . S
O142 C129 1.241 . S
O143 Nd120 2.682 . S
O143 Nd121 2.414 . S
O143 C129 1.273 . S
O144 Nd120 2.410 . S
O144 C130 1.251 . S
O145 Nd121 2.424 . S
O145 C130 1.268 . S
O146 Nd121 2.500 . S
O146 C131 1.258 . S
O147 Nd121 2.492 1_565 S
O147 C131 1.239 1_565 S
O148 Nd121 2.487 1_565 S
O148 C138 1.241 . S
O149 Nd120 2.414 1_565 S
O149 Nd121 2.682 1_565 S
O149 C138 1.273 . S
O150 Nd121 2.410 1_565 S
O150 C139 1.251 . S
O151 Nd120 2.425 . S
O151 C139 1.267 1_545 S
H152 C124 0.930 . S
H153 C125 0.929 . S
H154 C127 0.930 1_455 S
H155 C128 0.929 . S
H156 C133 0.930 . S
H157 C134 0.929 . S
H158 C136 0.930 . S
H159 C137 0.929 . S
Nd160 C162 2.836 . S
Nd160 O180 2.500 . S
Nd160 O181 2.492 1_565 S
Nd160 O182 2.487 1_565 S
Nd160 O183 2.682 1_565 S
Nd160 O184 2.410 1_565 S
Nd160 O189 2.414 . S
Nd160 O191 2.424 . S
Nd161 C171 2.834 1_565 S
Nd161 O183 2.414 1_565 S
Nd161 O185 2.425 . S
Nd161 O186 2.500 1_565 S
Nd161 O187 2.492 . S
Nd161 O188 2.487 . S
Nd161 O189 2.682 . S
Nd161 O190 2.410 . S
C162 Nd160 2.836 . S
C162 C163 1.498 . S
C162 O180 1.258 . S
C162 O181 1.239 1_565 S
C163 C162 1.498 . S
C163 C164 1.366 . S
C163 C168 1.407 1_565 S
C164 C163 1.366 . S
C164 C165 1.392 . S
C164 H192 0.930 . S
C165 C164 1.392 . S
C165 C166 1.398 . S
C165 H193 0.929 . S
C166 C165 1.398 . S
C166 C167 1.352 1_565 S
C167 C166 1.352 1_545 S
C167 C168 1.384 . S
C167 H194 0.930 . S
C168 C163 1.407 1_545 S
C168 C167 1.384 . S
C168 H195 0.929 . S
C169 O182 1.241 . S
C169 O183 1.273 . S
C170 O184 1.251 . S
C170 O185 1.267 1_545 S
C171 Nd161 2.834 1_545 S
C171 C172 1.500 1_556 S
C171 O186 1.279 . S
C171 O187 1.217 1_545 S
C172 C171 1.500 1_554 S
C172 C173 1.366 . S
C172 C177 1.407 1_545 S
C173 C172 1.366 . S
C173 C174 1.392 . S
C173 H196 0.930 . S
C174 C173 1.392 . S
C174 C175 1.398 . S
C174 H197 0.929 . S
C175 C174 1.398 . S
C175 C176 1.352 1_545 S
C176 C175 1.352 1_565 S
C176 C177 1.384 . S
C176 H198 0.930 . S
C177 C172 1.407 1_565 S
C177 C176 1.384 . S
C177 H199 0.958 . S
C178 O188 1.241 . S
C178 O189 1.273 . S
C179 O190 1.251 . S
C179 O191 1.268 . S
O180 Nd160 2.500 . S
O180 C162 1.258 . S
O181 Nd160 2.492 1_545 S
O181 C162 1.239 1_545 S
O182 Nd160 2.487 1_545 S
O182 C169 1.241 . S
O183 Nd160 2.682 1_545 S
O183 Nd161 2.414 1_545 S
O183 C169 1.273 . S
O184 Nd160 2.410 1_545 S
O184 C170 1.251 . S
O185 Nd161 2.425 . S
O185 C170 1.267 1_565 S
O186 Nd161 2.500 1_545 S
O186 C171 1.279 . S
O187 Nd161 2.492 . S
O187 C171 1.217 1_565 S
O188 Nd161 2.487 . S
O188 C178 1.241 . S
O189 Nd160 2.414 . S
O189 Nd161 2.682 . S
O189 C178 1.273 . S
O190 Nd161 2.410 . S
O190 C179 1.251 . S
O191 Nd160 2.424 . S
O191 C179 1.268 . S
H192 C164 0.930 . S
H193 C165 0.929 . S
H194 C167 0.930 . S
H195 C168 0.929 . S
H196 C173 0.930 . S
H197 C174 0.929 . S
H198 C176 0.930 . S
H199 C177 0.958 . S
Nd200 C202 2.836 . S
Nd200 O220 2.500 . S
Nd200 O221 2.492 . S
Nd200 O222 2.487 . S
Nd200 O223 2.682 . S
Nd200 O224 2.410 . S
Nd200 O229 2.414 . S
Nd200 O231 2.424 . S
Nd201 C211 2.836 . S
Nd201 O223 2.414 . S
Nd201 O225 2.424 . S
Nd201 O226 2.500 . S
Nd201 O227 2.492 . S
Nd201 O228 2.487 . S
Nd201 O229 2.682 . S
Nd201 O230 2.410 . S
C202 Nd200 2.836 . S
C202 C203 1.498 . S
C202 O220 1.258 . S
C202 O221 1.239 . S
C203 C202 1.498 . S
C203 C204 1.366 . S
C203 C208 1.407 . S
C204 C203 1.366 . S
C204 C205 1.392 . S
C204 H232 0.930 . S
C205 C204 1.392 . S
C205 C206 1.398 . S
C205 H233 0.929 . S
C206 C205 1.398 . S
C206 C207 1.352 . S
C207 C206 1.352 . S
C207 C208 1.384 . S
C207 H234 0.930 . S
C208 C203 1.407 . S
C208 C207 1.384 . S
C208 H235 0.929 . S
C209 O222 1.241 . S
C209 O223 1.273 . S
C210 O224 1.251 . S
C210 O225 1.268 . S
C211 Nd201 2.836 . S
C211 C212 1.498 1_556 S
C211 O226 1.258 . S
C211 O227 1.239 . S
C212 C211 1.498 1_554 S
C212 C213 1.366 . S
C212 C217 1.407 . S
C213 C212 1.366 . S
C213 C214 1.392 . S
C213 H236 0.930 . S
C214 C213 1.392 . S
C214 C215 1.398 . S
C214 H237 0.929 . S
C215 C214 1.398 . S
C215 C216 1.352 . S
C216 C215 1.352 . S
C216 C217 1.384 . S
C216 H238 0.930 1_455 S
C217 C212 1.407 . S
C217 C216 1.384 . S
C217 H239 0.958 . S
C218 O228 1.241 . S
C218 O229 1.273 . S
C219 O230 1.251 . S
C219 O231 1.268 . S
O220 Nd200 2.500 . S
O220 C202 1.258 . S
O221 Nd200 2.492 . S
O221 C202 1.239 . S
O222 Nd200 2.487 . S
O222 C209 1.241 . S
O223 Nd200 2.682 . S
O223 Nd201 2.414 . S
O223 C209 1.273 . S
O224 Nd200 2.410 . S
O224 C210 1.251 . S
O225 Nd201 2.424 . S
O225 C210 1.268 . S
O226 Nd201 2.500 . S
O226 C211 1.258 . S
O227 Nd201 2.492 . S
O227 C211 1.239 . S
O228 Nd201 2.487 . S
O228 C218 1.241 . S
O229 Nd200 2.414 . S
O229 Nd201 2.682 . S
O229 C218 1.273 . S
O230 Nd201 2.410 . S
O230 C219 1.251 . S
O231 Nd200 2.424 . S
O231 C219 1.268 . S
H232 C204 0.930 . S
H233 C205 0.929 . S
H234 C207 0.930 . S
H235 C208 0.929 . S
H236 C213 0.930 . S
H237 C214 0.929 . S
H238 C216 0.930 1_655 S
H239 C217 0.958 . S
Nd240 C242 2.836 . S
Nd240 O260 2.500 . S
Nd240 O261 2.492 . S
Nd240 O262 2.487 . S
Nd240 O263 2.682 . S
Nd240 O264 2.410 . S
Nd240 O269 2.414 . S
Nd240 O271 2.424 . S
Nd241 C251 2.836 . S
Nd241 O263 2.414 . S
Nd241 O265 2.424 . S
Nd241 O266 2.500 . S
Nd241 O267 2.492 . S
Nd241 O268 2.487 . S
Nd241 O269 2.682 . S
Nd241 O270 2.410 . S
C242 Nd240 2.836 . S
C242 C243 1.498 . S
C242 O260 1.258 . S
C242 O261 1.239 . S
C243 C242 1.498 . S
C243 C244 1.366 . S
C243 C248 1.407 . S
C244 C243 1.366 . S
C244 C245 1.392 . S
C244 H272 0.930 . S
C245 C244 1.392 . S
C245 C246 1.398 . S
C245 H273 0.929 . S
C246 C245 1.398 . S
C246 C247 1.352 . S
C247 C246 1.352 . S
C247 C248 1.384 . S
C247 H274 0.930 . S
C248 C243 1.407 . S
C248 C247 1.384 . S
C248 H275 0.929 . S
C249 O262 1.241 . S
C249 O263 1.273 . S
C250 O264 1.251 . S
C250 O265 1.268 . S
C251 Nd241 2.836 . S
C251 C252 1.498 . S
C251 O266 1.258 . S
C251 O267 1.239 . S
C252 C251 1.498 . S
C252 C253 1.366 . S
C252 C257 1.407 . S
C253 C252 1.366 . S
C253 C254 1.392 . S
C253 H276 0.930 . S
C254 C253 1.392 . S
C254 C255 1.398 . S
C254 H277 0.929 . S
C255 C254 1.398 . S
C255 C256 1.352 . S
C256 C255 1.352 . S
C256 C257 1.384 . S
C256 H278 0.930 . S
C257 C252 1.407 . S
C257 C256 1.384 . S
C257 H279 0.929 . S
C258 O268 1.241 . S
C258 O269 1.273 . S
C259 O270 1.251 . S
C259 O271 1.268 . S
O260 Nd240 2.500 . S
O260 C242 1.258 . S
O261 Nd240 2.492 . S
O261 C242 1.239 . S
O262 Nd240 2.487 . S
O262 C249 1.241 . S
O263 Nd240 2.682 . S
O263 Nd241 2.414 . S
O263 C249 1.273 . S
O264 Nd240 2.410 . S
O264 C250 1.251 . S
O265 Nd241 2.424 . S
O265 C250 1.268 . S
O266 Nd241 2.500 . S
O266 C251 1.258 . S
O267 Nd241 2.492 . S
O267 C251 1.239 . S
O268 Nd241 2.487 . S
O268 C258 1.241 . S
O269 Nd240 2.414 . S
O269 Nd241 2.682 . S
O269 C258 1.273 . S
O270 Nd241 2.410 . S
O270 C259 1.251 . S
O271 Nd240 2.424 . S
O271 C259 1.268 . S
H272 C244 0.930 . S
H273 C245 0.929 . S
H274 C247 0.930 . S
H275 C248 0.929 . S
H276 C253 0.930 . S
H277 C254 0.929 . S
H278 C256 0.930 . S
H279 C257 0.929 . S
Nd280 C282 2.836 . S
Nd280 O300 2.500 . S
Nd280 O301 2.492 1_565 S
Nd280 O302 2.487 1_565 S
Nd280 O303 2.682 1_565 S
Nd280 O304 2.410 1_565 S
Nd280 O309 2.414 . S
Nd280 O311 2.424 . S
Nd281 C291 2.834 1_565 S
Nd281 O303 2.414 1_565 S
Nd281 O305 2.425 . S
Nd281 O306 2.500 1_565 S
Nd281 O307 2.492 . S
Nd281 O308 2.487 . S
Nd281 O309 2.682 . S
Nd281 O310 2.410 . S
C282 Nd280 2.836 . S
C282 C283 1.498 . S
C282 O300 1.258 . S
C282 O301 1.239 1_565 S
C283 C282 1.498 . S
C283 C284 1.366 . S
C283 C288 1.407 1_565 S
C284 C283 1.366 . S
C284 C285 1.392 . S
C284 H312 0.930 . S
C285 C284 1.392 . S
C285 C286 1.398 . S
C285 H313 0.929 . S
C286 C285 1.398 . S
C286 C287 1.352 1_565 S
C287 C286 1.352 1_545 S
C287 C288 1.384 . S
C287 H314 0.930 . S
C288 C283 1.407 1_545 S
C288 C287 1.384 . S
C288 H315 0.929 . S
C289 O302 1.241 . S
C289 O303 1.273 . S
C290 O304 1.251 . S
C290 O305 1.267 1_545 S
C291 Nd281 2.834 1_545 S
C291 C292 1.500 . S
C291 O306 1.279 . S
C291 O307 1.217 1_545 S
C292 C291 1.500 . S
C292 C293 1.366 . S
C292 C297 1.407 1_545 S
C293 C292 1.366 . S
C293 C294 1.392 . S
C293 H316 0.930 . S
C294 C293 1.392 . S
C294 C295 1.398 . S
C294 H317 0.929 . S
C295 C294 1.398 . S
C295 C296 1.352 1_545 S
C296 C295 1.352 1_565 S
C296 C297 1.384 . S
C296 H318 0.930 1_455 S
C297 C292 1.407 1_565 S
C297 C296 1.384 . S
C297 H319 0.929 . S
C298 O308 1.241 . S
C298 O309 1.273 . S
C299 O310 1.251 . S
C299 O311 1.268 . S
O300 Nd280 2.500 . S
O300 C282 1.258 . S
O301 Nd280 2.492 1_545 S
O301 C282 1.239 1_545 S
O302 Nd280 2.487 1_545 S
O302 C289 1.241 . S
O303 Nd280 2.682 1_545 S
O303 Nd281 2.414 1_545 S
O303 C289 1.273 . S
O304 Nd280 2.410 1_545 S
O304 C290 1.251 . S
O305 Nd281 2.425 . S
O305 C290 1.267 1_565 S
O306 Nd281 2.500 1_545 S
O306 C291 1.279 . S
O307 Nd281 2.492 . S
O307 C291 1.217 1_565 S
O308 Nd281 2.487 . S
O308 C298 1.241 . S
O309 Nd280 2.414 . S
O309 Nd281 2.682 . S
O309 C298 1.273 . S
O310 Nd281 2.410 . S
O310 C299 1.251 . S
O311 Nd280 2.424 . S
O311 C299 1.268 . S
H312 C284 0.930 . S
H313 C285 0.929 . S
H314 C287 0.930 . S
H315 C288 0.929 . S
H316 C293 0.930 . S
H317 C294 0.929 . S
H318 C296 0.930 1_655 S
H319 C297 0.929 . S
Nd320 C322 2.836 . S
Nd320 O340 2.500 . S
Nd320 O341 2.492 . S
Nd320 O342 2.487 . S
Nd320 O343 2.682 . S
Nd320 O344 2.410 . S
Nd320 O349 2.414 . S
Nd320 O351 2.424 . S
Nd321 C331 2.836 . S
Nd321 O343 2.414 . S
Nd321 O345 2.424 . S
Nd321 O346 2.500 . S
Nd321 O347 2.492 . S
Nd321 O348 2.487 . S
Nd321 O349 2.682 . S
Nd321 O350 2.410 . S
C322 Nd320 2.836 . S
C322 C323 1.498 . S
C322 O340 1.258 . S
C322 O341 1.239 . S
C323 C322 1.498 . S
C323 C324 1.366 . S
C323 C328 1.407 . S
C324 C323 1.366 . S
C324 C325 1.392 . S
C324 H352 0.930 . S
C325 C324 1.392 . S
C325 C326 1.398 . S
C325 H353 0.929 . S
C326 C325 1.398 . S
C326 C327 1.352 . S
C327 C326 1.352 . S
C327 C328 1.384 . S
C327 H354 0.930 . S
C328 C323 1.407 . S
C328 C327 1.384 . S
C328 H355 0.929 . S
C329 O342 1.241 . S
C329 O343 1.273 . S
C330 O344 1.251 . S
C330 O345 1.268 . S
C331 Nd321 2.836 . S
C331 C332 1.498 . S
C331 O346 1.258 . S
C331 O347 1.239 . S
C332 C331 1.498 . S
C332 C333 1.366 . S
C332 C337 1.407 . S
C333 C332 1.366 . S
C333 C334 1.392 . S
C333 H356 0.930 . S
C334 C333 1.392 . S
C334 C335 1.398 . S
C334 H357 0.929 . S
C335 C334 1.398 . S
C335 C336 1.352 . S
C336 C335 1.352 . S
C336 C337 1.384 . S
C336 H358 0.930 . S
C337 C332 1.407 . S
C337 C336 1.384 . S
C337 H359 0.929 . S
C338 O348 1.241 . S
C338 O349 1.273 . S
C339 O350 1.251 . S
C339 O351 1.268 . S
O340 Nd320 2.500 . S
O340 C322 1.258 . S
O341 Nd320 2.492 . S
O341 C322 1.239 . S
O342 Nd320 2.487 . S
O342 C329 1.241 . S
O343 Nd320 2.682 . S
O343 Nd321 2.414 . S
O343 C329 1.273 . S
O344 Nd320 2.410 . S
O344 C330 1.251 . S
O345 Nd321 2.424 . S
O345 C330 1.268 . S
O346 Nd321 2.500 . S
O346 C331 1.258 . S
O347 Nd321 2.492 . S
O347 C331 1.239 . S
O348 Nd321 2.487 . S
O348 C338 1.241 . S
O349 Nd320 2.414 . S
O349 Nd321 2.682 . S
O349 C338 1.273 . S
O350 Nd321 2.410 . S
O350 C339 1.251 . S
O351 Nd320 2.424 . S
O351 C339 1.268 . S
H352 C324 0.930 . S
H353 C325 0.929 . S
H354 C327 0.930 . S
H355 C328 0.929 . S
H356 C333 0.930 . S
H357 C334 0.929 . S
H358 C336 0.930 . S
H359 C337 0.929 . S
Nd360 C362 2.836 . S
Nd360 O380 2.500 . S
Nd360 O381 2.492 . S
Nd360 O382 2.487 . S
Nd360 O383 2.682 . S
Nd360 O384 2.410 . S
Nd360 O389 2.414 . S
Nd360 O391 2.424 . S
Nd361 C371 2.836 . S
Nd361 O383 2.414 . S
Nd361 O385 2.424 . S
Nd361 O386 2.500 . S
Nd361 O387 2.492 . S
Nd361 O388 2.487 . S
Nd361 O389 2.682 . S
Nd361 O390 2.410 . S
C362 Nd360 2.836 . S
C362 C363 1.498 . S
C362 O380 1.258 . S
C362 O381 1.239 . S
C363 C362 1.498 . S
C363 C364 1.366 . S
C363 C368 1.407 . S
C364 C363 1.366 . S
C364 C365 1.392 . S
C364 H392 0.930 . S
C365 C364 1.392 . S
C365 C366 1.398 . S
C365 H393 0.929 . S
C366 C365 1.398 . S
C366 C367 1.352 . S
C367 C366 1.352 . S
C367 C368 1.384 . S
C367 H394 0.930 1_655 S
C368 C363 1.407 . S
C368 C367 1.384 . S
C368 H395 0.929 . S
C369 O382 1.241 . S
C369 O383 1.273 . S
C370 O384 1.251 . S
C370 O385 1.268 . S
C371 Nd361 2.836 . S
C371 C372 1.498 . S
C371 O386 1.258 . S
C371 O387 1.239 . S
C372 C371 1.498 . S
C372 C373 1.366 . S
C372 C377 1.407 . S
C373 C372 1.366 . S
C373 C374 1.392 . S
C373 H396 0.930 . S
C374 C373 1.392 . S
C374 C375 1.398 . S
C374 H397 0.929 . S
C375 C374 1.398 . S
C375 C376 1.352 . S
C376 C375 1.352 . S
C376 C377 1.384 . S
C376 H398 0.930 . S
C377 C372 1.407 . S
C377 C376 1.384 . S
C377 H399 0.929 . S
C378 O388 1.241 . S
C378 O389 1.273 . S
C379 O390 1.251 . S
C379 O391 1.268 . S
O380 Nd360 2.500 . S
O380 C362 1.258 . S
O381 Nd360 2.492 . S
O381 C362 1.239 . S
O382 Nd360 2.487 . S
O382 C369 1.241 . S
O383 Nd360 2.682 . S
O383 Nd361 2.414 . S
O383 C369 1.273 . S
O384 Nd360 2.410 . S
O384 C370 1.251 . S
O385 Nd361 2.424 . S
O385 C370 1.268 . S
O386 Nd361 2.500 . S
O386 C371 1.258 . S
O387 Nd361 2.492 . S
O387 C371 1.239 . S
O388 Nd361 2.487 . S
O388 C378 1.241 . S
O389 Nd360 2.414 . S
O389 Nd361 2.682 . S
O389 C378 1.273 . S
O390 Nd361 2.410 . S
O390 C379 1.251 . S
O391 Nd360 2.424 . S
O391 C379 1.268 . S
H392 C364 0.930 . S
H393 C365 0.929 . S
H394 C367 0.930 1_455 S
H395 C368 0.929 . S
H396 C373 0.930 . S
H397 C374 0.929 . S
H398 C376 0.930 . S
H399 C377 0.929 . S
Nd400 C402 2.836 . S
Nd400 O420 2.500 . S
Nd400 O421 2.492 . S
Nd400 O422 2.487 . S
Nd400 O423 2.682 . S
Nd400 O424 2.410 . S
Nd400 O429 2.414 . S
Nd400 O431 2.424 . S
Nd401 C411 2.836 . S
Nd401 O423 2.414 . S
Nd401 O425 2.424 . S
Nd401 O426 2.500 . S
Nd401 O427 2.492 . S
Nd401 O428 2.487 . S
Nd401 O429 2.682 . S
Nd401 O430 2.410 . S
C402 Nd400 2.836 . S
C402 C403 1.498 . S
C402 O420 1.258 . S
C402 O421 1.239 . S
C403 C402 1.498 . S
C403 C404 1.366 . S
C403 C408 1.407 . S
C404 C403 1.366 . S
C404 C405 1.392 . S
C404 H432 0.930 . S
C405 C404 1.392 . S
C405 C406 1.398 . S
C405 H433 0.929 . S
C406 C405 1.398 . S
C406 C407 1.352 . S
C407 C406 1.352 . S
C407 C408 1.384 . S
C407 H434 0.930 . S
C408 C403 1.407 . S
C408 C407 1.384 . S
C408 H435 0.929 . S
C409 O422 1.241 . S
C409 O423 1.273 . S
C410 O424 1.251 . S
C410 O425 1.268 . S
C411 Nd401 2.836 . S
C411 C412 1.498 . S
C411 O426 1.258 . S
C411 O427 1.239 . S
C412 C411 1.498 . S
C412 C413 1.366 . S
C412 C417 1.407 . S
C413 C412 1.366 . S
C413 C414 1.392 . S
C413 H436 0.930 . S
C414 C413 1.392 . S
C414 C415 1.398 . S
C414 H437 0.929 . S
C415 C414 1.398 . S
C415 C416 1.352 . S
C416 C415 1.352 . S
C416 C417 1.384 . S
C416 H438 0.930 . S
C417 C412 1.407 . S
C417 C416 1.384 . S
C417 H439 0.929 . S
C418 O428 1.241 . S
C418 O429 1.273 . S
C419 O430 1.251 . S
C419 O431 1.268 . S
O420 Nd400 2.500 . S
O420 C402 1.258 . S
O421 Nd400 2.492 . S
O421 C402 1.239 . S
O422 Nd400 2.487 . S
O422 C409 1.241 . S
O423 Nd400 2.682 . S
O423 Nd401 2.414 . S
O423 C409 1.273 . S
O424 Nd400 2.410 . S
O424 C410 1.251 . S
O425 Nd401 2.424 . S
O425 C410 1.268 . S
O426 Nd401 2.500 . S
O426 C411 1.258 . S
O427 Nd401 2.492 . S
O427 C411 1.239 . S
O428 Nd401 2.487 . S
O428 C418 1.241 . S
O429 Nd400 2.414 . S
O429 Nd401 2.682 . S
O429 C418 1.273 . S
O430 Nd401 2.410 . S
O430 C419 1.251 . S
O431 Nd400 2.424 . S
O431 C419 1.268 . S
H432 C404 0.930 . S
H433 C405 0.929 . S
H434 C407 0.930 . S
H435 C408 0.929 . S
H436 C413 0.930 . S
H437 C414 0.929 . S
H438 C416 0.930 . S
H439 C417 0.929 . S
Nd440 C442 2.836 . S
Nd440 O460 2.500 . S
Nd440 O461 2.492 . S
Nd440 O462 2.487 . S
Nd440 O463 2.682 . S
Nd440 O464 2.410 . S
Nd440 O469 2.414 . S
Nd440 O471 2.424 . S
Nd441 C451 2.836 . S
Nd441 O463 2.414 . S
Nd441 O465 2.424 . S
Nd441 O466 2.500 . S
Nd441 O467 2.492 . S
Nd441 O468 2.487 . S
Nd441 O469 2.682 . S
Nd441 O470 2.410 . S
C442 Nd440 2.836 . S
C442 C443 1.498 . S
C442 O460 1.258 . S
C442 O461 1.239 . S
C443 C442 1.498 . S
C443 C444 1.366 . S
C443 C448 1.407 . S
C444 C443 1.366 . S
C444 C445 1.392 . S
C444 H472 0.930 . S
C445 C444 1.392 . S
C445 C446 1.398 . S
C445 H473 0.929 . S
C446 C445 1.398 . S
C446 C447 1.352 . S
C447 C446 1.352 . S
C447 C448 1.384 . S
C447 H474 0.930 1_655 S
C448 C443 1.407 . S
C448 C447 1.384 . S
C448 H475 0.929 . S
C449 O462 1.241 . S
C449 O463 1.273 . S
C450 O464 1.251 . S
C450 O465 1.268 . S
C451 Nd441 2.836 . S
C451 C452 1.498 . S
C451 O466 1.258 . S
C451 O467 1.239 . S
C452 C451 1.498 . S
C452 C453 1.366 . S
C452 C457 1.407 . S
C453 C452 1.366 . S
C453 C454 1.392 . S
C453 H476 0.930 . S
C454 C453 1.392 . S
C454 C455 1.398 . S
C454 H477 0.929 . S
C455 C454 1.398 . S
C455 C456 1.352 . S
C456 C455 1.352 . S
C456 C457 1.384 . S
C456 H478 0.930 . S
C457 C452 1.407 . S
C457 C456 1.384 . S
C457 H479 0.929 . S
C458 O468 1.241 . S
C458 O469 1.273 . S
C459 O470 1.251 . S
C459 O471 1.268 . S
O460 Nd440 2.500 . S
O460 C442 1.258 . S
O461 Nd440 2.492 . S
O461 C442 1.239 . S
O462 Nd440 2.487 . S
O462 C449 1.241 . S
O463 Nd440 2.682 . S
O463 Nd441 2.414 . S
O463 C449 1.273 . S
O464 Nd440 2.410 . S
O464 C450 1.251 . S
O465 Nd441 2.424 . S
O465 C450 1.268 . S
O466 Nd441 2.500 . S
O466 C451 1.258 . S
O467 Nd441 2.492 . S
O467 C451 1.239 . S
O468 Nd441 2.487 . S
O468 C458 1.241 . S
O469 Nd440 2.414 . S
O469 Nd441 2.682 . S
O469 C458 1.273 . S
O470 Nd441 2.410 . S
O470 C459 1.251 . S
O471 Nd440 2.424 . S
O471 C459 1.268 . S
H472 C444 0.930 . S
H473 C445 0.929 . S
H474 C447 0.930 1_455 S
H475 C448 0.929 . S
H476 C453 0.930 . S
H477 C454 0.929 . S
H478 C456 0.930 . S
H479 C457 0.929 . S
Nd480 C482 2.836 . S
Nd480 O500 2.500 . S
Nd480 O501 2.492 . S
Nd480 O502 2.487 . S
Nd480 O503 2.682 . S
Nd480 O504 2.410 . S
Nd480 O509 2.414 . S
Nd480 O511 2.424 . S
Nd481 C491 2.836 . S
Nd481 O503 2.414 . S
Nd481 O505 2.424 . S
Nd481 O506 2.500 . S
Nd481 O507 2.492 . S
Nd481 O508 2.487 . S
Nd481 O509 2.682 . S
Nd481 O510 2.410 . S
C482 Nd480 2.836 . S
C482 C483 1.498 . S
C482 O500 1.258 . S
C482 O501 1.239 . S
C483 C482 1.498 . S
C483 C484 1.366 . S
C483 C488 1.407 . S
C484 C483 1.366 . S
C484 C485 1.392 . S
C484 H512 0.930 . S
C485 C484 1.392 . S
C485 C486 1.398 . S
C485 H513 0.929 . S
C486 C485 1.398 . S
C486 C487 1.352 . S
C487 C486 1.352 . S
C487 C488 1.384 . S
C487 H514 0.930 . S
C488 C483 1.407 . S
C488 C487 1.384 . S
C488 H515 0.929 . S
C489 O502 1.241 . S
C489 O503 1.273 . S
C490 O504 1.251 . S
C490 O505 1.268 . S
C491 Nd481 2.836 . S
C491 C492 1.498 . S
C491 O506 1.258 . S
C491 O507 1.239 . S
C492 C491 1.498 . S
C492 C493 1.366 . S
C492 C497 1.407 . S
C493 C492 1.366 . S
C493 C494 1.392 . S
C493 H516 0.930 . S
C494 C493 1.392 . S
C494 C495 1.398 . S
C494 H517 0.929 . S
C495 C494 1.398 . S
C495 C496 1.352 . S
C496 C495 1.352 . S
C496 C497 1.384 . S
C496 H518 0.930 . S
C497 C492 1.407 . S
C497 C496 1.384 . S
C497 H519 0.929 . S
C498 O508 1.241 . S
C498 O509 1.273 . S
C499 O510 1.251 . S
C499 O511 1.268 . S
O500 Nd480 2.500 . S
O500 C482 1.258 . S
O501 Nd480 2.492 . S
O501 C482 1.239 . S
O502 Nd480 2.487 . S
O502 C489 1.241 . S
O503 Nd480 2.682 . S
O503 Nd481 2.414 . S
O503 C489 1.273 . S
O504 Nd480 2.410 . S
O504 C490 1.251 . S
O505 Nd481 2.424 . S
O505 C490 1.268 . S
O506 Nd481 2.500 . S
O506 C491 1.258 . S
O507 Nd481 2.492 . S
O507 C491 1.239 . S
O508 Nd481 2.487 . S
O508 C498 1.241 . S
O509 Nd480 2.414 . S
O509 Nd481 2.682 . S
O509 C498 1.273 . S
O510 Nd481 2.410 . S
O510 C499 1.251 . S
O511 Nd480 2.424 . S
O511 C499 1.268 . S
H512 C484 0.930 . S
H513 C485 0.929 . S
H514 C487 0.930 . S
H515 C488 0.929 . S
H516 C493 0.930 . S
H517 C494 0.929 . S
H518 C496 0.930 . S
H519 C497 0.929 . S
Nd520 C522 2.836 . S
Nd520 O540 2.500 . S
Nd520 O541 2.492 . S
Nd520 O542 2.487 . S
Nd520 O543 2.682 . S
Nd520 O544 2.410 . S
Nd520 O549 2.414 . S
Nd520 O551 2.424 . S
Nd521 C531 2.836 . S
Nd521 O543 2.414 . S
Nd521 O545 2.424 . S
Nd521 O546 2.500 . S
Nd521 O547 2.492 . S
Nd521 O548 2.487 . S
Nd521 O549 2.682 . S
Nd521 O550 2.410 . S
C522 Nd520 2.836 . S
C522 C523 1.498 . S
C522 O540 1.258 . S
C522 O541 1.239 . S
C523 C522 1.498 . S
C523 C524 1.366 . S
C523 C528 1.407 . S
C524 C523 1.366 . S
C524 C525 1.392 . S
C524 H552 0.930 . S
C525 C524 1.392 . S
C525 C526 1.398 . S
C525 H553 0.929 . S
C526 C525 1.398 . S
C526 C527 1.352 . S
C527 C526 1.352 . S
C527 C528 1.384 . S
C527 H554 0.930 . S
C528 C523 1.407 . S
C528 C527 1.384 . S
C528 H555 0.929 . S
C529 O542 1.241 . S
C529 O543 1.273 . S
C530 O544 1.251 . S
C530 O545 1.268 . S
C531 Nd521 2.836 . S
C531 C532 1.498 . S
C531 O546 1.258 . S
C531 O547 1.239 . S
C532 C531 1.498 . S
C532 C533 1.366 . S
C532 C537 1.407 . S
C533 C532 1.366 . S
C533 C534 1.392 . S
C533 H556 0.930 . S
C534 C533 1.392 . S
C534 C535 1.398 . S
C534 H557 0.929 . S
C535 C534 1.398 . S
C535 C536 1.352 . S
C536 C535 1.352 . S
C536 C537 1.384 . S
C536 H558 0.930 1_455 S
C537 C532 1.407 . S
C537 C536 1.384 . S
C537 H559 0.929 . S
C538 O548 1.241 . S
C538 O549 1.273 . S
C539 O550 1.251 . S
C539 O551 1.268 . S
O540 Nd520 2.500 . S
O540 C522 1.258 . S
O541 Nd520 2.492 . S
O541 C522 1.239 . S
O542 Nd520 2.487 . S
O542 C529 1.241 . S
O543 Nd520 2.682 . S
O543 Nd521 2.414 . S
O543 C529 1.273 . S
O544 Nd520 2.410 . S
O544 C530 1.251 . S
O545 Nd521 2.424 . S
O545 C530 1.268 . S
O546 Nd521 2.500 . S
O546 C531 1.258 . S
O547 Nd521 2.492 . S
O547 C531 1.239 . S
O548 Nd521 2.487 . S
O548 C538 1.241 . S
O549 Nd520 2.414 . S
O549 Nd521 2.682 . S
O549 C538 1.273 . S
O550 Nd521 2.410 . S
O550 C539 1.251 . S
O551 Nd520 2.424 . S
O551 C539 1.268 . S
H552 C524 0.930 . S
H553 C525 0.929 . S
H554 C527 0.930 . S
H555 C528 0.929 . S
H556 C533 0.930 . S
H557 C534 0.929 . S
H558 C536 0.930 1_655 S
H559 C537 0.929 . S
Nd560 C562 2.836 . S
Nd560 O580 2.500 . S
Nd560 O581 2.492 . S
Nd560 O582 2.487 . S
Nd560 O583 2.682 . S
Nd560 O584 2.410 . S
Nd560 O589 2.414 . S
Nd560 O591 2.424 . S
Nd561 C571 2.836 . S
Nd561 O583 2.414 . S
Nd561 O585 2.424 . S
Nd561 O586 2.500 . S
Nd561 O587 2.492 . S
Nd561 O588 2.487 . S
Nd561 O589 2.682 . S
Nd561 O590 2.410 . S
C562 Nd560 2.836 . S
C562 C563 1.498 . S
C562 O580 1.258 . S
C562 O581 1.239 . S
C563 C562 1.498 . S
C563 C564 1.366 . S
C563 C568 1.407 . S
C564 C563 1.366 . S
C564 C565 1.392 . S
C564 H592 0.930 . S
C565 C564 1.392 . S
C565 C566 1.398 . S
C565 H593 0.929 . S
C566 C565 1.398 . S
C566 C567 1.352 . S
C567 C566 1.352 . S
C567 C568 1.384 . S
C567 H594 0.930 . S
C568 C563 1.407 . S
C568 C567 1.384 . S
C568 H595 0.929 . S
C569 O582 1.241 . S
C569 O583 1.273 . S
C570 O584 1.251 . S
C570 O585 1.268 . S
C571 Nd561 2.836 . S
C571 C572 1.498 . S
C571 O586 1.258 . S
C571 O587 1.239 . S
C572 C571 1.498 . S
C572 C573 1.366 . S
C572 C577 1.407 . S
C573 C572 1.366 . S
C573 C574 1.392 . S
C573 H596 0.930 . S
C574 C573 1.392 . S
C574 C575 1.398 . S
C574 H597 0.929 . S
C575 C574 1.398 . S
C575 C576 1.352 . S
C576 C575 1.352 . S
C576 C577 1.384 . S
C576 H598 0.930 . S
C577 C572 1.407 . S
C577 C576 1.384 . S
C577 H599 0.929 . S
C578 O588 1.241 . S
C578 O589 1.273 . S
C579 O590 1.251 . S
C579 O591 1.268 . S
O580 Nd560 2.500 . S
O580 C562 1.258 . S
O581 Nd560 2.492 . S
O581 C562 1.239 . S
O582 Nd560 2.487 . S
O582 C569 1.241 . S
O583 Nd560 2.682 . S
O583 Nd561 2.414 . S
O583 C569 1.273 . S
O584 Nd560 2.410 . S
O584 C570 1.251 . S
O585 Nd561 2.424 . S
O585 C570 1.268 . S
O586 Nd561 2.500 . S
O586 C571 1.258 . S
O587 Nd561 2.492 . S
O587 C571 1.239 . S
O588 Nd561 2.487 . S
O588 C578 1.241 . S
O589 Nd560 2.414 . S
O589 Nd561 2.682 . S
O589 C578 1.273 . S
O590 Nd561 2.410 . S
O590 C579 1.251 . S
O591 Nd560 2.424 . S
O591 C579 1.268 . S
H592 C564 0.930 . S
H593 C565 0.929 . S
H594 C567 0.930 . S
H595 C568 0.929 . S
H596 C573 0.930 . S
H597 C574 0.929 . S
H598 C576 0.930 . S
H599 C577 0.929 . S
Nd600 C602 2.836 . S
Nd600 O620 2.500 . S
Nd600 O621 2.492 . S
Nd600 O622 2.487 . S
Nd600 O623 2.682 . S
Nd600 O624 2.410 . S
Nd600 O629 2.414 . S
Nd600 O631 2.424 . S
Nd601 C611 2.836 . S
Nd601 O623 2.414 . S
Nd601 O625 2.424 . S
Nd601 O626 2.500 . S
Nd601 O627 2.492 . S
Nd601 O628 2.487 . S
Nd601 O629 2.682 . S
Nd601 O630 2.410 . S
C602 Nd600 2.836 . S
C602 C603 1.498 . S
C602 O620 1.258 . S
C602 O621 1.239 . S
C603 C602 1.498 . S
C603 C604 1.366 . S
C603 C608 1.407 . S
C604 C603 1.366 . S
C604 C605 1.392 . S
C604 H632 0.930 . S
C605 C604 1.392 . S
C605 C606 1.398 . S
C605 H633 0.929 . S
C606 C605 1.398 . S
C606 C607 1.352 . S
C607 C606 1.352 . S
C607 C608 1.384 . S
C607 H634 0.930 . S
C608 C603 1.407 . S
C608 C607 1.384 . S
C608 H635 0.929 . S
C609 O622 1.241 . S
C609 O623 1.273 . S
C610 O624 1.251 . S
C610 O625 1.268 . S
C611 Nd601 2.836 . S
C611 C612 1.498 . S
C611 O626 1.258 . S
C611 O627 1.239 . S
C612 C611 1.498 . S
C612 C613 1.366 . S
C612 C617 1.407 . S
C613 C612 1.366 . S
C613 C614 1.392 . S
C613 H636 0.930 . S
C614 C613 1.392 . S
C614 C615 1.398 . S
C614 H637 0.929 . S
C615 C614 1.398 . S
C615 C616 1.352 . S
C616 C615 1.352 . S
C616 C617 1.384 . S
C616 H638 0.930 1_455 S
C617 C612 1.407 . S
C617 C616 1.384 . S
C617 H639 0.929 . S
C618 O628 1.241 . S
C618 O629 1.273 . S
C619 O630 1.251 . S
C619 O631 1.268 . S
O620 Nd600 2.500 . S
O620 C602 1.258 . S
O621 Nd600 2.492 . S
O621 C602 1.239 . S
O622 Nd600 2.487 . S
O622 C609 1.241 . S
O623 Nd600 2.682 . S
O623 Nd601 2.414 . S
O623 C609 1.273 . S
O624 Nd600 2.410 . S
O624 C610 1.251 . S
O625 Nd601 2.424 . S
O625 C610 1.268 . S
O626 Nd601 2.500 . S
O626 C611 1.258 . S
O627 Nd601 2.492 . S
O627 C611 1.239 . S
O628 Nd601 2.487 . S
O628 C618 1.241 . S
O629 Nd600 2.414 . S
O629 Nd601 2.682 . S
O629 C618 1.273 . S
O630 Nd601 2.410 . S
O630 C619 1.251 . S
O631 Nd600 2.424 . S
O631 C619 1.268 . S
H632 C604 0.930 . S
H633 C605 0.929 . S
H634 C607 0.930 . S
H635 C608 0.929 . S
H636 C613 0.930 . S
H637 C614 0.929 . S
H638 C616 0.930 1_655 S
H639 C617 0.929 . S
Nd640 C642 2.834 1_545 S
Nd640 O660 2.500 1_545 S
Nd640 O661 2.492 . S
Nd640 O662 2.487 . S
Nd640 O663 2.682 . S
Nd640 O664 2.410 . S
Nd640 O669 2.414 1_545 S
Nd640 O671 2.425 . S
Nd641 C651 2.836 . S
Nd641 O663 2.414 . S
Nd641 O665 2.424 . S
Nd641 O666 2.500 . S
Nd641 O667 2.492 1_545 S
Nd641 O668 2.487 1_545 S
Nd641 O669 2.682 1_545 S
Nd641 O670 2.410 1_545 S
C642 Nd640 2.834 1_565 S
C642 C643 1.500 . S
C642 O660 1.279 . S
C642 O661 1.217 1_565 S
C643 C642 1.500 . S
C643 C644 1.366 . S
C643 C648 1.407 1_565 S
C644 C643 1.366 . S
C644 C645 1.392 . S
C644 H672 0.930 . S
C645 C644 1.392 . S
C645 C646 1.398 . S
C645 H673 0.929 . S
C646 C645 1.398 . S
C646 C647 1.352 1_565 S
C647 C646 1.352 1_545 S
C647 C648 1.384 . S
C647 H674 0.930 . S
C648 C643 1.407 1_545 S
C648 C647 1.384 . S
C648 H675 0.929 . S
C649 O662 1.241 . S
C649 O663 1.273 . S
C650 O664 1.251 . S
C650 O665 1.268 . S
C651 Nd641 2.836 . S
C651 C652 1.498 . S
C651 O666 1.258 . S
C651 O667 1.239 1_545 S
C652 C651 1.498 . S
C652 C653 1.366 . S
C652 C657 1.407 1_545 S
C653 C652 1.366 . S
C653 C654 1.392 . S
C653 H676 0.930 . S
C654 C653 1.392 . S
C654 C655 1.398 . S
C654 H677 0.929 . S
C655 C654 1.398 . S
C655 C656 1.352 1_545 S
C656 C655 1.352 1_565 S
C656 C657 1.384 . S
C656 H678 0.930 . S
C657 C652 1.407 1_565 S
C657 C656 1.384 . S
C657 H679 0.929 . S
C658 O668 1.241 . S
C658 O669 1.273 . S
C659 O670 1.251 . S
C659 O671 1.267 1_565 S
O660 Nd640 2.500 1_565 S
O660 C642 1.279 . S
O661 Nd640 2.492 . S
O661 C642 1.217 1_545 S
O662 Nd640 2.487 . S
O662 C649 1.241 . S
O663 Nd640 2.682 . S
O663 Nd641 2.414 . S
O663 C649 1.273 . S
O664 Nd640 2.410 . S
O664 C650 1.251 . S
O665 Nd641 2.424 . S
O665 C650 1.268 . S
O666 Nd641 2.500 . S
O666 C651 1.258 . S
O667 Nd641 2.492 1_565 S
O667 C651 1.239 1_565 S
O668 Nd641 2.487 1_565 S
O668 C658 1.241 . S
O669 Nd640 2.414 1_565 S
O669 Nd641 2.682 1_565 S
O669 C658 1.273 . S
O670 Nd641 2.410 1_565 S
O670 C659 1.251 . S
O671 Nd640 2.425 . S
O671 C659 1.267 1_545 S
H672 C644 0.930 . S
H673 C645 0.929 . S
H674 C647 0.930 . S
H675 C648 0.929 . S
H676 C653 0.930 . S
H677 C654 0.929 . S
H678 C656 0.930 . S
H679 C657 0.929 . S
Nd680 C682 2.836 . S
Nd680 O700 2.500 . S
Nd680 O701 2.492 . S
Nd680 O702 2.487 . S
Nd680 O703 2.682 . S
Nd680 O704 2.410 . S
Nd680 O709 2.414 . S
Nd680 O711 2.424 . S
Nd681 C691 2.836 . S
Nd681 O703 2.414 . S
Nd681 O705 2.424 . S
Nd681 O706 2.500 . S
Nd681 O707 2.492 . S
Nd681 O708 2.487 . S
Nd681 O709 2.682 . S
Nd681 O710 2.410 . S
C682 Nd680 2.836 . S
C682 C683 1.498 . S
C682 O700 1.258 . S
C682 O701 1.239 . S
C683 C682 1.498 . S
C683 C684 1.366 . S
C683 C688 1.407 . S
C684 C683 1.366 . S
C684 C685 1.392 . S
C684 H712 0.930 . S
C685 C684 1.392 . S
C685 C686 1.398 . S
C685 H713 0.929 . S
C686 C685 1.398 . S
C686 C687 1.352 . S
C687 C686 1.352 . S
C687 C688 1.384 . S
C687 H714 0.930 . S
C688 C683 1.407 . S
C688 C687 1.384 . S
C688 H715 0.929 . S
C689 O702 1.241 . S
C689 O703 1.273 . S
C690 O704 1.251 . S
C690 O705 1.268 . S
C691 Nd681 2.836 . S
C691 C692 1.498 . S
C691 O706 1.258 . S
C691 O707 1.239 . S
C692 C691 1.498 . S
C692 C693 1.366 . S
C692 C697 1.407 . S
C693 C692 1.366 . S
C693 C694 1.392 . S
C693 H716 0.930 . S
C694 C693 1.392 . S
C694 C695 1.398 . S
C694 H717 0.929 . S
C695 C694 1.398 . S
C695 C696 1.352 . S
C696 C695 1.352 . S
C696 C697 1.384 . S
C696 H718 0.930 . S
C697 C692 1.407 . S
C697 C696 1.384 . S
C697 H719 0.929 . S
C698 O708 1.241 . S
C698 O709 1.273 . S
C699 O710 1.251 . S
C699 O711 1.268 . S
O700 Nd680 2.500 . S
O700 C682 1.258 . S
O701 Nd680 2.492 . S
O701 C682 1.239 . S
O702 Nd680 2.487 . S
O702 C689 1.241 . S
O703 Nd680 2.682 . S
O703 Nd681 2.414 . S
O703 C689 1.273 . S
O704 Nd680 2.410 . S
O704 C690 1.251 . S
O705 Nd681 2.424 . S
O705 C690 1.268 . S
O706 Nd681 2.500 . S
O706 C691 1.258 . S
O707 Nd681 2.492 . S
O707 C691 1.239 . S
O708 Nd681 2.487 . S
O708 C698 1.241 . S
O709 Nd680 2.414 . S
O709 Nd681 2.682 . S
O709 C698 1.273 . S
O710 Nd681 2.410 . S
O710 C699 1.251 . S
O711 Nd680 2.424 . S
O711 C699 1.268 . S
H712 C684 0.930 . S
H713 C685 0.929 . S
H714 C687 0.930 . S
H715 C688 0.929 . S
H716 C693 0.930 . S
H717 C694 0.929 . S
H718 C696 0.930 . S
H719 C697 0.929 . S
Nd720 C722 2.836 . S
Nd720 O740 2.500 . S
Nd720 O741 2.492 . S
Nd720 O742 2.487 . S
Nd720 O743 2.682 . S
Nd720 O744 2.410 . S
Nd720 O749 2.414 . S
Nd720 O751 2.424 . S
Nd721 C731 2.836 . S
Nd721 O743 2.414 . S
Nd721 O745 2.424 . S
Nd721 O746 2.500 . S
Nd721 O747 2.492 . S
Nd721 O748 2.487 . S
Nd721 O749 2.682 . S
Nd721 O750 2.410 . S
C722 Nd720 2.836 . S
C722 C723 1.498 . S
C722 O740 1.258 . S
C722 O741 1.239 . S
C723 C722 1.498 . S
C723 C724 1.366 . S
C723 C728 1.407 . S
C724 C723 1.366 . S
C724 C725 1.392 . S
C724 H752 0.930 . S
C725 C724 1.392 . S
C725 C726 1.398 . S
C725 H753 0.929 . S
C726 C725 1.398 . S
C726 C727 1.352 . S
C727 C726 1.352 . S
C727 C728 1.384 . S
C727 H754 0.930 . S
C728 C723 1.407 . S
C728 C727 1.384 . S
C728 H755 0.929 . S
C729 O742 1.241 . S
C729 O743 1.273 . S
C730 O744 1.251 . S
C730 O745 1.268 . S
C731 Nd721 2.836 . S
C731 C732 1.498 . S
C731 O746 1.258 . S
C731 O747 1.239 . S
C732 C731 1.498 . S
C732 C733 1.366 . S
C732 C737 1.407 . S
C733 C732 1.366 . S
C733 C734 1.392 . S
C733 H756 0.930 . S
C734 C733 1.392 . S
C734 C735 1.398 . S
C734 H757 0.929 . S
C735 C734 1.398 . S
C735 C736 1.352 . S
C736 C735 1.352 . S
C736 C737 1.384 . S
C736 H758 0.930 . S
C737 C732 1.407 . S
C737 C736 1.384 . S
C737 H759 0.929 . S
C738 O748 1.241 . S
C738 O749 1.273 . S
C739 O750 1.251 . S
C739 O751 1.268 . S
O740 Nd720 2.500 . S
O740 C722 1.258 . S
O741 Nd720 2.492 . S
O741 C722 1.239 . S
O742 Nd720 2.487 . S
O742 C729 1.241 . S
O743 Nd720 2.682 . S
O743 Nd721 2.414 . S
O743 C729 1.273 . S
O744 Nd720 2.410 . S
O744 C730 1.251 . S
O745 Nd721 2.424 . S
O745 C730 1.268 . S
O746 Nd721 2.500 . S
O746 C731 1.258 . S
O747 Nd721 2.492 . S
O747 C731 1.239 . S
O748 Nd721 2.487 . S
O748 C738 1.241 . S
O749 Nd720 2.414 . S
O749 Nd721 2.682 . S
O749 C738 1.273 . S
O750 Nd721 2.410 . S
O750 C739 1.251 . S
O751 Nd720 2.424 . S
O751 C739 1.268 . S
H752 C724 0.930 . S
H753 C725 0.929 . S
H754 C727 0.930 . S
H755 C728 0.929 . S
H756 C733 0.930 . S
H757 C734 0.929 . S
H758 C736 0.930 . S
H759 C737 0.929 . S
Nd760 C762 2.834 1_545 S
Nd760 O780 2.500 1_545 S
Nd760 O781 2.492 . S
Nd760 O782 2.487 . S
Nd760 O783 2.682 . S
Nd760 O784 2.410 . S
Nd760 O789 2.414 1_545 S
Nd760 O791 2.425 . S
Nd761 C771 2.836 . S
Nd761 O783 2.414 . S
Nd761 O785 2.424 . S
Nd761 O786 2.500 . S
Nd761 O787 2.492 1_545 S
Nd761 O788 2.487 1_545 S
Nd761 O789 2.682 1_545 S
Nd761 O790 2.410 1_545 S
C762 Nd760 2.834 1_565 S
C762 C763 1.500 . S
C762 O780 1.279 . S
C762 O781 1.217 1_565 S
C763 C762 1.500 . S
C763 C764 1.366 . S
C763 C768 1.407 1_565 S
C764 C763 1.366 . S
C764 C765 1.392 . S
C764 H792 0.930 . S
C765 C764 1.392 . S
C765 C766 1.398 . S
C765 H793 0.929 . S
C766 C765 1.398 . S
C766 C767 1.352 1_565 S
C767 C766 1.352 1_545 S
C767 C768 1.384 . S
C767 H794 0.930 . S
C768 C763 1.407 1_545 S
C768 C767 1.384 . S
C768 H795 0.929 . S
C769 O782 1.241 . S
C769 O783 1.273 . S
C770 O784 1.251 . S
C770 O785 1.268 . S
C771 Nd761 2.836 . S
C771 C772 1.498 . S
C771 O786 1.258 . S
C771 O787 1.239 1_545 S
C772 C771 1.498 . S
C772 C773 1.366 . S
C772 C777 1.407 1_545 S
C773 C772 1.366 . S
C773 C774 1.392 . S
C773 H796 0.930 . S
C774 C773 1.392 . S
C774 C775 1.398 . S
C774 H797 0.929 . S
C775 C774 1.398 . S
C775 C776 1.352 1_545 S
C776 C775 1.352 1_565 S
C776 C777 1.384 . S
C776 H798 0.930 . S
C777 C772 1.407 1_565 S
C777 C776 1.384 . S
C777 H799 0.929 . S
C778 O788 1.241 . S
C778 O789 1.273 . S
C779 O790 1.251 . S
C779 O791 1.267 1_565 S
O780 Nd760 2.500 1_565 S
O780 C762 1.279 . S
O781 Nd760 2.492 . S
O781 C762 1.217 1_545 S
O782 Nd760 2.487 . S
O782 C769 1.241 . S
O783 Nd760 2.682 . S
O783 Nd761 2.414 . S
O783 C769 1.273 . S
O784 Nd760 2.410 . S
O784 C770 1.251 . S
O785 Nd761 2.424 . S
O785 C770 1.268 . S
O786 Nd761 2.500 . S
O786 C771 1.258 . S
O787 Nd761 2.492 1_565 S
O787 C771 1.239 1_565 S
O788 Nd761 2.487 1_565 S
O788 C778 1.241 . S
O789 Nd760 2.414 1_565 S
O789 Nd761 2.682 1_565 S
O789 C778 1.273 . S
O790 Nd761 2.410 1_565 S
O790 C779 1.251 . S
O791 Nd760 2.425 . S
O791 C779 1.267 1_545 S
H792 C764 0.930 . S
H793 C765 0.929 . S
H794 C767 0.930 . S
H795 C768 0.929 . S
H796 C773 0.930 . S
H797 C774 0.929 . S
H798 C776 0.930 . S
H799 C777 0.929 . S
Nd800 C802 2.836 . S
Nd800 O820 2.500 . S
Nd800 O821 2.492 1_565 S
Nd800 O822 2.487 1_565 S
Nd800 O823 2.682 1_565 S
Nd800 O824 2.410 1_565 S
Nd800 O829 2.414 . S
Nd800 O831 2.424 . S
Nd801 C811 2.834 1_565 S
Nd801 O823 2.414 1_565 S
Nd801 O825 2.425 . S
Nd801 O826 2.500 1_565 S
Nd801 O827 2.492 . S
Nd801 O828 2.487 . S
Nd801 O829 2.682 . S
Nd801 O830 2.410 . S
C802 Nd800 2.836 . S
C802 C803 1.498 . S
C802 O820 1.258 . S
C802 O821 1.239 1_565 S
C803 C802 1.498 . S
C803 C804 1.366 . S
C803 C808 1.407 1_565 S
C804 C803 1.366 . S
C804 C805 1.392 . S
C804 H832 0.930 . S
C805 C804 1.392 . S
C805 C806 1.398 . S
C805 H833 0.929 . S
C806 C805 1.398 . S
C806 C807 1.352 1_565 S
C807 C806 1.352 1_545 S
C807 C808 1.384 . S
C807 H834 0.930 . S
C808 C803 1.407 1_545 S
C808 C807 1.384 . S
C808 H835 0.929 . S
C809 O822 1.241 . S
C809 O823 1.273 . S
C810 O824 1.251 . S
C810 O825 1.267 1_545 S
C811 Nd801 2.834 1_545 S
C811 C812 1.500 . S
C811 O826 1.279 . S
C811 O827 1.217 1_545 S
C812 C811 1.500 . S
C812 C813 1.366 . S
C812 C817 1.407 1_545 S
C813 C812 1.366 . S
C813 C814 1.392 . S
C813 H836 0.930 . S
C814 C813 1.392 . S
C814 C815 1.398 . S
C814 H837 0.929 . S
C815 C814 1.398 . S
C815 C816 1.352 1_545 S
C816 C815 1.352 1_565 S
C816 C817 1.384 . S
C816 H838 0.930 . S
C817 C812 1.407 1_565 S
C817 C816 1.384 . S
C817 H839 0.929 . S
C818 O828 1.241 . S
C818 O829 1.273 . S
C819 O830 1.251 . S
C819 O831 1.268 . S
O820 Nd800 2.500 . S
O820 C802 1.258 . S
O821 Nd800 2.492 1_545 S
O821 C802 1.239 1_545 S
O822 Nd800 2.487 1_545 S
O822 C809 1.241 . S
O823 Nd800 2.682 1_545 S
O823 Nd801 2.414 1_545 S
O823 C809 1.273 . S
O824 Nd800 2.410 1_545 S
O824 C810 1.251 . S
O825 Nd801 2.425 . S
O825 C810 1.267 1_565 S
O826 Nd801 2.500 1_545 S
O826 C811 1.279 . S
O827 Nd801 2.492 . S
O827 C811 1.217 1_565 S
O828 Nd801 2.487 . S
O828 C818 1.241 . S
O829 Nd800 2.414 . S
O829 Nd801 2.682 . S
O829 C818 1.273 . S
O830 Nd801 2.410 . S
O830 C819 1.251 . S
O831 Nd800 2.424 . S
O831 C819 1.268 . S
H832 C804 0.930 . S
H833 C805 0.929 . S
H834 C807 0.930 . S
H835 C808 0.929 . S
H836 C813 0.930 . S
H837 C814 0.929 . S
H838 C816 0.930 . S
H839 C817 0.929 . S
Nd840 C842 2.836 . S
Nd840 O860 2.500 . S
Nd840 O861 2.492 . S
Nd840 O862 2.487 . S
Nd840 O863 2.682 . S
Nd840 O864 2.410 . S
Nd840 O869 2.414 . S
Nd840 O871 2.424 . S
Nd841 C851 2.836 . S
Nd841 O863 2.414 . S
Nd841 O865 2.424 . S
Nd841 O866 2.500 . S
Nd841 O867 2.492 . S
Nd841 O868 2.487 . S
Nd841 O869 2.682 . S
Nd841 O870 2.410 . S
C842 Nd840 2.836 . S
C842 C843 1.498 . S
C842 O860 1.258 . S
C842 O861 1.239 . S
C843 C842 1.498 . S
C843 C844 1.366 . S
C843 C848 1.407 . S
C844 C843 1.366 . S
C844 C845 1.392 . S
C844 H872 0.930 . S
C845 C844 1.392 . S
C845 C846 1.398 . S
C845 H873 0.929 . S
C846 C845 1.398 . S
C846 C847 1.352 . S
C847 C846 1.352 . S
C847 C848 1.384 . S
C847 H874 0.930 . S
C848 C843 1.407 . S
C848 C847 1.384 . S
C848 H875 0.929 . S
C849 O862 1.241 . S
C849 O863 1.273 . S
C850 O864 1.251 . S
C850 O865 1.268 . S
C851 Nd841 2.836 . S
C851 C852 1.498 . S
C851 O866 1.258 . S
C851 O867 1.239 . S
C852 C851 1.498 . S
C852 C853 1.366 . S
C852 C857 1.407 . S
C853 C852 1.366 . S
C853 C854 1.392 . S
C853 H876 0.930 . S
C854 C853 1.392 . S
C854 C855 1.398 . S
C854 H877 0.929 . S
C855 C854 1.398 . S
C855 C856 1.352 . S
C856 C855 1.352 . S
C856 C857 1.384 . S
C856 H878 0.930 . S
C857 C852 1.407 . S
C857 C856 1.384 . S
C857 H879 0.929 . S
C858 O868 1.241 . S
C858 O869 1.273 . S
C859 O870 1.251 . S
C859 O871 1.268 . S
O860 Nd840 2.500 . S
O860 C842 1.258 . S
O861 Nd840 2.492 . S
O861 C842 1.239 . S
O862 Nd840 2.487 . S
O862 C849 1.241 . S
O863 Nd840 2.682 . S
O863 Nd841 2.414 . S
O863 C849 1.273 . S
O864 Nd840 2.410 . S
O864 C850 1.251 . S
O865 Nd841 2.424 . S
O865 C850 1.268 . S
O866 Nd841 2.500 . S
O866 C851 1.258 . S
O867 Nd841 2.492 . S
O867 C851 1.239 . S
O868 Nd841 2.487 . S
O868 C858 1.241 . S
O869 Nd840 2.414 . S
O869 Nd841 2.682 . S
O869 C858 1.273 . S
O870 Nd841 2.410 . S
O870 C859 1.251 . S
O871 Nd840 2.424 . S
O871 C859 1.268 . S
H872 C844 0.930 . S
H873 C845 0.929 . S
H874 C847 0.930 . S
H875 C848 0.929 . S
H876 C853 0.930 . S
H877 C854 0.929 . S
H878 C856 0.930 . S
H879 C857 0.929 . S
Nd880 C882 2.836 . S
Nd880 O900 2.500 . S
Nd880 O901 2.492 . S
Nd880 O902 2.487 . S
Nd880 O903 2.682 . S
Nd880 O904 2.410 . S
Nd880 O909 2.414 . S
Nd880 O911 2.424 . S
Nd881 C891 2.836 . S
Nd881 O903 2.414 . S
Nd881 O905 2.424 . S
Nd881 O906 2.500 . S
Nd881 O907 2.492 . S
Nd881 O908 2.487 . S
Nd881 O909 2.682 . S
Nd881 O910 2.410 . S
C882 Nd880 2.836 . S
C882 C883 1.498 . S
C882 O900 1.258 . S
C882 O901 1.239 . S
C883 C882 1.498 . S
C883 C884 1.366 . S
C883 C888 1.407 . S
C884 C883 1.366 . S
C884 C885 1.392 . S
C884 H912 0.930 . S
C885 C884 1.392 . S
C885 C886 1.398 . S
C885 H913 0.929 . S
C886 C885 1.398 . S
C886 C887 1.352 . S
C887 C886 1.352 . S
C887 C888 1.384 . S
C887 H914 0.930 . S
C888 C883 1.407 . S
C888 C887 1.384 . S
C888 H915 0.929 . S
C889 O902 1.241 . S
C889 O903 1.273 . S
C890 O904 1.251 . S
C890 O905 1.268 . S
C891 Nd881 2.836 . S
C891 C892 1.498 . S
C891 O906 1.258 . S
C891 O907 1.239 . S
C892 C891 1.498 . S
C892 C893 1.366 . S
C892 C897 1.407 . S
C893 C892 1.366 . S
C893 C894 1.392 . S
C893 H916 0.930 . S
C894 C893 1.392 . S
C894 C895 1.398 . S
C894 H917 0.929 . S
C895 C894 1.398 . S
C895 C896 1.352 . S
C896 C895 1.352 . S
C896 C897 1.384 . S
C896 H918 0.930 . S
C897 C892 1.407 . S
C897 C896 1.384 . S
C897 H919 0.929 . S
C898 O908 1.241 . S
C898 O909 1.273 . S
C899 O910 1.251 . S
C899 O911 1.268 . S
O900 Nd880 2.500 . S
O900 C882 1.258 . S
O901 Nd880 2.492 . S
O901 C882 1.239 . S
O902 Nd880 2.487 . S
O902 C889 1.241 . S
O903 Nd880 2.682 . S
O903 Nd881 2.414 . S
O903 C889 1.273 . S
O904 Nd880 2.410 . S
O904 C890 1.251 . S
O905 Nd881 2.424 . S
O905 C890 1.268 . S
O906 Nd881 2.500 . S
O906 C891 1.258 . S
O907 Nd881 2.492 . S
O907 C891 1.239 . S
O908 Nd881 2.487 . S
O908 C898 1.241 . S
O909 Nd880 2.414 . S
O909 Nd881 2.682 . S
O909 C898 1.273 . S
O910 Nd881 2.410 . S
O910 C899 1.251 . S
O911 Nd880 2.424 . S
O911 C899 1.268 . S
H912 C884 0.930 . S
H913 C885 0.929 . S
H914 C887 0.930 . S
H915 C888 0.929 . S
H916 C893 0.930 . S
H917 C894 0.929 . S
H918 C896 0.930 . S
H919 C897 0.929 . S
Nd920 C922 2.836 . S
Nd920 O940 2.500 . S
Nd920 O941 2.492 1_565 S
Nd920 O942 2.487 1_565 S
Nd920 O943 2.682 1_565 S
Nd920 O944 2.410 1_565 S
Nd920 O949 2.414 . S
Nd920 O951 2.424 . S
Nd921 C931 2.834 1_565 S
Nd921 O943 2.414 1_565 S
Nd921 O945 2.425 . S
Nd921 O946 2.500 1_565 S
Nd921 O947 2.492 . S
Nd921 O948 2.487 . S
Nd921 O949 2.682 . S
Nd921 O950 2.410 . S
C922 Nd920 2.836 . S
C922 C923 1.498 . S
C922 O940 1.258 . S
C922 O941 1.239 1_565 S
C923 C922 1.498 . S
C923 C924 1.366 . S
C923 C928 1.407 1_565 S
C924 C923 1.366 . S
C924 C925 1.392 . S
C924 H952 0.930 . S
C925 C924 1.392 . S
C925 C926 1.398 . S
C925 H953 0.929 . S
C926 C925 1.398 . S
C926 C927 1.352 1_565 S
C927 C926 1.352 1_545 S
C927 C928 1.384 . S
C927 H954 0.930 . S
C928 C923 1.407 1_545 S
C928 C927 1.384 . S
C928 H955 0.929 . S
C929 O942 1.241 . S
C929 O943 1.273 . S
C930 O944 1.251 . S
C930 O945 1.267 1_545 S
C931 Nd921 2.834 1_545 S
C931 C932 1.500 . S
C931 O946 1.279 . S
C931 O947 1.217 1_545 S
C932 C931 1.500 . S
C932 C933 1.366 . S
C932 C937 1.407 1_545 S
C933 C932 1.366 . S
C933 C934 1.392 . S
C933 H956 0.930 . S
C934 C933 1.392 . S
C934 C935 1.398 . S
C934 H957 0.929 . S
C935 C934 1.398 . S
C935 C936 1.352 1_545 S
C936 C935 1.352 1_565 S
C936 C937 1.384 . S
C936 H958 0.930 . S
C937 C932 1.407 1_565 S
C937 C936 1.384 . S
C937 H959 0.929 . S
C938 O948 1.241 . S
C938 O949 1.273 . S
C939 O950 1.251 . S
C939 O951 1.268 . S
O940 Nd920 2.500 . S
O940 C922 1.258 . S
O941 Nd920 2.492 1_545 S
O941 C922 1.239 1_545 S
O942 Nd920 2.487 1_545 S
O942 C929 1.241 . S
O943 Nd920 2.682 1_545 S
O943 Nd921 2.414 1_545 S
O943 C929 1.273 . S
O944 Nd920 2.410 1_545 S
O944 C930 1.251 . S
O945 Nd921 2.425 . S
O945 C930 1.267 1_565 S
O946 Nd921 2.500 1_545 S
O946 C931 1.279 . S
O947 Nd921 2.492 . S
O947 C931 1.217 1_565 S
O948 Nd921 2.487 . S
O948 C938 1.241 . S
O949 Nd920 2.414 . S
O949 Nd921 2.682 . S
O949 C938 1.273 . S
O950 Nd921 2.410 . S
O950 C939 1.251 . S
O951 Nd920 2.424 . S
O951 C939 1.268 . S
H952 C924 0.930 . S
H953 C925 0.929 . S
H954 C927 0.930 . S
H955 C928 0.929 . S
H956 C933 0.930 . S
H957 C934 0.929 . S
H958 C936 0.930 . S
H959 C937 0.929 . S
Nd960 C962 2.836 . S
Nd960 O980 2.500 . S
Nd960 O981 2.492 . S
Nd960 O982 2.487 . S
Nd960 O983 2.682 . S
Nd960 O984 2.410 . S
Nd960 O989 2.414 . S
Nd960 O991 2.424 . S
Nd961 C971 2.836 . S
Nd961 O983 2.414 . S
Nd961 O985 2.424 . S
Nd961 O986 2.500 . S
Nd961 O987 2.492 . S
Nd961 O988 2.487 . S
Nd961 O989 2.682 . S
Nd961 O990 2.410 . S
C962 Nd960 2.836 . S
C962 C963 1.498 1_554 S
C962 O980 1.258 . S
C962 O981 1.239 . S
C963 C962 1.498 1_556 S
C963 C964 1.366 . S
C963 C968 1.407 . S
C964 C963 1.366 . S
C964 C965 1.392 . S
C964 H992 0.930 . S
C965 C964 1.392 . S
C965 C966 1.398 . S
C965 H993 0.929 . S
C966 C965 1.398 . S
C966 C967 1.352 . S
C967 C966 1.352 . S
C967 C968 1.384 . S
C967 H994 0.930 . S
C968 C963 1.407 . S
C968 C967 1.384 . S
C968 H995 0.958 . S
C969 O982 1.241 . S
C969 O983 1.273 . S
C970 O984 1.251 . S
C970 O985 1.268 . S
C971 Nd961 2.836 . S
C971 C972 1.498 . S
C971 O986 1.258 . S
C971 O987 1.239 . S
C972 C971 1.498 . S
C972 C973 1.366 . S
C972 C977 1.407 . S
C973 C972 1.366 . S
C973 C974 1.392 . S
C973 H996 0.930 . S
C974 C973 1.392 . S
C974 C975 1.398 . S
C974 H997 0.929 . S
C975 C974 1.398 . S
C975 C976 1.352 . S
C976 C975 1.352 . S
C976 C977 1.384 . S
C976 H998 0.930 . S
C977 C972 1.407 . S
C977 C976 1.384 . S
C977 H999 0.929 . S
C978 O988 1.241 . S
C978 O989 1.273 . S
C979 O990 1.251 . S
C979 O991 1.268 . S
O980 Nd960 2.500 . S
O980 C962 1.258 . S
O981 Nd960 2.492 . S
O981 C962 1.239 . S
O982 Nd960 2.487 . S
O982 C969 1.241 . S
O983 Nd960 2.682 . S
O983 Nd961 2.414 . S
O983 C969 1.273 . S
O984 Nd960 2.410 . S
O984 C970 1.251 . S
O985 Nd961 2.424 . S
O985 C970 1.268 . S
O986 Nd961 2.500 . S
O986 C971 1.258 . S
O987 Nd961 2.492 . S
O987 C971 1.239 . S
O988 Nd961 2.487 . S
O988 C978 1.241 . S
O989 Nd960 2.414 . S
O989 Nd961 2.682 . S
O989 C978 1.273 . S
O990 Nd961 2.410 . S
O990 C979 1.251 . S
O991 Nd960 2.424 . S
O991 C979 1.268 . S
H992 C964 0.930 . S
H993 C965 0.929 . S
H994 C967 0.930 . S
H995 C968 0.958 . S
H996 C973 0.930 . S
H997 C974 0.929 . S
H998 C976 0.930 . S
H999 C977 0.929 . S
Nd1000 C1002 2.836 . S
Nd1000 O1020 2.500 . S
Nd1000 O1021 2.492 . S
Nd1000 O1022 2.487 . S
Nd1000 O1023 2.682 . S
Nd1000 O1024 2.410 . S
Nd1000 O1029 2.414 . S
Nd1000 O1031 2.424 . S
Nd1001 C1011 2.836 . S
Nd1001 O1023 2.414 . S
Nd1001 O1025 2.424 . S
Nd1001 O1026 2.500 . S
Nd1001 O1027 2.492 . S
Nd1001 O1028 2.487 . S
Nd1001 O1029 2.682 . S
Nd1001 O1030 2.410 . S
C1002 Nd1000 2.836 . S
C1002 C1003 1.498 1_554 S
C1002 O1020 1.258 . S
C1002 O1021 1.239 . S
C1003 C1002 1.498 1_556 S
C1003 C1004 1.366 . S
C1003 C1008 1.407 . S
C1004 C1003 1.366 . S
C1004 C1005 1.392 . S
C1004 H1032 0.930 . S
C1005 C1004 1.392 . S
C1005 C1006 1.398 . S
C1005 H1033 0.929 . S
C1006 C1005 1.398 . S
C1006 C1007 1.352 . S
C1007 C1006 1.352 . S
C1007 C1008 1.384 . S
C1007 H1034 0.930 . S
C1008 C1003 1.407 . S
C1008 C1007 1.384 . S
C1008 H1035 0.958 . S
C1009 O1022 1.241 . S
C1009 O1023 1.273 . S
C1010 O1024 1.251 . S
C1010 O1025 1.268 . S
C1011 Nd1001 2.836 . S
C1011 C1012 1.498 . S
C1011 O1026 1.258 . S
C1011 O1027 1.239 . S
C1012 C1011 1.498 . S
C1012 C1013 1.366 . S
C1012 C1017 1.407 . S
C1013 C1012 1.366 . S
C1013 C1014 1.392 . S
C1013 H1036 0.930 . S
C1014 C1013 1.392 . S
C1014 C1015 1.398 . S
C1014 H1037 0.929 . S
C1015 C1014 1.398 . S
C1015 C1016 1.352 . S
C1016 C1015 1.352 . S
C1016 C1017 1.384 . S
C1016 H1038 0.930 . S
C1017 C1012 1.407 . S
C1017 C1016 1.384 . S
C1017 H1039 0.929 . S
C1018 O1028 1.241 . S
C1018 O1029 1.273 . S
C1019 O1030 1.251 . S
C1019 O1031 1.268 . S
O1020 Nd1000 2.500 . S
O1020 C1002 1.258 . S
O1021 Nd1000 2.492 . S
O1021 C1002 1.239 . S
O1022 Nd1000 2.487 . S
O1022 C1009 1.241 . S
O1023 Nd1000 2.682 . S
O1023 Nd1001 2.414 . S
O1023 C1009 1.273 . S
O1024 Nd1000 2.410 . S
O1024 C1010 1.251 . S
O1025 Nd1001 2.424 . S
O1025 C1010 1.268 . S
O1026 Nd1001 2.500 . S
O1026 C1011 1.258 . S
O1027 Nd1001 2.492 . S
O1027 C1011 1.239 . S
O1028 Nd1001 2.487 . S
O1028 C1018 1.241 . S
O1029 Nd1000 2.414 . S
O1029 Nd1001 2.682 . S
O1029 C1018 1.273 . S
O1030 Nd1001 2.410 . S
O1030 C1019 1.251 . S
O1031 Nd1000 2.424 . S
O1031 C1019 1.268 . S
H1032 C1004 0.930 . S
H1033 C1005 0.929 . S
H1034 C1007 0.930 . S
H1035 C1008 0.958 . S
H1036 C1013 0.930 . S
H1037 C1014 0.929 . S
H1038 C1016 0.930 . S
H1039 C1017 0.929 . S
Nd1040 C1042 2.836 . S
Nd1040 O1060 2.500 . S
Nd1040 O1061 2.492 . S
Nd1040 O1062 2.487 . S
Nd1040 O1063 2.682 . S
Nd1040 O1064 2.410 . S
Nd1040 O1069 2.414 . S
Nd1040 O1071 2.424 . S
Nd1041 C1051 2.836 . S
Nd1041 O1063 2.414 . S
Nd1041 O1065 2.424 . S
Nd1041 O1066 2.500 . S
Nd1041 O1067 2.492 . S
Nd1041 O1068 2.487 . S
Nd1041 O1069 2.682 . S
Nd1041 O1070 2.410 . S
C1042 Nd1040 2.836 . S
C1042 C1043 1.498 . S
C1042 O1060 1.258 . S
C1042 O1061 1.239 . S
C1043 C1042 1.498 . S
C1043 C1044 1.366 . S
C1043 C1048 1.407 . S
C1044 C1043 1.366 . S
C1044 C1045 1.392 . S
C1044 H1072 0.930 . S
C1045 C1044 1.392 . S
C1045 C1046 1.398 . S
C1045 H1073 0.929 . S
C1046 C1045 1.398 . S
C1046 C1047 1.352 . S
C1047 C1046 1.352 . S
C1047 C1048 1.384 . S
C1047 H1074 0.930 . S
C1048 C1043 1.407 . S
C1048 C1047 1.384 . S
C1048 H1075 0.929 . S
C1049 O1062 1.241 . S
C1049 O1063 1.273 . S
C1050 O1064 1.251 . S
C1050 O1065 1.268 . S
C1051 Nd1041 2.836 . S
C1051 C1052 1.498 . S
C1051 O1066 1.258 . S
C1051 O1067 1.239 . S
C1052 C1051 1.498 . S
C1052 C1053 1.366 . S
C1052 C1057 1.407 . S
C1053 C1052 1.366 . S
C1053 C1054 1.392 . S
C1053 H1076 0.930 . S
C1054 C1053 1.392 . S
C1054 C1055 1.398 . S
C1054 H1077 0.929 . S
C1055 C1054 1.398 . S
C1055 C1056 1.352 . S
C1056 C1055 1.352 . S
C1056 C1057 1.384 . S
C1056 H1078 0.930 . S
C1057 C1052 1.407 . S
C1057 C1056 1.384 . S
C1057 H1079 0.929 . S
C1058 O1068 1.241 . S
C1058 O1069 1.273 . S
C1059 O1070 1.251 . S
C1059 O1071 1.268 . S
O1060 Nd1040 2.500 . S
O1060 C1042 1.258 . S
O1061 Nd1040 2.492 . S
O1061 C1042 1.239 . S
O1062 Nd1040 2.487 . S
O1062 C1049 1.241 . S
O1063 Nd1040 2.682 . S
O1063 Nd1041 2.414 . S
O1063 C1049 1.273 . S
O1064 Nd1040 2.410 . S
O1064 C1050 1.251 . S
O1065 Nd1041 2.424 . S
O1065 C1050 1.268 . S
O1066 Nd1041 2.500 . S
O1066 C1051 1.258 . S
O1067 Nd1041 2.492 . S
O1067 C1051 1.239 . S
O1068 Nd1041 2.487 . S
O1068 C1058 1.241 . S
O1069 Nd1040 2.414 . S
O1069 Nd1041 2.682 . S
O1069 C1058 1.273 . S
O1070 Nd1041 2.410 . S
O1070 C1059 1.251 . S
O1071 Nd1040 2.424 . S
O1071 C1059 1.268 . S
H1072 C1044 0.930 . S
H1073 C1045 0.929 . S
H1074 C1047 0.930 . S
H1075 C1048 0.929 . S
H1076 C1053 0.930 . S
H1077 C1054 0.929 . S
H1078 C1056 0.930 . S
H1079 C1057 0.929 . S
Nd1080 C1082 2.836 . S
Nd1080 O1100 2.500 . S
Nd1080 O1101 2.492 . S
Nd1080 O1102 2.487 . S
Nd1080 O1103 2.682 . S
Nd1080 O1104 2.410 . S
Nd1080 O1109 2.414 . S
Nd1080 O1111 2.424 . S
Nd1081 C1091 2.836 . S
Nd1081 O1103 2.414 . S
Nd1081 O1105 2.424 . S
Nd1081 O1106 2.500 . S
Nd1081 O1107 2.492 . S
Nd1081 O1108 2.487 . S
Nd1081 O1109 2.682 . S
Nd1081 O1110 2.410 . S
C1082 Nd1080 2.836 . S
C1082 C1083 1.498 . S
C1082 O1100 1.258 . S
C1082 O1101 1.239 . S
C1083 C1082 1.498 . S
C1083 C1084 1.366 . S
C1083 C1088 1.407 . S
C1084 C1083 1.366 . S
C1084 C1085 1.392 . S
C1084 H1112 0.930 . S
C1085 C1084 1.392 . S
C1085 C1086 1.398 . S
C1085 H1113 0.929 . S
C1086 C1085 1.398 . S
C1086 C1087 1.352 . S
C1087 C1086 1.352 . S
C1087 C1088 1.384 . S
C1087 H1114 0.930 . S
C1088 C1083 1.407 . S
C1088 C1087 1.384 . S
C1088 H1115 0.929 . S
C1089 O1102 1.241 . S
C1089 O1103 1.273 . S
C1090 O1104 1.251 . S
C1090 O1105 1.268 . S
C1091 Nd1081 2.836 . S
C1091 C1092 1.498 . S
C1091 O1106 1.258 . S
C1091 O1107 1.239 . S
C1092 C1091 1.498 . S
C1092 C1093 1.366 . S
C1092 C1097 1.407 . S
C1093 C1092 1.366 . S
C1093 C1094 1.392 . S
C1093 H1116 0.930 . S
C1094 C1093 1.392 . S
C1094 C1095 1.398 . S
C1094 H1117 0.929 . S
C1095 C1094 1.398 . S
C1095 C1096 1.352 . S
C1096 C1095 1.352 . S
C1096 C1097 1.384 . S
C1096 H1118 0.930 . S
C1097 C1092 1.407 . S
C1097 C1096 1.384 . S
C1097 H1119 0.929 . S
C1098 O1108 1.241 . S
C1098 O1109 1.273 . S
C1099 O1110 1.251 . S
C1099 O1111 1.268 . S
O1100 Nd1080 2.500 . S
O1100 C1082 1.258 . S
O1101 Nd1080 2.492 . S
O1101 C1082 1.239 . S
O1102 Nd1080 2.487 . S
O1102 C1089 1.241 . S
O1103 Nd1080 2.682 . S
O1103 Nd1081 2.414 . S
O1103 C1089 1.273 . S
O1104 Nd1080 2.410 . S
O1104 C1090 1.251 . S
O1105 Nd1081 2.424 . S
O1105 C1090 1.268 . S
O1106 Nd1081 2.500 . S
O1106 C1091 1.258 . S
O1107 Nd1081 2.492 . S
O1107 C1091 1.239 . S
O1108 Nd1081 2.487 . S
O1108 C1098 1.241 . S
O1109 Nd1080 2.414 . S
O1109 Nd1081 2.682 . S
O1109 C1098 1.273 . S
O1110 Nd1081 2.410 . S
O1110 C1099 1.251 . S
O1111 Nd1080 2.424 . S
O1111 C1099 1.268 . S
H1112 C1084 0.930 . S
H1113 C1085 0.929 . S
H1114 C1087 0.930 . S
H1115 C1088 0.929 . S
H1116 C1093 0.930 . S
H1117 C1094 0.929 . S
H1118 C1096 0.930 . S
H1119 C1097 0.929 . S
Nd1120 C1122 2.836 . S
Nd1120 O1140 2.500 . S
Nd1120 O1141 2.492 . S
Nd1120 O1142 2.487 . S
Nd1120 O1143 2.682 . S
Nd1120 O1144 2.410 . S
Nd1120 O1149 2.414 . S
Nd1120 O1151 2.424 . S
Nd1121 C1131 2.836 . S
Nd1121 O1143 2.414 . S
Nd1121 O1145 2.424 . S
Nd1121 O1146 2.500 . S
Nd1121 O1147 2.492 . S
Nd1121 O1148 2.487 . S
Nd1121 O1149 2.682 . S
Nd1121 O1150 2.410 . S
C1122 Nd1120 2.836 . S
C1122 C1123 1.498 . S
C1122 O1140 1.258 . S
C1122 O1141 1.239 . S
C1123 C1122 1.498 . S
C1123 C1124 1.366 . S
C1123 C1128 1.407 . S
C1124 C1123 1.366 . S
C1124 C1125 1.392 . S
C1124 H1152 0.930 . S
C1125 C1124 1.392 . S
C1125 C1126 1.398 . S
C1125 H1153 0.929 . S
C1126 C1125 1.398 . S
C1126 C1127 1.352 . S
C1127 C1126 1.352 . S
C1127 C1128 1.384 . S
C1127 H1154 0.930 . S
C1128 C1123 1.407 . S
C1128 C1127 1.384 . S
C1128 H1155 0.929 . S
C1129 O1142 1.241 . S
C1129 O1143 1.273 . S
C1130 O1144 1.251 . S
C1130 O1145 1.268 . S
C1131 Nd1121 2.836 . S
C1131 C1132 1.498 1_556 S
C1131 O1146 1.258 . S
C1131 O1147 1.239 . S
C1132 C1131 1.498 1_554 S
C1132 C1133 1.366 . S
C1132 C1137 1.407 . S
C1133 C1132 1.366 . S
C1133 C1134 1.392 . S
C1133 H1156 0.930 . S
C1134 C1133 1.392 . S
C1134 C1135 1.398 . S
C1134 H1157 0.929 . S
C1135 C1134 1.398 . S
C1135 C1136 1.352 . S
C1136 C1135 1.352 . S
C1136 C1137 1.384 . S
C1136 H1158 0.930 . S
C1137 C1132 1.407 . S
C1137 C1136 1.384 . S
C1137 H1159 0.958 . S
C1138 O1148 1.241 . S
C1138 O1149 1.273 . S
C1139 O1150 1.251 . S
C1139 O1151 1.268 . S
O1140 Nd1120 2.500 . S
O1140 C1122 1.258 . S
O1141 Nd1120 2.492 . S
O1141 C1122 1.239 . S
O1142 Nd1120 2.487 . S
O1142 C1129 1.241 . S
O1143 Nd1120 2.682 . S
O1143 Nd1121 2.414 . S
O1143 C1129 1.273 . S
O1144 Nd1120 2.410 . S
O1144 C1130 1.251 . S
O1145 Nd1121 2.424 . S
O1145 C1130 1.268 . S
O1146 Nd1121 2.500 . S
O1146 C1131 1.258 . S
O1147 Nd1121 2.492 . S
O1147 C1131 1.239 . S
O1148 Nd1121 2.487 . S
O1148 C1138 1.241 . S
O1149 Nd1120 2.414 . S
O1149 Nd1121 2.682 . S
O1149 C1138 1.273 . S
O1150 Nd1121 2.410 . S
O1150 C1139 1.251 . S
O1151 Nd1120 2.424 . S
O1151 C1139 1.268 . S
H1152 C1124 0.930 . S
H1153 C1125 0.929 . S
H1154 C1127 0.930 . S
H1155 C1128 0.929 . S
H1156 C1133 0.930 . S
H1157 C1134 0.929 . S
H1158 C1136 0.930 . S
H1159 C1137 0.958 . S
Nd1160 C1162 2.836 . S
Nd1160 O1180 2.500 . S
Nd1160 O1181 2.492 . S
Nd1160 O1182 2.487 . S
Nd1160 O1183 2.682 . S
Nd1160 O1184 2.410 . S
Nd1160 O1189 2.414 . S
Nd1160 O1191 2.424 . S
Nd1161 C1171 2.836 . S
Nd1161 O1183 2.414 . S
Nd1161 O1185 2.424 . S
Nd1161 O1186 2.500 . S
Nd1161 O1187 2.492 . S
Nd1161 O1188 2.487 . S
Nd1161 O1189 2.682 . S
Nd1161 O1190 2.410 . S
C1162 Nd1160 2.836 . S
C1162 C1163 1.498 . S
C1162 O1180 1.258 . S
C1162 O1181 1.239 . S
C1163 C1162 1.498 . S
C1163 C1164 1.366 . S
C1163 C1168 1.407 . S
C1164 C1163 1.366 . S
C1164 C1165 1.392 . S
C1164 H1192 0.930 . S
C1165 C1164 1.392 . S
C1165 C1166 1.398 . S
C1165 H1193 0.929 . S
C1166 C1165 1.398 . S
C1166 C1167 1.352 . S
C1167 C1166 1.352 . S
C1167 C1168 1.384 . S
C1167 H1194 0.930 . S
C1168 C1163 1.407 . S
C1168 C1167 1.384 . S
C1168 H1195 0.929 . S
C1169 O1182 1.241 . S
C1169 O1183 1.273 . S
C1170 O1184 1.251 . S
C1170 O1185 1.268 . S
C1171 Nd1161 2.836 . S
C1171 C1172 1.498 1_556 S
C1171 O1186 1.258 . S
C1171 O1187 1.239 . S
C1172 C1171 1.498 1_554 S
C1172 C1173 1.366 . S
C1172 C1177 1.407 . S
C1173 C1172 1.366 . S
C1173 C1174 1.392 . S
C1173 H1196 0.930 . S
C1174 C1173 1.392 . S
C1174 C1175 1.398 . S
C1174 H1197 0.929 . S
C1175 C1174 1.398 . S
C1175 C1176 1.352 . S
C1176 C1175 1.352 . S
C1176 C1177 1.384 . S
C1176 H1198 0.930 . S
C1177 C1172 1.407 . S
C1177 C1176 1.384 . S
C1177 H1199 0.958 . S
C1178 O1188 1.241 . S
C1178 O1189 1.273 . S
C1179 O1190 1.251 . S
C1179 O1191 1.268 . S
O1180 Nd1160 2.500 . S
O1180 C1162 1.258 . S
O1181 Nd1160 2.492 . S
O1181 C1162 1.239 . S
O1182 Nd1160 2.487 . S
O1182 C1169 1.241 . S
O1183 Nd1160 2.682 . S
O1183 Nd1161 2.414 . S
O1183 C1169 1.273 . S
O1184 Nd1160 2.410 . S
O1184 C1170 1.251 . S
O1185 Nd1161 2.424 . S
O1185 C1170 1.268 . S
O1186 Nd1161 2.500 . S
O1186 C1171 1.258 . S
O1187 Nd1161 2.492 . S
O1187 C1171 1.239 . S
O1188 Nd1161 2.487 . S
O1188 C1178 1.241 . S
O1189 Nd1160 2.414 . S
O1189 Nd1161 2.682 . S
O1189 C1178 1.273 . S
O1190 Nd1161 2.410 . S
O1190 C1179 1.251 . S
O1191 Nd1160 2.424 . S
O1191 C1179 1.268 . S
H1192 C1164 0.930 . S
H1193 C1165 0.929 . S
H1194 C1167 0.930 . S
H1195 C1168 0.929 . S
H1196 C1173 0.930 . S
H1197 C1174 0.929 . S
H1198 C1176 0.930 . S
H1199 C1177 0.958 . S
Nd1200 C1202 2.836 . S
Nd1200 O1220 2.500 . S
Nd1200 O1221 2.492 . S
Nd1200 O1222 2.487 . S
Nd1200 O1223 2.682 . S
Nd1200 O1224 2.410 . S
Nd1200 O1229 2.414 . S
Nd1200 O1231 2.424 . S
Nd1201 C1211 2.836 . S
Nd1201 O1223 2.414 . S
Nd1201 O1225 2.424 . S
Nd1201 O1226 2.500 . S
Nd1201 O1227 2.492 . S
Nd1201 O1228 2.487 . S
Nd1201 O1229 2.682 . S
Nd1201 O1230 2.410 . S
C1202 Nd1200 2.836 . S
C1202 C1203 1.498 . S
C1202 O1220 1.258 . S
C1202 O1221 1.239 . S
C1203 C1202 1.498 . S
C1203 C1204 1.366 . S
C1203 C1208 1.407 . S
C1204 C1203 1.366 . S
C1204 C1205 1.392 . S
C1204 H1232 0.930 . S
C1205 C1204 1.392 . S
C1205 C1206 1.398 . S
C1205 H1233 0.929 . S
C1206 C1205 1.398 . S
C1206 C1207 1.352 . S
C1207 C1206 1.352 . S
C1207 C1208 1.384 . S
C1207 H1234 0.930 . S
C1208 C1203 1.407 . S
C1208 C1207 1.384 . S
C1208 H1235 0.929 . S
C1209 O1222 1.241 . S
C1209 O1223 1.273 . S
C1210 O1224 1.251 . S
C1210 O1225 1.268 . S
C1211 Nd1201 2.836 . S
C1211 C1212 1.498 . S
C1211 O1226 1.258 . S
C1211 O1227 1.239 . S
C1212 C1211 1.498 . S
C1212 C1213 1.366 . S
C1212 C1217 1.407 . S
C1213 C1212 1.366 . S
C1213 C1214 1.392 . S
C1213 H1236 0.930 . S
C1214 C1213 1.392 . S
C1214 C1215 1.398 . S
C1214 H1237 0.929 . S
C1215 C1214 1.398 . S
C1215 C1216 1.352 . S
C1216 C1215 1.352 . S
C1216 C1217 1.384 . S
C1216 H1238 0.930 . S
C1217 C1212 1.407 . S
C1217 C1216 1.384 . S
C1217 H1239 0.929 . S
C1218 O1228 1.241 . S
C1218 O1229 1.273 . S
C1219 O1230 1.251 . S
C1219 O1231 1.268 . S
O1220 Nd1200 2.500 . S
O1220 C1202 1.258 . S
O1221 Nd1200 2.492 . S
O1221 C1202 1.239 . S
O1222 Nd1200 2.487 . S
O1222 C1209 1.241 . S
O1223 Nd1200 2.682 . S
O1223 Nd1201 2.414 . S
O1223 C1209 1.273 . S
O1224 Nd1200 2.410 . S
O1224 C1210 1.251 . S
O1225 Nd1201 2.424 . S
O1225 C1210 1.268 . S
O1226 Nd1201 2.500 . S
O1226 C1211 1.258 . S
O1227 Nd1201 2.492 . S
O1227 C1211 1.239 . S
O1228 Nd1201 2.487 . S
O1228 C1218 1.241 . S
O1229 Nd1200 2.414 . S
O1229 Nd1201 2.682 . S
O1229 C1218 1.273 . S
O1230 Nd1201 2.410 . S
O1230 C1219 1.251 . S
O1231 Nd1200 2.424 . S
O1231 C1219 1.268 . S
H1232 C1204 0.930 . S
H1233 C1205 0.929 . S
H1234 C1207 0.930 . S
H1235 C1208 0.929 . S
H1236 C1213 0.930 . S
H1237 C1214 0.929 . S
H1238 C1216 0.930 . S
H1239 C1217 0.929 . S
Nd1240 C1242 2.836 . S
Nd1240 O1260 2.500 . S
Nd1240 O1261 2.492 . S
Nd1240 O1262 2.487 . S
Nd1240 O1263 2.682 . S
Nd1240 O1264 2.410 . S
Nd1240 O1269 2.414 . S
Nd1240 O1271 2.424 . S
Nd1241 C1251 2.836 . S
Nd1241 O1263 2.414 . S
Nd1241 O1265 2.424 . S
Nd1241 O1266 2.500 . S
Nd1241 O1267 2.492 . S
Nd1241 O1268 2.487 . S
Nd1241 O1269 2.682 . S
Nd1241 O1270 2.410 . S
C1242 Nd1240 2.836 . S
C1242 C1243 1.498 . S
C1242 O1260 1.258 . S
C1242 O1261 1.239 . S
C1243 C1242 1.498 . S
C1243 C1244 1.366 . S
C1243 C1248 1.407 . S
C1244 C1243 1.366 . S
C1244 C1245 1.392 . S
C1244 H1272 0.930 . S
C1245 C1244 1.392 . S
C1245 C1246 1.398 . S
C1245 H1273 0.929 . S
C1246 C1245 1.398 . S
C1246 C1247 1.352 . S
C1247 C1246 1.352 . S
C1247 C1248 1.384 . S
C1247 H1274 0.930 . S
C1248 C1243 1.407 . S
C1248 C1247 1.384 . S
C1248 H1275 0.929 . S
C1249 O1262 1.241 . S
C1249 O1263 1.273 . S
C1250 O1264 1.251 . S
C1250 O1265 1.268 . S
C1251 Nd1241 2.836 . S
C1251 C1252 1.498 . S
C1251 O1266 1.258 . S
C1251 O1267 1.239 . S
C1252 C1251 1.498 . S
C1252 C1253 1.366 . S
C1252 C1257 1.407 . S
C1253 C1252 1.366 . S
C1253 C1254 1.392 . S
C1253 H1276 0.930 . S
C1254 C1253 1.392 . S
C1254 C1255 1.398 . S
C1254 H1277 0.929 . S
C1255 C1254 1.398 . S
C1255 C1256 1.352 . S
C1256 C1255 1.352 . S
C1256 C1257 1.384 . S
C1256 H1278 0.930 . S
C1257 C1252 1.407 . S
C1257 C1256 1.384 . S
C1257 H1279 0.929 . S
C1258 O1268 1.241 . S
C1258 O1269 1.273 . S
C1259 O1270 1.251 . S
C1259 O1271 1.268 . S
O1260 Nd1240 2.500 . S
O1260 C1242 1.258 . S
O1261 Nd1240 2.492 . S
O1261 C1242 1.239 . S
O1262 Nd1240 2.487 . S
O1262 C1249 1.241 . S
O1263 Nd1240 2.682 . S
O1263 Nd1241 2.414 . S
O1263 C1249 1.273 . S
O1264 Nd1240 2.410 . S
O1264 C1250 1.251 . S
O1265 Nd1241 2.424 . S
O1265 C1250 1.268 . S
O1266 Nd1241 2.500 . S
O1266 C1251 1.258 . S
O1267 Nd1241 2.492 . S
O1267 C1251 1.239 . S
O1268 Nd1241 2.487 . S
O1268 C1258 1.241 . S
O1269 Nd1240 2.414 . S
O1269 Nd1241 2.682 . S
O1269 C1258 1.273 . S
O1270 Nd1241 2.410 . S
O1270 C1259 1.251 . S
O1271 Nd1240 2.424 . S
O1271 C1259 1.268 . S
H1272 C1244 0.930 . S
H1273 C1245 0.929 . S
H1274 C1247 0.930 . S
H1275 C1248 0.929 . S
H1276 C1253 0.930 . S
H1277 C1254 0.929 . S
H1278 C1256 0.930 . S
H1279 C1257 0.929 . S
H1280 C1288 0.950 . S
H1281 C1293 0.950 . S
H1282 C1290 0.950 . S
H1283 C1292 0.950 . S
H1284 C1294 0.950 . S
H1285 C1296 0.950 . S
H1286 C1298 0.950 . S
H1287 C1299 0.950 . S
C1288 H1280 0.950 . S
C1288 C1289 1.386 . S
C1288 C1290 1.391 . S
C1289 C1288 1.386 . S
C1289 C1293 1.393 . S
C1290 H1282 0.950 . S
C1290 C1288 1.391 . S
C1290 C1291 1.400 . S
C1291 C1290 1.400 . S
C1291 C1292 1.398 . S
C1291 C1297 1.491 . S
C1292 H1283 0.950 . S
C1292 C1291 1.398 . S
C1292 C1293 1.391 . S
C1293 H1281 0.950 . S
C1293 C1289 1.393 . S
C1293 C1292 1.391 . S
C1294 H1284 0.950 . S
C1294 C1295 1.386 . S
C1294 C1296 1.391 . S
C1295 C1294 1.386 . S
C1295 C1299 1.393 . S
C1296 H1285 0.950 . S
C1296 C1294 1.391 . S
C1296 C1297 1.400 . S
C1297 C1291 1.491 . S
C1297 C1296 1.400 . S
C1297 C1298 1.398 . S
C1298 H1286 0.950 . S
C1298 C1297 1.398 . S
C1298 C1299 1.391 . S
C1299 H1287 0.950 . S
C1299 C1295 1.393 . S
C1299 C1298 1.391 . S
H1300 C1308 0.950 . S
H1301 C1313 0.950 . S
H1302 C1310 0.950 . S
H1303 C1312 0.950 . S
H1304 C1314 0.950 . S
H1305 C1316 0.950 . S
H1306 C1318 0.950 . S
H1307 C1319 0.950 . S
C1308 H1300 0.950 . S
C1308 C1309 1.386 . S
C1308 C1310 1.391 . S
C1309 C1308 1.386 . S
C1309 C1313 1.393 . S
C1310 H1302 0.950 . S
C1310 C1308 1.391 . S
C1310 C1311 1.400 . S
C1311 C1310 1.400 . S
C1311 C1312 1.398 . S
C1311 C1317 1.491 . S
C1312 H1303 0.950 . S
C1312 C1311 1.398 . S
C1312 C1313 1.391 . S
C1313 H1301 0.950 . S
C1313 C1309 1.393 . S
C1313 C1312 1.391 . S
C1314 H1304 0.950 . S
C1314 C1315 1.386 . S
C1314 C1316 1.391 . S
C1315 C1314 1.386 . S
C1315 C1319 1.393 . S
C1316 H1305 0.950 . S
C1316 C1314 1.391 . S
C1316 C1317 1.400 . S
C1317 C1311 1.491 . S
C1317 C1316 1.400 . S
C1317 C1318 1.398 . S
C1318 H1306 0.950 . S
C1318 C1317 1.398 . S
C1318 C1319 1.391 . S
C1319 H1307 0.950 . S
C1319 C1315 1.393 . S
C1319 C1318 1.391 . S
H1320 C1328 0.950 . S
H1321 C1333 0.950 . S
H1322 C1330 0.950 . S
H1323 C1332 0.950 . S
H1324 C1334 0.950 . S
H1325 C1336 0.950 . S
H1326 C1338 0.950 . S
H1327 C1339 0.950 . S
C1328 H1320 0.950 . S
C1328 C1329 1.386 . S
C1328 C1330 1.391 . S
C1329 C1328 1.386 . S
C1329 C1333 1.393 . S
C1330 H1322 0.950 . S
C1330 C1328 1.391 . S
C1330 C1331 1.400 . S
C1331 C1330 1.400 . S
C1331 C1332 1.398 . S
C1331 C1337 1.491 . S
C1332 H1323 0.950 . S
C1332 C1331 1.398 . S
C1332 C1333 1.391 . S
C1333 H1321 0.950 . S
C1333 C1329 1.393 . S
C1333 C1332 1.391 . S
C1334 H1324 0.950 . S
C1334 C1335 1.386 . S
C1334 C1336 1.391 . S
C1335 C1334 1.386 . S
C1335 C1339 1.393 . S
C1336 H1325 0.950 . S
C1336 C1334 1.391 . S
C1336 C1337 1.400 . S
C1337 C1331 1.491 . S
C1337 C1336 1.400 . S
C1337 C1338 1.398 . S
C1338 H1326 0.950 . S
C1338 C1337 1.398 . S
C1338 C1339 1.391 . S
C1339 H1327 0.950 . S
C1339 C1335 1.393 . S
C1339 C1338 1.391 . S
H1340 C1348 0.950 . S
H1341 C1353 0.950 . S
H1342 C1350 0.950 . S
H1343 C1352 0.950 . S
H1344 C1354 0.950 . S
H1345 C1356 0.950 . S
H1346 C1358 0.950 . S
H1347 C1359 0.950 . S
C1348 H1340 0.950 . S
C1348 C1349 1.386 . S
C1348 C1350 1.391 . S
C1349 C1348 1.386 . S
C1349 C1353 1.393 . S
C1350 H1342 0.950 . S
C1350 C1348 1.391 . S
C1350 C1351 1.400 . S
C1351 C1350 1.400 . S
C1351 C1352 1.398 . S
C1351 C1357 1.491 . S
C1352 H1343 0.950 . S
C1352 C1351 1.398 . S
C1352 C1353 1.391 . S
C1353 H1341 0.950 . S
C1353 C1349 1.393 . S
C1353 C1352 1.391 . S
C1354 H1344 0.950 . S
C1354 C1355 1.386 . S
C1354 C1356 1.391 . S
C1355 C1354 1.386 . S
C1355 C1359 1.393 . S
C1356 H1345 0.950 . S
C1356 C1354 1.391 . S
C1356 C1357 1.400 . S
C1357 C1351 1.491 . S
C1357 C1356 1.400 . S
C1357 C1358 1.398 . S
C1358 H1346 0.950 . S
C1358 C1357 1.398 . S
C1358 C1359 1.391 . S
C1359 H1347 0.950 . S
C1359 C1355 1.393 . S
C1359 C1358 1.391 . S
H1360 C1368 0.950 . S
H1361 C1373 0.950 . S
H1362 C1370 0.950 . S
H1363 C1372 0.950 . S
H1364 C1374 0.950 . S
H1365 C1376 0.950 . S
H1366 C1378 0.950 . S
H1367 C1379 0.950 . S
C1368 H1360 0.950 . S
C1368 C1369 1.386 . S
C1368 C1370 1.391 . S
C1369 C1368 1.386 . S
C1369 C1373 1.393 . S
C1370 H1362 0.950 . S
C1370 C1368 1.391 . S
C1370 C1371 1.400 . S
C1371 C1370 1.400 . S
C1371 C1372 1.398 . S
C1371 C1377 1.491 . S
C1372 H1363 0.950 . S
C1372 C1371 1.398 . S
C1372 C1373 1.391 . S
C1373 H1361 0.950 . S
C1373 C1369 1.393 . S
C1373 C1372 1.391 . S
C1374 H1364 0.950 . S
C1374 C1375 1.386 . S
C1374 C1376 1.391 . S
C1375 C1374 1.386 . S
C1375 C1379 1.393 . S
C1376 H1365 0.950 . S
C1376 C1374 1.391 . S
C1376 C1377 1.400 . S
C1377 C1371 1.491 . S
C1377 C1376 1.400 . S
C1377 C1378 1.398 . S
C1378 H1366 0.950 . S
C1378 C1377 1.398 . S
C1378 C1379 1.391 . S
C1379 H1367 0.950 . S
C1379 C1375 1.393 . S
C1379 C1378 1.391 . S
H1380 C1388 0.950 . S
H1381 C1393 0.950 . S
H1382 C1390 0.950 . S
H1383 C1392 0.950 . S
H1384 C1394 0.950 . S
H1385 C1396 0.950 . S
H1386 C1398 0.950 . S
H1387 C1399 0.950 . S
C1388 H1380 0.950 . S
C1388 C1389 1.386 . S
C1388 C1390 1.391 . S
C1389 C1388 1.386 . S
C1389 C1393 1.393 . S
C1390 H1382 0.950 . S
C1390 C1388 1.391 . S
C1390 C1391 1.400 . S
C1391 C1390 1.400 . S
C1391 C1392 1.398 . S
C1391 C1397 1.491 . S
C1392 H1383 0.950 . S
C1392 C1391 1.398 . S
C1392 C1393 1.391 . S
C1393 H1381 0.950 . S
C1393 C1389 1.393 . S
C1393 C1392 1.391 . S
C1394 H1384 0.950 . S
C1394 C1395 1.386 . S
C1394 C1396 1.391 . S
C1395 C1394 1.386 . S
C1395 C1399 1.393 . S
C1396 H1385 0.950 . S
C1396 C1394 1.391 . S
C1396 C1397 1.400 . S
C1397 C1391 1.491 . S
C1397 C1396 1.400 . S
C1397 C1398 1.398 . S
C1398 H1386 0.950 . S
C1398 C1397 1.398 . S
C1398 C1399 1.391 . S
C1399 H1387 0.950 . S
C1399 C1395 1.393 . S
C1399 C1398 1.391 . S
H1400 C1408 0.950 . S
H1401 C1413 0.950 . S
H1402 C1410 0.950 . S
H1403 C1412 0.950 . S
H1404 C1414 0.950 . S
H1405 C1416 0.950 . S
H1406 C1418 0.950 . S
H1407 C1419 0.950 . S
C1408 H1400 0.950 . S
C1408 C1409 1.386 . S
C1408 C1410 1.391 . S
C1409 C1408 1.386 . S
C1409 C1413 1.393 . S
C1410 H1402 0.950 . S
C1410 C1408 1.391 . S
C1410 C1411 1.400 . S
C1411 C1410 1.400 . S
C1411 C1412 1.398 . S
C1411 C1417 1.491 . S
C1412 H1403 0.950 . S
C1412 C1411 1.398 . S
C1412 C1413 1.391 . S
C1413 H1401 0.950 . S
C1413 C1409 1.393 . S
C1413 C1412 1.391 . S
C1414 H1404 0.950 . S
C1414 C1415 1.386 . S
C1414 C1416 1.391 . S
C1415 C1414 1.386 . S
C1415 C1419 1.393 . S
C1416 H1405 0.950 . S
C1416 C1414 1.391 . S
C1416 C1417 1.400 . S
C1417 C1411 1.491 . S
C1417 C1416 1.400 . S
C1417 C1418 1.398 . S
C1418 H1406 0.950 . S
C1418 C1417 1.398 . S
C1418 C1419 1.391 . S
C1419 H1407 0.950 . S
C1419 C1415 1.393 . S
C1419 C1418 1.391 . S
H1420 C1428 0.950 . S
H1421 C1433 0.950 . S
H1422 C1430 0.950 . S
H1423 C1432 0.950 . S
H1424 C1434 0.950 . S
H1425 C1436 0.950 . S
H1426 C1438 0.950 . S
H1427 C1439 0.950 . S
C1428 H1420 0.950 . S
C1428 C1429 1.386 . S
C1428 C1430 1.391 . S
C1429 C1428 1.386 . S
C1429 C1433 1.393 . S
C1430 H1422 0.950 . S
C1430 C1428 1.391 . S
C1430 C1431 1.400 . S
C1431 C1430 1.400 . S
C1431 C1432 1.398 . S
C1431 C1437 1.491 . S
C1432 H1423 0.950 . S
C1432 C1431 1.398 . S
C1432 C1433 1.391 . S
C1433 H1421 0.950 . S
C1433 C1429 1.393 . S
C1433 C1432 1.391 . S
C1434 H1424 0.950 . S
C1434 C1435 1.386 . S
C1434 C1436 1.391 . S
C1435 C1434 1.386 . S
C1435 C1439 1.393 . S
C1436 H1425 0.950 . S
C1436 C1434 1.391 . S
C1436 C1437 1.400 . S
C1437 C1431 1.491 . S
C1437 C1436 1.400 . S
C1437 C1438 1.398 . S
C1438 H1426 0.950 . S
C1438 C1437 1.398 . S
C1438 C1439 1.391 . S
C1439 H1427 0.950 . S
C1439 C1435 1.393 . S
C1439 C1438 1.391 . S
H1440 C1448 0.950 . S
H1441 C1453 0.950 . S
H1442 C1450 0.950 . S
H1443 C1452 0.950 . S
H1444 C1454 0.950 . S
H1445 C1456 0.950 . S
H1446 C1458 0.950 . S
H1447 C1459 0.950 . S
C1448 H1440 0.950 . S
C1448 C1449 1.386 . S
C1448 C1450 1.391 . S
C1449 C1448 1.386 . S
C1449 C1453 1.393 . S
C1450 H1442 0.950 . S
C1450 C1448 1.391 . S
C1450 C1451 1.400 . S
C1451 C1450 1.400 . S
C1451 C1452 1.398 . S
C1451 C1457 1.491 . S
C1452 H1443 0.950 . S
C1452 C1451 1.398 . S
C1452 C1453 1.391 . S
C1453 H1441 0.950 . S
C1453 C1449 1.393 . S
C1453 C1452 1.391 . S
C1454 H1444 0.950 . S
C1454 C1455 1.386 . S
C1454 C1456 1.391 . S
C1455 C1454 1.386 . S
C1455 C1459 1.393 . S
C1456 H1445 0.950 . S
C1456 C1454 1.391 . S
C1456 C1457 1.400 . S
C1457 C1451 1.491 . S
C1457 C1456 1.400 . S
C1457 C1458 1.398 . S
C1458 H1446 0.950 . S
C1458 C1457 1.398 . S
C1458 C1459 1.391 . S
C1459 H1447 0.950 . S
C1459 C1455 1.393 . S
C1459 C1458 1.391 . S
H1460 C1468 0.950 . S
H1461 C1473 0.950 . S
H1462 C1470 0.950 . S
H1463 C1472 0.950 . S
H1464 C1474 0.950 . S
H1465 C1476 0.950 . S
H1466 C1478 0.950 . S
H1467 C1479 0.950 . S
C1468 H1460 0.950 . S
C1468 C1469 1.386 . S
C1468 C1470 1.391 . S
C1469 C1468 1.386 . S
C1469 C1473 1.393 . S
C1470 H1462 0.950 . S
C1470 C1468 1.391 . S
C1470 C1471 1.400 . S
C1471 C1470 1.400 . S
C1471 C1472 1.398 . S
C1471 C1477 1.491 . S
C1472 H1463 0.950 . S
C1472 C1471 1.398 . S
C1472 C1473 1.391 . S
C1473 H1461 0.950 . S
C1473 C1469 1.393 . S
C1473 C1472 1.391 . S
C1474 H1464 0.950 . S
C1474 C1475 1.386 . S
C1474 C1476 1.391 . S
C1475 C1474 1.386 . S
C1475 C1479 1.393 . S
C1476 H1465 0.950 . S
C1476 C1474 1.391 . S
C1476 C1477 1.400 . S
C1477 C1471 1.491 . S
C1477 C1476 1.400 . S
C1477 C1478 1.398 . S
C1478 H1466 0.950 . S
C1478 C1477 1.398 . S
C1478 C1479 1.391 . S
C1479 H1467 0.950 . S
C1479 C1475 1.393 . S
C1479 C1478 1.391 . S
H1480 C1488 0.950 . S
H1481 C1493 0.950 . S
H1482 C1490 0.950 . S
H1483 C1492 0.950 . S
H1484 C1494 0.950 . S
H1485 C1496 0.950 . S
H1486 C1498 0.950 . S
H1487 C1499 0.950 . S
C1488 H1480 0.950 . S
C1488 C1489 1.386 . S
C1488 C1490 1.391 . S
C1489 C1488 1.386 . S
C1489 C1493 1.393 . S
C1490 H1482 0.950 . S
C1490 C1488 1.391 . S
C1490 C1491 1.400 . S
C1491 C1490 1.400 . S
C1491 C1492 1.398 . S
C1491 C1497 1.491 . S
C1492 H1483 0.950 . S
C1492 C1491 1.398 . S
C1492 C1493 1.391 . S
C1493 H1481 0.950 . S
C1493 C1489 1.393 . S
C1493 C1492 1.391 . S
C1494 H1484 0.950 . S
C1494 C1495 1.386 . S
C1494 C1496 1.391 . S
C1495 C1494 1.386 . S
C1495 C1499 1.393 . S
C1496 H1485 0.950 . S
C1496 C1494 1.391 . S
C1496 C1497 1.400 . S
C1497 C1491 1.491 . S
C1497 C1496 1.400 . S
C1497 C1498 1.398 . S
C1498 H1486 0.950 . S
C1498 C1497 1.398 . S
C1498 C1499 1.391 . S
C1499 H1487 0.950 . S
C1499 C1495 1.393 . S
C1499 C1498 1.391 . S
H1500 C1508 0.950 . S
H1501 C1513 0.950 . S
H1502 C1510 0.950 . S
H1503 C1512 0.950 . S
H1504 C1514 0.950 . S
H1505 C1516 0.950 . S
H1506 C1518 0.950 . S
H1507 C1519 0.950 . S
C1508 H1500 0.950 . S
C1508 C1509 1.386 . S
C1508 C1510 1.391 . S
C1509 C1508 1.386 . S
C1509 C1513 1.393 . S
C1510 H1502 0.950 . S
C1510 C1508 1.391 . S
C1510 C1511 1.400 . S
C1511 C1510 1.400 . S
C1511 C1512 1.398 . S
C1511 C1517 1.491 . S
C1512 H1503 0.950 . S
C1512 C1511 1.398 . S
C1512 C1513 1.391 . S
C1513 H1501 0.950 . S
C1513 C1509 1.393 . S
C1513 C1512 1.391 . S
C1514 H1504 0.950 . S
C1514 C1515 1.386 . S
C1514 C1516 1.391 . S
C1515 C1514 1.386 . S
C1515 C1519 1.393 . S
C1516 H1505 0.950 . S
C1516 C1514 1.391 . S
C1516 C1517 1.400 . S
C1517 C1511 1.491 . S
C1517 C1516 1.400 . S
C1517 C1518 1.398 . S
C1518 H1506 0.950 . S
C1518 C1517 1.398 . S
C1518 C1519 1.391 . S
C1519 H1507 0.950 . S
C1519 C1515 1.393 . S
C1519 C1518 1.391 . S
H1520 C1528 0.950 . S
H1521 C1533 0.950 . S
H1522 C1530 0.950 . S
H1523 C1532 0.950 . S
H1524 C1534 0.950 . S
H1525 C1536 0.950 . S
H1526 C1538 0.950 . S
H1527 C1539 0.950 . S
C1528 H1520 0.950 . S
C1528 C1529 1.386 . S
C1528 C1530 1.391 . S
C1529 C1528 1.386 . S
C1529 C1533 1.393 . S
C1530 H1522 0.950 . S
C1530 C1528 1.391 . S
C1530 C1531 1.400 . S
C1531 C1530 1.400 . S
C1531 C1532 1.398 . S
C1531 C1537 1.491 . S
C1532 H1523 0.950 . S
C1532 C1531 1.398 . S
C1532 C1533 1.391 . S
C1533 H1521 0.950 . S
C1533 C1529 1.393 . S
C1533 C1532 1.391 . S
C1534 H1524 0.950 . S
C1534 C1535 1.386 . S
C1534 C1536 1.391 . S
C1535 C1534 1.386 . S
C1535 C1539 1.393 . S
C1536 H1525 0.950 . S
C1536 C1534 1.391 . S
C1536 C1537 1.400 . S
C1537 C1531 1.491 . S
C1537 C1536 1.400 . S
C1537 C1538 1.398 . S
C1538 H1526 0.950 . S
C1538 C1537 1.398 . S
C1538 C1539 1.391 . S
C1539 H1527 0.950 . S
C1539 C1535 1.393 . S
C1539 C1538 1.391 . S
H1540 C1548 0.950 . S
H1541 C1553 0.950 . S
H1542 C1550 0.950 . S
H1543 C1552 0.950 . S
H1544 C1554 0.950 . S
H1545 C1556 0.950 . S
H1546 C1558 0.950 . S
H1547 C1559 0.950 . S
C1548 H1540 0.950 . S
C1548 C1549 1.386 . S
C1548 C1550 1.391 . S
C1549 C1548 1.386 . S
C1549 C1553 1.393 . S
C1550 H1542 0.950 . S
C1550 C1548 1.391 . S
C1550 C1551 1.400 . S
C1551 C1550 1.400 . S
C1551 C1552 1.398 . S
C1551 C1557 1.491 . S
C1552 H1543 0.950 . S
C1552 C1551 1.398 . S
C1552 C1553 1.391 . S
C1553 H1541 0.950 . S
C1553 C1549 1.393 . S
C1553 C1552 1.391 . S
C1554 H1544 0.950 . S
C1554 C1555 1.386 . S
C1554 C1556 1.391 . S
C1555 C1554 1.386 . S
C1555 C1559 1.393 . S
C1556 H1545 0.950 . S
C1556 C1554 1.391 . S
C1556 C1557 1.400 . S
C1557 C1551 1.491 . S
C1557 C1556 1.400 . S
C1557 C1558 1.398 . S
C1558 H1546 0.950 . S
C1558 C1557 1.398 . S
C1558 C1559 1.391 . S
C1559 H1547 0.950 . S
C1559 C1555 1.393 . S
C1559 C1558 1.391 . S
H1560 C1568 0.950 . S
H1561 C1573 0.950 . S
H1562 C1570 0.950 . S
H1563 C1572 0.950 . S
H1564 C1574 0.950 . S
H1565 C1576 0.950 . S
H1566 C1578 0.950 . S
H1567 C1579 0.950 . S
C1568 H1560 0.950 . S
C1568 C1569 1.386 . S
C1568 C1570 1.391 . S
C1569 C1568 1.386 . S
C1569 C1573 1.393 . S
C1570 H1562 0.950 . S
C1570 C1568 1.391 . S
C1570 C1571 1.400 . S
C1571 C1570 1.400 . S
C1571 C1572 1.398 . S
C1571 C1577 1.491 . S
C1572 H1563 0.950 . S
C1572 C1571 1.398 . S
C1572 C1573 1.391 . S
C1573 H1561 0.950 . S
C1573 C1569 1.393 . S
C1573 C1572 1.391 . S
C1574 H1564 0.950 . S
C1574 C1575 1.386 . S
C1574 C1576 1.391 . S
C1575 C1574 1.386 . S
C1575 C1579 1.393 . S
C1576 H1565 0.950 . S
C1576 C1574 1.391 . S
C1576 C1577 1.400 . S
C1577 C1571 1.491 . S
C1577 C1576 1.400 . S
C1577 C1578 1.398 . S
C1578 H1566 0.950 . S
C1578 C1577 1.398 . S
C1578 C1579 1.391 . S
C1579 H1567 0.950 . S
C1579 C1575 1.393 . S
C1579 C1578 1.391 . S
H1580 C1588 0.950 . S
H1581 C1593 0.950 . S
H1582 C1590 0.950 . S
H1583 C1592 0.950 . S
H1584 C1594 0.950 . S
H1585 C1596 0.950 . S
H1586 C1598 0.950 . S
H1587 C1599 0.950 . S
C1588 H1580 0.950 . S
C1588 C1589 1.386 . S
C1588 C1590 1.391 . S
C1589 C1588 1.386 . S
C1589 C1593 1.393 . S
C1590 H1582 0.950 . S
C1590 C1588 1.391 . S
C1590 C1591 1.400 . S
C1591 C1590 1.400 . S
C1591 C1592 1.398 . S
C1591 C1597 1.491 . S
C1592 H1583 0.950 . S
C1592 C1591 1.398 . S
C1592 C1593 1.391 . S
C1593 H1581 0.950 . S
C1593 C1589 1.393 . S
C1593 C1592 1.391 . S
C1594 H1584 0.950 . S
C1594 C1595 1.386 . S
C1594 C1596 1.391 . S
C1595 C1594 1.386 . S
C1595 C1599 1.393 . S
C1596 H1585 0.950 . S
C1596 C1594 1.391 . S
C1596 C1597 1.400 . S
C1597 C1591 1.491 . S
C1597 C1596 1.400 . S
C1597 C1598 1.398 . S
C1598 H1586 0.950 . S
C1598 C1597 1.398 . S
C1598 C1599 1.391 . S
C1599 H1587 0.950 . S
C1599 C1595 1.393 . S
C1599 C1598 1.391 . S
H1600 C1608 0.950 . S
H1601 C1613 0.950 . S
H1602 C1610 0.950 . S
H1603 C1612 0.950 . S
H1604 C1614 0.950 . S
H1605 C1616 0.950 . S
H1606 C1618 0.950 . S
H1607 C1619 0.950 . S
C1608 H1600 0.950 . S
C1608 C1609 1.386 . S
C1608 C1610 1.392 . S
C1609 C1608 1.386 . S
C1609 C1613 1.393 . S
C1610 H1602 0.950 . S
C1610 C1608 1.392 . S
C1610 C1611 1.400 . S
C1611 C1610 1.400 . S
C1611 C1612 1.399 . S
C1611 C1617 1.490 1_565 S
C1612 H1603 0.950 . S
C1612 C1611 1.399 . S
C1612 C1613 1.391 . S
C1613 H1601 0.950 . S
C1613 C1609 1.393 . S
C1613 C1612 1.391 . S
C1614 H1604 0.950 . S
C1614 C1615 1.386 . S
C1614 C1616 1.392 . S
C1615 C1614 1.386 . S
C1615 C1619 1.393 . S
C1616 H1605 0.950 . S
C1616 C1614 1.392 . S
C1616 C1617 1.400 . S
C1617 C1611 1.490 1_545 S
C1617 C1616 1.400 . S
C1617 C1618 1.399 . S
C1618 H1606 0.950 . S
C1618 C1617 1.399 . S
C1618 C1619 1.391 . S
C1619 H1607 0.950 . S
C1619 C1615 1.393 . S
C1619 C1618 1.391 . S
H1620 C1628 0.950 . S
H1621 C1633 0.950 . S
H1622 C1630 0.950 1_655 S
H1623 C1632 0.950 . S
H1624 C1634 0.950 . S
H1625 C1636 0.950 1_455 S
H1626 C1638 0.950 . S
H1627 C1639 0.950 . S
C1628 H1620 0.950 . S
C1628 C1629 1.386 . S
C1628 C1630 1.391 . S
C1629 C1628 1.386 . S
C1629 C1633 1.393 . S
C1630 H1622 0.950 1_455 S
C1630 C1628 1.391 . S
C1630 C1631 1.400 . S
C1631 C1630 1.400 . S
C1631 C1632 1.398 . S
C1631 C1637 1.491 1_455 S
C1632 H1623 0.950 . S
C1632 C1631 1.398 . S
C1632 C1633 1.391 . S
C1633 H1621 0.950 . S
C1633 C1629 1.393 . S
C1633 C1632 1.391 . S
C1634 H1624 0.950 . S
C1634 C1635 1.386 . S
C1634 C1636 1.391 . S
C1635 C1634 1.386 . S
C1635 C1639 1.393 . S
C1636 H1625 0.950 1_655 S
C1636 C1634 1.391 . S
C1636 C1637 1.400 . S
C1637 C1631 1.491 1_655 S
C1637 C1636 1.400 . S
C1637 C1638 1.398 . S
C1638 H1626 0.950 . S
C1638 C1637 1.398 . S
C1638 C1639 1.391 . S
C1639 H1627 0.950 . S
C1639 C1635 1.393 . S
C1639 C1638 1.391 . S
H1640 C1648 0.950 . S
H1641 C1653 0.950 . S
H1642 C1650 0.950 1_554 S
H1643 C1652 0.950 . S
H1644 C1654 0.950 . S
H1645 C1656 0.950 1_556 S
H1646 C1658 0.950 . S
H1647 C1659 0.950 . S
C1648 H1640 0.950 . S
C1648 C1649 1.386 . S
C1648 C1650 1.391 . S
C1649 C1648 1.386 . S
C1649 C1653 1.393 . S
C1650 H1642 0.950 1_556 S
C1650 C1648 1.391 . S
C1650 C1651 1.400 . S
C1651 C1650 1.400 . S
C1651 C1652 1.398 . S
C1651 C1657 1.491 1_556 S
C1652 H1643 0.950 . S
C1652 C1651 1.398 . S
C1652 C1653 1.391 . S
C1653 H1641 0.950 . S
C1653 C1649 1.393 . S
C1653 C1652 1.391 . S
C1654 H1644 0.950 . S
C1654 C1655 1.386 . S
C1654 C1656 1.391 . S
C1655 C1654 1.386 . S
C1655 C1659 1.393 . S
C1656 H1645 0.950 1_554 S
C1656 C1654 1.391 . S
C1656 C1657 1.400 . S
C1657 C1651 1.491 1_554 S
C1657 C1656 1.400 . S
C1657 C1658 1.398 . S
C1658 H1646 0.950 . S
C1658 C1657 1.398 . S
C1658 C1659 1.391 . S
C1659 H1647 0.950 . S
C1659 C1655 1.393 . S
C1659 C1658 1.391 . S
H1660 C1668 0.950 . S
H1661 C1673 0.950 . S
H1662 C1670 0.950 1_556 S
H1663 C1672 0.950 1_455 S
H1664 C1674 0.950 . S
H1665 C1676 0.950 1_554 S
H1666 C1678 0.950 1_655 S
H1667 C1679 0.950 . S
C1668 H1660 0.950 . S
C1668 C1669 1.396 . S
C1668 C1670 1.391 . S
C1669 C1668 1.396 . S
C1669 C1673 1.383 1_545 S
C1670 H1662 0.950 1_554 S
C1670 C1668 1.391 . S
C1670 C1671 1.406 . S
C1671 C1670 1.406 . S
C1671 C1672 1.393 1_545 S
C1671 C1677 1.490 1_644 S
C1672 H1663 0.950 1_655 S
C1672 C1671 1.393 1_565 S
C1672 C1673 1.391 . S
C1673 H1661 0.950 . S
C1673 C1669 1.383 1_565 S
C1673 C1672 1.391 . S
C1674 H1664 0.950 . S
C1674 C1675 1.396 . S
C1674 C1676 1.391 . S
C1675 C1674 1.396 . S
C1675 C1679 1.383 1_565 S
C1676 H1665 0.950 1_556 S
C1676 C1674 1.391 . S
C1676 C1677 1.406 . S
C1677 C1671 1.490 1_466 S
C1677 C1676 1.406 . S
C1677 C1678 1.393 1_565 S
C1678 H1666 0.950 1_455 S
C1678 C1677 1.393 1_545 S
C1678 C1679 1.391 . S
C1679 H1667 0.950 . S
C1679 C1675 1.383 1_545 S
C1679 C1678 1.391 . S
H1680 C1688 0.950 . S
H1681 C1693 0.950 . S
H1682 C1690 0.950 . S
H1683 C1692 0.950 . S
H1684 C1694 0.950 . S
H1685 C1696 0.950 . S
H1686 C1698 0.950 . S
H1687 C1699 0.950 . S
C1688 H1680 0.950 . S
C1688 C1689 1.372 1_545 S
C1688 C1690 1.391 . S
C1689 C1688 1.372 1_565 S
C1689 C1693 1.406 . S
C1690 H1682 0.950 . S
C1690 C1688 1.391 . S
C1690 C1691 1.394 1_545 S
C1691 C1690 1.394 1_565 S
C1691 C1692 1.405 . S
C1691 C1697 1.490 1_565 S
C1692 H1683 0.950 . S
C1692 C1691 1.405 . S
C1692 C1693 1.391 . S
C1693 H1681 0.950 . S
C1693 C1689 1.406 . S
C1693 C1692 1.391 . S
C1694 H1684 0.950 . S
C1694 C1695 1.372 1_565 S
C1694 C1696 1.391 . S
C1695 C1694 1.372 1_545 S
C1695 C1699 1.407 . S
C1696 H1685 0.950 . S
C1696 C1694 1.391 . S
C1696 C1697 1.393 1_565 S
C1697 C1691 1.490 1_545 S
C1697 C1696 1.393 1_545 S
C1697 C1698 1.405 . S
C1698 H1686 0.950 . S
C1698 C1697 1.405 . S
C1698 C1699 1.391 . S
C1699 H1687 0.950 . S
C1699 C1695 1.407 . S
C1699 C1698 1.391 . S
H1700 C1708 0.950 . S
H1701 C1713 0.950 . S
H1702 C1710 0.950 1_655 S
H1703 C1712 0.950 . S
H1704 C1714 0.950 . S
H1705 C1716 0.950 1_455 S
H1706 C1718 0.950 . S
H1707 C1719 0.950 . S
C1708 H1700 0.950 . S
C1708 C1709 1.386 . S
C1708 C1710 1.391 . S
C1709 C1708 1.386 . S
C1709 C1713 1.393 . S
C1710 H1702 0.950 1_455 S
C1710 C1708 1.391 . S
C1710 C1711 1.400 . S
C1711 C1710 1.400 . S
C1711 C1712 1.398 . S
C1711 C1717 1.491 1_455 S
C1712 H1703 0.950 . S
C1712 C1711 1.398 . S
C1712 C1713 1.391 . S
C1713 H1701 0.950 . S
C1713 C1709 1.393 . S
C1713 C1712 1.391 . S
C1714 H1704 0.950 . S
C1714 C1715 1.386 . S
C1714 C1716 1.391 . S
C1715 C1714 1.386 . S
C1715 C1719 1.393 . S
C1716 H1705 0.950 1_655 S
C1716 C1714 1.391 . S
C1716 C1717 1.400 . S
C1717 C1711 1.491 1_655 S
C1717 C1716 1.400 . S
C1717 C1718 1.398 . S
C1718 H1706 0.950 . S
C1718 C1717 1.398 . S
C1718 C1719 1.391 . S
C1719 H1707 0.950 . S
C1719 C1715 1.393 . S
C1719 C1718 1.391 . S
H1720 C1728 0.950 . S
H1721 C1733 0.950 . S
H1722 C1730 0.950 1_554 S
H1723 C1732 0.950 . S
H1724 C1734 0.950 . S
H1725 C1736 0.950 1_556 S
H1726 C1738 0.950 . S
H1727 C1739 0.950 . S
C1728 H1720 0.950 . S
C1728 C1729 1.386 . S
C1728 C1730 1.391 . S
C1729 C1728 1.386 . S
C1729 C1733 1.393 . S
C1730 H1722 0.950 1_556 S
C1730 C1728 1.391 . S
C1730 C1731 1.400 . S
C1731 C1730 1.400 . S
C1731 C1732 1.398 . S
C1731 C1737 1.491 1_556 S
C1732 H1723 0.950 . S
C1732 C1731 1.398 . S
C1732 C1733 1.391 . S
C1733 H1721 0.950 . S
C1733 C1729 1.393 . S
C1733 C1732 1.391 . S
C1734 H1724 0.950 . S
C1734 C1735 1.386 . S
C1734 C1736 1.391 . S
C1735 C1734 1.386 . S
C1735 C1739 1.393 . S
C1736 H1725 0.950 1_554 S
C1736 C1734 1.391 . S
C1736 C1737 1.400 . S
C1737 C1731 1.491 1_554 S
C1737 C1736 1.400 . S
C1737 C1738 1.398 . S
C1738 H1726 0.950 . S
C1738 C1737 1.398 . S
C1738 C1739 1.391 . S
C1739 H1727 0.950 . S
C1739 C1735 1.393 . S
C1739 C1738 1.391 . S
H1740 C1748 0.950 . S
H1741 C1753 0.950 . S
H1742 C1750 0.950 . S
H1743 C1752 0.950 . S
H1744 C1754 0.950 . S
H1745 C1756 0.950 . S
H1746 C1758 0.950 . S
H1747 C1759 0.950 . S
C1748 H1740 0.950 . S
C1748 C1749 1.386 . S
C1748 C1750 1.391 . S
C1749 C1748 1.386 . S
C1749 C1753 1.393 . S
C1750 H1742 0.950 . S
C1750 C1748 1.391 . S
C1750 C1751 1.400 . S
C1751 C1750 1.400 . S
C1751 C1752 1.398 . S
C1751 C1757 1.491 . S
C1752 H1743 0.950 . S
C1752 C1751 1.398 . S
C1752 C1753 1.391 . S
C1753 H1741 0.950 . S
C1753 C1749 1.393 . S
C1753 C1752 1.391 . S
C1754 H1744 0.950 . S
C1754 C1755 1.386 . S
C1754 C1756 1.391 . S
C1755 C1754 1.386 . S
C1755 C1759 1.393 . S
C1756 H1745 0.950 . S
C1756 C1754 1.391 . S
C1756 C1757 1.400 . S
C1757 C1751 1.491 . S
C1757 C1756 1.400 . S
C1757 C1758 1.398 . S
C1758 H1746 0.950 . S
C1758 C1757 1.398 . S
C1758 C1759 1.391 . S
C1759 H1747 0.950 . S
C1759 C1755 1.393 . S
C1759 C1758 1.391 . S
H1760 C1768 0.950 . S
H1761 C1773 0.950 . S
H1762 C1770 0.950 . S
H1763 C1772 0.950 . S
H1764 C1774 0.950 . S
H1765 C1776 0.950 . S
H1766 C1778 0.950 . S
H1767 C1779 0.950 . S
C1768 H1760 0.950 . S
C1768 C1769 1.386 . S
C1768 C1770 1.391 . S
C1769 C1768 1.386 . S
C1769 C1773 1.393 . S
C1770 H1762 0.950 . S
C1770 C1768 1.391 . S
C1770 C1771 1.400 . S
C1771 C1770 1.400 . S
C1771 C1772 1.398 . S
C1771 C1777 1.491 . S
C1772 H1763 0.950 . S
C1772 C1771 1.398 . S
C1772 C1773 1.391 . S
C1773 H1761 0.950 . S
C1773 C1769 1.393 . S
C1773 C1772 1.391 . S
C1774 H1764 0.950 . S
C1774 C1775 1.386 . S
C1774 C1776 1.391 . S
C1775 C1774 1.386 . S
C1775 C1779 1.393 . S
C1776 H1765 0.950 . S
C1776 C1774 1.391 . S
C1776 C1777 1.400 . S
C1777 C1771 1.491 . S
C1777 C1776 1.400 . S
C1777 C1778 1.398 . S
C1778 H1766 0.950 . S
C1778 C1777 1.398 . S
C1778 C1779 1.391 . S
C1779 H1767 0.950 . S
C1779 C1775 1.393 . S
C1779 C1778 1.391 . S
H1780 C1788 0.950 . S
H1781 C1793 0.950 . S
H1782 C1790 0.950 . S
H1783 C1792 0.950 1_655 S
H1784 C1794 0.950 . S
H1785 C1796 0.950 . S
H1786 C1798 0.950 1_455 S
H1787 C1799 0.950 . S
C1788 H1780 0.950 . S
C1788 C1789 1.386 . S
C1788 C1790 1.391 . S
C1789 C1788 1.386 . S
C1789 C1793 1.393 . S
C1790 H1782 0.950 . S
C1790 C1788 1.391 . S
C1790 C1791 1.400 . S
C1791 C1790 1.400 . S
C1791 C1792 1.398 . S
C1791 C1797 1.491 1_455 S
C1792 H1783 0.950 1_455 S
C1792 C1791 1.398 . S
C1792 C1793 1.391 . S
C1793 H1781 0.950 . S
C1793 C1789 1.393 . S
C1793 C1792 1.391 . S
C1794 H1784 0.950 . S
C1794 C1795 1.386 . S
C1794 C1796 1.391 . S
C1795 C1794 1.386 . S
C1795 C1799 1.393 . S
C1796 H1785 0.950 . S
C1796 C1794 1.391 . S
C1796 C1797 1.400 . S
C1797 C1791 1.491 1_655 S
C1797 C1796 1.400 . S
C1797 C1798 1.398 . S
C1798 H1786 0.950 1_655 S
C1798 C1797 1.398 . S
C1798 C1799 1.391 . S
C1799 H1787 0.950 . S
C1799 C1795 1.393 . S
C1799 C1798 1.391 . S
H1800 C1808 0.950 . S
H1801 C1813 0.950 . S
H1802 C1810 0.950 . S
H1803 C1812 0.950 . S
H1804 C1814 0.950 . S
H1805 C1816 0.950 . S
H1806 C1818 0.950 . S
H1807 C1819 0.950 . S
C1808 H1800 0.950 . S
C1808 C1809 1.386 . S
C1808 C1810 1.391 . S
C1809 C1808 1.386 . S
C1809 C1813 1.393 . S
C1810 H1802 0.950 . S
C1810 C1808 1.391 . S
C1810 C1811 1.400 . S
C1811 C1810 1.400 . S
C1811 C1812 1.398 . S
C1811 C1817 1.491 . S
C1812 H1803 0.950 . S
C1812 C1811 1.398 . S
C1812 C1813 1.391 . S
C1813 H1801 0.950 . S
C1813 C1809 1.393 . S
C1813 C1812 1.391 . S
C1814 H1804 0.950 . S
C1814 C1815 1.386 . S
C1814 C1816 1.391 . S
C1815 C1814 1.386 . S
C1815 C1819 1.393 . S
C1816 H1805 0.950 . S
C1816 C1814 1.391 . S
C1816 C1817 1.400 . S
C1817 C1811 1.491 . S
C1817 C1816 1.400 . S
C1817 C1818 1.398 . S
C1818 H1806 0.950 . S
C1818 C1817 1.398 . S
C1818 C1819 1.391 . S
C1819 H1807 0.950 . S
C1819 C1815 1.393 . S
C1819 C1818 1.391 . S
H1820 C1828 0.950 . S
H1821 C1833 0.950 . S
H1822 C1830 0.950 . S
H1823 C1832 0.950 . S
H1824 C1834 0.950 . S
H1825 C1836 0.950 . S
H1826 C1838 0.950 . S
H1827 C1839 0.950 . S
C1828 H1820 0.950 . S
C1828 C1829 1.386 . S
C1828 C1830 1.391 . S
C1829 C1828 1.386 . S
C1829 C1833 1.393 . S
C1830 H1822 0.950 . S
C1830 C1828 1.391 . S
C1830 C1831 1.400 . S
C1831 C1830 1.400 . S
C1831 C1832 1.398 . S
C1831 C1837 1.491 . S
C1832 H1823 0.950 . S
C1832 C1831 1.398 . S
C1832 C1833 1.391 . S
C1833 H1821 0.950 . S
C1833 C1829 1.393 . S
C1833 C1832 1.391 . S
C1834 H1824 0.950 . S
C1834 C1835 1.386 . S
C1834 C1836 1.391 . S
C1835 C1834 1.386 . S
C1835 C1839 1.393 . S
C1836 H1825 0.950 . S
C1836 C1834 1.391 . S
C1836 C1837 1.400 . S
C1837 C1831 1.491 . S
C1837 C1836 1.400 . S
C1837 C1838 1.398 . S
C1838 H1826 0.950 . S
C1838 C1837 1.398 . S
C1838 C1839 1.391 . S
C1839 H1827 0.950 . S
C1839 C1835 1.393 . S
C1839 C1838 1.391 . S
H1840 C1848 0.950 . S
H1841 C1853 0.950 . S
H1842 C1850 0.950 . S
H1843 C1852 0.950 . S
H1844 C1854 0.950 . S
H1845 C1856 0.950 . S
H1846 C1858 0.950 . S
H1847 C1859 0.950 . S
C1848 H1840 0.950 . S
C1848 C1849 1.386 . S
C1848 C1850 1.391 . S
C1849 C1848 1.386 . S
C1849 C1853 1.393 . S
C1850 H1842 0.950 . S
C1850 C1848 1.391 . S
C1850 C1851 1.400 . S
C1851 C1850 1.400 . S
C1851 C1852 1.398 . S
C1851 C1857 1.491 . S
C1852 H1843 0.950 . S
C1852 C1851 1.398 . S
C1852 C1853 1.391 . S
C1853 H1841 0.950 . S
C1853 C1849 1.393 . S
C1853 C1852 1.391 . S
C1854 H1844 0.950 . S
C1854 C1855 1.386 . S
C1854 C1856 1.391 . S
C1855 C1854 1.386 . S
C1855 C1859 1.393 . S
C1856 H1845 0.950 . S
C1856 C1854 1.391 . S
C1856 C1857 1.400 . S
C1857 C1851 1.491 . S
C1857 C1856 1.400 . S
C1857 C1858 1.398 . S
C1858 H1846 0.950 . S
C1858 C1857 1.398 . S
C1858 C1859 1.391 . S
C1859 H1847 0.950 . S
C1859 C1855 1.393 . S
C1859 C1858 1.391 . S
H1860 C1868 0.950 . S
H1861 C1873 0.950 . S
H1862 C1870 0.950 . S
H1863 C1872 0.950 . S
H1864 C1874 0.950 . S
H1865 C1876 0.950 . S
H1866 C1878 0.950 . S
H1867 C1879 0.950 . S
C1868 H1860 0.950 . S
C1868 C1869 1.387 1_545 S
C1868 C1870 1.391 . S
C1869 C1868 1.387 1_565 S
C1869 C1873 1.391 . S
C1870 H1862 0.950 . S
C1870 C1868 1.391 . S
C1870 C1871 1.397 . S
C1871 C1870 1.397 . S
C1871 C1872 1.402 1_545 S
C1871 C1877 1.491 1_545 S
C1872 H1863 0.950 . S
C1872 C1871 1.402 1_565 S
C1872 C1873 1.391 . S
C1873 H1861 0.950 . S
C1873 C1869 1.391 . S
C1873 C1872 1.391 . S
C1874 H1864 0.950 . S
C1874 C1875 1.387 1_565 S
C1874 C1876 1.391 . S
C1875 C1874 1.387 1_545 S
C1875 C1879 1.391 . S
C1876 H1865 0.950 . S
C1876 C1874 1.391 . S
C1876 C1877 1.397 . S
C1877 C1871 1.491 1_565 S
C1877 C1876 1.397 . S
C1877 C1878 1.402 1_565 S
C1878 H1866 0.950 . S
C1878 C1877 1.402 1_545 S
C1878 C1879 1.391 . S
C1879 H1867 0.950 . S
C1879 C1875 1.391 . S
C1879 C1878 1.391 . S
H1880 C1888 0.950 . S
H1881 C1893 0.950 . S
H1882 C1890 0.950 . S
H1883 C1892 0.950 . S
H1884 C1894 0.950 . S
H1885 C1896 0.950 . S
H1886 C1898 0.950 . S
H1887 C1899 0.950 . S
C1888 H1880 0.950 . S
C1888 C1889 1.386 . S
C1888 C1890 1.391 . S
C1889 C1888 1.386 . S
C1889 C1893 1.393 . S
C1890 H1882 0.950 . S
C1890 C1888 1.391 . S
C1890 C1891 1.400 . S
C1891 C1890 1.400 . S
C1891 C1892 1.398 . S
C1891 C1897 1.491 . S
C1892 H1883 0.950 . S
C1892 C1891 1.398 . S
C1892 C1893 1.391 . S
C1893 H1881 0.950 . S
C1893 C1889 1.393 . S
C1893 C1892 1.391 . S
C1894 H1884 0.950 . S
C1894 C1895 1.386 . S
C1894 C1896 1.391 . S
C1895 C1894 1.386 . S
C1895 C1899 1.393 . S
C1896 H1885 0.950 . S
C1896 C1894 1.391 . S
C1896 C1897 1.400 . S
C1897 C1891 1.491 . S
C1897 C1896 1.400 . S
C1897 C1898 1.398 . S
C1898 H1886 0.950 . S
C1898 C1897 1.398 . S
C1898 C1899 1.391 . S
C1899 H1887 0.950 . S
C1899 C1895 1.393 . S
C1899 C1898 1.391 . S
H1900 C1908 0.950 . S
H1901 C1913 0.950 . S
H1902 C1910 0.950 . S
H1903 C1912 0.950 1_556 S
H1904 C1914 0.950 . S
H1905 C1916 0.950 . S
H1906 C1918 0.950 1_554 S
H1907 C1919 0.950 . S
C1908 H1900 0.950 . S
C1908 C1909 1.386 . S
C1908 C1910 1.391 . S
C1909 C1908 1.386 . S
C1909 C1913 1.393 . S
C1910 H1902 0.950 . S
C1910 C1908 1.391 . S
C1910 C1911 1.400 . S
C1911 C1910 1.400 . S
C1911 C1912 1.398 . S
C1911 C1917 1.491 1_554 S
C1912 H1903 0.950 1_554 S
C1912 C1911 1.398 . S
C1912 C1913 1.391 . S
C1913 H1901 0.950 . S
C1913 C1909 1.393 . S
C1913 C1912 1.391 . S
C1914 H1904 0.950 . S
C1914 C1915 1.386 . S
C1914 C1916 1.391 . S
C1915 C1914 1.386 . S
C1915 C1919 1.393 . S
C1916 H1905 0.950 . S
C1916 C1914 1.391 . S
C1916 C1917 1.400 . S
C1917 C1911 1.491 1_556 S
C1917 C1916 1.400 . S
C1917 C1918 1.398 . S
C1918 H1906 0.950 1_556 S
C1918 C1917 1.398 . S
C1918 C1919 1.391 . S
C1919 H1907 0.950 . S
C1919 C1915 1.393 . S
C1919 C1918 1.391 . S
H1920 C1928 0.950 1_565 S
H1921 C1933 0.950 . S
H1922 C1930 0.945 1_565 S
H1923 C1932 0.950 . S
H1924 C1934 0.950 . S
H1925 C1936 0.950 . S
H1926 C1938 0.950 . S
H1927 C1939 0.950 . S
C1928 H1920 0.950 1_545 S
C1928 C1929 1.386 . S
C1928 C1930 1.391 . S
C1929 C1928 1.386 . S
C1929 C1933 1.393 . S
C1930 H1922 0.945 1_545 S
C1930 C1928 1.391 . S
C1930 C1931 1.400 . S
C1931 C1930 1.400 . S
C1931 C1932 1.398 . S
C1931 C1937 1.491 . S
C1932 H1923 0.950 . S
C1932 C1931 1.398 . S
C1932 C1933 1.391 . S
C1933 H1921 0.950 . S
C1933 C1929 1.393 . S
C1933 C1932 1.391 . S
C1934 H1924 0.950 . S
C1934 C1935 1.386 . S
C1934 C1936 1.391 . S
C1935 C1934 1.386 . S
C1935 C1939 1.393 . S
C1936 H1925 0.950 . S
C1936 C1934 1.391 . S
C1936 C1937 1.400 . S
C1937 C1931 1.491 . S
C1937 C1936 1.400 . S
C1937 C1938 1.398 . S
C1938 H1926 0.950 . S
C1938 C1937 1.398 . S
C1938 C1939 1.391 . S
C1939 H1927 0.950 . S
C1939 C1935 1.393 . S
C1939 C1938 1.391 . S
H1940 C1948 0.950 . S
H1941 C1953 0.950 . S
H1942 C1950 0.950 . S
H1943 C1952 0.950 . S
H1944 C1954 0.950 . S
H1945 C1956 0.950 . S
H1946 C1958 0.950 . S
H1947 C1959 0.950 . S
C1948 H1940 0.950 . S
C1948 C1949 1.386 . S
C1948 C1950 1.391 . S
C1949 C1948 1.386 . S
C1949 C1953 1.393 . S
C1950 H1942 0.950 . S
C1950 C1948 1.391 . S
C1950 C1951 1.400 . S
C1951 C1950 1.400 . S
C1951 C1952 1.398 . S
C1951 C1957 1.491 . S
C1952 H1943 0.950 . S
C1952 C1951 1.398 . S
C1952 C1953 1.391 . S
C1953 H1941 0.950 . S
C1953 C1949 1.393 . S
C1953 C1952 1.391 . S
C1954 H1944 0.950 . S
C1954 C1955 1.386 . S
C1954 C1956 1.391 . S
C1955 C1954 1.386 . S
C1955 C1959 1.393 . S
C1956 H1945 0.950 . S
C1956 C1954 1.391 . S
C1956 C1957 1.400 . S
C1957 C1951 1.491 . S
C1957 C1956 1.400 . S
C1957 C1958 1.398 . S
C1958 H1946 0.950 . S
C1958 C1957 1.398 . S
C1958 C1959 1.391 . S
C1959 H1947 0.950 . S
C1959 C1955 1.393 . S
C1959 C1958 1.391 . S
H1960 C1968 0.950 . S
H1961 C1973 0.950 . S
H1962 C1970 0.950 . S
H1963 C1972 0.950 . S
H1964 C1974 0.950 . S
H1965 C1976 0.950 . S
H1966 C1978 0.950 . S
H1967 C1979 0.950 . S
C1968 H1960 0.950 . S
C1968 C1969 1.386 . S
C1968 C1970 1.391 . S
C1969 C1968 1.386 . S
C1969 C1973 1.393 . S
C1970 H1962 0.950 . S
C1970 C1968 1.391 . S
C1970 C1971 1.400 . S
C1971 C1970 1.400 . S
C1971 C1972 1.398 . S
C1971 C1977 1.491 . S
C1972 H1963 0.950 . S
C1972 C1971 1.398 . S
C1972 C1973 1.391 . S
C1973 H1961 0.950 . S
C1973 C1969 1.393 . S
C1973 C1972 1.391 . S
C1974 H1964 0.950 . S
C1974 C1975 1.386 . S
C1974 C1976 1.391 . S
C1975 C1974 1.386 . S
C1975 C1979 1.393 . S
C1976 H1965 0.950 . S
C1976 C1974 1.391 . S
C1976 C1977 1.400 . S
C1977 C1971 1.491 . S
C1977 C1976 1.400 . S
C1977 C1978 1.398 . S
C1978 H1966 0.950 . S
C1978 C1977 1.398 . S
C1978 C1979 1.391 . S
C1979 H1967 0.950 . S
C1979 C1975 1.393 . S
C1979 C1978 1.391 . S
H1980 C1988 0.950 . S
H1981 C1993 0.950 . S
H1982 C1990 0.950 . S
H1983 C1992 0.950 . S
H1984 C1994 0.950 . S
H1985 C1996 0.950 . S
H1986 C1998 0.950 . S
H1987 C1999 0.950 . S
C1988 H1980 0.950 . S
C1988 C1989 1.386 1_565 S
C1988 C1990 1.391 . S
C1989 C1988 1.386 1_545 S
C1989 C1993 1.393 . S
C1990 H1982 0.950 . S
C1990 C1988 1.391 . S
C1990 C1991 1.400 1_565 S
C1991 C1990 1.400 1_545 S
C1991 C1992 1.398 . S
C1991 C1997 1.491 . S
C1992 H1983 0.950 . S
C1992 C1991 1.398 . S
C1992 C1993 1.391 . S
C1993 H1981 0.950 . S
C1993 C1989 1.393 . S
C1993 C1992 1.391 . S
C1994 H1984 0.950 . S
C1994 C1995 1.386 . S
C1994 C1996 1.391 . S
C1995 C1994 1.386 . S
C1995 C1999 1.393 1_545 S
C1996 H1985 0.950 . S
C1996 C1994 1.391 . S
C1996 C1997 1.400 . S
C1997 C1991 1.491 . S
C1997 C1996 1.400 . S
C1997 C1998 1.398 1_545 S
C1998 H1986 0.950 . S
C1998 C1997 1.398 1_565 S
C1998 C1999 1.391 . S
C1999 H1987 0.950 . S
C1999 C1995 1.393 1_565 S
C1999 C1998 1.391 . S
H2000 C2008 0.950 . S
H2001 C2013 0.950 . S
H2002 C2010 0.950 . S
H2003 C2012 0.950 . S
H2004 C2014 0.950 . S
H2005 C2016 0.950 . S
H2006 C2018 0.950 . S
H2007 C2019 0.950 . S
C2008 H2000 0.950 . S
C2008 C2009 1.386 . S
C2008 C2010 1.391 . S
C2009 C2008 1.386 . S
C2009 C2013 1.393 1_565 S
C2010 H2002 0.950 . S
C2010 C2008 1.391 . S
C2010 C2011 1.400 . S
C2011 C2010 1.400 . S
C2011 C2012 1.398 1_565 S
C2011 C2017 1.491 . S
C2012 H2003 0.950 . S
C2012 C2011 1.398 1_545 S
C2012 C2013 1.391 . S
C2013 H2001 0.950 . S
C2013 C2009 1.393 1_545 S
C2013 C2012 1.391 . S
C2014 H2004 0.950 . S
C2014 C2015 1.386 1_545 S
C2014 C2016 1.391 . S
C2015 C2014 1.386 1_565 S
C2015 C2019 1.393 . S
C2016 H2005 0.950 . S
C2016 C2014 1.391 . S
C2016 C2017 1.400 1_545 S
C2017 C2011 1.491 . S
C2017 C2016 1.400 1_565 S
C2017 C2018 1.398 . S
C2018 H2006 0.950 . S
C2018 C2017 1.398 . S
C2018 C2019 1.391 . S
C2019 H2007 0.950 . S
C2019 C2015 1.393 . S
C2019 C2018 1.391 . S
H2020 C2028 0.950 . S
H2021 C2033 0.950 . S
H2022 C2030 0.950 . S
H2023 C2032 0.950 . S
H2024 C2034 0.950 . S
H2025 C2036 0.950 . S
H2026 C2038 0.950 . S
H2027 C2039 0.950 . S
C2028 H2020 0.950 . S
C2028 C2029 1.386 . S
C2028 C2030 1.391 . S
C2029 C2028 1.386 . S
C2029 C2033 1.393 . S
C2030 H2022 0.950 . S
C2030 C2028 1.391 . S
C2030 C2031 1.400 . S
C2031 C2030 1.400 . S
C2031 C2032 1.398 . S
C2031 C2037 1.491 . S
C2032 H2023 0.950 . S
C2032 C2031 1.398 . S
C2032 C2033 1.391 . S
C2033 H2021 0.950 . S
C2033 C2029 1.393 . S
C2033 C2032 1.391 . S
C2034 H2024 0.950 . S
C2034 C2035 1.386 . S
C2034 C2036 1.391 . S
C2035 C2034 1.386 . S
C2035 C2039 1.393 . S
C2036 H2025 0.950 . S
C2036 C2034 1.391 . S
C2036 C2037 1.400 . S
C2037 C2031 1.491 . S
C2037 C2036 1.400 . S
C2037 C2038 1.398 . S
C2038 H2026 0.950 . S
C2038 C2037 1.398 . S
C2038 C2039 1.391 . S
C2039 H2027 0.950 . S
C2039 C2035 1.393 . S
C2039 C2038 1.391 . S
H2040 C2048 0.950 . S
H2041 C2053 0.950 . S
H2042 C2050 0.950 . S
H2043 C2052 0.950 . S
H2044 C2054 0.950 . S
H2045 C2056 0.950 . S
H2046 C2058 0.950 . S
H2047 C2059 0.950 . S
C2048 H2040 0.950 . S
C2048 C2049 1.386 . S
C2048 C2050 1.391 . S
C2049 C2048 1.386 . S
C2049 C2053 1.393 . S
C2050 H2042 0.950 . S
C2050 C2048 1.391 . S
C2050 C2051 1.400 . S
C2051 C2050 1.400 . S
C2051 C2052 1.398 . S
C2051 C2057 1.491 . S
C2052 H2043 0.950 . S
C2052 C2051 1.398 . S
C2052 C2053 1.391 . S
C2053 H2041 0.950 . S
C2053 C2049 1.393 . S
C2053 C2052 1.391 . S
C2054 H2044 0.950 . S
C2054 C2055 1.386 . S
C2054 C2056 1.391 . S
C2055 C2054 1.386 . S
C2055 C2059 1.393 . S
C2056 H2045 0.950 . S
C2056 C2054 1.391 . S
C2056 C2057 1.400 . S
C2057 C2051 1.491 . S
C2057 C2056 1.400 . S
C2057 C2058 1.398 . S
C2058 H2046 0.950 . S
C2058 C2057 1.398 . S
C2058 C2059 1.391 . S
C2059 H2047 0.950 . S
C2059 C2055 1.393 . S
C2059 C2058 1.391 . S
H2060 C2068 0.950 . S
H2061 C2073 0.950 1_545 S
H2062 C2070 0.950 . S
H2063 C2072 0.950 1_545 S
H2064 C2074 0.950 . S
H2065 C2076 0.955 . S
H2066 C2078 0.950 . S
H2067 C2079 0.950 . S
C2068 H2060 0.950 . S
C2068 C2069 1.386 . S
C2068 C2070 1.391 . S
C2069 C2068 1.386 . S
C2069 C2073 1.393 . S
C2070 H2062 0.950 . S
C2070 C2068 1.391 . S
C2070 C2071 1.400 . S
C2071 C2070 1.400 . S
C2071 C2072 1.398 . S
C2071 C2077 1.491 . S
C2072 H2063 0.950 1_565 S
C2072 C2071 1.398 . S
C2072 C2073 1.391 . S
C2073 H2061 0.950 1_565 S
C2073 C2069 1.393 . S
C2073 C2072 1.391 . S
C2074 H2064 0.950 . S
C2074 C2075 1.386 . S
C2074 C2076 1.391 . S
C2075 C2074 1.386 . S
C2075 C2079 1.393 . S
C2076 H2065 0.955 . S
C2076 C2074 1.391 . S
C2076 C2077 1.400 . S
C2077 C2071 1.491 . S
C2077 C2076 1.400 . S
C2077 C2078 1.398 . S
C2078 H2066 0.950 . S
C2078 C2077 1.398 . S
C2078 C2079 1.391 . S
C2079 H2067 0.950 . S
C2079 C2075 1.393 . S
C2079 C2078 1.391 . S
H2080 C2088 0.950 . S
H2081 C2093 0.950 . S
H2082 C2090 0.950 . S
H2083 C2092 0.950 . S
H2084 C2094 0.950 . S
H2085 C2096 0.950 . S
H2086 C2098 0.950 . S
H2087 C2099 0.950 . S
C2088 H2080 0.950 . S
C2088 C2089 1.386 . S
C2088 C2090 1.391 . S
C2089 C2088 1.386 . S
C2089 C2093 1.393 . S
C2090 H2082 0.950 . S
C2090 C2088 1.391 . S
C2090 C2091 1.400 . S
C2091 C2090 1.400 . S
C2091 C2092 1.398 . S
C2091 C2097 1.491 . S
C2092 H2083 0.950 . S
C2092 C2091 1.398 . S
C2092 C2093 1.391 . S
C2093 H2081 0.950 . S
C2093 C2089 1.393 . S
C2093 C2092 1.391 . S
C2094 H2084 0.950 . S
C2094 C2095 1.386 . S
C2094 C2096 1.391 . S
C2095 C2094 1.386 . S
C2095 C2099 1.393 . S
C2096 H2085 0.950 . S
C2096 C2094 1.391 . S
C2096 C2097 1.400 . S
C2097 C2091 1.491 . S
C2097 C2096 1.400 . S
C2097 C2098 1.398 . S
C2098 H2086 0.950 . S
C2098 C2097 1.398 . S
C2098 C2099 1.391 . S
C2099 H2087 0.950 . S
C2099 C2095 1.393 . S
C2099 C2098 1.391 . S
H2100 C2108 0.950 . S
H2101 C2113 0.950 . S
H2102 C2110 0.950 . S
H2103 C2112 0.950 . S
H2104 C2114 0.950 . S
H2105 C2116 0.950 . S
H2106 C2118 0.950 . S
H2107 C2119 0.950 . S
C2108 H2100 0.950 . S
C2108 C2109 1.386 . S
C2108 C2110 1.391 . S
C2109 C2108 1.386 . S
C2109 C2113 1.393 . S
C2110 H2102 0.950 . S
C2110 C2108 1.391 . S
C2110 C2111 1.400 . S
C2111 C2110 1.400 . S
C2111 C2112 1.398 . S
C2111 C2117 1.491 . S
C2112 H2103 0.950 . S
C2112 C2111 1.398 . S
C2112 C2113 1.391 . S
C2113 H2101 0.950 . S
C2113 C2109 1.393 . S
C2113 C2112 1.391 . S
C2114 H2104 0.950 . S
C2114 C2115 1.386 . S
C2114 C2116 1.391 . S
C2115 C2114 1.386 . S
C2115 C2119 1.393 . S
C2116 H2105 0.950 . S
C2116 C2114 1.391 . S
C2116 C2117 1.400 . S
C2117 C2111 1.491 . S
C2117 C2116 1.400 . S
C2117 C2118 1.398 . S
C2118 H2106 0.950 . S
C2118 C2117 1.398 . S
C2118 C2119 1.391 . S
C2119 H2107 0.950 . S
C2119 C2115 1.393 . S
C2119 C2118 1.391 . S
H2120 C2128 0.950 . S
H2121 C2133 0.950 . S
H2122 C2130 0.950 . S
H2123 C2132 0.950 . S
H2124 C2134 0.950 . S
H2125 C2136 0.950 . S
H2126 C2138 0.950 . S
H2127 C2139 0.950 . S
C2128 H2120 0.950 . S
C2128 C2129 1.386 . S
C2128 C2130 1.391 . S
C2129 C2128 1.386 . S
C2129 C2133 1.393 . S
C2130 H2122 0.950 . S
C2130 C2128 1.391 . S
C2130 C2131 1.400 . S
C2131 C2130 1.400 . S
C2131 C2132 1.398 . S
C2131 C2137 1.491 . S
C2132 H2123 0.950 . S
C2132 C2131 1.398 . S
C2132 C2133 1.391 . S
C2133 H2121 0.950 . S
C2133 C2129 1.393 . S
C2133 C2132 1.391 . S
C2134 H2124 0.950 . S
C2134 C2135 1.386 . S
C2134 C2136 1.391 . S
C2135 C2134 1.386 . S
C2135 C2139 1.393 . S
C2136 H2125 0.950 . S
C2136 C2134 1.391 . S
C2136 C2137 1.400 . S
C2137 C2131 1.491 . S
C2137 C2136 1.400 . S
C2137 C2138 1.398 . S
C2138 H2126 0.950 . S
C2138 C2137 1.398 . S
C2138 C2139 1.391 . S
C2139 H2127 0.950 . S
C2139 C2135 1.393 . S
C2139 C2138 1.391 . S
H2140 C2148 0.950 . S
H2141 C2153 0.950 . S
H2142 C2150 0.950 . S
H2143 C2152 0.950 . S
H2144 C2154 0.950 . S
H2145 C2156 0.950 . S
H2146 C2158 0.950 . S
H2147 C2159 0.950 . S
C2148 H2140 0.950 . S
C2148 C2149 1.386 . S
C2148 C2150 1.391 . S
C2149 C2148 1.386 . S
C2149 C2153 1.393 . S
C2150 H2142 0.950 . S
C2150 C2148 1.391 . S
C2150 C2151 1.400 . S
C2151 C2150 1.400 . S
C2151 C2152 1.398 . S
C2151 C2157 1.491 . S
C2152 H2143 0.950 . S
C2152 C2151 1.398 . S
C2152 C2153 1.391 . S
C2153 H2141 0.950 . S
C2153 C2149 1.393 . S
C2153 C2152 1.391 . S
C2154 H2144 0.950 . S
C2154 C2155 1.386 . S
C2154 C2156 1.391 . S
C2155 C2154 1.386 . S
C2155 C2159 1.393 . S
C2156 H2145 0.950 . S
C2156 C2154 1.391 . S
C2156 C2157 1.400 . S
C2157 C2151 1.491 . S
C2157 C2156 1.400 . S
C2157 C2158 1.398 . S
C2158 H2146 0.950 . S
C2158 C2157 1.398 . S
C2158 C2159 1.391 . S
C2159 H2147 0.950 . S
C2159 C2155 1.393 . S
C2159 C2158 1.391 . S
H2160 C2168 0.950 . S
H2161 C2173 0.950 . S
H2162 C2170 0.950 . S
H2163 C2172 0.950 . S
H2164 C2174 0.950 . S
H2165 C2176 0.950 . S
H2166 C2178 0.950 . S
H2167 C2179 0.950 . S
C2168 H2160 0.950 . S
C2168 C2169 1.386 . S
C2168 C2170 1.391 . S
C2169 C2168 1.386 . S
C2169 C2173 1.393 . S
C2170 H2162 0.950 . S
C2170 C2168 1.391 . S
C2170 C2171 1.400 . S
C2171 C2170 1.400 . S
C2171 C2172 1.398 . S
C2171 C2177 1.491 . S
C2172 H2163 0.950 . S
C2172 C2171 1.398 . S
C2172 C2173 1.391 . S
C2173 H2161 0.950 . S
C2173 C2169 1.393 . S
C2173 C2172 1.391 . S
C2174 H2164 0.950 . S
C2174 C2175 1.386 . S
C2174 C2176 1.391 . S
C2175 C2174 1.386 . S
C2175 C2179 1.393 . S
C2176 H2165 0.950 . S
C2176 C2174 1.391 . S
C2176 C2177 1.400 . S
C2177 C2171 1.491 . S
C2177 C2176 1.400 . S
C2177 C2178 1.398 . S
C2178 H2166 0.950 . S
C2178 C2177 1.398 . S
C2178 C2179 1.391 . S
C2179 H2167 0.950 . S
C2179 C2175 1.393 . S
C2179 C2178 1.391 . S
H2180 C2188 0.950 . S
H2181 C2193 0.950 . S
H2182 C2190 0.950 . S
H2183 C2192 0.950 . S
H2184 C2194 0.950 . S
H2185 C2196 0.950 . S
H2186 C2198 0.950 . S
H2187 C2199 0.950 . S
C2188 H2180 0.950 . S
C2188 C2189 1.386 . S
C2188 C2190 1.391 . S
C2189 C2188 1.386 . S
C2189 C2193 1.393 . S
C2190 H2182 0.950 . S
C2190 C2188 1.391 . S
C2190 C2191 1.400 . S
C2191 C2190 1.400 . S
C2191 C2192 1.398 . S
C2191 C2197 1.491 . S
C2192 H2183 0.950 . S
C2192 C2191 1.398 . S
C2192 C2193 1.391 . S
C2193 H2181 0.950 . S
C2193 C2189 1.393 . S
C2193 C2192 1.391 . S
C2194 H2184 0.950 . S
C2194 C2195 1.386 . S
C2194 C2196 1.391 . S
C2195 C2194 1.386 . S
C2195 C2199 1.393 . S
C2196 H2185 0.950 . S
C2196 C2194 1.391 . S
C2196 C2197 1.400 . S
C2197 C2191 1.491 . S
C2197 C2196 1.400 . S
C2197 C2198 1.398 . S
C2198 H2186 0.950 . S
C2198 C2197 1.398 . S
C2198 C2199 1.391 . S
C2199 H2187 0.950 . S
C2199 C2195 1.393 . S
C2199 C2198 1.391 . S
H2200 C2208 0.950 . S
H2201 C2213 0.950 . S
H2202 C2210 0.950 . S
H2203 C2212 0.950 . S
H2204 C2214 0.950 . S
H2205 C2216 0.950 . S
H2206 C2218 0.950 . S
H2207 C2219 0.950 . S
C2208 H2200 0.950 . S
C2208 C2209 1.386 . S
C2208 C2210 1.391 . S
C2209 C2208 1.386 . S
C2209 C2213 1.393 . S
C2210 H2202 0.950 . S
C2210 C2208 1.391 . S
C2210 C2211 1.400 . S
C2211 C2210 1.400 . S
C2211 C2212 1.398 . S
C2211 C2217 1.491 . S
C2212 H2203 0.950 . S
C2212 C2211 1.398 . S
C2212 C2213 1.391 . S
C2213 H2201 0.950 . S
C2213 C2209 1.393 . S
C2213 C2212 1.391 . S
C2214 H2204 0.950 . S
C2214 C2215 1.386 . S
C2214 C2216 1.391 . S
C2215 C2214 1.386 . S
C2215 C2219 1.393 . S
C2216 H2205 0.950 . S
C2216 C2214 1.391 . S
C2216 C2217 1.400 . S
C2217 C2211 1.491 . S
C2217 C2216 1.400 . S
C2217 C2218 1.398 . S
C2218 H2206 0.950 . S
C2218 C2217 1.398 . S
C2218 C2219 1.391 . S
C2219 H2207 0.950 . S
C2219 C2215 1.393 . S
C2219 C2218 1.391 . S
H2220 C2228 0.950 . S
H2221 C2233 0.950 . S
H2222 C2230 0.950 . S
H2223 C2232 0.950 . S
H2224 C2234 0.950 . S
H2225 C2236 0.950 . S
H2226 C2238 0.950 . S
H2227 C2239 0.950 . S
C2228 H2220 0.950 . S
C2228 C2229 1.386 . S
C2228 C2230 1.391 . S
C2229 C2228 1.386 . S
C2229 C2233 1.393 . S
C2230 H2222 0.950 . S
C2230 C2228 1.391 . S
C2230 C2231 1.400 . S
C2231 C2230 1.400 . S
C2231 C2232 1.398 . S
C2231 C2237 1.491 . S
C2232 H2223 0.950 . S
C2232 C2231 1.398 . S
C2232 C2233 1.391 . S
C2233 H2221 0.950 . S
C2233 C2229 1.393 . S
C2233 C2232 1.391 . S
C2234 H2224 0.950 . S
C2234 C2235 1.386 . S
C2234 C2236 1.391 . S
C2235 C2234 1.386 . S
C2235 C2239 1.393 . S
C2236 H2225 0.950 . S
C2236 C2234 1.391 . S
C2236 C2237 1.400 . S
C2237 C2231 1.491 . S
C2237 C2236 1.400 . S
C2237 C2238 1.398 . S
C2238 H2226 0.950 . S
C2238 C2237 1.398 . S
C2238 C2239 1.391 . S
C2239 H2227 0.950 . S
C2239 C2235 1.393 . S
C2239 C2238 1.391 . S
H2240 C2248 0.950 . S
H2241 C2253 0.950 . S
H2242 C2250 0.950 . S
H2243 C2252 0.950 . S
H2244 C2254 0.950 . S
H2245 C2256 0.950 . S
H2246 C2258 0.950 . S
H2247 C2259 0.950 . S
C2248 H2240 0.950 . S
C2248 C2249 1.386 . S
C2248 C2250 1.391 . S
C2249 C2248 1.386 . S
C2249 C2253 1.393 . S
C2250 H2242 0.950 . S
C2250 C2248 1.391 . S
C2250 C2251 1.400 . S
C2251 C2250 1.400 . S
C2251 C2252 1.398 . S
C2251 C2257 1.491 . S
C2252 H2243 0.950 . S
C2252 C2251 1.398 . S
C2252 C2253 1.391 . S
C2253 H2241 0.950 . S
C2253 C2249 1.393 . S
C2253 C2252 1.391 . S
C2254 H2244 0.950 . S
C2254 C2255 1.386 . S
C2254 C2256 1.391 . S
C2255 C2254 1.386 . S
C2255 C2259 1.393 . S
C2256 H2245 0.950 . S
C2256 C2254 1.391 . S
C2256 C2257 1.400 . S
C2257 C2251 1.491 . S
C2257 C2256 1.400 . S
C2257 C2258 1.398 . S
C2258 H2246 0.950 . S
C2258 C2257 1.398 . S
C2258 C2259 1.391 . S
C2259 H2247 0.950 . S
C2259 C2255 1.393 . S
C2259 C2258 1.391 . S
H2260 C2268 0.950 . S
H2261 C2273 0.950 . S
H2262 C2270 0.950 . S
H2263 C2272 0.950 . S
H2264 C2274 0.950 . S
H2265 C2276 0.950 . S
H2266 C2278 0.950 . S
H2267 C2279 0.950 . S
C2268 H2260 0.950 . S
C2268 C2269 1.386 . S
C2268 C2270 1.391 . S
C2269 C2268 1.386 . S
C2269 C2273 1.393 . S
C2270 H2262 0.950 . S
C2270 C2268 1.391 . S
C2270 C2271 1.400 . S
C2271 C2270 1.400 . S
C2271 C2272 1.398 . S
C2271 C2277 1.491 . S
C2272 H2263 0.950 . S
C2272 C2271 1.398 . S
C2272 C2273 1.391 . S
C2273 H2261 0.950 . S
C2273 C2269 1.393 . S
C2273 C2272 1.391 . S
C2274 H2264 0.950 . S
C2274 C2275 1.386 . S
C2274 C2276 1.391 . S
C2275 C2274 1.386 . S
C2275 C2279 1.393 . S
C2276 H2265 0.950 . S
C2276 C2274 1.391 . S
C2276 C2277 1.400 . S
C2277 C2271 1.491 . S
C2277 C2276 1.400 . S
C2277 C2278 1.398 . S
C2278 H2266 0.950 . S
C2278 C2277 1.398 . S
C2278 C2279 1.391 . S
C2279 H2267 0.950 . S
C2279 C2275 1.393 . S
C2279 C2278 1.391 . S
H2280 C2288 0.950 . S
H2281 C2293 0.950 . S
H2282 C2290 0.950 . S
H2283 C2292 0.950 . S
H2284 C2294 0.950 . S
H2285 C2296 0.950 . S
H2286 C2298 0.950 . S
H2287 C2299 0.950 . S
C2288 H2280 0.950 . S
C2288 C2289 1.386 . S
C2288 C2290 1.391 . S
C2289 C2288 1.386 . S
C2289 C2293 1.393 . S
C2290 H2282 0.950 . S
C2290 C2288 1.391 . S
C2290 C2291 1.400 . S
C2291 C2290 1.400 . S
C2291 C2292 1.398 . S
C2291 C2297 1.491 . S
C2292 H2283 0.950 . S
C2292 C2291 1.398 . S
C2292 C2293 1.391 . S
C2293 H2281 0.950 . S
C2293 C2289 1.393 . S
C2293 C2292 1.391 . S
C2294 H2284 0.950 . S
C2294 C2295 1.386 . S
C2294 C2296 1.391 . S
C2295 C2294 1.386 . S
C2295 C2299 1.393 . S
C2296 H2285 0.950 . S
C2296 C2294 1.391 . S
C2296 C2297 1.400 . S
C2297 C2291 1.491 . S
C2297 C2296 1.400 . S
C2297 C2298 1.398 . S
C2298 H2286 0.950 . S
C2298 C2297 1.398 . S
C2298 C2299 1.391 . S
C2299 H2287 0.950 . S
C2299 C2295 1.393 . S
C2299 C2298 1.391 . S
H2300 C2308 0.950 . S
H2301 C2313 0.950 . S
H2302 C2310 0.950 . S
H2303 C2312 0.950 . S
H2304 C2314 0.950 . S
H2305 C2316 0.950 . S
H2306 C2318 0.950 . S
H2307 C2319 0.950 . S
C2308 H2300 0.950 . S
C2308 C2309 1.386 . S
C2308 C2310 1.391 . S
C2309 C2308 1.386 . S
C2309 C2313 1.393 . S
C2310 H2302 0.950 . S
C2310 C2308 1.391 . S
C2310 C2311 1.400 . S
C2311 C2310 1.400 . S
C2311 C2312 1.398 . S
C2311 C2317 1.491 . S
C2312 H2303 0.950 . S
C2312 C2311 1.398 . S
C2312 C2313 1.391 . S
C2313 H2301 0.950 . S
C2313 C2309 1.393 . S
C2313 C2312 1.391 . S
C2314 H2304 0.950 . S
C2314 C2315 1.386 . S
C2314 C2316 1.391 . S
C2315 C2314 1.386 . S
C2315 C2319 1.393 . S
C2316 H2305 0.950 . S
C2316 C2314 1.391 . S
C2316 C2317 1.400 . S
C2317 C2311 1.491 . S
C2317 C2316 1.400 . S
C2317 C2318 1.398 . S
C2318 H2306 0.950 . S
C2318 C2317 1.398 . S
C2318 C2319 1.391 . S
C2319 H2307 0.950 . S
C2319 C2315 1.393 . S
C2319 C2318 1.391 . S
H2320 C2328 0.950 . S
H2321 C2333 0.950 . S
H2322 C2330 0.950 . S
H2323 C2332 0.950 . S
H2324 C2334 0.950 . S
H2325 C2336 0.950 . S
H2326 C2338 0.950 . S
H2327 C2339 0.950 . S
C2328 H2320 0.950 . S
C2328 C2329 1.386 . S
C2328 C2330 1.391 . S
C2329 C2328 1.386 . S
C2329 C2333 1.393 . S
C2330 H2322 0.950 . S
C2330 C2328 1.391 . S
C2330 C2331 1.400 . S
C2331 C2330 1.400 . S
C2331 C2332 1.398 . S
C2331 C2337 1.491 . S
C2332 H2323 0.950 . S
C2332 C2331 1.398 . S
C2332 C2333 1.391 . S
C2333 H2321 0.950 . S
C2333 C2329 1.393 . S
C2333 C2332 1.391 . S
C2334 H2324 0.950 . S
C2334 C2335 1.386 . S
C2334 C2336 1.391 . S
C2335 C2334 1.386 . S
C2335 C2339 1.393 . S
C2336 H2325 0.950 . S
C2336 C2334 1.391 . S
C2336 C2337 1.400 . S
C2337 C2331 1.491 . S
C2337 C2336 1.400 . S
C2337 C2338 1.398 . S
C2338 H2326 0.950 . S
C2338 C2337 1.398 . S
C2338 C2339 1.391 . S
C2339 H2327 0.950 . S
C2339 C2335 1.393 . S
C2339 C2338 1.391 . S
H2340 C2348 0.950 . S
H2341 C2353 0.950 . S
H2342 C2350 0.950 . S
H2343 C2352 0.950 . S
H2344 C2354 0.950 . S
H2345 C2356 0.950 . S
H2346 C2358 0.950 . S
H2347 C2359 0.950 . S
C2348 H2340 0.950 . S
C2348 C2349 1.386 . S
C2348 C2350 1.391 . S
C2349 C2348 1.386 . S
C2349 C2353 1.393 . S
C2350 H2342 0.950 . S
C2350 C2348 1.391 . S
C2350 C2351 1.400 . S
C2351 C2350 1.400 . S
C2351 C2352 1.398 . S
C2351 C2357 1.491 . S
C2352 H2343 0.950 . S
C2352 C2351 1.398 . S
C2352 C2353 1.391 . S
C2353 H2341 0.950 . S
C2353 C2349 1.393 . S
C2353 C2352 1.391 . S
C2354 H2344 0.950 . S
C2354 C2355 1.386 . S
C2354 C2356 1.391 . S
C2355 C2354 1.386 . S
C2355 C2359 1.393 . S
C2356 H2345 0.950 . S
C2356 C2354 1.391 . S
C2356 C2357 1.400 . S
C2357 C2351 1.491 . S
C2357 C2356 1.400 . S
C2357 C2358 1.398 . S
C2358 H2346 0.950 . S
C2358 C2357 1.398 . S
C2358 C2359 1.391 . S
C2359 H2347 0.950 . S
C2359 C2355 1.393 . S
C2359 C2358 1.391 . S
H2360 C2368 0.950 . S
H2361 C2373 0.950 . S
H2362 C2370 0.950 . S
H2363 C2372 0.950 . S
H2364 C2374 0.950 . S
H2365 C2376 0.950 . S
H2366 C2378 0.950 . S
H2367 C2379 0.950 . S
C2368 H2360 0.950 . S
C2368 C2369 1.386 . S
C2368 C2370 1.391 . S
C2369 C2368 1.386 . S
C2369 C2373 1.393 . S
C2370 H2362 0.950 . S
C2370 C2368 1.391 . S
C2370 C2371 1.400 . S
C2371 C2370 1.400 . S
C2371 C2372 1.398 . S
C2371 C2377 1.491 . S
C2372 H2363 0.950 . S
C2372 C2371 1.398 . S
C2372 C2373 1.391 . S
C2373 H2361 0.950 . S
C2373 C2369 1.393 . S
C2373 C2372 1.391 . S
C2374 H2364 0.950 . S
C2374 C2375 1.386 . S
C2374 C2376 1.391 . S
C2375 C2374 1.386 . S
C2375 C2379 1.393 . S
C2376 H2365 0.950 . S
C2376 C2374 1.391 . S
C2376 C2377 1.400 . S
C2377 C2371 1.491 . S
C2377 C2376 1.400 . S
C2377 C2378 1.398 . S
C2378 H2366 0.950 . S
C2378 C2377 1.398 . S
C2378 C2379 1.391 . S
C2379 H2367 0.950 . S
C2379 C2375 1.393 . S
C2379 C2378 1.391 . S
H2380 C2388 0.950 . S
H2381 C2393 0.950 . S
H2382 C2390 0.950 . S
H2383 C2392 0.950 . S
H2384 C2394 0.950 . S
H2385 C2396 0.950 . S
H2386 C2398 0.950 . S
H2387 C2399 0.950 . S
C2388 H2380 0.950 . S
C2388 C2389 1.386 . S
C2388 C2390 1.391 . S
C2389 C2388 1.386 . S
C2389 C2393 1.393 . S
C2390 H2382 0.950 . S
C2390 C2388 1.391 . S
C2390 C2391 1.400 . S
C2391 C2390 1.400 . S
C2391 C2392 1.398 . S
C2391 C2397 1.491 . S
C2392 H2383 0.950 . S
C2392 C2391 1.398 . S
C2392 C2393 1.391 . S
C2393 H2381 0.950 . S
C2393 C2389 1.393 . S
C2393 C2392 1.391 . S
C2394 H2384 0.950 . S
C2394 C2395 1.386 . S
C2394 C2396 1.391 . S
C2395 C2394 1.386 . S
C2395 C2399 1.393 . S
C2396 H2385 0.950 . S
C2396 C2394 1.391 . S
C2396 C2397 1.400 . S
C2397 C2391 1.491 . S
C2397 C2396 1.400 . S
C2397 C2398 1.398 . S
C2398 H2386 0.950 . S
C2398 C2397 1.398 . S
C2398 C2399 1.391 . S
C2399 H2387 0.950 . S
C2399 C2395 1.393 . S
C2399 C2398 1.391 . S
H2400 C2408 0.950 . S
H2401 C2413 0.950 . S
H2402 C2410 0.950 . S
H2403 C2412 0.950 . S
H2404 C2414 0.950 . S
H2405 C2416 0.950 . S
H2406 C2418 0.950 . S
H2407 C2419 0.950 . S
C2408 H2400 0.950 . S
C2408 C2409 1.386 . S
C2408 C2410 1.391 . S
C2409 C2408 1.386 . S
C2409 C2413 1.393 . S
C2410 H2402 0.950 . S
C2410 C2408 1.391 . S
C2410 C2411 1.400 . S
C2411 C2410 1.400 . S
C2411 C2412 1.398 . S
C2411 C2417 1.491 . S
C2412 H2403 0.950 . S
C2412 C2411 1.398 . S
C2412 C2413 1.391 . S
C2413 H2401 0.950 . S
C2413 C2409 1.393 . S
C2413 C2412 1.391 . S
C2414 H2404 0.950 . S
C2414 C2415 1.386 . S
C2414 C2416 1.391 . S
C2415 C2414 1.386 . S
C2415 C2419 1.393 . S
C2416 H2405 0.950 . S
C2416 C2414 1.391 . S
C2416 C2417 1.400 . S
C2417 C2411 1.491 . S
C2417 C2416 1.400 . S
C2417 C2418 1.398 . S
C2418 H2406 0.950 . S
C2418 C2417 1.398 . S
C2418 C2419 1.391 . S
C2419 H2407 0.950 . S
C2419 C2415 1.393 . S
C2419 C2418 1.391 . S
H2420 C2428 0.950 . S
H2421 C2433 0.950 . S
H2422 C2430 0.950 . S
H2423 C2432 0.950 . S
H2424 C2434 0.950 . S
H2425 C2436 0.950 . S
H2426 C2438 0.950 . S
H2427 C2439 0.950 . S
C2428 H2420 0.950 . S
C2428 C2429 1.386 . S
C2428 C2430 1.391 . S
C2429 C2428 1.386 . S
C2429 C2433 1.393 . S
C2430 H2422 0.950 . S
C2430 C2428 1.391 . S
C2430 C2431 1.400 . S
C2431 C2430 1.400 . S
C2431 C2432 1.398 . S
C2431 C2437 1.491 . S
C2432 H2423 0.950 . S
C2432 C2431 1.398 . S
C2432 C2433 1.391 . S
C2433 H2421 0.950 . S
C2433 C2429 1.393 . S
C2433 C2432 1.391 . S
C2434 H2424 0.950 . S
C2434 C2435 1.386 . S
C2434 C2436 1.391 . S
C2435 C2434 1.386 . S
C2435 C2439 1.393 . S
C2436 H2425 0.950 . S
C2436 C2434 1.391 . S
C2436 C2437 1.400 . S
C2437 C2431 1.491 . S
C2437 C2436 1.400 . S
C2437 C2438 1.398 . S
C2438 H2426 0.950 . S
C2438 C2437 1.398 . S
C2438 C2439 1.391 . S
C2439 H2427 0.950 . S
C2439 C2435 1.393 . S
C2439 C2438 1.391 . S
H2440 C2448 0.950 . S
H2441 C2453 0.950 . S
H2442 C2450 0.950 . S
H2443 C2452 0.950 . S
H2444 C2454 0.950 . S
H2445 C2456 0.950 . S
H2446 C2458 0.950 . S
H2447 C2459 0.950 . S
C2448 H2440 0.950 . S
C2448 C2449 1.386 . S
C2448 C2450 1.391 . S
C2449 C2448 1.386 . S
C2449 C2453 1.393 . S
C2450 H2442 0.950 . S
C2450 C2448 1.391 . S
C2450 C2451 1.400 . S
C2451 C2450 1.400 . S
C2451 C2452 1.398 . S
C2451 C2457 1.491 . S
C2452 H2443 0.950 . S
C2452 C2451 1.398 . S
C2452 C2453 1.391 . S
C2453 H2441 0.950 . S
C2453 C2449 1.393 . S
C2453 C2452 1.391 . S
C2454 H2444 0.950 . S
C2454 C2455 1.386 . S
C2454 C2456 1.391 . S
C2455 C2454 1.386 . S
C2455 C2459 1.393 . S
C2456 H2445 0.950 . S
C2456 C2454 1.391 . S
C2456 C2457 1.400 . S
C2457 C2451 1.491 . S
C2457 C2456 1.400 . S
C2457 C2458 1.398 . S
C2458 H2446 0.950 . S
C2458 C2457 1.398 . S
C2458 C2459 1.391 . S
C2459 H2447 0.950 . S
C2459 C2455 1.393 . S
C2459 C2458 1.391 . S
H2460 C2468 0.950 . S
H2461 C2473 0.950 . S
H2462 C2470 0.950 . S
H2463 C2472 0.950 . S
H2464 C2474 0.950 . S
H2465 C2476 0.950 . S
H2466 C2478 0.950 . S
H2467 C2479 0.950 . S
C2468 H2460 0.950 . S
C2468 C2469 1.386 . S
C2468 C2470 1.391 . S
C2469 C2468 1.386 . S
C2469 C2473 1.393 . S
C2470 H2462 0.950 . S
C2470 C2468 1.391 . S
C2470 C2471 1.400 . S
C2471 C2470 1.400 . S
C2471 C2472 1.398 . S
C2471 C2477 1.491 . S
C2472 H2463 0.950 . S
C2472 C2471 1.398 . S
C2472 C2473 1.391 . S
C2473 H2461 0.950 . S
C2473 C2469 1.393 . S
C2473 C2472 1.391 . S
C2474 H2464 0.950 . S
C2474 C2475 1.386 . S
C2474 C2476 1.391 . S
C2475 C2474 1.386 . S
C2475 C2479 1.393 . S
C2476 H2465 0.950 . S
C2476 C2474 1.391 . S
C2476 C2477 1.400 . S
C2477 C2471 1.491 . S
C2477 C2476 1.400 . S
C2477 C2478 1.398 . S
C2478 H2466 0.950 . S
C2478 C2477 1.398 . S
C2478 C2479 1.391 . S
C2479 H2467 0.950 . S
C2479 C2475 1.393 . S
C2479 C2478 1.391 . S
H2480 C2488 0.950 . S
H2481 C2493 0.950 . S
H2482 C2490 0.950 . S
H2483 C2492 0.950 . S
H2484 C2494 0.950 . S
H2485 C2496 0.950 . S
H2486 C2498 0.950 . S
H2487 C2499 0.950 . S
C2488 H2480 0.950 . S
C2488 C2489 1.386 . S
C2488 C2490 1.391 . S
C2489 C2488 1.386 . S
C2489 C2493 1.393 . S
C2490 H2482 0.950 . S
C2490 C2488 1.391 . S
C2490 C2491 1.400 . S
C2491 C2490 1.400 . S
C2491 C2492 1.398 . S
C2491 C2497 1.491 . S
C2492 H2483 0.950 . S
C2492 C2491 1.398 . S
C2492 C2493 1.391 . S
C2493 H2481 0.950 . S
C2493 C2489 1.393 . S
C2493 C2492 1.391 . S
C2494 H2484 0.950 . S
C2494 C2495 1.386 . S
C2494 C2496 1.391 . S
C2495 C2494 1.386 . S
C2495 C2499 1.393 . S
C2496 H2485 0.950 . S
C2496 C2494 1.391 . S
C2496 C2497 1.400 . S
C2497 C2491 1.491 . S
C2497 C2496 1.400 . S
C2497 C2498 1.398 . S
C2498 H2486 0.950 . S
C2498 C2497 1.398 . S
C2498 C2499 1.391 . S
C2499 H2487 0.950 . S
C2499 C2495 1.393 . S
C2499 C2498 1.391 . S
H2500 C2508 0.950 . S
H2501 C2513 0.950 . S
H2502 C2510 0.950 . S
H2503 C2512 0.950 . S
H2504 C2514 0.950 . S
H2505 C2516 0.950 . S
H2506 C2518 0.950 . S
H2507 C2519 0.950 . S
C2508 H2500 0.950 . S
C2508 C2509 1.386 . S
C2508 C2510 1.391 . S
C2509 C2508 1.386 . S
C2509 C2513 1.393 . S
C2510 H2502 0.950 . S
C2510 C2508 1.391 . S
C2510 C2511 1.400 . S
C2511 C2510 1.400 . S
C2511 C2512 1.398 . S
C2511 C2517 1.491 . S
C2512 H2503 0.950 . S
C2512 C2511 1.398 . S
C2512 C2513 1.391 . S
C2513 H2501 0.950 . S
C2513 C2509 1.393 . S
C2513 C2512 1.391 . S
C2514 H2504 0.950 . S
C2514 C2515 1.386 . S
C2514 C2516 1.391 . S
C2515 C2514 1.386 . S
C2515 C2519 1.393 . S
C2516 H2505 0.950 . S
C2516 C2514 1.391 . S
C2516 C2517 1.400 . S
C2517 C2511 1.491 . S
C2517 C2516 1.400 . S
C2517 C2518 1.398 . S
C2518 H2506 0.950 . S
C2518 C2517 1.398 . S
C2518 C2519 1.391 . S
C2519 H2507 0.950 . S
C2519 C2515 1.393 . S
C2519 C2518 1.391 . S
H2520 C2528 0.950 . S
H2521 C2533 0.950 . S
H2522 C2530 0.950 . S
H2523 C2532 0.950 . S
H2524 C2534 0.950 . S
H2525 C2536 0.950 . S
H2526 C2538 0.950 . S
H2527 C2539 0.950 . S
C2528 H2520 0.950 . S
C2528 C2529 1.386 . S
C2528 C2530 1.391 . S
C2529 C2528 1.386 . S
C2529 C2533 1.393 . S
C2530 H2522 0.950 . S
C2530 C2528 1.391 . S
C2530 C2531 1.400 . S
C2531 C2530 1.400 . S
C2531 C2532 1.398 . S
C2531 C2537 1.491 . S
C2532 H2523 0.950 . S
C2532 C2531 1.398 . S
C2532 C2533 1.391 . S
C2533 H2521 0.950 . S
C2533 C2529 1.393 . S
C2533 C2532 1.391 . S
C2534 H2524 0.950 . S
C2534 C2535 1.386 . S
C2534 C2536 1.391 . S
C2535 C2534 1.386 . S
C2535 C2539 1.393 . S
C2536 H2525 0.950 . S
C2536 C2534 1.391 . S
C2536 C2537 1.400 . S
C2537 C2531 1.491 . S
C2537 C2536 1.400 . S
C2537 C2538 1.398 . S
C2538 H2526 0.950 . S
C2538 C2537 1.398 . S
C2538 C2539 1.391 . S
C2539 H2527 0.950 . S
C2539 C2535 1.393 . S
C2539 C2538 1.391 . S
H2540 C2548 0.950 . S
H2541 C2553 0.950 . S
H2542 C2550 0.950 . S
H2543 C2552 0.950 . S
H2544 C2554 0.950 . S
H2545 C2556 0.950 . S
H2546 C2558 0.950 . S
H2547 C2559 0.950 . S
C2548 H2540 0.950 . S
C2548 C2549 1.386 . S
C2548 C2550 1.391 . S
C2549 C2548 1.386 . S
C2549 C2553 1.393 . S
C2550 H2542 0.950 . S
C2550 C2548 1.391 . S
C2550 C2551 1.400 . S
C2551 C2550 1.400 . S
C2551 C2552 1.398 . S
C2551 C2557 1.491 . S
C2552 H2543 0.950 . S
C2552 C2551 1.398 . S
C2552 C2553 1.391 . S
C2553 H2541 0.950 . S
C2553 C2549 1.393 . S
C2553 C2552 1.391 . S
C2554 H2544 0.950 . S
C2554 C2555 1.386 . S
C2554 C2556 1.391 . S
C2555 C2554 1.386 . S
C2555 C2559 1.393 . S
C2556 H2545 0.950 . S
C2556 C2554 1.391 . S
C2556 C2557 1.400 . S
C2557 C2551 1.491 . S
C2557 C2556 1.400 . S
C2557 C2558 1.398 . S
C2558 H2546 0.950 . S
C2558 C2557 1.398 . S
C2558 C2559 1.391 . S
C2559 H2547 0.950 . S
C2559 C2555 1.393 . S
C2559 C2558 1.391 . S
H2560 C2568 0.950 1_545 S
H2561 C2573 0.950 . S
H2562 C2570 0.950 . S
H2563 C2572 0.950 . S
H2564 C2574 0.950 . S
H2565 C2576 0.950 . S
H2566 C2578 0.950 . S
H2567 C2579 0.950 . S
C2568 H2560 0.950 1_565 S
C2568 C2569 1.386 . S
C2568 C2570 1.391 . S
C2569 C2568 1.386 . S
C2569 C2573 1.393 . S
C2570 H2562 0.950 . S
C2570 C2568 1.391 . S
C2570 C2571 1.400 . S
C2571 C2570 1.400 . S
C2571 C2572 1.398 . S
C2571 C2577 1.491 . S
C2572 H2563 0.950 . S
C2572 C2571 1.398 . S
C2572 C2573 1.391 . S
C2573 H2561 0.950 . S
C2573 C2569 1.393 . S
C2573 C2572 1.391 . S
C2574 H2564 0.950 . S
C2574 C2575 1.386 . S
C2574 C2576 1.391 . S
C2575 C2574 1.386 . S
C2575 C2579 1.393 . S
C2576 H2565 0.950 . S
C2576 C2574 1.391 . S
C2576 C2577 1.400 . S
C2577 C2571 1.491 . S
C2577 C2576 1.400 . S
C2577 C2578 1.398 . S
C2578 H2566 0.950 . S
C2578 C2577 1.398 . S
C2578 C2579 1.391 . S
C2579 H2567 0.950 . S
C2579 C2575 1.393 . S
C2579 C2578 1.391 . S
H2580 C2588 0.950 . S
H2581 C2593 0.950 . S
H2582 C2590 0.950 . S
H2583 C2592 0.950 . S
H2584 C2594 0.950 1_655 S
H2585 C2596 0.950 . S
H2586 C2598 0.950 . S
H2587 C2599 0.950 . S
C2588 H2580 0.950 . S
C2588 C2589 1.386 . S
C2588 C2590 1.391 . S
C2589 C2588 1.386 . S
C2589 C2593 1.393 . S
C2590 H2582 0.950 . S
C2590 C2588 1.391 . S
C2590 C2591 1.400 . S
C2591 C2590 1.400 . S
C2591 C2592 1.398 . S
C2591 C2597 1.491 . S
C2592 H2583 0.950 . S
C2592 C2591 1.398 . S
C2592 C2593 1.391 . S
C2593 H2581 0.950 . S
C2593 C2589 1.393 . S
C2593 C2592 1.391 . S
C2594 H2584 0.950 1_455 S
C2594 C2595 1.386 1_455 S
C2594 C2596 1.391 . S
C2595 C2594 1.386 1_655 S
C2595 C2599 1.393 1_655 S
C2596 H2585 0.950 . S
C2596 C2594 1.391 . S
C2596 C2597 1.400 . S
C2597 C2591 1.491 . S
C2597 C2596 1.400 . S
C2597 C2598 1.398 . S
C2598 H2586 0.950 . S
C2598 C2597 1.398 . S
C2598 C2599 1.391 . S
C2599 H2587 0.950 . S
C2599 C2595 1.393 1_455 S
C2599 C2598 1.391 . S
H2600 C2608 0.950 . S
H2601 C2613 0.950 . S
H2602 C2610 0.950 . S
H2603 C2612 0.950 . S
H2604 C2614 0.950 . S
H2605 C2616 0.950 . S
H2606 C2618 0.950 . S
H2607 C2619 0.950 . S
C2608 H2600 0.950 . S
C2608 C2609 1.386 . S
C2608 C2610 1.391 . S
C2609 C2608 1.386 . S
C2609 C2613 1.393 . S
C2610 H2602 0.950 . S
C2610 C2608 1.391 . S
C2610 C2611 1.400 . S
C2611 C2610 1.400 . S
C2611 C2612 1.398 . S
C2611 C2617 1.491 . S
C2612 H2603 0.950 . S
C2612 C2611 1.398 . S
C2612 C2613 1.391 . S
C2613 H2601 0.950 . S
C2613 C2609 1.393 . S
C2613 C2612 1.391 . S
C2614 H2604 0.950 . S
C2614 C2615 1.386 . S
C2614 C2616 1.391 . S
C2615 C2614 1.386 . S
C2615 C2619 1.393 . S
C2616 H2605 0.950 . S
C2616 C2614 1.391 . S
C2616 C2617 1.400 . S
C2617 C2611 1.491 . S
C2617 C2616 1.400 . S
C2617 C2618 1.398 . S
C2618 H2606 0.950 . S
C2618 C2617 1.398 . S
C2618 C2619 1.391 . S
C2619 H2607 0.950 . S
C2619 C2615 1.393 . S
C2619 C2618 1.391 . S
H2620 C2628 0.950 . S
H2621 C2633 0.950 1_645 S
H2622 C2630 0.950 . S
H2623 C2632 0.950 . S
H2624 C2634 0.950 . S
H2625 C2636 0.950 . S
H2626 C2638 0.950 . S
H2627 C2639 0.950 . S
C2628 H2620 0.950 . S
C2628 C2629 1.386 1_455 S
C2628 C2630 1.391 . S
C2629 C2628 1.386 1_655 S
C2629 C2633 1.393 1_655 S
C2630 H2622 0.950 . S
C2630 C2628 1.391 . S
C2630 C2631 1.400 . S
C2631 C2630 1.400 . S
C2631 C2632 1.398 . S
C2631 C2637 1.491 . S
C2632 H2623 0.950 . S
C2632 C2631 1.398 . S
C2632 C2633 1.391 . S
C2633 H2621 0.950 1_465 S
C2633 C2629 1.393 1_455 S
C2633 C2632 1.391 . S
C2634 H2624 0.950 . S
C2634 C2635 1.386 . S
C2634 C2636 1.391 . S
C2635 C2634 1.386 . S
C2635 C2639 1.393 . S
C2636 H2625 0.950 . S
C2636 C2634 1.391 . S
C2636 C2637 1.400 . S
C2637 C2631 1.491 . S
C2637 C2636 1.400 . S
C2637 C2638 1.398 . S
C2638 H2626 0.950 . S
C2638 C2637 1.398 . S
C2638 C2639 1.391 . S
C2639 H2627 0.950 . S
C2639 C2635 1.393 . S
C2639 C2638 1.391 . S
H2640 C2648 0.950 . S
H2641 C2653 0.950 . S
H2642 C2650 0.950 . S
H2643 C2652 0.950 . S
H2644 C2654 0.950 . S
H2645 C2656 0.950 . S
H2646 C2658 0.950 . S
H2647 C2659 0.950 . S
C2648 H2640 0.950 . S
C2648 C2649 1.386 1_565 S
C2648 C2650 1.391 . S
C2649 C2648 1.386 1_545 S
C2649 C2653 1.393 . S
C2650 H2642 0.950 . S
C2650 C2648 1.391 . S
C2650 C2651 1.400 1_565 S
C2651 C2650 1.400 1_545 S
C2651 C2652 1.398 . S
C2651 C2657 1.491 . S
C2652 H2643 0.950 . S
C2652 C2651 1.398 . S
C2652 C2653 1.391 . S
C2653 H2641 0.950 . S
C2653 C2649 1.393 . S
C2653 C2652 1.391 . S
C2654 H2644 0.950 . S
C2654 C2655 1.386 . S
C2654 C2656 1.391 . S
C2655 C2654 1.386 . S
C2655 C2659 1.393 1_545 S
C2656 H2645 0.950 . S
C2656 C2654 1.391 . S
C2656 C2657 1.400 . S
C2657 C2651 1.491 . S
C2657 C2656 1.400 . S
C2657 C2658 1.398 1_545 S
C2658 H2646 0.950 . S
C2658 C2657 1.398 1_565 S
C2658 C2659 1.391 . S
C2659 H2647 0.950 . S
C2659 C2655 1.393 1_565 S
C2659 C2658 1.391 . S
H2660 C2668 0.950 . S
H2661 C2673 0.950 1_455 S
H2662 C2670 0.950 . S
H2663 C2672 0.950 . S
H2664 C2674 0.950 . S
H2665 C2676 0.950 . S
H2666 C2678 0.950 . S
H2667 C2679 0.950 . S
C2668 H2660 0.950 . S
C2668 C2669 1.386 1_655 S
C2668 C2670 1.391 . S
C2669 C2668 1.386 1_455 S
C2669 C2673 1.393 1_455 S
C2670 H2662 0.950 . S
C2670 C2668 1.391 . S
C2670 C2671 1.400 . S
C2671 C2670 1.400 . S
C2671 C2672 1.398 . S
C2671 C2677 1.491 . S
C2672 H2663 0.950 . S
C2672 C2671 1.398 . S
C2672 C2673 1.391 . S
C2673 H2661 0.950 1_655 S
C2673 C2669 1.393 1_655 S
C2673 C2672 1.391 . S
C2674 H2664 0.950 . S
C2674 C2675 1.386 . S
C2674 C2676 1.391 . S
C2675 C2674 1.386 . S
C2675 C2679 1.393 . S
C2676 H2665 0.950 . S
C2676 C2674 1.391 . S
C2676 C2677 1.400 . S
C2677 C2671 1.491 . S
C2677 C2676 1.400 . S
C2677 C2678 1.398 . S
C2678 H2666 0.950 . S
C2678 C2677 1.398 . S
C2678 C2679 1.391 . S
C2679 H2667 0.950 . S
C2679 C2675 1.393 . S
C2679 C2678 1.391 . S
H2680 C2688 0.950 . S
H2681 C2693 0.950 . S
H2682 C2690 0.950 . S
H2683 C2692 0.950 . S
H2684 C2694 0.950 . S
H2685 C2696 0.950 . S
H2686 C2698 0.950 . S
H2687 C2699 0.950 . S
C2688 H2680 0.950 . S
C2688 C2689 1.386 . S
C2688 C2690 1.391 . S
C2689 C2688 1.386 . S
C2689 C2693 1.393 . S
C2690 H2682 0.950 . S
C2690 C2688 1.391 . S
C2690 C2691 1.400 . S
C2691 C2690 1.400 . S
C2691 C2692 1.398 . S
C2691 C2697 1.491 . S
C2692 H2683 0.950 . S
C2692 C2691 1.398 . S
C2692 C2693 1.391 . S
C2693 H2681 0.950 . S
C2693 C2689 1.393 . S
C2693 C2692 1.391 . S
C2694 H2684 0.950 . S
C2694 C2695 1.386 . S
C2694 C2696 1.391 . S
C2695 C2694 1.386 . S
C2695 C2699 1.393 . S
C2696 H2685 0.950 . S
C2696 C2694 1.391 . S
C2696 C2697 1.400 . S
C2697 C2691 1.491 . S
C2697 C2696 1.400 . S
C2697 C2698 1.398 . S
C2698 H2686 0.950 . S
C2698 C2697 1.398 . S
C2698 C2699 1.391 . S
C2699 H2687 0.950 . S
C2699 C2695 1.393 . S
C2699 C2698 1.391 . S
H2700 C2708 0.950 1_565 S
H2701 C2713 0.950 . S
H2702 C2710 0.950 1_565 S
H2703 C2712 0.950 . S
H2704 C2714 0.950 1_455 S
H2705 C2716 0.950 . S
H2706 C2718 0.950 . S
H2707 C2719 0.950 . S
C2708 H2700 0.950 1_545 S
C2708 C2709 1.386 . S
C2708 C2710 1.391 . S
C2709 C2708 1.386 . S
C2709 C2713 1.393 . S
C2710 H2702 0.950 1_545 S
C2710 C2708 1.391 . S
C2710 C2711 1.400 . S
C2711 C2710 1.400 . S
C2711 C2712 1.398 . S
C2711 C2717 1.491 . S
C2712 H2703 0.950 . S
C2712 C2711 1.398 . S
C2712 C2713 1.391 . S
C2713 H2701 0.950 . S
C2713 C2709 1.393 . S
C2713 C2712 1.391 . S
C2714 H2704 0.950 1_655 S
C2714 C2715 1.386 1_655 S
C2714 C2716 1.391 . S
C2715 C2714 1.386 1_455 S
C2715 C2719 1.393 1_445 S
C2716 H2705 0.950 . S
C2716 C2714 1.391 . S
C2716 C2717 1.400 . S
C2717 C2711 1.491 . S
C2717 C2716 1.400 . S
C2717 C2718 1.398 1_545 S
C2718 H2706 0.950 . S
C2718 C2717 1.398 1_565 S
C2718 C2719 1.391 . S
C2719 H2707 0.950 . S
C2719 C2715 1.393 1_665 S
C2719 C2718 1.391 . S
H2720 C2728 0.950 . S
H2721 C2733 0.950 . S
H2722 C2730 0.950 . S
H2723 C2732 0.950 . S
H2724 C2734 0.950 . S
H2725 C2736 0.950 . S
H2726 C2738 0.950 . S
H2727 C2739 0.950 . S
C2728 H2720 0.950 . S
C2728 C2729 1.386 . S
C2728 C2730 1.391 . S
C2729 C2728 1.386 . S
C2729 C2733 1.393 . S
C2730 H2722 0.950 . S
C2730 C2728 1.391 . S
C2730 C2731 1.400 . S
C2731 C2730 1.400 . S
C2731 C2732 1.398 . S
C2731 C2737 1.491 . S
C2732 H2723 0.950 . S
C2732 C2731 1.398 . S
C2732 C2733 1.391 . S
C2733 H2721 0.950 . S
C2733 C2729 1.393 . S
C2733 C2732 1.391 . S
C2734 H2724 0.950 . S
C2734 C2735 1.386 . S
C2734 C2736 1.391 . S
C2735 C2734 1.386 . S
C2735 C2739 1.393 . S
C2736 H2725 0.950 . S
C2736 C2734 1.391 . S
C2736 C2737 1.400 . S
C2737 C2731 1.491 . S
C2737 C2736 1.400 . S
C2737 C2738 1.398 . S
C2738 H2726 0.950 . S
C2738 C2737 1.398 . S
C2738 C2739 1.391 . S
C2739 H2727 0.950 . S
C2739 C2735 1.393 . S
C2739 C2738 1.391 . S
H2740 C2748 0.950 . S
H2741 C2753 0.950 . S
H2742 C2750 0.950 . S
H2743 C2752 0.950 . S
H2744 C2754 0.950 . S
H2745 C2756 0.950 . S
H2746 C2758 0.950 . S
H2747 C2759 0.950 1_655 S
C2748 H2740 0.950 . S
C2748 C2749 1.386 . S
C2748 C2750 1.391 . S
C2749 C2748 1.386 . S
C2749 C2753 1.393 . S
C2750 H2742 0.950 . S
C2750 C2748 1.391 . S
C2750 C2751 1.400 . S
C2751 C2750 1.400 . S
C2751 C2752 1.398 . S
C2751 C2757 1.491 . S
C2752 H2743 0.950 . S
C2752 C2751 1.398 . S
C2752 C2753 1.391 . S
C2753 H2741 0.950 . S
C2753 C2749 1.393 . S
C2753 C2752 1.391 . S
C2754 H2744 0.950 . S
C2754 C2755 1.386 1_455 S
C2754 C2756 1.391 . S
C2755 C2754 1.386 1_655 S
C2755 C2759 1.393 1_655 S
C2756 H2745 0.950 . S
C2756 C2754 1.391 . S
C2756 C2757 1.400 . S
C2757 C2751 1.491 . S
C2757 C2756 1.400 . S
C2757 C2758 1.398 . S
C2758 H2746 0.950 . S
C2758 C2757 1.398 . S
C2758 C2759 1.391 . S
C2759 H2747 0.950 1_455 S
C2759 C2755 1.393 1_455 S
C2759 C2758 1.391 . S
H2760 C2768 0.950 . S
H2761 C2773 0.950 . S
H2762 C2770 0.950 . S
H2763 C2772 0.950 . S
H2764 C2774 0.950 . S
H2765 C2776 0.950 . S
H2766 C2778 0.950 . S
H2767 C2779 0.950 . S
C2768 H2760 0.950 . S
C2768 C2769 1.386 . S
C2768 C2770 1.391 . S
C2769 C2768 1.386 . S
C2769 C2773 1.393 . S
C2770 H2762 0.950 . S
C2770 C2768 1.391 . S
C2770 C2771 1.400 . S
C2771 C2770 1.400 . S
C2771 C2772 1.398 . S
C2771 C2777 1.491 . S
C2772 H2763 0.950 . S
C2772 C2771 1.398 . S
C2772 C2773 1.391 . S
C2773 H2761 0.950 . S
C2773 C2769 1.393 . S
C2773 C2772 1.391 . S
C2774 H2764 0.950 . S
C2774 C2775 1.386 . S
C2774 C2776 1.391 . S
C2775 C2774 1.386 . S
C2775 C2779 1.393 . S
C2776 H2765 0.950 . S
C2776 C2774 1.391 . S
C2776 C2777 1.400 . S
C2777 C2771 1.491 . S
C2777 C2776 1.400 . S
C2777 C2778 1.398 . S
C2778 H2766 0.950 . S
C2778 C2777 1.398 . S
C2778 C2779 1.391 . S
C2779 H2767 0.950 . S
C2779 C2775 1.393 . S
C2779 C2778 1.391 . S
H2780 C2788 0.950 . S
H2781 C2793 0.950 . S
H2782 C2790 0.950 . S
H2783 C2792 0.950 . S
H2784 C2794 0.950 1_655 S
H2785 C2796 0.950 . S
H2786 C2798 0.950 . S
H2787 C2799 0.950 . S
C2788 H2780 0.950 . S
C2788 C2789 1.386 . S
C2788 C2790 1.391 . S
C2789 C2788 1.386 . S
C2789 C2793 1.393 . S
C2790 H2782 0.950 . S
C2790 C2788 1.391 . S
C2790 C2791 1.400 . S
C2791 C2790 1.400 . S
C2791 C2792 1.398 . S
C2791 C2797 1.491 . S
C2792 H2783 0.950 . S
C2792 C2791 1.398 . S
C2792 C2793 1.391 . S
C2793 H2781 0.950 . S
C2793 C2789 1.393 . S
C2793 C2792 1.391 . S
C2794 H2784 0.950 1_455 S
C2794 C2795 1.386 1_455 S
C2794 C2796 1.391 . S
C2795 C2794 1.386 1_655 S
C2795 C2799 1.393 1_655 S
C2796 H2785 0.950 . S
C2796 C2794 1.391 . S
C2796 C2797 1.400 . S
C2797 C2791 1.491 . S
C2797 C2796 1.400 . S
C2797 C2798 1.398 . S
C2798 H2786 0.950 . S
C2798 C2797 1.398 . S
C2798 C2799 1.391 . S
C2799 H2787 0.950 . S
C2799 C2795 1.393 1_455 S
C2799 C2798 1.391 . S
H2800 C2808 0.950 . S
H2801 C2813 0.950 . S
H2802 C2810 0.950 . S
H2803 C2812 0.950 . S
H2804 C2814 0.950 . S
H2805 C2816 0.950 . S
H2806 C2818 0.950 . S
H2807 C2819 0.950 . S
C2808 H2800 0.950 . S
C2808 C2809 1.386 . S
C2808 C2810 1.391 . S
C2809 C2808 1.386 . S
C2809 C2813 1.393 . S
C2810 H2802 0.950 . S
C2810 C2808 1.391 . S
C2810 C2811 1.400 . S
C2811 C2810 1.400 . S
C2811 C2812 1.398 . S
C2811 C2817 1.491 . S
C2812 H2803 0.950 . S
C2812 C2811 1.398 . S
C2812 C2813 1.391 . S
C2813 H2801 0.950 . S
C2813 C2809 1.393 . S
C2813 C2812 1.391 . S
C2814 H2804 0.950 . S
C2814 C2815 1.386 . S
C2814 C2816 1.391 . S
C2815 C2814 1.386 . S
C2815 C2819 1.393 . S
C2816 H2805 0.950 . S
C2816 C2814 1.391 . S
C2816 C2817 1.400 . S
C2817 C2811 1.491 . S
C2817 C2816 1.400 . S
C2817 C2818 1.398 . S
C2818 H2806 0.950 . S
C2818 C2817 1.398 . S
C2818 C2819 1.391 . S
C2819 H2807 0.950 . S
C2819 C2815 1.393 . S
C2819 C2818 1.391 . S
H2820 C2828 0.950 . S
H2821 C2833 0.950 1_455 S
H2822 C2830 0.950 . S
H2823 C2832 0.950 . S
H2824 C2834 0.950 . S
H2825 C2836 0.950 . S
H2826 C2838 0.950 . S
H2827 C2839 0.950 . S
C2828 H2820 0.950 . S
C2828 C2829 1.386 1_655 S
C2828 C2830 1.391 . S
C2829 C2828 1.386 1_455 S
C2829 C2833 1.393 1_455 S
C2830 H2822 0.950 . S
C2830 C2828 1.391 . S
C2830 C2831 1.400 . S
C2831 C2830 1.400 . S
C2831 C2832 1.398 . S
C2831 C2837 1.491 . S
C2832 H2823 0.950 . S
C2832 C2831 1.398 . S
C2832 C2833 1.391 . S
C2833 H2821 0.950 1_655 S
C2833 C2829 1.393 1_655 S
C2833 C2832 1.391 . S
C2834 H2824 0.950 . S
C2834 C2835 1.386 . S
C2834 C2836 1.391 . S
C2835 C2834 1.386 . S
C2835 C2839 1.393 . S
C2836 H2825 0.950 . S
C2836 C2834 1.391 . S
C2836 C2837 1.400 . S
C2837 C2831 1.491 . S
C2837 C2836 1.400 . S
C2837 C2838 1.398 . S
C2838 H2826 0.950 . S
C2838 C2837 1.398 . S
C2838 C2839 1.391 . S
C2839 H2827 0.950 . S
C2839 C2835 1.393 . S
C2839 C2838 1.391 . S
H2840 C2848 0.950 . S
H2841 C2853 0.950 . S
H2842 C2850 0.950 . S
H2843 C2852 0.950 . S
H2844 C2854 0.950 . S
H2845 C2856 0.950 . S
H2846 C2858 0.950 . S
H2847 C2859 0.950 . S
C2848 H2840 0.950 . S
C2848 C2849 1.386 . S
C2848 C2850 1.391 . S
C2849 C2848 1.386 . S
C2849 C2853 1.393 . S
C2850 H2842 0.950 . S
C2850 C2848 1.391 . S
C2850 C2851 1.400 . S
C2851 C2850 1.400 . S
C2851 C2852 1.398 . S
C2851 C2857 1.491 . S
C2852 H2843 0.950 . S
C2852 C2851 1.398 . S
C2852 C2853 1.391 . S
C2853 H2841 0.950 . S
C2853 C2849 1.393 . S
C2853 C2852 1.391 . S
C2854 H2844 0.950 . S
C2854 C2855 1.386 . S
C2854 C2856 1.391 . S
C2855 C2854 1.386 . S
C2855 C2859 1.393 . S
C2856 H2845 0.950 . S
C2856 C2854 1.391 . S
C2856 C2857 1.400 . S
C2857 C2851 1.491 . S
C2857 C2856 1.400 . S
C2857 C2858 1.398 . S
C2858 H2846 0.950 . S
C2858 C2857 1.398 . S
C2858 C2859 1.391 . S
C2859 H2847 0.950 . S
C2859 C2855 1.393 . S
C2859 C2858 1.391 . S
H2860 C2868 0.950 . S
H2861 C2873 0.950 . S
H2862 C2870 0.950 . S
H2863 C2872 0.950 . S
H2864 C2874 0.950 . S
H2865 C2876 0.950 . S
H2866 C2878 0.950 . S
H2867 C2879 0.950 1_455 S
C2868 H2860 0.950 . S
C2868 C2869 1.386 . S
C2868 C2870 1.391 . S
C2869 C2868 1.386 . S
C2869 C2873 1.393 . S
C2870 H2862 0.950 . S
C2870 C2868 1.391 . S
C2870 C2871 1.400 . S
C2871 C2870 1.400 . S
C2871 C2872 1.398 . S
C2871 C2877 1.491 . S
C2872 H2863 0.950 . S
C2872 C2871 1.398 . S
C2872 C2873 1.391 . S
C2873 H2861 0.950 . S
C2873 C2869 1.393 . S
C2873 C2872 1.391 . S
C2874 H2864 0.950 . S
C2874 C2875 1.386 1_655 S
C2874 C2876 1.391 . S
C2875 C2874 1.386 1_455 S
C2875 C2879 1.393 1_455 S
C2876 H2865 0.950 . S
C2876 C2874 1.391 . S
C2876 C2877 1.400 . S
C2877 C2871 1.491 . S
C2877 C2876 1.400 . S
C2877 C2878 1.398 . S
C2878 H2866 0.950 . S
C2878 C2877 1.398 . S
C2878 C2879 1.391 . S
C2879 H2867 0.950 1_655 S
C2879 C2875 1.393 1_655 S
C2879 C2878 1.391 . S
H2880 C2888 0.950 . S
H2881 C2893 0.950 . S
H2882 C2890 0.950 . S
H2883 C2892 0.950 . S
H2884 C2894 0.950 . S
H2885 C2896 0.950 . S
H2886 C2898 0.950 . S
H2887 C2899 0.950 . S
C2888 H2880 0.950 . S
C2888 C2889 1.386 . S
C2888 C2890 1.391 . S
C2889 C2888 1.386 . S
C2889 C2893 1.393 1_565 S
C2890 H2882 0.950 . S
C2890 C2888 1.391 . S
C2890 C2891 1.400 . S
C2891 C2890 1.400 . S
C2891 C2892 1.398 1_565 S
C2891 C2897 1.491 . S
C2892 H2883 0.950 . S
C2892 C2891 1.398 1_545 S
C2892 C2893 1.391 . S
C2893 H2881 0.950 . S
C2893 C2889 1.393 1_545 S
C2893 C2892 1.391 . S
C2894 H2884 0.950 . S
C2894 C2895 1.386 1_545 S
C2894 C2896 1.391 . S
C2895 C2894 1.386 1_565 S
C2895 C2899 1.393 . S
C2896 H2885 0.950 . S
C2896 C2894 1.391 . S
C2896 C2897 1.400 1_545 S
C2897 C2891 1.491 . S
C2897 C2896 1.400 1_565 S
C2897 C2898 1.398 . S
C2898 H2886 0.950 . S
C2898 C2897 1.398 . S
C2898 C2899 1.391 . S
C2899 H2887 0.950 . S
C2899 C2895 1.393 . S
C2899 C2898 1.391 . S
H2900 C2908 0.950 . S
H2901 C2913 0.950 . S
H2902 C2910 0.950 . S
H2903 C2912 0.950 . S
H2904 C2914 0.950 . S
H2905 C2916 0.950 . S
H2906 C2918 0.950 . S
H2907 C2919 0.950 . S
C2908 H2900 0.950 . S
C2908 C2909 1.386 . S
C2908 C2910 1.391 . S
C2909 C2908 1.386 . S
C2909 C2913 1.393 . S
C2910 H2902 0.950 . S
C2910 C2908 1.391 . S
C2910 C2911 1.400 . S
C2911 C2910 1.400 . S
C2911 C2912 1.398 . S
C2911 C2917 1.491 . S
C2912 H2903 0.950 . S
C2912 C2911 1.398 . S
C2912 C2913 1.391 . S
C2913 H2901 0.950 . S
C2913 C2909 1.393 . S
C2913 C2912 1.391 . S
C2914 H2904 0.950 . S
C2914 C2915 1.386 . S
C2914 C2916 1.391 . S
C2915 C2914 1.386 . S
C2915 C2919 1.393 . S
C2916 H2905 0.950 . S
C2916 C2914 1.391 . S
C2916 C2917 1.400 . S
C2917 C2911 1.491 . S
C2917 C2916 1.400 . S
C2917 C2918 1.398 . S
C2918 H2906 0.950 . S
C2918 C2917 1.398 . S
C2918 C2919 1.391 . S
C2919 H2907 0.950 . S
C2919 C2915 1.393 . S
C2919 C2918 1.391 . S
H2920 C2928 0.950 . S
H2921 C2933 0.950 . S
H2922 C2930 0.950 . S
H2923 C2932 0.950 . S
H2924 C2934 0.950 . S
H2925 C2936 0.950 . S
H2926 C2938 0.950 . S
H2927 C2939 0.950 . S
C2928 H2920 0.950 . S
C2928 C2929 1.386 . S
C2928 C2930 1.391 . S
C2929 C2928 1.386 . S
C2929 C2933 1.393 . S
C2930 H2922 0.950 . S
C2930 C2928 1.391 . S
C2930 C2931 1.400 . S
C2931 C2930 1.400 . S
C2931 C2932 1.398 . S
C2931 C2937 1.491 . S
C2932 H2923 0.950 . S
C2932 C2931 1.398 . S
C2932 C2933 1.391 . S
C2933 H2921 0.950 . S
C2933 C2929 1.393 . S
C2933 C2932 1.391 . S
C2934 H2924 0.950 . S
C2934 C2935 1.386 . S
C2934 C2936 1.391 . S
C2935 C2934 1.386 . S
C2935 C2939 1.393 . S
C2936 H2925 0.950 . S
C2936 C2934 1.391 . S
C2936 C2937 1.400 . S
C2937 C2931 1.491 . S
C2937 C2936 1.400 . S
C2937 C2938 1.398 . S
C2938 H2926 0.950 . S
C2938 C2937 1.398 . S
C2938 C2939 1.391 . S
C2939 H2927 0.950 . S
C2939 C2935 1.393 . S
C2939 C2938 1.391 . S
H2940 C2948 0.950 . S
H2941 C2953 0.950 . S
H2942 C2950 0.950 . S
H2943 C2952 0.950 . S
H2944 C2954 0.950 . S
H2945 C2956 0.950 . S
H2946 C2958 0.950 . S
H2947 C2959 0.950 . S
C2948 H2940 0.950 . S
C2948 C2949 1.386 . S
C2948 C2950 1.391 . S
C2949 C2948 1.386 . S
C2949 C2953 1.393 1_565 S
C2950 H2942 0.950 . S
C2950 C2948 1.391 . S
C2950 C2951 1.400 . S
C2951 C2950 1.400 . S
C2951 C2952 1.398 1_565 S
C2951 C2957 1.491 . S
C2952 H2943 0.950 . S
C2952 C2951 1.398 1_545 S
C2952 C2953 1.391 . S
C2953 H2941 0.950 . S
C2953 C2949 1.393 1_545 S
C2953 C2952 1.391 . S
C2954 H2944 0.950 . S
C2954 C2955 1.386 1_545 S
C2954 C2956 1.391 . S
C2955 C2954 1.386 1_565 S
C2955 C2959 1.393 . S
C2956 H2945 0.950 . S
C2956 C2954 1.391 . S
C2956 C2957 1.400 1_545 S
C2957 C2951 1.491 . S
C2957 C2956 1.400 1_565 S
C2957 C2958 1.398 . S
C2958 H2946 0.950 . S
C2958 C2957 1.398 . S
C2958 C2959 1.391 . S
C2959 H2947 0.950 . S
C2959 C2955 1.393 . S
C2959 C2958 1.391 . S
H2960 C2968 0.950 . S
H2961 C2973 0.950 . S
H2962 C2970 0.950 . S
H2963 C2972 0.950 . S
H2964 C2974 0.946 1_565 S
H2965 C2976 0.950 . S
H2966 C2978 0.950 . S
H2967 C2979 0.950 . S
C2968 H2960 0.950 . S
C2968 C2969 1.386 . S
C2968 C2970 1.391 . S
C2969 C2968 1.386 . S
C2969 C2973 1.393 1_545 S
C2970 H2962 0.950 . S
C2970 C2968 1.391 . S
C2970 C2971 1.400 . S
C2971 C2970 1.400 . S
C2971 C2972 1.398 1_545 S
C2971 C2977 1.491 . S
C2972 H2963 0.950 . S
C2972 C2971 1.398 1_565 S
C2972 C2973 1.391 . S
C2973 H2961 0.950 . S
C2973 C2969 1.393 1_565 S
C2973 C2972 1.391 . S
C2974 H2964 0.946 1_545 S
C2974 C2975 1.390 . S
C2974 C2976 1.391 1_545 S
C2975 C2974 1.390 . S
C2975 C2979 1.393 . S
C2976 H2965 0.950 . S
C2976 C2974 1.391 1_565 S
C2976 C2977 1.400 1_565 S
C2977 C2971 1.491 . S
C2977 C2976 1.400 1_545 S
C2977 C2978 1.398 . S
C2978 H2966 0.950 . S
C2978 C2977 1.398 . S
C2978 C2979 1.391 . S
C2979 H2967 0.950 . S
C2979 C2975 1.393 . S
C2979 C2978 1.391 . S
H2980 C2988 0.950 . S
H2981 C2993 0.950 . S
H2982 C2990 0.950 . S
H2983 C2992 0.950 . S
H2984 C2994 0.950 . S
H2985 C2996 0.950 . S
H2986 C2998 0.950 . S
H2987 C2999 0.950 . S
C2988 H2980 0.950 . S
C2988 C2989 1.386 . S
C2988 C2990 1.391 . S
C2989 C2988 1.386 . S
C2989 C2993 1.393 . S
C2990 H2982 0.950 . S
C2990 C2988 1.391 . S
C2990 C2991 1.400 . S
C2991 C2990 1.400 . S
C2991 C2992 1.398 . S
C2991 C2997 1.491 . S
C2992 H2983 0.950 . S
C2992 C2991 1.398 . S
C2992 C2993 1.391 . S
C2993 H2981 0.950 . S
C2993 C2989 1.393 . S
C2993 C2992 1.391 . S
C2994 H2984 0.950 . S
C2994 C2995 1.386 . S
C2994 C2996 1.391 . S
C2995 C2994 1.386 . S
C2995 C2999 1.393 . S
C2996 H2985 0.950 . S
C2996 C2994 1.391 . S
C2996 C2997 1.400 . S
C2997 C2991 1.491 . S
C2997 C2996 1.400 . S
C2997 C2998 1.398 . S
C2998 H2986 0.950 . S
C2998 C2997 1.398 . S
C2998 C2999 1.391 . S
C2999 H2987 0.950 . S
C2999 C2995 1.393 . S
C2999 C2998 1.391 . S
H3000 C3008 0.950 . S
H3001 C3013 0.950 . S
H3002 C3010 0.950 . S
H3003 C3012 0.950 . S
H3004 C3014 0.950 . S
H3005 C3016 0.950 . S
H3006 C3018 0.950 . S
H3007 C3019 0.950 . S
C3008 H3000 0.950 . S
C3008 C3009 1.386 . S
C3008 C3010 1.391 . S
C3009 C3008 1.386 . S
C3009 C3013 1.393 . S
C3010 H3002 0.950 . S
C3010 C3008 1.391 . S
C3010 C3011 1.400 . S
C3011 C3010 1.400 . S
C3011 C3012 1.398 . S
C3011 C3017 1.491 . S
C3012 H3003 0.950 . S
C3012 C3011 1.398 . S
C3012 C3013 1.391 . S
C3013 H3001 0.950 . S
C3013 C3009 1.393 . S
C3013 C3012 1.391 . S
C3014 H3004 0.950 . S
C3014 C3015 1.386 . S
C3014 C3016 1.391 . S
C3015 C3014 1.386 . S
C3015 C3019 1.393 . S
C3016 H3005 0.950 . S
C3016 C3014 1.391 . S
C3016 C3017 1.400 . S
C3017 C3011 1.491 . S
C3017 C3016 1.400 . S
C3017 C3018 1.398 . S
C3018 H3006 0.950 . S
C3018 C3017 1.398 . S
C3018 C3019 1.391 . S
C3019 H3007 0.950 . S
C3019 C3015 1.393 . S
C3019 C3018 1.391 . S
H3020 C3028 0.950 . S
H3021 C3033 0.950 . S
H3022 C3030 0.950 . S
H3023 C3032 0.950 . S
H3024 C3034 0.950 . S
H3025 C3036 0.950 . S
H3026 C3038 0.950 . S
H3027 C3039 0.950 . S
C3028 H3020 0.950 . S
C3028 C3029 1.386 . S
C3028 C3030 1.391 . S
C3029 C3028 1.386 . S
C3029 C3033 1.393 1_545 S
C3030 H3022 0.950 . S
C3030 C3028 1.391 . S
C3030 C3031 1.400 . S
C3031 C3030 1.400 . S
C3031 C3032 1.398 1_545 S
C3031 C3037 1.491 . S
C3032 H3023 0.950 . S
C3032 C3031 1.398 1_565 S
C3032 C3033 1.391 . S
C3033 H3021 0.950 . S
C3033 C3029 1.393 1_565 S
C3033 C3032 1.391 . S
C3034 H3024 0.950 . S
C3034 C3035 1.386 1_565 S
C3034 C3036 1.391 . S
C3035 C3034 1.386 1_545 S
C3035 C3039 1.393 . S
C3036 H3025 0.950 . S
C3036 C3034 1.391 . S
C3036 C3037 1.400 1_565 S
C3037 C3031 1.491 . S
C3037 C3036 1.400 1_545 S
C3037 C3038 1.398 . S
C3038 H3026 0.950 . S
C3038 C3037 1.398 . S
C3038 C3039 1.391 . S
C3039 H3027 0.950 . S
C3039 C3035 1.393 . S
C3039 C3038 1.391 . S
H3040 C3048 0.950 . S
H3041 C3053 0.950 . S
H3042 C3050 0.950 . S
H3043 C3052 0.950 . S
H3044 C3054 0.950 . S
H3045 C3056 0.950 . S
H3046 C3058 0.950 . S
H3047 C3059 0.950 . S
C3048 H3040 0.950 . S
C3048 C3049 1.386 . S
C3048 C3050 1.391 . S
C3049 C3048 1.386 . S
C3049 C3053 1.393 . S
C3050 H3042 0.950 . S
C3050 C3048 1.391 . S
C3050 C3051 1.400 . S
C3051 C3050 1.400 . S
C3051 C3052 1.398 . S
C3051 C3057 1.491 . S
C3052 H3043 0.950 . S
C3052 C3051 1.398 . S
C3052 C3053 1.391 . S
C3053 H3041 0.950 . S
C3053 C3049 1.393 . S
C3053 C3052 1.391 . S
C3054 H3044 0.950 . S
C3054 C3055 1.386 . S
C3054 C3056 1.391 . S
C3055 C3054 1.386 . S
C3055 C3059 1.393 . S
C3056 H3045 0.950 . S
C3056 C3054 1.391 . S
C3056 C3057 1.400 . S
C3057 C3051 1.491 . S
C3057 C3056 1.400 . S
C3057 C3058 1.398 . S
C3058 H3046 0.950 . S
C3058 C3057 1.398 . S
C3058 C3059 1.391 . S
C3059 H3047 0.950 . S
C3059 C3055 1.393 . S
C3059 C3058 1.391 . S
H3060 C3068 0.950 . S
H3061 C3073 0.950 . S
H3062 C3070 0.950 . S
H3063 C3072 0.950 . S
H3064 C3074 0.950 . S
H3065 C3076 0.950 . S
H3066 C3078 0.950 . S
H3067 C3079 0.950 . S
C3068 H3060 0.950 . S
C3068 C3069 1.386 . S
C3068 C3070 1.391 . S
C3069 C3068 1.386 . S
C3069 C3073 1.393 . S
C3070 H3062 0.950 . S
C3070 C3068 1.391 . S
C3070 C3071 1.400 . S
C3071 C3070 1.400 . S
C3071 C3072 1.398 . S
C3071 C3077 1.491 . S
C3072 H3063 0.950 . S
C3072 C3071 1.398 . S
C3072 C3073 1.391 . S
C3073 H3061 0.950 . S
C3073 C3069 1.393 . S
C3073 C3072 1.391 . S
C3074 H3064 0.950 . S
C3074 C3075 1.386 . S
C3074 C3076 1.391 . S
C3075 C3074 1.386 . S
C3075 C3079 1.393 . S
C3076 H3065 0.950 . S
C3076 C3074 1.391 . S
C3076 C3077 1.400 . S
C3077 C3071 1.491 . S
C3077 C3076 1.400 . S
C3077 C3078 1.398 . S
C3078 H3066 0.950 . S
C3078 C3077 1.398 . S
C3078 C3079 1.391 . S
C3079 H3067 0.950 . S
C3079 C3075 1.393 . S
C3079 C3078 1.391 . S
H3080 C3088 0.950 . S
H3081 C3093 0.950 . S
H3082 C3090 0.950 . S
H3083 C3092 0.950 . S
H3084 C3094 0.950 . S
H3085 C3096 0.950 . S
H3086 C3098 0.950 . S
H3087 C3099 0.950 . S
C3088 H3080 0.950 . S
C3088 C3089 1.386 . S
C3088 C3090 1.391 . S
C3089 C3088 1.386 . S
C3089 C3093 1.393 . S
C3090 H3082 0.950 . S
C3090 C3088 1.391 . S
C3090 C3091 1.400 . S
C3091 C3090 1.400 . S
C3091 C3092 1.398 . S
C3091 C3097 1.491 . S
C3092 H3083 0.950 . S
C3092 C3091 1.398 . S
C3092 C3093 1.391 . S
C3093 H3081 0.950 . S
C3093 C3089 1.393 . S
C3093 C3092 1.391 . S
C3094 H3084 0.950 . S
C3094 C3095 1.386 . S
C3094 C3096 1.391 . S
C3095 C3094 1.386 . S
C3095 C3099 1.393 . S
C3096 H3085 0.950 . S
C3096 C3094 1.391 . S
C3096 C3097 1.400 . S
C3097 C3091 1.491 . S
C3097 C3096 1.400 . S
C3097 C3098 1.398 . S
C3098 H3086 0.950 . S
C3098 C3097 1.398 . S
C3098 C3099 1.391 . S
C3099 H3087 0.950 . S
C3099 C3095 1.393 . S
C3099 C3098 1.391 . S
H3100 C3108 0.950 . S
H3101 C3113 0.950 . S
H3102 C3110 0.950 . S
H3103 C3112 0.950 . S
H3104 C3114 0.950 . S
H3105 C3116 0.950 . S
H3106 C3118 0.950 . S
H3107 C3119 0.950 . S
C3108 H3100 0.950 . S
C3108 C3109 1.386 . S
C3108 C3110 1.391 . S
C3109 C3108 1.386 . S
C3109 C3113 1.393 . S
C3110 H3102 0.950 . S
C3110 C3108 1.391 . S
C3110 C3111 1.400 . S
C3111 C3110 1.400 . S
C3111 C3112 1.398 . S
C3111 C3117 1.491 . S
C3112 H3103 0.950 . S
C3112 C3111 1.398 . S
C3112 C3113 1.391 . S
C3113 H3101 0.950 . S
C3113 C3109 1.393 . S
C3113 C3112 1.391 . S
C3114 H3104 0.950 . S
C3114 C3115 1.386 . S
C3114 C3116 1.391 . S
C3115 C3114 1.386 . S
C3115 C3119 1.393 . S
C3116 H3105 0.950 . S
C3116 C3114 1.391 . S
C3116 C3117 1.400 . S
C3117 C3111 1.491 . S
C3117 C3116 1.400 . S
C3117 C3118 1.398 . S
C3118 H3106 0.950 . S
C3118 C3117 1.398 . S
C3118 C3119 1.391 . S
C3119 H3107 0.950 . S
C3119 C3115 1.393 . S
C3119 C3118 1.391 . S
H3120 C3128 0.950 . S
H3121 C3133 0.950 . S
H3122 C3130 0.950 . S
H3123 C3132 0.950 . S
H3124 C3134 0.950 . S
H3125 C3136 0.950 . S
H3126 C3138 0.950 . S
H3127 C3139 0.950 . S
C3128 H3120 0.950 . S
C3128 C3129 1.386 . S
C3128 C3130 1.391 . S
C3129 C3128 1.386 . S
C3129 C3133 1.393 . S
C3130 H3122 0.950 . S
C3130 C3128 1.391 . S
C3130 C3131 1.400 . S
C3131 C3130 1.400 . S
C3131 C3132 1.398 . S
C3131 C3137 1.491 . S
C3132 H3123 0.950 . S
C3132 C3131 1.398 . S
C3132 C3133 1.391 . S
C3133 H3121 0.950 . S
C3133 C3129 1.393 . S
C3133 C3132 1.391 . S
C3134 H3124 0.950 . S
C3134 C3135 1.386 . S
C3134 C3136 1.391 . S
C3135 C3134 1.386 . S
C3135 C3139 1.393 . S
C3136 H3125 0.950 . S
C3136 C3134 1.391 . S
C3136 C3137 1.400 . S
C3137 C3131 1.491 . S
C3137 C3136 1.400 . S
C3137 C3138 1.398 . S
C3138 H3126 0.950 . S
C3138 C3137 1.398 . S
C3138 C3139 1.391 . S
C3139 H3127 0.950 . S
C3139 C3135 1.393 . S
C3139 C3138 1.391 . S
H3140 C3148 0.950 . S
H3141 C3153 0.950 . S
H3142 C3150 0.950 . S
H3143 C3152 0.950 . S
H3144 C3154 0.950 . S
H3145 C3156 0.950 . S
H3146 C3158 0.950 . S
H3147 C3159 0.950 . S
C3148 H3140 0.950 . S
C3148 C3149 1.386 . S
C3148 C3150 1.391 . S
C3149 C3148 1.386 . S
C3149 C3153 1.393 . S
C3150 H3142 0.950 . S
C3150 C3148 1.391 . S
C3150 C3151 1.400 . S
C3151 C3150 1.400 . S
C3151 C3152 1.398 . S
C3151 C3157 1.491 . S
C3152 H3143 0.950 . S
C3152 C3151 1.398 . S
C3152 C3153 1.391 . S
C3153 H3141 0.950 . S
C3153 C3149 1.393 . S
C3153 C3152 1.391 . S
C3154 H3144 0.950 . S
C3154 C3155 1.386 . S
C3154 C3156 1.391 . S
C3155 C3154 1.386 . S
C3155 C3159 1.393 . S
C3156 H3145 0.950 . S
C3156 C3154 1.391 . S
C3156 C3157 1.400 . S
C3157 C3151 1.491 . S
C3157 C3156 1.400 . S
C3157 C3158 1.398 . S
C3158 H3146 0.950 . S
C3158 C3157 1.398 . S
C3158 C3159 1.391 . S
C3159 H3147 0.950 . S
C3159 C3155 1.393 . S
C3159 C3158 1.391 . S
H3160 C3168 0.950 . S
H3161 C3173 0.950 . S
H3162 C3170 0.950 . S
H3163 C3172 0.950 . S
H3164 C3174 0.950 . S
H3165 C3176 0.950 . S
H3166 C3178 0.950 . S
H3167 C3179 0.950 . S
C3168 H3160 0.950 . S
C3168 C3169 1.386 . S
C3168 C3170 1.391 . S
C3169 C3168 1.386 . S
C3169 C3173 1.393 . S
C3170 H3162 0.950 . S
C3170 C3168 1.391 . S
C3170 C3171 1.400 . S
C3171 C3170 1.400 . S
C3171 C3172 1.398 . S
C3171 C3177 1.491 . S
C3172 H3163 0.950 . S
C3172 C3171 1.398 . S
C3172 C3173 1.391 . S
C3173 H3161 0.950 . S
C3173 C3169 1.393 . S
C3173 C3172 1.391 . S
C3174 H3164 0.950 . S
C3174 C3175 1.386 . S
C3174 C3176 1.391 . S
C3175 C3174 1.386 . S
C3175 C3179 1.393 . S
C3176 H3165 0.950 . S
C3176 C3174 1.391 . S
C3176 C3177 1.400 . S
C3177 C3171 1.491 . S
C3177 C3176 1.400 . S
C3177 C3178 1.398 . S
C3178 H3166 0.950 . S
C3178 C3177 1.398 . S
C3178 C3179 1.391 . S
C3179 H3167 0.950 . S
C3179 C3175 1.393 . S
C3179 C3178 1.391 . S
H3180 C3188 0.950 . S
H3181 C3193 0.950 . S
H3182 C3190 0.950 . S
H3183 C3192 0.950 . S
H3184 C3194 0.950 . S
H3185 C3196 0.950 . S
H3186 C3198 0.950 . S
H3187 C3199 0.950 . S
C3188 H3180 0.950 . S
C3188 C3189 1.386 . S
C3188 C3190 1.391 . S
C3189 C3188 1.386 . S
C3189 C3193 1.393 . S
C3190 H3182 0.950 . S
C3190 C3188 1.391 . S
C3190 C3191 1.400 . S
C3191 C3190 1.400 . S
C3191 C3192 1.398 . S
C3191 C3197 1.491 . S
C3192 H3183 0.950 . S
C3192 C3191 1.398 . S
C3192 C3193 1.391 . S
C3193 H3181 0.950 . S
C3193 C3189 1.393 . S
C3193 C3192 1.391 . S
C3194 H3184 0.950 . S
C3194 C3195 1.386 . S
C3194 C3196 1.391 . S
C3195 C3194 1.386 . S
C3195 C3199 1.393 . S
C3196 H3185 0.950 . S
C3196 C3194 1.391 . S
C3196 C3197 1.400 . S
C3197 C3191 1.491 . S
C3197 C3196 1.400 . S
C3197 C3198 1.398 . S
C3198 H3186 0.950 . S
C3198 C3197 1.398 . S
C3198 C3199 1.391 . S
C3199 H3187 0.950 . S
C3199 C3195 1.393 . S
C3199 C3198 1.391 . S
C1289 C1018 2.023 . S
C1295 C18 2.016 . S
C1309 C978 2.006 . S
C1315 C58 2.017 . S
C1329 C1098 2.022 . S
C1335 C98 2.014 . S
C1349 C1058 2.011 . S
C1355 C138 2.021 . S
C1369 C169 1.995 . S
C1375 C1169 2.004 . S
C1389 C209 2.024 . S
C1395 C1129 2.019 . S
C1409 C249 2.024 . S
C1415 C1249 2.018 . S
C1429 C1209 2.018 . S
C1435 C289 2.007 . S
C1449 C698 2.016 . S
C1455 C338 2.023 . S
C1469 C658 2.019 . S
C1475 C378 2.024 . S
C1489 C778 2.000 . S
C1495 C418 1.994 . S
C1509 C738 2.015 . S
C1515 C458 2.023 . S
C1529 C489 1.996 . S
C1535 C849 2.005 . S
C1549 C809 1.993 . S
C1555 C529 1.998 . S
C1569 C569 2.011 . S
C1575 C929 2.021 . S
C1589 C889 1.999 . S
C1595 C609 2.010 . S
C1609 C19 5.006 . S
C1615 C810 5.006 . S
C1629 C530 5.006 . S
C1635 C59 5.006 . S
C1649 C1210 5.003 . S
C1655 C99 5.003 . S
C1669 C139 5.003 1_545 S
C1675 C290 5.003 1_565 S
C1689 C170 5.003 1_565 S
C1695 C659 5.003 1_545 S
C1709 C210 5.010 . S
C1715 C379 5.010 . S
C1729 C250 5.007 . S
C1735 C1059 5.007 . S
C1749 C1130 5.002 . S
C1755 C339 5.002 . S
C1769 C890 5.004 . S
C1775 C419 5.004 . S
C1789 C610 5.003 . S
C1795 C459 5.003 . S
C1809 C979 5.004 . S
C1815 C490 5.004 . S
C1829 C570 5.002 . S
C1835 C739 5.002 . S
C1849 C1170 5.006 . S
C1855 C699 5.006 . S
C1869 C779 5.002 . S
C1875 C930 5.002 . S
C1889 C1019 5.002 . S
C1895 C850 5.002 . S
C1909 C1099 5.004 . S
C1915 C1250 5.004 . S
C1929 C10 4.618 1_556 S
C1935 C770 4.616 . S
C1949 C50 4.615 1_556 S
C1955 C730 4.616 . S
C1969 C90 4.618 . S
C1975 C690 4.616 . S
C1989 C130 4.618 . S
C1995 C650 4.618 . S
C2009 C179 4.617 1_554 S
C2015 C939 4.618 . S
C2029 C219 4.616 1_554 S
C2035 C899 4.614 . S
C2049 C259 4.614 . S
C2055 C859 4.614 . S
C2069 C299 4.617 . S
C2075 C819 4.615 . S
C2089 C330 4.614 . S
C2095 C1090 4.616 . S
C2109 C370 4.614 . S
C2115 C1050 4.615 . S
C2129 C410 4.615 . S
C2135 C1010 4.617 1_556 S
C2149 C450 4.618 . S
C2155 C970 4.618 1_556 S
C2169 C1259 4.614 . S
C2175 C499 4.615 . S
C2189 C1219 4.617 . S
C2195 C539 4.615 . S
C2209 C1179 4.617 1_554 S
C2215 C579 4.616 . S
C2229 C1139 4.615 1_554 S
C2235 C619 4.616 . S
C2249 C89 1.499 . S
C2255 C9 1.484 . S
C2269 C129 1.487 . S
C2275 C49 1.490 . S
C2289 C258 1.502 . S
C2295 C178 1.488 . S
C2309 C218 1.497 . S
C2315 C298 1.483 . S
C2329 C409 1.493 . S
C2335 C329 1.500 . S
C2349 C369 1.497 . S
C2355 C449 1.497 . S
C2369 C578 1.502 . S
C2375 C498 1.485 . S
C2389 C538 1.493 . S
C2395 C618 1.500 . S
C2409 C649 1.494 . S
C2415 C729 1.485 . S
C2429 C689 1.500 . S
C2435 C769 1.494 . S
C2449 C898 1.492 . S
C2455 C818 1.486 . S
C2469 C858 1.495 . S
C2475 C938 1.484 . S
C2489 C969 1.486 . S
C2495 C1049 1.502 . S
C2509 C1089 1.485 . S
C2515 C1009 1.492 . S
C2529 C1138 1.499 . S
C2535 C1218 1.495 . S
C2549 C1178 1.488 . S
C2555 C1258 1.488 . S
C2569 C6 0.686 . S
C2575 C286 0.698 . S
C2589 C1206 0.711 . S
C2595 C46 0.713 . S
C2609 C86 0.714 . S
C2615 C526 0.722 . S
C2629 C126 0.658 . S
C2635 C806 0.654 . S
C2649 C135 0.637 . S
C2655 C175 0.629 . S
C2669 C215 0.656 . S
C2675 C1055 0.668 . S
C2689 C375 0.629 . S
C2695 C255 0.627 . S
C2709 C655 0.663 . S
C2715 C295 0.651 . S
C2729 C326 0.648 . S
C2735 C606 0.645 . S
C2749 C886 0.629 . S
C2755 C366 0.624 . S
C2769 C406 0.684 . S
C2775 C206 0.696 . S
C2789 C1126 0.726 . S
C2795 C446 0.722 . S
C2809 C495 0.624 . S
C2815 C455 0.629 . S
C2829 C535 0.636 . S
C2835 C735 0.647 . S
C2849 C575 0.638 . S
C2855 C55 0.648 . S
C2869 C975 0.664 . S
C2875 C615 0.669 . S
C2889 C646 0.640 . S
C2895 C926 0.651 . S
C2909 C686 0.676 . S
C2915 C566 0.688 . S
C2929 C726 0.644 . S
C2935 C1166 0.641 . S
C2949 C766 0.626 . S
C2955 C166 0.628 . S
C2969 C815 0.710 . S
C2975 C775 0.708 . S
C2989 C415 0.717 . S
C2995 C855 0.708 . S
C3009 C1015 0.726 . S
C3015 C895 0.721 . S
C3029 C935 0.717 . S
C3035 C15 0.717 . S
C3049 C1246 0.630 . S
C3055 C966 0.624 . S
C3069 C246 0.709 . S
C3075 C1006 0.711 . S
C3089 C846 0.719 . S
C3095 C1046 0.719 . S
C3109 C1086 0.659 . S
C3115 C486 0.655 . S
C3129 C1095 0.664 . S
C3135 C1135 0.668 . S
C3149 C95 0.685 . S
C3155 C1175 0.673 . S
C3169 C695 0.671 . S
C3175 C1215 0.659 . S
C3189 C1255 0.676 . S
C3195 C335 0.689 . S
