# Generated by pormake.
# Topology pts-e, (5)-cn, num edge types: 1
# Building blocks:
#     Node 0, Type 0, BuildingBlock: XOMCOT_clean_sbu_1, # of connection points: 5
#     Node 1, Type 0, BuildingBlock: XOMCOT_clean_sbu_1, # of connection points: 5
#     Node 2, Type 0, BuildingBlock: XOMCOT_clean_sbu_1, # of connection points: 5
#     Node 3, Type 0, BuildingBlock: XOMCOT_clean_sbu_1, # of connection points: 5
#     Node 4, Type 0, BuildingBlock: XOMCOT_clean_sbu_1, # of connection points: 5
#     Node 5, Type 0, BuildingBlock: XOMCOT_clean_sbu_1, # of connection points: 5
#     Node 6, Type 0, BuildingBlock: XOMCOT_clean_sbu_1, # of connection points: 5
#     Node 7, Type 0, BuildingBlock: XOMCOT_clean_sbu_1, # of connection points: 5
#     Edge 8, Type (0, 0), BuildingBlock: CIFDUS_clean_linker_0, # of connection points: 2
#     Edge 9, Type (0, 0), BuildingBlock: CIFDUS_clean_linker_0, # of connection points: 2
#     Edge 10, Type (0, 0), BuildingBlock: CIFDUS_clean_linker_0, # of connection points: 2
#     Edge 11, Type (0, 0), BuildingBlock: CIFDUS_clean_linker_0, # of connection points: 2
#     Edge 12, Type (0, 0), BuildingBlock: CIFDUS_clean_linker_0, # of connection points: 2
#     Edge 13, Type (0, 0), BuildingBlock: CIFDUS_clean_linker_0, # of connection points: 2
#     Edge 14, Type (0, 0), BuildingBlock: CIFDUS_clean_linker_0, # of connection points: 2
#     Edge 15, Type (0, 0), BuildingBlock: CIFDUS_clean_linker_0, # of connection points: 2
#     Edge 16, Type (0, 0), BuildingBlock: CIFDUS_clean_linker_0, # of connection points: 2
#     Edge 17, Type (0, 0), BuildingBlock: CIFDUS_clean_linker_0, # of connection points: 2
#     Edge 18, Type (0, 0), BuildingBlock: CIFDUS_clean_linker_0, # of connection points: 2
#     Edge 19, Type (0, 0), BuildingBlock: CIFDUS_clean_linker_0, # of connection points: 2
#     Edge 20, Type (0, 0), BuildingBlock: CIFDUS_clean_linker_0, # of connection points: 2
#     Edge 21, Type (0, 0), BuildingBlock: CIFDUS_clean_linker_0, # of connection points: 2
#     Edge 22, Type (0, 0), BuildingBlock: CIFDUS_clean_linker_0, # of connection points: 2
#     Edge 23, Type (0, 0), BuildingBlock: CIFDUS_clean_linker_0, # of connection points: 2
#     Edge 24, Type (0, 0), BuildingBlock: CIFDUS_clean_linker_0, # of connection points: 2
#     Edge 25, Type (0, 0), BuildingBlock: CIFDUS_clean_linker_0, # of connection points: 2
#     Edge 26, Type (0, 0), BuildingBlock: CIFDUS_clean_linker_0, # of connection points: 2
#     Edge 27, Type (0, 0), BuildingBlock: CIFDUS_clean_linker_0, # of connection points: 2
# Relax obj value: 0.514
# Max RMSD: 0.254
# Mean RMSD: 0.254
data_MOF--net-pts-e--node1-XOMCOT_clean_sbu_1--edge1-CIFDUS_clean_linker_0
_symmetry_space_group_name_H-M    P1
_symmetry_Int_Tables_number       1
_symmetry_cell_setting            triclinic
loop_
_symmetry_equiv_pos_as_xyz
'x, y, z'
_cell_length_a     30.680554
_cell_length_b     30.447491
_cell_length_c     42.593343
_cell_angle_alpha  90.038301
_cell_angle_beta   90.012733
_cell_angle_gamma 89.777652
loop_
_atom_site_label
_atom_site_type_symbol
_atom_site_fract_x
_atom_site_fract_y
_atom_site_fract_z
_atom_type_partial_charge
C0 C 0.19189 0.08471 0.16083 0.0
C1 C 0.14799 0.09311 0.16388 0.0
N2 N 0.12684 0.05438 0.16477 0.0
N3 N 0.19843 0.04091 0.16007 0.0
C4 C 0.15827 0.02336 0.16228 0.0
H5 H 0.21751 0.10889 0.15937 0.0
Co6 Co 0.25207 0.01219 0.15647 0.0
C7 C 0.23821 0.93944 0.20277 0.0
O8 O 0.27412 0.95102 0.21737 0.0
N9 N 0.30607 0.98363 0.15111 0.0
C10 C 0.36056 0.93573 0.14562 0.0
C11 C 0.31767 0.94099 0.15428 0.0
C12 C 0.34156 0.00256 0.13822 0.0
N13 N 0.37576 0.97481 0.13579 0.0
O14 O 0.23591 0.99253 0.1155 0.0
H15 H 0.29641 0.9147 0.16142 0.0
H16 H 0.3422 0.03628 0.13043 0.0
O17 O 0.22684 0.95946 0.17749 0.0
C18 C 0.24315 0.02503 0.09721 0.0
O19 O 0.25833 0.06149 0.10953 0.0
N20 N 0.26918 0.03764 0.19518 0.0
C21 C 0.26864 0.11152 0.23323 0.0
C22 C 0.24044 0.07658 0.23962 0.0
C23 C 0.24084 0.03992 0.21997 0.0
C24 C 0.30135 0.0683 0.19242 0.0
C25 C 0.30193 0.1054 0.21143 0.0
H26 H 0.21362 0.01768 0.2216 0.0
H27 H 0.32228 0.0689 0.17241 0.0
H28 H 0.15231 0.98839 0.16249 0.0
H29 H 0.1329 0.12525 0.16493 0.0
H30 H 0.37886 0.9053 0.14631 0.0
H31 H 0.21374 0.08057 0.25604 0.0
H32 H 0.3239 0.13203 0.20574 0.0
C33 C 0.94327 0.19151 0.64843 0.0
C34 C 0.93615 0.14704 0.64846 0.0
N35 N 0.97464 0.12657 0.65289 0.0
N36 N 0.98602 0.19926 0.65316 0.0
C37 C 0.00445 0.15898 0.65549 0.0
H38 H 0.91875 0.21662 0.64498 0.0
Co39 Co 0.0109 0.25516 0.65505 0.0
C40 C 0.07897 0.24738 0.70449 0.0
O41 O 0.0662 0.2862 0.71449 0.0
N42 N 0.03576 0.31206 0.65584 0.0
C43 C 0.08306 0.36638 0.64777 0.0
C44 C 0.07769 0.32148 0.64894 0.0
C45 C 0.01642 0.35197 0.65841 0.0
N46 N 0.0443 0.38546 0.65378 0.0
O47 O 0.03848 0.24438 0.61543 0.0
H48 H 0.10258 0.29713 0.64411 0.0
H49 H 0.98211 0.3572 0.66184 0.0
O50 O 0.0609 0.23093 0.67997 0.0
C51 C 0.00822 0.2546 0.59601 0.0
O52 O 0.97168 0.2708 0.60729 0.0
N53 N 0.97744 0.26626 0.69085 0.0
C54 C 0.90139 0.25762 0.72546 0.0
C55 C 0.94009 0.23754 0.73569 0.0
C56 C 0.97779 0.24155 0.71763 0.0
C57 C 0.94075 0.28875 0.68237 0.0
C58 C 0.90275 0.286 0.69984 0.0
H59 H 0.00446 0.21965 0.72288 0.0
H60 H 0.93833 0.30298 0.65926 0.0
H61 H 0.03891 0.15349 0.65931 0.0
H62 H 0.9051 0.13101 0.64493 0.0
H63 H 0.11295 0.38354 0.64235 0.0
H64 H 0.93977 0.21406 0.7548 0.0
H65 H 0.87316 0.30088 0.69079 0.0
C66 C 0.81766 0.94382 0.1755 0.0
C67 C 0.862 0.93777 0.17564 0.0
N68 N 0.88104 0.97717 0.17161 0.0
N69 N 0.80874 0.98687 0.17165 0.0
C70 C 0.84799 0.00645 0.16932 0.0
H71 H 0.79333 0.91837 0.17736 0.0
Co72 Co 0.75297 0.00983 0.1668 0.0
C73 C 0.75357 0.08759 0.20884 0.0
O74 O 0.71546 0.07432 0.21918 0.0
N75 N 0.69626 0.03164 0.15979 0.0
C76 C 0.63636 0.07113 0.14999 0.0
C77 C 0.67992 0.07291 0.1579 0.0
C78 C 0.66306 0.00616 0.14996 0.0
N79 N 0.62586 0.02878 0.1454 0.0
O80 O 0.76762 0.0285 0.12523 0.0
H81 H 0.69831 0.10267 0.16149 0.0
H82 H 0.66633 0.97168 0.14456 0.0
O83 O 0.77239 0.06618 0.18659 0.0
C84 C 0.76393 0.99504 0.10724 0.0
O85 O 0.75332 0.95725 0.11997 0.0
N86 N 0.73813 0.98595 0.20664 0.0
C87 C 0.74385 0.92093 0.25215 0.0
C88 C 0.76764 0.95976 0.25544 0.0
C89 C 0.76484 0.99173 0.23209 0.0
C90 C 0.71041 0.95096 0.20592 0.0
C91 C 0.71207 0.91852 0.22883 0.0
H92 H 0.78934 0.01705 0.2322 0.0
H93 H 0.69205 0.94338 0.18536 0.0
H94 H 0.85217 0.04111 0.16464 0.0
H95 H 0.8789 0.90668 0.17811 0.0
H96 H 0.61411 0.09871 0.14831 0.0
H97 H 0.79331 0.96224 0.27282 0.0
H98 H 0.69383 0.88849 0.22531 0.0
C99 C 0.07251 0.81076 0.65646 0.0
C100 C 0.08167 0.85452 0.65194 0.0
N101 N 0.04394 0.87592 0.64655 0.0
N102 N 0.029 0.8045 0.65439 0.0
C103 C 0.01284 0.84468 0.64726 0.0
H104 H 0.09643 0.78567 0.6614 0.0
Co105 Co 0.99535 0.75284 0.65931 0.0
C106 C 0.96056 0.81681 0.70723 0.0
O107 O 0.00099 0.82972 0.71137 0.0
N108 N 0.96296 0.70159 0.66306 0.0
C109 C 0.91611 0.64929 0.67605 0.0
C110 C 0.92314 0.69404 0.6752 0.0
C111 C 0.97893 0.66142 0.65612 0.0
N112 N 0.9516 0.62871 0.66426 0.0
O113 O 0.96477 0.76794 0.62132 0.0
H114 H 0.9012 0.71911 0.68389 0.0
H115 H 0.01113 0.65629 0.64663 0.0
O116 O 0.95274 0.78584 0.68737 0.0
C117 C 0.99201 0.75509 0.60041 0.0
O118 O 0.0271 0.73398 0.60975 0.0
N119 N 0.03002 0.73401 0.69296 0.0
C120 C 0.10316 0.72318 0.72973 0.0
C121 C 0.06356 0.73705 0.74338 0.0
C122 C 0.0264 0.7406 0.72451 0.0
C123 C 0.06502 0.71148 0.68145 0.0
C124 C 0.10159 0.70422 0.69987 0.0
H125 H -0.00355 0.75205 0.73489 0.0
H126 H 0.06687 0.70368 0.65679 0.0
H127 H 0.97845 0.85109 0.64382 0.0
H128 H 0.11345 0.86962 0.65377 0.0
H129 H 0.88746 0.63336 0.68538 0.0
H130 H 0.06211 0.74975 0.76709 0.0
H131 H 0.13045 0.69029 0.68905 0.0
C132 C 0.1919 0.97902 0.88665 0.0
C133 C 0.14773 0.97413 0.89033 0.0
N134 N 0.12751 0.00589 0.87371 0.0
N135 N 0.19957 0.01359 0.86775 0.0
C136 C 0.15975 0.02944 0.86031 0.0
H137 H 0.21696 0.95884 0.89726 0.0
Co138 Co 0.25482 0.03251 0.85674 0.0
C139 C 0.24154 0.08545 0.7984 0.0
O140 O 0.27666 0.0667 0.78676 0.0
N141 N 0.31172 0.05137 0.84655 0.0
C142 C 0.37064 0.09321 0.84075 0.0
C143 C 0.32605 0.09322 0.84502 0.0
C144 C 0.34828 0.02678 0.84355 0.0
N145 N 0.38446 0.0512 0.84011 0.0
O146 O 0.25236 0.07315 0.89108 0.0
H147 H 0.30553 0.12192 0.84782 0.0
H148 H 0.34917 0.99152 0.84451 0.0
O149 O 0.22929 0.07555 0.82633 0.0
C150 C 0.26902 0.05015 0.9132 0.0
O151 O 0.2908 0.01451 0.90558 0.0
N152 N 0.25715 0.98695 0.8276 0.0
C153 C 0.24381 0.90259 0.80496 0.0
C154 C 0.22522 0.93884 0.78957 0.0
C155 C 0.23138 0.98096 0.80181 0.0
C156 C 0.27629 0.95175 0.84194 0.0
C157 C 0.27068 0.90943 0.83077 0.0
H158 H 0.21167 0.00726 0.79252 0.0
H159 H 0.29249 0.95584 0.86422 0.0
H160 H 0.15439 0.05745 0.84519 0.0
H161 H 0.13184 0.94963 0.90467 0.0
H162 H 0.39141 0.12182 0.83962 0.0
H163 H 0.20263 0.93422 0.7703 0.0
H164 H 0.28429 0.88201 0.84374 0.0
C165 C 0.05639 0.20681 0.35837 0.0
C166 C 0.06297 0.16236 0.36237 0.0
N167 N 0.02367 0.14282 0.36356 0.0
N168 N 0.01321 0.21485 0.35653 0.0
C169 C 0.99424 0.17536 0.36008 0.0
H170 H 0.08135 0.23166 0.35713 0.0
Co171 Co 0.98396 0.26812 0.35169 0.0
C172 C 0.90008 0.23136 0.32562 0.0
O173 O 0.87596 0.24941 0.34764 0.0
N174 N 0.95488 0.3214 0.34691 0.0
C175 C 0.92276 0.37991 0.32598 0.0
C176 C 0.92862 0.33522 0.32346 0.0
C177 C 0.96437 0.35801 0.36332 0.0
N178 N 0.94587 0.39425 0.35082 0.0
O179 O 0.95405 0.25708 0.39044 0.0
H180 H 0.91766 0.31513 0.30411 0.0
H181 H 0.98737 0.35859 0.38255 0.0
O182 O 0.94115 0.23765 0.32552 0.0
C183 C 0.9834 0.26648 0.41076 0.0
O184 O 0.02027 0.28325 0.40068 0.0
N185 N 0.0181 0.28082 0.31707 0.0
C186 C 0.09782 0.27797 0.28735 0.0
C187 C 0.06315 0.25234 0.27617 0.0
C188 C 0.02308 0.25403 0.29166 0.0
C189 C 0.04923 0.31077 0.32478 0.0
C190 C 0.08965 0.30993 0.31011 0.0
H191 H -0.00115 0.22965 0.28605 0.0
H192 H 0.04545 0.33076 0.34555 0.0
H193 H 0.95934 0.17051 0.35987 0.0
H194 H 0.09412 0.14586 0.36469 0.0
H195 H 0.90634 0.40072 0.30906 0.0
H196 H 0.0687 0.22691 0.25879 0.0
H197 H 0.11587 0.32984 0.3194 0.0
C198 C 0.80491 0.04038 0.87743 0.0
C199 C 0.84902 0.04738 0.87976 0.0
N200 N 0.86974 0.00935 0.87324 0.0
N201 N 0.79781 0.99826 0.86911 0.0
C202 C 0.83788 0.98009 0.86714 0.0
H203 H 0.77965 0.06438 0.882 0.0
Co204 Co 0.74378 0.97166 0.86343 0.0
C205 C 0.75982 0.90297 0.81311 0.0
O206 O 0.7195 0.90622 0.80301 0.0
N207 N 0.68863 0.94515 0.85864 0.0
C208 C 0.63332 0.89808 0.86197 0.0
C209 C 0.67786 0.90305 0.86481 0.0
C210 C 0.65003 0.96493 0.85254 0.0
N211 N 0.61594 0.93729 0.85418 0.0
O212 O 0.75328 0.93959 0.90163 0.0
H213 H 0.70085 0.87781 0.87172 0.0
H214 H 0.64602 0.99953 0.84872 0.0
O215 O 0.7721 0.92591 0.83679 0.0
C216 C 0.74047 0.96715 0.9224 0.0
O217 O 0.72033 0.00286 0.91282 0.0
N218 N 0.73415 0.00885 0.82942 0.0
C219 C 0.74409 0.08823 0.79862 0.0
C220 C 0.76242 0.04975 0.78606 0.0
C221 C 0.75752 0.01009 0.80215 0.0
C222 C 0.71309 0.04549 0.84003 0.0
C223 C 0.71675 0.08531 0.82461 0.0
H224 H 0.77712 0.98259 0.79472 0.0
H225 H 0.69805 0.04542 0.86295 0.0
H226 H 0.8436 0.94596 0.86149 0.0
H227 H 0.86449 0.07783 0.88651 0.0
H228 H 0.61522 0.86818 0.86599 0.0
H229 H 0.78477 0.05124 0.7664 0.0
H230 H 0.70288 0.11456 0.83521 0.0
C231 C 0.96107 0.82291 0.3559 0.0
C232 C 0.95713 0.86797 0.3564 0.0
N233 N -0.00248 0.88523 0.35718 0.0
N234 N 0.00372 0.81209 0.35621 0.0
C235 C 0.02502 0.85065 0.35736 0.0
H236 H 0.93467 0.79951 0.35491 0.0
Co237 Co 0.02808 0.75618 0.35525 0.0
C238 C 0.09873 0.77261 0.30783 0.0
O239 O 0.0855 0.73875 0.29125 0.0
N240 N 0.05257 0.69944 0.35572 0.0
C241 C 0.09519 0.64005 0.35406 0.0
C242 C 0.09338 0.68482 0.34965 0.0
C243 C 0.03141 0.66337 0.36594 0.0
N244 N 0.05583 0.62661 0.36398 0.0
O245 O 0.05078 0.76578 0.39653 0.0
H246 H 0.12066 0.70501 0.34298 0.0
H247 H -0.00119 0.66403 0.37552 0.0
O248 O 0.08067 0.78107 0.33436 0.0
C249 C 0.01868 0.75943 0.41516 0.0
O250 O 0.98136 0.74678 0.40305 0.0
N251 N -0.00034 0.74625 0.31647 0.0
C252 C 0.92861 0.75269 0.27631 0.0
C253 C 0.96462 0.78007 0.27217 0.0
C254 C -0.00041 0.77694 0.29296 0.0
C255 C 0.96665 0.71638 0.31819 0.0
C256 C 0.93099 0.71872 0.29812 0.0
H257 H 0.02289 0.80339 0.29286 0.0
H258 H 0.96368 0.69501 0.33798 0.0
H259 H 0.06013 0.85338 0.35861 0.0
H260 H 0.92699 0.88652 0.35555 0.0
H261 H 0.12305 0.61902 0.34964 0.0
H262 H 0.96296 0.80775 0.25622 0.0
H263 H 0.90296 0.69808 0.30255 0.0
H264 H 0.2406 0.09306 0.05631 0.0
H265 H 0.23598 0.95145 0.06051 0.0
H266 H 0.2397 0.94793 1.00314 0.0
H267 H 0.25158 0.98459 0.95288 0.0
H268 H 0.2571 0.12592 0.94787 0.0
H269 H 0.24521 0.13027 1.00496 0.0
C270 C 0.23997 0.06137 0.04468 0.0
C271 C 0.23863 0.02242 0.06267 0.0
C272 C 0.24259 0.05969 0.01179 0.0
C273 C 0.2371 0.98177 0.04725 0.0
C274 C 0.23947 0.9798 0.01449 0.0
C275 C 0.24997 0.01647 0.96422 0.0
C276 C 0.25609 0.05498 0.94642 0.0
C277 C 0.24342 0.01847 0.9967 0.0
C278 C 0.25275 0.09597 0.96119 0.0
C279 C 0.24616 0.09832 0.99376 0.0
H280 H 0.04952 0.25458 0.45141 0.0
H281 H 0.90904 0.25667 0.44623 0.0
H282 H 0.90505 0.2495 0.5036 0.0
H283 H 0.94174 0.24899 0.55487 0.0
H284 H 0.08226 0.24758 0.55993 0.0
H285 H 0.08612 0.24772 0.50237 0.0
C286 C 0.01791 0.2533 0.46277 0.0
C287 C 0.97949 0.25694 0.44468 0.0
C288 C 0.01605 0.24944 0.49552 0.0
C289 C 0.93893 0.25416 0.45965 0.0
C290 C 0.93675 0.25025 0.4924 0.0
C291 C 0.97331 0.24846 0.54342 0.0
C292 C 0.0118 0.24896 0.56161 0.0
C293 C 0.97512 0.24887 0.51053 0.0
C294 C 0.05231 0.24734 0.54646 0.0
C295 C 0.05443 0.24764 0.51361 0.0
H296 H 0.77082 0.92729 0.06614 0.0
H297 H 0.7632 0.06881 0.0704 0.0
H298 H 0.75795 0.07189 0.0131 0.0
H299 H 0.74963 0.03432 0.96272 0.0
H300 H 0.75702 0.89296 0.95771 0.0
H301 H 0.76859 0.88977 0.0148 0.0
C302 C 0.7684 0.9589 0.05455 0.0
C303 C 0.76692 0.99785 0.07258 0.0
C304 C 0.76502 0.96032 0.02166 0.0
C305 C 0.76438 0.03845 0.05714 0.0
C306 C 0.76114 0.04016 0.0244 0.0
C307 C 0.75382 0.00268 0.97404 0.0
C308 C 0.75164 0.96376 0.95613 0.0
C309 C 0.76041 0.00129 1.00658 0.0
C310 C 0.75829 0.92324 0.97103 0.0
C311 C 0.76476 0.92151 1.00362 0.0
H312 H 0.95135 0.76762 0.45588 0.0
H313 H 0.09197 0.7657 0.45178 0.0
H314 H 0.09521 0.76867 0.50922 0.0
H315 H 0.05819 0.76547 0.56005 0.0
H316 H 0.91774 0.76654 0.56474 0.0
H317 H 0.91419 0.77105 0.50714 0.0
C318 C 0.9828 0.76807 0.46751 0.0
C319 C 0.0215 0.76574 0.44958 0.0
C320 C 0.9843 0.76963 0.50045 0.0
C321 C 0.06185 0.76723 0.465 0.0
C322 C 0.06364 0.76881 0.49781 0.0
C323 C 0.02668 0.76702 0.54852 0.0
C324 C 0.98815 0.76499 0.56653 0.0
C325 C 0.02509 0.76906 0.51568 0.0
C326 C 0.94772 0.768 0.55136 0.0
C327 C 0.9458 0.77025 0.51848 0.0
H328 H 0.14323 0.26912 0.23296 0.0
H329 H 0.15116 0.24819 0.33283 0.0
H330 H 0.21279 0.19854 0.32577 0.0
H331 H 0.25282 0.14914 0.29005 0.0
H332 H 0.24743 0.1728 0.19037 0.0
H333 H 0.19755 0.23408 0.19843 0.0
C334 C 0.15971 0.25499 0.25312 0.0
C335 C 0.14253 0.26146 0.28318 0.0
C336 C 0.19528 0.22658 0.24892 0.0
C337 C 0.16392 0.24333 0.30938 0.0
C338 C 0.19896 0.21469 0.30538 0.0
C339 C 0.24212 0.16903 0.27035 0.0
C340 C 0.25309 0.15636 0.23978 0.0
C341 C 0.21331 0.20424 0.27512 0.0
C342 C 0.23927 0.18213 0.21421 0.0
C343 C 0.21038 0.21691 0.21873 0.0
H344 H 0.75001 0.12549 0.74097 0.0
H345 H 0.78196 0.14532 0.83852 0.0
H346 H 0.82867 0.20691 0.82492 0.0
H347 H 0.87063 0.24556 0.7845 0.0
H348 H 0.8397 0.22465 0.68687 0.0
H349 H 0.78175 0.17423 0.7012 0.0
C350 C 0.76629 0.14425 0.75916 0.0
C351 C 0.76295 0.13103 0.7905 0.0
C352 C 0.79354 0.17929 0.75117 0.0
C353 C 0.78393 0.15532 0.81415 0.0
C354 C 0.81093 0.19028 0.80641 0.0
C355 C 0.85015 0.23098 0.76656 0.0
C356 C 0.85941 0.23847 0.73485 0.0
C357 C 0.81747 0.20124 0.7749 0.0
C358 C 0.83282 0.21963 0.71156 0.0
C359 C 0.80001 0.19034 0.71967 0.0
H360 H 0.77603 0.85718 0.21618 0.0
H361 H 0.7596 0.89563 0.31288 0.0
H362 H 0.81073 0.83778 0.3292 0.0
H363 H 0.86923 0.78672 0.31464 0.0
H364 H 0.89443 0.75853 0.21718 0.0
H365 H 0.83011 0.80179 0.20198 0.0
C366 C 0.78245 0.85176 0.24093 0.0
C367 C 0.76387 0.87994 0.26347 0.0
C368 C 0.81386 0.82083 0.24968 0.0
C369 C 0.77325 0.87375 0.29535 0.0
C370 C 0.80268 0.84108 0.30453 0.0
C371 C 0.85958 0.78896 0.29017 0.0
C372 C 0.88564 0.76929 0.26692 0.0
C373 C 0.82452 0.81587 0.28174 0.0
C374 C 0.87418 0.77313 0.23524 0.0
C375 C 0.83775 0.79799 0.22668 0.0
H376 H 0.24797 0.85961 0.74968 0.0
H377 H 0.204 0.84714 0.84527 0.0
H378 H 0.16346 0.78085 0.83178 0.0
H379 H 0.12955 0.73603 0.79062 0.0
H380 H 0.17147 0.75283 0.69441 0.0
H381 H 0.22536 0.80532 0.71066 0.0
C382 C 0.23039 0.84155 0.76757 0.0
C383 C 0.22817 0.85812 0.79811 0.0
C384 C 0.20679 0.80396 0.7596 0.0
C385 C 0.20585 0.83465 0.82148 0.0
C386 C 0.18256 0.79694 0.81377 0.0
C387 C 0.15113 0.7504 0.77333 0.0
C388 C 0.14516 0.74111 0.74132 0.0
C389 C 0.18107 0.7826 0.78255 0.0
C390 C 0.17467 0.75896 0.71933 0.0
C391 C 0.20537 0.78984 0.72846 0.0
H392 H 0.87281 0.79512 0.71366 0.0
H393 H 0.97162 0.88308 0.74894 0.0
H394 H 0.92013 0.91461 0.78567 0.0
H395 H 0.84687 0.91917 0.80786 0.0
H396 H 0.74576 0.83488 0.77231 0.0
H397 H 0.79783 0.80034 0.7362 0.0
C398 C 0.88298 0.82124 0.7293 0.0
C399 C 0.92645 0.83625 0.7283 0.0
C400 C 0.85271 0.83999 0.75071 0.0
C401 C 0.93871 0.87033 0.74893 0.0
C402 C 0.90919 0.88861 0.77019 0.0
C403 C 0.8363 0.89272 0.79266 0.0
C404 C 0.79249 0.87931 0.79326 0.0
C405 C 0.86616 0.87373 0.77141 0.0
C406 C 0.77934 0.84575 0.77258 0.0
C407 C 0.80912 0.82604 0.75178 0.0
H408 H 0.23157 0.91951 0.26469 0.0
H409 H 0.17987 0.88471 0.1739 0.0
H410 H 0.13383 0.82868 0.19838 0.0
H411 H 0.1082 0.78979 0.24567 0.0
H412 H 0.15503 0.82919 0.33686 0.0
H413 H 0.20315 0.88326 0.3122 0.0
C414 C 0.21039 0.89949 0.25021 0.0
C415 C 0.20962 0.90586 0.2174 0.0
C416 C 0.18323 0.86818 0.26458 0.0
C417 C 0.18124 0.88035 0.19912 0.0
C418 C 0.15498 0.84828 0.21314 0.0
C419 C 0.12927 0.80992 0.26015 0.0
C420 C 0.12866 0.80487 0.29309 0.0
C421 C 0.15579 0.84183 0.24583 0.0
C422 C 0.1552 0.83211 0.31151 0.0
C423 C 0.18266 0.86305 0.29739 0.0
H424 H 0.13522 0.17984 0.68914 0.0
H425 H 0.08502 0.25331 0.7679 0.0
H426 H 0.12873 0.20936 0.80396 0.0
H427 H 0.18229 0.15002 0.8137 0.0
H428 H 0.23701 0.08041 0.73473 0.0
H429 H 0.1911 0.12234 0.69874 0.0
C430 C 0.13395 0.18619 0.71418 0.0
C431 C 0.10686 0.22003 0.72563 0.0
C432 C 0.16024 0.16134 0.73501 0.0
C433 C 0.10583 0.22786 0.75823 0.0
C434 C 0.13077 0.20256 0.77902 0.0
C435 C 0.18412 0.14407 0.78862 0.0
C436 C 0.2132 0.11203 0.77708 0.0
C437 C 0.15827 0.16925 0.76776 0.0
C438 C 0.21525 0.10504 0.7444 0.0
C439 C 0.18884 0.12897 0.72369 0.0
H440 H 0.84166 0.09849 0.21839 0.0
H441 H 0.71607 0.15376 0.24159 0.0
H442 H 0.74996 0.20341 0.27919 0.0
H443 H 0.81443 0.22805 0.30836 0.0
H444 H 0.94037 0.17286 0.28615 0.0
H445 H 0.90744 0.12668 0.24567 0.0
C446 C 0.82192 0.12211 0.23117 0.0
C447 C 0.77631 0.12239 0.22706 0.0
C448 C 0.84164 0.15027 0.25343 0.0
C449 C 0.75118 0.15275 0.24426 0.0
C450 C 0.77052 0.18109 0.26594 0.0
C451 C 0.83473 0.20601 0.29464 0.0
C452 C 0.87985 0.20401 0.30048 0.0
C453 C 0.81557 0.1795 0.27128 0.0
C454 C 0.90559 0.1754 0.28217 0.0
C455 C 0.88674 0.14882 0.25897 0.0
H456 H 0.08181 0.98296 0.1464 0.0
H457 H 0.06696 0.11009 0.19008 0.0
H458 H 0.98872 0.09789 0.19545 0.0
H459 H 0.9245 0.0502 0.18861 0.0
H460 H 0.94081 0.92246 0.14628 0.0
H461 H 0.01869 0.93539 0.14025 0.0
C462 C 0.06174 0.00788 0.15744 0.0
C463 C 0.08053 0.04736 0.16783 0.0
C464 C 0.01694 0.00042 0.16086 0.0
C465 C 0.05348 0.07959 0.18148 0.0
C466 C 0.0087 0.07254 0.18475 0.0
C467 C 0.94514 0.02541 0.17789 0.0
C468 C 0.92693 0.98539 0.16802 0.0
C469 C 0.99007 0.03303 0.17455 0.0
C470 C 0.95411 0.95327 0.1545 0.0
C471 C -0.00139 0.96074 0.15086 0.0
H472 H 0.04615 0.08177 0.63403 0.0
H473 H 0.91878 0.06598 0.67521 0.0
H474 H 0.92865 0.98648 0.67616 0.0
H475 H 0.97343 0.92153 0.66566 0.0
H476 H 0.10069 0.93621 0.62411 0.0
H477 H 0.09122 0.01604 0.62329 0.0
C478 C 0.02079 0.0609 0.64344 0.0
C479 C 0.98172 0.07978 0.65441 0.0
C480 C 0.02662 0.01503 0.64378 0.0
C481 C 0.94889 0.05226 0.66622 0.0
C482 C 0.95457 0.00679 0.66687 0.0
C483 C -0.00116 0.94206 0.65594 0.0
C484 C 0.03758 0.92282 0.64473 0.0
C485 C 0.99316 0.98781 0.65555 0.0
C486 C 0.07064 0.95017 0.63302 0.0
C487 C 0.0652 0.99581 0.63249 0.0
H488 H 0.93314 0.06882 0.86334 0.0
H489 H 0.91107 0.9317 0.88321 0.0
H490 H 0.98938 0.91829 0.88383 0.0
H491 H 0.06407 0.94566 0.87988 0.0
H492 H 0.08644 0.08325 0.86211 0.0
H493 H 0.00802 0.09626 0.85944 0.0
C494 C 0.9454 0.03609 0.86811 0.0
C495 C 0.91609 0.00142 0.87332 0.0
C496 C 0.99055 0.02865 0.86876 0.0
C497 C 0.93269 0.95897 0.87878 0.0
C498 C 0.97755 0.95128 0.87933 0.0
C499 C 0.05186 0.97858 0.87571 0.0
C500 C 0.08122 0.01341 0.87137 0.0
C501 C 0.00675 0.98592 0.87455 0.0
C502 C 0.06471 0.05571 0.86524 0.0
C503 C 0.01982 0.06325 0.86391 0.0
H504 H 0.95124 0.95241 0.38119 0.0
H505 H 0.07045 0.92078 0.33236 0.0
H506 H 0.09044 0.99823 0.33149 0.0
H507 H 0.07272 0.07535 0.34295 0.0
H508 H 0.95321 0.10692 0.39137 0.0
H509 H 0.93436 0.02923 0.39373 0.0
C510 C 0.98143 0.96254 0.37021 0.0
C511 C 0.00926 0.93091 0.3569 0.0
C512 C 0.99261 0.00714 0.36963 0.0
C513 C 0.04868 0.94442 0.34315 0.0
C514 C 0.06004 0.98873 0.34248 0.0
C515 C 0.04288 0.06511 0.35438 0.0
C516 C 0.01432 0.09681 0.36679 0.0
C517 C 0.03219 0.02039 0.35556 0.0
C518 C 0.97543 0.08317 0.3812 0.0
C519 C 0.96469 0.03876 0.38267 0.0
H520 H 0.44813 0.93086 0.1535 0.0
H521 H 0.40465 0.04587 0.10302 0.0
H522 H 0.47941 0.0723 0.10015 0.0
H523 H 0.55665 0.06568 0.11607 0.0
H524 H 0.59873 0.94985 0.16611 0.0
H525 H 0.52529 0.92045 0.16425 0.0
C526 C 0.45484 0.96119 0.14119 0.0
C527 C 0.42036 0.98659 0.1291 0.0
C528 C 0.49788 0.97627 0.13963 0.0
C529 C 0.43018 0.02602 0.11335 0.0
C530 C 0.47306 0.04118 0.11158 0.0
C531 C 0.54968 0.03393 0.12635 0.0
C532 C 0.58315 0.01018 0.14128 0.0
C533 C 0.50704 0.01717 0.12544 0.0
C534 C 0.57379 0.9687 0.15415 0.0
C535 C 0.53166 0.95192 0.15332 0.0
H536 H 0.0141 0.58668 0.63042 0.0
H537 H 0.91171 0.56455 0.69817 0.0
H538 H 0.93165 0.48722 0.70085 0.0
H539 H 0.97986 0.42627 0.68565 0.0
H540 H 0.08341 0.44879 0.61915 0.0
H541 H 0.06244 0.52609 0.61547 0.0
C542 C -0.00376 0.56532 0.64606 0.0
C543 C 0.96145 0.58212 0.66419 0.0
C544 C 0.00855 0.52091 0.64812 0.0
C545 C 0.93827 0.55302 0.68364 0.0
C546 C 0.94994 0.50865 0.68544 0.0
C547 C -0.00233 0.44797 0.67016 0.0
C548 C 0.03315 0.43157 0.65265 0.0
C549 C 0.98524 0.49233 0.668 0.0
C550 C 0.05635 0.46049 0.63318 0.0
C551 C 0.04411 0.50467 0.63085 0.0
H552 H 0.41608 0.97729 0.86678 0.0
H553 H 0.45268 0.08886 0.81041 0.0
H554 H 0.52772 0.06147 0.80797 0.0
H555 H 0.58253 0.00634 0.82228 0.0
H556 H 0.54638 0.89633 0.88051 0.0
H557 H 0.47075 0.92153 0.88043 0.0
C558 C 0.44024 0.99536 0.85356 0.0
C559 C 0.42868 0.03506 0.83864 0.0
C560 C 0.48319 0.97943 0.85231 0.0
C561 C 0.4608 0.0585 0.82229 0.0
C562 C 0.50359 0.04268 0.82074 0.0
C563 C 0.55833 0.98796 0.83523 0.0
C564 C 0.57053 0.94966 0.85172 0.0
C565 C 0.51516 0.00331 0.83581 0.0
C566 C 0.53814 0.92568 0.86746 0.0
C567 C 0.49489 0.94033 0.86767 0.0
H568 H 0.02391 0.42396 0.37038 0.0
H569 H 0.89443 0.46565 0.34426 0.0
H570 H 0.91656 0.54258 0.34843 0.0
H571 H 0.97417 0.59714 0.35517 0.0
H572 H 0.10413 0.55547 0.38024 0.0
H573 H 0.08026 0.47894 0.38098 0.0
C574 C 0.00022 0.44983 0.36637 0.0
C575 C 0.95748 0.43917 0.3571 0.0
C576 C 0.01341 0.49381 0.36829 0.0
C577 C 0.92751 0.47314 0.35124 0.0
C578 C 0.94017 0.51703 0.35363 0.0
C579 C -0.00289 0.5715 0.3615 0.0
C580 C 0.04095 0.58206 0.36761 0.0
C581 C 0.98326 0.52767 0.36152 0.0
C582 C 0.07038 0.54819 0.37511 0.0
C583 C 0.0567 0.50447 0.37562 0.0
loop_
_geom_bond_atom_site_label_1
_geom_bond_atom_site_label_2
_geom_bond_distance
_geom_bond_site_symmetry_2
_ccdc_geom_bond_type
C0 C1 1.351 . S
C0 N3 1.368 1_545 S
C0 H5 0.931 . S
C1 C0 1.351 . S
C1 N2 1.373 1_545 S
C1 H29 0.930 . S
N2 C1 1.373 1_565 S
N2 C4 1.340 . S
N3 C0 1.368 1_565 S
N3 C4 1.321 . S
N3 Co6 2.135 . S
C4 N2 1.340 . S
C4 N3 1.321 . S
C4 H28 0.930 . S
H5 C0 0.931 . S
Co6 N3 2.135 . S
Co6 N9 2.121 . S
Co6 O14 2.055 . S
Co6 O17 2.039 . S
Co6 N20 2.140 1_565 S
C7 O8 1.227 . S
C7 O17 1.265 . S
O8 C7 1.227 . S
N9 Co6 2.121 . S
N9 C11 1.375 . S
N9 C12 1.313 . S
C10 C11 1.338 . S
C10 N13 1.377 . S
C10 H30 0.930 . S
C11 N9 1.375 . S
C11 C10 1.338 . S
C11 H15 0.931 . S
C12 N9 1.313 . S
C12 N13 1.344 . S
C12 H16 0.930 . S
N13 C10 1.377 . S
N13 C12 1.344 . S
O14 Co6 2.055 . S
O14 C18 1.253 1_565 S
H15 C11 0.931 . S
H16 C12 0.930 . S
O17 Co6 2.039 . S
O17 C7 1.265 . S
C18 O14 1.253 1_545 S
C18 O19 1.227 . S
O19 C18 1.227 . S
N20 Co6 2.140 1_545 S
N20 C23 1.346 . S
N20 C24 1.345 . S
C21 C22 1.387 . S
C21 C25 1.391 . S
C22 C21 1.387 . S
C22 C23 1.369 . S
C22 H31 0.929 . S
C23 N20 1.346 . S
C23 C22 1.369 . S
C23 H26 0.928 . S
C24 N20 1.345 . S
C24 C25 1.371 . S
C24 H27 0.931 . S
C25 C21 1.391 . S
C25 C24 1.371 . S
C25 H32 0.930 . S
H26 C23 0.928 . S
H27 C24 0.931 . S
H28 C4 0.930 . S
H29 C1 0.930 . S
H30 C10 0.930 . S
H31 C22 0.929 . S
H32 C25 0.930 . S
C33 C34 1.351 . S
C33 N36 1.368 1_655 S
C33 H38 0.931 . S
C34 C33 1.351 . S
C34 N35 1.373 1_655 S
C34 H62 0.930 . S
N35 C34 1.373 1_455 S
N35 C37 1.340 . S
N36 C33 1.368 1_455 S
N36 C37 1.321 . S
N36 Co39 2.135 . S
C37 N35 1.340 . S
C37 N36 1.321 . S
C37 H61 0.930 . S
H38 C33 0.931 . S
Co39 N36 2.135 . S
Co39 N42 2.121 . S
Co39 O47 2.055 . S
Co39 O50 2.039 . S
Co39 N53 2.140 1_455 S
C40 O41 1.227 . S
C40 O50 1.265 . S
O41 C40 1.227 . S
N42 Co39 2.121 . S
N42 C44 1.375 . S
N42 C45 1.313 . S
C43 C44 1.338 . S
C43 N46 1.377 . S
C43 H63 0.930 . S
C44 N42 1.375 . S
C44 C43 1.338 . S
C44 H48 0.931 . S
C45 N42 1.313 . S
C45 N46 1.344 . S
C45 H49 0.930 . S
N46 C43 1.377 . S
N46 C45 1.344 . S
O47 Co39 2.055 . S
O47 C51 1.253 . S
H48 C44 0.931 . S
H49 C45 0.930 . S
O50 Co39 2.039 . S
O50 C40 1.265 . S
C51 O47 1.253 . S
C51 O52 1.227 1_455 S
O52 C51 1.227 1_655 S
N53 Co39 2.140 1_655 S
N53 C56 1.346 . S
N53 C57 1.345 . S
C54 C55 1.387 . S
C54 C58 1.391 . S
C55 C54 1.387 . S
C55 C56 1.369 . S
C55 H64 0.929 . S
C56 N53 1.346 . S
C56 C55 1.369 . S
C56 H59 0.928 . S
C57 N53 1.345 . S
C57 C58 1.371 . S
C57 H60 0.931 . S
C58 C54 1.391 . S
C58 C57 1.371 . S
C58 H65 0.930 . S
H59 C56 0.928 . S
H60 C57 0.931 . S
H61 C37 0.930 . S
H62 C34 0.930 . S
H63 C43 0.930 . S
H64 C55 0.929 . S
H65 C58 0.930 . S
C66 C67 1.351 . S
C66 N69 1.368 1_565 S
C66 H71 0.931 . S
C67 C66 1.351 . S
C67 N68 1.373 1_565 S
C67 H95 0.930 . S
N68 C67 1.373 1_545 S
N68 C70 1.340 . S
N69 C66 1.368 1_545 S
N69 C70 1.321 . S
N69 Co72 2.135 . S
C70 N68 1.340 . S
C70 N69 1.321 . S
C70 H94 0.930 . S
H71 C66 0.931 . S
Co72 N69 2.135 . S
Co72 N75 2.121 . S
Co72 O80 2.055 . S
Co72 O83 2.039 . S
Co72 N86 2.140 1_545 S
C73 O74 1.227 . S
C73 O83 1.265 . S
O74 C73 1.227 . S
N75 Co72 2.121 . S
N75 C77 1.375 . S
N75 C78 1.313 . S
C76 C77 1.338 . S
C76 N79 1.377 . S
C76 H96 0.930 . S
C77 N75 1.375 . S
C77 C76 1.338 . S
C77 H81 0.931 . S
C78 N75 1.313 . S
C78 N79 1.344 . S
C78 H82 0.930 . S
N79 C76 1.377 . S
N79 C78 1.344 . S
O80 Co72 2.055 . S
O80 C84 1.253 . S
H81 C77 0.931 . S
H82 C78 0.930 . S
O83 Co72 2.039 . S
O83 C73 1.265 . S
C84 O80 1.253 . S
C84 O85 1.227 1_545 S
O85 C84 1.227 1_565 S
N86 Co72 2.140 1_565 S
N86 C89 1.346 . S
N86 C90 1.345 . S
C87 C88 1.387 . S
C87 C91 1.391 . S
C88 C87 1.387 . S
C88 C89 1.369 . S
C88 H97 0.929 . S
C89 N86 1.346 . S
C89 C88 1.369 . S
C89 H92 0.928 . S
C90 N86 1.345 . S
C90 C91 1.371 . S
C90 H93 0.931 . S
C91 C87 1.391 . S
C91 C90 1.371 . S
C91 H98 0.930 . S
H92 C89 0.928 . S
H93 C90 0.931 . S
H94 C70 0.930 . S
H95 C67 0.930 . S
H96 C76 0.930 . S
H97 C88 0.929 . S
H98 C91 0.930 . S
C99 C100 1.351 . S
C99 N102 1.368 1_455 S
C99 H104 0.931 . S
C100 C99 1.351 . S
C100 N101 1.373 1_455 S
C100 H128 0.930 . S
N101 C100 1.373 1_655 S
N101 C103 1.340 . S
N102 C99 1.368 1_655 S
N102 C103 1.321 . S
N102 Co105 2.135 . S
C103 N101 1.340 . S
C103 N102 1.321 . S
C103 H127 0.930 . S
H104 C99 0.931 . S
Co105 N102 2.135 . S
Co105 N108 2.121 . S
Co105 O113 2.055 . S
Co105 O116 2.039 . S
Co105 N119 2.140 1_655 S
C106 O107 1.227 . S
C106 O116 1.265 . S
O107 C106 1.227 . S
N108 Co105 2.121 . S
N108 C110 1.375 . S
N108 C111 1.313 . S
C109 C110 1.338 . S
C109 N112 1.377 . S
C109 H129 0.930 . S
C110 N108 1.375 . S
C110 C109 1.338 . S
C110 H114 0.931 . S
C111 N108 1.313 . S
C111 N112 1.344 . S
C111 H115 0.930 . S
N112 C109 1.377 . S
N112 C111 1.344 . S
O113 Co105 2.055 . S
O113 C117 1.253 1_655 S
H114 C110 0.931 . S
H115 C111 0.930 . S
O116 Co105 2.039 . S
O116 C106 1.265 . S
C117 O113 1.253 1_455 S
C117 O118 1.227 . S
O118 C117 1.227 . S
N119 Co105 2.140 1_455 S
N119 C122 1.346 . S
N119 C123 1.345 . S
C120 C121 1.387 . S
C120 C124 1.391 . S
C121 C120 1.387 . S
C121 C122 1.369 . S
C121 H130 0.929 . S
C122 N119 1.346 . S
C122 C121 1.369 . S
C122 H125 0.928 . S
C123 N119 1.345 . S
C123 C124 1.371 . S
C123 H126 0.931 . S
C124 C120 1.391 . S
C124 C123 1.371 . S
C124 H131 0.930 . S
H125 C122 0.928 . S
H126 C123 0.931 . S
H127 C103 0.930 . S
H128 C100 0.930 . S
H129 C109 0.930 . S
H130 C121 0.929 . S
H131 C124 0.930 . S
C132 C133 1.351 . S
C132 N135 1.368 1_565 S
C132 H137 0.931 . S
C133 C132 1.351 . S
C133 N134 1.373 1_565 S
C133 H161 0.930 . S
N134 C133 1.373 1_545 S
N134 C136 1.340 . S
N135 C132 1.368 1_545 S
N135 C136 1.321 . S
N135 Co138 2.135 . S
C136 N134 1.340 . S
C136 N135 1.321 . S
C136 H160 0.930 . S
H137 C132 0.931 . S
Co138 N135 2.135 . S
Co138 N141 2.121 . S
Co138 O146 2.055 . S
Co138 O149 2.039 . S
Co138 N152 2.140 1_545 S
C139 O140 1.227 . S
C139 O149 1.265 . S
O140 C139 1.227 . S
N141 Co138 2.121 . S
N141 C143 1.375 . S
N141 C144 1.313 . S
C142 C143 1.338 . S
C142 N145 1.377 . S
C142 H162 0.930 . S
C143 N141 1.375 . S
C143 C142 1.338 . S
C143 H147 0.931 . S
C144 N141 1.313 . S
C144 N145 1.344 . S
C144 H148 0.930 . S
N145 C142 1.377 . S
N145 C144 1.344 . S
O146 Co138 2.055 . S
O146 C150 1.253 . S
H147 C143 0.931 . S
H148 C144 0.930 . S
O149 Co138 2.039 . S
O149 C139 1.265 . S
C150 O146 1.253 . S
C150 O151 1.227 1_545 S
O151 C150 1.227 1_565 S
N152 Co138 2.140 1_565 S
N152 C155 1.346 . S
N152 C156 1.345 . S
C153 C154 1.387 . S
C153 C157 1.391 . S
C154 C153 1.387 . S
C154 C155 1.369 . S
C154 H163 0.929 . S
C155 N152 1.346 . S
C155 C154 1.369 . S
C155 H158 0.928 . S
C156 N152 1.345 . S
C156 C157 1.371 . S
C156 H159 0.931 . S
C157 C153 1.391 . S
C157 C156 1.371 . S
C157 H164 0.930 . S
H158 C155 0.928 . S
H159 C156 0.931 . S
H160 C136 0.930 . S
H161 C133 0.930 . S
H162 C142 0.930 . S
H163 C154 0.929 . S
H164 C157 0.930 . S
C165 C166 1.351 . S
C165 N168 1.368 1_455 S
C165 H170 0.931 . S
C166 C165 1.351 . S
C166 N167 1.373 1_455 S
C166 H194 0.930 . S
N167 C166 1.373 1_655 S
N167 C169 1.340 . S
N168 C165 1.368 1_655 S
N168 C169 1.321 . S
N168 Co171 2.135 . S
C169 N167 1.340 . S
C169 N168 1.321 . S
C169 H193 0.930 . S
H170 C165 0.931 . S
Co171 N168 2.135 . S
Co171 N174 2.121 . S
Co171 O179 2.055 . S
Co171 O182 2.039 . S
Co171 N185 2.140 1_655 S
C172 O173 1.227 . S
C172 O182 1.265 . S
O173 C172 1.227 . S
N174 Co171 2.121 . S
N174 C176 1.375 . S
N174 C177 1.313 . S
C175 C176 1.338 . S
C175 N178 1.377 . S
C175 H195 0.930 . S
C176 N174 1.375 . S
C176 C175 1.338 . S
C176 H180 0.931 . S
C177 N174 1.313 . S
C177 N178 1.344 . S
C177 H181 0.930 . S
N178 C175 1.377 . S
N178 C177 1.344 . S
O179 Co171 2.055 . S
O179 C183 1.253 1_655 S
H180 C176 0.931 . S
H181 C177 0.930 . S
O182 Co171 2.039 . S
O182 C172 1.265 . S
C183 O179 1.253 1_455 S
C183 O184 1.227 . S
O184 C183 1.227 . S
N185 Co171 2.140 1_455 S
N185 C188 1.346 . S
N185 C189 1.345 . S
C186 C187 1.387 . S
C186 C190 1.391 . S
C187 C186 1.387 . S
C187 C188 1.369 . S
C187 H196 0.929 . S
C188 N185 1.346 . S
C188 C187 1.369 . S
C188 H191 0.928 . S
C189 N185 1.345 . S
C189 C190 1.371 . S
C189 H192 0.931 . S
C190 C186 1.391 . S
C190 C189 1.371 . S
C190 H197 0.930 . S
H191 C188 0.928 . S
H192 C189 0.931 . S
H193 C169 0.930 . S
H194 C166 0.930 . S
H195 C175 0.930 . S
H196 C187 0.929 . S
H197 C190 0.930 . S
C198 C199 1.351 . S
C198 N201 1.368 1_545 S
C198 H203 0.931 . S
C199 C198 1.351 . S
C199 N200 1.373 1_545 S
C199 H227 0.930 . S
N200 C199 1.373 1_565 S
N200 C202 1.340 . S
N201 C198 1.368 1_565 S
N201 C202 1.321 . S
N201 Co204 2.135 . S
C202 N200 1.340 . S
C202 N201 1.321 . S
C202 H226 0.930 . S
H203 C198 0.931 . S
Co204 N201 2.135 . S
Co204 N207 2.121 . S
Co204 O212 2.055 . S
Co204 O215 2.039 . S
Co204 N218 2.140 1_565 S
C205 O206 1.227 . S
C205 O215 1.265 . S
O206 C205 1.227 . S
N207 Co204 2.121 . S
N207 C209 1.375 . S
N207 C210 1.313 . S
C208 C209 1.338 . S
C208 N211 1.377 . S
C208 H228 0.930 . S
C209 N207 1.375 . S
C209 C208 1.338 . S
C209 H213 0.931 . S
C210 N207 1.313 . S
C210 N211 1.344 . S
C210 H214 0.930 . S
N211 C208 1.377 . S
N211 C210 1.344 . S
O212 Co204 2.055 . S
O212 C216 1.253 1_565 S
H213 C209 0.931 . S
H214 C210 0.930 . S
O215 Co204 2.039 . S
O215 C205 1.265 . S
C216 O212 1.253 1_545 S
C216 O217 1.227 . S
O217 C216 1.227 . S
N218 Co204 2.140 1_545 S
N218 C221 1.346 . S
N218 C222 1.345 . S
C219 C220 1.387 . S
C219 C223 1.391 . S
C220 C219 1.387 . S
C220 C221 1.369 . S
C220 H229 0.929 . S
C221 N218 1.346 . S
C221 C220 1.369 . S
C221 H224 0.928 . S
C222 N218 1.345 . S
C222 C223 1.371 . S
C222 H225 0.931 . S
C223 C219 1.391 . S
C223 C222 1.371 . S
C223 H230 0.930 . S
H224 C221 0.928 . S
H225 C222 0.931 . S
H226 C202 0.930 . S
H227 C199 0.930 . S
H228 C208 0.930 . S
H229 C220 0.929 . S
H230 C223 0.930 . S
C231 C232 1.351 . S
C231 N234 1.368 1_655 S
C231 H236 0.931 . S
C232 C231 1.351 . S
C232 N233 1.373 1_655 S
C232 H260 0.930 . S
N233 C232 1.373 1_455 S
N233 C235 1.340 . S
N234 C231 1.368 1_455 S
N234 C235 1.321 . S
N234 Co237 2.135 . S
C235 N233 1.340 . S
C235 N234 1.321 . S
C235 H259 0.930 . S
H236 C231 0.931 . S
Co237 N234 2.135 . S
Co237 N240 2.121 . S
Co237 O245 2.055 . S
Co237 O248 2.039 . S
Co237 N251 2.140 1_455 S
C238 O239 1.227 . S
C238 O248 1.265 . S
O239 C238 1.227 . S
N240 Co237 2.121 . S
N240 C242 1.375 . S
N240 C243 1.313 . S
C241 C242 1.338 . S
C241 N244 1.377 . S
C241 H261 0.930 . S
C242 N240 1.375 . S
C242 C241 1.338 . S
C242 H246 0.931 . S
C243 N240 1.313 . S
C243 N244 1.344 . S
C243 H247 0.930 . S
N244 C241 1.377 . S
N244 C243 1.344 . S
O245 Co237 2.055 . S
O245 C249 1.253 . S
H246 C242 0.931 . S
H247 C243 0.930 . S
O248 Co237 2.039 . S
O248 C238 1.265 . S
C249 O245 1.253 . S
C249 O250 1.227 1_455 S
O250 C249 1.227 1_655 S
N251 Co237 2.140 1_655 S
N251 C254 1.346 . S
N251 C255 1.345 . S
C252 C253 1.387 . S
C252 C256 1.391 . S
C253 C252 1.387 . S
C253 C254 1.369 . S
C253 H262 0.929 . S
C254 N251 1.346 . S
C254 C253 1.369 . S
C254 H257 0.928 . S
C255 N251 1.345 . S
C255 C256 1.371 . S
C255 H258 0.931 . S
C256 C252 1.391 . S
C256 C255 1.371 . S
C256 H263 0.930 . S
H257 C254 0.928 . S
H258 C255 0.931 . S
H259 C235 0.930 . S
H260 C232 0.930 . S
H261 C241 0.930 . S
H262 C253 0.929 . S
H263 C256 0.930 . S
H264 C270 0.930 . S
H265 C273 0.930 . S
H266 C274 0.930 . S
H267 C275 0.930 . S
H268 C278 0.930 . S
H269 C279 0.930 . S
C270 H264 0.930 . S
C270 C271 1.355 . S
C270 C272 1.415 . S
C271 C270 1.355 . S
C271 C273 1.419 1_545 S
C272 C270 1.415 . S
C272 C277 1.425 1_544 S
C272 C279 1.409 1_554 S
C273 H265 0.930 . S
C273 C271 1.419 1_565 S
C273 C274 1.362 . S
C274 H266 0.930 . S
C274 C273 1.362 . S
C274 C277 1.409 1_554 S
C275 H267 0.930 . S
C275 C276 1.355 1_565 S
C275 C277 1.415 . S
C276 C275 1.355 1_545 S
C276 C278 1.419 . S
C277 C272 1.425 1_566 S
C277 C274 1.409 1_556 S
C277 C275 1.415 . S
C278 H268 0.930 . S
C278 C276 1.419 . S
C278 C279 1.362 . S
C279 H269 0.930 . S
C279 C272 1.409 1_556 S
C279 C278 1.362 . S
H280 C286 0.930 . S
H281 C289 0.930 . S
H282 C290 0.930 . S
H283 C291 0.930 . S
H284 C294 0.930 . S
H285 C295 0.930 . S
C286 H280 0.930 . S
C286 C287 1.355 1_655 S
C286 C288 1.415 . S
C287 C286 1.355 1_455 S
C287 C289 1.419 . S
C288 C286 1.415 . S
C288 C293 1.425 1_655 S
C288 C295 1.409 . S
C289 H281 0.930 . S
C289 C287 1.419 . S
C289 C290 1.362 . S
C290 H282 0.930 . S
C290 C289 1.362 . S
C290 C293 1.409 . S
C291 H283 0.930 . S
C291 C292 1.355 . S
C291 C293 1.415 . S
C292 C291 1.355 . S
C292 C294 1.419 1_455 S
C293 C288 1.425 1_455 S
C293 C290 1.409 . S
C293 C291 1.415 . S
C294 H284 0.930 . S
C294 C292 1.419 1_655 S
C294 C295 1.362 . S
C295 H285 0.930 . S
C295 C288 1.409 . S
C295 C294 1.362 . S
H296 C302 0.930 . S
H297 C305 0.930 . S
H298 C306 0.930 . S
H299 C307 0.930 . S
H300 C310 0.930 . S
H301 C311 0.930 . S
C302 H296 0.930 . S
C302 C303 1.355 . S
C302 C304 1.415 . S
C303 C302 1.355 . S
C303 C305 1.419 1_545 S
C304 C302 1.415 . S
C304 C309 1.425 1_544 S
C304 C311 1.409 1_554 S
C305 H297 0.930 . S
C305 C303 1.419 1_565 S
C305 C306 1.362 . S
C306 H298 0.930 . S
C306 C305 1.362 . S
C306 C309 1.409 1_554 S
C307 H299 0.930 . S
C307 C308 1.355 1_565 S
C307 C309 1.415 . S
C308 C307 1.355 1_545 S
C308 C310 1.419 . S
C309 C304 1.425 1_566 S
C309 C306 1.409 1_556 S
C309 C307 1.415 . S
C310 H300 0.930 . S
C310 C308 1.419 . S
C310 C311 1.362 . S
C311 H301 0.930 . S
C311 C304 1.409 1_556 S
C311 C310 1.362 . S
H312 C318 0.930 . S
H313 C321 0.930 . S
H314 C322 0.930 . S
H315 C323 0.930 . S
H316 C326 0.930 . S
H317 C327 0.930 . S
C318 H312 0.930 . S
C318 C319 1.355 . S
C318 C320 1.415 . S
C319 C318 1.355 . S
C319 C321 1.419 1_455 S
C320 C318 1.415 . S
C320 C325 1.425 1_455 S
C320 C327 1.409 . S
C321 H313 0.930 . S
C321 C319 1.419 1_655 S
C321 C322 1.362 . S
C322 H314 0.930 . S
C322 C321 1.362 . S
C322 C325 1.409 . S
C323 H315 0.930 . S
C323 C324 1.355 1_655 S
C323 C325 1.415 . S
C324 C323 1.355 1_455 S
C324 C326 1.419 . S
C325 C320 1.425 1_655 S
C325 C322 1.409 . S
C325 C323 1.415 . S
C326 H316 0.930 . S
C326 C324 1.419 . S
C326 C327 1.362 . S
C327 H317 0.930 . S
C327 C320 1.409 . S
C327 C326 1.362 . S
H328 C334 0.930 . S
H329 C337 0.930 . S
H330 C338 0.930 . S
H331 C339 0.930 . S
H332 C342 0.930 . S
H333 C343 0.930 . S
C334 H328 0.930 . S
C334 C335 1.355 . S
C334 C336 1.415 . S
C335 C334 1.355 . S
C335 C337 1.419 . S
C336 C334 1.415 . S
C336 C341 1.425 . S
C336 C343 1.409 . S
C337 H329 0.930 . S
C337 C335 1.419 . S
C337 C338 1.362 . S
C338 H330 0.930 . S
C338 C337 1.362 . S
C338 C341 1.409 . S
C339 H331 0.930 . S
C339 C340 1.355 . S
C339 C341 1.415 . S
C340 C339 1.355 . S
C340 C342 1.419 . S
C341 C336 1.425 . S
C341 C338 1.409 . S
C341 C339 1.415 . S
C342 H332 0.930 . S
C342 C340 1.419 . S
C342 C343 1.362 . S
C343 H333 0.930 . S
C343 C336 1.409 . S
C343 C342 1.362 . S
H344 C350 0.930 . S
H345 C353 0.930 . S
H346 C354 0.930 . S
H347 C355 0.930 . S
H348 C358 0.930 . S
H349 C359 0.930 . S
C350 H344 0.930 . S
C350 C351 1.355 . S
C350 C352 1.415 . S
C351 C350 1.355 . S
C351 C353 1.419 . S
C352 C350 1.415 . S
C352 C357 1.425 . S
C352 C359 1.409 . S
C353 H345 0.930 . S
C353 C351 1.419 . S
C353 C354 1.362 . S
C354 H346 0.930 . S
C354 C353 1.362 . S
C354 C357 1.409 . S
C355 H347 0.930 . S
C355 C356 1.355 . S
C355 C357 1.415 . S
C356 C355 1.355 . S
C356 C358 1.419 . S
C357 C352 1.425 . S
C357 C354 1.409 . S
C357 C355 1.415 . S
C358 H348 0.930 . S
C358 C356 1.419 . S
C358 C359 1.362 . S
C359 H349 0.930 . S
C359 C352 1.409 . S
C359 C358 1.362 . S
H360 C366 0.930 . S
H361 C369 0.930 . S
H362 C370 0.930 . S
H363 C371 0.930 . S
H364 C374 0.930 . S
H365 C375 0.930 . S
C366 H360 0.930 . S
C366 C367 1.355 . S
C366 C368 1.415 . S
C367 C366 1.355 . S
C367 C369 1.419 . S
C368 C366 1.415 . S
C368 C373 1.425 . S
C368 C375 1.409 . S
C369 H361 0.930 . S
C369 C367 1.419 . S
C369 C370 1.362 . S
C370 H362 0.930 . S
C370 C369 1.362 . S
C370 C373 1.409 . S
C371 H363 0.930 . S
C371 C372 1.355 . S
C371 C373 1.415 . S
C372 C371 1.355 . S
C372 C374 1.419 . S
C373 C368 1.425 . S
C373 C370 1.409 . S
C373 C371 1.415 . S
C374 H364 0.930 . S
C374 C372 1.419 . S
C374 C375 1.362 . S
C375 H365 0.930 . S
C375 C368 1.409 . S
C375 C374 1.362 . S
H376 C382 0.930 . S
H377 C385 0.930 . S
H378 C386 0.930 . S
H379 C387 0.930 . S
H380 C390 0.930 . S
H381 C391 0.930 . S
C382 H376 0.930 . S
C382 C383 1.355 . S
C382 C384 1.415 . S
C383 C382 1.355 . S
C383 C385 1.419 . S
C384 C382 1.415 . S
C384 C389 1.425 . S
C384 C391 1.409 . S
C385 H377 0.930 . S
C385 C383 1.419 . S
C385 C386 1.362 . S
C386 H378 0.930 . S
C386 C385 1.362 . S
C386 C389 1.409 . S
C387 H379 0.930 . S
C387 C388 1.355 . S
C387 C389 1.415 . S
C388 C387 1.355 . S
C388 C390 1.419 . S
C389 C384 1.425 . S
C389 C386 1.409 . S
C389 C387 1.415 . S
C390 H380 0.930 . S
C390 C388 1.419 . S
C390 C391 1.362 . S
C391 H381 0.930 . S
C391 C384 1.409 . S
C391 C390 1.362 . S
H392 C398 0.930 . S
H393 C401 0.930 . S
H394 C402 0.930 . S
H395 C403 0.930 . S
H396 C406 0.930 . S
H397 C407 0.930 . S
C398 H392 0.930 . S
C398 C399 1.355 . S
C398 C400 1.415 . S
C399 C398 1.355 . S
C399 C401 1.419 . S
C400 C398 1.415 . S
C400 C405 1.425 . S
C400 C407 1.409 . S
C401 H393 0.930 . S
C401 C399 1.419 . S
C401 C402 1.362 . S
C402 H394 0.930 . S
C402 C401 1.362 . S
C402 C405 1.409 . S
C403 H395 0.930 . S
C403 C404 1.355 . S
C403 C405 1.415 . S
C404 C403 1.355 . S
C404 C406 1.419 . S
C405 C400 1.425 . S
C405 C402 1.409 . S
C405 C403 1.415 . S
C406 H396 0.930 . S
C406 C404 1.419 . S
C406 C407 1.362 . S
C407 H397 0.930 . S
C407 C400 1.409 . S
C407 C406 1.362 . S
H408 C414 0.930 . S
H409 C417 0.930 . S
H410 C418 0.930 . S
H411 C419 0.930 . S
H412 C422 0.930 . S
H413 C423 0.930 . S
C414 H408 0.930 . S
C414 C415 1.355 . S
C414 C416 1.415 . S
C415 C414 1.355 . S
C415 C417 1.419 . S
C416 C414 1.415 . S
C416 C421 1.425 . S
C416 C423 1.409 . S
C417 H409 0.930 . S
C417 C415 1.419 . S
C417 C418 1.362 . S
C418 H410 0.930 . S
C418 C417 1.362 . S
C418 C421 1.409 . S
C419 H411 0.930 . S
C419 C420 1.355 . S
C419 C421 1.415 . S
C420 C419 1.355 . S
C420 C422 1.419 . S
C421 C416 1.425 . S
C421 C418 1.409 . S
C421 C419 1.415 . S
C422 H412 0.930 . S
C422 C420 1.419 . S
C422 C423 1.362 . S
C423 H413 0.930 . S
C423 C416 1.409 . S
C423 C422 1.362 . S
H424 C430 0.930 . S
H425 C433 0.930 . S
H426 C434 0.930 . S
H427 C435 0.930 . S
H428 C438 0.930 . S
H429 C439 0.930 . S
C430 H424 0.930 . S
C430 C431 1.355 . S
C430 C432 1.415 . S
C431 C430 1.355 . S
C431 C433 1.419 . S
C432 C430 1.415 . S
C432 C437 1.425 . S
C432 C439 1.409 . S
C433 H425 0.930 . S
C433 C431 1.419 . S
C433 C434 1.362 . S
C434 H426 0.930 . S
C434 C433 1.362 . S
C434 C437 1.409 . S
C435 H427 0.930 . S
C435 C436 1.355 . S
C435 C437 1.415 . S
C436 C435 1.355 . S
C436 C438 1.419 . S
C437 C432 1.425 . S
C437 C434 1.409 . S
C437 C435 1.415 . S
C438 H428 0.930 . S
C438 C436 1.419 . S
C438 C439 1.362 . S
C439 H429 0.930 . S
C439 C432 1.409 . S
C439 C438 1.362 . S
H440 C446 0.930 . S
H441 C449 0.930 . S
H442 C450 0.930 . S
H443 C451 0.930 . S
H444 C454 0.930 . S
H445 C455 0.930 . S
C446 H440 0.930 . S
C446 C447 1.355 . S
C446 C448 1.415 . S
C447 C446 1.355 . S
C447 C449 1.419 . S
C448 C446 1.415 . S
C448 C453 1.425 . S
C448 C455 1.409 . S
C449 H441 0.930 . S
C449 C447 1.419 . S
C449 C450 1.362 . S
C450 H442 0.930 . S
C450 C449 1.362 . S
C450 C453 1.409 . S
C451 H443 0.930 . S
C451 C452 1.355 . S
C451 C453 1.415 . S
C452 C451 1.355 . S
C452 C454 1.419 . S
C453 C448 1.425 . S
C453 C450 1.409 . S
C453 C451 1.415 . S
C454 H444 0.930 . S
C454 C452 1.419 . S
C454 C455 1.362 . S
C455 H445 0.930 . S
C455 C448 1.409 . S
C455 C454 1.362 . S
H456 C462 0.930 . S
H457 C465 0.930 . S
H458 C466 0.930 . S
H459 C467 0.930 . S
H460 C470 0.930 . S
H461 C471 0.930 . S
C462 H456 0.930 . S
C462 C463 1.355 . S
C462 C464 1.415 . S
C463 C462 1.355 . S
C463 C465 1.419 1_565 S
C464 C462 1.415 . S
C464 C469 1.425 1_565 S
C464 C471 1.409 1_455 S
C465 H457 0.930 . S
C465 C463 1.419 1_545 S
C465 C466 1.362 . S
C466 H458 0.930 . S
C466 C465 1.362 . S
C466 C469 1.409 . S
C467 H459 0.930 . S
C467 C468 1.355 . S
C467 C469 1.415 1_655 S
C468 C467 1.355 . S
C468 C470 1.419 . S
C469 C464 1.425 1_545 S
C469 C466 1.409 . S
C469 C467 1.415 1_455 S
C470 H460 0.930 . S
C470 C468 1.419 . S
C470 C471 1.362 1_545 S
C471 H461 0.930 . S
C471 C464 1.409 1_655 S
C471 C470 1.362 1_565 S
H472 C478 0.930 . S
H473 C481 0.930 . S
H474 C482 0.930 . S
H475 C483 0.930 . S
H476 C486 0.930 . S
H477 C487 0.930 . S
C478 H472 0.930 . S
C478 C479 1.355 . S
C478 C480 1.415 . S
C479 C478 1.355 . S
C479 C481 1.419 1_455 S
C480 C478 1.415 . S
C480 C485 1.425 1_455 S
C480 C487 1.409 1_545 S
C481 H473 0.930 . S
C481 C479 1.419 1_655 S
C481 C482 1.362 . S
C482 H474 0.930 . S
C482 C481 1.362 . S
C482 C485 1.409 . S
C483 H475 0.930 . S
C483 C484 1.355 . S
C483 C485 1.415 1_565 S
C484 C483 1.355 . S
C484 C486 1.419 1_655 S
C485 C480 1.425 1_655 S
C485 C482 1.409 . S
C485 C483 1.415 1_545 S
C486 H476 0.930 . S
C486 C484 1.419 1_455 S
C486 C487 1.362 . S
C487 H477 0.930 . S
C487 C480 1.409 1_565 S
C487 C486 1.362 . S
H488 C494 0.930 . S
H489 C497 0.930 . S
H490 C498 0.930 1_455 S
H491 C499 0.930 . S
H492 C502 0.930 . S
H493 C503 0.930 . S
C494 H488 0.930 . S
C494 C495 1.355 1_545 S
C494 C496 1.415 . S
C495 C494 1.355 1_565 S
C495 C497 1.419 . S
C496 C494 1.415 . S
C496 C501 1.425 1_645 S
C496 C503 1.409 1_655 S
C497 H489 0.930 . S
C497 C495 1.419 . S
C497 C498 1.362 . S
C498 H490 0.930 1_655 S
C498 C497 1.362 . S
C498 C501 1.409 1_655 S
C499 H491 0.930 . S
C499 C500 1.355 1_565 S
C499 C501 1.415 . S
C500 C499 1.355 1_545 S
C500 C502 1.419 . S
C501 C496 1.425 1_465 S
C501 C498 1.409 1_455 S
C501 C499 1.415 . S
C502 H492 0.930 . S
C502 C500 1.419 . S
C502 C503 1.362 . S
C503 H493 0.930 . S
C503 C496 1.409 1_455 S
C503 C502 1.362 . S
H504 C510 0.930 1_655 S
H505 C513 0.930 . S
H506 C514 0.930 1_545 S
H507 C515 0.930 . S
H508 C518 0.930 . S
H509 C519 0.930 . S
C510 H504 0.930 1_455 S
C510 C511 1.355 . S
C510 C512 1.415 1_455 S
C511 C510 1.355 . S
C511 C513 1.419 . S
C512 C510 1.415 1_655 S
C512 C517 1.425 1_665 S
C512 C519 1.409 1_565 S
C513 H505 0.930 . S
C513 C511 1.419 . S
C513 C514 1.362 . S
C514 H506 0.930 1_565 S
C514 C513 1.362 . S
C514 C517 1.409 1_565 S
C515 H507 0.930 . S
C515 C516 1.355 1_455 S
C515 C517 1.415 . S
C516 C515 1.355 1_655 S
C516 C518 1.419 . S
C517 C512 1.425 1_445 S
C517 C514 1.409 1_545 S
C517 C515 1.415 . S
C518 H508 0.930 . S
C518 C516 1.419 . S
C518 C519 1.362 . S
C519 H509 0.930 . S
C519 C512 1.409 1_545 S
C519 C518 1.362 . S
H520 C526 0.930 . S
H521 C529 0.930 . S
H522 C530 0.930 . S
H523 C531 0.930 . S
H524 C534 0.930 . S
H525 C535 0.930 . S
C526 H520 0.930 . S
C526 C527 1.356 . S
C526 C528 1.415 . S
C527 C526 1.356 . S
C527 C529 1.417 1_565 S
C528 C526 1.415 . S
C528 C533 1.425 1_565 S
C528 C535 1.409 . S
C529 H521 0.930 . S
C529 C527 1.417 1_545 S
C529 C530 1.362 . S
C530 H522 0.930 . S
C530 C529 1.362 . S
C530 C533 1.409 . S
C531 H523 0.930 . S
C531 C532 1.355 . S
C531 C533 1.415 . S
C532 C531 1.355 . S
C532 C534 1.419 1_545 S
C533 C528 1.425 1_545 S
C533 C530 1.409 . S
C533 C531 1.415 . S
C534 H524 0.930 . S
C534 C532 1.419 1_565 S
C534 C535 1.362 . S
C535 H525 0.930 . S
C535 C528 1.409 . S
C535 C534 1.362 . S
H536 C542 0.930 . S
H537 C545 0.930 . S
H538 C546 0.930 . S
H539 C547 0.930 . S
H540 C550 0.930 . S
H541 C551 0.930 . S
C542 H536 0.930 . S
C542 C543 1.355 . S
C542 C544 1.415 . S
C543 C542 1.355 . S
C543 C545 1.419 1_655 S
C544 C542 1.415 . S
C544 C549 1.425 1_655 S
C544 C551 1.409 . S
C545 H537 0.930 . S
C545 C543 1.419 1_455 S
C545 C546 1.362 . S
C546 H538 0.930 . S
C546 C545 1.362 . S
C546 C549 1.409 . S
C547 H539 0.930 . S
C547 C548 1.355 . S
C547 C549 1.415 . S
C548 C547 1.355 . S
C548 C550 1.419 1_455 S
C549 C544 1.425 1_455 S
C549 C546 1.409 . S
C549 C547 1.415 . S
C550 H540 0.930 . S
C550 C548 1.419 1_655 S
C550 C551 1.362 . S
C551 H541 0.930 . S
C551 C544 1.409 . S
C551 C550 1.362 . S
H552 C558 0.930 . S
H553 C561 0.930 . S
H554 C562 0.930 . S
H555 C563 0.930 . S
H556 C566 0.930 . S
H557 C567 0.930 . S
C558 H552 0.930 . S
C558 C559 1.355 . S
C558 C560 1.415 . S
C559 C558 1.355 . S
C559 C561 1.419 . S
C560 C558 1.415 . S
C560 C565 1.425 . S
C560 C567 1.409 1_545 S
C561 H553 0.930 . S
C561 C559 1.419 . S
C561 C562 1.362 . S
C562 H554 0.930 . S
C562 C561 1.362 . S
C562 C565 1.409 . S
C563 H555 0.930 . S
C563 C564 1.355 1_545 S
C563 C565 1.415 . S
C564 C563 1.355 1_565 S
C564 C566 1.419 . S
C565 C560 1.425 . S
C565 C562 1.409 . S
C565 C563 1.415 . S
C566 H556 0.930 . S
C566 C564 1.419 . S
C566 C567 1.362 . S
C567 H557 0.930 . S
C567 C560 1.409 1_565 S
C567 C566 1.362 . S
H568 C574 0.930 . S
H569 C577 0.930 . S
H570 C578 0.930 . S
H571 C579 0.930 . S
H572 C582 0.930 . S
H573 C583 0.930 . S
C574 H568 0.930 . S
C574 C575 1.355 1_455 S
C574 C576 1.415 . S
C575 C574 1.355 1_655 S
C575 C577 1.419 . S
C576 C574 1.415 . S
C576 C581 1.425 1_455 S
C576 C583 1.409 . S
C577 H569 0.930 . S
C577 C575 1.419 . S
C577 C578 1.362 . S
C578 H570 0.930 . S
C578 C577 1.362 . S
C578 C581 1.409 . S
C579 H571 0.930 . S
C579 C580 1.355 1_655 S
C579 C581 1.415 . S
C580 C579 1.355 1_455 S
C580 C582 1.419 . S
C581 C576 1.425 1_655 S
C581 C578 1.409 . S
C581 C579 1.415 . S
C582 H572 0.930 . S
C582 C580 1.419 . S
C582 C583 1.362 . S
C583 H573 0.930 . S
C583 C576 1.409 . S
C583 C582 1.362 . S
C271 C18 1.684 . S
C276 C150 1.690 . S
C287 C183 1.679 . S
C292 C51 1.694 . S
C303 C84 1.681 . S
C308 C216 1.693 . S
C319 C249 1.678 . S
C324 C117 1.695 . S
C335 C186 0.413 . S
C340 C21 0.616 . S
C351 C219 0.410 . S
C356 C54 0.616 . S
C367 C87 0.594 . S
C372 C252 0.462 . S
C383 C153 0.404 . S
C388 C120 0.616 . S
C399 C106 1.255 . S
C404 C205 1.312 . S
C415 C7 1.241 . S
C420 C238 1.320 . S
C431 C40 1.238 . S
C436 C139 1.327 . S
C447 C73 1.315 . S
C452 C172 1.251 . S
C463 N2 0.761 . S
C468 N68 0.693 . S
C479 N35 0.740 . S
C484 N101 0.691 . S
C495 N200 0.823 . S
C500 N134 0.759 . S
C511 N233 0.813 . S
C516 N167 0.735 . S
C527 N13 1.163 . S
C532 N79 1.173 . S
C543 N112 1.141 . S
C548 N46 1.191 . S
C559 N145 1.141 . S
C564 N211 1.186 . S
C575 N178 1.189 . S
C580 N244 1.139 . S
