# Generated by pormake.
# Topology lon, (4)-cn, num edge types: 1
# Building blocks:
#     Node 0, Type 0, BuildingBlock: ICAMEG_clean_sbu_1, # of connection points: 4
#     Node 1, Type 0, BuildingBlock: ICAMEG_clean_sbu_1, # of connection points: 4
#     Node 2, Type 0, BuildingBlock: ICAMEG_clean_sbu_1, # of connection points: 4
#     Node 3, Type 0, BuildingBlock: ICAMEG_clean_sbu_1, # of connection points: 4
#     Edge 4, Type (0, 0), BuildingBlock: AJUNOK_clean_linker_0, # of connection points: 2
#     Edge 5, Type (0, 0), BuildingBlock: AJUNOK_clean_linker_0, # of connection points: 2
#     Edge 6, Type (0, 0), BuildingBlock: AJUNOK_clean_linker_0, # of connection points: 2
#     Edge 7, Type (0, 0), BuildingBlock: AJUNOK_clean_linker_0, # of connection points: 2
#     Edge 8, Type (0, 0), BuildingBlock: AJUNOK_clean_linker_0, # of connection points: 2
#     Edge 9, Type (0, 0), BuildingBlock: AJUNOK_clean_linker_0, # of connection points: 2
#     Edge 10, Type (0, 0), BuildingBlock: AJUNOK_clean_linker_0, # of connection points: 2
#     Edge 11, Type (0, 0), BuildingBlock: AJUNOK_clean_linker_0, # of connection points: 2
# Relax obj value: 0.244
# Max RMSD: 0.267
# Mean RMSD: 0.258
data_MOF--net-lon--node1-ICAMEG_clean_sbu_1--edge1-AJUNOK_clean_linker_0
_symmetry_space_group_name_H-M    P1
_symmetry_Int_Tables_number       1
_symmetry_cell_setting            triclinic
loop_
_symmetry_equiv_pos_as_xyz
'x, y, z'
_cell_length_a     16.541339
_cell_length_b     19.490276
_cell_length_c     33.07123
_cell_angle_alpha  93.986727
_cell_angle_beta   89.83736
_cell_angle_gamma 115.4562
loop_
_atom_site_label
_atom_site_type_symbol
_atom_site_fract_x
_atom_site_fract_y
_atom_site_fract_z
_atom_type_partial_charge
Co0 Co 0.35681 0.70949 0.02837 0.0
Co1 Co 0.37564 0.65736 0.12314 0.0
O2 O 0.38644 0.73576 0.08668 0.0
C3 C 0.53224 0.84558 0.03029 0.0
O4 O 0.56078 0.81632 0.05843 0.0
C5 C 0.27552 0.68683 0.19157 0.0
O6 O 0.21166 0.61855 0.18185 0.0
O7 O 0.24698 0.60053 0.10578 0.0
O8 O 0.25893 0.6072 0.03855 0.0
H9 H 0.27227 0.38734 0.15985 0.0
H10 H 0.36123 0.85293 0.06694 0.0
O11 O 0.45249 0.8109 1.01582 0.0
H12 H 0.05554 0.71031 1.00781 0.0
H13 H 0.30837 0.76437 0.88614 0.0
H14 H 0.31541 0.5713 0.97305 0.0
H15 H 0.16679 0.65791 1.00009 0.0
H16 H 0.34118 0.7949 0.95961 0.0
O17 O 0.34285 0.71448 0.16874 0.0
H18 H 0.29127 0.48882 0.11492 0.0
H19 H 0.43289 0.65788 0.20915 0.0
H20 H 0.28117 0.53804 0.89982 0.0
H21 H 0.25226 0.90804 0.07495 0.0
H22 H 0.27756 0.63498 0.85582 0.0
H23 H 0.09808 0.83638 0.04541 0.0
O24 O 0.44455 0.66519 0.024 0.0
H25 H 0.64845 0.89531 0.16871 0.0
H26 H 0.53161 0.61928 0.13257 0.0
H27 H 0.69133 0.69317 0.15179 0.0
H28 H 0.75072 0.83226 0.17025 0.0
H29 H 0.4894 0.81931 0.14857 0.0
H30 H 0.4146 0.55838 0.25522 0.0
H31 H 0.33399 0.42193 0.23058 0.0
O32 O 0.41146 0.59922 0.07926 0.0
C33 C 0.21427 0.58055 0.06976 0.0
C34 C 0.30754 0.44659 0.17093 0.0
C35 C 0.38743 0.54256 0.22445 0.0
N36 N 0.36306 0.57917 0.15936 0.0
C37 C 0.31857 0.50427 0.14562 0.0
C38 C 0.39742 0.59867 0.19824 0.0
C39 C 0.34219 0.46603 0.21061 0.0
C40 C 0.29446 0.82177 0.05374 0.0
N41 N 0.27055 0.75245 0.03302 0.0
C42 C 0.23298 0.85312 0.05846 0.0
C43 C 0.14646 0.81287 0.04189 0.0
C44 C 0.12255 0.74217 1.02078 0.0
C45 C 0.18583 0.7127 1.0166 0.0
C46 C 0.30959 0.72159 0.905 0.0
C47 C 0.3134 0.61365 0.95416 0.0
C48 C 0.32841 0.73862 0.94661 0.0
N49 N 0.32975 0.6848 0.97065 0.0
C50 C 0.29423 0.59455 0.91268 0.0
C51 C 0.2923 0.64899 0.88801 0.0
C52 C 0.44894 0.6145 0.04501 0.0
C53 C 0.62338 0.83473 0.16079 0.0
C54 C 0.55705 0.67982 0.14002 0.0
C55 C 0.64751 0.72135 0.15116 0.0
C56 C 0.68075 0.79935 0.16157 0.0
N57 N 0.50115 0.71489 0.13929 0.0
C58 C 0.5333 0.79134 0.1495 0.0
Co59 Co 0.61123 0.3269 0.54541 0.0
Co60 Co 0.73073 0.29818 0.62114 0.0
O61 O 0.64594 0.33612 0.60276 0.0
C62 C 0.63402 0.48336 0.53448 0.0
O63 O 0.69318 0.48657 0.50725 0.0
C64 C 0.60051 0.27796 0.68939 0.0
O65 O 0.55206 0.30115 0.66776 0.0
O66 O 0.65149 0.19515 0.5952 0.0
O67 O 0.6225 0.22857 0.53535 0.0
H68 H 0.91539 0.15075 0.60292 0.0
H69 H 0.49082 0.35081 0.60581 0.0
O70 O 0.59736 0.42442 0.55442 0.0
H71 H 0.3054 0.10557 0.52998 0.0
H72 H 0.42947 0.34411 0.42767 0.0
H73 H 0.6833 0.29244 0.46843 0.0
H74 H 0.46283 0.17984 0.51274 0.0
H75 H 0.46951 0.34952 0.49997 0.0
O76 O 0.66724 0.26999 0.67415 0.0
H77 H 0.81189 0.20294 0.58131 0.0
H78 H 0.8237 0.30593 0.7 0.0
H79 H 0.64483 0.2853 0.39579 0.0
H80 H 0.33309 0.27895 0.62357 0.0
H81 H 0.5172 0.31148 0.375 0.0
H82 H 0.23932 0.15521 0.58565 0.0
O83 O 0.73943 0.38436 0.53279 0.0
H84 H 0.7956 0.54954 0.69856 0.0
H85 H 0.92816 0.39574 0.62553 0.0
H86 H 0.02661 0.52473 0.65451 0.0
H87 H 0.96059 0.60254 0.69177 0.0
H88 H 0.69974 0.4214 0.66806 0.0
H89 H 0.92644 0.25407 0.72299 0.0
H90 H 0.97348 0.17631 0.67422 0.0
O91 O 0.80094 0.32668 0.57001 0.0
C92 C 0.62424 0.17888 0.55811 0.0
C93 C 0.89563 0.18477 0.62442 0.0
C94 C 0.90175 0.24268 0.69182 0.0
N95 N 0.81245 0.25809 0.63921 0.0
C96 C 0.8372 0.21462 0.61234 0.0
C97 C 0.84328 0.27167 0.67864 0.0
C98 C 0.92813 0.19908 0.66444 0.0
C99 C 0.45042 0.2972 0.58903 0.0
N100 N 0.48643 0.26945 0.55849 0.0
C101 C 0.36114 0.25668 0.59928 0.0
C102 C 0.30858 0.18723 0.57802 0.0
C103 C 0.34564 0.15932 0.54682 0.0
C104 C 0.43511 0.20147 0.53737 0.0
C105 C 0.48494 0.33221 0.43634 0.0
C106 C 0.62712 0.30308 0.45964 0.0
C107 C 0.50791 0.33513 0.47724 0.0
N108 N 0.57811 0.32043 0.48844 0.0
C109 C 0.60584 0.29927 0.41845 0.0
C110 C 0.53426 0.31398 0.40681 0.0
C111 C 0.80507 0.37003 0.54202 0.0
C112 C 0.82533 0.51598 0.68271 0.0
C113 C 0.89859 0.42898 0.64147 0.0
C114 C 0.95487 0.50214 0.65795 0.0
C115 C 0.91782 0.54575 0.67883 0.0
N116 N 0.80785 0.39958 0.64571 0.0
C117 C 0.77117 0.4427 0.66565 0.0
Co118 Co 0.30282 0.71237 0.50933 0.0
Co119 Co 0.43928 0.74156 0.42865 0.0
O120 O 0.31794 0.70176 0.45051 0.0
C121 C 0.14897 0.56189 0.47915 0.0
O122 O 0.17392 0.56919 0.44142 0.0
C123 C 0.32312 0.7633 0.36431 0.0
O124 O 0.25978 0.75503 0.39009 0.0
O125 O 0.46167 0.84472 0.4526 0.0
O126 O 0.41273 0.81304 0.51478 0.0
H127 H 0.77223 0.9016 0.43643 0.0
H128 H 0.15094 0.69008 0.45281 0.0
O129 O 0.19215 0.61265 0.50729 0.0
H130 H 0.21384 0.92779 0.53621 0.0
H131 H 0.12908 0.69012 0.63702 0.0
H132 H 0.4281 0.75925 0.58062 0.0
H133 H 0.3017 0.85543 0.5469 0.0
H134 H 0.1475 0.68253 0.56308 0.0
O135 O 0.39597 0.76247 0.37606 0.0
H136 H 0.61933 0.84722 0.46255 0.0
H137 H 0.51622 0.72671 0.34835 0.0
H138 H 0.41288 0.76882 0.65478 0.0
H139 H 0.06036 0.75961 0.44173 0.0
H140 H 0.26247 0.73394 0.68342 0.0
H141 H 0.09163 0.87972 0.48349 0.0
O142 O 0.3756 0.65564 0.51776 0.0
H143 H 0.25679 0.48827 0.3524 0.0
H144 H 0.54051 0.64606 0.42774 0.0
H145 H 0.51035 0.516 0.40093 0.0
H146 H 0.36779 0.43618 0.3627 0.0
H147 H 0.28876 0.61794 0.38062 0.0
H148 H 0.6679 0.78031 0.32092 0.0
H149 H 0.79733 0.86811 0.36514 0.0
O150 O 0.49002 0.72123 0.47931 0.0
C151 C 0.45704 0.86265 0.49011 0.0
C152 C 0.71644 0.8632 0.4169 0.0
C153 C 0.65788 0.79516 0.35208 0.0
N154 N 0.55896 0.78315 0.4072 0.0
C155 C 0.62969 0.83208 0.43155 0.0
C156 C 0.57208 0.76509 0.36778 0.0
C157 C 0.73046 0.84442 0.3769 0.0
C158 C 0.16442 0.74137 0.47157 0.0
N159 N 0.23124 0.7678 0.50074 0.0
C160 C 0.11311 0.78096 0.46495 0.0
C161 C 0.13078 0.8484 0.48833 0.0
C162 C 0.19933 0.87539 0.51789 0.0
C163 C 0.2491 0.83418 0.52369 0.0
C164 C 0.19501 0.70569 0.62491 0.0
C165 C 0.36256 0.74463 0.59285 0.0
C166 C 0.20586 0.7013 0.58305 0.0
N167 N 0.28896 0.72096 0.56752 0.0
C168 C 0.3543 0.74991 0.63487 0.0
C169 C 0.26988 0.73027 0.65092 0.0
C170 C 0.45502 0.6736 0.50602 0.0
C171 C 0.31918 0.52248 0.36899 0.0
C172 C 0.47785 0.61154 0.41159 0.0
C173 C 0.46139 0.53799 0.39625 0.0
C174 C 0.38144 0.49327 0.3748 0.0
N175 N 0.4163 0.63979 0.40596 0.0
C176 C 0.33781 0.59618 0.38495 0.0
Co177 Co 0.66144 0.29488 1.01274 0.0
Co178 Co 0.75936 0.40115 0.93288 0.0
O179 O 0.6905 0.30135 0.95479 0.0
C180 C 0.69734 0.15757 0.99014 0.0
O181 O 0.73533 0.18533 0.95643 0.0
C182 C 0.62839 0.30241 0.86485 0.0
O183 O 0.59417 0.24391 0.88706 0.0
O184 O 0.6684 0.43546 0.95303 0.0
O185 O 0.65238 0.39469 1.01521 0.0
H186 H 0.90274 0.68744 0.9412 0.0
H187 H 0.55209 0.16565 0.95403 0.0
O188 O 0.66715 0.19434 1.01408 0.0
H189 H 0.33696 0.24628 1.02077 0.0
H190 H 0.51243 0.16448 0.13696 0.0
H191 H 0.72336 0.40599 0.08456 0.0
H192 H 0.49741 0.31092 0.04013 0.0
H193 H 0.54463 0.17153 0.06413 0.0
O194 O 0.69053 0.36559 0.87916 0.0
H195 H 0.82003 0.56069 0.96696 0.0
H196 H 0.83855 0.45416 0.85305 0.0
H197 H 0.69245 0.40161 0.15755 0.0
H198 H 0.39207 0.09845 0.93417 0.0
H199 H 0.58623 0.28019 0.18419 0.0
H200 H 0.28314 0.13888 0.96751 0.0
O201 O 0.79118 0.3472 0.02696 0.0
H202 H 0.86732 0.21892 0.86256 0.0
H203 H 0.95871 0.47085 0.93603 0.0
H204 H 0.07419 0.43142 0.91176 0.0
H205 H 0.0289 0.30469 0.87451 0.0
H206 H 0.75424 0.26007 0.88785 0.0
H207 H 0.92026 0.57974 0.82589 0.0
H208 H 0.95338 0.69753 0.87017 0.0
O209 O 0.8328 0.4417 0.98512 0.0
C210 C 0.64142 0.43541 0.98912 0.0
C211 C 0.88895 0.63654 0.92165 0.0
C212 C 0.89867 0.57609 0.85692 0.0
N213 N 0.82502 0.50006 0.91167 0.0
C214 C 0.8424 0.5646 0.93611 0.0
C215 C 0.85207 0.50511 0.87243 0.0
C216 C 0.91726 0.64215 0.88178 0.0
C217 C 0.50531 0.18345 0.96883 0.0
N218 N 0.53453 0.24264 0.99803 0.0
C219 C 0.41465 0.14523 0.95738 0.0
C220 C 0.3536 0.16797 0.97607 0.0
C221 C 0.38376 0.22827 1.0059 0.0
C222 C 0.47491 0.26507 1.01656 0.0
C223 C 0.55871 0.21776 0.1257 0.0
C224 C 0.67674 0.35304 0.09587 0.0
C225 C 0.5774 0.22207 0.0845 0.0
N226 N 0.63535 0.28931 0.07002 0.0
C227 C 0.65965 0.35086 0.13726 0.0
C228 C 0.60011 0.2827 0.15219 0.0
C229 C 0.8477 0.41028 1.01508 0.0
C230 C 0.88794 0.27446 0.87855 0.0
C231 C 0.93806 0.41549 0.91994 0.0
C232 C 1.004 0.39357 0.90619 0.0
C233 C 0.97857 0.32252 0.88532 0.0
N234 N 0.84908 0.36822 0.91307 0.0
C235 C 0.82389 0.29836 0.89276 0.0
C236 C 0.36686 0.76857 0.25173 0.0
C237 C 0.28213 0.72078 0.23393 0.0
C238 C 0.37841 0.78623 0.2938 0.0
C239 C 0.30559 0.75819 0.31983 0.0
H240 H 0.426 0.78831 0.23351 0.0
H241 H 0.44579 0.81921 0.30622 0.0
S242 S 0.06775 0.64098 0.28789 0.0
N243 N 0.12257 0.65309 0.24519 0.0
N244 N 0.14416 0.68734 0.32413 0.0
C245 C 0.21944 0.716 0.30211 0.0
C246 C 0.20779 0.69705 0.25924 0.0
C247 C 0.5975 0.22092 0.75532 0.0
C248 C 0.59303 0.27929 0.73404 0.0
C249 C 0.60299 0.22655 0.79796 0.0
C250 C 0.60754 0.29202 0.82068 0.0
H251 H 0.59876 0.17138 0.73884 0.0
H252 H 0.60865 0.1812 0.8131 0.0
S253 S 0.59877 0.46086 0.7795 0.0
N254 N 0.59112 0.40359 0.73898 0.0
N255 N 0.60582 0.41568 0.81882 0.0
C256 C 0.60191 0.3502 0.79977 0.0
C257 C 0.59351 0.34345 0.75652 0.0
C258 C 0.51221 0.52041 0.05429 0.0
C259 C 0.4988 0.57044 0.02932 0.0
C260 C 0.56004 0.47913 0.04128 0.0
C261 C 0.59502 0.48388 1.00212 0.0
H262 H 0.48571 0.51273 0.08445 0.0
H263 H 0.56882 0.44262 0.06235 0.0
S264 S 0.57876 0.60629 0.92422 0.0
N265 N 0.52586 0.62319 0.96327 0.0
N266 N 0.61332 0.5435 0.93833 0.0
C267 C 0.58218 0.53357 0.97658 0.0
C268 C 0.53455 0.57699 0.99019 0.0
C269 C 0.9827 0.50726 0.47634 0.0
C270 C 0.06096 0.50256 0.48891 0.0
C271 C 0.89943 0.46134 0.4921 0.0
C272 C 0.89132 0.40872 0.52092 0.0
H273 H 0.9866 0.54965 0.45592 0.0
H274 H 0.84176 0.46954 0.48273 0.0
S275 S 0.07675 0.36755 0.55828 0.0
N276 N 0.12575 0.43782 0.52856 0.0
N277 N 0.96929 0.34817 0.55661 0.0
C278 C 0.96899 0.39981 0.53114 0.0
C279 C 0.05386 0.44782 0.51568 0.0
C280 C 0.67771 0.058 0.03748 0.0
C281 C 0.67229 0.07734 0.99766 0.0
C282 C 0.63766 0.98184 0.04735 0.0
C283 C 0.58846 0.92287 1.01796 0.0
H284 H 0.71012 0.10239 0.06148 0.0
H285 H 0.64034 0.96965 0.07866 0.0
S286 S 0.55839 0.94295 0.90901 0.0
N287 N 0.61895 0.03102 0.92827 0.0
N288 N 0.5412 0.88809 0.94702 0.0
C289 C 0.58575 0.94115 0.97774 0.0
C290 C 0.6284 0.01842 0.96751 0.0
C291 C 0.5054 0.51735 0.54542 0.0
C292 C 0.59537 0.53936 0.53509 0.0
C293 C 0.46183 0.56353 0.53845 0.0
C294 C 0.50673 0.63369 0.52111 0.0
H295 H 0.4665 0.46196 0.55663 0.0
H296 H 0.39111 0.54188 0.54455 0.0
S297 S 0.74777 0.72374 0.49627 0.0
N298 N 0.73108 0.64015 0.51184 0.0
N299 N 0.65035 0.7278 0.49968 0.0
C300 C 0.59892 0.65918 0.51408 0.0
C301 C 0.64288 0.61179 0.52077 0.0
C302 C 0.09255 0.46451 0.03556 0.0
C303 C 0.11854 0.52932 0.06291 0.0
C304 C 1.00293 0.42328 1.02223 0.0
C305 C 0.93721 0.44705 0.03484 0.0
H306 H 0.14237 0.44717 1.02337 0.0
H307 H 0.98571 0.37467 1.0004 0.0
S308 S 0.97103 0.61339 0.10562 0.0
N309 N 0.07132 0.61443 0.10273 0.0
N310 N 0.90336 0.53864 0.07615 0.0
C311 C 0.96184 0.51078 0.06266 0.0
C312 C 0.05259 0.55156 0.07712 0.0
C313 C 0.55227 0.03791 0.56542 0.0
C314 C 0.58993 0.09874 0.54043 0.0
C315 C 0.51095 0.96208 0.54889 0.0
C316 C 0.50614 0.94361 0.50662 0.0
H317 H 0.552 0.04893 0.59797 0.0
H318 H 0.48141 0.91769 0.56959 0.0
S319 S 0.60213 0.08202 0.42816 0.0
N320 N 0.6252 0.13522 0.47139 0.0
N321 N 0.54784 0.99325 0.44038 0.0
C322 C 0.54665 1.00391 0.4814 0.0
C323 C 0.5883 0.08116 0.49826 0.0
loop_
_geom_bond_atom_site_label_1
_geom_bond_atom_site_label_2
_geom_bond_distance
_geom_bond_site_symmetry_2
_ccdc_geom_bond_type
Co0 O2 2.143 . S
Co0 O8 2.074 . S
Co0 O11 2.093 . S
Co0 O24 2.097 . S
Co0 N41 2.151 . S
Co0 N49 2.214 1_554 S
Co1 O2 2.160 . S
Co1 O7 2.058 . S
Co1 O17 2.057 . S
Co1 O32 2.037 . S
Co1 N36 2.145 . S
Co1 N57 2.257 . S
O2 Co0 2.143 . S
O2 Co1 2.160 . S
C3 O4 1.278 . S
C3 O11 1.224 . S
O4 C3 1.278 . S
C5 O6 1.245 . S
C5 O17 1.232 . S
O6 C5 1.245 . S
O7 Co1 2.058 . S
O7 C33 1.269 . S
O8 Co0 2.074 . S
O8 C33 1.257 . S
H9 C34 0.930 . S
H10 C40 0.930 . S
O11 Co0 2.093 . S
O11 C3 1.224 . S
H12 C44 0.929 1_556 S
H13 C46 0.930 . S
H14 C47 0.930 . S
H15 C45 0.929 1_556 S
H16 C48 0.928 . S
O17 Co1 2.057 . S
O17 C5 1.232 . S
H18 C37 0.929 . S
H19 C38 0.929 . S
H20 C50 0.931 . S
H21 C42 0.929 . S
H22 C51 0.930 . S
H23 C43 0.931 . S
O24 Co0 2.097 . S
O24 C52 1.214 . S
H25 C53 0.929 . S
H26 C54 0.929 . S
H27 C55 0.930 . S
H28 C56 0.929 . S
H29 C58 0.930 . S
H30 C35 0.930 . S
H31 C39 0.930 . S
O32 Co1 2.037 . S
O32 C52 1.234 . S
C33 O7 1.269 . S
C33 O8 1.257 . S
C34 H9 0.930 . S
C34 C37 1.388 . S
C34 C39 1.418 . S
C35 H30 0.930 . S
C35 C38 1.404 . S
C35 C39 1.353 . S
N36 Co1 2.145 . S
N36 C37 1.397 . S
N36 C38 1.334 . S
C37 H18 0.929 . S
C37 C34 1.388 . S
C37 N36 1.397 . S
C38 H19 0.929 . S
C38 C35 1.404 . S
C38 N36 1.334 . S
C39 H31 0.930 . S
C39 C34 1.418 . S
C39 C35 1.353 . S
C40 H10 0.930 . S
C40 N41 1.330 . S
C40 C42 1.446 . S
N41 Co0 2.151 . S
N41 C40 1.330 . S
N41 C45 1.418 . S
C42 H21 0.929 . S
C42 C40 1.446 . S
C42 C43 1.332 . S
C43 H23 0.931 . S
C43 C42 1.332 . S
C43 C44 1.267 . S
C44 H12 0.929 1_554 S
C44 C43 1.267 . S
C44 C45 1.251 . S
C45 H15 0.929 1_554 S
C45 N41 1.418 . S
C45 C44 1.251 . S
C46 H13 0.930 . S
C46 C48 1.406 . S
C46 C51 1.261 . S
C47 H14 0.930 . S
C47 N49 1.325 . S
C47 C50 1.357 . S
C48 H16 0.928 . S
C48 C46 1.406 . S
C48 N49 1.261 . S
N49 Co0 2.214 1_556 S
N49 C47 1.325 . S
N49 C48 1.261 . S
C50 H20 0.931 . S
C50 C47 1.357 . S
C50 C51 1.312 . S
C51 H22 0.930 . S
C51 C46 1.261 . S
C51 C50 1.312 . S
C52 O24 1.214 . S
C52 O32 1.234 . S
C53 H25 0.929 . S
C53 C56 1.391 . S
C53 C58 1.391 . S
C54 H26 0.929 . S
C54 C55 1.390 . S
C54 N57 1.391 . S
C55 H27 0.930 . S
C55 C54 1.390 . S
C55 C56 1.392 . S
C56 H28 0.929 . S
C56 C53 1.391 . S
C56 C55 1.392 . S
N57 Co1 2.257 . S
N57 C54 1.391 . S
N57 C58 1.388 . S
C58 H29 0.930 . S
C58 C53 1.391 . S
C58 N57 1.388 . S
Co59 O61 2.143 . S
Co59 O67 2.074 . S
Co59 O70 2.093 . S
Co59 O83 2.097 . S
Co59 N100 2.151 . S
Co59 N108 2.214 . S
Co60 O61 2.160 . S
Co60 O66 2.058 . S
Co60 O76 2.057 . S
Co60 O91 2.037 . S
Co60 N95 2.145 . S
Co60 N116 2.257 . S
O61 Co59 2.143 . S
O61 Co60 2.160 . S
C62 O63 1.278 . S
C62 O70 1.224 . S
O63 C62 1.278 . S
C64 O65 1.245 . S
C64 O76 1.232 . S
O65 C64 1.245 . S
O66 Co60 2.058 . S
O66 C92 1.269 . S
O67 Co59 2.074 . S
O67 C92 1.257 . S
H68 C93 0.930 . S
H69 C99 0.930 . S
O70 Co59 2.093 . S
O70 C62 1.224 . S
H71 C103 0.929 . S
H72 C105 0.930 . S
H73 C106 0.930 . S
H74 C104 0.929 . S
H75 C107 0.928 . S
O76 Co60 2.057 . S
O76 C64 1.232 . S
H77 C96 0.929 . S
H78 C97 0.929 . S
H79 C109 0.931 . S
H80 C101 0.929 . S
H81 C110 0.930 . S
H82 C102 0.931 . S
O83 Co59 2.097 . S
O83 C111 1.214 . S
H84 C112 0.929 . S
H85 C113 0.929 . S
H86 C114 0.930 . S
H87 C115 0.929 . S
H88 C117 0.930 . S
H89 C94 0.930 . S
H90 C98 0.930 1_455 S
O91 Co60 2.037 . S
O91 C111 1.234 . S
C92 O66 1.269 . S
C92 O67 1.257 . S
C93 H68 0.930 . S
C93 C96 1.388 . S
C93 C98 1.418 . S
C94 H89 0.930 . S
C94 C97 1.404 . S
C94 C98 1.353 . S
N95 Co60 2.145 . S
N95 C96 1.397 . S
N95 C97 1.334 . S
C96 H77 0.929 . S
C96 C93 1.388 . S
C96 N95 1.397 . S
C97 H78 0.929 . S
C97 C94 1.404 . S
C97 N95 1.334 . S
C98 H90 0.930 1_655 S
C98 C93 1.418 . S
C98 C94 1.353 . S
C99 H69 0.930 . S
C99 N100 1.330 . S
C99 C101 1.446 . S
N100 Co59 2.151 . S
N100 C99 1.330 . S
N100 C104 1.418 . S
C101 H80 0.929 . S
C101 C99 1.446 . S
C101 C102 1.332 . S
C102 H82 0.931 . S
C102 C101 1.332 . S
C102 C103 1.267 . S
C103 H71 0.929 . S
C103 C102 1.267 . S
C103 C104 1.251 . S
C104 H74 0.929 . S
C104 N100 1.418 . S
C104 C103 1.251 . S
C105 H72 0.930 . S
C105 C107 1.406 . S
C105 C110 1.261 . S
C106 H73 0.930 . S
C106 N108 1.325 . S
C106 C109 1.357 . S
C107 H75 0.928 . S
C107 C105 1.406 . S
C107 N108 1.261 . S
N108 Co59 2.214 . S
N108 C106 1.325 . S
N108 C107 1.261 . S
C109 H79 0.931 . S
C109 C106 1.357 . S
C109 C110 1.312 . S
C110 H81 0.930 . S
C110 C105 1.261 . S
C110 C109 1.312 . S
C111 O83 1.214 . S
C111 O91 1.234 . S
C112 H84 0.929 . S
C112 C115 1.391 . S
C112 C117 1.391 . S
C113 H85 0.929 . S
C113 C114 1.390 . S
C113 N116 1.391 . S
C114 H86 0.930 . S
C114 C113 1.390 . S
C114 C115 1.392 . S
C115 H87 0.929 . S
C115 C112 1.391 . S
C115 C114 1.392 . S
N116 Co60 2.257 . S
N116 C113 1.391 . S
N116 C117 1.388 . S
C117 H88 0.930 . S
C117 C112 1.391 . S
C117 N116 1.388 . S
Co118 O120 2.143 . S
Co118 O126 2.074 . S
Co118 O129 2.093 . S
Co118 O142 2.097 . S
Co118 N159 2.151 . S
Co118 N167 2.214 . S
Co119 O120 2.160 . S
Co119 O125 2.058 . S
Co119 O135 2.057 . S
Co119 O150 2.037 . S
Co119 N154 2.145 . S
Co119 N175 2.257 . S
O120 Co118 2.143 . S
O120 Co119 2.160 . S
C121 O122 1.278 . S
C121 O129 1.224 . S
O122 C121 1.278 . S
C123 O124 1.245 . S
C123 O135 1.232 . S
O124 C123 1.245 . S
O125 Co119 2.058 . S
O125 C151 1.269 . S
O126 Co118 2.074 . S
O126 C151 1.257 . S
H127 C152 0.930 . S
H128 C158 0.930 . S
O129 Co118 2.093 . S
O129 C121 1.224 . S
H130 C162 0.929 . S
H131 C164 0.930 . S
H132 C165 0.930 . S
H133 C163 0.929 . S
H134 C166 0.928 . S
O135 Co119 2.057 . S
O135 C123 1.232 . S
H136 C155 0.929 . S
H137 C156 0.929 . S
H138 C168 0.931 . S
H139 C160 0.929 . S
H140 C169 0.930 . S
H141 C161 0.931 . S
O142 Co118 2.097 . S
O142 C170 1.214 . S
H143 C171 0.929 . S
H144 C172 0.929 . S
H145 C173 0.930 . S
H146 C174 0.929 . S
H147 C176 0.930 . S
H148 C153 0.930 . S
H149 C157 0.930 . S
O150 Co119 2.037 . S
O150 C170 1.234 . S
C151 O125 1.269 . S
C151 O126 1.257 . S
C152 H127 0.930 . S
C152 C155 1.388 . S
C152 C157 1.418 . S
C153 H148 0.930 . S
C153 C156 1.404 . S
C153 C157 1.353 . S
N154 Co119 2.145 . S
N154 C155 1.397 . S
N154 C156 1.334 . S
C155 H136 0.929 . S
C155 C152 1.388 . S
C155 N154 1.397 . S
C156 H137 0.929 . S
C156 C153 1.404 . S
C156 N154 1.334 . S
C157 H149 0.930 . S
C157 C152 1.418 . S
C157 C153 1.353 . S
C158 H128 0.930 . S
C158 N159 1.330 . S
C158 C160 1.446 . S
N159 Co118 2.151 . S
N159 C158 1.330 . S
N159 C163 1.418 . S
C160 H139 0.929 . S
C160 C158 1.446 . S
C160 C161 1.332 . S
C161 H141 0.931 . S
C161 C160 1.332 . S
C161 C162 1.267 . S
C162 H130 0.929 . S
C162 C161 1.267 . S
C162 C163 1.251 . S
C163 H133 0.929 . S
C163 N159 1.418 . S
C163 C162 1.251 . S
C164 H131 0.930 . S
C164 C166 1.406 . S
C164 C169 1.261 . S
C165 H132 0.930 . S
C165 N167 1.325 . S
C165 C168 1.357 . S
C166 H134 0.928 . S
C166 C164 1.406 . S
C166 N167 1.261 . S
N167 Co118 2.214 . S
N167 C165 1.325 . S
N167 C166 1.261 . S
C168 H138 0.931 . S
C168 C165 1.357 . S
C168 C169 1.312 . S
C169 H140 0.930 . S
C169 C164 1.261 . S
C169 C168 1.312 . S
C170 O142 1.214 . S
C170 O150 1.234 . S
C171 H143 0.929 . S
C171 C174 1.391 . S
C171 C176 1.391 . S
C172 H144 0.929 . S
C172 C173 1.390 . S
C172 N175 1.391 . S
C173 H145 0.930 . S
C173 C172 1.390 . S
C173 C174 1.392 . S
C174 H146 0.929 . S
C174 C171 1.391 . S
C174 C173 1.392 . S
N175 Co119 2.257 . S
N175 C172 1.391 . S
N175 C176 1.388 . S
C176 H147 0.930 . S
C176 C171 1.391 . S
C176 N175 1.388 . S
Co177 O179 2.143 . S
Co177 O185 2.074 . S
Co177 O188 2.093 . S
Co177 O201 2.097 . S
Co177 N218 2.151 . S
Co177 N226 2.214 1_556 S
Co178 O179 2.160 . S
Co178 O184 2.058 . S
Co178 O194 2.057 . S
Co178 O209 2.037 . S
Co178 N213 2.145 . S
Co178 N234 2.257 . S
O179 Co177 2.143 . S
O179 Co178 2.160 . S
C180 O181 1.278 . S
C180 O188 1.224 . S
O181 C180 1.278 . S
C182 O183 1.245 . S
C182 O194 1.232 . S
O183 C182 1.245 . S
O184 Co178 2.058 . S
O184 C210 1.269 . S
O185 Co177 2.074 . S
O185 C210 1.257 . S
H186 C211 0.930 . S
H187 C217 0.930 . S
O188 Co177 2.093 . S
O188 C180 1.224 . S
H189 C221 0.929 1_554 S
H190 C223 0.930 . S
H191 C224 0.930 . S
H192 C222 0.929 1_554 S
H193 C225 0.928 . S
O194 Co178 2.057 . S
O194 C182 1.232 . S
H195 C214 0.929 . S
H196 C215 0.929 . S
H197 C227 0.931 . S
H198 C219 0.929 . S
H199 C228 0.930 . S
H200 C220 0.931 . S
O201 Co177 2.097 . S
O201 C229 1.214 . S
H202 C230 0.929 . S
H203 C231 0.929 . S
H204 C232 0.930 1_455 S
H205 C233 0.929 . S
H206 C235 0.930 . S
H207 C212 0.930 . S
H208 C216 0.930 . S
O209 Co178 2.037 . S
O209 C229 1.234 . S
C210 O184 1.269 . S
C210 O185 1.257 . S
C211 H186 0.930 . S
C211 C214 1.388 . S
C211 C216 1.418 . S
C212 H207 0.930 . S
C212 C215 1.404 . S
C212 C216 1.353 . S
N213 Co178 2.145 . S
N213 C214 1.397 . S
N213 C215 1.334 . S
C214 H195 0.929 . S
C214 C211 1.388 . S
C214 N213 1.397 . S
C215 H196 0.929 . S
C215 C212 1.404 . S
C215 N213 1.334 . S
C216 H208 0.930 . S
C216 C211 1.418 . S
C216 C212 1.353 . S
C217 H187 0.930 . S
C217 N218 1.330 . S
C217 C219 1.446 . S
N218 Co177 2.151 . S
N218 C217 1.330 . S
N218 C222 1.418 . S
C219 H198 0.929 . S
C219 C217 1.446 . S
C219 C220 1.332 . S
C220 H200 0.931 . S
C220 C219 1.332 . S
C220 C221 1.267 . S
C221 H189 0.929 1_556 S
C221 C220 1.267 . S
C221 C222 1.251 . S
C222 H192 0.929 1_556 S
C222 N218 1.418 . S
C222 C221 1.251 . S
C223 H190 0.930 . S
C223 C225 1.406 . S
C223 C228 1.261 . S
C224 H191 0.930 . S
C224 N226 1.325 . S
C224 C227 1.357 . S
C225 H193 0.928 . S
C225 C223 1.406 . S
C225 N226 1.261 . S
N226 Co177 2.214 1_554 S
N226 C224 1.325 . S
N226 C225 1.261 . S
C227 H197 0.931 . S
C227 C224 1.357 . S
C227 C228 1.312 . S
C228 H199 0.930 . S
C228 C223 1.261 . S
C228 C227 1.312 . S
C229 O201 1.214 . S
C229 O209 1.234 . S
C230 H202 0.929 . S
C230 C233 1.391 . S
C230 C235 1.391 . S
C231 H203 0.929 . S
C231 C232 1.390 . S
C231 N234 1.391 . S
C232 H204 0.930 1_655 S
C232 C231 1.390 . S
C232 C233 1.392 . S
C233 H205 0.929 . S
C233 C230 1.391 . S
C233 C232 1.392 . S
N234 Co178 2.257 . S
N234 C231 1.391 . S
N234 C235 1.388 . S
C235 H206 0.930 . S
C235 C230 1.391 . S
C235 N234 1.388 . S
C236 C237 1.369 . S
C236 C238 1.419 . S
C236 H240 0.930 . S
C237 C236 1.369 . S
C237 C246 1.429 . S
C238 C236 1.419 . S
C238 C239 1.363 . S
C238 H241 0.929 . S
C239 C238 1.363 . S
C239 C245 1.428 . S
H240 C236 0.930 . S
H241 C238 0.929 . S
S242 N243 1.613 . S
S242 N244 1.610 . S
N243 S242 1.613 . S
N243 C246 1.350 . S
N244 S242 1.610 . S
N244 C245 1.351 . S
C245 C239 1.428 . S
C245 N244 1.351 . S
C245 C246 1.434 . S
C246 C237 1.429 . S
C246 N243 1.350 . S
C246 C245 1.434 . S
C247 C248 1.369 . S
C247 C249 1.419 . S
C247 H251 0.930 . S
C248 C247 1.369 . S
C248 C257 1.429 . S
C249 C247 1.419 . S
C249 C250 1.363 . S
C249 H252 0.929 . S
C250 C249 1.363 . S
C250 C256 1.428 . S
H251 C247 0.930 . S
H252 C249 0.929 . S
S253 N254 1.613 . S
S253 N255 1.610 . S
N254 S253 1.613 . S
N254 C257 1.350 . S
N255 S253 1.610 . S
N255 C256 1.351 . S
C256 C250 1.428 . S
C256 N255 1.351 . S
C256 C257 1.434 . S
C257 C248 1.429 . S
C257 N254 1.350 . S
C257 C256 1.434 . S
C258 C259 1.369 . S
C258 C260 1.419 . S
C258 H262 0.930 . S
C259 C258 1.369 . S
C259 C268 1.429 . S
C260 C258 1.419 . S
C260 C261 1.363 . S
C260 H263 0.929 . S
C261 C260 1.363 . S
C261 C267 1.428 . S
H262 C258 0.930 . S
H263 C260 0.929 . S
S264 N265 1.613 . S
S264 N266 1.610 1_554 S
N265 S264 1.613 . S
N265 C268 1.350 1_554 S
N266 S264 1.610 1_556 S
N266 C267 1.351 . S
C267 C261 1.428 . S
C267 N266 1.351 . S
C267 C268 1.434 . S
C268 C259 1.429 . S
C268 N265 1.350 1_556 S
C268 C267 1.434 . S
C269 C270 1.369 1_655 S
C269 C271 1.419 . S
C269 H273 0.930 . S
C270 C269 1.369 1_455 S
C270 C279 1.429 . S
C271 C269 1.419 . S
C271 C272 1.363 . S
C271 H274 0.929 . S
C272 C271 1.363 . S
C272 C278 1.428 . S
H273 C269 0.930 . S
H274 C271 0.929 . S
S275 N276 1.613 . S
S275 N277 1.610 1_455 S
N276 S275 1.613 . S
N276 C279 1.350 . S
N277 S275 1.610 1_655 S
N277 C278 1.351 . S
C278 C272 1.428 . S
C278 N277 1.351 . S
C278 C279 1.434 1_655 S
C279 C270 1.429 . S
C279 N276 1.350 . S
C279 C278 1.434 1_455 S
C280 C281 1.369 1_554 S
C280 C282 1.419 1_545 S
C280 H284 0.930 . S
C281 C280 1.369 1_556 S
C281 C290 1.429 . S
C282 C280 1.419 1_565 S
C282 C283 1.363 . S
C282 H285 0.929 . S
C283 C282 1.363 . S
C283 C289 1.428 1_554 S
H284 C280 0.930 . S
H285 C282 0.929 . S
S286 N287 1.613 . S
S286 N288 1.610 . S
N287 S286 1.613 . S
N287 C290 1.350 1_565 S
N288 S286 1.610 . S
N288 C289 1.351 . S
C289 C283 1.428 1_556 S
C289 N288 1.351 . S
C289 C290 1.434 1_565 S
C290 C281 1.429 . S
C290 N287 1.350 1_545 S
C290 C289 1.434 1_545 S
C291 C292 1.369 . S
C291 C293 1.419 . S
C291 H295 0.930 . S
C292 C291 1.369 . S
C292 C301 1.429 . S
C293 C291 1.419 . S
C293 C294 1.363 . S
C293 H296 0.929 . S
C294 C293 1.363 . S
C294 C300 1.428 . S
H295 C291 0.930 . S
H296 C293 0.929 . S
S297 N298 1.613 . S
S297 N299 1.610 . S
N298 S297 1.613 . S
N298 C301 1.350 . S
N299 S297 1.610 . S
N299 C300 1.351 . S
C300 C294 1.428 . S
C300 N299 1.351 . S
C300 C301 1.434 . S
C301 C292 1.429 . S
C301 N298 1.350 . S
C301 C300 1.434 . S
C302 C303 1.369 . S
C302 C304 1.419 1_455 S
C302 H306 0.930 . S
C303 C302 1.369 . S
C303 C312 1.429 . S
C304 C302 1.419 1_655 S
C304 C305 1.363 . S
C304 H307 0.929 . S
C305 C304 1.363 . S
C305 C311 1.428 . S
H306 C302 0.930 . S
H307 C304 0.929 . S
S308 N309 1.613 1_655 S
S308 N310 1.610 . S
N309 S308 1.613 1_455 S
N309 C312 1.350 . S
N310 S308 1.610 . S
N310 C311 1.351 . S
C311 C305 1.428 . S
C311 N310 1.351 . S
C311 C312 1.434 1_655 S
C312 C303 1.429 . S
C312 N309 1.350 . S
C312 C311 1.434 1_455 S
C313 C314 1.369 . S
C313 C315 1.419 1_545 S
C313 H317 0.930 . S
C314 C313 1.369 . S
C314 C323 1.429 . S
C315 C313 1.419 1_565 S
C315 C316 1.363 . S
C315 H318 0.929 . S
C316 C315 1.363 . S
C316 C322 1.428 . S
H317 C313 0.930 . S
H318 C315 0.929 . S
S319 N320 1.613 . S
S319 N321 1.610 1_545 S
N320 S319 1.613 . S
N320 C323 1.350 . S
N321 S319 1.610 1_565 S
N321 C322 1.351 . S
C322 C316 1.428 . S
C322 N321 1.351 . S
C322 C323 1.434 1_565 S
C323 C314 1.429 . S
C323 N320 1.350 . S
C323 C322 1.434 1_545 S
C237 C5 1.615 . S
C239 C123 1.616 . S
C248 C64 1.616 . S
C250 C182 1.613 . S
C259 C52 1.707 1_556 S
C261 C210 1.723 . S
C270 C121 1.533 . S
C272 C111 1.520 . S
C281 C180 1.417 . S
C283 C3 1.410 . S
C292 C62 1.533 . S
C294 C170 1.521 . S
C303 C33 1.722 . S
C305 C229 1.710 1_554 S
C314 C92 1.896 . S
C316 C151 1.898 . S
