# Generated by pormake.
# Topology qtz-x, (6)-cn, num edge types: 1
# Building blocks:
#     Node 0, Type 0, BuildingBlock: KUMBUR_clean_sbu_0, # of connection points: 6
#     Node 1, Type 0, BuildingBlock: KUMBUR_clean_sbu_0, # of connection points: 6
#     Node 2, Type 0, BuildingBlock: KUMBUR_clean_sbu_0, # of connection points: 6
#     Edge 3, Type (0, 0), BuildingBlock: FUNLAD_clean_linker_1, # of connection points: 2
#     Edge 4, Type (0, 0), BuildingBlock: FUNLAD_clean_linker_1, # of connection points: 2
#     Edge 5, Type (0, 0), BuildingBlock: FUNLAD_clean_linker_1, # of connection points: 2
#     Edge 6, Type (0, 0), BuildingBlock: FUNLAD_clean_linker_1, # of connection points: 2
#     Edge 7, Type (0, 0), BuildingBlock: FUNLAD_clean_linker_1, # of connection points: 2
#     Edge 8, Type (0, 0), BuildingBlock: FUNLAD_clean_linker_1, # of connection points: 2
#     Edge 9, Type (0, 0), BuildingBlock: FUNLAD_clean_linker_1, # of connection points: 2
#     Edge 10, Type (0, 0), BuildingBlock: FUNLAD_clean_linker_1, # of connection points: 2
#     Edge 11, Type (0, 0), BuildingBlock: FUNLAD_clean_linker_1, # of connection points: 2
# Relax obj value: 0.165
# Max RMSD: 0.279
# Mean RMSD: 0.279
data_MOF--net-qtz-x--node1-KUMBUR_clean_sbu_0--edge1-FUNLAD_clean_linker_1
_symmetry_space_group_name_H-M    P1
_symmetry_Int_Tables_number       1
_symmetry_cell_setting            triclinic
loop_
_symmetry_equiv_pos_as_xyz
'x, y, z'
_cell_length_a     15.576228
_cell_length_b     15.653774
_cell_length_c     52.827875
_cell_angle_alpha  90.000325
_cell_angle_beta   89.63305
_cell_angle_gamma 120.27184
loop_
_atom_site_label
_atom_site_type_symbol
_atom_site_fract_x
_atom_site_fract_y
_atom_site_fract_z
_atom_type_partial_charge
Tb0 Tb 0.22884 0.47442 0.19796 0.0
C1 C 0.82578 0.40143 0.15982 0.0
C2 C 0.70325 0.25344 0.18164 0.0
C3 C 0.65497 0.36534 0.16349 0.0
C4 C 0.80172 0.31631 0.17309 0.0
C5 C 0.75265 0.42686 0.15471 0.0
C6 C 0.63057 0.27945 0.17721 0.0
C7 C 0.87483 0.56502 0.12995 0.0
N8 N 0.91917 0.45536 0.15028 0.0
C9 C 0.94366 0.53476 0.13481 0.0
C10 C 0.77884 0.51095 0.14 0.0
Tb11 Tb 0.02335 0.39394 0.15652 0.0
N12 N 0.87239 0.29047 0.17549 0.0
C13 C 0.84706 0.19933 0.18505 0.0
C14 C 0.67921 0.16328 0.19293 0.0
C15 C 0.75123 0.13564 0.19435 0.0
H16 H 0.01694 0.57559 0.12642 0.0
H17 H 0.7327 0.06467 0.20236 0.0
H18 H 0.55445 0.23177 0.18345 0.0
H19 H 0.89544 0.62911 0.11814 0.0
H20 H 0.90031 0.17472 0.18578 0.0
H21 H 0.50874 0.82061 0.15316 0.0
H22 H 0.60452 0.11299 0.19975 0.0
H23 H 0.25684 0.3081 0.22985 0.0
H24 H 0.3437 0.70252 0.16713 0.0
H25 H 0.3882 0.26768 0.23719 0.0
H26 H 0.5971 0.38201 0.15918 0.0
H27 H 0.64418 0.78326 0.15573 0.0
H28 H 0.7034 0.67105 0.17023 0.0
H29 H 0.72495 0.53325 0.13578 0.0
H30 H 0.67189 0.52304 0.19371 0.0
N31 N 0.37798 0.59097 0.1791 0.0
C32 C 0.3987 0.68116 0.16937 0.0
C33 C 0.5703 0.72902 0.16228 0.0
C34 C 0.55119 0.6395 0.17291 0.0
C35 C 0.4942 0.75053 0.16095 0.0
C36 C 0.45358 0.57128 0.1814 0.0
H37 H 0.5545 0.37079 0.21792 0.0
N38 N 0.34411 0.42714 0.20439 0.0
C39 C 0.40247 0.32895 0.22494 0.0
C40 C 0.43584 0.48652 0.19427 0.0
C41 C 0.32792 0.35171 0.22053 0.0
C42 C 0.49605 0.38709 0.21396 0.0
C43 C 0.51454 0.46843 0.19899 0.0
O44 O 0.18932 0.53913 0.22749 0.0
O45 O 0.06984 0.40699 0.19535 0.0
O46 O 0.03757 0.5226 0.17672 0.0
O47 O 0.20494 0.59573 0.1871 0.0
O48 O 0.1236 0.34164 0.21882 0.0
O49 O 0.32057 0.52987 0.23026 0.0
O50 O 0.01304 0.4017 0.11683 0.0
O51 O 0.18209 0.44955 0.15886 0.0
O52 O 0.20426 0.33263 0.18279 0.0
O53 O 0.05096 0.27093 0.16254 0.0
O54 O 0.13853 0.51823 0.1348 0.0
O55 O 0.95569 0.26163 0.13585 0.0
C56 C 0.04342 0.33873 0.21152 0.0
C57 C 0.24144 0.52843 0.26877 0.0
C58 C 0.28102 0.57471 0.31316 0.0
C59 C 0.302 0.59639 0.28723 0.0
C60 C 0.1983 0.48365 0.32044 0.0
C61 C 0.16071 0.43744 0.27654 0.0
C62 C 0.13884 0.4156 0.30216 0.0
C63 C 0.1233 0.60005 0.18344 0.0
C64 C 0.26321 0.55515 0.24173 0.0
C65 C 0.61035 0.53476 0.18987 0.0
C66 C 0.6284 0.61942 0.17662 0.0
C67 C 0.21466 0.51164 0.14098 0.0
C68 C 0.86963 0.2659 0.09953 0.0
C69 C 0.8759 0.2822 0.07323 0.0
C70 C 0.78895 0.24808 0.05882 0.0
C71 C 0.69592 0.19795 0.07095 0.0
C72 C 0.77552 0.21267 0.11115 0.0
C73 C 0.68935 0.17933 0.09692 0.0
C74 C 0.12553 0.2614 0.17101 0.0
C75 C 0.96158 0.30599 0.11451 0.0
H76 H 0.36554 0.66634 0.28141 0.0
H77 H 0.18107 0.46307 0.34016 0.0
H78 H 0.11431 0.38299 0.263 0.0
H79 H 0.07595 0.34525 0.30788 0.0
H80 H 0.94824 0.32374 0.06417 0.0
H81 H 0.6282 0.17237 0.06024 0.0
H82 H 0.76821 0.19683 0.1312 0.0
H83 H 0.61723 0.13935 0.10608 0.0
Tb84 Tb 0.6494 0.93367 0.52615 0.0
C85 C 0.949 0.35265 0.49123 0.0
C86 C 0.91985 0.45672 0.51968 0.0
C87 C 0.08366 0.5182 0.50087 0.0
C88 C 0.88586 0.36596 0.50706 0.0
C89 C 0.04805 0.42923 0.4875 0.0
C90 C 0.01975 0.53185 0.517 0.0
C91 C 0.06533 0.32877 0.45541 0.0
N92 N 0.91108 0.26657 0.4782 0.0
C93 C 0.96612 0.25555 0.45952 0.0
C94 C 0.10695 0.41549 0.4697 0.0
Tb95 Tb 0.74746 0.15208 0.48593 0.0
N96 N 0.7891 0.29305 0.50835 0.0
C97 C 0.72091 0.3091 0.52063 0.0
C98 C 0.85137 0.47087 0.53362 0.0
C99 C 0.7512 0.39732 0.53376 0.0
H100 H 0.93415 0.18886 0.44832 0.0
H101 H 0.69709 0.40877 0.54381 0.0
H102 H 0.04743 0.60193 0.52663 0.0
H103 H 0.10945 0.31857 0.44112 0.0
H104 H 0.64307 0.25342 0.52077 0.0
H105 H 0.74039 0.68609 0.47715 0.0
H106 H 0.87439 0.53951 0.54359 0.0
H107 H 0.44809 0.8906 0.55797 0.0
H108 H 0.77023 0.84692 0.49141 0.0
H109 H 0.27897 0.75052 0.56599 0.0
H110 H 0.15953 0.57795 0.49827 0.0
H111 H 0.57544 0.5369 0.48319 0.0
H112 H 0.3979 0.46199 0.49772 0.0
H113 H 0.18352 0.47247 0.46631 0.0
H114 H 0.27061 0.48041 0.52088 0.0
N115 N 0.62279 0.79246 0.50576 0.0
C116 C 0.69706 0.78398 0.49415 0.0
C117 C 0.58735 0.60818 0.48925 0.0
C118 C 0.51061 0.61717 0.50036 0.0
C119 C 0.68068 0.69211 0.48593 0.0
C120 C 0.53133 0.71121 0.50881 0.0
H121 H 0.22608 0.58752 0.54674 0.0
N122 N 0.48833 0.81004 0.5328 0.0
C123 C 0.32928 0.74116 0.55363 0.0
C124 C 0.46116 0.72069 0.52255 0.0
C125 C 0.42511 0.82041 0.54899 0.0
C126 C 0.29956 0.6494 0.54265 0.0
C127 C 0.36639 0.63767 0.52729 0.0
O128 O 0.64265 0.92391 0.56597 0.0
O129 O 0.728 0.09314 0.5238 0.0
O130 O 0.87601 0.15115 0.50112 0.0
O131 O 0.80513 0.9865 0.5145 0.0
O132 O 0.62504 0.0289 0.55184 0.0
O133 O 0.73438 0.88267 0.54464 0.0
O134 O 0.73859 0.15586 0.44627 0.0
O135 O 0.66856 0.9941 0.48904 0.0
O136 O 0.52241 0.93201 0.50847 0.0
O137 O 0.59171 0.09972 0.49786 0.0
O138 O 0.75526 0.05078 0.45813 0.0
O139 O 0.6843 0.23094 0.46981 0.0
C140 C 0.69241 0.11281 0.5429 0.0
C141 C 0.66312 0.79662 0.58306 0.0
C142 C 0.63961 0.72406 0.62527 0.0
C143 C 0.67658 0.80753 0.6094 0.0
C144 C 0.58957 0.62914 0.61441 0.0
C145 C 0.61412 0.70132 0.57262 0.0
C146 C 0.57718 0.61817 0.58825 0.0
C147 C 0.88253 0.07374 0.50809 0.0
C148 C 0.69943 0.88528 0.56695 0.0
C149 C 0.34308 0.54502 0.51753 0.0
C150 C 0.41548 0.53457 0.50431 0.0
C151 C 0.69224 0.96875 0.4689 0.0
C152 C 0.76167 0.30586 0.43048 0.0
C153 C 0.75555 0.29486 0.40401 0.0
C154 C 0.8173 0.37457 0.38801 0.0
C155 C 0.88415 0.46654 0.39873 0.0
C156 C 0.82722 0.39906 0.4408 0.0
C157 C 0.88817 0.47876 0.42498 0.0
C158 C 0.51436 0.0101 0.50274 0.0
C159 C 0.70597 0.21762 0.44679 0.0
H160 H 0.71524 0.8809 0.61759 0.0
H161 H 0.56269 0.56336 0.62599 0.0
H162 H 0.60511 0.69089 0.55245 0.0
H163 H 0.53981 0.54495 0.58001 0.0
H164 H 0.70519 0.22337 0.39594 0.0
H165 H 0.932 0.52926 0.38679 0.0
H166 H 0.83233 0.41026 0.46103 0.0
H167 H 0.93914 0.55008 0.43312 0.0
Tb168 Tb 0.70473 0.58918 0.8666 0.0
C169 C 0.80066 0.2731 0.82812 0.0
C170 C 0.93858 0.28894 0.85301 0.0
C171 C 0.83659 0.13865 0.82934 0.0
C172 C 0.88176 0.3296 0.84374 0.0
C173 C 0.77821 0.17731 0.82065 0.0
C174 C 0.91515 0.19335 0.84586 0.0
C175 C 0.64917 0.16821 0.79382 0.0
N176 N 0.74831 0.31403 0.81882 0.0
C177 C 0.6757 0.26414 0.80103 0.0
C178 C 0.70041 0.12443 0.80372 0.0
Tb179 Tb 0.8149 0.47889 0.82772 0.0
N180 N 0.90813 0.42522 0.84878 0.0
C181 C 0.99054 0.4828 0.86323 0.0
C182 C 0.02011 0.34676 0.86842 0.0
C183 C 0.04598 0.4439 0.87355 0.0
H184 H 0.63751 0.29863 0.79258 0.0
H185 H 0.10983 0.48964 0.88523 0.0
H186 H 0.95903 0.16188 0.85249 0.0
H187 H 0.59058 0.1289 0.7802 0.0
H188 H 0.0145 0.55845 0.86773 0.0
H189 H 0.45907 0.64436 0.80605 0.0
H190 H 0.06479 0.31775 0.87603 0.0
H191 H 0.87172 0.73723 0.90885 0.0
H192 H 0.52885 0.55068 0.8257 0.0
H193 H 0.93453 0.90413 0.92576 0.0
H194 H 0.82228 0.06669 0.82315 0.0
H195 H 0.52336 0.81921 0.81767 0.0
H196 H 0.6329 0.96158 0.84587 0.0
H197 H 0.68095 0.05065 0.79772 0.0
H198 H 0.76078 0.03145 0.87892 0.0
N199 N 0.64148 0.67399 0.84578 0.0
C200 C 0.56178 0.62826 0.82995 0.0
C201 C 0.55707 0.77934 0.8256 0.0
C202 C 0.63353 0.82375 0.84328 0.0
C203 C 0.52062 0.68078 0.81902 0.0
C204 C 0.67561 0.7689 0.85282 0.0
H205 H 0.87614 0.01207 0.90816 0.0
N206 N 0.78113 0.75014 0.88066 0.0
C207 C 0.88226 0.87829 0.91029 0.0
C208 C 0.74735 0.80813 0.87117 0.0
C209 C 0.84618 0.78323 0.90054 0.0
C210 C 0.84929 0.93905 0.90029 0.0
C211 C 0.77967 0.90361 0.88079 0.0
O212 O 0.66335 0.55335 0.90502 0.0
O213 O 0.76505 0.49198 0.86423 0.0
O214 O 0.66346 0.36214 0.83917 0.0
O215 O 0.58972 0.45659 0.84753 0.0
O216 O 0.78887 0.5681 0.89672 0.0
O217 O 0.55604 0.53646 0.87749 0.0
O218 O 0.79888 0.46203 0.78831 0.0
O219 O 0.72066 0.54569 0.8287 0.0
O220 O 0.85418 0.70677 0.85486 0.0
O221 O 0.9308 0.61439 0.84492 0.0
O222 O 0.83455 0.60148 0.80381 0.0
O223 O 0.94199 0.51203 0.80648 0.0
C224 C 0.80493 0.50495 0.88548 0.0
C225 C 0.53816 0.58531 0.91877 0.0
C226 C 0.49652 0.61102 0.96179 0.0
C227 C 0.5306 0.56481 0.94491 0.0
C228 C 0.47235 0.6802 0.95217 0.0
C229 C 0.51235 0.65363 0.90963 0.0
C230 C 0.48006 0.70088 0.92629 0.0
C231 C 0.58408 0.37049 0.84369 0.0
C232 C 0.57357 0.53534 0.90143 0.0
C233 C 0.7383 0.95875 0.87144 0.0
C234 C 0.66548 0.91897 0.85264 0.0
C235 C 0.7586 0.60651 0.81072 0.0
C236 C 0.9089 0.42 0.76819 0.0
C237 C 0.87499 0.40766 0.74312 0.0
C238 C 0.89578 0.35229 0.72585 0.0
C239 C 0.9494 0.30732 0.73398 0.0
C240 C 0.96238 0.37443 0.77601 0.0
C241 C 0.9819 0.31799 0.75897 0.0
C242 C 0.93377 0.69828 0.85049 0.0
C243 C 0.89139 0.48428 0.7853 0.0
H244 H 0.55056 0.51225 0.95208 0.0
H245 H 0.44939 0.72017 0.96456 0.0
H246 H 0.51729 0.67093 0.88966 0.0
H247 H 0.46138 0.75422 0.91911 0.0
H248 H 0.83475 0.44344 0.73685 0.0
H249 H 0.96478 0.2627 0.72111 0.0
H250 H 0.98979 0.38285 0.79515 0.0
H251 H 0.02274 0.28275 0.76514 0.0
H252 H 0.20933 0.7609 0.18843 0.0
C253 C 0.13481 0.69931 0.185 0.0
H254 H 0.98529 0.65936 0.17826 0.0
H255 H 0.117 0.09015 0.22696 0.0
H256 H 0.05378 0.99119 0.2652 0.0
H257 H 0.00367 0.81436 0.26525 0.0
H258 H 0.01574 0.73517 0.22694 0.0
C259 C 0.0611 0.71845 0.18131 0.0
C260 C 0.08402 0.82299 0.18078 0.0
C261 C 0.07597 0.86802 0.20321 0.0
C262 C 0.1055 0.97016 0.20318 0.0
C263 C 0.09634 0.01308 0.2259 0.0
C264 C 0.06006 0.95708 0.248 0.0
C265 C 0.03179 0.85751 0.24803 0.0
C266 C 0.03929 0.81303 0.22594 0.0
H267 H 0.04973 0.10745 0.15777 0.0
C268 C 0.11307 0.16181 0.16856 0.0
H269 H 0.23041 0.18396 0.1925 0.0
H270 H 0.10652 0.75867 0.13444 0.0
H271 H 0.17444 0.85816 0.09642 0.0
H272 H 0.23059 0.03642 0.09664 0.0
H273 H 0.21849 0.11598 0.1348 0.0
C274 C 0.16981 0.13293 0.1806 0.0
C275 C 0.14255 0.02694 0.18064 0.0
C276 C 0.15129 0.98192 0.15822 0.0
C277 C 0.12099 0.87962 0.15824 0.0
C278 C 0.12948 0.83627 0.13554 0.0
C279 C 0.16824 0.89252 0.11358 0.0
C280 C 0.19967 0.99282 0.11369 0.0
C281 C 0.1917 0.03745 0.1357 0.0
H282 H 0.35595 0.92987 0.51318 0.0
C283 C 0.41385 0.99659 0.50403 0.0
H284 H 0.44976 0.13119 0.48624 0.0
H285 H 0.94924 0.85636 0.49275 0.0
H286 H 0.96318 0.73523 0.46735 0.0
H287 H 0.12746 0.76018 0.45523 0.0
H288 H 0.27859 0.90605 0.46867 0.0
C289 C 0.39209 0.06376 0.49515 0.0
C290 C 0.29251 0.05301 0.49981 0.0
C291 C 0.20453 0.96878 0.49097 0.0
C292 C 0.10975 0.95581 0.49735 0.0
C293 C 0.02326 0.87035 0.48853 0.0
C294 C 0.03008 0.80017 0.47381 0.0
C295 C 0.12254 0.8141 0.46705 0.0
C296 C 0.20887 0.89771 0.47521 0.0
H297 H 0.04037 0.15078 0.4972 0.0
C298 C 0.98228 0.08537 0.50677 0.0
H299 H 0.94588 0.95212 0.52546 0.0
H300 H 0.44621 0.22527 0.51898 0.0
H301 H 0.43216 0.34715 0.544 0.0
H302 H 0.26785 0.3228 0.5558 0.0
H303 H 0.11675 0.17663 0.54246 0.0
C304 C 0.00354 0.0186 0.5162 0.0
C305 C 0.10297 0.02881 0.51172 0.0
C306 C 0.19093 0.11316 0.52051 0.0
C307 C 0.28571 0.12599 0.51421 0.0
C308 C 0.37216 0.21149 0.52304 0.0
C309 C 0.36529 0.28208 0.53757 0.0
C310 C 0.27282 0.26848 0.54416 0.0
C311 C 0.18653 0.18469 0.53607 0.0
H312 H 0.09606 0.77376 0.8479 0.0
C313 C 0.03381 0.78609 0.85062 0.0
H314 H 0.99255 0.89511 0.85517 0.0
H315 H 0.44135 0.18862 0.89237 0.0
H316 H 0.35442 0.14908 0.93281 0.0
H317 H 0.17643 0.02263 0.93583 0.0
H318 H 0.0843 0.93544 0.89837 0.0
C319 C 0.05215 0.87914 0.85227 0.0
C320 C 0.15652 0.96201 0.85002 0.0
C321 C 0.20919 0.01242 0.87201 0.0
C322 C 0.3117 0.08522 0.87024 0.0
C323 C 0.36301 0.13359 0.89258 0.0
C324 C 0.31417 0.11122 0.91593 0.0
C325 C 0.21396 0.04003 0.91764 0.0
C326 C 0.16185 0.99069 0.89601 0.0
H327 H 0.42157 0.29638 0.84491 0.0
C328 C 0.48376 0.28326 0.84375 0.0
H329 H 0.52527 0.17355 0.84336 0.0
H330 H 0.07559 0.88386 0.80389 0.0
H331 H 0.16266 0.92306 0.7635 0.0
H332 H 0.34153 0.04692 0.76064 0.0
H333 H 0.43424 0.1326 0.79817 0.0
C334 C 0.46544 0.19006 0.8442 0.0
C335 C 0.361 0.10774 0.84642 0.0
C336 C 0.30845 0.05734 0.82444 0.0
C337 C 0.20577 0.98507 0.82617 0.0
C338 C 0.15424 0.93782 0.80376 0.0
C339 C 0.20319 0.96006 0.78043 0.0
C340 C 0.30385 0.02989 0.77881 0.0
C341 C 0.35618 0.07848 0.80048 0.0
H342 H 0.53976 0.56535 0.99712 0.0
C343 C 0.49042 0.5889 0.98941 0.0
H344 H 0.37494 0.61823 0.99761 0.0
H345 H 0.34059 0.37913 0.10313 0.0
H346 H 0.30193 0.23638 0.07702 0.0
H347 H 0.31657 0.25144 0.03048 0.0
H348 H 0.37192 0.40929 1.00979 0.0
C349 C 0.4256 0.59601 1.00499 0.0
C350 C 0.42645 0.5859 0.03304 0.0
C351 C 0.39177 0.49236 0.04471 0.0
C352 C 0.37893 0.48258 0.0715 0.0
C353 C 0.34781 0.38941 0.0828 0.0
C354 C 0.32604 0.30722 0.06806 0.0
C355 C 0.33458 0.31578 0.04186 0.0
C356 C 0.36681 0.40701 0.03021 0.0
H357 H 0.21403 0.4527 0.10356 0.0
C358 C 0.26365 0.49677 0.11872 0.0
H359 H 0.41205 0.59909 0.12748 0.0
H360 H 0.50936 0.77789 0.01713 0.0
H361 H 0.54707 0.9201 0.04317 0.0
H362 H 0.51375 0.90136 0.08914 0.0
H363 H 0.44389 0.74117 0.1093 0.0
C364 C 0.36096 0.55163 0.11335 0.0
C365 C 0.39582 0.565 0.08641 0.0
C366 C 0.43611 0.65964 0.07486 0.0
C367 C 0.45252 0.67009 0.04823 0.0
C368 C 0.49345 0.76547 0.0372 0.0
C369 C 0.51576 0.84782 0.05193 0.0
C370 C 0.49723 0.8373 0.0778 0.0
C371 C 0.45746 0.7446 0.08919 0.0
H372 H 0.73766 0.32626 0.35152 0.0
C373 C 0.81074 0.36162 0.36014 0.0
H374 H 0.9646 0.42397 0.35471 0.0
H375 H 0.76461 0.20275 0.24408 0.0
H376 H 0.66076 0.05107 0.26775 0.0
H377 H 0.66805 0.04951 0.31437 0.0
H378 H 0.77443 0.19949 0.33753 0.0
C379 C 0.8923 0.39019 0.34566 0.0
C380 C 0.89019 0.38622 0.31731 0.0
C381 C 0.83186 0.29586 0.30415 0.0
C382 C 0.83434 0.29441 0.27719 0.0
C383 C 0.76943 0.20561 0.26447 0.0
C384 C 0.70918 0.11861 0.27784 0.0
C385 C 0.71272 0.11795 0.30409 0.0
C386 C 0.77339 0.20515 0.31718 0.0
H387 H 0.95751 0.25798 0.24467 0.0
C388 C 0.96475 0.31242 0.23076 0.0
H389 H 0.93902 0.42874 0.22285 0.0
H390 H 0.00593 0.57358 0.33607 0.0
H391 H 0.11693 0.72085 0.31223 0.0
H392 H 0.13038 0.71532 0.26582 0.0
H393 H 0.03281 0.5634 0.24303 0.0
C394 C 0.92867 0.37227 0.23642 0.0
C395 C 0.90244 0.38021 0.2634 0.0
C396 C 0.95829 0.4713 0.27644 0.0
C397 C 0.95171 0.47424 0.30334 0.0
C398 C 0.00921 0.56612 0.31579 0.0
C399 C 0.07308 0.65166 0.30232 0.0
C400 C 0.0806 0.64857 0.27621 0.0
C401 C 0.02391 0.56005 0.26333 0.0
H402 H 0.62152 0.56935 0.78974 0.0
C403 C 0.70091 0.62044 0.79075 0.0
H404 H 0.82796 0.72896 0.7713 0.0
H405 H 0.58118 0.5046 0.67027 0.0
H406 H 0.59373 0.36538 0.68516 0.0
H407 H 0.6527 0.36363 0.72822 0.0
H408 H 0.7018 0.50221 0.75627 0.0
C409 C 0.748 0.67899 0.77075 0.0
C410 C 0.6969 0.67219 0.74643 0.0
C411 C 0.66746 0.58955 0.73024 0.0
C412 C 0.6325 0.59006 0.70545 0.0
C413 C 0.60667 0.50792 0.68942 0.0
C414 C 0.61382 0.42733 0.69768 0.0
C415 C 0.6473 0.42651 0.72187 0.0
C416 C 0.67479 0.50671 0.73791 0.0
H417 H 0.7319 0.79768 0.65886 0.0
C418 C 0.6604 0.737 0.65282 0.0
H419 H 0.52391 0.6144 0.66437 0.0
H420 H 0.73998 0.83807 0.77326 0.0
H421 H 0.72359 0.97634 0.75867 0.0
H422 H 0.66019 0.97601 0.71596 0.0
H423 H 0.61333 0.83777 0.6875 0.0
C424 C 0.59618 0.67413 0.67022 0.0
C425 C 0.62707 0.67304 0.69682 0.0
C426 C 0.65239 0.75366 0.71336 0.0
C427 C 0.68797 0.75342 0.73812 0.0
C428 C 0.71341 0.83504 0.7542 0.0
C429 C 0.70383 0.91454 0.74613 0.0
C430 C 0.66819 0.91437 0.72206 0.0
C431 C 0.64221 0.83488 0.70584 0.0
H432 H 0.80316 0.36318 0.89156 0.0
C433 C 0.82223 0.43409 0.89977 0.0
H434 H 0.8716 0.52622 0.93174 0.0
H435 H 0.68485 0.12113 0.9977 0.0
H436 H 0.53026 0.05953 0.97455 0.0
H437 H 0.52192 0.14849 0.93695 0.0
H438 H 0.66724 0.29678 0.92188 0.0
C439 C 0.8505 0.45379 0.92407 0.0
C440 C 0.85603 0.38352 0.94202 0.0
C441 C 0.76828 0.2984 0.95087 0.0
C442 C 0.77132 0.25028 0.97342 0.0
C443 C 0.68467 0.16278 0.98136 0.0
C444 C 0.59595 0.1264 0.96817 0.0
C445 C 0.59135 0.17634 0.94696 0.0
C446 C 0.67601 0.26159 0.93841 0.0
H447 H 0.74004 0.28984 0.02436 0.0
C448 C 0.79303 0.2699 0.03145 0.0
H449 H 0.90766 0.24104 0.02195 0.0
H450 H 0.04023 0.52734 0.92653 0.0
H451 H 0.19613 0.58195 0.94858 0.0
H452 H 0.19906 0.50435 0.98899 0.0
H453 H 0.04749 0.37196 1.00749 0.0
C454 C 0.8559 0.26288 0.01511 0.0
C455 C 0.85963 0.29132 0.98793 0.0
C456 C 0.94951 0.36795 0.97737 0.0
C457 C 0.94758 0.4136 0.95427 0.0
C458 C 0.03789 0.49121 0.94421 0.0
C459 C 0.12762 0.52297 0.95661 0.0
C460 C 0.12933 0.47928 0.97936 0.0
C461 C 0.04153 0.40315 0.98979 0.0
H462 H 0.42818 0.69135 0.32651 0.0
C463 C 0.35079 0.64466 0.33215 0.0
H464 H 0.24646 0.60692 0.36204 0.0
H465 H 0.57518 0.69627 0.4441 0.0
H466 H 0.46892 0.51713 0.44767 0.0
H467 H 0.32786 0.42616 0.41914 0.0
H468 H 0.29376 0.5112 0.38597 0.0
C469 C 0.32346 0.65108 0.35597 0.0
C470 C 0.39915 0.70966 0.37547 0.0
C471 C 0.41511 0.65965 0.39561 0.0
C472 C 0.4941 0.71323 0.41292 0.0
C473 C 0.5131 0.65981 0.43143 0.0
C474 C 0.45342 0.55733 0.43356 0.0
C475 C 0.3741 0.50567 0.41733 0.0
C476 C 0.35529 0.55563 0.3984 0.0
H477 H 0.5463 0.8358 0.46168 0.0
C478 C 0.61991 0.8835 0.4537 0.0
H479 H 0.70981 0.92685 0.42101 0.0
H480 H 0.37986 0.82875 0.34091 0.0
H481 H 0.48404 0.00657 0.33705 0.0
H482 H 0.62043 0.10033 0.36676 0.0
H483 H 0.65297 0.01802 0.40112 0.0
C484 C 0.63682 0.87633 0.42896 0.0
C485 C 0.55423 0.81771 0.41081 0.0
C486 C 0.53608 0.86799 0.39096 0.0
C487 C 0.45822 0.81386 0.37339 0.0
C488 C 0.43997 0.8659 0.35424 0.0
C489 C 0.49852 0.96811 0.35195 0.0
C490 C 0.57528 0.02099 0.3688 0.0
C491 C 0.59356 0.97233 0.38828 0.0
H492 H 0.78075 0.31802 0.69693 0.0
C493 C 0.85794 0.33858 0.69966 0.0
H494 H 0.99353 0.37212 0.68244 0.0
H495 H 0.80612 0.09208 0.58884 0.0
H496 H 0.89688 0.02459 0.60929 0.0
H497 H 0.9775 0.08878 0.65044 0.0
H498 H 0.96837 0.22155 0.67114 0.0
C499 C 0.91593 0.34953 0.67952 0.0
C500 C 0.87422 0.31828 0.65358 0.0
C501 C 0.88198 0.24151 0.64142 0.0
C502 C 0.83525 0.20431 0.61768 0.0
C503 C 0.84116 0.12489 0.60657 0.0
C504 C 0.89282 0.08475 0.6182 0.0
C505 C 0.93824 0.12092 0.64134 0.0
C506 C 0.93268 0.1978 0.65296 0.0
H507 H 0.83199 0.24115 0.55679 0.0
C508 C 0.75328 0.19311 0.56081 0.0
H509 H 0.63782 0.1451 0.58788 0.0
H510 H 0.86048 0.47806 0.66925 0.0
H511 H 0.76996 0.54669 0.64848 0.0
H512 H 0.6827 0.47703 0.60829 0.0
H513 H 0.68669 0.33896 0.58843 0.0
C514 C 0.71665 0.1931 0.58395 0.0
C515 C 0.7809 0.24414 0.60608 0.0
C516 C 0.7766 0.32345 0.61772 0.0
C517 C 0.82465 0.36177 0.64128 0.0
C518 C 0.82226 0.44365 0.65189 0.0
C519 C 0.77125 0.4843 0.64005 0.0
C520 C 0.72225 0.4452 0.61739 0.0
C521 C 0.7249 0.36589 0.60623 0.0
loop_
_geom_bond_atom_site_label_1
_geom_bond_atom_site_label_2
_geom_bond_distance
_geom_bond_site_symmetry_2
_ccdc_geom_bond_type
Tb0 N31 2.660 . S
Tb0 N38 2.600 . S
Tb0 O44 2.546 . S
Tb0 O45 2.610 1_455 S
Tb0 O47 2.320 . S
Tb0 O48 2.552 . S
Tb0 O49 2.413 . S
Tb0 O51 2.362 . S
Tb0 O52 2.421 . S
Tb0 C64 2.833 . S
C1 C4 1.432 . S
C1 C5 1.414 . S
C1 N8 1.359 . S
C2 C4 1.417 . S
C2 C6 1.432 . S
C2 C14 1.410 . S
C3 C5 1.444 . S
C3 C6 1.317 . S
C3 H26 0.929 . S
C4 C1 1.432 . S
C4 C2 1.417 . S
C4 N12 1.360 . S
C5 C1 1.414 . S
C5 C3 1.444 . S
C5 C10 1.385 . S
C6 C2 1.432 . S
C6 C3 1.317 . S
C6 H18 0.930 . S
C7 C9 1.392 . S
C7 C10 1.370 . S
C7 H19 0.931 . S
N8 C1 1.359 . S
N8 C9 1.327 . S
N8 Tb11 2.600 . S
C9 C7 1.392 . S
C9 N8 1.327 . S
C9 H16 0.930 . S
C10 C5 1.385 . S
C10 C7 1.370 . S
C10 H29 0.930 . S
Tb11 N8 2.600 . S
Tb11 N12 2.660 . S
Tb11 O45 2.362 . S
Tb11 O46 2.421 . S
Tb11 O50 2.546 . S
Tb11 O51 2.610 1_655 S
Tb11 O53 2.320 . S
Tb11 O54 2.552 . S
Tb11 O55 2.413 . S
Tb11 C75 2.833 . S
N12 C4 1.360 . S
N12 Tb11 2.660 . S
N12 C13 1.305 . S
C13 N12 1.305 . S
C13 C15 1.407 . S
C13 H20 0.930 . S
C14 C2 1.410 . S
C14 C15 1.345 . S
C14 H22 0.930 . S
C15 C13 1.407 . S
C15 C14 1.345 . S
C15 H17 0.930 . S
H16 C9 0.930 . S
H17 C15 0.930 . S
H18 C6 0.930 . S
H19 C7 0.931 . S
H20 C13 0.930 . S
H21 C35 0.930 . S
H22 C14 0.930 . S
H23 C41 0.930 . S
H24 C32 0.930 . S
H25 C39 0.931 . S
H26 C3 0.929 . S
H27 C33 0.930 . S
H28 C66 0.930 . S
H29 C10 0.930 . S
H30 C65 0.929 . S
N31 Tb0 2.660 . S
N31 C32 1.305 . S
N31 C36 1.360 . S
C32 H24 0.930 . S
C32 N31 1.305 . S
C32 C35 1.407 . S
C33 H27 0.930 . S
C33 C34 1.410 . S
C33 C35 1.345 . S
C34 C33 1.410 . S
C34 C36 1.417 . S
C34 C66 1.432 . S
C35 H21 0.930 . S
C35 C32 1.407 . S
C35 C33 1.345 . S
C36 N31 1.360 . S
C36 C34 1.417 . S
C36 C40 1.432 . S
H37 C42 0.930 . S
N38 Tb0 2.600 . S
N38 C40 1.359 . S
N38 C41 1.327 . S
C39 H25 0.931 . S
C39 C41 1.392 . S
C39 C42 1.370 . S
C40 C36 1.432 . S
C40 N38 1.359 . S
C40 C43 1.414 . S
C41 H23 0.930 . S
C41 N38 1.327 . S
C41 C39 1.392 . S
C42 H37 0.930 . S
C42 C39 1.370 . S
C42 C43 1.385 . S
C43 C40 1.414 . S
C43 C42 1.385 . S
C43 C65 1.444 . S
O44 Tb0 2.546 . S
O44 C64 1.251 . S
O45 Tb0 2.610 1_655 S
O45 Tb11 2.362 . S
O45 C56 1.283 . S
O46 Tb11 2.421 . S
O46 C63 1.262 1_655 S
O47 Tb0 2.320 . S
O47 C63 1.260 . S
O48 Tb0 2.552 . S
O48 C56 1.243 1_455 S
O49 Tb0 2.413 . S
O49 C64 1.256 . S
O50 Tb11 2.546 . S
O50 C75 1.251 . S
O51 Tb0 2.362 . S
O51 Tb11 2.610 1_455 S
O51 C67 1.283 . S
O52 Tb0 2.421 . S
O52 C74 1.262 1_455 S
O53 Tb11 2.320 . S
O53 C74 1.260 . S
O54 Tb11 2.552 . S
O54 C67 1.243 1_655 S
O55 Tb11 2.413 . S
O55 C75 1.256 . S
C56 O45 1.283 . S
C56 O48 1.243 1_655 S
C57 C59 1.382 . S
C57 C61 1.393 . S
C57 C64 1.500 . S
C58 C59 1.400 . S
C58 C60 1.384 . S
C59 C57 1.382 . S
C59 C58 1.400 . S
C59 H76 0.930 . S
C60 C58 1.384 . S
C60 C62 1.392 . S
C60 H77 0.931 . S
C61 C57 1.393 . S
C61 C62 1.401 . S
C61 H78 0.930 . S
C62 C60 1.392 . S
C62 C61 1.401 . S
C62 H79 0.930 . S
C63 O46 1.262 1_455 S
C63 O47 1.260 . S
C64 Tb0 2.833 . S
C64 O44 1.251 . S
C64 O49 1.256 . S
C64 C57 1.500 . S
C65 H30 0.929 . S
C65 C43 1.444 . S
C65 C66 1.317 . S
C66 H28 0.930 . S
C66 C34 1.432 . S
C66 C65 1.317 . S
C67 O51 1.283 . S
C67 O54 1.243 1_455 S
C68 C69 1.382 . S
C68 C72 1.393 . S
C68 C75 1.500 . S
C69 C68 1.382 . S
C69 C70 1.400 . S
C69 H80 0.930 . S
C70 C69 1.400 . S
C70 C71 1.384 . S
C71 C70 1.384 . S
C71 C73 1.392 . S
C71 H81 0.931 . S
C72 C68 1.393 . S
C72 C73 1.401 . S
C72 H82 0.930 . S
C73 C71 1.392 . S
C73 C72 1.401 . S
C73 H83 0.930 . S
C74 O52 1.262 1_655 S
C74 O53 1.260 . S
C75 Tb11 2.833 . S
C75 O50 1.251 . S
C75 O55 1.256 . S
C75 C68 1.500 . S
H76 C59 0.930 . S
H77 C60 0.931 . S
H78 C61 0.930 . S
H79 C62 0.930 . S
H80 C69 0.930 . S
H81 C71 0.931 . S
H82 C72 0.930 . S
H83 C73 0.930 . S
Tb84 N115 2.660 1_545 S
Tb84 N122 2.600 1_545 S
Tb84 O128 2.546 1_545 S
Tb84 O129 2.610 . S
Tb84 O131 2.320 . S
Tb84 O132 2.552 . S
Tb84 O133 2.413 1_545 S
Tb84 O135 2.362 . S
Tb84 O136 2.421 . S
Tb84 C148 2.833 1_545 S
C85 C88 1.432 1_455 S
C85 C89 1.414 . S
C85 N92 1.359 . S
C86 C88 1.417 . S
C86 C90 1.432 1_655 S
C86 C98 1.410 . S
C87 C89 1.444 . S
C87 C90 1.317 . S
C87 H110 0.929 . S
C88 C85 1.432 1_655 S
C88 C86 1.417 . S
C88 N96 1.360 . S
C89 C85 1.414 . S
C89 C87 1.444 . S
C89 C94 1.385 . S
C90 C86 1.432 1_455 S
C90 C87 1.317 . S
C90 H102 0.930 . S
C91 C93 1.392 . S
C91 C94 1.370 . S
C91 H103 0.931 . S
N92 C85 1.359 . S
N92 C93 1.327 . S
N92 Tb95 2.600 1_455 S
C93 C91 1.392 . S
C93 N92 1.327 . S
C93 H100 0.930 . S
C94 C89 1.385 . S
C94 C91 1.370 . S
C94 H113 0.930 . S
Tb95 N92 2.600 1_655 S
Tb95 N96 2.660 . S
Tb95 O129 2.362 . S
Tb95 O130 2.421 . S
Tb95 O134 2.546 . S
Tb95 O135 2.610 . S
Tb95 O137 2.320 . S
Tb95 O138 2.552 . S
Tb95 O139 2.413 . S
Tb95 C159 2.833 . S
N96 C88 1.360 . S
N96 Tb95 2.660 . S
N96 C97 1.305 . S
C97 N96 1.305 . S
C97 C99 1.407 . S
C97 H104 0.930 . S
C98 C86 1.410 . S
C98 C99 1.345 . S
C98 H106 0.930 . S
C99 C97 1.407 . S
C99 C98 1.345 . S
C99 H101 0.930 . S
H100 C93 0.930 . S
H101 C99 0.930 . S
H102 C90 0.930 . S
H103 C91 0.931 . S
H104 C97 0.930 . S
H105 C119 0.930 . S
H106 C98 0.930 . S
H107 C125 0.930 . S
H108 C116 0.930 . S
H109 C123 0.931 . S
H110 C87 0.929 . S
H111 C117 0.930 . S
H112 C150 0.930 . S
H113 C94 0.930 . S
H114 C149 0.929 . S
N115 Tb84 2.660 1_565 S
N115 C116 1.305 . S
N115 C120 1.360 . S
C116 H108 0.930 . S
C116 N115 1.305 . S
C116 C119 1.407 . S
C117 H111 0.930 . S
C117 C118 1.410 . S
C117 C119 1.345 . S
C118 C117 1.410 . S
C118 C120 1.417 . S
C118 C150 1.432 . S
C119 H105 0.930 . S
C119 C116 1.407 . S
C119 C117 1.345 . S
C120 N115 1.360 . S
C120 C118 1.417 . S
C120 C124 1.432 . S
H121 C126 0.930 . S
N122 Tb84 2.600 1_565 S
N122 C124 1.359 . S
N122 C125 1.327 . S
C123 H109 0.931 . S
C123 C125 1.392 . S
C123 C126 1.370 . S
C124 C120 1.432 . S
C124 N122 1.359 . S
C124 C127 1.414 . S
C125 H107 0.930 . S
C125 N122 1.327 . S
C125 C123 1.392 . S
C126 H121 0.930 . S
C126 C123 1.370 . S
C126 C127 1.385 . S
C127 C124 1.414 . S
C127 C126 1.385 . S
C127 C149 1.444 . S
O128 Tb84 2.546 1_565 S
O128 C148 1.251 . S
O129 Tb84 2.610 . S
O129 Tb95 2.362 . S
O129 C140 1.283 . S
O130 Tb95 2.421 . S
O130 C147 1.262 . S
O131 Tb84 2.320 . S
O131 C147 1.260 . S
O132 Tb84 2.552 . S
O132 C140 1.243 . S
O133 Tb84 2.413 1_565 S
O133 C148 1.256 . S
O134 Tb95 2.546 . S
O134 C159 1.251 . S
O135 Tb84 2.362 . S
O135 Tb95 2.610 . S
O135 C151 1.283 . S
O136 Tb84 2.421 . S
O136 C158 1.262 . S
O137 Tb95 2.320 . S
O137 C158 1.260 . S
O138 Tb95 2.552 . S
O138 C151 1.243 . S
O139 Tb95 2.413 . S
O139 C159 1.256 . S
C140 O129 1.283 . S
C140 O132 1.243 . S
C141 C143 1.382 . S
C141 C145 1.393 . S
C141 C148 1.500 . S
C142 C143 1.400 . S
C142 C144 1.384 . S
C143 C141 1.382 . S
C143 C142 1.400 . S
C143 H160 0.930 . S
C144 C142 1.384 . S
C144 C146 1.392 . S
C144 H161 0.931 . S
C145 C141 1.393 . S
C145 C146 1.401 . S
C145 H162 0.930 . S
C146 C144 1.392 . S
C146 C145 1.401 . S
C146 H163 0.930 . S
C147 O130 1.262 . S
C147 O131 1.260 . S
C148 Tb84 2.833 1_565 S
C148 O128 1.251 . S
C148 O133 1.256 . S
C148 C141 1.500 . S
C149 H114 0.929 . S
C149 C127 1.444 . S
C149 C150 1.317 . S
C150 H112 0.930 . S
C150 C118 1.432 . S
C150 C149 1.317 . S
C151 O135 1.283 . S
C151 O138 1.243 . S
C152 C153 1.382 . S
C152 C156 1.393 1_655 S
C152 C159 1.500 . S
C153 C152 1.382 . S
C153 C154 1.400 . S
C153 H164 0.930 . S
C154 C153 1.400 . S
C154 C155 1.384 . S
C155 C154 1.384 . S
C155 C157 1.392 1_655 S
C155 H165 0.931 . S
C156 C152 1.393 1_455 S
C156 C157 1.401 . S
C156 H166 0.930 . S
C157 C155 1.392 1_455 S
C157 C156 1.401 . S
C157 H167 0.930 . S
C158 O136 1.262 . S
C158 O137 1.260 . S
C159 Tb95 2.833 . S
C159 O134 1.251 . S
C159 O139 1.256 . S
C159 C152 1.500 . S
H160 C143 0.930 . S
H161 C144 0.931 . S
H162 C145 0.930 . S
H163 C146 0.930 . S
H164 C153 0.930 . S
H165 C155 0.931 . S
H166 C156 0.930 . S
H167 C157 0.930 . S
Tb168 N199 2.660 . S
Tb168 N206 2.600 . S
Tb168 O212 2.546 . S
Tb168 O213 2.610 . S
Tb168 O215 2.320 . S
Tb168 O216 2.552 . S
Tb168 O217 2.413 . S
Tb168 O219 2.362 . S
Tb168 O220 2.421 . S
Tb168 C232 2.833 . S
C169 C172 1.432 . S
C169 C173 1.414 . S
C169 N176 1.359 . S
C170 C172 1.417 1_455 S
C170 C174 1.436 1_455 S
C170 C182 1.410 . S
C171 C173 1.444 . S
C171 C174 1.322 . S
C171 H194 0.929 1_545 S
C172 C169 1.432 . S
C172 C170 1.417 1_655 S
C172 N180 1.360 . S
C173 C169 1.414 . S
C173 C171 1.444 . S
C173 C178 1.385 1_545 S
C174 C170 1.436 1_655 S
C174 C171 1.322 . S
C174 H186 0.921 1_655 S
C175 C177 1.392 1_565 S
C175 C178 1.370 . S
C175 H187 0.931 . S
N176 C169 1.359 . S
N176 C177 1.327 . S
N176 Tb179 2.600 . S
C177 C175 1.392 1_545 S
C177 N176 1.327 . S
C177 H184 0.930 . S
C178 C173 1.385 1_565 S
C178 C175 1.370 . S
C178 H197 0.930 . S
Tb179 N176 2.600 . S
Tb179 N180 2.660 . S
Tb179 O213 2.362 . S
Tb179 O214 2.421 . S
Tb179 O218 2.546 . S
Tb179 O219 2.610 . S
Tb179 O221 2.320 . S
Tb179 O222 2.552 . S
Tb179 O223 2.413 . S
Tb179 C243 2.833 . S
N180 C172 1.360 . S
N180 Tb179 2.660 . S
N180 C181 1.305 1_655 S
C181 N180 1.305 1_455 S
C181 C183 1.407 . S
C181 H188 0.930 . S
C182 C170 1.410 . S
C182 C183 1.345 . S
C182 H190 0.930 . S
C183 C181 1.407 . S
C183 C182 1.345 . S
C183 H185 0.930 . S
H184 C177 0.930 . S
H185 C183 0.930 . S
H186 C174 0.921 1_455 S
H187 C175 0.931 . S
H188 C181 0.930 . S
H189 C203 0.930 . S
H190 C182 0.930 . S
H191 C209 0.930 . S
H192 C200 0.930 . S
H193 C207 0.931 . S
H194 C171 0.929 1_565 S
H195 C201 0.930 . S
H196 C234 0.930 . S
H197 C178 0.930 . S
H198 C233 0.929 . S
N199 Tb168 2.660 . S
N199 C200 1.305 . S
N199 C204 1.360 . S
C200 H192 0.930 . S
C200 N199 1.305 . S
C200 C203 1.407 . S
C201 H195 0.930 . S
C201 C202 1.410 . S
C201 C203 1.345 . S
C202 C201 1.410 . S
C202 C204 1.417 . S
C202 C234 1.432 . S
C203 H189 0.930 . S
C203 C200 1.407 . S
C203 C201 1.345 . S
C204 N199 1.360 . S
C204 C202 1.417 . S
C204 C208 1.432 . S
H205 C210 0.930 . S
N206 Tb168 2.600 . S
N206 C208 1.359 . S
N206 C209 1.327 . S
C207 H193 0.931 . S
C207 C209 1.392 . S
C207 C210 1.370 . S
C208 C204 1.432 . S
C208 N206 1.359 . S
C208 C211 1.414 . S
C209 H191 0.930 . S
C209 N206 1.327 . S
C209 C207 1.392 . S
C210 H205 0.930 . S
C210 C207 1.370 . S
C210 C211 1.385 . S
C211 C208 1.414 . S
C211 C210 1.385 . S
C211 C233 1.444 . S
O212 Tb168 2.546 . S
O212 C232 1.251 . S
O213 Tb168 2.610 . S
O213 Tb179 2.362 . S
O213 C224 1.283 . S
O214 Tb179 2.421 . S
O214 C231 1.262 . S
O215 Tb168 2.320 . S
O215 C231 1.260 . S
O216 Tb168 2.552 . S
O216 C224 1.243 . S
O217 Tb168 2.413 . S
O217 C232 1.256 . S
O218 Tb179 2.546 . S
O218 C243 1.251 . S
O219 Tb168 2.362 . S
O219 Tb179 2.610 . S
O219 C235 1.283 . S
O220 Tb168 2.421 . S
O220 C242 1.262 . S
O221 Tb179 2.320 . S
O221 C242 1.260 . S
O222 Tb179 2.552 . S
O222 C235 1.243 . S
O223 Tb179 2.413 . S
O223 C243 1.256 . S
C224 O213 1.283 . S
C224 O216 1.243 . S
C225 C227 1.382 . S
C225 C229 1.393 . S
C225 C232 1.500 . S
C226 C227 1.400 . S
C226 C228 1.384 . S
C227 C225 1.382 . S
C227 C226 1.400 . S
C227 H244 0.930 . S
C228 C226 1.384 . S
C228 C230 1.392 . S
C228 H245 0.931 . S
C229 C225 1.393 . S
C229 C230 1.401 . S
C229 H246 0.930 . S
C230 C228 1.392 . S
C230 C229 1.401 . S
C230 H247 0.930 . S
C231 O214 1.262 . S
C231 O215 1.260 . S
C232 Tb168 2.833 . S
C232 O212 1.251 . S
C232 O217 1.256 . S
C232 C225 1.500 . S
C233 H198 0.929 . S
C233 C211 1.444 . S
C233 C234 1.317 . S
C234 H196 0.930 . S
C234 C202 1.432 . S
C234 C233 1.317 . S
C235 O219 1.283 . S
C235 O222 1.243 . S
C236 C237 1.382 1_655 S
C236 C240 1.393 . S
C236 C243 1.500 . S
C237 C236 1.382 1_455 S
C237 C238 1.400 . S
C237 H248 0.930 . S
C238 C237 1.400 . S
C238 C239 1.384 . S
C239 C238 1.384 . S
C239 C241 1.392 1_455 S
C239 H249 0.931 . S
C240 C236 1.393 . S
C240 C241 1.401 . S
C240 H250 0.930 . S
C241 C239 1.392 1_655 S
C241 C240 1.401 . S
C241 H251 0.930 . S
C242 O220 1.262 . S
C242 O221 1.260 . S
C243 Tb179 2.833 . S
C243 O218 1.251 . S
C243 O223 1.256 . S
C243 C236 1.500 . S
H244 C227 0.930 . S
H245 C228 0.931 . S
H246 C229 0.930 . S
H247 C230 0.930 . S
H248 C237 0.930 . S
H249 C239 0.931 . S
H250 C240 0.930 . S
H251 C241 0.930 . S
H252 C253 0.951 . S
C253 H252 0.951 . S
C253 C259 1.265 1_455 S
H254 C259 0.950 . S
H255 C263 0.949 . S
H256 C264 0.952 . S
H257 C265 0.951 . S
H258 C266 0.951 . S
C259 C253 1.265 1_655 S
C259 H254 0.950 . S
C259 C260 1.478 . S
C260 C259 1.478 . S
C260 C261 1.397 . S
C260 C277 1.394 1_655 S
C261 C260 1.397 . S
C261 C262 1.438 . S
C261 C266 1.429 . S
C262 C261 1.438 . S
C262 C263 1.428 1_565 S
C262 C275 1.394 1_665 S
C263 H255 0.949 . S
C263 C262 1.428 1_545 S
C263 C264 1.345 1_545 S
C264 H256 0.952 . S
C264 C263 1.345 1_565 S
C264 C265 1.424 . S
C265 H257 0.951 . S
C265 C264 1.424 . S
C265 C266 1.347 . S
C266 H258 0.951 . S
C266 C261 1.429 . S
C266 C265 1.347 . S
H267 C268 0.951 . S
C268 H267 0.951 . S
C268 C274 1.265 1_655 S
H269 C274 0.950 . S
H270 C278 0.949 . S
H271 C279 0.950 . S
H272 C280 0.951 . S
H273 C281 0.951 1_545 S
C274 C268 1.265 1_455 S
C274 H269 0.950 . S
C274 C275 1.478 . S
C275 C262 1.394 1_445 S
C275 C274 1.478 . S
C275 C276 1.397 1_545 S
C276 C275 1.397 1_565 S
C276 C277 1.438 . S
C276 C281 1.429 . S
C277 C260 1.394 1_455 S
C277 C276 1.438 . S
C277 C278 1.428 . S
C278 H270 0.949 . S
C278 C277 1.428 . S
C278 C279 1.345 . S
C279 H271 0.950 . S
C279 C278 1.345 . S
C279 C280 1.424 . S
C280 H272 0.951 . S
C280 C279 1.424 . S
C280 C281 1.347 . S
C281 H273 0.951 1_565 S
C281 C276 1.429 . S
C281 C280 1.347 . S
H282 C283 0.951 . S
C283 H282 0.951 . S
C283 C289 1.265 . S
H284 C289 0.950 . S
H285 C293 0.949 . S
H286 C294 0.950 . S
H287 C295 0.951 1_565 S
H288 C296 0.951 . S
C289 C283 1.265 . S
C289 H284 0.950 . S
C289 C290 1.478 . S
C290 C289 1.478 . S
C290 C291 1.397 . S
C290 C307 1.394 . S
C291 C290 1.397 . S
C291 C292 1.438 . S
C291 C296 1.429 . S
C292 C291 1.438 . S
C292 C293 1.428 . S
C292 C305 1.394 . S
C293 H285 0.949 . S
C293 C292 1.428 . S
C293 C294 1.345 1_545 S
C294 H286 0.950 . S
C294 C293 1.345 1_565 S
C294 C295 1.424 1_565 S
C295 H287 0.951 1_545 S
C295 C294 1.424 1_545 S
C295 C296 1.347 . S
C296 H288 0.951 . S
C296 C291 1.429 . S
C296 C295 1.347 . S
H297 C298 0.951 . S
C298 H297 0.951 . S
C298 C304 1.265 . S
H299 C304 0.950 . S
H300 C308 0.949 . S
H301 C309 0.950 . S
H302 C310 0.951 . S
H303 C311 0.951 . S
C304 C298 1.265 . S
C304 H299 0.950 . S
C304 C305 1.478 . S
C305 C292 1.394 . S
C305 C304 1.478 . S
C305 C306 1.397 . S
C306 C305 1.397 . S
C306 C307 1.438 . S
C306 C311 1.429 . S
C307 C290 1.394 . S
C307 C306 1.438 . S
C307 C308 1.428 . S
C308 H300 0.949 . S
C308 C307 1.428 . S
C308 C309 1.345 . S
C309 H301 0.950 . S
C309 C308 1.345 . S
C309 C310 1.424 . S
C310 H302 0.951 . S
C310 C309 1.424 . S
C310 C311 1.347 . S
C311 H303 0.951 . S
C311 C306 1.429 . S
C311 C310 1.347 . S
H312 C313 0.951 . S
C313 H312 0.951 . S
C313 C319 1.265 . S
H314 C319 0.950 . S
H315 C323 0.949 . S
H316 C324 0.950 1_545 S
H317 C325 0.951 . S
H318 C326 0.951 . S
C319 C313 1.265 . S
C319 H314 0.950 . S
C319 C320 1.478 . S
C320 C319 1.478 . S
C320 C321 1.397 . S
C320 C337 1.394 . S
C321 C320 1.397 . S
C321 C322 1.438 . S
C321 C326 1.429 . S
C322 C321 1.438 . S
C322 C323 1.428 1_565 S
C322 C335 1.394 . S
C323 H315 0.949 . S
C323 C322 1.428 1_545 S
C323 C324 1.345 1_545 S
C324 H316 0.950 1_565 S
C324 C323 1.345 1_565 S
C324 C325 1.424 . S
C325 H317 0.951 . S
C325 C324 1.424 . S
C325 C326 1.347 . S
C326 H318 0.951 . S
C326 C321 1.429 . S
C326 C325 1.347 . S
H327 C328 0.951 . S
C328 H327 0.951 . S
C328 C334 1.265 . S
H329 C334 0.950 . S
H330 C338 0.949 . S
H331 C339 0.950 . S
H332 C340 0.951 . S
H333 C341 0.951 1_545 S
C334 C328 1.265 . S
C334 H329 0.950 . S
C334 C335 1.478 1_545 S
C335 C322 1.394 . S
C335 C334 1.478 1_565 S
C335 C336 1.397 . S
C336 C335 1.397 . S
C336 C337 1.438 . S
C336 C341 1.429 . S
C337 C320 1.394 . S
C337 C336 1.438 . S
C337 C338 1.428 . S
C338 H330 0.949 . S
C338 C337 1.428 . S
C338 C339 1.345 . S
C339 H331 0.950 . S
C339 C338 1.345 . S
C339 C340 1.424 . S
C340 H332 0.951 . S
C340 C339 1.424 . S
C340 C341 1.347 . S
C341 H333 0.951 1_565 S
C341 C336 1.429 . S
C341 C340 1.347 . S
H342 C343 0.951 . S
C343 H342 0.951 . S
C343 C349 1.265 . S
H344 C349 0.950 . S
H345 C353 0.949 . S
H346 C354 0.950 . S
H347 C355 0.951 . S
H348 C356 0.951 . S
C349 C343 1.265 . S
C349 H344 0.950 . S
C349 C350 1.478 1_556 S
C350 C349 1.478 1_554 S
C350 C351 1.397 . S
C350 C367 1.394 . S
C351 C350 1.397 . S
C351 C352 1.438 . S
C351 C356 1.429 . S
C352 C351 1.438 . S
C352 C353 1.428 . S
C352 C365 1.394 . S
C353 H345 0.949 . S
C353 C352 1.428 . S
C353 C354 1.345 . S
C354 H346 0.950 . S
C354 C353 1.345 . S
C354 C355 1.424 . S
C355 H347 0.951 . S
C355 C354 1.424 . S
C355 C356 1.347 . S
C356 H348 0.951 . S
C356 C351 1.429 . S
C356 C355 1.347 . S
H357 C358 0.951 . S
C358 H357 0.951 . S
C358 C364 1.265 . S
H359 C364 0.950 . S
H360 C368 0.949 1_556 S
H361 C369 0.950 . S
H362 C370 0.951 . S
H363 C371 0.951 . S
C364 C358 1.265 . S
C364 H359 0.950 . S
C364 C365 1.478 . S
C365 C352 1.394 . S
C365 C364 1.478 . S
C365 C366 1.397 . S
C366 C365 1.397 . S
C366 C367 1.438 . S
C366 C371 1.429 . S
C367 C350 1.394 . S
C367 C366 1.438 . S
C367 C368 1.428 . S
C368 H360 0.949 1_554 S
C368 C367 1.428 . S
C368 C369 1.345 . S
C369 H361 0.950 . S
C369 C368 1.345 . S
C369 C370 1.424 . S
C370 H362 0.951 . S
C370 C369 1.424 . S
C370 C371 1.347 . S
C371 H363 0.951 . S
C371 C366 1.429 . S
C371 C370 1.347 . S
H372 C373 0.951 . S
C373 H372 0.951 . S
C373 C379 1.265 . S
H374 C379 0.950 . S
H375 C383 0.949 . S
H376 C384 0.950 . S
H377 C385 0.951 . S
H378 C386 0.951 . S
C379 C373 1.265 . S
C379 H374 0.950 . S
C379 C380 1.478 . S
C380 C379 1.478 . S
C380 C381 1.397 . S
C380 C397 1.394 . S
C381 C380 1.397 . S
C381 C382 1.438 . S
C381 C386 1.429 . S
C382 C381 1.438 . S
C382 C383 1.428 . S
C382 C395 1.394 . S
C383 H375 0.949 . S
C383 C382 1.428 . S
C383 C384 1.345 . S
C384 H376 0.950 . S
C384 C383 1.345 . S
C384 C385 1.424 . S
C385 H377 0.951 . S
C385 C384 1.424 . S
C385 C386 1.347 . S
C386 H378 0.951 . S
C386 C381 1.429 . S
C386 C385 1.347 . S
H387 C388 0.951 . S
C388 H387 0.951 . S
C388 C394 1.265 . S
H389 C394 0.950 . S
H390 C398 0.949 . S
H391 C399 0.950 . S
H392 C400 0.951 . S
H393 C401 0.951 . S
C394 C388 1.265 . S
C394 H389 0.950 . S
C394 C395 1.478 . S
C395 C382 1.394 . S
C395 C394 1.478 . S
C395 C396 1.397 . S
C396 C395 1.397 . S
C396 C397 1.438 . S
C396 C401 1.429 . S
C397 C380 1.394 . S
C397 C396 1.438 . S
C397 C398 1.428 . S
C398 H390 0.949 . S
C398 C397 1.428 . S
C398 C399 1.345 . S
C399 H391 0.950 . S
C399 C398 1.345 . S
C399 C400 1.424 . S
C400 H392 0.951 . S
C400 C399 1.424 . S
C400 C401 1.347 . S
C401 H393 0.951 . S
C401 C396 1.429 . S
C401 C400 1.347 . S
H402 C403 0.951 . S
C403 H402 0.951 . S
C403 C409 1.265 . S
H404 C409 0.950 . S
H405 C413 0.949 . S
H406 C414 0.950 . S
H407 C415 0.951 1_455 S
H408 C416 0.951 . S
C409 C403 1.265 . S
C409 H404 0.950 . S
C409 C410 1.478 . S
C410 C409 1.478 . S
C410 C411 1.397 . S
C410 C427 1.394 . S
C411 C410 1.397 . S
C411 C412 1.438 . S
C411 C416 1.429 . S
C412 C411 1.438 . S
C412 C413 1.428 . S
C412 C425 1.394 . S
C413 H405 0.949 . S
C413 C412 1.428 . S
C413 C414 1.345 . S
C414 H406 0.950 . S
C414 C413 1.345 . S
C414 C415 1.424 . S
C415 H407 0.951 1_655 S
C415 C414 1.424 . S
C415 C416 1.347 . S
C416 H408 0.951 . S
C416 C411 1.429 . S
C416 C415 1.347 . S
H417 C418 0.951 . S
C418 H417 0.951 . S
C418 C424 1.265 . S
H419 C424 0.950 . S
H420 C428 0.949 . S
H421 C429 0.950 . S
H422 C430 0.951 . S
H423 C431 0.951 . S
C424 C418 1.265 . S
C424 H419 0.950 . S
C424 C425 1.478 . S
C425 C412 1.394 . S
C425 C424 1.478 . S
C425 C426 1.397 . S
C426 C425 1.397 . S
C426 C427 1.438 . S
C426 C431 1.429 . S
C427 C410 1.394 . S
C427 C426 1.438 . S
C427 C428 1.428 . S
C428 H420 0.949 . S
C428 C427 1.428 . S
C428 C429 1.345 . S
C429 H421 0.950 . S
C429 C428 1.345 . S
C429 C430 1.424 . S
C430 H422 0.951 . S
C430 C429 1.424 . S
C430 C431 1.347 . S
C431 H423 0.951 . S
C431 C426 1.429 . S
C431 C430 1.347 . S
H432 C433 0.951 . S
C433 H432 0.951 . S
C433 C439 1.265 . S
H434 C439 0.950 . S
H435 C443 0.949 . S
H436 C444 0.950 . S
H437 C445 0.951 1_565 S
H438 C446 0.951 . S
C439 C433 1.265 . S
C439 H434 0.950 . S
C439 C440 1.478 . S
C440 C439 1.478 . S
C440 C441 1.397 . S
C440 C457 1.394 . S
C441 C440 1.397 . S
C441 C442 1.438 . S
C441 C446 1.429 . S
C442 C441 1.438 . S
C442 C443 1.428 . S
C442 C455 1.394 . S
C443 H435 0.949 . S
C443 C442 1.428 . S
C443 C444 1.345 1_545 S
C444 H436 0.950 . S
C444 C443 1.345 1_565 S
C444 C445 1.424 1_565 S
C445 H437 0.951 1_545 S
C445 C444 1.424 1_545 S
C445 C446 1.347 . S
C446 H438 0.951 . S
C446 C441 1.429 . S
C446 C445 1.347 . S
H447 C448 0.951 . S
C448 H447 0.951 . S
C448 C454 1.265 . S
H449 C454 0.950 . S
H450 C458 0.949 . S
H451 C459 0.950 1_455 S
H452 C460 0.951 1_455 S
H453 C461 0.951 1_554 S
C454 C448 1.265 . S
C454 H449 0.950 . S
C454 C455 1.478 1_554 S
C455 C442 1.394 . S
C455 C454 1.478 1_556 S
C455 C456 1.397 . S
C456 C455 1.397 . S
C456 C457 1.438 . S
C456 C461 1.429 . S
C457 C440 1.394 . S
C457 C456 1.438 . S
C457 C458 1.428 . S
C458 H450 0.949 . S
C458 C457 1.428 . S
C458 C459 1.345 . S
C459 H451 0.950 1_655 S
C459 C458 1.345 . S
C459 C460 1.424 . S
C460 H452 0.951 1_655 S
C460 C459 1.424 . S
C460 C461 1.347 . S
C461 H453 0.951 1_556 S
C461 C456 1.429 . S
C461 C460 1.347 . S
H462 C463 0.951 . S
C463 H462 0.951 . S
C463 C469 1.265 . S
H464 C469 0.950 . S
H465 C473 0.949 . S
H466 C474 0.950 . S
H467 C475 0.951 . S
H468 C476 0.951 . S
C469 C463 1.265 . S
C469 H464 0.950 . S
C469 C470 1.478 . S
C470 C469 1.478 . S
C470 C471 1.397 . S
C470 C487 1.394 . S
C471 C470 1.397 . S
C471 C472 1.438 . S
C471 C476 1.429 . S
C472 C471 1.438 . S
C472 C473 1.428 . S
C472 C485 1.394 . S
C473 H465 0.949 . S
C473 C472 1.428 . S
C473 C474 1.345 . S
C474 H466 0.950 . S
C474 C473 1.345 . S
C474 C475 1.424 . S
C475 H467 0.951 . S
C475 C474 1.424 . S
C475 C476 1.347 . S
C476 H468 0.951 . S
C476 C471 1.429 . S
C476 C475 1.347 . S
H477 C478 0.951 . S
C478 H477 0.951 . S
C478 C484 1.265 1_545 S
H479 C484 0.950 . S
H480 C488 0.949 . S
H481 C489 0.950 . S
H482 C490 0.951 . S
H483 C491 0.951 . S
C484 C478 1.265 1_565 S
C484 H479 0.950 . S
C484 C485 1.478 . S
C485 C472 1.394 . S
C485 C484 1.478 . S
C485 C486 1.397 . S
C486 C485 1.397 . S
C486 C487 1.438 . S
C486 C491 1.429 1_565 S
C487 C470 1.394 . S
C487 C486 1.438 . S
C487 C488 1.428 . S
C488 H480 0.949 . S
C488 C487 1.428 . S
C488 C489 1.345 1_565 S
C489 H481 0.950 . S
C489 C488 1.345 1_545 S
C489 C490 1.424 . S
C490 H482 0.951 . S
C490 C489 1.424 . S
C490 C491 1.347 . S
C491 H483 0.951 . S
C491 C486 1.429 1_545 S
C491 C490 1.347 . S
H492 C493 0.951 . S
C493 H492 0.951 . S
C493 C499 1.265 . S
H494 C499 0.950 . S
H495 C503 0.949 . S
H496 C504 0.950 . S
H497 C505 0.951 . S
H498 C506 0.951 . S
C499 C493 1.265 . S
C499 H494 0.950 . S
C499 C500 1.478 . S
C500 C499 1.478 . S
C500 C501 1.397 1_455 S
C500 C517 1.394 . S
C501 C500 1.397 1_655 S
C501 C502 1.438 . S
C501 C506 1.429 . S
C502 C501 1.438 . S
C502 C503 1.428 . S
C502 C515 1.394 . S
C503 H495 0.949 . S
C503 C502 1.428 . S
C503 C504 1.345 . S
C504 H496 0.950 . S
C504 C503 1.345 . S
C504 C505 1.424 . S
C505 H497 0.951 . S
C505 C504 1.424 . S
C505 C506 1.347 . S
C506 H498 0.951 . S
C506 C501 1.429 . S
C506 C505 1.347 . S
H507 C508 0.951 . S
C508 H507 0.951 . S
C508 C514 1.265 . S
H509 C514 0.950 . S
H510 C518 0.949 . S
H511 C519 0.950 . S
H512 C520 0.951 . S
H513 C521 0.951 . S
C514 C508 1.265 . S
C514 H509 0.950 . S
C514 C515 1.478 . S
C515 C502 1.394 . S
C515 C514 1.478 . S
C515 C516 1.397 . S
C516 C515 1.397 . S
C516 C517 1.438 1_655 S
C516 C521 1.429 . S
C517 C500 1.394 . S
C517 C516 1.438 1_455 S
C517 C518 1.428 . S
C518 H510 0.949 . S
C518 C517 1.428 . S
C518 C519 1.345 . S
C519 H511 0.950 . S
C519 C518 1.345 . S
C519 C520 1.424 . S
C520 H512 0.951 . S
C520 C519 1.424 . S
C520 C521 1.347 1_455 S
C521 H513 0.951 . S
C521 C516 1.429 . S
C521 C520 1.347 1_655 S
C253 C63 1.402 . S
C268 C74 1.402 . S
C283 C158 1.362 . S
C298 C147 1.362 1_455 S
C313 C242 1.404 1_455 S
C328 C231 1.404 . S
C343 C226 1.762 . S
C358 C67 1.902 . S
C373 C154 1.169 . S
C388 C56 1.097 . S
C403 C235 1.937 . S
C418 C142 1.845 . S
C433 C224 1.250 . S
C448 C70 0.973 . S
C463 C58 1.727 . S
C478 C151 1.938 . S
C493 C238 1.033 . S
C508 C140 1.172 . S
