# Generated by pormake.
# Topology zfg, (5)-cn, num edge types: 1
# Building blocks:
#     Node 0, Type 0, BuildingBlock: XOMCOT_clean_sbu_1, # of connection points: 5
#     Node 1, Type 0, BuildingBlock: XOMCOT_clean_sbu_1, # of connection points: 5
#     Node 2, Type 0, BuildingBlock: XOMCOT_clean_sbu_1, # of connection points: 5
#     Node 3, Type 0, BuildingBlock: XOMCOT_clean_sbu_1, # of connection points: 5
#     Node 4, Type 0, BuildingBlock: XOMCOT_clean_sbu_1, # of connection points: 5
#     Node 5, Type 0, BuildingBlock: XOMCOT_clean_sbu_1, # of connection points: 5
#     Node 6, Type 0, BuildingBlock: XOMCOT_clean_sbu_1, # of connection points: 5
#     Node 7, Type 0, BuildingBlock: XOMCOT_clean_sbu_1, # of connection points: 5
#     Node 8, Type 0, BuildingBlock: XOMCOT_clean_sbu_1, # of connection points: 5
#     Node 9, Type 0, BuildingBlock: XOMCOT_clean_sbu_1, # of connection points: 5
#     Node 10, Type 0, BuildingBlock: XOMCOT_clean_sbu_1, # of connection points: 5
#     Node 11, Type 0, BuildingBlock: XOMCOT_clean_sbu_1, # of connection points: 5
#     Node 12, Type 0, BuildingBlock: XOMCOT_clean_sbu_1, # of connection points: 5
#     Node 13, Type 0, BuildingBlock: XOMCOT_clean_sbu_1, # of connection points: 5
#     Node 14, Type 0, BuildingBlock: XOMCOT_clean_sbu_1, # of connection points: 5
#     Node 15, Type 0, BuildingBlock: XOMCOT_clean_sbu_1, # of connection points: 5
#     Edge 16, Type (0, 0), BuildingBlock: CIFDUS_clean_linker_0, # of connection points: 2
#     Edge 17, Type (0, 0), BuildingBlock: CIFDUS_clean_linker_0, # of connection points: 2
#     Edge 18, Type (0, 0), BuildingBlock: CIFDUS_clean_linker_0, # of connection points: 2
#     Edge 19, Type (0, 0), BuildingBlock: CIFDUS_clean_linker_0, # of connection points: 2
#     Edge 20, Type (0, 0), BuildingBlock: CIFDUS_clean_linker_0, # of connection points: 2
#     Edge 21, Type (0, 0), BuildingBlock: CIFDUS_clean_linker_0, # of connection points: 2
#     Edge 22, Type (0, 0), BuildingBlock: CIFDUS_clean_linker_0, # of connection points: 2
#     Edge 23, Type (0, 0), BuildingBlock: CIFDUS_clean_linker_0, # of connection points: 2
#     Edge 24, Type (0, 0), BuildingBlock: CIFDUS_clean_linker_0, # of connection points: 2
#     Edge 25, Type (0, 0), BuildingBlock: CIFDUS_clean_linker_0, # of connection points: 2
#     Edge 26, Type (0, 0), BuildingBlock: CIFDUS_clean_linker_0, # of connection points: 2
#     Edge 27, Type (0, 0), BuildingBlock: CIFDUS_clean_linker_0, # of connection points: 2
#     Edge 28, Type (0, 0), BuildingBlock: CIFDUS_clean_linker_0, # of connection points: 2
#     Edge 29, Type (0, 0), BuildingBlock: CIFDUS_clean_linker_0, # of connection points: 2
#     Edge 30, Type (0, 0), BuildingBlock: CIFDUS_clean_linker_0, # of connection points: 2
#     Edge 31, Type (0, 0), BuildingBlock: CIFDUS_clean_linker_0, # of connection points: 2
#     Edge 32, Type (0, 0), BuildingBlock: CIFDUS_clean_linker_0, # of connection points: 2
#     Edge 33, Type (0, 0), BuildingBlock: CIFDUS_clean_linker_0, # of connection points: 2
#     Edge 34, Type (0, 0), BuildingBlock: CIFDUS_clean_linker_0, # of connection points: 2
#     Edge 35, Type (0, 0), BuildingBlock: CIFDUS_clean_linker_0, # of connection points: 2
#     Edge 36, Type (0, 0), BuildingBlock: CIFDUS_clean_linker_0, # of connection points: 2
#     Edge 37, Type (0, 0), BuildingBlock: CIFDUS_clean_linker_0, # of connection points: 2
#     Edge 38, Type (0, 0), BuildingBlock: CIFDUS_clean_linker_0, # of connection points: 2
#     Edge 39, Type (0, 0), BuildingBlock: CIFDUS_clean_linker_0, # of connection points: 2
#     Edge 40, Type (0, 0), BuildingBlock: CIFDUS_clean_linker_0, # of connection points: 2
#     Edge 41, Type (0, 0), BuildingBlock: CIFDUS_clean_linker_0, # of connection points: 2
#     Edge 42, Type (0, 0), BuildingBlock: CIFDUS_clean_linker_0, # of connection points: 2
#     Edge 43, Type (0, 0), BuildingBlock: CIFDUS_clean_linker_0, # of connection points: 2
#     Edge 44, Type (0, 0), BuildingBlock: CIFDUS_clean_linker_0, # of connection points: 2
#     Edge 45, Type (0, 0), BuildingBlock: CIFDUS_clean_linker_0, # of connection points: 2
#     Edge 46, Type (0, 0), BuildingBlock: CIFDUS_clean_linker_0, # of connection points: 2
#     Edge 47, Type (0, 0), BuildingBlock: CIFDUS_clean_linker_0, # of connection points: 2
#     Edge 48, Type (0, 0), BuildingBlock: CIFDUS_clean_linker_0, # of connection points: 2
#     Edge 49, Type (0, 0), BuildingBlock: CIFDUS_clean_linker_0, # of connection points: 2
#     Edge 50, Type (0, 0), BuildingBlock: CIFDUS_clean_linker_0, # of connection points: 2
#     Edge 51, Type (0, 0), BuildingBlock: CIFDUS_clean_linker_0, # of connection points: 2
#     Edge 52, Type (0, 0), BuildingBlock: CIFDUS_clean_linker_0, # of connection points: 2
#     Edge 53, Type (0, 0), BuildingBlock: CIFDUS_clean_linker_0, # of connection points: 2
#     Edge 54, Type (0, 0), BuildingBlock: CIFDUS_clean_linker_0, # of connection points: 2
#     Edge 55, Type (0, 0), BuildingBlock: CIFDUS_clean_linker_0, # of connection points: 2
# Relax obj value: 0.098
# Max RMSD: 0.136
# Mean RMSD: 0.136
data_MOF--net-zfg--node1-XOMCOT_clean_sbu_1--edge1-CIFDUS_clean_linker_0
_symmetry_space_group_name_H-M    P1
_symmetry_Int_Tables_number       1
_symmetry_cell_setting            triclinic
loop_
_symmetry_equiv_pos_as_xyz
'x, y, z'
_cell_length_a     38.266718
_cell_length_b     38.440486
_cell_length_c     45.298875
_cell_angle_alpha  90.097352
_cell_angle_beta   90.120349
_cell_angle_gamma 89.944722
loop_
_atom_site_label
_atom_site_type_symbol
_atom_site_fract_x
_atom_site_fract_y
_atom_site_fract_z
_atom_type_partial_charge
C0 C 0.04791 0.23448 0.20681 0.0
C1 C 0.06981 0.20624 0.20538 0.0
N2 N 0.09448 0.21299 0.18511 0.0
N3 N 0.05847 0.25852 0.18708 0.0
C4 C 0.08734 0.24492 0.17447 0.0
H5 H 0.02519 0.23704 0.22081 0.0
Co6 Co 0.03495 0.29954 0.17909 0.0
C7 C 0.03643 0.30143 0.11325 0.0
O8 O 0.0022 0.30123 0.11265 0.0
N9 N 0.0109 0.34191 0.17105 0.0
C10 C 0.97349 0.38231 0.1552 0.0
C11 C 0.97928 0.34734 0.15839 0.0
C12 C 0.02342 0.3744 0.17545 0.0
N13 N 0.0014 0.39949 0.16595 0.0
O14 O 0.07491 0.32493 0.19305 0.0
H15 H 0.96143 0.32737 0.15103 0.0
H16 H 0.04846 0.37969 0.18528 0.0
O17 O 0.05289 0.30003 0.13791 0.0
C18 C 0.07328 0.32627 0.22123 0.0
O19 O 0.04714 0.31044 0.23432 0.0
N20 N 0.99534 0.27321 0.17023 0.0
C21 C 0.94131 0.22567 0.17693 0.0
C22 C 0.96638 0.2209 0.15473 0.0
C23 C 0.99383 0.24475 0.15212 0.0
C24 C 0.9707 0.27826 0.19149 0.0
C25 C 0.94314 0.25524 0.19485 0.0
H26 H 0.01513 0.23897 0.13726 0.0
H27 H 0.97368 0.29934 0.20715 0.0
H28 H 0.10226 0.25764 0.15734 0.0
H29 H 0.06787 0.18257 0.2182 0.0
H30 H 0.95067 0.3938 0.14507 0.0
H31 H 0.9662 0.19773 0.14109 0.0
H32 H 0.92443 0.25955 0.2124 0.0
C33 C 0.76206 0.04303 0.21485 0.0
C34 C 0.79209 0.06261 0.21543 0.0
N35 N 0.78948 0.08723 0.19439 0.0
N36 N 0.7407 0.05539 0.19365 0.0
C37 C 0.75796 0.08247 0.18171 0.0
H38 H 0.75659 0.02044 0.22828 0.0
Co39 Co 0.69921 0.03505 0.18209 0.0
C40 C 0.68011 0.07057 0.12531 0.0
O41 O 0.64665 0.07191 0.13165 0.0
N42 N 0.6574 0.01389 0.17049 0.0
C43 C 0.6166 0.98526 0.14511 0.0
C44 C 0.65173 0.99258 0.14716 0.0
C45 C 0.62548 0.0189 0.18228 0.0
N46 N 0.60032 0.00221 0.1671 0.0
O47 O 0.67392 0.07332 0.1999 0.0
H48 H 0.67155 0.98419 0.13172 0.0
H49 H 0.62028 0.03542 0.20108 0.0
O50 O 0.70175 0.05817 0.14399 0.0
C51 C 0.67236 0.07075 0.22804 0.0
O52 O 0.687 0.04358 0.24058 0.0
N53 N 0.7247 0.99748 0.16734 0.0
C54 C 0.77068 0.94287 0.15685 0.0
C55 C 0.77253 0.97338 0.14006 0.0
C56 C 0.74936 0.00055 0.14574 0.0
C57 C 0.72145 0.96741 0.18295 0.0
C58 C 0.74403 0.93954 0.17786 0.0
H59 H 0.75297 0.02473 0.13407 0.0
H60 H 0.70241 0.96581 0.20051 0.0
H61 H 0.74789 0.09816 0.16382 0.0
H62 H 0.81462 0.0582 0.22942 0.0
H63 H 0.60381 0.97045 0.12785 0.0
H64 H 0.79287 0.97691 0.12374 0.0
H65 H 0.74218 0.91663 0.19165 0.0
C66 C 0.94631 0.76545 0.20457 0.0
C67 C 0.92375 0.7931 0.20289 0.0
N68 N 0.90092 0.78679 0.1809 0.0
N69 N 0.93796 0.7421 0.18349 0.0
C70 C 0.90982 0.75558 0.16956 0.0
H71 H 0.96799 0.76279 0.21975 0.0
Co72 Co 0.96421 0.70279 0.17672 0.0
C73 C 0.95845 0.68663 0.11323 0.0
O74 O 0.99225 0.68089 0.11323 0.0
N75 N 0.99123 0.66213 0.1708 0.0
C76 C 0.03281 0.62217 0.16477 0.0
C77 C 0.02616 0.65685 0.16899 0.0
C78 C 0.97748 0.62997 0.16742 0.0
N79 N 0.00211 0.60522 0.16395 0.0
O80 O 0.92817 0.67533 0.19462 0.0
H81 H 0.0462 0.67642 0.17001 0.0
H82 H 0.94975 0.62473 0.16777 0.0
O83 O 0.94308 0.69653 0.13694 0.0
C84 C 0.93176 0.67299 0.22257 0.0
O85 O 0.95807 0.68932 0.23511 0.0
N86 N 0.99978 0.73153 0.16246 0.0
C87 C 0.05206 0.78041 0.15287 0.0
C88 C 0.02422 0.77721 0.13289 0.0
C89 C 0.99794 0.75277 0.13831 0.0
C90 C 0.02542 0.73621 0.18295 0.0
C91 C 0.05243 0.75962 0.17817 0.0
H92 H 0.97541 0.75233 0.12397 0.0
H93 H 0.02469 0.72159 0.20334 0.0
H94 H 0.89685 0.74347 0.15096 0.0
H95 H 0.92412 0.81619 0.21662 0.0
H96 H 0.05837 0.61055 0.16222 0.0
H97 H 0.02233 0.79407 0.11382 0.0
H98 H 0.07257 0.76261 0.19483 0.0
C99 C 0.22797 0.94872 0.21229 0.0
C100 C 0.19956 0.92795 0.20684 0.0
N101 N 0.2084 0.90501 0.18568 0.0
N102 N 0.25433 0.93923 0.19427 0.0
C103 C 0.24186 0.91199 0.17866 0.0
H104 H 0.22912 0.97002 0.22787 0.0
Co105 Co 0.29562 0.96366 0.19163 0.0
C106 C 0.31672 0.95998 0.12822 0.0
O107 O 0.32896 0.99182 0.13029 0.0
N108 N 0.33777 0.98848 0.19051 0.0
C109 C 0.38074 0.02574 0.19981 0.0
C110 C 0.34559 0.01991 0.20211 0.0
C111 C 0.36902 0.97545 0.182 0.0
N112 N 0.39562 0.99778 0.18702 0.0
O113 O 0.3205 0.92527 0.20873 0.0
H114 H 0.32781 0.03729 0.21307 0.0
H115 H 0.37199 0.94974 0.17262 0.0
O116 O 0.30335 0.94544 0.15105 0.0
C117 C 0.32166 0.92668 0.23687 0.0
O118 O 0.30477 0.95197 0.25024 0.0
N119 N 0.26981 0.00184 0.17726 0.0
C120 C 0.22338 0.05601 0.16565 0.0
C121 C 0.22871 0.0297 0.14475 0.0
C122 C 0.25178 0.00252 0.15113 0.0
C123 C 0.26313 0.02628 0.19832 0.0
C124 C 0.24098 0.0542 0.19267 0.0
H125 H 0.25299 0.98108 0.13582 0.0
H126 H 0.27342 0.02293 0.22037 0.0
H127 H 0.25652 0.89818 0.16196 0.0
H128 H 0.17432 0.9295 0.21754 0.0
H129 H 0.39423 0.04835 0.20829 0.0
H130 H 0.21417 0.02946 0.1242 0.0
H131 H 0.23587 0.07297 0.21001 0.0
C132 C 0.53014 0.2707 0.37602 0.0
C133 C 0.55357 0.29766 0.37571 0.0
N134 N 0.58442 0.28571 0.38571 0.0
N135 N 0.54573 0.24194 0.38701 0.0
C136 C 0.57934 0.25164 0.39157 0.0
H137 H 0.5032 0.27234 0.36898 0.0
Co138 Co 0.52364 0.19885 0.39338 0.0
C139 C 0.55435 0.21373 0.4551 0.0
O140 O 0.56143 0.24668 0.45047 0.0
N141 N 0.50152 0.15574 0.3995 0.0
C142 C 0.46758 0.11475 0.41897 0.0
C143 C 0.477 0.14916 0.42022 0.0
C144 C 0.5071 0.12454 0.38639 0.0
N145 N 0.48662 0.09936 0.39777 0.0
O146 O 0.56447 0.17524 0.37837 0.0
H147 H 0.46717 0.16793 0.43595 0.0
H148 H 0.52618 0.11999 0.36923 0.0
O149 O 0.54056 0.19533 0.43455 0.0
C150 C 0.56485 0.17664 0.35014 0.0
O151 O 0.53978 0.19402 0.33683 0.0
N152 N 0.48226 0.22217 0.40449 0.0
C153 C 0.42235 0.26371 0.40614 0.0
C154 C 0.44729 0.26543 0.42889 0.0
C155 C 0.47716 0.24437 0.42768 0.0
C156 C 0.45725 0.21866 0.38324 0.0
C157 C 0.42703 0.23889 0.38376 0.0
H158 H 0.49673 0.24768 0.44444 0.0
H159 H 0.46174 0.20123 0.36485 0.0
H160 H 0.59921 0.23455 0.40049 0.0
H161 H 0.54833 0.32413 0.36884 0.0
H162 H 0.44943 0.10162 0.43347 0.0
H163 H 0.4449 0.28434 0.44651 0.0
H164 H 0.40819 0.23609 0.36604 0.0
C165 C 0.73845 0.5402 0.36594 0.0
C166 C 0.712 0.56392 0.36938 0.0
N167 N 0.72188 0.58714 0.39002 0.0
N168 N 0.76474 0.54801 0.38466 0.0
C169 C 0.75413 0.57717 0.39883 0.0
H170 H 0.73855 0.51859 0.35065 0.0
Co171 Co 0.80523 0.52147 0.38725 0.0
C172 C 0.82859 0.52361 0.44989 0.0
O173 O 0.83974 0.49147 0.44739 0.0
N174 N 0.847 0.49425 0.38855 0.0
C175 C 0.88593 0.451 0.38837 0.0
C176 C 0.8511 0.45923 0.38911 0.0
C177 C 0.88027 0.50646 0.38779 0.0
N178 N 0.90433 0.4807 0.38737 0.0
O179 O 0.83113 0.55947 0.37084 0.0
H180 H 0.83061 0.44018 0.39062 0.0
H181 H 0.88687 0.53379 0.38718 0.0
O182 O 0.81376 0.53873 0.42799 0.0
C183 C 0.83024 0.55929 0.34267 0.0
O184 O 0.81214 0.53478 0.32936 0.0
N185 N 0.77777 0.48395 0.40024 0.0
C186 C 0.72787 0.43178 0.40792 0.0
C187 C 0.73504 0.45566 0.43064 0.0
C188 C 0.7599 0.48187 0.42626 0.0
C189 C 0.77035 0.46148 0.37777 0.0
C190 C 0.74619 0.43476 0.38134 0.0
H191 H 0.76307 0.50143 0.44311 0.0
H192 H 0.78298 0.46485 0.35661 0.0
H193 H 0.76942 0.59057 0.41544 0.0
H194 H 0.68753 0.56444 0.35734 0.0
H195 H 0.89684 0.42502 0.38903 0.0
H196 H 0.72073 0.45478 0.45124 0.0
H197 H 0.74059 0.41772 0.36286 0.0
C198 C 0.47528 0.73136 0.3758 0.0
C199 C 0.45233 0.7043 0.37255 0.0
N200 N 0.42104 0.71445 0.38299 0.0
N201 N 0.45896 0.75838 0.38896 0.0
C202 C 0.42541 0.7478 0.39174 0.0
H203 H 0.50239 0.73106 0.3692 0.0
Co204 Co 0.48094 0.8006 0.39829 0.0
C205 C 0.44302 0.78607 0.4574 0.0
O206 O 0.43339 0.754 0.45168 0.0
N207 N 0.50322 0.84281 0.40676 0.0
C208 C 0.53515 0.88346 0.4291 0.0
C209 C 0.52467 0.84929 0.42986 0.0
C210 C 0.5007 0.87362 0.39252 0.0
N211 N 0.51991 0.89868 0.40567 0.0
O212 O 0.44172 0.82535 0.38173 0.0
H213 H 0.53163 0.83058 0.44669 0.0
H214 H 0.48475 0.87791 0.37313 0.0
O215 O 0.46034 0.80342 0.43826 0.0
C216 C 0.44096 0.82486 0.35353 0.0
O217 O 0.46581 0.80801 0.33951 0.0
N218 N 0.52054 0.77585 0.4121 0.0
C219 C 0.57577 0.72904 0.41879 0.0
C220 C 0.54782 0.7292 0.43871 0.0
C221 C 0.52044 0.75275 0.43498 0.0
C222 C 0.54888 0.77797 0.39396 0.0
C223 C 0.57693 0.75484 0.39697 0.0
H224 H 0.49838 0.75031 0.4493 0.0
H225 H 0.54851 0.79601 0.37566 0.0
H226 H 0.40495 0.76372 0.40122 0.0
H227 H 0.45834 0.67891 0.36352 0.0
H228 H 0.5514 0.89653 0.44525 0.0
H229 H 0.54611 0.70983 0.456 0.0
H230 H 0.59791 0.75541 0.38096 0.0
C231 C 0.26392 0.46388 0.35159 0.0
C232 C 0.29108 0.44114 0.34715 0.0
N233 N 0.28803 0.41482 0.36658 0.0
N234 N 0.24374 0.45203 0.37372 0.0
C235 C 0.25909 0.42207 0.38252 0.0
H236 H 0.25907 0.48762 0.33947 0.0
Co237 Co 0.20361 0.47453 0.38665 0.0
C238 C 0.18499 0.4391 0.4426 0.0
O239 O 0.15208 0.43701 0.43448 0.0
N240 N 0.16319 0.49775 0.39948 0.0
C241 C 0.12568 0.52791 0.42691 0.0
C242 C 0.15991 0.51764 0.42393 0.0
C243 C 0.13065 0.49663 0.38785 0.0
N244 N 0.10722 0.51447 0.40427 0.0
O245 O 0.17601 0.43707 0.37069 0.0
H246 H 0.1808 0.52315 0.43936 0.0
H247 H 0.12404 0.48238 0.36804 0.0
O248 O 0.20755 0.45202 0.42504 0.0
C249 C 0.17332 0.4398 0.34265 0.0
O250 O 0.18737 0.46704 0.32983 0.0
N251 N 0.23126 0.51168 0.39934 0.0
C252 C 0.28025 0.56484 0.40529 0.0
C253 C 0.2809 0.53592 0.42422 0.0
C254 C 0.25637 0.50937 0.42069 0.0
C255 C 0.22888 0.54043 0.38192 0.0
C256 C 0.25307 0.56741 0.38456 0.0
H257 H 0.25904 0.4862 0.43394 0.0
H258 H 0.20933 0.54139 0.36465 0.0
H259 H 0.24893 0.40562 0.39985 0.0
H260 H 0.31174 0.444 0.33104 0.0
H261 H 0.11495 0.5426 0.44517 0.0
H262 H 0.30118 0.53301 0.44074 0.0
H263 H 0.25179 0.58891 0.36918 0.0
C264 C 0.96132 0.7647 0.85233 0.0
C265 C 0.93989 0.79309 0.84877 0.0
N266 N 0.91301 0.79015 0.86776 0.0
N267 N 0.94794 0.74397 0.87342 0.0
C268 C 0.91852 0.76015 0.88249 0.0
H269 H 0.98496 0.75923 0.84013 0.0
Co270 Co 0.96647 0.70151 0.88473 0.0
C271 C 0.93018 0.68656 0.94115 0.0
O272 O 0.92026 0.65599 0.93122 0.0
N273 N 0.98533 0.65862 0.89618 0.0
C274 C 0.01377 0.61735 0.92094 0.0
C275 C 0.00751 0.65249 0.91888 0.0
C276 C 0.97827 0.62679 0.88501 0.0
N277 N 0.99512 0.60141 0.89972 0.0
O278 O 0.92526 0.67867 0.86971 0.0
H279 H 0.01766 0.67218 0.93366 0.0
H280 H 0.96056 0.62192 0.86687 0.0
O281 O 0.9471 0.70703 0.92423 0.0
C282 C 0.92722 0.67651 0.84157 0.0
O283 O 0.95479 0.68981 0.82853 0.0
N284 N 0.00755 0.72404 0.89616 0.0
C285 C 0.06896 0.76212 0.90264 0.0
C286 C 0.03997 0.76881 0.92078 0.0
C287 C 0.00932 0.74961 0.91703 0.0
C288 C 0.03574 0.71642 0.879 0.0
C289 C 0.06686 0.73494 0.88205 0.0
H290 H 0.98659 0.75661 0.92977 0.0
H291 H 0.03351 0.69675 0.86199 0.0
H292 H 0.90098 0.74966 0.89893 0.0
H293 H 0.94381 0.8143 0.83344 0.0
H294 H 0.02938 0.60436 0.93757 0.0
H295 H 0.04051 0.78964 0.9369 0.0
H296 H 0.08831 0.72938 0.8672 0.0
C297 C 0.23021 0.96455 0.86814 0.0
C298 C 0.19986 0.94601 0.86603 0.0
N299 N 0.20404 0.91607 0.88092 0.0
N300 N 0.25341 0.94704 0.88502 0.0
C301 C 0.23723 0.91664 0.89121 0.0
H302 H 0.23482 0.98975 0.85837 0.0
Co303 Co 0.29695 0.96667 0.89414 0.0
C304 C 0.28463 0.93172 0.95615 0.0
O305 O 0.2539 0.91721 0.95262 0.0
N306 N 0.34063 0.98701 0.90225 0.0
C307 C 0.383 0.01887 0.92254 0.0
C308 C 0.34773 0.01221 0.92228 0.0
C309 C 0.37222 0.97851 0.89098 0.0
N310 N 0.39823 0.99749 0.90293 0.0
O311 O 0.31968 0.92599 0.87855 0.0
H312 H 0.32874 0.02425 0.93669 0.0
H313 H 0.37655 0.95832 0.87478 0.0
O314 O 0.29857 0.94874 0.93493 0.0
C315 C 0.31989 0.92662 0.85032 0.0
O316 O 0.30423 0.95266 0.83695 0.0
N317 N 0.27395 0.00723 0.90666 0.0
C318 C 0.22708 0.06243 0.90956 0.0
C319 C 0.22502 0.03494 0.92977 0.0
C320 C 0.2487 0.00744 0.92791 0.0
C321 C 0.27811 0.03509 0.88842 0.0
C322 C 0.25503 0.06318 0.88963 0.0
H323 H 0.24438 0.98506 0.94164 0.0
H324 H 0.29761 0.03412 0.87117 0.0
H325 H 0.24925 0.8955 0.9032 0.0
H326 H 0.17626 0.95419 0.85478 0.0
H327 H 0.39664 0.03667 0.93709 0.0
H328 H 0.20384 0.03354 0.94556 0.0
H329 H 0.25729 0.08373 0.87341 0.0
C330 C 0.04017 0.23075 0.85469 0.0
C331 C 0.06278 0.20288 0.85479 0.0
N332 N 0.09003 0.21087 0.8724 0.0
N333 N 0.05298 0.25579 0.87256 0.0
C334 C 0.08359 0.24312 0.88271 0.0
H335 H 0.01558 0.23237 0.84295 0.0
Co336 Co 0.03203 0.29767 0.88248 0.0
C337 C 0.06498 0.31288 0.9412 0.0
O338 O 0.07506 0.34399 0.93283 0.0
N339 N 0.01108 0.34 0.89287 0.0
C340 C 0.98025 0.38046 0.91656 0.0
C341 C 0.98715 0.34545 0.91434 0.0
C342 C 0.01854 0.37213 0.88265 0.0
N343 N 1.00026 0.39703 0.89673 0.0
O344 O 0.07318 0.32181 0.86906 0.0
H345 H 0.97635 0.32543 0.92835 0.0
H346 H 0.03771 0.37759 0.86581 0.0
O347 O 0.04917 0.29307 0.92289 0.0
C348 C 0.0721 0.32299 0.84083 0.0
O349 O 0.04558 0.30804 0.82738 0.0
N350 N 0.99107 0.2737 0.89219 0.0
C351 C 0.931 0.23311 0.89636 0.0
C352 C 0.95959 0.22723 0.91517 0.0
C353 C 0.98954 0.24767 0.91258 0.0
C354 C 0.96323 0.28044 0.87427 0.0
C355 C 0.93274 0.26067 0.87618 0.0
H356 H 0.01214 0.24113 0.92566 0.0
H357 H 0.96527 0.30044 0.85759 0.0
H358 H 0.10031 0.25681 0.89813 0.0
H359 H 0.05941 0.17859 0.84301 0.0
H360 H 0.96339 0.39295 0.93256 0.0
H361 H 0.95935 0.20612 0.93097 0.0
H362 H 0.91156 0.26565 0.86086 0.0
C363 C 0.77278 0.02561 0.86782 0.0
C364 C 0.80325 0.04387 0.86472 0.0
N365 N 0.79926 0.07502 0.87789 0.0
N366 N 0.7497 0.0447 0.88347 0.0
C367 C 0.76611 0.07537 0.88818 0.0
H368 H 0.76798 -0.00029 0.85944 0.0
Co369 Co 0.70533 0.02822 0.89359 0.0
C370 C 0.72501 0.0629 0.95356 0.0
O371 O 0.75862 0.06752 0.94933 0.0
N372 N 0.66093 0.0114 0.90316 0.0
C373 C 0.61759 0.985 0.92691 0.0
C374 C 0.65298 0.99083 0.92638 0.0
C375 C 0.62982 0.01815 0.89019 0.0
N376 N 0.60318 0.00237 0.90422 0.0
O377 O 0.68468 0.06953 0.87717 0.0
H378 H 0.6716 0.98138 0.94248 0.0
H379 H 0.62642 0.03475 0.87116 0.0
O380 O 0.70619 0.04886 0.93343 0.0
C381 C 0.68385 0.06804 0.84897 0.0
O382 O 0.69815 0.04097 0.83596 0.0
N383 N 0.72552 0.98633 0.90655 0.0
C384 C 0.76405 0.92495 0.90979 0.0
C385 C 0.76951 0.95173 0.93035 0.0
C386 C 0.75002 0.98243 0.92826 0.0
C387 C 0.71807 0.95949 0.88788 0.0
C388 C 0.73695 0.92852 0.88916 0.0
H389 H 0.75661 0.00357 0.9427 0.0
H390 H 0.69901 0.96313 0.87049 0.0
H391 H 0.75442 0.09708 0.89976 0.0
H392 H 0.82672 0.03473 0.85388 0.0
H393 H 0.60332 0.97054 0.94344 0.0
H394 H 0.79043 0.9501 0.94644 0.0
H395 H 0.7317 0.90832 0.87306 0.0
C396 C 0.46417 0.73161 0.71531 0.0
C397 C 0.44089 0.70436 0.71456 0.0
N398 N 0.41393 0.7134 0.697 0.0
N399 N 0.45213 0.75744 0.69793 0.0
C400 C 0.42122 0.74578 0.68739 0.0
H401 H 0.48873 0.73226 0.72714 0.0
Co402 Co 0.47536 0.79865 0.6892 0.0
C403 C 0.44535 0.81993 0.63128 0.0
O404 O 0.44335 0.85269 0.63938 0.0
N405 N 0.4989 0.84036 0.68026 0.0
C406 C 0.53344 0.8792 0.65851 0.0
C407 C 0.52296 0.84504 0.65879 0.0
C408 C 0.49491 0.8723 0.69243 0.0
N409 N 0.51562 0.89627 0.67958 0.0
O410 O 0.43586 0.82443 0.70377 0.0
H411 H 0.5317 0.8251 0.64363 0.0
H412 H 0.4768 0.87821 0.71003 0.0
O413 O 0.45666 0.79707 0.64932 0.0
C414 C 0.43576 0.82451 0.73199 0.0
O415 O 0.46123 0.80832 0.74583 0.0
N416 N 0.51458 0.77269 0.67767 0.0
C417 C 0.57313 0.7306 0.6695 0.0
C418 C 0.5434 0.72647 0.65163 0.0
C419 C 0.51429 0.74791 0.65602 0.0
C420 C 0.54328 0.77712 0.69513 0.0
C421 C 0.57306 0.75671 0.69112 0.0
H422 H 0.49107 0.74349 0.64294 0.0
H423 H 0.54267 0.79612 0.71277 0.0
H424 H 0.40492 0.76026 0.67219 0.0
H425 H 0.4436 0.67974 0.72591 0.0
H426 H 0.55153 0.89097 0.64315 0.0
H427 H 0.54239 0.70632 0.6349 0.0
H428 H 0.59519 0.76021 0.70577 0.0
C429 C 0.26933 0.46665 0.69998 0.0
C430 C 0.29626 0.44344 0.70319 0.0
N431 N 0.28591 0.41258 0.69222 0.0
N432 N 0.24224 0.45091 0.68627 0.0
C433 C 0.25264 0.41745 0.68306 0.0
H434 H 0.2698 0.49352 0.70697 0.0
Co435 Co 0.2 0.47312 0.67654 0.0
C436 C 0.21682 0.43705 0.61694 0.0
O437 O 0.24917 0.42823 0.62306 0.0
N438 N 0.15761 0.49551 0.66742 0.0
C439 C 0.11799 0.52855 0.64476 0.0
C440 C 0.15237 0.51822 0.64508 0.0
C441 C 0.12572 0.49194 0.67998 0.0
N442 N 0.10131 0.51188 0.66663 0.0
O443 O 0.17486 0.43404 0.69239 0.0
H444 H 0.1721 0.52627 0.62948 0.0
H445 H 0.12021 0.47485 0.69832 0.0
O446 O 0.19839 0.45332 0.63613 0.0
C447 C 0.17502 0.43477 0.72062 0.0
O448 O 0.19131 0.46055 0.73386 0.0
N449 N 0.2252 0.51275 0.66414 0.0
C450 C 0.27306 0.56736 0.6618 0.0
C451 C 0.27379 0.54069 0.64066 0.0
C452 C 0.24957 0.51361 0.64216 0.0
C453 C 0.22228 0.53998 0.68334 0.0
C454 C 0.24588 0.5677 0.68249 0.0
H455 H 0.25246 0.49244 0.62697 0.0
H456 H 0.20325 0.53878 0.70094 0.0
H457 H 0.23669 0.39744 0.67295 0.0
H458 H 0.32171 0.44895 0.71257 0.0
H459 H 0.10583 0.54585 0.62894 0.0
H460 H 0.29419 0.53972 0.62413 0.0
H461 H 0.24452 0.58767 0.69935 0.0
C462 C 0.54082 0.2608 0.71525 0.0
C463 C 0.56365 0.28835 0.71439 0.0
N464 N 0.58927 0.28057 0.69515 0.0
N465 N 0.55179 0.23599 0.69634 0.0
C466 C 0.58168 0.24857 0.68468 0.0
H467 H 0.51724 0.25924 0.7283 0.0
Co468 Co 0.52764 0.1953 0.68768 0.0
C469 C 0.55486 0.17357 0.62836 0.0
O470 O 0.55456 0.14035 0.63508 0.0
N471 N 0.50285 0.15419 0.6791 0.0
C472 C 0.4663 0.11595 0.65875 0.0
C473 C 0.47724 0.15 0.65878 0.0
C474 C 0.50714 0.12214 0.6909 0.0
N475 N 0.48529 0.0985 0.67886 0.0
O476 O 0.56676 0.16872 0.70209 0.0
H477 H 0.46769 0.17015 0.64422 0.0
H478 H 0.52622 0.11588 0.70771 0.0
O479 O 0.54594 0.19618 0.64759 0.0
C480 C 0.56721 0.16885 0.73031 0.0
O481 O 0.54206 0.18537 0.74424 0.0
N482 N 0.48909 0.22235 0.67637 0.0
C483 C 0.43534 0.27098 0.67111 0.0
C484 C 0.46286 0.27019 0.65066 0.0
C485 C 0.48968 0.24583 0.65379 0.0
C486 C 0.46171 0.22151 0.69555 0.0
C487 C 0.4344 0.24549 0.69323 0.0
H488 H 0.51182 0.24747 0.63914 0.0
H489 H 0.46212 0.20333 0.71375 0.0
H490 H 0.59695 0.2351 0.66813 0.0
H491 H 0.56152 0.31235 0.72681 0.0
H492 H 0.44699 0.10454 0.64416 0.0
H493 H 0.4645 0.28927 0.63316 0.0
H494 H 0.41398 0.24546 0.70974 0.0
C495 C 0.73668 0.53321 0.70968 0.0
C496 C 0.70601 0.55172 0.70994 0.0
N497 N 0.70774 0.57614 0.68876 0.0
N498 N 0.75757 0.54566 0.68824 0.0
C499 C 0.7394 0.5722 0.676 0.0
H500 H 0.74293 0.51115 0.72351 0.0
Co501 Co 0.7994 0.52411 0.67805 0.0
C502 C 0.82045 0.55722 0.62201 0.0
O503 O 0.85133 0.56407 0.63333 0.0
N504 N 0.8416 0.50167 0.6681 0.0
C505 C 0.88058 0.46791 0.64545 0.0
C506 C 0.84622 0.47829 0.64611 0.0
C507 C 0.87378 0.50542 0.68019 0.0
N508 N 0.89783 0.48512 0.66681 0.0
O509 O 0.82467 0.56362 0.69322 0.0
H510 H 0.82603 0.46976 0.63101 0.0
H511 H 0.87976 0.52286 0.69825 0.0
O512 O 0.79706 0.54322 0.63815 0.0
C513 C 0.82606 0.56248 0.72141 0.0
O514 O 0.81188 0.53571 0.73481 0.0
N515 N 0.77371 0.48502 0.66621 0.0
C516 C 0.72537 0.43109 0.66253 0.0
C517 C 0.7234 0.45951 0.6432 0.0
C518 C 0.74785 0.48632 0.64541 0.0
C519 C 0.77722 0.45672 0.68404 0.0
C520 C 0.75348 0.42922 0.68237 0.0
H521 H 0.74419 0.50922 0.632 0.0
H522 H 0.79719 0.45658 0.70098 0.0
H523 H 0.74839 0.58722 0.65732 0.0
H524 H 0.68388 0.54728 0.72431 0.0
H525 H 0.8923 0.4501 0.62979 0.0
H526 H 0.70204 0.46189 0.62761 0.0
H527 H 0.75561 0.40799 0.69798 0.0
H528 H 0.08569 0.35222 0.98896 0.0
H529 H 0.04847 0.24992 0.96526 0.0
H530 H 0.04004 0.23587 1.01703 0.0
H531 H 0.03591 0.25517 0.06871 0.0
H532 H 0.07525 0.35589 0.09355 0.0
H533 H 0.09089 0.3678 0.04198 0.0
C534 C 0.07633 0.32663 0.9951 0.0
C535 C 0.06655 0.30264 0.97294 0.0
C536 C 0.07192 0.31842 1.02526 0.0
C537 C 0.05505 0.26942 0.98155 0.0
C538 C 0.05039 0.26121 1.01129 0.0
C539 C 0.04898 0.27923 0.06288 0.0
C540 C 0.05475 0.30452 0.08475 0.0
C541 C 0.05762 0.28587 1.03326 0.0
C542 C 0.07119 0.33583 0.07707 0.0
C543 C 0.07971 0.34276 0.04754 0.0
H544 H 0.75974 0.08056 1.00402 0.0
H545 H 0.65648 0.05793 0.97061 0.0
H546 H 0.63277 0.06205 1.02054 0.0
H547 H 0.64213 0.0674 0.07429 0.0
H548 H 0.74606 0.08674 0.10753 0.0
H549 H 0.76855 0.08895 0.05719 0.0
C550 C 0.73196 0.07691 1.00753 0.0
C551 C 0.71003 0.06878 0.98347 0.0
C552 C 0.71857 0.07864 0.03641 0.0
C553 C 0.67409 0.06408 0.98863 0.0
C554 C 0.66047 0.0664 1.01724 0.0
C555 C 0.66957 0.07278 0.07049 0.0
C556 C 0.69235 0.07695 0.09471 0.0
C557 C 0.68256 0.07305 0.04139 0.0
C558 C 0.72795 0.08339 0.08935 0.0
C559 C 0.74086 0.08455 0.06053 0.0
H560 H 0.91138 0.6432 0.98634 0.0
H561 H 0.94403 0.74852 0.96843 0.0
H562 H 0.95089 0.75942 1.02114 0.0
H563 H 0.95527 0.73671 0.07184 0.0
H564 H 0.92398 0.63143 0.09004 0.0
H565 H 0.90829 0.62295 0.03797 0.0
C566 C 0.91932 0.66877 0.99395 0.0
C567 C 0.92789 0.69476 0.97324 0.0
C568 C 0.92349 0.67484 1.02447 0.0
C569 C 0.93795 0.72776 0.98368 0.0
C570 C 0.94183 0.73409 1.01391 0.0
C571 C 0.94383 0.71237 0.0645 0.0
C572 C 0.9401 0.6849 0.08466 0.0
C573 C 0.93577 0.70751 1.03444 0.0
C574 C 0.92626 0.65312 0.07491 0.0
C575 C 0.91771 0.64819 0.0451 0.0
H576 H 0.26116 0.90111 1.00688 0.0
H577 H 0.34169 0.96935 0.97401 0.0
H578 H 0.36068 0.98154 1.02436 0.0
H579 H 0.35081 0.97745 0.07785 0.0
H580 H 0.27068 0.90908 0.11096 0.0
H581 H 0.25565 0.89196 0.06055 0.0
C582 C 0.28316 0.91833 1.01065 0.0
C583 C 0.29948 0.93478 0.9865 0.0
C584 C 0.294 0.92533 0.03982 0.0
C585 C 0.32825 0.95663 0.99199 0.0
C586 C 0.33916 0.96368 1.02088 0.0
C587 C 0.33037 0.9584 0.07409 0.0
C588 C 0.31172 0.94483 0.09826 0.0
C589 C 0.32165 0.9489 0.04497 0.0
C590 C 0.28558 0.91991 0.09291 0.0
C591 C 0.27677 0.91029 0.06399 0.0
H592 H 0.57084 0.24896 0.50547 0.0
H593 H 0.54418 0.14649 0.47352 0.0
H594 H 0.54487 0.12432 0.52411 0.0
H595 H 0.54945 0.13487 0.57783 0.0
H596 H 0.57307 0.23824 0.60935 0.0
H597 H 0.57735 0.25904 0.55861 0.0
C598 C 0.56549 0.22167 0.50944 0.0
C599 C 0.55743 0.19949 0.48557 0.0
C600 C 0.56526 0.20924 0.53864 0.0
C601 C 0.55043 0.16423 0.49137 0.0
C602 C 0.55077 0.15152 0.52035 0.0
C603 C 0.55603 0.16183 0.57359 0.0
C604 C 0.56095 0.18493 0.59745 0.0
C605 C 0.55767 0.17388 0.54422 0.0
C606 C 0.56905 0.21989 0.59148 0.0
C607 C 0.57147 0.23185 0.56243 0.0
H608 H 0.77614 0.53808 0.48842 0.0
H609 H 0.88772 0.54367 0.47742 0.0
H610 H 0.89482 0.55921 0.52953 0.0
H611 H 0.87 0.56394 0.57928 0.0
H612 H 0.75871 0.55353 0.5914 0.0
H613 H 0.75069 0.54739 0.53807 0.0
C614 C 0.80183 0.54373 0.49735 0.0
C615 C 0.83138 0.54039 0.47913 0.0
C616 C 0.80578 0.5512 0.5277 0.0
C617 C 0.86465 0.5467 0.49103 0.0
C618 C 0.8687 0.55528 0.52085 0.0
C619 C 0.84389 0.56103 0.57027 0.0
C620 C 0.81504 0.55901 0.58947 0.0
C621 C 0.83957 0.55656 0.53961 0.0
C622 C 0.78144 0.55493 0.57725 0.0
C623 C 0.77683 0.55138 0.5467 0.0
H624 H 0.44975 0.86053 0.58208 0.0
H625 H 0.42688 0.75603 0.61073 0.0
H626 H 0.42115 0.7372 0.55943 0.0
H627 H 0.42648 0.74932 0.50663 0.0
H628 H 0.45361 0.85263 0.47745 0.0
H629 H 0.4536 0.87305 0.52866 0.0
C630 C 0.443 0.83377 0.57706 0.0
C631 C 0.43863 0.80974 0.60021 0.0
C632 C 0.44074 0.82285 0.5474 0.0
C633 C 0.43042 0.77502 0.59334 0.0
C634 C 0.42718 0.76422 0.564 0.0
C635 C 0.43199 0.77643 0.51135 0.0
C636 C 0.43998 0.79939 0.48812 0.0
C637 C 0.43286 0.78775 0.54086 0.0
C638 C 0.44738 0.83436 0.49484 0.0
C639 C 0.44743 0.84605 0.52415 0.0
H640 H 0.25502 0.42193 0.56792 0.0
H641 H 0.15003 0.44587 0.59612 0.0
H642 H 0.13025 0.44529 0.54471 0.0
H643 H 0.14361 0.44185 0.49147 0.0
H644 H 0.24954 0.42214 0.46361 0.0
H645 H 0.26802 0.41694 0.5151 0.0
C646 C 0.22769 0.42663 0.56294 0.0
C647 C 0.20406 0.43387 0.58599 0.0
C648 C 0.21669 0.42713 0.53328 0.0
C649 C 0.16883 0.44023 0.57891 0.0
C650 C 0.1575 0.43994 0.54947 0.0
C651 C 0.17062 0.43584 0.49668 0.0
C652 C 0.19514 0.4322 0.47369 0.0
C653 C 0.18129 0.43393 0.52643 0.0
C654 C 0.23016 0.42504 0.48085 0.0
C655 C 0.24076 0.42213 0.51031 0.0
H656 H 0.23075 0.12589 0.16957 0.0
H657 H 0.15495 0.04517 0.15341 0.0
H658 H 0.10759 0.08784 0.15593 0.0
H659 H 0.08764 0.14695 0.1684 0.0
H660 H 0.16294 0.22821 0.18293 0.0
H661 H 0.21096 0.18673 0.17519 0.0
C662 C 0.20387 0.11794 0.16603 0.0
C663 C 0.1961 0.08264 0.16147 0.0
C664 C 0.17688 0.14259 0.16754 0.0
C665 C 0.16136 0.07234 0.15675 0.0
C666 C 0.13433 0.09663 0.15844 0.0
C667 C 0.11464 0.15542 0.16942 0.0
C668 C 0.12216 0.19011 0.17654 0.0
C669 C 0.14176 0.13159 0.16469 0.0
C670 C 0.15695 0.20143 0.17747 0.0
C671 C 0.18422 0.17776 0.17319 0.0
H672 H 0.83695 0.11644 0.23009 0.0
H673 H 0.80102 0.11369 0.13987 0.0
H674 H 0.84589 0.15576 0.12588 0.0
H675 H 0.89527 0.194 0.13969 0.0
H676 H 0.93023 0.19637 0.23025 0.0
H677 H 0.88624 0.1534 0.24368 0.0
C678 C 0.83916 0.12483 0.20734 0.0
C679 C 0.81572 0.11207 0.18611 0.0
C680 C 0.86492 0.1489 0.19951 0.0
C681 C 0.81848 0.12355 0.15673 0.0
C682 C 0.84428 0.1474 0.14868 0.0
C683 C 0.89328 0.1848 0.16225 0.0
C684 C 0.91562 0.19835 0.184 0.0
C685 C 0.86762 0.16033 0.16992 0.0
C686 C 0.91289 0.18652 0.21324 0.0
C687 C 0.88785 0.16194 0.22093 0.0
H688 H 0.76536 0.87213 0.15441 0.0
H689 H 0.84019 0.95599 0.15761 0.0
H690 H 0.88779 0.91439 0.16299 0.0
H691 H 0.90757 0.85473 0.17172 0.0
H692 H 0.83407 0.77022 0.16825 0.0
H693 H 0.78635 0.81131 0.15784 0.0
C694 C 0.79216 0.88113 0.15593 0.0
C695 C 0.79928 0.91701 0.1557 0.0
C696 C 0.81948 0.85701 0.15921 0.0
C697 C 0.83409 0.92848 0.15741 0.0
C698 C 0.86131 0.90474 0.16074 0.0
C699 C 0.88109 0.84546 0.1684 0.0
C700 C 0.87392 0.80988 0.1711 0.0
C701 C 0.8542 0.86909 0.16241 0.0
C702 C 0.83986 0.79768 0.16625 0.0
C703 C 0.81271 0.82113 0.16048 0.0
H704 H 0.14275 0.91422 0.16751 0.0
H705 H 0.2243 0.83774 0.17614 0.0
H706 H 0.18318 0.79147 0.16238 0.0
H707 H 0.12227 0.77266 0.15446 0.0
H708 H 0.04091 0.8496 0.14555 0.0
H709 H 0.08374 0.89618 0.15218 0.0
C710 C 0.15142 0.88742 0.16592 0.0
C711 C 0.18604 0.87898 0.17323 0.0
C712 C 0.12772 0.86128 0.158 0.0
C713 C 0.19759 0.84449 0.17064 0.0
C714 C 0.1741 0.81817 0.16294 0.0
C715 C 0.11421 0.7997 0.15331 0.0
C716 C 0.07865 0.80789 0.14981 0.0
C717 C 0.13887 0.82619 0.1575 0.0
C718 C 0.06825 0.84284 0.1481 0.0
C719 C 0.09264 0.8694 0.15218 0.0
H720 H 0.72842 0.36312 0.39265 0.0
H721 H 0.66191 0.44379 0.4278 0.0
H722 H 0.61169 0.40476 0.42532 0.0
H723 H 0.58582 0.34936 0.40951 0.0
H724 H 0.65158 0.26804 0.37504 0.0
H725 H 0.70314 0.30549 0.38092 0.0
C726 C 0.70296 0.37195 0.40003 0.0
C727 C 0.69885 0.40633 0.41029 0.0
C728 C 0.67412 0.34939 0.39838 0.0
C729 C 0.66584 0.41738 0.42009 0.0
C730 C 0.63705 0.39518 0.41843 0.0
C731 C 0.61151 0.33992 0.40336 0.0
C732 C 0.61503 0.30634 0.39141 0.0
C733 C 0.64076 0.36144 0.40702 0.0
C734 C 0.64842 0.29389 0.38418 0.0
C735 C 0.67775 0.31532 0.38746 0.0
H736 H 0.64734 0.7297 0.41458 0.0
H737 H 0.55855 0.6609 0.42025 0.0
H738 H 0.59654 0.61062 0.414 0.0
H739 H 0.65417 0.58623 0.40325 0.0
H740 H 0.74385 0.65331 0.39838 0.0
H741 H 0.70669 0.70424 0.40834 0.0
C742 C 0.6365 0.70365 0.41472 0.0
C743 C 0.6002 0.69904 0.41793 0.0
C744 C 0.65863 0.67461 0.41119 0.0
C745 C 0.58643 0.66514 0.41822 0.0
C746 C 0.60809 0.63635 0.41444 0.0
C747 C 0.6655 0.61203 0.40468 0.0
C748 C 0.70143 0.61629 0.39986 0.0
C749 C 0.64407 0.64081 0.41042 0.0
C750 C 0.71617 0.64961 0.40215 0.0
C751 C 0.6949 0.67863 0.40762 0.0
H752 H 0.27813 0.63564 0.39753 0.0
H753 H 0.34947 0.54987 0.41078 0.0
H754 H 0.39896 0.58896 0.40594 0.0
H755 H 0.4223 0.64659 0.39596 0.0
H756 H 0.35257 0.73294 0.38132 0.0
H757 H 0.30207 0.69455 0.38858 0.0
C758 C 0.30451 0.62555 0.39938 0.0
C759 C 0.30993 0.58981 0.4047 0.0
C760 C 0.33313 0.64818 0.39608 0.0
C761 C 0.34435 0.57727 0.40733 0.0
C762 C 0.37277 0.59956 0.40424 0.0
C763 C 0.39607 0.65698 0.39402 0.0
C764 C 0.39114 0.6924 0.38761 0.0
C765 C 0.36747 0.63489 0.39825 0.0
C766 C 0.35698 0.70572 0.38615 0.0
C767 C 0.32817 0.68376 0.39025 0.0
H768 H 0.30446 0.37932 0.41629 0.0
H769 H 0.3237 0.38387 0.32258 0.0
H770 H 0.36605 0.3368 0.32665 0.0
H771 H 0.39965 0.29648 0.35681 0.0
H772 H 0.38123 0.29053 0.45059 0.0
H773 H 0.33669 0.33614 0.44657 0.0
C774 C 0.31762 0.36965 0.39676 0.0
C775 C 0.31113 0.38532 0.36919 0.0
C776 C 0.34225 0.34253 0.39929 0.0
C777 C 0.32864 0.37272 0.34411 0.0
C778 C 0.35277 0.34568 0.34639 0.0
C779 C 0.38545 0.30455 0.37636 0.0
C780 C 0.39367 0.28984 0.40393 0.0
C781 C 0.36007 0.3307 0.37388 0.0
C782 C 0.3756 0.30151 0.4291 0.0
C783 C 0.35004 0.32751 0.42679 0.0
H784 H 0.87883 0.80667 0.91786 0.0
H785 H 0.88221 0.82672 0.8243 0.0
H786 H 0.83485 0.86886 0.82906 0.0
H787 H 0.79444 0.90179 0.8599 0.0
H788 H 0.79147 0.88405 0.95381 0.0
H789 H 0.83669 0.8391 0.94895 0.0
C790 C 0.86884 0.82004 0.89855 0.0
C791 C 0.88404 0.81376 0.87078 0.0
C792 C 0.84183 0.84463 0.90155 0.0
C793 C 0.87124 0.83151 0.84593 0.0
C794 C 0.84407 0.85546 0.84862 0.0
C795 C 0.80319 0.88763 0.87925 0.0
C796 C 0.78938 0.8959 0.90712 0.0
C797 C 0.82943 0.86245 0.87633 0.0
C798 C 0.80171 0.87805 0.93212 0.0
C799 C 0.82752 0.8524 0.92933 0.0
H800 H 0.20984 0.84628 0.88697 0.0
H801 H 0.13668 0.93156 0.89096 0.0
H802 H 0.08894 0.89136 0.9002 0.0
H803 H 0.06722 0.83221 0.90415 0.0
H804 H 0.1388 0.74569 0.89954 0.0
H805 H 0.18791 0.78599 0.89367 0.0
C806 C 0.18347 0.8559 0.89013 0.0
C807 C 0.1767 0.89175 0.88779 0.0
C808 C 0.15588 0.83246 0.89527 0.0
C809 C 0.14242 0.90401 0.89192 0.0
C810 C 0.11512 0.88108 0.89742 0.0
C811 C 0.09363 0.82212 0.90254 0.0
C812 C 0.09937 0.78605 0.90245 0.0
C813 C 0.12145 0.84528 0.89872 0.0
C814 C 0.13371 0.77341 0.89956 0.0
C815 C 0.16177 0.79642 0.8962 0.0
H816 H 0.2297 0.13293 0.90268 0.0
H817 H 0.1581 0.04649 0.9077 0.0
H818 H 0.10918 0.085 0.89675 0.0
H819 H 0.0869 0.14271 0.88354 0.0
H820 H 0.1574 0.22975 0.87943 0.0
H821 H 0.20668 0.1917 0.89208 0.0
C822 C 0.20333 0.12269 0.90158 0.0
C823 C 0.19751 0.087 0.90613 0.0
C824 C 0.17522 0.145 0.89515 0.0
C825 C 0.16321 0.07399 0.90478 0.0
C826 C 0.13523 0.0959 0.89823 0.0
C827 C 0.11312 0.15318 0.8853 0.0
C828 C 0.11878 0.18871 0.88025 0.0
C829 C 0.141 0.13132 0.89298 0.0
C830 C 0.15262 0.20237 0.88323 0.0
C831 C 0.18071 0.18065 0.89041 0.0
H832 H 0.79223 0.14492 0.88193 0.0
H833 H 0.86761 0.06153 0.88604 0.0
H834 H 0.91458 0.10319 0.89349 0.0
H835 H 0.93481 0.16304 0.89698 0.0
H836 H 0.8608 0.24752 0.89256 0.0
H837 H 0.81274 0.20583 0.88719 0.0
C838 C 0.81892 0.13599 0.88467 0.0
C839 C 0.82644 0.10021 0.88303 0.0
C840 C 0.84604 0.16025 0.88889 0.0
C841 C 0.86118 0.08895 0.88652 0.0
C842 C 0.88807 0.11273 0.89102 0.0
C843 C 0.9081 0.17237 0.89541 0.0
C844 C 0.90134 0.20828 0.89541 0.0
C845 C 0.88086 0.1484 0.89199 0.0
C846 C 0.86666 0.21995 0.89255 0.0
C847 C 0.8392 0.19614 0.88951 0.0
H848 H 0.41546 0.64535 0.68466 0.0
H849 H 0.34672 0.73373 0.69092 0.0
H850 H 0.29632 0.69658 0.67944 0.0
H851 H 0.27177 0.63802 0.6696 0.0
H852 H 0.34181 0.55046 0.66189 0.0
H853 H 0.39173 0.58811 0.67167 0.0
C854 C 0.38939 0.65636 0.68355 0.0
C855 C 0.38459 0.692 0.68897 0.0
C856 C 0.36085 0.63498 0.67655 0.0
C857 C 0.35089 0.70628 0.68682 0.0
C858 C 0.32215 0.68504 0.68036 0.0
C859 C 0.29802 0.62735 0.66987 0.0
C860 C 0.30308 0.59154 0.66493 0.0
C861 C 0.32677 0.64924 0.67545 0.0
C862 C 0.33724 0.57801 0.66518 0.0
C863 C 0.3658 0.59946 0.67102 0.0
H864 H 0.35369 0.41306 0.67817 0.0
H865 H 0.26704 0.34469 0.69539 0.0
H866 H 0.30541 0.29391 0.68915 0.0
H867 H 0.36454 0.26943 0.68048 0.0
H868 H 0.45039 0.33941 0.66356 0.0
H869 H 0.41134 0.3891 0.66779 0.0
C870 C 0.34326 0.38705 0.6808 0.0
C871 C 0.30779 0.38255 0.68773 0.0
C872 C 0.36532 0.35831 0.67705 0.0
C873 C 0.29433 0.3487 0.69016 0.0
C874 C 0.31627 0.31976 0.68666 0.0
C875 C 0.3746 0.29557 0.67765 0.0
C876 C 0.41035 0.3006 0.67156 0.0
C877 C 0.35194 0.32428 0.68035 0.0
C878 C 0.42294 0.33465 0.66772 0.0
C879 C 0.40069 0.36317 0.67041 0.0
H880 H 0.5857 0.34908 0.68569 0.0
H881 H 0.65621 0.26178 0.68499 0.0
H882 H 0.7052 0.30056 0.67331 0.0
H883 H 0.72815 0.36013 0.66583 0.0
H884 H 0.65637 0.44677 0.66548 0.0
H885 H 0.60763 0.40752 0.67474 0.0
C886 C 0.61184 0.33866 0.68297 0.0
C887 C 0.6176 0.30285 0.68654 0.0
C888 C 0.63954 0.36099 0.67598 0.0
C889 C 0.65133 0.28935 0.68233 0.0
C890 C 0.67926 0.31151 0.67577 0.0
C891 C 0.70177 0.37026 0.66756 0.0
C892 C 0.69586 0.40627 0.66492 0.0
C893 C 0.67374 0.34747 0.67289 0.0
C894 C 0.66155 0.41911 0.66701 0.0
C895 C 0.63368 0.39674 0.67256 0.0
H896 H 0.56983 0.66039 0.66939 0.0
H897 H 0.6429 0.74555 0.66673 0.0
H898 H 0.6919 0.70457 0.6696 0.0
H899 H 0.71368 0.64444 0.67696 0.0
H900 H 0.63981 0.56036 0.68302 0.0
H901 H 0.59142 0.60068 0.67441 0.0
C902 C 0.59651 0.66988 0.66884 0.0
C903 C 0.60281 0.70585 0.66773 0.0
C904 C 0.62438 0.6463 0.67133 0.0
C905 C 0.63748 0.71791 0.66765 0.0
C906 C 0.66545 0.69452 0.66931 0.0
C907 C 0.68698 0.6351 0.67589 0.0
C908 C 0.68013 0.59966 0.68068 0.0
C909 C 0.65921 0.65866 0.67176 0.0
C910 C 0.64549 0.58766 0.67964 0.0
C911 C 0.6179 0.61066 0.6747 0.0
H912 H 0.17313 0.43513 0.2829 0.0
H913 H 0.13132 0.38616 0.3609 0.0
H914 H 0.09835 0.3455 0.32986 0.0
H915 H 0.0796 0.32574 0.28078 0.0
H916 H 0.12102 0.37491 0.20273 0.0
H917 H 0.15641 0.41357 0.23375 0.0
C918 C 0.15686 0.41553 0.2932 0.0
C919 C 0.15449 0.41387 0.32426 0.0
C920 C 0.13803 0.39232 0.27521 0.0
C921 C 0.13358 0.38806 0.33712 0.0
C922 C 0.1147 0.36485 0.31936 0.0
C923 C 0.09652 0.34476 0.27045 0.0
C924 C 0.09753 0.34752 0.2394 0.0
C925 C 0.11648 0.36701 0.28841 0.0
C926 C 0.11982 0.37214 0.2265 0.0
C927 C 0.1399 0.39436 0.24425 0.0
H928 H 0.67072 0.07366 0.28796 0.0
H929 H 0.62927 0.124 0.21028 0.0
H930 H 0.59397 0.16234 0.24154 0.0
H931 H 0.57292 0.17955 0.29065 0.0
H932 H 0.61364 0.12865 0.36833 0.0
H933 H 0.65151 0.09261 0.33723 0.0
C934 C 0.65409 0.09311 0.27777 0.0
C935 C 0.65257 0.09579 0.24669 0.0
C936 C 0.63376 0.1149 0.29589 0.0
C937 C 0.63102 0.12135 0.23404 0.0
C938 C 0.61076 0.14321 0.25193 0.0
C939 C 0.59022 0.16073 0.3009 0.0
C940 C 0.59028 0.15676 0.3319 0.0
C941 C 0.61164 0.13993 0.28285 0.0
C942 C 0.61306 0.13234 0.34464 0.0
C943 C 0.63462 0.11164 0.32682 0.0
H944 H 0.82765 0.56767 0.28321 0.0
H945 H 0.87785 0.60781 0.36159 0.0
H946 H 0.91279 0.64722 0.33123 0.0
H947 H 0.9304 0.66871 0.28241 0.0
H948 H 0.88032 0.62835 0.20405 0.0
H949 H 0.84383 0.59055 0.23456 0.0
C950 C 0.84614 0.5851 0.29375 0.0
C951 C 0.85019 0.58466 0.3247 0.0
C952 C 0.86617 0.60757 0.27615 0.0
C953 C 0.87415 0.60761 0.33788 0.0
C954 C 0.8942 0.63008 0.3205 0.0
C955 C 0.91143 0.65174 0.27194 0.0
C956 C 0.90822 0.6513 0.2409 0.0
C957 C 0.89063 0.63005 0.28961 0.0
C958 C 0.88334 0.62927 0.22782 0.0
C959 C 0.86252 0.60759 0.24527 0.0
H960 H 0.43111 0.8236 0.29414 0.0
H961 H 0.3908 0.86988 0.37402 0.0
H962 H 0.3493 0.90415 0.34489 0.0
H963 H 0.32628 0.92269 0.29669 0.0
H964 H 0.36714 0.87683 0.21682 0.0
H965 H 0.40656 0.84044 0.24612 0.0
C966 C 0.41318 0.84107 0.30528 0.0
C967 C 0.41423 0.84425 0.3363 0.0
C968 C 0.38953 0.86077 0.28837 0.0
C969 C 0.3906 0.86688 0.35024 0.0
C970 C 0.3669 0.88655 0.33356 0.0
C971 C 0.34364 0.9046 0.28562 0.0
C972 C 0.34376 0.90261 0.2545 0.0
C973 C 0.3664 0.88395 0.3026 0.0
C974 C 0.3664 0.87889 0.24066 0.0
C975 C 0.38904 0.85815 0.25742 0.0
H976 H 0.92163 0.67596 0.78196 0.0
H977 H 0.87657 0.63111 0.86043 0.0
H978 H 0.84005 0.59312 0.82976 0.0
H979 H 0.82391 0.57025 0.7809 0.0
H980 H 0.86961 0.61458 0.70247 0.0
H981 H 0.903 0.65541 0.73303 0.0
C982 C 0.90363 0.65806 0.79243 0.0
C983 C 0.90199 0.65625 0.82352 0.0
C984 C 0.88307 0.63613 0.77468 0.0
C985 C 0.87829 0.63312 0.83663 0.0
C986 C 0.85757 0.61128 0.81907 0.0
C987 C 0.84106 0.58893 0.7704 0.0
C988 C 0.84447 0.58915 0.73937 0.0
C989 C 0.86021 0.61216 0.78811 0.0
C990 C 0.86651 0.61381 0.72622 0.0
C991 C 0.88566 0.63708 0.74372 0.0
H992 H 0.42709 0.8229 0.79137 0.0
H993 H 0.38463 0.86897 0.71218 0.0
H994 H 0.34351 0.90287 0.74202 0.0
H995 H 0.32191 0.92149 0.79058 0.0
H996 H 0.36522 0.87619 0.86978 0.0
H997 H 0.40365 0.83952 0.83978 0.0
C998 C 0.40877 0.84024 0.78054 0.0
C999 C 0.40913 0.84355 0.74951 0.0
C1000 C 0.38541 0.85973 0.79783 0.0
C1001 C 0.38496 0.86594 0.73595 0.0
C1002 C 0.36151 0.88537 0.75303 0.0
C1003 C 0.33956 0.90343 0.80137 0.0
C1004 C 0.34075 0.90172 0.83248 0.0
C1005 C 0.36182 0.88277 0.78399 0.0
C1006 C 0.36367 0.878 0.84595 0.0
C1007 C 0.38576 0.85715 0.82879 0.0
H1008 H 0.07814 0.323 0.78129 0.0
H1009 H 0.12226 0.36913 0.85989 0.0
H1010 H 0.15919 0.4066 0.82929 0.0
H1011 H 0.17621 0.42838 0.78034 0.0
H1012 H 0.13111 0.38279 0.70188 0.0
H1013 H 0.09716 0.34278 0.73246 0.0
C1014 C 0.09598 0.34108 0.79184 0.0
C1015 C 0.09728 0.34336 0.82293 0.0
C1016 C 0.11674 0.36271 0.77412 0.0
C1017 C 0.12078 0.36677 0.83609 0.0
C1018 C 0.14175 0.38829 0.81857 0.0
C1019 C 0.15908 0.4096 0.76984 0.0
C1020 C 0.15606 0.40878 0.73876 0.0
C1021 C 0.13953 0.38684 0.78758 0.0
C1022 C 0.13393 0.38406 0.72565 0.0
C1023 C 0.11446 0.36122 0.74316 0.0
H1024 H 0.57745 0.17214 0.78949 0.0
H1025 H 0.61711 0.12294 0.71062 0.0
H1026 H 0.6584 0.08925 0.74053 0.0
H1027 H 0.68079 0.07162 0.78917 0.0
H1028 H 0.64026 0.12015 0.86803 0.0
H1029 H 0.60185 0.15665 0.83786 0.0
C1030 C 0.5952 0.15415 0.77873 0.0
C1031 C 0.59398 0.14989 0.74779 0.0
C1032 C 0.61867 0.13481 0.79607 0.0
C1033 C 0.61744 0.12671 0.73432 0.0
C1034 C 0.64099 0.1074 0.75145 0.0
C1035 C 0.66378 0.09038 0.79983 0.0
C1036 C 0.66334 0.09301 0.83092 0.0
C1037 C 0.6415 0.11093 0.78236 0.0
C1038 C 0.64123 0.11761 0.84423 0.0
C1039 C 0.61914 0.13836 0.82696 0.0
H1040 H 0.04871 0.55493 0.17679 0.0
H1041 H 0.94319 0.57179 0.14594 0.0
H1042 H 0.93337 0.50924 0.14463 0.0
H1043 H 0.9545 0.45023 0.15277 0.0
H1044 H 0.0617 0.43394 0.18032 0.0
H1045 H 0.07081 0.49597 0.18219 0.0
C1046 C 0.02371 0.5451 0.1693 0.0
C1047 C 0.99675 0.56825 0.16163 0.0
C1048 C 0.01837 0.50914 0.16812 0.0
C1049 C 0.9643 0.55475 0.1525 0.0
C1050 C 0.95869 0.51891 0.15156 0.0
C1051 C 0.98003 0.45987 0.15894 0.0
C1052 C 0.0071 0.43666 0.16656 0.0
C1053 C 0.98553 0.49589 0.15947 0.0
C1054 C 0.03988 0.45045 0.17471 0.0
C1055 C 0.04535 0.48624 0.17565 0.0
H1056 H 0.44575 0.04703 0.18642 0.0
H1057 H 0.42913 0.93671 0.17437 0.0
H1058 H 0.49134 0.92855 0.16565 0.0
H1059 H 0.55122 0.95265 0.16307 0.0
H1060 H 0.56711 0.06202 0.17908 0.0
H1061 H 0.50438 0.07051 0.18543 0.0
C1062 C 0.45546 0.02102 0.18235 0.0
C1063 C 0.43237 0.99261 0.18131 0.0
C1064 C 0.49133 0.0163 0.17825 0.0
C1065 C 0.4459 0.95929 0.17512 0.0
C1066 C 0.48165 0.95448 0.17029 0.0
C1067 C 0.54069 0.97823 0.16788 0.0
C1068 C 0.56344 0.00665 0.17078 0.0
C1069 C 0.50463 0.98279 0.17199 0.0
C1070 C 0.54993 0.03976 0.17718 0.0
C1071 C 0.51415 0.04463 0.18064 0.0
H1072 H 0.54388 0.05935 0.39682 0.0
H1073 H 0.432 0.05734 0.3876 0.0
H1074 H 0.43281 0.9936 0.38529 0.0
H1075 H 0.46496 0.93854 0.39137 0.0
H1076 H 0.57612 0.94063 0.40597 0.0
H1077 H 0.57644 0.00407 0.40056 0.0
C1078 C 0.51991 0.04479 0.39362 0.0
C1079 C 0.48795 0.06265 0.39213 0.0
C1080 C 0.52055 0.00823 0.39364 0.0
C1081 C 0.45681 0.04382 0.38868 0.0
C1082 C 0.45731 0.00751 0.38748 0.0
C1083 C 0.48926 0.95295 0.39273 0.0
C1084 C 0.5205 0.9352 0.39894 0.0
C1085 C 0.48893 0.98942 0.39072 0.0
C1086 C 0.55182 0.954 0.40127 0.0
C1087 C 0.55196 0.99017 0.39821 0.0
H1088 H 0.9442 0.53334 0.4083 0.0
H1089 H 0.94918 0.43469 0.36294 0.0
H1090 H 0.01276 0.43724 0.36299 0.0
H1091 H 0.06693 0.46584 0.37806 0.0
H1092 H 0.06277 0.56478 0.42298 0.0
H1093 H 0.99895 0.56386 0.42082 0.0
C1094 C 0.95919 0.51267 0.39808 0.0
C1095 C 0.94186 0.4837 0.38593 0.0
C1096 C 0.99593 0.51425 0.39821 0.0
C1097 C 0.96178 0.45695 0.373 0.0
C1098 C 0.99819 0.45846 0.37285 0.0
C1099 C 0.05219 0.48755 0.3869 0.0
C1100 C 0.06973 0.51529 0.40073 0.0
C1101 C 0.01555 0.48676 0.38571 0.0
C1102 C 0.04997 0.54287 0.41254 0.0
C1103 C 0.01345 0.54242 0.41123 0.0
H1104 H 0.04556 0.55338 0.89817 0.0
H1105 H 0.93412 0.56765 0.89352 0.0
H1106 H 0.92549 0.50451 0.89156 0.0
H1107 H 0.94998 0.44515 0.89368 0.0
H1108 H 0.06155 0.43097 0.89498 0.0
H1109 H 0.07022 0.49412 0.89553 0.0
C1110 C 0.01952 0.54243 0.89654 0.0
C1111 C 0.99048 0.56468 0.8962 0.0
C1112 C 0.01492 0.5063 0.89488 0.0
C1113 C 0.95674 0.5507 0.8937 0.0
C1114 C 0.95185 0.51474 0.89272 0.0
C1115 C 0.97607 0.45613 0.89387 0.0
C1116 C 0.0051 0.43387 0.89447 0.0
C1117 C 0.98074 0.4923 0.89366 0.0
C1118 C 0.03894 0.44792 0.89437 0.0
C1119 C 0.04385 0.48388 0.89484 0.0
H1120 H 0.5551 0.95212 0.90296 0.0
H1121 H 0.5695 0.0626 0.89397 0.0
H1122 H 0.50605 0.07115 0.89142 0.0
H1123 H 0.44641 0.04712 0.89578 0.0
H1124 H 0.43221 0.93629 0.90191 0.0
H1125 H 0.49562 0.92753 0.90132 0.0
C1126 C 0.54413 0.97792 0.9001 0.0
C1127 C 0.56651 0.00674 0.8989 0.0
C1128 C 0.50783 0.98244 0.8983 0.0
C1129 C 0.55249 0.04013 0.89482 0.0
C1130 C 0.51633 0.04499 0.89356 0.0
C1131 C 0.45742 0.02114 0.89666 0.0
C1132 C 0.43507 0.99239 0.89914 0.0
C1133 C 0.49376 0.01638 0.89588 0.0
C1134 C 0.44918 0.95869 0.8999 0.0
C1135 C 0.48532 0.95374 0.89972 0.0
H1136 H 0.45968 0.93769 0.68549 0.0
H1137 H 0.57211 0.93749 0.68326 0.0
H1138 H 0.57284 0.00118 0.68601 0.0
H1139 H 0.54116 0.05695 0.68489 0.0
H1140 H 0.42869 0.05724 0.68248 0.0
H1141 H 0.42795 0.9936 0.68586 0.0
C1142 C 0.48423 0.95173 0.68617 0.0
C1143 C 0.51582 0.93321 0.68437 0.0
C1144 C 0.48431 0.98829 0.68666 0.0
C1145 C 0.54757 0.95145 0.68462 0.0
C1146 C 0.54795 0.98775 0.68615 0.0
C1147 C 0.51657 0.04299 0.68565 0.0
C1148 C 0.48501 0.06153 0.68358 0.0
C1149 C 0.51647 0.00647 0.68659 0.0
C1150 C 0.45324 0.0433 0.68396 0.0
C1151 C 0.45284 0.00702 0.68589 0.0
H1152 H 0.94028 0.54004 0.6734 0.0
H1153 H 0.93837 0.42817 0.67042 0.0
H1154 H 0.00231 0.4263 0.67375 0.0
H1155 H 0.05899 0.45691 0.67315 0.0
H1156 H 0.06086 0.56878 0.67083 0.0
H1157 H 0.99694 0.57064 0.67421 0.0
C1158 C 0.954 0.51536 0.67404 0.0
C1159 C 0.93492 0.48426 0.67186 0.0
C1160 C 0.99073 0.51463 0.67481 0.0
C1161 C 0.95276 0.45234 0.67207 0.0
C1162 C 0.98921 0.45131 0.67394 0.0
C1163 C 0.04526 0.48158 0.67397 0.0
C1164 C 0.06432 0.51269 0.67198 0.0
C1165 C 0.00852 0.48231 0.67471 0.0
C1166 C 0.04648 0.54461 0.67239 0.0
C1167 C 0.01004 0.54563 0.67425 0.0
loop_
_geom_bond_atom_site_label_1
_geom_bond_atom_site_label_2
_geom_bond_distance
_geom_bond_site_symmetry_2
_ccdc_geom_bond_type
C0 C1 1.351 . S
C0 N3 1.368 . S
C0 H5 0.931 . S
C1 C0 1.351 . S
C1 N2 1.373 . S
C1 H29 0.930 . S
N2 C1 1.373 . S
N2 C4 1.340 . S
N3 C0 1.368 . S
N3 C4 1.321 . S
N3 Co6 2.135 . S
C4 N2 1.340 . S
C4 N3 1.321 . S
C4 H28 0.930 . S
H5 C0 0.931 . S
Co6 N3 2.135 . S
Co6 N9 2.121 . S
Co6 O14 2.055 . S
Co6 O17 2.039 . S
Co6 N20 2.140 . S
C7 O8 1.227 . S
C7 O17 1.265 . S
O8 C7 1.227 . S
N9 Co6 2.121 . S
N9 C11 1.375 . S
N9 C12 1.313 . S
C10 C11 1.338 . S
C10 N13 1.377 . S
C10 H30 0.930 . S
C11 N9 1.375 . S
C11 C10 1.338 . S
C11 H15 0.931 . S
C12 N9 1.313 . S
C12 N13 1.344 . S
C12 H16 0.930 . S
N13 C10 1.377 . S
N13 C12 1.344 . S
O14 Co6 2.055 . S
O14 C18 1.253 . S
H15 C11 0.931 . S
H16 C12 0.930 . S
O17 Co6 2.039 . S
O17 C7 1.265 . S
C18 O14 1.253 . S
C18 O19 1.227 . S
O19 C18 1.227 . S
N20 Co6 2.140 . S
N20 C23 1.346 . S
N20 C24 1.345 . S
C21 C22 1.387 1_655 S
C21 C25 1.391 . S
C22 C21 1.387 1_455 S
C22 C23 1.369 . S
C22 H31 0.929 1_455 S
C23 N20 1.346 . S
C23 C22 1.369 . S
C23 H26 0.928 . S
C24 N20 1.345 . S
C24 C25 1.371 1_455 S
C24 H27 0.931 . S
C25 C21 1.391 . S
C25 C24 1.371 1_655 S
C25 H32 0.930 . S
H26 C23 0.928 . S
H27 C24 0.931 . S
H28 C4 0.930 . S
H29 C1 0.930 . S
H30 C10 0.930 . S
H31 C22 0.929 1_655 S
H32 C25 0.930 . S
C33 C34 1.351 . S
C33 N36 1.368 . S
C33 H38 0.931 . S
C34 C33 1.351 . S
C34 N35 1.373 . S
C34 H62 0.930 . S
N35 C34 1.373 . S
N35 C37 1.340 . S
N36 C33 1.368 . S
N36 C37 1.321 . S
N36 Co39 2.135 . S
C37 N35 1.340 . S
C37 N36 1.321 . S
C37 H61 0.930 . S
H38 C33 0.931 . S
Co39 N36 2.135 . S
Co39 N42 2.121 . S
Co39 O47 2.055 . S
Co39 O50 2.039 . S
Co39 N53 2.140 . S
C40 O41 1.227 . S
C40 O50 1.265 . S
O41 C40 1.227 . S
N42 Co39 2.121 . S
N42 C44 1.375 . S
N42 C45 1.313 . S
C43 C44 1.338 . S
C43 N46 1.377 . S
C43 H63 0.930 . S
C44 N42 1.375 . S
C44 C43 1.338 . S
C44 H48 0.931 . S
C45 N42 1.313 . S
C45 N46 1.344 . S
C45 H49 0.930 . S
N46 C43 1.377 . S
N46 C45 1.344 . S
O47 Co39 2.055 . S
O47 C51 1.253 . S
H48 C44 0.931 . S
H49 C45 0.930 . S
O50 Co39 2.039 . S
O50 C40 1.265 . S
C51 O47 1.253 . S
C51 O52 1.227 . S
O52 C51 1.227 . S
N53 Co39 2.140 . S
N53 C56 1.346 . S
N53 C57 1.345 . S
C54 C55 1.387 1_565 S
C54 C58 1.391 . S
C55 C54 1.387 1_545 S
C55 C56 1.369 . S
C55 H64 0.929 1_545 S
C56 N53 1.346 . S
C56 C55 1.369 . S
C56 H59 0.928 . S
C57 N53 1.345 . S
C57 C58 1.371 1_545 S
C57 H60 0.931 . S
C58 C54 1.391 . S
C58 C57 1.371 1_565 S
C58 H65 0.930 . S
H59 C56 0.928 . S
H60 C57 0.931 . S
H61 C37 0.930 . S
H62 C34 0.930 . S
H63 C43 0.930 . S
H64 C55 0.929 1_565 S
H65 C58 0.930 . S
C66 C67 1.351 . S
C66 N69 1.368 . S
C66 H71 0.931 . S
C67 C66 1.351 . S
C67 N68 1.373 . S
C67 H95 0.930 . S
N68 C67 1.373 . S
N68 C70 1.340 . S
N69 C66 1.368 . S
N69 C70 1.321 . S
N69 Co72 2.135 . S
C70 N68 1.340 . S
C70 N69 1.321 . S
C70 H94 0.930 . S
H71 C66 0.931 . S
Co72 N69 2.135 . S
Co72 N75 2.121 . S
Co72 O80 2.055 . S
Co72 O83 2.039 . S
Co72 N86 2.140 . S
C73 O74 1.227 . S
C73 O83 1.265 . S
O74 C73 1.227 . S
N75 Co72 2.121 . S
N75 C77 1.375 . S
N75 C78 1.313 . S
C76 C77 1.338 . S
C76 N79 1.377 . S
C76 H96 0.930 . S
C77 N75 1.375 . S
C77 C76 1.338 . S
C77 H81 0.931 . S
C78 N75 1.313 . S
C78 N79 1.344 . S
C78 H82 0.930 . S
N79 C76 1.377 . S
N79 C78 1.344 . S
O80 Co72 2.055 . S
O80 C84 1.253 . S
H81 C77 0.931 . S
H82 C78 0.930 . S
O83 Co72 2.039 . S
O83 C73 1.265 . S
C84 O80 1.253 . S
C84 O85 1.227 . S
O85 C84 1.227 . S
N86 Co72 2.140 . S
N86 C89 1.346 . S
N86 C90 1.345 . S
C87 C88 1.387 1_455 S
C87 C91 1.391 . S
C88 C87 1.387 1_655 S
C88 C89 1.369 . S
C88 H97 0.929 1_655 S
C89 N86 1.346 . S
C89 C88 1.369 . S
C89 H92 0.928 . S
C90 N86 1.345 . S
C90 C91 1.371 1_655 S
C90 H93 0.931 . S
C91 C87 1.391 . S
C91 C90 1.371 1_455 S
C91 H98 0.930 . S
H92 C89 0.928 . S
H93 C90 0.931 . S
H94 C70 0.930 . S
H95 C67 0.930 . S
H96 C76 0.930 . S
H97 C88 0.929 1_455 S
H98 C91 0.930 . S
C99 C100 1.351 . S
C99 N102 1.368 . S
C99 H104 0.931 . S
C100 C99 1.351 . S
C100 N101 1.373 . S
C100 H128 0.930 . S
N101 C100 1.373 . S
N101 C103 1.340 . S
N102 C99 1.368 . S
N102 C103 1.321 . S
N102 Co105 2.135 . S
C103 N101 1.340 . S
C103 N102 1.321 . S
C103 H127 0.930 . S
H104 C99 0.931 . S
Co105 N102 2.135 . S
Co105 N108 2.121 . S
Co105 O113 2.055 . S
Co105 O116 2.039 . S
Co105 N119 2.140 . S
C106 O107 1.227 . S
C106 O116 1.265 . S
O107 C106 1.227 . S
N108 Co105 2.121 . S
N108 C110 1.375 . S
N108 C111 1.313 . S
C109 C110 1.338 . S
C109 N112 1.377 . S
C109 H129 0.930 . S
C110 N108 1.375 . S
C110 C109 1.338 . S
C110 H114 0.931 . S
C111 N108 1.313 . S
C111 N112 1.344 . S
C111 H115 0.930 . S
N112 C109 1.377 . S
N112 C111 1.344 . S
O113 Co105 2.055 . S
O113 C117 1.253 . S
H114 C110 0.931 . S
H115 C111 0.930 . S
O116 Co105 2.039 . S
O116 C106 1.265 . S
C117 O113 1.253 . S
C117 O118 1.227 . S
O118 C117 1.227 . S
N119 Co105 2.140 . S
N119 C122 1.346 . S
N119 C123 1.345 . S
C120 C121 1.387 1_545 S
C120 C124 1.391 . S
C121 C120 1.387 1_565 S
C121 C122 1.369 . S
C121 H130 0.929 1_565 S
C122 N119 1.346 . S
C122 C121 1.369 . S
C122 H125 0.928 . S
C123 N119 1.345 . S
C123 C124 1.371 1_565 S
C123 H126 0.931 . S
C124 C120 1.391 . S
C124 C123 1.371 1_545 S
C124 H131 0.930 . S
H125 C122 0.928 . S
H126 C123 0.931 . S
H127 C103 0.930 . S
H128 C100 0.930 . S
H129 C109 0.930 . S
H130 C121 0.929 1_545 S
H131 C124 0.930 . S
C132 C133 1.351 . S
C132 N135 1.368 . S
C132 H137 0.931 . S
C133 C132 1.351 . S
C133 N134 1.373 . S
C133 H161 0.930 . S
N134 C133 1.373 . S
N134 C136 1.340 . S
N135 C132 1.368 . S
N135 C136 1.321 . S
N135 Co138 2.135 . S
C136 N134 1.340 . S
C136 N135 1.321 . S
C136 H160 0.930 . S
H137 C132 0.931 . S
Co138 N135 2.135 . S
Co138 N141 2.121 . S
Co138 O146 2.055 . S
Co138 O149 2.039 . S
Co138 N152 2.140 . S
C139 O140 1.227 . S
C139 O149 1.265 . S
O140 C139 1.227 . S
N141 Co138 2.121 . S
N141 C143 1.375 . S
N141 C144 1.313 . S
C142 C143 1.338 . S
C142 N145 1.377 . S
C142 H162 0.930 . S
C143 N141 1.375 . S
C143 C142 1.338 . S
C143 H147 0.931 . S
C144 N141 1.313 . S
C144 N145 1.344 . S
C144 H148 0.930 . S
N145 C142 1.377 . S
N145 C144 1.344 . S
O146 Co138 2.055 . S
O146 C150 1.253 . S
H147 C143 0.931 . S
H148 C144 0.930 . S
O149 Co138 2.039 . S
O149 C139 1.265 . S
C150 O146 1.253 . S
C150 O151 1.227 . S
O151 C150 1.227 . S
N152 Co138 2.140 . S
N152 C155 1.346 . S
N152 C156 1.345 . S
C153 C154 1.387 . S
C153 C157 1.391 . S
C154 C153 1.387 . S
C154 C155 1.369 . S
C154 H163 0.929 . S
C155 N152 1.346 . S
C155 C154 1.369 . S
C155 H158 0.928 . S
C156 N152 1.345 . S
C156 C157 1.371 . S
C156 H159 0.931 . S
C157 C153 1.391 . S
C157 C156 1.371 . S
C157 H164 0.930 . S
H158 C155 0.928 . S
H159 C156 0.931 . S
H160 C136 0.930 . S
H161 C133 0.930 . S
H162 C142 0.930 . S
H163 C154 0.929 . S
H164 C157 0.930 . S
C165 C166 1.351 . S
C165 N168 1.368 . S
C165 H170 0.931 . S
C166 C165 1.351 . S
C166 N167 1.373 . S
C166 H194 0.930 . S
N167 C166 1.373 . S
N167 C169 1.340 . S
N168 C165 1.368 . S
N168 C169 1.321 . S
N168 Co171 2.135 . S
C169 N167 1.340 . S
C169 N168 1.321 . S
C169 H193 0.930 . S
H170 C165 0.931 . S
Co171 N168 2.135 . S
Co171 N174 2.121 . S
Co171 O179 2.055 . S
Co171 O182 2.039 . S
Co171 N185 2.140 . S
C172 O173 1.227 . S
C172 O182 1.265 . S
O173 C172 1.227 . S
N174 Co171 2.121 . S
N174 C176 1.375 . S
N174 C177 1.313 . S
C175 C176 1.338 . S
C175 N178 1.377 . S
C175 H195 0.930 . S
C176 N174 1.375 . S
C176 C175 1.338 . S
C176 H180 0.931 . S
C177 N174 1.313 . S
C177 N178 1.344 . S
C177 H181 0.930 . S
N178 C175 1.377 . S
N178 C177 1.344 . S
O179 Co171 2.055 . S
O179 C183 1.253 . S
H180 C176 0.931 . S
H181 C177 0.930 . S
O182 Co171 2.039 . S
O182 C172 1.265 . S
C183 O179 1.253 . S
C183 O184 1.227 . S
O184 C183 1.227 . S
N185 Co171 2.140 . S
N185 C188 1.346 . S
N185 C189 1.345 . S
C186 C187 1.387 . S
C186 C190 1.391 . S
C187 C186 1.387 . S
C187 C188 1.369 . S
C187 H196 0.929 . S
C188 N185 1.346 . S
C188 C187 1.369 . S
C188 H191 0.928 . S
C189 N185 1.345 . S
C189 C190 1.371 . S
C189 H192 0.931 . S
C190 C186 1.391 . S
C190 C189 1.371 . S
C190 H197 0.930 . S
H191 C188 0.928 . S
H192 C189 0.931 . S
H193 C169 0.930 . S
H194 C166 0.930 . S
H195 C175 0.930 . S
H196 C187 0.929 . S
H197 C190 0.930 . S
C198 C199 1.351 . S
C198 N201 1.368 . S
C198 H203 0.931 . S
C199 C198 1.351 . S
C199 N200 1.373 . S
C199 H227 0.930 . S
N200 C199 1.373 . S
N200 C202 1.340 . S
N201 C198 1.368 . S
N201 C202 1.321 . S
N201 Co204 2.135 . S
C202 N200 1.340 . S
C202 N201 1.321 . S
C202 H226 0.930 . S
H203 C198 0.931 . S
Co204 N201 2.135 . S
Co204 N207 2.121 . S
Co204 O212 2.055 . S
Co204 O215 2.039 . S
Co204 N218 2.140 . S
C205 O206 1.227 . S
C205 O215 1.265 . S
O206 C205 1.227 . S
N207 Co204 2.121 . S
N207 C209 1.375 . S
N207 C210 1.313 . S
C208 C209 1.338 . S
C208 N211 1.377 . S
C208 H228 0.930 . S
C209 N207 1.375 . S
C209 C208 1.338 . S
C209 H213 0.931 . S
C210 N207 1.313 . S
C210 N211 1.344 . S
C210 H214 0.930 . S
N211 C208 1.377 . S
N211 C210 1.344 . S
O212 Co204 2.055 . S
O212 C216 1.253 . S
H213 C209 0.931 . S
H214 C210 0.930 . S
O215 Co204 2.039 . S
O215 C205 1.265 . S
C216 O212 1.253 . S
C216 O217 1.227 . S
O217 C216 1.227 . S
N218 Co204 2.140 . S
N218 C221 1.346 . S
N218 C222 1.345 . S
C219 C220 1.387 . S
C219 C223 1.391 . S
C220 C219 1.387 . S
C220 C221 1.369 . S
C220 H229 0.929 . S
C221 N218 1.346 . S
C221 C220 1.369 . S
C221 H224 0.928 . S
C222 N218 1.345 . S
C222 C223 1.371 . S
C222 H225 0.931 . S
C223 C219 1.391 . S
C223 C222 1.371 . S
C223 H230 0.930 . S
H224 C221 0.928 . S
H225 C222 0.931 . S
H226 C202 0.930 . S
H227 C199 0.930 . S
H228 C208 0.930 . S
H229 C220 0.929 . S
H230 C223 0.930 . S
C231 C232 1.351 . S
C231 N234 1.368 . S
C231 H236 0.931 . S
C232 C231 1.351 . S
C232 N233 1.373 . S
C232 H260 0.930 . S
N233 C232 1.373 . S
N233 C235 1.340 . S
N234 C231 1.368 . S
N234 C235 1.321 . S
N234 Co237 2.135 . S
C235 N233 1.340 . S
C235 N234 1.321 . S
C235 H259 0.930 . S
H236 C231 0.931 . S
Co237 N234 2.135 . S
Co237 N240 2.121 . S
Co237 O245 2.055 . S
Co237 O248 2.039 . S
Co237 N251 2.140 . S
C238 O239 1.227 . S
C238 O248 1.265 . S
O239 C238 1.227 . S
N240 Co237 2.121 . S
N240 C242 1.375 . S
N240 C243 1.313 . S
C241 C242 1.338 . S
C241 N244 1.377 . S
C241 H261 0.930 . S
C242 N240 1.375 . S
C242 C241 1.338 . S
C242 H246 0.931 . S
C243 N240 1.313 . S
C243 N244 1.344 . S
C243 H247 0.930 . S
N244 C241 1.377 . S
N244 C243 1.344 . S
O245 Co237 2.055 . S
O245 C249 1.253 . S
H246 C242 0.931 . S
H247 C243 0.930 . S
O248 Co237 2.039 . S
O248 C238 1.265 . S
C249 O245 1.253 . S
C249 O250 1.227 . S
O250 C249 1.227 . S
N251 Co237 2.140 . S
N251 C254 1.346 . S
N251 C255 1.345 . S
C252 C253 1.387 . S
C252 C256 1.391 . S
C253 C252 1.387 . S
C253 C254 1.369 . S
C253 H262 0.929 . S
C254 N251 1.346 . S
C254 C253 1.369 . S
C254 H257 0.928 . S
C255 N251 1.345 . S
C255 C256 1.371 . S
C255 H258 0.931 . S
C256 C252 1.391 . S
C256 C255 1.371 . S
C256 H263 0.930 . S
H257 C254 0.928 . S
H258 C255 0.931 . S
H259 C235 0.930 . S
H260 C232 0.930 . S
H261 C241 0.930 . S
H262 C253 0.929 . S
H263 C256 0.930 . S
C264 C265 1.351 . S
C264 N267 1.368 . S
C264 H269 0.931 . S
C265 C264 1.351 . S
C265 N266 1.373 . S
C265 H293 0.930 . S
N266 C265 1.373 . S
N266 C268 1.340 . S
N267 C264 1.368 . S
N267 C268 1.321 . S
N267 Co270 2.135 . S
C268 N266 1.340 . S
C268 N267 1.321 . S
C268 H292 0.930 . S
H269 C264 0.931 . S
Co270 N267 2.135 . S
Co270 N273 2.121 . S
Co270 O278 2.055 . S
Co270 O281 2.039 . S
Co270 N284 2.140 . S
C271 O272 1.227 . S
C271 O281 1.265 . S
O272 C271 1.227 . S
N273 Co270 2.121 . S
N273 C275 1.375 . S
N273 C276 1.313 . S
C274 C275 1.338 . S
C274 N277 1.377 . S
C274 H294 0.930 . S
C275 N273 1.375 . S
C275 C274 1.338 . S
C275 H279 0.931 . S
C276 N273 1.313 . S
C276 N277 1.344 . S
C276 H280 0.930 . S
N277 C274 1.377 . S
N277 C276 1.344 . S
O278 Co270 2.055 . S
O278 C282 1.253 . S
H279 C275 0.931 . S
H280 C276 0.930 . S
O281 Co270 2.039 . S
O281 C271 1.265 . S
C282 O278 1.253 . S
C282 O283 1.227 . S
O283 C282 1.227 . S
N284 Co270 2.140 . S
N284 C287 1.346 . S
N284 C288 1.345 . S
C285 C286 1.387 1_455 S
C285 C289 1.391 . S
C286 C285 1.387 1_655 S
C286 C287 1.369 . S
C286 H295 0.929 1_655 S
C287 N284 1.346 . S
C287 C286 1.369 . S
C287 H290 0.928 . S
C288 N284 1.345 . S
C288 C289 1.371 1_655 S
C288 H291 0.931 . S
C289 C285 1.391 . S
C289 C288 1.371 1_455 S
C289 H296 0.930 . S
H290 C287 0.928 . S
H291 C288 0.931 . S
H292 C268 0.930 . S
H293 C265 0.930 . S
H294 C274 0.930 . S
H295 C286 0.929 1_455 S
H296 C289 0.930 . S
C297 C298 1.351 . S
C297 N300 1.368 . S
C297 H302 0.931 . S
C298 C297 1.351 . S
C298 N299 1.373 . S
C298 H326 0.930 . S
N299 C298 1.373 . S
N299 C301 1.340 . S
N300 C297 1.368 . S
N300 C301 1.321 . S
N300 Co303 2.135 . S
C301 N299 1.340 . S
C301 N300 1.321 . S
C301 H325 0.930 . S
H302 C297 0.931 . S
Co303 N300 2.135 . S
Co303 N306 2.121 . S
Co303 O311 2.055 . S
Co303 O314 2.039 . S
Co303 N317 2.140 . S
C304 O305 1.227 . S
C304 O314 1.265 . S
O305 C304 1.227 . S
N306 Co303 2.121 . S
N306 C308 1.375 . S
N306 C309 1.313 . S
C307 C308 1.338 . S
C307 N310 1.377 . S
C307 H327 0.930 . S
C308 N306 1.375 . S
C308 C307 1.338 . S
C308 H312 0.931 . S
C309 N306 1.313 . S
C309 N310 1.344 . S
C309 H313 0.930 . S
N310 C307 1.377 . S
N310 C309 1.344 . S
O311 Co303 2.055 . S
O311 C315 1.253 . S
H312 C308 0.931 . S
H313 C309 0.930 . S
O314 Co303 2.039 . S
O314 C304 1.265 . S
C315 O311 1.253 . S
C315 O316 1.227 . S
O316 C315 1.227 . S
N317 Co303 2.140 . S
N317 C320 1.346 . S
N317 C321 1.345 . S
C318 C319 1.387 1_545 S
C318 C322 1.391 . S
C319 C318 1.387 1_565 S
C319 C320 1.369 . S
C319 H328 0.929 1_565 S
C320 N317 1.346 . S
C320 C319 1.369 . S
C320 H323 0.928 . S
C321 N317 1.345 . S
C321 C322 1.371 1_565 S
C321 H324 0.931 . S
C322 C318 1.391 . S
C322 C321 1.371 1_545 S
C322 H329 0.930 . S
H323 C320 0.928 . S
H324 C321 0.931 . S
H325 C301 0.930 . S
H326 C298 0.930 . S
H327 C307 0.930 . S
H328 C319 0.929 1_545 S
H329 C322 0.930 . S
C330 C331 1.351 . S
C330 N333 1.368 . S
C330 H335 0.931 . S
C331 C330 1.351 . S
C331 N332 1.373 . S
C331 H359 0.930 . S
N332 C331 1.373 . S
N332 C334 1.340 . S
N333 C330 1.368 . S
N333 C334 1.321 . S
N333 Co336 2.135 . S
C334 N332 1.340 . S
C334 N333 1.321 . S
C334 H358 0.930 . S
H335 C330 0.931 . S
Co336 N333 2.135 . S
Co336 N339 2.121 . S
Co336 O344 2.055 . S
Co336 O347 2.039 . S
Co336 N350 2.140 . S
C337 O338 1.227 . S
C337 O347 1.265 . S
O338 C337 1.227 . S
N339 Co336 2.121 . S
N339 C341 1.375 . S
N339 C342 1.313 . S
C340 C341 1.338 . S
C340 N343 1.377 . S
C340 H360 0.930 . S
C341 N339 1.375 . S
C341 C340 1.338 . S
C341 H345 0.931 . S
C342 N339 1.313 . S
C342 N343 1.344 . S
C342 H346 0.930 . S
N343 C340 1.377 . S
N343 C342 1.344 . S
O344 Co336 2.055 . S
O344 C348 1.253 . S
H345 C341 0.931 . S
H346 C342 0.930 . S
O347 Co336 2.039 . S
O347 C337 1.265 . S
C348 O344 1.253 . S
C348 O349 1.227 . S
O349 C348 1.227 . S
N350 Co336 2.140 . S
N350 C353 1.346 . S
N350 C354 1.345 . S
C351 C352 1.387 1_655 S
C351 C355 1.391 . S
C352 C351 1.387 1_455 S
C352 C353 1.369 . S
C352 H361 0.929 1_455 S
C353 N350 1.346 . S
C353 C352 1.369 . S
C353 H356 0.928 . S
C354 N350 1.345 . S
C354 C355 1.371 1_455 S
C354 H357 0.931 . S
C355 C351 1.391 . S
C355 C354 1.371 1_655 S
C355 H362 0.930 . S
H356 C353 0.928 . S
H357 C354 0.931 . S
H358 C334 0.930 . S
H359 C331 0.930 . S
H360 C340 0.930 . S
H361 C352 0.929 1_655 S
H362 C355 0.930 . S
C363 C364 1.351 . S
C363 N366 1.368 . S
C363 H368 0.931 . S
C364 C363 1.351 . S
C364 N365 1.373 . S
C364 H392 0.930 . S
N365 C364 1.373 . S
N365 C367 1.340 . S
N366 C363 1.368 . S
N366 C367 1.321 . S
N366 Co369 2.135 . S
C367 N365 1.340 . S
C367 N366 1.321 . S
C367 H391 0.930 . S
H368 C363 0.931 . S
Co369 N366 2.135 . S
Co369 N372 2.121 . S
Co369 O377 2.055 . S
Co369 O380 2.039 . S
Co369 N383 2.140 . S
C370 O371 1.227 . S
C370 O380 1.265 . S
O371 C370 1.227 . S
N372 Co369 2.121 . S
N372 C374 1.375 . S
N372 C375 1.313 . S
C373 C374 1.338 . S
C373 N376 1.377 . S
C373 H393 0.930 . S
C374 N372 1.375 . S
C374 C373 1.338 . S
C374 H378 0.931 . S
C375 N372 1.313 . S
C375 N376 1.344 . S
C375 H379 0.930 . S
N376 C373 1.377 . S
N376 C375 1.344 . S
O377 Co369 2.055 . S
O377 C381 1.253 . S
H378 C374 0.931 . S
H379 C375 0.930 . S
O380 Co369 2.039 . S
O380 C370 1.265 . S
C381 O377 1.253 . S
C381 O382 1.227 . S
O382 C381 1.227 . S
N383 Co369 2.140 . S
N383 C386 1.346 . S
N383 C387 1.345 . S
C384 C385 1.387 1_565 S
C384 C388 1.391 . S
C385 C384 1.387 1_545 S
C385 C386 1.369 . S
C385 H394 0.929 1_545 S
C386 N383 1.346 . S
C386 C385 1.369 . S
C386 H389 0.928 . S
C387 N383 1.345 . S
C387 C388 1.371 1_545 S
C387 H390 0.931 . S
C388 C384 1.391 . S
C388 C387 1.371 1_565 S
C388 H395 0.930 . S
H389 C386 0.928 . S
H390 C387 0.931 . S
H391 C367 0.930 . S
H392 C364 0.930 . S
H393 C373 0.930 . S
H394 C385 0.929 1_565 S
H395 C388 0.930 . S
C396 C397 1.351 . S
C396 N399 1.368 . S
C396 H401 0.931 . S
C397 C396 1.351 . S
C397 N398 1.373 . S
C397 H425 0.930 . S
N398 C397 1.373 . S
N398 C400 1.340 . S
N399 C396 1.368 . S
N399 C400 1.321 . S
N399 Co402 2.135 . S
C400 N398 1.340 . S
C400 N399 1.321 . S
C400 H424 0.930 . S
H401 C396 0.931 . S
Co402 N399 2.135 . S
Co402 N405 2.121 . S
Co402 O410 2.055 . S
Co402 O413 2.039 . S
Co402 N416 2.140 . S
C403 O404 1.227 . S
C403 O413 1.265 . S
O404 C403 1.227 . S
N405 Co402 2.121 . S
N405 C407 1.375 . S
N405 C408 1.313 . S
C406 C407 1.338 . S
C406 N409 1.377 . S
C406 H426 0.930 . S
C407 N405 1.375 . S
C407 C406 1.338 . S
C407 H411 0.931 . S
C408 N405 1.313 . S
C408 N409 1.344 . S
C408 H412 0.930 . S
N409 C406 1.377 . S
N409 C408 1.344 . S
O410 Co402 2.055 . S
O410 C414 1.253 . S
H411 C407 0.931 . S
H412 C408 0.930 . S
O413 Co402 2.039 . S
O413 C403 1.265 . S
C414 O410 1.253 . S
C414 O415 1.227 . S
O415 C414 1.227 . S
N416 Co402 2.140 . S
N416 C419 1.346 . S
N416 C420 1.345 . S
C417 C418 1.387 . S
C417 C421 1.391 . S
C418 C417 1.387 . S
C418 C419 1.369 . S
C418 H427 0.929 . S
C419 N416 1.346 . S
C419 C418 1.369 . S
C419 H422 0.928 . S
C420 N416 1.345 . S
C420 C421 1.371 . S
C420 H423 0.931 . S
C421 C417 1.391 . S
C421 C420 1.371 . S
C421 H428 0.930 . S
H422 C419 0.928 . S
H423 C420 0.931 . S
H424 C400 0.930 . S
H425 C397 0.930 . S
H426 C406 0.930 . S
H427 C418 0.929 . S
H428 C421 0.930 . S
C429 C430 1.351 . S
C429 N432 1.368 . S
C429 H434 0.931 . S
C430 C429 1.351 . S
C430 N431 1.373 . S
C430 H458 0.930 . S
N431 C430 1.373 . S
N431 C433 1.340 . S
N432 C429 1.368 . S
N432 C433 1.321 . S
N432 Co435 2.135 . S
C433 N431 1.340 . S
C433 N432 1.321 . S
C433 H457 0.930 . S
H434 C429 0.931 . S
Co435 N432 2.135 . S
Co435 N438 2.121 . S
Co435 O443 2.055 . S
Co435 O446 2.039 . S
Co435 N449 2.140 . S
C436 O437 1.227 . S
C436 O446 1.265 . S
O437 C436 1.227 . S
N438 Co435 2.121 . S
N438 C440 1.375 . S
N438 C441 1.313 . S
C439 C440 1.338 . S
C439 N442 1.377 . S
C439 H459 0.930 . S
C440 N438 1.375 . S
C440 C439 1.338 . S
C440 H444 0.931 . S
C441 N438 1.313 . S
C441 N442 1.344 . S
C441 H445 0.930 . S
N442 C439 1.377 . S
N442 C441 1.344 . S
O443 Co435 2.055 . S
O443 C447 1.253 . S
H444 C440 0.931 . S
H445 C441 0.930 . S
O446 Co435 2.039 . S
O446 C436 1.265 . S
C447 O443 1.253 . S
C447 O448 1.227 . S
O448 C447 1.227 . S
N449 Co435 2.140 . S
N449 C452 1.346 . S
N449 C453 1.345 . S
C450 C451 1.387 . S
C450 C454 1.391 . S
C451 C450 1.387 . S
C451 C452 1.369 . S
C451 H460 0.929 . S
C452 N449 1.346 . S
C452 C451 1.369 . S
C452 H455 0.928 . S
C453 N449 1.345 . S
C453 C454 1.371 . S
C453 H456 0.931 . S
C454 C450 1.391 . S
C454 C453 1.371 . S
C454 H461 0.930 . S
H455 C452 0.928 . S
H456 C453 0.931 . S
H457 C433 0.930 . S
H458 C430 0.930 . S
H459 C439 0.930 . S
H460 C451 0.929 . S
H461 C454 0.930 . S
C462 C463 1.351 . S
C462 N465 1.368 . S
C462 H467 0.931 . S
C463 C462 1.351 . S
C463 N464 1.373 . S
C463 H491 0.930 . S
N464 C463 1.373 . S
N464 C466 1.340 . S
N465 C462 1.368 . S
N465 C466 1.321 . S
N465 Co468 2.135 . S
C466 N464 1.340 . S
C466 N465 1.321 . S
C466 H490 0.930 . S
H467 C462 0.931 . S
Co468 N465 2.135 . S
Co468 N471 2.121 . S
Co468 O476 2.055 . S
Co468 O479 2.039 . S
Co468 N482 2.140 . S
C469 O470 1.227 . S
C469 O479 1.265 . S
O470 C469 1.227 . S
N471 Co468 2.121 . S
N471 C473 1.375 . S
N471 C474 1.313 . S
C472 C473 1.338 . S
C472 N475 1.377 . S
C472 H492 0.930 . S
C473 N471 1.375 . S
C473 C472 1.338 . S
C473 H477 0.931 . S
C474 N471 1.313 . S
C474 N475 1.344 . S
C474 H478 0.930 . S
N475 C472 1.377 . S
N475 C474 1.344 . S
O476 Co468 2.055 . S
O476 C480 1.253 . S
H477 C473 0.931 . S
H478 C474 0.930 . S
O479 Co468 2.039 . S
O479 C469 1.265 . S
C480 O476 1.253 . S
C480 O481 1.227 . S
O481 C480 1.227 . S
N482 Co468 2.140 . S
N482 C485 1.346 . S
N482 C486 1.345 . S
C483 C484 1.387 . S
C483 C487 1.391 . S
C484 C483 1.387 . S
C484 C485 1.369 . S
C484 H493 0.929 . S
C485 N482 1.346 . S
C485 C484 1.369 . S
C485 H488 0.928 . S
C486 N482 1.345 . S
C486 C487 1.371 . S
C486 H489 0.931 . S
C487 C483 1.391 . S
C487 C486 1.371 . S
C487 H494 0.930 . S
H488 C485 0.928 . S
H489 C486 0.931 . S
H490 C466 0.930 . S
H491 C463 0.930 . S
H492 C472 0.930 . S
H493 C484 0.929 . S
H494 C487 0.930 . S
C495 C496 1.351 . S
C495 N498 1.368 . S
C495 H500 0.931 . S
C496 C495 1.351 . S
C496 N497 1.373 . S
C496 H524 0.930 . S
N497 C496 1.373 . S
N497 C499 1.340 . S
N498 C495 1.368 . S
N498 C499 1.321 . S
N498 Co501 2.135 . S
C499 N497 1.340 . S
C499 N498 1.321 . S
C499 H523 0.930 . S
H500 C495 0.931 . S
Co501 N498 2.135 . S
Co501 N504 2.121 . S
Co501 O509 2.055 . S
Co501 O512 2.039 . S
Co501 N515 2.140 . S
C502 O503 1.227 . S
C502 O512 1.265 . S
O503 C502 1.227 . S
N504 Co501 2.121 . S
N504 C506 1.375 . S
N504 C507 1.313 . S
C505 C506 1.338 . S
C505 N508 1.377 . S
C505 H525 0.930 . S
C506 N504 1.375 . S
C506 C505 1.338 . S
C506 H510 0.931 . S
C507 N504 1.313 . S
C507 N508 1.344 . S
C507 H511 0.930 . S
N508 C505 1.377 . S
N508 C507 1.344 . S
O509 Co501 2.055 . S
O509 C513 1.253 . S
H510 C506 0.931 . S
H511 C507 0.930 . S
O512 Co501 2.039 . S
O512 C502 1.265 . S
C513 O509 1.253 . S
C513 O514 1.227 . S
O514 C513 1.227 . S
N515 Co501 2.140 . S
N515 C518 1.346 . S
N515 C519 1.345 . S
C516 C517 1.387 . S
C516 C520 1.391 . S
C517 C516 1.387 . S
C517 C518 1.369 . S
C517 H526 0.929 . S
C518 N515 1.346 . S
C518 C517 1.369 . S
C518 H521 0.928 . S
C519 N515 1.345 . S
C519 C520 1.371 . S
C519 H522 0.931 . S
C520 C516 1.391 . S
C520 C519 1.371 . S
C520 H527 0.930 . S
H521 C518 0.928 . S
H522 C519 0.931 . S
H523 C499 0.930 . S
H524 C496 0.930 . S
H525 C505 0.930 . S
H526 C517 0.929 . S
H527 C520 0.930 . S
H528 C534 0.930 . S
H529 C537 0.930 . S
H530 C538 0.930 . S
H531 C539 0.930 . S
H532 C542 0.930 . S
H533 C543 0.930 . S
C534 H528 0.930 . S
C534 C535 1.355 . S
C534 C536 1.415 . S
C535 C534 1.355 . S
C535 C537 1.419 . S
C536 C534 1.415 . S
C536 C541 1.425 1_556 S
C536 C543 1.409 1_556 S
C537 H529 0.930 . S
C537 C535 1.419 . S
C537 C538 1.362 . S
C538 H530 0.930 . S
C538 C537 1.362 . S
C538 C541 1.409 1_556 S
C539 H531 0.930 . S
C539 C540 1.355 . S
C539 C541 1.415 . S
C540 C539 1.355 . S
C540 C542 1.419 . S
C541 C536 1.425 1_554 S
C541 C538 1.409 1_554 S
C541 C539 1.415 . S
C542 H532 0.930 . S
C542 C540 1.419 . S
C542 C543 1.362 . S
C543 H533 0.930 . S
C543 C536 1.409 1_554 S
C543 C542 1.362 . S
H544 C550 0.930 . S
H545 C553 0.930 . S
H546 C554 0.930 . S
H547 C555 0.930 . S
H548 C558 0.930 . S
H549 C559 0.930 . S
C550 H544 0.930 . S
C550 C551 1.355 . S
C550 C552 1.415 . S
C551 C550 1.355 . S
C551 C553 1.419 . S
C552 C550 1.415 . S
C552 C557 1.425 1_556 S
C552 C559 1.409 1_556 S
C553 H545 0.930 . S
C553 C551 1.419 . S
C553 C554 1.362 . S
C554 H546 0.930 . S
C554 C553 1.362 . S
C554 C557 1.409 1_556 S
C555 H547 0.930 . S
C555 C556 1.355 . S
C555 C557 1.415 . S
C556 C555 1.355 . S
C556 C558 1.419 . S
C557 C552 1.425 1_554 S
C557 C554 1.409 1_554 S
C557 C555 1.415 . S
C558 H548 0.930 . S
C558 C556 1.419 . S
C558 C559 1.362 . S
C559 H549 0.930 . S
C559 C552 1.409 1_554 S
C559 C558 1.362 . S
H560 C566 0.930 . S
H561 C569 0.930 . S
H562 C570 0.930 . S
H563 C571 0.930 . S
H564 C574 0.930 . S
H565 C575 0.930 . S
C566 H560 0.930 . S
C566 C567 1.355 . S
C566 C568 1.415 . S
C567 C566 1.355 . S
C567 C569 1.419 . S
C568 C566 1.415 . S
C568 C573 1.425 1_556 S
C568 C575 1.409 1_556 S
C569 H561 0.930 . S
C569 C567 1.419 . S
C569 C570 1.362 . S
C570 H562 0.930 . S
C570 C569 1.362 . S
C570 C573 1.409 1_556 S
C571 H563 0.930 . S
C571 C572 1.355 . S
C571 C573 1.415 . S
C572 C571 1.355 . S
C572 C574 1.419 . S
C573 C568 1.425 1_554 S
C573 C570 1.409 1_554 S
C573 C571 1.415 . S
C574 H564 0.930 . S
C574 C572 1.419 . S
C574 C575 1.362 . S
C575 H565 0.930 . S
C575 C568 1.409 1_554 S
C575 C574 1.362 . S
H576 C582 0.930 . S
H577 C585 0.930 . S
H578 C586 0.930 . S
H579 C587 0.930 . S
H580 C590 0.930 . S
H581 C591 0.930 . S
C582 H576 0.930 . S
C582 C583 1.355 . S
C582 C584 1.415 . S
C583 C582 1.355 . S
C583 C585 1.419 . S
C584 C582 1.415 . S
C584 C589 1.425 1_556 S
C584 C591 1.409 1_556 S
C585 H577 0.930 . S
C585 C583 1.419 . S
C585 C586 1.362 . S
C586 H578 0.930 . S
C586 C585 1.362 . S
C586 C589 1.409 1_556 S
C587 H579 0.930 . S
C587 C588 1.355 . S
C587 C589 1.415 . S
C588 C587 1.355 . S
C588 C590 1.419 . S
C589 C584 1.425 1_554 S
C589 C586 1.409 1_554 S
C589 C587 1.415 . S
C590 H580 0.930 . S
C590 C588 1.419 . S
C590 C591 1.362 . S
C591 H581 0.930 . S
C591 C584 1.409 1_554 S
C591 C590 1.362 . S
H592 C598 0.930 . S
H593 C601 0.930 . S
H594 C602 0.930 . S
H595 C603 0.930 . S
H596 C606 0.930 . S
H597 C607 0.930 . S
C598 H592 0.930 . S
C598 C599 1.355 . S
C598 C600 1.415 . S
C599 C598 1.355 . S
C599 C601 1.419 . S
C600 C598 1.415 . S
C600 C605 1.425 . S
C600 C607 1.409 . S
C601 H593 0.930 . S
C601 C599 1.419 . S
C601 C602 1.362 . S
C602 H594 0.930 . S
C602 C601 1.362 . S
C602 C605 1.409 . S
C603 H595 0.930 . S
C603 C604 1.355 . S
C603 C605 1.415 . S
C604 C603 1.355 . S
C604 C606 1.419 . S
C605 C600 1.425 . S
C605 C602 1.409 . S
C605 C603 1.415 . S
C606 H596 0.930 . S
C606 C604 1.419 . S
C606 C607 1.362 . S
C607 H597 0.930 . S
C607 C600 1.409 . S
C607 C606 1.362 . S
H608 C614 0.930 . S
H609 C617 0.930 . S
H610 C618 0.930 . S
H611 C619 0.930 . S
H612 C622 0.930 . S
H613 C623 0.930 . S
C614 H608 0.930 . S
C614 C615 1.355 . S
C614 C616 1.415 . S
C615 C614 1.355 . S
C615 C617 1.419 . S
C616 C614 1.415 . S
C616 C621 1.425 . S
C616 C623 1.409 . S
C617 H609 0.930 . S
C617 C615 1.419 . S
C617 C618 1.362 . S
C618 H610 0.930 . S
C618 C617 1.362 . S
C618 C621 1.409 . S
C619 H611 0.930 . S
C619 C620 1.355 . S
C619 C621 1.415 . S
C620 C619 1.355 . S
C620 C622 1.419 . S
C621 C616 1.425 . S
C621 C618 1.409 . S
C621 C619 1.415 . S
C622 H612 0.930 . S
C622 C620 1.419 . S
C622 C623 1.362 . S
C623 H613 0.930 . S
C623 C616 1.409 . S
C623 C622 1.362 . S
H624 C630 0.930 . S
H625 C633 0.930 . S
H626 C634 0.930 . S
H627 C635 0.930 . S
H628 C638 0.930 . S
H629 C639 0.930 . S
C630 H624 0.930 . S
C630 C631 1.355 . S
C630 C632 1.415 . S
C631 C630 1.355 . S
C631 C633 1.419 . S
C632 C630 1.415 . S
C632 C637 1.425 . S
C632 C639 1.409 . S
C633 H625 0.930 . S
C633 C631 1.419 . S
C633 C634 1.362 . S
C634 H626 0.930 . S
C634 C633 1.362 . S
C634 C637 1.409 . S
C635 H627 0.930 . S
C635 C636 1.355 . S
C635 C637 1.415 . S
C636 C635 1.355 . S
C636 C638 1.419 . S
C637 C632 1.425 . S
C637 C634 1.409 . S
C637 C635 1.415 . S
C638 H628 0.930 . S
C638 C636 1.419 . S
C638 C639 1.362 . S
C639 H629 0.930 . S
C639 C632 1.409 . S
C639 C638 1.362 . S
H640 C646 0.930 . S
H641 C649 0.930 . S
H642 C650 0.930 . S
H643 C651 0.930 . S
H644 C654 0.930 . S
H645 C655 0.930 . S
C646 H640 0.930 . S
C646 C647 1.355 . S
C646 C648 1.415 . S
C647 C646 1.355 . S
C647 C649 1.419 . S
C648 C646 1.415 . S
C648 C653 1.425 . S
C648 C655 1.409 . S
C649 H641 0.930 . S
C649 C647 1.419 . S
C649 C650 1.362 . S
C650 H642 0.930 . S
C650 C649 1.362 . S
C650 C653 1.409 . S
C651 H643 0.930 . S
C651 C652 1.355 . S
C651 C653 1.415 . S
C652 C651 1.355 . S
C652 C654 1.419 . S
C653 C648 1.425 . S
C653 C650 1.409 . S
C653 C651 1.415 . S
C654 H644 0.930 . S
C654 C652 1.419 . S
C654 C655 1.362 . S
C655 H645 0.930 . S
C655 C648 1.409 . S
C655 C654 1.362 . S
H656 C662 0.930 . S
H657 C665 0.930 . S
H658 C666 0.930 . S
H659 C667 0.930 . S
H660 C670 0.930 . S
H661 C671 0.930 . S
C662 H656 0.930 . S
C662 C663 1.355 . S
C662 C664 1.415 . S
C663 C662 1.355 . S
C663 C665 1.419 . S
C664 C662 1.415 . S
C664 C669 1.425 . S
C664 C671 1.409 . S
C665 H657 0.930 . S
C665 C663 1.419 . S
C665 C666 1.362 . S
C666 H658 0.930 . S
C666 C665 1.362 . S
C666 C669 1.409 . S
C667 H659 0.930 . S
C667 C668 1.355 . S
C667 C669 1.415 . S
C668 C667 1.355 . S
C668 C670 1.419 . S
C669 C664 1.425 . S
C669 C666 1.409 . S
C669 C667 1.415 . S
C670 H660 0.930 . S
C670 C668 1.419 . S
C670 C671 1.362 . S
C671 H661 0.930 . S
C671 C664 1.409 . S
C671 C670 1.362 . S
H672 C678 0.930 . S
H673 C681 0.930 . S
H674 C682 0.930 . S
H675 C683 0.930 . S
H676 C686 0.930 . S
H677 C687 0.930 . S
C678 H672 0.930 . S
C678 C679 1.355 . S
C678 C680 1.415 . S
C679 C678 1.355 . S
C679 C681 1.419 . S
C680 C678 1.415 . S
C680 C685 1.425 . S
C680 C687 1.409 . S
C681 H673 0.930 . S
C681 C679 1.419 . S
C681 C682 1.362 . S
C682 H674 0.930 . S
C682 C681 1.362 . S
C682 C685 1.409 . S
C683 H675 0.930 . S
C683 C684 1.355 . S
C683 C685 1.415 . S
C684 C683 1.355 . S
C684 C686 1.419 . S
C685 C680 1.425 . S
C685 C682 1.409 . S
C685 C683 1.415 . S
C686 H676 0.930 . S
C686 C684 1.419 . S
C686 C687 1.362 . S
C687 H677 0.930 . S
C687 C680 1.409 . S
C687 C686 1.362 . S
H688 C694 0.930 . S
H689 C697 0.930 . S
H690 C698 0.930 . S
H691 C699 0.930 . S
H692 C702 0.930 . S
H693 C703 0.930 . S
C694 H688 0.930 . S
C694 C695 1.355 . S
C694 C696 1.415 . S
C695 C694 1.355 . S
C695 C697 1.419 . S
C696 C694 1.415 . S
C696 C701 1.425 . S
C696 C703 1.409 . S
C697 H689 0.930 . S
C697 C695 1.419 . S
C697 C698 1.362 . S
C698 H690 0.930 . S
C698 C697 1.362 . S
C698 C701 1.409 . S
C699 H691 0.930 . S
C699 C700 1.355 . S
C699 C701 1.415 . S
C700 C699 1.355 . S
C700 C702 1.419 . S
C701 C696 1.425 . S
C701 C698 1.409 . S
C701 C699 1.415 . S
C702 H692 0.930 . S
C702 C700 1.419 . S
C702 C703 1.362 . S
C703 H693 0.930 . S
C703 C696 1.409 . S
C703 C702 1.362 . S
H704 C710 0.930 . S
H705 C713 0.930 . S
H706 C714 0.930 . S
H707 C715 0.930 . S
H708 C718 0.930 . S
H709 C719 0.930 . S
C710 H704 0.930 . S
C710 C711 1.355 . S
C710 C712 1.415 . S
C711 C710 1.355 . S
C711 C713 1.419 . S
C712 C710 1.415 . S
C712 C717 1.425 . S
C712 C719 1.409 . S
C713 H705 0.930 . S
C713 C711 1.419 . S
C713 C714 1.362 . S
C714 H706 0.930 . S
C714 C713 1.362 . S
C714 C717 1.409 . S
C715 H707 0.930 . S
C715 C716 1.355 . S
C715 C717 1.415 . S
C716 C715 1.355 . S
C716 C718 1.419 . S
C717 C712 1.425 . S
C717 C714 1.409 . S
C717 C715 1.415 . S
C718 H708 0.930 . S
C718 C716 1.419 . S
C718 C719 1.362 . S
C719 H709 0.930 . S
C719 C712 1.409 . S
C719 C718 1.362 . S
H720 C726 0.930 . S
H721 C729 0.930 . S
H722 C730 0.930 . S
H723 C731 0.930 . S
H724 C734 0.930 . S
H725 C735 0.930 . S
C726 H720 0.930 . S
C726 C727 1.355 . S
C726 C728 1.415 . S
C727 C726 1.355 . S
C727 C729 1.419 . S
C728 C726 1.415 . S
C728 C733 1.425 . S
C728 C735 1.409 . S
C729 H721 0.930 . S
C729 C727 1.419 . S
C729 C730 1.362 . S
C730 H722 0.930 . S
C730 C729 1.362 . S
C730 C733 1.409 . S
C731 H723 0.930 . S
C731 C732 1.355 . S
C731 C733 1.415 . S
C732 C731 1.355 . S
C732 C734 1.419 . S
C733 C728 1.425 . S
C733 C730 1.409 . S
C733 C731 1.415 . S
C734 H724 0.930 . S
C734 C732 1.419 . S
C734 C735 1.362 . S
C735 H725 0.930 . S
C735 C728 1.409 . S
C735 C734 1.362 . S
H736 C742 0.930 . S
H737 C745 0.930 . S
H738 C746 0.930 . S
H739 C747 0.930 . S
H740 C750 0.930 . S
H741 C751 0.930 . S
C742 H736 0.930 . S
C742 C743 1.355 . S
C742 C744 1.415 . S
C743 C742 1.355 . S
C743 C745 1.419 . S
C744 C742 1.415 . S
C744 C749 1.425 . S
C744 C751 1.409 . S
C745 H737 0.930 . S
C745 C743 1.419 . S
C745 C746 1.362 . S
C746 H738 0.930 . S
C746 C745 1.362 . S
C746 C749 1.409 . S
C747 H739 0.930 . S
C747 C748 1.355 . S
C747 C749 1.415 . S
C748 C747 1.355 . S
C748 C750 1.419 . S
C749 C744 1.425 . S
C749 C746 1.409 . S
C749 C747 1.415 . S
C750 H740 0.930 . S
C750 C748 1.419 . S
C750 C751 1.362 . S
C751 H741 0.930 . S
C751 C744 1.409 . S
C751 C750 1.362 . S
H752 C758 0.930 . S
H753 C761 0.930 . S
H754 C762 0.930 . S
H755 C763 0.930 . S
H756 C766 0.930 . S
H757 C767 0.930 . S
C758 H752 0.930 . S
C758 C759 1.355 . S
C758 C760 1.415 . S
C759 C758 1.355 . S
C759 C761 1.419 . S
C760 C758 1.415 . S
C760 C765 1.425 . S
C760 C767 1.409 . S
C761 H753 0.930 . S
C761 C759 1.419 . S
C761 C762 1.362 . S
C762 H754 0.930 . S
C762 C761 1.362 . S
C762 C765 1.409 . S
C763 H755 0.930 . S
C763 C764 1.355 . S
C763 C765 1.415 . S
C764 C763 1.355 . S
C764 C766 1.419 . S
C765 C760 1.425 . S
C765 C762 1.409 . S
C765 C763 1.415 . S
C766 H756 0.930 . S
C766 C764 1.419 . S
C766 C767 1.362 . S
C767 H757 0.930 . S
C767 C760 1.409 . S
C767 C766 1.362 . S
H768 C774 0.930 . S
H769 C777 0.930 . S
H770 C778 0.930 . S
H771 C779 0.930 . S
H772 C782 0.930 . S
H773 C783 0.930 . S
C774 H768 0.930 . S
C774 C775 1.355 . S
C774 C776 1.415 . S
C775 C774 1.355 . S
C775 C777 1.419 . S
C776 C774 1.415 . S
C776 C781 1.425 . S
C776 C783 1.409 . S
C777 H769 0.930 . S
C777 C775 1.419 . S
C777 C778 1.362 . S
C778 H770 0.930 . S
C778 C777 1.362 . S
C778 C781 1.409 . S
C779 H771 0.930 . S
C779 C780 1.355 . S
C779 C781 1.415 . S
C780 C779 1.355 . S
C780 C782 1.419 . S
C781 C776 1.425 . S
C781 C778 1.409 . S
C781 C779 1.415 . S
C782 H772 0.930 . S
C782 C780 1.419 . S
C782 C783 1.362 . S
C783 H773 0.930 . S
C783 C776 1.409 . S
C783 C782 1.362 . S
H784 C790 0.930 . S
H785 C793 0.930 . S
H786 C794 0.930 . S
H787 C795 0.930 . S
H788 C798 0.930 . S
H789 C799 0.930 . S
C790 H784 0.930 . S
C790 C791 1.355 . S
C790 C792 1.415 . S
C791 C790 1.355 . S
C791 C793 1.419 . S
C792 C790 1.415 . S
C792 C797 1.425 . S
C792 C799 1.409 . S
C793 H785 0.930 . S
C793 C791 1.419 . S
C793 C794 1.362 . S
C794 H786 0.930 . S
C794 C793 1.362 . S
C794 C797 1.409 . S
C795 H787 0.930 . S
C795 C796 1.355 . S
C795 C797 1.415 . S
C796 C795 1.355 . S
C796 C798 1.419 . S
C797 C792 1.425 . S
C797 C794 1.409 . S
C797 C795 1.415 . S
C798 H788 0.930 . S
C798 C796 1.419 . S
C798 C799 1.362 . S
C799 H789 0.930 . S
C799 C792 1.409 . S
C799 C798 1.362 . S
H800 C806 0.930 . S
H801 C809 0.930 . S
H802 C810 0.930 . S
H803 C811 0.930 . S
H804 C814 0.930 . S
H805 C815 0.930 . S
C806 H800 0.930 . S
C806 C807 1.355 . S
C806 C808 1.415 . S
C807 C806 1.355 . S
C807 C809 1.419 . S
C808 C806 1.415 . S
C808 C813 1.425 . S
C808 C815 1.409 . S
C809 H801 0.930 . S
C809 C807 1.419 . S
C809 C810 1.362 . S
C810 H802 0.930 . S
C810 C809 1.362 . S
C810 C813 1.409 . S
C811 H803 0.930 . S
C811 C812 1.355 . S
C811 C813 1.415 . S
C812 C811 1.355 . S
C812 C814 1.419 . S
C813 C808 1.425 . S
C813 C810 1.409 . S
C813 C811 1.415 . S
C814 H804 0.930 . S
C814 C812 1.419 . S
C814 C815 1.362 . S
C815 H805 0.930 . S
C815 C808 1.409 . S
C815 C814 1.362 . S
H816 C822 0.930 . S
H817 C825 0.930 . S
H818 C826 0.930 . S
H819 C827 0.930 . S
H820 C830 0.930 . S
H821 C831 0.930 . S
C822 H816 0.930 . S
C822 C823 1.355 . S
C822 C824 1.415 . S
C823 C822 1.355 . S
C823 C825 1.419 . S
C824 C822 1.415 . S
C824 C829 1.425 . S
C824 C831 1.409 . S
C825 H817 0.930 . S
C825 C823 1.419 . S
C825 C826 1.362 . S
C826 H818 0.930 . S
C826 C825 1.362 . S
C826 C829 1.409 . S
C827 H819 0.930 . S
C827 C828 1.355 . S
C827 C829 1.415 . S
C828 C827 1.355 . S
C828 C830 1.419 . S
C829 C824 1.425 . S
C829 C826 1.409 . S
C829 C827 1.415 . S
C830 H820 0.930 . S
C830 C828 1.419 . S
C830 C831 1.362 . S
C831 H821 0.930 . S
C831 C824 1.409 . S
C831 C830 1.362 . S
H832 C838 0.930 . S
H833 C841 0.930 . S
H834 C842 0.930 . S
H835 C843 0.930 . S
H836 C846 0.930 . S
H837 C847 0.930 . S
C838 H832 0.930 . S
C838 C839 1.355 . S
C838 C840 1.415 . S
C839 C838 1.355 . S
C839 C841 1.419 . S
C840 C838 1.415 . S
C840 C845 1.425 . S
C840 C847 1.409 . S
C841 H833 0.930 . S
C841 C839 1.419 . S
C841 C842 1.362 . S
C842 H834 0.930 . S
C842 C841 1.362 . S
C842 C845 1.409 . S
C843 H835 0.930 . S
C843 C844 1.355 . S
C843 C845 1.415 . S
C844 C843 1.355 . S
C844 C846 1.419 . S
C845 C840 1.425 . S
C845 C842 1.409 . S
C845 C843 1.415 . S
C846 H836 0.930 . S
C846 C844 1.419 . S
C846 C847 1.362 . S
C847 H837 0.930 . S
C847 C840 1.409 . S
C847 C846 1.362 . S
H848 C854 0.930 . S
H849 C857 0.930 . S
H850 C858 0.930 . S
H851 C859 0.930 . S
H852 C862 0.930 . S
H853 C863 0.930 . S
C854 H848 0.930 . S
C854 C855 1.355 . S
C854 C856 1.415 . S
C855 C854 1.355 . S
C855 C857 1.419 . S
C856 C854 1.415 . S
C856 C861 1.425 . S
C856 C863 1.409 . S
C857 H849 0.930 . S
C857 C855 1.419 . S
C857 C858 1.362 . S
C858 H850 0.930 . S
C858 C857 1.362 . S
C858 C861 1.409 . S
C859 H851 0.930 . S
C859 C860 1.355 . S
C859 C861 1.415 . S
C860 C859 1.355 . S
C860 C862 1.419 . S
C861 C856 1.425 . S
C861 C858 1.409 . S
C861 C859 1.415 . S
C862 H852 0.930 . S
C862 C860 1.419 . S
C862 C863 1.362 . S
C863 H853 0.930 . S
C863 C856 1.409 . S
C863 C862 1.362 . S
H864 C870 0.930 . S
H865 C873 0.930 . S
H866 C874 0.930 . S
H867 C875 0.930 . S
H868 C878 0.930 . S
H869 C879 0.930 . S
C870 H864 0.930 . S
C870 C871 1.355 . S
C870 C872 1.415 . S
C871 C870 1.355 . S
C871 C873 1.419 . S
C872 C870 1.415 . S
C872 C877 1.425 . S
C872 C879 1.409 . S
C873 H865 0.930 . S
C873 C871 1.419 . S
C873 C874 1.362 . S
C874 H866 0.930 . S
C874 C873 1.362 . S
C874 C877 1.409 . S
C875 H867 0.930 . S
C875 C876 1.355 . S
C875 C877 1.415 . S
C876 C875 1.355 . S
C876 C878 1.419 . S
C877 C872 1.425 . S
C877 C874 1.409 . S
C877 C875 1.415 . S
C878 H868 0.930 . S
C878 C876 1.419 . S
C878 C879 1.362 . S
C879 H869 0.930 . S
C879 C872 1.409 . S
C879 C878 1.362 . S
H880 C886 0.930 . S
H881 C889 0.930 . S
H882 C890 0.930 . S
H883 C891 0.930 . S
H884 C894 0.930 . S
H885 C895 0.930 . S
C886 H880 0.930 . S
C886 C887 1.355 . S
C886 C888 1.415 . S
C887 C886 1.355 . S
C887 C889 1.419 . S
C888 C886 1.415 . S
C888 C893 1.425 . S
C888 C895 1.409 . S
C889 H881 0.930 . S
C889 C887 1.419 . S
C889 C890 1.362 . S
C890 H882 0.930 . S
C890 C889 1.362 . S
C890 C893 1.409 . S
C891 H883 0.930 . S
C891 C892 1.355 . S
C891 C893 1.415 . S
C892 C891 1.355 . S
C892 C894 1.419 . S
C893 C888 1.425 . S
C893 C890 1.409 . S
C893 C891 1.415 . S
C894 H884 0.930 . S
C894 C892 1.419 . S
C894 C895 1.362 . S
C895 H885 0.930 . S
C895 C888 1.409 . S
C895 C894 1.362 . S
H896 C902 0.930 . S
H897 C905 0.930 . S
H898 C906 0.930 . S
H899 C907 0.930 . S
H900 C910 0.930 . S
H901 C911 0.930 . S
C902 H896 0.930 . S
C902 C903 1.355 . S
C902 C904 1.415 . S
C903 C902 1.355 . S
C903 C905 1.419 . S
C904 C902 1.415 . S
C904 C909 1.425 . S
C904 C911 1.409 . S
C905 H897 0.930 . S
C905 C903 1.419 . S
C905 C906 1.362 . S
C906 H898 0.930 . S
C906 C905 1.362 . S
C906 C909 1.409 . S
C907 H899 0.930 . S
C907 C908 1.355 . S
C907 C909 1.415 . S
C908 C907 1.355 . S
C908 C910 1.419 . S
C909 C904 1.425 . S
C909 C906 1.409 . S
C909 C907 1.415 . S
C910 H900 0.930 . S
C910 C908 1.419 . S
C910 C911 1.362 . S
C911 H901 0.930 . S
C911 C904 1.409 . S
C911 C910 1.362 . S
H912 C918 0.930 . S
H913 C921 0.930 . S
H914 C922 0.930 . S
H915 C923 0.930 . S
H916 C926 0.930 . S
H917 C927 0.930 . S
C918 H912 0.930 . S
C918 C919 1.355 . S
C918 C920 1.415 . S
C919 C918 1.355 . S
C919 C921 1.419 . S
C920 C918 1.415 . S
C920 C925 1.425 . S
C920 C927 1.409 . S
C921 H913 0.930 . S
C921 C919 1.419 . S
C921 C922 1.362 . S
C922 H914 0.930 . S
C922 C921 1.362 . S
C922 C925 1.409 . S
C923 H915 0.930 . S
C923 C924 1.355 . S
C923 C925 1.415 . S
C924 C923 1.355 . S
C924 C926 1.419 . S
C925 C920 1.425 . S
C925 C922 1.409 . S
C925 C923 1.415 . S
C926 H916 0.930 . S
C926 C924 1.419 . S
C926 C927 1.362 . S
C927 H917 0.930 . S
C927 C920 1.409 . S
C927 C926 1.362 . S
H928 C934 0.930 . S
H929 C937 0.930 . S
H930 C938 0.930 . S
H931 C939 0.930 . S
H932 C942 0.930 . S
H933 C943 0.930 . S
C934 H928 0.930 . S
C934 C935 1.355 . S
C934 C936 1.415 . S
C935 C934 1.355 . S
C935 C937 1.419 . S
C936 C934 1.415 . S
C936 C941 1.425 . S
C936 C943 1.409 . S
C937 H929 0.930 . S
C937 C935 1.419 . S
C937 C938 1.362 . S
C938 H930 0.930 . S
C938 C937 1.362 . S
C938 C941 1.409 . S
C939 H931 0.930 . S
C939 C940 1.355 . S
C939 C941 1.415 . S
C940 C939 1.355 . S
C940 C942 1.419 . S
C941 C936 1.425 . S
C941 C938 1.409 . S
C941 C939 1.415 . S
C942 H932 0.930 . S
C942 C940 1.419 . S
C942 C943 1.362 . S
C943 H933 0.930 . S
C943 C936 1.409 . S
C943 C942 1.362 . S
H944 C950 0.930 . S
H945 C953 0.930 . S
H946 C954 0.930 . S
H947 C955 0.930 . S
H948 C958 0.930 . S
H949 C959 0.930 . S
C950 H944 0.930 . S
C950 C951 1.355 . S
C950 C952 1.415 . S
C951 C950 1.355 . S
C951 C953 1.419 . S
C952 C950 1.415 . S
C952 C957 1.425 . S
C952 C959 1.409 . S
C953 H945 0.930 . S
C953 C951 1.419 . S
C953 C954 1.362 . S
C954 H946 0.930 . S
C954 C953 1.362 . S
C954 C957 1.409 . S
C955 H947 0.930 . S
C955 C956 1.355 . S
C955 C957 1.415 . S
C956 C955 1.355 . S
C956 C958 1.419 . S
C957 C952 1.425 . S
C957 C954 1.409 . S
C957 C955 1.415 . S
C958 H948 0.930 . S
C958 C956 1.419 . S
C958 C959 1.362 . S
C959 H949 0.930 . S
C959 C952 1.409 . S
C959 C958 1.362 . S
H960 C966 0.930 . S
H961 C969 0.930 . S
H962 C970 0.930 . S
H963 C971 0.930 . S
H964 C974 0.930 . S
H965 C975 0.930 . S
C966 H960 0.930 . S
C966 C967 1.355 . S
C966 C968 1.415 . S
C967 C966 1.355 . S
C967 C969 1.419 . S
C968 C966 1.415 . S
C968 C973 1.425 . S
C968 C975 1.409 . S
C969 H961 0.930 . S
C969 C967 1.419 . S
C969 C970 1.362 . S
C970 H962 0.930 . S
C970 C969 1.362 . S
C970 C973 1.409 . S
C971 H963 0.930 . S
C971 C972 1.355 . S
C971 C973 1.415 . S
C972 C971 1.355 . S
C972 C974 1.419 . S
C973 C968 1.425 . S
C973 C970 1.409 . S
C973 C971 1.415 . S
C974 H964 0.930 . S
C974 C972 1.419 . S
C974 C975 1.362 . S
C975 H965 0.930 . S
C975 C968 1.409 . S
C975 C974 1.362 . S
H976 C982 0.930 . S
H977 C985 0.930 . S
H978 C986 0.930 . S
H979 C987 0.930 . S
H980 C990 0.930 . S
H981 C991 0.930 . S
C982 H976 0.930 . S
C982 C983 1.355 . S
C982 C984 1.415 . S
C983 C982 1.355 . S
C983 C985 1.419 . S
C984 C982 1.415 . S
C984 C989 1.425 . S
C984 C991 1.409 . S
C985 H977 0.930 . S
C985 C983 1.419 . S
C985 C986 1.362 . S
C986 H978 0.930 . S
C986 C985 1.362 . S
C986 C989 1.409 . S
C987 H979 0.930 . S
C987 C988 1.355 . S
C987 C989 1.415 . S
C988 C987 1.355 . S
C988 C990 1.419 . S
C989 C984 1.425 . S
C989 C986 1.409 . S
C989 C987 1.415 . S
C990 H980 0.930 . S
C990 C988 1.419 . S
C990 C991 1.362 . S
C991 H981 0.930 . S
C991 C984 1.409 . S
C991 C990 1.362 . S
H992 C998 0.930 . S
H993 C1001 0.930 . S
H994 C1002 0.930 . S
H995 C1003 0.930 . S
H996 C1006 0.930 . S
H997 C1007 0.930 . S
C998 H992 0.930 . S
C998 C999 1.355 . S
C998 C1000 1.415 . S
C999 C998 1.355 . S
C999 C1001 1.419 . S
C1000 C998 1.415 . S
C1000 C1005 1.425 . S
C1000 C1007 1.409 . S
C1001 H993 0.930 . S
C1001 C999 1.419 . S
C1001 C1002 1.362 . S
C1002 H994 0.930 . S
C1002 C1001 1.362 . S
C1002 C1005 1.409 . S
C1003 H995 0.930 . S
C1003 C1004 1.355 . S
C1003 C1005 1.415 . S
C1004 C1003 1.355 . S
C1004 C1006 1.419 . S
C1005 C1000 1.425 . S
C1005 C1002 1.409 . S
C1005 C1003 1.415 . S
C1006 H996 0.930 . S
C1006 C1004 1.419 . S
C1006 C1007 1.362 . S
C1007 H997 0.930 . S
C1007 C1000 1.409 . S
C1007 C1006 1.362 . S
H1008 C1014 0.930 . S
H1009 C1017 0.930 . S
H1010 C1018 0.930 . S
H1011 C1019 0.930 . S
H1012 C1022 0.930 . S
H1013 C1023 0.930 . S
C1014 H1008 0.930 . S
C1014 C1015 1.355 . S
C1014 C1016 1.415 . S
C1015 C1014 1.355 . S
C1015 C1017 1.419 . S
C1016 C1014 1.415 . S
C1016 C1021 1.425 . S
C1016 C1023 1.409 . S
C1017 H1009 0.930 . S
C1017 C1015 1.419 . S
C1017 C1018 1.362 . S
C1018 H1010 0.930 . S
C1018 C1017 1.362 . S
C1018 C1021 1.409 . S
C1019 H1011 0.930 . S
C1019 C1020 1.355 . S
C1019 C1021 1.415 . S
C1020 C1019 1.355 . S
C1020 C1022 1.419 . S
C1021 C1016 1.425 . S
C1021 C1018 1.409 . S
C1021 C1019 1.415 . S
C1022 H1012 0.930 . S
C1022 C1020 1.419 . S
C1022 C1023 1.362 . S
C1023 H1013 0.930 . S
C1023 C1016 1.409 . S
C1023 C1022 1.362 . S
H1024 C1030 0.930 . S
H1025 C1033 0.930 . S
H1026 C1034 0.930 . S
H1027 C1035 0.930 . S
H1028 C1038 0.930 . S
H1029 C1039 0.930 . S
C1030 H1024 0.930 . S
C1030 C1031 1.355 . S
C1030 C1032 1.415 . S
C1031 C1030 1.355 . S
C1031 C1033 1.419 . S
C1032 C1030 1.415 . S
C1032 C1037 1.425 . S
C1032 C1039 1.409 . S
C1033 H1025 0.930 . S
C1033 C1031 1.419 . S
C1033 C1034 1.362 . S
C1034 H1026 0.930 . S
C1034 C1033 1.362 . S
C1034 C1037 1.409 . S
C1035 H1027 0.930 . S
C1035 C1036 1.355 . S
C1035 C1037 1.415 . S
C1036 C1035 1.355 . S
C1036 C1038 1.419 . S
C1037 C1032 1.425 . S
C1037 C1034 1.409 . S
C1037 C1035 1.415 . S
C1038 H1028 0.930 . S
C1038 C1036 1.419 . S
C1038 C1039 1.362 . S
C1039 H1029 0.930 . S
C1039 C1032 1.409 . S
C1039 C1038 1.362 . S
H1040 C1046 0.930 . S
H1041 C1049 0.930 . S
H1042 C1050 0.930 . S
H1043 C1051 0.930 . S
H1044 C1054 0.930 . S
H1045 C1055 0.930 . S
C1046 H1040 0.930 . S
C1046 C1047 1.355 1_455 S
C1046 C1048 1.415 . S
C1047 C1046 1.355 1_655 S
C1047 C1049 1.419 . S
C1048 C1046 1.415 . S
C1048 C1053 1.425 1_455 S
C1048 C1055 1.409 . S
C1049 H1041 0.930 . S
C1049 C1047 1.419 . S
C1049 C1050 1.362 . S
C1050 H1042 0.930 . S
C1050 C1049 1.362 . S
C1050 C1053 1.409 . S
C1051 H1043 0.930 . S
C1051 C1052 1.355 1_655 S
C1051 C1053 1.415 . S
C1052 C1051 1.355 1_455 S
C1052 C1054 1.419 . S
C1053 C1048 1.425 1_655 S
C1053 C1050 1.409 . S
C1053 C1051 1.415 . S
C1054 H1044 0.930 . S
C1054 C1052 1.419 . S
C1054 C1055 1.362 . S
C1055 H1045 0.930 . S
C1055 C1048 1.409 . S
C1055 C1054 1.362 . S
H1056 C1062 0.930 . S
H1057 C1065 0.930 . S
H1058 C1066 0.930 . S
H1059 C1067 0.930 . S
H1060 C1070 0.930 . S
H1061 C1071 0.930 . S
C1062 H1056 0.930 . S
C1062 C1063 1.355 . S
C1062 C1064 1.415 . S
C1063 C1062 1.355 . S
C1063 C1065 1.419 . S
C1064 C1062 1.415 . S
C1064 C1069 1.425 1_565 S
C1064 C1071 1.409 . S
C1065 H1057 0.930 . S
C1065 C1063 1.419 . S
C1065 C1066 1.362 1_565 S
C1066 H1058 0.930 . S
C1066 C1065 1.362 1_545 S
C1066 C1069 1.409 . S
C1067 H1059 0.930 . S
C1067 C1068 1.355 . S
C1067 C1069 1.415 . S
C1068 C1067 1.355 . S
C1068 C1070 1.419 . S
C1069 C1064 1.425 1_545 S
C1069 C1066 1.409 . S
C1069 C1067 1.415 . S
C1070 H1060 0.930 . S
C1070 C1068 1.419 . S
C1070 C1071 1.362 1_545 S
C1071 H1061 0.930 . S
C1071 C1064 1.409 . S
C1071 C1070 1.362 1_565 S
H1072 C1078 0.930 . S
H1073 C1081 0.930 . S
H1074 C1082 0.930 . S
H1075 C1083 0.930 . S
H1076 C1086 0.930 . S
H1077 C1087 0.930 . S
C1078 H1072 0.930 . S
C1078 C1079 1.355 . S
C1078 C1080 1.415 . S
C1079 C1078 1.355 . S
C1079 C1081 1.419 . S
C1080 C1078 1.415 . S
C1080 C1085 1.425 1_545 S
C1080 C1087 1.409 1_545 S
C1081 H1073 0.930 . S
C1081 C1079 1.419 . S
C1081 C1082 1.362 . S
C1082 H1074 0.930 . S
C1082 C1081 1.362 . S
C1082 C1085 1.409 1_545 S
C1083 H1075 0.930 . S
C1083 C1084 1.355 . S
C1083 C1085 1.415 . S
C1084 C1083 1.355 . S
C1084 C1086 1.419 . S
C1085 C1080 1.425 1_565 S
C1085 C1082 1.409 1_565 S
C1085 C1083 1.415 . S
C1086 H1076 0.930 . S
C1086 C1084 1.419 . S
C1086 C1087 1.362 . S
C1087 H1077 0.930 . S
C1087 C1080 1.409 1_565 S
C1087 C1086 1.362 . S
H1088 C1094 0.930 . S
H1089 C1097 0.930 . S
H1090 C1098 0.930 . S
H1091 C1099 0.930 . S
H1092 C1102 0.930 . S
H1093 C1103 0.930 . S
C1094 H1088 0.930 . S
C1094 C1095 1.355 . S
C1094 C1096 1.445 . S
C1095 C1094 1.355 . S
C1095 C1097 1.419 . S
C1096 C1094 1.445 . S
C1096 C1101 1.423 1_655 S
C1096 C1103 1.381 1_655 S
C1097 H1089 0.930 . S
C1097 C1095 1.419 . S
C1097 C1098 1.362 . S
C1098 H1090 0.930 . S
C1098 C1097 1.362 . S
C1098 C1101 1.380 1_655 S
C1099 H1091 0.930 . S
C1099 C1100 1.355 . S
C1099 C1101 1.445 . S
C1100 C1099 1.355 . S
C1100 C1102 1.419 . S
C1101 C1096 1.423 1_455 S
C1101 C1098 1.380 1_455 S
C1101 C1099 1.445 . S
C1102 H1092 0.930 . S
C1102 C1100 1.419 . S
C1102 C1103 1.362 . S
C1103 H1093 0.930 . S
C1103 C1096 1.381 1_455 S
C1103 C1102 1.362 . S
H1104 C1110 0.930 . S
H1105 C1113 0.930 . S
H1106 C1114 0.930 . S
H1107 C1115 0.930 . S
H1108 C1118 0.930 . S
H1109 C1119 0.930 . S
C1110 H1104 0.930 . S
C1110 C1111 1.355 1_455 S
C1110 C1112 1.415 . S
C1111 C1110 1.355 1_655 S
C1111 C1113 1.419 . S
C1112 C1110 1.415 . S
C1112 C1117 1.425 1_455 S
C1112 C1119 1.409 . S
C1113 H1105 0.930 . S
C1113 C1111 1.419 . S
C1113 C1114 1.362 . S
C1114 H1106 0.930 . S
C1114 C1113 1.362 . S
C1114 C1117 1.409 . S
C1115 H1107 0.930 . S
C1115 C1116 1.355 1_655 S
C1115 C1117 1.415 . S
C1116 C1115 1.355 1_455 S
C1116 C1118 1.419 . S
C1117 C1112 1.425 1_655 S
C1117 C1114 1.409 . S
C1117 C1115 1.415 . S
C1118 H1108 0.930 . S
C1118 C1116 1.419 . S
C1118 C1119 1.362 . S
C1119 H1109 0.930 . S
C1119 C1112 1.409 . S
C1119 C1118 1.362 . S
H1120 C1126 0.930 . S
H1121 C1129 0.930 . S
H1122 C1130 0.930 . S
H1123 C1131 0.930 . S
H1124 C1134 0.930 . S
H1125 C1135 0.930 . S
C1126 H1120 0.930 . S
C1126 C1127 1.355 1_565 S
C1126 C1128 1.415 . S
C1127 C1126 1.355 1_545 S
C1127 C1129 1.419 . S
C1128 C1126 1.415 . S
C1128 C1133 1.425 1_565 S
C1128 C1135 1.409 . S
C1129 H1121 0.930 . S
C1129 C1127 1.419 . S
C1129 C1130 1.362 . S
C1130 H1122 0.930 . S
C1130 C1129 1.362 . S
C1130 C1133 1.409 . S
C1131 H1123 0.930 . S
C1131 C1132 1.355 1_545 S
C1131 C1133 1.415 . S
C1132 C1131 1.355 1_565 S
C1132 C1134 1.419 . S
C1133 C1128 1.425 1_545 S
C1133 C1130 1.409 . S
C1133 C1131 1.415 . S
C1134 H1124 0.930 . S
C1134 C1132 1.419 . S
C1134 C1135 1.362 . S
C1135 H1125 0.930 . S
C1135 C1128 1.409 . S
C1135 C1134 1.362 . S
H1136 C1142 0.930 . S
H1137 C1145 0.930 . S
H1138 C1146 0.930 . S
H1139 C1147 0.930 . S
H1140 C1150 0.930 . S
H1141 C1151 0.930 . S
C1142 H1136 0.930 . S
C1142 C1143 1.355 . S
C1142 C1144 1.415 . S
C1143 C1142 1.355 . S
C1143 C1145 1.419 . S
C1144 C1142 1.415 . S
C1144 C1149 1.425 1_565 S
C1144 C1151 1.409 1_565 S
C1145 H1137 0.930 . S
C1145 C1143 1.419 . S
C1145 C1146 1.362 . S
C1146 H1138 0.930 . S
C1146 C1145 1.362 . S
C1146 C1149 1.409 1_565 S
C1147 H1139 0.930 . S
C1147 C1148 1.355 . S
C1147 C1149 1.415 . S
C1148 C1147 1.355 . S
C1148 C1150 1.419 . S
C1149 C1144 1.425 1_545 S
C1149 C1146 1.409 1_545 S
C1149 C1147 1.415 . S
C1150 H1140 0.930 . S
C1150 C1148 1.419 . S
C1150 C1151 1.362 . S
C1151 H1141 0.930 . S
C1151 C1144 1.409 1_545 S
C1151 C1150 1.362 . S
H1152 C1158 0.930 . S
H1153 C1161 0.930 . S
H1154 C1162 0.930 . S
H1155 C1163 0.930 . S
H1156 C1166 0.930 . S
H1157 C1167 0.930 . S
C1158 H1152 0.930 . S
C1158 C1159 1.355 . S
C1158 C1160 1.415 . S
C1159 C1158 1.355 . S
C1159 C1161 1.419 . S
C1160 C1158 1.415 . S
C1160 C1165 1.425 1_655 S
C1160 C1167 1.409 1_655 S
C1161 H1153 0.930 . S
C1161 C1159 1.419 . S
C1161 C1162 1.362 . S
C1162 H1154 0.930 . S
C1162 C1161 1.362 . S
C1162 C1165 1.409 1_655 S
C1163 H1155 0.930 . S
C1163 C1164 1.355 . S
C1163 C1165 1.415 . S
C1164 C1163 1.355 . S
C1164 C1166 1.419 . S
C1165 C1160 1.425 1_455 S
C1165 C1162 1.409 1_455 S
C1165 C1163 1.415 . S
C1166 H1156 0.930 . S
C1166 C1164 1.419 . S
C1166 C1167 1.362 . S
C1167 H1157 0.930 . S
C1167 C1160 1.409 1_455 S
C1167 C1166 1.362 . S
C535 C337 1.344 . S
C540 C7 1.356 . S
C551 C370 1.325 . S
C556 C40 1.375 . S
C567 C271 1.327 . S
C572 C73 1.373 . S
C583 C304 1.331 . S
C588 C106 1.370 . S
C599 C139 1.364 . S
C604 C469 1.336 . S
C615 C172 1.372 . S
C620 C502 1.328 . S
C631 C403 1.365 . S
C636 C205 1.336 . S
C647 C436 1.355 . S
C652 C238 1.346 . S
C663 C120 1.538 . S
C668 N2 1.500 . S
C679 N35 1.493 . S
C684 C21 1.538 . S
C695 C54 1.528 . S
C700 N68 1.468 . S
C711 N101 1.437 . S
C716 C87 1.513 . S
C727 C186 1.511 . S
C732 N134 1.434 . S
C743 C219 1.524 . S
C748 N167 1.460 . S
C759 C252 1.513 . S
C764 N200 1.437 . S
C775 N233 1.417 . S
C780 C153 1.498 . S
C791 N266 1.423 . S
C796 C384 1.504 . S
C807 N299 1.460 . S
C812 C285 1.514 . S
C823 C318 1.531 . S
C828 N332 1.474 . S
C839 N365 1.441 . S
C844 C351 1.506 . S
C855 N398 1.467 . S
C860 C450 1.528 . S
C871 N431 1.494 . S
C876 C483 1.538 . S
C887 N464 1.476 . S
C892 C516 1.531 . S
C903 C417 1.525 . S
C908 N497 1.481 . S
C919 C249 1.135 . S
C924 C18 1.136 . S
C935 C51 1.126 . S
C940 C150 1.106 . S
C951 C183 1.130 . S
C956 C84 1.137 . S
C967 C216 1.133 . S
C972 C117 1.137 . S
C983 C282 1.115 . S
C988 C513 1.094 . S
C999 C414 1.116 . S
C1004 C315 1.133 . S
C1015 C348 1.110 . S
C1020 C447 1.091 . S
C1031 C480 1.124 . S
C1036 C381 1.104 . S
C1047 N79 1.506 . S
C1052 N13 1.534 . S
C1063 N112 1.549 . S
C1068 N46 1.493 . S
C1079 N145 1.519 . S
C1084 N211 1.527 . S
C1095 N178 1.539 . S
C1100 N244 1.506 . S
C1111 N277 1.517 . S
C1116 N343 1.522 . S
C1127 N376 1.534 . S
C1132 N310 1.505 . S
C1143 N409 1.539 . S
C1148 N475 1.507 . S
C1159 N508 1.528 . S
C1164 N442 1.518 . S
