# Generated by pormake.
# Topology unw, (4)-cn, num edge types: 1
# Building blocks:
#     Node 0, Type 0, BuildingBlock: ESEHIV_clean_sbu_0, # of connection points: 4
#     Node 1, Type 0, BuildingBlock: ESEHIV_clean_sbu_0, # of connection points: 4
#     Node 2, Type 0, BuildingBlock: ESEHIV_clean_sbu_0, # of connection points: 4
#     Node 3, Type 0, BuildingBlock: ESEHIV_clean_sbu_0, # of connection points: 4
#     Node 4, Type 0, BuildingBlock: ESEHIV_clean_sbu_0, # of connection points: 4
#     Node 5, Type 0, BuildingBlock: ESEHIV_clean_sbu_0, # of connection points: 4
#     Node 6, Type 0, BuildingBlock: ESEHIV_clean_sbu_0, # of connection points: 4
#     Node 7, Type 0, BuildingBlock: ESEHIV_clean_sbu_0, # of connection points: 4
#     Node 8, Type 0, BuildingBlock: ESEHIV_clean_sbu_0, # of connection points: 4
#     Node 9, Type 0, BuildingBlock: ESEHIV_clean_sbu_0, # of connection points: 4
#     Node 10, Type 0, BuildingBlock: ESEHIV_clean_sbu_0, # of connection points: 4
#     Node 11, Type 0, BuildingBlock: ESEHIV_clean_sbu_0, # of connection points: 4
#     Node 12, Type 0, BuildingBlock: ESEHIV_clean_sbu_0, # of connection points: 4
#     Node 13, Type 0, BuildingBlock: ESEHIV_clean_sbu_0, # of connection points: 4
#     Node 14, Type 0, BuildingBlock: ESEHIV_clean_sbu_0, # of connection points: 4
#     Node 15, Type 0, BuildingBlock: ESEHIV_clean_sbu_0, # of connection points: 4
#     Node 16, Type 0, BuildingBlock: ESEHIV_clean_sbu_0, # of connection points: 4
#     Node 17, Type 0, BuildingBlock: ESEHIV_clean_sbu_0, # of connection points: 4
#     Node 18, Type 0, BuildingBlock: ESEHIV_clean_sbu_0, # of connection points: 4
#     Node 19, Type 0, BuildingBlock: ESEHIV_clean_sbu_0, # of connection points: 4
#     Node 20, Type 0, BuildingBlock: ESEHIV_clean_sbu_0, # of connection points: 4
#     Node 21, Type 0, BuildingBlock: ESEHIV_clean_sbu_0, # of connection points: 4
#     Node 22, Type 0, BuildingBlock: ESEHIV_clean_sbu_0, # of connection points: 4
#     Node 23, Type 0, BuildingBlock: ESEHIV_clean_sbu_0, # of connection points: 4
#     Edge 24, Type (0, 0), BuildingBlock: TEMPAE_clean_linker_10, # of connection points: 2
#     Edge 25, Type (0, 0), BuildingBlock: TEMPAE_clean_linker_10, # of connection points: 2
#     Edge 26, Type (0, 0), BuildingBlock: TEMPAE_clean_linker_10, # of connection points: 2
#     Edge 27, Type (0, 0), BuildingBlock: TEMPAE_clean_linker_10, # of connection points: 2
#     Edge 28, Type (0, 0), BuildingBlock: TEMPAE_clean_linker_10, # of connection points: 2
#     Edge 29, Type (0, 0), BuildingBlock: TEMPAE_clean_linker_10, # of connection points: 2
#     Edge 30, Type (0, 0), BuildingBlock: TEMPAE_clean_linker_10, # of connection points: 2
#     Edge 31, Type (0, 0), BuildingBlock: TEMPAE_clean_linker_10, # of connection points: 2
#     Edge 32, Type (0, 0), BuildingBlock: TEMPAE_clean_linker_10, # of connection points: 2
#     Edge 33, Type (0, 0), BuildingBlock: TEMPAE_clean_linker_10, # of connection points: 2
#     Edge 34, Type (0, 0), BuildingBlock: TEMPAE_clean_linker_10, # of connection points: 2
#     Edge 35, Type (0, 0), BuildingBlock: TEMPAE_clean_linker_10, # of connection points: 2
#     Edge 36, Type (0, 0), BuildingBlock: TEMPAE_clean_linker_10, # of connection points: 2
#     Edge 37, Type (0, 0), BuildingBlock: TEMPAE_clean_linker_10, # of connection points: 2
#     Edge 38, Type (0, 0), BuildingBlock: TEMPAE_clean_linker_10, # of connection points: 2
#     Edge 39, Type (0, 0), BuildingBlock: TEMPAE_clean_linker_10, # of connection points: 2
#     Edge 40, Type (0, 0), BuildingBlock: TEMPAE_clean_linker_10, # of connection points: 2
#     Edge 41, Type (0, 0), BuildingBlock: TEMPAE_clean_linker_10, # of connection points: 2
#     Edge 42, Type (0, 0), BuildingBlock: TEMPAE_clean_linker_10, # of connection points: 2
#     Edge 43, Type (0, 0), BuildingBlock: TEMPAE_clean_linker_10, # of connection points: 2
#     Edge 44, Type (0, 0), BuildingBlock: TEMPAE_clean_linker_10, # of connection points: 2
#     Edge 45, Type (0, 0), BuildingBlock: TEMPAE_clean_linker_10, # of connection points: 2
#     Edge 46, Type (0, 0), BuildingBlock: TEMPAE_clean_linker_10, # of connection points: 2
#     Edge 47, Type (0, 0), BuildingBlock: TEMPAE_clean_linker_10, # of connection points: 2
#     Edge 48, Type (0, 0), BuildingBlock: TEMPAE_clean_linker_10, # of connection points: 2
#     Edge 49, Type (0, 0), BuildingBlock: TEMPAE_clean_linker_10, # of connection points: 2
#     Edge 50, Type (0, 0), BuildingBlock: TEMPAE_clean_linker_10, # of connection points: 2
#     Edge 51, Type (0, 0), BuildingBlock: TEMPAE_clean_linker_10, # of connection points: 2
#     Edge 52, Type (0, 0), BuildingBlock: TEMPAE_clean_linker_10, # of connection points: 2
#     Edge 53, Type (0, 0), BuildingBlock: TEMPAE_clean_linker_10, # of connection points: 2
#     Edge 54, Type (0, 0), BuildingBlock: TEMPAE_clean_linker_10, # of connection points: 2
#     Edge 55, Type (0, 0), BuildingBlock: TEMPAE_clean_linker_10, # of connection points: 2
#     Edge 56, Type (0, 0), BuildingBlock: TEMPAE_clean_linker_10, # of connection points: 2
#     Edge 57, Type (0, 0), BuildingBlock: TEMPAE_clean_linker_10, # of connection points: 2
#     Edge 58, Type (0, 0), BuildingBlock: TEMPAE_clean_linker_10, # of connection points: 2
#     Edge 59, Type (0, 0), BuildingBlock: TEMPAE_clean_linker_10, # of connection points: 2
#     Edge 60, Type (0, 0), BuildingBlock: TEMPAE_clean_linker_10, # of connection points: 2
#     Edge 61, Type (0, 0), BuildingBlock: TEMPAE_clean_linker_10, # of connection points: 2
#     Edge 62, Type (0, 0), BuildingBlock: TEMPAE_clean_linker_10, # of connection points: 2
#     Edge 63, Type (0, 0), BuildingBlock: TEMPAE_clean_linker_10, # of connection points: 2
#     Edge 64, Type (0, 0), BuildingBlock: TEMPAE_clean_linker_10, # of connection points: 2
#     Edge 65, Type (0, 0), BuildingBlock: TEMPAE_clean_linker_10, # of connection points: 2
#     Edge 66, Type (0, 0), BuildingBlock: TEMPAE_clean_linker_10, # of connection points: 2
#     Edge 67, Type (0, 0), BuildingBlock: TEMPAE_clean_linker_10, # of connection points: 2
#     Edge 68, Type (0, 0), BuildingBlock: TEMPAE_clean_linker_10, # of connection points: 2
#     Edge 69, Type (0, 0), BuildingBlock: TEMPAE_clean_linker_10, # of connection points: 2
#     Edge 70, Type (0, 0), BuildingBlock: TEMPAE_clean_linker_10, # of connection points: 2
#     Edge 71, Type (0, 0), BuildingBlock: TEMPAE_clean_linker_10, # of connection points: 2
# Relax obj value: 0.335
# Max RMSD: 0.211
# Mean RMSD: 0.204
data_MOF--net-unw--node1-ESEHIV_clean_sbu_0--edge1-TEMPAE_clean_linker_10
_symmetry_space_group_name_H-M    P1
_symmetry_Int_Tables_number       1
_symmetry_cell_setting            triclinic
loop_
_symmetry_equiv_pos_as_xyz
'x, y, z'
_cell_length_a     50.805592
_cell_length_b     52.03753
_cell_length_c     51.443153
_cell_angle_alpha  90.690976
_cell_angle_beta   90.18304
_cell_angle_gamma 92.167151
loop_
_atom_site_label
_atom_site_type_symbol
_atom_site_fract_x
_atom_site_fract_y
_atom_site_fract_z
_atom_type_partial_charge
Cu0 Cu 0.11962 0.37984 0.26671 0.0
N1 N 0.13021 0.36927 0.29933 0.0
N2 N 0.13718 0.34027 0.32996 0.0
C3 C 0.12338 0.34594 0.30854 0.0
C4 C 0.15345 0.361 0.33448 0.0
C5 C 0.14902 0.37898 0.31551 0.0
O6 O 0.08588 0.36186 0.26077 0.0
C7 C 0.15084 0.37817 0.22064 0.0
O8 O 0.13574 0.39611 0.21187 0.0
H9 H 0.11028 0.33238 0.29829 0.0
H10 H 0.15995 0.39698 0.31268 0.0
N11 N 0.1181 0.41567 0.26486 0.0
N12 N 0.13048 0.45605 0.2546 0.0
C13 C 0.13836 0.43189 0.25863 0.0
C14 C 0.09669 0.43011 0.26517 0.0
C15 C 0.10426 0.455 0.25899 0.0
C16 C 0.06772 0.36484 0.2774 0.0
O17 O 0.07123 0.38217 0.29598 0.0
H18 H 0.15813 0.4256 0.25529 0.0
H19 H 0.07674 0.4229 0.26824 0.0
O20 O 0.14604 0.36824 0.24267 0.0
H21 H 0.16844 0.36244 0.34948 0.0
H22 H 0.09122 0.47083 0.25701 0.0
Cu23 Cu 0.63369 0.13192 0.24339 0.0
N24 N 0.65483 0.14059 0.21521 0.0
N25 N 0.68113 0.16612 0.19121 0.0
C26 C 0.66505 0.1645 0.21196 0.0
C27 C 0.68082 0.14213 0.1808 0.0
C28 C 0.6646 0.12633 0.19579 0.0
O29 O 0.59844 0.14332 0.23553 0.0
C30 C 0.66111 0.1424 0.29184 0.0
O31 O 0.656 0.11837 0.29813 0.0
H32 H 0.66072 0.18041 0.22479 0.0
H33 H 0.66065 0.10591 0.19305 0.0
N34 N 0.63353 0.09646 0.24948 0.0
N35 N 0.64619 0.05827 0.26371 0.0
C36 C 0.65406 0.0822 0.25623 0.0
C37 C 0.61204 0.08085 0.25198 0.0
C38 C 0.61973 0.05735 0.26071 0.0
C39 C 0.59269 0.16676 0.2387 0.0
O40 O 0.61027 0.18286 0.24931 0.0
H41 H 0.67416 0.08983 0.25709 0.0
H42 H 0.59202 0.08667 0.24915 0.0
O43 O 0.65043 0.15159 0.27177 0.0
H44 H 0.69201 0.13624 0.16404 0.0
H45 H 0.6066 0.04148 0.26616 0.0
Cu46 Cu 0.87291 0.61456 0.2948 0.0
N47 N 0.86375 0.62686 0.32747 0.0
N48 N 0.85965 0.65657 0.35871 0.0
C49 C 0.87331 0.64922 0.33768 0.0
C50 C 0.84077 0.63793 0.36202 0.0
C51 C 0.84343 0.61952 0.34271 0.0
O52 O 0.90811 0.62869 0.28829 0.0
C53 C 0.84455 0.61834 0.24719 0.0
O54 O 0.8614 0.60204 0.23794 0.0
H55 H 0.88837 0.66112 0.3284 0.0
H56 H 0.83033 0.60301 0.33891 0.0
N57 N 0.87198 0.57874 0.2937 0.0
N58 N 0.85942 0.53883 0.28127 0.0
C59 C 0.85254 0.56357 0.28328 0.0
C60 C 0.8917 0.56306 0.29893 0.0
C61 C 0.88402 0.53839 0.29125 0.0
C62 C 0.91171 0.6512 0.27925 0.0
O63 O 0.89129 0.66346 0.27079 0.0
H64 H 0.83446 0.57086 0.27562 0.0
H65 H 0.91078 0.56935 0.30652 0.0
O66 O 0.8471 0.6266 0.27047 0.0
H67 H 0.82523 0.63837 0.37634 0.0
H68 H 0.896 0.52166 0.29204 0.0
Cu69 Cu 0.36197 0.86438 0.26828 0.0
N70 N 0.3491 0.85359 0.30038 0.0
N71 N 0.31728 0.84707 0.32977 0.0
C72 C 0.32697 0.86244 0.31087 0.0
C73 C 0.33479 0.82825 0.3319 0.0
C74 C 0.3544 0.83233 0.3137 0.0
O75 O 0.35413 0.90073 0.26647 0.0
C76 C 0.32222 0.83225 0.2437 0.0
O77 O 0.30753 0.83902 0.26337 0.0
H78 H 0.31634 0.87787 0.30235 0.0
H79 H 0.36995 0.81946 0.30892 0.0
N80 N 0.3983 0.86039 0.26648 0.0
N81 N 0.43753 0.84736 0.25303 0.0
C82 C 0.4111 0.8449 0.25 0.0
C83 C 0.41717 0.873 0.2805 0.0
C84 C 0.44139 0.86505 0.27224 0.0
C85 C 0.3318 0.90885 0.25975 0.0
O86 O 0.31428 0.8926 0.24933 0.0
H87 H 0.40121 0.83258 0.23563 0.0
H88 H 0.41354 0.88717 0.2955 0.0
O89 O 0.34531 0.84241 0.24139 0.0
H90 H 0.33255 0.8116 0.34421 0.0
H91 H 0.46035 0.8717 0.27988 0.0
Cu92 Cu 0.13786 0.63825 0.74541 0.0
N93 N 0.16319 0.64522 0.72025 0.0
N94 N 0.19278 0.66975 0.69888 0.0
C95 C 0.17255 0.66924 0.71579 0.0
C96 C 0.19626 0.64484 0.69242 0.0
C97 C 0.17794 0.6297 0.70571 0.0
O98 O 0.10408 0.64792 0.73097 0.0
C99 C 0.1598 0.65429 0.79468 0.0
O100 O 0.15532 0.63065 0.80262 0.0
H101 H 0.1653 0.68593 0.72581 0.0
H102 H 0.17604 0.60893 0.70538 0.0
N103 N 0.13759 0.60353 0.75503 0.0
N104 N 0.15008 0.56522 0.76931 0.0
C105 C 0.15806 0.5892 0.76196 0.0
C106 C 0.11601 0.58811 0.75788 0.0
C107 C 0.12358 0.56458 0.76664 0.0
C108 C 0.08895 0.66359 0.7421 0.0
O109 O 0.09522 0.67258 0.76537 0.0
H110 H 0.1783 0.59645 0.76202 0.0
H111 H 0.09606 0.59384 0.75445 0.0
O112 O 0.14969 0.66124 0.77338 0.0
H113 H 0.21111 0.63799 0.67928 0.0
H114 H 0.11038 0.54859 0.77159 0.0
Cu115 Cu 0.34638 0.09755 0.77681 0.0
N116 N 0.31187 0.08941 0.78699 0.0
N117 N 0.26808 0.08967 0.78329 0.0
C118 C 0.29117 0.10207 0.77814 0.0
C119 C 0.2744 0.06812 0.79583 0.0
C120 C 0.30154 0.06806 0.79819 0.0
O121 O 0.35356 0.07418 0.74809 0.0
C122 C 0.33984 0.14858 0.78581 0.0
O123 O 0.33117 0.13828 0.80751 0.0
H124 H 0.29315 0.11894 0.76608 0.0
H125 H 0.31291 0.0527 0.80585 0.0
N126 N 0.37091 0.09507 0.80361 0.0
N127 N 0.40552 0.1085 0.82782 0.0
C128 C 0.39285 0.11027 0.80487 0.0
C129 C 0.36948 0.08302 0.82658 0.0
C130 C 0.39089 0.09126 0.84159 0.0
C131 C 0.35687 0.05072 0.75362 0.0
O132 O 0.35851 0.04441 0.7782 0.0
H133 H 0.39822 0.12386 0.78986 0.0
H134 H 0.35338 0.07024 0.83251 0.0
O135 O 0.3479 0.13386 0.76777 0.0
H136 H 0.26055 0.05297 0.80164 0.0
H137 H 0.39479 0.0857 0.8614 0.0
Cu138 Cu 0.86472 0.36669 0.77181 0.0
N139 N 0.85277 0.34453 0.79765 0.0
N140 N 0.82189 0.32124 0.81858 0.0
C141 C 0.82771 0.3433 0.80598 0.0
C142 C 0.84433 0.30814 0.81839 0.0
C143 C 0.86339 0.32259 0.80542 0.0
O144 O 0.8498 0.40008 0.77894 0.0
C145 C 0.82668 0.3501 0.73416 0.0
O146 O 0.81045 0.3648 0.7468 0.0
H147 H 0.8133 0.35705 0.80049 0.0
H148 H 0.8828 0.31655 0.80006 0.0
N149 N 0.90144 0.36662 0.76944 0.0
N150 N 0.94094 0.35567 0.75456 0.0
C151 C 0.91464 0.35476 0.75037 0.0
C152 C 0.91994 0.37535 0.78646 0.0
C153 C 0.94435 0.36877 0.77725 0.0
C154 C 0.86186 0.42195 0.78015 0.0
O155 O 0.88707 0.42378 0.77459 0.0
H156 H 0.90498 0.34534 0.73387 0.0
H157 H 0.91591 0.38517 0.80458 0.0
O158 O 0.8509 0.35068 0.74039 0.0
H159 H 0.84634 0.28886 0.82561 0.0
H160 H 0.96303 0.37254 0.787 0.0
Cu161 Cu 0.62528 0.89959 0.77889 0.0
N162 N 0.6353 0.88509 0.81017 0.0
N163 N 0.64319 0.85337 0.83762 0.0
C164 C 0.63042 0.86024 0.81597 0.0
C165 C 0.65665 0.87479 0.84592 0.0
C166 C 0.65157 0.89446 0.82899 0.0
O167 O 0.58921 0.88732 0.77314 0.0
C168 C 0.6741 0.89537 0.75682 0.0
O169 O 0.67984 0.91016 0.77709 0.0
H170 H 0.61928 0.84693 0.80348 0.0
H171 H 0.66027 0.91376 0.82953 0.0
N172 N 0.62686 0.93545 0.7806 0.0
N173 N 0.63537 0.97623 0.76929 0.0
C174 C 0.63813 0.95124 0.76295 0.0
C175 C 0.61652 0.95092 0.79871 0.0
C176 C 0.62169 0.97615 0.79175 0.0
C177 C 0.58344 0.86506 0.76384 0.0
O178 O 0.60226 0.85154 0.75369 0.0
H179 H 0.64772 0.94452 0.74553 0.0
H180 H 0.60587 0.94428 0.81568 0.0
O181 O 0.65013 0.88827 0.75288 0.0
H182 H 0.67 0.87587 0.86237 0.0
H183 H 0.61604 0.99308 0.80247 0.0
Cu184 Cu 0.24354 0.13369 0.37361 0.0
N185 N 0.20842 0.13624 0.36393 0.0
N186 N 0.17258 0.15862 0.35623 0.0
C187 C 0.19337 0.15544 0.37202 0.0
C188 C 0.17424 0.14014 0.3377 0.0
C189 C 0.19638 0.12631 0.34254 0.0
O190 O 0.24621 0.14749 0.40914 0.0
C191 C 0.28612 0.14901 0.3394 0.0
O192 O 0.30011 0.13184 0.35113 0.0
H193 H 0.19934 0.16902 0.38713 0.0
H194 H 0.20464 0.11203 0.32982 0.0
N195 N 0.25304 0.09932 0.37251 0.0
N196 N 0.26619 0.06107 0.35818 0.0
C197 C 0.25902 0.08491 0.35151 0.0
C198 C 0.25644 0.08416 0.39311 0.0
C199 C 0.26452 0.06061 0.38439 0.0
C200 C 0.24534 0.17145 0.41436 0.0
O201 O 0.24699 0.18787 0.39517 0.0
H202 H 0.25822 0.09189 0.3318 0.0
H203 H 0.25368 0.09002 0.41314 0.0
O204 O 0.2631 0.15342 0.34762 0.0
H205 H 0.16184 0.13832 0.32058 0.0
H206 H 0.26951 0.04467 0.39655 0.0
Cu207 Cu 0.86883 0.26929 0.35775 0.0
N208 N 0.86131 0.29892 0.33962 0.0
N209 N 0.8622 0.32758 0.30765 0.0
C210 C 0.87338 0.30685 0.31775 0.0
C211 C 0.84236 0.33307 0.324 0.0
C212 C 0.84192 0.31535 0.34377 0.0
O213 O 0.90553 0.26263 0.3508 0.0
C214 C 0.8319 0.2402 0.32588 0.0
O215 O 0.83886 0.25593 0.30713 0.0
H216 H 0.88903 0.29669 0.30852 0.0
H217 H 0.82791 0.31398 0.35953 0.0
N218 N 0.86334 0.27486 0.39305 0.0
N219 N 0.84536 0.26824 0.43202 0.0
C220 C 0.85187 0.25755 0.40905 0.0
C221 C 0.86434 0.29728 0.4064 0.0
C222 C 0.85313 0.29326 0.43051 0.0
C223 C 0.91279 0.25465 0.32856 0.0
O224 O 0.89478 0.24568 0.3121 0.0
H225 H 0.84653 0.23798 0.4032 0.0
H226 H 0.87118 0.31553 0.39856 0.0
O227 O 0.84379 0.24181 0.34768 0.0
H228 H 0.82868 0.34829 0.32148 0.0
H229 H 0.84994 0.30776 0.44531 0.0
Cu230 Cu 0.76648 0.86138 0.38945 0.0
N231 N 0.80292 0.86181 0.38578 0.0
N232 N 0.84021 0.84045 0.38318 0.0
C233 C 0.81765 0.84369 0.39629 0.0
C234 C 0.84015 0.85811 0.36413 0.0
C235 C 0.81709 0.87126 0.36579 0.0
O236 O 0.75907 0.844 0.42227 0.0
C237 C 0.72899 0.83716 0.35375 0.0
O238 O 0.71071 0.84184 0.37099 0.0
H239 H 0.81019 0.83034 0.41064 0.0
H240 H 0.80969 0.88422 0.35143 0.0
N241 N 0.75403 0.89469 0.38913 0.0
N242 N 0.73631 0.9306 0.37468 0.0
C243 C 0.74566 0.90741 0.36816 0.0
C244 C 0.74999 0.91033 0.40961 0.0
C245 C 0.73904 0.93248 0.40077 0.0
C246 C 0.76016 0.81965 0.42423 0.0
O247 O 0.76199 0.8057 0.40289 0.0
H248 H 0.74566 0.89943 0.34863 0.0
H249 H 0.75432 0.90574 0.42959 0.0
O250 O 0.75294 0.8431 0.3589 0.0
H251 H 0.85415 0.85933 0.34834 0.0
H252 H 0.73349 0.94869 0.41266 0.0
Cu253 Cu 0.11988 0.785 0.337 0.0
N254 N 0.14657 0.77909 0.31309 0.0
N255 N 0.16494 0.76918 0.27497 0.0
C256 C 0.14276 0.7759 0.28734 0.0
C257 C 0.18345 0.76822 0.29381 0.0
C258 C 0.17202 0.77411 0.31727 0.0
O259 O 0.09091 0.76129 0.32764 0.0
C260 C 0.12146 0.84075 0.33638 0.0
O261 O 0.10973 0.86279 0.33579 0.0
H262 H 0.12363 0.77697 0.2782 0.0
H263 H 0.18142 0.77369 0.33606 0.0
N264 N 0.13054 0.77931 0.37123 0.0
N265 N 0.15311 0.78336 0.40851 0.0
C266 C 0.15352 0.78684 0.38258 0.0
C267 C 0.11517 0.77046 0.39068 0.0
C268 C 0.129 0.77302 0.41374 0.0
C269 C 0.0674 0.76429 0.33516 0.0
O270 O 0.06236 0.78371 0.35069 0.0
H271 H 0.16968 0.7961 0.37236 0.0
H272 H 0.09491 0.76368 0.38844 0.0
O273 O 0.1076 0.81989 0.33448 0.0
H274 H 0.20363 0.76288 0.29106 0.0
H275 H 0.12166 0.76835 0.4329 0.0
Cu276 Cu 0.32503 0.85551 0.60343 0.0
N277 N 0.3557 0.8372 0.60142 0.0
N278 N 0.38609 0.8104 0.61484 0.0
C279 C 0.36786 0.82726 0.62199 0.0
C280 C 0.38558 0.80992 0.5886 0.0
C281 C 0.36679 0.82657 0.58035 0.0
O282 O 0.33237 0.88748 0.62245 0.0
C283 C 0.29894 0.82722 0.64406 0.0
O284 O 0.31554 0.83924 0.66009 0.0
H285 H 0.36185 0.83066 0.64183 0.0
H286 H 0.36044 0.82937 0.56053 0.0
N287 N 0.3126 0.86152 0.57011 0.0
N288 N 0.28918 0.85561 0.53353 0.0
C289 C 0.29383 0.8471 0.55775 0.0
C290 C 0.32021 0.87989 0.55327 0.0
C291 C 0.30573 0.87632 0.53066 0.0
C292 C 0.31458 0.90062 0.63295 0.0
O293 O 0.28985 0.89247 0.63096 0.0
H294 H 0.28365 0.83079 0.56657 0.0
H295 H 0.33533 0.89464 0.55711 0.0
O296 O 0.29911 0.83296 0.62011 0.0
H297 H 0.39692 0.79749 0.5763 0.0
H298 H 0.30762 0.88784 0.51334 0.0
Cu299 Cu 0.14176 0.23018 0.63341 0.0
N300 N 0.1329 0.19703 0.6442 0.0
N301 N 0.13867 0.16112 0.66646 0.0
C302 C 0.15045 0.18126 0.65431 0.0
C303 C 0.11255 0.16428 0.66375 0.0
C304 C 0.10904 0.1865 0.64991 0.0
O305 O 0.16144 0.2284 0.60077 0.0
C306 C 0.16728 0.26841 0.66632 0.0
O307 O 0.15941 0.28527 0.64944 0.0
H308 H 0.17141 0.18585 0.65494 0.0
H309 H 0.09053 0.19536 0.64606 0.0
N310 N 0.11134 0.24915 0.63096 0.0
N311 N 0.07671 0.27163 0.64344 0.0
C312 C 0.09768 0.25838 0.65121 0.0
C313 C 0.09868 0.25673 0.60956 0.0
C314 C 0.07732 0.27058 0.61718 0.0
C315 C 0.15209 0.21508 0.58168 0.0
O316 O 0.12867 0.20375 0.58405 0.0
H317 H 0.10338 0.25572 0.67126 0.0
H318 H 0.10457 0.25251 0.58983 0.0
O319 O 0.16297 0.24456 0.66179 0.0
H320 H 0.09719 0.15224 0.6724 0.0
H321 H 0.06319 0.27893 0.60429 0.0
Cu322 Cu 0.69401 0.1686 0.62919 0.0
N323 N 0.66097 0.18255 0.6301 0.0
N324 N 0.62743 0.20447 0.64568 0.0
C325 C 0.65247 0.19755 0.64948 0.0
C326 C 0.61998 0.19347 0.62277 0.0
C327 C 0.64077 0.17986 0.6132 0.0
O328 O 0.69127 0.13517 0.64561 0.0
C329 C 0.74194 0.19521 0.64506 0.0
O330 O 0.75385 0.18042 0.62829 0.0
H331 H 0.66464 0.20331 0.666 0.0
H332 H 0.64107 0.1686 0.5954 0.0
N333 N 0.70537 0.16645 0.59484 0.0
N334 N 0.72618 0.17709 0.55815 0.0
C335 C 0.71948 0.18479 0.58226 0.0
C336 C 0.70254 0.1466 0.57793 0.0
C337 C 0.71536 0.15315 0.55517 0.0
C338 C 0.69454 0.13332 0.67006 0.0
O339 O 0.70139 0.15403 0.68368 0.0
H340 H 0.72513 0.2033 0.5908 0.0
H341 H 0.69242 0.12846 0.58211 0.0
O342 O 0.71726 0.19231 0.6486 0.0
H343 H 0.60075 0.19464 0.61385 0.0
H344 H 0.71746 0.14093 0.53818 0.0
Cu345 Cu 0.86197 0.75822 0.63629 0.0
N346 N 0.85227 0.79124 0.64573 0.0
N347 N 0.8264 0.82158 0.66122 0.0
C348 C 0.83087 0.79624 0.65996 0.0
C349 C 0.84579 0.83306 0.64711 0.0
C350 C 0.86175 0.81423 0.63755 0.0
O351 O 0.8472 0.75239 0.60149 0.0
C352 C 0.85604 0.74196 0.68637 0.0
O353 O 0.87205 0.76226 0.68917 0.0
H354 H 0.81806 0.78137 0.66817 0.0
H355 H 0.87849 0.81702 0.62482 0.0
N356 N 0.89875 0.7558 0.63579 0.0
N357 N 0.93929 0.74349 0.64618 0.0
C358 C 0.91312 0.74011 0.6504 0.0
C359 C 0.91635 0.76942 0.62156 0.0
C360 C 0.94132 0.76193 0.62792 0.0
C361 C 0.82264 0.75459 0.59731 0.0
O362 O 0.80681 0.75668 0.6173 0.0
H363 H 0.90452 0.72687 0.6643 0.0
H364 H 0.91137 0.78388 0.60763 0.0
O365 O 0.84831 0.73554 0.66348 0.0
H366 H 0.84806 0.8535 0.64367 0.0
H367 H 0.95951 0.76947 0.6196 0.0
Cu368 Cu 0.36473 0.26651 0.1368 0.0
N369 N 0.35488 0.29976 0.14443 0.0
N370 N 0.32658 0.33048 0.15319 0.0
C371 C 0.32961 0.30639 0.14407 0.0
C372 C 0.35112 0.33943 0.15951 0.0
C373 C 0.36861 0.32038 0.15404 0.0
O374 O 0.35063 0.25933 0.10174 0.0
C375 C 0.34569 0.22206 0.1666 0.0
O376 O 0.35206 0.20703 0.1471 0.0
H377 H 0.31358 0.29304 0.13874 0.0
H378 H 0.38956 0.32112 0.15787 0.0
N379 N 0.40142 0.2637 0.13918 0.0
N380 N 0.44071 0.24965 0.15139 0.0
C381 C 0.4143 0.24527 0.15172 0.0
C382 C 0.42036 0.28042 0.13091 0.0
C383 C 0.44454 0.27174 0.13823 0.0
C384 C 0.35976 0.27336 0.0834 0.0
O385 O 0.37946 0.28966 0.08855 0.0
H386 H 0.40446 0.22914 0.16118 0.0
H387 H 0.41688 0.29821 0.12107 0.0
O388 O 0.34876 0.24632 0.16458 0.0
H389 H 0.356 0.35805 0.16821 0.0
H390 H 0.46341 0.28152 0.13501 0.0
Cu391 Cu 0.39822 0.71738 0.83476 0.0
N392 N 0.41029 0.7009 0.80501 0.0
N393 N 0.41744 0.69915 0.76221 0.0
C394 C 0.40152 0.7071 0.78135 0.0
C395 C 0.43706 0.6872 0.77435 0.0
C396 C 0.4326 0.68833 0.80082 0.0
O397 O 0.41645 0.75081 0.83433 0.0
C398 C 0.34772 0.69906 0.82539 0.0
O399 O 0.36085 0.67793 0.82255 0.0
H400 H 0.38541 0.71983 0.7785 0.0
H401 H 0.44601 0.6826 0.81581 0.0
N402 N 0.40384 0.69909 0.86522 0.0
N403 N 0.39386 0.68064 0.9032 0.0
C404 C 0.38602 0.6966 0.88441 0.0
C405 C 0.4238 0.68427 0.87208 0.0
C406 C 0.41774 0.67294 0.89553 0.0
C407 C 0.44106 0.75215 0.8391 0.0
O408 O 0.45228 0.73191 0.84849 0.0
H409 H 0.36746 0.70614 0.88431 0.0
H410 H 0.44126 0.68137 0.86068 0.0
O411 O 0.36037 0.71998 0.83101 0.0
H412 H 0.45434 0.6799 0.76496 0.0
H413 H 0.42963 0.65939 0.90563 0.0
Cu414 Cu 0.27637 0.35585 0.86989 0.0
N415 N 0.30812 0.35472 0.85202 0.0
N416 N 0.33566 0.33239 0.82745 0.0
C417 C 0.32093 0.33271 0.8492 0.0
C418 C 0.33235 0.35537 0.81627 0.0
C419 C 0.31539 0.36915 0.83152 0.0
O420 O 0.28146 0.34253 0.90501 0.0
C421 C 0.23036 0.33736 0.84074 0.0
O422 O 0.21721 0.35613 0.85113 0.0
H423 H 0.31637 0.31579 0.86059 0.0
H424 H 0.30635 0.38683 0.82619 0.0
N425 N 0.26425 0.38951 0.87119 0.0
N426 N 0.24618 0.42669 0.86065 0.0
C427 C 0.25467 0.40382 0.8518 0.0
C428 C 0.26205 0.40392 0.89288 0.0
C429 C 0.25094 0.42676 0.8865 0.0
C430 C 0.28175 0.31858 0.90996 0.0
O431 O 0.27688 0.30184 0.89107 0.0
H432 H 0.25308 0.3972 0.83181 0.0
H433 H 0.26775 0.398 0.91212 0.0
O434 O 0.25368 0.33355 0.84842 0.0
H435 H 0.33943 0.3607 0.79718 0.0
H436 H 0.24665 0.4422 0.89993 0.0
Cu437 Cu 0.58026 0.28239 0.85957 0.0
N438 N 0.56546 0.29779 0.83079 0.0
N439 N 0.55398 0.30058 0.78905 0.0
C440 C 0.55823 0.28477 0.80908 0.0
C441 C 0.55814 0.32461 0.7988 0.0
C442 C 0.56505 0.32283 0.8247 0.0
O443 O 0.55905 0.25143 0.86662 0.0
C444 C 0.62923 0.28104 0.83196 0.0
O445 O 0.61626 0.29113 0.81275 0.0
H446 H 0.55934 0.26409 0.80721 0.0
H447 H 0.5716 0.33849 0.83745 0.0
N448 N 0.58122 0.30491 0.88791 0.0
N449 N 0.59891 0.32869 0.92037 0.0
C450 C 0.60309 0.3108 0.90182 0.0
C451 C 0.56238 0.31955 0.89792 0.0
C452 C 0.57324 0.3342 0.91811 0.0
C453 C 0.53414 0.25321 0.86745 0.0
O454 O 0.52421 0.27608 0.86566 0.0
H455 H 0.62175 0.30204 0.89832 0.0
H456 H 0.54238 0.31996 0.89073 0.0
O457 O 0.61698 0.27462 0.85262 0.0
H458 H 0.55835 0.34205 0.78752 0.0
H459 H 0.56321 0.34825 0.92974 0.0
Cu460 Cu 0.75031 0.64049 0.88433 0.0
N461 N 0.71586 0.64555 0.87377 0.0
N462 N 0.68255 0.67062 0.86407 0.0
C463 C 0.70262 0.6665 0.88049 0.0
C464 C 0.68286 0.65116 0.84649 0.0
C465 C 0.70345 0.63566 0.85257 0.0
O466 O 0.75329 0.65426 0.91976 0.0
C467 C 0.79433 0.65441 0.85094 0.0
O468 O 0.80735 0.63604 0.86186 0.0
H469 H 0.70955 0.6803 0.89506 0.0
H470 H 0.71056 0.62004 0.84079 0.0
N471 N 0.75759 0.60544 0.88358 0.0
N472 N 0.77255 0.56711 0.87155 0.0
C473 C 0.76757 0.5913 0.86402 0.0
C474 C 0.75573 0.58956 0.90396 0.0
C475 C 0.7649 0.56599 0.89665 0.0
C476 C 0.75561 0.67829 0.92475 0.0
O477 O 0.75948 0.6943 0.90545 0.0
H478 H 0.77207 0.59892 0.845 0.0
H479 H 0.74877 0.595 0.92302 0.0
O480 O 0.77154 0.65956 0.85922 0.0
H481 H 0.67063 0.64953 0.82924 0.0
H482 H 0.76605 0.54939 0.90902 0.0
Cu483 Cu 0.65122 0.73744 0.13907 0.0
N484 N 0.65376 0.70397 0.15111 0.0
N485 N 0.67748 0.67127 0.16456 0.0
C486 C 0.67425 0.68909 0.14604 0.0
C487 C 0.65708 0.67416 0.18102 0.0
C488 C 0.64257 0.69439 0.17272 0.0
O489 O 0.66693 0.73861 0.10439 0.0
C490 C 0.68689 0.75346 0.17953 0.0
O491 O 0.6979 0.73155 0.17454 0.0
H492 H 0.68842 0.69351 0.13099 0.0
H493 H 0.62716 0.70351 0.1835 0.0
N494 N 0.61581 0.74572 0.13744 0.0
N495 N 0.57684 0.76092 0.14892 0.0
C496 C 0.60156 0.756 0.15674 0.0
C497 C 0.59961 0.74395 0.11673 0.0
C498 C 0.57556 0.75333 0.12373 0.0
C499 C 0.69169 0.73928 0.10038 0.0
O500 O 0.7078 0.7421 0.12031 0.0
H501 H 0.60945 0.76042 0.17591 0.0
H502 H 0.60503 0.73663 0.0978 0.0
O503 O 0.66819 0.76055 0.16499 0.0
H504 H 0.65474 0.66468 0.19953 0.0
H505 H 0.55847 0.75443 0.11123 0.0
Cu506 Cu 0.24483 0.6284 0.12147 0.0
N507 N 0.21356 0.64178 0.10975 0.0
N508 N 0.18187 0.66972 0.11578 0.0
C509 C 0.19677 0.65193 0.12673 0.0
C510 C 0.18912 0.67039 0.09059 0.0
C511 C 0.20852 0.6528 0.0868 0.0
O512 O 0.23555 0.59894 0.14293 0.0
C513 C 0.26288 0.67877 0.13318 0.0
O514 O 0.25365 0.68268 0.10977 0.0
H515 H 0.19865 0.64963 0.14753 0.0
H516 H 0.2206 0.65108 0.06965 0.0
N517 N 0.26585 0.61825 0.09381 0.0
N518 N 0.29121 0.61913 0.05834 0.0
C519 C 0.2765 0.63294 0.07489 0.0
C520 C 0.27405 0.59438 0.08916 0.0
C521 C 0.28966 0.59483 0.06731 0.0
C522 C 0.23008 0.60131 0.16695 0.0
O523 O 0.23236 0.62415 0.17806 0.0
H524 H 0.27332 0.65327 0.07318 0.0
H525 H 0.2692 0.57786 0.10102 0.0
O526 O 0.2625 0.65591 0.14187 0.0
H527 H 0.1832 0.68466 0.07682 0.0
H528 H 0.29953 0.57859 0.05905 0.0
Cu529 Cu 0.77795 0.38113 0.11463 0.0
N530 N 0.81384 0.37684 0.11 0.0
N531 N 0.8537 0.37023 0.12645 0.0
C532 C 0.83154 0.38352 0.12851 0.0
C533 C 0.85017 0.3553 0.10496 0.0
C534 C 0.82557 0.35956 0.0947 0.0
O535 O 0.77494 0.40812 0.14079 0.0
C536 C 0.77369 0.33113 0.1369 0.0
O537 O 0.79876 0.33513 0.1424 0.0
H538 H 0.82651 0.39441 0.14572 0.0
H539 H 0.81563 0.34827 0.07957 0.0
N540 N 0.76278 0.39095 0.08358 0.0
N541 N 0.73644 0.39054 0.04874 0.0
C542 C 0.74256 0.37875 0.0711 0.0
C543 C 0.7698 0.41114 0.06875 0.0
C544 C 0.75355 0.41098 0.04722 0.0
C545 C 0.77574 0.40335 0.16499 0.0
O546 O 0.77542 0.37931 0.17248 0.0
H547 H 0.73246 0.36168 0.07846 0.0
H548 H 0.78576 0.42486 0.0732 0.0
O549 O 0.76112 0.34869 0.12574 0.0
H550 H 0.86285 0.34 0.09916 0.0
H551 H 0.75463 0.42455 0.03145 0.0
C552 C 0.21061 0.58225 0.20743 0.0
C553 C 0.21877 0.57909 0.18158 0.0
C554 C 0.1977 0.56206 0.22079 0.0
C555 C 0.19283 0.53809 0.20803 0.0
C556 C 0.20186 0.53447 0.18227 0.0
C557 C 0.2147 0.55499 0.16936 0.0
C558 C 0.18847 0.56668 0.24827 0.0
C559 C 0.19714 0.50916 0.16802 0.0
C560 C 0.17353 0.47881 0.24743 0.0
C561 C 0.14606 0.47729 0.24407 0.0
C562 C 0.18902 0.49858 0.23604 0.0
C563 C 0.17679 0.51737 0.22096 0.0
C564 C 0.14907 0.51619 0.21783 0.0
C565 C 0.1341 0.49621 0.22936 0.0
C566 C 0.21851 0.49922 0.23991 0.0
C567 C 0.13524 0.53582 0.20187 0.0
H568 H 0.21371 0.60075 0.2171 0.0
H569 H 0.22101 0.55229 0.14944 0.0
H570 H 0.16662 0.56568 0.2488 0.0
H571 H 0.19549 0.5515 0.26126 0.0
H572 H 0.19546 0.58574 0.25609 0.0
H573 H 0.20688 0.5089 0.14872 0.0
H574 H 0.2045 0.49315 0.17972 0.0
H575 H 0.17568 0.50544 0.16512 0.0
H576 H 0.18295 0.46451 0.25898 0.0
H577 H 0.11302 0.49509 0.22621 0.0
H578 H 0.22524 0.51794 0.24863 0.0
H579 H 0.22845 0.49741 0.22083 0.0
H580 H 0.22494 0.48353 0.25264 0.0
H581 H 0.13999 0.55547 0.20954 0.0
H582 H 0.1135 0.53258 0.20184 0.0
H583 H 0.14227 0.5351 0.18148 0.0
C584 C 0.5608 0.20192 0.23354 0.0
C585 C 0.5677 0.17654 0.22821 0.0
C586 C 0.53864 0.21241 0.2219 0.0
C587 C 0.52299 0.19725 0.20428 0.0
C588 C 0.52933 0.17135 0.19943 0.0
C589 C 0.55154 0.16127 0.21152 0.0
C590 C 0.53247 0.24003 0.22782 0.0
C591 C 0.51324 0.15457 0.18072 0.0
C592 C 0.45534 0.22165 0.18688 0.0
C593 C 0.46073 0.235 0.16383 0.0
C594 C 0.47523 0.20879 0.20001 0.0
C595 C 0.5011 0.20912 0.18976 0.0
C596 C 0.50643 0.22192 0.1661 0.0
C597 C 0.48624 0.23474 0.15351 0.0
C598 C 0.46875 0.19553 0.22525 0.0
C599 C 0.53363 0.22254 0.15431 0.0
H600 H 0.57303 0.21386 0.24651 0.0
H601 H 0.5567 0.14165 0.20723 0.0
H602 H 0.53497 0.25166 0.21001 0.0
H603 H 0.51167 0.24133 0.23403 0.0
H604 H 0.54542 0.24866 0.2433 0.0
H605 H 0.51958 0.13436 0.18045 0.0
H606 H 0.49207 0.15468 0.18594 0.0
H607 H 0.51514 0.16234 0.1608 0.0
H608 H 0.43577 0.22196 0.19513 0.0
H609 H 0.49046 0.24464 0.13551 0.0
H610 H 0.47987 0.20525 0.2414 0.0
H611 H 0.47487 0.1753 0.22444 0.0
H612 H 0.44739 0.19567 0.22981 0.0
H613 H 0.54774 0.23287 0.16761 0.0
H614 H 0.53423 0.2322 0.13517 0.0
H615 H 0.54049 0.20268 0.15174 0.0
C616 C 0.78569 0.41868 0.2104 0.0
C617 C 0.78237 0.4243 0.184 0.0
C618 C 0.79606 0.4373 0.22798 0.0
C619 C 0.80311 0.46222 0.219 0.0
C620 C 0.79845 0.46843 0.19269 0.0
C621 C 0.78813 0.44941 0.17552 0.0
C622 C 0.80091 0.42979 0.2558 0.0
C623 C 0.80568 0.49479 0.18235 0.0
C624 C 0.81755 0.51769 0.26647 0.0
C625 C 0.84518 0.51848 0.26731 0.0
C626 C 0.80349 0.49915 0.25131 0.0
C627 C 0.81742 0.4811 0.23646 0.0
C628 C 0.84529 0.4815 0.23762 0.0
C629 C 0.85881 0.50012 0.25306 0.0
C630 C 0.77379 0.49913 0.25083 0.0
C631 C 0.86093 0.46285 0.22181 0.0
H632 H 0.78112 0.3994 0.21719 0.0
H633 H 0.7856 0.45398 0.15518 0.0
H634 H 0.82241 0.42854 0.25915 0.0
H635 H 0.79361 0.44458 0.26941 0.0
H636 H 0.79129 0.4109 0.2605 0.0
H637 H 0.79873 0.49723 0.16206 0.0
H638 H 0.79716 0.50991 0.19478 0.0
H639 H 0.8274 0.49794 0.18281 0.0
H640 H 0.80693 0.5317 0.27763 0.0
H641 H 0.88013 0.50086 0.2532 0.0
H642 H 0.7655 0.47989 0.25617 0.0
H643 H 0.76682 0.50312 0.23087 0.0
H644 H 0.76587 0.51373 0.26434 0.0
H645 H 0.8526 0.443 0.22389 0.0
H646 H 0.88202 0.46324 0.22761 0.0
H647 H 0.85968 0.46779 0.20093 0.0
C648 C 0.5552 0.76951 0.19103 0.0
C649 C 0.55644 0.77268 0.164 0.0
C650 C 0.53562 0.78106 0.20594 0.0
C651 C 0.5169 0.79636 0.19359 0.0
C652 C 0.51801 0.79959 0.16631 0.0
C653 C 0.53767 0.78765 0.15187 0.0
C654 C 0.53499 0.77693 0.23493 0.0
C655 C 0.49862 0.81594 0.1524 0.0
C656 C 0.45228 0.80977 0.22778 0.0
C657 C 0.45745 0.83445 0.23834 0.0
C658 C 0.47148 0.79705 0.21339 0.0
C659 C 0.49643 0.80937 0.20923 0.0
C660 C 0.50176 0.83429 0.21981 0.0
C661 C 0.48228 0.84646 0.23428 0.0
C662 C 0.46507 0.77041 0.20265 0.0
C663 C 0.52799 0.84822 0.21563 0.0
H664 H 0.5694 0.75772 0.20051 0.0
H665 H 0.53867 0.7905 0.13107 0.0
H666 H 0.5376 0.79565 0.24534 0.0
H667 H 0.51554 0.76843 0.24066 0.0
H668 H 0.55059 0.76406 0.2415 0.0
H669 H 0.50196 0.81632 0.13108 0.0
H670 H 0.47821 0.80855 0.15602 0.0
H671 H 0.50016 0.83595 0.1601 0.0
H672 H 0.43329 0.80022 0.23108 0.0
H673 H 0.48633 0.86564 0.24203 0.0
H674 H 0.47941 0.75672 0.21014 0.0
H675 H 0.4668 0.77036 0.18116 0.0
H676 H 0.44489 0.76335 0.20787 0.0
H677 H 0.54412 0.83669 0.22335 0.0
H678 H 0.52907 0.86748 0.22521 0.0
H679 H 0.53154 0.85065 0.19451 0.0
C680 C 0.23922 0.45054 0.81982 0.0
C681 C 0.23341 0.44642 0.84614 0.0
C682 C 0.22707 0.46997 0.80576 0.0
C683 C 0.20842 0.48551 0.81819 0.0
C684 C 0.20238 0.48132 0.84471 0.0
C685 C 0.21496 0.46196 0.85831 0.0
C686 C 0.23424 0.47391 0.7776 0.0
C687 C 0.18239 0.49714 0.8587 0.0
C688 C 0.19026 0.55085 0.79179 0.0
C689 C 0.16586 0.54505 0.77973 0.0
C690 C 0.20476 0.53157 0.8036 0.0
C691 C 0.19464 0.5058 0.80353 0.0
C692 C 0.17044 0.49969 0.79075 0.0
C693 C 0.15647 0.51929 0.77896 0.0
C694 C 0.23053 0.53893 0.81687 0.0
C695 C 0.15886 0.47253 0.79018 0.0
H696 H 0.2536 0.43882 0.81033 0.0
H697 H 0.20996 0.45869 0.87847 0.0
H698 H 0.21646 0.47103 0.76518 0.0
H699 H 0.2418 0.49396 0.77476 0.0
H700 H 0.2494 0.46054 0.77086 0.0
H701 H 0.18006 0.49165 0.87939 0.0
H702 H 0.18834 0.51785 0.85793 0.0
H703 H 0.16295 0.49472 0.84889 0.0
H704 H 0.19771 0.5706 0.79277 0.0
H705 H 0.13798 0.51438 0.76928 0.0
H706 H 0.24628 0.52638 0.80987 0.0
H707 H 0.22862 0.53605 0.83813 0.0
H708 H 0.23676 0.5593 0.81345 0.0
H709 H 0.17332 0.45916 0.7821 0.0
H710 H 0.1405 0.47069 0.77841 0.0
H711 H 0.15434 0.46629 0.81028 0.0
C712 C 0.52633 0.20523 0.86869 0.0
C713 C 0.51636 0.22992 0.86677 0.0
C714 C 0.50978 0.18314 0.8653 0.0
C715 C 0.48276 0.18585 0.85951 0.0
C716 C 0.47243 0.21072 0.85852 0.0
C717 C 0.4893 0.23239 0.86234 0.0
C718 C 0.52142 0.15694 0.86691 0.0
C719 C 0.44378 0.21452 0.85216 0.0
C720 C 0.44464 0.13628 0.81836 0.0
C721 C 0.42742 0.12495 0.83657 0.0
C722 C 0.4635 0.15534 0.82578 0.0
C723 C 0.46559 0.16304 0.85221 0.0
C724 C 0.44953 0.15051 0.871 0.0
C725 C 0.43053 0.13168 0.86295 0.0
C726 C 0.48018 0.16822 0.80507 0.0
C727 C 0.45146 0.15791 0.89941 0.0
H728 H 0.54717 0.20314 0.87225 0.0
H729 H 0.48136 0.25136 0.86086 0.0
H730 H 0.50917 0.14419 0.87953 0.0
H731 H 0.52161 0.14789 0.84728 0.0
H732 H 0.54189 0.15799 0.8746 0.0
H733 H 0.43852 0.23501 0.85368 0.0
H734 H 0.43946 0.20757 0.83206 0.0
H735 H 0.43089 0.2031 0.86542 0.0
H736 H 0.44287 0.13075 0.79806 0.0
H737 H 0.41734 0.12315 0.8772 0.0
H738 H 0.50134 0.16797 0.8104 0.0
H739 H 0.47497 0.18867 0.80349 0.0
H740 H 0.47741 0.15882 0.7857 0.0
H741 H 0.47234 0.15903 0.90585 0.0
H742 H 0.44033 0.14407 0.91191 0.0
H743 H 0.44342 0.17725 0.90241 0.0
C744 C 0.79976 0.52869 0.86948 0.0
C745 C 0.78519 0.54722 0.85675 0.0
C746 C 0.81209 0.50915 0.85556 0.0
C747 C 0.80989 0.50794 0.82813 0.0
C748 C 0.79541 0.52667 0.81507 0.0
C749 C 0.78328 0.5461 0.82952 0.0
C750 C 0.82746 0.4897 0.8703 0.0
C751 C 0.79252 0.52603 0.78586 0.0
C752 C 0.86132 0.46864 0.79343 0.0
C753 C 0.84792 0.44473 0.7901 0.0
C754 C 0.84892 0.48966 0.80493 0.0
C755 C 0.82245 0.48675 0.81335 0.0
C756 C 0.80855 0.46294 0.80923 0.0
C757 C 0.8214 0.44227 0.79768 0.0
C758 C 0.86444 0.51472 0.80887 0.0
C759 C 0.78032 0.45898 0.81788 0.0
H760 H 0.80185 0.52962 0.89041 0.0
H761 H 0.77194 0.56016 0.8195 0.0
H762 H 0.81888 0.47007 0.86658 0.0
H763 H 0.84813 0.48995 0.86341 0.0
H764 H 0.82753 0.49346 0.8916 0.0
H765 H 0.78115 0.5423 0.77857 0.0
H766 H 0.81222 0.52672 0.77661 0.0
H767 H 0.78238 0.50773 0.77958 0.0
H768 H 0.88176 0.47082 0.78761 0.0
H769 H 0.81078 0.42395 0.79516 0.0
H770 H 0.86722 0.51861 0.82997 0.0
H771 H 0.85345 0.53087 0.80084 0.0
H772 H 0.88412 0.51451 0.79953 0.0
H773 H 0.77929 0.46044 0.83938 0.0
H774 H 0.7717 0.43994 0.81167 0.0
H775 H 0.76805 0.47423 0.80989 0.0
C776 C 0.54023 0.86426 0.78727 0.0
C777 C 0.55759 0.85238 0.77009 0.0
C778 C 0.5183 0.85063 0.79749 0.0
C779 C 0.51347 0.82457 0.7902 0.0
C780 C 0.52973 0.81309 0.77136 0.0
C781 C 0.55165 0.8271 0.7616 0.0
C782 C 0.5014 0.86361 0.81743 0.0
C783 C 0.52501 0.78545 0.76274 0.0
C784 C 0.48362 0.77754 0.83865 0.0
C785 C 0.45788 0.77368 0.82914 0.0
C786 C 0.50151 0.79483 0.82672 0.0
C787 C 0.49359 0.8084 0.80448 0.0
C788 C 0.46731 0.80536 0.79535 0.0
C789 C 0.44969 0.78813 0.80792 0.0
C790 C 0.52925 0.79773 0.83729 0.0
C791 C 0.45818 0.81922 0.77154 0.0
H792 H 0.54454 0.88383 0.79391 0.0
H793 H 0.56478 0.81781 0.74818 0.0
H794 H 0.4802 0.86005 0.8129 0.0
H795 H 0.50511 0.85541 0.83686 0.0
H796 H 0.5056 0.88471 0.81852 0.0
H797 H 0.53736 0.78037 0.74579 0.0
H798 H 0.52966 0.77253 0.779 0.0
H799 H 0.504 0.78172 0.75752 0.0
H800 H 0.49003 0.76645 0.85505 0.0
H801 H 0.42991 0.78498 0.80024 0.0
H802 H 0.53452 0.81832 0.84114 0.0
H803 H 0.54333 0.79065 0.82264 0.0
H804 H 0.53185 0.78691 0.85554 0.0
H805 H 0.4639 0.83998 0.77286 0.0
H806 H 0.4365 0.81714 0.76875 0.0
H807 H 0.46787 0.81128 0.75406 0.0
C808 C 0.15554 0.19922 0.53564 0.0
C809 C 0.1676 0.21112 0.55749 0.0
C810 C 0.1699 0.19409 0.51296 0.0
C811 C 0.19716 0.20078 0.512 0.0
C812 C 0.20945 0.21308 0.53385 0.0
C813 C 0.19452 0.2182 0.55628 0.0
C814 C 0.15587 0.18124 0.49006 0.0
C815 C 0.23846 0.22046 0.53368 0.0
C816 C 0.2354 0.1631 0.4615 0.0
C817 C 0.23656 0.18015 0.44055 0.0
C818 C 0.22375 0.17001 0.48526 0.0
C819 C 0.21266 0.19448 0.48816 0.0
C820 C 0.21465 0.21212 0.46742 0.0
C821 C 0.22668 0.20482 0.444 0.0
C822 C 0.2223 0.15068 0.50689 0.0
C823 C 0.20287 0.23828 0.46946 0.0
H824 H 0.13476 0.19375 0.53625 0.0
H825 H 0.20407 0.22732 0.57304 0.0
H826 H 0.15834 0.19328 0.47251 0.0
H827 H 0.16466 0.16248 0.48569 0.0
H828 H 0.13447 0.17786 0.49363 0.0
H829 H 0.24499 0.23033 0.55198 0.0
H830 H 0.25008 0.20301 0.53091 0.0
H831 H 0.24301 0.23334 0.51713 0.0
H832 H 0.24298 0.14402 0.4591 0.0
H833 H 0.22725 0.21813 0.42795 0.0
H834 H 0.20148 0.14431 0.51006 0.0
H835 H 0.22969 0.15961 0.52534 0.0
H836 H 0.23389 0.13347 0.50252 0.0
H837 H 0.18109 0.23599 0.4703 0.0
H838 H 0.20819 0.25062 0.45266 0.0
H839 H 0.20951 0.24829 0.48762 0.0
C840 C 0.7391 0.18905 0.51361 0.0
C841 C 0.74346 0.19069 0.54048 0.0
C842 C 0.75586 0.20229 0.49624 0.0
C843 C 0.77781 0.21706 0.50601 0.0
C844 C 0.78242 0.21858 0.53315 0.0
C845 C 0.76505 0.20555 0.55005 0.0
C846 C 0.75002 0.2006 0.46746 0.0
C847 C 0.80588 0.23366 0.54433 0.0
C848 C 0.83378 0.2306 0.45871 0.0
C849 C 0.82958 0.2561 0.45189 0.0
C850 C 0.81747 0.21785 0.47678 0.0
C851 C 0.79606 0.23076 0.48781 0.0
C852 C 0.79185 0.25661 0.4811 0.0
C853 C 0.80886 0.26907 0.46341 0.0
C854 C 0.82299 0.1905 0.48388 0.0
C855 C 0.76896 0.27087 0.49206 0.0
H856 H 0.7223 0.17771 0.50625 0.0
H857 H 0.76868 0.20651 0.57081 0.0
H858 H 0.74788 0.22017 0.45957 0.0
H859 H 0.76666 0.19191 0.45708 0.0
H860 H 0.73175 0.18892 0.46308 0.0
H861 H 0.80663 0.2329 0.56589 0.0
H862 H 0.82434 0.22597 0.53644 0.0
H863 H 0.80529 0.25408 0.53848 0.0
H864 H 0.8499 0.22068 0.44984 0.0
H865 H 0.80539 0.28866 0.45782 0.0
H866 H 0.80622 0.17751 0.47778 0.0
H867 H 0.82502 0.1889 0.50528 0.0
H868 H 0.8412 0.18368 0.47459 0.0
H869 H 0.75017 0.26067 0.48647 0.0
H870 H 0.76856 0.29096 0.48504 0.0
H871 H 0.76993 0.27128 0.5136 0.0
C872 C 0.76922 0.78137 0.45179 0.0
C873 C 0.76554 0.80792 0.44992 0.0
C874 C 0.77755 0.77042 0.47517 0.0
C875 C 0.78256 0.78636 0.49729 0.0
C876 C 0.77828 0.81307 0.49571 0.0
C877 C 0.76973 0.82348 0.47216 0.0
C878 C 0.78164 0.74186 0.47599 0.0
C879 C 0.78354 0.83083 0.51872 0.0
C880 C 0.7853 0.75963 0.56592 0.0
C881 C 0.81253 0.75932 0.57062 0.0
C882 C 0.77528 0.76739 0.54183 0.0
C883 C 0.79286 0.77538 0.52194 0.0
C884 C 0.82038 0.77421 0.52621 0.0
C885 C 0.82987 0.76606 0.5504 0.0
C886 C 0.74583 0.76784 0.53799 0.0
C887 C 0.83985 0.78263 0.5056 0.0
H888 H 0.76618 0.76914 0.43476 0.0
H889 H 0.76714 0.84401 0.47097 0.0
H890 H 0.80285 0.73838 0.47894 0.0
H891 H 0.77082 0.7332 0.49263 0.0
H892 H 0.77499 0.73183 0.45781 0.0
H893 H 0.77878 0.85103 0.51454 0.0
H894 H 0.77175 0.82426 0.53566 0.0
H895 H 0.80461 0.83036 0.5244 0.0
H896 H 0.77171 0.75436 0.58133 0.0
H897 H 0.85093 0.76604 0.5538 0.0
H898 H 0.74 0.75742 0.5198 0.0
H899 H 0.73982 0.788 0.53598 0.0
H900 H 0.73482 0.75904 0.55446 0.0
H901 H 0.83537 0.7724 0.48699 0.0
H902 H 0.8605 0.77904 0.51124 0.0
H903 H 0.83816 0.8035 0.50204 0.0
C904 C 0.19975 0.79099 0.42053 0.0
C905 C 0.17302 0.79218 0.42685 0.0
C906 C 0.2194 0.80114 0.43738 0.0
C907 C 0.21209 0.81262 0.46125 0.0
C908 C 0.18511 0.81345 0.46796 0.0
C909 C 0.16591 0.8032 0.45068 0.0
C910 C 0.2479 0.79998 0.42942 0.0
C911 C 0.17653 0.8256 0.4932 0.0
C912 C 0.26219 0.81872 0.51617 0.0
C913 C 0.27042 0.84474 0.51489 0.0
C914 C 0.24341 0.808 0.49871 0.0
C915 C 0.23261 0.82362 0.47937 0.0
C916 C 0.24103 0.8498 0.4777 0.0
C917 C 0.25986 0.86002 0.49544 0.0
C918 C 0.23503 0.77997 0.50107 0.0
C919 C 0.23027 0.86704 0.45714 0.0
H920 H 0.20521 0.78204 0.40235 0.0
H921 H 0.14525 0.80441 0.45549 0.0
H922 H 0.25621 0.81976 0.42656 0.0
H923 H 0.2596 0.79116 0.44498 0.0
H924 H 0.25037 0.78881 0.41112 0.0
H925 H 0.15481 0.82434 0.4957 0.0
H926 H 0.18584 0.81605 0.50986 0.0
H927 H 0.18317 0.84616 0.49388 0.0
H928 H 0.27057 0.80657 0.53072 0.0
H929 H 0.26593 0.88014 0.49435 0.0
H930 H 0.23884 0.76962 0.48256 0.0
H931 H 0.21354 0.77814 0.50475 0.0
H932 H 0.24551 0.77037 0.51703 0.0
H933 H 0.23786 0.86116 0.43787 0.0
H934 H 0.23613 0.88759 0.46059 0.0
H935 H 0.20846 0.86516 0.45629 0.0
C936 C 0.66836 0.99736 0.7407 0.0
C937 C 0.64482 0.99826 0.75481 0.0
C938 C 0.67777 0.01862 0.72641 0.0
C939 C 0.66311 0.04121 0.72595 0.0
C940 C 0.63926 0.04218 0.74007 0.0
C941 C 0.63051 0.02076 0.75447 0.0
C942 C 0.7035 0.01696 0.71199 0.0
C943 C 0.62289 0.0658 0.73984 0.0
C944 C 0.69599 0.10579 0.70952 0.0
C945 C 0.68836 0.1088 0.68353 0.0
C946 C 0.68855 0.08357 0.72331 0.0
C947 C 0.67278 0.06399 0.71095 0.0
C948 C 0.66547 0.06665 0.68454 0.0
C949 C 0.67351 0.08894 0.67109 0.0
C950 C 0.69712 0.0813 0.7513 0.0
C951 C 0.64847 0.04631 0.67074 0.0
H952 H 0.67965 0.98013 0.74119 0.0
H953 H 0.61217 0.02141 0.76509 0.0
H954 H 0.70033 0.02022 0.69096 0.0
H955 H 0.71763 0.03226 0.71911 0.0
H956 H 0.71255 0.99803 0.71437 0.0
H957 H 0.60459 0.06329 0.75145 0.0
H958 H 0.63454 0.08258 0.74778 0.0
H959 H 0.61742 0.07039 0.71957 0.0
H960 H 0.7076 0.12097 0.71924 0.0
H961 H 0.66743 0.09116 0.65105 0.0
H962 H 0.70712 0.06295 0.75415 0.0
H963 H 0.67961 0.081 0.76414 0.0
H964 H 0.71069 0.09745 0.75758 0.0
H965 H 0.65767 0.02736 0.67189 0.0
H966 H 0.64525 0.05085 0.64995 0.0
H967 H 0.62904 0.04442 0.68045 0.0
C968 C 0.95596 0.70695 0.67124 0.0
C969 C 0.96048 0.73083 0.65923 0.0
C970 C 0.97615 0.69485 0.68466 0.0
C971 C 1.00165 0.70675 0.68606 0.0
C972 C 0.00649 0.73066 0.67373 0.0
C973 C 0.9859 0.7424 0.66056 0.0
C974 C 0.97012 0.66938 0.69753 0.0
C975 C 0.03338 0.74402 0.67471 0.0
C976 C 0.04853 0.6899 0.74075 0.0
C977 C 0.06563 0.67324 0.72816 0.0
C978 C 0.02739 0.70052 0.72743 0.0
C979 C 0.0232 0.69449 0.70077 0.0
C980 C 0.04007 0.67732 0.68806 0.0
C981 C 0.061 0.66687 0.70189 0.0
C982 C 0.00977 0.71857 0.7418 0.0
C983 C 0.03636 0.67043 0.65966 0.0
H984 H 0.93662 0.69755 0.67007 0.0
H985 H 0.98969 0.76093 0.65174 0.0
H986 H 0.98327 0.65461 0.68976 0.0
H987 H 0.97397 0.67114 0.71873 0.0
H988 H 0.94935 0.66253 0.69451 0.0
H989 H 0.03416 0.76216 0.66352 0.0
H990 H 0.03891 0.74856 0.69518 0.0
H991 H 0.04838 0.73112 0.66679 0.0
H992 H 0.05184 0.69493 0.76104 0.0
H993 H 0.07407 0.65407 0.69193 0.0
H994 H 0.98893 0.71159 0.74015 0.0
H995 H 0.01121 0.73789 0.73291 0.0
H996 H 0.01501 0.72055 0.76273 0.0
H997 H 0.01606 0.6625 0.65615 0.0
H998 H 0.05055 0.65612 0.65283 0.0
H999 H 0.03889 0.68798 0.64775 0.0
C1000 C 0.35727 0.00435 0.74052 0.0
C1001 C 0.35475 0.0301 0.73339 0.0
C1002 C 0.35201 0.98413 0.72276 0.0
C1003 C 0.34414 0.98968 0.69708 0.0
C1004 C 0.34266 0.01565 0.68937 0.0
C1005 C 0.34793 0.03557 0.70763 0.0
C1006 C 0.35387 0.95674 0.73182 0.0
C1007 C 0.33461 0.02236 0.66209 0.0
C1008 C 0.34792 0.93438 0.64826 0.0
C1009 C 0.32185 0.92437 0.64808 0.0
C1010 C 0.35529 0.95619 0.66337 0.0
C1011 C 0.33621 0.96818 0.67889 0.0
C1012 C 0.30976 0.95851 0.67835 0.0
C1013 C 0.30289 0.93682 0.66289 0.0
C1014 C 0.38363 0.96601 0.66322 0.0
C1015 C 0.28884 0.97062 0.69473 0.0
H1016 H 0.36263 0.99986 0.76032 0.0
H1017 H 0.34592 0.05538 0.70192 0.0
H1018 H 0.33411 0.94691 0.73093 0.0
H1019 H 0.36699 0.94595 0.71881 0.0
H1020 H 0.36146 0.95568 0.75204 0.0
H1021 H 0.33658 0.04336 0.65852 0.0
H1022 H 0.34676 0.01215 0.64769 0.0
H1023 H 0.31379 0.01596 0.65868 0.0
H1024 H 0.3627 0.92503 0.63675 0.0
H1025 H 0.28271 0.92928 0.66288 0.0
H1026 H 0.39253 0.96351 0.68271 0.0
H1027 H 0.38472 0.98689 0.65902 0.0
H1028 H 0.39561 0.9558 0.64863 0.0
H1029 H 0.29377 0.96873 0.71564 0.0
H1030 H 0.26896 0.9616 0.6912 0.0
H1031 H 0.28815 0.99147 0.69065 0.0
C1032 C 0.04331 0.3046 0.65014 0.0
C1033 C 0.05775 0.28423 0.65973 0.0
C1034 C 0.02461 0.3168 0.66563 0.0
C1035 C 0.02021 0.30856 0.69145 0.0
C1036 C 0.03486 0.28821 0.70136 0.0
C1037 C 0.05336 0.27629 0.68541 0.0
C1038 C 0.00944 0.33843 0.6543 0.0
C1039 C 0.03077 0.2788 0.72876 0.0
C1040 C 0.98702 0.35369 0.73912 0.0
C1041 C 0.96087 0.34392 0.7388 0.0
C1042 C 0.00653 0.34241 0.72386 0.0
C1043 C 0.9998 0.32078 0.70785 0.0
C1044 C 0.97349 0.31079 0.70748 0.0
C1045 C 0.95441 0.32243 0.72293 0.0
C1046 C 0.03434 0.35368 0.72479 0.0
C1047 C 0.96546 0.28772 0.69079 0.0
H1048 H 0.04674 0.31122 0.63054 0.0
H1049 H 0.06407 0.26041 0.69299 0.0
H1050 H 0.98804 0.3333 0.65441 0.0
H1051 H 0.01246 0.35608 0.66641 0.0
H1052 H 0.01544 0.34284 0.63404 0.0
H1053 H 0.04426 0.2633 0.73382 0.0
H1054 H 0.03394 0.29496 0.74282 0.0
H1055 H 0.01017 0.27139 0.73113 0.0
H1056 H 0.9922 0.37041 0.75106 0.0
H1057 H 0.93446 0.31438 0.72283 0.0
H1058 H 0.04049 0.3599 0.7051 0.0
H1059 H 0.04808 0.33884 0.73101 0.0
H1060 H 0.03643 0.37043 0.73833 0.0
H1061 H 0.96983 0.29175 0.67008 0.0
H1062 H 0.94417 0.28236 0.69258 0.0
H1063 H 0.97703 0.27098 0.69636 0.0
C1064 C 0.73288 0.95106 0.33162 0.0
C1065 C 0.72472 0.94895 0.35758 0.0
C1066 C 0.72163 0.96877 0.31479 0.0
C1067 C 0.70151 0.9846 0.32404 0.0
C1068 C 0.69317 0.98252 0.35021 0.0
C1069 C 0.70493 0.96485 0.36664 0.0
C1070 C 0.73128 0.97057 0.28713 0.0
C1071 C 0.67157 0.99879 0.36081 0.0
C1072 C 0.68475 0.04675 0.29031 0.0
C1073 C 0.66167 0.03934 0.27659 0.0
C1074 C 0.69843 0.02896 0.30508 0.0
C1075 C 0.68879 0.00311 0.30638 0.0
C1076 C 0.66604 0.9953 0.29191 0.0
C1077 C 0.65288 0.01344 0.27715 0.0
C1078 C 0.72271 0.03808 0.32005 0.0
C1079 C 0.65507 0.96795 0.29272 0.0
H1080 H 0.74835 0.93907 0.32455 0.0
H1081 H 0.69823 0.9631 0.38652 0.0
H1082 H 0.71479 0.96609 0.27343 0.0
H1083 H 0.7386 0.99049 0.28315 0.0
H1084 H 0.74734 0.9572 0.28304 0.0
H1085 H 0.66744 0.99497 0.38163 0.0
H1086 H 0.67711 0.01949 0.35872 0.0
H1087 H 0.65318 0.99499 0.34948 0.0
H1088 H 0.69167 0.06667 0.29037 0.0
H1089 H 0.63537 0.00737 0.26632 0.0
H1090 H 0.73931 0.02547 0.31573 0.0
H1091 H 0.71882 0.0369 0.34122 0.0
H1092 H 0.72884 0.05823 0.31543 0.0
H1093 H 0.67052 0.95436 0.2874 0.0
H1094 H 0.63801 0.96463 0.27938 0.0
H1095 H 0.64865 0.96334 0.31278 0.0
C1096 C 0.94187 0.68964 0.27232 0.0
C1097 C 0.93726 0.66541 0.28343 0.0
C1098 C 0.96422 0.70501 0.2791 0.0
C1099 C 0.98224 0.69607 0.29769 0.0
C1100 C 0.97824 0.67121 0.3082 0.0
C1101 C 0.9559 0.65611 0.3008 0.0
C1102 C 0.96799 0.73124 0.26715 0.0
C1103 C 0.99684 0.66106 0.32824 0.0
C1104 C 0.04984 0.72953 0.30492 0.0
C1105 C 0.04581 0.74648 0.32585 0.0
C1106 C 0.02933 0.71309 0.29544 0.0
C1107 C 0.00428 0.71335 0.30739 0.0
C1108 C 1.00018 0.73022 0.32869 0.0
C1109 C 0.02092 0.74668 0.33755 0.0
C1110 C 0.03439 0.69563 0.27248 0.0
C1111 C 0.97383 0.73087 0.34216 0.0
H1112 H 0.92761 0.69693 0.25882 0.0
H1113 H 0.95246 0.63747 0.30962 0.0
H1114 H 0.96557 0.74633 0.28229 0.0
H1115 H 0.98823 0.73379 0.2593 0.0
H1116 H 0.95366 0.73435 0.25124 0.0
H1117 H 0.99199 0.64071 0.33318 0.0
H1118 H 0.01742 0.66253 0.32113 0.0
H1119 H 0.99594 0.67292 0.34627 0.0
H1120 H 0.06897 0.72935 0.29566 0.0
H1121 H 0.01766 0.75965 0.35377 0.0
H1122 H 0.02072 0.69984 0.25635 0.0
H1123 H 0.0305 0.67527 0.2779 0.0
H1124 H 0.05493 0.69782 0.26529 0.0
H1125 H 0.95843 0.73644 0.32819 0.0
H1126 H 0.97404 0.74462 0.35885 0.0
H1127 H 0.96806 0.71144 0.34932 0.0
C1128 C 0.34028 0.94983 0.28518 0.0
C1129 C 0.32366 0.9346 0.26889 0.0
C1130 C 0.33124 0.97203 0.29759 0.0
C1131 C 0.30499 0.97935 0.29351 0.0
C1132 C 0.28863 0.96494 0.27589 0.0
C1133 C 0.29812 0.94273 0.26386 0.0
C1134 C 0.34936 0.98679 0.31623 0.0
C1135 C 0.2606 0.97219 0.2708 0.0
C1136 C 0.27271 0.01492 0.34925 0.0
C1137 C 0.27488 0.04062 0.34129 0.0
C1138 C 0.28215 0.99489 0.33375 0.0
C1139 C 0.29399 1.00055 0.3095 0.0
C1140 C 0.29577 0.02635 0.30101 0.0
C1141 C 0.28626 0.04607 0.31701 0.0
C1142 C 0.27972 0.96764 0.34352 0.0
C1143 C 0.30811 0.03316 0.27523 0.0
H1144 H 0.36005 0.94379 0.28923 0.0
H1145 H 0.28511 0.93121 0.25126 0.0
H1146 H 0.34968 0.00762 0.31186 0.0
H1147 H 0.34193 0.98449 0.33636 0.0
H1148 H 0.36984 0.98007 0.31547 0.0
H1149 H 0.25154 0.96101 0.25432 0.0
H1150 H 0.24856 0.96854 0.28842 0.0
H1151 H 0.25979 0.99299 0.26651 0.0
H1152 H 0.26353 0.01036 0.36767 0.0
H1153 H 0.28831 0.06582 0.31072 0.0
H1154 H 0.29959 0.95978 0.34574 0.0
H1155 H 0.26877 0.95522 0.32919 0.0
H1156 H 0.26943 0.96635 0.36251 0.0
H1157 H 0.32913 0.02813 0.27526 0.0
H1158 H 0.3069 0.05394 0.27087 0.0
H1159 H 0.29823 0.02183 0.25934 0.0
C1160 C 0.02103 0.35383 0.2881 0.0
C1161 C 0.04553 0.34587 0.27948 0.0
C1162 C 1.00073 0.33585 0.294 0.0
C1163 C 0.00538 0.3092 0.29214 0.0
C1164 C 0.03001 0.30103 0.28298 0.0
C1165 C 0.04972 0.31952 0.27642 0.0
C1166 C 0.97464 0.34548 0.30324 0.0
C1167 C 0.03617 0.2729 0.28164 0.0
C1168 C 0.95912 0.27123 0.33624 0.0
C1169 C 0.93912 0.26313 0.31882 0.0
C1170 C 0.98196 0.28447 0.32748 0.0
C1171 C 0.98456 0.29024 0.30075 0.0
C1172 C 0.9653 0.28057 0.28287 0.0
C1173 C 0.94296 0.26686 0.29208 0.0
C1174 C 1.0025 0.29367 0.34708 0.0
C1175 C 0.9675 0.28603 0.25418 0.0
H1176 H 0.01789 0.37421 0.29067 0.0
H1177 H 0.06891 0.31334 0.27033 0.0
H1178 H 0.95803 0.3346 0.29366 0.0
H1179 H 0.97282 0.34248 0.32448 0.0
H1180 H 0.97268 0.36628 0.29938 0.0
H1181 H 0.05466 0.26959 0.27084 0.0
H1182 H 0.03843 0.26557 0.30167 0.0
H1183 H 0.01984 0.26146 0.27226 0.0
H1184 H 0.95641 0.26821 0.35689 0.0
H1185 H 0.92766 0.26062 0.27843 0.0
H1186 H 1.00139 0.31477 0.34994 0.0
H1187 H 0.02257 0.28981 0.33992 0.0
H1188 H 0.99967 0.28432 0.36622 0.0
H1189 H 0.97038 0.30699 0.25102 0.0
H1190 H 0.94982 0.27894 0.2431 0.0
H1191 H 0.98499 0.27666 0.24611 0.0
C1192 C 0.74826 0.71492 0.95584 0.0
C1193 C 0.74959 0.68833 0.95124 0.0
C1194 C 0.73987 0.72466 0.97994 0.0
C1195 C 0.73264 0.70745 1.00005 0.0
C1196 C 0.73466 0.68064 0.99579 0.0
C1197 C 0.74308 0.67142 0.97149 0.0
C1198 C 0.73807 0.75336 0.98365 0.0
C1199 C 0.72727 0.66161 0.01671 0.0
C1200 C 0.72948 0.73117 0.07038 0.0
C1201 C 0.70227 0.73338 0.07408 0.0
C1202 C 0.73967 0.72324 0.0463 0.0
C1203 C 0.72229 0.71737 0.0253 0.0
C1204 C 0.69488 0.72025 0.02868 0.0
C1205 C 0.68521 0.72819 0.05298 0.0
C1206 C 0.76902 0.72051 0.04355 0.0
C1207 C 0.67565 0.71433 0.00677 0.0
H1208 H 0.75315 0.7282 0.94037 0.0
H1209 H 0.74399 0.65086 0.96819 0.0
H1210 H 0.71726 0.75823 0.98694 0.0
H1211 H 0.74943 0.75989 1.00112 0.0
H1212 H 0.7456 0.76423 0.96659 0.0
H1213 H 0.73088 0.64147 0.01071 0.0
H1214 H 0.73867 0.66617 0.03471 0.0
H1215 H 0.7061 0.66303 0.02155 0.0
H1216 H 0.74289 0.73508 0.08649 0.0
H1217 H 0.66417 0.72982 0.05557 0.0
H1218 H 0.7765 0.7319 0.02686 0.0
H1219 H 0.77331 0.70011 0.03947 0.0
H1220 H 0.78 0.72693 0.06132 0.0
H1221 H 0.68119 0.72575 0.98942 0.0
H1222 H 0.65509 0.71851 0.01218 0.0
H1223 H 0.6764 0.69373 1.00113 0.0
C1224 C 0.31181 0.61152 0.01557 0.0
C1225 C 0.3058 0.62837 0.03604 0.0
C1226 C 0.32626 0.62011 0.99393 0.0
C1227 C 0.33485 0.64625 0.9926 0.0
C1228 C 0.32876 0.66343 0.01307 0.0
C1229 C 0.31438 0.65428 0.03455 0.0
C1230 C 0.33233 0.6012 0.97248 0.0
C1231 C 0.33751 0.69147 0.01231 0.0
C1232 C 0.39213 0.66351 0.94785 0.0
C1233 C 0.37913 0.67243 0.9258 0.0
C1234 C 0.37799 0.65504 0.96976 0.0
C1235 C 0.35015 0.65561 0.96971 0.0
C1236 C 0.33689 0.66476 0.94764 0.0
C1237 C 0.3515 0.67296 0.92596 0.0
C1238 C 0.39284 0.64536 0.99292 0.0
C1239 C 0.30722 0.66568 0.94682 0.0
H1240 H 0.30496 0.59159 0.01628 0.0
H1241 H 0.31022 0.6674 0.05036 0.0
H1242 H 0.3238 0.60754 0.95385 0.0
H1243 H 0.35395 0.60051 0.96976 0.0
H1244 H 0.32444 0.58146 0.97658 0.0
H1245 H 0.33095 0.70238 0.02965 0.0
H1246 H 0.35931 0.69327 0.01119 0.0
H1247 H 0.32956 0.70047 0.99464 0.0
H1248 H 0.41343 0.66331 0.94809 0.0
H1249 H 0.34116 0.67936 0.90894 0.0
H1250 H 0.38652 0.62514 0.99685 0.0
H1251 H 0.38824 0.65689 0.01049 0.0
H1252 H 0.4145 0.64628 0.98995 0.0
H1253 H 0.29833 0.64602 0.94889 0.0
H1254 H 0.29994 0.67391 0.92843 0.0
H1255 H 0.30016 0.67742 0.96335 0.0
C1256 C 0.29255 0.32684 0.95724 0.0
C1257 C 0.2897 0.30956 0.93617 0.0
C1258 C 0.30182 0.3188 0.98156 0.0
C1259 C 0.30878 0.2929 0.98491 0.0
C1260 C 0.30524 0.27522 0.96393 0.0
C1261 C 0.29564 0.2837 0.93992 0.0
C1262 C 0.30498 0.33827 0.00345 0.0
C1263 C 0.31263 0.24753 0.96648 0.0
C1264 C 0.3616 0.28322 0.03613 0.0
C1265 C 0.34686 0.27436 0.05747 0.0
C1266 C 0.34954 0.28835 0.01224 0.0
C1267 C 0.32187 0.28498 0.00956 0.0
C1268 C 0.30692 0.27517 0.03075 0.0
C1269 C 0.31962 0.26979 0.05442 0.0
C1270 C 0.3664 0.29828 0.99012 0.0
C1271 C 0.27738 0.27149 0.02882 0.0
H1272 H 0.28788 0.3468 0.95466 0.0
H1273 H 0.29357 0.27014 0.92383 0.0
H1274 H 0.29521 0.33087 0.02126 0.0
H1275 H 0.32619 0.34156 0.00808 0.0
H1276 H 0.29658 0.35701 0.9985 0.0
H1277 H 0.3068 0.23573 0.94911 0.0
H1278 H 0.33425 0.24663 0.96917 0.0
H1279 H 0.3032 0.23887 0.98388 0.0
H1280 H 0.38267 0.28673 0.03831 0.0
H1281 H 0.30806 0.26326 0.07091 0.0
H1282 H 0.36126 0.31828 0.98562 0.0
H1283 H 0.36257 0.28645 0.97233 0.0
H1284 H 0.38777 0.29814 0.99473 0.0
H1285 H 0.26841 0.29048 0.02677 0.0
H1286 H 0.26883 0.26187 0.04619 0.0
H1287 H 0.27186 0.25988 0.01127 0.0
C1288 C 0.70766 0.35672 0.02819 0.0
C1289 C 0.71622 0.38263 0.03023 0.0
C1290 C 0.68807 0.34869 0.01028 0.0
C1291 C 0.67678 0.36699 0.9939 0.0
C1292 C 0.68527 0.39316 0.99582 0.0
C1293 C 0.70487 0.40067 0.01398 0.0
C1294 C 0.67963 0.32057 0.00872 0.0
C1295 C 0.67369 0.41321 0.97865 0.0
C1296 C 0.64492 0.3411 0.93163 0.0
C1297 C 0.61817 0.33963 0.93838 0.0
C1298 C 0.66414 0.35041 0.94933 0.0
C1299 C 0.65643 0.35853 0.97444 0.0
C1300 C 0.62942 0.35769 0.98121 0.0
C1301 C 0.61059 0.34827 0.96307 0.0
C1302 C 0.69273 0.35116 0.94129 0.0
C1303 C 0.62047 0.36613 0.00783 0.0
H1304 H 0.71658 0.34257 0.04031 0.0
H1305 H 0.71109 0.42075 0.01563 0.0
H1306 H 0.65809 0.31824 0.01193 0.0
H1307 H 0.68372 0.3128 0.98903 0.0
H1308 H 0.68992 0.30888 0.02325 0.0
H1309 H 0.68232 0.43279 0.98267 0.0
H1310 H 0.67708 0.40829 0.95792 0.0
H1311 H 0.65207 0.41351 0.98152 0.0
H1312 H 0.65089 0.33497 0.91242 0.0
H1313 H 0.59 0.34701 0.96846 0.0
H1314 H 0.70405 0.33849 0.95402 0.0
H1315 H 0.70138 0.37094 0.94368 0.0
H1316 H 0.69536 0.34484 0.92078 0.0
H1317 H 0.62879 0.35356 0.02282 0.0
H1318 H 0.59867 0.36536 0.00964 0.0
H1319 H 0.6279 0.38605 0.0121 0.0
C1320 C 0.11535 0.29907 0.3418 0.0
C1321 C 0.13823 0.315 0.34088 0.0
C1322 C 0.11663 0.27283 0.34744 0.0
C1323 C 0.14146 0.26225 0.35192 0.0
C1324 C 0.16444 0.2786 0.35267 0.0
C1325 C 0.1625 0.30484 0.3473 0.0
C1326 C 0.09161 0.25624 0.34705 0.0
C1327 C 0.19134 0.26806 0.35727 0.0
C1328 C 0.15252 0.19554 0.37771 0.0
C1329 C 0.15872 0.18221 0.3548 0.0
C1330 C 0.14506 0.22123 0.37706 0.0
C1331 C 0.14405 0.2339 0.35291 0.0
C1332 C 0.14841 0.21994 0.32958 0.0
C1333 C 0.15555 0.19421 0.33082 0.0
C1334 C 0.14004 0.23522 0.40233 0.0
C1335 C 0.14765 0.23274 0.30341 0.0
H1336 H 0.09652 0.30702 0.33708 0.0
H1337 H 0.18023 0.31702 0.34637 0.0
H1338 H 0.09088 0.24428 0.32905 0.0
H1339 H 0.0911 0.24298 0.36379 0.0
H1340 H 0.07375 0.26792 0.34758 0.0
H1341 H 0.20692 0.28354 0.35913 0.0
H1342 H 0.19132 0.25639 0.37516 0.0
H1343 H 0.19644 0.25522 0.3408 0.0
H1344 H 0.15484 0.18622 0.39626 0.0
H1345 H 0.16062 0.18415 0.31309 0.0
H1346 H 0.12258 0.24728 0.40061 0.0
H1347 H 0.15724 0.24821 0.40713 0.0
H1348 H 0.13693 0.22171 0.41869 0.0
H1349 H 0.12906 0.24297 0.30102 0.0
H1350 H 0.14938 0.21876 0.28707 0.0
H1351 H 0.16414 0.24728 0.3021 0.0
C1352 C 0.7989 0.21534 0.29845 0.0
C1353 C 0.80782 0.22351 0.32309 0.0
C1354 C 0.77492 0.20125 0.29544 0.0
C1355 C 0.75914 0.19591 0.31755 0.0
C1356 C 0.76815 0.204 0.34251 0.0
C1357 C 0.79257 0.21738 0.34502 0.0
C1358 C 0.76632 0.19241 0.26855 0.0
C1359 C 0.75156 0.19942 0.36643 0.0
C1360 C 0.68668 0.18326 0.30185 0.0
C1361 C 0.68445 0.15638 0.30297 0.0
C1362 C 0.71056 0.19649 0.30789 0.0
C1363 C 0.73294 0.18241 0.31437 0.0
C1364 C 0.73055 0.1553 0.31635 0.0
C1365 C 0.70621 0.14264 0.31099 0.0
C1366 C 0.71207 0.22546 0.30629 0.0
C1367 C 0.75408 0.13952 0.32246 0.0
H1368 H 0.81066 0.22004 0.28148 0.0
H1369 H 0.7992 0.22398 0.36409 0.0
H1370 H 0.76112 0.17151 0.26849 0.0
H1371 H 0.74844 0.20251 0.26267 0.0
H1372 H 0.78184 0.19617 0.25377 0.0
H1373 H 0.76163 0.20648 0.38449 0.0
H1374 H 0.73272 0.20935 0.36445 0.0
H1375 H 0.74657 0.17861 0.36847 0.0
H1376 H 0.66991 0.19391 0.29555 0.0
H1377 H 0.70473 0.12181 0.31145 0.0
H1378 H 0.72388 0.23135 0.28912 0.0
H1379 H 0.72204 0.23396 0.32378 0.0
H1380 H 0.69227 0.23365 0.3045 0.0
H1381 H 0.76872 0.14154 0.30657 0.0
H1382 H 0.74863 0.11878 0.32467 0.0
H1383 H 0.76387 0.14662 0.3406 0.0
C1384 C 0.88548 0.6953 0.37273 0.0
C1385 C 0.86106 0.68201 0.37006 0.0
C1386 C 0.88697 0.72167 0.37893 0.0
C1387 C 0.86346 0.7351 0.38189 0.0
C1388 C 0.83882 0.72139 0.38099 0.0
C1389 C 0.83794 0.69494 0.37527 0.0
C1390 C 0.91364 0.73535 0.38075 0.0
C1391 C 0.81324 0.73498 0.38418 0.0
C1392 C 0.85724 0.80352 0.40645 0.0
C1393 C 0.85355 0.81651 0.38304 0.0
C1394 C 0.86267 0.77727 0.40653 0.0
C1395 C 0.86414 0.76371 0.3826 0.0
C1396 C 0.86284 0.77727 0.35893 0.0
C1397 C 0.85773 0.80355 0.35946 0.0
C1398 C 0.86465 0.76379 0.43223 0.0
C1399 C 0.86433 0.76356 0.33295 0.0
H1400 H 0.90338 0.68521 0.36901 0.0
H1401 H 0.81905 0.68479 0.37305 0.0
H1402 H 0.91758 0.74601 0.36254 0.0
H1403 H 0.91424 0.74955 0.39703 0.0
H1404 H 0.92962 0.72165 0.38358 0.0
H1405 H 0.79589 0.72134 0.38448 0.0
H1406 H 0.81352 0.74649 0.40247 0.0
H1407 H 0.81079 0.74849 0.36789 0.0
H1408 H 0.85414 0.81355 0.4247 0.0
H1409 H 0.85465 0.81335 0.3413 0.0
H1410 H 0.87912 0.74836 0.43135 0.0
H1411 H 0.84518 0.7548 0.43716 0.0
H1412 H 0.87043 0.77751 0.44815 0.0
H1413 H 0.88192 0.7516 0.33213 0.0
H1414 H 0.86518 0.77716 0.31647 0.0
H1415 H 0.84672 0.75048 0.33036 0.0
C1416 C 0.27622 0.8695 0.33846 0.0
C1417 C 0.29032 0.8468 0.33867 0.0
C1418 C 0.2487 0.86887 0.34087 0.0
C1419 C 0.23494 0.84501 0.34429 0.0
C1420 C 0.24926 0.82234 0.34688 0.0
C1421 C 0.27672 0.82347 0.34389 0.0
C1422 C 0.23428 0.8935 0.33782 0.0
C1423 C 0.23567 0.79642 0.35077 0.0
C1424 C 0.16244 0.84677 0.36265 0.0
C1425 C 0.15026 0.84082 0.33879 0.0
C1426 C 0.19004 0.84756 0.36498 0.0
C1427 C 0.20564 0.8435 0.34262 0.0
C1428 C 0.19322 0.83827 0.3183 0.0
C1429 C 0.16562 0.837 0.31672 0.0
C1430 C 0.20237 0.85258 0.39136 0.0
C1431 C 0.20906 0.83425 0.2939 0.0
H1432 H 0.28662 0.8877 0.33504 0.0
H1433 H 0.28719 0.80575 0.34402 0.0
H1434 H 0.22234 0.89242 0.3197 0.0
H1435 H 0.22052 0.89617 0.35423 0.0
H1436 H 0.24794 0.91063 0.33687 0.0
H1437 H 0.24854 0.78332 0.36142 0.0
H1438 H 0.21698 0.79807 0.36153 0.0
H1439 H 0.23116 0.78751 0.3315 0.0
H1440 H 0.15037 0.85022 0.37959 0.0
H1441 H 0.15599 0.83323 0.29814 0.0
H1442 H 0.20987 0.87284 0.39266 0.0
H1443 H 0.2193 0.8401 0.39441 0.0
H1444 H 0.18798 0.84929 0.40731 0.0
H1445 H 0.22211 0.85144 0.29036 0.0
H1446 H 0.19636 0.83062 0.27651 0.0
H1447 H 0.22186 0.81764 0.29628 0.0
C1448 C 0.23428 0.69051 0.68293 0.0
C1449 C 0.20802 0.6923 0.69093 0.0
C1450 C 0.24936 0.71254 0.67587 0.0
C1451 C 0.23794 0.73695 0.6769 0.0
C1452 C 0.21152 0.7389 0.68502 0.0
C1453 C 0.19688 0.7166 0.69178 0.0
C1454 C 0.27751 0.7097 0.66728 0.0
C1455 C 0.19862 0.76456 0.68646 0.0
C1456 C 0.28292 0.79716 0.67897 0.0
C1457 C 0.28225 0.80502 0.65297 0.0
C1458 C 0.26857 0.77507 0.68708 0.0
C1459 C 0.2533 0.76042 0.66873 0.0
C1460 C 0.25236 0.76838 0.64255 0.0
C1461 C 0.26674 0.79059 0.63502 0.0
C1462 C 0.26989 0.76727 0.71523 0.0
C1463 C 0.23637 0.75326 0.62238 0.0
H1464 H 0.2432 0.67195 0.68254 0.0
H1465 H 0.17653 0.71823 0.6975 0.0
H1466 H 0.28005 0.71705 0.64724 0.0
H1467 H 0.29101 0.72139 0.68009 0.0
H1468 H 0.2835 0.6894 0.66762 0.0
H1469 H 0.17816 0.76289 0.69396 0.0
H1470 H 0.21027 0.77802 0.69929 0.0
H1471 H 0.19816 0.77323 0.66688 0.0
H1472 H 0.2949 0.80811 0.69297 0.0
H1473 H 0.26614 0.79639 0.61487 0.0
H1474 H 0.27818 0.74792 0.71668 0.0
H1475 H 0.24979 0.76599 0.72359 0.0
H1476 H 0.2822 0.78103 0.72718 0.0
H1477 H 0.2432 0.73328 0.62111 0.0
H1478 H 0.23782 0.76196 0.60279 0.0
H1479 H 0.21534 0.7521 0.62815 0.0
C1480 C 0.22647 0.07727 0.76073 0.0
C1481 C 0.24311 0.09619 0.77243 0.0
C1482 C 0.20515 0.08416 0.74511 0.0
C1483 C 0.20051 0.11052 0.74125 0.0
C1484 C 0.21595 0.12953 0.75485 0.0
C1485 C 0.23707 0.12211 0.77023 0.0
C1486 C 0.18896 0.06332 0.73118 0.0
C1487 C 0.21152 0.15787 0.75159 0.0
C1488 C 0.17709 0.13601 0.67711 0.0
C1489 C 0.15179 0.14383 0.68338 0.0
C1490 C 0.19248 0.12346 0.69529 0.0
C1491 C 0.18231 0.11862 0.72044 0.0
C1492 C 0.15602 0.1247 0.72625 0.0
C1493 C 0.14102 0.13726 0.7076 0.0
C1494 C 0.22032 0.11707 0.68814 0.0
C1495 C 0.14439 0.11965 0.75273 0.0
H1496 H 0.23119 0.05722 0.76231 0.0
H1497 H 0.24979 0.13667 0.77958 0.0
H1498 H 0.16773 0.06753 0.73163 0.0
H1499 H 0.195 0.06246 0.71049 0.0
H1500 H 0.19169 0.04414 0.73984 0.0
H1501 H 0.22333 0.16997 0.76561 0.0
H1502 H 0.2171 0.16367 0.7316 0.0
H1503 H 0.19041 0.1619 0.75419 0.0
H1504 H 0.18524 0.14076 0.65826 0.0
H1505 H 0.12151 0.14339 0.71259 0.0
H1506 H 0.2242 0.09691 0.69323 0.0
H1507 H 0.23442 0.12971 0.69936 0.0
H1508 H 0.22428 0.1197 0.66709 0.0
H1509 H 0.14947 0.10034 0.75967 0.0
H1510 H 0.12262 0.121 0.75265 0.0
H1511 H 0.15274 0.13404 0.76688 0.0
C1512 C 0.77448 0.23207 0.64288 0.0
C1513 C 0.75621 0.21735 0.65729 0.0
C1514 C 0.78637 0.25467 0.65342 0.0
C1515 C 0.78052 0.2621 0.67928 0.0
C1516 C 0.76257 0.24685 0.69412 0.0
C1517 C 0.75023 0.2249 0.68273 0.0
C1518 C 0.80472 0.27086 0.63673 0.0
C1519 C 0.75646 0.25366 0.72205 0.0
C1520 C 0.82942 0.30569 0.71621 0.0
C1521 C 0.81618 0.32885 0.71738 0.0
C1522 C 0.81819 0.28392 0.70357 0.0
C1523 C 0.79347 0.28556 0.69108 0.0
C1524 C 0.7806 0.30926 0.69108 0.0
C1525 C 0.79191 0.33055 0.70466 0.0
C1526 C 0.83217 0.25884 0.70472 0.0
C1527 C 0.75459 0.31194 0.6773 0.0
H1528 H 0.7787 0.22643 0.623 0.0
H1529 H 0.73604 0.21347 0.6938 0.0
H1530 H 0.79746 0.29066 0.63543 0.0
H1531 H 0.8246 0.2724 0.6457 0.0
H1532 H 0.80654 0.26281 0.61674 0.0
H1533 H 0.74308 0.23908 0.73126 0.0
H1534 H 0.77496 0.25544 0.73358 0.0
H1535 H 0.7471 0.27255 0.72306 0.0
H1536 H 0.84803 0.30414 0.72634 0.0
H1537 H 0.78166 0.34843 0.70554 0.0
H1538 H 0.83515 0.25101 0.68485 0.0
H1539 H 0.81982 0.24445 0.71538 0.0
H1540 H 0.85163 0.26099 0.71457 0.0
H1541 H 0.75573 0.30437 0.65709 0.0
H1542 H 0.74862 0.33225 0.67671 0.0
H1543 H 0.73899 0.30043 0.68738 0.0
C1544 C 0.79315 0.82207 0.69595 0.0
C1545 C 0.80443 0.83327 0.67376 0.0
C1546 C 0.77127 0.8326 0.70805 0.0
C1547 C 0.76029 0.85488 0.69768 0.0
C1548 C 0.77151 0.8663 0.67523 0.0
C1549 C 0.79354 0.85541 0.66359 0.0
C1550 C 0.76012 0.82001 0.73215 0.0
C1551 C 0.76027 0.89001 0.66356 0.0
C1552 C 0.69069 0.86858 0.71974 0.0
C1553 C 0.69565 0.88631 0.74008 0.0
C1554 C 0.7115 0.85874 0.70516 0.0
C1555 C 0.73781 0.86679 0.71114 0.0
C1556 C 0.74282 0.88523 0.73113 0.0
C1557 C 0.72172 0.89478 0.74529 0.0
C1558 C 0.70541 0.8392 0.68386 0.0
C1559 C 0.77057 0.89429 0.73817 0.0
H1560 H 0.8017 0.80517 0.70408 0.0
H1561 H 0.80195 0.86393 0.64625 0.0
H1562 H 0.76155 0.83374 0.74881 0.0
H1563 H 0.73894 0.81477 0.7292 0.0
H1564 H 0.77056 0.80241 0.73736 0.0
H1565 H 0.77082 0.89612 0.64565 0.0
H1566 H 0.73914 0.88635 0.65876 0.0
H1567 H 0.76143 0.90612 0.67789 0.0
H1568 H 0.67061 0.86199 0.71555 0.0
H1569 H 0.72579 0.90858 0.76087 0.0
H1570 H 0.71353 0.82046 0.68914 0.0
H1571 H 0.71497 0.84532 0.66547 0.0
H1572 H 0.6839 0.83633 0.68037 0.0
H1573 H 0.78169 0.87789 0.74546 0.0
H1574 H 0.77104 0.90968 0.75334 0.0
H1575 H 0.78101 0.90167 0.72072 0.0
C1576 C 0.27789 0.17309 0.29843 0.0
C1577 C 0.29557 0.16084 0.31479 0.0
C1578 C 0.28587 0.18266 0.27415 0.0
C1579 C 0.3123 0.18033 0.26609 0.0
C1580 C 0.33039 0.16842 0.2827 0.0
C1581 C 0.32176 0.15863 0.30674 0.0
C1582 C 0.26588 0.19498 0.25697 0.0
C1583 C 0.35886 0.16598 0.27506 0.0
C1584 C 0.32829 0.18529 0.1938 0.0
C1585 C 0.33684 0.21114 0.19184 0.0
C1586 C 0.32017 0.17499 0.21781 0.0
C1587 C 0.32107 0.19079 0.24048 0.0
C1588 C 0.32996 0.21681 0.23863 0.0
C1589 C 0.33751 0.22669 0.21437 0.0
C1590 C 0.31043 0.14726 0.21889 0.0
C1591 C 0.33163 0.23423 0.26232 0.0
H1592 H 0.25754 0.17471 0.30431 0.0
H1593 H 0.33556 0.14921 0.31921 0.0
H1594 H 0.27224 0.21516 0.25296 0.0
H1595 H 0.26449 0.18464 0.23799 0.0
H1596 H 0.24598 0.1949 0.26586 0.0
H1597 H 0.37055 0.15666 0.29034 0.0
H1598 H 0.36012 0.1545 0.25682 0.0
H1599 H 0.36794 0.18528 0.2712 0.0
H1600 H 0.32768 0.17315 0.17652 0.0
H1601 H 0.34432 0.24663 0.21316 0.0
H1602 H 0.28997 0.14617 0.22641 0.0
H1603 H 0.32277 0.13653 0.23253 0.0
H1604 H 0.31076 0.13757 0.19955 0.0
H1605 H 0.31179 0.236 0.27096 0.0
H1606 H 0.33967 0.25379 0.25774 0.0
H1607 H 0.34435 0.2258 0.27732 0.0
C1608 C 0.84731 0.34802 0.26749 0.0
C1609 C 0.86766 0.33822 0.2824 0.0
C1610 C 0.85138 0.35476 0.24149 0.0
C1611 C 0.8765 0.35178 0.23014 0.0
C1612 C 0.89761 0.34363 0.24556 0.0
C1613 C 0.89289 0.33675 0.27148 0.0
C1614 C 0.82842 0.36394 0.22581 0.0
C1615 C 0.92484 0.34079 0.23456 0.0
C1616 C 0.86805 0.3392 0.15836 0.0
C1617 C 0.86896 0.36439 0.149 0.0
C1618 C 0.87309 0.33438 0.18462 0.0
C1619 C 0.87952 0.35526 0.20166 0.0
C1620 C 0.88404 0.38016 0.19152 0.0
C1621 C 0.87844 0.3845 0.16524 0.0
C1622 C 0.86854 0.30743 0.19462 0.0
C1623 C 0.89268 0.40247 0.2089 0.0
H1624 H 0.82779 0.34915 0.2757 0.0
H1625 H 0.90885 0.32963 0.28304 0.0
H1626 H 0.83354 0.38296 0.21726 0.0
H1627 H 0.82393 0.35031 0.20949 0.0
H1628 H 0.81038 0.36572 0.23772 0.0
H1629 H 0.92912 0.35452 0.21865 0.0
H1630 H 0.9401 0.34378 0.2499 0.0
H1631 H 0.92643 0.32102 0.22658 0.0
H1632 H 0.86053 0.32364 0.14591 0.0
H1633 H 0.87925 0.40394 0.15786 0.0
H1634 H 0.84997 0.3064 0.20595 0.0
H1635 H 0.88478 0.3023 0.20781 0.0
H1636 H 0.86696 0.29296 0.17857 0.0
H1637 H 0.87802 0.40513 0.22453 0.0
H1638 H 0.89527 0.42069 0.198 0.0
H1639 H 0.9116 0.39825 0.21849 0.0
C1640 C 0.68489 0.79237 0.20888 0.0
C1641 C 0.69371 0.76756 0.20402 0.0
C1642 C 0.69009 0.80496 0.23284 0.0
C1643 C 0.70395 0.7922 0.25253 0.0
C1644 C 0.7129 0.76717 0.24767 0.0
C1645 C 0.7079 0.7553 0.22345 0.0
C1646 C 0.68072 0.83186 0.23711 0.0
C1647 C 0.72744 0.75272 0.26821 0.0
C1648 C 0.73974 0.82903 0.30708 0.0
C1649 C 0.72197 0.8262 0.32778 0.0
C1650 C 0.73372 0.81883 0.2823 0.0
C1651 C 0.70953 0.80498 0.27817 0.0
C1652 C 0.69139 0.8022 0.29892 0.0
C1653 C 0.69772 0.81307 0.32344 0.0
C1654 C 0.75341 0.8226 0.26062 0.0
C1655 C 0.66559 0.78718 0.2954 0.0
H1656 H 0.6739 0.80195 0.19399 0.0
H1657 H 0.71459 0.73602 0.22002 0.0
H1658 H 0.66675 0.83215 0.25363 0.0
H1659 H 0.69765 0.84504 0.2423 0.0
H1660 H 0.67081 0.83937 0.21964 0.0
H1661 H 0.73262 0.73318 0.2615 0.0
H1662 H 0.74582 0.76357 0.27384 0.0
H1663 H 0.71515 0.75084 0.28593 0.0
H1664 H 0.75841 0.83942 0.31017 0.0
H1665 H 0.68392 0.81081 0.33935 0.0
H1666 H 0.74381 0.83108 0.2435 0.0
H1667 H 0.76083 0.80374 0.25436 0.0
H1668 H 0.7705 0.83531 0.26655 0.0
H1669 H 0.6542 0.79519 0.27916 0.0
H1670 H 0.65331 0.78741 0.31323 0.0
H1671 H 0.66944 0.76691 0.29021 0.0
C1672 C 0.18342 0.71467 0.13039 0.0
C1673 C 0.17112 0.69013 0.13084 0.0
C1674 C 0.18028 0.73213 0.15106 0.0
C1675 C 0.16442 0.72473 0.17249 0.0
C1676 C 0.1497 0.70106 0.17153 0.0
C1677 C 0.1534 0.68396 0.15074 0.0
C1678 C 0.19631 0.75712 0.15118 0.0
C1679 C 0.13232 0.69251 0.19381 0.0
C1680 C 0.18577 0.74289 0.24102 0.0
C1681 C 0.16699 0.76071 0.24824 0.0
C1682 C 0.18587 0.732 0.21596 0.0
C1683 C 0.16673 0.73911 0.19758 0.0
C1684 C 0.14869 0.75814 0.20418 0.0
C1685 C 0.14904 0.76873 0.22944 0.0
C1686 C 0.20571 0.71194 0.20955 0.0
C1687 C 0.12832 0.7665 0.18494 0.0
H1688 H 0.19755 0.71921 0.11522 0.0
H1689 H 0.14421 0.66482 0.15108 0.0
H1690 H 0.18549 0.77283 0.16059 0.0
H1691 H 0.21466 0.7546 0.1624 0.0
H1692 H 0.20189 0.76294 0.13118 0.0
H1693 H 0.11935 0.67559 0.18841 0.0
H1694 H 0.14483 0.68718 0.21048 0.0
H1695 H 0.11985 0.70834 0.20042 0.0
H1696 H 0.19971 0.73646 0.25526 0.0
H1697 H 0.13487 0.78293 0.23461 0.0
H1698 H 0.21728 0.71776 0.19219 0.0
H1699 H 0.19535 0.69331 0.20482 0.0
H1700 H 0.21958 0.7089 0.22587 0.0
H1701 H 0.1377 0.77118 0.16604 0.0
H1702 H 0.11775 0.78351 0.19202 0.0
H1703 H 0.11367 0.75049 0.18133 0.0
C1704 C 0.43998 0.71603 0.72313 0.0
C1705 C 0.41671 0.7082 0.73589 0.0
C1706 C 0.43909 0.73017 0.70007 0.0
C1707 C 0.41439 0.73672 0.68977 0.0
C1708 C 0.39089 0.72706 0.70146 0.0
C1709 C 0.39239 0.7128 0.72428 0.0
C1710 C 0.46458 0.7397 0.68792 0.0
C1711 C 0.36409 0.7335 0.6911 0.0
C1712 C 0.40411 0.80051 0.65781 0.0
C1713 C 0.39855 0.7929 0.63209 0.0
C1714 C 0.41103 0.78258 0.67648 0.0
C1715 C 0.4127 0.75637 0.66916 0.0
C1716 C 0.40939 0.74892 0.64277 0.0
C1717 C 0.40224 0.76729 0.6245 0.0
C1718 C 0.41464 0.79143 0.7044 0.0
C1719 C 0.41161 0.72127 0.63414 0.0
H1720 H 0.45885 0.71265 0.73205 0.0
H1721 H 0.37442 0.70638 0.73392 0.0
H1722 H 0.46341 0.73854 0.6664 0.0
H1723 H 0.46843 0.76018 0.69345 0.0
H1724 H 0.48152 0.72858 0.69459 0.0
H1725 H 0.34787 0.7226 0.70101 0.0
H1726 H 0.36106 0.75436 0.69396 0.0
H1727 H 0.36275 0.72934 0.66994 0.0
H1728 H 0.40184 0.82038 0.66359 0.0
H1729 H 0.39796 0.76123 0.60467 0.0
H1730 H 0.4333 0.78444 0.71245 0.0
H1731 H 0.39831 0.78323 0.71636 0.0
H1732 H 0.41488 0.81271 0.70646 0.0
H1733 H 0.42894 0.71264 0.64329 0.0
H1734 H 0.41328 0.71942 0.61268 0.0
H1735 H 0.39383 0.70997 0.64039 0.0
C1736 C 0.19418 0.32561 0.80891 0.0
C1737 C 0.22044 0.32381 0.81692 0.0
C1738 C 0.18551 0.3152 0.78488 0.0
C1739 C 0.20366 0.30319 0.76824 0.0
C1740 C 0.23004 0.30078 0.7765 0.0
C1741 C 0.23802 0.31087 0.8008 0.0
C1742 C 0.15705 0.31759 0.77703 0.0
C1743 C 0.25014 0.28844 0.75927 0.0
C1744 C 0.17779 0.25999 0.71294 0.0
C1745 C 0.17813 0.27699 0.69193 0.0
C1746 C 0.18602 0.26822 0.73786 0.0
C1747 C 0.19529 0.29397 0.74182 0.0
C1748 C 0.19636 0.31103 0.72054 0.0
C1749 C 0.1875 0.30241 0.69591 0.0
C1750 C 0.18419 0.24953 0.76008 0.0
C1751 C 0.20669 0.33847 0.72385 0.0
H1752 H 0.18047 0.3355 0.82126 0.0
H1753 H 0.25843 0.3095 0.80669 0.0
H1754 H 0.15582 0.33019 0.75986 0.0
H1755 H 0.14833 0.29847 0.77132 0.0
H1756 H 0.14504 0.32575 0.7929 0.0
H1757 H 0.26972 0.28759 0.76886 0.0
H1758 H 0.24335 0.26861 0.75373 0.0
H1759 H 0.25247 0.29948 0.74105 0.0
H1760 H 0.17036 0.24035 0.71011 0.0
H1761 H 0.18789 0.31561 0.67977 0.0
H1762 H 0.17066 0.25679 0.77513 0.0
H1763 H 0.20376 0.24788 0.7694 0.0
H1764 H 0.17694 0.23005 0.75368 0.0
H1765 H 0.19404 0.34892 0.73762 0.0
H1766 H 0.20731 0.34896 0.70516 0.0
H1767 H 0.22684 0.33883 0.73227 0.0
C1768 C 0.59109 0.23399 0.65385 0.0
C1769 C 0.61205 0.21977 0.6631 0.0
C1770 C 0.57665 0.24951 0.67078 0.0
C1771 C 0.58352 0.25092 0.69745 0.0
C1772 C 0.60444 0.23638 0.70689 0.0
C1773 C 0.61824 0.2209 0.68968 0.0
C1774 C 0.55434 0.26461 0.66012 0.0
C1775 C 0.61246 0.23726 0.73525 0.0
C1776 C 0.57241 0.30476 0.74513 0.0
C1777 C 0.55476 0.29249 0.76225 0.0
C1778 C 0.57994 0.29253 0.72201 0.0
C1779 C 0.56938 0.26758 0.71597 0.0
C1780 C 0.54906 0.25664 0.73155 0.0
C1781 C 0.54207 0.26923 0.75462 0.0
C1782 C 0.60157 0.30495 0.7059 0.0
C1783 C 0.53691 0.23032 0.72557 0.0
H1784 H 0.58626 0.23336 0.63333 0.0
H1785 H 0.63389 0.20952 0.69718 0.0
H1786 H 0.53608 0.26046 0.67131 0.0
H1787 H 0.55912 0.28551 0.66228 0.0
H1788 H 0.55042 0.26018 0.63925 0.0
H1789 H 0.62934 0.22494 0.73934 0.0
H1790 H 0.61806 0.2573 0.74121 0.0
H1791 H 0.59564 0.23079 0.74754 0.0
H1792 H 0.58234 0.3227 0.75098 0.0
H1793 H 0.52819 0.25993 0.76777 0.0
H1794 H 0.59775 0.30184 0.68484 0.0
H1795 H 0.62051 0.29609 0.7106 0.0
H1796 H 0.60379 0.32595 0.70991 0.0
H1797 H 0.53335 0.2277 0.70441 0.0
H1798 H 0.51801 0.22699 0.73604 0.0
H1799 H 0.55067 0.21546 0.73171 0.0
C1800 C 0.82983 0.70622 0.70816 0.0
C1801 C 0.84744 0.72758 0.70981 0.0
C1802 C 0.82143 0.69323 0.73072 0.0
C1803 C 0.83085 0.70188 0.75542 0.0
C1804 C 0.84885 0.72323 0.7571 0.0
C1805 C 0.85691 0.73575 0.73435 0.0
C1806 C 0.80225 0.67048 0.72819 0.0
C1807 C 0.85933 0.73315 0.78301 0.0
C1808 C 0.79073 0.68727 0.81606 0.0
C1809 C 0.80445 0.66713 0.82709 0.0
C1810 C 0.7989 0.69846 0.7926 0.0
C1811 C 0.82133 0.6893 0.77971 0.0
C1812 C 0.83535 0.66905 0.79073 0.0
C1813 C 0.82679 0.65825 0.81432 0.0
C1814 C 0.78356 0.7202 0.78167 0.0
C1815 C 0.85938 0.65879 0.77759 0.0
H1816 H 0.82245 0.69976 0.68931 0.0
H1817 H 0.87058 0.7522 0.73592 0.0
H1818 H 0.81048 0.65343 0.73755 0.0
H1819 H 0.78369 0.67468 0.73844 0.0
H1820 H 0.79752 0.66557 0.70758 0.0
H1821 H 0.87374 0.74959 0.78091 0.0
H1822 H 0.84282 0.73946 0.7953 0.0
H1823 H 0.86903 0.71757 0.7935 0.0
H1824 H 0.77342 0.69426 0.82572 0.0
H1825 H 0.8374 0.64258 0.82255 0.0
H1826 H 0.77668 0.71521 0.76168 0.0
H1827 H 0.7965 0.73779 0.78033 0.0
H1828 H 0.7662 0.72468 0.79375 0.0
H1829 H 0.85434 0.65225 0.75751 0.0
H1830 H 0.86764 0.64248 0.78826 0.0
H1831 H 0.87486 0.6743 0.77606 0.0
C1832 C 0.18625 0.38858 0.18822 0.0
C1833 C 0.17535 0.37188 0.20687 0.0
C1834 C 0.21095 0.38416 0.17714 0.0
C1835 C 0.22486 0.36237 0.18468 0.0
C1836 C 0.21353 0.34503 0.20288 0.0
C1837 C 0.18901 0.35007 0.21383 0.0
C1838 C 0.2225 0.40316 0.15795 0.0
C1839 C 0.22757 0.32139 0.21119 0.0
C1840 C 0.27924 0.33451 0.14412 0.0
C1841 C 0.30174 0.34193 0.15867 0.0
C1842 C 0.25414 0.34209 0.1516 0.0
C1843 C 0.25148 0.35769 0.17407 0.0
C1844 C 0.27427 0.36669 0.18785 0.0
C1845 C 0.29914 0.35866 0.18001 0.0
C1846 C 0.23038 0.33216 0.13631 0.0
C1847 C 0.27225 0.38358 0.21177 0.0
H1848 H 0.17591 0.4056 0.18292 0.0
H1849 H 0.18065 0.33704 0.22816 0.0
H1850 H 0.24087 0.41229 0.16606 0.0
H1851 H 0.22782 0.39312 0.13968 0.0
H1852 H 0.20869 0.41851 0.15325 0.0
H1853 H 0.21566 0.30939 0.22485 0.0
H1854 H 0.23228 0.30945 0.19393 0.0
H1855 H 0.24649 0.32716 0.22082 0.0
H1856 H 0.28117 0.32206 0.12727 0.0
H1857 H 0.31635 0.36443 0.19142 0.0
H1858 H 0.21734 0.34811 0.13168 0.0
H1859 H 0.21879 0.31818 0.14821 0.0
H1860 H 0.23595 0.32246 0.11788 0.0
H1861 H 0.25945 0.39992 0.2079 0.0
H1862 H 0.29183 0.39132 0.21848 0.0
H1863 H 0.26308 0.3723 0.22776 0.0
C1864 C 0.30691 0.67768 0.80762 0.0
C1865 C 0.31878 0.6979 0.82219 0.0
C1866 C 0.2795 0.67499 0.80524 0.0
C1867 C 0.26341 0.69271 0.81815 0.0
C1868 C 0.27523 0.71345 0.83261 0.0
C1869 C 0.30289 0.71594 0.83429 0.0
C1870 C 0.26777 0.65287 0.78916 0.0
C1871 C 0.25869 0.73254 0.84681 0.0
C1872 C 0.19455 0.68925 0.7902 0.0
C1873 C 0.18282 0.66951 0.80515 0.0
C1874 C 0.22023 0.69875 0.79551 0.0
C1875 C 0.23428 0.68871 0.81667 0.0
C1876 C 0.2214 0.67107 0.8336 0.0
C1877 C 0.19587 0.6615 0.82752 0.0
C1878 C 0.2332 0.7174 0.77678 0.0
C1879 C 0.23547 0.66034 0.85673 0.0
H1880 H 0.31913 0.66384 0.79801 0.0
H1881 H 0.31203 0.73152 0.84569 0.0
H1882 H 0.25579 0.63982 0.80173 0.0
H1883 H 0.25446 0.66019 0.77403 0.0
H1884 H 0.28306 0.64149 0.77946 0.0
H1885 H 0.27085 0.74843 0.85589 0.0
H1886 H 0.24434 0.74086 0.8333 0.0
H1887 H 0.24719 0.72258 0.86226 0.0
H1888 H 0.1846 0.69581 0.77297 0.0
H1889 H 0.18684 0.64653 0.83938 0.0
H1890 H 0.24657 0.70685 0.76379 0.0
H1891 H 0.24526 0.73241 0.78729 0.0
H1892 H 0.21851 0.7269 0.76445 0.0
H1893 H 0.2496 0.646 0.84991 0.0
H1894 H 0.22154 0.65074 0.87045 0.0
H1895 H 0.24689 0.67578 0.86733 0.0
C1896 C 0.33613 0.30268 0.78978 0.0
C1897 C 0.34428 0.30919 0.81517 0.0
C1898 C 0.33851 0.27754 0.77997 0.0
C1899 C 0.34947 0.25865 0.7959 0.0
C1900 C 0.35996 0.26584 0.8206 0.0
C1901 C 0.357 0.29098 0.83001 0.0
C1902 C 0.32728 0.27069 0.75348 0.0
C1903 C 0.37219 0.24644 0.83809 0.0
C1904 C 0.32071 0.19057 0.79559 0.0
C1905 C 0.34066 0.17684 0.78371 0.0
C1906 C 0.32275 0.21737 0.79821 0.0
C1907 C 0.3456 0.23083 0.78913 0.0
C1908 C 0.36526 0.2172 0.77587 0.0
C1909 C 0.36247 0.19024 0.77316 0.0
C1910 C 0.30103 0.2311 0.81203 0.0
C1911 C 0.38995 0.23077 0.76603 0.0
H1912 H 0.32601 0.31665 0.77837 0.0
H1913 H 0.36331 0.29611 0.84961 0.0
H1914 H 0.34149 0.25953 0.74205 0.0
H1915 H 0.30916 0.25833 0.75569 0.0
H1916 H 0.32222 0.28801 0.74237 0.0
H1917 H 0.38282 0.25579 0.8548 0.0
H1918 H 0.35651 0.23323 0.8458 0.0
H1919 H 0.38615 0.23463 0.82706 0.0
H1920 H 0.30375 0.18017 0.8036 0.0
H1921 H 0.37804 0.17957 0.76422 0.0
H1922 H 0.29437 0.24733 0.80019 0.0
H1923 H 0.30856 0.23926 0.83077 0.0
H1924 H 0.28372 0.21809 0.81609 0.0
H1925 H 0.38536 0.24918 0.75668 0.0
H1926 H 0.40057 0.21866 0.75189 0.0
H1927 H 0.40334 0.23536 0.78267 0.0
C1928 C 0.67153 0.28806 0.80799 0.0
C1929 C 0.65841 0.28088 0.83089 0.0
C1930 C 0.69902 0.29174 0.80746 0.0
C1931 C 0.71383 0.28808 0.83039 0.0
C1932 C 0.70089 0.27944 0.8532 0.0
C1933 C 0.6733 0.27598 0.8532 0.0
C1934 C 0.71204 0.30083 0.78267 0.0
C1935 C 0.71604 0.27503 0.87793 0.0
C1936 C 0.78789 0.28606 0.82051 0.0
C1937 C 0.79574 0.31185 0.82518 0.0
C1938 C 0.76143 0.27766 0.82324 0.0
C1939 C 0.74244 0.29548 0.83088 0.0
C1940 C 0.75055 0.32122 0.8369 0.0
C1941 C 0.77707 0.32907 0.83391 0.0
C1942 C 0.7536 0.25008 0.8166 0.0
C1943 C 0.731 0.34082 0.84529 0.0
H1944 H 0.66025 0.2917 0.79058 0.0
H1945 H 0.66336 0.27039 0.87099 0.0
H1946 H 0.72073 0.32054 0.78568 0.0
H1947 H 0.72834 0.28821 0.77735 0.0
H1948 H 0.69798 0.30115 0.76611 0.0
H1949 H 0.70363 0.26532 0.8929 0.0
H1950 H 0.73332 0.2632 0.87391 0.0
H1951 H 0.72359 0.29376 0.88601 0.0
H1952 H 0.80217 0.27273 0.81345 0.0
H1953 H 0.78317 0.34894 0.83775 0.0
H1954 H 0.74263 0.24932 0.7979 0.0
H1955 H 0.74033 0.24181 0.83168 0.0
H1956 H 0.77098 0.23788 0.81466 0.0
H1957 H 0.71708 0.34415 0.82911 0.0
H1958 H 0.74075 0.35953 0.85097 0.0
H1959 H 0.71923 0.33355 0.86196 0.0
C1960 C 0.66312 0.70875 0.88387 0.0
C1961 C 0.67015 0.69489 0.86157 0.0
C1962 C 0.65561 0.73438 0.88227 0.0
C1963 C 0.65564 0.74655 0.8578 0.0
C1964 C 0.66151 0.73225 0.83507 0.0
C1965 C 0.6685 0.70652 0.83722 0.0
C1966 C 0.64882 0.74875 0.90686 0.0
C1967 C 0.66199 0.74456 0.80863 0.0
C1968 C 0.62374 0.8101 0.84534 0.0
C1969 C 0.64557 0.82741 0.8464 0.0
C1970 C 0.6264 0.78388 0.85042 0.0
C1971 C 0.65163 0.77467 0.85603 0.0
C1972 C 0.67357 0.79226 0.85808 0.0
C1973 C 0.6702 0.81847 0.85348 0.0
C1974 C 0.6024 0.76593 0.84864 0.0
C1975 C 0.70087 0.7832 0.86373 0.0
H1976 H 0.66435 0.6997 0.90268 0.0
H1977 H 0.67433 0.69602 0.82 0.0
H1978 H 0.66451 0.76358 0.9113 0.0
H1979 H 0.63017 0.75886 0.90426 0.0
H1980 H 0.64676 0.73578 0.92379 0.0
H1981 H 0.66559 0.73047 0.79276 0.0
H1982 H 0.64306 0.75375 0.80477 0.0
H1983 H 0.67777 0.75989 0.80815 0.0
H1984 H 0.60465 0.81708 0.84 0.0
H1985 H 0.68712 0.83178 0.85398 0.0
H1986 H 0.60221 0.75186 0.86468 0.0
H1987 H 0.60281 0.75493 0.83005 0.0
H1988 H 0.58387 0.77655 0.84931 0.0
H1989 H 0.70082 0.77177 0.88179 0.0
H1990 H 0.71558 0.79944 0.86593 0.0
H1991 H 0.70723 0.77047 0.84766 0.0
C1992 C 0.70174 0.63805 0.18762 0.0
C1993 C 0.70179 0.65908 0.17081 0.0
C1994 C 0.72537 0.62906 0.19773 0.0
C1995 C 0.74964 0.64136 0.19079 0.0
C1996 C 0.74997 0.66138 0.17246 0.0
C1997 C 0.72611 0.67002 0.16275 0.0
C1998 C 0.72423 0.60746 0.21707 0.0
C1999 C 0.77542 0.67498 0.16446 0.0
C2000 C 0.80435 0.64383 0.24116 0.0
C2001 C 0.82106 0.62496 0.23188 0.0
C2002 C 0.78109 0.64927 0.22793 0.0
C2003 C 0.77427 0.63544 0.20485 0.0
C2004 C 0.79114 0.61654 0.19519 0.0
C2005 C 0.81441 0.61156 0.2088 0.0
C2006 C 0.76374 0.66976 0.23877 0.0
C2007 C 0.78449 0.60146 0.17064 0.0
H2008 H 0.68312 0.62924 0.19366 0.0
H2009 H 0.7267 0.68644 0.15007 0.0
H2010 H 0.73876 0.59283 0.21202 0.0
H2011 H 0.72946 0.6152 0.23669 0.0
H2012 H 0.70433 0.59791 0.21802 0.0
H2013 H 0.77268 0.68776 0.14759 0.0
H2014 H 0.7833 0.68685 0.18099 0.0
H2015 H 0.79045 0.66087 0.15938 0.0
H2016 H 0.80935 0.6543 0.25895 0.0
H2017 H 0.82713 0.59684 0.20158 0.0
H2018 H 0.74384 0.66132 0.24292 0.0
H2019 H 0.76134 0.68507 0.22421 0.0
H2020 H 0.77187 0.67874 0.25692 0.0
H2021 H 0.76527 0.59089 0.17286 0.0
H2022 H 0.7997 0.58742 0.16569 0.0
H2023 H 0.78247 0.61476 0.15412 0.0
C2024 C 0.32975 0.80049 0.20763 0.0
C2025 C 0.31294 0.81084 0.22628 0.0
C2026 C 0.32177 0.77882 0.1926 0.0
C2027 C 0.29637 0.76728 0.19626 0.0
C2028 C 0.27918 0.77789 0.21478 0.0
C2029 C 0.28767 0.79951 0.22953 0.0
C2030 C 0.34066 0.76807 0.17303 0.0
C2031 C 0.25193 0.76625 0.21927 0.0
C2032 C 0.2673 0.72618 0.14104 0.0
C2033 C 0.2717 0.70115 0.14955 0.0
C2034 C 0.27502 0.74779 0.15615 0.0
C2035 C 0.28761 0.74439 0.18035 0.0
C2036 C 0.29196 0.7192 0.1892 0.0
C2037 C 0.28385 0.69785 0.17372 0.0
C2038 C 0.26974 0.77428 0.14614 0.0
C2039 C 0.3053 0.71483 0.21494 0.0
H2040 H 0.34936 0.80901 0.20507 0.0
H2041 H 0.27453 0.80732 0.24392 0.0
H2042 H 0.34451 0.74778 0.17767 0.0
H2043 H 0.33179 0.76816 0.1533 0.0
H2044 H 0.35976 0.77919 0.17263 0.0
H2045 H 0.2408 0.77707 0.2341 0.0
H2046 H 0.24054 0.76575 0.20086 0.0
H2047 H 0.25338 0.74613 0.2258 0.0
H2048 H 0.2576 0.72897 0.12255 0.0
H2049 H 0.28717 0.67859 0.1805 0.0
H2050 H 0.28865 0.78521 0.14322 0.0
H2051 H 0.25827 0.78512 0.16063 0.0
H2052 H 0.25869 0.77359 0.12746 0.0
H2053 H 0.32519 0.7244 0.21515 0.0
H2054 H 0.30731 0.69407 0.219 0.0
H2055 H 0.29389 0.72355 0.23091 0.0
C2056 C 0.73287 0.30306 0.14236 0.0
C2057 C 0.76037 0.30629 0.14373 0.0
C2058 C 0.72019 0.2797 0.14935 0.0
C2059 C 0.73539 0.25899 0.15756 0.0
C2060 C 0.76317 0.262 0.15851 0.0
C2061 C 0.77531 0.28565 0.15175 0.0
C2062 C 0.69049 0.27733 0.14842 0.0
C2063 C 0.7801 0.24031 0.16689 0.0
C2064 C 0.70264 0.20856 0.20066 0.0
C2065 C 0.69579 0.18881 0.18276 0.0
C2066 C 0.71556 0.2314 0.19272 0.0
C2067 C 0.72217 0.23455 0.16622 0.0
C2068 C 0.71601 0.21445 0.14812 0.0
C2069 C 0.70283 0.19184 0.1566 0.0
C2070 C 0.72186 0.25228 0.21269 0.0
C2071 C 0.72311 0.21697 0.11977 0.0
H2072 H 0.7212 0.31892 0.13622 0.0
H2073 H 0.79659 0.2879 0.15269 0.0
H2074 H 0.68404 0.26085 0.13577 0.0
H2075 H 0.68272 0.27345 0.16819 0.0
H2076 H 0.68156 0.295 0.14104 0.0
H2077 H 0.80147 0.24539 0.16548 0.0
H2078 H 0.77557 0.23514 0.18729 0.0
H2079 H 0.77567 0.22294 0.15469 0.0
H2080 H 0.69796 0.20619 0.22102 0.0
H2081 H 0.69754 0.17677 0.14264 0.0
H2082 H 0.71203 0.27014 0.20729 0.0
H2083 H 0.74336 0.25681 0.21315 0.0
H2084 H 0.71544 0.24675 0.23255 0.0
H2085 H 0.71276 0.23327 0.11122 0.0
H2086 H 0.71783 0.19925 0.10837 0.0
H2087 H 0.74456 0.22127 0.11776 0.0
loop_
_geom_bond_atom_site_label_1
_geom_bond_atom_site_label_2
_geom_bond_distance
_geom_bond_site_symmetry_2
_ccdc_geom_bond_type
Cu0 N1 1.999 . S
Cu0 O6 1.974 . S
Cu0 N11 1.985 . S
Cu0 O20 1.959 . S
N1 Cu0 1.999 . S
N1 C3 1.263 . S
N1 C5 1.389 . S
N2 C3 1.358 . S
N2 C4 1.400 . S
C3 N1 1.263 . S
C3 N2 1.358 . S
C3 H9 0.930 . S
C4 N2 1.400 . S
C4 C5 1.351 . S
C4 H21 0.930 . S
C5 N1 1.389 . S
C5 C4 1.351 . S
C5 H10 0.930 . S
O6 Cu0 1.974 . S
O6 C16 1.282 . S
C7 O8 1.261 . S
C7 O20 1.251 . S
O8 C7 1.261 . S
H9 C3 0.930 . S
H10 C5 0.930 . S
N11 Cu0 1.985 . S
N11 C13 1.335 . S
N11 C14 1.390 . S
N12 C13 1.345 . S
N12 C15 1.336 . S
C13 N11 1.335 . S
C13 N12 1.345 . S
C13 H18 0.930 . S
C14 N11 1.390 . S
C14 C15 1.346 . S
C14 H19 0.930 . S
C15 N12 1.336 . S
C15 C14 1.346 . S
C15 H22 0.929 . S
C16 O6 1.282 . S
C16 O17 1.216 . S
O17 C16 1.216 . S
H18 C13 0.930 . S
H19 C14 0.930 . S
O20 Cu0 1.959 . S
O20 C7 1.251 . S
H21 C4 0.930 . S
H22 C15 0.929 . S
Cu23 N24 1.999 . S
Cu23 O29 1.974 . S
Cu23 N34 1.985 . S
Cu23 O43 1.959 . S
N24 Cu23 1.999 . S
N24 C26 1.263 . S
N24 C28 1.389 . S
N25 C26 1.358 . S
N25 C27 1.400 . S
C26 N24 1.263 . S
C26 N25 1.358 . S
C26 H32 0.930 . S
C27 N25 1.400 . S
C27 C28 1.351 . S
C27 H44 0.930 . S
C28 N24 1.389 . S
C28 C27 1.351 . S
C28 H33 0.930 . S
O29 Cu23 1.974 . S
O29 C39 1.282 . S
C30 O31 1.261 . S
C30 O43 1.251 . S
O31 C30 1.261 . S
H32 C26 0.930 . S
H33 C28 0.930 . S
N34 Cu23 1.985 . S
N34 C36 1.335 . S
N34 C37 1.390 . S
N35 C36 1.345 . S
N35 C38 1.336 . S
C36 N34 1.335 . S
C36 N35 1.345 . S
C36 H41 0.930 . S
C37 N34 1.390 . S
C37 C38 1.346 . S
C37 H42 0.930 . S
C38 N35 1.336 . S
C38 C37 1.346 . S
C38 H45 0.929 . S
C39 O29 1.282 . S
C39 O40 1.216 . S
O40 C39 1.216 . S
H41 C36 0.930 . S
H42 C37 0.930 . S
O43 Cu23 1.959 . S
O43 C30 1.251 . S
H44 C27 0.930 . S
H45 C38 0.929 . S
Cu46 N47 1.999 . S
Cu46 O52 1.974 . S
Cu46 N57 1.985 . S
Cu46 O66 1.959 . S
N47 Cu46 1.999 . S
N47 C49 1.263 . S
N47 C51 1.389 . S
N48 C49 1.358 . S
N48 C50 1.400 . S
C49 N47 1.263 . S
C49 N48 1.358 . S
C49 H55 0.930 . S
C50 N48 1.400 . S
C50 C51 1.351 . S
C50 H67 0.930 . S
C51 N47 1.389 . S
C51 C50 1.351 . S
C51 H56 0.930 . S
O52 Cu46 1.974 . S
O52 C62 1.282 . S
C53 O54 1.261 . S
C53 O66 1.251 . S
O54 C53 1.261 . S
H55 C49 0.930 . S
H56 C51 0.930 . S
N57 Cu46 1.985 . S
N57 C59 1.335 . S
N57 C60 1.390 . S
N58 C59 1.345 . S
N58 C61 1.336 . S
C59 N57 1.335 . S
C59 N58 1.345 . S
C59 H64 0.930 . S
C60 N57 1.390 . S
C60 C61 1.346 . S
C60 H65 0.930 . S
C61 N58 1.336 . S
C61 C60 1.346 . S
C61 H68 0.929 . S
C62 O52 1.282 . S
C62 O63 1.216 . S
O63 C62 1.216 . S
H64 C59 0.930 . S
H65 C60 0.930 . S
O66 Cu46 1.959 . S
O66 C53 1.251 . S
H67 C50 0.930 . S
H68 C61 0.929 . S
Cu69 N70 1.999 . S
Cu69 O75 1.974 . S
Cu69 N80 1.985 . S
Cu69 O89 1.959 . S
N70 Cu69 1.999 . S
N70 C72 1.263 . S
N70 C74 1.389 . S
N71 C72 1.358 . S
N71 C73 1.400 . S
C72 N70 1.263 . S
C72 N71 1.358 . S
C72 H78 0.930 . S
C73 N71 1.400 . S
C73 C74 1.351 . S
C73 H90 0.930 . S
C74 N70 1.389 . S
C74 C73 1.351 . S
C74 H79 0.930 . S
O75 Cu69 1.974 . S
O75 C85 1.282 . S
C76 O77 1.261 . S
C76 O89 1.251 . S
O77 C76 1.261 . S
H78 C72 0.930 . S
H79 C74 0.930 . S
N80 Cu69 1.985 . S
N80 C82 1.335 . S
N80 C83 1.390 . S
N81 C82 1.345 . S
N81 C84 1.336 . S
C82 N80 1.335 . S
C82 N81 1.345 . S
C82 H87 0.930 . S
C83 N80 1.390 . S
C83 C84 1.346 . S
C83 H88 0.930 . S
C84 N81 1.336 . S
C84 C83 1.346 . S
C84 H91 0.929 . S
C85 O75 1.282 . S
C85 O86 1.216 . S
O86 C85 1.216 . S
H87 C82 0.930 . S
H88 C83 0.930 . S
O89 Cu69 1.959 . S
O89 C76 1.251 . S
H90 C73 0.930 . S
H91 C84 0.929 . S
Cu92 N93 1.999 . S
Cu92 O98 1.974 . S
Cu92 N103 1.985 . S
Cu92 O112 1.959 . S
N93 Cu92 1.999 . S
N93 C95 1.263 . S
N93 C97 1.389 . S
N94 C95 1.358 . S
N94 C96 1.400 . S
C95 N93 1.263 . S
C95 N94 1.358 . S
C95 H101 0.930 . S
C96 N94 1.400 . S
C96 C97 1.351 . S
C96 H113 0.930 . S
C97 N93 1.389 . S
C97 C96 1.351 . S
C97 H102 0.930 . S
O98 Cu92 1.974 . S
O98 C108 1.282 . S
C99 O100 1.261 . S
C99 O112 1.251 . S
O100 C99 1.261 . S
H101 C95 0.930 . S
H102 C97 0.930 . S
N103 Cu92 1.985 . S
N103 C105 1.335 . S
N103 C106 1.390 . S
N104 C105 1.345 . S
N104 C107 1.336 . S
C105 N103 1.335 . S
C105 N104 1.345 . S
C105 H110 0.930 . S
C106 N103 1.390 . S
C106 C107 1.346 . S
C106 H111 0.930 . S
C107 N104 1.336 . S
C107 C106 1.346 . S
C107 H114 0.929 . S
C108 O98 1.282 . S
C108 O109 1.216 . S
O109 C108 1.216 . S
H110 C105 0.930 . S
H111 C106 0.930 . S
O112 Cu92 1.959 . S
O112 C99 1.251 . S
H113 C96 0.930 . S
H114 C107 0.929 . S
Cu115 N116 1.999 . S
Cu115 O121 1.974 . S
Cu115 N126 1.985 . S
Cu115 O135 1.959 . S
N116 Cu115 1.999 . S
N116 C118 1.263 . S
N116 C120 1.389 . S
N117 C118 1.358 . S
N117 C119 1.400 . S
C118 N116 1.263 . S
C118 N117 1.358 . S
C118 H124 0.930 . S
C119 N117 1.400 . S
C119 C120 1.351 . S
C119 H136 0.930 . S
C120 N116 1.389 . S
C120 C119 1.351 . S
C120 H125 0.930 . S
O121 Cu115 1.974 . S
O121 C131 1.282 . S
C122 O123 1.261 . S
C122 O135 1.251 . S
O123 C122 1.261 . S
H124 C118 0.930 . S
H125 C120 0.930 . S
N126 Cu115 1.985 . S
N126 C128 1.335 . S
N126 C129 1.390 . S
N127 C128 1.345 . S
N127 C130 1.336 . S
C128 N126 1.335 . S
C128 N127 1.345 . S
C128 H133 0.930 . S
C129 N126 1.390 . S
C129 C130 1.346 . S
C129 H134 0.930 . S
C130 N127 1.336 . S
C130 C129 1.346 . S
C130 H137 0.929 . S
C131 O121 1.282 . S
C131 O132 1.216 . S
O132 C131 1.216 . S
H133 C128 0.930 . S
H134 C129 0.930 . S
O135 Cu115 1.959 . S
O135 C122 1.251 . S
H136 C119 0.930 . S
H137 C130 0.929 . S
Cu138 N139 1.999 . S
Cu138 O144 1.974 . S
Cu138 N149 1.985 . S
Cu138 O158 1.959 . S
N139 Cu138 1.999 . S
N139 C141 1.263 . S
N139 C143 1.389 . S
N140 C141 1.358 . S
N140 C142 1.400 . S
C141 N139 1.263 . S
C141 N140 1.358 . S
C141 H147 0.930 . S
C142 N140 1.400 . S
C142 C143 1.351 . S
C142 H159 0.930 . S
C143 N139 1.389 . S
C143 C142 1.351 . S
C143 H148 0.930 . S
O144 Cu138 1.974 . S
O144 C154 1.282 . S
C145 O146 1.261 . S
C145 O158 1.251 . S
O146 C145 1.261 . S
H147 C141 0.930 . S
H148 C143 0.930 . S
N149 Cu138 1.985 . S
N149 C151 1.335 . S
N149 C152 1.390 . S
N150 C151 1.345 . S
N150 C153 1.336 . S
C151 N149 1.335 . S
C151 N150 1.345 . S
C151 H156 0.930 . S
C152 N149 1.390 . S
C152 C153 1.346 . S
C152 H157 0.930 . S
C153 N150 1.336 . S
C153 C152 1.346 . S
C153 H160 0.929 . S
C154 O144 1.282 . S
C154 O155 1.216 . S
O155 C154 1.216 . S
H156 C151 0.930 . S
H157 C152 0.930 . S
O158 Cu138 1.959 . S
O158 C145 1.251 . S
H159 C142 0.930 . S
H160 C153 0.929 . S
Cu161 N162 1.999 . S
Cu161 O167 1.974 . S
Cu161 N172 1.985 . S
Cu161 O181 1.959 . S
N162 Cu161 1.999 . S
N162 C164 1.263 . S
N162 C166 1.389 . S
N163 C164 1.358 . S
N163 C165 1.400 . S
C164 N162 1.263 . S
C164 N163 1.358 . S
C164 H170 0.930 . S
C165 N163 1.400 . S
C165 C166 1.351 . S
C165 H182 0.930 . S
C166 N162 1.389 . S
C166 C165 1.351 . S
C166 H171 0.930 . S
O167 Cu161 1.974 . S
O167 C177 1.282 . S
C168 O169 1.261 . S
C168 O181 1.251 . S
O169 C168 1.261 . S
H170 C164 0.930 . S
H171 C166 0.930 . S
N172 Cu161 1.985 . S
N172 C174 1.335 . S
N172 C175 1.390 . S
N173 C174 1.345 . S
N173 C176 1.336 . S
C174 N172 1.335 . S
C174 N173 1.345 . S
C174 H179 0.930 . S
C175 N172 1.390 . S
C175 C176 1.346 . S
C175 H180 0.930 . S
C176 N173 1.336 . S
C176 C175 1.346 . S
C176 H183 0.929 . S
C177 O167 1.282 . S
C177 O178 1.216 . S
O178 C177 1.216 . S
H179 C174 0.930 . S
H180 C175 0.930 . S
O181 Cu161 1.959 . S
O181 C168 1.251 . S
H182 C165 0.930 . S
H183 C176 0.929 . S
Cu184 N185 1.999 . S
Cu184 O190 1.974 . S
Cu184 N195 1.985 . S
Cu184 O204 1.959 . S
N185 Cu184 1.999 . S
N185 C187 1.263 . S
N185 C189 1.389 . S
N186 C187 1.358 . S
N186 C188 1.400 . S
C187 N185 1.263 . S
C187 N186 1.358 . S
C187 H193 0.930 . S
C188 N186 1.400 . S
C188 C189 1.351 . S
C188 H205 0.930 . S
C189 N185 1.389 . S
C189 C188 1.351 . S
C189 H194 0.930 . S
O190 Cu184 1.974 . S
O190 C200 1.282 . S
C191 O192 1.261 . S
C191 O204 1.251 . S
O192 C191 1.261 . S
H193 C187 0.930 . S
H194 C189 0.930 . S
N195 Cu184 1.985 . S
N195 C197 1.335 . S
N195 C198 1.390 . S
N196 C197 1.345 . S
N196 C199 1.336 . S
C197 N195 1.335 . S
C197 N196 1.345 . S
C197 H202 0.930 . S
C198 N195 1.390 . S
C198 C199 1.346 . S
C198 H203 0.930 . S
C199 N196 1.336 . S
C199 C198 1.346 . S
C199 H206 0.929 . S
C200 O190 1.282 . S
C200 O201 1.216 . S
O201 C200 1.216 . S
H202 C197 0.930 . S
H203 C198 0.930 . S
O204 Cu184 1.959 . S
O204 C191 1.251 . S
H205 C188 0.930 . S
H206 C199 0.929 . S
Cu207 N208 1.999 . S
Cu207 O213 1.974 . S
Cu207 N218 1.985 . S
Cu207 O227 1.959 . S
N208 Cu207 1.999 . S
N208 C210 1.263 . S
N208 C212 1.389 . S
N209 C210 1.358 . S
N209 C211 1.400 . S
C210 N208 1.263 . S
C210 N209 1.358 . S
C210 H216 0.930 . S
C211 N209 1.400 . S
C211 C212 1.351 . S
C211 H228 0.930 . S
C212 N208 1.389 . S
C212 C211 1.351 . S
C212 H217 0.930 . S
O213 Cu207 1.974 . S
O213 C223 1.282 . S
C214 O215 1.261 . S
C214 O227 1.251 . S
O215 C214 1.261 . S
H216 C210 0.930 . S
H217 C212 0.930 . S
N218 Cu207 1.985 . S
N218 C220 1.335 . S
N218 C221 1.390 . S
N219 C220 1.345 . S
N219 C222 1.336 . S
C220 N218 1.335 . S
C220 N219 1.345 . S
C220 H225 0.930 . S
C221 N218 1.390 . S
C221 C222 1.346 . S
C221 H226 0.930 . S
C222 N219 1.336 . S
C222 C221 1.346 . S
C222 H229 0.929 . S
C223 O213 1.282 . S
C223 O224 1.216 . S
O224 C223 1.216 . S
H225 C220 0.930 . S
H226 C221 0.930 . S
O227 Cu207 1.959 . S
O227 C214 1.251 . S
H228 C211 0.930 . S
H229 C222 0.929 . S
Cu230 N231 1.999 . S
Cu230 O236 1.974 . S
Cu230 N241 1.985 . S
Cu230 O250 1.959 . S
N231 Cu230 1.999 . S
N231 C233 1.263 . S
N231 C235 1.389 . S
N232 C233 1.358 . S
N232 C234 1.400 . S
C233 N231 1.263 . S
C233 N232 1.358 . S
C233 H239 0.930 . S
C234 N232 1.400 . S
C234 C235 1.351 . S
C234 H251 0.930 . S
C235 N231 1.389 . S
C235 C234 1.351 . S
C235 H240 0.930 . S
O236 Cu230 1.974 . S
O236 C246 1.282 . S
C237 O238 1.261 . S
C237 O250 1.251 . S
O238 C237 1.261 . S
H239 C233 0.930 . S
H240 C235 0.930 . S
N241 Cu230 1.985 . S
N241 C243 1.335 . S
N241 C244 1.390 . S
N242 C243 1.345 . S
N242 C245 1.336 . S
C243 N241 1.335 . S
C243 N242 1.345 . S
C243 H248 0.930 . S
C244 N241 1.390 . S
C244 C245 1.346 . S
C244 H249 0.930 . S
C245 N242 1.336 . S
C245 C244 1.346 . S
C245 H252 0.929 . S
C246 O236 1.282 . S
C246 O247 1.216 . S
O247 C246 1.216 . S
H248 C243 0.930 . S
H249 C244 0.930 . S
O250 Cu230 1.959 . S
O250 C237 1.251 . S
H251 C234 0.930 . S
H252 C245 0.929 . S
Cu253 N254 1.999 . S
Cu253 O259 1.974 . S
Cu253 N264 1.985 . S
Cu253 O273 1.959 . S
N254 Cu253 1.999 . S
N254 C256 1.263 . S
N254 C258 1.389 . S
N255 C256 1.358 . S
N255 C257 1.400 . S
C256 N254 1.263 . S
C256 N255 1.358 . S
C256 H262 0.930 . S
C257 N255 1.400 . S
C257 C258 1.351 . S
C257 H274 0.930 . S
C258 N254 1.389 . S
C258 C257 1.351 . S
C258 H263 0.930 . S
O259 Cu253 1.974 . S
O259 C269 1.282 . S
C260 O261 1.261 . S
C260 O273 1.251 . S
O261 C260 1.261 . S
H262 C256 0.930 . S
H263 C258 0.930 . S
N264 Cu253 1.985 . S
N264 C266 1.335 . S
N264 C267 1.390 . S
N265 C266 1.345 . S
N265 C268 1.336 . S
C266 N264 1.335 . S
C266 N265 1.345 . S
C266 H271 0.930 . S
C267 N264 1.390 . S
C267 C268 1.346 . S
C267 H272 0.930 . S
C268 N265 1.336 . S
C268 C267 1.346 . S
C268 H275 0.929 . S
C269 O259 1.282 . S
C269 O270 1.216 . S
O270 C269 1.216 . S
H271 C266 0.930 . S
H272 C267 0.930 . S
O273 Cu253 1.959 . S
O273 C260 1.251 . S
H274 C257 0.930 . S
H275 C268 0.929 . S
Cu276 N277 1.999 . S
Cu276 O282 1.974 . S
Cu276 N287 1.985 . S
Cu276 O296 1.959 . S
N277 Cu276 1.999 . S
N277 C279 1.263 . S
N277 C281 1.389 . S
N278 C279 1.358 . S
N278 C280 1.400 . S
C279 N277 1.263 . S
C279 N278 1.358 . S
C279 H285 0.930 . S
C280 N278 1.400 . S
C280 C281 1.351 . S
C280 H297 0.930 . S
C281 N277 1.389 . S
C281 C280 1.351 . S
C281 H286 0.930 . S
O282 Cu276 1.974 . S
O282 C292 1.282 . S
C283 O284 1.261 . S
C283 O296 1.251 . S
O284 C283 1.261 . S
H285 C279 0.930 . S
H286 C281 0.930 . S
N287 Cu276 1.985 . S
N287 C289 1.335 . S
N287 C290 1.390 . S
N288 C289 1.345 . S
N288 C291 1.336 . S
C289 N287 1.335 . S
C289 N288 1.345 . S
C289 H294 0.930 . S
C290 N287 1.390 . S
C290 C291 1.346 . S
C290 H295 0.930 . S
C291 N288 1.336 . S
C291 C290 1.346 . S
C291 H298 0.929 . S
C292 O282 1.282 . S
C292 O293 1.216 . S
O293 C292 1.216 . S
H294 C289 0.930 . S
H295 C290 0.930 . S
O296 Cu276 1.959 . S
O296 C283 1.251 . S
H297 C280 0.930 . S
H298 C291 0.929 . S
Cu299 N300 1.999 . S
Cu299 O305 1.974 . S
Cu299 N310 1.985 . S
Cu299 O319 1.959 . S
N300 Cu299 1.999 . S
N300 C302 1.263 . S
N300 C304 1.389 . S
N301 C302 1.358 . S
N301 C303 1.400 . S
C302 N300 1.263 . S
C302 N301 1.358 . S
C302 H308 0.930 . S
C303 N301 1.400 . S
C303 C304 1.351 . S
C303 H320 0.930 . S
C304 N300 1.389 . S
C304 C303 1.351 . S
C304 H309 0.930 . S
O305 Cu299 1.974 . S
O305 C315 1.282 . S
C306 O307 1.261 . S
C306 O319 1.251 . S
O307 C306 1.261 . S
H308 C302 0.930 . S
H309 C304 0.930 . S
N310 Cu299 1.985 . S
N310 C312 1.335 . S
N310 C313 1.390 . S
N311 C312 1.345 . S
N311 C314 1.336 . S
C312 N310 1.335 . S
C312 N311 1.345 . S
C312 H317 0.930 . S
C313 N310 1.390 . S
C313 C314 1.346 . S
C313 H318 0.930 . S
C314 N311 1.336 . S
C314 C313 1.346 . S
C314 H321 0.929 . S
C315 O305 1.282 . S
C315 O316 1.216 . S
O316 C315 1.216 . S
H317 C312 0.930 . S
H318 C313 0.930 . S
O319 Cu299 1.959 . S
O319 C306 1.251 . S
H320 C303 0.930 . S
H321 C314 0.929 . S
Cu322 N323 1.999 . S
Cu322 O328 1.974 . S
Cu322 N333 1.985 . S
Cu322 O342 1.959 . S
N323 Cu322 1.999 . S
N323 C325 1.263 . S
N323 C327 1.389 . S
N324 C325 1.358 . S
N324 C326 1.400 . S
C325 N323 1.263 . S
C325 N324 1.358 . S
C325 H331 0.930 . S
C326 N324 1.400 . S
C326 C327 1.351 . S
C326 H343 0.930 . S
C327 N323 1.389 . S
C327 C326 1.351 . S
C327 H332 0.930 . S
O328 Cu322 1.974 . S
O328 C338 1.282 . S
C329 O330 1.261 . S
C329 O342 1.251 . S
O330 C329 1.261 . S
H331 C325 0.930 . S
H332 C327 0.930 . S
N333 Cu322 1.985 . S
N333 C335 1.335 . S
N333 C336 1.390 . S
N334 C335 1.345 . S
N334 C337 1.336 . S
C335 N333 1.335 . S
C335 N334 1.345 . S
C335 H340 0.930 . S
C336 N333 1.390 . S
C336 C337 1.346 . S
C336 H341 0.930 . S
C337 N334 1.336 . S
C337 C336 1.346 . S
C337 H344 0.929 . S
C338 O328 1.282 . S
C338 O339 1.216 . S
O339 C338 1.216 . S
H340 C335 0.930 . S
H341 C336 0.930 . S
O342 Cu322 1.959 . S
O342 C329 1.251 . S
H343 C326 0.930 . S
H344 C337 0.929 . S
Cu345 N346 1.999 . S
Cu345 O351 1.974 . S
Cu345 N356 1.985 . S
Cu345 O365 1.959 . S
N346 Cu345 1.999 . S
N346 C348 1.263 . S
N346 C350 1.389 . S
N347 C348 1.358 . S
N347 C349 1.400 . S
C348 N346 1.263 . S
C348 N347 1.358 . S
C348 H354 0.930 . S
C349 N347 1.400 . S
C349 C350 1.351 . S
C349 H366 0.930 . S
C350 N346 1.389 . S
C350 C349 1.351 . S
C350 H355 0.930 . S
O351 Cu345 1.974 . S
O351 C361 1.282 . S
C352 O353 1.261 . S
C352 O365 1.251 . S
O353 C352 1.261 . S
H354 C348 0.930 . S
H355 C350 0.930 . S
N356 Cu345 1.985 . S
N356 C358 1.335 . S
N356 C359 1.390 . S
N357 C358 1.345 . S
N357 C360 1.336 . S
C358 N356 1.335 . S
C358 N357 1.345 . S
C358 H363 0.930 . S
C359 N356 1.390 . S
C359 C360 1.346 . S
C359 H364 0.930 . S
C360 N357 1.336 . S
C360 C359 1.346 . S
C360 H367 0.929 . S
C361 O351 1.282 . S
C361 O362 1.216 . S
O362 C361 1.216 . S
H363 C358 0.930 . S
H364 C359 0.930 . S
O365 Cu345 1.959 . S
O365 C352 1.251 . S
H366 C349 0.930 . S
H367 C360 0.929 . S
Cu368 N369 1.999 . S
Cu368 O374 1.974 . S
Cu368 N379 1.985 . S
Cu368 O388 1.959 . S
N369 Cu368 1.999 . S
N369 C371 1.263 . S
N369 C373 1.389 . S
N370 C371 1.358 . S
N370 C372 1.400 . S
C371 N369 1.263 . S
C371 N370 1.358 . S
C371 H377 0.930 . S
C372 N370 1.400 . S
C372 C373 1.351 . S
C372 H389 0.930 . S
C373 N369 1.389 . S
C373 C372 1.351 . S
C373 H378 0.930 . S
O374 Cu368 1.974 . S
O374 C384 1.282 . S
C375 O376 1.261 . S
C375 O388 1.251 . S
O376 C375 1.261 . S
H377 C371 0.930 . S
H378 C373 0.930 . S
N379 Cu368 1.985 . S
N379 C381 1.335 . S
N379 C382 1.390 . S
N380 C381 1.345 . S
N380 C383 1.336 . S
C381 N379 1.335 . S
C381 N380 1.345 . S
C381 H386 0.930 . S
C382 N379 1.390 . S
C382 C383 1.346 . S
C382 H387 0.930 . S
C383 N380 1.336 . S
C383 C382 1.346 . S
C383 H390 0.929 . S
C384 O374 1.282 . S
C384 O385 1.216 . S
O385 C384 1.216 . S
H386 C381 0.930 . S
H387 C382 0.930 . S
O388 Cu368 1.959 . S
O388 C375 1.251 . S
H389 C372 0.930 . S
H390 C383 0.929 . S
Cu391 N392 1.999 . S
Cu391 O397 1.974 . S
Cu391 N402 1.985 . S
Cu391 O411 1.959 . S
N392 Cu391 1.999 . S
N392 C394 1.263 . S
N392 C396 1.389 . S
N393 C394 1.358 . S
N393 C395 1.400 . S
C394 N392 1.263 . S
C394 N393 1.358 . S
C394 H400 0.930 . S
C395 N393 1.400 . S
C395 C396 1.351 . S
C395 H412 0.930 . S
C396 N392 1.389 . S
C396 C395 1.351 . S
C396 H401 0.930 . S
O397 Cu391 1.974 . S
O397 C407 1.282 . S
C398 O399 1.261 . S
C398 O411 1.251 . S
O399 C398 1.261 . S
H400 C394 0.930 . S
H401 C396 0.930 . S
N402 Cu391 1.985 . S
N402 C404 1.335 . S
N402 C405 1.390 . S
N403 C404 1.345 . S
N403 C406 1.336 . S
C404 N402 1.335 . S
C404 N403 1.345 . S
C404 H409 0.930 . S
C405 N402 1.390 . S
C405 C406 1.346 . S
C405 H410 0.930 . S
C406 N403 1.336 . S
C406 C405 1.346 . S
C406 H413 0.929 . S
C407 O397 1.282 . S
C407 O408 1.216 . S
O408 C407 1.216 . S
H409 C404 0.930 . S
H410 C405 0.930 . S
O411 Cu391 1.959 . S
O411 C398 1.251 . S
H412 C395 0.930 . S
H413 C406 0.929 . S
Cu414 N415 1.999 . S
Cu414 O420 1.974 . S
Cu414 N425 1.985 . S
Cu414 O434 1.959 . S
N415 Cu414 1.999 . S
N415 C417 1.263 . S
N415 C419 1.389 . S
N416 C417 1.358 . S
N416 C418 1.400 . S
C417 N415 1.263 . S
C417 N416 1.358 . S
C417 H423 0.930 . S
C418 N416 1.400 . S
C418 C419 1.351 . S
C418 H435 0.930 . S
C419 N415 1.389 . S
C419 C418 1.351 . S
C419 H424 0.930 . S
O420 Cu414 1.974 . S
O420 C430 1.282 . S
C421 O422 1.261 . S
C421 O434 1.251 . S
O422 C421 1.261 . S
H423 C417 0.930 . S
H424 C419 0.930 . S
N425 Cu414 1.985 . S
N425 C427 1.335 . S
N425 C428 1.390 . S
N426 C427 1.345 . S
N426 C429 1.336 . S
C427 N425 1.335 . S
C427 N426 1.345 . S
C427 H432 0.930 . S
C428 N425 1.390 . S
C428 C429 1.346 . S
C428 H433 0.930 . S
C429 N426 1.336 . S
C429 C428 1.346 . S
C429 H436 0.929 . S
C430 O420 1.282 . S
C430 O431 1.216 . S
O431 C430 1.216 . S
H432 C427 0.930 . S
H433 C428 0.930 . S
O434 Cu414 1.959 . S
O434 C421 1.251 . S
H435 C418 0.930 . S
H436 C429 0.929 . S
Cu437 N438 1.999 . S
Cu437 O443 1.974 . S
Cu437 N448 1.985 . S
Cu437 O457 1.959 . S
N438 Cu437 1.999 . S
N438 C440 1.263 . S
N438 C442 1.389 . S
N439 C440 1.358 . S
N439 C441 1.400 . S
C440 N438 1.263 . S
C440 N439 1.358 . S
C440 H446 0.930 . S
C441 N439 1.400 . S
C441 C442 1.351 . S
C441 H458 0.930 . S
C442 N438 1.389 . S
C442 C441 1.351 . S
C442 H447 0.930 . S
O443 Cu437 1.974 . S
O443 C453 1.282 . S
C444 O445 1.261 . S
C444 O457 1.251 . S
O445 C444 1.261 . S
H446 C440 0.930 . S
H447 C442 0.930 . S
N448 Cu437 1.985 . S
N448 C450 1.335 . S
N448 C451 1.390 . S
N449 C450 1.345 . S
N449 C452 1.336 . S
C450 N448 1.335 . S
C450 N449 1.345 . S
C450 H455 0.930 . S
C451 N448 1.390 . S
C451 C452 1.346 . S
C451 H456 0.930 . S
C452 N449 1.336 . S
C452 C451 1.346 . S
C452 H459 0.929 . S
C453 O443 1.282 . S
C453 O454 1.216 . S
O454 C453 1.216 . S
H455 C450 0.930 . S
H456 C451 0.930 . S
O457 Cu437 1.959 . S
O457 C444 1.251 . S
H458 C441 0.930 . S
H459 C452 0.929 . S
Cu460 N461 1.999 . S
Cu460 O466 1.974 . S
Cu460 N471 1.985 . S
Cu460 O480 1.959 . S
N461 Cu460 1.999 . S
N461 C463 1.263 . S
N461 C465 1.389 . S
N462 C463 1.358 . S
N462 C464 1.400 . S
C463 N461 1.263 . S
C463 N462 1.358 . S
C463 H469 0.930 . S
C464 N462 1.400 . S
C464 C465 1.351 . S
C464 H481 0.930 . S
C465 N461 1.389 . S
C465 C464 1.351 . S
C465 H470 0.930 . S
O466 Cu460 1.974 . S
O466 C476 1.282 . S
C467 O468 1.261 . S
C467 O480 1.251 . S
O468 C467 1.261 . S
H469 C463 0.930 . S
H470 C465 0.930 . S
N471 Cu460 1.985 . S
N471 C473 1.335 . S
N471 C474 1.390 . S
N472 C473 1.345 . S
N472 C475 1.336 . S
C473 N471 1.335 . S
C473 N472 1.345 . S
C473 H478 0.930 . S
C474 N471 1.390 . S
C474 C475 1.346 . S
C474 H479 0.930 . S
C475 N472 1.336 . S
C475 C474 1.346 . S
C475 H482 0.929 . S
C476 O466 1.282 . S
C476 O477 1.216 . S
O477 C476 1.216 . S
H478 C473 0.930 . S
H479 C474 0.930 . S
O480 Cu460 1.959 . S
O480 C467 1.251 . S
H481 C464 0.930 . S
H482 C475 0.929 . S
Cu483 N484 1.999 . S
Cu483 O489 1.974 . S
Cu483 N494 1.985 . S
Cu483 O503 1.959 . S
N484 Cu483 1.999 . S
N484 C486 1.263 . S
N484 C488 1.389 . S
N485 C486 1.358 . S
N485 C487 1.400 . S
C486 N484 1.263 . S
C486 N485 1.358 . S
C486 H492 0.930 . S
C487 N485 1.400 . S
C487 C488 1.351 . S
C487 H504 0.930 . S
C488 N484 1.389 . S
C488 C487 1.351 . S
C488 H493 0.930 . S
O489 Cu483 1.974 . S
O489 C499 1.282 . S
C490 O491 1.261 . S
C490 O503 1.251 . S
O491 C490 1.261 . S
H492 C486 0.930 . S
H493 C488 0.930 . S
N494 Cu483 1.985 . S
N494 C496 1.335 . S
N494 C497 1.390 . S
N495 C496 1.345 . S
N495 C498 1.336 . S
C496 N494 1.335 . S
C496 N495 1.345 . S
C496 H501 0.930 . S
C497 N494 1.390 . S
C497 C498 1.346 . S
C497 H502 0.930 . S
C498 N495 1.336 . S
C498 C497 1.346 . S
C498 H505 0.929 . S
C499 O489 1.282 . S
C499 O500 1.216 . S
O500 C499 1.216 . S
H501 C496 0.930 . S
H502 C497 0.930 . S
O503 Cu483 1.959 . S
O503 C490 1.251 . S
H504 C487 0.930 . S
H505 C498 0.929 . S
Cu506 N507 1.999 . S
Cu506 O512 1.974 . S
Cu506 N517 1.985 . S
Cu506 O526 1.959 . S
N507 Cu506 1.999 . S
N507 C509 1.263 . S
N507 C511 1.389 . S
N508 C509 1.358 . S
N508 C510 1.400 . S
C509 N507 1.263 . S
C509 N508 1.358 . S
C509 H515 0.930 . S
C510 N508 1.400 . S
C510 C511 1.351 . S
C510 H527 0.930 . S
C511 N507 1.389 . S
C511 C510 1.351 . S
C511 H516 0.930 . S
O512 Cu506 1.974 . S
O512 C522 1.282 . S
C513 O514 1.261 . S
C513 O526 1.251 . S
O514 C513 1.261 . S
H515 C509 0.930 . S
H516 C511 0.930 . S
N517 Cu506 1.985 . S
N517 C519 1.335 . S
N517 C520 1.390 . S
N518 C519 1.345 . S
N518 C521 1.336 . S
C519 N517 1.335 . S
C519 N518 1.345 . S
C519 H524 0.930 . S
C520 N517 1.390 . S
C520 C521 1.346 . S
C520 H525 0.930 . S
C521 N518 1.336 . S
C521 C520 1.346 . S
C521 H528 0.929 . S
C522 O512 1.282 . S
C522 O523 1.216 . S
O523 C522 1.216 . S
H524 C519 0.930 . S
H525 C520 0.930 . S
O526 Cu506 1.959 . S
O526 C513 1.251 . S
H527 C510 0.930 . S
H528 C521 0.929 . S
Cu529 N530 1.999 . S
Cu529 O535 1.974 . S
Cu529 N540 1.985 . S
Cu529 O549 1.959 . S
N530 Cu529 1.999 . S
N530 C532 1.263 . S
N530 C534 1.389 . S
N531 C532 1.358 . S
N531 C533 1.400 . S
C532 N530 1.263 . S
C532 N531 1.358 . S
C532 H538 0.930 . S
C533 N531 1.400 . S
C533 C534 1.351 . S
C533 H550 0.930 . S
C534 N530 1.389 . S
C534 C533 1.351 . S
C534 H539 0.930 . S
O535 Cu529 1.974 . S
O535 C545 1.282 . S
C536 O537 1.261 . S
C536 O549 1.251 . S
O537 C536 1.261 . S
H538 C532 0.930 . S
H539 C534 0.930 . S
N540 Cu529 1.985 . S
N540 C542 1.335 . S
N540 C543 1.390 . S
N541 C542 1.345 . S
N541 C544 1.336 . S
C542 N540 1.335 . S
C542 N541 1.345 . S
C542 H547 0.930 . S
C543 N540 1.390 . S
C543 C544 1.346 . S
C543 H548 0.930 . S
C544 N541 1.336 . S
C544 C543 1.346 . S
C544 H551 0.929 . S
C545 O535 1.282 . S
C545 O546 1.216 . S
O546 C545 1.216 . S
H547 C542 0.930 . S
H548 C543 0.930 . S
O549 Cu529 1.959 . S
O549 C536 1.251 . S
H550 C533 0.930 . S
H551 C544 0.929 . S
C552 C553 1.391 . S
C552 C554 1.394 . S
C552 H568 0.931 . S
C553 C552 1.391 . S
C553 C557 1.376 . S
C554 C552 1.394 . S
C554 C555 1.369 . S
C554 C558 1.531 . S
C555 C554 1.369 . S
C555 C556 1.410 . S
C555 C563 1.503 . S
C556 C555 1.410 . S
C556 C557 1.392 . S
C556 C559 1.511 . S
C557 C553 1.376 . S
C557 C556 1.392 . S
C557 H569 0.929 . S
C558 C554 1.531 . S
C558 H570 0.960 . S
C558 H571 0.962 . S
C558 H572 0.960 . S
C559 C556 1.511 . S
C559 H573 0.961 . S
C559 H574 0.961 . S
C559 H575 0.961 . S
C560 C561 1.370 . S
C560 C562 1.363 . S
C560 H576 0.931 . S
C561 C560 1.370 . S
C561 C565 1.408 . S
C562 C560 1.363 . S
C562 C563 1.370 . S
C562 C566 1.524 . S
C563 C555 1.503 . S
C563 C562 1.370 . S
C563 C564 1.403 . S
C564 C563 1.403 . S
C564 C565 1.404 . S
C564 C567 1.539 . S
C565 C561 1.408 . S
C565 C564 1.404 . S
C565 H577 0.930 . S
C566 C562 1.524 . S
C566 H578 0.956 . S
C566 H579 0.961 . S
C566 H580 0.961 . S
C567 C564 1.539 . S
C567 H581 0.958 . S
C567 H582 0.961 . S
C567 H583 0.960 . S
H568 C552 0.931 . S
H569 C557 0.929 . S
H570 C558 0.960 . S
H571 C558 0.962 . S
H572 C558 0.960 . S
H573 C559 0.961 . S
H574 C559 0.961 . S
H575 C559 0.961 . S
H576 C560 0.931 . S
H577 C565 0.930 . S
H578 C566 0.956 . S
H579 C566 0.961 . S
H580 C566 0.961 . S
H581 C567 0.958 . S
H582 C567 0.961 . S
H583 C567 0.960 . S
C584 C585 1.391 . S
C584 C586 1.394 . S
C584 H600 0.931 . S
C585 C584 1.391 . S
C585 C589 1.376 . S
C586 C584 1.394 . S
C586 C587 1.369 . S
C586 C590 1.531 . S
C587 C586 1.369 . S
C587 C588 1.410 . S
C587 C595 1.503 . S
C588 C587 1.410 . S
C588 C589 1.392 . S
C588 C591 1.511 . S
C589 C585 1.376 . S
C589 C588 1.392 . S
C589 H601 0.929 . S
C590 C586 1.531 . S
C590 H602 0.960 . S
C590 H603 0.962 . S
C590 H604 0.960 . S
C591 C588 1.511 . S
C591 H605 0.961 . S
C591 H606 0.961 . S
C591 H607 0.961 . S
C592 C593 1.370 . S
C592 C594 1.363 . S
C592 H608 0.931 . S
C593 C592 1.370 . S
C593 C597 1.408 . S
C594 C592 1.363 . S
C594 C595 1.370 . S
C594 C598 1.524 . S
C595 C587 1.503 . S
C595 C594 1.370 . S
C595 C596 1.403 . S
C596 C595 1.403 . S
C596 C597 1.404 . S
C596 C599 1.539 . S
C597 C593 1.408 . S
C597 C596 1.404 . S
C597 H609 0.930 . S
C598 C594 1.524 . S
C598 H610 0.956 . S
C598 H611 0.961 . S
C598 H612 0.961 . S
C599 C596 1.539 . S
C599 H613 0.958 . S
C599 H614 0.961 . S
C599 H615 0.960 . S
H600 C584 0.931 . S
H601 C589 0.929 . S
H602 C590 0.960 . S
H603 C590 0.962 . S
H604 C590 0.960 . S
H605 C591 0.961 . S
H606 C591 0.961 . S
H607 C591 0.961 . S
H608 C592 0.931 . S
H609 C597 0.930 . S
H610 C598 0.956 . S
H611 C598 0.961 . S
H612 C598 0.961 . S
H613 C599 0.958 . S
H614 C599 0.961 . S
H615 C599 0.960 . S
C616 C617 1.391 . S
C616 C618 1.394 . S
C616 H632 0.931 . S
C617 C616 1.391 . S
C617 C621 1.376 . S
C618 C616 1.394 . S
C618 C619 1.369 . S
C618 C622 1.531 . S
C619 C618 1.369 . S
C619 C620 1.410 . S
C619 C627 1.503 . S
C620 C619 1.410 . S
C620 C621 1.392 . S
C620 C623 1.511 . S
C621 C617 1.376 . S
C621 C620 1.392 . S
C621 H633 0.929 . S
C622 C618 1.531 . S
C622 H634 0.960 . S
C622 H635 0.962 . S
C622 H636 0.960 . S
C623 C620 1.511 . S
C623 H637 0.961 . S
C623 H638 0.961 . S
C623 H639 0.961 . S
C624 C625 1.370 . S
C624 C626 1.363 . S
C624 H640 0.931 . S
C625 C624 1.370 . S
C625 C629 1.408 . S
C626 C624 1.363 . S
C626 C627 1.370 . S
C626 C630 1.524 . S
C627 C619 1.503 . S
C627 C626 1.370 . S
C627 C628 1.403 . S
C628 C627 1.403 . S
C628 C629 1.404 . S
C628 C631 1.539 . S
C629 C625 1.408 . S
C629 C628 1.404 . S
C629 H641 0.930 . S
C630 C626 1.524 . S
C630 H642 0.956 . S
C630 H643 0.961 . S
C630 H644 0.961 . S
C631 C628 1.539 . S
C631 H645 0.958 . S
C631 H646 0.961 . S
C631 H647 0.960 . S
H632 C616 0.931 . S
H633 C621 0.929 . S
H634 C622 0.960 . S
H635 C622 0.962 . S
H636 C622 0.960 . S
H637 C623 0.961 . S
H638 C623 0.961 . S
H639 C623 0.961 . S
H640 C624 0.931 . S
H641 C629 0.930 . S
H642 C630 0.956 . S
H643 C630 0.961 . S
H644 C630 0.961 . S
H645 C631 0.958 . S
H646 C631 0.961 . S
H647 C631 0.960 . S
C648 C649 1.391 . S
C648 C650 1.394 . S
C648 H664 0.931 . S
C649 C648 1.391 . S
C649 C653 1.376 . S
C650 C648 1.394 . S
C650 C651 1.369 . S
C650 C654 1.531 . S
C651 C650 1.369 . S
C651 C652 1.410 . S
C651 C659 1.503 . S
C652 C651 1.410 . S
C652 C653 1.392 . S
C652 C655 1.511 . S
C653 C649 1.376 . S
C653 C652 1.392 . S
C653 H665 0.929 . S
C654 C650 1.531 . S
C654 H666 0.960 . S
C654 H667 0.962 . S
C654 H668 0.960 . S
C655 C652 1.511 . S
C655 H669 0.961 . S
C655 H670 0.961 . S
C655 H671 0.961 . S
C656 C657 1.370 . S
C656 C658 1.363 . S
C656 H672 0.931 . S
C657 C656 1.370 . S
C657 C661 1.408 . S
C658 C656 1.363 . S
C658 C659 1.370 . S
C658 C662 1.524 . S
C659 C651 1.503 . S
C659 C658 1.370 . S
C659 C660 1.403 . S
C660 C659 1.403 . S
C660 C661 1.404 . S
C660 C663 1.539 . S
C661 C657 1.408 . S
C661 C660 1.404 . S
C661 H673 0.930 . S
C662 C658 1.524 . S
C662 H674 0.956 . S
C662 H675 0.961 . S
C662 H676 0.961 . S
C663 C660 1.539 . S
C663 H677 0.958 . S
C663 H678 0.961 . S
C663 H679 0.960 . S
H664 C648 0.931 . S
H665 C653 0.929 . S
H666 C654 0.960 . S
H667 C654 0.962 . S
H668 C654 0.960 . S
H669 C655 0.961 . S
H670 C655 0.961 . S
H671 C655 0.961 . S
H672 C656 0.931 . S
H673 C661 0.930 . S
H674 C662 0.956 . S
H675 C662 0.961 . S
H676 C662 0.961 . S
H677 C663 0.958 . S
H678 C663 0.961 . S
H679 C663 0.960 . S
C680 C681 1.391 . S
C680 C682 1.394 . S
C680 H696 0.931 . S
C681 C680 1.391 . S
C681 C685 1.376 . S
C682 C680 1.394 . S
C682 C683 1.369 . S
C682 C686 1.531 . S
C683 C682 1.369 . S
C683 C684 1.410 . S
C683 C691 1.503 . S
C684 C683 1.410 . S
C684 C685 1.392 . S
C684 C687 1.511 . S
C685 C681 1.376 . S
C685 C684 1.392 . S
C685 H697 0.929 . S
C686 C682 1.531 . S
C686 H698 0.960 . S
C686 H699 0.962 . S
C686 H700 0.960 . S
C687 C684 1.511 . S
C687 H701 0.961 . S
C687 H702 0.961 . S
C687 H703 0.961 . S
C688 C689 1.370 . S
C688 C690 1.363 . S
C688 H704 0.931 . S
C689 C688 1.370 . S
C689 C693 1.408 . S
C690 C688 1.363 . S
C690 C691 1.370 . S
C690 C694 1.524 . S
C691 C683 1.503 . S
C691 C690 1.370 . S
C691 C692 1.403 . S
C692 C691 1.403 . S
C692 C693 1.404 . S
C692 C695 1.539 . S
C693 C689 1.408 . S
C693 C692 1.404 . S
C693 H705 0.930 . S
C694 C690 1.524 . S
C694 H706 0.956 . S
C694 H707 0.961 . S
C694 H708 0.961 . S
C695 C692 1.539 . S
C695 H709 0.958 . S
C695 H710 0.961 . S
C695 H711 0.960 . S
H696 C680 0.931 . S
H697 C685 0.929 . S
H698 C686 0.960 . S
H699 C686 0.962 . S
H700 C686 0.960 . S
H701 C687 0.961 . S
H702 C687 0.961 . S
H703 C687 0.961 . S
H704 C688 0.931 . S
H705 C693 0.930 . S
H706 C694 0.956 . S
H707 C694 0.961 . S
H708 C694 0.961 . S
H709 C695 0.958 . S
H710 C695 0.961 . S
H711 C695 0.960 . S
C712 C713 1.391 . S
C712 C714 1.394 . S
C712 H728 0.931 . S
C713 C712 1.391 . S
C713 C717 1.376 . S
C714 C712 1.394 . S
C714 C715 1.369 . S
C714 C718 1.531 . S
C715 C714 1.369 . S
C715 C716 1.410 . S
C715 C723 1.503 . S
C716 C715 1.410 . S
C716 C717 1.392 . S
C716 C719 1.511 . S
C717 C713 1.376 . S
C717 C716 1.392 . S
C717 H729 0.929 . S
C718 C714 1.531 . S
C718 H730 0.960 . S
C718 H731 0.962 . S
C718 H732 0.960 . S
C719 C716 1.511 . S
C719 H733 0.961 . S
C719 H734 0.961 . S
C719 H735 0.961 . S
C720 C721 1.370 . S
C720 C722 1.363 . S
C720 H736 0.931 . S
C721 C720 1.370 . S
C721 C725 1.408 . S
C722 C720 1.363 . S
C722 C723 1.370 . S
C722 C726 1.524 . S
C723 C715 1.503 . S
C723 C722 1.370 . S
C723 C724 1.403 . S
C724 C723 1.403 . S
C724 C725 1.404 . S
C724 C727 1.539 . S
C725 C721 1.408 . S
C725 C724 1.404 . S
C725 H737 0.930 . S
C726 C722 1.524 . S
C726 H738 0.956 . S
C726 H739 0.961 . S
C726 H740 0.961 . S
C727 C724 1.539 . S
C727 H741 0.958 . S
C727 H742 0.961 . S
C727 H743 0.960 . S
H728 C712 0.931 . S
H729 C717 0.929 . S
H730 C718 0.960 . S
H731 C718 0.962 . S
H732 C718 0.960 . S
H733 C719 0.961 . S
H734 C719 0.961 . S
H735 C719 0.961 . S
H736 C720 0.931 . S
H737 C725 0.930 . S
H738 C726 0.956 . S
H739 C726 0.961 . S
H740 C726 0.961 . S
H741 C727 0.958 . S
H742 C727 0.961 . S
H743 C727 0.960 . S
C744 C745 1.391 . S
C744 C746 1.394 . S
C744 H760 0.931 . S
C745 C744 1.391 . S
C745 C749 1.376 . S
C746 C744 1.394 . S
C746 C747 1.369 . S
C746 C750 1.531 . S
C747 C746 1.369 . S
C747 C748 1.410 . S
C747 C755 1.503 . S
C748 C747 1.410 . S
C748 C749 1.392 . S
C748 C751 1.511 . S
C749 C745 1.376 . S
C749 C748 1.392 . S
C749 H761 0.929 . S
C750 C746 1.531 . S
C750 H762 0.960 . S
C750 H763 0.962 . S
C750 H764 0.960 . S
C751 C748 1.511 . S
C751 H765 0.961 . S
C751 H766 0.961 . S
C751 H767 0.961 . S
C752 C753 1.370 . S
C752 C754 1.363 . S
C752 H768 0.931 . S
C753 C752 1.370 . S
C753 C757 1.408 . S
C754 C752 1.363 . S
C754 C755 1.370 . S
C754 C758 1.524 . S
C755 C747 1.503 . S
C755 C754 1.370 . S
C755 C756 1.403 . S
C756 C755 1.403 . S
C756 C757 1.404 . S
C756 C759 1.539 . S
C757 C753 1.408 . S
C757 C756 1.404 . S
C757 H769 0.930 . S
C758 C754 1.524 . S
C758 H770 0.956 . S
C758 H771 0.961 . S
C758 H772 0.961 . S
C759 C756 1.539 . S
C759 H773 0.958 . S
C759 H774 0.961 . S
C759 H775 0.960 . S
H760 C744 0.931 . S
H761 C749 0.929 . S
H762 C750 0.960 . S
H763 C750 0.962 . S
H764 C750 0.960 . S
H765 C751 0.961 . S
H766 C751 0.961 . S
H767 C751 0.961 . S
H768 C752 0.931 . S
H769 C757 0.930 . S
H770 C758 0.956 . S
H771 C758 0.961 . S
H772 C758 0.961 . S
H773 C759 0.958 . S
H774 C759 0.961 . S
H775 C759 0.960 . S
C776 C777 1.391 . S
C776 C778 1.394 . S
C776 H792 0.931 . S
C777 C776 1.391 . S
C777 C781 1.376 . S
C778 C776 1.394 . S
C778 C779 1.369 . S
C778 C782 1.531 . S
C779 C778 1.369 . S
C779 C780 1.410 . S
C779 C787 1.503 . S
C780 C779 1.410 . S
C780 C781 1.392 . S
C780 C783 1.511 . S
C781 C777 1.376 . S
C781 C780 1.392 . S
C781 H793 0.929 . S
C782 C778 1.531 . S
C782 H794 0.960 . S
C782 H795 0.962 . S
C782 H796 0.960 . S
C783 C780 1.511 . S
C783 H797 0.961 . S
C783 H798 0.961 . S
C783 H799 0.961 . S
C784 C785 1.370 . S
C784 C786 1.363 . S
C784 H800 0.931 . S
C785 C784 1.370 . S
C785 C789 1.408 . S
C786 C784 1.363 . S
C786 C787 1.370 . S
C786 C790 1.524 . S
C787 C779 1.503 . S
C787 C786 1.370 . S
C787 C788 1.403 . S
C788 C787 1.403 . S
C788 C789 1.404 . S
C788 C791 1.539 . S
C789 C785 1.408 . S
C789 C788 1.404 . S
C789 H801 0.930 . S
C790 C786 1.524 . S
C790 H802 0.956 . S
C790 H803 0.961 . S
C790 H804 0.961 . S
C791 C788 1.539 . S
C791 H805 0.958 . S
C791 H806 0.961 . S
C791 H807 0.960 . S
H792 C776 0.931 . S
H793 C781 0.929 . S
H794 C782 0.960 . S
H795 C782 0.962 . S
H796 C782 0.960 . S
H797 C783 0.961 . S
H798 C783 0.961 . S
H799 C783 0.961 . S
H800 C784 0.931 . S
H801 C789 0.930 . S
H802 C790 0.956 . S
H803 C790 0.961 . S
H804 C790 0.961 . S
H805 C791 0.958 . S
H806 C791 0.961 . S
H807 C791 0.960 . S
C808 C809 1.391 . S
C808 C810 1.394 . S
C808 H824 0.931 . S
C809 C808 1.391 . S
C809 C813 1.376 . S
C810 C808 1.394 . S
C810 C811 1.369 . S
C810 C814 1.531 . S
C811 C810 1.369 . S
C811 C812 1.410 . S
C811 C819 1.503 . S
C812 C811 1.410 . S
C812 C813 1.392 . S
C812 C815 1.511 . S
C813 C809 1.376 . S
C813 C812 1.392 . S
C813 H825 0.929 . S
C814 C810 1.531 . S
C814 H826 0.960 . S
C814 H827 0.962 . S
C814 H828 0.960 . S
C815 C812 1.511 . S
C815 H829 0.961 . S
C815 H830 0.961 . S
C815 H831 0.961 . S
C816 C817 1.370 . S
C816 C818 1.363 . S
C816 H832 0.931 . S
C817 C816 1.370 . S
C817 C821 1.408 . S
C818 C816 1.363 . S
C818 C819 1.370 . S
C818 C822 1.524 . S
C819 C811 1.503 . S
C819 C818 1.370 . S
C819 C820 1.403 . S
C820 C819 1.403 . S
C820 C821 1.404 . S
C820 C823 1.539 . S
C821 C817 1.408 . S
C821 C820 1.404 . S
C821 H833 0.930 . S
C822 C818 1.524 . S
C822 H834 0.956 . S
C822 H835 0.961 . S
C822 H836 0.961 . S
C823 C820 1.539 . S
C823 H837 0.958 . S
C823 H838 0.961 . S
C823 H839 0.960 . S
H824 C808 0.931 . S
H825 C813 0.929 . S
H826 C814 0.960 . S
H827 C814 0.962 . S
H828 C814 0.960 . S
H829 C815 0.961 . S
H830 C815 0.961 . S
H831 C815 0.961 . S
H832 C816 0.931 . S
H833 C821 0.930 . S
H834 C822 0.956 . S
H835 C822 0.961 . S
H836 C822 0.961 . S
H837 C823 0.958 . S
H838 C823 0.961 . S
H839 C823 0.960 . S
C840 C841 1.391 . S
C840 C842 1.394 . S
C840 H856 0.931 . S
C841 C840 1.391 . S
C841 C845 1.376 . S
C842 C840 1.394 . S
C842 C843 1.369 . S
C842 C846 1.531 . S
C843 C842 1.369 . S
C843 C844 1.410 . S
C843 C851 1.503 . S
C844 C843 1.410 . S
C844 C845 1.392 . S
C844 C847 1.511 . S
C845 C841 1.376 . S
C845 C844 1.392 . S
C845 H857 0.929 . S
C846 C842 1.531 . S
C846 H858 0.960 . S
C846 H859 0.962 . S
C846 H860 0.960 . S
C847 C844 1.511 . S
C847 H861 0.961 . S
C847 H862 0.961 . S
C847 H863 0.961 . S
C848 C849 1.370 . S
C848 C850 1.363 . S
C848 H864 0.931 . S
C849 C848 1.370 . S
C849 C853 1.408 . S
C850 C848 1.363 . S
C850 C851 1.370 . S
C850 C854 1.524 . S
C851 C843 1.503 . S
C851 C850 1.370 . S
C851 C852 1.403 . S
C852 C851 1.403 . S
C852 C853 1.404 . S
C852 C855 1.539 . S
C853 C849 1.408 . S
C853 C852 1.404 . S
C853 H865 0.930 . S
C854 C850 1.524 . S
C854 H866 0.956 . S
C854 H867 0.961 . S
C854 H868 0.961 . S
C855 C852 1.539 . S
C855 H869 0.958 . S
C855 H870 0.961 . S
C855 H871 0.960 . S
H856 C840 0.931 . S
H857 C845 0.929 . S
H858 C846 0.960 . S
H859 C846 0.962 . S
H860 C846 0.960 . S
H861 C847 0.961 . S
H862 C847 0.961 . S
H863 C847 0.961 . S
H864 C848 0.931 . S
H865 C853 0.930 . S
H866 C854 0.956 . S
H867 C854 0.961 . S
H868 C854 0.961 . S
H869 C855 0.958 . S
H870 C855 0.961 . S
H871 C855 0.960 . S
C872 C873 1.391 . S
C872 C874 1.394 . S
C872 H888 0.931 . S
C873 C872 1.391 . S
C873 C877 1.376 . S
C874 C872 1.394 . S
C874 C875 1.369 . S
C874 C878 1.531 . S
C875 C874 1.369 . S
C875 C876 1.410 . S
C875 C883 1.503 . S
C876 C875 1.410 . S
C876 C877 1.392 . S
C876 C879 1.511 . S
C877 C873 1.376 . S
C877 C876 1.392 . S
C877 H889 0.929 . S
C878 C874 1.531 . S
C878 H890 0.960 . S
C878 H891 0.962 . S
C878 H892 0.960 . S
C879 C876 1.511 . S
C879 H893 0.961 . S
C879 H894 0.961 . S
C879 H895 0.961 . S
C880 C881 1.370 . S
C880 C882 1.363 . S
C880 H896 0.931 . S
C881 C880 1.370 . S
C881 C885 1.408 . S
C882 C880 1.363 . S
C882 C883 1.370 . S
C882 C886 1.524 . S
C883 C875 1.503 . S
C883 C882 1.370 . S
C883 C884 1.403 . S
C884 C883 1.403 . S
C884 C885 1.404 . S
C884 C887 1.539 . S
C885 C881 1.408 . S
C885 C884 1.404 . S
C885 H897 0.930 . S
C886 C882 1.524 . S
C886 H898 0.956 . S
C886 H899 0.961 . S
C886 H900 0.961 . S
C887 C884 1.539 . S
C887 H901 0.958 . S
C887 H902 0.961 . S
C887 H903 0.960 . S
H888 C872 0.931 . S
H889 C877 0.929 . S
H890 C878 0.960 . S
H891 C878 0.962 . S
H892 C878 0.960 . S
H893 C879 0.961 . S
H894 C879 0.961 . S
H895 C879 0.961 . S
H896 C880 0.931 . S
H897 C885 0.930 . S
H898 C886 0.956 . S
H899 C886 0.961 . S
H900 C886 0.961 . S
H901 C887 0.958 . S
H902 C887 0.961 . S
H903 C887 0.960 . S
C904 C905 1.391 . S
C904 C906 1.394 . S
C904 H920 0.931 . S
C905 C904 1.391 . S
C905 C909 1.376 . S
C906 C904 1.394 . S
C906 C907 1.369 . S
C906 C910 1.531 . S
C907 C906 1.369 . S
C907 C908 1.410 . S
C907 C915 1.503 . S
C908 C907 1.410 . S
C908 C909 1.392 . S
C908 C911 1.511 . S
C909 C905 1.376 . S
C909 C908 1.392 . S
C909 H921 0.929 . S
C910 C906 1.531 . S
C910 H922 0.960 . S
C910 H923 0.962 . S
C910 H924 0.960 . S
C911 C908 1.511 . S
C911 H925 0.961 . S
C911 H926 0.961 . S
C911 H927 0.961 . S
C912 C913 1.370 . S
C912 C914 1.363 . S
C912 H928 0.931 . S
C913 C912 1.370 . S
C913 C917 1.408 . S
C914 C912 1.363 . S
C914 C915 1.370 . S
C914 C918 1.524 . S
C915 C907 1.503 . S
C915 C914 1.370 . S
C915 C916 1.403 . S
C916 C915 1.403 . S
C916 C917 1.404 . S
C916 C919 1.539 . S
C917 C913 1.408 . S
C917 C916 1.404 . S
C917 H929 0.930 . S
C918 C914 1.524 . S
C918 H930 0.956 . S
C918 H931 0.961 . S
C918 H932 0.961 . S
C919 C916 1.539 . S
C919 H933 0.958 . S
C919 H934 0.961 . S
C919 H935 0.960 . S
H920 C904 0.931 . S
H921 C909 0.929 . S
H922 C910 0.960 . S
H923 C910 0.962 . S
H924 C910 0.960 . S
H925 C911 0.961 . S
H926 C911 0.961 . S
H927 C911 0.961 . S
H928 C912 0.931 . S
H929 C917 0.930 . S
H930 C918 0.956 . S
H931 C918 0.961 . S
H932 C918 0.961 . S
H933 C919 0.958 . S
H934 C919 0.961 . S
H935 C919 0.960 . S
C936 C937 1.391 . S
C936 C938 1.394 1_565 S
C936 H952 0.931 . S
C937 C936 1.391 . S
C937 C941 1.376 1_565 S
C938 C936 1.394 1_545 S
C938 C939 1.369 . S
C938 C942 1.531 . S
C939 C938 1.369 . S
C939 C940 1.410 . S
C939 C947 1.503 . S
C940 C939 1.410 . S
C940 C941 1.392 . S
C940 C943 1.511 . S
C941 C937 1.376 1_545 S
C941 C940 1.392 . S
C941 H953 0.929 . S
C942 C938 1.531 . S
C942 H954 0.960 . S
C942 H955 0.962 . S
C942 H956 0.960 1_545 S
C943 C940 1.511 . S
C943 H957 0.961 . S
C943 H958 0.961 . S
C943 H959 0.961 . S
C944 C945 1.370 . S
C944 C946 1.363 . S
C944 H960 0.931 . S
C945 C944 1.370 . S
C945 C949 1.408 . S
C946 C944 1.363 . S
C946 C947 1.370 . S
C946 C950 1.524 . S
C947 C939 1.503 . S
C947 C946 1.370 . S
C947 C948 1.403 . S
C948 C947 1.403 . S
C948 C949 1.404 . S
C948 C951 1.539 . S
C949 C945 1.408 . S
C949 C948 1.404 . S
C949 H961 0.930 . S
C950 C946 1.524 . S
C950 H962 0.956 . S
C950 H963 0.961 . S
C950 H964 0.961 . S
C951 C948 1.539 . S
C951 H965 0.958 1_545 S
C951 H966 0.961 . S
C951 H967 0.960 . S
H952 C936 0.931 . S
H953 C941 0.929 . S
H954 C942 0.960 . S
H955 C942 0.962 . S
H956 C942 0.960 1_565 S
H957 C943 0.961 . S
H958 C943 0.961 . S
H959 C943 0.961 . S
H960 C944 0.931 . S
H961 C949 0.930 . S
H962 C950 0.956 . S
H963 C950 0.961 . S
H964 C950 0.961 . S
H965 C951 0.958 1_565 S
H966 C951 0.961 . S
H967 C951 0.960 . S
C968 C969 1.391 . S
C968 C970 1.394 1_655 S
C968 H984 0.931 . S
C969 C968 1.391 . S
C969 C973 1.376 1_655 S
C970 C968 1.394 1_455 S
C970 C971 1.369 . S
C970 C974 1.531 . S
C971 C970 1.369 . S
C971 C972 1.410 . S
C971 C979 1.503 . S
C972 C971 1.410 . S
C972 C973 1.392 . S
C972 C975 1.511 . S
C973 C969 1.376 1_455 S
C973 C972 1.392 . S
C973 H985 0.929 . S
C974 C970 1.531 . S
C974 H986 0.963 . S
C974 H987 0.961 1_455 S
C974 H988 0.959 1_455 S
C975 C972 1.511 . S
C975 H989 0.961 . S
C975 H990 0.961 . S
C975 H991 0.961 . S
C976 C977 1.370 . S
C976 C978 1.363 . S
C976 H992 0.931 . S
C977 C976 1.370 . S
C977 C981 1.408 . S
C978 C976 1.363 . S
C978 C979 1.370 . S
C978 C982 1.524 . S
C979 C971 1.503 . S
C979 C978 1.370 . S
C979 C980 1.403 . S
C980 C979 1.403 . S
C980 C981 1.404 . S
C980 C983 1.539 . S
C981 C977 1.408 . S
C981 C980 1.404 . S
C981 H993 0.930 . S
C982 C978 1.524 . S
C982 H994 0.956 . S
C982 H995 0.961 . S
C982 H996 0.961 . S
C983 C980 1.539 . S
C983 H997 0.958 . S
C983 H998 0.961 . S
C983 H999 0.960 . S
H984 C968 0.931 . S
H985 C973 0.929 . S
H986 C974 0.963 . S
H987 C974 0.961 1_655 S
H988 C974 0.959 1_655 S
H989 C975 0.961 . S
H990 C975 0.961 . S
H991 C975 0.961 . S
H992 C976 0.931 . S
H993 C981 0.930 . S
H994 C982 0.956 . S
H995 C982 0.961 . S
H996 C982 0.961 . S
H997 C983 0.958 . S
H998 C983 0.961 . S
H999 C983 0.960 . S
C1000 C1001 1.391 1_565 S
C1000 C1002 1.394 . S
C1000 H1016 0.931 . S
C1001 C1000 1.391 1_545 S
C1001 C1005 1.376 . S
C1002 C1000 1.394 . S
C1002 C1003 1.369 . S
C1002 C1006 1.531 . S
C1003 C1002 1.369 . S
C1003 C1004 1.410 1_565 S
C1003 C1011 1.503 . S
C1004 C1003 1.410 1_545 S
C1004 C1005 1.392 . S
C1004 C1007 1.511 . S
C1005 C1001 1.376 . S
C1005 C1004 1.392 . S
C1005 H1017 0.929 . S
C1006 C1002 1.531 . S
C1006 H1018 0.960 . S
C1006 H1019 0.962 . S
C1006 H1020 0.960 . S
C1007 C1004 1.511 . S
C1007 H1021 0.961 . S
C1007 H1022 0.961 . S
C1007 H1023 0.961 . S
C1008 C1009 1.370 . S
C1008 C1010 1.363 . S
C1008 H1024 0.931 . S
C1009 C1008 1.370 . S
C1009 C1013 1.408 . S
C1010 C1008 1.363 . S
C1010 C1011 1.370 . S
C1010 C1014 1.524 . S
C1011 C1003 1.503 . S
C1011 C1010 1.370 . S
C1011 C1012 1.403 . S
C1012 C1011 1.403 . S
C1012 C1013 1.404 . S
C1012 C1015 1.539 . S
C1013 C1009 1.408 . S
C1013 C1012 1.404 . S
C1013 H1025 0.930 . S
C1014 C1010 1.524 . S
C1014 H1026 0.956 . S
C1014 H1027 0.961 1_565 S
C1014 H1028 0.961 . S
C1015 C1012 1.539 . S
C1015 H1029 0.958 . S
C1015 H1030 0.961 . S
C1015 H1031 0.960 . S
H1016 C1000 0.931 . S
H1017 C1005 0.929 . S
H1018 C1006 0.960 . S
H1019 C1006 0.962 . S
H1020 C1006 0.960 . S
H1021 C1007 0.961 . S
H1022 C1007 0.961 . S
H1023 C1007 0.961 . S
H1024 C1008 0.931 . S
H1025 C1013 0.930 . S
H1026 C1014 0.956 . S
H1027 C1014 0.961 1_545 S
H1028 C1014 0.961 . S
H1029 C1015 0.958 . S
H1030 C1015 0.961 . S
H1031 C1015 0.960 . S
C1032 C1033 1.391 1_655 S
C1032 C1034 1.394 . S
C1032 H1048 0.931 1_655 S
C1033 C1032 1.391 1_455 S
C1033 C1037 1.376 . S
C1034 C1032 1.394 . S
C1034 C1035 1.369 . S
C1034 C1038 1.531 . S
C1035 C1034 1.369 . S
C1035 C1036 1.410 . S
C1035 C1043 1.503 . S
C1036 C1035 1.410 . S
C1036 C1037 1.392 1_655 S
C1036 C1039 1.511 . S
C1037 C1033 1.376 . S
C1037 C1036 1.392 1_455 S
C1037 H1049 0.929 . S
C1038 C1034 1.531 . S
C1038 H1050 0.960 . S
C1038 H1051 0.962 . S
C1038 H1052 0.960 . S
C1039 C1036 1.511 . S
C1039 H1053 0.961 1_655 S
C1039 H1054 0.961 . S
C1039 H1055 0.961 . S
C1040 C1041 1.370 . S
C1040 C1042 1.363 . S
C1040 H1056 0.931 . S
C1041 C1040 1.370 . S
C1041 C1045 1.408 . S
C1042 C1040 1.363 . S
C1042 C1043 1.370 . S
C1042 C1046 1.563 . S
C1043 C1035 1.503 . S
C1043 C1042 1.370 . S
C1043 C1044 1.403 . S
C1044 C1043 1.403 . S
C1044 C1045 1.404 . S
C1044 C1047 1.539 . S
C1045 C1041 1.408 . S
C1045 C1044 1.404 . S
C1045 H1057 0.930 . S
C1046 C1042 1.563 . S
C1046 H1058 0.948 1_655 S
C1046 H1059 0.938 1_655 S
C1046 H1060 0.954 1_655 S
C1047 C1044 1.539 . S
C1047 H1061 0.958 . S
C1047 H1062 0.961 . S
C1047 H1063 0.960 . S
H1048 C1032 0.931 1_455 S
H1049 C1037 0.929 . S
H1050 C1038 0.960 . S
H1051 C1038 0.962 . S
H1052 C1038 0.960 . S
H1053 C1039 0.961 1_455 S
H1054 C1039 0.961 . S
H1055 C1039 0.961 . S
H1056 C1040 0.931 . S
H1057 C1045 0.930 . S
H1058 C1046 0.948 1_455 S
H1059 C1046 0.938 1_455 S
H1060 C1046 0.954 1_455 S
H1061 C1047 0.958 . S
H1062 C1047 0.961 . S
H1063 C1047 0.960 . S
C1064 C1065 1.391 . S
C1064 C1066 1.394 . S
C1064 H1080 0.931 . S
C1065 C1064 1.391 . S
C1065 C1069 1.376 . S
C1066 C1064 1.394 . S
C1066 C1067 1.369 . S
C1066 C1070 1.531 . S
C1067 C1066 1.369 . S
C1067 C1068 1.410 . S
C1067 C1075 1.503 . S
C1068 C1067 1.410 . S
C1068 C1069 1.392 . S
C1068 C1071 1.511 . S
C1069 C1065 1.376 . S
C1069 C1068 1.392 . S
C1069 H1081 0.929 . S
C1070 C1066 1.531 . S
C1070 H1082 0.960 . S
C1070 H1083 0.962 . S
C1070 H1084 0.960 . S
C1071 C1068 1.511 . S
C1071 H1085 0.961 . S
C1071 H1086 0.961 . S
C1071 H1087 0.961 . S
C1072 C1073 1.370 . S
C1072 C1074 1.363 . S
C1072 H1088 0.931 . S
C1073 C1072 1.370 . S
C1073 C1077 1.408 1_545 S
C1074 C1072 1.363 . S
C1074 C1075 1.370 1_545 S
C1074 C1078 1.524 . S
C1075 C1067 1.503 . S
C1075 C1074 1.370 1_565 S
C1075 C1076 1.403 . S
C1076 C1075 1.403 . S
C1076 C1077 1.404 . S
C1076 C1079 1.539 . S
C1077 C1073 1.408 1_565 S
C1077 C1076 1.404 . S
C1077 H1089 0.930 . S
C1078 C1074 1.524 . S
C1078 H1090 0.956 . S
C1078 H1091 0.961 . S
C1078 H1092 0.961 . S
C1079 C1076 1.539 . S
C1079 H1093 0.958 . S
C1079 H1094 0.961 . S
C1079 H1095 0.960 . S
H1080 C1064 0.931 . S
H1081 C1069 0.929 . S
H1082 C1070 0.960 . S
H1083 C1070 0.962 . S
H1084 C1070 0.960 . S
H1085 C1071 0.961 . S
H1086 C1071 0.961 . S
H1087 C1071 0.961 . S
H1088 C1072 0.931 . S
H1089 C1077 0.930 . S
H1090 C1078 0.956 . S
H1091 C1078 0.961 . S
H1092 C1078 0.961 . S
H1093 C1079 0.958 . S
H1094 C1079 0.961 . S
H1095 C1079 0.960 . S
C1096 C1097 1.391 . S
C1096 C1098 1.394 . S
C1096 H1112 0.931 . S
C1097 C1096 1.391 . S
C1097 C1101 1.376 . S
C1098 C1096 1.394 . S
C1098 C1099 1.369 . S
C1098 C1102 1.531 . S
C1099 C1098 1.369 . S
C1099 C1100 1.410 . S
C1099 C1107 1.503 . S
C1100 C1099 1.410 . S
C1100 C1101 1.392 . S
C1100 C1103 1.511 . S
C1101 C1097 1.376 . S
C1101 C1100 1.392 . S
C1101 H1113 0.929 . S
C1102 C1098 1.531 . S
C1102 H1114 0.960 . S
C1102 H1115 0.962 1_655 S
C1102 H1116 0.960 . S
C1103 C1100 1.511 . S
C1103 H1117 0.961 . S
C1103 H1118 0.961 . S
C1103 H1119 0.961 . S
C1104 C1105 1.370 . S
C1104 C1106 1.363 . S
C1104 H1120 0.931 . S
C1105 C1104 1.370 . S
C1105 C1109 1.408 1_455 S
C1106 C1104 1.363 . S
C1106 C1107 1.370 1_455 S
C1106 C1110 1.524 . S
C1107 C1099 1.503 . S
C1107 C1106 1.370 1_655 S
C1107 C1108 1.403 . S
C1108 C1107 1.403 . S
C1108 C1109 1.404 . S
C1108 C1111 1.539 . S
C1109 C1105 1.408 1_655 S
C1109 C1108 1.404 . S
C1109 H1121 0.930 . S
C1110 C1106 1.524 . S
C1110 H1122 0.956 . S
C1110 H1123 0.961 . S
C1110 H1124 0.961 . S
C1111 C1108 1.539 . S
C1111 H1125 0.958 . S
C1111 H1126 0.961 . S
C1111 H1127 0.960 . S
H1112 C1096 0.931 . S
H1113 C1101 0.929 . S
H1114 C1102 0.960 . S
H1115 C1102 0.962 1_455 S
H1116 C1102 0.960 . S
H1117 C1103 0.961 . S
H1118 C1103 0.961 . S
H1119 C1103 0.961 . S
H1120 C1104 0.931 . S
H1121 C1109 0.930 . S
H1122 C1110 0.956 . S
H1123 C1110 0.961 . S
H1124 C1110 0.961 . S
H1125 C1111 0.958 . S
H1126 C1111 0.961 . S
H1127 C1111 0.960 . S
C1128 C1129 1.391 . S
C1128 C1130 1.394 . S
C1128 H1144 0.931 . S
C1129 C1128 1.391 . S
C1129 C1133 1.376 . S
C1130 C1128 1.394 . S
C1130 C1131 1.369 . S
C1130 C1134 1.531 1_565 S
C1131 C1130 1.369 . S
C1131 C1132 1.410 . S
C1131 C1139 1.503 1_565 S
C1132 C1131 1.410 . S
C1132 C1133 1.392 . S
C1132 C1135 1.511 . S
C1133 C1129 1.376 . S
C1133 C1132 1.392 . S
C1133 H1145 0.929 . S
C1134 C1130 1.531 1_545 S
C1134 H1146 0.960 . S
C1134 H1147 0.943 1_545 S
C1134 H1148 0.960 . S
C1135 C1132 1.511 . S
C1135 H1149 0.961 . S
C1135 H1150 0.961 . S
C1135 H1151 0.957 1_565 S
C1136 C1137 1.370 . S
C1136 C1138 1.363 . S
C1136 H1152 0.931 . S
C1137 C1136 1.370 . S
C1137 C1141 1.408 . S
C1138 C1136 1.363 . S
C1138 C1139 1.370 . S
C1138 C1142 1.524 1_545 S
C1139 C1131 1.503 1_545 S
C1139 C1138 1.370 . S
C1139 C1140 1.403 . S
C1140 C1139 1.403 . S
C1140 C1141 1.404 . S
C1140 C1143 1.539 . S
C1141 C1137 1.408 . S
C1141 C1140 1.404 . S
C1141 H1153 0.930 . S
C1142 C1138 1.524 1_565 S
C1142 H1154 0.956 . S
C1142 H1155 0.961 . S
C1142 H1156 0.961 . S
C1143 C1140 1.539 . S
C1143 H1157 0.958 . S
C1143 H1158 0.961 . S
C1143 H1159 0.960 . S
H1144 C1128 0.931 . S
H1145 C1133 0.929 . S
H1146 C1134 0.960 . S
H1147 C1134 0.943 1_565 S
H1148 C1134 0.960 . S
H1149 C1135 0.961 . S
H1150 C1135 0.961 . S
H1151 C1135 0.957 1_545 S
H1152 C1136 0.931 . S
H1153 C1141 0.930 . S
H1154 C1142 0.956 . S
H1155 C1142 0.961 . S
H1156 C1142 0.961 . S
H1157 C1143 0.958 . S
H1158 C1143 0.961 . S
H1159 C1143 0.960 . S
C1160 C1161 1.391 . S
C1160 C1162 1.394 . S
C1160 H1176 0.931 . S
C1161 C1160 1.391 . S
C1161 C1165 1.376 . S
C1162 C1160 1.394 . S
C1162 C1163 1.369 . S
C1162 C1166 1.531 1_455 S
C1163 C1162 1.369 . S
C1163 C1164 1.410 . S
C1163 C1171 1.503 . S
C1164 C1163 1.410 . S
C1164 C1165 1.392 . S
C1164 C1167 1.511 . S
C1165 C1161 1.376 . S
C1165 C1164 1.392 . S
C1165 H1177 0.929 . S
C1166 C1162 1.531 1_655 S
C1166 H1178 0.960 . S
C1166 H1179 0.962 . S
C1166 H1180 0.960 . S
C1167 C1164 1.511 . S
C1167 H1181 0.961 . S
C1167 H1182 0.961 . S
C1167 H1183 0.961 . S
C1168 C1169 1.370 . S
C1168 C1170 1.363 . S
C1168 H1184 0.931 . S
C1169 C1168 1.370 . S
C1169 C1173 1.408 . S
C1170 C1168 1.363 . S
C1170 C1171 1.370 1_655 S
C1170 C1174 1.524 1_655 S
C1171 C1163 1.503 . S
C1171 C1170 1.370 1_455 S
C1171 C1172 1.403 . S
C1172 C1171 1.403 . S
C1172 C1173 1.404 1_455 S
C1172 C1175 1.539 . S
C1173 C1169 1.408 . S
C1173 C1172 1.404 1_655 S
C1173 H1185 0.930 . S
C1174 C1170 1.524 1_455 S
C1174 H1186 0.956 1_455 S
C1174 H1187 0.961 . S
C1174 H1188 0.961 1_455 S
C1175 C1172 1.539 . S
C1175 H1189 0.958 . S
C1175 H1190 0.961 . S
C1175 H1191 0.960 . S
H1176 C1160 0.931 . S
H1177 C1165 0.929 . S
H1178 C1166 0.960 . S
H1179 C1166 0.962 . S
H1180 C1166 0.960 . S
H1181 C1167 0.961 . S
H1182 C1167 0.961 . S
H1183 C1167 0.961 . S
H1184 C1168 0.931 . S
H1185 C1173 0.930 . S
H1186 C1174 0.956 1_655 S
H1187 C1174 0.961 . S
H1188 C1174 0.961 1_655 S
H1189 C1175 0.958 . S
H1190 C1175 0.961 . S
H1191 C1175 0.960 . S
C1192 C1193 1.391 . S
C1192 C1194 1.394 1_556 S
C1192 H1208 0.931 . S
C1193 C1192 1.391 . S
C1193 C1197 1.376 . S
C1194 C1192 1.394 1_554 S
C1194 C1195 1.369 . S
C1194 C1198 1.531 . S
C1195 C1194 1.369 . S
C1195 C1196 1.410 1_554 S
C1195 C1203 1.503 . S
C1196 C1195 1.410 1_556 S
C1196 C1197 1.392 . S
C1196 C1199 1.511 . S
C1197 C1193 1.376 . S
C1197 C1196 1.392 . S
C1197 H1209 0.929 . S
C1198 C1194 1.531 . S
C1198 H1210 0.960 . S
C1198 H1211 0.962 . S
C1198 H1212 0.960 . S
C1199 C1196 1.511 . S
C1199 H1213 0.961 . S
C1199 H1214 0.961 . S
C1199 H1215 0.961 . S
C1200 C1201 1.370 . S
C1200 C1202 1.363 . S
C1200 H1216 0.931 . S
C1201 C1200 1.370 . S
C1201 C1205 1.408 . S
C1202 C1200 1.363 . S
C1202 C1203 1.370 . S
C1202 C1206 1.524 . S
C1203 C1195 1.503 . S
C1203 C1202 1.370 . S
C1203 C1204 1.403 . S
C1204 C1203 1.403 . S
C1204 C1205 1.404 . S
C1204 C1207 1.539 . S
C1205 C1201 1.408 . S
C1205 C1204 1.404 . S
C1205 H1217 0.930 . S
C1206 C1202 1.524 . S
C1206 H1218 0.956 . S
C1206 H1219 0.961 . S
C1206 H1220 0.961 . S
C1207 C1204 1.539 . S
C1207 H1221 0.958 . S
C1207 H1222 0.961 . S
C1207 H1223 0.960 1_554 S
H1208 C1192 0.931 . S
H1209 C1197 0.929 . S
H1210 C1198 0.960 . S
H1211 C1198 0.962 . S
H1212 C1198 0.960 . S
H1213 C1199 0.961 . S
H1214 C1199 0.961 . S
H1215 C1199 0.961 . S
H1216 C1200 0.931 . S
H1217 C1205 0.930 . S
H1218 C1206 0.956 . S
H1219 C1206 0.961 . S
H1220 C1206 0.961 . S
H1221 C1207 0.958 . S
H1222 C1207 0.961 . S
H1223 C1207 0.960 1_556 S
C1224 C1225 1.391 . S
C1224 C1226 1.394 1_554 S
C1224 H1240 0.931 . S
C1225 C1224 1.391 . S
C1225 C1229 1.376 1_554 S
C1226 C1224 1.394 1_556 S
C1226 C1227 1.369 . S
C1226 C1230 1.531 . S
C1227 C1226 1.369 . S
C1227 C1228 1.410 . S
C1227 C1235 1.503 . S
C1228 C1227 1.410 . S
C1228 C1229 1.392 . S
C1228 C1231 1.511 . S
C1229 C1225 1.376 1_556 S
C1229 C1228 1.392 . S
C1229 H1241 0.929 . S
C1230 C1226 1.531 . S
C1230 H1242 0.960 . S
C1230 H1243 0.962 1_556 S
C1230 H1244 0.960 1_556 S
C1231 C1228 1.511 . S
C1231 H1245 0.961 . S
C1231 H1246 0.961 . S
C1231 H1247 0.961 . S
C1232 C1233 1.370 . S
C1232 C1234 1.363 . S
C1232 H1248 0.931 . S
C1233 C1232 1.370 . S
C1233 C1237 1.408 . S
C1234 C1232 1.363 . S
C1234 C1235 1.370 . S
C1234 C1238 1.524 1_556 S
C1235 C1227 1.503 . S
C1235 C1234 1.370 . S
C1235 C1236 1.403 . S
C1236 C1235 1.403 . S
C1236 C1237 1.404 . S
C1236 C1239 1.539 . S
C1237 C1233 1.408 . S
C1237 C1236 1.404 . S
C1237 H1249 0.930 . S
C1238 C1234 1.524 1_554 S
C1238 H1250 0.956 . S
C1238 H1251 0.961 . S
C1238 H1252 0.961 . S
C1239 C1236 1.539 . S
C1239 H1253 0.958 . S
C1239 H1254 0.961 . S
C1239 H1255 0.960 . S
H1240 C1224 0.931 . S
H1241 C1229 0.929 . S
H1242 C1230 0.960 . S
H1243 C1230 0.962 1_554 S
H1244 C1230 0.960 1_554 S
H1245 C1231 0.961 . S
H1246 C1231 0.961 . S
H1247 C1231 0.961 . S
H1248 C1232 0.931 . S
H1249 C1237 0.930 . S
H1250 C1238 0.956 . S
H1251 C1238 0.961 . S
H1252 C1238 0.961 . S
H1253 C1239 0.958 . S
H1254 C1239 0.961 . S
H1255 C1239 0.960 . S
C1256 C1257 1.391 . S
C1256 C1258 1.394 . S
C1256 H1272 0.931 . S
C1257 C1256 1.391 . S
C1257 C1261 1.376 . S
C1258 C1256 1.394 . S
C1258 C1259 1.369 1_556 S
C1258 C1262 1.531 . S
C1259 C1258 1.369 1_554 S
C1259 C1260 1.410 . S
C1259 C1267 1.503 . S
C1260 C1259 1.410 . S
C1260 C1261 1.392 1_554 S
C1260 C1263 1.511 . S
C1261 C1257 1.376 . S
C1261 C1260 1.392 1_556 S
C1261 H1273 0.929 . S
C1262 C1258 1.531 . S
C1262 H1274 0.960 1_556 S
C1262 H1275 0.962 . S
C1262 H1276 0.960 . S
C1263 C1260 1.511 . S
C1263 H1277 0.961 . S
C1263 H1278 0.961 . S
C1263 H1279 0.961 . S
C1264 C1265 1.370 . S
C1264 C1266 1.363 . S
C1264 H1280 0.931 . S
C1265 C1264 1.370 . S
C1265 C1269 1.408 . S
C1266 C1264 1.363 . S
C1266 C1267 1.370 . S
C1266 C1270 1.524 . S
C1267 C1259 1.503 . S
C1267 C1266 1.370 . S
C1267 C1268 1.403 . S
C1268 C1267 1.403 . S
C1268 C1269 1.404 . S
C1268 C1271 1.539 . S
C1269 C1265 1.408 . S
C1269 C1268 1.404 . S
C1269 H1281 0.930 . S
C1270 C1266 1.524 . S
C1270 H1282 0.956 1_554 S
C1270 H1283 0.961 . S
C1270 H1284 0.961 . S
C1271 C1268 1.539 . S
C1271 H1285 0.958 . S
C1271 H1286 0.961 . S
C1271 H1287 0.960 . S
H1272 C1256 0.931 . S
H1273 C1261 0.929 . S
H1274 C1262 0.960 1_554 S
H1275 C1262 0.962 . S
H1276 C1262 0.960 . S
H1277 C1263 0.961 . S
H1278 C1263 0.961 . S
H1279 C1263 0.961 . S
H1280 C1264 0.931 . S
H1281 C1269 0.930 . S
H1282 C1270 0.956 1_556 S
H1283 C1270 0.961 . S
H1284 C1270 0.961 . S
H1285 C1271 0.958 . S
H1286 C1271 0.961 . S
H1287 C1271 0.960 . S
C1288 C1289 1.391 . S
C1288 C1290 1.394 1_554 S
C1288 H1304 0.931 . S
C1289 C1288 1.391 . S
C1289 C1293 1.376 . S
C1290 C1288 1.394 1_556 S
C1290 C1291 1.369 . S
C1290 C1294 1.531 . S
C1291 C1290 1.369 . S
C1291 C1292 1.410 1_556 S
C1291 C1299 1.503 . S
C1292 C1291 1.410 1_554 S
C1292 C1293 1.392 . S
C1292 C1295 1.511 . S
C1293 C1289 1.376 . S
C1293 C1292 1.392 . S
C1293 H1305 0.929 . S
C1294 C1290 1.531 . S
C1294 H1306 0.960 . S
C1294 H1307 0.962 . S
C1294 H1308 0.960 . S
C1295 C1292 1.511 . S
C1295 H1309 0.961 . S
C1295 H1310 0.961 1_554 S
C1295 H1311 0.961 . S
C1296 C1297 1.370 . S
C1296 C1298 1.363 . S
C1296 H1312 0.931 . S
C1297 C1296 1.370 . S
C1297 C1301 1.408 . S
C1298 C1296 1.363 . S
C1298 C1299 1.370 . S
C1298 C1302 1.524 . S
C1299 C1291 1.503 . S
C1299 C1298 1.370 . S
C1299 C1300 1.403 . S
C1300 C1299 1.403 . S
C1300 C1301 1.404 . S
C1300 C1303 1.539 1_556 S
C1301 C1297 1.408 . S
C1301 C1300 1.404 . S
C1301 H1313 0.930 . S
C1302 C1298 1.524 . S
C1302 H1314 0.956 . S
C1302 H1315 0.961 . S
C1302 H1316 0.961 . S
C1303 C1300 1.539 1_554 S
C1303 H1317 0.958 . S
C1303 H1318 0.961 . S
C1303 H1319 0.960 . S
H1304 C1288 0.931 . S
H1305 C1293 0.929 . S
H1306 C1294 0.960 . S
H1307 C1294 0.962 . S
H1308 C1294 0.960 . S
H1309 C1295 0.961 . S
H1310 C1295 0.961 1_556 S
H1311 C1295 0.961 . S
H1312 C1296 0.931 . S
H1313 C1301 0.930 . S
H1314 C1302 0.956 . S
H1315 C1302 0.961 . S
H1316 C1302 0.961 . S
H1317 C1303 0.958 . S
H1318 C1303 0.961 . S
H1319 C1303 0.960 . S
C1320 C1321 1.391 . S
C1320 C1322 1.394 . S
C1320 H1336 0.931 . S
C1321 C1320 1.391 . S
C1321 C1325 1.376 . S
C1322 C1320 1.394 . S
C1322 C1323 1.369 . S
C1322 C1326 1.531 . S
C1323 C1322 1.369 . S
C1323 C1324 1.410 . S
C1323 C1331 1.503 . S
C1324 C1323 1.410 . S
C1324 C1325 1.392 . S
C1324 C1327 1.511 . S
C1325 C1321 1.376 . S
C1325 C1324 1.392 . S
C1325 H1337 0.929 . S
C1326 C1322 1.531 . S
C1326 H1338 0.960 . S
C1326 H1339 0.962 . S
C1326 H1340 0.960 . S
C1327 C1324 1.511 . S
C1327 H1341 0.961 . S
C1327 H1342 0.961 . S
C1327 H1343 0.961 . S
C1328 C1329 1.370 . S
C1328 C1330 1.363 . S
C1328 H1344 0.931 . S
C1329 C1328 1.370 . S
C1329 C1333 1.408 . S
C1330 C1328 1.363 . S
C1330 C1331 1.370 . S
C1330 C1334 1.524 . S
C1331 C1323 1.503 . S
C1331 C1330 1.370 . S
C1331 C1332 1.403 . S
C1332 C1331 1.403 . S
C1332 C1333 1.404 . S
C1332 C1335 1.539 . S
C1333 C1329 1.408 . S
C1333 C1332 1.404 . S
C1333 H1345 0.930 . S
C1334 C1330 1.524 . S
C1334 H1346 0.956 . S
C1334 H1347 0.961 . S
C1334 H1348 0.961 . S
C1335 C1332 1.539 . S
C1335 H1349 0.958 . S
C1335 H1350 0.961 . S
C1335 H1351 0.960 . S
H1336 C1320 0.931 . S
H1337 C1325 0.929 . S
H1338 C1326 0.960 . S
H1339 C1326 0.962 . S
H1340 C1326 0.960 . S
H1341 C1327 0.961 . S
H1342 C1327 0.961 . S
H1343 C1327 0.961 . S
H1344 C1328 0.931 . S
H1345 C1333 0.930 . S
H1346 C1334 0.956 . S
H1347 C1334 0.961 . S
H1348 C1334 0.961 . S
H1349 C1335 0.958 . S
H1350 C1335 0.961 . S
H1351 C1335 0.960 . S
C1352 C1353 1.391 . S
C1352 C1354 1.394 . S
C1352 H1368 0.931 . S
C1353 C1352 1.391 . S
C1353 C1357 1.376 . S
C1354 C1352 1.394 . S
C1354 C1355 1.369 . S
C1354 C1358 1.531 . S
C1355 C1354 1.369 . S
C1355 C1356 1.410 . S
C1355 C1363 1.503 . S
C1356 C1355 1.410 . S
C1356 C1357 1.392 . S
C1356 C1359 1.511 . S
C1357 C1353 1.376 . S
C1357 C1356 1.392 . S
C1357 H1369 0.929 . S
C1358 C1354 1.531 . S
C1358 H1370 0.960 . S
C1358 H1371 0.962 . S
C1358 H1372 0.960 . S
C1359 C1356 1.511 . S
C1359 H1373 0.961 . S
C1359 H1374 0.961 . S
C1359 H1375 0.961 . S
C1360 C1361 1.370 . S
C1360 C1362 1.363 . S
C1360 H1376 0.931 . S
C1361 C1360 1.370 . S
C1361 C1365 1.408 . S
C1362 C1360 1.363 . S
C1362 C1363 1.370 . S
C1362 C1366 1.524 . S
C1363 C1355 1.503 . S
C1363 C1362 1.370 . S
C1363 C1364 1.403 . S
C1364 C1363 1.403 . S
C1364 C1365 1.404 . S
C1364 C1367 1.539 . S
C1365 C1361 1.408 . S
C1365 C1364 1.404 . S
C1365 H1377 0.930 . S
C1366 C1362 1.524 . S
C1366 H1378 0.956 . S
C1366 H1379 0.961 . S
C1366 H1380 0.961 . S
C1367 C1364 1.539 . S
C1367 H1381 0.958 . S
C1367 H1382 0.961 . S
C1367 H1383 0.960 . S
H1368 C1352 0.931 . S
H1369 C1357 0.929 . S
H1370 C1358 0.960 . S
H1371 C1358 0.962 . S
H1372 C1358 0.960 . S
H1373 C1359 0.961 . S
H1374 C1359 0.961 . S
H1375 C1359 0.961 . S
H1376 C1360 0.931 . S
H1377 C1365 0.930 . S
H1378 C1366 0.956 . S
H1379 C1366 0.961 . S
H1380 C1366 0.961 . S
H1381 C1367 0.958 . S
H1382 C1367 0.961 . S
H1383 C1367 0.960 . S
C1384 C1385 1.391 . S
C1384 C1386 1.394 . S
C1384 H1400 0.931 . S
C1385 C1384 1.391 . S
C1385 C1389 1.376 . S
C1386 C1384 1.394 . S
C1386 C1387 1.369 . S
C1386 C1390 1.531 . S
C1387 C1386 1.369 . S
C1387 C1388 1.410 . S
C1387 C1395 1.503 . S
C1388 C1387 1.410 . S
C1388 C1389 1.392 . S
C1388 C1391 1.511 . S
C1389 C1385 1.376 . S
C1389 C1388 1.392 . S
C1389 H1401 0.929 . S
C1390 C1386 1.531 . S
C1390 H1402 0.960 . S
C1390 H1403 0.962 . S
C1390 H1404 0.960 . S
C1391 C1388 1.511 . S
C1391 H1405 0.961 . S
C1391 H1406 0.961 . S
C1391 H1407 0.961 . S
C1392 C1393 1.370 . S
C1392 C1394 1.363 . S
C1392 H1408 0.931 . S
C1393 C1392 1.370 . S
C1393 C1397 1.408 . S
C1394 C1392 1.363 . S
C1394 C1395 1.370 . S
C1394 C1398 1.524 . S
C1395 C1387 1.503 . S
C1395 C1394 1.370 . S
C1395 C1396 1.403 . S
C1396 C1395 1.403 . S
C1396 C1397 1.404 . S
C1396 C1399 1.539 . S
C1397 C1393 1.408 . S
C1397 C1396 1.404 . S
C1397 H1409 0.930 . S
C1398 C1394 1.524 . S
C1398 H1410 0.956 . S
C1398 H1411 0.961 . S
C1398 H1412 0.961 . S
C1399 C1396 1.539 . S
C1399 H1413 0.958 . S
C1399 H1414 0.961 . S
C1399 H1415 0.960 . S
H1400 C1384 0.931 . S
H1401 C1389 0.929 . S
H1402 C1390 0.960 . S
H1403 C1390 0.962 . S
H1404 C1390 0.960 . S
H1405 C1391 0.961 . S
H1406 C1391 0.961 . S
H1407 C1391 0.961 . S
H1408 C1392 0.931 . S
H1409 C1397 0.930 . S
H1410 C1398 0.956 . S
H1411 C1398 0.961 . S
H1412 C1398 0.961 . S
H1413 C1399 0.958 . S
H1414 C1399 0.961 . S
H1415 C1399 0.960 . S
C1416 C1417 1.391 . S
C1416 C1418 1.394 . S
C1416 H1432 0.931 . S
C1417 C1416 1.391 . S
C1417 C1421 1.376 . S
C1418 C1416 1.394 . S
C1418 C1419 1.369 . S
C1418 C1422 1.531 . S
C1419 C1418 1.369 . S
C1419 C1420 1.410 . S
C1419 C1427 1.503 . S
C1420 C1419 1.410 . S
C1420 C1421 1.392 . S
C1420 C1423 1.511 . S
C1421 C1417 1.376 . S
C1421 C1420 1.392 . S
C1421 H1433 0.929 . S
C1422 C1418 1.531 . S
C1422 H1434 0.960 . S
C1422 H1435 0.962 . S
C1422 H1436 0.960 . S
C1423 C1420 1.511 . S
C1423 H1437 0.961 . S
C1423 H1438 0.961 . S
C1423 H1439 0.961 . S
C1424 C1425 1.370 . S
C1424 C1426 1.363 . S
C1424 H1440 0.931 . S
C1425 C1424 1.370 . S
C1425 C1429 1.408 . S
C1426 C1424 1.363 . S
C1426 C1427 1.370 . S
C1426 C1430 1.524 . S
C1427 C1419 1.503 . S
C1427 C1426 1.370 . S
C1427 C1428 1.403 . S
C1428 C1427 1.403 . S
C1428 C1429 1.404 . S
C1428 C1431 1.539 . S
C1429 C1425 1.408 . S
C1429 C1428 1.404 . S
C1429 H1441 0.930 . S
C1430 C1426 1.524 . S
C1430 H1442 0.956 . S
C1430 H1443 0.961 . S
C1430 H1444 0.961 . S
C1431 C1428 1.539 . S
C1431 H1445 0.958 . S
C1431 H1446 0.961 . S
C1431 H1447 0.960 . S
H1432 C1416 0.931 . S
H1433 C1421 0.929 . S
H1434 C1422 0.960 . S
H1435 C1422 0.962 . S
H1436 C1422 0.960 . S
H1437 C1423 0.961 . S
H1438 C1423 0.961 . S
H1439 C1423 0.961 . S
H1440 C1424 0.931 . S
H1441 C1429 0.930 . S
H1442 C1430 0.956 . S
H1443 C1430 0.961 . S
H1444 C1430 0.961 . S
H1445 C1431 0.958 . S
H1446 C1431 0.961 . S
H1447 C1431 0.960 . S
C1448 C1449 1.391 . S
C1448 C1450 1.394 . S
C1448 H1464 0.931 . S
C1449 C1448 1.391 . S
C1449 C1453 1.376 . S
C1450 C1448 1.394 . S
C1450 C1451 1.369 . S
C1450 C1454 1.531 . S
C1451 C1450 1.369 . S
C1451 C1452 1.410 . S
C1451 C1459 1.503 . S
C1452 C1451 1.410 . S
C1452 C1453 1.392 . S
C1452 C1455 1.511 . S
C1453 C1449 1.376 . S
C1453 C1452 1.392 . S
C1453 H1465 0.929 . S
C1454 C1450 1.531 . S
C1454 H1466 0.960 . S
C1454 H1467 0.962 . S
C1454 H1468 0.960 . S
C1455 C1452 1.511 . S
C1455 H1469 0.961 . S
C1455 H1470 0.961 . S
C1455 H1471 0.961 . S
C1456 C1457 1.370 . S
C1456 C1458 1.363 . S
C1456 H1472 0.931 . S
C1457 C1456 1.370 . S
C1457 C1461 1.408 . S
C1458 C1456 1.363 . S
C1458 C1459 1.370 . S
C1458 C1462 1.524 . S
C1459 C1451 1.503 . S
C1459 C1458 1.370 . S
C1459 C1460 1.403 . S
C1460 C1459 1.403 . S
C1460 C1461 1.404 . S
C1460 C1463 1.539 . S
C1461 C1457 1.408 . S
C1461 C1460 1.404 . S
C1461 H1473 0.930 . S
C1462 C1458 1.524 . S
C1462 H1474 0.956 . S
C1462 H1475 0.961 . S
C1462 H1476 0.961 . S
C1463 C1460 1.539 . S
C1463 H1477 0.958 . S
C1463 H1478 0.961 . S
C1463 H1479 0.960 . S
H1464 C1448 0.931 . S
H1465 C1453 0.929 . S
H1466 C1454 0.960 . S
H1467 C1454 0.962 . S
H1468 C1454 0.960 . S
H1469 C1455 0.961 . S
H1470 C1455 0.961 . S
H1471 C1455 0.961 . S
H1472 C1456 0.931 . S
H1473 C1461 0.930 . S
H1474 C1462 0.956 . S
H1475 C1462 0.961 . S
H1476 C1462 0.961 . S
H1477 C1463 0.958 . S
H1478 C1463 0.961 . S
H1479 C1463 0.960 . S
C1480 C1481 1.391 . S
C1480 C1482 1.394 . S
C1480 H1496 0.931 . S
C1481 C1480 1.391 . S
C1481 C1485 1.376 . S
C1482 C1480 1.394 . S
C1482 C1483 1.369 . S
C1482 C1486 1.531 . S
C1483 C1482 1.369 . S
C1483 C1484 1.410 . S
C1483 C1491 1.503 . S
C1484 C1483 1.410 . S
C1484 C1485 1.392 . S
C1484 C1487 1.511 . S
C1485 C1481 1.376 . S
C1485 C1484 1.392 . S
C1485 H1497 0.929 . S
C1486 C1482 1.531 . S
C1486 H1498 0.960 . S
C1486 H1499 0.962 . S
C1486 H1500 0.960 . S
C1487 C1484 1.511 . S
C1487 H1501 0.961 . S
C1487 H1502 0.961 . S
C1487 H1503 0.961 . S
C1488 C1489 1.370 . S
C1488 C1490 1.363 . S
C1488 H1504 0.931 . S
C1489 C1488 1.370 . S
C1489 C1493 1.408 . S
C1490 C1488 1.363 . S
C1490 C1491 1.370 . S
C1490 C1494 1.524 . S
C1491 C1483 1.503 . S
C1491 C1490 1.370 . S
C1491 C1492 1.403 . S
C1492 C1491 1.403 . S
C1492 C1493 1.404 . S
C1492 C1495 1.539 . S
C1493 C1489 1.408 . S
C1493 C1492 1.404 . S
C1493 H1505 0.930 . S
C1494 C1490 1.524 . S
C1494 H1506 0.956 . S
C1494 H1507 0.961 . S
C1494 H1508 0.961 . S
C1495 C1492 1.539 . S
C1495 H1509 0.958 . S
C1495 H1510 0.961 . S
C1495 H1511 0.960 . S
H1496 C1480 0.931 . S
H1497 C1485 0.929 . S
H1498 C1486 0.960 . S
H1499 C1486 0.962 . S
H1500 C1486 0.960 . S
H1501 C1487 0.961 . S
H1502 C1487 0.961 . S
H1503 C1487 0.961 . S
H1504 C1488 0.931 . S
H1505 C1493 0.930 . S
H1506 C1494 0.956 . S
H1507 C1494 0.961 . S
H1508 C1494 0.961 . S
H1509 C1495 0.958 . S
H1510 C1495 0.961 . S
H1511 C1495 0.960 . S
C1512 C1513 1.391 . S
C1512 C1514 1.394 . S
C1512 H1528 0.931 . S
C1513 C1512 1.391 . S
C1513 C1517 1.376 . S
C1514 C1512 1.394 . S
C1514 C1515 1.369 . S
C1514 C1518 1.531 . S
C1515 C1514 1.369 . S
C1515 C1516 1.410 . S
C1515 C1523 1.503 . S
C1516 C1515 1.410 . S
C1516 C1517 1.392 . S
C1516 C1519 1.511 . S
C1517 C1513 1.376 . S
C1517 C1516 1.392 . S
C1517 H1529 0.929 . S
C1518 C1514 1.531 . S
C1518 H1530 0.960 . S
C1518 H1531 0.962 . S
C1518 H1532 0.960 . S
C1519 C1516 1.511 . S
C1519 H1533 0.961 . S
C1519 H1534 0.961 . S
C1519 H1535 0.961 . S
C1520 C1521 1.370 . S
C1520 C1522 1.363 . S
C1520 H1536 0.931 . S
C1521 C1520 1.370 . S
C1521 C1525 1.408 . S
C1522 C1520 1.363 . S
C1522 C1523 1.370 . S
C1522 C1526 1.524 . S
C1523 C1515 1.503 . S
C1523 C1522 1.370 . S
C1523 C1524 1.403 . S
C1524 C1523 1.403 . S
C1524 C1525 1.404 . S
C1524 C1527 1.539 . S
C1525 C1521 1.408 . S
C1525 C1524 1.404 . S
C1525 H1537 0.930 . S
C1526 C1522 1.524 . S
C1526 H1538 0.956 . S
C1526 H1539 0.961 . S
C1526 H1540 0.961 . S
C1527 C1524 1.539 . S
C1527 H1541 0.958 . S
C1527 H1542 0.961 . S
C1527 H1543 0.960 . S
H1528 C1512 0.931 . S
H1529 C1517 0.929 . S
H1530 C1518 0.960 . S
H1531 C1518 0.962 . S
H1532 C1518 0.960 . S
H1533 C1519 0.961 . S
H1534 C1519 0.961 . S
H1535 C1519 0.961 . S
H1536 C1520 0.931 . S
H1537 C1525 0.930 . S
H1538 C1526 0.956 . S
H1539 C1526 0.961 . S
H1540 C1526 0.961 . S
H1541 C1527 0.958 . S
H1542 C1527 0.961 . S
H1543 C1527 0.960 . S
C1544 C1545 1.391 . S
C1544 C1546 1.394 . S
C1544 H1560 0.931 . S
C1545 C1544 1.391 . S
C1545 C1549 1.376 . S
C1546 C1544 1.394 . S
C1546 C1547 1.369 . S
C1546 C1550 1.531 . S
C1547 C1546 1.369 . S
C1547 C1548 1.410 . S
C1547 C1555 1.503 . S
C1548 C1547 1.410 . S
C1548 C1549 1.392 . S
C1548 C1551 1.511 . S
C1549 C1545 1.376 . S
C1549 C1548 1.392 . S
C1549 H1561 0.929 . S
C1550 C1546 1.531 . S
C1550 H1562 0.960 . S
C1550 H1563 0.962 . S
C1550 H1564 0.960 . S
C1551 C1548 1.511 . S
C1551 H1565 0.961 . S
C1551 H1566 0.961 . S
C1551 H1567 0.961 . S
C1552 C1553 1.370 . S
C1552 C1554 1.363 . S
C1552 H1568 0.931 . S
C1553 C1552 1.370 . S
C1553 C1557 1.408 . S
C1554 C1552 1.363 . S
C1554 C1555 1.370 . S
C1554 C1558 1.524 . S
C1555 C1547 1.503 . S
C1555 C1554 1.370 . S
C1555 C1556 1.403 . S
C1556 C1555 1.403 . S
C1556 C1557 1.404 . S
C1556 C1559 1.539 . S
C1557 C1553 1.408 . S
C1557 C1556 1.404 . S
C1557 H1569 0.930 . S
C1558 C1554 1.524 . S
C1558 H1570 0.956 . S
C1558 H1571 0.961 . S
C1558 H1572 0.961 . S
C1559 C1556 1.539 . S
C1559 H1573 0.958 . S
C1559 H1574 0.961 . S
C1559 H1575 0.960 . S
H1560 C1544 0.931 . S
H1561 C1549 0.929 . S
H1562 C1550 0.960 . S
H1563 C1550 0.962 . S
H1564 C1550 0.960 . S
H1565 C1551 0.961 . S
H1566 C1551 0.961 . S
H1567 C1551 0.961 . S
H1568 C1552 0.931 . S
H1569 C1557 0.930 . S
H1570 C1558 0.956 . S
H1571 C1558 0.961 . S
H1572 C1558 0.961 . S
H1573 C1559 0.958 . S
H1574 C1559 0.961 . S
H1575 C1559 0.960 . S
C1576 C1577 1.391 . S
C1576 C1578 1.394 . S
C1576 H1592 0.931 . S
C1577 C1576 1.391 . S
C1577 C1581 1.376 . S
C1578 C1576 1.394 . S
C1578 C1579 1.369 . S
C1578 C1582 1.531 . S
C1579 C1578 1.369 . S
C1579 C1580 1.410 . S
C1579 C1587 1.503 . S
C1580 C1579 1.410 . S
C1580 C1581 1.392 . S
C1580 C1583 1.511 . S
C1581 C1577 1.376 . S
C1581 C1580 1.392 . S
C1581 H1593 0.929 . S
C1582 C1578 1.531 . S
C1582 H1594 0.960 . S
C1582 H1595 0.962 . S
C1582 H1596 0.960 . S
C1583 C1580 1.511 . S
C1583 H1597 0.961 . S
C1583 H1598 0.961 . S
C1583 H1599 0.961 . S
C1584 C1585 1.370 . S
C1584 C1586 1.363 . S
C1584 H1600 0.931 . S
C1585 C1584 1.370 . S
C1585 C1589 1.408 . S
C1586 C1584 1.363 . S
C1586 C1587 1.370 . S
C1586 C1590 1.524 . S
C1587 C1579 1.503 . S
C1587 C1586 1.370 . S
C1587 C1588 1.403 . S
C1588 C1587 1.403 . S
C1588 C1589 1.404 . S
C1588 C1591 1.539 . S
C1589 C1585 1.408 . S
C1589 C1588 1.404 . S
C1589 H1601 0.930 . S
C1590 C1586 1.524 . S
C1590 H1602 0.956 . S
C1590 H1603 0.961 . S
C1590 H1604 0.961 . S
C1591 C1588 1.539 . S
C1591 H1605 0.958 . S
C1591 H1606 0.961 . S
C1591 H1607 0.960 . S
H1592 C1576 0.931 . S
H1593 C1581 0.929 . S
H1594 C1582 0.960 . S
H1595 C1582 0.962 . S
H1596 C1582 0.960 . S
H1597 C1583 0.961 . S
H1598 C1583 0.961 . S
H1599 C1583 0.961 . S
H1600 C1584 0.931 . S
H1601 C1589 0.930 . S
H1602 C1590 0.956 . S
H1603 C1590 0.961 . S
H1604 C1590 0.961 . S
H1605 C1591 0.958 . S
H1606 C1591 0.961 . S
H1607 C1591 0.960 . S
C1608 C1609 1.391 . S
C1608 C1610 1.394 . S
C1608 H1624 0.931 . S
C1609 C1608 1.391 . S
C1609 C1613 1.376 . S
C1610 C1608 1.394 . S
C1610 C1611 1.369 . S
C1610 C1614 1.531 . S
C1611 C1610 1.369 . S
C1611 C1612 1.410 . S
C1611 C1619 1.503 . S
C1612 C1611 1.410 . S
C1612 C1613 1.392 . S
C1612 C1615 1.511 . S
C1613 C1609 1.376 . S
C1613 C1612 1.392 . S
C1613 H1625 0.929 . S
C1614 C1610 1.531 . S
C1614 H1626 0.960 . S
C1614 H1627 0.962 . S
C1614 H1628 0.960 . S
C1615 C1612 1.511 . S
C1615 H1629 0.961 . S
C1615 H1630 0.961 . S
C1615 H1631 0.961 . S
C1616 C1617 1.370 . S
C1616 C1618 1.363 . S
C1616 H1632 0.931 . S
C1617 C1616 1.370 . S
C1617 C1621 1.408 . S
C1618 C1616 1.363 . S
C1618 C1619 1.370 . S
C1618 C1622 1.524 . S
C1619 C1611 1.503 . S
C1619 C1618 1.370 . S
C1619 C1620 1.403 . S
C1620 C1619 1.403 . S
C1620 C1621 1.404 . S
C1620 C1623 1.539 . S
C1621 C1617 1.408 . S
C1621 C1620 1.404 . S
C1621 H1633 0.930 . S
C1622 C1618 1.524 . S
C1622 H1634 0.956 . S
C1622 H1635 0.961 . S
C1622 H1636 0.961 . S
C1623 C1620 1.539 . S
C1623 H1637 0.958 . S
C1623 H1638 0.961 . S
C1623 H1639 0.960 . S
H1624 C1608 0.931 . S
H1625 C1613 0.929 . S
H1626 C1614 0.960 . S
H1627 C1614 0.962 . S
H1628 C1614 0.960 . S
H1629 C1615 0.961 . S
H1630 C1615 0.961 . S
H1631 C1615 0.961 . S
H1632 C1616 0.931 . S
H1633 C1621 0.930 . S
H1634 C1622 0.956 . S
H1635 C1622 0.961 . S
H1636 C1622 0.961 . S
H1637 C1623 0.958 . S
H1638 C1623 0.961 . S
H1639 C1623 0.960 . S
C1640 C1641 1.391 . S
C1640 C1642 1.394 . S
C1640 H1656 0.931 . S
C1641 C1640 1.391 . S
C1641 C1645 1.376 . S
C1642 C1640 1.394 . S
C1642 C1643 1.369 . S
C1642 C1646 1.531 . S
C1643 C1642 1.369 . S
C1643 C1644 1.410 . S
C1643 C1651 1.503 . S
C1644 C1643 1.410 . S
C1644 C1645 1.392 . S
C1644 C1647 1.511 . S
C1645 C1641 1.376 . S
C1645 C1644 1.392 . S
C1645 H1657 0.929 . S
C1646 C1642 1.531 . S
C1646 H1658 0.960 . S
C1646 H1659 0.962 . S
C1646 H1660 0.960 . S
C1647 C1644 1.511 . S
C1647 H1661 0.961 . S
C1647 H1662 0.961 . S
C1647 H1663 0.961 . S
C1648 C1649 1.370 . S
C1648 C1650 1.363 . S
C1648 H1664 0.931 . S
C1649 C1648 1.370 . S
C1649 C1653 1.408 . S
C1650 C1648 1.363 . S
C1650 C1651 1.370 . S
C1650 C1654 1.524 . S
C1651 C1643 1.503 . S
C1651 C1650 1.370 . S
C1651 C1652 1.403 . S
C1652 C1651 1.403 . S
C1652 C1653 1.404 . S
C1652 C1655 1.539 . S
C1653 C1649 1.408 . S
C1653 C1652 1.404 . S
C1653 H1665 0.930 . S
C1654 C1650 1.524 . S
C1654 H1666 0.956 . S
C1654 H1667 0.961 . S
C1654 H1668 0.961 . S
C1655 C1652 1.539 . S
C1655 H1669 0.958 . S
C1655 H1670 0.961 . S
C1655 H1671 0.960 . S
H1656 C1640 0.931 . S
H1657 C1645 0.929 . S
H1658 C1646 0.960 . S
H1659 C1646 0.962 . S
H1660 C1646 0.960 . S
H1661 C1647 0.961 . S
H1662 C1647 0.961 . S
H1663 C1647 0.961 . S
H1664 C1648 0.931 . S
H1665 C1653 0.930 . S
H1666 C1654 0.956 . S
H1667 C1654 0.961 . S
H1668 C1654 0.961 . S
H1669 C1655 0.958 . S
H1670 C1655 0.961 . S
H1671 C1655 0.960 . S
C1672 C1673 1.391 . S
C1672 C1674 1.394 . S
C1672 H1688 0.931 . S
C1673 C1672 1.391 . S
C1673 C1677 1.376 . S
C1674 C1672 1.394 . S
C1674 C1675 1.369 . S
C1674 C1678 1.531 . S
C1675 C1674 1.369 . S
C1675 C1676 1.410 . S
C1675 C1683 1.503 . S
C1676 C1675 1.410 . S
C1676 C1677 1.392 . S
C1676 C1679 1.511 . S
C1677 C1673 1.376 . S
C1677 C1676 1.392 . S
C1677 H1689 0.929 . S
C1678 C1674 1.531 . S
C1678 H1690 0.960 . S
C1678 H1691 0.962 . S
C1678 H1692 0.960 . S
C1679 C1676 1.511 . S
C1679 H1693 0.961 . S
C1679 H1694 0.961 . S
C1679 H1695 0.961 . S
C1680 C1681 1.370 . S
C1680 C1682 1.363 . S
C1680 H1696 0.931 . S
C1681 C1680 1.370 . S
C1681 C1685 1.408 . S
C1682 C1680 1.363 . S
C1682 C1683 1.370 . S
C1682 C1686 1.524 . S
C1683 C1675 1.503 . S
C1683 C1682 1.370 . S
C1683 C1684 1.403 . S
C1684 C1683 1.403 . S
C1684 C1685 1.404 . S
C1684 C1687 1.539 . S
C1685 C1681 1.408 . S
C1685 C1684 1.404 . S
C1685 H1697 0.930 . S
C1686 C1682 1.524 . S
C1686 H1698 0.956 . S
C1686 H1699 0.961 . S
C1686 H1700 0.961 . S
C1687 C1684 1.539 . S
C1687 H1701 0.958 . S
C1687 H1702 0.961 . S
C1687 H1703 0.960 . S
H1688 C1672 0.931 . S
H1689 C1677 0.929 . S
H1690 C1678 0.960 . S
H1691 C1678 0.962 . S
H1692 C1678 0.960 . S
H1693 C1679 0.961 . S
H1694 C1679 0.961 . S
H1695 C1679 0.961 . S
H1696 C1680 0.931 . S
H1697 C1685 0.930 . S
H1698 C1686 0.956 . S
H1699 C1686 0.961 . S
H1700 C1686 0.961 . S
H1701 C1687 0.958 . S
H1702 C1687 0.961 . S
H1703 C1687 0.960 . S
C1704 C1705 1.391 . S
C1704 C1706 1.394 . S
C1704 H1720 0.931 . S
C1705 C1704 1.391 . S
C1705 C1709 1.376 . S
C1706 C1704 1.394 . S
C1706 C1707 1.369 . S
C1706 C1710 1.531 . S
C1707 C1706 1.369 . S
C1707 C1708 1.410 . S
C1707 C1715 1.503 . S
C1708 C1707 1.410 . S
C1708 C1709 1.392 . S
C1708 C1711 1.511 . S
C1709 C1705 1.376 . S
C1709 C1708 1.392 . S
C1709 H1721 0.929 . S
C1710 C1706 1.531 . S
C1710 H1722 0.960 . S
C1710 H1723 0.962 . S
C1710 H1724 0.960 . S
C1711 C1708 1.511 . S
C1711 H1725 0.961 . S
C1711 H1726 0.961 . S
C1711 H1727 0.961 . S
C1712 C1713 1.370 . S
C1712 C1714 1.363 . S
C1712 H1728 0.931 . S
C1713 C1712 1.370 . S
C1713 C1717 1.408 . S
C1714 C1712 1.363 . S
C1714 C1715 1.370 . S
C1714 C1718 1.524 . S
C1715 C1707 1.503 . S
C1715 C1714 1.370 . S
C1715 C1716 1.403 . S
C1716 C1715 1.403 . S
C1716 C1717 1.404 . S
C1716 C1719 1.539 . S
C1717 C1713 1.408 . S
C1717 C1716 1.404 . S
C1717 H1729 0.930 . S
C1718 C1714 1.524 . S
C1718 H1730 0.956 . S
C1718 H1731 0.961 . S
C1718 H1732 0.961 . S
C1719 C1716 1.539 . S
C1719 H1733 0.958 . S
C1719 H1734 0.961 . S
C1719 H1735 0.960 . S
H1720 C1704 0.931 . S
H1721 C1709 0.929 . S
H1722 C1710 0.960 . S
H1723 C1710 0.962 . S
H1724 C1710 0.960 . S
H1725 C1711 0.961 . S
H1726 C1711 0.961 . S
H1727 C1711 0.961 . S
H1728 C1712 0.931 . S
H1729 C1717 0.930 . S
H1730 C1718 0.956 . S
H1731 C1718 0.961 . S
H1732 C1718 0.961 . S
H1733 C1719 0.958 . S
H1734 C1719 0.961 . S
H1735 C1719 0.960 . S
C1736 C1737 1.391 . S
C1736 C1738 1.394 . S
C1736 H1752 0.931 . S
C1737 C1736 1.391 . S
C1737 C1741 1.376 . S
C1738 C1736 1.394 . S
C1738 C1739 1.369 . S
C1738 C1742 1.531 . S
C1739 C1738 1.369 . S
C1739 C1740 1.410 . S
C1739 C1747 1.503 . S
C1740 C1739 1.410 . S
C1740 C1741 1.392 . S
C1740 C1743 1.511 . S
C1741 C1737 1.376 . S
C1741 C1740 1.392 . S
C1741 H1753 0.929 . S
C1742 C1738 1.531 . S
C1742 H1754 0.960 . S
C1742 H1755 0.962 . S
C1742 H1756 0.960 . S
C1743 C1740 1.511 . S
C1743 H1757 0.961 . S
C1743 H1758 0.961 . S
C1743 H1759 0.961 . S
C1744 C1745 1.370 . S
C1744 C1746 1.363 . S
C1744 H1760 0.931 . S
C1745 C1744 1.370 . S
C1745 C1749 1.408 . S
C1746 C1744 1.363 . S
C1746 C1747 1.370 . S
C1746 C1750 1.524 . S
C1747 C1739 1.503 . S
C1747 C1746 1.370 . S
C1747 C1748 1.403 . S
C1748 C1747 1.403 . S
C1748 C1749 1.404 . S
C1748 C1751 1.539 . S
C1749 C1745 1.408 . S
C1749 C1748 1.404 . S
C1749 H1761 0.930 . S
C1750 C1746 1.524 . S
C1750 H1762 0.956 . S
C1750 H1763 0.961 . S
C1750 H1764 0.961 . S
C1751 C1748 1.539 . S
C1751 H1765 0.958 . S
C1751 H1766 0.961 . S
C1751 H1767 0.960 . S
H1752 C1736 0.931 . S
H1753 C1741 0.929 . S
H1754 C1742 0.960 . S
H1755 C1742 0.962 . S
H1756 C1742 0.960 . S
H1757 C1743 0.961 . S
H1758 C1743 0.961 . S
H1759 C1743 0.961 . S
H1760 C1744 0.931 . S
H1761 C1749 0.930 . S
H1762 C1750 0.956 . S
H1763 C1750 0.961 . S
H1764 C1750 0.961 . S
H1765 C1751 0.958 . S
H1766 C1751 0.961 . S
H1767 C1751 0.960 . S
C1768 C1769 1.391 . S
C1768 C1770 1.394 . S
C1768 H1784 0.931 . S
C1769 C1768 1.391 . S
C1769 C1773 1.376 . S
C1770 C1768 1.394 . S
C1770 C1771 1.369 . S
C1770 C1774 1.531 . S
C1771 C1770 1.369 . S
C1771 C1772 1.410 . S
C1771 C1779 1.503 . S
C1772 C1771 1.410 . S
C1772 C1773 1.392 . S
C1772 C1775 1.511 . S
C1773 C1769 1.376 . S
C1773 C1772 1.392 . S
C1773 H1785 0.929 . S
C1774 C1770 1.531 . S
C1774 H1786 0.960 . S
C1774 H1787 0.962 . S
C1774 H1788 0.960 . S
C1775 C1772 1.511 . S
C1775 H1789 0.961 . S
C1775 H1790 0.961 . S
C1775 H1791 0.961 . S
C1776 C1777 1.370 . S
C1776 C1778 1.363 . S
C1776 H1792 0.931 . S
C1777 C1776 1.370 . S
C1777 C1781 1.408 . S
C1778 C1776 1.363 . S
C1778 C1779 1.370 . S
C1778 C1782 1.524 . S
C1779 C1771 1.503 . S
C1779 C1778 1.370 . S
C1779 C1780 1.403 . S
C1780 C1779 1.403 . S
C1780 C1781 1.404 . S
C1780 C1783 1.539 . S
C1781 C1777 1.408 . S
C1781 C1780 1.404 . S
C1781 H1793 0.930 . S
C1782 C1778 1.524 . S
C1782 H1794 0.956 . S
C1782 H1795 0.961 . S
C1782 H1796 0.961 . S
C1783 C1780 1.539 . S
C1783 H1797 0.958 . S
C1783 H1798 0.961 . S
C1783 H1799 0.960 . S
H1784 C1768 0.931 . S
H1785 C1773 0.929 . S
H1786 C1774 0.960 . S
H1787 C1774 0.962 . S
H1788 C1774 0.960 . S
H1789 C1775 0.961 . S
H1790 C1775 0.961 . S
H1791 C1775 0.961 . S
H1792 C1776 0.931 . S
H1793 C1781 0.930 . S
H1794 C1782 0.956 . S
H1795 C1782 0.961 . S
H1796 C1782 0.961 . S
H1797 C1783 0.958 . S
H1798 C1783 0.961 . S
H1799 C1783 0.960 . S
C1800 C1801 1.391 . S
C1800 C1802 1.394 . S
C1800 H1816 0.931 . S
C1801 C1800 1.391 . S
C1801 C1805 1.376 . S
C1802 C1800 1.394 . S
C1802 C1803 1.369 . S
C1802 C1806 1.531 . S
C1803 C1802 1.369 . S
C1803 C1804 1.410 . S
C1803 C1811 1.503 . S
C1804 C1803 1.410 . S
C1804 C1805 1.392 . S
C1804 C1807 1.511 . S
C1805 C1801 1.376 . S
C1805 C1804 1.392 . S
C1805 H1817 0.929 . S
C1806 C1802 1.531 . S
C1806 H1818 0.960 . S
C1806 H1819 0.962 . S
C1806 H1820 0.960 . S
C1807 C1804 1.511 . S
C1807 H1821 0.961 . S
C1807 H1822 0.961 . S
C1807 H1823 0.961 . S
C1808 C1809 1.370 . S
C1808 C1810 1.363 . S
C1808 H1824 0.931 . S
C1809 C1808 1.370 . S
C1809 C1813 1.408 . S
C1810 C1808 1.363 . S
C1810 C1811 1.370 . S
C1810 C1814 1.524 . S
C1811 C1803 1.503 . S
C1811 C1810 1.370 . S
C1811 C1812 1.403 . S
C1812 C1811 1.403 . S
C1812 C1813 1.404 . S
C1812 C1815 1.539 . S
C1813 C1809 1.408 . S
C1813 C1812 1.404 . S
C1813 H1825 0.930 . S
C1814 C1810 1.524 . S
C1814 H1826 0.956 . S
C1814 H1827 0.961 . S
C1814 H1828 0.961 . S
C1815 C1812 1.539 . S
C1815 H1829 0.958 . S
C1815 H1830 0.961 . S
C1815 H1831 0.960 . S
H1816 C1800 0.931 . S
H1817 C1805 0.929 . S
H1818 C1806 0.960 . S
H1819 C1806 0.962 . S
H1820 C1806 0.960 . S
H1821 C1807 0.961 . S
H1822 C1807 0.961 . S
H1823 C1807 0.961 . S
H1824 C1808 0.931 . S
H1825 C1813 0.930 . S
H1826 C1814 0.956 . S
H1827 C1814 0.961 . S
H1828 C1814 0.961 . S
H1829 C1815 0.958 . S
H1830 C1815 0.961 . S
H1831 C1815 0.960 . S
C1832 C1833 1.391 . S
C1832 C1834 1.394 . S
C1832 H1848 0.931 . S
C1833 C1832 1.391 . S
C1833 C1837 1.376 . S
C1834 C1832 1.394 . S
C1834 C1835 1.369 . S
C1834 C1838 1.531 . S
C1835 C1834 1.369 . S
C1835 C1836 1.410 . S
C1835 C1843 1.503 . S
C1836 C1835 1.410 . S
C1836 C1837 1.392 . S
C1836 C1839 1.511 . S
C1837 C1833 1.376 . S
C1837 C1836 1.392 . S
C1837 H1849 0.929 . S
C1838 C1834 1.531 . S
C1838 H1850 0.960 . S
C1838 H1851 0.962 . S
C1838 H1852 0.960 . S
C1839 C1836 1.511 . S
C1839 H1853 0.961 . S
C1839 H1854 0.961 . S
C1839 H1855 0.961 . S
C1840 C1841 1.370 . S
C1840 C1842 1.363 . S
C1840 H1856 0.931 . S
C1841 C1840 1.370 . S
C1841 C1845 1.408 . S
C1842 C1840 1.363 . S
C1842 C1843 1.370 . S
C1842 C1846 1.524 . S
C1843 C1835 1.503 . S
C1843 C1842 1.370 . S
C1843 C1844 1.403 . S
C1844 C1843 1.403 . S
C1844 C1845 1.404 . S
C1844 C1847 1.539 . S
C1845 C1841 1.408 . S
C1845 C1844 1.404 . S
C1845 H1857 0.930 . S
C1846 C1842 1.524 . S
C1846 H1858 0.956 . S
C1846 H1859 0.961 . S
C1846 H1860 0.961 . S
C1847 C1844 1.539 . S
C1847 H1861 0.958 . S
C1847 H1862 0.961 . S
C1847 H1863 0.960 . S
H1848 C1832 0.931 . S
H1849 C1837 0.929 . S
H1850 C1838 0.960 . S
H1851 C1838 0.962 . S
H1852 C1838 0.960 . S
H1853 C1839 0.961 . S
H1854 C1839 0.961 . S
H1855 C1839 0.961 . S
H1856 C1840 0.931 . S
H1857 C1845 0.930 . S
H1858 C1846 0.956 . S
H1859 C1846 0.961 . S
H1860 C1846 0.961 . S
H1861 C1847 0.958 . S
H1862 C1847 0.961 . S
H1863 C1847 0.960 . S
C1864 C1865 1.391 . S
C1864 C1866 1.394 . S
C1864 H1880 0.931 . S
C1865 C1864 1.391 . S
C1865 C1869 1.376 . S
C1866 C1864 1.394 . S
C1866 C1867 1.369 . S
C1866 C1870 1.531 . S
C1867 C1866 1.369 . S
C1867 C1868 1.410 . S
C1867 C1875 1.503 . S
C1868 C1867 1.410 . S
C1868 C1869 1.392 . S
C1868 C1871 1.511 . S
C1869 C1865 1.376 . S
C1869 C1868 1.392 . S
C1869 H1881 0.929 . S
C1870 C1866 1.531 . S
C1870 H1882 0.960 . S
C1870 H1883 0.962 . S
C1870 H1884 0.960 . S
C1871 C1868 1.511 . S
C1871 H1885 0.961 . S
C1871 H1886 0.961 . S
C1871 H1887 0.961 . S
C1872 C1873 1.370 . S
C1872 C1874 1.363 . S
C1872 H1888 0.931 . S
C1873 C1872 1.370 . S
C1873 C1877 1.408 . S
C1874 C1872 1.363 . S
C1874 C1875 1.370 . S
C1874 C1878 1.524 . S
C1875 C1867 1.503 . S
C1875 C1874 1.370 . S
C1875 C1876 1.403 . S
C1876 C1875 1.403 . S
C1876 C1877 1.404 . S
C1876 C1879 1.539 . S
C1877 C1873 1.408 . S
C1877 C1876 1.404 . S
C1877 H1889 0.930 . S
C1878 C1874 1.524 . S
C1878 H1890 0.956 . S
C1878 H1891 0.961 . S
C1878 H1892 0.961 . S
C1879 C1876 1.539 . S
C1879 H1893 0.958 . S
C1879 H1894 0.961 . S
C1879 H1895 0.960 . S
H1880 C1864 0.931 . S
H1881 C1869 0.929 . S
H1882 C1870 0.960 . S
H1883 C1870 0.962 . S
H1884 C1870 0.960 . S
H1885 C1871 0.961 . S
H1886 C1871 0.961 . S
H1887 C1871 0.961 . S
H1888 C1872 0.931 . S
H1889 C1877 0.930 . S
H1890 C1878 0.956 . S
H1891 C1878 0.961 . S
H1892 C1878 0.961 . S
H1893 C1879 0.958 . S
H1894 C1879 0.961 . S
H1895 C1879 0.960 . S
C1896 C1897 1.391 . S
C1896 C1898 1.394 . S
C1896 H1912 0.931 . S
C1897 C1896 1.391 . S
C1897 C1901 1.376 . S
C1898 C1896 1.394 . S
C1898 C1899 1.369 . S
C1898 C1902 1.531 . S
C1899 C1898 1.369 . S
C1899 C1900 1.410 . S
C1899 C1907 1.503 . S
C1900 C1899 1.410 . S
C1900 C1901 1.392 . S
C1900 C1903 1.511 . S
C1901 C1897 1.376 . S
C1901 C1900 1.392 . S
C1901 H1913 0.929 . S
C1902 C1898 1.531 . S
C1902 H1914 0.960 . S
C1902 H1915 0.962 . S
C1902 H1916 0.960 . S
C1903 C1900 1.511 . S
C1903 H1917 0.961 . S
C1903 H1918 0.961 . S
C1903 H1919 0.961 . S
C1904 C1905 1.370 . S
C1904 C1906 1.363 . S
C1904 H1920 0.931 . S
C1905 C1904 1.370 . S
C1905 C1909 1.408 . S
C1906 C1904 1.363 . S
C1906 C1907 1.370 . S
C1906 C1910 1.524 . S
C1907 C1899 1.503 . S
C1907 C1906 1.370 . S
C1907 C1908 1.403 . S
C1908 C1907 1.403 . S
C1908 C1909 1.404 . S
C1908 C1911 1.539 . S
C1909 C1905 1.408 . S
C1909 C1908 1.404 . S
C1909 H1921 0.930 . S
C1910 C1906 1.524 . S
C1910 H1922 0.956 . S
C1910 H1923 0.961 . S
C1910 H1924 0.961 . S
C1911 C1908 1.539 . S
C1911 H1925 0.958 . S
C1911 H1926 0.961 . S
C1911 H1927 0.960 . S
H1912 C1896 0.931 . S
H1913 C1901 0.929 . S
H1914 C1902 0.960 . S
H1915 C1902 0.962 . S
H1916 C1902 0.960 . S
H1917 C1903 0.961 . S
H1918 C1903 0.961 . S
H1919 C1903 0.961 . S
H1920 C1904 0.931 . S
H1921 C1909 0.930 . S
H1922 C1910 0.956 . S
H1923 C1910 0.961 . S
H1924 C1910 0.961 . S
H1925 C1911 0.958 . S
H1926 C1911 0.961 . S
H1927 C1911 0.960 . S
C1928 C1929 1.391 . S
C1928 C1930 1.394 . S
C1928 H1944 0.931 . S
C1929 C1928 1.391 . S
C1929 C1933 1.376 . S
C1930 C1928 1.394 . S
C1930 C1931 1.369 . S
C1930 C1934 1.531 . S
C1931 C1930 1.369 . S
C1931 C1932 1.410 . S
C1931 C1939 1.503 . S
C1932 C1931 1.410 . S
C1932 C1933 1.392 . S
C1932 C1935 1.511 . S
C1933 C1929 1.376 . S
C1933 C1932 1.392 . S
C1933 H1945 0.929 . S
C1934 C1930 1.531 . S
C1934 H1946 0.960 . S
C1934 H1947 0.962 . S
C1934 H1948 0.960 . S
C1935 C1932 1.511 . S
C1935 H1949 0.961 . S
C1935 H1950 0.961 . S
C1935 H1951 0.961 . S
C1936 C1937 1.370 . S
C1936 C1938 1.363 . S
C1936 H1952 0.931 . S
C1937 C1936 1.370 . S
C1937 C1941 1.408 . S
C1938 C1936 1.363 . S
C1938 C1939 1.370 . S
C1938 C1942 1.524 . S
C1939 C1931 1.503 . S
C1939 C1938 1.370 . S
C1939 C1940 1.403 . S
C1940 C1939 1.403 . S
C1940 C1941 1.404 . S
C1940 C1943 1.539 . S
C1941 C1937 1.408 . S
C1941 C1940 1.404 . S
C1941 H1953 0.930 . S
C1942 C1938 1.524 . S
C1942 H1954 0.956 . S
C1942 H1955 0.961 . S
C1942 H1956 0.961 . S
C1943 C1940 1.539 . S
C1943 H1957 0.958 . S
C1943 H1958 0.961 . S
C1943 H1959 0.960 . S
H1944 C1928 0.931 . S
H1945 C1933 0.929 . S
H1946 C1934 0.960 . S
H1947 C1934 0.962 . S
H1948 C1934 0.960 . S
H1949 C1935 0.961 . S
H1950 C1935 0.961 . S
H1951 C1935 0.961 . S
H1952 C1936 0.931 . S
H1953 C1941 0.930 . S
H1954 C1942 0.956 . S
H1955 C1942 0.961 . S
H1956 C1942 0.961 . S
H1957 C1943 0.958 . S
H1958 C1943 0.961 . S
H1959 C1943 0.960 . S
C1960 C1961 1.391 . S
C1960 C1962 1.394 . S
C1960 H1976 0.931 . S
C1961 C1960 1.391 . S
C1961 C1965 1.376 . S
C1962 C1960 1.394 . S
C1962 C1963 1.369 . S
C1962 C1966 1.531 . S
C1963 C1962 1.369 . S
C1963 C1964 1.410 . S
C1963 C1971 1.503 . S
C1964 C1963 1.410 . S
C1964 C1965 1.392 . S
C1964 C1967 1.511 . S
C1965 C1961 1.376 . S
C1965 C1964 1.392 . S
C1965 H1977 0.929 . S
C1966 C1962 1.531 . S
C1966 H1978 0.960 . S
C1966 H1979 0.962 . S
C1966 H1980 0.960 . S
C1967 C1964 1.511 . S
C1967 H1981 0.961 . S
C1967 H1982 0.961 . S
C1967 H1983 0.961 . S
C1968 C1969 1.370 . S
C1968 C1970 1.363 . S
C1968 H1984 0.931 . S
C1969 C1968 1.370 . S
C1969 C1973 1.408 . S
C1970 C1968 1.363 . S
C1970 C1971 1.370 . S
C1970 C1974 1.524 . S
C1971 C1963 1.503 . S
C1971 C1970 1.370 . S
C1971 C1972 1.403 . S
C1972 C1971 1.403 . S
C1972 C1973 1.404 . S
C1972 C1975 1.539 . S
C1973 C1969 1.408 . S
C1973 C1972 1.404 . S
C1973 H1985 0.930 . S
C1974 C1970 1.524 . S
C1974 H1986 0.956 . S
C1974 H1987 0.961 . S
C1974 H1988 0.961 . S
C1975 C1972 1.539 . S
C1975 H1989 0.958 . S
C1975 H1990 0.961 . S
C1975 H1991 0.960 . S
H1976 C1960 0.931 . S
H1977 C1965 0.929 . S
H1978 C1966 0.960 . S
H1979 C1966 0.962 . S
H1980 C1966 0.960 . S
H1981 C1967 0.961 . S
H1982 C1967 0.961 . S
H1983 C1967 0.961 . S
H1984 C1968 0.931 . S
H1985 C1973 0.930 . S
H1986 C1974 0.956 . S
H1987 C1974 0.961 . S
H1988 C1974 0.961 . S
H1989 C1975 0.958 . S
H1990 C1975 0.961 . S
H1991 C1975 0.960 . S
C1992 C1993 1.391 . S
C1992 C1994 1.394 . S
C1992 H2008 0.931 . S
C1993 C1992 1.391 . S
C1993 C1997 1.376 . S
C1994 C1992 1.394 . S
C1994 C1995 1.369 . S
C1994 C1998 1.531 . S
C1995 C1994 1.369 . S
C1995 C1996 1.410 . S
C1995 C2003 1.503 . S
C1996 C1995 1.410 . S
C1996 C1997 1.392 . S
C1996 C1999 1.511 . S
C1997 C1993 1.376 . S
C1997 C1996 1.392 . S
C1997 H2009 0.929 . S
C1998 C1994 1.531 . S
C1998 H2010 0.960 . S
C1998 H2011 0.962 . S
C1998 H2012 0.960 . S
C1999 C1996 1.511 . S
C1999 H2013 0.961 . S
C1999 H2014 0.961 . S
C1999 H2015 0.961 . S
C2000 C2001 1.370 . S
C2000 C2002 1.363 . S
C2000 H2016 0.931 . S
C2001 C2000 1.370 . S
C2001 C2005 1.408 . S
C2002 C2000 1.363 . S
C2002 C2003 1.370 . S
C2002 C2006 1.524 . S
C2003 C1995 1.503 . S
C2003 C2002 1.370 . S
C2003 C2004 1.403 . S
C2004 C2003 1.403 . S
C2004 C2005 1.404 . S
C2004 C2007 1.539 . S
C2005 C2001 1.408 . S
C2005 C2004 1.404 . S
C2005 H2017 0.930 . S
C2006 C2002 1.524 . S
C2006 H2018 0.956 . S
C2006 H2019 0.961 . S
C2006 H2020 0.961 . S
C2007 C2004 1.539 . S
C2007 H2021 0.958 . S
C2007 H2022 0.961 . S
C2007 H2023 0.960 . S
H2008 C1992 0.931 . S
H2009 C1997 0.929 . S
H2010 C1998 0.960 . S
H2011 C1998 0.962 . S
H2012 C1998 0.960 . S
H2013 C1999 0.961 . S
H2014 C1999 0.961 . S
H2015 C1999 0.961 . S
H2016 C2000 0.931 . S
H2017 C2005 0.930 . S
H2018 C2006 0.956 . S
H2019 C2006 0.961 . S
H2020 C2006 0.961 . S
H2021 C2007 0.958 . S
H2022 C2007 0.961 . S
H2023 C2007 0.960 . S
C2024 C2025 1.391 . S
C2024 C2026 1.394 . S
C2024 H2040 0.931 . S
C2025 C2024 1.391 . S
C2025 C2029 1.376 . S
C2026 C2024 1.394 . S
C2026 C2027 1.369 . S
C2026 C2030 1.531 . S
C2027 C2026 1.369 . S
C2027 C2028 1.410 . S
C2027 C2035 1.503 . S
C2028 C2027 1.410 . S
C2028 C2029 1.392 . S
C2028 C2031 1.511 . S
C2029 C2025 1.376 . S
C2029 C2028 1.392 . S
C2029 H2041 0.929 . S
C2030 C2026 1.531 . S
C2030 H2042 0.960 . S
C2030 H2043 0.962 . S
C2030 H2044 0.960 . S
C2031 C2028 1.511 . S
C2031 H2045 0.961 . S
C2031 H2046 0.961 . S
C2031 H2047 0.961 . S
C2032 C2033 1.370 . S
C2032 C2034 1.363 . S
C2032 H2048 0.931 . S
C2033 C2032 1.370 . S
C2033 C2037 1.408 . S
C2034 C2032 1.363 . S
C2034 C2035 1.370 . S
C2034 C2038 1.524 . S
C2035 C2027 1.503 . S
C2035 C2034 1.370 . S
C2035 C2036 1.403 . S
C2036 C2035 1.403 . S
C2036 C2037 1.404 . S
C2036 C2039 1.539 . S
C2037 C2033 1.408 . S
C2037 C2036 1.404 . S
C2037 H2049 0.930 . S
C2038 C2034 1.524 . S
C2038 H2050 0.956 . S
C2038 H2051 0.961 . S
C2038 H2052 0.961 . S
C2039 C2036 1.539 . S
C2039 H2053 0.958 . S
C2039 H2054 0.961 . S
C2039 H2055 0.960 . S
H2040 C2024 0.931 . S
H2041 C2029 0.929 . S
H2042 C2030 0.960 . S
H2043 C2030 0.962 . S
H2044 C2030 0.960 . S
H2045 C2031 0.961 . S
H2046 C2031 0.961 . S
H2047 C2031 0.961 . S
H2048 C2032 0.931 . S
H2049 C2037 0.930 . S
H2050 C2038 0.956 . S
H2051 C2038 0.961 . S
H2052 C2038 0.961 . S
H2053 C2039 0.958 . S
H2054 C2039 0.961 . S
H2055 C2039 0.960 . S
C2056 C2057 1.391 . S
C2056 C2058 1.394 . S
C2056 H2072 0.931 . S
C2057 C2056 1.391 . S
C2057 C2061 1.376 . S
C2058 C2056 1.394 . S
C2058 C2059 1.369 . S
C2058 C2062 1.531 . S
C2059 C2058 1.369 . S
C2059 C2060 1.410 . S
C2059 C2067 1.503 . S
C2060 C2059 1.410 . S
C2060 C2061 1.392 . S
C2060 C2063 1.511 . S
C2061 C2057 1.376 . S
C2061 C2060 1.392 . S
C2061 H2073 0.929 . S
C2062 C2058 1.531 . S
C2062 H2074 0.960 . S
C2062 H2075 0.962 . S
C2062 H2076 0.960 . S
C2063 C2060 1.511 . S
C2063 H2077 0.961 . S
C2063 H2078 0.961 . S
C2063 H2079 0.961 . S
C2064 C2065 1.370 . S
C2064 C2066 1.363 . S
C2064 H2080 0.931 . S
C2065 C2064 1.370 . S
C2065 C2069 1.408 . S
C2066 C2064 1.363 . S
C2066 C2067 1.370 . S
C2066 C2070 1.524 . S
C2067 C2059 1.503 . S
C2067 C2066 1.370 . S
C2067 C2068 1.403 . S
C2068 C2067 1.403 . S
C2068 C2069 1.404 . S
C2068 C2071 1.539 . S
C2069 C2065 1.408 . S
C2069 C2068 1.404 . S
C2069 H2081 0.930 . S
C2070 C2066 1.524 . S
C2070 H2082 0.956 . S
C2070 H2083 0.961 . S
C2070 H2084 0.961 . S
C2071 C2068 1.539 . S
C2071 H2085 0.958 . S
C2071 H2086 0.961 . S
C2071 H2087 0.960 . S
H2072 C2056 0.931 . S
H2073 C2061 0.929 . S
H2074 C2062 0.960 . S
H2075 C2062 0.962 . S
H2076 C2062 0.960 . S
H2077 C2063 0.961 . S
H2078 C2063 0.961 . S
H2079 C2063 0.961 . S
H2080 C2064 0.931 . S
H2081 C2069 0.930 . S
H2082 C2070 0.956 . S
H2083 C2070 0.961 . S
H2084 C2070 0.961 . S
H2085 C2071 0.958 . S
H2086 C2071 0.961 . S
H2087 C2071 0.960 . S
C553 C522 1.964 . S
C561 N12 2.062 . S
C585 C39 2.071 . S
C593 N380 2.182 . S
C617 C545 1.854 . S
C625 N58 1.975 . S
C649 N495 2.094 . S
C657 N81 2.111 . S
C681 N426 2.198 . S
C689 N104 2.194 . S
C713 C453 2.150 . S
C721 N127 2.102 . S
C745 N472 2.242 . S
C753 C154 2.279 . S
C777 C177 1.995 . S
C785 C407 2.175 . S
C809 C315 2.250 . S
C817 C200 2.397 . S
C841 N334 1.982 . S
C849 N219 1.986 . S
C873 C246 2.383 . S
C881 C361 2.283 . S
C905 N265 2.037 . S
C913 N288 2.022 . S
C937 N173 2.148 . S
C945 C338 2.073 . S
C969 N357 2.201 . S
C977 C108 2.120 . S
C1001 C131 2.087 . S
C1009 C292 1.942 . S
C1033 N311 2.098 . S
C1041 N150 2.080 . S
C1065 N242 2.116 . S
C1073 N35 2.129 . S
C1097 C62 1.898 . S
C1105 C269 2.102 . S
C1129 C85 2.215 . S
C1137 N196 2.178 . S
C1161 C16 1.981 . S
C1169 C223 2.153 . S
C1193 C476 2.343 . S
C1201 C499 2.255 . S
C1225 N518 1.962 . S
C1233 N403 1.954 . S
C1257 C430 2.433 . S
C1265 C384 2.310 . S
C1289 N541 1.911 . S
C1297 N449 1.942 . S
C1321 N2 1.015 . S
C1329 N186 1.015 . S
C1353 C214 1.615 . S
C1361 C30 1.626 . S
C1385 N48 0.938 . S
C1393 N232 1.009 . S
C1417 N71 1.152 . S
C1425 C260 1.302 . S
C1449 N94 1.245 . S
C1457 C283 1.394 . S
C1481 N117 1.058 . S
C1489 N301 1.070 . S
C1513 C329 1.665 . S
C1521 C145 1.651 . S
C1545 N347 1.293 . S
C1553 C168 1.439 . S
C1577 C191 1.749 . S
C1585 C375 1.795 . S
C1609 N209 0.901 . S
C1617 N531 1.005 . S
C1641 C490 1.764 . S
C1649 C237 1.745 . S
C1673 N508 1.001 . S
C1681 N255 1.046 . S
C1705 N393 1.000 . S
C1713 N278 1.034 . S
C1737 C421 1.767 . S
C1745 C306 1.755 . S
C1769 N324 1.029 . S
C1777 N439 1.030 . S
C1801 C352 1.750 . S
C1809 C467 1.732 . S
C1833 C7 1.453 . S
C1841 N370 1.330 . S
C1865 C398 1.630 . S
C1873 C99 1.618 . S
C1897 N416 1.140 . S
C1905 C122 1.332 . S
C1929 C444 1.335 . S
C1937 N140 1.212 . S
C1961 N462 1.127 . S
C1969 N163 1.090 . S
C1993 N485 1.363 . S
C2001 C53 1.433 . S
C2025 C76 1.599 . S
C2033 C513 1.610 . S
C2057 C536 1.459 . S
C2065 N25 1.327 . S
