# Generated by pormake.
# Topology tfs, (6)-cn, num edge types: 1
# Building blocks:
#     Node 0, Type 0, BuildingBlock: JUFBIX_clean_sbu_0, # of connection points: 6
#     Node 1, Type 0, BuildingBlock: JUFBIX_clean_sbu_0, # of connection points: 6
#     Node 2, Type 0, BuildingBlock: JUFBIX_clean_sbu_0, # of connection points: 6
#     Node 3, Type 0, BuildingBlock: JUFBIX_clean_sbu_0, # of connection points: 6
#     Node 4, Type 0, BuildingBlock: JUFBIX_clean_sbu_0, # of connection points: 6
#     Node 5, Type 0, BuildingBlock: JUFBIX_clean_sbu_0, # of connection points: 6
#     Edge 6, Type (0, 0), BuildingBlock: KIFKEQ_clean_linker_1, # of connection points: 2
#     Edge 7, Type (0, 0), BuildingBlock: KIFKEQ_clean_linker_1, # of connection points: 2
#     Edge 8, Type (0, 0), BuildingBlock: KIFKEQ_clean_linker_1, # of connection points: 2
#     Edge 9, Type (0, 0), BuildingBlock: KIFKEQ_clean_linker_1, # of connection points: 2
#     Edge 10, Type (0, 0), BuildingBlock: KIFKEQ_clean_linker_1, # of connection points: 2
#     Edge 11, Type (0, 0), BuildingBlock: KIFKEQ_clean_linker_1, # of connection points: 2
#     Edge 12, Type (0, 0), BuildingBlock: KIFKEQ_clean_linker_1, # of connection points: 2
#     Edge 13, Type (0, 0), BuildingBlock: KIFKEQ_clean_linker_1, # of connection points: 2
#     Edge 14, Type (0, 0), BuildingBlock: KIFKEQ_clean_linker_1, # of connection points: 2
#     Edge 15, Type (0, 0), BuildingBlock: KIFKEQ_clean_linker_1, # of connection points: 2
#     Edge 16, Type (0, 0), BuildingBlock: KIFKEQ_clean_linker_1, # of connection points: 2
#     Edge 17, Type (0, 0), BuildingBlock: KIFKEQ_clean_linker_1, # of connection points: 2
#     Edge 18, Type (0, 0), BuildingBlock: KIFKEQ_clean_linker_1, # of connection points: 2
#     Edge 19, Type (0, 0), BuildingBlock: KIFKEQ_clean_linker_1, # of connection points: 2
#     Edge 20, Type (0, 0), BuildingBlock: KIFKEQ_clean_linker_1, # of connection points: 2
#     Edge 21, Type (0, 0), BuildingBlock: KIFKEQ_clean_linker_1, # of connection points: 2
#     Edge 22, Type (0, 0), BuildingBlock: KIFKEQ_clean_linker_1, # of connection points: 2
#     Edge 23, Type (0, 0), BuildingBlock: KIFKEQ_clean_linker_1, # of connection points: 2
# Relax obj value: 0.288
# Max RMSD: 0.224
# Mean RMSD: 0.177
data_MOF--net-tfs--node1-JUFBIX_clean_sbu_0--edge1-KIFKEQ_clean_linker_1
_symmetry_space_group_name_H-M    P1
_symmetry_Int_Tables_number       1
_symmetry_cell_setting            triclinic
loop_
_symmetry_equiv_pos_as_xyz
'x, y, z'
_cell_length_a     43.819625
_cell_length_b     47.457172
_cell_length_c     15.18053
_cell_angle_alpha  90.290715
_cell_angle_beta   92.550555
_cell_angle_gamma 112.62342
loop_
_atom_site_label
_atom_site_type_symbol
_atom_site_fract_x
_atom_site_fract_y
_atom_site_fract_z
_atom_type_partial_charge
Co0 Co 0.26165 0.40762 0.00632 0.0
C1 C 0.23268 0.39124 0.16942 0.0
Co2 Co 0.20814 0.37828 0.99875 0.0
C3 C 0.3206 0.46298 0.99923 0.0
C4 C 0.32944 0.42766 0.06949 0.0
N5 N 0.30596 0.43338 0.02116 0.0
N6 N 0.35201 0.47604 0.03333 0.0
C7 C 0.35771 0.45377 0.07701 0.0
H8 H 0.30785 0.47521 0.96334 0.0
H9 H 0.32575 0.40628 0.101 0.0
C10 C 0.23709 0.39483 0.83568 0.0
N11 N 0.1637 0.35173 0.98467 0.0
C12 C 0.13571 0.35287 0.01606 0.0
C13 C 0.15332 0.32521 0.93761 0.0
N14 N 0.1086 0.3278 0.99137 0.0
C15 C 0.1197 0.31044 0.94214 0.0
C16 C 0.22025 0.44012 1.00283 0.0
O17 O 0.26348 0.40971 0.88176 0.0
O18 O 0.21074 0.37965 0.8741 0.0
O19 O 0.19644 0.41396 0.99634 0.0
O20 O 0.24972 0.44148 0.00908 0.0
O21 O 0.20603 0.37726 0.12341 0.0
H22 H 0.16921 0.31706 0.90175 0.0
H23 H 0.13526 0.37142 0.05706 0.0
O24 O 0.25933 0.40531 0.13088 0.0
O25 O 0.27347 0.37359 1.00266 0.0
O26 O 0.22109 0.34329 1.00163 0.0
C27 C 0.2514 0.34681 1.00127 0.0
H28 H 0.38041 0.45633 0.11369 0.0
H29 H 0.10444 0.28882 0.91027 0.0
Co30 Co 0.79551 0.23529 0.02209 0.0
C31 C 0.80363 0.26318 0.19115 0.0
Co32 Co 0.80682 0.28516 0.02534 0.0
C33 C 0.75995 0.16906 0.99269 0.0
C34 C 0.80519 0.1812 0.07133 0.0
N35 N 0.78568 0.19341 0.02864 0.0
N36 N 0.76325 0.14245 0.01037 0.0
C37 C 0.79166 0.15004 0.05957 0.0
H38 H 0.73966 0.17084 0.95295 0.0
H39 H 0.82802 0.19417 0.10845 0.0
C40 C 0.79865 0.25708 0.85609 0.0
N41 N 0.81922 0.32748 0.01594 0.0
C42 C 0.81184 0.34911 0.05847 0.0
C43 C 0.84202 0.34329 0.9587 0.0
N44 N 0.82955 0.37761 0.0299 0.0
C45 C 0.84827 0.37368 0.96683 0.0
C46 C 0.86299 0.27064 0.02715 0.0
O47 O 0.79245 0.23238 0.89709 0.0
O48 O 0.80539 0.2818 0.89985 0.0
O49 O 0.85245 0.29197 0.03114 0.0
O50 O 0.84212 0.2432 0.02064 0.0
O51 O 0.80784 0.28762 0.14999 0.0
H52 H 0.85384 0.33333 0.91393 0.0
H53 H 0.79441 0.34413 0.11017 0.0
O54 O 0.79864 0.23863 0.14773 0.0
O55 O 0.74943 0.2284 0.02316 0.0
O56 O 0.76093 0.27786 0.02129 0.0
C57 C 0.73962 0.25047 0.02261 0.0
H58 H 0.80175 0.13406 0.08564 0.0
H59 H 0.86506 0.39152 0.92793 0.0
Co60 Co 0.5785 0.77702 0.03847 0.0
C61 C 0.59239 0.80648 0.87449 0.0
Co62 Co 0.60152 0.82775 0.0439 0.0
C63 C 0.53014 0.7138 0.04171 0.0
C64 C 0.57281 0.7196 0.96888 0.0
N65 N 0.55963 0.73495 0.01991 0.0
N66 N 0.52449 0.68608 0.00513 0.0
C67 C 0.55139 0.68971 0.95982 0.0
H68 H 0.51257 0.7189 0.08007 0.0
H69 H 0.5961 0.72975 0.93736 0.0
C70 C 0.58701 0.79787 0.20776 0.0
N71 N 0.62267 0.87026 0.06195 0.0
C72 C 0.62575 0.89456 0.01093 0.0
C73 C 0.64321 0.88253 0.13332 0.0
N74 N 0.6475 0.92111 0.04838 0.0
C75 C 0.65826 0.91344 0.12527 0.0
C76 C 0.53255 0.80432 0.0321 0.0
O77 O 0.57608 0.77294 0.16294 0.0
O78 O 0.59852 0.82299 0.16799 0.0
O79 O 0.5579 0.82948 0.03794 0.0
O80 O 0.53661 0.77921 0.0309 0.0
O81 O 0.60374 0.83147 0.91908 0.0
H82 H 0.64846 0.8697 0.18636 0.0
H83 H 0.61392 0.89268 0.94582 0.0
O84 O 0.58094 0.7814 0.91455 0.0
O85 O 0.62052 0.77517 0.0464 0.0
O86 O 0.64469 0.82509 0.0498 0.0
C87 C 0.6467 0.79906 0.0505 0.0
H88 H 0.55512 0.67204 0.92177 0.0
H89 H 0.67683 0.92909 0.17091 0.0
Co90 Co 0.82133 0.64248 0.05787 0.0
C91 C 0.79093 0.62652 0.21944 0.0
Co92 Co 0.76784 0.61289 0.04764 0.0
C93 C 0.8942 0.67013 0.04186 0.0
C94 C 0.87514 0.69311 0.13269 0.0
N95 N 0.86564 0.66912 0.07547 0.0
N96 N 0.92101 0.694 0.07596 0.0
C97 C 0.90878 0.70825 0.13331 0.0
H98 H 0.89522 0.65374 0.99343 0.0
H99 H 0.85859 0.69905 0.17274 0.0
C100 C 0.79825 0.62851 0.88614 0.0
N101 N 0.72359 0.58697 0.03062 0.0
C102 C 0.70838 0.55782 0.05613 0.0
C103 C 0.70078 0.59216 0.97793 0.0
N104 N 0.67721 0.54452 0.02032 0.0
C105 C 0.67231 0.5662 0.9716 0.0
C106 C 0.77813 0.67374 0.04625 0.0
O107 O 0.82435 0.64384 0.93287 0.0
O108 O 0.77169 0.61355 0.92392 0.0
O109 O 0.75609 0.64693 0.04192 0.0
O110 O 0.80846 0.6774 0.05481 0.0
O111 O 0.76446 0.61241 0.17268 0.0
H112 H 0.70502 0.61304 0.94302 0.0
H113 H 0.72053 0.54605 0.09631 0.0
O114 O 0.81767 0.64063 0.18158 0.0
O115 O 0.83312 0.60698 0.0612 0.0
O116 O 0.77982 0.57912 0.05277 0.0
C117 C 0.80939 0.58074 0.05844 0.0
H118 H 0.92311 0.72785 0.17504 0.0
H119 H 0.64999 0.56336 0.9326 0.0
Co120 Co 0.22398 0.73666 0.05926 0.0
C121 C 0.23134 0.76475 0.22732 0.0
Co122 Co 0.23466 0.78655 0.06026 0.0
C123 C 0.21939 0.67278 0.02473 0.0
C124 C 0.18976 0.67828 0.12643 0.0
N125 N 0.21213 0.69428 0.06845 0.0
N126 N 0.20204 0.64418 0.05333 0.0
C127 C 0.18368 0.64792 0.11764 0.0
H128 H 0.23639 0.67789 0.97195 0.0
H129 H 0.17801 0.68805 0.17197 0.0
C130 C 0.22734 0.75871 0.8924 0.0
N131 N 0.24418 0.82853 0.05374 0.0
C132 C 0.27052 0.85302 0.08652 0.0
C133 C 0.22427 0.84066 0.01275 0.0
N134 N 0.26734 0.87973 0.06857 0.0
C135 C 0.23825 0.8719 0.02224 0.0
C136 C 0.29107 0.77205 0.06299 0.0
O137 O 0.22309 0.73432 0.93406 0.0
O138 O 0.23226 0.78333 0.93525 0.0
O139 O 0.28083 0.79384 0.06103 0.0
O140 O 0.27007 0.74452 0.06409 0.0
O141 O 0.23697 0.78929 0.18571 0.0
H142 H 0.20106 0.82765 0.97734 0.0
H143 H 0.29143 0.85132 0.12345 0.0
O144 O 0.22531 0.74003 0.18424 0.0
O145 O 0.17817 0.72935 0.05384 0.0
O146 O 0.18795 0.77811 0.05897 0.0
C147 C 0.16732 0.75054 0.05494 0.0
H148 H 0.16714 0.62996 0.15672 0.0
H149 H 0.22814 0.88775 0.99527 0.0
Co150 Co 0.42849 0.19363 0.03996 0.0
C151 C 0.44117 0.22342 0.87582 0.0
Co152 Co 0.45028 0.2444 0.04519 0.0
C153 C 0.4088 0.12716 0.07254 0.0
C154 C 0.39076 0.13748 0.94859 0.0
N155 N 0.40913 0.15091 0.0224 0.0
N156 N 0.39166 0.09985 0.03113 0.0
C157 C 0.38041 0.10641 0.95339 0.0
H158 H 0.42087 0.12978 0.13756 0.0
H159 H 0.38464 0.14941 0.8945 0.0
C160 C 0.43819 0.21502 0.2094 0.0
N161 N 0.46829 0.28656 0.06282 0.0
C162 C 0.497 0.30803 0.0375 0.0
C163 C 0.45546 0.30175 0.1155 0.0
N164 N 0.50259 0.33584 0.0734 0.0
C165 C 0.47635 0.3319 0.12196 0.0
C166 C 0.38192 0.22072 0.03639 0.0
O167 O 0.42614 0.19006 0.1647 0.0
O168 O 0.44993 0.24011 0.16941 0.0
O169 O 0.40772 0.24494 0.04322 0.0
O170 O 0.38461 0.19496 0.03217 0.0
O171 O 0.45056 0.24835 0.92037 0.0
H172 H 0.4328 0.29136 0.14969 0.0
H173 H 0.51412 0.30313 0.99684 0.0
O174 O 0.43157 0.19833 0.91597 0.0
O175 O 0.47285 0.19333 0.04689 0.0
O176 O 0.49267 0.24352 0.04612 0.0
C177 C 0.49764 0.21886 0.04625 0.0
H178 H 0.36492 0.08976 0.90449 0.0
H179 H 0.47267 0.34951 0.16038 0.0
H180 H 0.3475 0.22224 0.88581 0.0
H181 H 0.34721 0.23032 0.1685 0.0
H182 H 0.30721 0.24634 0.86974 0.0
H183 H 0.30652 0.25404 0.15291 0.0
H184 H 0.22467 0.29127 0.08163 0.0
H185 H 0.24737 0.25108 0.08656 0.0
H186 H 0.3238 0.3036 0.91505 0.0
H187 H 0.30197 0.34367 0.91235 0.0
C188 C 0.33742 0.22769 0.94444 0.0
C189 C 0.34985 0.22392 0.02835 0.0
C190 C 0.31466 0.24176 0.93534 0.0
C191 C 0.30384 0.25219 0.0101 0.0
C192 C 0.31408 0.24591 0.09421 0.0
C193 C 0.33723 0.23221 0.10322 0.0
C194 C 0.24598 0.29384 0.04404 0.0
C195 C 0.26168 0.32058 0.99691 0.0
C196 C 0.25898 0.27096 0.047 0.0
C197 C 0.28719 0.27412 1.00059 0.0
C198 C 0.30179 0.30028 0.95044 0.0
C199 C 0.28942 0.32333 0.9494 0.0
H200 H 0.07614 0.36613 0.98988 0.0
H201 H 0.06383 0.27282 0.03278 0.0
H202 H 0.01668 0.35208 1.00191 0.0
H203 H 1.0048 0.2587 0.04964 0.0
H204 H 0.89592 0.23527 0.97283 0.0
H205 H 0.95561 0.24965 0.96968 0.0
H206 H 0.97146 0.33742 0.08933 0.0
H207 H 0.91199 0.32354 0.08756 0.0
C208 C 0.06072 0.34275 1.00402 0.0
C209 C 0.07447 0.32054 0.00994 0.0
C210 C 0.02658 0.33457 0.01113 0.0
C211 C 1.00549 0.30404 0.02598 0.0
C212 C 0.01979 0.28221 0.03571 0.0
C213 C 0.05372 0.29031 0.02695 0.0
C214 C 0.91224 0.25758 0.99859 0.0
C215 C 0.8992 0.27828 0.02992 0.0
C216 C 0.94658 0.26585 0.99743 0.0
C217 C 0.96877 0.29486 0.02914 0.0
C218 C 0.95547 0.3152 0.06244 0.0
C219 C 0.92123 0.30712 0.0621 0.0
H220 H 0.78023 0.10265 0.9198 0.0
H221 H 0.69872 0.11302 0.04419 0.0
H222 H 0.74848 0.04784 0.90079 0.0
H223 H 0.66702 0.05768 0.02981 0.0
H224 H 0.61429 0.95482 0.98124 0.0
H225 H 0.63892 1.00953 0.94699 0.0
H226 H 0.73633 1.00945 0.00619 0.0
H227 H 0.71175 0.95555 0.03774 0.0
C228 C 0.75514 0.09307 0.94152 0.0
C229 C 0.74187 0.11182 0.9836 0.0
C230 C 0.737 0.06167 0.93151 0.0
C231 C 0.70539 0.04805 0.96566 0.0
C232 C 0.69117 0.06726 1.00228 0.0
C233 C 0.70925 0.09893 0.01076 0.0
C234 C 0.64096 0.96655 0.98406 0.0
C235 C 0.6612 0.95112 0.01195 0.0
C236 C 0.65509 0.99788 0.96556 0.0
C237 C 0.68971 0.0141 0.97378 0.0
C238 C 0.70971 0.99791 0.99739 0.0
C239 C 0.69566 0.96697 0.01614 0.0
H240 H 0.80452 0.72935 0.13453 0.0
H241 H 0.7277 0.6765 0.94319 0.0
H242 H 0.78144 0.76926 0.13417 0.0
H243 H 0.70542 0.71624 0.94098 0.0
H244 H 0.68174 0.78972 0.19105 0.0
H245 H 0.72269 0.76626 0.18507 0.0
H246 H 0.72094 0.77289 0.90159 0.0
H247 H 0.68028 0.79656 0.90815 0.0
C248 C 0.78324 0.72664 0.09108 0.0
C249 C 0.76776 0.69986 0.03917 0.0
C250 C 0.77002 0.74934 0.09105 0.0
C251 C 0.74179 0.74593 0.03707 0.0
C252 C 0.72745 0.71975 0.98231 0.0
C253 C 0.74006 0.69688 0.98404 0.0
C254 C 0.69148 0.78756 0.12812 0.0
C255 C 0.67848 0.79538 0.05019 0.0
C256 C 0.71479 0.77406 0.12457 0.0
C257 C 0.72484 0.7676 0.0428 0.0
C258 C 0.7136 0.77759 0.96546 0.0
C259 C 0.69061 0.79137 0.96918 0.0
H260 H 0.11858 0.69537 0.08548 0.0
H261 H 0.1339 0.78768 0.01498 0.0
H262 H 0.05914 0.68193 0.08128 0.0
H263 H 0.07414 0.77395 0.0064 0.0
H264 H 0.97046 0.74979 0.10321 0.0
H265 H 0.02917 0.76307 0.09386 0.0
H266 H 1.01025 0.67198 0.99514 0.0
H267 H 0.95104 0.65799 0.01071 0.0
C268 C 0.10919 0.71277 0.06815 0.0
C269 C 0.13104 0.74269 0.05117 0.0
C270 C 0.07495 0.70496 0.06485 0.0
C271 C 0.06146 0.72673 0.04332 0.0
C272 C 0.08342 0.7566 0.02486 0.0
C273 C 0.11777 0.76453 0.02943 0.0
C274 C 0.97862 0.73236 0.08028 0.0
C275 C 0.95573 0.70252 0.0596 0.0
C276 C 1.01257 0.74021 0.07343 0.0
C277 C 0.02487 0.71865 0.04423 0.0
C278 C 1.0019 0.68912 0.01969 0.0
C279 C 0.96779 0.68113 0.02747 0.0
H280 H 0.25188 0.9269 0.11898 0.0
H281 H 0.33431 0.90255 0.0632 0.0
H282 H 0.28876 0.98066 0.13146 0.0
H283 H 0.37161 0.95669 0.07535 0.0
H284 H 0.40102 0.05457 0.94545 0.0
H285 H 0.37575 1.00015 0.97598 0.0
H286 H 0.33704 0.02113 0.21324 0.0
H287 H 0.36289 0.07589 0.18214 0.0
C288 C 0.27807 0.93309 0.11091 0.0
C289 C 0.29018 0.91058 0.08944 0.0
C290 C 0.29929 0.96387 0.11882 0.0
C291 C 0.33318 0.97306 0.10422 0.0
C292 C 0.34561 0.95037 0.08668 0.0
C293 C 0.32435 0.9194 0.0802 0.0
C294 C 0.38808 0.04751 0.00569 0.0
C295 C 0.38398 0.06931 0.06167 0.0
C296 C 0.37362 0.01636 0.02335 0.0
C297 C 0.35416 1.00621 0.09677 0.0
C298 C 0.35174 0.02821 0.15585 0.0
C299 C 0.36675 0.05952 0.13875 0.0
H300 H 0.25304 0.63344 0.98467 0.0
H301 H 0.15196 0.58867 0.05862 0.0
H302 H 0.25575 0.58356 0.95876 0.0
H303 H 0.15513 0.53923 0.03821 0.0
H304 H 0.16402 0.45068 0.95339 0.0
H305 H 0.15858 0.5002 0.9475 0.0
H306 H 0.25999 0.54482 0.04813 0.0
H307 H 0.26559 0.49617 0.05107 0.0
C308 C 0.23132 0.61302 0.99452 0.0
C309 C 0.20258 0.61516 0.02559 0.0
C310 C 0.23293 0.58434 0.98082 0.0
C311 C 0.20585 0.55713 0.99817 0.0
C312 C 0.17649 0.55943 0.02392 0.0
C313 C 0.17485 0.58797 0.03694 0.0
C314 C 0.18503 0.47113 0.97421 0.0
C315 C 0.21518 0.46936 1.00255 0.0
C316 C 0.182 0.49957 0.97087 0.0
C317 C 0.20899 0.5268 0.99645 0.0
C318 C 0.23891 0.52471 0.02548 0.0
C319 C 0.24198 0.49655 0.02814 0.0
H320 H 0.52424 0.17619 0.09134 0.0
H321 H 0.5494 0.26646 0.98745 0.0
H322 H 0.58256 0.18264 0.08772 0.0
H323 H 0.60645 0.27236 0.98004 0.0
H324 H 0.71168 0.29106 0.06192 0.0
H325 H 0.6534 0.28155 0.07096 0.0
H326 H 0.62768 0.18666 0.99854 0.0
H327 H 0.68649 0.19607 0.99354 0.0
C328 C 0.5421 0.19723 0.0671 0.0
C329 C 0.53222 0.22095 0.041 0.0
C330 C 0.57552 0.20094 0.06458 0.0
C331 C 0.59958 0.22829 0.03491 0.0
C332 C 0.58914 0.25139 0.00609 0.0
C333 C 0.55616 0.24789 0.00979 0.0
C334 C 0.69363 0.26817 0.0477 0.0
C335 C 0.70381 0.24442 0.02624 0.0
C336 C 0.66005 0.26267 0.05244 0.0
C337 C 0.63549 0.23335 0.03432 0.0
C338 C 0.64572 0.20946 0.0137 0.0
C339 C 0.67948 0.21491 0.01012 0.0
H340 H 0.48569 0.66518 0.14365 0.0
H341 H 0.49768 0.64439 0.87357 0.0
H342 H 0.43977 0.6153 0.15241 0.0
H343 H 0.45248 0.59478 0.88222 0.0
H344 H 0.35427 0.51584 0.90414 0.0
H345 H 0.39208 0.56935 0.89887 0.0
H346 H 0.43686 0.56154 0.15196 0.0
H347 H 0.39868 0.5084 0.15807 0.0
C348 C 0.47817 0.65012 0.086 0.0
C349 C 0.49542 0.65841 0.00836 0.0
C350 C 0.45214 0.62156 0.09107 0.0
C351 C 0.44266 0.60108 0.01808 0.0
C352 C 0.459 0.61009 0.93935 0.0
C353 C 0.48512 0.63836 0.93467 0.0
C354 C 0.37194 0.52568 0.95901 0.0
C355 C 0.37373 0.50779 0.03099 0.0
C356 C 0.39367 0.55624 0.95585 0.0
C357 C 0.41746 0.56962 0.02498 0.0
C358 C 0.41861 0.55198 0.09809 0.0
C359 C 0.39706 0.52139 0.10093 0.0
H360 H 0.76471 0.52426 0.01244 0.0
H361 H 0.8656 0.57123 0.1138 0.0
H362 H 0.77077 0.47588 0.02157 0.0
H363 H 0.87147 0.52203 0.12624 0.0
H364 H 0.87961 0.43308 0.02487 0.0
H365 H 0.87596 0.48248 0.04053 0.0
H366 H 0.77476 0.43825 0.11579 0.0
H367 H 0.77796 0.38838 0.09431 0.0
C368 C 0.78825 0.52424 0.03752 0.0
C369 C 0.81475 0.55173 0.06226 0.0
C370 C 0.79158 0.49627 0.04379 0.0
C371 C 0.82144 0.49472 0.07587 0.0
C372 C 0.84812 0.52226 0.10062 0.0
C373 C 0.84484 0.5505 0.09349 0.0
C374 C 0.85651 0.43381 0.04467 0.0
C375 C 0.82875 0.40665 0.0559 0.0
C376 C 0.85458 0.46232 0.05498 0.0
C377 C 0.8249 0.46458 0.07791 0.0
C378 C 0.79782 0.43744 0.09569 0.0
C379 C 0.7997 0.4088 0.08459 0.0
H380 H 0.34192 0.82694 0.03597 0.0
H381 H 0.32186 0.73212 0.08634 0.0
H382 H 0.40062 0.83689 0.02492 0.0
H383 H 0.38039 0.74221 0.07852 0.0
H384 H 0.47762 0.75827 0.96506 0.0
H385 H 0.42035 0.75232 0.97178 0.0
H386 H 0.45144 0.84078 0.10234 0.0
H387 H 0.50951 0.84717 0.09252 0.0
C388 C 0.35006 0.80827 0.04554 0.0
C389 C 0.32707 0.77864 0.06131 0.0
C390 C 0.3838 0.81403 0.03963 0.0
C391 C 0.39539 0.79033 0.04973 0.0
C392 C 0.37241 0.76093 0.06804 0.0
C393 C 0.33875 0.75513 0.07323 0.0
C394 C 0.47235 0.77664 0.99464 0.0
C395 C 0.49816 0.80312 0.02888 0.0
C396 C 0.43937 0.77309 0.99926 0.0
C397 C 0.431 0.79572 0.03943 0.0
C398 C 0.45688 0.82285 0.07079 0.0
C399 C 0.49017 0.82656 0.06524 0.0
H400 H 0.63048 0.51072 0.89756 0.0
H401 H 0.6734 0.50682 0.15655 0.0
H402 H 0.59107 0.45833 0.9102 0.0
H403 H 0.63441 0.45399 0.16834 0.0
H404 H 0.52924 0.38002 0.19914 0.0
H405 H 0.57428 0.42937 0.18477 0.0
H406 H 0.58652 0.40456 0.91835 0.0
H407 H 0.54065 0.35505 0.93252 0.0
C408 C 0.63152 0.49868 0.95723 0.0
C409 C 0.65483 0.5131 0.02658 0.0
C410 C 0.60923 0.46848 0.9639 0.0
C411 C 0.6096 0.45201 0.04026 0.0
C412 C 0.63335 0.46618 0.10891 0.0
C413 C 0.6558 0.49636 0.10199 0.0
C414 C 0.54152 0.38507 0.13746 0.0
C415 C 0.53113 0.36383 0.06649 0.0
C416 C 0.56761 0.41322 0.1296 0.0
C417 C 0.58392 0.42092 0.05037 0.0
C418 C 0.5742 0.39936 0.98 0.0
C419 C 0.54817 0.37098 0.98822 0.0
H420 H 0.18334 0.37959 0.72105 0.0
H421 H 0.28985 0.40991 0.73046 0.0
H422 H 0.18215 0.37925 0.56081 0.0
H423 H 0.2887 0.40807 0.56985 0.0
H424 H 0.27956 0.43079 0.28305 0.0
H425 H 0.2804 0.4323 0.44314 0.0
H426 H 0.18826 0.35313 0.43646 0.0
H427 H 0.18669 0.35275 0.2757 0.0
C428 C 0.20652 0.38594 0.6887 0.0
C429 C 0.23671 0.39484 0.73829 0.0
C430 C 0.20583 0.38551 0.59663 0.0
C431 C 0.2353 0.39349 0.55174 0.0
C432 C 0.26552 0.40229 0.60174 0.0
C433 C 0.26623 0.40321 0.69394 0.0
C434 C 0.25945 0.41372 0.31584 0.0
C435 C 0.23303 0.39166 0.26682 0.0
C436 C 0.26005 0.41444 0.40787 0.0
C437 C 0.23449 0.39278 0.45339 0.0
C438 C 0.20812 0.37055 0.40401 0.0
C439 C 0.20727 0.37017 0.31176 0.0
H440 H 0.82496 0.30681 0.75397 0.0
H441 H 0.77333 0.20879 0.7382 0.0
H442 H 0.82694 0.30835 0.59446 0.0
H443 H 0.7739 0.21038 0.5776 0.0
H444 H 0.80971 0.21962 0.29878 0.0
H445 H 0.80875 0.21815 0.4588 0.0
H446 H 0.79478 0.30354 0.46348 0.0
H447 H 0.79729 0.30559 0.30353 0.0
C448 C 0.81368 0.28557 0.71624 0.0
C449 C 0.79898 0.25766 0.75872 0.0
C450 C 0.81462 0.28648 0.62449 0.0
C451 C 0.80048 0.25953 0.57258 0.0
C452 C 0.78554 0.23157 0.61526 0.0
C453 C 0.785 0.23063 0.70735 0.0
C454 C 0.80657 0.23814 0.33409 0.0
C455 C 0.80368 0.26278 0.28856 0.0
C456 C 0.80573 0.23718 0.42595 0.0
C457 C 0.80155 0.26064 0.47456 0.0
C458 C 0.79861 0.28529 0.42868 0.0
C459 C 0.7999 0.28645 0.33683 0.0
H460 H 0.55616 0.75894 0.76432 0.0
H461 H 0.62702 0.85218 0.76413 0.0
H462 H 0.55433 0.75672 0.60448 0.0
H463 H 0.6265 0.84959 0.60329 0.0
H464 H 0.59321 0.84602 0.31484 0.0
H465 H 0.59433 0.84822 0.47473 0.0
H466 H 0.58356 0.75377 0.48191 0.0
H467 H 0.58085 0.75128 0.32092 0.0
C468 C 0.57163 0.77895 0.72999 0.0
C469 C 0.59173 0.80579 0.77693 0.0
C470 C 0.57078 0.77757 0.63804 0.0
C471 C 0.59037 0.80288 0.59031 0.0
C472 C 0.61063 0.82976 0.63747 0.0
C473 C 0.61111 0.83127 0.72976 0.0
C474 C 0.59096 0.82565 0.35054 0.0
C475 C 0.58687 0.79842 0.30521 0.0
C476 C 0.5919 0.827 0.44252 0.0
C477 C 0.58926 0.80127 0.49192 0.0
C478 C 0.58516 0.77396 0.44635 0.0
C479 C 0.58373 0.7725 0.35399 0.0
H480 H 0.75216 0.58807 0.77281 0.0
H481 H 0.84343 0.66786 0.77923 0.0
H482 H 0.75034 0.58728 0.61268 0.0
H483 H 0.8409 0.66803 0.61835 0.0
H484 H 0.84498 0.64226 0.33258 0.0
H485 H 0.84698 0.64228 0.49248 0.0
H486 H 0.74035 0.61207 0.48777 0.0
H487 H 0.73836 0.6107 0.32671 0.0
C488 C 0.77177 0.60561 0.73986 0.0
C489 C 0.798 0.62802 0.78868 0.0
C490 C 0.77057 0.60531 0.64781 0.0
C491 C 0.79533 0.62767 0.60201 0.0
C492 C 0.82163 0.65012 0.65109 0.0
C493 C 0.82306 0.65016 0.7434 0.0
C494 C 0.82191 0.63559 0.3656 0.0
C495 C 0.79147 0.62646 0.31694 0.0
C496 C 0.82309 0.63583 0.4576 0.0
C497 C 0.79388 0.62735 0.50363 0.0
C498 C 0.76336 0.6183 0.45478 0.0
C499 C 0.76216 0.61766 0.36241 0.0
H500 H 0.20569 0.71504 0.32969 0.0
H501 H 0.25604 0.8132 0.345 0.0
H502 H 0.20407 0.71347 0.48918 0.0
H503 H 0.25585 0.8116 0.5057 0.0
H504 H 0.22045 0.80185 0.78488 0.0
H505 H 0.22121 0.80336 0.62496 0.0
H506 H 0.23654 0.71862 0.61978 0.0
H507 H 0.23423 0.71651 0.7799 0.0
C508 C 0.21675 0.73632 0.36731 0.0
C509 C 0.231 0.76428 0.3247 0.0
C510 C 0.21603 0.73539 0.45908 0.0
C511 C 0.22995 0.76237 0.5109 0.0
C512 C 0.2444 0.79038 0.4681 0.0
C513 C 0.24471 0.79133 0.37596 0.0
C514 C 0.22387 0.78348 0.74952 0.0
C515 C 0.2272 0.75901 0.79498 0.0
C516 C 0.22459 0.78447 0.65769 0.0
C517 C 0.2291 0.76121 0.60895 0.0
C518 C 0.23247 0.73672 0.65472 0.0
C519 C 0.23129 0.73552 0.74664 0.0
H520 H 0.44606 0.26965 0.76218 0.0
H521 H 0.43625 0.17559 0.76903 0.0
H522 H 0.44411 0.26721 0.60114 0.0
H523 H 0.43576 0.17346 0.6093 0.0
H524 H 0.40376 0.16908 0.31918 0.0
H525 H 0.40354 0.17161 0.47984 0.0
H526 H 0.47481 0.26486 0.48011 0.0
H527 H 0.47384 0.26267 0.32024 0.0
C528 C 0.44382 0.24858 0.72932 0.0
C529 C 0.44124 0.22284 0.77833 0.0
C530 C 0.44284 0.24716 0.63697 0.0
C531 C 0.43969 0.22007 0.59172 0.0
C532 C 0.43749 0.1945 0.64131 0.0
C533 C 0.43805 0.19581 0.73323 0.0
C534 C 0.41936 0.19006 0.35378 0.0
C535 C 0.43874 0.21564 0.30698 0.0
C536 C 0.41939 0.19153 0.44597 0.0
C537 C 0.43914 0.21851 0.49343 0.0
C538 C 0.45876 0.24392 0.44617 0.0
C539 C 0.45841 0.24256 0.35425 0.0
loop_
_geom_bond_atom_site_label_1
_geom_bond_atom_site_label_2
_geom_bond_distance
_geom_bond_site_symmetry_2
_ccdc_geom_bond_type
Co0 N5 2.057 . S
Co0 O17 2.021 1_554 S
Co0 O20 2.062 . S
Co0 O24 2.117 . S
Co0 O25 2.020 . S
C1 O21 1.259 . S
C1 O24 1.258 . S
Co2 N11 2.057 1_554 S
Co2 O18 2.117 1_554 S
Co2 O19 2.020 . S
Co2 O21 2.021 . S
Co2 O26 2.062 . S
C3 N5 1.316 1_556 S
C3 N6 1.347 1_556 S
C3 H8 0.931 . S
C4 N5 1.375 . S
C4 C7 1.350 . S
C4 H9 0.930 . S
N5 Co0 2.057 . S
N5 C3 1.316 1_554 S
N5 C4 1.375 . S
N6 C3 1.347 1_554 S
N6 C7 1.373 . S
C7 C4 1.350 . S
C7 N6 1.373 . S
C7 H28 0.931 . S
H8 C3 0.931 . S
H9 C4 0.930 . S
C10 O17 1.259 . S
C10 O18 1.258 . S
N11 Co2 2.057 1_556 S
N11 C12 1.316 1_556 S
N11 C13 1.375 . S
C12 N11 1.316 1_554 S
C12 N14 1.347 . S
C12 H23 0.931 . S
C13 N11 1.375 . S
C13 C15 1.350 . S
C13 H22 0.930 . S
N14 C12 1.347 . S
N14 C15 1.373 1_554 S
C15 C13 1.350 . S
C15 N14 1.373 1_556 S
C15 H29 0.931 . S
C16 O19 1.256 . S
C16 O20 1.255 . S
O17 Co0 2.021 1_556 S
O17 C10 1.259 . S
O18 Co2 2.117 1_556 S
O18 C10 1.258 . S
O19 Co2 2.020 . S
O19 C16 1.256 . S
O20 Co0 2.062 . S
O20 C16 1.255 . S
O21 C1 1.259 . S
O21 Co2 2.021 . S
H22 C13 0.930 . S
H23 C12 0.931 . S
O24 Co0 2.117 . S
O24 C1 1.258 . S
O25 Co0 2.020 . S
O25 C27 1.256 . S
O26 Co2 2.062 . S
O26 C27 1.255 . S
C27 O25 1.256 . S
C27 O26 1.255 . S
H28 C7 0.931 . S
H29 C15 0.931 . S
Co30 N35 2.057 . S
Co30 O47 2.021 1_554 S
Co30 O50 2.062 . S
Co30 O54 2.117 . S
Co30 O55 2.020 . S
C31 O51 1.259 . S
C31 O54 1.258 . S
Co32 N41 2.057 . S
Co32 O48 2.117 1_554 S
Co32 O49 2.020 . S
Co32 O51 2.021 . S
Co32 O56 2.062 . S
C33 N35 1.316 . S
C33 N36 1.347 . S
C33 H38 0.931 1_554 S
C34 N35 1.375 . S
C34 C37 1.350 . S
C34 H39 0.930 . S
N35 Co30 2.057 . S
N35 C33 1.316 . S
N35 C34 1.375 . S
N36 C33 1.347 . S
N36 C37 1.373 . S
C37 C34 1.350 . S
C37 N36 1.373 . S
C37 H58 0.931 . S
H38 C33 0.931 1_556 S
H39 C34 0.930 . S
C40 O47 1.259 . S
C40 O48 1.258 . S
N41 Co32 2.057 . S
N41 C42 1.316 . S
N41 C43 1.375 1_554 S
C42 N41 1.316 . S
C42 N44 1.347 . S
C42 H53 0.931 . S
C43 N41 1.375 1_556 S
C43 C45 1.350 . S
C43 H52 0.930 . S
N44 C42 1.347 . S
N44 C45 1.373 1_554 S
C45 C43 1.350 . S
C45 N44 1.373 1_556 S
C45 H59 0.931 . S
C46 O49 1.256 . S
C46 O50 1.255 . S
O47 Co30 2.021 1_556 S
O47 C40 1.259 . S
O48 Co32 2.117 1_556 S
O48 C40 1.258 . S
O49 Co32 2.020 . S
O49 C46 1.256 . S
O50 Co30 2.062 . S
O50 C46 1.255 . S
O51 C31 1.259 . S
O51 Co32 2.021 . S
H52 C43 0.930 . S
H53 C42 0.931 . S
O54 Co30 2.117 . S
O54 C31 1.258 . S
O55 Co30 2.020 . S
O55 C57 1.256 . S
O56 Co32 2.062 . S
O56 C57 1.255 . S
C57 O55 1.256 . S
C57 O56 1.255 . S
H58 C37 0.931 . S
H59 C45 0.931 . S
Co60 N65 2.057 1_554 S
Co60 O77 2.021 . S
Co60 O80 2.062 . S
Co60 O84 2.117 1_554 S
Co60 O85 2.020 . S
C61 O81 1.259 . S
C61 O84 1.258 . S
Co62 N71 2.057 1_556 S
Co62 O78 2.117 1_556 S
Co62 O79 2.020 . S
Co62 O81 2.021 . S
Co62 O86 2.062 . S
C63 N65 1.316 1_554 S
C63 N66 1.347 1_554 S
C63 H68 0.931 . S
C64 N65 1.375 . S
C64 C67 1.350 . S
C64 H69 0.930 . S
N65 Co60 2.057 1_556 S
N65 C63 1.316 1_556 S
N65 C64 1.375 . S
N66 C63 1.347 1_556 S
N66 C67 1.373 . S
C67 C64 1.350 . S
C67 N66 1.373 . S
C67 H88 0.931 . S
H68 C63 0.931 . S
H69 C64 0.930 . S
C70 O77 1.259 . S
C70 O78 1.258 . S
N71 Co62 2.057 1_554 S
N71 C72 1.316 1_554 S
N71 C73 1.375 . S
C72 N71 1.316 1_556 S
C72 N74 1.347 1_556 S
C72 H83 0.931 . S
C73 N71 1.375 . S
C73 C75 1.350 . S
C73 H82 0.930 . S
N74 C72 1.347 1_554 S
N74 C75 1.373 . S
C75 C73 1.350 . S
C75 N74 1.373 . S
C75 H89 0.931 . S
C76 O79 1.256 1_554 S
C76 O80 1.255 . S
O77 Co60 2.021 . S
O77 C70 1.259 . S
O78 Co62 2.117 1_554 S
O78 C70 1.258 . S
O79 Co62 2.020 . S
O79 C76 1.256 1_556 S
O80 Co60 2.062 . S
O80 C76 1.255 . S
O81 C61 1.259 . S
O81 Co62 2.021 . S
H82 C73 0.930 . S
H83 C72 0.931 . S
O84 Co60 2.117 1_556 S
O84 C61 1.258 . S
O85 Co60 2.020 . S
O85 C87 1.256 . S
O86 Co62 2.062 . S
O86 C87 1.255 1_556 S
C87 O85 1.256 . S
C87 O86 1.255 1_554 S
H88 C67 0.931 . S
H89 C75 0.931 . S
Co90 N95 2.057 . S
Co90 O107 2.021 1_554 S
Co90 O110 2.062 . S
Co90 O114 2.117 . S
Co90 O115 2.020 . S
C91 O111 1.259 . S
C91 O114 1.258 . S
Co92 N101 2.057 . S
Co92 O108 2.117 1_554 S
Co92 O109 2.020 . S
Co92 O111 2.021 . S
Co92 O116 2.062 . S
C93 N95 1.316 . S
C93 N96 1.347 . S
C93 H98 0.931 1_554 S
C94 N95 1.375 . S
C94 C97 1.350 . S
C94 H99 0.930 . S
N95 Co90 2.057 . S
N95 C93 1.316 . S
N95 C94 1.375 . S
N96 C93 1.347 . S
N96 C97 1.373 . S
C97 C94 1.350 . S
C97 N96 1.373 . S
C97 H118 0.931 . S
H98 C93 0.931 1_556 S
H99 C94 0.930 . S
C100 O107 1.259 . S
C100 O108 1.258 . S
N101 Co92 2.057 . S
N101 C102 1.316 . S
N101 C103 1.375 1_554 S
C102 N101 1.316 . S
C102 N104 1.347 . S
C102 H113 0.931 . S
C103 N101 1.375 1_556 S
C103 C105 1.350 . S
C103 H112 0.930 . S
N104 C102 1.347 . S
N104 C105 1.373 1_554 S
C105 C103 1.350 . S
C105 N104 1.373 1_556 S
C105 H119 0.931 . S
C106 O109 1.256 . S
C106 O110 1.255 . S
O107 Co90 2.021 1_556 S
O107 C100 1.259 . S
O108 Co92 2.117 1_556 S
O108 C100 1.258 . S
O109 Co92 2.020 . S
O109 C106 1.256 . S
O110 Co90 2.062 . S
O110 C106 1.255 . S
O111 C91 1.259 . S
O111 Co92 2.021 . S
H112 C103 0.930 . S
H113 C102 0.931 . S
O114 Co90 2.117 . S
O114 C91 1.258 . S
O115 Co90 2.020 . S
O115 C117 1.256 . S
O116 Co92 2.062 . S
O116 C117 1.255 . S
C117 O115 1.256 . S
C117 O116 1.255 . S
H118 C97 0.931 . S
H119 C105 0.931 . S
Co120 N125 2.057 . S
Co120 O137 2.021 1_554 S
Co120 O140 2.062 . S
Co120 O144 2.117 . S
Co120 O145 2.020 . S
C121 O141 1.259 . S
C121 O144 1.258 . S
Co122 N131 2.057 1_554 S
Co122 O138 2.117 1_554 S
Co122 O139 2.020 . S
Co122 O141 2.021 . S
Co122 O146 2.062 . S
C123 N125 1.316 1_556 S
C123 N126 1.347 1_556 S
C123 H128 0.931 . S
C124 N125 1.375 . S
C124 C127 1.350 . S
C124 H129 0.930 . S
N125 Co120 2.057 . S
N125 C123 1.316 1_554 S
N125 C124 1.375 . S
N126 C123 1.347 1_554 S
N126 C127 1.373 . S
C127 C124 1.350 . S
C127 N126 1.373 . S
C127 H148 0.931 . S
H128 C123 0.931 . S
H129 C124 0.930 . S
C130 O137 1.259 . S
C130 O138 1.258 . S
N131 Co122 2.057 1_556 S
N131 C132 1.316 1_556 S
N131 C133 1.375 . S
C132 N131 1.316 1_554 S
C132 N134 1.347 . S
C132 H143 0.931 . S
C133 N131 1.375 . S
C133 C135 1.350 . S
C133 H142 0.930 . S
N134 C132 1.347 . S
N134 C135 1.373 1_554 S
C135 C133 1.350 . S
C135 N134 1.373 1_556 S
C135 H149 0.931 . S
C136 O139 1.256 . S
C136 O140 1.255 . S
O137 Co120 2.021 1_556 S
O137 C130 1.259 . S
O138 Co122 2.117 1_556 S
O138 C130 1.258 . S
O139 Co122 2.020 . S
O139 C136 1.256 . S
O140 Co120 2.062 . S
O140 C136 1.255 . S
O141 C121 1.259 . S
O141 Co122 2.021 . S
H142 C133 0.930 . S
H143 C132 0.931 . S
O144 Co120 2.117 . S
O144 C121 1.258 . S
O145 Co120 2.020 . S
O145 C147 1.256 . S
O146 Co122 2.062 . S
O146 C147 1.255 . S
C147 O145 1.256 . S
C147 O146 1.255 . S
H148 C127 0.931 . S
H149 C135 0.931 . S
Co150 N155 2.057 . S
Co150 O167 2.021 . S
Co150 O170 2.062 . S
Co150 O174 2.117 1_554 S
Co150 O175 2.020 . S
C151 O171 1.259 . S
C151 O174 1.258 . S
Co152 N161 2.057 . S
Co152 O168 2.117 . S
Co152 O169 2.020 . S
Co152 O171 2.021 1_554 S
Co152 O176 2.062 . S
C153 N155 1.316 . S
C153 N156 1.347 . S
C153 H158 0.931 . S
C154 N155 1.375 1_556 S
C154 C157 1.350 . S
C154 H159 0.930 . S
N155 Co150 2.057 . S
N155 C153 1.316 . S
N155 C154 1.375 1_554 S
N156 C153 1.347 . S
N156 C157 1.373 1_554 S
C157 C154 1.350 . S
C157 N156 1.373 1_556 S
C157 H178 0.931 . S
H158 C153 0.931 . S
H159 C154 0.930 . S
C160 O167 1.259 . S
C160 O168 1.258 . S
N161 Co152 2.057 . S
N161 C162 1.316 . S
N161 C163 1.375 . S
C162 N161 1.316 . S
C162 N164 1.347 . S
C162 H173 0.931 1_554 S
C163 N161 1.375 . S
C163 C165 1.350 . S
C163 H172 0.930 . S
N164 C162 1.347 . S
N164 C165 1.373 . S
C165 C163 1.350 . S
C165 N164 1.373 . S
C165 H179 0.931 . S
C166 O169 1.256 . S
C166 O170 1.255 . S
O167 Co150 2.021 . S
O167 C160 1.259 . S
O168 Co152 2.117 . S
O168 C160 1.258 . S
O169 Co152 2.020 . S
O169 C166 1.256 . S
O170 Co150 2.062 . S
O170 C166 1.255 . S
O171 C151 1.259 . S
O171 Co152 2.021 1_556 S
H172 C163 0.930 . S
H173 C162 0.931 1_556 S
O174 Co150 2.117 1_556 S
O174 C151 1.258 . S
O175 Co150 2.020 . S
O175 C177 1.256 . S
O176 Co152 2.062 . S
O176 C177 1.255 . S
C177 O175 1.256 . S
C177 O176 1.255 . S
H178 C157 0.931 . S
H179 C165 0.931 . S
H180 C188 0.950 . S
H181 C193 0.950 . S
H182 C190 0.950 . S
H183 C192 0.950 . S
H184 C194 0.950 . S
H185 C196 0.950 . S
H186 C198 0.950 . S
H187 C199 0.950 . S
C188 H180 0.950 . S
C188 C189 1.386 1_556 S
C188 C190 1.391 . S
C189 C188 1.386 1_554 S
C189 C193 1.393 . S
C190 H182 0.950 . S
C190 C188 1.391 . S
C190 C191 1.400 1_556 S
C191 C190 1.400 1_554 S
C191 C192 1.398 . S
C191 C197 1.491 . S
C192 H183 0.950 . S
C192 C191 1.398 . S
C192 C193 1.391 . S
C193 H181 0.950 . S
C193 C189 1.393 . S
C193 C192 1.391 . S
C194 H184 0.950 . S
C194 C195 1.386 . S
C194 C196 1.391 . S
C195 C194 1.386 . S
C195 C199 1.393 1_554 S
C196 H185 0.950 . S
C196 C194 1.391 . S
C196 C197 1.400 . S
C197 C191 1.491 . S
C197 C196 1.400 . S
C197 C198 1.398 1_554 S
C198 H186 0.950 . S
C198 C197 1.398 1_556 S
C198 C199 1.391 . S
C199 H187 0.950 . S
C199 C195 1.393 1_556 S
C199 C198 1.391 . S
H200 C208 0.950 . S
H201 C213 0.950 . S
H202 C210 0.950 . S
H203 C212 0.950 . S
H204 C214 0.950 . S
H205 C216 0.950 . S
H206 C218 0.950 . S
H207 C219 0.950 . S
C208 H200 0.950 . S
C208 C209 1.386 1_556 S
C208 C210 1.391 1_455 S
C209 C208 1.386 1_554 S
C209 C213 1.393 . S
C210 H202 0.950 . S
C210 C208 1.391 1_655 S
C210 C211 1.400 1_556 S
C211 C210 1.400 1_554 S
C211 C212 1.398 . S
C211 C217 1.491 . S
C212 H203 0.950 . S
C212 C211 1.398 . S
C212 C213 1.391 1_655 S
C213 H201 0.950 . S
C213 C209 1.393 . S
C213 C212 1.391 1_455 S
C214 H204 0.950 . S
C214 C215 1.386 . S
C214 C216 1.391 . S
C215 C214 1.386 . S
C215 C219 1.393 1_554 S
C216 H205 0.950 . S
C216 C214 1.391 . S
C216 C217 1.400 . S
C217 C211 1.491 . S
C217 C216 1.400 . S
C217 C218 1.398 1_554 S
C218 H206 0.950 . S
C218 C217 1.398 1_556 S
C218 C219 1.391 . S
C219 H207 0.950 . S
C219 C215 1.393 1_556 S
C219 C218 1.391 . S
H220 C228 0.950 . S
H221 C233 0.950 1_556 S
H222 C230 0.950 . S
H223 C232 0.950 . S
H224 C234 0.950 . S
H225 C236 0.950 . S
H226 C238 0.950 . S
H227 C239 0.950 . S
C228 H220 0.950 . S
C228 C229 1.386 . S
C228 C230 1.391 . S
C229 C228 1.386 . S
C229 C233 1.393 . S
C230 H222 0.950 . S
C230 C228 1.391 . S
C230 C231 1.400 . S
C231 C230 1.400 . S
C231 C232 1.398 1_554 S
C231 C237 1.491 1_545 S
C232 H223 0.950 . S
C232 C231 1.398 1_556 S
C232 C233 1.391 1_556 S
C233 H221 0.950 1_554 S
C233 C229 1.393 . S
C233 C232 1.391 1_554 S
C234 H224 0.950 . S
C234 C235 1.386 1_556 S
C234 C236 1.391 . S
C235 C234 1.386 1_554 S
C235 C239 1.393 . S
C236 H225 0.950 . S
C236 C234 1.391 . S
C236 C237 1.400 1_556 S
C237 C231 1.491 1_565 S
C237 C236 1.400 1_554 S
C237 C238 1.398 . S
C238 H226 0.950 . S
C238 C237 1.398 . S
C238 C239 1.391 . S
C239 H227 0.950 . S
C239 C235 1.393 . S
C239 C238 1.391 . S
H240 C248 0.950 . S
H241 C253 0.950 . S
H242 C250 0.950 . S
H243 C252 0.950 . S
H244 C254 0.950 . S
H245 C256 0.950 . S
H246 C258 0.950 . S
H247 C259 0.950 1_556 S
C248 H240 0.950 . S
C248 C249 1.386 . S
C248 C250 1.391 . S
C249 C248 1.386 . S
C249 C253 1.393 . S
C250 H242 0.950 . S
C250 C248 1.391 . S
C250 C251 1.400 . S
C251 C250 1.400 . S
C251 C252 1.398 . S
C251 C257 1.491 . S
C252 H243 0.950 . S
C252 C251 1.398 . S
C252 C253 1.391 . S
C253 H241 0.950 . S
C253 C249 1.393 . S
C253 C252 1.391 . S
C254 H244 0.950 . S
C254 C255 1.386 . S
C254 C256 1.391 . S
C255 C254 1.386 . S
C255 C259 1.393 . S
C256 H245 0.950 . S
C256 C254 1.391 . S
C256 C257 1.400 . S
C257 C251 1.491 . S
C257 C256 1.400 . S
C257 C258 1.398 . S
C258 H246 0.950 . S
C258 C257 1.398 . S
C258 C259 1.391 . S
C259 H247 0.950 1_554 S
C259 C255 1.393 . S
C259 C258 1.391 . S
H260 C268 0.950 . S
H261 C273 0.950 . S
H262 C270 0.950 . S
H263 C272 0.950 . S
H264 C274 0.950 . S
H265 C276 0.950 . S
H266 C278 0.950 . S
H267 C279 0.950 . S
C268 H260 0.950 . S
C268 C269 1.386 . S
C268 C270 1.391 . S
C269 C268 1.386 . S
C269 C273 1.393 1_554 S
C270 H262 0.950 . S
C270 C268 1.391 . S
C270 C271 1.400 . S
C271 C270 1.400 . S
C271 C272 1.398 1_554 S
C271 C277 1.491 . S
C272 H263 0.950 . S
C272 C271 1.398 1_556 S
C272 C273 1.391 . S
C273 H261 0.950 . S
C273 C269 1.393 1_556 S
C273 C272 1.391 . S
C274 H264 0.950 . S
C274 C275 1.386 1_556 S
C274 C276 1.391 1_655 S
C275 C274 1.386 1_554 S
C275 C279 1.393 . S
C276 H265 0.950 . S
C276 C274 1.391 1_455 S
C276 C277 1.400 1_556 S
C277 C271 1.491 . S
C277 C276 1.400 1_554 S
C277 C278 1.398 . S
C278 H266 0.950 . S
C278 C277 1.398 . S
C278 C279 1.391 1_455 S
C279 H267 0.950 . S
C279 C275 1.393 . S
C279 C278 1.391 1_655 S
H280 C288 0.950 . S
H281 C293 0.950 . S
H282 C290 0.950 . S
H283 C292 0.950 . S
H284 C294 0.950 . S
H285 C296 0.950 . S
H286 C298 0.950 . S
H287 C299 0.950 . S
C288 H280 0.950 . S
C288 C289 1.386 . S
C288 C290 1.391 . S
C289 C288 1.386 . S
C289 C293 1.393 1_554 S
C290 H282 0.950 . S
C290 C288 1.391 . S
C290 C291 1.400 . S
C291 C290 1.400 . S
C291 C292 1.398 1_554 S
C291 C297 1.491 1_565 S
C292 H283 0.950 . S
C292 C291 1.398 1_556 S
C292 C293 1.391 . S
C293 H281 0.950 . S
C293 C289 1.393 1_556 S
C293 C292 1.391 . S
C294 H284 0.950 . S
C294 C295 1.386 1_556 S
C294 C296 1.391 . S
C295 C294 1.386 1_554 S
C295 C299 1.393 . S
C296 H285 0.950 . S
C296 C294 1.391 . S
C296 C297 1.400 1_556 S
C297 C291 1.491 1_545 S
C297 C296 1.400 1_554 S
C297 C298 1.398 . S
C298 H286 0.950 . S
C298 C297 1.398 . S
C298 C299 1.391 . S
C299 H287 0.950 . S
C299 C295 1.393 . S
C299 C298 1.391 . S
H300 C308 0.950 . S
H301 C313 0.950 . S
H302 C310 0.950 . S
H303 C312 0.950 . S
H304 C314 0.950 . S
H305 C316 0.950 . S
H306 C318 0.950 . S
H307 C319 0.950 . S
C308 H300 0.950 . S
C308 C309 1.386 . S
C308 C310 1.391 . S
C309 C308 1.386 . S
C309 C313 1.393 1_554 S
C310 H302 0.950 . S
C310 C308 1.391 . S
C310 C311 1.400 . S
C311 C310 1.400 . S
C311 C312 1.398 1_554 S
C311 C317 1.491 . S
C312 H303 0.950 . S
C312 C311 1.398 1_556 S
C312 C313 1.391 . S
C313 H301 0.950 . S
C313 C309 1.393 1_556 S
C313 C312 1.391 . S
C314 H304 0.950 . S
C314 C315 1.386 1_556 S
C314 C316 1.391 . S
C315 C314 1.386 1_554 S
C315 C319 1.393 . S
C316 H305 0.950 . S
C316 C314 1.391 . S
C316 C317 1.400 1_556 S
C317 C311 1.491 . S
C317 C316 1.400 1_554 S
C317 C318 1.398 . S
C318 H306 0.950 . S
C318 C317 1.398 . S
C318 C319 1.391 . S
C319 H307 0.950 . S
C319 C315 1.393 . S
C319 C318 1.391 . S
H320 C328 0.950 . S
H321 C333 0.950 . S
H322 C330 0.950 . S
H323 C332 0.950 . S
H324 C334 0.950 . S
H325 C336 0.950 . S
H326 C338 0.950 . S
H327 C339 0.950 . S
C328 H320 0.950 . S
C328 C329 1.386 . S
C328 C330 1.391 . S
C329 C328 1.386 . S
C329 C333 1.393 1_554 S
C330 H322 0.950 . S
C330 C328 1.391 . S
C330 C331 1.400 . S
C331 C330 1.400 . S
C331 C332 1.398 1_554 S
C331 C337 1.491 . S
C332 H323 0.950 . S
C332 C331 1.398 1_556 S
C332 C333 1.391 . S
C333 H321 0.950 . S
C333 C329 1.393 1_556 S
C333 C332 1.391 . S
C334 H324 0.950 . S
C334 C335 1.386 1_556 S
C334 C336 1.391 . S
C335 C334 1.386 1_554 S
C335 C339 1.393 . S
C336 H325 0.950 . S
C336 C334 1.391 . S
C336 C337 1.400 1_556 S
C337 C331 1.491 . S
C337 C336 1.400 1_554 S
C337 C338 1.398 . S
C338 H326 0.950 . S
C338 C337 1.398 . S
C338 C339 1.391 . S
C339 H327 0.950 . S
C339 C335 1.393 . S
C339 C338 1.391 . S
H340 C348 0.950 . S
H341 C353 0.950 . S
H342 C350 0.950 . S
H343 C352 0.950 . S
H344 C354 0.950 . S
H345 C356 0.950 . S
H346 C358 0.950 . S
H347 C359 0.950 . S
C348 H340 0.950 . S
C348 C349 1.386 . S
C348 C350 1.391 . S
C349 C348 1.386 . S
C349 C353 1.393 1_554 S
C350 H342 0.950 . S
C350 C348 1.391 . S
C350 C351 1.400 . S
C351 C350 1.400 . S
C351 C352 1.398 1_554 S
C351 C357 1.491 . S
C352 H343 0.950 . S
C352 C351 1.398 1_556 S
C352 C353 1.391 . S
C353 H341 0.950 . S
C353 C349 1.393 1_556 S
C353 C352 1.391 . S
C354 H344 0.950 . S
C354 C355 1.386 1_556 S
C354 C356 1.391 . S
C355 C354 1.386 1_554 S
C355 C359 1.393 . S
C356 H345 0.950 . S
C356 C354 1.391 . S
C356 C357 1.400 1_556 S
C357 C351 1.491 . S
C357 C356 1.400 1_554 S
C357 C358 1.398 . S
C358 H346 0.950 . S
C358 C357 1.398 . S
C358 C359 1.391 . S
C359 H347 0.950 . S
C359 C355 1.393 . S
C359 C358 1.391 . S
H360 C368 0.950 . S
H361 C373 0.950 . S
H362 C370 0.950 . S
H363 C372 0.950 . S
H364 C374 0.950 . S
H365 C376 0.950 . S
H366 C378 0.950 . S
H367 C379 0.950 . S
C368 H360 0.950 . S
C368 C369 1.386 . S
C368 C370 1.391 . S
C369 C368 1.386 . S
C369 C373 1.393 . S
C370 H362 0.950 . S
C370 C368 1.391 . S
C370 C371 1.400 . S
C371 C370 1.400 . S
C371 C372 1.398 . S
C371 C377 1.491 . S
C372 H363 0.950 . S
C372 C371 1.398 . S
C372 C373 1.391 . S
C373 H361 0.950 . S
C373 C369 1.393 . S
C373 C372 1.391 . S
C374 H364 0.950 . S
C374 C375 1.386 . S
C374 C376 1.391 . S
C375 C374 1.386 . S
C375 C379 1.393 . S
C376 H365 0.950 . S
C376 C374 1.391 . S
C376 C377 1.400 . S
C377 C371 1.491 . S
C377 C376 1.400 . S
C377 C378 1.398 . S
C378 H366 0.950 . S
C378 C377 1.398 . S
C378 C379 1.391 . S
C379 H367 0.950 . S
C379 C375 1.393 . S
C379 C378 1.391 . S
H380 C388 0.950 . S
H381 C393 0.950 . S
H382 C390 0.950 . S
H383 C392 0.950 . S
H384 C394 0.950 . S
H385 C396 0.950 . S
H386 C398 0.950 . S
H387 C399 0.950 . S
C388 H380 0.950 . S
C388 C389 1.386 . S
C388 C390 1.391 . S
C389 C388 1.386 . S
C389 C393 1.393 1_554 S
C390 H382 0.950 . S
C390 C388 1.391 . S
C390 C391 1.400 . S
C391 C390 1.400 . S
C391 C392 1.398 1_554 S
C391 C397 1.491 . S
C392 H383 0.950 . S
C392 C391 1.398 1_556 S
C392 C393 1.391 . S
C393 H381 0.950 . S
C393 C389 1.393 1_556 S
C393 C392 1.391 . S
C394 H384 0.950 . S
C394 C395 1.386 1_556 S
C394 C396 1.391 . S
C395 C394 1.386 1_554 S
C395 C399 1.393 . S
C396 H385 0.950 . S
C396 C394 1.391 . S
C396 C397 1.400 1_556 S
C397 C391 1.491 . S
C397 C396 1.400 1_554 S
C397 C398 1.398 . S
C398 H386 0.950 . S
C398 C397 1.398 . S
C398 C399 1.391 . S
C399 H387 0.950 . S
C399 C395 1.393 . S
C399 C398 1.391 . S
H400 C408 0.950 . S
H401 C413 0.950 . S
H402 C410 0.950 . S
H403 C412 0.950 . S
H404 C414 0.950 . S
H405 C416 0.950 . S
H406 C418 0.950 . S
H407 C419 0.950 . S
C408 H400 0.950 . S
C408 C409 1.386 1_556 S
C408 C410 1.391 . S
C409 C408 1.386 1_554 S
C409 C413 1.393 . S
C410 H402 0.950 . S
C410 C408 1.391 . S
C410 C411 1.400 1_556 S
C411 C410 1.400 1_554 S
C411 C412 1.398 . S
C411 C417 1.491 . S
C412 H403 0.950 . S
C412 C411 1.398 . S
C412 C413 1.391 . S
C413 H401 0.950 . S
C413 C409 1.393 . S
C413 C412 1.391 . S
C414 H404 0.950 . S
C414 C415 1.386 . S
C414 C416 1.391 . S
C415 C414 1.386 . S
C415 C419 1.393 1_554 S
C416 H405 0.950 . S
C416 C414 1.391 . S
C416 C417 1.400 . S
C417 C411 1.491 . S
C417 C416 1.400 . S
C417 C418 1.398 1_554 S
C418 H406 0.950 . S
C418 C417 1.398 1_556 S
C418 C419 1.391 . S
C419 H407 0.950 . S
C419 C415 1.393 1_556 S
C419 C418 1.391 . S
H420 C428 0.950 . S
H421 C433 0.950 . S
H422 C430 0.950 . S
H423 C432 0.950 . S
H424 C434 0.950 . S
H425 C436 0.950 . S
H426 C438 0.950 . S
H427 C439 0.950 . S
C428 H420 0.950 . S
C428 C429 1.386 . S
C428 C430 1.391 . S
C429 C428 1.386 . S
C429 C433 1.393 . S
C430 H422 0.950 . S
C430 C428 1.391 . S
C430 C431 1.400 . S
C431 C430 1.400 . S
C431 C432 1.398 . S
C431 C437 1.491 . S
C432 H423 0.950 . S
C432 C431 1.398 . S
C432 C433 1.391 . S
C433 H421 0.950 . S
C433 C429 1.393 . S
C433 C432 1.391 . S
C434 H424 0.950 . S
C434 C435 1.386 . S
C434 C436 1.391 . S
C435 C434 1.386 . S
C435 C439 1.393 . S
C436 H425 0.950 . S
C436 C434 1.391 . S
C436 C437 1.400 . S
C437 C431 1.491 . S
C437 C436 1.400 . S
C437 C438 1.398 . S
C438 H426 0.950 . S
C438 C437 1.398 . S
C438 C439 1.391 . S
C439 H427 0.950 . S
C439 C435 1.393 . S
C439 C438 1.391 . S
H440 C448 0.950 . S
H441 C453 0.950 . S
H442 C450 0.950 . S
H443 C452 0.950 . S
H444 C454 0.950 . S
H445 C456 0.950 . S
H446 C458 0.950 . S
H447 C459 0.950 . S
C448 H440 0.950 . S
C448 C449 1.386 . S
C448 C450 1.391 . S
C449 C448 1.386 . S
C449 C453 1.393 . S
C450 H442 0.950 . S
C450 C448 1.391 . S
C450 C451 1.400 . S
C451 C450 1.400 . S
C451 C452 1.398 . S
C451 C457 1.491 . S
C452 H443 0.950 . S
C452 C451 1.398 . S
C452 C453 1.391 . S
C453 H441 0.950 . S
C453 C449 1.393 . S
C453 C452 1.391 . S
C454 H444 0.950 . S
C454 C455 1.386 . S
C454 C456 1.391 . S
C455 C454 1.386 . S
C455 C459 1.393 . S
C456 H445 0.950 . S
C456 C454 1.391 . S
C456 C457 1.400 . S
C457 C451 1.491 . S
C457 C456 1.400 . S
C457 C458 1.398 . S
C458 H446 0.950 . S
C458 C457 1.398 . S
C458 C459 1.391 . S
C459 H447 0.950 . S
C459 C455 1.393 . S
C459 C458 1.391 . S
H460 C468 0.950 . S
H461 C473 0.950 . S
H462 C470 0.950 . S
H463 C472 0.950 . S
H464 C474 0.950 . S
H465 C476 0.950 . S
H466 C478 0.950 . S
H467 C479 0.950 . S
C468 H460 0.950 . S
C468 C469 1.386 . S
C468 C470 1.391 . S
C469 C468 1.386 . S
C469 C473 1.393 . S
C470 H462 0.950 . S
C470 C468 1.391 . S
C470 C471 1.400 . S
C471 C470 1.400 . S
C471 C472 1.398 . S
C471 C477 1.491 . S
C472 H463 0.950 . S
C472 C471 1.398 . S
C472 C473 1.391 . S
C473 H461 0.950 . S
C473 C469 1.393 . S
C473 C472 1.391 . S
C474 H464 0.950 . S
C474 C475 1.386 . S
C474 C476 1.391 . S
C475 C474 1.386 . S
C475 C479 1.393 . S
C476 H465 0.950 . S
C476 C474 1.391 . S
C476 C477 1.400 . S
C477 C471 1.491 . S
C477 C476 1.400 . S
C477 C478 1.398 . S
C478 H466 0.950 . S
C478 C477 1.398 . S
C478 C479 1.391 . S
C479 H467 0.950 . S
C479 C475 1.393 . S
C479 C478 1.391 . S
H480 C488 0.950 . S
H481 C493 0.950 . S
H482 C490 0.950 . S
H483 C492 0.950 . S
H484 C494 0.950 . S
H485 C496 0.950 . S
H486 C498 0.950 . S
H487 C499 0.950 . S
C488 H480 0.950 . S
C488 C489 1.386 . S
C488 C490 1.391 . S
C489 C488 1.386 . S
C489 C493 1.393 . S
C490 H482 0.950 . S
C490 C488 1.391 . S
C490 C491 1.400 . S
C491 C490 1.400 . S
C491 C492 1.398 . S
C491 C497 1.491 . S
C492 H483 0.950 . S
C492 C491 1.398 . S
C492 C493 1.391 . S
C493 H481 0.950 . S
C493 C489 1.393 . S
C493 C492 1.391 . S
C494 H484 0.950 . S
C494 C495 1.386 . S
C494 C496 1.391 . S
C495 C494 1.386 . S
C495 C499 1.393 . S
C496 H485 0.950 . S
C496 C494 1.391 . S
C496 C497 1.400 . S
C497 C491 1.491 . S
C497 C496 1.400 . S
C497 C498 1.398 . S
C498 H486 0.950 . S
C498 C497 1.398 . S
C498 C499 1.391 . S
C499 H487 0.950 . S
C499 C495 1.393 . S
C499 C498 1.391 . S
H500 C508 0.950 . S
H501 C513 0.950 . S
H502 C510 0.950 . S
H503 C512 0.950 . S
H504 C514 0.950 . S
H505 C516 0.950 . S
H506 C518 0.950 . S
H507 C519 0.950 . S
C508 H500 0.950 . S
C508 C509 1.386 . S
C508 C510 1.391 . S
C509 C508 1.386 . S
C509 C513 1.393 . S
C510 H502 0.950 . S
C510 C508 1.391 . S
C510 C511 1.400 . S
C511 C510 1.400 . S
C511 C512 1.398 . S
C511 C517 1.491 . S
C512 H503 0.950 . S
C512 C511 1.398 . S
C512 C513 1.391 . S
C513 H501 0.950 . S
C513 C509 1.393 . S
C513 C512 1.391 . S
C514 H504 0.950 . S
C514 C515 1.386 . S
C514 C516 1.391 . S
C515 C514 1.386 . S
C515 C519 1.393 . S
C516 H505 0.950 . S
C516 C514 1.391 . S
C516 C517 1.400 . S
C517 C511 1.491 . S
C517 C516 1.400 . S
C517 C518 1.398 . S
C518 H506 0.950 . S
C518 C517 1.398 . S
C518 C519 1.391 . S
C519 H507 0.950 . S
C519 C515 1.393 . S
C519 C518 1.391 . S
H520 C528 0.950 . S
H521 C533 0.950 . S
H522 C530 0.950 . S
H523 C532 0.950 . S
H524 C534 0.950 . S
H525 C536 0.950 . S
H526 C538 0.950 . S
H527 C539 0.950 . S
C528 H520 0.950 . S
C528 C529 1.386 . S
C528 C530 1.391 . S
C529 C528 1.386 . S
C529 C533 1.393 . S
C530 H522 0.950 . S
C530 C528 1.391 . S
C530 C531 1.400 . S
C531 C530 1.400 . S
C531 C532 1.398 . S
C531 C537 1.491 . S
C532 H523 0.950 . S
C532 C531 1.398 . S
C532 C533 1.391 . S
C533 H521 0.950 . S
C533 C529 1.393 . S
C533 C532 1.391 . S
C534 H524 0.950 . S
C534 C535 1.386 . S
C534 C536 1.391 . S
C535 C534 1.386 . S
C535 C539 1.393 . S
C536 H525 0.950 . S
C536 C534 1.391 . S
C536 C537 1.400 . S
C537 C531 1.491 . S
C537 C536 1.400 . S
C537 C538 1.398 . S
C538 H526 0.950 . S
C538 C537 1.398 . S
C538 C539 1.391 . S
C539 H527 0.950 . S
C539 C535 1.393 . S
C539 C538 1.391 . S
C189 C166 0.974 . S
C195 C27 0.936 . S
C209 N14 1.531 . S
C215 C46 1.682 . S
C229 N36 1.628 . S
C235 N74 1.597 . S
C249 C106 0.944 . S
C255 C87 0.964 . S
C269 C147 1.682 . S
C275 N96 1.517 . S
C289 N134 1.634 . S
C295 N156 1.592 . S
C309 N126 1.471 . S
C315 C16 1.499 . S
C329 C177 1.914 . S
C335 C57 1.922 . S
C349 N66 1.253 1_554 S
C355 N6 1.251 . S
C369 C117 1.508 . S
C375 N44 1.492 . S
C389 C136 1.922 . S
C395 C76 1.915 . S
C409 N104 1.251 . S
C415 N164 1.255 . S
C429 C10 1.493 . S
C435 C1 1.493 . S
C449 C40 1.498 . S
C455 C31 1.498 . S
C469 C61 1.493 . S
C475 C70 1.493 . S
C489 C100 1.494 . S
C495 C91 1.494 . S
C509 C121 1.494 . S
C515 C130 1.494 . S
C529 C151 1.496 . S
C535 C160 1.496 . S
