# Generated by pormake.
# Topology sms, (6)-cn, num edge types: 1
# Building blocks:
#     Node 0, Type 0, BuildingBlock: IZENUY_clean_sbu_0, # of connection points: 6
#     Node 1, Type 0, BuildingBlock: IZENUY_clean_sbu_0, # of connection points: 6
#     Node 2, Type 0, BuildingBlock: IZENUY_clean_sbu_0, # of connection points: 6
#     Node 3, Type 0, BuildingBlock: IZENUY_clean_sbu_0, # of connection points: 6
#     Node 4, Type 0, BuildingBlock: IZENUY_clean_sbu_0, # of connection points: 6
#     Node 5, Type 0, BuildingBlock: IZENUY_clean_sbu_0, # of connection points: 6
#     Node 6, Type 0, BuildingBlock: IZENUY_clean_sbu_0, # of connection points: 6
#     Node 7, Type 0, BuildingBlock: IZENUY_clean_sbu_0, # of connection points: 6
#     Node 8, Type 0, BuildingBlock: IZENUY_clean_sbu_0, # of connection points: 6
#     Node 9, Type 0, BuildingBlock: IZENUY_clean_sbu_0, # of connection points: 6
#     Node 10, Type 0, BuildingBlock: IZENUY_clean_sbu_0, # of connection points: 6
#     Node 11, Type 0, BuildingBlock: IZENUY_clean_sbu_0, # of connection points: 6
#     Node 12, Type 0, BuildingBlock: IZENUY_clean_sbu_0, # of connection points: 6
#     Node 13, Type 0, BuildingBlock: IZENUY_clean_sbu_0, # of connection points: 6
#     Node 14, Type 0, BuildingBlock: IZENUY_clean_sbu_0, # of connection points: 6
#     Node 15, Type 0, BuildingBlock: IZENUY_clean_sbu_0, # of connection points: 6
#     Node 16, Type 0, BuildingBlock: IZENUY_clean_sbu_0, # of connection points: 6
#     Node 17, Type 0, BuildingBlock: IZENUY_clean_sbu_0, # of connection points: 6
#     Edge 18, Type (0, 0), BuildingBlock: UVAHIK_clean_linker_0, # of connection points: 2
#     Edge 19, Type (0, 0), BuildingBlock: UVAHIK_clean_linker_0, # of connection points: 2
#     Edge 20, Type (0, 0), BuildingBlock: UVAHIK_clean_linker_0, # of connection points: 2
#     Edge 21, Type (0, 0), BuildingBlock: UVAHIK_clean_linker_0, # of connection points: 2
#     Edge 22, Type (0, 0), BuildingBlock: UVAHIK_clean_linker_0, # of connection points: 2
#     Edge 23, Type (0, 0), BuildingBlock: UVAHIK_clean_linker_0, # of connection points: 2
#     Edge 24, Type (0, 0), BuildingBlock: UVAHIK_clean_linker_0, # of connection points: 2
#     Edge 25, Type (0, 0), BuildingBlock: UVAHIK_clean_linker_0, # of connection points: 2
#     Edge 26, Type (0, 0), BuildingBlock: UVAHIK_clean_linker_0, # of connection points: 2
#     Edge 27, Type (0, 0), BuildingBlock: UVAHIK_clean_linker_0, # of connection points: 2
#     Edge 28, Type (0, 0), BuildingBlock: UVAHIK_clean_linker_0, # of connection points: 2
#     Edge 29, Type (0, 0), BuildingBlock: UVAHIK_clean_linker_0, # of connection points: 2
#     Edge 30, Type (0, 0), BuildingBlock: UVAHIK_clean_linker_0, # of connection points: 2
#     Edge 31, Type (0, 0), BuildingBlock: UVAHIK_clean_linker_0, # of connection points: 2
#     Edge 32, Type (0, 0), BuildingBlock: UVAHIK_clean_linker_0, # of connection points: 2
#     Edge 33, Type (0, 0), BuildingBlock: UVAHIK_clean_linker_0, # of connection points: 2
#     Edge 34, Type (0, 0), BuildingBlock: UVAHIK_clean_linker_0, # of connection points: 2
#     Edge 35, Type (0, 0), BuildingBlock: UVAHIK_clean_linker_0, # of connection points: 2
#     Edge 36, Type (0, 0), BuildingBlock: UVAHIK_clean_linker_0, # of connection points: 2
#     Edge 37, Type (0, 0), BuildingBlock: UVAHIK_clean_linker_0, # of connection points: 2
#     Edge 38, Type (0, 0), BuildingBlock: UVAHIK_clean_linker_0, # of connection points: 2
#     Edge 39, Type (0, 0), BuildingBlock: UVAHIK_clean_linker_0, # of connection points: 2
#     Edge 40, Type (0, 0), BuildingBlock: UVAHIK_clean_linker_0, # of connection points: 2
#     Edge 41, Type (0, 0), BuildingBlock: UVAHIK_clean_linker_0, # of connection points: 2
#     Edge 42, Type (0, 0), BuildingBlock: UVAHIK_clean_linker_0, # of connection points: 2
#     Edge 43, Type (0, 0), BuildingBlock: UVAHIK_clean_linker_0, # of connection points: 2
#     Edge 44, Type (0, 0), BuildingBlock: UVAHIK_clean_linker_0, # of connection points: 2
#     Edge 45, Type (0, 0), BuildingBlock: UVAHIK_clean_linker_0, # of connection points: 2
#     Edge 46, Type (0, 0), BuildingBlock: UVAHIK_clean_linker_0, # of connection points: 2
#     Edge 47, Type (0, 0), BuildingBlock: UVAHIK_clean_linker_0, # of connection points: 2
#     Edge 48, Type (0, 0), BuildingBlock: UVAHIK_clean_linker_0, # of connection points: 2
#     Edge 49, Type (0, 0), BuildingBlock: UVAHIK_clean_linker_0, # of connection points: 2
#     Edge 50, Type (0, 0), BuildingBlock: UVAHIK_clean_linker_0, # of connection points: 2
#     Edge 51, Type (0, 0), BuildingBlock: UVAHIK_clean_linker_0, # of connection points: 2
#     Edge 52, Type (0, 0), BuildingBlock: UVAHIK_clean_linker_0, # of connection points: 2
#     Edge 53, Type (0, 0), BuildingBlock: UVAHIK_clean_linker_0, # of connection points: 2
#     Edge 54, Type (0, 0), BuildingBlock: UVAHIK_clean_linker_0, # of connection points: 2
#     Edge 55, Type (0, 0), BuildingBlock: UVAHIK_clean_linker_0, # of connection points: 2
#     Edge 56, Type (0, 0), BuildingBlock: UVAHIK_clean_linker_0, # of connection points: 2
#     Edge 57, Type (0, 0), BuildingBlock: UVAHIK_clean_linker_0, # of connection points: 2
#     Edge 58, Type (0, 0), BuildingBlock: UVAHIK_clean_linker_0, # of connection points: 2
#     Edge 59, Type (0, 0), BuildingBlock: UVAHIK_clean_linker_0, # of connection points: 2
#     Edge 60, Type (0, 0), BuildingBlock: UVAHIK_clean_linker_0, # of connection points: 2
#     Edge 61, Type (0, 0), BuildingBlock: UVAHIK_clean_linker_0, # of connection points: 2
#     Edge 62, Type (0, 0), BuildingBlock: UVAHIK_clean_linker_0, # of connection points: 2
#     Edge 63, Type (0, 0), BuildingBlock: UVAHIK_clean_linker_0, # of connection points: 2
#     Edge 64, Type (0, 0), BuildingBlock: UVAHIK_clean_linker_0, # of connection points: 2
#     Edge 65, Type (0, 0), BuildingBlock: UVAHIK_clean_linker_0, # of connection points: 2
#     Edge 66, Type (0, 0), BuildingBlock: UVAHIK_clean_linker_0, # of connection points: 2
#     Edge 67, Type (0, 0), BuildingBlock: UVAHIK_clean_linker_0, # of connection points: 2
#     Edge 68, Type (0, 0), BuildingBlock: UVAHIK_clean_linker_0, # of connection points: 2
#     Edge 69, Type (0, 0), BuildingBlock: UVAHIK_clean_linker_0, # of connection points: 2
#     Edge 70, Type (0, 0), BuildingBlock: UVAHIK_clean_linker_0, # of connection points: 2
#     Edge 71, Type (0, 0), BuildingBlock: UVAHIK_clean_linker_0, # of connection points: 2
# Relax obj value: 0.430
# Max RMSD: 0.158
# Mean RMSD: 0.158
data_MOF--net-sms--node1-IZENUY_clean_sbu_0--edge1-UVAHIK_clean_linker_0
_symmetry_space_group_name_H-M    P1
_symmetry_Int_Tables_number       1
_symmetry_cell_setting            triclinic
loop_
_symmetry_equiv_pos_as_xyz
'x, y, z'
_cell_length_a     48.501081
_cell_length_b     48.482162
_cell_length_c     76.765006
_cell_angle_alpha  89.972056
_cell_angle_beta   89.990899
_cell_angle_gamma 120.01133
loop_
_atom_site_label
_atom_site_type_symbol
_atom_site_fract_x
_atom_site_fract_y
_atom_site_fract_z
_atom_type_partial_charge
Fe0 Fe 0.20541 0.4161 0.09249 0.0
Fe1 Fe 0.17256 0.34849 0.07771 0.0
O2 O 0.19357 0.39029 0.07437 0.0
Fe3 Fe 0.20271 0.40625 0.05306 0.0
O4 O 0.24076 0.4412 0.05917 0.0
O5 O 0.24712 0.43354 0.0868 0.0
O6 O 0.21056 0.38905 0.1071 0.0
C7 C 0.21647 0.36702 0.10362 0.0
C8 C 0.18645 0.44708 0.06815 0.0
O9 O 0.20547 0.35042 0.09006 0.0
C10 C 0.13996 0.35399 0.05017 0.0
O11 O 0.16445 0.40029 0.09901 0.0
O12 O 0.15192 0.35005 0.09759 0.0
O13 O 0.18105 0.42754 0.056 0.0
O14 O 0.20239 0.44781 0.08135 0.0
C15 C 0.21413 0.35679 0.04979 0.0
O16 O 0.13871 0.34424 0.06554 0.0
O17 O 0.16628 0.37392 0.0433 0.0
C18 C 0.14558 0.37135 0.10227 0.0
O19 O 0.18907 0.33937 0.05843 0.0
O20 O 0.22506 0.38637 0.04864 0.0
C21 C 0.25865 0.44623 0.07224 0.0
Fe22 Fe 0.57915 0.7879 0.09517 0.0
Fe23 Fe 0.64709 0.82267 0.08063 0.0
O24 O 0.60529 0.80199 0.07711 0.0
Fe25 Fe 0.58934 0.79505 0.05577 0.0
O26 O 0.55449 0.79844 0.06195 0.0
O27 O 0.56225 0.81269 0.08955 0.0
O28 O 0.60608 0.81937 0.11011 0.0
C29 C 0.62833 0.84729 0.10692 0.0
C30 C 0.54846 0.73808 0.071 0.0
O31 O 0.64508 0.8531 0.09343 0.0
C32 C 0.64217 0.78542 0.05261 0.0
O33 O 0.5944 0.7623 0.10142 0.0
O34 O 0.64507 0.79909 0.10009 0.0
O35 O 0.56813 0.75216 0.05891 0.0
O36 O 0.5472 0.7535 0.08393 0.0
C37 C 0.63884 0.85626 0.05267 0.0
O38 O 0.65218 0.79409 0.06792 0.0
O39 O 0.62134 0.79065 0.04596 0.0
C40 C 0.62321 0.77145 0.10453 0.0
O41 O 0.65625 0.84935 0.06186 0.0
O42 O 0.60943 0.83716 0.051 0.0
C43 C 0.54932 0.81125 0.07504 0.0
Fe44 Fe 0.16952 0.82354 0.0782 0.0
Fe45 Fe 0.19969 0.79611 0.05336 0.0
O46 O 0.19056 0.80285 0.07472 0.0
Fe47 Fe 0.20235 0.78872 0.09282 0.0
O48 O 0.16138 0.76326 0.09916 0.0
O49 O 0.14856 0.80076 0.09792 0.0
O50 O 0.13573 0.79425 0.06585 0.0
C51 C 0.13694 0.78588 0.05045 0.0
C52 C 0.21345 0.84864 0.10415 0.0
O53 O 0.16317 0.79192 0.0436 0.0
C54 C 0.25569 0.81185 0.07277 0.0
O55 O 0.18643 0.84974 0.05919 0.0
O56 O 0.22179 0.83829 0.04877 0.0
O57 O 0.20724 0.82061 0.10762 0.0
O58 O 0.20232 0.85429 0.09067 0.0
C59 C 0.18372 0.73902 0.06841 0.0
O60 O 0.23794 0.79941 0.05956 0.0
O61 O 0.24402 0.81323 0.08722 0.0
C62 C 0.21115 0.85713 0.05028 0.0
O63 O 0.17814 0.75313 0.05631 0.0
O64 O 0.19966 0.75424 0.08159 0.0
C65 C 0.14223 0.77298 0.10231 0.0
Fe66 Fe 0.40309 0.2029 0.94157 0.0
Fe67 Fe 0.41354 0.2022 0.90225 0.0
O68 O 0.38754 0.1922 0.92024 0.0
Fe69 Fe 0.34582 0.1714 0.91687 0.0
O70 O 0.33691 0.18946 0.93553 0.0
O71 O 0.38397 0.2264 0.94461 0.0
O72 O 0.43893 0.23999 0.93496 0.0
C73 C 0.44511 0.25685 0.92131 0.0
C74 C 0.35042 0.14069 0.94547 0.0
O75 O 0.43212 0.24437 0.907 0.0
C76 C 0.36781 0.14227 0.8932 0.0
O77 O 0.42339 0.18018 0.93992 0.0
O78 O 0.44435 0.19849 0.91416 0.0
O79 O 0.34129 0.13827 0.92988 0.0
O80 O 0.36994 0.16758 0.95195 0.0
C81 C 0.36536 0.21393 0.89019 0.0
O82 O 0.3968 0.16079 0.89643 0.0
O83 O 0.34691 0.14928 0.8976 0.0
C84 C 0.44297 0.18384 0.92809 0.0
O85 O 0.38724 0.20759 0.88709 0.0
O86 O 0.34839 0.20366 0.90368 0.0
C87 C 0.3544 0.21541 0.94344 0.0
Fe88 Fe 0.81751 0.17529 0.92172 0.0
Fe89 Fe 0.79056 0.20449 0.94739 0.0
O90 O 0.79626 0.1955 0.92581 0.0
Fe91 Fe 0.78063 0.20665 0.90818 0.0
O92 O 0.75583 0.16554 0.90183 0.0
O93 O 0.79437 0.15423 0.90217 0.0
O94 O 0.78907 0.14117 0.93424 0.0
C95 C 0.78191 0.1424 0.9499 0.0
C96 C 0.84061 0.21942 0.89575 0.0
O97 O 0.78838 0.16863 0.95692 0.0
C98 C 0.8036 0.25988 0.92835 0.0
O99 O 0.84426 0.19244 0.94049 0.0
O100 O 0.83302 0.22786 0.95094 0.0
O101 O 0.81224 0.2127 0.89282 0.0
O102 O 0.84728 0.20853 0.909 0.0
C103 C 0.73211 0.18624 0.93348 0.0
O104 O 0.79193 0.24201 0.94158 0.0
O105 O 0.80448 0.24838 0.91375 0.0
C106 C 0.85209 0.21754 0.94914 0.0
O107 O 0.74748 0.18165 0.94527 0.0
O108 O 0.74619 0.20262 0.92016 0.0
C109 C 0.76631 0.14722 0.898 0.0
Fe110 Fe 0.82385 0.6538 0.91642 0.0
Fe111 Fe 0.79064 0.59608 0.94094 0.0
O112 O 0.80136 0.612 0.91967 0.0
Fe113 Fe 0.78984 0.58619 0.90157 0.0
O114 O 0.83088 0.60092 0.89586 0.0
O115 O 0.84535 0.65167 0.89702 0.0
O116 O 0.85641 0.65664 0.92927 0.0
C117 C 0.85393 0.64706 0.94477 0.0
C118 C 0.78128 0.63658 0.88982 0.0
O119 O 0.82692 0.62793 0.95128 0.0
C120 C 0.73549 0.55625 0.92083 0.0
O121 O 0.80684 0.66353 0.93527 0.0
O122 O 0.76891 0.61691 0.94451 0.0
O123 O 0.78632 0.61386 0.88664 0.0
O124 O 0.79232 0.65321 0.90338 0.0
C125 C 0.80686 0.55469 0.92651 0.0
O126 O 0.75258 0.5615 0.93431 0.0
O127 O 0.74789 0.56949 0.90652 0.0
C128 C 0.78096 0.64666 0.94339 0.0
O129 O 0.81162 0.57396 0.93872 0.0
O130 O 0.79152 0.55405 0.91306 0.0
C131 C 0.85093 0.62963 0.89292 0.0
Fe132 Fe 0.86937 0.74629 0.42873 0.0
Fe133 Fe 0.83613 0.67898 0.41341 0.0
O134 O 0.85717 0.72092 0.41036 0.0
Fe135 Fe 0.86612 0.73771 0.3892 0.0
O136 O 0.90454 0.77237 0.39553 0.0
O137 O 0.91091 0.76335 0.42293 0.0
O138 O 0.8743 0.71882 0.44313 0.0
C139 C 0.88029 0.69709 0.43918 0.0
C140 C 0.85041 0.7782 0.40509 0.0
O141 O 0.86893 0.68072 0.42564 0.0
C142 C 0.80352 0.6848 0.38591 0.0
O143 O 0.82858 0.7307 0.43521 0.0
O144 O 0.81502 0.68018 0.43327 0.0
O145 O 0.84465 0.7589 0.3928 0.0
O146 O 0.8667 0.77864 0.41804 0.0
C147 C 0.87737 0.68822 0.38498 0.0
O148 O 0.80229 0.67441 0.40113 0.0
O149 O 0.82951 0.706 0.37931 0.0
C150 C 0.80911 0.70174 0.4381 0.0
O151 O 0.85315 0.67051 0.39416 0.0
O152 O 0.88802 0.71777 0.38391 0.0
C153 C 0.92247 0.77681 0.40854 0.0
Fe154 Fe 0.25195 0.12518 0.38629 0.0
Fe155 Fe 0.2446 0.12183 0.4259 0.0
O156 O 0.26926 0.1352 0.40728 0.0
Fe157 Fe 0.31109 0.15869 0.4098 0.0
O158 O 0.31219 0.19126 0.39776 0.0
O159 O 0.28217 0.16245 0.37596 0.0
O160 O 0.2289 0.14476 0.39022 0.0
C161 C 0.20992 0.13818 0.40281 0.0
C162 C 0.3036 0.11755 0.38165 0.0
O163 O 0.21073 0.12216 0.4156 0.0
C164 C 0.29684 0.1152 0.43565 0.0
O165 O 0.21877 0.08602 0.39295 0.0
O166 O 0.22963 0.08055 0.42012 0.0
O167 O 0.3204 0.14285 0.39028 0.0
O168 O 0.27374 0.10506 0.38099 0.0
C169 C 0.28659 0.18322 0.43495 0.0
O170 O 0.27391 0.11921 0.43983 0.0
O171 O 0.31258 0.1273 0.42196 0.0
C172 C 0.21567 0.06843 0.40593 0.0
O173 O 0.25799 0.16224 0.4324 0.0
O174 O 0.3091 0.17905 0.42977 0.0
C175 C 0.30161 0.18925 0.38254 0.0
Fe176 Fe 0.83315 0.15379 0.41356 0.0
Fe177 Fe 0.86234 0.12527 0.3889 0.0
O178 O 0.85323 0.13213 0.41023 0.0
Fe179 Fe 0.86409 0.1172 0.42837 0.0
O180 O 0.82284 0.09279 0.43457 0.0
O181 O 0.81153 0.13134 0.43317 0.0
O182 O 0.79916 0.12514 0.40105 0.0
C183 C 0.80066 0.11737 0.38555 0.0
C184 C 0.87685 0.17763 0.43967 0.0
O185 O 0.82682 0.12285 0.3789 0.0
C186 C 0.9175 0.13912 0.40836 0.0
O187 O 0.85087 0.17985 0.39458 0.0
O188 O 0.88584 0.16749 0.38465 0.0
O189 O 0.86997 0.14943 0.44319 0.0
O190 O 0.86622 0.18384 0.42618 0.0
C191 C 0.8439 0.06752 0.40385 0.0
O192 O 0.89964 0.12688 0.39521 0.0
O193 O 0.90604 0.14057 0.42289 0.0
C194 C 0.87576 0.18684 0.38593 0.0
O195 O 0.8394 0.08225 0.39165 0.0
O196 O 0.86012 0.08228 0.41706 0.0
C197 C 0.80423 0.10328 0.43748 0.0
Fe198 Fe 0.01745 0.5074 0.25504 0.0
Fe199 Fe 0.07165 0.53605 0.28204 0.0
O200 O 0.05868 0.52794 0.2601 0.0
Fe201 Fe 0.08718 0.54067 0.24325 0.0
O202 O 0.07279 0.56538 0.23412 0.0
O203 O 0.02192 0.52917 0.23453 0.0
O204 O 0.01189 0.53756 0.26579 0.0
C205 C 0.01878 0.54557 0.28149 0.0
C206 C 0.03941 0.48016 0.23189 0.0
O207 O 0.03765 0.53939 0.28969 0.0
C208 C 0.11472 0.51985 0.26672 0.0
O209 O 0.00598 0.48207 0.27465 0.0
O210 O 0.05168 0.49412 0.287 0.0
O211 O 0.06269 0.50748 0.22863 0.0
O212 O 0.02011 0.47579 0.24396 0.0
C213 C 0.1134 0.59233 0.26665 0.0
O214 O 0.10796 0.53384 0.27848 0.0
O215 O 0.10343 0.51678 0.25159 0.0
C216 C 0.02243 0.47503 0.28464 0.0
O217 O 0.09255 0.57881 0.27832 0.0
O218 O 0.11681 0.57627 0.25472 0.0
C219 C 0.04448 0.55609 0.22972 0.0
Fe220 Fe 0.48847 0.50545 0.25031 0.0
Fe221 Fe 0.46578 0.53836 0.27602 0.0
O222 O 0.47063 0.52899 0.25444 0.0
Fe223 Fe 0.4575 0.54304 0.23693 0.0
O224 O 0.42986 0.50277 0.23027 0.0
O225 O 0.46461 0.48627 0.23059 0.0
O226 O 0.4578 0.47238 0.26255 0.0
C227 C 0.45091 0.47407 0.27821 0.0
C228 C 0.5155 0.55005 0.22474 0.0
O229 O 0.45991 0.50083 0.28534 0.0
C230 C 0.48369 0.59573 0.25751 0.0
O231 O 0.51522 0.52016 0.2693 0.0
O232 O 0.50825 0.55852 0.27965 0.0
O233 O 0.48818 0.54628 0.22169 0.0
O234 O 0.52029 0.5374 0.23787 0.0
C235 C 0.40927 0.52649 0.26217 0.0
O236 O 0.47088 0.5776 0.27053 0.0
O237 O 0.48427 0.58425 0.24284 0.0
C238 C 0.52518 0.54574 0.27787 0.0
O239 O 0.42281 0.51877 0.27362 0.0
O240 O 0.42443 0.54231 0.24891 0.0
C241 C 0.43753 0.48225 0.22642 0.0
Fe242 Fe 0.48762 0.98355 0.24945 0.0
Fe243 Fe 0.46074 0.9272 0.27528 0.0
O244 O 0.4675 0.94188 0.25364 0.0
Fe245 Fe 0.45381 0.91472 0.23608 0.0
O246 O 0.48604 0.94066 0.22123 0.0
O247 O 0.51865 0.98168 0.23726 0.0
O248 O 0.51397 0.99398 0.26856 0.0
C249 C 0.52136 0.97716 0.27798 0.0
C250 C 0.43736 0.95807 0.22505 0.0
O251 O 0.50282 0.94765 0.27974 0.0
C252 C 0.4038 0.88543 0.2605 0.0
O253 O 0.45808 0.9882 0.2615 0.0
O254 O 0.45653 0.95996 0.28429 0.0
O255 O 0.42841 0.92953 0.22876 0.0
O256 O 0.46465 0.98036 0.22956 0.0
C257 C 0.4767 0.8858 0.25729 0.0
O258 O 0.41789 0.90567 0.27233 0.0
O259 O 0.41906 0.8837 0.24759 0.0
C260 C 0.45016 0.97961 0.27707 0.0
O261 O 0.464 0.89177 0.27012 0.0
O262 O 0.47828 0.89808 0.24259 0.0
C263 C 0.51367 0.96335 0.22458 0.0
Fe264 Fe 0.50835 0.01429 0.74481 0.0
Fe265 Fe 0.53499 0.07107 0.71943 0.0
O266 O 0.52988 0.0559 0.7409 0.0
Fe267 Fe 0.54651 0.08231 0.75861 0.0
O268 O 0.57121 0.06544 0.76411 0.0
O269 O 0.53217 0.01579 0.76393 0.0
O270 O 0.53599 0.00848 0.7317 0.0
C271 C 0.54319 0.01743 0.71611 0.0
C272 C 0.4869 0.03517 0.77161 0.0
O273 O 0.5368 0.03751 0.70942 0.0
C274 C 0.52346 0.11368 0.73945 0.0
O275 O 0.48091 0.00524 0.72641 0.0
O276 O 0.49246 0.05222 0.71631 0.0
O277 O 0.5155 0.05665 0.77417 0.0
O278 O 0.47939 0.01787 0.75821 0.0
C279 C 0.594 0.11079 0.73282 0.0
O280 O 0.53398 0.10718 0.72583 0.0
O281 O 0.52293 0.10089 0.75387 0.0
C282 C 0.47322 0.02285 0.71798 0.0
O283 O 0.57816 0.09122 0.72099 0.0
O284 O 0.58052 0.11274 0.74647 0.0
C285 C 0.5606 0.03649 0.76759 0.0
Fe286 Fe 0.91331 0.45366 0.75795 0.0
Fe287 Fe 0.98147 0.48791 0.74401 0.0
O288 O 0.93987 0.46825 0.74017 0.0
Fe289 Fe 0.92467 0.46303 0.71873 0.0
O290 O 0.88981 0.46654 0.72492 0.0
O291 O 0.89741 0.47936 0.75269 0.0
O292 O 0.94023 0.48429 0.77334 0.0
C293 C 0.9628 0.51217 0.7704 0.0
C294 C 0.88274 0.40543 0.73278 0.0
O295 O 0.97994 0.51833 0.75706 0.0
C296 C 0.97659 0.45195 0.71552 0.0
O297 O 0.92763 0.42716 0.76389 0.0
O298 O 0.97843 0.46351 0.76336 0.0
O299 O 0.90277 0.41998 0.72091 0.0
O300 O 0.88149 0.42017 0.74606 0.0
C301 C 0.97495 0.52366 0.71661 0.0
O302 O 0.98558 0.45901 0.73111 0.0
O303 O 0.95692 0.45888 0.70885 0.0
C304 C 0.95613 0.43589 0.76753 0.0
O305 O 0.99179 0.5154 0.72541 0.0
O306 O 0.94538 0.5054 0.71506 0.0
C307 C 0.88478 0.47892 0.73825 0.0
Fe308 Fe 0.50724 0.49356 0.74611 0.0
Fe309 Fe 0.53647 0.46338 0.72281 0.0
O310 O 0.52786 0.47217 0.74384 0.0
Fe311 Fe 0.53961 0.45938 0.76256 0.0
O312 O 0.50558 0.45319 0.77586 0.0
O313 O 0.47481 0.46058 0.75768 0.0
O314 O 0.48342 0.47735 0.72619 0.0
C315 C 0.476 0.45203 0.71784 0.0
C316 C 0.55347 0.51865 0.77292 0.0
O317 O 0.49458 0.44093 0.71739 0.0
C318 C 0.59213 0.47987 0.73971 0.0
O319 O 0.53838 0.52754 0.73461 0.0
O320 O 0.54107 0.49983 0.71267 0.0
O321 O 0.56358 0.49967 0.77021 0.0
O322 O 0.52742 0.51386 0.76645 0.0
C323 C 0.51982 0.40702 0.74192 0.0
O324 O 0.57902 0.48515 0.72695 0.0
O325 O 0.57593 0.46368 0.75266 0.0
C326 C 0.54746 0.52623 0.7194 0.0
O327 O 0.53341 0.4254 0.72912 0.0
O328 O 0.51638 0.4179 0.75616 0.0
C329 C 0.47842 0.44828 0.77133 0.0
Fe330 Fe 0.74162 0.86874 0.60808 0.0
Fe331 Fe 0.74849 0.87401 0.56839 0.0
O332 O 0.72407 0.86051 0.58711 0.0
Fe333 Fe 0.68213 0.83907 0.58461 0.0
O334 O 0.67804 0.86873 0.59678 0.0
O335 O 0.70973 0.873 0.61844 0.0
O336 O 0.76216 0.91147 0.60432 0.0
C337 C 0.78088 0.92521 0.59179 0.0
C338 C 0.69296 0.80767 0.6127 0.0
O339 O 0.78091 0.90949 0.57868 0.0
C340 C 0.6995 0.81305 0.55852 0.0
O341 O 0.77643 0.86565 0.60118 0.0
O342 O 0.76667 0.85038 0.57376 0.0
O343 O 0.67473 0.81414 0.604 0.0
O344 O 0.72248 0.82687 0.61348 0.0
C345 C 0.70261 0.88817 0.55973 0.0
O346 O 0.72066 0.84103 0.55439 0.0
O347 O 0.68382 0.80793 0.57238 0.0
C348 C 0.78092 0.8527 0.58791 0.0
O349 O 0.7318 0.89854 0.56231 0.0
O350 O 0.68193 0.86045 0.5647 0.0
C351 C 0.68869 0.87815 0.61191 0.0
Fe352 Fe 0.12949 0.86786 0.60727 0.0
Fe353 Fe 0.12935 0.87582 0.56777 0.0
O354 O 0.13986 0.8613 0.5862 0.0
Fe355 Fe 0.16081 0.84034 0.58339 0.0
O356 O 0.14266 0.81411 0.60232 0.0
O357 O 0.1067 0.82565 0.61157 0.0
O358 O 0.09194 0.86525 0.60028 0.0
C359 C 0.07488 0.85298 0.58683 0.0
C360 C 0.19176 0.87752 0.61156 0.0
O361 O 0.08728 0.85156 0.57264 0.0
C362 C 0.18983 0.89107 0.55945 0.0
O363 O 0.15169 0.91079 0.60452 0.0
O364 O 0.13183 0.9104 0.57882 0.0
O365 O 0.19394 0.86933 0.59626 0.0
O366 O 0.16511 0.87146 0.61781 0.0
C367 C 0.11831 0.81583 0.55674 0.0
O368 O 0.17068 0.90097 0.56216 0.0
O369 O 0.1831 0.8632 0.56393 0.0
C370 C 0.14714 0.92528 0.59224 0.0
O371 O 0.12503 0.84397 0.55313 0.0
O372 O 0.12857 0.80992 0.57048 0.0
C373 C 0.11752 0.80686 0.61081 0.0
Fe374 Fe 0.16007 0.31516 0.58462 0.0
Fe375 Fe 0.12929 0.25813 0.6098 0.0
O376 O 0.13854 0.2735 0.58835 0.0
Fe377 Fe 0.12618 0.24708 0.57047 0.0
O378 O 0.16692 0.26188 0.56413 0.0
O379 O 0.18104 0.31256 0.56506 0.0
O380 O 0.19365 0.3196 0.59714 0.0
C381 C 0.19226 0.31033 0.61263 0.0
C382 C 0.116 0.29611 0.55865 0.0
O383 O 0.16587 0.29047 0.61948 0.0
C384 C 0.07301 0.21798 0.59073 0.0
O385 O 0.14331 0.32508 0.60349 0.0
O386 O 0.10738 0.27851 0.6139 0.0
O387 O 0.12177 0.27396 0.55537 0.0
O388 O 0.12745 0.31322 0.57199 0.0
C389 C 0.14506 0.21672 0.59508 0.0
O390 O 0.09095 0.22319 0.60382 0.0
O391 O 0.08457 0.23054 0.57615 0.0
C392 C 0.11825 0.30802 0.61224 0.0
O393 O 0.15065 0.23648 0.60713 0.0
O394 O 0.12853 0.2154 0.58205 0.0
C395 C 0.18669 0.29056 0.56078 0.0
C396 C 0.17479 0.68834 0.08147 0.0
C397 C 0.17539 0.70539 0.06655 0.0
C398 C 0.17119 0.65811 0.08 0.0
C399 C 0.14796 0.58874 0.05173 0.0
H400 H 0.20992 0.58073 0.07995 0.0
C401 C 0.17234 0.48159 0.04999 0.0
C402 C 0.1778 0.47216 0.06636 0.0
C403 C 0.16836 0.50825 0.04857 0.0
C404 C 0.19226 0.58242 0.07211 0.0
H405 H 0.17058 0.7033 0.03842 0.0
H406 H 0.16463 0.65007 0.03584 0.0
H407 H 0.20933 0.63044 0.07999 0.0
H408 H 0.18061 0.48143 0.09414 0.0
H409 H 0.17329 0.52726 0.09167 0.0
H410 H 0.13097 0.54025 0.04392 0.0
C411 C 0.16688 0.6603 0.04866 0.0
C412 C 0.19192 0.61093 0.07213 0.0
C413 C 0.17034 0.69073 0.05014 0.0
C414 C 0.17713 0.4885 0.0813 0.0
C415 C 0.17301 0.51482 0.07989 0.0
C416 C 0.14829 0.55995 0.05171 0.0
C417 C 0.16832 0.64421 0.06357 0.0
C418 C 0.16937 0.61423 0.06226 0.0
C419 C 0.16969 0.52567 0.0635 0.0
C420 C 0.17004 0.55637 0.06223 0.0
H421 H 0.17796 0.69871 0.09433 0.0
H422 H 0.17156 0.64593 0.09176 0.0
H423 H 0.1304 0.59073 0.04395 0.0
H424 H 0.17259 0.46932 0.03826 0.0
H425 H 0.16576 0.51607 0.03577 0.0
C426 C 0.51666 0.68831 0.05335 0.0
C427 C 0.52446 0.70393 0.06954 0.0
C428 C 0.49196 0.65665 0.05211 0.0
C429 C 0.44154 0.58405 0.078 0.0
H430 H 0.37593 0.56954 0.04445 0.0
C431 C 0.31122 0.48427 0.08583 0.0
C432 C 0.29279 0.47042 0.07084 0.0
C433 C 0.34261 0.50926 0.08436 0.0
C434 C 0.39424 0.57281 0.05365 0.0
H435 H 0.51388 0.69819 0.09721 0.0
H436 H 0.47109 0.64319 0.09504 0.0
H437 H 0.42625 0.61951 0.04391 0.0
H438 H 0.29347 0.47046 0.04258 0.0
H439 H 0.34838 0.5135 0.04004 0.0
H440 H 0.40932 0.53759 0.08798 0.0
C441 C 0.48387 0.65528 0.08331 0.0
C442 C 0.4231 0.60152 0.05333 0.0
C443 C 0.50818 0.6869 0.08452 0.0
C444 C 0.3069 0.48099 0.05439 0.0
C445 C 0.33835 0.50575 0.05292 0.0
C446 C 0.41275 0.55521 0.07825 0.0
C447 C 0.47508 0.64 0.06707 0.0
C448 C 0.44671 0.60775 0.06578 0.0
C449 C 0.35636 0.52072 0.06788 0.0
C450 C 0.38843 0.54956 0.06635 0.0
H451 H 0.5289 0.70081 0.0416 0.0
H452 H 0.48575 0.64533 0.03944 0.0
H453 H 0.45952 0.58812 0.08763 0.0
H454 H 0.30106 0.47665 0.0987 0.0
H455 H 0.35561 0.52044 0.09618 0.0
C456 C 0.51275 0.82766 0.08888 0.0
C457 C 0.52414 0.81997 0.07387 0.0
C458 C 0.48667 0.83251 0.08789 0.0
C459 C 0.41616 0.80942 0.06066 0.0
H460 H 0.40682 0.87114 0.08834 0.0
C461 C 0.303 0.81858 0.05601 0.0
C462 C 0.28956 0.82032 0.0719 0.0
C463 C 0.33389 0.82341 0.05542 0.0
C464 C 0.40904 0.85367 0.0806 0.0
H465 H 0.5183 0.81338 0.04587 0.0
H466 H 0.4732 0.82218 0.04414 0.0
H467 H 0.45717 0.87099 0.08887 0.0
H468 H 0.29872 0.83008 0.09954 0.0
H469 H 0.35239 0.83796 0.09855 0.0
H470 H 0.36801 0.79157 0.05267 0.0
C471 C 0.48393 0.82373 0.05674 0.0
C472 C 0.43786 0.8536 0.08091 0.0
C473 C 0.50988 0.81882 0.05774 0.0
C474 C 0.30827 0.82843 0.08708 0.0
C475 C 0.33915 0.83315 0.0865 0.0
C476 C 0.38743 0.80947 0.06037 0.0
C477 C 0.47152 0.82986 0.07185 0.0
C478 C 0.44167 0.83133 0.071 0.0
C479 C 0.35206 0.83 0.07073 0.0
C480 C 0.38342 0.83145 0.0704 0.0
H481 H 0.52324 0.82885 0.10151 0.0
H482 H 0.47759 0.83701 0.09979 0.0
H483 H 0.41802 0.7915 0.05316 0.0
H484 H 0.28942 0.81278 0.04403 0.0
H485 H 0.34336 0.82146 0.043 0.0
C486 C 0.47267 0.16643 0.94795 0.0
C487 C 0.46683 0.17384 0.93112 0.0
C488 C 0.49683 0.15912 0.95075 0.0
C489 C 0.54858 0.13481 0.92795 0.0
H490 H 0.61147 0.18515 0.96295 0.0
C491 C 0.67962 0.17304 0.92098 0.0
C492 C 0.69784 0.1751 0.93566 0.0
C493 C 0.64784 0.16482 0.92274 0.0
C494 C 0.59381 0.17032 0.9534 0.0
H495 H 0.48082 0.17804 0.90397 0.0
H496 H 0.52269 0.16528 0.90883 0.0
H497 H 0.56121 0.18526 0.96183 0.0
H498 H 0.69671 0.16906 0.96369 0.0
H499 H 0.64078 0.15499 0.96682 0.0
H500 H 0.58166 0.12092 0.91905 0.0
C501 C 0.50865 0.16504 0.91987 0.0
C502 C 0.56503 0.17041 0.95274 0.0
C503 C 0.48483 0.17266 0.9171 0.0
C504 C 0.68324 0.16773 0.95215 0.0
C505 C 0.65134 0.15979 0.95394 0.0
C506 C 0.57726 0.13467 0.92863 0.0
C507 C 0.51522 0.1586 0.93674 0.0
C508 C 0.54268 0.15363 0.93958 0.0
C509 C 0.63344 0.15859 0.93925 0.0
C510 C 0.6007 0.15342 0.94091 0.0
H511 H 0.45916 0.16709 0.95902 0.0
H512 H 0.50132 0.15413 0.96387 0.0
H513 H 0.53151 0.12114 0.91789 0.0
H514 H 0.69008 0.17829 0.90808 0.0
H515 H 0.6349 0.16456 0.91119 0.0
C516 C 0.82384 0.519 0.91324 0.0
C517 C 0.8162 0.53022 0.92828 0.0
C518 C 0.82877 0.49311 0.91412 0.0
C519 C 0.83996 0.43911 0.94403 0.0
H520 H 0.79875 0.37923 0.90623 0.0
C521 C 0.80838 0.30655 0.94509 0.0
C522 C 0.81221 0.29376 0.92943 0.0
C523 C 0.81375 0.33769 0.94564 0.0
C524 C 0.8108 0.39587 0.91675 0.0
H525 H 0.80938 0.52442 0.9562 0.0
H526 H 0.81696 0.47814 0.95772 0.0
H527 H 0.79938 0.42952 0.90612 0.0
H528 H 0.82657 0.30437 0.90234 0.0
H529 H 0.8359 0.35857 0.90334 0.0
H530 H 0.8504 0.4045 0.95486 0.0
C531 C 0.81968 0.48974 0.94527 0.0
C532 C 0.81124 0.4248 0.91668 0.0
C533 C 0.81524 0.51614 0.94442 0.0
C534 C 0.82297 0.31329 0.91456 0.0
C535 C 0.82825 0.34433 0.91511 0.0
C536 C 0.83933 0.4099 0.94415 0.0
C537 C 0.82556 0.47737 0.93002 0.0
C538 C 0.82593 0.44689 0.93026 0.0
C539 C 0.823 0.35661 0.93054 0.0
C540 C 0.8248 0.38805 0.93046 0.0
H541 H 0.82533 0.52987 0.90067 0.0
H542 H 0.83426 0.48487 0.90221 0.0
H543 H 0.85163 0.45566 0.95463 0.0
H544 H 0.80032 0.29223 0.95681 0.0
H545 H 0.80936 0.34646 0.95769 0.0
C546 C 0.68763 0.51586 0.93726 0.0
C547 C 0.70177 0.53035 0.92132 0.0
C548 C 0.65729 0.48895 0.93768 0.0
C549 C 0.58408 0.43972 0.91182 0.0
H550 H 0.57716 0.37189 0.94159 0.0
C551 C 0.48204 0.3085 0.90629 0.0
C552 C 0.47082 0.29066 0.92175 0.0
C553 C 0.50805 0.33954 0.90662 0.0
C554 C 0.57842 0.39071 0.93342 0.0
H555 H 0.69428 0.52881 0.89339 0.0
H556 H 0.64138 0.48154 0.89413 0.0
H557 H 0.62606 0.42307 0.94151 0.0
H558 H 0.47717 0.29217 0.94978 0.0
H559 H 0.52213 0.34631 0.95037 0.0
H560 H 0.53641 0.40696 0.90358 0.0
C561 C 0.65375 0.49116 0.90632 0.0
C562 C 0.60652 0.42011 0.93337 0.0
C563 C 0.68414 0.51821 0.90589 0.0
C564 C 0.48541 0.30505 0.9376 0.0
C565 C 0.51131 0.33607 0.93793 0.0
C566 C 0.55586 0.41021 0.91189 0.0
C567 C 0.64033 0.47576 0.92219 0.0
C568 C 0.60976 0.44498 0.92255 0.0
C569 C 0.52336 0.35348 0.92242 0.0
C570 C 0.55275 0.38532 0.92267 0.0
H571 H 0.70034 0.52481 0.94943 0.0
H572 H 0.64735 0.47808 0.95016 0.0
H573 H 0.58573 0.45848 0.90345 0.0
H574 H 0.47132 0.2982 0.89384 0.0
H575 H 0.51685 0.35216 0.89442 0.0
C576 C 0.83128 0.01925 0.38581 0.0
C577 C 0.83404 0.03352 0.40214 0.0
C578 C 0.82731 0.98857 0.38476 0.0
C579 C 0.84918 0.93929 0.41032 0.0
H580 H 0.79304 0.86886 0.38046 0.0
C581 C 0.8405 0.81895 0.41871 0.0
C582 C 0.84152 0.80312 0.40364 0.0
C583 C 0.83525 0.84461 0.41752 0.0
C584 C 0.80902 0.88847 0.38875 0.0
H585 H 0.83163 0.02592 0.43008 0.0
H586 H 0.82436 0.97267 0.42824 0.0
H587 H 0.79095 0.91849 0.37984 0.0
H588 H 0.83614 0.80061 0.37554 0.0
H589 H 0.82772 0.8463 0.37342 0.0
H590 H 0.86775 0.91013 0.41908 0.0
C591 C 0.82614 0.98531 0.41627 0.0
C592 C 0.80779 0.91677 0.38839 0.0
C593 C 0.83026 0.01578 0.41731 0.0
C594 C 0.83561 0.8125 0.38738 0.0
C595 C 0.83067 0.83855 0.38617 0.0
C596 C 0.85052 0.91132 0.41061 0.0
C597 C 0.82592 0.9719 0.40004 0.0
C598 C 0.82751 0.94219 0.39944 0.0
C599 C 0.83131 0.85539 0.40122 0.0
C600 C 0.83011 0.88535 0.40009 0.0
H601 H 0.83402 0.03241 0.37391 0.0
H602 H 0.82714 0.97869 0.37209 0.0
H603 H 0.86529 0.95882 0.41862 0.0
H604 H 0.8443 0.81183 0.43146 0.0
H605 H 0.83497 0.85649 0.42941 0.0
C606 C 0.96916 0.82015 0.39256 0.0
C607 C 0.95663 0.8014 0.40761 0.0
C608 C 0.00066 0.84516 0.3922 0.0
C609 C 0.06337 0.9004 0.42181 0.0
H610 H 0.11579 0.92454 0.38023 0.0
C611 C 0.18593 0.01456 0.42003 0.0
C612 C 0.19145 0.0341 0.40539 0.0
C613 C 0.16075 0.98311 0.42016 0.0
C614 C 0.1014 0.91814 0.39193 0.0
H615 H 0.968 0.79317 0.43376 0.0
H616 H 0.02302 0.83671 0.43306 0.0
H617 H 0.06504 0.87455 0.38073 0.0
H618 H 0.1758 0.03528 0.37904 0.0
H619 H 0.13175 0.9807 0.37937 0.0
H620 H 0.09914 0.94428 0.43287 0.0
C621 C 0.00826 0.83241 0.42166 0.0
C622 C 0.07234 0.88952 0.39222 0.0
C623 C 0.97675 0.80739 0.42203 0.0
C624 C 0.17218 0.02098 0.39058 0.0
C625 C 0.147 0.98955 0.39072 0.0
C626 C 0.09238 0.92898 0.42153 0.0
C627 C 0.0204 0.85196 0.40685 0.0
C628 C 0.05273 0.88061 0.40706 0.0
C629 C 0.14054 0.97047 0.40565 0.0
C630 C 0.11148 0.93848 0.40648 0.0
H631 H 0.95439 0.81615 0.38119 0.0
H632 H 0.00913 0.85994 0.38065 0.0
H633 H 0.04866 0.89452 0.43337 0.0
H634 H 0.20054 0.02378 0.4316 0.0
H635 H 0.15674 0.96885 0.43176 0.0
C636 C 0.16849 0.14584 0.4176 0.0
C637 C 0.18445 0.14645 0.40219 0.0
C638 C 0.14317 0.15175 0.41721 0.0
C639 C 0.08018 0.14431 0.3886 0.0
H640 H 0.06719 0.19308 0.42443 0.0
C641 C 0.96547 0.15136 0.3906 0.0
C642 C 0.95135 0.14787 0.40705 0.0
C643 C 0.99652 0.1569 0.38913 0.0
C644 C 0.07035 0.1792 0.4144 0.0
H645 H 0.18702 0.15476 0.37433 0.0
H646 H 0.1422 0.1647 0.37361 0.0
H647 H 0.11733 0.19274 0.42327 0.0
H648 H 0.95919 0.14866 0.43489 0.0
H649 H 0.01309 0.15744 0.43235 0.0
H650 H 0.03289 0.12961 0.38012 0.0
C651 C 0.14942 0.15958 0.38598 0.0
C652 C 0.09912 0.17914 0.41369 0.0
C653 C 0.1751 0.15401 0.3864 0.0
C654 C 0.96939 0.15123 0.42203 0.0
C655 C 0.00039 0.15646 0.42056 0.0
C656 C 0.05134 0.14416 0.38937 0.0
C657 C 0.13302 0.15818 0.40138 0.0
C658 C 0.10412 0.16128 0.40095 0.0
C659 C 0.01413 0.15878 0.40407 0.0
C660 C 0.04586 0.16122 0.40244 0.0
H661 H 0.17531 0.14039 0.43001 0.0
H662 H 0.13081 0.15017 0.42925 0.0
H663 H 0.08317 0.12996 0.37879 0.0
H664 H 0.95236 0.14939 0.37879 0.0
H665 H 0.00656 0.1593 0.37624 0.0
C666 C 0.35559 0.49688 0.27655 0.0
C667 C 0.3769 0.52108 0.26529 0.0
C668 C 0.32501 0.49227 0.27932 0.0
C669 C 0.2814 0.53491 0.27928 0.0
H670 H 0.20534 0.45531 0.26773 0.0
C671 C 0.15784 0.52176 0.28546 0.0
C672 C 0.14009 0.51198 0.26994 0.0
C673 C 0.18425 0.51786 0.28769 0.0
C674 C 0.2264 0.47755 0.27114 0.0
H675 H 0.38305 0.55949 0.24822 0.0
H676 H 0.33019 0.55188 0.25341 0.0
H677 H 0.25768 0.45892 0.26648 0.0
H678 H 0.1348 0.48838 0.24513 0.0
H679 H 0.18102 0.4816 0.24909 0.0
H680 H 0.25063 0.55395 0.28352 0.0
C681 C 0.337 0.53637 0.25996 0.0
C682 C 0.25619 0.47953 0.27053 0.0
C683 C 0.36717 0.54058 0.25693 0.0
C684 C 0.14815 0.49644 0.25717 0.0
C685 C 0.17446 0.49232 0.25948 0.0
C686 C 0.25172 0.53282 0.28014 0.0
C687 C 0.3157 0.51226 0.27117 0.0
C688 C 0.28394 0.50849 0.27418 0.0
C689 C 0.19327 0.50383 0.27455 0.0
C690 C 0.22399 0.50435 0.27571 0.0
H691 H 0.36246 0.48143 0.28309 0.0
H692 H 0.30885 0.47351 0.28802 0.0
H693 H 0.30253 0.55746 0.28218 0.0
H694 H 0.15213 0.53355 0.29564 0.0
H695 H 0.19818 0.52665 0.29951 0.0
C696 C 0.50047 0.64904 0.24393 0.0
C697 C 0.4927 0.62973 0.25887 0.0
C698 C 0.50487 0.67979 0.24503 0.0
C699 C 0.47961 0.72562 0.27206 0.0
H700 H 0.54044 0.79746 0.24447 0.0
C701 C 0.48349 0.84604 0.27497 0.0
C702 C 0.48559 0.86075 0.25885 0.0
C703 C 0.48927 0.82059 0.27612 0.0
C704 C 0.52321 0.77756 0.25219 0.0
H705 H 0.48564 0.62848 0.28685 0.0
H706 H 0.49362 0.68209 0.28873 0.0
H707 H 0.54219 0.74794 0.24433 0.0
H708 H 0.49664 0.86095 0.23142 0.0
H709 H 0.5062 0.81638 0.23341 0.0
H710 H 0.46003 0.75469 0.27958 0.0
C711 C 0.49561 0.67322 0.27612 0.0
C712 C 0.52424 0.74922 0.25211 0.0
C713 C 0.49118 0.64252 0.27504 0.0
C714 C 0.49477 0.85019 0.24406 0.0
C715 C 0.50046 0.8247 0.24521 0.0
C716 C 0.47854 0.75386 0.27211 0.0
C717 C 0.50165 0.6919 0.26107 0.0
C718 C 0.50226 0.72283 0.26194 0.0
C719 C 0.49721 0.8092 0.2612 0.0
C720 C 0.50011 0.78009 0.26205 0.0
H721 H 0.50194 0.63999 0.23127 0.0
H722 H 0.50933 0.6935 0.23316 0.0
H723 H 0.46193 0.70558 0.27951 0.0
H724 H 0.47679 0.85376 0.28666 0.0
H725 H 0.48711 0.80955 0.2887 0.0
C726 C 0.1473 0.64257 0.2836 0.0
C727 C 0.13677 0.62662 0.26759 0.0
C728 C 0.17328 0.67374 0.2841 0.0
C729 C 0.24446 0.72278 0.25829 0.0
H730 H 0.25586 0.79434 0.28626 0.0
C731 C 0.35262 0.84433 0.24765 0.0
C732 C 0.37001 0.86081 0.26246 0.0
C733 C 0.32195 0.81846 0.2493 0.0
C734 C 0.25299 0.77442 0.2785 0.0
H735 H 0.14269 0.63148 0.23957 0.0
H736 H 0.18729 0.68567 0.24041 0.0
H737 H 0.20511 0.74366 0.28749 0.0
H738 H 0.36825 0.8645 0.29054 0.0
H739 H 0.31442 0.81845 0.29348 0.0
H740 H 0.29196 0.75281 0.24937 0.0
C741 C 0.17637 0.67401 0.25259 0.0
C742 C 0.22405 0.74553 0.2792 0.0
C743 C 0.15083 0.64302 0.2521 0.0
C744 C 0.35539 0.85207 0.27891 0.0
C745 C 0.32459 0.82583 0.28059 0.0
C746 C 0.27314 0.75137 0.25761 0.0
C747 C 0.18874 0.68922 0.26859 0.0
C748 C 0.2194 0.71966 0.26883 0.0
C749 C 0.30803 0.8082 0.26581 0.0
C750 C 0.27759 0.77771 0.26743 0.0
H751 H 0.13672 0.63041 0.29572 0.0
H752 H 0.18233 0.685 0.2966 0.0
H753 H 0.24194 0.70297 0.25054 0.0
H754 H 0.36301 0.85097 0.23476 0.0
H755 H 0.30943 0.80587 0.23763 0.0
C756 C 0.5179 0.15546 0.72315 0.0
C757 C 0.51593 0.1398 0.73891 0.0
C758 C 0.51352 0.18183 0.72282 0.0
C759 C 0.48274 0.22589 0.74817 0.0
H760 H 0.54476 0.29783 0.72109 0.0
C761 C 0.50438 0.35431 0.75589 0.0
C762 C 0.51235 0.37344 0.74087 0.0
C763 C 0.50076 0.32383 0.75508 0.0
C764 C 0.52689 0.27784 0.72849 0.0
H765 H 0.50644 0.13885 0.76661 0.0
H766 H 0.49917 0.18509 0.76604 0.0
H767 H 0.54562 0.24818 0.72064 0.0
H768 H 0.52076 0.37471 0.71304 0.0
H769 H 0.51396 0.32154 0.7116 0.0
H770 H 0.46434 0.25592 0.75619 0.0
C771 C 0.50389 0.17682 0.75391 0.0
C772 C 0.5274 0.24932 0.72824 0.0
C773 C 0.50825 0.1504 0.75424 0.0
C774 C 0.51506 0.36081 0.72491 0.0
C775 C 0.51132 0.33036 0.72409 0.0
C776 C 0.48221 0.2545 0.74841 0.0
C777 C 0.50707 0.1932 0.73824 0.0
C778 C 0.50542 0.22302 0.73811 0.0
C779 C 0.50489 0.31179 0.73923 0.0
C780 C 0.50436 0.28085 0.7386 0.0
H781 H 0.52345 0.14777 0.71106 0.0
H782 H 0.51555 0.19355 0.71048 0.0
H783 H 0.46529 0.20596 0.75578 0.0
H784 H 0.50204 0.36327 0.7684 0.0
H785 H 0.49599 0.31025 0.76701 0.0
C786 C 0.64707 0.14849 0.74492 0.0
C787 C 0.62783 0.1347 0.73022 0.0
C788 C 0.6774 0.17479 0.74319 0.0
C789 C 0.74337 0.22536 0.71407 0.0
H790 H 0.75161 0.29153 0.74565 0.0
C791 C 0.84813 0.35788 0.71406 0.0
C792 C 0.85807 0.37172 0.73062 0.0
C793 C 0.82198 0.32701 0.71241 0.0
C794 C 0.74991 0.27324 0.73688 0.0
H795 H 0.62607 0.13591 0.70203 0.0
H796 H 0.67961 0.18273 0.699 0.0
H797 H 0.70282 0.24043 0.74546 0.0
H798 H 0.85049 0.36335 0.75841 0.0
H799 H 0.80565 0.30965 0.75558 0.0
H800 H 0.79098 0.25863 0.70564 0.0
C801 C 0.67099 0.17291 0.71184 0.0
C802 C 0.72192 0.24398 0.73675 0.0
C803 C 0.64044 0.14623 0.71357 0.0
C804 C 0.84288 0.35355 0.74547 0.0
C805 C 0.81715 0.32281 0.74384 0.0
C806 C 0.77172 0.25488 0.71425 0.0
C807 C 0.68915 0.18809 0.72673 0.0
C808 C 0.71855 0.21952 0.72564 0.0
C809 C 0.80567 0.3096 0.72731 0.0
C810 C 0.77543 0.27884 0.72596 0.0
H811 H 0.63818 0.13967 0.75789 0.0
H812 H 0.69122 0.18563 0.75485 0.0
H813 H 0.74121 0.20687 0.70531 0.0
H814 H 0.85958 0.37138 0.7024 0.0
H815 H 0.81367 0.31738 0.69951 0.0
C816 C 0.851 0.49776 0.75287 0.0
C817 C 0.86004 0.4883 0.7376 0.0
C818 C 0.8253 0.50314 0.75272 0.0
C819 C 0.7717 0.51726 0.72475 0.0
H820 H 0.70995 0.47112 0.76105 0.0
C821 C 0.64122 0.49154 0.72292 0.0
C822 C 0.6261 0.48921 0.7389 0.0
C823 C 0.67224 0.49646 0.72257 0.0
C824 C 0.72712 0.48475 0.75101 0.0
H825 H 0.85038 0.47909 0.70996 0.0
H826 H 0.8054 0.4885 0.70977 0.0
H827 H 0.76016 0.47159 0.76081 0.0
H828 H 0.63222 0.49271 0.76693 0.0
H829 H 0.68652 0.50255 0.76633 0.0
H830 H 0.73846 0.53037 0.71495 0.0
C831 C 0.81825 0.49167 0.72183 0.0
C832 C 0.75592 0.48491 0.75086 0.0
C833 C 0.84389 0.48609 0.72198 0.0
C834 C 0.64313 0.49382 0.75443 0.0
C835 C 0.67419 0.49927 0.75407 0.0
C836 C 0.74288 0.51737 0.72499 0.0
C837 C 0.80819 0.49942 0.7373 0.0
C838 C 0.77846 0.50101 0.73771 0.0
C839 C 0.6888 0.49959 0.73818 0.0
C840 C 0.72016 0.50097 0.7381 0.0
H841 H 0.86311 0.50005 0.7651 0.0
H842 H 0.81834 0.50956 0.76479 0.0
H843 H 0.78875 0.52998 0.7145 0.0
H844 H 0.62858 0.48804 0.71076 0.0
H845 H 0.68262 0.49638 0.71009 0.0
C846 C 0.02196 0.83301 0.57214 0.0
C847 C 0.04098 0.8445 0.58717 0.0
C848 C 0.99081 0.82761 0.57214 0.0
C849 C 0.92544 0.8187 0.60118 0.0
H850 H 0.90204 0.85201 0.56143 0.0
C851 C 0.82518 0.84991 0.60321 0.0
C852 C 0.80644 0.84434 0.58823 0.0
C853 C 0.85098 0.84461 0.60301 0.0
C854 C 0.90792 0.84207 0.57251 0.0
H855 H 0.04162 0.85807 0.61418 0.0
H856 H 0.98763 0.8491 0.61407 0.0
H857 H 0.95218 0.85196 0.56113 0.0
H858 H 0.79926 0.82735 0.56153 0.0
H859 H 0.84415 0.81798 0.56125 0.0
H860 H 0.88145 0.80962 0.61272 0.0
C861 C 0.99662 0.84394 0.60233 0.0
C862 C 0.93669 0.84202 0.57233 0.0
C863 C 0.02771 0.84931 0.60235 0.0
C864 C 0.81336 0.83219 0.57326 0.0
C865 C 0.83918 0.82694 0.57306 0.0
C866 C 0.89666 0.81881 0.60137 0.0
C867 C 0.97796 0.83353 0.58715 0.0
C868 C 0.94603 0.83078 0.58676 0.0
C869 C 0.85861 0.83361 0.58783 0.0
C870 C 0.8878 0.83092 0.58713 0.0
H871 H 0.03132 0.82877 0.56026 0.0
H872 H 0.97689 0.81912 0.5603 0.0
H873 H 0.93169 0.80941 0.6124 0.0
H874 H 0.82049 0.85919 0.61498 0.0
H875 H 0.86565 0.85027 0.61456 0.0
C876 C 0.15863 0.18163 0.613 0.0
C877 C 0.15452 0.19228 0.59669 0.0
C878 C 0.1631 0.15525 0.61407 0.0
C879 C 0.14188 0.08354 0.58893 0.0
H880 H 0.20101 0.07268 0.61815 0.0
C881 C 0.1576 0.97659 0.57932 0.0
C882 C 0.15587 0.95896 0.5942 0.0
C883 C 0.16183 0.00705 0.5809 0.0
C884 C 0.18423 0.0754 0.61005 0.0
H885 H 0.1549 0.18587 0.56875 0.0
H886 H 0.1631 0.1405 0.57061 0.0
H887 H 0.20073 0.12329 0.61881 0.0
H888 H 0.15929 0.96017 0.62239 0.0
H889 H 0.16618 0.01367 0.62517 0.0
H890 H 0.12514 0.03607 0.58017 0.0
C891 C 0.16191 0.1517 0.58257 0.0
C892 C 0.18408 0.10425 0.61043 0.0
C893 C 0.15724 0.1777 0.58151 0.0
C894 C 0.16038 0.9732 0.6107 0.0
C895 C 0.16441 0.0038 0.6123 0.0
C896 C 0.14202 0.05496 0.58855 0.0
C897 C 0.16367 0.13943 0.59884 0.0
C898 C 0.16328 0.10872 0.59958 0.0
C899 C 0.16413 0.02054 0.5974 0.0
C900 C 0.16357 0.05074 0.59882 0.0
H901 H 0.15678 0.1926 0.6249 0.0
H902 H 0.16448 0.14627 0.62677 0.0
H903 H 0.12494 0.08595 0.58079 0.0
H904 H 0.15487 0.96652 0.56641 0.0
H905 H 0.16236 0.01974 0.56917 0.0
C906 C 0.02485 0.18182 0.60839 0.0
C907 C 0.03892 0.19336 0.59202 0.0
C908 C 0.99356 0.15658 0.60967 0.0
C909 C 0.91933 0.10742 0.58402 0.0
H910 H 0.90578 0.04251 0.61795 0.0
C911 C 0.82157 0.97599 0.57792 0.0
C912 C 0.80554 0.95925 0.59303 0.0
C913 C 0.84659 0.00736 0.57897 0.0
C914 C 0.90896 0.06064 0.60861 0.0
H915 H 0.03068 0.18823 0.56413 0.0
H916 H 0.97649 0.1437 0.56632 0.0
H917 H 0.95618 0.09242 0.61753 0.0
H918 H 0.80244 0.96271 0.62105 0.0
H919 H 0.84668 0.01765 0.62291 0.0
H920 H 0.87245 0.07477 0.57465 0.0
C921 C 0.98936 0.15445 0.57822 0.0
C922 C 0.93788 0.08934 0.60837 0.0
C923 C 0.02057 0.17991 0.57695 0.0
C924 C 0.8144 0.97496 0.60919 0.0
C925 C 0.83976 0.00632 0.61026 0.0
C926 C 0.89049 0.07858 0.58418 0.0
C927 C 0.97565 0.14207 0.59459 0.0
C928 C 0.94368 0.11291 0.59587 0.0
C929 C 0.85637 0.02267 0.59517 0.0
C930 C 0.88524 0.05468 0.59629 0.0
H931 H 0.03819 0.19196 0.62027 0.0
H932 H 0.98357 0.14816 0.62249 0.0
H933 H 0.9227 0.12525 0.57443 0.0
H934 H 0.81514 0.96465 0.56526 0.0
H935 H 0.8591 0.01921 0.56714 0.0
C936 C 0.1228 0.35775 0.132 0.0
C937 C 0.11961 0.3638 0.1145 0.0
C938 C 0.10206 0.35811 0.14452 0.0
C939 C 0.05269 0.39569 0.1504 0.0
H940 H 0.04063 0.35817 0.19636 0.0
C941 C 0.01171 0.44234 0.20757 0.0
C942 C 0.03467 0.4536 0.2208 0.0
C943 C 0.01145 0.42129 0.19501 0.0
C944 C 0.04345 0.36849 0.18351 0.0
H945 H 0.09144 0.3726 0.09591 0.0
H946 H 0.05386 0.37132 0.11755 0.0
H947 H 0.05848 0.33767 0.17244 0.0
H948 H 0.07417 0.45104 0.23209 0.0
H949 H 0.07342 0.41377 0.2104 0.0
H950 H 0.03831 0.4269 0.16159 0.0
C951 C 0.07292 0.36746 0.12185 0.0
C952 C 0.05391 0.35696 0.16983 0.0
C953 C 0.09413 0.36783 0.10941 0.0
C954 C 0.05611 0.44229 0.22201 0.0
C955 C 0.05553 0.42089 0.20967 0.0
C956 C 0.04174 0.4068 0.16399 0.0
C957 C 0.07752 0.36415 0.13969 0.0
C958 C 0.05998 0.37134 0.15325 0.0
C959 C 0.0339 0.41101 0.19572 0.0
C960 C 0.03823 0.39417 0.18082 0.0
H961 H 0.14269 0.35505 0.13615 0.0
H962 H 0.10679 0.35588 0.15807 0.0
H963 H 0.05746 0.40785 0.138 0.0
H964 H 0.99521 0.45117 0.20639 0.0
H965 H 0.9946 0.41406 0.18435 0.0
C966 C 0.61025 0.71707 0.11311 0.0
C967 C 0.63028 0.75008 0.11483 0.0
C968 C 0.61313 0.69613 0.12432 0.0
C969 C 0.6331 0.69293 0.16916 0.0
H970 H 0.60593 0.6058 0.15598 0.0
C971 C 0.57252 0.58943 0.21819 0.0
C972 C 0.54142 0.56861 0.21232 0.0
C973 C 0.59564 0.61093 0.20661 0.0
C974 C 0.61414 0.63015 0.1599 0.0
H975 H 0.67034 0.78717 0.12895 0.0
H976 H 0.67508 0.75022 0.14905 0.0
H977 H 0.62719 0.64762 0.13386 0.0
H978 H 0.51059 0.55216 0.18972 0.0
H979 H 0.55096 0.58889 0.16949 0.0
H980 H 0.61812 0.67502 0.19501 0.0
C981 C 0.65723 0.74068 0.13888 0.0
C982 C 0.62622 0.65407 0.14726 0.0
C983 C 0.6546 0.76177 0.12738 0.0
C984 C 0.53438 0.56806 0.19456 0.0
C985 C 0.55758 0.58891 0.18297 0.0
C986 C 0.62125 0.66901 0.18185 0.0
C987 C 0.63597 0.70765 0.1377 0.0
C988 C 0.63387 0.68531 0.15157 0.0
C989 C 0.58813 0.61122 0.18895 0.0
C990 C 0.60989 0.63713 0.1771 0.0
H991 H 0.59145 0.70742 0.10343 0.0
H992 H 0.59602 0.67095 0.12317 0.0
H993 H 0.6387 0.71672 0.17291 0.0
H994 H 0.57839 0.59038 0.23188 0.0
H995 H 0.61899 0.62802 0.21153 0.0
C996 C 0.42768 0.98818 0.20138 0.0
C997 C 0.41599 0.96435 0.21423 0.0
C998 C 0.40662 0.99019 0.18959 0.0
C999 C 0.32019 0.95915 0.1811 0.0
H1000 H 0.34072 0.94938 0.13353 0.0
C1001 C 0.2324 0.86755 0.13422 0.0
C1002 C 0.23309 0.87444 0.11643 0.0
C1003 C 0.25389 0.89051 0.14569 0.0
C1004 C 0.33484 0.95296 0.14664 0.0
H1005 H 0.37335 0.9257 0.22579 0.0
H1006 H 0.33694 0.92926 0.20556 0.0
H1007 H 0.38248 0.97013 0.15559 0.0
H1008 H 0.25586 0.91098 0.09668 0.0
H1009 H 0.29452 0.95113 0.11682 0.0
H1010 H 0.27199 0.93928 0.17241 0.0
C1011 C 0.3621 0.94644 0.2044 0.0
C1012 C 0.35879 0.96491 0.15929 0.0
C1013 C 0.38301 0.94413 0.21589 0.0
C1014 C 0.2548 0.9052 0.11039 0.0
C1015 C 0.27689 0.92807 0.12186 0.0
C1016 C 0.29625 0.94701 0.1685 0.0
C1017 C 0.37363 0.96883 0.19079 0.0
C1018 C 0.3513 0.96635 0.17684 0.0
C1019 C 0.27694 0.92068 0.13956 0.0
C1020 C 0.30306 0.94218 0.15136 0.0
H1021 H 0.45306 0.00405 0.19985 0.0
H1022 H 0.41616 0.0077 0.17924 0.0
H1023 H 0.31385 0.96062 0.19447 0.0
H1024 H 0.21583 0.84404 0.1392 0.0
H1025 H 0.25365 0.88398 0.15921 0.0
C1026 C 0.36364 0.12287 0.86308 0.0
C1027 C 0.3599 0.11629 0.88094 0.0
C1028 C 0.36347 0.10072 0.85143 0.0
C1029 C 0.36045 0.04984 0.82779 0.0
H1030 H 0.41609 0.02029 0.84535 0.0
C1031 C 0.43012 0.01341 0.78118 0.0
C1032 C 0.46285 0.02978 0.78503 0.0
C1033 C 0.40806 0.01194 0.79349 0.0
C1034 C 0.40027 0.02806 0.84025 0.0
H1035 H 0.35113 0.08123 0.90081 0.0
H1036 H 0.34993 0.04178 0.88039 0.0
H1037 H 0.39191 0.0404 0.86556 0.0
H1038 H 0.49792 0.05576 0.80508 0.0
H1039 H 0.45992 0.05344 0.82627 0.0
H1040 H 0.37138 0.04019 0.8023 0.0
C1041 C 0.35344 0.06416 0.87532 0.0
C1042 C 0.38601 0.03927 0.85188 0.0
C1043 C 0.35385 0.08652 0.88699 0.0
C1044 C 0.4729 0.04314 0.80165 0.0
C1045 C 0.45099 0.04147 0.81391 0.0
C1046 C 0.37499 0.03889 0.81612 0.0
C1047 C 0.35962 0.07155 0.85748 0.0
C1048 C 0.36725 0.05185 0.84572 0.0
C1049 C 0.41838 0.02648 0.80989 0.0
C1050 C 0.39639 0.0295 0.82219 0.0
H1051 H 0.36872 0.14598 0.85827 0.0
H1052 H 0.36881 0.1076 0.83789 0.0
H1053 H 0.34548 0.05861 0.82264 0.0
H1054 H 0.42169 0.00288 0.76846 0.0
H1055 H 0.38307 0.00012 0.79004 0.0
C1056 C 0.98425 0.42652 0.79239 0.0
C1057 C 0.96185 0.41463 0.77881 0.0
C1058 C 0.98446 0.40573 0.80506 0.0
C1059 C 0.94916 0.31913 0.81588 0.0
H1060 H 0.94015 0.34524 0.86227 0.0
C1061 C 0.85735 0.23709 0.86522 0.0
C1062 C 0.86547 0.23876 0.88289 0.0
C1063 C 0.87961 0.25767 0.85314 0.0
C1064 C 0.94338 0.33778 0.84949 0.0
H1065 H 0.92406 0.37183 0.76695 0.0
H1066 H 0.92439 0.3359 0.78873 0.0
H1067 H 0.96249 0.38474 0.83901 0.0
H1068 H 0.90334 0.26265 0.90178 0.0
H1069 H 0.94225 0.29974 0.88055 0.0
H1070 H 0.92744 0.27169 0.82611 0.0
C1071 C 0.9419 0.36097 0.78979 0.0
C1072 C 0.95627 0.36043 0.83614 0.0
C1073 C 0.94148 0.38163 0.77734 0.0
C1074 C 0.89662 0.2608 0.88819 0.0
C1075 C 0.91877 0.28201 0.87611 0.0
C1076 C 0.93597 0.29649 0.82916 0.0
C1077 C 0.96259 0.37279 0.80415 0.0
C1078 C 0.95779 0.35106 0.81899 0.0
C1079 C 0.91029 0.28081 0.8585 0.0
C1080 C 0.93162 0.30539 0.84588 0.0
H1081 H 0.00013 0.45192 0.79382 0.0
H1082 H 0.00082 0.41554 0.81591 0.0
H1083 H 0.95068 0.31125 0.80289 0.0
H1084 H 0.83352 0.22027 0.86079 0.0
H1085 H 0.87229 0.25649 0.8397 0.0
C1086 C 0.58477 0.57584 0.78166 0.0
C1087 C 0.56996 0.54346 0.78609 0.0
C1088 C 0.60551 0.59898 0.79348 0.0
C1089 C 0.66807 0.63141 0.81422 0.0
H1090 H 0.65662 0.62113 0.86427 0.0
C1091 C 0.76021 0.63342 0.85989 0.0
C1092 C 0.76247 0.64343 0.87724 0.0
C1093 C 0.73863 0.63492 0.84852 0.0
C1094 C 0.66023 0.62513 0.85037 0.0
H1095 H 0.56316 0.50961 0.80634 0.0
H1096 H 0.59861 0.54969 0.82706 0.0
H1097 H 0.61024 0.59723 0.84522 0.0
H1098 H 0.74536 0.66472 0.89606 0.0
H1099 H 0.7069 0.66679 0.87613 0.0
H1100 H 0.71819 0.65749 0.81933 0.0
C1101 C 0.59444 0.55754 0.81463 0.0
C1102 C 0.63364 0.61122 0.83945 0.0
C1103 C 0.57433 0.53455 0.80275 0.0
C1104 C 0.74409 0.65685 0.88273 0.0
C1105 C 0.72206 0.65795 0.87136 0.0
C1106 C 0.69468 0.64524 0.82514 0.0
C1107 C 0.61109 0.58991 0.80994 0.0
C1108 C 0.63743 0.61269 0.82126 0.0
C1109 C 0.71851 0.64615 0.85428 0.0
C1110 C 0.69108 0.64066 0.84326 0.0
H1111 H 0.58182 0.58305 0.76875 0.0
H1112 H 0.61813 0.62375 0.78953 0.0
H1113 H 0.67177 0.63294 0.80026 0.0
H1114 H 0.77425 0.62318 0.85527 0.0
H1115 H 0.73624 0.62523 0.83553 0.0
C1116 C 0.97516 0.53204 0.80071 0.0
C1117 C 0.96975 0.53694 0.78338 0.0
C1118 C 0.97546 0.55215 0.81378 0.0
C1119 C 0.96831 0.62458 0.82258 0.0
H1120 H 0.91878 0.5729 0.86166 0.0
C1121 C 0.88435 0.64778 0.86611 0.0
C1122 C 0.87964 0.63628 0.88325 0.0
C1123 C 0.90614 0.64502 0.85531 0.0
C1124 C 0.93329 0.58804 0.8511 0.0
H1125 H 0.96199 0.56715 0.76572 0.0
H1126 H 0.96067 0.60144 0.78865 0.0
H1127 H 0.93739 0.55012 0.84004 0.0
H1128 H 0.8956 0.61603 0.90323 0.0
H1129 H 0.93445 0.61233 0.88468 0.0
H1130 H 0.96202 0.66193 0.83345 0.0
C1131 C 0.96586 0.58291 0.79223 0.0
C1132 C 0.94412 0.57493 0.83862 0.0
C1133 C 0.96646 0.56324 0.77907 0.0
C1134 C 0.89897 0.62499 0.89 0.0
C1135 C 0.92099 0.6227 0.87935 0.0
C1136 C 0.95711 0.6377 0.83509 0.0
C1137 C 0.96908 0.57679 0.80983 0.0
C1138 C 0.9614 0.59278 0.82404 0.0
C1139 C 0.92343 0.63087 0.86162 0.0
C1140 C 0.93913 0.61935 0.84937 0.0
H1141 H 0.97793 0.5119 0.80421 0.0
H1142 H 0.97906 0.54731 0.82711 0.0
H1143 H 0.9818 0.63914 0.81162 0.0
H1144 H 0.86932 0.65623 0.86066 0.0
H1145 H 0.90738 0.65139 0.84169 0.0
C1146 C 0.35272 0.22278 0.86009 0.0
C1147 C 0.35933 0.23279 0.87745 0.0
C1148 C 0.3518 0.24294 0.84739 0.0
C1149 C 0.36052 0.32427 0.84095 0.0
H1150 H 0.40051 0.32046 0.79799 0.0
C1151 C 0.45383 0.42873 0.80036 0.0
C1152 C 0.45092 0.42701 0.78216 0.0
C1153 C 0.43094 0.40444 0.81074 0.0
C1154 C 0.38863 0.32146 0.80974 0.0
H1155 H 0.36925 0.27082 0.8955 0.0
H1156 H 0.37002 0.30706 0.87333 0.0
H1157 H 0.38241 0.27725 0.8187 0.0
H1158 H 0.42135 0.39974 0.76045 0.0
H1159 H 0.3818 0.35624 0.77869 0.0
H1160 H 0.3703 0.37051 0.8324 0.0
C1161 C 0.36397 0.28328 0.86936 0.0
C1162 C 0.37805 0.29653 0.82169 0.0
C1163 C 0.3638 0.26264 0.88213 0.0
C1164 C 0.42381 0.40166 0.7745 0.0
C1165 C 0.40131 0.37685 0.78488 0.0
C1166 C 0.37195 0.34964 0.82915 0.0
C1167 C 0.35887 0.27408 0.85169 0.0
C1168 C 0.36471 0.29796 0.83775 0.0
C1169 C 0.40528 0.37766 0.80304 0.0
C1170 C 0.3868 0.34871 0.81366 0.0
H1171 H 0.34901 0.19963 0.85629 0.0
H1172 H 0.3467 0.23442 0.83409 0.0
H1173 H 0.34958 0.32597 0.85288 0.0
H1174 H 0.47466 0.44806 0.8065 0.0
H1175 H 0.4347 0.40537 0.82469 0.0
C1176 C 0.61044 0.03593 0.77363 0.0
C1177 C 0.57987 0.02852 0.77894 0.0
C1178 C 0.63167 0.03505 0.78558 0.0
C1179 C 0.67863 0.06198 0.81474 0.0
H1180 H 0.65391 0.01902 0.8594 0.0
C1181 C 0.76172 0.11115 0.87347 0.0
C1182 C 0.74715 0.12027 0.88627 0.0
C1183 C 0.74327 0.08937 0.86053 0.0
C1184 C 0.66128 0.03082 0.84688 0.0
H1185 H 0.54654 0.0129 0.80037 0.0
H1186 H 0.58393 0.01315 0.8216 0.0
H1187 H 0.61707 0.998 0.83483 0.0
H1188 H 0.70201 0.11188 0.89661 0.0
H1189 H 0.66983 0.07349 0.87426 0.0
H1190 H 0.72248 0.09513 0.82693 0.0
C1191 C 0.59152 0.01838 0.80815 0.0
C1192 C 0.64011 0.01902 0.83284 0.0
C1193 C 0.57001 0.01837 0.79604 0.0
C1194 C 0.7138 0.10541 0.88677 0.0
C1195 C 0.69538 0.08322 0.87409 0.0
C1196 C 0.69993 0.07332 0.82865 0.0
C1197 C 0.62311 0.02801 0.80325 0.0
C1198 C 0.64789 0.03539 0.81681 0.0
C1199 C 0.71 0.0759 0.86049 0.0
C1200 C 0.69091 0.05873 0.84504 0.0
H1201 H 0.61833 0.0437 0.7604 0.0
H1202 H 0.65535 0.0416 0.78114 0.0
H1203 H 0.68561 0.0757 0.8028 0.0
H1204 H 0.78741 0.12231 0.87281 0.0
H1205 H 0.75504 0.08411 0.85014 0.0
C1206 C 0.64677 0.90434 0.11418 0.0
C1207 C 0.63503 0.8727 0.1196 0.0
C1208 C 0.64822 0.92713 0.12595 0.0
C1209 C 0.64223 0.94156 0.17302 0.0
H1210 H 0.58883 0.97539 0.15765 0.0
C1211 C 0.54626 0.94065 0.21446 0.0
C1212 C 0.5404 0.96614 0.21431 0.0
C1213 C 0.5699 0.94127 0.20394 0.0
C1214 C 0.6046 0.96705 0.16207 0.0
H1215 H 0.61788 0.84056 0.14169 0.0
H1216 H 0.62076 0.88007 0.16214 0.0
H1217 H 0.61068 0.95428 0.13624 0.0
H1218 H 0.55467 0.0126 0.20349 0.0
H1219 H 0.59577 0.0132 0.18425 0.0
H1220 H 0.63386 0.95184 0.19896 0.0
C1221 C 0.6288 0.8875 0.1489 0.0
C1222 C 0.61714 0.95495 0.14981 0.0
C1223 C 0.62683 0.86474 0.13714 0.0
C1224 C 0.55903 0.99276 0.20377 0.0
C1225 C 0.58239 0.99309 0.19285 0.0
C1226 C 0.62964 0.95354 0.18524 0.0
C1227 C 0.63863 0.9187 0.14335 0.0
C1228 C 0.63447 0.94037 0.15529 0.0
C1229 C 0.58783 0.96718 0.19279 0.0
C1230 C 0.6092 0.96466 0.17994 0.0
H1231 H 0.65315 0.91102 0.10068 0.0
H1232 H 0.65585 0.95101 0.12134 0.0
H1233 H 0.656 0.93098 0.17756 0.0
H1234 H 0.53216 0.91996 0.22255 0.0
H1235 H 0.57314 0.92072 0.20395 0.0
C1236 C 0.1167 0.76153 0.13141 0.0
C1237 C 0.11534 0.75341 0.11382 0.0
C1238 C 0.09566 0.7391 0.14336 0.0
C1239 C 0.04768 0.68884 0.16744 0.0
H1240 H 0.03958 0.60644 0.15831 0.0
C1241 C 0.01541 0.56308 0.2046 0.0
C1242 C 0.03863 0.57633 0.21772 0.0
C1243 C 0.01326 0.58278 0.19195 0.0
C1244 C 0.04086 0.629 0.16093 0.0
H1245 H 0.08994 0.71703 0.09444 0.0
H1246 H 0.05185 0.67834 0.11506 0.0
H1247 H 0.05693 0.64564 0.1352 0.0
H1248 H 0.07606 0.62035 0.22879 0.0
H1249 H 0.07188 0.65461 0.20701 0.0
H1250 H 0.03426 0.67265 0.19374 0.0
C1251 C 0.0697 0.70145 0.11988 0.0
C1252 C 0.05077 0.65163 0.14764 0.0
C1253 C 0.0912 0.72365 0.10802 0.0
C1254 C 0.05814 0.60955 0.2187 0.0
C1255 C 0.05553 0.62918 0.20634 0.0
C1256 C 0.03825 0.66632 0.18082 0.0
C1257 C 0.07268 0.70826 0.13784 0.0
C1258 C 0.05553 0.68233 0.15087 0.0
C1259 C 0.03374 0.61596 0.19256 0.0
C1260 C 0.0359 0.63664 0.17782 0.0
H1261 H 0.13556 0.78428 0.13611 0.0
H1262 H 0.09913 0.74527 0.15704 0.0
H1263 H 0.05026 0.71187 0.17032 0.0
H1264 H 0.00011 0.53751 0.2036 0.0
H1265 H 0.99633 0.57206 0.18141 0.0
C1266 C 0.3827 0.44414 0.21648 0.0
C1267 C 0.41545 0.45503 0.21552 0.0
C1268 C 0.36155 0.42077 0.20511 0.0
C1269 C 0.35854 0.39513 0.16091 0.0
H1270 H 0.27113 0.33563 0.17384 0.0
C1271 C 0.25712 0.35122 0.11072 0.0
C1272 C 0.235 0.36005 0.11627 0.0
C1273 C 0.27842 0.35015 0.12268 0.0
C1274 C 0.29555 0.35172 0.16999 0.0
H1275 H 0.45172 0.44904 0.20246 0.0
H1276 H 0.41448 0.40836 0.18206 0.0
H1277 H 0.31229 0.35754 0.19627 0.0
H1278 H 0.21598 0.37221 0.13864 0.0
H1279 H 0.25249 0.36982 0.15943 0.0
H1280 H 0.34139 0.39109 0.13481 0.0
C1281 C 0.40531 0.41787 0.19179 0.0
C1282 C 0.31908 0.36428 0.18282 0.0
C1283 C 0.42655 0.44104 0.20344 0.0
C1284 C 0.23295 0.36552 0.13403 0.0
C1285 C 0.25369 0.36385 0.14596 0.0
C1286 C 0.33498 0.38252 0.14806 0.0
C1287 C 0.37265 0.40793 0.19235 0.0
C1288 C 0.35043 0.38751 0.17853 0.0
C1289 C 0.27731 0.35716 0.14036 0.0
C1290 C 0.30297 0.36214 0.15265 0.0
H1291 H 0.37346 0.45432 0.22578 0.0
H1292 H 0.33664 0.41404 0.20573 0.0
H1293 H 0.38247 0.41305 0.15721 0.0
H1294 H 0.25919 0.34703 0.09705 0.0
H1295 H 0.29643 0.34497 0.11803 0.0
C1296 C 0.68385 0.75616 0.55299 0.0
C1297 C 0.69266 0.78662 0.54655 0.0
C1298 C 0.68214 0.73259 0.54175 0.0
C1299 C 0.67928 0.71091 0.49534 0.0
H1300 H 0.74354 0.6889 0.50738 0.0
C1301 C 0.76692 0.71333 0.44685 0.0
C1302 C 0.78086 0.69419 0.44868 0.0
C1303 C 0.74363 0.71052 0.45845 0.0
C1304 C 0.72472 0.69376 0.50394 0.0
H1305 H 0.70443 0.81577 0.52332 0.0
H1306 H 0.70071 0.77461 0.50371 0.0
H1307 H 0.72385 0.71062 0.5296 0.0
H1308 H 0.78016 0.65569 0.46335 0.0
H1309 H 0.73942 0.6511 0.48412 0.0
H1310 H 0.68158 0.69595 0.46943 0.0
C1311 C 0.69531 0.76886 0.51738 0.0
C1312 C 0.71348 0.70629 0.51669 0.0
C1313 C 0.69772 0.79252 0.52861 0.0
C1314 C 0.76968 0.67069 0.4617 0.0
C1315 C 0.74652 0.66817 0.47358 0.0
C1316 C 0.69029 0.69814 0.48264 0.0
C1317 C 0.68839 0.73897 0.52388 0.0
C1318 C 0.69212 0.71673 0.51222 0.0
C1319 C 0.7339 0.6887 0.47232 0.0
C1320 C 0.71463 0.69139 0.48655 0.0
H1321 H 0.67999 0.75112 0.56681 0.0
H1322 H 0.67691 0.70977 0.54706 0.0
H1323 H 0.66245 0.71838 0.49164 0.0
H1324 H 0.77501 0.73149 0.43682 0.0
H1325 H 0.73488 0.72707 0.4572 0.0
C1326 C 0.29722 0.0657 0.44319 0.0
C1327 C 0.30542 0.09698 0.44747 0.0
C1328 C 0.29767 0.04537 0.45599 0.0
C1329 C 0.28726 0.03664 0.50338 0.0
H1330 H 0.29341 0.96083 0.49578 0.0
C1331 C 0.24013 0.94156 0.55527 0.0
C1332 C 0.21808 0.91133 0.54895 0.0
C1333 C 0.26202 0.96476 0.54401 0.0
C1334 C 0.29177 0.982 0.49811 0.0
H1335 H 0.32285 0.13269 0.46772 0.0
H1336 H 0.32546 0.09792 0.4899 0.0
H1337 H 0.31277 0.00245 0.47341 0.0
H1338 H 0.20247 0.88055 0.52639 0.0
H1339 H 0.24017 0.92144 0.5064 0.0
H1340 H 0.26522 0.01605 0.5276 0.0
C1341 C 0.31764 0.08852 0.47691 0.0
C1342 C 0.30279 0.00581 0.4853 0.0
C1343 C 0.31651 0.10857 0.46422 0.0
C1344 C 0.21968 0.90369 0.53151 0.0
C1345 C 0.24129 0.92713 0.52012 0.0
C1346 C 0.27647 0.01308 0.51612 0.0
C1347 C 0.30662 0.0562 0.47321 0.0
C1348 C 0.29996 0.0331 0.48763 0.0
C1349 C 0.26159 0.95838 0.5261 0.0
C1350 C 0.27789 0.98513 0.51353 0.0
H1351 H 0.28816 0.05629 0.43034 0.0
H1352 H 0.28874 0.02064 0.45265 0.0
H1353 H 0.28383 0.05678 0.50555 0.0
H1354 H 0.23911 0.94784 0.56871 0.0
H1355 H 0.27781 0.98837 0.5491 0.0
C1356 C 0.07076 0.30578 0.55353 0.0
C1357 C 0.09493 0.30092 0.54681 0.0
C1358 C 0.04654 0.30338 0.54261 0.0
C1359 C 0.0211 0.30273 0.49775 0.0
H1360 H 0.94337 0.22551 0.51012 0.0
C1361 C 0.92868 0.22533 0.44647 0.0
C1362 C 0.89766 0.20315 0.45163 0.0
C1363 C 0.9509 0.24547 0.45876 0.0
C1364 C 0.96431 0.2477 0.50656 0.0
H1365 H 0.11438 0.29231 0.52339 0.0
H1366 H 0.07278 0.28941 0.5042 0.0
H1367 H 0.98715 0.24878 0.53062 0.0
H1368 H 0.86443 0.18569 0.47312 0.0
H1369 H 0.90231 0.22244 0.49443 0.0
H1370 H -0.00148 0.30188 0.4737 0.0
C1371 C 0.07232 0.29467 0.51788 0.0
C1372 C 0.98953 0.26094 0.51838 0.0
C1373 C 0.09597 0.29617 0.52884 0.0
C1374 C 0.88837 0.20274 0.46894 0.0
C1375 C 0.91028 0.22354 0.48115 0.0
C1376 C 0.99554 0.28997 0.48606 0.0
C1377 C 0.0468 0.29705 0.52477 0.0
C1378 C 0.01847 0.28786 0.51383 0.0
C1379 C 0.94228 0.24423 0.47642 0.0
C1380 C 0.9672 0.26148 0.49 0.0
H1381 H 0.06933 0.30914 0.56739 0.0
H1382 H 0.02691 0.30505 0.54819 0.0
H1383 H 0.04328 0.3236 0.49402 0.0
H1384 H 0.93632 0.22559 0.43317 0.0
H1385 H 0.97523 0.2605 0.4545 0.0
C1386 C 0.23035 0.32459 0.53959 0.0
C1387 C 0.21472 0.29727 0.5501 0.0
C1388 C 0.25385 0.32785 0.52775 0.0
C1389 C 0.27581 0.30994 0.49464 0.0
H1390 H 0.32204 0.26471 0.50152 0.0
C1391 C 0.26904 0.21956 0.4468 0.0
C1392 C 0.29292 0.21137 0.4454 0.0
C1393 C 0.27265 0.24369 0.45799 0.0
C1394 C 0.31014 0.27824 0.49928 0.0
H1395 H 0.21339 0.25349 0.55765 0.0
H1396 H 0.25341 0.25877 0.53711 0.0
H1397 H 0.30665 0.28453 0.5266 0.0
H1398 H 0.34033 0.22349 0.45379 0.0
H1399 H 0.34664 0.26589 0.4737 0.0
H1400 H 0.27849 0.30283 0.46735 0.0
C1401 C 0.24806 0.27791 0.53787 0.0
C1402 C 0.30094 0.28929 0.51371 0.0
C1403 C 0.22464 0.2746 0.54953 0.0
C1404 C 0.32143 0.22917 0.45471 0.0
C1405 C 0.325 0.25337 0.46611 0.0
C1406 C 0.2854 0.2993 0.48021 0.0
C1407 C 0.26227 0.30401 0.52641 0.0
C1408 C 0.2816 0.30309 0.5116 0.0
C1409 C 0.30027 0.26036 0.46817 0.0
C1410 C 0.30054 0.28122 0.48245 0.0
H1411 H 0.22333 0.34257 0.53987 0.0
H1412 H 0.26453 0.34838 0.51921 0.0
H1413 H 0.26121 0.32072 0.49246 0.0
H1414 H 0.24694 0.2066 0.43961 0.0
H1415 H 0.25283 0.24788 0.45939 0.0
C1416 C 0.75177 0.05477 0.44146 0.0
C1417 C 0.77597 0.08373 0.44809 0.0
C1418 C 0.72811 0.03269 0.45249 0.0
C1419 C 0.70022 0.01881 0.49914 0.0
H1420 H 0.69185 0.9362 0.49043 0.0
C1421 C 0.71121 0.94075 0.55029 0.0
C1422 C 0.69364 0.90746 0.54888 0.0
C1423 C 0.70685 0.95984 0.53833 0.0
C1424 C 0.69305 0.95877 0.49291 0.0
H1425 H 0.7941 0.11351 0.47093 0.0
H1426 H 0.75392 0.07455 0.4905 0.0
H1427 H 0.71135 0.97577 0.46756 0.0
H1428 H 0.65632 0.86777 0.53465 0.0
H1429 H 0.64943 0.90141 0.51315 0.0
H1430 H 0.68471 0.00226 0.52518 0.0
C1431 C 0.7521 0.06896 0.47675 0.0
C1432 C 0.70426 0.98165 0.47973 0.0
C1433 C 0.77532 0.09131 0.4656 0.0
C1434 C 0.67012 0.89344 0.53597 0.0
C1435 C 0.6662 0.91262 0.52371 0.0
C1436 C 0.68944 0.99601 0.51242 0.0
C1437 C 0.72893 0.03879 0.47047 0.0
C1438 C 0.70947 0.01251 0.48292 0.0
C1439 C 0.68523 0.94599 0.52451 0.0
C1440 C 0.68717 0.96631 0.50963 0.0
H1441 H 0.75199 0.04865 0.4279 0.0
H1442 H 0.71023 0.01015 0.44707 0.0
H1443 H 0.70304 0.04198 0.50193 0.0
H1444 H 0.72933 0.95206 0.56024 0.0
H1445 H 0.72215 0.98544 0.53916 0.0
C1446 C 0.09874 0.79642 0.52678 0.0
C1447 C 0.0979 0.79002 0.54466 0.0
C1448 C 0.07582 0.77401 0.51562 0.0
C1449 C 0.99309 0.71862 0.51633 0.0
H1450 H 0.00643 0.69905 0.4692 0.0
C1451 C 0.89264 0.67757 0.46639 0.0
C1452 C 0.90232 0.69252 0.45015 0.0
C1453 C 0.91511 0.67805 0.47799 0.0
C1454 C 0.00222 0.70434 0.4823 0.0
H1455 H 0.07357 0.75477 0.56485 0.0
H1456 H 0.03253 0.71578 0.54529 0.0
H1457 H 0.05076 0.72151 0.48978 0.0
H1458 H 0.94224 0.719 0.43287 0.0
H1459 H 0.98175 0.72126 0.45321 0.0
H1460 H 0.94563 0.7045 0.50869 0.0
C1461 C 0.05133 0.73793 0.53994 0.0
C1462 C 0.02757 0.7169 0.4941 0.0
C1463 C 0.07479 0.76013 0.55107 0.0
C1464 C 0.93438 0.70693 0.4453 0.0
C1465 C 0.95694 0.70798 0.45698 0.0
C1466 C 0.96792 0.70667 0.50447 0.0
C1467 C 0.05125 0.74506 0.5222 0.0
C1468 C 0.02344 0.72511 0.51103 0.0
C1469 C 0.94776 0.69429 0.47368 0.0
C1470 C 0.97246 0.7005 0.48709 0.0
H1471 H 0.11639 0.8193 0.52154 0.0
H1472 H 0.07607 0.78023 0.50203 0.0
H1473 H 0.98939 0.72512 0.52927 0.0
H1474 H 0.86789 0.66645 0.47031 0.0
H1475 H 0.90701 0.6667 0.49056 0.0
C1476 C 0.21218 0.30928 0.03571 0.0
C1477 C 0.22899 0.34206 0.03941 0.0
C1478 C 0.22578 0.29571 0.02522 0.0
C1479 C 0.30189 0.30655 0.01005 0.0
H1480 H 0.25305 0.25327 0.97126 0.0
C1481 C 0.35838 0.26213 0.9595 0.0
C1482 C 0.33968 0.23084 0.95333 0.0
C1483 C 0.34476 0.27621 0.96954 0.0
C1484 C 0.26688 0.26772 0.98216 0.0
H1485 H 0.27352 0.38617 0.03541 0.0
H1486 H 0.2974 0.36228 0.01728 0.0
H1487 H 0.22944 0.27605 0.99037 0.0
H1488 H 0.29197 0.18984 0.95272 0.0
H1489 H 0.2684 0.21401 0.97065 0.0
H1490 H 0.33906 0.29775 0.00222 0.0
C1491 C 0.27366 0.3472 0.02243 0.0
C1492 C 0.25336 0.2808 0.99306 0.0
C1493 C 0.25992 0.36086 0.03272 0.0
C1494 C 0.30699 0.21407 0.9572 0.0
C1495 C 0.29344 0.22801 0.96742 0.0
C1496 C 0.3153 0.29317 -0.00071 0.0
C1497 C 0.25659 0.31458 0.01845 0.0
C1498 C 0.27077 0.30038 0.00707 0.0
C1499 C 0.3122 0.25919 0.97382 0.0
C1500 C 0.29799 0.27364 0.98518 0.0
H1501 H 0.1883 0.29418 0.04066 0.0
H1502 H 0.21226 0.27043 0.02245 0.0
H1503 H 0.31568 0.32132 0.02088 0.0
H1504 H 0.3836 0.27577 0.95658 0.0
H1505 H 0.3598 0.30049 0.97393 0.0
C1506 C 0.77317 0.11508 0.97864 0.0
C1507 C 0.76804 0.11324 0.96059 0.0
C1508 C 0.76005 0.08744 0.98875 0.0
C1509 C 0.72194 -0.00101 0.98513 0.0
H1510 H 0.69522 0.00156 0.03245 0.0
C1511 C 0.64016 0.88795 0.02672 0.0
C1512 C 0.65372 0.88608 0.04253 0.0
C1513 C 0.65476 0.91585 0.01682 0.0
C1514 C 0.70275 0.00066 0.01928 0.0
H1515 H 0.74473 0.08128 0.93894 0.0
H1516 H 0.72044 0.03314 0.95662 0.0
H1517 H 0.71874 0.04983 0.01477 0.0
H1518 H 0.69262 0.91198 0.06064 0.0
H1519 H 0.71759 0.96133 0.04351 0.0
H1520 H 0.70439 0.94927 0.9896 0.0
C1521 C 0.73559 0.0557 0.96299 0.0
C1522 C 0.71644 0.02831 0.00915 0.0
C1523 C 0.74932 0.08331 0.95283 0.0
C1524 C 0.6818 0.91279 0.04844 0.0
C1525 C 0.69599 0.94095 0.03873 0.0
C1526 C 0.70762 0.97123 0.99515 0.0
C1527 C 0.74087 0.05735 0.98109 0.0
C1528 C 0.72631 0.02789 0.99193 0.0
C1529 C 0.6827 0.94253 0.02279 0.0
C1530 C 0.69802 0.97192 0.01229 0.0
H1531 H 0.78778 0.13788 0.98493 0.0
H1532 H 0.76529 0.08974 0.00256 0.0
H1533 H 0.72983 0.99776 0.97212 0.0
H1534 H 0.6186 0.86767 0.02183 0.0
H1535 H 0.64411 0.9167 0.00458 0.0
C1536 C 0.8801 0.65747 0.97406 0.0
C1537 C 0.88269 0.66046 0.95584 0.0
C1538 C 0.90738 0.6707 0.98448 0.0
C1539 C 0.99349 0.7308 0.98337 0.0
H1540 H 0.99657 0.68673 0.02486 0.0
C1541 C 0.10938 0.76886 0.02161 0.0
C1542 C 0.10762 0.77093 0.0398 0.0
C1543 C 0.08172 0.75515 0.01152 0.0
C1544 C 0.99592 0.69939 0.01337 0.0
H1545 H 0.91592 0.67893 0.93423 0.0
H1546 H 0.96342 0.70125 0.95232 0.0
H1547 H 0.94871 0.66288 0.00684 0.0
H1548 H 0.0754 0.75966 0.0617 0.0
H1549 H 0.02705 0.73546 0.04403 0.0
H1550 H 0.04097 0.76701 0.98979 0.0
C1551 C 0.94036 0.6895 0.95864 0.0
C1552 C 0.96849 0.68581 0.00307 0.0
C1553 C 0.91311 0.67654 0.94825 0.0
C1554 C 0.07757 0.75859 0.0477 0.0
C1555 C 0.04988 0.74456 0.03762 0.0
C1556 C 0.02099 0.7442 0.99358 0.0
C1557 C 0.93786 0.68695 0.97689 0.0
C1558 C 0.96695 0.70135 0.98793 0.0
C1559 C 0.05172 0.74289 0.01942 0.0
C1560 C 0.02247 0.72863 0.00867 0.0
H1561 H 0.85698 0.64532 0.98032 0.0
H1562 H 0.90453 0.66865 0.99849 0.0
H1563 H 0.99294 0.74377 0.97201 0.0
H1564 H 0.13214 0.77811 0.01511 0.0
H1565 H 0.08378 0.75388 0.99753 0.0
C1566 C 0.68819 0.77856 0.04421 0.0
C1567 C 0.65648 0.77086 0.04171 0.0
C1568 C 0.70199 0.76573 0.0333 0.0
C1569 C 0.68936 0.72406 0.99058 0.0
H1570 H 0.7541 0.70687 0.00839 0.0
C1571 C 0.7339 0.64598 0.95701 0.0
C1572 C 0.76675 0.6622 0.95354 0.0
C1573 C 0.72058 0.66018 0.96722 0.0
C1574 C 0.73613 0.71174 0.0033 0.0
H1575 H 0.61388 0.74289 0.02638 0.0
H1576 H 0.63721 0.71911 0.00799 0.0
H1577 H 0.72985 0.72851 0.02785 0.0
H1578 H 0.81146 0.70581 0.958 0.0
H1579 H 0.78814 0.73017 0.97642 0.0
H1580 H 0.69486 0.70566 0.96622 0.0
C1581 C 0.65207 0.73611 0.01779 0.0
C1582 C 0.72235 0.72433 0.01436 0.0
C1583 C 0.63854 0.74952 0.02843 0.0
C1584 C 0.78604 0.69289 0.9604 0.0
C1585 C 0.77282 0.70674 0.97096 0.0
C1586 C 0.70265 0.71079 0.97965 0.0
C1587 C 0.68412 0.74432 0.01991 0.0
C1588 C 0.6988 0.73077 0.00816 0.0
C1589 C 0.74003 0.69044 0.97444 0.0
C1590 C 0.72618 0.70468 0.98592 0.0
H1591 H 0.7026 0.79517 0.05429 0.0
H1592 H 0.72686 0.77315 0.03519 0.0
H1593 H 0.67191 0.72933 0.98515 0.0
H1594 H 0.71853 0.62234 0.95181 0.0
H1595 H 0.69522 0.64725 0.96982 0.0
C1596 C 0.242 0.88912 0.02451 0.0
C1597 C 0.22602 0.88698 0.04017 0.0
C1598 C 0.25517 0.917 0.01461 0.0
C1599 C 0.29071 0.00165 0.01658 0.0
H1600 H 0.26011 0.99724 0.96943 0.0
C1601 C 0.3333 0.11473 0.97467 0.0
C1602 C 0.33614 0.11213 0.95663 0.0
C1603 C 0.31934 0.08751 0.98515 0.0
C1604 C 0.26942 -0.00109 0.98244 0.0
H1605 H 0.21202 0.91243 0.05801 0.0
H1606 H 0.23616 0.96178 0.04086 0.0
H1607 H 0.23769 0.94923 0.98725 0.0
H1608 H 0.32753 0.07933 0.93542 0.0
H1609 H 0.30473 0.03205 0.95372 0.0
H1610 H 0.32349 0.05083 0.0117 0.0
C1611 C 0.23791 0.94161 0.03622 0.0
C1612 C 0.25633 0.97142 0.99266 0.0
C1613 C 0.22405 0.91344 0.04593 0.0
C1614 C 0.32525 0.08194 0.94928 0.0
C1615 C 0.31195 0.05481 0.95979 0.0
C1616 C 0.30435 0.02906 0.00624 0.0
C1617 C 0.25324 0.94341 0.02041 0.0
C1618 C 0.26687 0.97262 0.00978 0.0
C1619 C 0.30856 0.05715 0.97787 0.0
C1620 C 0.29389 0.02807 0.98901 0.0
H1621 H 0.24376 0.86903 0.01974 0.0
H1622 H 0.26703 0.91803 0.00246 0.0
H1623 H 0.29929 0.00294 0.02975 0.0
H1624 H 0.34131 0.13775 0.98064 0.0
H1625 H 0.31664 0.09033 -0.00108 0.0
C1626 C 0.89104 0.26001 0.96911 0.0
C1627 C 0.88259 0.23306 0.95873 0.0
C1628 C 0.91934 0.27398 0.97863 0.0
C1629 C 0.96919 0.28472 0.00578 0.0
H1630 H 0.04702 0.29492 0.98553 0.0
C1631 C 0.08113 0.31796 0.04676 0.0
C1632 C 0.11061 0.34041 0.03958 0.0
C1633 C 0.05344 0.30535 0.03675 0.0
C1634 C 0.02553 0.29244 0.99132 0.0
H1635 H 0.89755 0.19999 0.94996 0.0
H1636 H 0.94678 0.22423 0.96669 0.0
H1637 H -0.00124 0.27298 0.96793 0.0
H1638 H 0.13406 0.36741 0.01627 0.0
H1639 H 0.0857 0.34553 -0.00112 0.0
H1640 H 0.99606 0.30459 0.0291 0.0
C1641 C 0.93163 0.23471 0.96735 0.0
C1642 C -0.00217 0.27958 0.9813 0.0
C1643 C 0.90332 0.22072 0.95784 0.0
C1644 C 0.11177 0.35002 0.02218 0.0
C1645 C 0.0841 0.33739 0.01218 0.0
C1646 C 0.99687 0.29753 0.0158 0.0
C1647 C 0.93982 0.26134 0.97793 0.0
C1648 C 0.96937 0.27554 0.98844 0.0
C1649 C 0.05465 0.31492 0.01935 0.0
C1650 C 0.02531 0.30147 0.00869 0.0
H1651 H 0.87571 0.27026 0.97 0.0
H1652 H 0.92527 0.29478 0.98648 0.0
H1653 H 0.94752 0.28158 0.01169 0.0
H1654 H 0.07939 0.31008 0.06013 0.0
H1655 H 0.03112 0.28779 0.04256 0.0
C1656 C 0.88908 0.64461 0.37868 0.0
C1657 C 0.89145 0.67366 0.37393 0.0
C1658 C 0.90206 0.63063 0.36804 0.0
C1659 C 0.95845 0.64882 0.33105 0.0
H1660 H 0.91752 0.55671 0.32873 0.0
C1661 C 0.99214 0.57834 0.28241 0.0
C1662 C 0.00221 0.55935 0.29103 0.0
C1663 C 0.9774 0.59218 0.29174 0.0
C1664 C 0.92904 0.58246 0.32926 0.0
H1665 H 0.90868 0.71067 0.35424 0.0
H1666 H 0.92997 0.68567 0.33528 0.0
H1667 H 0.89387 0.58127 0.34645 0.0
H1668 H 0.00411 0.53916 0.31592 0.0
H1669 H 0.9774 0.56256 0.33207 0.0
H1670 H 0.99308 0.6496 0.31336 0.0
C1671 C 0.9192 0.67411 0.34749 0.0
C1672 C 0.91576 0.59659 0.33953 0.0
C1673 C 0.90684 0.6884 0.35831 0.0
C1674 C 0.99672 0.55386 0.309 0.0
C1675 C 0.98135 0.56704 0.31821 0.0
C1676 C 0.97131 0.63463 0.3205 0.0
C1677 C 0.91707 0.64507 0.35222 0.0
C1678 C 0.93053 0.62998 0.34076 0.0
C1679 C 0.97185 0.5865 0.30968 0.0
C1680 C 0.9569 0.60139 0.31972 0.0
H1681 H 0.87755 0.63289 0.39074 0.0
H1682 H 0.90056 0.60866 0.37235 0.0
H1683 H 0.97088 0.67455 0.33188 0.0
H1684 H 0.99625 0.583 0.26857 0.0
H1685 H 0.97019 0.60717 0.28498 0.0
C1686 C 0.43299 0.44643 0.307 0.0
C1687 C 0.43442 0.44467 0.28877 0.0
C1688 C 0.41772 0.4187 0.31702 0.0
C1689 C 0.3573 0.33403 0.3151 0.0
H1690 H 0.40049 0.32706 0.35593 0.0
C1691 C 0.3107 0.21636 0.35356 0.0
C1692 C 0.31458 0.21837 0.37174 0.0
C1693 C 0.32436 0.24394 0.34335 0.0
C1694 C 0.38784 0.32876 0.34474 0.0
H1695 H 0.42039 0.4124 0.26674 0.0
H1696 H 0.3935 0.36393 0.28429 0.0
H1697 H 0.42602 0.3753 0.33833 0.0
H1698 H 0.3348 0.25095 0.39353 0.0
H1699 H 0.35785 0.29898 0.37581 0.0
H1700 H 0.31888 0.28771 0.32162 0.0
C1701 C 0.40428 0.38682 0.29078 0.0
C1702 C 0.40255 0.35638 0.33462 0.0
C1703 C 0.41985 0.41456 0.28076 0.0
C1704 C 0.3317 0.24856 0.37953 0.0
C1705 C 0.34508 0.27611 0.36935 0.0
C1706 C 0.34241 0.30647 0.32531 0.0
C1707 C 0.40324 0.38864 0.30901 0.0
C1708 C 0.38746 0.35928 0.31971 0.0
C1709 C 0.34194 0.27415 0.35111 0.0
C1710 C 0.35752 0.3035 0.34026 0.0
H1711 H 0.44391 0.46923 0.31359 0.0
H1712 H 0.41699 0.42079 0.33104 0.0
H1713 H 0.34499 0.3358 0.30376 0.0
H1714 H 0.29773 0.19344 0.34715 0.0
H1715 H 0.32177 0.2415 0.32933 0.0
C1716 C 0.55158 0.97878 0.30452 0.0
C1717 C 0.55047 0.99258 0.28865 0.0
C1718 C 0.57883 0.99318 0.31484 0.0
C1719 C 0.6547 0.06958 0.32121 0.0
H1720 H 0.67603 0.01563 0.34868 0.0
C1721 C 0.77508 0.10995 0.35645 0.0
C1722 C 0.77209 0.10427 0.37449 0.0
C1723 C 0.74808 0.09741 0.34589 0.0
C1724 C 0.67017 0.03088 0.34111 0.0
H1725 H 0.57698 0.03203 0.27098 0.0
H1726 H 0.62539 0.05656 0.28859 0.0
H1727 H 0.62964 0.99135 0.32965 0.0
H1728 H 0.73881 0.08092 0.39567 0.0
H1729 H 0.69145 0.05794 0.37697 0.0
H1730 H 0.69644 0.10904 0.33227 0.0
C1731 C 0.60484 0.03514 0.2934 0.0
C1732 C 0.64352 0.01708 0.33029 0.0
C1733 C 0.57721 0.02103 0.28323 0.0
C1734 C 0.74168 0.08574 0.3818 0.0
C1735 C 0.71471 0.07257 0.37116 0.0
C1736 C 0.68179 0.08333 0.33176 0.0
C1737 C 0.60597 0.02139 0.30936 0.0
C1738 C 0.63517 0.03623 0.32034 0.0
C1739 C 0.71778 0.07841 0.35316 0.0
C1740 C 0.68946 0.06405 0.34189 0.0
H1741 H 0.53112 0.95705 0.30914 0.0
H1742 H 0.57836 0.98229 0.32723 0.0
H1743 H 0.64883 0.08514 0.314 0.0
H1744 H 0.79828 0.12431 0.35052 0.0
H1745 H 0.75085 0.10203 0.332 0.0
C1746 C 0.30105 0.07684 0.36061 0.0
C1747 C 0.3193 0.10392 0.37097 0.0
C1748 C 0.3158 0.06425 0.3503 0.0
C1749 C 0.35401 0.05469 0.32205 0.0
H1750 H 0.42385 0.04663 0.34087 0.0
C1751 C 0.42818 0.01654 0.28 0.0
C1752 C 0.43549 0.99454 0.28754 0.0
C1753 C 0.41451 0.03068 0.29001 0.0
C1754 C 0.40428 0.04859 0.33546 0.0
H1755 H 0.36741 0.13882 0.37869 0.0
H1756 H 0.39313 0.11687 0.3606 0.0
H1757 H 0.3987 0.06935 0.35883 0.0
H1758 H 0.43389 0.96997 0.31152 0.0
H1759 H 0.40991 0.99445 0.32886 0.0
H1760 H 0.35917 0.03333 0.2988 0.0
C1761 C 0.36738 0.10529 0.36058 0.0
C1762 C 0.3901 0.06191 0.34568 0.0
C1763 C 0.35263 0.11795 0.37088 0.0
C1764 C 0.42871 0.98692 0.30529 0.0
C1765 C 0.41514 0.0011 0.31528 0.0
C1766 C 0.36825 0.04144 0.31181 0.0
C1767 C 0.34912 0.07838 0.35013 0.0
C1768 C 0.3647 0.06494 0.33913 0.0
C1769 C 0.40793 0.02316 0.30776 0.0
C1770 C 0.3934 0.03807 0.31844 0.0
H1771 H 0.27531 0.06532 0.36043 0.0
H1772 H 0.30105 0.0432 0.34259 0.0
H1773 H 0.33471 0.05703 0.31657 0.0
H1774 H 0.43306 0.02293 0.26637 0.0
H1775 H 0.40948 0.04782 0.28389 0.0
C1776 C 0.02311 0.44064 0.30865 0.0
C1777 C 0.00681 0.44523 0.29484 0.0
C1778 C 0.00862 0.41256 0.31832 0.0
C1779 C 0.98054 0.34455 0.33012 0.0
H1780 H 0.89109 0.30471 0.34221 0.0
C1781 C 0.9139 0.22137 0.36288 0.0
C1782 C 0.89131 0.21663 0.37573 0.0
C1783 C 0.92778 0.24906 0.35283 0.0
C1784 C 0.91618 0.3157 0.33908 0.0
H1785 H 0.9626 0.42387 0.28025 0.0
H1786 H 0.93749 0.37438 0.29693 0.0
H1787 H 0.91565 0.35369 0.32521 0.0
H1788 H 0.86609 0.23753 0.3884 0.0
H1789 H 0.89096 0.28625 0.37117 0.0
H1790 H 0.98142 0.30729 0.34452 0.0
C1791 C 0.96127 0.39282 0.3005 0.0
C1792 C 0.93013 0.34353 0.32913 0.0
C1793 C 0.97569 0.4211 0.29089 0.0
C1794 C 0.88324 0.24037 0.37849 0.0
C1795 C 0.89733 0.2682 0.36855 0.0
C1796 C 0.96666 0.31689 0.34018 0.0
C1797 C 0.97761 0.38825 0.31431 0.0
C1798 C 0.9625 0.35831 0.32457 0.0
C1799 C 0.91962 0.27277 0.35553 0.0
C1800 C 0.93433 0.30216 0.3448 0.0
H1801 H 0.04704 0.45886 0.31212 0.0
H1802 H 0.02166 0.41009 0.32909 0.0
H1803 H 0.00543 0.35508 0.32664 0.0
H1804 H 0.92052 0.20346 0.36036 0.0
H1805 H 0.94452 0.25162 0.34275 0.0
C1806 C 0.77111 0.68739 0.36146 0.0
C1807 C 0.77477 0.66996 0.37495 0.0
C1808 C 0.74437 0.67318 0.3507 0.0
C1809 C 0.66302 0.60198 0.34739 0.0
H1810 H 0.67167 0.62881 0.29911 0.0
C1811 C 0.56612 0.53904 0.29409 0.0
C1812 C 0.55534 0.55904 0.28755 0.0
C1813 C 0.59364 0.55162 0.30429 0.0
C1814 C 0.66908 0.62113 0.31256 0.0
H1815 H 0.75364 0.62398 0.38772 0.0
H1816 H 0.70772 0.59861 0.36846 0.0
H1817 H 0.71833 0.65216 0.31801 0.0
H1818 H 0.56524 0.60781 0.28589 0.0
H1819 H 0.61409 0.62993 0.30323 0.0
H1820 H 0.61378 0.57012 0.34153 0.0
C1821 C 0.7248 0.62358 0.36649 0.0
C1822 C 0.69565 0.63467 0.32347 0.0
C1823 C 0.75122 0.63804 0.37751 0.0
C1824 C 0.57302 0.5919 0.29087 0.0
C1825 C 0.60092 0.60455 0.30069 0.0
C1826 C 0.63662 0.58795 0.33635 0.0
C1827 C 0.72101 0.64095 0.35291 0.0
C1828 C 0.69292 0.62561 0.34111 0.0
C1829 C 0.61113 0.58443 0.30766 0.0
C1830 C 0.63944 0.59771 0.31894 0.0
H1831 H 0.78881 0.71217 0.35934 0.0
H1832 H 0.74198 0.68764 0.34072 0.0
H1833 H 0.65972 0.59474 0.36092 0.0
H1834 H 0.55279 0.5136 0.29177 0.0
H1835 H 0.60126 0.53579 0.30958 0.0
C1836 C 0.67881 0.89579 0.64076 0.0
C1837 C 0.67456 0.89327 0.6226 0.0
C1838 C 0.66476 0.90942 0.65085 0.0
C1839 C 0.63376 0.96434 0.64883 0.0
H1840 H 0.58573 0.91959 0.68996 0.0
C1841 C 0.55845 0.00566 0.68703 0.0
C1842 C 0.55777 0.00293 0.70527 0.0
C1843 C 0.57255 0.99216 0.67687 0.0
C1844 C 0.59943 0.93266 0.67867 0.0
H1845 H 0.65284 0.9037 0.60075 0.0
H1846 H 0.62863 0.92781 0.6184 0.0
H1847 H 0.61157 0.89694 0.67254 0.0
H1848 H 0.57181 0.98442 0.72717 0.0
H1849 H 0.59712 0.96168 0.70952 0.0
H1850 H 0.62228 0.00039 0.65506 0.0
C1851 C 0.64272 0.91911 0.62479 0.0
C1852 C 0.61414 0.9196 0.66868 0.0
C1853 C 0.65642 0.90514 0.61472 0.0
C1854 C 0.57162 0.98661 0.71313 0.0
C1855 C 0.58601 0.97343 0.70299 0.0
C1856 C 0.61935 0.97759 0.65892 0.0
C1857 C 0.64658 0.92118 0.64296 0.0
C1858 C 0.63137 0.93528 0.65365 0.0
C1859 C 0.58661 0.97597 0.68472 0.0
C1860 C 0.60194 0.96188 0.67395 0.0
H1861 H 0.69265 0.88688 0.64722 0.0
H1862 H 0.66831 0.91099 0.66483 0.0
H1863 H 0.64721 0.97706 0.63739 0.0
H1864 H 0.54784 0.01797 0.68058 0.0
H1865 H 0.5721 0.99414 0.66283 0.0
C1866 C 0.08131 0.77419 0.63496 0.0
C1867 C 0.10268 0.77775 0.62161 0.0
C1868 C 0.06822 0.74736 0.64567 0.0
C1869 C 0.07956 0.68052 0.65984 0.0
H1870 H 0.99206 0.64461 0.67512 0.0
C1871 C 0.97306 0.55891 0.69351 0.0
C1872 C 0.99029 0.55365 0.70653 0.0
C1873 C 0.98738 0.58672 0.68362 0.0
C1874 C 0.01644 0.65413 0.67086 0.0
H1875 H 0.12661 0.75567 0.60881 0.0
H1876 H 0.1029 0.70823 0.62715 0.0
H1877 H 0.01523 0.69092 0.65621 0.0
H1878 H 0.03599 0.57371 0.71954 0.0
H1879 H 0.06086 0.62291 0.70253 0.0
H1880 H 0.08023 0.64275 0.6739 0.0
C1881 C 0.09695 0.72662 0.62966 0.0
C1882 C 0.02991 0.68102 0.6602 0.0
C1883 C 0.11036 0.75368 0.61906 0.0
C1884 C 0.02215 0.57702 0.70954 0.0
C1885 C 0.03643 0.6051 0.69973 0.0
C1886 C 0.06597 0.65337 0.67038 0.0
C1887 C 0.07583 0.72321 0.64316 0.0
C1888 C 0.06162 0.69456 0.65453 0.0
C1889 C 0.0192 0.61023 0.68662 0.0
C1890 C 0.03418 0.63977 0.67595 0.0
H1891 H 0.07511 0.79243 0.63738 0.0
H1892 H 0.05251 0.74584 0.65611 0.0
H1893 H 0.1042 0.69058 0.65594 0.0
H1894 H 0.94854 0.54129 0.69073 0.0
H1895 H 0.97357 0.58952 0.67341 0.0
C1896 C 0.25068 0.34834 0.61648 0.0
C1897 C 0.22153 0.32453 0.62337 0.0
C1898 C 0.27823 0.36183 0.62667 0.0
C1899 C 0.31361 0.34716 0.66553 0.0
H1900 H 0.37037 0.43864 0.66441 0.0
C1901 C 0.43766 0.4086 0.69804 0.0
C1902 C 0.44659 0.43694 0.70722 0.0
C1903 C 0.41008 0.39458 0.68788 0.0
C1904 C 0.35465 0.41308 0.66494 0.0
H1905 H 0.19858 0.29607 0.64634 0.0
H1906 H 0.24663 0.31977 0.66411 0.0
H1907 H 0.32229 0.41472 0.6466 0.0
H1908 H 0.43327 0.47254 0.71306 0.0
H1909 H 0.38512 0.44797 0.69538 0.0
H1910 H 0.34577 0.34558 0.68406 0.0
C1911 C 0.24819 0.32781 0.65079 0.0
C1912 C 0.32731 0.39935 0.6546 0.0
C1913 C 0.22062 0.31438 0.64063 0.0
C1914 C 0.42719 0.4508 0.7061 0.0
C1915 C 0.39968 0.43683 0.6959 0.0
C1916 C 0.34103 0.36087 0.67582 0.0
C1917 C 0.27727 0.35174 0.64394 0.0
C1918 C 0.30646 0.36625 0.65481 0.0
C1919 C 0.39087 0.40862 0.68664 0.0
C1920 C 0.36181 0.39399 0.67566 0.0
H1921 H 0.25229 0.35662 0.60321 0.0
H1922 H 0.30038 0.37995 0.62096 0.0
H1923 H 0.29815 0.32154 0.66584 0.0
H1924 H 0.45202 0.39725 0.69864 0.0
H1925 H 0.40406 0.373 0.68077 0.0
C1926 C 0.01318 0.42995 0.71165 0.0
C1927 C 0.99103 0.43747 0.70454 0.0
C1928 C 0.02681 0.41628 0.7013 0.0
C1929 C 0.03624 0.36979 0.67932 0.0
H1930 H 0.06439 0.4006 0.63235 0.0
C1931 C 0.07521 0.30434 0.63173 0.0
C1932 C 0.10292 0.32312 0.62192 0.0
C1933 C 0.06117 0.31849 0.64133 0.0
C1934 C 0.05681 0.39189 0.64547 0.0
H1935 H 0.96578 0.43641 0.68097 0.0
H1936 H 0.98944 0.41229 0.66296 0.0
H1937 H 0.04122 0.42543 0.6503 0.0
H1938 H 0.13722 0.37149 0.61423 0.0
H1939 H 0.11278 0.3962 0.63116 0.0
H1940 H 0.0523 0.33665 0.67465 0.0
C1941 C 0.99652 0.41736 0.67649 0.0
C1942 C 0.04325 0.40586 0.65568 0.0
C1943 C 0.98283 0.43101 0.68685 0.0
C1944 C 0.11593 0.35634 0.62168 0.0
C1945 C 0.10184 0.3705 0.63129 0.0
C1946 C 0.04972 0.3558 0.66912 0.0
C1947 C 0.0186 0.40981 0.68362 0.0
C1948 C 0.03287 0.39497 0.67272 0.0
C1949 C 0.07448 0.35172 0.64134 0.0
C1950 C 0.06014 0.36668 0.65209 0.0
H1951 H 0.02006 0.43464 0.72522 0.0
H1952 H 0.04405 0.41107 0.70711 0.0
H1953 H 0.02817 0.36067 0.69233 0.0
H1954 H 0.06437 0.27865 0.6321 0.0
H1955 H 0.03979 0.30335 0.64871 0.0
C1956 C 0.55921 0.55331 0.69046 0.0
C1957 C 0.56281 0.55534 0.70866 0.0
C1958 C 0.57336 0.58084 0.68026 0.0
C1959 C 0.64022 0.65908 0.67684 0.0
H1960 H 0.58712 0.681 0.6491 0.0
C1961 C 0.69347 0.77776 0.6391 0.0
C1962 C 0.67898 0.77854 0.62343 0.0
C1963 C 0.67946 0.75061 0.64962 0.0
C1964 C 0.60244 0.67502 0.65647 0.0
H1965 H 0.5844 0.58754 0.73045 0.0
H1966 H 0.61018 0.6358 0.7124 0.0
H1967 H 0.56251 0.63313 0.66708 0.0
H1968 H 0.63917 0.75135 0.60612 0.0
H1969 H 0.61554 0.70335 0.62392 0.0
H1970 H 0.68026 0.69983 0.66577 0.0
C1971 C 0.59595 0.61286 0.70618 0.0
C1972 C 0.58823 0.64774 0.66688 0.0
C1973 C 0.58115 0.58537 0.71646 0.0
C1974 C 0.65062 0.75145 0.61826 0.0
C1975 C 0.63698 0.72403 0.62857 0.0
C1976 C 0.65452 0.68598 0.66612 0.0
C1977 C 0.59194 0.61075 0.68804 0.0
C1978 C 0.60702 0.63969 0.67717 0.0
C1979 C 0.65099 0.72332 0.64451 0.0
C1980 C 0.63582 0.69442 0.65582 0.0
H1981 H 0.54508 0.53047 0.68412 0.0
H1982 H 0.57009 0.57878 0.66626 0.0
H1983 H 0.6551 0.65303 0.6846 0.0
H1984 H 0.71523 0.79846 0.64346 0.0
H1985 H 0.6907 0.75136 0.66192 0.0
C1986 C 0.25024 0.89973 0.61626 0.0
C1987 C 0.2203 0.89251 0.62282 0.0
C1988 C 0.27715 0.91403 0.62692 0.0
C1989 C 0.33218 0.96145 0.64928 0.0
H1990 H 0.32676 0.93228 0.69689 0.0
C1991 C 0.43475 0.0273 0.69806 0.0
C1992 C 0.44279 0.0083 0.7083 0.0
C1993 C 0.40688 0.01342 0.68817 0.0
C1994 C 0.32867 0.94057 0.6836 0.0
H1995 H 0.19522 0.89484 0.64571 0.0
H1996 H 0.24221 0.91994 0.66422 0.0
H1997 H 0.27981 0.90699 0.67821 0.0
H1998 H 0.42738 0.95988 0.71654 0.0
H1999 H 0.37886 0.93568 0.69915 0.0
H2000 H 0.38117 0.99461 0.65454 0.0
C2001 C 0.24478 0.91417 0.6509 0.0
C2002 C 0.30172 0.92632 0.67296 0.0
C2003 C 0.21789 0.89994 0.64025 0.0
C2004 C 0.42194 0.9752 0.70877 0.0
C2005 C 0.39404 0.96133 0.69888 0.0
C2006 C 0.35909 0.97575 0.65992 0.0
C2007 C 0.27469 0.92137 0.64436 0.0
C2008 C 0.30323 0.93657 0.65568 0.0
C2009 C 0.38642 0.98027 0.68833 0.0
C2010 C 0.35763 0.96542 0.67718 0.0
H2011 H 0.25295 0.89436 0.60289 0.0
H2012 H 0.29985 0.91899 0.62157 0.0
H2013 H 0.33398 0.97008 0.63607 0.0
H2014 H 0.45015 0.05291 0.6975 0.0
H2015 H 0.40137 0.02867 0.68038 0.0
loop_
_geom_bond_atom_site_label_1
_geom_bond_atom_site_label_2
_geom_bond_distance
_geom_bond_site_symmetry_2
_ccdc_geom_bond_type
Fe0 O2 1.918 . S
Fe0 O5 1.997 . S
Fe0 O6 2.002 . S
Fe0 O11 1.976 . S
Fe0 O14 1.996 . S
Fe1 O2 1.918 . S
Fe1 O9 1.997 . S
Fe1 O12 1.996 . S
Fe1 O16 1.976 . S
Fe1 O19 2.002 . S
O2 Fe0 1.918 . S
O2 Fe1 1.918 . S
O2 Fe3 1.918 . S
Fe3 O2 1.918 . S
Fe3 O4 2.002 . S
Fe3 O13 1.976 . S
Fe3 O17 1.996 . S
Fe3 O20 1.997 . S
O4 Fe3 2.002 . S
O4 C21 1.295 . S
O5 Fe0 1.997 . S
O5 C21 1.235 . S
O6 Fe0 2.002 . S
O6 C7 1.295 . S
C7 O6 1.295 . S
C7 O9 1.235 . S
C8 O13 1.287 . S
C8 O14 1.255 . S
O9 Fe1 1.997 . S
O9 C7 1.235 . S
C10 O16 1.287 . S
C10 O17 1.255 . S
O11 Fe0 1.976 . S
O11 C18 1.287 . S
O12 Fe1 1.996 . S
O12 C18 1.255 . S
O13 Fe3 1.976 . S
O13 C8 1.287 . S
O14 Fe0 1.996 . S
O14 C8 1.255 . S
C15 O19 1.295 . S
C15 O20 1.235 . S
O16 Fe1 1.976 . S
O16 C10 1.287 . S
O17 Fe3 1.996 . S
O17 C10 1.255 . S
C18 O11 1.287 . S
C18 O12 1.255 . S
O19 Fe1 2.002 . S
O19 C15 1.295 . S
O20 Fe3 1.997 . S
O20 C15 1.235 . S
C21 O4 1.295 . S
C21 O5 1.235 . S
Fe22 O24 1.918 . S
Fe22 O27 1.997 . S
Fe22 O28 2.002 . S
Fe22 O33 1.976 . S
Fe22 O36 1.996 . S
Fe23 O24 1.918 . S
Fe23 O31 1.997 . S
Fe23 O34 1.996 . S
Fe23 O38 1.976 . S
Fe23 O41 2.002 . S
O24 Fe22 1.918 . S
O24 Fe23 1.918 . S
O24 Fe25 1.918 . S
Fe25 O24 1.918 . S
Fe25 O26 2.002 . S
Fe25 O35 1.976 . S
Fe25 O39 1.996 . S
Fe25 O42 1.997 . S
O26 Fe25 2.002 . S
O26 C43 1.295 . S
O27 Fe22 1.997 . S
O27 C43 1.235 . S
O28 Fe22 2.002 . S
O28 C29 1.295 . S
C29 O28 1.295 . S
C29 O31 1.235 . S
C30 O35 1.287 . S
C30 O36 1.255 . S
O31 Fe23 1.997 . S
O31 C29 1.235 . S
C32 O38 1.287 . S
C32 O39 1.255 . S
O33 Fe22 1.976 . S
O33 C40 1.287 . S
O34 Fe23 1.996 . S
O34 C40 1.255 . S
O35 Fe25 1.976 . S
O35 C30 1.287 . S
O36 Fe22 1.996 . S
O36 C30 1.255 . S
C37 O41 1.295 . S
C37 O42 1.235 . S
O38 Fe23 1.976 . S
O38 C32 1.287 . S
O39 Fe25 1.996 . S
O39 C32 1.255 . S
C40 O33 1.287 . S
C40 O34 1.255 . S
O41 Fe23 2.002 . S
O41 C37 1.295 . S
O42 Fe25 1.997 . S
O42 C37 1.235 . S
C43 O26 1.295 . S
C43 O27 1.235 . S
Fe44 O46 1.918 . S
Fe44 O49 1.997 . S
Fe44 O50 2.002 . S
Fe44 O55 1.976 . S
Fe44 O58 1.996 . S
Fe45 O46 1.918 . S
Fe45 O53 1.997 . S
Fe45 O56 1.996 . S
Fe45 O60 1.976 . S
Fe45 O63 2.002 . S
O46 Fe44 1.918 . S
O46 Fe45 1.918 . S
O46 Fe47 1.918 . S
Fe47 O46 1.918 . S
Fe47 O48 2.002 . S
Fe47 O57 1.976 . S
Fe47 O61 1.996 . S
Fe47 O64 1.997 . S
O48 Fe47 2.002 . S
O48 C65 1.295 . S
O49 Fe44 1.997 . S
O49 C65 1.235 . S
O50 Fe44 2.002 . S
O50 C51 1.295 . S
C51 O50 1.295 . S
C51 O53 1.235 . S
C52 O57 1.287 . S
C52 O58 1.255 . S
O53 Fe45 1.997 . S
O53 C51 1.235 . S
C54 O60 1.287 . S
C54 O61 1.255 . S
O55 Fe44 1.976 . S
O55 C62 1.287 . S
O56 Fe45 1.996 . S
O56 C62 1.255 . S
O57 Fe47 1.976 . S
O57 C52 1.287 . S
O58 Fe44 1.996 . S
O58 C52 1.255 . S
C59 O63 1.295 . S
C59 O64 1.235 . S
O60 Fe45 1.976 . S
O60 C54 1.287 . S
O61 Fe47 1.996 . S
O61 C54 1.255 . S
C62 O55 1.287 . S
C62 O56 1.255 . S
O63 Fe45 2.002 . S
O63 C59 1.295 . S
O64 Fe47 1.997 . S
O64 C59 1.235 . S
C65 O48 1.295 . S
C65 O49 1.235 . S
Fe66 O68 1.918 . S
Fe66 O71 1.997 . S
Fe66 O72 2.002 . S
Fe66 O77 1.976 . S
Fe66 O80 1.996 . S
Fe67 O68 1.918 . S
Fe67 O75 1.997 . S
Fe67 O78 1.996 . S
Fe67 O82 1.976 . S
Fe67 O85 2.002 . S
O68 Fe66 1.918 . S
O68 Fe67 1.918 . S
O68 Fe69 1.918 . S
Fe69 O68 1.918 . S
Fe69 O70 2.002 . S
Fe69 O79 1.976 . S
Fe69 O83 1.996 . S
Fe69 O86 1.997 . S
O70 Fe69 2.002 . S
O70 C87 1.295 . S
O71 Fe66 1.997 . S
O71 C87 1.235 . S
O72 Fe66 2.002 . S
O72 C73 1.295 . S
C73 O72 1.295 . S
C73 O75 1.235 . S
C74 O79 1.287 . S
C74 O80 1.255 . S
O75 Fe67 1.997 . S
O75 C73 1.235 . S
C76 O82 1.287 . S
C76 O83 1.255 . S
O77 Fe66 1.976 . S
O77 C84 1.287 . S
O78 Fe67 1.996 . S
O78 C84 1.255 . S
O79 Fe69 1.976 . S
O79 C74 1.287 . S
O80 Fe66 1.996 . S
O80 C74 1.255 . S
C81 O85 1.295 . S
C81 O86 1.235 . S
O82 Fe67 1.976 . S
O82 C76 1.287 . S
O83 Fe69 1.996 . S
O83 C76 1.255 . S
C84 O77 1.287 . S
C84 O78 1.255 . S
O85 Fe67 2.002 . S
O85 C81 1.295 . S
O86 Fe69 1.997 . S
O86 C81 1.235 . S
C87 O70 1.295 . S
C87 O71 1.235 . S
Fe88 O90 1.918 . S
Fe88 O93 1.997 . S
Fe88 O94 2.002 . S
Fe88 O99 1.976 . S
Fe88 O102 1.996 . S
Fe89 O90 1.918 . S
Fe89 O97 1.997 . S
Fe89 O100 1.996 . S
Fe89 O104 1.976 . S
Fe89 O107 2.002 . S
O90 Fe88 1.918 . S
O90 Fe89 1.918 . S
O90 Fe91 1.918 . S
Fe91 O90 1.918 . S
Fe91 O92 2.002 . S
Fe91 O101 1.976 . S
Fe91 O105 1.996 . S
Fe91 O108 1.997 . S
O92 Fe91 2.002 . S
O92 C109 1.295 . S
O93 Fe88 1.997 . S
O93 C109 1.235 . S
O94 Fe88 2.002 . S
O94 C95 1.295 . S
C95 O94 1.295 . S
C95 O97 1.235 . S
C96 O101 1.287 . S
C96 O102 1.255 . S
O97 Fe89 1.997 . S
O97 C95 1.235 . S
C98 O104 1.287 . S
C98 O105 1.255 . S
O99 Fe88 1.976 . S
O99 C106 1.287 . S
O100 Fe89 1.996 . S
O100 C106 1.255 . S
O101 Fe91 1.976 . S
O101 C96 1.287 . S
O102 Fe88 1.996 . S
O102 C96 1.255 . S
C103 O107 1.295 . S
C103 O108 1.235 . S
O104 Fe89 1.976 . S
O104 C98 1.287 . S
O105 Fe91 1.996 . S
O105 C98 1.255 . S
C106 O99 1.287 . S
C106 O100 1.255 . S
O107 Fe89 2.002 . S
O107 C103 1.295 . S
O108 Fe91 1.997 . S
O108 C103 1.235 . S
C109 O92 1.295 . S
C109 O93 1.235 . S
Fe110 O112 1.918 . S
Fe110 O115 1.997 . S
Fe110 O116 2.002 . S
Fe110 O121 1.976 . S
Fe110 O124 1.996 . S
Fe111 O112 1.918 . S
Fe111 O119 1.997 . S
Fe111 O122 1.996 . S
Fe111 O126 1.976 . S
Fe111 O129 2.002 . S
O112 Fe110 1.918 . S
O112 Fe111 1.918 . S
O112 Fe113 1.918 . S
Fe113 O112 1.918 . S
Fe113 O114 2.002 . S
Fe113 O123 1.976 . S
Fe113 O127 1.996 . S
Fe113 O130 1.997 . S
O114 Fe113 2.002 . S
O114 C131 1.295 . S
O115 Fe110 1.997 . S
O115 C131 1.235 . S
O116 Fe110 2.002 . S
O116 C117 1.295 . S
C117 O116 1.295 . S
C117 O119 1.235 . S
C118 O123 1.287 . S
C118 O124 1.255 . S
O119 Fe111 1.997 . S
O119 C117 1.235 . S
C120 O126 1.287 . S
C120 O127 1.255 . S
O121 Fe110 1.976 . S
O121 C128 1.287 . S
O122 Fe111 1.996 . S
O122 C128 1.255 . S
O123 Fe113 1.976 . S
O123 C118 1.287 . S
O124 Fe110 1.996 . S
O124 C118 1.255 . S
C125 O129 1.295 . S
C125 O130 1.235 . S
O126 Fe111 1.976 . S
O126 C120 1.287 . S
O127 Fe113 1.996 . S
O127 C120 1.255 . S
C128 O121 1.287 . S
C128 O122 1.255 . S
O129 Fe111 2.002 . S
O129 C125 1.295 . S
O130 Fe113 1.997 . S
O130 C125 1.235 . S
C131 O114 1.295 . S
C131 O115 1.235 . S
Fe132 O134 1.918 . S
Fe132 O137 1.997 . S
Fe132 O138 2.002 . S
Fe132 O143 1.976 . S
Fe132 O146 1.996 . S
Fe133 O134 1.918 . S
Fe133 O141 1.997 . S
Fe133 O144 1.996 . S
Fe133 O148 1.976 . S
Fe133 O151 2.002 . S
O134 Fe132 1.918 . S
O134 Fe133 1.918 . S
O134 Fe135 1.918 . S
Fe135 O134 1.918 . S
Fe135 O136 2.002 . S
Fe135 O145 1.976 . S
Fe135 O149 1.996 . S
Fe135 O152 1.997 . S
O136 Fe135 2.002 . S
O136 C153 1.295 . S
O137 Fe132 1.997 . S
O137 C153 1.235 . S
O138 Fe132 2.002 . S
O138 C139 1.295 . S
C139 O138 1.295 . S
C139 O141 1.235 . S
C140 O145 1.287 . S
C140 O146 1.255 . S
O141 Fe133 1.997 . S
O141 C139 1.235 . S
C142 O148 1.287 . S
C142 O149 1.255 . S
O143 Fe132 1.976 . S
O143 C150 1.287 . S
O144 Fe133 1.996 . S
O144 C150 1.255 . S
O145 Fe135 1.976 . S
O145 C140 1.287 . S
O146 Fe132 1.996 . S
O146 C140 1.255 . S
C147 O151 1.295 . S
C147 O152 1.235 . S
O148 Fe133 1.976 . S
O148 C142 1.287 . S
O149 Fe135 1.996 . S
O149 C142 1.255 . S
C150 O143 1.287 . S
C150 O144 1.255 . S
O151 Fe133 2.002 . S
O151 C147 1.295 . S
O152 Fe135 1.997 . S
O152 C147 1.235 . S
C153 O136 1.295 . S
C153 O137 1.235 . S
Fe154 O156 1.918 . S
Fe154 O159 1.997 . S
Fe154 O160 2.002 . S
Fe154 O165 1.976 . S
Fe154 O168 1.996 . S
Fe155 O156 1.918 . S
Fe155 O163 1.997 . S
Fe155 O166 1.996 . S
Fe155 O170 1.976 . S
Fe155 O173 2.002 . S
O156 Fe154 1.918 . S
O156 Fe155 1.918 . S
O156 Fe157 1.918 . S
Fe157 O156 1.918 . S
Fe157 O158 2.002 . S
Fe157 O167 1.976 . S
Fe157 O171 1.996 . S
Fe157 O174 1.997 . S
O158 Fe157 2.002 . S
O158 C175 1.295 . S
O159 Fe154 1.997 . S
O159 C175 1.235 . S
O160 Fe154 2.002 . S
O160 C161 1.295 . S
C161 O160 1.295 . S
C161 O163 1.235 . S
C162 O167 1.287 . S
C162 O168 1.255 . S
O163 Fe155 1.997 . S
O163 C161 1.235 . S
C164 O170 1.287 . S
C164 O171 1.255 . S
O165 Fe154 1.976 . S
O165 C172 1.287 . S
O166 Fe155 1.996 . S
O166 C172 1.255 . S
O167 Fe157 1.976 . S
O167 C162 1.287 . S
O168 Fe154 1.996 . S
O168 C162 1.255 . S
C169 O173 1.295 . S
C169 O174 1.235 . S
O170 Fe155 1.976 . S
O170 C164 1.287 . S
O171 Fe157 1.996 . S
O171 C164 1.255 . S
C172 O165 1.287 . S
C172 O166 1.255 . S
O173 Fe155 2.002 . S
O173 C169 1.295 . S
O174 Fe157 1.997 . S
O174 C169 1.235 . S
C175 O158 1.295 . S
C175 O159 1.235 . S
Fe176 O178 1.918 . S
Fe176 O181 1.997 . S
Fe176 O182 2.002 . S
Fe176 O187 1.976 . S
Fe176 O190 1.996 . S
Fe177 O178 1.918 . S
Fe177 O185 1.997 . S
Fe177 O188 1.996 . S
Fe177 O192 1.976 . S
Fe177 O195 2.002 . S
O178 Fe176 1.918 . S
O178 Fe177 1.918 . S
O178 Fe179 1.918 . S
Fe179 O178 1.918 . S
Fe179 O180 2.002 . S
Fe179 O189 1.976 . S
Fe179 O193 1.996 . S
Fe179 O196 1.997 . S
O180 Fe179 2.002 . S
O180 C197 1.295 . S
O181 Fe176 1.997 . S
O181 C197 1.235 . S
O182 Fe176 2.002 . S
O182 C183 1.295 . S
C183 O182 1.295 . S
C183 O185 1.235 . S
C184 O189 1.287 . S
C184 O190 1.255 . S
O185 Fe177 1.997 . S
O185 C183 1.235 . S
C186 O192 1.287 . S
C186 O193 1.255 . S
O187 Fe176 1.976 . S
O187 C194 1.287 . S
O188 Fe177 1.996 . S
O188 C194 1.255 . S
O189 Fe179 1.976 . S
O189 C184 1.287 . S
O190 Fe176 1.996 . S
O190 C184 1.255 . S
C191 O195 1.295 . S
C191 O196 1.235 . S
O192 Fe177 1.976 . S
O192 C186 1.287 . S
O193 Fe179 1.996 . S
O193 C186 1.255 . S
C194 O187 1.287 . S
C194 O188 1.255 . S
O195 Fe177 2.002 . S
O195 C191 1.295 . S
O196 Fe179 1.997 . S
O196 C191 1.235 . S
C197 O180 1.295 . S
C197 O181 1.235 . S
Fe198 O200 1.918 . S
Fe198 O203 1.997 . S
Fe198 O204 2.002 . S
Fe198 O209 1.976 . S
Fe198 O212 1.996 . S
Fe199 O200 1.918 . S
Fe199 O207 1.997 . S
Fe199 O210 1.996 . S
Fe199 O214 1.976 . S
Fe199 O217 2.002 . S
O200 Fe198 1.918 . S
O200 Fe199 1.918 . S
O200 Fe201 1.918 . S
Fe201 O200 1.918 . S
Fe201 O202 2.002 . S
Fe201 O211 1.976 . S
Fe201 O215 1.996 . S
Fe201 O218 1.997 . S
O202 Fe201 2.002 . S
O202 C219 1.295 . S
O203 Fe198 1.997 . S
O203 C219 1.235 . S
O204 Fe198 2.002 . S
O204 C205 1.295 . S
C205 O204 1.295 . S
C205 O207 1.235 . S
C206 O211 1.287 . S
C206 O212 1.255 . S
O207 Fe199 1.997 . S
O207 C205 1.235 . S
C208 O214 1.287 . S
C208 O215 1.255 . S
O209 Fe198 1.976 . S
O209 C216 1.287 . S
O210 Fe199 1.996 . S
O210 C216 1.255 . S
O211 Fe201 1.976 . S
O211 C206 1.287 . S
O212 Fe198 1.996 . S
O212 C206 1.255 . S
C213 O217 1.295 . S
C213 O218 1.235 . S
O214 Fe199 1.976 . S
O214 C208 1.287 . S
O215 Fe201 1.996 . S
O215 C208 1.255 . S
C216 O209 1.287 . S
C216 O210 1.255 . S
O217 Fe199 2.002 . S
O217 C213 1.295 . S
O218 Fe201 1.997 . S
O218 C213 1.235 . S
C219 O202 1.295 . S
C219 O203 1.235 . S
Fe220 O222 1.918 . S
Fe220 O225 1.997 . S
Fe220 O226 2.002 . S
Fe220 O231 1.976 . S
Fe220 O234 1.996 . S
Fe221 O222 1.918 . S
Fe221 O229 1.997 . S
Fe221 O232 1.996 . S
Fe221 O236 1.976 . S
Fe221 O239 2.002 . S
O222 Fe220 1.918 . S
O222 Fe221 1.918 . S
O222 Fe223 1.918 . S
Fe223 O222 1.918 . S
Fe223 O224 2.002 . S
Fe223 O233 1.976 . S
Fe223 O237 1.996 . S
Fe223 O240 1.997 . S
O224 Fe223 2.002 . S
O224 C241 1.295 . S
O225 Fe220 1.997 . S
O225 C241 1.235 . S
O226 Fe220 2.002 . S
O226 C227 1.295 . S
C227 O226 1.295 . S
C227 O229 1.235 . S
C228 O233 1.287 . S
C228 O234 1.255 . S
O229 Fe221 1.997 . S
O229 C227 1.235 . S
C230 O236 1.287 . S
C230 O237 1.255 . S
O231 Fe220 1.976 . S
O231 C238 1.287 . S
O232 Fe221 1.996 . S
O232 C238 1.255 . S
O233 Fe223 1.976 . S
O233 C228 1.287 . S
O234 Fe220 1.996 . S
O234 C228 1.255 . S
C235 O239 1.295 . S
C235 O240 1.235 . S
O236 Fe221 1.976 . S
O236 C230 1.287 . S
O237 Fe223 1.996 . S
O237 C230 1.255 . S
C238 O231 1.287 . S
C238 O232 1.255 . S
O239 Fe221 2.002 . S
O239 C235 1.295 . S
O240 Fe223 1.997 . S
O240 C235 1.235 . S
C241 O224 1.295 . S
C241 O225 1.235 . S
Fe242 O244 1.918 . S
Fe242 O247 1.997 . S
Fe242 O248 2.002 . S
Fe242 O253 1.976 . S
Fe242 O256 1.996 . S
Fe243 O244 1.918 . S
Fe243 O251 1.997 . S
Fe243 O254 1.996 . S
Fe243 O258 1.976 . S
Fe243 O261 2.002 . S
O244 Fe242 1.918 . S
O244 Fe243 1.918 . S
O244 Fe245 1.918 . S
Fe245 O244 1.918 . S
Fe245 O246 2.002 . S
Fe245 O255 1.976 . S
Fe245 O259 1.996 . S
Fe245 O262 1.997 . S
O246 Fe245 2.002 . S
O246 C263 1.295 . S
O247 Fe242 1.997 . S
O247 C263 1.235 . S
O248 Fe242 2.002 . S
O248 C249 1.295 . S
C249 O248 1.295 . S
C249 O251 1.235 . S
C250 O255 1.287 . S
C250 O256 1.255 . S
O251 Fe243 1.997 . S
O251 C249 1.235 . S
C252 O258 1.287 . S
C252 O259 1.255 . S
O253 Fe242 1.976 . S
O253 C260 1.287 . S
O254 Fe243 1.996 . S
O254 C260 1.255 . S
O255 Fe245 1.976 . S
O255 C250 1.287 . S
O256 Fe242 1.996 . S
O256 C250 1.255 . S
C257 O261 1.295 . S
C257 O262 1.235 . S
O258 Fe243 1.976 . S
O258 C252 1.287 . S
O259 Fe245 1.996 . S
O259 C252 1.255 . S
C260 O253 1.287 . S
C260 O254 1.255 . S
O261 Fe243 2.002 . S
O261 C257 1.295 . S
O262 Fe245 1.997 . S
O262 C257 1.235 . S
C263 O246 1.295 . S
C263 O247 1.235 . S
Fe264 O266 1.918 . S
Fe264 O269 1.997 . S
Fe264 O270 2.002 . S
Fe264 O275 1.976 . S
Fe264 O278 1.996 . S
Fe265 O266 1.918 . S
Fe265 O273 1.997 . S
Fe265 O276 1.996 . S
Fe265 O280 1.976 . S
Fe265 O283 2.002 . S
O266 Fe264 1.918 . S
O266 Fe265 1.918 . S
O266 Fe267 1.918 . S
Fe267 O266 1.918 . S
Fe267 O268 2.002 . S
Fe267 O277 1.976 . S
Fe267 O281 1.996 . S
Fe267 O284 1.997 . S
O268 Fe267 2.002 . S
O268 C285 1.295 . S
O269 Fe264 1.997 . S
O269 C285 1.235 . S
O270 Fe264 2.002 . S
O270 C271 1.295 . S
C271 O270 1.295 . S
C271 O273 1.235 . S
C272 O277 1.287 . S
C272 O278 1.255 . S
O273 Fe265 1.997 . S
O273 C271 1.235 . S
C274 O280 1.287 . S
C274 O281 1.255 . S
O275 Fe264 1.976 . S
O275 C282 1.287 . S
O276 Fe265 1.996 . S
O276 C282 1.255 . S
O277 Fe267 1.976 . S
O277 C272 1.287 . S
O278 Fe264 1.996 . S
O278 C272 1.255 . S
C279 O283 1.295 . S
C279 O284 1.235 . S
O280 Fe265 1.976 . S
O280 C274 1.287 . S
O281 Fe267 1.996 . S
O281 C274 1.255 . S
C282 O275 1.287 . S
C282 O276 1.255 . S
O283 Fe265 2.002 . S
O283 C279 1.295 . S
O284 Fe267 1.997 . S
O284 C279 1.235 . S
C285 O268 1.295 . S
C285 O269 1.235 . S
Fe286 O288 1.918 . S
Fe286 O291 1.997 . S
Fe286 O292 2.002 . S
Fe286 O297 1.976 . S
Fe286 O300 1.996 . S
Fe287 O288 1.918 . S
Fe287 O295 1.997 . S
Fe287 O298 1.996 . S
Fe287 O302 1.976 . S
Fe287 O305 2.002 . S
O288 Fe286 1.918 . S
O288 Fe287 1.918 . S
O288 Fe289 1.918 . S
Fe289 O288 1.918 . S
Fe289 O290 2.002 . S
Fe289 O299 1.976 . S
Fe289 O303 1.996 . S
Fe289 O306 1.997 . S
O290 Fe289 2.002 . S
O290 C307 1.295 . S
O291 Fe286 1.997 . S
O291 C307 1.235 . S
O292 Fe286 2.002 . S
O292 C293 1.295 . S
C293 O292 1.295 . S
C293 O295 1.235 . S
C294 O299 1.287 . S
C294 O300 1.255 . S
O295 Fe287 1.997 . S
O295 C293 1.235 . S
C296 O302 1.287 . S
C296 O303 1.255 . S
O297 Fe286 1.976 . S
O297 C304 1.287 . S
O298 Fe287 1.996 . S
O298 C304 1.255 . S
O299 Fe289 1.976 . S
O299 C294 1.287 . S
O300 Fe286 1.996 . S
O300 C294 1.255 . S
C301 O305 1.295 . S
C301 O306 1.235 . S
O302 Fe287 1.976 . S
O302 C296 1.287 . S
O303 Fe289 1.996 . S
O303 C296 1.255 . S
C304 O297 1.287 . S
C304 O298 1.255 . S
O305 Fe287 2.002 . S
O305 C301 1.295 . S
O306 Fe289 1.997 . S
O306 C301 1.235 . S
C307 O290 1.295 . S
C307 O291 1.235 . S
Fe308 O310 1.918 . S
Fe308 O313 1.997 . S
Fe308 O314 2.002 . S
Fe308 O319 1.976 . S
Fe308 O322 1.996 . S
Fe309 O310 1.918 . S
Fe309 O317 1.997 . S
Fe309 O320 1.996 . S
Fe309 O324 1.976 . S
Fe309 O327 2.002 . S
O310 Fe308 1.918 . S
O310 Fe309 1.918 . S
O310 Fe311 1.918 . S
Fe311 O310 1.918 . S
Fe311 O312 2.002 . S
Fe311 O321 1.976 . S
Fe311 O325 1.996 . S
Fe311 O328 1.997 . S
O312 Fe311 2.002 . S
O312 C329 1.295 . S
O313 Fe308 1.997 . S
O313 C329 1.235 . S
O314 Fe308 2.002 . S
O314 C315 1.295 . S
C315 O314 1.295 . S
C315 O317 1.235 . S
C316 O321 1.287 . S
C316 O322 1.255 . S
O317 Fe309 1.997 . S
O317 C315 1.235 . S
C318 O324 1.287 . S
C318 O325 1.255 . S
O319 Fe308 1.976 . S
O319 C326 1.287 . S
O320 Fe309 1.996 . S
O320 C326 1.255 . S
O321 Fe311 1.976 . S
O321 C316 1.287 . S
O322 Fe308 1.996 . S
O322 C316 1.255 . S
C323 O327 1.295 . S
C323 O328 1.235 . S
O324 Fe309 1.976 . S
O324 C318 1.287 . S
O325 Fe311 1.996 . S
O325 C318 1.255 . S
C326 O319 1.287 . S
C326 O320 1.255 . S
O327 Fe309 2.002 . S
O327 C323 1.295 . S
O328 Fe311 1.997 . S
O328 C323 1.235 . S
C329 O312 1.295 . S
C329 O313 1.235 . S
Fe330 O332 1.918 . S
Fe330 O335 1.997 . S
Fe330 O336 2.002 . S
Fe330 O341 1.976 . S
Fe330 O344 1.996 . S
Fe331 O332 1.918 . S
Fe331 O339 1.997 . S
Fe331 O342 1.996 . S
Fe331 O346 1.976 . S
Fe331 O349 2.002 . S
O332 Fe330 1.918 . S
O332 Fe331 1.918 . S
O332 Fe333 1.918 . S
Fe333 O332 1.918 . S
Fe333 O334 2.002 . S
Fe333 O343 1.976 . S
Fe333 O347 1.996 . S
Fe333 O350 1.997 . S
O334 Fe333 2.002 . S
O334 C351 1.295 . S
O335 Fe330 1.997 . S
O335 C351 1.235 . S
O336 Fe330 2.002 . S
O336 C337 1.295 . S
C337 O336 1.295 . S
C337 O339 1.235 . S
C338 O343 1.287 . S
C338 O344 1.255 . S
O339 Fe331 1.997 . S
O339 C337 1.235 . S
C340 O346 1.287 . S
C340 O347 1.255 . S
O341 Fe330 1.976 . S
O341 C348 1.287 . S
O342 Fe331 1.996 . S
O342 C348 1.255 . S
O343 Fe333 1.976 . S
O343 C338 1.287 . S
O344 Fe330 1.996 . S
O344 C338 1.255 . S
C345 O349 1.295 . S
C345 O350 1.235 . S
O346 Fe331 1.976 . S
O346 C340 1.287 . S
O347 Fe333 1.996 . S
O347 C340 1.255 . S
C348 O341 1.287 . S
C348 O342 1.255 . S
O349 Fe331 2.002 . S
O349 C345 1.295 . S
O350 Fe333 1.997 . S
O350 C345 1.235 . S
C351 O334 1.295 . S
C351 O335 1.235 . S
Fe352 O354 1.918 . S
Fe352 O357 1.997 . S
Fe352 O358 2.002 . S
Fe352 O363 1.976 . S
Fe352 O366 1.996 . S
Fe353 O354 1.918 . S
Fe353 O361 1.997 . S
Fe353 O364 1.996 . S
Fe353 O368 1.976 . S
Fe353 O371 2.002 . S
O354 Fe352 1.918 . S
O354 Fe353 1.918 . S
O354 Fe355 1.918 . S
Fe355 O354 1.918 . S
Fe355 O356 2.002 . S
Fe355 O365 1.976 . S
Fe355 O369 1.996 . S
Fe355 O372 1.997 . S
O356 Fe355 2.002 . S
O356 C373 1.295 . S
O357 Fe352 1.997 . S
O357 C373 1.235 . S
O358 Fe352 2.002 . S
O358 C359 1.295 . S
C359 O358 1.295 . S
C359 O361 1.235 . S
C360 O365 1.287 . S
C360 O366 1.255 . S
O361 Fe353 1.997 . S
O361 C359 1.235 . S
C362 O368 1.287 . S
C362 O369 1.255 . S
O363 Fe352 1.976 . S
O363 C370 1.287 . S
O364 Fe353 1.996 . S
O364 C370 1.255 . S
O365 Fe355 1.976 . S
O365 C360 1.287 . S
O366 Fe352 1.996 . S
O366 C360 1.255 . S
C367 O371 1.295 . S
C367 O372 1.235 . S
O368 Fe353 1.976 . S
O368 C362 1.287 . S
O369 Fe355 1.996 . S
O369 C362 1.255 . S
C370 O363 1.287 . S
C370 O364 1.255 . S
O371 Fe353 2.002 . S
O371 C367 1.295 . S
O372 Fe355 1.997 . S
O372 C367 1.235 . S
C373 O356 1.295 . S
C373 O357 1.235 . S
Fe374 O376 1.918 . S
Fe374 O379 1.997 . S
Fe374 O380 2.002 . S
Fe374 O385 1.976 . S
Fe374 O388 1.996 . S
Fe375 O376 1.918 . S
Fe375 O383 1.997 . S
Fe375 O386 1.996 . S
Fe375 O390 1.976 . S
Fe375 O393 2.002 . S
O376 Fe374 1.918 . S
O376 Fe375 1.918 . S
O376 Fe377 1.918 . S
Fe377 O376 1.918 . S
Fe377 O378 2.002 . S
Fe377 O387 1.976 . S
Fe377 O391 1.996 . S
Fe377 O394 1.997 . S
O378 Fe377 2.002 . S
O378 C395 1.295 . S
O379 Fe374 1.997 . S
O379 C395 1.235 . S
O380 Fe374 2.002 . S
O380 C381 1.295 . S
C381 O380 1.295 . S
C381 O383 1.235 . S
C382 O387 1.287 . S
C382 O388 1.255 . S
O383 Fe375 1.997 . S
O383 C381 1.235 . S
C384 O390 1.287 . S
C384 O391 1.255 . S
O385 Fe374 1.976 . S
O385 C392 1.287 . S
O386 Fe375 1.996 . S
O386 C392 1.255 . S
O387 Fe377 1.976 . S
O387 C382 1.287 . S
O388 Fe374 1.996 . S
O388 C382 1.255 . S
C389 O393 1.295 . S
C389 O394 1.235 . S
O390 Fe375 1.976 . S
O390 C384 1.287 . S
O391 Fe377 1.996 . S
O391 C384 1.255 . S
C392 O385 1.287 . S
C392 O386 1.255 . S
O393 Fe375 2.002 . S
O393 C389 1.295 . S
O394 Fe377 1.997 . S
O394 C389 1.235 . S
C395 O378 1.295 . S
C395 O379 1.235 . S
C396 C397 1.349 . S
C396 C398 1.327 . S
C396 H421 0.950 . S
C397 C396 1.349 . S
C397 C413 1.349 . S
C398 C396 1.327 . S
C398 C417 1.429 . S
C398 H422 0.950 . S
C399 C416 1.574 . S
C399 C418 1.368 . S
C399 H423 0.949 . S
H400 C404 0.949 . S
C401 C402 1.349 . S
C401 C403 1.327 . S
C401 H424 0.950 . S
C402 C401 1.349 . S
C402 C414 1.349 . S
C403 C401 1.327 . S
C403 C419 1.429 . S
C403 H425 0.950 . S
C404 H400 0.949 . S
C404 C412 1.574 . S
C404 C420 1.368 . S
H405 C413 0.950 . S
H406 C411 0.950 . S
H407 C412 0.949 . S
H408 C414 0.950 . S
H409 C415 0.950 . S
H410 C416 0.949 . S
C411 H406 0.950 . S
C411 C413 1.327 . S
C411 C417 1.429 . S
C412 C404 1.574 . S
C412 H407 0.949 . S
C412 C418 1.368 . S
C413 C397 1.349 . S
C413 H405 0.950 . S
C413 C411 1.327 . S
C414 C402 1.349 . S
C414 H408 0.950 . S
C414 C415 1.327 . S
C415 H409 0.950 . S
C415 C414 1.327 . S
C415 C419 1.429 . S
C416 C399 1.574 . S
C416 H410 0.949 . S
C416 C420 1.368 . S
C417 C398 1.429 . S
C417 C411 1.429 . S
C417 C418 1.523 . S
C418 C399 1.368 . S
C418 C412 1.368 . S
C418 C417 1.523 . S
C419 C403 1.429 . S
C419 C415 1.429 . S
C419 C420 1.523 . S
C420 C404 1.368 . S
C420 C416 1.368 . S
C420 C419 1.523 . S
H421 C396 0.950 . S
H422 C398 0.950 . S
H423 C399 0.949 . S
H424 C401 0.950 . S
H425 C403 0.950 . S
C426 C427 1.349 . S
C426 C428 1.327 . S
C426 H451 0.950 . S
C427 C426 1.349 . S
C427 C443 1.349 . S
C428 C426 1.327 . S
C428 C447 1.429 . S
C428 H452 0.950 . S
C429 C446 1.574 . S
C429 C448 1.368 . S
C429 H453 0.949 . S
H430 C434 0.949 . S
C431 C432 1.349 . S
C431 C433 1.327 . S
C431 H454 0.950 . S
C432 C431 1.349 . S
C432 C444 1.349 . S
C433 C431 1.327 . S
C433 C449 1.429 . S
C433 H455 0.950 . S
C434 H430 0.949 . S
C434 C442 1.574 . S
C434 C450 1.368 . S
H435 C443 0.950 . S
H436 C441 0.950 . S
H437 C442 0.949 . S
H438 C444 0.950 . S
H439 C445 0.950 . S
H440 C446 0.949 . S
C441 H436 0.950 . S
C441 C443 1.327 . S
C441 C447 1.429 . S
C442 C434 1.574 . S
C442 H437 0.949 . S
C442 C448 1.368 . S
C443 C427 1.349 . S
C443 H435 0.950 . S
C443 C441 1.327 . S
C444 C432 1.349 . S
C444 H438 0.950 . S
C444 C445 1.327 . S
C445 H439 0.950 . S
C445 C444 1.327 . S
C445 C449 1.429 . S
C446 C429 1.574 . S
C446 H440 0.949 . S
C446 C450 1.368 . S
C447 C428 1.429 . S
C447 C441 1.429 . S
C447 C448 1.523 . S
C448 C429 1.368 . S
C448 C442 1.368 . S
C448 C447 1.523 . S
C449 C433 1.429 . S
C449 C445 1.429 . S
C449 C450 1.523 . S
C450 C434 1.368 . S
C450 C446 1.368 . S
C450 C449 1.523 . S
H451 C426 0.950 . S
H452 C428 0.950 . S
H453 C429 0.949 . S
H454 C431 0.950 . S
H455 C433 0.950 . S
C456 C457 1.349 . S
C456 C458 1.327 . S
C456 H481 0.950 . S
C457 C456 1.349 . S
C457 C473 1.349 . S
C458 C456 1.327 . S
C458 C477 1.429 . S
C458 H482 0.950 . S
C459 C476 1.574 . S
C459 C478 1.368 . S
C459 H483 0.949 . S
H460 C464 0.949 . S
C461 C462 1.349 . S
C461 C463 1.327 . S
C461 H484 0.950 . S
C462 C461 1.349 . S
C462 C474 1.349 . S
C463 C461 1.327 . S
C463 C479 1.429 . S
C463 H485 0.950 . S
C464 H460 0.949 . S
C464 C472 1.574 . S
C464 C480 1.368 . S
H465 C473 0.950 . S
H466 C471 0.950 . S
H467 C472 0.949 . S
H468 C474 0.950 . S
H469 C475 0.950 . S
H470 C476 0.949 . S
C471 H466 0.950 . S
C471 C473 1.327 . S
C471 C477 1.429 . S
C472 C464 1.574 . S
C472 H467 0.949 . S
C472 C478 1.368 . S
C473 C457 1.349 . S
C473 H465 0.950 . S
C473 C471 1.327 . S
C474 C462 1.349 . S
C474 H468 0.950 . S
C474 C475 1.327 . S
C475 H469 0.950 . S
C475 C474 1.327 . S
C475 C479 1.429 . S
C476 C459 1.574 . S
C476 H470 0.949 . S
C476 C480 1.368 . S
C477 C458 1.429 . S
C477 C471 1.429 . S
C477 C478 1.523 . S
C478 C459 1.368 . S
C478 C472 1.368 . S
C478 C477 1.523 . S
C479 C463 1.429 . S
C479 C475 1.429 . S
C479 C480 1.523 . S
C480 C464 1.368 . S
C480 C476 1.368 . S
C480 C479 1.523 . S
H481 C456 0.950 . S
H482 C458 0.950 . S
H483 C459 0.949 . S
H484 C461 0.950 . S
H485 C463 0.950 . S
C486 C487 1.349 . S
C486 C488 1.327 . S
C486 H511 0.950 . S
C487 C486 1.349 . S
C487 C503 1.349 . S
C488 C486 1.327 . S
C488 C507 1.429 . S
C488 H512 0.950 . S
C489 C506 1.574 . S
C489 C508 1.368 . S
C489 H513 0.949 . S
H490 C494 0.949 . S
C491 C492 1.349 . S
C491 C493 1.327 . S
C491 H514 0.950 . S
C492 C491 1.349 . S
C492 C504 1.349 . S
C493 C491 1.327 . S
C493 C509 1.429 . S
C493 H515 0.950 . S
C494 H490 0.949 . S
C494 C502 1.574 . S
C494 C510 1.368 . S
H495 C503 0.950 . S
H496 C501 0.950 . S
H497 C502 0.949 . S
H498 C504 0.950 . S
H499 C505 0.950 . S
H500 C506 0.949 . S
C501 H496 0.950 . S
C501 C503 1.327 . S
C501 C507 1.429 . S
C502 C494 1.574 . S
C502 H497 0.949 . S
C502 C508 1.368 . S
C503 C487 1.349 . S
C503 H495 0.950 . S
C503 C501 1.327 . S
C504 C492 1.349 . S
C504 H498 0.950 . S
C504 C505 1.327 . S
C505 H499 0.950 . S
C505 C504 1.327 . S
C505 C509 1.429 . S
C506 C489 1.574 . S
C506 H500 0.949 . S
C506 C510 1.368 . S
C507 C488 1.429 . S
C507 C501 1.429 . S
C507 C508 1.523 . S
C508 C489 1.368 . S
C508 C502 1.368 . S
C508 C507 1.523 . S
C509 C493 1.429 . S
C509 C505 1.429 . S
C509 C510 1.523 . S
C510 C494 1.368 . S
C510 C506 1.368 . S
C510 C509 1.523 . S
H511 C486 0.950 . S
H512 C488 0.950 . S
H513 C489 0.949 . S
H514 C491 0.950 . S
H515 C493 0.950 . S
C516 C517 1.349 . S
C516 C518 1.327 . S
C516 H541 0.950 . S
C517 C516 1.349 . S
C517 C533 1.349 . S
C518 C516 1.327 . S
C518 C537 1.429 . S
C518 H542 0.950 . S
C519 C536 1.574 . S
C519 C538 1.368 . S
C519 H543 0.949 . S
H520 C524 0.949 . S
C521 C522 1.349 . S
C521 C523 1.327 . S
C521 H544 0.950 . S
C522 C521 1.349 . S
C522 C534 1.349 . S
C523 C521 1.327 . S
C523 C539 1.429 . S
C523 H545 0.950 . S
C524 H520 0.949 . S
C524 C532 1.574 . S
C524 C540 1.368 . S
H525 C533 0.950 . S
H526 C531 0.950 . S
H527 C532 0.949 . S
H528 C534 0.950 . S
H529 C535 0.950 . S
H530 C536 0.949 . S
C531 H526 0.950 . S
C531 C533 1.327 . S
C531 C537 1.429 . S
C532 C524 1.574 . S
C532 H527 0.949 . S
C532 C538 1.368 . S
C533 C517 1.349 . S
C533 H525 0.950 . S
C533 C531 1.327 . S
C534 C522 1.349 . S
C534 H528 0.950 . S
C534 C535 1.327 . S
C535 H529 0.950 . S
C535 C534 1.327 . S
C535 C539 1.429 . S
C536 C519 1.574 . S
C536 H530 0.949 . S
C536 C540 1.368 . S
C537 C518 1.429 . S
C537 C531 1.429 . S
C537 C538 1.523 . S
C538 C519 1.368 . S
C538 C532 1.368 . S
C538 C537 1.523 . S
C539 C523 1.429 . S
C539 C535 1.429 . S
C539 C540 1.523 . S
C540 C524 1.368 . S
C540 C536 1.368 . S
C540 C539 1.523 . S
H541 C516 0.950 . S
H542 C518 0.950 . S
H543 C519 0.949 . S
H544 C521 0.950 . S
H545 C523 0.950 . S
C546 C547 1.349 . S
C546 C548 1.327 . S
C546 H571 0.950 . S
C547 C546 1.349 . S
C547 C563 1.349 . S
C548 C546 1.327 . S
C548 C567 1.429 . S
C548 H572 0.950 . S
C549 C566 1.574 . S
C549 C568 1.368 . S
C549 H573 0.949 . S
H550 C554 0.949 . S
C551 C552 1.349 . S
C551 C553 1.327 . S
C551 H574 0.950 . S
C552 C551 1.349 . S
C552 C564 1.349 . S
C553 C551 1.327 . S
C553 C569 1.429 . S
C553 H575 0.950 . S
C554 H550 0.949 . S
C554 C562 1.574 . S
C554 C570 1.368 . S
H555 C563 0.950 . S
H556 C561 0.950 . S
H557 C562 0.949 . S
H558 C564 0.950 . S
H559 C565 0.950 . S
H560 C566 0.949 . S
C561 H556 0.950 . S
C561 C563 1.327 . S
C561 C567 1.429 . S
C562 C554 1.574 . S
C562 H557 0.949 . S
C562 C568 1.368 . S
C563 C547 1.349 . S
C563 H555 0.950 . S
C563 C561 1.327 . S
C564 C552 1.349 . S
C564 H558 0.950 . S
C564 C565 1.327 . S
C565 H559 0.950 . S
C565 C564 1.327 . S
C565 C569 1.429 . S
C566 C549 1.574 . S
C566 H560 0.949 . S
C566 C570 1.368 . S
C567 C548 1.429 . S
C567 C561 1.429 . S
C567 C568 1.523 . S
C568 C549 1.368 . S
C568 C562 1.368 . S
C568 C567 1.523 . S
C569 C553 1.429 . S
C569 C565 1.429 . S
C569 C570 1.523 . S
C570 C554 1.368 . S
C570 C566 1.368 . S
C570 C569 1.523 . S
H571 C546 0.950 . S
H572 C548 0.950 . S
H573 C549 0.949 . S
H574 C551 0.950 . S
H575 C553 0.950 . S
C576 C577 1.349 . S
C576 C578 1.327 . S
C576 H601 0.950 . S
C577 C576 1.349 . S
C577 C593 1.349 . S
C578 C576 1.327 . S
C578 C597 1.429 1_545 S
C578 H602 0.950 . S
C579 C596 1.574 . S
C579 C598 1.368 . S
C579 H603 0.949 . S
H580 C584 0.949 . S
C581 C582 1.349 . S
C581 C583 1.327 . S
C581 H604 0.950 . S
C582 C581 1.349 . S
C582 C594 1.349 . S
C583 C581 1.327 . S
C583 C599 1.429 . S
C583 H605 0.950 . S
C584 H580 0.949 . S
C584 C592 1.574 . S
C584 C600 1.368 . S
H585 C593 0.950 . S
H586 C591 0.950 . S
H587 C592 0.949 . S
H588 C594 0.950 . S
H589 C595 0.950 . S
H590 C596 0.949 . S
C591 H586 0.950 . S
C591 C593 1.327 1_565 S
C591 C597 1.429 . S
C592 C584 1.574 . S
C592 H587 0.949 . S
C592 C598 1.368 . S
C593 C577 1.349 . S
C593 H585 0.950 . S
C593 C591 1.327 1_545 S
C594 C582 1.349 . S
C594 H588 0.950 . S
C594 C595 1.327 . S
C595 H589 0.950 . S
C595 C594 1.327 . S
C595 C599 1.429 . S
C596 C579 1.574 . S
C596 H590 0.949 . S
C596 C600 1.368 . S
C597 C578 1.429 1_565 S
C597 C591 1.429 . S
C597 C598 1.523 . S
C598 C579 1.368 . S
C598 C592 1.368 . S
C598 C597 1.523 . S
C599 C583 1.429 . S
C599 C595 1.429 . S
C599 C600 1.523 . S
C600 C584 1.368 . S
C600 C596 1.368 . S
C600 C599 1.523 . S
H601 C576 0.950 . S
H602 C578 0.950 . S
H603 C579 0.949 . S
H604 C581 0.950 . S
H605 C583 0.950 . S
C606 C607 1.349 . S
C606 C608 1.327 . S
C606 H631 0.950 . S
C607 C606 1.349 . S
C607 C623 1.349 . S
C608 C606 1.327 . S
C608 C627 1.429 1_655 S
C608 H632 0.950 . S
C609 C626 1.574 . S
C609 C628 1.368 . S
C609 H633 0.949 . S
H610 C614 0.949 . S
C611 C612 1.349 . S
C611 C613 1.327 1_545 S
C611 H634 0.950 . S
C612 C611 1.349 . S
C612 C624 1.349 . S
C613 C611 1.327 1_565 S
C613 C629 1.429 . S
C613 H635 0.950 . S
C614 H610 0.949 . S
C614 C622 1.574 . S
C614 C630 1.368 . S
H615 C623 0.950 . S
H616 C621 0.950 . S
H617 C622 0.949 . S
H618 C624 0.950 . S
H619 C625 0.950 . S
H620 C626 0.949 . S
C621 H616 0.950 . S
C621 C623 1.327 1_455 S
C621 C627 1.429 . S
C622 C614 1.574 . S
C622 H617 0.949 . S
C622 C628 1.368 . S
C623 C607 1.349 . S
C623 H615 0.950 . S
C623 C621 1.327 1_655 S
C624 C612 1.349 . S
C624 H618 0.950 . S
C624 C625 1.327 . S
C625 H619 0.950 . S
C625 C624 1.327 . S
C625 C629 1.429 1_545 S
C626 C609 1.574 . S
C626 H620 0.949 . S
C626 C630 1.368 . S
C627 C608 1.429 1_455 S
C627 C621 1.429 . S
C627 C628 1.523 . S
C628 C609 1.368 . S
C628 C622 1.368 . S
C628 C627 1.523 . S
C629 C613 1.429 . S
C629 C625 1.429 1_565 S
C629 C630 1.523 . S
C630 C614 1.368 . S
C630 C626 1.368 . S
C630 C629 1.523 . S
H631 C606 0.950 . S
H632 C608 0.950 . S
H633 C609 0.949 . S
H634 C611 0.950 . S
H635 C613 0.950 . S
C636 C637 1.349 . S
C636 C638 1.327 . S
C636 H661 0.950 . S
C637 C636 1.349 . S
C637 C653 1.349 . S
C638 C636 1.327 . S
C638 C657 1.429 . S
C638 H662 0.950 . S
C639 C656 1.574 . S
C639 C658 1.368 . S
C639 H663 0.949 . S
H640 C644 0.949 . S
C641 C642 1.349 . S
C641 C643 1.327 1_655 S
C641 H664 0.950 . S
C642 C641 1.349 . S
C642 C654 1.349 . S
C643 C641 1.327 1_455 S
C643 C659 1.429 . S
C643 H665 0.950 . S
C644 H640 0.949 . S
C644 C652 1.574 . S
C644 C660 1.368 . S
H645 C653 0.950 . S
H646 C651 0.950 . S
H647 C652 0.949 . S
H648 C654 0.950 . S
H649 C655 0.950 . S
H650 C656 0.949 . S
C651 H646 0.950 . S
C651 C653 1.327 . S
C651 C657 1.429 . S
C652 C644 1.574 . S
C652 H647 0.949 . S
C652 C658 1.368 . S
C653 C637 1.349 . S
C653 H645 0.950 . S
C653 C651 1.327 . S
C654 C642 1.349 . S
C654 H648 0.950 . S
C654 C655 1.327 . S
C655 H649 0.950 . S
C655 C654 1.327 . S
C655 C659 1.429 1_655 S
C656 C639 1.574 . S
C656 H650 0.949 . S
C656 C660 1.368 . S
C657 C638 1.429 . S
C657 C651 1.429 . S
C657 C658 1.523 . S
C658 C639 1.368 . S
C658 C652 1.368 . S
C658 C657 1.523 . S
C659 C643 1.429 . S
C659 C655 1.429 1_455 S
C659 C660 1.523 . S
C660 C644 1.368 . S
C660 C656 1.368 . S
C660 C659 1.523 . S
H661 C636 0.950 . S
H662 C638 0.950 . S
H663 C639 0.949 . S
H664 C641 0.950 . S
H665 C643 0.950 . S
C666 C667 1.349 . S
C666 C668 1.327 . S
C666 H691 0.950 . S
C667 C666 1.349 . S
C667 C683 1.349 . S
C668 C666 1.327 . S
C668 C687 1.429 . S
C668 H692 0.950 . S
C669 C686 1.574 . S
C669 C688 1.368 . S
C669 H693 0.949 . S
H670 C674 0.949 . S
C671 C672 1.349 . S
C671 C673 1.327 . S
C671 H694 0.950 . S
C672 C671 1.349 . S
C672 C684 1.349 . S
C673 C671 1.327 . S
C673 C689 1.429 . S
C673 H695 0.950 . S
C674 H670 0.949 . S
C674 C682 1.574 . S
C674 C690 1.368 . S
H675 C683 0.950 . S
H676 C681 0.950 . S
H677 C682 0.949 . S
H678 C684 0.950 . S
H679 C685 0.950 . S
H680 C686 0.949 . S
C681 H676 0.950 . S
C681 C683 1.327 . S
C681 C687 1.429 . S
C682 C674 1.574 . S
C682 H677 0.949 . S
C682 C688 1.368 . S
C683 C667 1.349 . S
C683 H675 0.950 . S
C683 C681 1.327 . S
C684 C672 1.349 . S
C684 H678 0.950 . S
C684 C685 1.327 . S
C685 H679 0.950 . S
C685 C684 1.327 . S
C685 C689 1.429 . S
C686 C669 1.574 . S
C686 H680 0.949 . S
C686 C690 1.368 . S
C687 C668 1.429 . S
C687 C681 1.429 . S
C687 C688 1.523 . S
C688 C669 1.368 . S
C688 C682 1.368 . S
C688 C687 1.523 . S
C689 C673 1.429 . S
C689 C685 1.429 . S
C689 C690 1.523 . S
C690 C674 1.368 . S
C690 C686 1.368 . S
C690 C689 1.523 . S
H691 C666 0.950 . S
H692 C668 0.950 . S
H693 C669 0.949 . S
H694 C671 0.950 . S
H695 C673 0.950 . S
C696 C697 1.349 . S
C696 C698 1.327 . S
C696 H721 0.950 . S
C697 C696 1.349 . S
C697 C713 1.349 . S
C698 C696 1.327 . S
C698 C717 1.429 . S
C698 H722 0.950 . S
C699 C716 1.574 . S
C699 C718 1.368 . S
C699 H723 0.949 . S
H700 C704 0.949 . S
C701 C702 1.349 . S
C701 C703 1.327 . S
C701 H724 0.950 . S
C702 C701 1.349 . S
C702 C714 1.349 . S
C703 C701 1.327 . S
C703 C719 1.429 . S
C703 H725 0.950 . S
C704 H700 0.949 . S
C704 C712 1.574 . S
C704 C720 1.368 . S
H705 C713 0.950 . S
H706 C711 0.950 . S
H707 C712 0.949 . S
H708 C714 0.950 . S
H709 C715 0.950 . S
H710 C716 0.949 . S
C711 H706 0.950 . S
C711 C713 1.327 . S
C711 C717 1.429 . S
C712 C704 1.574 . S
C712 H707 0.949 . S
C712 C718 1.368 . S
C713 C697 1.349 . S
C713 H705 0.950 . S
C713 C711 1.327 . S
C714 C702 1.349 . S
C714 H708 0.950 . S
C714 C715 1.327 . S
C715 H709 0.950 . S
C715 C714 1.327 . S
C715 C719 1.429 . S
C716 C699 1.574 . S
C716 H710 0.949 . S
C716 C720 1.368 . S
C717 C698 1.429 . S
C717 C711 1.429 . S
C717 C718 1.523 . S
C718 C699 1.368 . S
C718 C712 1.368 . S
C718 C717 1.523 . S
C719 C703 1.429 . S
C719 C715 1.429 . S
C719 C720 1.523 . S
C720 C704 1.368 . S
C720 C716 1.368 . S
C720 C719 1.523 . S
H721 C696 0.950 . S
H722 C698 0.950 . S
H723 C699 0.949 . S
H724 C701 0.950 . S
H725 C703 0.950 . S
C726 C727 1.349 . S
C726 C728 1.327 . S
C726 H751 0.950 . S
C727 C726 1.349 . S
C727 C743 1.349 . S
C728 C726 1.327 . S
C728 C747 1.429 . S
C728 H752 0.950 . S
C729 C746 1.574 . S
C729 C748 1.368 . S
C729 H753 0.949 . S
H730 C734 0.949 . S
C731 C732 1.349 . S
C731 C733 1.327 . S
C731 H754 0.950 . S
C732 C731 1.349 . S
C732 C744 1.349 . S
C733 C731 1.327 . S
C733 C749 1.429 . S
C733 H755 0.950 . S
C734 H730 0.949 . S
C734 C742 1.574 . S
C734 C750 1.368 . S
H735 C743 0.950 . S
H736 C741 0.950 . S
H737 C742 0.949 . S
H738 C744 0.950 . S
H739 C745 0.950 . S
H740 C746 0.949 . S
C741 H736 0.950 . S
C741 C743 1.327 . S
C741 C747 1.429 . S
C742 C734 1.574 . S
C742 H737 0.949 . S
C742 C748 1.368 . S
C743 C727 1.349 . S
C743 H735 0.950 . S
C743 C741 1.327 . S
C744 C732 1.349 . S
C744 H738 0.950 . S
C744 C745 1.327 . S
C745 H739 0.950 . S
C745 C744 1.327 . S
C745 C749 1.429 . S
C746 C729 1.574 . S
C746 H740 0.949 . S
C746 C750 1.368 . S
C747 C728 1.429 . S
C747 C741 1.429 . S
C747 C748 1.523 . S
C748 C729 1.368 . S
C748 C742 1.368 . S
C748 C747 1.523 . S
C749 C733 1.429 . S
C749 C745 1.429 . S
C749 C750 1.523 . S
C750 C734 1.368 . S
C750 C746 1.368 . S
C750 C749 1.523 . S
H751 C726 0.950 . S
H752 C728 0.950 . S
H753 C729 0.949 . S
H754 C731 0.950 . S
H755 C733 0.950 . S
C756 C757 1.349 . S
C756 C758 1.327 . S
C756 H781 0.950 . S
C757 C756 1.349 . S
C757 C773 1.349 . S
C758 C756 1.327 . S
C758 C777 1.429 . S
C758 H782 0.950 . S
C759 C776 1.574 . S
C759 C778 1.368 . S
C759 H783 0.949 . S
H760 C764 0.949 . S
C761 C762 1.349 . S
C761 C763 1.327 . S
C761 H784 0.950 . S
C762 C761 1.349 . S
C762 C774 1.349 . S
C763 C761 1.327 . S
C763 C779 1.429 . S
C763 H785 0.950 . S
C764 H760 0.949 . S
C764 C772 1.574 . S
C764 C780 1.368 . S
H765 C773 0.950 . S
H766 C771 0.950 . S
H767 C772 0.949 . S
H768 C774 0.950 . S
H769 C775 0.950 . S
H770 C776 0.949 . S
C771 H766 0.950 . S
C771 C773 1.327 . S
C771 C777 1.429 . S
C772 C764 1.574 . S
C772 H767 0.949 . S
C772 C778 1.368 . S
C773 C757 1.349 . S
C773 H765 0.950 . S
C773 C771 1.327 . S
C774 C762 1.349 . S
C774 H768 0.950 . S
C774 C775 1.327 . S
C775 H769 0.950 . S
C775 C774 1.327 . S
C775 C779 1.429 . S
C776 C759 1.574 . S
C776 H770 0.949 . S
C776 C780 1.368 . S
C777 C758 1.429 . S
C777 C771 1.429 . S
C777 C778 1.523 . S
C778 C759 1.368 . S
C778 C772 1.368 . S
C778 C777 1.523 . S
C779 C763 1.429 . S
C779 C775 1.429 . S
C779 C780 1.523 . S
C780 C764 1.368 . S
C780 C776 1.368 . S
C780 C779 1.523 . S
H781 C756 0.950 . S
H782 C758 0.950 . S
H783 C759 0.949 . S
H784 C761 0.950 . S
H785 C763 0.950 . S
C786 C787 1.349 . S
C786 C788 1.327 . S
C786 H811 0.950 . S
C787 C786 1.349 . S
C787 C803 1.349 . S
C788 C786 1.327 . S
C788 C807 1.429 . S
C788 H812 0.950 . S
C789 C806 1.574 . S
C789 C808 1.368 . S
C789 H813 0.949 . S
H790 C794 0.949 . S
C791 C792 1.349 . S
C791 C793 1.327 . S
C791 H814 0.950 . S
C792 C791 1.349 . S
C792 C804 1.349 . S
C793 C791 1.327 . S
C793 C809 1.429 . S
C793 H815 0.950 . S
C794 H790 0.949 . S
C794 C802 1.574 . S
C794 C810 1.368 . S
H795 C803 0.950 . S
H796 C801 0.950 . S
H797 C802 0.949 . S
H798 C804 0.950 . S
H799 C805 0.950 . S
H800 C806 0.949 . S
C801 H796 0.950 . S
C801 C803 1.327 . S
C801 C807 1.429 . S
C802 C794 1.574 . S
C802 H797 0.949 . S
C802 C808 1.368 . S
C803 C787 1.349 . S
C803 H795 0.950 . S
C803 C801 1.327 . S
C804 C792 1.349 . S
C804 H798 0.950 . S
C804 C805 1.327 . S
C805 H799 0.950 . S
C805 C804 1.327 . S
C805 C809 1.429 . S
C806 C789 1.574 . S
C806 H800 0.949 . S
C806 C810 1.368 . S
C807 C788 1.429 . S
C807 C801 1.429 . S
C807 C808 1.523 . S
C808 C789 1.368 . S
C808 C802 1.368 . S
C808 C807 1.523 . S
C809 C793 1.429 . S
C809 C805 1.429 . S
C809 C810 1.523 . S
C810 C794 1.368 . S
C810 C806 1.368 . S
C810 C809 1.523 . S
H811 C786 0.950 . S
H812 C788 0.950 . S
H813 C789 0.949 . S
H814 C791 0.950 . S
H815 C793 0.950 . S
C816 C817 1.349 . S
C816 C818 1.327 . S
C816 H841 0.950 . S
C817 C816 1.349 . S
C817 C833 1.349 . S
C818 C816 1.327 . S
C818 C837 1.429 . S
C818 H842 0.950 . S
C819 C836 1.574 . S
C819 C838 1.368 . S
C819 H843 0.949 . S
H820 C824 0.949 . S
C821 C822 1.349 . S
C821 C823 1.327 . S
C821 H844 0.950 . S
C822 C821 1.349 . S
C822 C834 1.349 . S
C823 C821 1.327 . S
C823 C839 1.429 . S
C823 H845 0.950 . S
C824 H820 0.949 . S
C824 C832 1.574 . S
C824 C840 1.368 . S
H825 C833 0.950 . S
H826 C831 0.950 . S
H827 C832 0.949 . S
H828 C834 0.950 . S
H829 C835 0.950 . S
H830 C836 0.949 . S
C831 H826 0.950 . S
C831 C833 1.327 . S
C831 C837 1.429 . S
C832 C824 1.574 . S
C832 H827 0.949 . S
C832 C838 1.368 . S
C833 C817 1.349 . S
C833 H825 0.950 . S
C833 C831 1.327 . S
C834 C822 1.349 . S
C834 H828 0.950 . S
C834 C835 1.327 . S
C835 H829 0.950 . S
C835 C834 1.327 . S
C835 C839 1.429 . S
C836 C819 1.574 . S
C836 H830 0.949 . S
C836 C840 1.368 . S
C837 C818 1.429 . S
C837 C831 1.429 . S
C837 C838 1.523 . S
C838 C819 1.368 . S
C838 C832 1.368 . S
C838 C837 1.523 . S
C839 C823 1.429 . S
C839 C835 1.429 . S
C839 C840 1.523 . S
C840 C824 1.368 . S
C840 C836 1.368 . S
C840 C839 1.523 . S
H841 C816 0.950 . S
H842 C818 0.950 . S
H843 C819 0.949 . S
H844 C821 0.950 . S
H845 C823 0.950 . S
C846 C847 1.349 . S
C846 C848 1.327 . S
C846 H871 0.950 . S
C847 C846 1.349 . S
C847 C863 1.349 . S
C848 C846 1.327 . S
C848 C867 1.429 1_455 S
C848 H872 0.950 . S
C849 C866 1.574 . S
C849 C868 1.368 . S
C849 H873 0.949 . S
H850 C854 0.949 . S
C851 C852 1.349 . S
C851 C853 1.327 . S
C851 H874 0.950 . S
C852 C851 1.349 . S
C852 C864 1.349 . S
C853 C851 1.327 . S
C853 C869 1.429 . S
C853 H875 0.950 . S
C854 H850 0.949 . S
C854 C862 1.574 . S
C854 C870 1.368 . S
H855 C863 0.950 . S
H856 C861 0.950 . S
H857 C862 0.949 . S
H858 C864 0.950 . S
H859 C865 0.950 . S
H860 C866 0.949 . S
C861 H856 0.950 . S
C861 C863 1.327 1_655 S
C861 C867 1.429 . S
C862 C854 1.574 . S
C862 H857 0.949 . S
C862 C868 1.368 . S
C863 C847 1.349 . S
C863 H855 0.950 . S
C863 C861 1.327 1_455 S
C864 C852 1.349 . S
C864 H858 0.950 . S
C864 C865 1.327 . S
C865 H859 0.950 . S
C865 C864 1.327 . S
C865 C869 1.429 . S
C866 C849 1.574 . S
C866 H860 0.949 . S
C866 C870 1.368 . S
C867 C848 1.429 1_655 S
C867 C861 1.429 . S
C867 C868 1.523 . S
C868 C849 1.368 . S
C868 C862 1.368 . S
C868 C867 1.523 . S
C869 C853 1.429 . S
C869 C865 1.429 . S
C869 C870 1.523 . S
C870 C854 1.368 . S
C870 C866 1.368 . S
C870 C869 1.523 . S
H871 C846 0.950 . S
H872 C848 0.950 . S
H873 C849 0.949 . S
H874 C851 0.950 . S
H875 C853 0.950 . S
C876 C877 1.349 . S
C876 C878 1.327 . S
C876 H901 0.950 . S
C877 C876 1.349 . S
C877 C893 1.349 . S
C878 C876 1.327 . S
C878 C897 1.429 . S
C878 H902 0.950 . S
C879 C896 1.574 . S
C879 C898 1.368 . S
C879 H903 0.949 . S
H880 C884 0.949 . S
C881 C882 1.349 . S
C881 C883 1.327 1_565 S
C881 H904 0.950 . S
C882 C881 1.349 . S
C882 C894 1.349 . S
C883 C881 1.327 1_545 S
C883 C899 1.429 . S
C883 H905 0.950 . S
C884 H880 0.949 . S
C884 C892 1.574 . S
C884 C900 1.368 . S
H885 C893 0.950 . S
H886 C891 0.950 . S
H887 C892 0.949 . S
H888 C894 0.950 . S
H889 C895 0.950 . S
H890 C896 0.949 . S
C891 H886 0.950 . S
C891 C893 1.327 . S
C891 C897 1.429 . S
C892 C884 1.574 . S
C892 H887 0.949 . S
C892 C898 1.368 . S
C893 C877 1.349 . S
C893 H885 0.950 . S
C893 C891 1.327 . S
C894 C882 1.349 . S
C894 H888 0.950 . S
C894 C895 1.327 . S
C895 H889 0.950 . S
C895 C894 1.327 . S
C895 C899 1.429 1_565 S
C896 C879 1.574 . S
C896 H890 0.949 . S
C896 C900 1.368 . S
C897 C878 1.429 . S
C897 C891 1.429 . S
C897 C898 1.523 . S
C898 C879 1.368 . S
C898 C892 1.368 . S
C898 C897 1.523 . S
C899 C883 1.429 . S
C899 C895 1.429 1_545 S
C899 C900 1.523 . S
C900 C884 1.368 . S
C900 C896 1.368 . S
C900 C899 1.523 . S
H901 C876 0.950 . S
H902 C878 0.950 . S
H903 C879 0.949 . S
H904 C881 0.950 . S
H905 C883 0.950 . S
C906 C907 1.349 . S
C906 C908 1.327 1_455 S
C906 H931 0.950 . S
C907 C906 1.349 . S
C907 C923 1.349 . S
C908 C906 1.327 1_655 S
C908 C927 1.429 . S
C908 H932 0.950 . S
C909 C926 1.574 . S
C909 C928 1.368 . S
C909 H933 0.949 . S
H910 C914 0.949 . S
C911 C912 1.349 . S
C911 C913 1.327 . S
C911 H934 0.950 . S
C912 C911 1.349 . S
C912 C924 1.349 . S
C913 C911 1.327 . S
C913 C929 1.429 1_565 S
C913 H935 0.950 . S
C914 H910 0.949 . S
C914 C922 1.574 . S
C914 C930 1.368 . S
H915 C923 0.950 . S
H916 C921 0.950 . S
H917 C922 0.949 . S
H918 C924 0.950 . S
H919 C925 0.950 . S
H920 C926 0.949 . S
C921 H916 0.950 . S
C921 C923 1.327 . S
C921 C927 1.429 1_455 S
C922 C914 1.574 . S
C922 H917 0.949 . S
C922 C928 1.368 . S
C923 C907 1.349 . S
C923 H915 0.950 . S
C923 C921 1.327 . S
C924 C912 1.349 . S
C924 H918 0.950 . S
C924 C925 1.327 1_565 S
C925 H919 0.950 . S
C925 C924 1.327 1_545 S
C925 C929 1.429 . S
C926 C909 1.574 . S
C926 H920 0.949 . S
C926 C930 1.368 . S
C927 C908 1.429 . S
C927 C921 1.429 1_655 S
C927 C928 1.523 . S
C928 C909 1.368 . S
C928 C922 1.368 . S
C928 C927 1.523 . S
C929 C913 1.429 1_545 S
C929 C925 1.429 . S
C929 C930 1.523 . S
C930 C914 1.368 . S
C930 C926 1.368 . S
C930 C929 1.523 . S
H931 C906 0.950 . S
H932 C908 0.950 . S
H933 C909 0.949 . S
H934 C911 0.950 . S
H935 C913 0.950 . S
C936 C937 1.349 . S
C936 C938 1.327 . S
C936 H961 0.950 . S
C937 C936 1.349 . S
C937 C953 1.349 . S
C938 C936 1.327 . S
C938 C957 1.429 . S
C938 H962 0.950 . S
C939 C956 1.574 . S
C939 C958 1.368 . S
C939 H963 0.949 . S
H940 C944 0.949 . S
C941 C942 1.349 . S
C941 C943 1.327 . S
C941 H964 0.950 . S
C942 C941 1.349 . S
C942 C954 1.349 . S
C943 C941 1.327 . S
C943 C959 1.429 . S
C943 H965 0.950 . S
C944 H940 0.949 . S
C944 C952 1.574 . S
C944 C960 1.368 . S
H945 C953 0.950 . S
H946 C951 0.950 . S
H947 C952 0.949 . S
H948 C954 0.950 . S
H949 C955 0.950 . S
H950 C956 0.949 . S
C951 H946 0.950 . S
C951 C953 1.327 . S
C951 C957 1.429 . S
C952 C944 1.574 . S
C952 H947 0.949 . S
C952 C958 1.368 . S
C953 C937 1.349 . S
C953 H945 0.950 . S
C953 C951 1.327 . S
C954 C942 1.349 . S
C954 H948 0.950 . S
C954 C955 1.327 . S
C955 H949 0.950 . S
C955 C954 1.327 . S
C955 C959 1.429 . S
C956 C939 1.574 . S
C956 H950 0.949 . S
C956 C960 1.368 . S
C957 C938 1.429 . S
C957 C951 1.429 . S
C957 C958 1.523 . S
C958 C939 1.368 . S
C958 C952 1.368 . S
C958 C957 1.523 . S
C959 C943 1.429 . S
C959 C955 1.429 . S
C959 C960 1.523 . S
C960 C944 1.368 . S
C960 C956 1.368 . S
C960 C959 1.523 . S
H961 C936 0.950 . S
H962 C938 0.950 . S
H963 C939 0.949 . S
H964 C941 0.950 . S
H965 C943 0.950 . S
C966 C967 1.349 . S
C966 C968 1.327 . S
C966 H991 0.950 . S
C967 C966 1.349 . S
C967 C983 1.349 . S
C968 C966 1.327 . S
C968 C987 1.429 . S
C968 H992 0.950 . S
C969 C986 1.574 . S
C969 C988 1.368 . S
C969 H993 0.949 . S
H970 C974 0.949 . S
C971 C972 1.349 . S
C971 C973 1.327 . S
C971 H994 0.950 . S
C972 C971 1.349 . S
C972 C984 1.349 . S
C973 C971 1.327 . S
C973 C989 1.429 . S
C973 H995 0.950 . S
C974 H970 0.949 . S
C974 C982 1.574 . S
C974 C990 1.368 . S
H975 C983 0.950 . S
H976 C981 0.950 . S
H977 C982 0.949 . S
H978 C984 0.950 . S
H979 C985 0.950 . S
H980 C986 0.949 . S
C981 H976 0.950 . S
C981 C983 1.327 . S
C981 C987 1.429 . S
C982 C974 1.574 . S
C982 H977 0.949 . S
C982 C988 1.368 . S
C983 C967 1.349 . S
C983 H975 0.950 . S
C983 C981 1.327 . S
C984 C972 1.349 . S
C984 H978 0.950 . S
C984 C985 1.327 . S
C985 H979 0.950 . S
C985 C984 1.327 . S
C985 C989 1.429 . S
C986 C969 1.574 . S
C986 H980 0.949 . S
C986 C990 1.368 . S
C987 C968 1.429 . S
C987 C981 1.429 . S
C987 C988 1.523 . S
C988 C969 1.368 . S
C988 C982 1.368 . S
C988 C987 1.523 . S
C989 C973 1.429 . S
C989 C985 1.429 . S
C989 C990 1.523 . S
C990 C974 1.368 . S
C990 C986 1.368 . S
C990 C989 1.523 . S
H991 C966 0.950 . S
H992 C968 0.950 . S
H993 C969 0.949 . S
H994 C971 0.950 . S
H995 C973 0.950 . S
C996 C997 1.349 . S
C996 C998 1.327 . S
C996 H1021 0.950 . S
C997 C996 1.349 . S
C997 C1013 1.349 . S
C998 C996 1.327 . S
C998 C1017 1.429 . S
C998 H1022 0.950 . S
C999 C1016 1.574 . S
C999 C1018 1.368 . S
C999 H1023 0.949 . S
H1000 C1004 0.949 . S
C1001 C1002 1.349 . S
C1001 C1003 1.327 . S
C1001 H1024 0.950 . S
C1002 C1001 1.349 . S
C1002 C1014 1.349 . S
C1003 C1001 1.327 . S
C1003 C1019 1.429 . S
C1003 H1025 0.950 . S
C1004 H1000 0.949 . S
C1004 C1012 1.574 . S
C1004 C1020 1.368 . S
H1005 C1013 0.950 . S
H1006 C1011 0.950 . S
H1007 C1012 0.949 . S
H1008 C1014 0.950 . S
H1009 C1015 0.950 . S
H1010 C1016 0.949 . S
C1011 H1006 0.950 . S
C1011 C1013 1.327 . S
C1011 C1017 1.429 . S
C1012 C1004 1.574 . S
C1012 H1007 0.949 . S
C1012 C1018 1.368 . S
C1013 C997 1.349 . S
C1013 H1005 0.950 . S
C1013 C1011 1.327 . S
C1014 C1002 1.349 . S
C1014 H1008 0.950 . S
C1014 C1015 1.327 . S
C1015 H1009 0.950 . S
C1015 C1014 1.327 . S
C1015 C1019 1.429 . S
C1016 C999 1.574 . S
C1016 H1010 0.949 . S
C1016 C1020 1.368 . S
C1017 C998 1.429 . S
C1017 C1011 1.429 . S
C1017 C1018 1.523 . S
C1018 C999 1.368 . S
C1018 C1012 1.368 . S
C1018 C1017 1.523 . S
C1019 C1003 1.429 . S
C1019 C1015 1.429 . S
C1019 C1020 1.523 . S
C1020 C1004 1.368 . S
C1020 C1016 1.368 . S
C1020 C1019 1.523 . S
H1021 C996 0.950 . S
H1022 C998 0.950 . S
H1023 C999 0.949 . S
H1024 C1001 0.950 . S
H1025 C1003 0.950 . S
C1026 C1027 1.349 . S
C1026 C1028 1.327 . S
C1026 H1051 0.950 . S
C1027 C1026 1.349 . S
C1027 C1043 1.349 . S
C1028 C1026 1.327 . S
C1028 C1047 1.429 . S
C1028 H1052 0.950 . S
C1029 C1046 1.574 . S
C1029 C1048 1.368 . S
C1029 H1053 0.949 . S
H1030 C1034 0.949 . S
C1031 C1032 1.349 . S
C1031 C1033 1.327 . S
C1031 H1054 0.950 . S
C1032 C1031 1.349 . S
C1032 C1044 1.349 . S
C1033 C1031 1.327 . S
C1033 C1049 1.429 . S
C1033 H1055 0.950 . S
C1034 H1030 0.949 . S
C1034 C1042 1.574 . S
C1034 C1050 1.368 . S
H1035 C1043 0.950 . S
H1036 C1041 0.950 . S
H1037 C1042 0.949 . S
H1038 C1044 0.950 . S
H1039 C1045 0.950 . S
H1040 C1046 0.949 . S
C1041 H1036 0.950 . S
C1041 C1043 1.327 . S
C1041 C1047 1.429 . S
C1042 C1034 1.574 . S
C1042 H1037 0.949 . S
C1042 C1048 1.368 . S
C1043 C1027 1.349 . S
C1043 H1035 0.950 . S
C1043 C1041 1.327 . S
C1044 C1032 1.349 . S
C1044 H1038 0.950 . S
C1044 C1045 1.327 . S
C1045 H1039 0.950 . S
C1045 C1044 1.327 . S
C1045 C1049 1.429 . S
C1046 C1029 1.574 . S
C1046 H1040 0.949 . S
C1046 C1050 1.368 . S
C1047 C1028 1.429 . S
C1047 C1041 1.429 . S
C1047 C1048 1.523 . S
C1048 C1029 1.368 . S
C1048 C1042 1.368 . S
C1048 C1047 1.523 . S
C1049 C1033 1.429 . S
C1049 C1045 1.429 . S
C1049 C1050 1.523 . S
C1050 C1034 1.368 . S
C1050 C1046 1.368 . S
C1050 C1049 1.523 . S
H1051 C1026 0.950 . S
H1052 C1028 0.950 . S
H1053 C1029 0.949 . S
H1054 C1031 0.950 . S
H1055 C1033 0.950 . S
C1056 C1057 1.349 . S
C1056 C1058 1.327 . S
C1056 H1081 0.950 . S
C1057 C1056 1.349 . S
C1057 C1073 1.349 . S
C1058 C1056 1.327 . S
C1058 C1077 1.429 . S
C1058 H1082 0.950 . S
C1059 C1076 1.574 . S
C1059 C1078 1.368 . S
C1059 H1083 0.949 . S
H1060 C1064 0.949 . S
C1061 C1062 1.349 . S
C1061 C1063 1.327 . S
C1061 H1084 0.950 . S
C1062 C1061 1.349 . S
C1062 C1074 1.349 . S
C1063 C1061 1.327 . S
C1063 C1079 1.429 . S
C1063 H1085 0.950 . S
C1064 H1060 0.949 . S
C1064 C1072 1.574 . S
C1064 C1080 1.368 . S
H1065 C1073 0.950 . S
H1066 C1071 0.950 . S
H1067 C1072 0.949 . S
H1068 C1074 0.950 . S
H1069 C1075 0.950 . S
H1070 C1076 0.949 . S
C1071 H1066 0.950 . S
C1071 C1073 1.327 . S
C1071 C1077 1.429 . S
C1072 C1064 1.574 . S
C1072 H1067 0.949 . S
C1072 C1078 1.368 . S
C1073 C1057 1.349 . S
C1073 H1065 0.950 . S
C1073 C1071 1.327 . S
C1074 C1062 1.349 . S
C1074 H1068 0.950 . S
C1074 C1075 1.327 . S
C1075 H1069 0.950 . S
C1075 C1074 1.327 . S
C1075 C1079 1.429 . S
C1076 C1059 1.574 . S
C1076 H1070 0.949 . S
C1076 C1080 1.368 . S
C1077 C1058 1.429 . S
C1077 C1071 1.429 . S
C1077 C1078 1.523 . S
C1078 C1059 1.368 . S
C1078 C1072 1.368 . S
C1078 C1077 1.523 . S
C1079 C1063 1.429 . S
C1079 C1075 1.429 . S
C1079 C1080 1.523 . S
C1080 C1064 1.368 . S
C1080 C1076 1.368 . S
C1080 C1079 1.523 . S
H1081 C1056 0.950 . S
H1082 C1058 0.950 . S
H1083 C1059 0.949 . S
H1084 C1061 0.950 . S
H1085 C1063 0.950 . S
C1086 C1087 1.349 . S
C1086 C1088 1.327 . S
C1086 H1111 0.950 . S
C1087 C1086 1.349 . S
C1087 C1103 1.349 . S
C1088 C1086 1.327 . S
C1088 C1107 1.429 . S
C1088 H1112 0.950 . S
C1089 C1106 1.574 . S
C1089 C1108 1.368 . S
C1089 H1113 0.949 . S
H1090 C1094 0.949 . S
C1091 C1092 1.349 . S
C1091 C1093 1.327 . S
C1091 H1114 0.950 . S
C1092 C1091 1.349 . S
C1092 C1104 1.349 . S
C1093 C1091 1.327 . S
C1093 C1109 1.429 . S
C1093 H1115 0.950 . S
C1094 H1090 0.949 . S
C1094 C1102 1.574 . S
C1094 C1110 1.368 . S
H1095 C1103 0.950 . S
H1096 C1101 0.950 . S
H1097 C1102 0.949 . S
H1098 C1104 0.950 . S
H1099 C1105 0.950 . S
H1100 C1106 0.949 . S
C1101 H1096 0.950 . S
C1101 C1103 1.327 . S
C1101 C1107 1.429 . S
C1102 C1094 1.574 . S
C1102 H1097 0.949 . S
C1102 C1108 1.368 . S
C1103 C1087 1.349 . S
C1103 H1095 0.950 . S
C1103 C1101 1.327 . S
C1104 C1092 1.349 . S
C1104 H1098 0.950 . S
C1104 C1105 1.327 . S
C1105 H1099 0.950 . S
C1105 C1104 1.327 . S
C1105 C1109 1.429 . S
C1106 C1089 1.574 . S
C1106 H1100 0.949 . S
C1106 C1110 1.368 . S
C1107 C1088 1.429 . S
C1107 C1101 1.429 . S
C1107 C1108 1.523 . S
C1108 C1089 1.368 . S
C1108 C1102 1.368 . S
C1108 C1107 1.523 . S
C1109 C1093 1.429 . S
C1109 C1105 1.429 . S
C1109 C1110 1.523 . S
C1110 C1094 1.368 . S
C1110 C1106 1.368 . S
C1110 C1109 1.523 . S
H1111 C1086 0.950 . S
H1112 C1088 0.950 . S
H1113 C1089 0.949 . S
H1114 C1091 0.950 . S
H1115 C1093 0.950 . S
C1116 C1117 1.349 . S
C1116 C1118 1.327 . S
C1116 H1141 0.950 . S
C1117 C1116 1.349 . S
C1117 C1133 1.349 . S
C1118 C1116 1.327 . S
C1118 C1137 1.429 . S
C1118 H1142 0.950 . S
C1119 C1136 1.574 . S
C1119 C1138 1.368 . S
C1119 H1143 0.949 . S
H1120 C1124 0.949 . S
C1121 C1122 1.349 . S
C1121 C1123 1.327 . S
C1121 H1144 0.950 . S
C1122 C1121 1.349 . S
C1122 C1134 1.349 . S
C1123 C1121 1.327 . S
C1123 C1139 1.429 . S
C1123 H1145 0.950 . S
C1124 H1120 0.949 . S
C1124 C1132 1.574 . S
C1124 C1140 1.368 . S
H1125 C1133 0.950 . S
H1126 C1131 0.950 . S
H1127 C1132 0.949 . S
H1128 C1134 0.950 . S
H1129 C1135 0.950 . S
H1130 C1136 0.949 . S
C1131 H1126 0.950 . S
C1131 C1133 1.327 . S
C1131 C1137 1.429 . S
C1132 C1124 1.574 . S
C1132 H1127 0.949 . S
C1132 C1138 1.368 . S
C1133 C1117 1.349 . S
C1133 H1125 0.950 . S
C1133 C1131 1.327 . S
C1134 C1122 1.349 . S
C1134 H1128 0.950 . S
C1134 C1135 1.327 . S
C1135 H1129 0.950 . S
C1135 C1134 1.327 . S
C1135 C1139 1.429 . S
C1136 C1119 1.574 . S
C1136 H1130 0.949 . S
C1136 C1140 1.368 . S
C1137 C1118 1.429 . S
C1137 C1131 1.429 . S
C1137 C1138 1.523 . S
C1138 C1119 1.368 . S
C1138 C1132 1.368 . S
C1138 C1137 1.523 . S
C1139 C1123 1.429 . S
C1139 C1135 1.429 . S
C1139 C1140 1.523 . S
C1140 C1124 1.368 . S
C1140 C1136 1.368 . S
C1140 C1139 1.523 . S
H1141 C1116 0.950 . S
H1142 C1118 0.950 . S
H1143 C1119 0.949 . S
H1144 C1121 0.950 . S
H1145 C1123 0.950 . S
C1146 C1147 1.349 . S
C1146 C1148 1.327 . S
C1146 H1171 0.950 . S
C1147 C1146 1.349 . S
C1147 C1163 1.349 . S
C1148 C1146 1.327 . S
C1148 C1167 1.429 . S
C1148 H1172 0.950 . S
C1149 C1166 1.574 . S
C1149 C1168 1.368 . S
C1149 H1173 0.949 . S
H1150 C1154 0.949 . S
C1151 C1152 1.349 . S
C1151 C1153 1.327 . S
C1151 H1174 0.950 . S
C1152 C1151 1.349 . S
C1152 C1164 1.349 . S
C1153 C1151 1.327 . S
C1153 C1169 1.429 . S
C1153 H1175 0.950 . S
C1154 H1150 0.949 . S
C1154 C1162 1.574 . S
C1154 C1170 1.368 . S
H1155 C1163 0.950 . S
H1156 C1161 0.950 . S
H1157 C1162 0.949 . S
H1158 C1164 0.950 . S
H1159 C1165 0.950 . S
H1160 C1166 0.949 . S
C1161 H1156 0.950 . S
C1161 C1163 1.327 . S
C1161 C1167 1.429 . S
C1162 C1154 1.574 . S
C1162 H1157 0.949 . S
C1162 C1168 1.368 . S
C1163 C1147 1.349 . S
C1163 H1155 0.950 . S
C1163 C1161 1.327 . S
C1164 C1152 1.349 . S
C1164 H1158 0.950 . S
C1164 C1165 1.327 . S
C1165 H1159 0.950 . S
C1165 C1164 1.327 . S
C1165 C1169 1.429 . S
C1166 C1149 1.574 . S
C1166 H1160 0.949 . S
C1166 C1170 1.368 . S
C1167 C1148 1.429 . S
C1167 C1161 1.429 . S
C1167 C1168 1.523 . S
C1168 C1149 1.368 . S
C1168 C1162 1.368 . S
C1168 C1167 1.523 . S
C1169 C1153 1.429 . S
C1169 C1165 1.429 . S
C1169 C1170 1.523 . S
C1170 C1154 1.368 . S
C1170 C1166 1.368 . S
C1170 C1169 1.523 . S
H1171 C1146 0.950 . S
H1172 C1148 0.950 . S
H1173 C1149 0.949 . S
H1174 C1151 0.950 . S
H1175 C1153 0.950 . S
C1176 C1177 1.349 . S
C1176 C1178 1.327 . S
C1176 H1201 0.950 . S
C1177 C1176 1.349 . S
C1177 C1193 1.349 . S
C1178 C1176 1.327 . S
C1178 C1197 1.429 . S
C1178 H1202 0.950 . S
C1179 C1196 1.574 . S
C1179 C1198 1.368 . S
C1179 H1203 0.949 . S
H1180 C1184 0.949 . S
C1181 C1182 1.349 . S
C1181 C1183 1.327 . S
C1181 H1204 0.950 . S
C1182 C1181 1.349 . S
C1182 C1194 1.349 . S
C1183 C1181 1.327 . S
C1183 C1199 1.429 . S
C1183 H1205 0.950 . S
C1184 H1180 0.949 . S
C1184 C1192 1.574 . S
C1184 C1200 1.368 . S
H1185 C1193 0.950 . S
H1186 C1191 0.950 . S
H1187 C1192 0.949 . S
H1188 C1194 0.950 . S
H1189 C1195 0.950 . S
H1190 C1196 0.949 . S
C1191 H1186 0.950 . S
C1191 C1193 1.327 . S
C1191 C1197 1.429 . S
C1192 C1184 1.574 . S
C1192 H1187 0.949 . S
C1192 C1198 1.368 . S
C1193 C1177 1.349 . S
C1193 H1185 0.950 . S
C1193 C1191 1.327 . S
C1194 C1182 1.349 . S
C1194 H1188 0.950 . S
C1194 C1195 1.327 . S
C1195 H1189 0.950 . S
C1195 C1194 1.327 . S
C1195 C1199 1.429 . S
C1196 C1179 1.574 . S
C1196 H1190 0.949 . S
C1196 C1200 1.368 . S
C1197 C1178 1.429 . S
C1197 C1191 1.429 . S
C1197 C1198 1.523 . S
C1198 C1179 1.368 . S
C1198 C1192 1.368 . S
C1198 C1197 1.523 . S
C1199 C1183 1.429 . S
C1199 C1195 1.429 . S
C1199 C1200 1.523 . S
C1200 C1184 1.368 . S
C1200 C1196 1.368 . S
C1200 C1199 1.523 . S
H1201 C1176 0.950 . S
H1202 C1178 0.950 . S
H1203 C1179 0.949 . S
H1204 C1181 0.950 . S
H1205 C1183 0.950 . S
C1206 C1207 1.349 . S
C1206 C1208 1.327 . S
C1206 H1231 0.950 . S
C1207 C1206 1.349 . S
C1207 C1223 1.349 . S
C1208 C1206 1.327 . S
C1208 C1227 1.429 . S
C1208 H1232 0.950 . S
C1209 C1226 1.574 . S
C1209 C1228 1.368 . S
C1209 H1233 0.949 . S
H1210 C1214 0.949 . S
C1211 C1212 1.349 . S
C1211 C1213 1.327 . S
C1211 H1234 0.950 . S
C1212 C1211 1.349 . S
C1212 C1224 1.349 . S
C1213 C1211 1.327 . S
C1213 C1229 1.429 . S
C1213 H1235 0.950 . S
C1214 H1210 0.949 . S
C1214 C1222 1.574 . S
C1214 C1230 1.368 . S
H1215 C1223 0.950 . S
H1216 C1221 0.950 . S
H1217 C1222 0.949 . S
H1218 C1224 0.950 . S
H1219 C1225 0.950 . S
H1220 C1226 0.949 . S
C1221 H1216 0.950 . S
C1221 C1223 1.327 . S
C1221 C1227 1.429 . S
C1222 C1214 1.574 . S
C1222 H1217 0.949 . S
C1222 C1228 1.368 . S
C1223 C1207 1.349 . S
C1223 H1215 0.950 . S
C1223 C1221 1.327 . S
C1224 C1212 1.349 . S
C1224 H1218 0.950 . S
C1224 C1225 1.327 . S
C1225 H1219 0.950 . S
C1225 C1224 1.327 . S
C1225 C1229 1.429 . S
C1226 C1209 1.574 . S
C1226 H1220 0.949 . S
C1226 C1230 1.368 . S
C1227 C1208 1.429 . S
C1227 C1221 1.429 . S
C1227 C1228 1.523 . S
C1228 C1209 1.368 . S
C1228 C1222 1.368 . S
C1228 C1227 1.523 . S
C1229 C1213 1.429 . S
C1229 C1225 1.429 . S
C1229 C1230 1.523 . S
C1230 C1214 1.368 . S
C1230 C1226 1.368 . S
C1230 C1229 1.523 . S
H1231 C1206 0.950 . S
H1232 C1208 0.950 . S
H1233 C1209 0.949 . S
H1234 C1211 0.950 . S
H1235 C1213 0.950 . S
C1236 C1237 1.349 . S
C1236 C1238 1.327 . S
C1236 H1261 0.950 . S
C1237 C1236 1.349 . S
C1237 C1253 1.349 . S
C1238 C1236 1.327 . S
C1238 C1257 1.429 . S
C1238 H1262 0.950 . S
C1239 C1256 1.574 . S
C1239 C1258 1.368 . S
C1239 H1263 0.949 . S
H1240 C1244 0.949 . S
C1241 C1242 1.349 . S
C1241 C1243 1.327 . S
C1241 H1264 0.950 . S
C1242 C1241 1.349 . S
C1242 C1254 1.349 . S
C1243 C1241 1.327 . S
C1243 C1259 1.429 . S
C1243 H1265 0.950 . S
C1244 H1240 0.949 . S
C1244 C1252 1.574 . S
C1244 C1260 1.368 . S
H1245 C1253 0.950 . S
H1246 C1251 0.950 . S
H1247 C1252 0.949 . S
H1248 C1254 0.950 . S
H1249 C1255 0.950 . S
H1250 C1256 0.949 . S
C1251 H1246 0.950 . S
C1251 C1253 1.327 . S
C1251 C1257 1.429 . S
C1252 C1244 1.574 . S
C1252 H1247 0.949 . S
C1252 C1258 1.368 . S
C1253 C1237 1.349 . S
C1253 H1245 0.950 . S
C1253 C1251 1.327 . S
C1254 C1242 1.349 . S
C1254 H1248 0.950 . S
C1254 C1255 1.327 . S
C1255 H1249 0.950 . S
C1255 C1254 1.327 . S
C1255 C1259 1.429 . S
C1256 C1239 1.574 . S
C1256 H1250 0.949 . S
C1256 C1260 1.368 . S
C1257 C1238 1.429 . S
C1257 C1251 1.429 . S
C1257 C1258 1.523 . S
C1258 C1239 1.368 . S
C1258 C1252 1.368 . S
C1258 C1257 1.523 . S
C1259 C1243 1.429 . S
C1259 C1255 1.429 . S
C1259 C1260 1.523 . S
C1260 C1244 1.368 . S
C1260 C1256 1.368 . S
C1260 C1259 1.523 . S
H1261 C1236 0.950 . S
H1262 C1238 0.950 . S
H1263 C1239 0.949 . S
H1264 C1241 0.950 . S
H1265 C1243 0.950 . S
C1266 C1267 1.349 . S
C1266 C1268 1.327 . S
C1266 H1291 0.950 . S
C1267 C1266 1.349 . S
C1267 C1283 1.349 . S
C1268 C1266 1.327 . S
C1268 C1287 1.429 . S
C1268 H1292 0.950 . S
C1269 C1286 1.574 . S
C1269 C1288 1.368 . S
C1269 H1293 0.949 . S
H1270 C1274 0.949 . S
C1271 C1272 1.349 . S
C1271 C1273 1.327 . S
C1271 H1294 0.950 . S
C1272 C1271 1.349 . S
C1272 C1284 1.349 . S
C1273 C1271 1.327 . S
C1273 C1289 1.429 . S
C1273 H1295 0.950 . S
C1274 H1270 0.949 . S
C1274 C1282 1.574 . S
C1274 C1290 1.368 . S
H1275 C1283 0.950 . S
H1276 C1281 0.950 . S
H1277 C1282 0.949 . S
H1278 C1284 0.950 . S
H1279 C1285 0.950 . S
H1280 C1286 0.949 . S
C1281 H1276 0.950 . S
C1281 C1283 1.327 . S
C1281 C1287 1.429 . S
C1282 C1274 1.574 . S
C1282 H1277 0.949 . S
C1282 C1288 1.368 . S
C1283 C1267 1.349 . S
C1283 H1275 0.950 . S
C1283 C1281 1.327 . S
C1284 C1272 1.349 . S
C1284 H1278 0.950 . S
C1284 C1285 1.327 . S
C1285 H1279 0.950 . S
C1285 C1284 1.327 . S
C1285 C1289 1.429 . S
C1286 C1269 1.574 . S
C1286 H1280 0.949 . S
C1286 C1290 1.368 . S
C1287 C1268 1.429 . S
C1287 C1281 1.429 . S
C1287 C1288 1.523 . S
C1288 C1269 1.368 . S
C1288 C1282 1.368 . S
C1288 C1287 1.523 . S
C1289 C1273 1.429 . S
C1289 C1285 1.429 . S
C1289 C1290 1.523 . S
C1290 C1274 1.368 . S
C1290 C1286 1.368 . S
C1290 C1289 1.523 . S
H1291 C1266 0.950 . S
H1292 C1268 0.950 . S
H1293 C1269 0.949 . S
H1294 C1271 0.950 . S
H1295 C1273 0.950 . S
C1296 C1297 1.349 . S
C1296 C1298 1.327 . S
C1296 H1321 0.950 . S
C1297 C1296 1.349 . S
C1297 C1313 1.349 . S
C1298 C1296 1.327 . S
C1298 C1317 1.429 . S
C1298 H1322 0.950 . S
C1299 C1316 1.574 . S
C1299 C1318 1.368 . S
C1299 H1323 0.949 . S
H1300 C1304 0.949 . S
C1301 C1302 1.349 . S
C1301 C1303 1.327 . S
C1301 H1324 0.950 . S
C1302 C1301 1.349 . S
C1302 C1314 1.349 . S
C1303 C1301 1.327 . S
C1303 C1319 1.429 . S
C1303 H1325 0.950 . S
C1304 H1300 0.949 . S
C1304 C1312 1.574 . S
C1304 C1320 1.368 . S
H1305 C1313 0.950 . S
H1306 C1311 0.950 . S
H1307 C1312 0.949 . S
H1308 C1314 0.950 . S
H1309 C1315 0.950 . S
H1310 C1316 0.949 . S
C1311 H1306 0.950 . S
C1311 C1313 1.327 . S
C1311 C1317 1.429 . S
C1312 C1304 1.574 . S
C1312 H1307 0.949 . S
C1312 C1318 1.368 . S
C1313 C1297 1.349 . S
C1313 H1305 0.950 . S
C1313 C1311 1.327 . S
C1314 C1302 1.349 . S
C1314 H1308 0.950 . S
C1314 C1315 1.327 . S
C1315 H1309 0.950 . S
C1315 C1314 1.327 . S
C1315 C1319 1.429 . S
C1316 C1299 1.574 . S
C1316 H1310 0.949 . S
C1316 C1320 1.368 . S
C1317 C1298 1.429 . S
C1317 C1311 1.429 . S
C1317 C1318 1.523 . S
C1318 C1299 1.368 . S
C1318 C1312 1.368 . S
C1318 C1317 1.523 . S
C1319 C1303 1.429 . S
C1319 C1315 1.429 . S
C1319 C1320 1.523 . S
C1320 C1304 1.368 . S
C1320 C1316 1.368 . S
C1320 C1319 1.523 . S
H1321 C1296 0.950 . S
H1322 C1298 0.950 . S
H1323 C1299 0.949 . S
H1324 C1301 0.950 . S
H1325 C1303 0.950 . S
C1326 C1327 1.349 . S
C1326 C1328 1.327 . S
C1326 H1351 0.950 . S
C1327 C1326 1.349 . S
C1327 C1343 1.349 . S
C1328 C1326 1.327 . S
C1328 C1347 1.429 . S
C1328 H1352 0.950 . S
C1329 C1346 1.574 . S
C1329 C1348 1.368 . S
C1329 H1353 0.949 . S
H1330 C1334 0.949 . S
C1331 C1332 1.349 . S
C1331 C1333 1.327 . S
C1331 H1354 0.950 . S
C1332 C1331 1.349 . S
C1332 C1344 1.349 . S
C1333 C1331 1.327 . S
C1333 C1349 1.429 . S
C1333 H1355 0.950 . S
C1334 H1330 0.949 . S
C1334 C1342 1.574 . S
C1334 C1350 1.368 . S
H1335 C1343 0.950 . S
H1336 C1341 0.950 . S
H1337 C1342 0.949 . S
H1338 C1344 0.950 . S
H1339 C1345 0.950 . S
H1340 C1346 0.949 . S
C1341 H1336 0.950 . S
C1341 C1343 1.327 . S
C1341 C1347 1.429 . S
C1342 C1334 1.574 . S
C1342 H1337 0.949 . S
C1342 C1348 1.368 1_565 S
C1343 C1327 1.349 . S
C1343 H1335 0.950 . S
C1343 C1341 1.327 . S
C1344 C1332 1.349 . S
C1344 H1338 0.950 . S
C1344 C1345 1.327 . S
C1345 H1339 0.950 . S
C1345 C1344 1.327 . S
C1345 C1349 1.429 . S
C1346 C1329 1.574 . S
C1346 H1340 0.949 . S
C1346 C1350 1.368 1_545 S
C1347 C1328 1.429 . S
C1347 C1341 1.429 . S
C1347 C1348 1.523 . S
C1348 C1329 1.368 . S
C1348 C1342 1.368 1_545 S
C1348 C1347 1.523 . S
C1349 C1333 1.429 . S
C1349 C1345 1.429 . S
C1349 C1350 1.523 . S
C1350 C1334 1.368 . S
C1350 C1346 1.368 1_565 S
C1350 C1349 1.523 . S
H1351 C1326 0.950 . S
H1352 C1328 0.950 . S
H1353 C1329 0.949 . S
H1354 C1331 0.950 . S
H1355 C1333 0.950 . S
C1356 C1357 1.349 . S
C1356 C1358 1.327 . S
C1356 H1381 0.950 . S
C1357 C1356 1.349 . S
C1357 C1373 1.349 . S
C1358 C1356 1.327 . S
C1358 C1377 1.429 . S
C1358 H1382 0.950 . S
C1359 C1376 1.574 . S
C1359 C1378 1.368 . S
C1359 H1383 0.949 . S
H1360 C1364 0.949 . S
C1361 C1362 1.349 . S
C1361 C1363 1.327 . S
C1361 H1384 0.950 . S
C1362 C1361 1.349 . S
C1362 C1374 1.349 . S
C1363 C1361 1.327 . S
C1363 C1379 1.429 . S
C1363 H1385 0.950 . S
C1364 H1360 0.949 . S
C1364 C1372 1.574 . S
C1364 C1380 1.368 . S
H1365 C1373 0.950 . S
H1366 C1371 0.950 . S
H1367 C1372 0.949 . S
H1368 C1374 0.950 . S
H1369 C1375 0.950 . S
H1370 C1376 0.949 . S
C1371 H1366 0.950 . S
C1371 C1373 1.327 . S
C1371 C1377 1.429 . S
C1372 C1364 1.574 . S
C1372 H1367 0.949 . S
C1372 C1378 1.368 1_655 S
C1373 C1357 1.349 . S
C1373 H1365 0.950 . S
C1373 C1371 1.327 . S
C1374 C1362 1.349 . S
C1374 H1368 0.950 . S
C1374 C1375 1.327 . S
C1375 H1369 0.950 . S
C1375 C1374 1.327 . S
C1375 C1379 1.429 . S
C1376 C1359 1.574 . S
C1376 H1370 0.949 . S
C1376 C1380 1.368 1_455 S
C1377 C1358 1.429 . S
C1377 C1371 1.429 . S
C1377 C1378 1.523 . S
C1378 C1359 1.368 . S
C1378 C1372 1.368 1_455 S
C1378 C1377 1.523 . S
C1379 C1363 1.429 . S
C1379 C1375 1.429 . S
C1379 C1380 1.523 . S
C1380 C1364 1.368 . S
C1380 C1376 1.368 1_655 S
C1380 C1379 1.523 . S
H1381 C1356 0.950 . S
H1382 C1358 0.950 . S
H1383 C1359 0.949 . S
H1384 C1361 0.950 . S
H1385 C1363 0.950 . S
C1386 C1387 1.349 . S
C1386 C1388 1.327 . S
C1386 H1411 0.950 . S
C1387 C1386 1.349 . S
C1387 C1403 1.349 . S
C1388 C1386 1.327 . S
C1388 C1407 1.429 . S
C1388 H1412 0.950 . S
C1389 C1406 1.574 . S
C1389 C1408 1.368 . S
C1389 H1413 0.949 . S
H1390 C1394 0.949 . S
C1391 C1392 1.349 . S
C1391 C1393 1.327 . S
C1391 H1414 0.950 . S
C1392 C1391 1.349 . S
C1392 C1404 1.349 . S
C1393 C1391 1.327 . S
C1393 C1409 1.429 . S
C1393 H1415 0.950 . S
C1394 H1390 0.949 . S
C1394 C1402 1.574 . S
C1394 C1410 1.368 . S
H1395 C1403 0.950 . S
H1396 C1401 0.950 . S
H1397 C1402 0.949 . S
H1398 C1404 0.950 . S
H1399 C1405 0.950 . S
H1400 C1406 0.949 . S
C1401 H1396 0.950 . S
C1401 C1403 1.327 . S
C1401 C1407 1.429 . S
C1402 C1394 1.574 . S
C1402 H1397 0.949 . S
C1402 C1408 1.368 . S
C1403 C1387 1.349 . S
C1403 H1395 0.950 . S
C1403 C1401 1.327 . S
C1404 C1392 1.349 . S
C1404 H1398 0.950 . S
C1404 C1405 1.327 . S
C1405 H1399 0.950 . S
C1405 C1404 1.327 . S
C1405 C1409 1.429 . S
C1406 C1389 1.574 . S
C1406 H1400 0.949 . S
C1406 C1410 1.368 . S
C1407 C1388 1.429 . S
C1407 C1401 1.429 . S
C1407 C1408 1.523 . S
C1408 C1389 1.368 . S
C1408 C1402 1.368 . S
C1408 C1407 1.523 . S
C1409 C1393 1.429 . S
C1409 C1405 1.429 . S
C1409 C1410 1.523 . S
C1410 C1394 1.368 . S
C1410 C1406 1.368 . S
C1410 C1409 1.523 . S
H1411 C1386 0.950 . S
H1412 C1388 0.950 . S
H1413 C1389 0.949 . S
H1414 C1391 0.950 . S
H1415 C1393 0.950 . S
C1416 C1417 1.349 . S
C1416 C1418 1.327 . S
C1416 H1441 0.950 . S
C1417 C1416 1.349 . S
C1417 C1433 1.349 . S
C1418 C1416 1.327 . S
C1418 C1437 1.429 . S
C1418 H1442 0.950 . S
C1419 C1436 1.574 . S
C1419 C1438 1.368 . S
C1419 H1443 0.949 . S
H1420 C1424 0.949 . S
C1421 C1422 1.349 . S
C1421 C1423 1.327 . S
C1421 H1444 0.950 . S
C1422 C1421 1.349 . S
C1422 C1434 1.349 . S
C1423 C1421 1.327 . S
C1423 C1439 1.429 . S
C1423 H1445 0.950 . S
C1424 H1420 0.949 . S
C1424 C1432 1.574 . S
C1424 C1440 1.368 . S
H1425 C1433 0.950 . S
H1426 C1431 0.950 . S
H1427 C1432 0.949 . S
H1428 C1434 0.950 . S
H1429 C1435 0.950 . S
H1430 C1436 0.949 . S
C1431 H1426 0.950 . S
C1431 C1433 1.327 . S
C1431 C1437 1.429 . S
C1432 C1424 1.574 . S
C1432 H1427 0.949 . S
C1432 C1438 1.368 1_565 S
C1433 C1417 1.349 . S
C1433 H1425 0.950 . S
C1433 C1431 1.327 . S
C1434 C1422 1.349 . S
C1434 H1428 0.950 . S
C1434 C1435 1.327 . S
C1435 H1429 0.950 . S
C1435 C1434 1.327 . S
C1435 C1439 1.429 . S
C1436 C1419 1.574 . S
C1436 H1430 0.949 . S
C1436 C1440 1.368 1_545 S
C1437 C1418 1.429 . S
C1437 C1431 1.429 . S
C1437 C1438 1.523 . S
C1438 C1419 1.368 . S
C1438 C1432 1.368 1_545 S
C1438 C1437 1.523 . S
C1439 C1423 1.429 . S
C1439 C1435 1.429 . S
C1439 C1440 1.523 . S
C1440 C1424 1.368 . S
C1440 C1436 1.368 1_565 S
C1440 C1439 1.523 . S
H1441 C1416 0.950 . S
H1442 C1418 0.950 . S
H1443 C1419 0.949 . S
H1444 C1421 0.950 . S
H1445 C1423 0.950 . S
C1446 C1447 1.349 . S
C1446 C1448 1.327 . S
C1446 H1471 0.950 . S
C1447 C1446 1.349 . S
C1447 C1463 1.349 . S
C1448 C1446 1.327 . S
C1448 C1467 1.429 . S
C1448 H1472 0.950 . S
C1449 C1466 1.574 . S
C1449 C1468 1.368 1_655 S
C1449 H1473 0.949 . S
H1450 C1454 0.949 . S
C1451 C1452 1.349 . S
C1451 C1453 1.327 . S
C1451 H1474 0.950 . S
C1452 C1451 1.349 . S
C1452 C1464 1.349 . S
C1453 C1451 1.327 . S
C1453 C1469 1.429 . S
C1453 H1475 0.950 . S
C1454 H1450 0.949 . S
C1454 C1462 1.574 . S
C1454 C1470 1.368 1_455 S
H1455 C1463 0.950 . S
H1456 C1461 0.950 . S
H1457 C1462 0.949 . S
H1458 C1464 0.950 . S
H1459 C1465 0.950 . S
H1460 C1466 0.949 . S
C1461 H1456 0.950 . S
C1461 C1463 1.327 . S
C1461 C1467 1.429 . S
C1462 C1454 1.574 . S
C1462 H1457 0.949 . S
C1462 C1468 1.368 . S
C1463 C1447 1.349 . S
C1463 H1455 0.950 . S
C1463 C1461 1.327 . S
C1464 C1452 1.349 . S
C1464 H1458 0.950 . S
C1464 C1465 1.327 . S
C1465 H1459 0.950 . S
C1465 C1464 1.327 . S
C1465 C1469 1.429 . S
C1466 C1449 1.574 . S
C1466 H1460 0.949 . S
C1466 C1470 1.368 . S
C1467 C1448 1.429 . S
C1467 C1461 1.429 . S
C1467 C1468 1.523 . S
C1468 C1449 1.368 1_455 S
C1468 C1462 1.368 . S
C1468 C1467 1.523 . S
C1469 C1453 1.429 . S
C1469 C1465 1.429 . S
C1469 C1470 1.523 . S
C1470 C1454 1.368 1_655 S
C1470 C1466 1.368 . S
C1470 C1469 1.523 . S
H1471 C1446 0.950 . S
H1472 C1448 0.950 . S
H1473 C1449 0.949 . S
H1474 C1451 0.950 . S
H1475 C1453 0.950 . S
C1476 C1477 1.349 . S
C1476 C1478 1.327 . S
C1476 H1501 0.950 . S
C1477 C1476 1.349 . S
C1477 C1493 1.349 . S
C1478 C1476 1.327 . S
C1478 C1497 1.429 . S
C1478 H1502 0.950 . S
C1479 C1496 1.574 1_554 S
C1479 C1498 1.368 . S
C1479 H1503 0.949 . S
H1480 C1484 0.949 . S
C1481 C1482 1.349 . S
C1481 C1483 1.327 . S
C1481 H1504 0.950 . S
C1482 C1481 1.349 . S
C1482 C1494 1.349 . S
C1483 C1481 1.327 . S
C1483 C1499 1.429 . S
C1483 H1505 0.950 . S
C1484 H1480 0.949 . S
C1484 C1492 1.574 1_556 S
C1484 C1500 1.368 . S
H1485 C1493 0.950 . S
H1486 C1491 0.950 . S
H1487 C1492 0.949 . S
H1488 C1494 0.950 . S
H1489 C1495 0.950 . S
H1490 C1496 0.949 . S
C1491 H1486 0.950 . S
C1491 C1493 1.327 . S
C1491 C1497 1.429 . S
C1492 C1484 1.574 1_554 S
C1492 H1487 0.949 . S
C1492 C1498 1.368 . S
C1493 C1477 1.349 . S
C1493 H1485 0.950 . S
C1493 C1491 1.327 . S
C1494 C1482 1.349 . S
C1494 H1488 0.950 . S
C1494 C1495 1.327 . S
C1495 H1489 0.950 . S
C1495 C1494 1.327 . S
C1495 C1499 1.429 . S
C1496 C1479 1.574 1_556 S
C1496 H1490 0.949 . S
C1496 C1500 1.368 . S
C1497 C1478 1.429 . S
C1497 C1491 1.429 . S
C1497 C1498 1.523 . S
C1498 C1479 1.368 . S
C1498 C1492 1.368 . S
C1498 C1497 1.523 . S
C1499 C1483 1.429 . S
C1499 C1495 1.429 . S
C1499 C1500 1.523 . S
C1500 C1484 1.368 . S
C1500 C1496 1.368 . S
C1500 C1499 1.523 . S
H1501 C1476 0.950 . S
H1502 C1478 0.950 . S
H1503 C1479 0.949 . S
H1504 C1481 0.950 . S
H1505 C1483 0.950 . S
C1506 C1507 1.349 . S
C1506 C1508 1.327 . S
C1506 H1531 0.950 . S
C1507 C1506 1.349 . S
C1507 C1523 1.349 . S
C1508 C1506 1.327 . S
C1508 C1527 1.429 . S
C1508 H1532 0.917 1_556 S
C1509 C1526 1.580 . S
C1509 C1528 1.362 1_565 S
C1509 H1533 0.949 1_565 S
H1510 C1514 0.948 . S
C1511 C1512 1.349 . S
C1511 C1513 1.327 . S
C1511 H1534 0.950 . S
C1512 C1511 1.349 . S
C1512 C1524 1.349 . S
C1513 C1511 1.327 . S
C1513 C1529 1.429 . S
C1513 H1535 0.916 1_554 S
C1514 H1510 0.948 . S
C1514 C1522 1.574 1_565 S
C1514 C1530 1.368 . S
H1515 C1523 0.950 . S
H1516 C1521 0.950 . S
H1517 C1522 0.949 . S
H1518 C1524 0.950 . S
H1519 C1525 0.950 . S
H1520 C1526 0.949 . S
C1521 H1516 0.950 . S
C1521 C1523 1.327 . S
C1521 C1527 1.429 . S
C1522 C1514 1.574 1_545 S
C1522 H1517 0.949 . S
C1522 C1528 1.368 1_554 S
C1523 C1507 1.349 . S
C1523 H1515 0.950 . S
C1523 C1521 1.327 . S
C1524 C1512 1.349 . S
C1524 H1518 0.950 . S
C1524 C1525 1.327 . S
C1525 H1519 0.950 . S
C1525 C1524 1.327 . S
C1525 C1529 1.429 . S
C1526 C1509 1.580 . S
C1526 H1520 0.949 . S
C1526 C1530 1.368 1_556 S
C1527 C1508 1.429 . S
C1527 C1521 1.429 . S
C1527 C1528 1.523 . S
C1528 C1509 1.362 1_545 S
C1528 C1522 1.368 1_556 S
C1528 C1527 1.523 . S
C1529 C1513 1.429 . S
C1529 C1525 1.429 . S
C1529 C1530 1.523 . S
C1530 C1514 1.368 . S
C1530 C1526 1.368 1_554 S
C1530 C1529 1.523 . S
H1531 C1506 0.950 . S
H1532 C1508 0.917 1_554 S
H1533 C1509 0.949 1_545 S
H1534 C1511 0.950 . S
H1535 C1513 0.916 1_556 S
C1536 C1537 1.349 . S
C1536 C1538 1.327 . S
C1536 H1561 0.950 . S
C1537 C1536 1.349 . S
C1537 C1553 1.349 . S
C1538 C1536 1.327 . S
C1538 C1557 1.429 . S
C1538 H1562 0.950 . S
C1539 C1556 1.574 1_655 S
C1539 C1558 1.368 . S
C1539 H1563 0.949 . S
H1540 C1544 0.949 . S
C1541 C1542 1.349 . S
C1541 C1543 1.327 . S
C1541 H1564 0.950 . S
C1542 C1541 1.349 . S
C1542 C1554 1.349 . S
C1543 C1541 1.327 . S
C1543 C1559 1.429 . S
C1543 H1565 0.950 . S
C1544 H1540 0.949 . S
C1544 C1552 1.574 1_455 S
C1544 C1560 1.368 . S
H1545 C1553 0.950 . S
H1546 C1551 0.950 . S
H1547 C1552 0.949 . S
H1548 C1554 0.950 . S
H1549 C1555 0.950 . S
H1550 C1556 0.949 . S
C1551 H1546 0.950 . S
C1551 C1553 1.327 . S
C1551 C1557 1.429 . S
C1552 C1544 1.574 1_655 S
C1552 H1547 0.949 . S
C1552 C1558 1.368 1_554 S
C1553 C1537 1.349 . S
C1553 H1545 0.950 . S
C1553 C1551 1.327 . S
C1554 C1542 1.349 . S
C1554 H1548 0.950 . S
C1554 C1555 1.327 . S
C1555 H1549 0.950 . S
C1555 C1554 1.327 . S
C1555 C1559 1.429 . S
C1556 C1539 1.574 1_455 S
C1556 H1550 0.949 . S
C1556 C1560 1.368 1_556 S
C1557 C1538 1.429 . S
C1557 C1551 1.429 . S
C1557 C1558 1.523 . S
C1558 C1539 1.368 . S
C1558 C1552 1.368 1_556 S
C1558 C1557 1.523 . S
C1559 C1543 1.429 . S
C1559 C1555 1.429 . S
C1559 C1560 1.523 . S
C1560 C1544 1.368 . S
C1560 C1556 1.368 1_554 S
C1560 C1559 1.523 . S
H1561 C1536 0.950 . S
H1562 C1538 0.950 . S
H1563 C1539 0.949 . S
H1564 C1541 0.950 . S
H1565 C1543 0.950 . S
C1566 C1567 1.349 . S
C1566 C1568 1.327 . S
C1566 H1591 0.950 . S
C1567 C1566 1.349 . S
C1567 C1583 1.349 . S
C1568 C1566 1.327 . S
C1568 C1587 1.429 . S
C1568 H1592 0.950 . S
C1569 C1586 1.574 1_554 S
C1569 C1588 1.368 . S
C1569 H1593 0.949 . S
H1570 C1574 0.949 . S
C1571 C1572 1.349 . S
C1571 C1573 1.327 . S
C1571 H1594 0.950 . S
C1572 C1571 1.349 . S
C1572 C1584 1.349 . S
C1573 C1571 1.327 . S
C1573 C1589 1.429 . S
C1573 H1595 0.950 . S
C1574 H1570 0.949 . S
C1574 C1582 1.574 1_556 S
C1574 C1590 1.368 . S
H1575 C1583 0.950 . S
H1576 C1581 0.950 . S
H1577 C1582 0.949 . S
H1578 C1584 0.950 . S
H1579 C1585 0.950 . S
H1580 C1586 0.949 . S
C1581 H1576 0.950 . S
C1581 C1583 1.327 . S
C1581 C1587 1.429 . S
C1582 C1574 1.574 1_554 S
C1582 H1577 0.949 . S
C1582 C1588 1.368 . S
C1583 C1567 1.349 . S
C1583 H1575 0.950 . S
C1583 C1581 1.327 . S
C1584 C1572 1.349 . S
C1584 H1578 0.950 . S
C1584 C1585 1.327 . S
C1585 H1579 0.950 . S
C1585 C1584 1.327 . S
C1585 C1589 1.429 . S
C1586 C1569 1.574 1_556 S
C1586 H1580 0.949 . S
C1586 C1590 1.368 . S
C1587 C1568 1.429 . S
C1587 C1581 1.429 . S
C1587 C1588 1.523 . S
C1588 C1569 1.368 . S
C1588 C1582 1.368 . S
C1588 C1587 1.523 . S
C1589 C1573 1.429 . S
C1589 C1585 1.429 . S
C1589 C1590 1.523 . S
C1590 C1574 1.368 . S
C1590 C1586 1.368 . S
C1590 C1589 1.523 . S
H1591 C1566 0.950 . S
H1592 C1568 0.950 . S
H1593 C1569 0.949 . S
H1594 C1571 0.950 . S
H1595 C1573 0.950 . S
C1596 C1597 1.349 . S
C1596 C1598 1.327 . S
C1596 H1621 0.950 . S
C1597 C1596 1.349 . S
C1597 C1613 1.349 . S
C1598 C1596 1.327 . S
C1598 C1617 1.429 . S
C1598 H1622 0.933 1_554 S
C1599 C1616 1.548 1_565 S
C1599 C1618 1.389 . S
C1599 H1623 0.955 . S
H1600 C1604 0.951 . S
C1601 C1602 1.349 . S
C1601 C1603 1.327 . S
C1601 H1624 0.950 . S
C1602 C1601 1.349 . S
C1602 C1614 1.349 . S
C1603 C1601 1.327 . S
C1603 C1619 1.429 . S
C1603 H1625 0.932 1_556 S
C1604 H1600 0.951 . S
C1604 C1612 1.561 1_545 S
C1604 C1620 1.378 . S
H1605 C1613 0.950 . S
H1606 C1611 0.950 . S
H1607 C1612 0.949 . S
H1608 C1614 0.950 . S
H1609 C1615 0.950 . S
H1610 C1616 0.949 . S
C1611 H1606 0.950 . S
C1611 C1613 1.327 . S
C1611 C1617 1.429 . S
C1612 C1604 1.561 1_565 S
C1612 H1607 0.949 . S
C1612 C1618 1.368 1_556 S
C1613 C1597 1.349 . S
C1613 H1605 0.950 . S
C1613 C1611 1.327 . S
C1614 C1602 1.349 . S
C1614 H1608 0.950 . S
C1614 C1615 1.327 . S
C1615 H1609 0.950 . S
C1615 C1614 1.327 . S
C1615 C1619 1.429 . S
C1616 C1599 1.548 1_545 S
C1616 H1610 0.949 . S
C1616 C1620 1.368 1_554 S
C1617 C1598 1.429 . S
C1617 C1611 1.429 . S
C1617 C1618 1.523 . S
C1618 C1599 1.389 . S
C1618 C1612 1.368 1_554 S
C1618 C1617 1.523 . S
C1619 C1603 1.429 . S
C1619 C1615 1.429 . S
C1619 C1620 1.523 . S
C1620 C1604 1.378 . S
C1620 C1616 1.368 1_556 S
C1620 C1619 1.523 . S
H1621 C1596 0.950 . S
H1622 C1598 0.933 1_556 S
H1623 C1599 0.955 . S
H1624 C1601 0.950 . S
H1625 C1603 0.932 1_554 S
C1626 C1627 1.349 . S
C1626 C1628 1.327 . S
C1626 H1651 0.950 . S
C1627 C1626 1.349 . S
C1627 C1643 1.349 . S
C1628 C1626 1.327 . S
C1628 C1647 1.429 . S
C1628 H1652 0.950 . S
C1629 C1646 1.574 1_655 S
C1629 C1648 1.368 1_554 S
C1629 H1653 0.949 . S
H1630 C1634 0.949 . S
C1631 C1632 1.349 . S
C1631 C1633 1.327 . S
C1631 H1654 0.950 . S
C1632 C1631 1.349 . S
C1632 C1644 1.349 . S
C1633 C1631 1.327 . S
C1633 C1649 1.429 . S
C1633 H1655 0.950 . S
C1634 H1630 0.949 . S
C1634 C1642 1.574 1_455 S
C1634 C1650 1.368 1_556 S
H1635 C1643 0.950 . S
H1636 C1641 0.950 . S
H1637 C1642 0.949 . S
H1638 C1644 0.950 . S
H1639 C1645 0.950 . S
H1640 C1646 0.949 . S
C1641 H1636 0.950 . S
C1641 C1643 1.327 . S
C1641 C1647 1.429 . S
C1642 C1634 1.574 1_655 S
C1642 H1637 0.949 . S
C1642 C1648 1.368 . S
C1643 C1627 1.349 . S
C1643 H1635 0.950 . S
C1643 C1641 1.327 . S
C1644 C1632 1.349 . S
C1644 H1638 0.950 . S
C1644 C1645 1.327 . S
C1645 H1639 0.950 . S
C1645 C1644 1.327 . S
C1645 C1649 1.429 . S
C1646 C1629 1.574 1_455 S
C1646 H1640 0.949 . S
C1646 C1650 1.368 . S
C1647 C1628 1.429 . S
C1647 C1641 1.429 . S
C1647 C1648 1.523 . S
C1648 C1629 1.368 1_556 S
C1648 C1642 1.368 . S
C1648 C1647 1.523 . S
C1649 C1633 1.429 . S
C1649 C1645 1.429 . S
C1649 C1650 1.523 . S
C1650 C1634 1.368 1_554 S
C1650 C1646 1.368 . S
C1650 C1649 1.523 . S
H1651 C1626 0.950 . S
H1652 C1628 0.950 . S
H1653 C1629 0.949 . S
H1654 C1631 0.950 . S
H1655 C1633 0.950 . S
C1656 C1657 1.349 . S
C1656 C1658 1.327 . S
C1656 H1681 0.950 . S
C1657 C1656 1.349 . S
C1657 C1673 1.349 . S
C1658 C1656 1.327 . S
C1658 C1677 1.429 . S
C1658 H1682 0.950 . S
C1659 C1676 1.574 . S
C1659 C1678 1.368 . S
C1659 H1683 0.949 . S
H1660 C1664 0.949 . S
C1661 C1662 1.349 . S
C1661 C1663 1.327 1_455 S
C1661 H1684 0.950 . S
C1662 C1661 1.349 . S
C1662 C1674 1.349 1_455 S
C1663 C1661 1.327 1_655 S
C1663 C1679 1.429 . S
C1663 H1685 0.951 . S
C1664 H1660 0.949 . S
C1664 C1672 1.574 . S
C1664 C1680 1.368 . S
H1665 C1673 0.950 . S
H1666 C1671 0.950 . S
H1667 C1672 0.949 . S
H1668 C1674 0.950 . S
H1669 C1675 0.950 . S
H1670 C1676 0.949 . S
C1671 H1666 0.950 . S
C1671 C1673 1.327 . S
C1671 C1677 1.429 . S
C1672 C1664 1.574 . S
C1672 H1667 0.949 . S
C1672 C1678 1.368 . S
C1673 C1657 1.349 . S
C1673 H1665 0.950 . S
C1673 C1671 1.327 . S
C1674 C1662 1.349 1_655 S
C1674 H1668 0.950 . S
C1674 C1675 1.327 . S
C1675 H1669 0.950 . S
C1675 C1674 1.327 . S
C1675 C1679 1.429 . S
C1676 C1659 1.574 . S
C1676 H1670 0.949 . S
C1676 C1680 1.368 . S
C1677 C1658 1.429 . S
C1677 C1671 1.429 . S
C1677 C1678 1.523 . S
C1678 C1659 1.368 . S
C1678 C1672 1.368 . S
C1678 C1677 1.523 . S
C1679 C1663 1.429 . S
C1679 C1675 1.429 . S
C1679 C1680 1.523 . S
C1680 C1664 1.368 . S
C1680 C1676 1.368 . S
C1680 C1679 1.523 . S
H1681 C1656 0.950 . S
H1682 C1658 0.950 . S
H1683 C1659 0.949 . S
H1684 C1661 0.950 . S
H1685 C1663 0.951 . S
C1686 C1687 1.349 . S
C1686 C1688 1.327 . S
C1686 H1711 0.950 . S
C1687 C1686 1.349 . S
C1687 C1703 1.349 . S
C1688 C1686 1.327 . S
C1688 C1707 1.429 . S
C1688 H1712 0.950 . S
C1689 C1706 1.574 . S
C1689 C1708 1.368 . S
C1689 H1713 0.949 . S
H1690 C1694 0.949 . S
C1691 C1692 1.349 . S
C1691 C1693 1.327 . S
C1691 H1714 0.950 . S
C1692 C1691 1.349 . S
C1692 C1704 1.349 . S
C1693 C1691 1.327 . S
C1693 C1709 1.429 . S
C1693 H1715 0.950 . S
C1694 H1690 0.949 . S
C1694 C1702 1.574 . S
C1694 C1710 1.368 . S
H1695 C1703 0.950 . S
H1696 C1701 0.950 . S
H1697 C1702 0.949 . S
H1698 C1704 0.950 . S
H1699 C1705 0.950 . S
H1700 C1706 0.949 . S
C1701 H1696 0.950 . S
C1701 C1703 1.327 . S
C1701 C1707 1.429 . S
C1702 C1694 1.574 . S
C1702 H1697 0.949 . S
C1702 C1708 1.368 . S
C1703 C1687 1.349 . S
C1703 H1695 0.950 . S
C1703 C1701 1.327 . S
C1704 C1692 1.349 . S
C1704 H1698 0.950 . S
C1704 C1705 1.327 . S
C1705 H1699 0.950 . S
C1705 C1704 1.327 . S
C1705 C1709 1.429 . S
C1706 C1689 1.574 . S
C1706 H1700 0.949 . S
C1706 C1710 1.368 . S
C1707 C1688 1.429 . S
C1707 C1701 1.429 . S
C1707 C1708 1.523 . S
C1708 C1689 1.368 . S
C1708 C1702 1.368 . S
C1708 C1707 1.523 . S
C1709 C1693 1.429 . S
C1709 C1705 1.429 . S
C1709 C1710 1.523 . S
C1710 C1694 1.368 . S
C1710 C1706 1.368 . S
C1710 C1709 1.523 . S
H1711 C1686 0.950 . S
H1712 C1688 0.950 . S
H1713 C1689 0.949 . S
H1714 C1691 0.950 . S
H1715 C1693 0.950 . S
C1716 C1717 1.349 . S
C1716 C1718 1.327 . S
C1716 H1741 0.950 . S
C1717 C1716 1.349 . S
C1717 C1733 1.349 1_565 S
C1718 C1716 1.327 . S
C1718 C1737 1.429 1_565 S
C1718 H1742 0.950 . S
C1719 C1736 1.574 . S
C1719 C1738 1.368 . S
C1719 H1743 0.949 . S
H1720 C1724 0.949 . S
C1721 C1722 1.349 . S
C1721 C1723 1.327 . S
C1721 H1744 0.950 . S
C1722 C1721 1.349 . S
C1722 C1734 1.349 . S
C1723 C1721 1.327 . S
C1723 C1739 1.429 . S
C1723 H1745 0.950 . S
C1724 H1720 0.949 . S
C1724 C1732 1.574 . S
C1724 C1740 1.368 . S
H1725 C1733 0.950 . S
H1726 C1731 0.950 . S
H1727 C1732 0.949 . S
H1728 C1734 0.950 . S
H1729 C1735 0.950 . S
H1730 C1736 0.949 . S
C1731 H1726 0.950 . S
C1731 C1733 1.327 . S
C1731 C1737 1.429 . S
C1732 C1724 1.574 . S
C1732 H1727 0.949 . S
C1732 C1738 1.368 . S
C1733 C1717 1.349 1_545 S
C1733 H1725 0.950 . S
C1733 C1731 1.327 . S
C1734 C1722 1.349 . S
C1734 H1728 0.950 . S
C1734 C1735 1.327 . S
C1735 H1729 0.950 . S
C1735 C1734 1.327 . S
C1735 C1739 1.429 . S
C1736 C1719 1.574 . S
C1736 H1730 0.949 . S
C1736 C1740 1.368 . S
C1737 C1718 1.429 1_545 S
C1737 C1731 1.429 . S
C1737 C1738 1.523 . S
C1738 C1719 1.368 . S
C1738 C1732 1.368 . S
C1738 C1737 1.523 . S
C1739 C1723 1.429 . S
C1739 C1735 1.429 . S
C1739 C1740 1.523 . S
C1740 C1724 1.368 . S
C1740 C1736 1.368 . S
C1740 C1739 1.523 . S
H1741 C1716 0.950 . S
H1742 C1718 0.950 . S
H1743 C1719 0.949 . S
H1744 C1721 0.950 . S
H1745 C1723 0.950 . S
C1746 C1747 1.349 . S
C1746 C1748 1.327 . S
C1746 H1771 0.950 . S
C1747 C1746 1.349 . S
C1747 C1763 1.349 . S
C1748 C1746 1.327 . S
C1748 C1767 1.429 . S
C1748 H1772 0.950 . S
C1749 C1766 1.574 . S
C1749 C1768 1.368 . S
C1749 H1773 0.949 . S
H1750 C1754 0.949 1_565 S
C1751 C1752 1.349 1_545 S
C1751 C1753 1.327 . S
C1751 H1774 0.950 . S
C1752 C1751 1.349 1_565 S
C1752 C1764 1.349 . S
C1753 C1751 1.327 . S
C1753 C1769 1.429 . S
C1753 H1775 0.950 . S
C1754 H1750 0.949 1_545 S
C1754 C1762 1.574 . S
C1754 C1770 1.368 . S
H1755 C1763 0.950 . S
H1756 C1761 0.950 . S
H1757 C1762 0.949 . S
H1758 C1764 0.950 . S
H1759 C1765 0.950 . S
H1760 C1766 0.949 . S
C1761 H1756 0.950 . S
C1761 C1763 1.327 . S
C1761 C1767 1.429 . S
C1762 C1754 1.574 . S
C1762 H1757 0.949 . S
C1762 C1768 1.368 . S
C1763 C1747 1.349 . S
C1763 H1755 0.950 . S
C1763 C1761 1.327 . S
C1764 C1752 1.349 . S
C1764 H1758 0.950 . S
C1764 C1765 1.327 . S
C1765 H1759 0.950 . S
C1765 C1764 1.327 . S
C1765 C1769 1.429 1_565 S
C1766 C1749 1.574 . S
C1766 H1760 0.949 . S
C1766 C1770 1.368 . S
C1767 C1748 1.429 . S
C1767 C1761 1.429 . S
C1767 C1768 1.523 . S
C1768 C1749 1.368 . S
C1768 C1762 1.368 . S
C1768 C1767 1.523 . S
C1769 C1753 1.429 . S
C1769 C1765 1.429 1_545 S
C1769 C1770 1.523 . S
C1770 C1754 1.368 . S
C1770 C1766 1.368 . S
C1770 C1769 1.523 . S
H1771 C1746 0.950 . S
H1772 C1748 0.950 . S
H1773 C1749 0.949 . S
H1774 C1751 0.950 . S
H1775 C1753 0.950 . S
C1776 C1777 1.349 . S
C1776 C1778 1.327 1_455 S
C1776 H1801 0.950 . S
C1777 C1776 1.349 . S
C1777 C1793 1.349 1_455 S
C1778 C1776 1.327 1_655 S
C1778 C1797 1.429 . S
C1778 H1802 0.950 . S
C1779 C1796 1.574 . S
C1779 C1798 1.368 . S
C1779 H1803 0.949 . S
H1780 C1784 0.949 . S
C1781 C1782 1.349 . S
C1781 C1783 1.327 . S
C1781 H1804 0.950 . S
C1782 C1781 1.349 . S
C1782 C1794 1.349 . S
C1783 C1781 1.327 . S
C1783 C1799 1.429 . S
C1783 H1805 0.950 . S
C1784 H1780 0.949 . S
C1784 C1792 1.574 . S
C1784 C1800 1.368 . S
H1785 C1793 0.949 1_455 S
H1786 C1791 0.950 . S
H1787 C1792 0.949 . S
H1788 C1794 0.950 . S
H1789 C1795 0.950 . S
H1790 C1796 0.949 . S
C1791 H1786 0.950 . S
C1791 C1793 1.327 . S
C1791 C1797 1.429 . S
C1792 C1784 1.574 . S
C1792 H1787 0.949 . S
C1792 C1798 1.368 . S
C1793 C1777 1.349 1_655 S
C1793 H1785 0.949 1_655 S
C1793 C1791 1.327 . S
C1794 C1782 1.349 . S
C1794 H1788 0.950 . S
C1794 C1795 1.327 . S
C1795 H1789 0.950 . S
C1795 C1794 1.327 . S
C1795 C1799 1.429 . S
C1796 C1779 1.574 . S
C1796 H1790 0.949 . S
C1796 C1800 1.368 . S
C1797 C1778 1.429 . S
C1797 C1791 1.429 . S
C1797 C1798 1.523 . S
C1798 C1779 1.368 . S
C1798 C1792 1.368 . S
C1798 C1797 1.523 . S
C1799 C1783 1.429 . S
C1799 C1795 1.429 . S
C1799 C1800 1.523 . S
C1800 C1784 1.368 . S
C1800 C1796 1.368 . S
C1800 C1799 1.523 . S
H1801 C1776 0.950 . S
H1802 C1778 0.950 . S
H1803 C1779 0.949 . S
H1804 C1781 0.950 . S
H1805 C1783 0.950 . S
C1806 C1807 1.349 . S
C1806 C1808 1.327 . S
C1806 H1831 0.950 . S
C1807 C1806 1.349 . S
C1807 C1823 1.349 . S
C1808 C1806 1.327 . S
C1808 C1827 1.429 . S
C1808 H1832 0.950 . S
C1809 C1826 1.574 . S
C1809 C1828 1.368 . S
C1809 H1833 0.949 . S
H1810 C1814 0.949 . S
C1811 C1812 1.349 . S
C1811 C1813 1.327 . S
C1811 H1834 0.950 . S
C1812 C1811 1.349 . S
C1812 C1824 1.349 . S
C1813 C1811 1.327 . S
C1813 C1829 1.429 . S
C1813 H1835 0.950 . S
C1814 H1810 0.949 . S
C1814 C1822 1.574 . S
C1814 C1830 1.368 . S
H1815 C1823 0.950 . S
H1816 C1821 0.950 . S
H1817 C1822 0.949 . S
H1818 C1824 0.950 . S
H1819 C1825 0.950 . S
H1820 C1826 0.949 . S
C1821 H1816 0.950 . S
C1821 C1823 1.327 . S
C1821 C1827 1.429 . S
C1822 C1814 1.574 . S
C1822 H1817 0.949 . S
C1822 C1828 1.368 . S
C1823 C1807 1.349 . S
C1823 H1815 0.950 . S
C1823 C1821 1.327 . S
C1824 C1812 1.349 . S
C1824 H1818 0.950 . S
C1824 C1825 1.327 . S
C1825 H1819 0.950 . S
C1825 C1824 1.327 . S
C1825 C1829 1.429 . S
C1826 C1809 1.574 . S
C1826 H1820 0.949 . S
C1826 C1830 1.368 . S
C1827 C1808 1.429 . S
C1827 C1821 1.429 . S
C1827 C1828 1.523 . S
C1828 C1809 1.368 . S
C1828 C1822 1.368 . S
C1828 C1827 1.523 . S
C1829 C1813 1.429 . S
C1829 C1825 1.429 . S
C1829 C1830 1.523 . S
C1830 C1814 1.368 . S
C1830 C1826 1.368 . S
C1830 C1829 1.523 . S
H1831 C1806 0.950 . S
H1832 C1808 0.950 . S
H1833 C1809 0.949 . S
H1834 C1811 0.950 . S
H1835 C1813 0.950 . S
C1836 C1837 1.349 . S
C1836 C1838 1.327 . S
C1836 H1861 0.950 . S
C1837 C1836 1.349 . S
C1837 C1853 1.349 . S
C1838 C1836 1.327 . S
C1838 C1857 1.429 . S
C1838 H1862 0.950 . S
C1839 C1856 1.574 . S
C1839 C1858 1.368 . S
C1839 H1863 0.949 . S
H1840 C1844 0.949 . S
C1841 C1842 1.344 1_565 S
C1841 C1843 1.348 . S
C1841 H1864 0.934 1_565 S
C1842 C1841 1.344 1_545 S
C1842 C1854 1.349 . S
C1843 C1841 1.348 . S
C1843 C1859 1.429 . S
C1843 H1865 0.950 . S
C1844 H1840 0.949 . S
C1844 C1852 1.574 . S
C1844 C1860 1.368 . S
H1845 C1853 0.950 . S
H1846 C1851 0.950 . S
H1847 C1852 0.949 . S
H1848 C1854 0.950 . S
H1849 C1855 0.950 . S
H1850 C1856 0.949 . S
C1851 H1846 0.950 . S
C1851 C1853 1.327 . S
C1851 C1857 1.429 . S
C1852 C1844 1.574 . S
C1852 H1847 0.949 . S
C1852 C1858 1.368 . S
C1853 C1837 1.349 . S
C1853 H1845 0.950 . S
C1853 C1851 1.327 . S
C1854 C1842 1.349 . S
C1854 H1848 0.950 . S
C1854 C1855 1.327 1_545 S
C1855 H1849 0.950 . S
C1855 C1854 1.327 1_565 S
C1855 C1859 1.429 . S
C1856 C1839 1.574 . S
C1856 H1850 0.949 . S
C1856 C1860 1.368 . S
C1857 C1838 1.429 . S
C1857 C1851 1.429 . S
C1857 C1858 1.523 . S
C1858 C1839 1.368 . S
C1858 C1852 1.368 . S
C1858 C1857 1.523 . S
C1859 C1843 1.429 . S
C1859 C1855 1.429 . S
C1859 C1860 1.523 . S
C1860 C1844 1.368 . S
C1860 C1856 1.368 . S
C1860 C1859 1.523 . S
H1861 C1836 0.950 . S
H1862 C1838 0.950 . S
H1863 C1839 0.949 . S
H1864 C1841 0.934 1_545 S
H1865 C1843 0.950 . S
C1866 C1867 1.349 . S
C1866 C1868 1.327 . S
C1866 H1891 0.950 . S
C1867 C1866 1.349 . S
C1867 C1883 1.349 . S
C1868 C1866 1.327 . S
C1868 C1887 1.429 . S
C1868 H1892 0.950 . S
C1869 C1886 1.574 . S
C1869 C1888 1.368 . S
C1869 H1893 0.949 . S
H1870 C1874 0.949 . S
C1871 C1872 1.349 . S
C1871 C1873 1.327 1_655 S
C1871 H1894 0.950 . S
C1872 C1871 1.349 . S
C1872 C1884 1.349 1_655 S
C1873 C1871 1.327 1_455 S
C1873 C1889 1.429 . S
C1873 H1895 0.950 . S
C1874 H1870 0.949 . S
C1874 C1882 1.574 . S
C1874 C1890 1.368 . S
H1875 C1883 0.950 . S
H1876 C1881 0.950 . S
H1877 C1882 0.949 . S
H1878 C1884 0.950 . S
H1879 C1885 0.950 . S
H1880 C1886 0.949 . S
C1881 H1876 0.950 . S
C1881 C1883 1.327 . S
C1881 C1887 1.429 . S
C1882 C1874 1.574 . S
C1882 H1877 0.949 . S
C1882 C1888 1.368 . S
C1883 C1867 1.349 . S
C1883 H1875 0.950 . S
C1883 C1881 1.327 . S
C1884 C1872 1.349 1_455 S
C1884 H1878 0.950 . S
C1884 C1885 1.327 . S
C1885 H1879 0.950 . S
C1885 C1884 1.327 . S
C1885 C1889 1.429 . S
C1886 C1869 1.574 . S
C1886 H1880 0.949 . S
C1886 C1890 1.368 . S
C1887 C1868 1.429 . S
C1887 C1881 1.429 . S
C1887 C1888 1.523 . S
C1888 C1869 1.368 . S
C1888 C1882 1.368 . S
C1888 C1887 1.523 . S
C1889 C1873 1.429 . S
C1889 C1885 1.429 . S
C1889 C1890 1.523 . S
C1890 C1874 1.368 . S
C1890 C1886 1.368 . S
C1890 C1889 1.523 . S
H1891 C1866 0.950 . S
H1892 C1868 0.950 . S
H1893 C1869 0.949 . S
H1894 C1871 0.950 . S
H1895 C1873 0.950 . S
C1896 C1897 1.349 . S
C1896 C1898 1.327 . S
C1896 H1921 0.950 . S
C1897 C1896 1.349 . S
C1897 C1913 1.349 . S
C1898 C1896 1.327 . S
C1898 C1917 1.429 . S
C1898 H1922 0.950 . S
C1899 C1916 1.574 . S
C1899 C1918 1.368 . S
C1899 H1923 0.949 . S
H1900 C1904 0.949 . S
C1901 C1902 1.349 . S
C1901 C1903 1.327 . S
C1901 H1924 0.950 . S
C1902 C1901 1.349 . S
C1902 C1914 1.349 . S
C1903 C1901 1.327 . S
C1903 C1919 1.429 . S
C1903 H1925 0.950 . S
C1904 H1900 0.949 . S
C1904 C1912 1.574 . S
C1904 C1920 1.368 . S
H1905 C1913 0.950 . S
H1906 C1911 0.950 . S
H1907 C1912 0.949 . S
H1908 C1914 0.950 . S
H1909 C1915 0.950 . S
H1910 C1916 0.949 . S
C1911 H1906 0.950 . S
C1911 C1913 1.327 . S
C1911 C1917 1.429 . S
C1912 C1904 1.574 . S
C1912 H1907 0.949 . S
C1912 C1918 1.368 . S
C1913 C1897 1.349 . S
C1913 H1905 0.950 . S
C1913 C1911 1.327 . S
C1914 C1902 1.349 . S
C1914 H1908 0.950 . S
C1914 C1915 1.327 . S
C1915 H1909 0.950 . S
C1915 C1914 1.327 . S
C1915 C1919 1.429 . S
C1916 C1899 1.574 . S
C1916 H1910 0.949 . S
C1916 C1920 1.368 . S
C1917 C1898 1.429 . S
C1917 C1911 1.429 . S
C1917 C1918 1.523 . S
C1918 C1899 1.368 . S
C1918 C1912 1.368 . S
C1918 C1917 1.523 . S
C1919 C1903 1.429 . S
C1919 C1915 1.429 . S
C1919 C1920 1.523 . S
C1920 C1904 1.368 . S
C1920 C1916 1.368 . S
C1920 C1919 1.523 . S
H1921 C1896 0.950 . S
H1922 C1898 0.950 . S
H1923 C1899 0.949 . S
H1924 C1901 0.950 . S
H1925 C1903 0.950 . S
C1926 C1927 1.349 1_455 S
C1926 C1928 1.327 . S
C1926 H1951 0.950 . S
C1927 C1926 1.349 1_655 S
C1927 C1943 1.349 . S
C1928 C1926 1.327 . S
C1928 C1947 1.429 . S
C1928 H1952 0.950 . S
C1929 C1946 1.574 . S
C1929 C1948 1.368 . S
C1929 H1953 0.949 1_455 S
H1930 C1934 0.949 . S
C1931 C1932 1.349 . S
C1931 C1933 1.327 . S
C1931 H1954 0.950 . S
C1932 C1931 1.349 . S
C1932 C1944 1.349 . S
C1933 C1931 1.327 . S
C1933 C1949 1.429 . S
C1933 H1955 0.950 . S
C1934 H1930 0.949 . S
C1934 C1942 1.574 . S
C1934 C1950 1.368 . S
H1935 C1943 0.950 . S
H1936 C1941 0.950 . S
H1937 C1942 0.949 . S
H1938 C1944 0.950 . S
H1939 C1945 0.950 . S
H1940 C1946 0.949 . S
C1941 H1936 0.950 . S
C1941 C1943 1.327 . S
C1941 C1947 1.429 1_655 S
C1942 C1934 1.574 . S
C1942 H1937 0.949 . S
C1942 C1948 1.368 . S
C1943 C1927 1.349 . S
C1943 H1935 0.950 . S
C1943 C1941 1.327 . S
C1944 C1932 1.349 . S
C1944 H1938 0.950 . S
C1944 C1945 1.327 . S
C1945 H1939 0.950 . S
C1945 C1944 1.327 . S
C1945 C1949 1.429 . S
C1946 C1929 1.574 . S
C1946 H1940 0.949 . S
C1946 C1950 1.368 . S
C1947 C1928 1.429 . S
C1947 C1941 1.429 1_455 S
C1947 C1948 1.523 . S
C1948 C1929 1.368 . S
C1948 C1942 1.368 . S
C1948 C1947 1.523 . S
C1949 C1933 1.429 . S
C1949 C1945 1.429 . S
C1949 C1950 1.523 . S
C1950 C1934 1.368 . S
C1950 C1946 1.368 . S
C1950 C1949 1.523 . S
H1951 C1926 0.950 . S
H1952 C1928 0.950 . S
H1953 C1929 0.949 1_655 S
H1954 C1931 0.950 . S
H1955 C1933 0.950 . S
C1956 C1957 1.349 . S
C1956 C1958 1.327 . S
C1956 H1981 0.950 . S
C1957 C1956 1.349 . S
C1957 C1973 1.349 . S
C1958 C1956 1.327 . S
C1958 C1977 1.429 . S
C1958 H1982 0.950 . S
C1959 C1976 1.574 . S
C1959 C1978 1.368 . S
C1959 H1983 0.949 . S
H1960 C1964 0.949 . S
C1961 C1962 1.349 . S
C1961 C1963 1.327 . S
C1961 H1984 0.950 . S
C1962 C1961 1.349 . S
C1962 C1974 1.349 . S
C1963 C1961 1.327 . S
C1963 C1979 1.429 . S
C1963 H1985 0.950 . S
C1964 H1960 0.949 . S
C1964 C1972 1.574 . S
C1964 C1980 1.368 . S
H1965 C1973 0.950 . S
H1966 C1971 0.950 . S
H1967 C1972 0.949 . S
H1968 C1974 0.950 . S
H1969 C1975 0.950 . S
H1970 C1976 0.949 . S
C1971 H1966 0.950 . S
C1971 C1973 1.327 . S
C1971 C1977 1.429 . S
C1972 C1964 1.574 . S
C1972 H1967 0.949 . S
C1972 C1978 1.368 . S
C1973 C1957 1.349 . S
C1973 H1965 0.950 . S
C1973 C1971 1.327 . S
C1974 C1962 1.349 . S
C1974 H1968 0.950 . S
C1974 C1975 1.327 . S
C1975 H1969 0.950 . S
C1975 C1974 1.327 . S
C1975 C1979 1.429 . S
C1976 C1959 1.574 . S
C1976 H1970 0.949 . S
C1976 C1980 1.368 . S
C1977 C1958 1.429 . S
C1977 C1971 1.429 . S
C1977 C1978 1.523 . S
C1978 C1959 1.368 . S
C1978 C1972 1.368 . S
C1978 C1977 1.523 . S
C1979 C1963 1.429 . S
C1979 C1975 1.429 . S
C1979 C1980 1.523 . S
C1980 C1964 1.368 . S
C1980 C1976 1.368 . S
C1980 C1979 1.523 . S
H1981 C1956 0.950 . S
H1982 C1958 0.950 . S
H1983 C1959 0.949 . S
H1984 C1961 0.950 . S
H1985 C1963 0.950 . S
C1986 C1987 1.349 . S
C1986 C1988 1.327 . S
C1986 H2011 0.950 . S
C1987 C1986 1.349 . S
C1987 C2003 1.349 . S
C1988 C1986 1.327 . S
C1988 C2007 1.429 . S
C1988 H2012 0.950 . S
C1989 C2006 1.574 . S
C1989 C2008 1.368 . S
C1989 H2013 0.949 . S
H1990 C1994 0.949 . S
C1991 C1992 1.349 . S
C1991 C1993 1.327 . S
C1991 H2014 0.950 . S
C1992 C1991 1.349 . S
C1992 C2004 1.349 1_545 S
C1993 C1991 1.327 . S
C1993 C2009 1.429 1_545 S
C1993 H2015 0.950 . S
C1994 H1990 0.949 . S
C1994 C2002 1.574 . S
C1994 C2010 1.368 . S
H1995 C2003 0.950 . S
H1996 C2001 0.950 . S
H1997 C2002 0.949 . S
H1998 C2004 0.950 . S
H1999 C2005 0.950 . S
H2000 C2006 0.949 1_545 S
C2001 H1996 0.950 . S
C2001 C2003 1.327 . S
C2001 C2007 1.429 . S
C2002 C1994 1.574 . S
C2002 H1997 0.949 . S
C2002 C2008 1.368 . S
C2003 C1987 1.349 . S
C2003 H1995 0.950 . S
C2003 C2001 1.327 . S
C2004 C1992 1.349 1_565 S
C2004 H1998 0.950 . S
C2004 C2005 1.327 . S
C2005 H1999 0.950 . S
C2005 C2004 1.327 . S
C2005 C2009 1.429 . S
C2006 C1989 1.574 . S
C2006 H2000 0.949 1_565 S
C2006 C2010 1.368 . S
C2007 C1988 1.429 . S
C2007 C2001 1.429 . S
C2007 C2008 1.523 . S
C2008 C1989 1.368 . S
C2008 C2002 1.368 . S
C2008 C2007 1.523 . S
C2009 C1993 1.429 1_565 S
C2009 C2005 1.429 . S
C2009 C2010 1.523 . S
C2010 C1994 1.368 . S
C2010 C2006 1.368 . S
C2010 C2009 1.523 . S
H2011 C1986 0.950 . S
H2012 C1988 0.950 . S
H2013 C1989 0.949 . S
H2014 C1991 0.950 . S
H2015 C1993 0.950 . S
C397 C59 0.897 . S
C402 C8 0.900 . S
C427 C30 0.900 . S
C432 C21 0.897 . S
C457 C43 0.898 . S
C462 C54 0.900 . S
C487 C84 0.900 . S
C492 C103 0.897 . S
C517 C125 0.898 . S
C522 C98 0.900 . S
C547 C120 0.900 . S
C552 C73 0.897 . S
C577 C191 0.897 . S
C582 C140 0.900 . S
C607 C153 0.898 . S
C612 C172 0.900 . S
C637 C161 0.898 . S
C642 C186 0.900 . S
C667 C235 0.898 . S
C672 C208 0.900 . S
C697 C230 0.900 . S
C702 C257 0.897 . S
C727 C213 0.897 . S
C732 C252 0.900 . S
C757 C274 0.900 . S
C762 C323 0.898 . S
C787 C279 0.897 . S
C792 C294 0.900 . S
C817 C307 0.897 . S
C822 C318 0.900 . S
C847 C359 0.897 . S
C852 C348 0.900 . S
C877 C389 0.898 . S
C882 C370 0.900 . S
C907 C384 0.900 . S
C912 C337 0.898 . S
C937 C18 0.847 . S
C942 C206 0.847 . S
C967 C40 0.847 . S
C972 C228 0.847 . S
C997 C250 0.847 . S
C1002 C52 0.847 . S
C1027 C76 0.847 . S
C1032 C272 0.847 . S
C1057 C304 0.847 . S
C1062 C96 0.847 . S
C1087 C316 0.847 . S
C1092 C118 0.847 . S
C1117 C293 0.949 . S
C1122 C131 0.949 . S
C1147 C81 0.949 . S
C1152 C329 0.949 . S
C1177 C285 0.949 . S
C1182 C109 0.949 . S
C1207 C29 0.949 . S
C1212 C263 0.949 . S
C1237 C65 0.949 . S
C1242 C219 0.949 . S
C1267 C241 0.949 . S
C1272 C7 0.949 . S
C1297 C340 0.847 . S
C1302 C150 0.847 . S
C1327 C164 0.847 . S
C1332 C362 0.847 . S
C1357 C382 0.847 . S
C1362 C184 0.847 . S
C1387 C395 0.949 . S
C1392 C169 0.949 . S
C1417 C197 0.949 . S
C1422 C345 0.949 . S
C1447 C367 0.949 . S
C1452 C139 0.949 . S
C1477 C15 1.282 . S
C1482 C87 1.282 . S
C1507 C95 1.282 . S
C1512 C37 1.282 . S
C1537 C117 1.282 . S
C1542 C51 1.282 . S
C1567 C32 1.140 . S
C1572 C128 1.140 . S
C1597 C62 1.141 . S
C1602 C74 1.141 . S
C1627 C106 1.141 . S
C1632 C10 1.141 . S
C1657 C147 1.282 . S
C1662 C205 1.282 . S
C1687 C227 1.282 . S
C1692 C175 1.282 . S
C1717 C249 1.282 . S
C1722 C183 1.282 . S
C1747 C162 1.140 . S
C1752 C260 1.140 . S
C1777 C216 1.140 . S
C1782 C194 1.140 . S
C1807 C142 1.140 . S
C1812 C238 1.140 . S
C1837 C351 1.282 . S
C1842 C271 1.282 . S
C1867 C373 1.282 . S
C1872 C301 1.282 . S
C1897 C381 1.282 . S
C1902 C315 1.282 . S
C1927 C296 1.140 . S
C1932 C392 1.140 . S
C1957 C326 1.140 . S
C1962 C338 1.140 . S
C1987 C360 1.140 . S
C1992 C282 1.140 . S
