# Generated by pormake.
# Topology osc, (6)-cn, num edge types: 1
# Building blocks:
#     Node 0, Type 0, BuildingBlock: IZENUY_clean_sbu_0, # of connection points: 6
#     Node 1, Type 0, BuildingBlock: IZENUY_clean_sbu_0, # of connection points: 6
#     Node 2, Type 0, BuildingBlock: IZENUY_clean_sbu_0, # of connection points: 6
#     Node 3, Type 0, BuildingBlock: IZENUY_clean_sbu_0, # of connection points: 6
#     Node 4, Type 0, BuildingBlock: IZENUY_clean_sbu_0, # of connection points: 6
#     Node 5, Type 0, BuildingBlock: IZENUY_clean_sbu_0, # of connection points: 6
#     Node 6, Type 0, BuildingBlock: IZENUY_clean_sbu_0, # of connection points: 6
#     Node 7, Type 0, BuildingBlock: IZENUY_clean_sbu_0, # of connection points: 6
#     Edge 8, Type (0, 0), BuildingBlock: OJICUG_clean_linker_0, # of connection points: 2
#     Edge 9, Type (0, 0), BuildingBlock: OJICUG_clean_linker_0, # of connection points: 2
#     Edge 10, Type (0, 0), BuildingBlock: OJICUG_clean_linker_0, # of connection points: 2
#     Edge 11, Type (0, 0), BuildingBlock: OJICUG_clean_linker_0, # of connection points: 2
#     Edge 12, Type (0, 0), BuildingBlock: OJICUG_clean_linker_0, # of connection points: 2
#     Edge 13, Type (0, 0), BuildingBlock: OJICUG_clean_linker_0, # of connection points: 2
#     Edge 14, Type (0, 0), BuildingBlock: OJICUG_clean_linker_0, # of connection points: 2
#     Edge 15, Type (0, 0), BuildingBlock: OJICUG_clean_linker_0, # of connection points: 2
#     Edge 16, Type (0, 0), BuildingBlock: OJICUG_clean_linker_0, # of connection points: 2
#     Edge 17, Type (0, 0), BuildingBlock: OJICUG_clean_linker_0, # of connection points: 2
#     Edge 18, Type (0, 0), BuildingBlock: OJICUG_clean_linker_0, # of connection points: 2
#     Edge 19, Type (0, 0), BuildingBlock: OJICUG_clean_linker_0, # of connection points: 2
#     Edge 20, Type (0, 0), BuildingBlock: OJICUG_clean_linker_0, # of connection points: 2
#     Edge 21, Type (0, 0), BuildingBlock: OJICUG_clean_linker_0, # of connection points: 2
#     Edge 22, Type (0, 0), BuildingBlock: OJICUG_clean_linker_0, # of connection points: 2
#     Edge 23, Type (0, 0), BuildingBlock: OJICUG_clean_linker_0, # of connection points: 2
#     Edge 24, Type (0, 0), BuildingBlock: OJICUG_clean_linker_0, # of connection points: 2
#     Edge 25, Type (0, 0), BuildingBlock: OJICUG_clean_linker_0, # of connection points: 2
#     Edge 26, Type (0, 0), BuildingBlock: OJICUG_clean_linker_0, # of connection points: 2
#     Edge 27, Type (0, 0), BuildingBlock: OJICUG_clean_linker_0, # of connection points: 2
#     Edge 28, Type (0, 0), BuildingBlock: OJICUG_clean_linker_0, # of connection points: 2
#     Edge 29, Type (0, 0), BuildingBlock: OJICUG_clean_linker_0, # of connection points: 2
#     Edge 30, Type (0, 0), BuildingBlock: OJICUG_clean_linker_0, # of connection points: 2
#     Edge 31, Type (0, 0), BuildingBlock: OJICUG_clean_linker_0, # of connection points: 2
# Relax obj value: 0.251
# Max RMSD: 0.250
# Mean RMSD: 0.249
data_MOF--net-osc--node1-IZENUY_clean_sbu_0--edge1-OJICUG_clean_linker_0
_symmetry_space_group_name_H-M    P1
_symmetry_Int_Tables_number       1
_symmetry_cell_setting            triclinic
loop_
_symmetry_equiv_pos_as_xyz
'x, y, z'
_cell_length_a     21.482803
_cell_length_b     34.585769
_cell_length_c     18.964646
_cell_angle_alpha  90.022764
_cell_angle_beta   90.001794
_cell_angle_gamma 89.977422
loop_
_atom_site_label
_atom_site_type_symbol
_atom_site_fract_x
_atom_site_fract_y
_atom_site_fract_z
_atom_type_partial_charge
Fe0 Fe 0.26999 0.0576 0.40029 0.0
Fe1 Fe 0.29432 0.11877 0.28684 0.0
O2 O 0.30599 0.10081 0.37297 0.0
Fe3 Fe 0.35414 0.12719 0.43135 0.0
O4 O 0.40775 0.08815 0.4371 0.0
O5 O 0.33909 0.04162 0.45425 0.0
O6 O 0.30207 0.02941 0.32807 0.0
C7 C 0.29289 0.03734 0.26421 0.0
C8 C 0.26197 0.09577 0.52432 0.0
O9 O 0.27965 0.07146 0.24555 0.0
C10 C 0.29449 0.18698 0.37011 0.0
O11 O 0.19653 0.06807 0.35153 0.0
O12 O 0.21349 0.12554 0.30373 0.0
O13 O 0.31469 0.11137 0.5141 0.0
O14 O 0.2331 0.08159 0.47327 0.0
C15 C 0.41808 0.12743 0.30342 0.0
O16 O 0.3047 0.17012 0.31161 0.0
O17 O 0.30277 0.16886 0.42721 0.0
C18 C 0.17666 0.09964 0.3245 0.0
O19 O 0.37568 0.11192 0.26741 0.0
O20 O 0.40466 0.14539 0.35996 0.0
C21 C 0.39517 0.05438 0.45601 0.0
Fe22 Fe 0.22542 0.9837 0.90021 0.0
Fe23 Fe 0.20111 0.92248 0.78674 0.0
O24 O 0.18943 0.94048 0.87287 0.0
Fe25 Fe 0.14126 0.91413 0.93123 0.0
O26 O 0.08766 0.95318 0.93697 0.0
O27 O 0.15632 0.99969 0.95418 0.0
O28 O 0.19334 1.01186 0.82799 0.0
C29 C 0.20255 1.00391 0.76413 0.0
C30 C 0.23344 0.94556 1.02423 0.0
O31 O 0.21579 0.96979 0.74547 0.0
C32 C 0.20092 0.85432 0.87002 0.0
O33 O 0.29888 0.97321 0.85146 0.0
O34 O 0.28194 0.91573 0.80365 0.0
O35 O 0.1807 0.92997 1.014 0.0
O36 O 0.2623 0.95973 0.97319 0.0
C37 C 0.07735 0.91384 0.80329 0.0
O38 O 0.19073 0.87115 0.81151 0.0
O39 O 0.19263 0.87246 0.92711 0.0
C40 C 0.31876 0.94164 0.82443 0.0
O41 O 0.11975 0.92933 0.76729 0.0
O42 O 0.09076 0.8959 0.85982 0.0
C43 C 0.10024 0.98695 0.95592 0.0
Fe44 Fe 0.76998 0.4837 0.16569 0.0
Fe45 Fe 0.79432 0.42256 0.27921 0.0
O46 O 0.80604 0.44051 0.19309 0.0
Fe47 Fe 0.85429 0.41412 0.13479 0.0
O48 O 0.90784 0.45318 0.12909 0.0
O49 O 0.8391 0.49967 0.11179 0.0
O50 O 0.80195 0.51192 0.23793 0.0
C51 C 0.79274 0.50399 0.30179 0.0
C52 C 0.76215 0.4455 0.04168 0.0
O53 O 0.77953 0.46988 0.32045 0.0
C54 C 0.79465 0.35435 0.19599 0.0
O55 O 0.69649 0.47322 0.21438 0.0
O56 O 0.71352 0.41578 0.26223 0.0
O57 O 0.8149 0.42992 0.05198 0.0
O58 O 0.7332 0.45968 0.09268 0.0
C59 C 0.91811 0.41391 0.26281 0.0
O60 O 0.8048 0.37121 0.25449 0.0
O61 O 0.80298 0.37245 0.13889 0.0
C62 C 0.67666 0.44166 0.2414 0.0
O63 O 0.87566 0.42943 0.29874 0.0
O64 O 0.90476 0.39594 0.20626 0.0
C65 C 0.89521 0.48694 0.11011 0.0
Fe66 Fe 0.70114 0.6188 0.77931 0.0
Fe67 Fe 0.64114 0.62717 0.6349 0.0
O68 O 0.68941 0.60082 0.69319 0.0
Fe69 Fe 0.72545 0.55761 0.66577 0.0
O70 O 0.69348 0.52943 0.73801 0.0
O71 O 0.71594 0.57149 0.82053 0.0
O72 O 0.6198 0.61193 0.79886 0.0
C73 C 0.57734 0.62743 0.76292 0.0
C74 C 0.81879 0.59968 0.74147 0.0
O75 O 0.59068 0.64538 0.70638 0.0
C76 C 0.73328 0.59578 0.54178 0.0
O77 O 0.69066 0.67014 0.75459 0.0
O78 O 0.69245 0.66885 0.63899 0.0
O79 O 0.79894 0.5681 0.71446 0.0
O80 O 0.78194 0.62557 0.76231 0.0
C81 C 0.60023 0.55435 0.6102 0.0
O82 O 0.68052 0.61135 0.55208 0.0
O83 O 0.76223 0.58161 0.59276 0.0
C84 C 0.70079 0.68698 0.69608 0.0
O85 O 0.5876 0.58811 0.62921 0.0
O86 O 0.65634 0.54162 0.61187 0.0
C87 C 0.70273 0.53737 0.80186 0.0
Fe88 Fe 0.72543 0.98371 0.66586 0.0
Fe89 Fe 0.6413 0.91411 0.63479 0.0
O90 O 0.68944 0.9405 0.69318 0.0
Fe91 Fe 0.70111 0.92253 0.7793 0.0
O92 O 0.71578 0.96985 0.82059 0.0
O93 O 0.69334 1.0119 0.73808 0.0
O94 O 0.65634 0.99968 0.61189 0.0
C95 C 0.60026 0.98692 0.6101 0.0
C96 C 0.81876 0.94167 0.74164 0.0
O97 O 0.58769 0.95316 0.62903 0.0
C98 C 0.70094 0.85433 0.69603 0.0
O99 O 0.76233 0.95972 0.59288 0.0
O100 O 0.68075 0.92993 0.55204 0.0
O101 O 0.78193 0.91577 0.76242 0.0
O102 O 0.79889 0.97324 0.71463 0.0
C103 C 0.57735 0.91387 0.76272 0.0
O104 O 0.69267 0.87245 0.63894 0.0
O105 O 0.69073 0.87119 0.75453 0.0
C106 C 0.73348 0.94553 0.54183 0.0
O107 O 0.59077 0.89592 0.70618 0.0
O108 O 0.61974 0.92939 0.79873 0.0
C109 C 0.70252 1.00396 0.80194 0.0
Fe110 Fe 0.79431 0.11882 0.27939 0.0
Fe111 Fe 0.77001 0.05761 0.16592 0.0
O112 O 0.806 0.10083 0.19327 0.0
Fe113 Fe 0.85417 0.12718 0.13491 0.0
O114 O 0.90467 0.1454 0.20633 0.0
O115 O 0.87568 0.11197 0.29886 0.0
O116 O 0.77964 0.07151 0.32066 0.0
C117 C 0.79288 0.03739 0.302 0.0
C118 C 0.79451 0.18699 0.19612 0.0
O119 O 0.80209 0.02944 0.23814 0.0
C120 C 0.76199 0.09577 0.04191 0.0
O121 O 0.71349 0.12558 0.26248 0.0
O122 O 0.69655 0.06809 0.21467 0.0
O123 O 0.8028 0.16885 0.13904 0.0
O124 O 0.80469 0.17016 0.25463 0.0
C125 C 0.89519 0.05437 0.11019 0.0
O126 O 0.73313 0.08158 0.09294 0.0
O127 O 0.81473 0.11134 0.05215 0.0
C128 C 0.67666 0.09967 0.24169 0.0
O129 O 0.83911 0.04162 0.11195 0.0
O130 O 0.90777 0.08813 0.12917 0.0
C131 C 0.91808 0.12747 0.26286 0.0
Fe132 Fe 0.20114 0.61875 0.7869 0.0
Fe133 Fe 0.22547 0.5576 0.90043 0.0
O134 O 0.18942 0.6008 0.87302 0.0
Fe135 Fe 0.14117 0.62719 0.93132 0.0
O136 O 0.0907 0.64537 0.85985 0.0
O137 O 0.1198 0.61188 0.76737 0.0
O138 O 0.21593 0.57142 0.74567 0.0
C139 C 0.20272 0.53732 0.76433 0.0
C140 C 0.20081 0.68696 0.87013 0.0
O141 O 0.19349 0.52939 0.82819 0.0
C142 C 0.23331 0.59582 1.02444 0.0
O143 O 0.28194 0.62553 0.80389 0.0
O144 O 0.29896 0.56808 0.85174 0.0
O145 O 0.19248 0.66886 0.92722 0.0
O146 O 0.19066 0.6701 0.81162 0.0
C147 C 0.10025 0.55438 0.95604 0.0
O148 O 0.26225 0.58162 0.97344 0.0
O149 O 0.18056 0.61139 1.01413 0.0
C150 C 0.3188 0.59965 0.82473 0.0
O151 O 0.15635 0.54163 0.95433 0.0
O152 O 0.08762 0.58813 0.93703 0.0
C153 C 0.07735 0.6274 0.80331 0.0
Fe154 Fe 0.27001 0.4837 0.40035 0.0
Fe155 Fe 0.35432 0.41413 0.43121 0.0
O156 O 0.30605 0.44049 0.37293 0.0
Fe157 Fe 0.29431 0.42251 0.28681 0.0
O158 O 0.27951 0.46982 0.24559 0.0
O159 O 0.30198 0.51188 0.32811 0.0
O160 O 0.33912 0.49968 0.45425 0.0
C161 C 0.39523 0.48694 0.45594 0.0
C162 C 0.17666 0.44163 0.32466 0.0
O163 O 0.40786 0.45319 0.43691 0.0
C164 C 0.29467 0.35433 0.37004 0.0
O165 O 0.23323 0.4597 0.47336 0.0
O166 O 0.31494 0.42995 0.51403 0.0
O167 O 0.21352 0.41574 0.30381 0.0
O168 O 0.19652 0.4732 0.35167 0.0
C169 C 0.41811 0.41387 0.30319 0.0
O170 O 0.30301 0.37246 0.42713 0.0
O171 O 0.3048 0.37117 0.31153 0.0
C172 C 0.26218 0.44551 0.52434 0.0
O173 O 0.40478 0.39592 0.35973 0.0
O174 O 0.37565 0.42938 0.26725 0.0
C175 C 0.29274 0.50394 0.26426 0.0
C176 C 0.55921 0.03071 0.51525 0.0
C177 C 0.5485 1.00723 0.57402 0.0
H178 H 0.51882 0.06234 0.42987 0.0
C179 C 0.4864 0.99739 0.59138 0.0
H180 H 0.60625 0.03787 0.49932 0.0
C181 C 0.43622 1.0106 0.55087 0.0
C182 C 0.44693 0.03408 0.4921 0.0
H183 H 0.47661 0.97896 0.63625 0.0
H184 H 0.38918 1.00344 0.56681 0.0
C185 C 0.50903 0.04391 0.47474 0.0
C186 C 0.00903 0.04389 0.09145 0.0
C187 C 0.94693 0.03406 0.07407 0.0
H188 H 0.10625 0.03785 0.06685 0.0
C189 C 0.93621 1.01061 1.01523 0.0
H190 H 0.01884 0.0623 0.13637 0.0
C191 C 0.98639 0.99742 0.97467 0.0
C192 C 0.04849 1.00725 0.99206 0.0
H193 H 0.88917 1.00346 0.99928 0.0
H194 H 0.97659 0.97901 0.92975 0.0
C195 C 0.05921 0.0307 0.05089 0.0
C196 C 0.05924 0.51061 0.05091 0.0
C197 C 0.04851 0.53408 0.99212 0.0
H198 H 0.01887 0.47899 0.1363 0.0
C199 C 0.9864 0.5439 0.97472 0.0
H200 H 0.10628 0.50347 0.06687 0.0
C201 C 0.93622 0.5307 1.01522 0.0
C202 C 0.94695 0.50723 0.07401 0.0
H203 H 0.97658 0.56231 0.92983 0.0
H204 H 0.88918 0.53784 0.99926 0.0
C205 C 0.00906 0.49741 0.09141 0.0
C206 C 0.48639 0.54386 0.59149 0.0
C207 C 0.5485 0.53406 0.57406 0.0
H208 H 0.38918 0.53781 0.56692 0.0
C209 C 0.55924 0.51063 0.51519 0.0
H210 H 0.47658 0.56225 0.63644 0.0
C211 C 0.50907 0.49744 0.47464 0.0
C212 C 0.44696 0.50725 0.49207 0.0
H213 H 0.60628 0.5035 0.4992 0.0
H214 H 0.51888 0.47905 0.42969 0.0
C215 C 0.43622 0.53068 0.55094 0.0
C216 C 0.32823 0.99801 0.16159 0.0
C217 C 0.28317 1.00582 0.2129 0.0
H218 H 0.3487 0.97074 0.06311 0.0
C219 C 0.22476 0.98764 0.20813 0.0
H220 H 0.37337 1.01193 0.16402 0.0
C221 C 0.21004 0.96423 0.14992 0.0
C222 C 0.25362 0.95872 0.09547 0.0
H223 H 0.18904 0.99372 0.24694 0.0
H224 H 0.16307 0.95321 0.14486 0.0
C225 C 0.31389 0.97434 0.10395 0.0
C226 C 0.1672 0.04328 0.6616 0.0
C227 C 0.21229 0.03543 0.71285 0.0
H228 H 0.14671 0.07061 0.56322 0.0
C229 C 0.27072 0.05358 0.70808 0.0
H230 H 0.12204 0.02939 0.66403 0.0
C231 C 0.28543 0.07701 0.64994 0.0
C232 C 0.24182 0.08258 0.59555 0.0
H233 H 0.30645 0.04747 0.74685 0.0
H234 H 0.33241 0.08801 0.64487 0.0
C235 C 0.18153 0.06697 0.60402 0.0
C236 C 0.81373 0.56711 0.46189 0.0
C237 C 0.75339 0.58264 0.47049 0.0
H238 H 0.87331 0.5296 0.40171 0.0
C239 C 0.70973 0.57701 0.41617 0.0
H240 H 0.8486 0.5708 0.50263 0.0
C241 C 0.72445 0.5536 0.35797 0.0
C242 C 0.78296 0.53552 0.35307 0.0
H243 H 0.6627 0.58796 0.42135 0.0
H244 H 0.68868 0.54744 0.31928 0.0
C245 C 0.82809 0.54344 0.40424 0.0
C246 C 0.78579 0.46438 0.91619 0.0
C247 C 0.74208 0.45868 0.97042 0.0
H248 H 0.80689 0.49403 0.81943 0.0
C249 C 0.68172 0.47417 0.96178 0.0
H250 H 0.83284 0.45347 0.9214 0.0
C251 C 0.66737 0.49786 0.90419 0.0
C252 C 0.71254 0.50585 0.85312 0.0
H253 H 0.64682 0.47043 1.00246 0.0
H254 H 0.62213 0.51166 0.90163 0.0
C255 C 0.77109 0.48782 0.85805 0.0
C256 C 0.7854 0.07705 0.91624 0.0
C257 C 0.74182 0.08259 0.97067 0.0
H258 H 0.8064 0.04755 0.81925 0.0
C259 C 0.68153 0.06698 0.96219 0.0
H260 H 0.83238 0.08807 0.92132 0.0
C261 C 0.66718 0.04331 0.90454 0.0
C262 C 0.71225 0.03548 0.85325 0.0
H263 H 0.64672 0.07061 1.00301 0.0
H264 H 0.62203 0.02941 0.90211 0.0
C265 C 0.77068 0.05364 0.85804 0.0
C266 C 0.8139 0.97438 0.46218 0.0
C267 C 0.75363 0.95874 0.47061 0.0
H268 H 0.87336 1.01199 0.4022 0.0
C269 C 0.71005 0.96427 0.41618 0.0
H270 H 0.84871 0.97077 0.503 0.0
C271 C 0.72476 0.9877 0.35803 0.0
C272 C 0.78316 1.00589 0.3533 0.0
H273 H 0.66309 0.95323 0.42122 0.0
H274 H 0.68904 0.99377 0.31923 0.0
C275 C 0.82823 0.99807 0.40459 0.0
C276 C 0.16736 0.49786 0.66189 0.0
C277 C 0.2125 0.50579 0.71304 0.0
H278 H 0.14684 0.47049 0.56351 0.0
C279 C 0.27102 0.48773 0.70812 0.0
H280 H 0.12214 0.51168 0.66443 0.0
C281 C 0.28574 0.46431 0.64992 0.0
C282 C 0.24207 0.45868 0.59562 0.0
H283 H 0.3068 0.4939 0.7468 0.0
H284 H 0.33278 0.45338 0.64473 0.0
C285 C 0.18172 0.47419 0.60424 0.0
C286 C 0.31374 0.56712 0.10431 0.0
C287 C 0.25338 0.58262 0.0957 0.0
H288 H 0.37333 0.52963 0.16445 0.0
C289 C 0.20968 0.57693 0.14994 0.0
H290 H 0.34863 0.57086 0.06363 0.0
C291 C 0.22439 0.55349 0.20807 0.0
C292 C 0.28292 0.53545 0.21299 0.0
H293 H 0.16263 0.58785 0.14474 0.0
H294 H 0.18859 0.54729 0.2467 0.0
C295 C 0.32809 0.54343 0.16191 0.0
C296 C 0.50068 0.09267 0.23498 0.0
C297 C 0.48362 0.12188 0.28314 0.0
H298 H 0.57559 0.0621 0.18461 0.0
C299 C 0.53017 0.14327 0.31683 0.0
H300 H 0.46558 0.07531 0.2089 0.0
C301 C 0.59248 0.13565 0.30312 0.0
C302 C 0.60995 0.10619 0.25573 0.0
H303 H 0.51855 0.16569 0.35453 0.0
H304 H 0.62705 0.15277 0.3306 0.0
C305 C 0.56348 0.08474 0.22163 0.0
C306 C 0.90294 0.90571 0.80308 0.0
C307 C 0.88548 0.93514 0.75568 0.0
H308 H 0.97684 0.87566 0.85447 0.0
C309 C 0.93195 0.95655 0.72154 0.0
H310 H 0.86835 0.88862 0.83059 0.0
C311 C 0.99476 0.9486 0.73486 0.0
C312 C 0.01181 0.91941 0.78303 0.0
H313 H 0.91986 0.97917 0.68451 0.0
H314 H 0.02987 0.96593 0.70876 0.0
C315 C 0.96524 0.89806 0.81676 0.0
C316 C 0.06345 0.45662 0.34459 0.0
C317 C 0.10995 0.4351 0.31065 0.0
H318 H 0.96554 0.46614 0.35713 0.0
C319 C 0.0925 0.40556 0.26341 0.0
H320 H 0.07554 0.47933 0.38148 0.0
C321 C 0.0302 0.39796 0.24967 0.0
C322 C 0.98363 0.41944 0.28318 0.0
H323 H 0.12708 0.38838 0.23606 0.0
H324 H 0.01861 0.37548 0.21208 0.0
C325 C 0.00065 0.44871 0.33121 0.0
C326 C 0.43203 0.58471 0.8447 0.0
C327 C 0.38552 0.60618 0.81072 0.0
H328 H 0.52996 0.57525 0.8573 0.0
C329 C 0.40294 0.63568 0.76344 0.0
H330 H 0.41996 0.56203 0.88163 0.0
C331 C 0.46523 0.64331 0.74972 0.0
C332 C 0.51183 0.62188 0.78328 0.0
H333 H 0.36834 0.65283 0.73606 0.0
H334 H 0.4768 0.66576 0.7121 0.0
C335 C 0.49482 0.59264 0.83134 0.0
C336 C 0.46526 0.89804 0.74927 0.0
C337 C 0.51181 0.91943 0.78299 0.0
H338 H 0.36837 0.88857 0.73548 0.0
C339 C 0.49475 0.94862 0.83117 0.0
H340 H 0.47687 0.87564 0.71156 0.0
C341 C 0.43194 0.95656 0.84451 0.0
C342 C 0.38547 0.93512 0.81039 0.0
H343 H 0.52985 0.96598 0.85726 0.0
H344 H 0.41983 0.97919 0.88155 0.0
C345 C 0.40295 0.90567 0.76298 0.0
C346 C 0.09249 0.13561 0.26308 0.0
C347 C 0.10995 0.10617 0.31048 0.0
H348 H 0.01858 0.16566 0.2117 0.0
C349 C 0.06347 0.08476 0.34461 0.0
H350 H 0.12707 0.1527 0.23558 0.0
C351 C 0.00066 0.09271 0.33129 0.0
C352 C 0.98362 0.1219 0.28313 0.0
H353 H 0.07557 0.06213 0.38163 0.0
H354 H 0.96556 0.07538 0.35738 0.0
C355 C 0.03018 0.14326 0.24941 0.0
C356 C 0.9948 0.5926 0.73492 0.0
C357 C 0.01183 0.62187 0.78294 0.0
H358 H 0.91992 0.56197 0.68465 0.0
C359 C 0.96526 0.64336 0.81643 0.0
H360 H 0.02992 0.57516 0.709 0.0
C361 C 0.90296 0.63575 0.80269 0.0
C362 C 0.88551 0.60621 0.75547 0.0
H363 H 0.97685 0.66584 0.85401 0.0
H364 H 0.86838 0.65294 0.83003 0.0
C365 C 0.932 0.58468 0.72154 0.0
C366 C 0.53022 0.39798 0.31637 0.0
C367 C 0.48363 0.41943 0.28283 0.0
H368 H 0.62711 0.38846 0.33003 0.0
C369 C 0.50063 0.44867 0.23479 0.0
H370 H 0.51865 0.37553 0.35398 0.0
C371 C 0.56343 0.45661 0.22143 0.0
C372 C 0.60994 0.43512 0.2554 0.0
H373 H 0.4655 0.46607 0.20884 0.0
H374 H 0.5755 0.47929 0.18452 0.0
C375 C 0.59251 0.40561 0.30265 0.0
C376 C 0.28114 0.25042 0.30785 0.0
C377 C 0.28615 0.22966 0.37135 0.0
H378 H 0.27923 0.30578 0.25767 0.0
C379 C 0.28777 0.25041 0.43519 0.0
H380 H 0.27914 0.23547 0.2577 0.0
C381 C 0.28782 0.29094 0.43517 0.0
C382 C 0.28626 0.31165 0.37131 0.0
H383 H 0.29125 0.23541 0.48515 0.0
H384 H 0.29134 0.30598 0.48512 0.0
C385 C 0.28119 0.29085 0.30783 0.0
C386 C 0.20767 0.79093 0.93516 0.0
C387 C 0.20928 0.81163 0.8713 0.0
H388 H 0.20412 0.7354 0.98515 0.0
C389 C 0.21429 0.79082 0.80782 0.0
H390 H 0.20418 0.80597 0.98511 0.0
C391 C 0.21426 0.75039 0.80785 0.0
C392 C 0.20921 0.72964 0.87136 0.0
H393 H 0.21628 0.80574 0.75766 0.0
H394 H 0.21623 0.73543 0.75771 0.0
C395 C 0.20764 0.7504 0.93519 0.0
C396 C 0.78777 0.25038 0.13097 0.0
C397 C 0.78616 0.22968 0.19483 0.0
H398 H 0.79132 0.3059 0.08097 0.0
C399 C 0.78114 0.25049 0.25831 0.0
H400 H 0.79125 0.23534 0.08103 0.0
C401 C 0.78118 0.29092 0.25828 0.0
C402 C 0.78624 0.31167 0.19476 0.0
H403 H 0.77916 0.23558 0.30847 0.0
H404 H 0.77922 0.30588 0.30842 0.0
C405 C 0.78781 0.29091 0.13094 0.0
C406 C 0.7143 0.79088 0.75829 0.0
C407 C 0.70929 0.81164 0.69478 0.0
H408 H 0.71621 0.73553 0.80846 0.0
C409 C 0.70768 0.7909 0.63095 0.0
H410 H 0.71629 0.80583 0.80843 0.0
C411 C 0.70763 0.75037 0.63096 0.0
C412 C 0.70919 0.72965 0.69481 0.0
H413 H 0.70419 0.8059 0.58099 0.0
H414 H 0.70412 0.73533 0.58101 0.0
C415 C 0.71426 0.75045 0.7583 0.0
loop_
_geom_bond_atom_site_label_1
_geom_bond_atom_site_label_2
_geom_bond_distance
_geom_bond_site_symmetry_2
_ccdc_geom_bond_type
Fe0 O2 1.918 . S
Fe0 O5 1.997 . S
Fe0 O6 2.002 . S
Fe0 O11 1.976 . S
Fe0 O14 1.996 . S
Fe1 O2 1.918 . S
Fe1 O9 1.997 . S
Fe1 O12 1.996 . S
Fe1 O16 1.976 . S
Fe1 O19 2.002 . S
O2 Fe0 1.918 . S
O2 Fe1 1.918 . S
O2 Fe3 1.918 . S
Fe3 O2 1.918 . S
Fe3 O4 2.002 . S
Fe3 O13 1.976 . S
Fe3 O17 1.996 . S
Fe3 O20 1.997 . S
O4 Fe3 2.002 . S
O4 C21 1.295 . S
O5 Fe0 1.997 . S
O5 C21 1.235 . S
O6 Fe0 2.002 . S
O6 C7 1.295 . S
C7 O6 1.295 . S
C7 O9 1.235 . S
C8 O13 1.287 . S
C8 O14 1.255 . S
O9 Fe1 1.997 . S
O9 C7 1.235 . S
C10 O16 1.287 . S
C10 O17 1.255 . S
O11 Fe0 1.976 . S
O11 C18 1.287 . S
O12 Fe1 1.996 . S
O12 C18 1.255 . S
O13 Fe3 1.976 . S
O13 C8 1.287 . S
O14 Fe0 1.996 . S
O14 C8 1.255 . S
C15 O19 1.295 . S
C15 O20 1.235 . S
O16 Fe1 1.976 . S
O16 C10 1.287 . S
O17 Fe3 1.996 . S
O17 C10 1.255 . S
C18 O11 1.287 . S
C18 O12 1.255 . S
O19 Fe1 2.002 . S
O19 C15 1.295 . S
O20 Fe3 1.997 . S
O20 C15 1.235 . S
C21 O4 1.295 . S
C21 O5 1.235 . S
Fe22 O24 1.918 . S
Fe22 O27 1.997 . S
Fe22 O28 2.002 . S
Fe22 O33 1.976 . S
Fe22 O36 1.996 . S
Fe23 O24 1.918 . S
Fe23 O31 1.997 . S
Fe23 O34 1.996 . S
Fe23 O38 1.976 . S
Fe23 O41 2.002 . S
O24 Fe22 1.918 . S
O24 Fe23 1.918 . S
O24 Fe25 1.918 . S
Fe25 O24 1.918 . S
Fe25 O26 2.002 . S
Fe25 O35 1.976 1_556 S
Fe25 O39 1.996 . S
Fe25 O42 1.997 . S
O26 Fe25 2.002 . S
O26 C43 1.295 . S
O27 Fe22 1.997 . S
O27 C43 1.235 . S
O28 Fe22 2.002 . S
O28 C29 1.295 . S
C29 O28 1.295 . S
C29 O31 1.235 . S
C30 O35 1.287 . S
C30 O36 1.255 1_554 S
O31 Fe23 1.997 . S
O31 C29 1.235 . S
C32 O38 1.287 . S
C32 O39 1.255 . S
O33 Fe22 1.976 . S
O33 C40 1.287 . S
O34 Fe23 1.996 . S
O34 C40 1.255 . S
O35 Fe25 1.976 1_554 S
O35 C30 1.287 . S
O36 Fe22 1.996 . S
O36 C30 1.255 1_556 S
C37 O41 1.295 . S
C37 O42 1.235 . S
O38 Fe23 1.976 . S
O38 C32 1.287 . S
O39 Fe25 1.996 . S
O39 C32 1.255 . S
C40 O33 1.287 . S
C40 O34 1.255 . S
O41 Fe23 2.002 . S
O41 C37 1.295 . S
O42 Fe25 1.997 . S
O42 C37 1.235 . S
C43 O26 1.295 . S
C43 O27 1.235 . S
Fe44 O46 1.918 . S
Fe44 O49 1.997 . S
Fe44 O50 2.002 . S
Fe44 O55 1.976 . S
Fe44 O58 1.996 . S
Fe45 O46 1.918 . S
Fe45 O53 1.997 . S
Fe45 O56 1.996 . S
Fe45 O60 1.976 . S
Fe45 O63 2.002 . S
O46 Fe44 1.918 . S
O46 Fe45 1.918 . S
O46 Fe47 1.918 . S
Fe47 O46 1.918 . S
Fe47 O48 2.002 . S
Fe47 O57 1.976 1_554 S
Fe47 O61 1.996 . S
Fe47 O64 1.997 . S
O48 Fe47 2.002 . S
O48 C65 1.295 . S
O49 Fe44 1.997 . S
O49 C65 1.235 . S
O50 Fe44 2.002 . S
O50 C51 1.295 . S
C51 O50 1.295 . S
C51 O53 1.235 . S
C52 O57 1.287 . S
C52 O58 1.255 1_556 S
O53 Fe45 1.997 . S
O53 C51 1.235 . S
C54 O60 1.287 . S
C54 O61 1.255 . S
O55 Fe44 1.976 . S
O55 C62 1.287 . S
O56 Fe45 1.996 . S
O56 C62 1.255 . S
O57 Fe47 1.976 1_556 S
O57 C52 1.287 . S
O58 Fe44 1.996 . S
O58 C52 1.255 1_554 S
C59 O63 1.295 . S
C59 O64 1.235 . S
O60 Fe45 1.976 . S
O60 C54 1.287 . S
O61 Fe47 1.996 . S
O61 C54 1.255 . S
C62 O55 1.287 . S
C62 O56 1.255 . S
O63 Fe45 2.002 . S
O63 C59 1.295 . S
O64 Fe47 1.997 . S
O64 C59 1.235 . S
C65 O48 1.295 . S
C65 O49 1.235 . S
Fe66 O68 1.918 . S
Fe66 O71 1.997 . S
Fe66 O72 2.002 . S
Fe66 O77 1.976 . S
Fe66 O80 1.996 . S
Fe67 O68 1.918 . S
Fe67 O75 1.997 . S
Fe67 O78 1.996 . S
Fe67 O82 1.976 . S
Fe67 O85 2.002 . S
O68 Fe66 1.918 . S
O68 Fe67 1.918 . S
O68 Fe69 1.918 . S
Fe69 O68 1.918 . S
Fe69 O70 2.002 . S
Fe69 O79 1.976 . S
Fe69 O83 1.996 . S
Fe69 O86 1.997 . S
O70 Fe69 2.002 . S
O70 C87 1.295 . S
O71 Fe66 1.997 . S
O71 C87 1.235 . S
O72 Fe66 2.002 . S
O72 C73 1.295 . S
C73 O72 1.295 . S
C73 O75 1.235 . S
C74 O79 1.287 . S
C74 O80 1.255 . S
O75 Fe67 1.997 . S
O75 C73 1.235 . S
C76 O82 1.287 . S
C76 O83 1.255 . S
O77 Fe66 1.976 . S
O77 C84 1.287 . S
O78 Fe67 1.996 . S
O78 C84 1.255 . S
O79 Fe69 1.976 . S
O79 C74 1.287 . S
O80 Fe66 1.996 . S
O80 C74 1.255 . S
C81 O85 1.295 . S
C81 O86 1.235 . S
O82 Fe67 1.976 . S
O82 C76 1.287 . S
O83 Fe69 1.996 . S
O83 C76 1.255 . S
C84 O77 1.287 . S
C84 O78 1.255 . S
O85 Fe67 2.002 . S
O85 C81 1.295 . S
O86 Fe69 1.997 . S
O86 C81 1.235 . S
C87 O70 1.295 . S
C87 O71 1.235 . S
Fe88 O90 1.918 . S
Fe88 O93 1.997 . S
Fe88 O94 2.002 . S
Fe88 O99 1.976 . S
Fe88 O102 1.996 . S
Fe89 O90 1.918 . S
Fe89 O97 1.997 . S
Fe89 O100 1.996 . S
Fe89 O104 1.976 . S
Fe89 O107 2.002 . S
O90 Fe88 1.918 . S
O90 Fe89 1.918 . S
O90 Fe91 1.918 . S
Fe91 O90 1.918 . S
Fe91 O92 2.002 . S
Fe91 O101 1.976 . S
Fe91 O105 1.996 . S
Fe91 O108 1.997 . S
O92 Fe91 2.002 . S
O92 C109 1.295 . S
O93 Fe88 1.997 . S
O93 C109 1.235 . S
O94 Fe88 2.002 . S
O94 C95 1.295 . S
C95 O94 1.295 . S
C95 O97 1.235 . S
C96 O101 1.287 . S
C96 O102 1.255 . S
O97 Fe89 1.997 . S
O97 C95 1.235 . S
C98 O104 1.287 . S
C98 O105 1.255 . S
O99 Fe88 1.976 . S
O99 C106 1.287 . S
O100 Fe89 1.996 . S
O100 C106 1.255 . S
O101 Fe91 1.976 . S
O101 C96 1.287 . S
O102 Fe88 1.996 . S
O102 C96 1.255 . S
C103 O107 1.295 . S
C103 O108 1.235 . S
O104 Fe89 1.976 . S
O104 C98 1.287 . S
O105 Fe91 1.996 . S
O105 C98 1.255 . S
C106 O99 1.287 . S
C106 O100 1.255 . S
O107 Fe89 2.002 . S
O107 C103 1.295 . S
O108 Fe91 1.997 . S
O108 C103 1.235 . S
C109 O92 1.295 . S
C109 O93 1.235 . S
Fe110 O112 1.918 . S
Fe110 O115 1.997 . S
Fe110 O116 2.002 . S
Fe110 O121 1.976 . S
Fe110 O124 1.996 . S
Fe111 O112 1.918 . S
Fe111 O119 1.997 . S
Fe111 O122 1.996 . S
Fe111 O126 1.976 . S
Fe111 O129 2.002 . S
O112 Fe110 1.918 . S
O112 Fe111 1.918 . S
O112 Fe113 1.918 . S
Fe113 O112 1.918 . S
Fe113 O114 2.002 . S
Fe113 O123 1.976 . S
Fe113 O127 1.996 1_554 S
Fe113 O130 1.997 . S
O114 Fe113 2.002 . S
O114 C131 1.295 . S
O115 Fe110 1.997 . S
O115 C131 1.235 . S
O116 Fe110 2.002 . S
O116 C117 1.295 . S
C117 O116 1.295 . S
C117 O119 1.235 . S
C118 O123 1.287 . S
C118 O124 1.255 . S
O119 Fe111 1.997 . S
O119 C117 1.235 . S
C120 O126 1.287 1_556 S
C120 O127 1.255 . S
O121 Fe110 1.976 . S
O121 C128 1.287 . S
O122 Fe111 1.996 . S
O122 C128 1.255 . S
O123 Fe113 1.976 . S
O123 C118 1.287 . S
O124 Fe110 1.996 . S
O124 C118 1.255 . S
C125 O129 1.295 . S
C125 O130 1.235 . S
O126 Fe111 1.976 . S
O126 C120 1.287 1_554 S
O127 Fe113 1.996 1_556 S
O127 C120 1.255 . S
C128 O121 1.287 . S
C128 O122 1.255 . S
O129 Fe111 2.002 . S
O129 C125 1.295 . S
O130 Fe113 1.997 . S
O130 C125 1.235 . S
C131 O114 1.295 . S
C131 O115 1.235 . S
Fe132 O134 1.918 . S
Fe132 O137 1.997 . S
Fe132 O138 2.002 . S
Fe132 O143 1.976 . S
Fe132 O146 1.996 . S
Fe133 O134 1.918 . S
Fe133 O141 1.997 . S
Fe133 O144 1.996 . S
Fe133 O148 1.976 . S
Fe133 O151 2.002 . S
O134 Fe132 1.918 . S
O134 Fe133 1.918 . S
O134 Fe135 1.918 . S
Fe135 O134 1.918 . S
Fe135 O136 2.002 . S
Fe135 O145 1.976 . S
Fe135 O149 1.996 1_556 S
Fe135 O152 1.997 . S
O136 Fe135 2.002 . S
O136 C153 1.295 . S
O137 Fe132 1.997 . S
O137 C153 1.235 . S
O138 Fe132 2.002 . S
O138 C139 1.295 . S
C139 O138 1.295 . S
C139 O141 1.235 . S
C140 O145 1.287 . S
C140 O146 1.255 . S
O141 Fe133 1.997 . S
O141 C139 1.235 . S
C142 O148 1.287 1_554 S
C142 O149 1.255 . S
O143 Fe132 1.976 . S
O143 C150 1.287 . S
O144 Fe133 1.996 . S
O144 C150 1.255 . S
O145 Fe135 1.976 . S
O145 C140 1.287 . S
O146 Fe132 1.996 . S
O146 C140 1.255 . S
C147 O151 1.295 . S
C147 O152 1.235 . S
O148 Fe133 1.976 . S
O148 C142 1.287 1_556 S
O149 Fe135 1.996 1_554 S
O149 C142 1.255 . S
C150 O143 1.287 . S
C150 O144 1.255 . S
O151 Fe133 2.002 . S
O151 C147 1.295 . S
O152 Fe135 1.997 . S
O152 C147 1.235 . S
C153 O136 1.295 . S
C153 O137 1.235 . S
Fe154 O156 1.918 . S
Fe154 O159 1.997 . S
Fe154 O160 2.002 . S
Fe154 O165 1.976 . S
Fe154 O168 1.996 . S
Fe155 O156 1.918 . S
Fe155 O163 1.997 . S
Fe155 O166 1.996 . S
Fe155 O170 1.976 . S
Fe155 O173 2.002 . S
O156 Fe154 1.918 . S
O156 Fe155 1.918 . S
O156 Fe157 1.918 . S
Fe157 O156 1.918 . S
Fe157 O158 2.002 . S
Fe157 O167 1.976 . S
Fe157 O171 1.996 . S
Fe157 O174 1.997 . S
O158 Fe157 2.002 . S
O158 C175 1.295 . S
O159 Fe154 1.997 . S
O159 C175 1.235 . S
O160 Fe154 2.002 . S
O160 C161 1.295 . S
C161 O160 1.295 . S
C161 O163 1.235 . S
C162 O167 1.287 . S
C162 O168 1.255 . S
O163 Fe155 1.997 . S
O163 C161 1.235 . S
C164 O170 1.287 . S
C164 O171 1.255 . S
O165 Fe154 1.976 . S
O165 C172 1.287 . S
O166 Fe155 1.996 . S
O166 C172 1.255 . S
O167 Fe157 1.976 . S
O167 C162 1.287 . S
O168 Fe154 1.996 . S
O168 C162 1.255 . S
C169 O173 1.295 . S
C169 O174 1.235 . S
O170 Fe155 1.976 . S
O170 C164 1.287 . S
O171 Fe157 1.996 . S
O171 C164 1.255 . S
C172 O165 1.287 . S
C172 O166 1.255 . S
O173 Fe155 2.002 . S
O173 C169 1.295 . S
O174 Fe157 1.997 . S
O174 C169 1.235 . S
C175 O158 1.295 . S
C175 O159 1.235 . S
C176 C177 1.381 1_545 S
C176 H180 0.950 . S
C176 C185 1.390 . S
C177 C176 1.381 1_565 S
C177 C179 1.393 . S
H178 C185 0.950 . S
C179 C177 1.393 . S
C179 C181 1.390 . S
C179 H183 0.950 . S
H180 C176 0.950 . S
C181 C179 1.390 . S
C181 C182 1.363 1_565 S
C181 H184 0.950 . S
C182 C181 1.363 1_545 S
C182 C185 1.411 . S
H183 C179 0.950 . S
H184 C181 0.950 . S
C185 C176 1.390 . S
C185 H178 0.950 . S
C185 C182 1.411 . S
C186 C187 1.393 . S
C186 H190 0.950 . S
C186 C195 1.390 1_654 S
C187 C186 1.393 . S
C187 C189 1.381 1_545 S
H188 C195 0.950 . S
C189 C187 1.381 1_565 S
C189 C191 1.390 1_654 S
C189 H193 0.950 . S
H190 C186 0.950 . S
C191 C189 1.390 1_456 S
C191 C192 1.411 . S
C191 H194 0.950 . S
C192 C191 1.411 . S
C192 C195 1.363 1_565 S
H193 C189 0.950 . S
H194 C191 0.950 . S
C195 C186 1.390 1_456 S
C195 H188 0.950 . S
C195 C192 1.363 1_545 S
C196 C197 1.387 . S
C196 H200 0.950 . S
C196 C205 1.390 1_456 S
C197 C196 1.387 . S
C197 C199 1.387 . S
H198 C205 0.950 . S
C199 C197 1.387 . S
C199 C201 1.390 1_456 S
C199 H203 0.950 . S
H200 C196 0.950 . S
C201 C199 1.390 1_654 S
C201 C202 1.387 . S
C201 H204 0.950 . S
C202 C201 1.387 . S
C202 C205 1.387 . S
H203 C199 0.950 . S
H204 C201 0.950 . S
C205 C196 1.390 1_654 S
C205 H198 0.950 . S
C205 C202 1.387 . S
C206 C207 1.387 . S
C206 H210 0.950 . S
C206 C215 1.390 . S
C207 C206 1.387 . S
C207 C209 1.387 . S
H208 C215 0.950 . S
C209 C207 1.387 . S
C209 C211 1.390 . S
C209 H213 0.950 . S
H210 C206 0.950 . S
C211 C209 1.390 . S
C211 C212 1.387 . S
C211 H214 0.950 . S
C212 C211 1.387 . S
C212 C215 1.387 . S
H213 C209 0.950 . S
H214 C211 0.950 . S
C215 C206 1.390 . S
C215 H208 0.950 . S
C215 C212 1.387 . S
C216 C217 1.384 1_565 S
C216 H220 0.950 1_565 S
C216 C225 1.390 . S
C217 C216 1.384 1_545 S
C217 C219 1.376 1_545 S
H218 C225 0.950 . S
C219 C217 1.376 1_565 S
C219 C221 1.390 . S
C219 H223 0.950 . S
H220 C216 0.950 1_545 S
C221 C219 1.390 . S
C221 C222 1.387 . S
C221 H224 0.950 . S
C222 C221 1.387 . S
C222 C225 1.387 . S
H223 C219 0.950 . S
H224 C221 0.950 . S
C225 C216 1.390 . S
C225 H218 0.950 . S
C225 C222 1.387 . S
C226 C227 1.392 . S
C226 H230 0.950 . S
C226 C235 1.390 1_565 S
C227 C226 1.392 . S
C227 C229 1.370 1_565 S
H228 C235 0.950 . S
C229 C227 1.370 1_545 S
C229 C231 1.390 . S
C229 H233 0.950 . S
H230 C226 0.950 . S
C231 C229 1.390 . S
C231 C232 1.387 . S
C231 H234 0.950 . S
C232 C231 1.387 . S
C232 C235 1.387 . S
H233 C229 0.950 . S
H234 C231 0.950 . S
C235 C226 1.390 1_545 S
C235 H228 0.950 . S
C235 C232 1.387 . S
C236 C237 1.387 . S
C236 H240 0.950 . S
C236 C245 1.390 . S
C237 C236 1.387 . S
C237 C239 1.387 . S
H238 C245 0.950 . S
C239 C237 1.387 . S
C239 C241 1.390 . S
C239 H243 0.950 . S
H240 C236 0.950 . S
C241 C239 1.390 . S
C241 C242 1.387 . S
C241 H244 0.950 . S
C242 C241 1.387 . S
C242 C245 1.387 . S
H243 C239 0.950 . S
H244 C241 0.950 . S
C245 C236 1.390 . S
C245 H238 0.950 . S
C245 C242 1.387 . S
C246 C247 1.387 . S
C246 H250 0.950 . S
C246 C255 1.390 . S
C247 C246 1.387 . S
C247 C249 1.387 . S
H248 C255 0.950 . S
C249 C247 1.387 . S
C249 C251 1.390 . S
C249 H253 0.950 . S
H250 C246 0.950 . S
C251 C249 1.390 . S
C251 C252 1.387 . S
C251 H254 0.950 . S
C252 C251 1.387 . S
C252 C255 1.387 . S
H253 C249 0.950 . S
H254 C251 0.950 . S
C255 C246 1.390 . S
C255 H248 0.950 . S
C255 C252 1.387 . S
C256 C257 1.387 . S
C256 H260 0.950 . S
C256 C265 1.390 . S
C257 C256 1.387 . S
C257 C259 1.387 . S
H258 C265 0.950 . S
C259 C257 1.387 . S
C259 C261 1.390 1_545 S
C259 H263 0.950 . S
H260 C256 0.950 . S
C261 C259 1.390 1_565 S
C261 C262 1.393 . S
C261 H264 0.950 . S
C262 C261 1.393 . S
C262 C265 1.365 1_565 S
H263 C259 0.950 . S
H264 C261 0.950 . S
C265 C256 1.390 . S
C265 H258 0.950 . S
C265 C262 1.365 1_545 S
C266 C267 1.387 . S
C266 H270 0.950 . S
C266 C275 1.390 1_565 S
C267 C266 1.387 . S
C267 C269 1.387 . S
H268 C275 0.950 . S
C269 C267 1.387 . S
C269 C271 1.390 . S
C269 H273 0.950 . S
H270 C266 0.950 . S
C271 C269 1.390 . S
C271 C272 1.365 1_565 S
C271 H274 0.950 . S
C272 C271 1.365 1_545 S
C272 C275 1.394 . S
H273 C269 0.950 . S
H274 C271 0.950 . S
C275 C266 1.390 1_545 S
C275 H268 0.950 . S
C275 C272 1.394 . S
C276 C277 1.387 . S
C276 H280 0.950 . S
C276 C285 1.390 . S
C277 C276 1.387 . S
C277 C279 1.387 . S
H278 C285 0.950 . S
C279 C277 1.387 . S
C279 C281 1.390 . S
C279 H283 0.950 . S
H280 C276 0.950 . S
C281 C279 1.390 . S
C281 C282 1.387 . S
C281 H284 0.950 . S
C282 C281 1.387 . S
C282 C285 1.387 . S
H283 C279 0.950 . S
H284 C281 0.950 . S
C285 C276 1.390 . S
C285 H278 0.950 . S
C285 C282 1.387 . S
C286 C287 1.387 . S
C286 H290 0.950 . S
C286 C295 1.390 . S
C287 C286 1.387 . S
C287 C289 1.387 . S
H288 C295 0.950 . S
C289 C287 1.387 . S
C289 C291 1.390 . S
C289 H293 0.950 . S
H290 C286 0.950 . S
C291 C289 1.390 . S
C291 C292 1.387 . S
C291 H294 0.950 . S
C292 C291 1.387 . S
C292 C295 1.387 . S
H293 C289 0.950 . S
H294 C291 0.950 . S
C295 C286 1.390 . S
C295 H288 0.950 . S
C295 C292 1.387 . S
C296 C297 1.387 . S
C296 H300 0.950 . S
C296 C305 1.390 . S
C297 C296 1.387 . S
C297 C299 1.387 . S
H298 C305 0.950 . S
C299 C297 1.387 . S
C299 C301 1.390 . S
C299 H303 0.950 . S
H300 C296 0.950 . S
C301 C299 1.390 . S
C301 C302 1.387 . S
C301 H304 0.950 . S
C302 C301 1.387 . S
C302 C305 1.387 . S
H303 C299 0.950 . S
H304 C301 0.950 . S
C305 C296 1.390 . S
C305 H298 0.950 . S
C305 C302 1.387 . S
C306 C307 1.387 . S
C306 H310 0.950 . S
C306 C315 1.390 . S
C307 C306 1.387 . S
C307 C309 1.387 . S
H308 C315 0.950 . S
C309 C307 1.387 . S
C309 C311 1.390 . S
C309 H313 0.950 . S
H310 C306 0.950 . S
C311 C309 1.390 . S
C311 C312 1.387 . S
C311 H314 0.950 1_655 S
C312 C311 1.387 . S
C312 C315 1.387 . S
H313 C309 0.950 . S
H314 C311 0.950 1_455 S
C315 C306 1.390 . S
C315 H308 0.950 . S
C315 C312 1.387 . S
C316 C317 1.387 . S
C316 H320 0.950 . S
C316 C325 1.390 . S
C317 C316 1.387 . S
C317 C319 1.387 . S
H318 C325 0.950 . S
C319 C317 1.387 . S
C319 C321 1.390 . S
C319 H323 0.950 . S
H320 C316 0.950 . S
C321 C319 1.390 . S
C321 C322 1.387 . S
C321 H324 0.950 . S
C322 C321 1.387 . S
C322 C325 1.387 . S
H323 C319 0.950 . S
H324 C321 0.950 . S
C325 C316 1.390 . S
C325 H318 0.950 . S
C325 C322 1.387 . S
C326 C327 1.387 . S
C326 H330 0.950 . S
C326 C335 1.390 . S
C327 C326 1.387 . S
C327 C329 1.387 . S
H328 C335 0.950 . S
C329 C327 1.387 . S
C329 C331 1.390 . S
C329 H333 0.950 . S
H330 C326 0.950 . S
C331 C329 1.390 . S
C331 C332 1.387 . S
C331 H334 0.950 . S
C332 C331 1.387 . S
C332 C335 1.387 . S
H333 C329 0.950 . S
H334 C331 0.950 . S
C335 C326 1.390 . S
C335 H328 0.950 . S
C335 C332 1.387 . S
C336 C337 1.387 . S
C336 H340 0.950 . S
C336 C345 1.390 . S
C337 C336 1.387 . S
C337 C339 1.387 . S
H338 C345 0.950 . S
C339 C337 1.387 . S
C339 C341 1.390 . S
C339 H343 0.950 . S
H340 C336 0.950 . S
C341 C339 1.390 . S
C341 C342 1.387 . S
C341 H344 0.950 . S
C342 C341 1.387 . S
C342 C345 1.387 . S
H343 C339 0.950 . S
H344 C341 0.950 . S
C345 C336 1.390 . S
C345 H338 0.950 . S
C345 C342 1.387 . S
C346 C347 1.387 . S
C346 H350 0.950 . S
C346 C355 1.390 . S
C347 C346 1.387 . S
C347 C349 1.387 . S
H348 C355 0.950 . S
C349 C347 1.387 . S
C349 C351 1.390 . S
C349 H353 0.950 . S
H350 C346 0.950 . S
C351 C349 1.390 . S
C351 C352 1.387 . S
C351 H354 0.950 . S
C352 C351 1.387 . S
C352 C355 1.387 . S
H353 C349 0.950 . S
H354 C351 0.950 . S
C355 C346 1.390 . S
C355 H348 0.950 . S
C355 C352 1.387 . S
C356 C357 1.387 . S
C356 H360 0.957 . S
C356 C365 1.390 . S
C357 C356 1.387 . S
C357 C359 1.387 . S
H358 C365 0.950 . S
C359 C357 1.387 . S
C359 C361 1.390 . S
C359 H363 0.950 . S
H360 C356 0.957 . S
C361 C359 1.390 . S
C361 C362 1.387 . S
C361 H364 0.950 . S
C362 C361 1.387 . S
C362 C365 1.387 . S
H363 C359 0.950 . S
H364 C361 0.950 . S
C365 C356 1.390 . S
C365 H358 0.950 . S
C365 C362 1.387 . S
C366 C367 1.387 . S
C366 H370 0.950 . S
C366 C375 1.390 . S
C367 C366 1.387 . S
C367 C369 1.387 . S
H368 C375 0.950 . S
C369 C367 1.387 . S
C369 C371 1.390 . S
C369 H373 0.950 . S
H370 C366 0.950 . S
C371 C369 1.390 . S
C371 C372 1.387 . S
C371 H374 0.950 . S
C372 C371 1.387 . S
C372 C375 1.387 . S
H373 C369 0.950 . S
H374 C371 0.950 . S
C375 C366 1.390 . S
C375 H368 0.950 . S
C375 C372 1.387 . S
C376 C377 1.387 . S
C376 H380 0.950 . S
C376 C385 1.390 . S
C377 C376 1.387 . S
C377 C379 1.387 . S
H378 C385 0.950 . S
C379 C377 1.387 . S
C379 C381 1.390 . S
C379 H383 0.950 . S
H380 C376 0.950 . S
C381 C379 1.390 . S
C381 C382 1.387 . S
C381 H384 0.950 . S
C382 C381 1.387 . S
C382 C385 1.387 . S
H383 C379 0.950 . S
H384 C381 0.950 . S
C385 C376 1.390 . S
C385 H378 0.950 . S
C385 C382 1.387 . S
C386 C387 1.387 . S
C386 H390 0.950 . S
C386 C395 1.390 . S
C387 C386 1.387 . S
C387 C389 1.387 . S
H388 C395 0.950 . S
C389 C387 1.387 . S
C389 C391 1.390 . S
C389 H393 0.950 . S
H390 C386 0.950 . S
C391 C389 1.390 . S
C391 C392 1.387 . S
C391 H394 0.950 . S
C392 C391 1.387 . S
C392 C395 1.387 . S
H393 C389 0.950 . S
H394 C391 0.950 . S
C395 C386 1.390 . S
C395 H388 0.950 . S
C395 C392 1.387 . S
C396 C397 1.387 . S
C396 H400 0.950 . S
C396 C405 1.390 . S
C397 C396 1.387 . S
C397 C399 1.387 . S
H398 C405 0.950 . S
C399 C397 1.387 . S
C399 C401 1.390 . S
C399 H403 0.950 . S
H400 C396 0.950 . S
C401 C399 1.390 . S
C401 C402 1.387 . S
C401 H404 0.950 . S
C402 C401 1.387 . S
C402 C405 1.387 . S
H403 C399 0.950 . S
H404 C401 0.950 . S
C405 C396 1.390 . S
C405 H398 0.950 . S
C405 C402 1.387 . S
C406 C407 1.387 . S
C406 H410 0.950 . S
C406 C415 1.390 . S
C407 C406 1.387 . S
C407 C409 1.387 . S
H408 C415 0.950 . S
C409 C407 1.387 . S
C409 C411 1.390 . S
C409 H413 0.950 . S
H410 C406 0.950 . S
C411 C409 1.390 . S
C411 C412 1.387 . S
C411 H414 0.950 . S
C412 C411 1.387 . S
C412 C415 1.387 . S
H413 C409 0.950 . S
H414 C411 0.950 . S
C415 C406 1.390 . S
C415 H408 0.950 . S
C415 C412 1.387 . S
C177 C95 1.292 . S
C182 C21 1.285 . S
C187 C125 1.290 . S
C192 C43 1.284 . S
C197 C147 1.289 . S
C202 C65 1.272 . S
C207 C81 1.272 . S
C212 C161 1.288 . S
C217 C7 1.667 . S
C222 C30 1.582 . S
C227 C29 1.665 . S
C232 C8 1.581 . S
C237 C76 1.580 . S
C242 C51 1.652 . S
C247 C52 1.578 . S
C252 C87 1.653 . S
C257 C120 1.598 . S
C262 C109 1.680 . S
C267 C106 1.598 . S
C272 C117 1.682 . S
C277 C139 1.665 . S
C282 C172 1.596 . S
C287 C142 1.595 . S
C292 C175 1.664 . S
C297 C15 1.506 . S
C302 C128 1.503 . S
C307 C96 1.502 . S
C312 C37 1.507 1_655 S
C317 C162 1.504 . S
C322 C59 1.507 1_455 S
C327 C150 1.504 . S
C332 C73 1.507 . S
C337 C103 1.508 . S
C342 C40 1.494 . S
C347 C18 1.494 . S
C352 C131 1.508 1_455 S
C357 C153 1.507 1_655 S
C362 C74 1.492 . S
C367 C169 1.508 . S
C372 C62 1.494 . S
C377 C10 1.462 . S
C382 C164 1.458 . S
C387 C32 1.461 . S
C392 C140 1.459 . S
C397 C118 1.458 . S
C402 C54 1.462 . S
C407 C98 1.458 . S
C412 C84 1.462 . S
