# Generated by pormake.
# Topology ukw, (4)-cn, num edge types: 1
# Building blocks:
#     Node 0, Type 0, BuildingBlock: GALJAG_clean_sbu_0, # of connection points: 4
#     Node 1, Type 0, BuildingBlock: GALJAG_clean_sbu_0, # of connection points: 4
#     Node 2, Type 0, BuildingBlock: GALJAG_clean_sbu_0, # of connection points: 4
#     Node 3, Type 0, BuildingBlock: GALJAG_clean_sbu_0, # of connection points: 4
#     Node 4, Type 0, BuildingBlock: GALJAG_clean_sbu_0, # of connection points: 4
#     Node 5, Type 0, BuildingBlock: GALJAG_clean_sbu_0, # of connection points: 4
#     Node 6, Type 0, BuildingBlock: GALJAG_clean_sbu_0, # of connection points: 4
#     Node 7, Type 0, BuildingBlock: GALJAG_clean_sbu_0, # of connection points: 4
#     Node 8, Type 0, BuildingBlock: GALJAG_clean_sbu_0, # of connection points: 4
#     Node 9, Type 0, BuildingBlock: GALJAG_clean_sbu_0, # of connection points: 4
#     Node 10, Type 0, BuildingBlock: GALJAG_clean_sbu_0, # of connection points: 4
#     Node 11, Type 0, BuildingBlock: GALJAG_clean_sbu_0, # of connection points: 4
#     Node 12, Type 0, BuildingBlock: GALJAG_clean_sbu_0, # of connection points: 4
#     Node 13, Type 0, BuildingBlock: GALJAG_clean_sbu_0, # of connection points: 4
#     Node 14, Type 0, BuildingBlock: GALJAG_clean_sbu_0, # of connection points: 4
#     Node 15, Type 0, BuildingBlock: GALJAG_clean_sbu_0, # of connection points: 4
#     Node 16, Type 0, BuildingBlock: GALJAG_clean_sbu_0, # of connection points: 4
#     Node 17, Type 0, BuildingBlock: GALJAG_clean_sbu_0, # of connection points: 4
#     Node 18, Type 0, BuildingBlock: GALJAG_clean_sbu_0, # of connection points: 4
#     Node 19, Type 0, BuildingBlock: GALJAG_clean_sbu_0, # of connection points: 4
#     Node 20, Type 0, BuildingBlock: GALJAG_clean_sbu_0, # of connection points: 4
#     Node 21, Type 0, BuildingBlock: GALJAG_clean_sbu_0, # of connection points: 4
#     Node 22, Type 0, BuildingBlock: GALJAG_clean_sbu_0, # of connection points: 4
#     Node 23, Type 0, BuildingBlock: GALJAG_clean_sbu_0, # of connection points: 4
#     Node 24, Type 0, BuildingBlock: GALJAG_clean_sbu_0, # of connection points: 4
#     Node 25, Type 0, BuildingBlock: GALJAG_clean_sbu_0, # of connection points: 4
#     Node 26, Type 0, BuildingBlock: GALJAG_clean_sbu_0, # of connection points: 4
#     Node 27, Type 0, BuildingBlock: GALJAG_clean_sbu_0, # of connection points: 4
#     Node 28, Type 0, BuildingBlock: GALJAG_clean_sbu_0, # of connection points: 4
#     Node 29, Type 0, BuildingBlock: GALJAG_clean_sbu_0, # of connection points: 4
#     Node 30, Type 0, BuildingBlock: GALJAG_clean_sbu_0, # of connection points: 4
#     Node 31, Type 0, BuildingBlock: GALJAG_clean_sbu_0, # of connection points: 4
#     Node 32, Type 0, BuildingBlock: GALJAG_clean_sbu_0, # of connection points: 4
#     Node 33, Type 0, BuildingBlock: GALJAG_clean_sbu_0, # of connection points: 4
#     Node 34, Type 0, BuildingBlock: GALJAG_clean_sbu_0, # of connection points: 4
#     Node 35, Type 0, BuildingBlock: GALJAG_clean_sbu_0, # of connection points: 4
#     Node 36, Type 0, BuildingBlock: GALJAG_clean_sbu_0, # of connection points: 4
#     Node 37, Type 0, BuildingBlock: GALJAG_clean_sbu_0, # of connection points: 4
#     Node 38, Type 0, BuildingBlock: GALJAG_clean_sbu_0, # of connection points: 4
#     Node 39, Type 0, BuildingBlock: GALJAG_clean_sbu_0, # of connection points: 4
#     Node 40, Type 0, BuildingBlock: GALJAG_clean_sbu_0, # of connection points: 4
#     Node 41, Type 0, BuildingBlock: GALJAG_clean_sbu_0, # of connection points: 4
#     Node 42, Type 0, BuildingBlock: GALJAG_clean_sbu_0, # of connection points: 4
#     Node 43, Type 0, BuildingBlock: GALJAG_clean_sbu_0, # of connection points: 4
#     Node 44, Type 0, BuildingBlock: GALJAG_clean_sbu_0, # of connection points: 4
#     Node 45, Type 0, BuildingBlock: GALJAG_clean_sbu_0, # of connection points: 4
#     Node 46, Type 0, BuildingBlock: GALJAG_clean_sbu_0, # of connection points: 4
#     Node 47, Type 0, BuildingBlock: GALJAG_clean_sbu_0, # of connection points: 4
#     Node 48, Type 0, BuildingBlock: GALJAG_clean_sbu_0, # of connection points: 4
#     Node 49, Type 0, BuildingBlock: GALJAG_clean_sbu_0, # of connection points: 4
#     Node 50, Type 0, BuildingBlock: GALJAG_clean_sbu_0, # of connection points: 4
#     Node 51, Type 0, BuildingBlock: GALJAG_clean_sbu_0, # of connection points: 4
#     Node 52, Type 0, BuildingBlock: GALJAG_clean_sbu_0, # of connection points: 4
#     Node 53, Type 0, BuildingBlock: GALJAG_clean_sbu_0, # of connection points: 4
#     Node 54, Type 0, BuildingBlock: GALJAG_clean_sbu_0, # of connection points: 4
#     Node 55, Type 0, BuildingBlock: GALJAG_clean_sbu_0, # of connection points: 4
#     Node 56, Type 0, BuildingBlock: GALJAG_clean_sbu_0, # of connection points: 4
#     Node 57, Type 0, BuildingBlock: GALJAG_clean_sbu_0, # of connection points: 4
#     Node 58, Type 0, BuildingBlock: GALJAG_clean_sbu_0, # of connection points: 4
#     Node 59, Type 0, BuildingBlock: GALJAG_clean_sbu_0, # of connection points: 4
#     Node 60, Type 0, BuildingBlock: GALJAG_clean_sbu_0, # of connection points: 4
#     Node 61, Type 0, BuildingBlock: GALJAG_clean_sbu_0, # of connection points: 4
#     Node 62, Type 0, BuildingBlock: GALJAG_clean_sbu_0, # of connection points: 4
#     Node 63, Type 0, BuildingBlock: GALJAG_clean_sbu_0, # of connection points: 4
#     Node 64, Type 0, BuildingBlock: GALJAG_clean_sbu_0, # of connection points: 4
#     Node 65, Type 0, BuildingBlock: GALJAG_clean_sbu_0, # of connection points: 4
#     Node 66, Type 0, BuildingBlock: GALJAG_clean_sbu_0, # of connection points: 4
#     Node 67, Type 0, BuildingBlock: GALJAG_clean_sbu_0, # of connection points: 4
#     Node 68, Type 0, BuildingBlock: GALJAG_clean_sbu_0, # of connection points: 4
#     Node 69, Type 0, BuildingBlock: GALJAG_clean_sbu_0, # of connection points: 4
#     Node 70, Type 0, BuildingBlock: GALJAG_clean_sbu_0, # of connection points: 4
#     Node 71, Type 0, BuildingBlock: GALJAG_clean_sbu_0, # of connection points: 4
#     Node 72, Type 0, BuildingBlock: GALJAG_clean_sbu_0, # of connection points: 4
#     Node 73, Type 0, BuildingBlock: GALJAG_clean_sbu_0, # of connection points: 4
#     Node 74, Type 0, BuildingBlock: GALJAG_clean_sbu_0, # of connection points: 4
#     Node 75, Type 0, BuildingBlock: GALJAG_clean_sbu_0, # of connection points: 4
#     Node 76, Type 0, BuildingBlock: GALJAG_clean_sbu_0, # of connection points: 4
#     Node 77, Type 0, BuildingBlock: GALJAG_clean_sbu_0, # of connection points: 4
#     Node 78, Type 0, BuildingBlock: GALJAG_clean_sbu_0, # of connection points: 4
#     Node 79, Type 0, BuildingBlock: GALJAG_clean_sbu_0, # of connection points: 4
#     Node 80, Type 0, BuildingBlock: GALJAG_clean_sbu_0, # of connection points: 4
#     Node 81, Type 0, BuildingBlock: GALJAG_clean_sbu_0, # of connection points: 4
#     Node 82, Type 0, BuildingBlock: GALJAG_clean_sbu_0, # of connection points: 4
#     Node 83, Type 0, BuildingBlock: GALJAG_clean_sbu_0, # of connection points: 4
#     Node 84, Type 0, BuildingBlock: GALJAG_clean_sbu_0, # of connection points: 4
#     Node 85, Type 0, BuildingBlock: GALJAG_clean_sbu_0, # of connection points: 4
#     Node 86, Type 0, BuildingBlock: GALJAG_clean_sbu_0, # of connection points: 4
#     Node 87, Type 0, BuildingBlock: GALJAG_clean_sbu_0, # of connection points: 4
#     Node 88, Type 0, BuildingBlock: GALJAG_clean_sbu_0, # of connection points: 4
#     Node 89, Type 0, BuildingBlock: GALJAG_clean_sbu_0, # of connection points: 4
#     Node 90, Type 0, BuildingBlock: GALJAG_clean_sbu_0, # of connection points: 4
#     Node 91, Type 0, BuildingBlock: GALJAG_clean_sbu_0, # of connection points: 4
#     Node 92, Type 0, BuildingBlock: GALJAG_clean_sbu_0, # of connection points: 4
#     Node 93, Type 0, BuildingBlock: GALJAG_clean_sbu_0, # of connection points: 4
#     Node 94, Type 0, BuildingBlock: GALJAG_clean_sbu_0, # of connection points: 4
#     Node 95, Type 0, BuildingBlock: GALJAG_clean_sbu_0, # of connection points: 4
#     Edge 96, Type (0, 0), BuildingBlock: OJICUG_clean_linker_0, # of connection points: 2
#     Edge 97, Type (0, 0), BuildingBlock: OJICUG_clean_linker_0, # of connection points: 2
#     Edge 98, Type (0, 0), BuildingBlock: OJICUG_clean_linker_0, # of connection points: 2
#     Edge 99, Type (0, 0), BuildingBlock: OJICUG_clean_linker_0, # of connection points: 2
#     Edge 100, Type (0, 0), BuildingBlock: OJICUG_clean_linker_0, # of connection points: 2
#     Edge 101, Type (0, 0), BuildingBlock: OJICUG_clean_linker_0, # of connection points: 2
#     Edge 102, Type (0, 0), BuildingBlock: OJICUG_clean_linker_0, # of connection points: 2
#     Edge 103, Type (0, 0), BuildingBlock: OJICUG_clean_linker_0, # of connection points: 2
#     Edge 104, Type (0, 0), BuildingBlock: OJICUG_clean_linker_0, # of connection points: 2
#     Edge 105, Type (0, 0), BuildingBlock: OJICUG_clean_linker_0, # of connection points: 2
#     Edge 106, Type (0, 0), BuildingBlock: OJICUG_clean_linker_0, # of connection points: 2
#     Edge 107, Type (0, 0), BuildingBlock: OJICUG_clean_linker_0, # of connection points: 2
#     Edge 108, Type (0, 0), BuildingBlock: OJICUG_clean_linker_0, # of connection points: 2
#     Edge 109, Type (0, 0), BuildingBlock: OJICUG_clean_linker_0, # of connection points: 2
#     Edge 110, Type (0, 0), BuildingBlock: OJICUG_clean_linker_0, # of connection points: 2
#     Edge 111, Type (0, 0), BuildingBlock: OJICUG_clean_linker_0, # of connection points: 2
#     Edge 112, Type (0, 0), BuildingBlock: OJICUG_clean_linker_0, # of connection points: 2
#     Edge 113, Type (0, 0), BuildingBlock: OJICUG_clean_linker_0, # of connection points: 2
#     Edge 114, Type (0, 0), BuildingBlock: OJICUG_clean_linker_0, # of connection points: 2
#     Edge 115, Type (0, 0), BuildingBlock: OJICUG_clean_linker_0, # of connection points: 2
#     Edge 116, Type (0, 0), BuildingBlock: OJICUG_clean_linker_0, # of connection points: 2
#     Edge 117, Type (0, 0), BuildingBlock: OJICUG_clean_linker_0, # of connection points: 2
#     Edge 118, Type (0, 0), BuildingBlock: OJICUG_clean_linker_0, # of connection points: 2
#     Edge 119, Type (0, 0), BuildingBlock: OJICUG_clean_linker_0, # of connection points: 2
#     Edge 120, Type (0, 0), BuildingBlock: OJICUG_clean_linker_0, # of connection points: 2
#     Edge 121, Type (0, 0), BuildingBlock: OJICUG_clean_linker_0, # of connection points: 2
#     Edge 122, Type (0, 0), BuildingBlock: OJICUG_clean_linker_0, # of connection points: 2
#     Edge 123, Type (0, 0), BuildingBlock: OJICUG_clean_linker_0, # of connection points: 2
#     Edge 124, Type (0, 0), BuildingBlock: OJICUG_clean_linker_0, # of connection points: 2
#     Edge 125, Type (0, 0), BuildingBlock: OJICUG_clean_linker_0, # of connection points: 2
#     Edge 126, Type (0, 0), BuildingBlock: OJICUG_clean_linker_0, # of connection points: 2
#     Edge 127, Type (0, 0), BuildingBlock: OJICUG_clean_linker_0, # of connection points: 2
#     Edge 128, Type (0, 0), BuildingBlock: OJICUG_clean_linker_0, # of connection points: 2
#     Edge 129, Type (0, 0), BuildingBlock: OJICUG_clean_linker_0, # of connection points: 2
#     Edge 130, Type (0, 0), BuildingBlock: OJICUG_clean_linker_0, # of connection points: 2
#     Edge 131, Type (0, 0), BuildingBlock: OJICUG_clean_linker_0, # of connection points: 2
#     Edge 132, Type (0, 0), BuildingBlock: OJICUG_clean_linker_0, # of connection points: 2
#     Edge 133, Type (0, 0), BuildingBlock: OJICUG_clean_linker_0, # of connection points: 2
#     Edge 134, Type (0, 0), BuildingBlock: OJICUG_clean_linker_0, # of connection points: 2
#     Edge 135, Type (0, 0), BuildingBlock: OJICUG_clean_linker_0, # of connection points: 2
#     Edge 136, Type (0, 0), BuildingBlock: OJICUG_clean_linker_0, # of connection points: 2
#     Edge 137, Type (0, 0), BuildingBlock: OJICUG_clean_linker_0, # of connection points: 2
#     Edge 138, Type (0, 0), BuildingBlock: OJICUG_clean_linker_0, # of connection points: 2
#     Edge 139, Type (0, 0), BuildingBlock: OJICUG_clean_linker_0, # of connection points: 2
#     Edge 140, Type (0, 0), BuildingBlock: OJICUG_clean_linker_0, # of connection points: 2
#     Edge 141, Type (0, 0), BuildingBlock: OJICUG_clean_linker_0, # of connection points: 2
#     Edge 142, Type (0, 0), BuildingBlock: OJICUG_clean_linker_0, # of connection points: 2
#     Edge 143, Type (0, 0), BuildingBlock: OJICUG_clean_linker_0, # of connection points: 2
#     Edge 144, Type (0, 0), BuildingBlock: OJICUG_clean_linker_0, # of connection points: 2
#     Edge 145, Type (0, 0), BuildingBlock: OJICUG_clean_linker_0, # of connection points: 2
#     Edge 146, Type (0, 0), BuildingBlock: OJICUG_clean_linker_0, # of connection points: 2
#     Edge 147, Type (0, 0), BuildingBlock: OJICUG_clean_linker_0, # of connection points: 2
#     Edge 148, Type (0, 0), BuildingBlock: OJICUG_clean_linker_0, # of connection points: 2
#     Edge 149, Type (0, 0), BuildingBlock: OJICUG_clean_linker_0, # of connection points: 2
#     Edge 150, Type (0, 0), BuildingBlock: OJICUG_clean_linker_0, # of connection points: 2
#     Edge 151, Type (0, 0), BuildingBlock: OJICUG_clean_linker_0, # of connection points: 2
#     Edge 152, Type (0, 0), BuildingBlock: OJICUG_clean_linker_0, # of connection points: 2
#     Edge 153, Type (0, 0), BuildingBlock: OJICUG_clean_linker_0, # of connection points: 2
#     Edge 154, Type (0, 0), BuildingBlock: OJICUG_clean_linker_0, # of connection points: 2
#     Edge 155, Type (0, 0), BuildingBlock: OJICUG_clean_linker_0, # of connection points: 2
#     Edge 156, Type (0, 0), BuildingBlock: OJICUG_clean_linker_0, # of connection points: 2
#     Edge 157, Type (0, 0), BuildingBlock: OJICUG_clean_linker_0, # of connection points: 2
#     Edge 158, Type (0, 0), BuildingBlock: OJICUG_clean_linker_0, # of connection points: 2
#     Edge 159, Type (0, 0), BuildingBlock: OJICUG_clean_linker_0, # of connection points: 2
#     Edge 160, Type (0, 0), BuildingBlock: OJICUG_clean_linker_0, # of connection points: 2
#     Edge 161, Type (0, 0), BuildingBlock: OJICUG_clean_linker_0, # of connection points: 2
#     Edge 162, Type (0, 0), BuildingBlock: OJICUG_clean_linker_0, # of connection points: 2
#     Edge 163, Type (0, 0), BuildingBlock: OJICUG_clean_linker_0, # of connection points: 2
#     Edge 164, Type (0, 0), BuildingBlock: OJICUG_clean_linker_0, # of connection points: 2
#     Edge 165, Type (0, 0), BuildingBlock: OJICUG_clean_linker_0, # of connection points: 2
#     Edge 166, Type (0, 0), BuildingBlock: OJICUG_clean_linker_0, # of connection points: 2
#     Edge 167, Type (0, 0), BuildingBlock: OJICUG_clean_linker_0, # of connection points: 2
#     Edge 168, Type (0, 0), BuildingBlock: OJICUG_clean_linker_0, # of connection points: 2
#     Edge 169, Type (0, 0), BuildingBlock: OJICUG_clean_linker_0, # of connection points: 2
#     Edge 170, Type (0, 0), BuildingBlock: OJICUG_clean_linker_0, # of connection points: 2
#     Edge 171, Type (0, 0), BuildingBlock: OJICUG_clean_linker_0, # of connection points: 2
#     Edge 172, Type (0, 0), BuildingBlock: OJICUG_clean_linker_0, # of connection points: 2
#     Edge 173, Type (0, 0), BuildingBlock: OJICUG_clean_linker_0, # of connection points: 2
#     Edge 174, Type (0, 0), BuildingBlock: OJICUG_clean_linker_0, # of connection points: 2
#     Edge 175, Type (0, 0), BuildingBlock: OJICUG_clean_linker_0, # of connection points: 2
#     Edge 176, Type (0, 0), BuildingBlock: OJICUG_clean_linker_0, # of connection points: 2
#     Edge 177, Type (0, 0), BuildingBlock: OJICUG_clean_linker_0, # of connection points: 2
#     Edge 178, Type (0, 0), BuildingBlock: OJICUG_clean_linker_0, # of connection points: 2
#     Edge 179, Type (0, 0), BuildingBlock: OJICUG_clean_linker_0, # of connection points: 2
#     Edge 180, Type (0, 0), BuildingBlock: OJICUG_clean_linker_0, # of connection points: 2
#     Edge 181, Type (0, 0), BuildingBlock: OJICUG_clean_linker_0, # of connection points: 2
#     Edge 182, Type (0, 0), BuildingBlock: OJICUG_clean_linker_0, # of connection points: 2
#     Edge 183, Type (0, 0), BuildingBlock: OJICUG_clean_linker_0, # of connection points: 2
#     Edge 184, Type (0, 0), BuildingBlock: OJICUG_clean_linker_0, # of connection points: 2
#     Edge 185, Type (0, 0), BuildingBlock: OJICUG_clean_linker_0, # of connection points: 2
#     Edge 186, Type (0, 0), BuildingBlock: OJICUG_clean_linker_0, # of connection points: 2
#     Edge 187, Type (0, 0), BuildingBlock: OJICUG_clean_linker_0, # of connection points: 2
#     Edge 188, Type (0, 0), BuildingBlock: OJICUG_clean_linker_0, # of connection points: 2
#     Edge 189, Type (0, 0), BuildingBlock: OJICUG_clean_linker_0, # of connection points: 2
#     Edge 190, Type (0, 0), BuildingBlock: OJICUG_clean_linker_0, # of connection points: 2
#     Edge 191, Type (0, 0), BuildingBlock: OJICUG_clean_linker_0, # of connection points: 2
#     Edge 192, Type (0, 0), BuildingBlock: OJICUG_clean_linker_0, # of connection points: 2
#     Edge 193, Type (0, 0), BuildingBlock: OJICUG_clean_linker_0, # of connection points: 2
#     Edge 194, Type (0, 0), BuildingBlock: OJICUG_clean_linker_0, # of connection points: 2
#     Edge 195, Type (0, 0), BuildingBlock: OJICUG_clean_linker_0, # of connection points: 2
#     Edge 196, Type (0, 0), BuildingBlock: OJICUG_clean_linker_0, # of connection points: 2
#     Edge 197, Type (0, 0), BuildingBlock: OJICUG_clean_linker_0, # of connection points: 2
#     Edge 198, Type (0, 0), BuildingBlock: OJICUG_clean_linker_0, # of connection points: 2
#     Edge 199, Type (0, 0), BuildingBlock: OJICUG_clean_linker_0, # of connection points: 2
#     Edge 200, Type (0, 0), BuildingBlock: OJICUG_clean_linker_0, # of connection points: 2
#     Edge 201, Type (0, 0), BuildingBlock: OJICUG_clean_linker_0, # of connection points: 2
#     Edge 202, Type (0, 0), BuildingBlock: OJICUG_clean_linker_0, # of connection points: 2
#     Edge 203, Type (0, 0), BuildingBlock: OJICUG_clean_linker_0, # of connection points: 2
#     Edge 204, Type (0, 0), BuildingBlock: OJICUG_clean_linker_0, # of connection points: 2
#     Edge 205, Type (0, 0), BuildingBlock: OJICUG_clean_linker_0, # of connection points: 2
#     Edge 206, Type (0, 0), BuildingBlock: OJICUG_clean_linker_0, # of connection points: 2
#     Edge 207, Type (0, 0), BuildingBlock: OJICUG_clean_linker_0, # of connection points: 2
#     Edge 208, Type (0, 0), BuildingBlock: OJICUG_clean_linker_0, # of connection points: 2
#     Edge 209, Type (0, 0), BuildingBlock: OJICUG_clean_linker_0, # of connection points: 2
#     Edge 210, Type (0, 0), BuildingBlock: OJICUG_clean_linker_0, # of connection points: 2
#     Edge 211, Type (0, 0), BuildingBlock: OJICUG_clean_linker_0, # of connection points: 2
#     Edge 212, Type (0, 0), BuildingBlock: OJICUG_clean_linker_0, # of connection points: 2
#     Edge 213, Type (0, 0), BuildingBlock: OJICUG_clean_linker_0, # of connection points: 2
#     Edge 214, Type (0, 0), BuildingBlock: OJICUG_clean_linker_0, # of connection points: 2
#     Edge 215, Type (0, 0), BuildingBlock: OJICUG_clean_linker_0, # of connection points: 2
#     Edge 216, Type (0, 0), BuildingBlock: OJICUG_clean_linker_0, # of connection points: 2
#     Edge 217, Type (0, 0), BuildingBlock: OJICUG_clean_linker_0, # of connection points: 2
#     Edge 218, Type (0, 0), BuildingBlock: OJICUG_clean_linker_0, # of connection points: 2
#     Edge 219, Type (0, 0), BuildingBlock: OJICUG_clean_linker_0, # of connection points: 2
#     Edge 220, Type (0, 0), BuildingBlock: OJICUG_clean_linker_0, # of connection points: 2
#     Edge 221, Type (0, 0), BuildingBlock: OJICUG_clean_linker_0, # of connection points: 2
#     Edge 222, Type (0, 0), BuildingBlock: OJICUG_clean_linker_0, # of connection points: 2
#     Edge 223, Type (0, 0), BuildingBlock: OJICUG_clean_linker_0, # of connection points: 2
#     Edge 224, Type (0, 0), BuildingBlock: OJICUG_clean_linker_0, # of connection points: 2
#     Edge 225, Type (0, 0), BuildingBlock: OJICUG_clean_linker_0, # of connection points: 2
#     Edge 226, Type (0, 0), BuildingBlock: OJICUG_clean_linker_0, # of connection points: 2
#     Edge 227, Type (0, 0), BuildingBlock: OJICUG_clean_linker_0, # of connection points: 2
#     Edge 228, Type (0, 0), BuildingBlock: OJICUG_clean_linker_0, # of connection points: 2
#     Edge 229, Type (0, 0), BuildingBlock: OJICUG_clean_linker_0, # of connection points: 2
#     Edge 230, Type (0, 0), BuildingBlock: OJICUG_clean_linker_0, # of connection points: 2
#     Edge 231, Type (0, 0), BuildingBlock: OJICUG_clean_linker_0, # of connection points: 2
#     Edge 232, Type (0, 0), BuildingBlock: OJICUG_clean_linker_0, # of connection points: 2
#     Edge 233, Type (0, 0), BuildingBlock: OJICUG_clean_linker_0, # of connection points: 2
#     Edge 234, Type (0, 0), BuildingBlock: OJICUG_clean_linker_0, # of connection points: 2
#     Edge 235, Type (0, 0), BuildingBlock: OJICUG_clean_linker_0, # of connection points: 2
#     Edge 236, Type (0, 0), BuildingBlock: OJICUG_clean_linker_0, # of connection points: 2
#     Edge 237, Type (0, 0), BuildingBlock: OJICUG_clean_linker_0, # of connection points: 2
#     Edge 238, Type (0, 0), BuildingBlock: OJICUG_clean_linker_0, # of connection points: 2
#     Edge 239, Type (0, 0), BuildingBlock: OJICUG_clean_linker_0, # of connection points: 2
#     Edge 240, Type (0, 0), BuildingBlock: OJICUG_clean_linker_0, # of connection points: 2
#     Edge 241, Type (0, 0), BuildingBlock: OJICUG_clean_linker_0, # of connection points: 2
#     Edge 242, Type (0, 0), BuildingBlock: OJICUG_clean_linker_0, # of connection points: 2
#     Edge 243, Type (0, 0), BuildingBlock: OJICUG_clean_linker_0, # of connection points: 2
#     Edge 244, Type (0, 0), BuildingBlock: OJICUG_clean_linker_0, # of connection points: 2
#     Edge 245, Type (0, 0), BuildingBlock: OJICUG_clean_linker_0, # of connection points: 2
#     Edge 246, Type (0, 0), BuildingBlock: OJICUG_clean_linker_0, # of connection points: 2
#     Edge 247, Type (0, 0), BuildingBlock: OJICUG_clean_linker_0, # of connection points: 2
#     Edge 248, Type (0, 0), BuildingBlock: OJICUG_clean_linker_0, # of connection points: 2
#     Edge 249, Type (0, 0), BuildingBlock: OJICUG_clean_linker_0, # of connection points: 2
#     Edge 250, Type (0, 0), BuildingBlock: OJICUG_clean_linker_0, # of connection points: 2
#     Edge 251, Type (0, 0), BuildingBlock: OJICUG_clean_linker_0, # of connection points: 2
#     Edge 252, Type (0, 0), BuildingBlock: OJICUG_clean_linker_0, # of connection points: 2
#     Edge 253, Type (0, 0), BuildingBlock: OJICUG_clean_linker_0, # of connection points: 2
#     Edge 254, Type (0, 0), BuildingBlock: OJICUG_clean_linker_0, # of connection points: 2
#     Edge 255, Type (0, 0), BuildingBlock: OJICUG_clean_linker_0, # of connection points: 2
#     Edge 256, Type (0, 0), BuildingBlock: OJICUG_clean_linker_0, # of connection points: 2
#     Edge 257, Type (0, 0), BuildingBlock: OJICUG_clean_linker_0, # of connection points: 2
#     Edge 258, Type (0, 0), BuildingBlock: OJICUG_clean_linker_0, # of connection points: 2
#     Edge 259, Type (0, 0), BuildingBlock: OJICUG_clean_linker_0, # of connection points: 2
#     Edge 260, Type (0, 0), BuildingBlock: OJICUG_clean_linker_0, # of connection points: 2
#     Edge 261, Type (0, 0), BuildingBlock: OJICUG_clean_linker_0, # of connection points: 2
#     Edge 262, Type (0, 0), BuildingBlock: OJICUG_clean_linker_0, # of connection points: 2
#     Edge 263, Type (0, 0), BuildingBlock: OJICUG_clean_linker_0, # of connection points: 2
#     Edge 264, Type (0, 0), BuildingBlock: OJICUG_clean_linker_0, # of connection points: 2
#     Edge 265, Type (0, 0), BuildingBlock: OJICUG_clean_linker_0, # of connection points: 2
#     Edge 266, Type (0, 0), BuildingBlock: OJICUG_clean_linker_0, # of connection points: 2
#     Edge 267, Type (0, 0), BuildingBlock: OJICUG_clean_linker_0, # of connection points: 2
#     Edge 268, Type (0, 0), BuildingBlock: OJICUG_clean_linker_0, # of connection points: 2
#     Edge 269, Type (0, 0), BuildingBlock: OJICUG_clean_linker_0, # of connection points: 2
#     Edge 270, Type (0, 0), BuildingBlock: OJICUG_clean_linker_0, # of connection points: 2
#     Edge 271, Type (0, 0), BuildingBlock: OJICUG_clean_linker_0, # of connection points: 2
#     Edge 272, Type (0, 0), BuildingBlock: OJICUG_clean_linker_0, # of connection points: 2
#     Edge 273, Type (0, 0), BuildingBlock: OJICUG_clean_linker_0, # of connection points: 2
#     Edge 274, Type (0, 0), BuildingBlock: OJICUG_clean_linker_0, # of connection points: 2
#     Edge 275, Type (0, 0), BuildingBlock: OJICUG_clean_linker_0, # of connection points: 2
#     Edge 276, Type (0, 0), BuildingBlock: OJICUG_clean_linker_0, # of connection points: 2
#     Edge 277, Type (0, 0), BuildingBlock: OJICUG_clean_linker_0, # of connection points: 2
#     Edge 278, Type (0, 0), BuildingBlock: OJICUG_clean_linker_0, # of connection points: 2
#     Edge 279, Type (0, 0), BuildingBlock: OJICUG_clean_linker_0, # of connection points: 2
#     Edge 280, Type (0, 0), BuildingBlock: OJICUG_clean_linker_0, # of connection points: 2
#     Edge 281, Type (0, 0), BuildingBlock: OJICUG_clean_linker_0, # of connection points: 2
#     Edge 282, Type (0, 0), BuildingBlock: OJICUG_clean_linker_0, # of connection points: 2
#     Edge 283, Type (0, 0), BuildingBlock: OJICUG_clean_linker_0, # of connection points: 2
#     Edge 284, Type (0, 0), BuildingBlock: OJICUG_clean_linker_0, # of connection points: 2
#     Edge 285, Type (0, 0), BuildingBlock: OJICUG_clean_linker_0, # of connection points: 2
#     Edge 286, Type (0, 0), BuildingBlock: OJICUG_clean_linker_0, # of connection points: 2
#     Edge 287, Type (0, 0), BuildingBlock: OJICUG_clean_linker_0, # of connection points: 2
# Relax obj value: 0.112
# Max RMSD: 0.145
# Mean RMSD: 0.145
data_MOF--net-ukw--node1-GALJAG_clean_sbu_0--edge1-OJICUG_clean_linker_0
_symmetry_space_group_name_H-M    P1
_symmetry_Int_Tables_number       1
_symmetry_cell_setting            triclinic
loop_
_symmetry_equiv_pos_as_xyz
'x, y, z'
_cell_length_a     54.997554
_cell_length_b     54.969059
_cell_length_c     54.983805
_cell_angle_alpha  89.969967
_cell_angle_beta   90.029092
_cell_angle_gamma 90.004008
loop_
_atom_site_label
_atom_site_type_symbol
_atom_site_fract_x
_atom_site_fract_y
_atom_site_fract_z
_atom_type_partial_charge
In0 In 0.02456 0.0911 0.34205 0.0
O1 O 0.01225 0.12375 0.32026 0.0
O2 O 0.00693 0.08803 0.30549 0.0
C3 C 0.03723 0.10588 0.38655 0.0
C4 C 0.98349 0.07003 0.35695 0.0
C5 C 0.06866 0.08112 0.32409 0.0
O6 O 0.02839 0.12052 0.37106 0.0
O7 O 0.04052 0.08438 0.37906 0.0
O8 O 0.0553 0.06456 0.33308 0.0
O9 O 0.05952 0.10219 0.32407 0.0
C10 C 0.00401 0.11072 0.30309 0.0
O11 O -0.00076 0.05786 0.34521 0.0
O12 O 0.98883 0.09196 0.36093 0.0
In13 In 0.15655 0.77539 0.59366 0.0
O14 O 0.12516 0.76515 0.56916 0.0
O15 O 0.16163 0.75953 0.55649 0.0
C16 C 0.14037 0.7871 0.63794 0.0
C17 C 0.17522 0.73291 0.60795 0.0
C18 C 0.16785 0.81989 0.57759 0.0
O19 O 0.12613 0.77902 0.62169 0.0
O20 O 0.1622 0.79004 0.63136 0.0
O21 O 0.18387 0.80615 0.58701 0.0
O22 O 0.14672 0.81099 0.57634 0.0
C23 C 0.13908 0.75754 0.5524 0.0
O24 O 0.18875 0.74904 0.59836 0.0
O25 O 0.1531 0.73856 0.61009 0.0
In26 In 0.46442 0.90429 0.84399 0.0
O27 O 0.48951 0.93751 0.84884 0.0
O28 O 0.4996 0.90315 0.86413 0.0
C29 C 0.42058 0.91495 0.82579 0.0
C30 C 0.48496 0.88677 0.80406 0.0
C31 C 0.45013 0.88657 0.88688 0.0
O32 O 0.43352 0.93103 0.83618 0.0
O33 O 0.43005 0.89406 0.82449 0.0
O34 O 0.46089 0.8733 0.87141 0.0
O35 O 0.44607 0.90823 0.88027 0.0
C36 C 0.50502 0.92516 0.86071 0.0
O37 O 0.47684 0.87285 0.82058 0.0
O38 O 0.48218 0.90929 0.80771 0.0
In39 In 0.32851 0.21681 0.09585 0.0
O40 O 0.3606 0.22995 0.07374 0.0
O41 O 0.32469 0.23498 0.05946 0.0
C42 C 0.34657 0.20449 0.13931 0.0
C43 C 0.30479 0.2562 0.11155 0.0
C44 C 0.31944 0.172 0.07891 0.0
O45 O 0.35961 0.21489 0.1234 0.0
O46 O 0.32504 0.19973 0.1328 0.0
O47 O 0.30318 0.1843 0.0897 0.0
O48 O 0.33959 0.18263 0.07629 0.0
C49 C 0.34729 0.23808 0.05674 0.0
O50 O 0.29408 0.24071 0.09819 0.0
O51 O 0.32656 0.25142 0.11676 0.0
In52 In 0.02405 0.90662 0.14673 0.0
O53 O 0.01306 0.87481 0.17039 0.0
O54 O 0.00694 0.91106 0.18342 0.0
C55 C 0.03689 0.88987 0.10299 0.0
C56 C 0.9823 0.92598 0.13138 0.0
C57 C 0.06806 0.9188 0.16347 0.0
O58 O 0.02831 0.87583 0.11916 0.0
O59 O 0.03975 0.91176 0.10941 0.0
O60 O 0.05436 0.93437 0.15329 0.0
O61 O 0.05929 0.89766 0.16528 0.0
C62 C 0.0048 0.88846 0.18706 0.0
O63 O -0.00215 0.93898 0.14248 0.0
O64 O 0.98817 0.90405 0.12819 0.0
In65 In 0.33398 0.77601 0.39901 0.0
O66 O 0.30154 0.74973 0.39563 0.0
O67 O 0.33593 0.74019 0.38014 0.0
C68 C 0.32192 0.82005 0.41583 0.0
C69 C 0.35281 0.75703 0.43924 0.0
C70 C 0.35054 0.78951 0.35534 0.0
O71 O 0.30633 0.80644 0.40558 0.0
O72 O 0.34298 0.81113 0.41777 0.0
O73 O 0.36453 0.78021 0.37115 0.0
O74 O 0.32875 0.79253 0.362 0.0
C75 C 0.31418 0.7342 0.38411 0.0
O76 O 0.36619 0.76524 0.42233 0.0
O77 O 0.33016 0.75903 0.43585 0.0
In78 In 0.468 0.083 0.64547 0.0
O79 O 0.47878 0.11458 0.66937 0.0
O80 O 0.48454 0.07822 0.68242 0.0
C81 C 0.45535 0.0995 0.6016 0.0
C82 C 0.51 0.06416 0.63019 0.0
C83 C 0.42365 0.07205 0.66209 0.0
O84 O 0.46397 0.11359 0.6177 0.0
O85 O 0.45239 0.07764 0.60813 0.0
O86 O 0.43702 0.05596 0.65227 0.0
O87 O 0.43291 0.09301 0.66358 0.0
C88 C 0.48662 0.10082 0.68618 0.0
O89 O 0.49432 0.05076 0.64067 0.0
O90 O 0.50416 0.0862 0.62772 0.0
In91 In 0.15974 0.21533 0.89653 0.0
O92 O 0.12815 0.22815 0.91947 0.0
O93 O 0.16449 0.23386 0.93246 0.0
C94 C 0.14234 0.20133 0.85345 0.0
C95 C 0.18027 0.25598 0.87975 0.0
C96 C 0.17038 0.17143 0.91466 0.0
O97 O 0.12877 0.21127 0.86922 0.0
O98 O 0.16411 0.19778 0.85994 0.0
O99 O 0.18636 0.18419 0.90392 0.0
O100 O 0.14966 0.18115 0.91647 0.0
C101 C 0.14195 0.2368 0.93583 0.0
O102 O 0.19263 0.24089 0.89217 0.0
O103 O 0.15849 0.25008 0.87582 0.0
In104 In 0.34532 0.0241 0.08453 0.0
O105 O 0.35209 0.00144 0.05013 0.0
O106 O 0.35013 0.98373 0.08479 0.0
C107 C 0.33013 0.06953 0.07562 0.0
C108 C 0.30353 0.00876 0.10292 0.0
C109 C 0.3912 0.03068 0.09993 0.0
O110 O 0.33706 0.0557 0.0585 0.0
O111 O 0.33134 0.06048 0.09668 0.0
O112 O 0.37449 0.0243 0.11445 0.0
O113 O 0.38441 0.03428 0.07831 0.0
C114 C 0.35295 0.98172 0.06215 0.0
O115 O 0.32162 0.01381 0.11638 0.0
O116 O 0.30653 0.01227 0.08035 0.0
In117 In 0.21588 0.09534 0.33479 0.0
O118 O 0.24296 0.09991 0.30328 0.0
O119 O 0.25322 0.11017 0.33948 0.0
C120 C 0.17126 0.08222 0.32009 0.0
C121 C 0.23346 0.05353 0.35139 0.0
C122 C 0.20628 0.13821 0.35565 0.0
O123 O 0.18538 0.094 0.30615 0.0
O124 O 0.1799 0.07711 0.34068 0.0
O125 O 0.20764 0.11879 0.368 0.0
O126 O 0.20877 0.1357 0.33297 0.0
C127 C 0.25916 0.10846 0.3174 0.0
O128 O 0.22613 0.07017 0.36557 0.0
O129 O 0.23116 0.05788 0.32893 0.0
In130 In 0.14857 0.96689 0.58414 0.0
O131 O 0.14341 0.99319 0.55196 0.0
O132 O 0.13033 0.00286 0.58737 0.0
C133 C 0.16501 0.92255 0.57278 0.0
C134 C 0.18935 0.98602 0.60125 0.0
C135 C 0.10506 0.95393 0.60122 0.0
O136 O 0.15492 0.93602 0.55693 0.0
O137 O 0.16696 0.93174 0.59372 0.0
O138 O 0.12125 0.96272 0.61512 0.0
O139 O 0.11133 0.95103 0.57929 0.0
C140 C 0.1328 0.00877 0.56536 0.0
O141 O 0.17291 0.97797 0.6153 0.0
O142 O 0.18525 0.98375 0.57873 0.0
In143 In 0.27419 0.89639 0.83643 0.0
O144 O 0.26266 0.92054 0.86761 0.0
O145 O 0.25785 0.93345 0.83113 0.0
C146 C 0.28607 0.8537 0.85653 0.0
C147 C 0.23143 0.88201 0.81859 0.0
C148 C 0.31817 0.91161 0.82189 0.0
O149 O 0.28389 0.87281 0.86921 0.0
O150 O 0.28308 0.85645 0.83392 0.0
O151 O 0.30447 0.89957 0.80776 0.0
O152 O 0.30942 0.91594 0.8426 0.0
C153 C 0.2551 0.93727 0.85363 0.0
O154 O 0.24735 0.89149 0.80477 0.0
O155 O 0.23742 0.87992 0.84064 0.0
In156 In 0.3426 0.96642 0.40547 0.0
O157 O 0.34716 0.99315 0.43739 0.0
O158 O 0.36099 0.00238 0.40219 0.0
C159 C 0.32569 0.92256 0.41794 0.0
C160 C 0.30197 0.98498 0.38723 0.0
C161 C 0.38617 0.95266 0.38906 0.0
O162 O 0.33577 0.93637 0.43347 0.0
O163 O 0.32407 0.93115 0.39669 0.0
O164 O 0.37038 0.96182 0.37495 0.0
O165 O 0.37951 0.94983 0.41088 0.0
C166 C 0.35802 0.00858 0.42404 0.0
O167 O 0.31878 0.977 0.37359 0.0
O168 O 0.3057 0.98298 0.40984 0.0
In169 In 0.27699 0.09504 0.65519 0.0
O170 O 0.25079 0.09888 0.68762 0.0
O171 O 0.24078 0.11294 0.65267 0.0
C172 C 0.32122 0.07804 0.66612 0.0
C173 C 0.25797 0.05461 0.63708 0.0
C174 C 0.28944 0.13916 0.63914 0.0
O175 O 0.30787 0.08785 0.68221 0.0
O176 O 0.31206 0.07684 0.6451 0.0
O177 O 0.28094 0.12314 0.62488 0.0
O178 O 0.29242 0.13241 0.66093 0.0
C179 C 0.235 0.10966 0.6746 0.0
O180 O 0.2657 0.07153 0.6234 0.0
O181 O 0.2605 0.0581 0.65967 0.0
In182 In 0.14596 0.02534 0.90706 0.0
O183 O 0.14132 -0.0011 0.93921 0.0
O184 O 0.12716 0.9896 0.90414 0.0
C185 C 0.16354 0.06912 0.91885 0.0
C186 C 0.1863 0.00585 0.88926 0.0
C187 C 0.1025 0.03909 0.89033 0.0
O188 O 0.15308 0.0558 0.93457 0.0
O189 O 0.16512 0.06012 0.89779 0.0
O190 O 0.11842 0.02998 0.87634 0.0
O191 O 0.10902 0.04193 0.9122 0.0
C192 C 0.13024 0.98349 0.92601 0.0
O193 O 0.16971 0.01404 0.87544 0.0
O194 O 0.18253 0.00811 0.91183 0.0
In195 In 0.21516 0.90083 0.15678 0.0
O196 O 0.24097 0.89675 0.18948 0.0
O197 O 0.25139 0.88297 0.15455 0.0
C198 C 0.17063 0.91683 0.16786 0.0
C199 C 0.23397 0.94161 0.1391 0.0
C200 C 0.20319 0.85671 0.14032 0.0
O201 O 0.18423 0.90718 0.18385 0.0
O202 O 0.17976 0.91852 0.14687 0.0
O203 O 0.21178 0.87285 0.12623 0.0
O204 O 0.19992 0.86335 0.16209 0.0
C205 C 0.25687 0.88601 0.1766 0.0
O206 O 0.22618 0.92487 0.12525 0.0
O207 O 0.2316 0.93779 0.16166 0.0
In208 In 0.08809 0.34552 0.0258 0.0
O209 O 0.05427 0.34991 0.00149 0.0
O210 O 0.08795 0.36642 0.99107 0.0
C211 C 0.07868 0.32567 0.06922 0.0
C212 C 0.10609 0.3066 0.00372 0.0
C213 C 0.10502 0.38865 0.04044 0.0
O214 O 0.06213 0.33605 0.0569 0.0
O215 O 0.09944 0.32534 0.05944 0.0
O216 O 0.11853 0.37349 0.02951 0.0
O217 O 0.08354 0.38155 0.04457 0.0
C218 C 0.06597 0.36244 0.98599 0.0
O219 O 0.1198 0.32312 0.01217 0.0
O220 O 0.08356 0.30975 0.0069 0.0
In221 In 0.58414 0.14994 0.96676 0.0
O222 O 0.55248 0.14437 0.99353 0.0
O223 O 0.58837 0.13252 0.00305 0.0
C224 C 0.57216 0.16644 0.92263 0.0
C225 C 0.60137 0.19112 0.98503 0.0
C226 C 0.60037 0.1061 0.95364 0.0
O227 O 0.55638 0.1568 0.93648 0.0
O228 O 0.59338 0.16782 0.93131 0.0
O229 O 0.61463 0.12209 0.96223 0.0
O230 O 0.57852 0.11273 0.95099 0.0
C231 C 0.56635 0.13439 0.00914 0.0
O232 O 0.61539 0.17462 0.97702 0.0
O233 O 0.57885 0.18682 0.98323 0.0
In234 In 0.09647 0.32853 0.21629 0.0
O235 O 0.10065 0.2953 0.24152 0.0
O236 O 0.11385 0.3302 0.25279 0.0
C237 C 0.08198 0.31578 0.17141 0.0
C238 C 0.05571 0.3454 0.23592 0.0
C239 C 0.13858 0.35082 0.20649 0.0
O240 O 0.09488 0.30159 0.18424 0.0
O241 O 0.07641 0.33556 0.18146 0.0
O242 O 0.119 0.36264 0.20916 0.0
O243 O 0.13658 0.32797 0.20774 0.0
C244 C 0.11109 0.30799 0.25777 0.0
O245 O 0.07237 0.35944 0.22842 0.0
O246 O 0.05958 0.32291 0.23305 0.0
In247 In 0.90875 0.84473 0.46562 0.0
O248 O 0.94164 0.8489 0.49125 0.0
O249 O 0.90758 0.86535 0.50043 0.0
C250 C 0.91997 0.82641 0.42194 0.0
C251 C 0.89036 0.80541 0.48676 0.0
C252 C 0.8916 0.88792 0.45141 0.0
O253 O 0.9358 0.83713 0.4349 0.0
O254 O 0.89909 0.82479 0.43132 0.0
O255 O 0.87797 0.87227 0.46146 0.0
O256 O 0.91331 0.88126 0.44784 0.0
C257 C 0.92934 0.86134 0.50634 0.0
O258 O 0.87681 0.82191 0.478 0.0
O259 O 0.91295 0.80868 0.48419 0.0
In260 In 0.89463 0.16712 0.2154 0.0
O261 O 0.89145 0.20119 0.23978 0.0
O262 O 0.87183 0.16894 0.24892 0.0
C263 C 0.91251 0.17779 0.17131 0.0
C264 C 0.93387 0.14898 0.23696 0.0
C265 C 0.853 0.14631 0.20133 0.0
O266 O 0.90023 0.19319 0.18333 0.0
O267 O 0.91608 0.15776 0.18191 0.0
O268 O 0.86869 0.13472 0.21362 0.0
O269 O 0.85875 0.16788 0.19578 0.0
C270 C 0.8773 0.19044 0.25449 0.0
O271 O 0.91745 0.13537 0.22822 0.0
O272 O 0.93045 0.17156 0.23448 0.0
In273 In 0.41059 0.64681 0.52129 0.0
O274 O 0.44634 0.6416 0.50024 0.0
O275 O 0.41261 0.64324 0.48085 0.0
C276 C 0.41747 0.66053 0.56757 0.0
C277 C 0.3912 0.68824 0.50607 0.0
C278 C 0.3954 0.60052 0.52555 0.0
O279 O 0.43516 0.65401 0.5543 0.0
O280 O 0.39688 0.65983 0.55752 0.0
O281 O 0.38094 0.61741 0.51955 0.0
O282 O 0.41687 0.60728 0.52991 0.0
C283 C 0.43539 0.64104 0.47992 0.0
O284 O 0.37831 0.66959 0.51046 0.0
O285 O 0.41375 0.68602 0.5102 0.0
In286 In 0.09433 0.65776 0.27572 0.0
O287 O 0.07059 0.62615 0.26439 0.0
O288 O 0.05775 0.66251 0.2584 0.0
C289 C 0.1376 0.64053 0.28946 0.0
C290 C 0.11028 0.67725 0.23422 0.0
C291 C 0.07758 0.66967 0.31979 0.0
O292 O 0.12159 0.62671 0.28026 0.0
O293 O 0.1313 0.66246 0.29228 0.0
O294 O 0.08819 0.6852 0.30639 0.0
O295 O 0.07517 0.64876 0.31062 0.0
C296 C 0.05402 0.63993 0.25613 0.0
O297 O 0.09884 0.69017 0.24958 0.0
O298 O 0.11354 0.65535 0.24016 0.0
In299 In 0.39739 0.33552 0.7755 0.0
O300 O 0.42159 0.36707 0.76475 0.0
O301 O 0.43421 0.33065 0.75879 0.0
C302 C 0.35402 0.35281 0.78887 0.0
C303 C 0.38195 0.31673 0.73344 0.0
C304 C 0.41383 0.32286 0.81954 0.0
O305 O 0.37015 0.36661 0.77982 0.0
O306 O 0.36026 0.33087 0.79177 0.0
O307 O 0.40341 0.30752 0.80577 0.0
O308 O 0.41606 0.34399 0.8108 0.0
C309 C 0.43818 0.35321 0.75669 0.0
O310 O 0.39293 0.30348 0.74888 0.0
O311 O 0.37879 0.33857 0.73961 0.0
In312 In 0.96711 0.90798 0.64699 0.0
O313 O 0.99326 0.94056 0.64357 0.0
O314 O 0.00277 0.90614 0.62804 0.0
C315 C 0.92296 0.91947 0.66393 0.0
C316 C 0.98663 0.88889 0.68678 0.0
C317 C 0.95441 0.89153 0.60309 0.0
O318 O 0.93638 0.93528 0.65377 0.0
O319 O 0.93209 0.89848 0.66566 0.0
O320 O 0.96313 0.87745 0.61915 0.0
O321 O 0.95131 0.91334 0.6097 0.0
C322 C 0.00869 0.92793 0.6319 0.0
O323 O 0.97828 0.87565 0.66983 0.0
O324 O 0.98444 0.91158 0.68371 0.0
In325 In 0.83404 0.21899 0.39822 0.0
O326 O 0.86632 0.22937 0.42128 0.0
O327 O 0.83063 0.2309 0.43708 0.0
C328 C 0.84883 0.21295 0.35207 0.0
C329 C 0.81085 0.26099 0.39088 0.0
C330 C 0.82546 0.17338 0.41304 0.0
O331 O 0.86348 0.21952 0.36859 0.0
O332 O 0.82742 0.20886 0.35917 0.0
O333 O 0.80824 0.18731 0.40658 0.0
O334 O 0.84648 0.18248 0.41171 0.0
C335 C 0.85323 0.23451 0.4396 0.0
O336 O 0.79919 0.24108 0.3919 0.0
O337 O 0.83355 0.25936 0.39348 0.0
In338 In 0.526 0.08071 0.14684 0.0
O339 O 0.50232 0.04604 0.14463 0.0
O340 O 0.49294 0.07724 0.12348 0.0
C341 C 0.56994 0.07129 0.16591 0.0
C342 C 0.50332 0.10009 0.18486 0.0
C343 C 0.54002 0.10013 0.10448 0.0
O344 O 0.55803 0.05516 0.15449 0.0
O345 O 0.55936 0.09154 0.16796 0.0
O346 O 0.52763 0.11215 0.11973 0.0
O347 O 0.54581 0.07886 0.11105 0.0
C348 C 0.4877 0.05586 0.12973 0.0
O349 O 0.5121 0.11316 0.16803 0.0
O350 O 0.50636 0.07746 0.18247 0.0
In351 In 0.65896 0.77712 0.89938 0.0
O352 O 0.62598 0.76388 0.92011 0.0
O353 O 0.66138 0.75677 0.9347 0.0
C354 C 0.64104 0.79163 0.85659 0.0
C355 C 0.68219 0.73798 0.88223 0.0
C356 C 0.6696 0.82082 0.91828 0.0
O357 O 0.62805 0.78024 0.87185 0.0
O358 O 0.66247 0.79632 0.86345 0.0
O359 O 0.68541 0.8084 0.90697 0.0
O360 O 0.64911 0.81077 0.92051 0.0
C361 C 0.63865 0.75418 0.93675 0.0
O362 O 0.69268 0.75222 0.89706 0.0
O363 O 0.66098 0.744 0.87614 0.0
In364 In 0.96506 0.0863 0.84405 0.0
O365 O 0.99057 0.0534 0.84865 0.0
O366 O 0.00065 0.08807 0.86328 0.0
C367 C 0.92095 0.07577 0.82644 0.0
C368 C 0.98538 0.10374 0.80397 0.0
C369 C 0.95167 0.10324 0.88752 0.0
O370 O 0.93408 0.05958 0.83642 0.0
O371 O 0.93034 0.0967 0.82524 0.0
O372 O 0.9612 0.11703 0.87167 0.0
O373 O 0.94828 0.08146 0.88095 0.0
C374 C 0.00621 0.06608 0.86001 0.0
O375 O 0.97734 0.11769 0.8205 0.0
O376 O 0.98249 0.08122 0.80762 0.0
In377 In 0.65913 0.2142 0.59556 0.0
O378 O 0.69265 0.23926 0.59846 0.0
O379 O 0.6599 0.24845 0.61725 0.0
C380 C 0.67006 0.17055 0.57672 0.0
C381 C 0.63993 0.23618 0.55702 0.0
C382 C 0.64118 0.20028 0.63856 0.0
O383 O 0.68582 0.18307 0.58801 0.0
O384 O 0.64937 0.1803 0.57485 0.0
O385 O 0.62803 0.21083 0.62284 0.0
O386 O 0.66282 0.19604 0.63207 0.0
C387 C 0.6814 0.25421 0.61198 0.0
O388 O 0.62673 0.22713 0.57362 0.0
O389 O 0.66257 0.23352 0.55979 0.0
In390 In 0.52539 0.90698 0.34645 0.0
O391 O 0.51331 0.87635 0.32207 0.0
O392 O 0.50946 0.91306 0.30938 0.0
C393 C 0.53556 0.88639 0.38925 0.0
C394 C 0.48302 0.92599 0.36036 0.0
C395 C 0.57016 0.91908 0.33149 0.0
O396 O 0.53284 0.87382 0.37013 0.0
O397 O 0.53409 0.90916 0.38646 0.0
O398 O 0.55705 0.93412 0.34311 0.0
O399 O 0.56046 0.89871 0.32754 0.0
C400 C 0.50621 0.89064 0.3054 0.0
O401 O 0.49934 0.93941 0.35095 0.0
O402 O 0.48844 0.90381 0.36264 0.0
In403 In 0.83435 0.77652 0.0936 0.0
O404 O 0.80142 0.75092 0.09752 0.0
O405 O 0.83556 0.74134 0.11362 0.0
C406 C 0.82302 0.82034 0.07562 0.0
C407 C 0.853 0.75582 0.05418 0.0
C408 C 0.85109 0.79003 0.1372 0.0
O409 O 0.80717 0.80713 0.08598 0.0
O410 O 0.84402 0.81119 0.07423 0.0
O411 O 0.86493 0.78046 0.12144 0.0
O412 O 0.82941 0.79357 0.13042 0.0
C413 C 0.81374 0.73561 0.1097 0.0
O414 O 0.86645 0.76446 0.07083 0.0
O415 O 0.83038 0.7583 0.05737 0.0
In416 In 0.6442 0.96691 0.90895 0.0
O417 O 0.64038 0.99335 0.94121 0.0
O418 O 0.62526 0.00268 0.90656 0.0
C419 C 0.66169 0.92315 0.92119 0.0
C420 C 0.6845 0.98608 0.89055 0.0
C421 C 0.60073 0.95321 0.89203 0.0
O422 O 0.65105 0.93654 0.93671 0.0
O423 O 0.66344 0.93205 0.9001 0.0
O424 O 0.61669 0.96239 0.87814 0.0
O425 O 0.60718 0.95032 0.91392 0.0
C426 C 0.62899 0.00879 0.92833 0.0
O427 O 0.66769 0.97796 0.87696 0.0
O428 O 0.68092 0.98397 0.91315 0.0
In429 In 0.77648 0.89737 0.65665 0.0
O430 O 0.76488 0.91941 0.62389 0.0
O431 O 0.75859 0.93388 0.65954 0.0
C432 C 0.78935 0.85331 0.64069 0.0
C433 C 0.73521 0.88231 0.67728 0.0
C434 C 0.82048 0.91489 0.66797 0.0
O435 O 0.78051 0.86917 0.62646 0.0
O436 O 0.79251 0.86021 0.6624 0.0
O437 O 0.80715 0.90476 0.68386 0.0
O438 O 0.81133 0.91635 0.64697 0.0
C439 C 0.75625 0.93646 0.63681 0.0
O440 O 0.75059 0.89451 0.68947 0.0
O441 O 0.74105 0.87788 0.65558 0.0
In442 In 0.84565 0.02652 0.4067 0.0
O443 O 0.82112 0.01484 0.37584 0.0
O444 O 0.8091 0.0097 0.41262 0.0
C445 C 0.88861 0.04032 0.38895 0.0
C446 C 0.8616 0.98474 0.42562 0.0
C447 C 0.82921 0.07071 0.41853 0.0
O448 O 0.87239 0.03124 0.37527 0.0
O449 O 0.88269 0.04288 0.41101 0.0
O450 O 0.84 0.05737 0.43402 0.0
O451 O 0.82647 0.06142 0.39771 0.0
C452 C 0.80485 0.00695 0.39019 0.0
O453 O 0.85071 0.00023 0.43887 0.0
O454 O 0.86448 0.99078 0.40369 0.0
In455 In 0.71617 0.09486 0.1565 0.0
O456 O 0.74291 0.10058 0.18819 0.0
O457 O 0.75301 0.11091 0.15197 0.0
C458 C 0.67219 0.0789 0.1703 0.0
C459 C 0.73528 0.05414 0.13907 0.0
C460 C 0.70492 0.13776 0.13656 0.0
O461 O 0.68563 0.09072 0.18488 0.0
O462 O 0.68112 0.07536 0.14952 0.0
O463 O 0.70723 0.11874 0.12378 0.0
O464 O 0.70717 0.13478 0.15922 0.0
C465 C 0.75886 0.10968 0.17412 0.0
O466 O 0.72735 0.07081 0.12525 0.0
O467 O 0.733 0.05795 0.16164 0.0
In468 In 0.64813 0.02391 0.57791 0.0
O469 O 0.64522 -0.00093 0.54413 0.0
O470 O 0.62658 0.9896 0.5769 0.0
C471 C 0.66577 0.06819 0.56748 0.0
C472 C 0.68724 0.00292 0.59698 0.0
C473 C 0.60539 0.03748 0.59669 0.0
O474 O 0.65441 0.05578 0.55168 0.0
O475 O 0.66852 0.05793 0.58781 0.0
O476 O 0.62113 0.02641 0.60938 0.0
O477 O 0.61167 0.0422 0.57508 0.0
C478 C 0.6317 0.98405 0.55531 0.0
O479 O 0.67044 0.01154 0.61019 0.0
O480 O 0.68431 0.00534 0.57432 0.0
In481 In 0.7169 0.89587 0.34046 0.0
O482 O 0.72979 0.91977 0.3713 0.0
O483 O 0.73279 0.93298 0.33471 0.0
C484 C 0.70545 0.85245 0.35914 0.0
C485 C 0.75903 0.88167 0.32119 0.0
C486 C 0.67258 0.91235 0.32874 0.0
O487 O 0.70856 0.87095 0.37255 0.0
O488 O 0.70729 0.85618 0.33654 0.0
O489 O 0.68577 0.90156 0.31316 0.0
O490 O 0.68189 0.91455 0.34957 0.0
C491 C 0.73651 0.93668 0.3571 0.0
O492 O 0.74258 0.89105 0.3079 0.0
O493 O 0.75388 0.87959 0.34346 0.0
In494 In 0.84324 0.96673 0.08259 0.0
O495 O 0.84709 0.99333 0.05038 0.0
O496 O 0.8628 0.00216 0.08486 0.0
C497 C 0.82626 0.92279 0.07031 0.0
C498 C 0.8032 0.98588 0.10142 0.0
C499 C 0.88637 0.95289 0.10001 0.0
O500 O 0.83701 0.93621 0.05489 0.0
O501 O 0.82389 0.93186 0.09125 0.0
O502 O 0.8704 0.96238 0.11366 0.0
O503 O 0.8801 0.9498 0.0781 0.0
C504 C 0.85894 0.00848 0.06319 0.0
O505 O 0.8201 0.9776 0.11478 0.0
O506 O 0.80651 0.9839 0.07876 0.0
In507 In 0.77401 0.09347 0.83641 0.0
O508 O 0.76245 0.06959 0.86778 0.0
O509 O 0.75753 0.05641 0.83144 0.0
C510 C 0.78465 0.13668 0.85604 0.0
C511 C 0.73134 0.10741 0.81812 0.0
C512 C 0.81836 0.07867 0.82252 0.0
O513 O 0.78281 0.11767 0.86896 0.0
O514 O 0.78215 0.13355 0.83343 0.0
O515 O 0.80462 0.09032 0.80809 0.0
O516 O 0.80946 0.07449 0.84321 0.0
C517 C 0.75471 0.05282 0.85397 0.0
O518 O 0.74731 0.09771 0.8045 0.0
O519 O 0.73722 0.10987 0.84015 0.0
In520 In 0.90861 0.64733 0.96551 0.0
O521 O 0.87681 0.6707 0.97724 0.0
O522 O 0.913 0.68348 0.98389 0.0
C523 C 0.88982 0.60476 0.95141 0.0
C524 C 0.92935 0.63057 0.00619 0.0
C525 C 0.92112 0.66451 0.92165 0.0
O526 O 0.87686 0.62075 0.96178 0.0
O527 O 0.91169 0.61072 0.94762 0.0
O528 O 0.93626 0.65325 0.93496 0.0
O529 O 0.9003 0.6674 0.93084 0.0
C530 C 0.89042 0.68708 0.98608 0.0
O531 O 0.94148 0.64328 0.99121 0.0
O532 O 0.90768 0.62629 0.00018 0.0
In533 In 0.40599 0.84365 0.02675 0.0
O534 O 0.43762 0.84838 -0.00013 0.0
O535 O 0.40132 0.85782 0.98912 0.0
C536 C 0.41933 0.83021 0.07162 0.0
C537 C 0.39022 0.80139 0.00969 0.0
C538 C 0.38593 0.8869 0.03606 0.0
O539 O 0.43404 0.84131 0.05771 0.0
O540 O 0.39862 0.82613 0.06272 0.0
O541 O 0.37315 0.86779 0.03433 0.0
O542 O 0.40861 0.88388 0.03406 0.0
C543 C 0.4235 0.85644 0.98341 0.0
O544 O 0.37565 0.81807 0.01617 0.0
O545 O 0.41257 0.80604 0.01247 0.0
In546 In 0.90035 0.65437 0.77522 0.0
O547 O 0.92367 0.62222 0.76439 0.0
O548 O 0.93722 0.65832 0.75846 0.0
C549 C 0.8568 0.63801 0.78909 0.0
C550 C 0.88491 0.67358 0.73332 0.0
C551 C 0.91742 0.6667 0.81909 0.0
O552 O 0.87248 0.62389 0.77979 0.0
O553 O 0.86356 0.6598 0.79196 0.0
O554 O 0.90732 0.68228 0.80533 0.0
O555 O 0.91903 0.64549 0.81042 0.0
C556 C 0.94061 0.63567 0.75635 0.0
O557 O 0.89618 0.68659 0.74874 0.0
O558 O 0.88155 0.65174 0.73942 0.0
In559 In 0.08193 0.14771 0.52596 0.0
O560 O 0.04923 0.14423 0.49999 0.0
O561 O 0.08338 0.12823 0.49047 0.0
C562 C 0.07005 0.16459 0.56998 0.0
C563 C 0.10021 0.18817 0.50702 0.0
C564 C 0.10005 0.10462 0.53928 0.0
O565 O 0.05459 0.15357 0.55684 0.0
O566 O 0.09085 0.16716 0.56065 0.0
O567 O 0.11325 0.12065 0.52925 0.0
O568 O 0.07825 0.11079 0.54315 0.0
C569 C 0.06165 0.13236 0.48457 0.0
O570 O 0.1138 0.1714 0.51521 0.0
O571 O 0.07761 0.18443 0.50883 0.0
In572 In 0.09355 0.8313 0.77593 0.0
O573 O 0.0976 0.79864 0.74991 0.0
O574 O 0.11509 0.83236 0.74158 0.0
C575 C 0.07545 0.81902 0.81945 0.0
C576 C 0.05421 0.85006 0.75514 0.0
C577 C 0.13582 0.84991 0.79098 0.0
O578 O 0.08706 0.80378 0.80657 0.0
O579 O 0.07271 0.83976 0.81 0.0
O580 O 0.1202 0.86287 0.78005 0.0
O581 O 0.12967 0.82808 0.79481 0.0
C582 C 0.11061 0.81083 0.73522 0.0
O583 O 0.07068 0.86343 0.76419 0.0
O584 O 0.05756 0.82741 0.75716 0.0
In585 In 0.58221 0.3423 0.46566 0.0
O586 O 0.54895 0.34597 0.49094 0.0
O587 O 0.58143 0.36576 0.49879 0.0
C588 C 0.57028 0.32288 0.42255 0.0
C589 C 0.60124 0.30404 0.48833 0.0
C590 C 0.60137 0.38404 0.44966 0.0
O591 O 0.55503 0.33497 0.43492 0.0
O592 O 0.59089 0.32028 0.43232 0.0
O593 O 0.61387 0.36892 0.46177 0.0
O594 O 0.57974 0.37765 0.4452 0.0
C595 C 0.56013 0.36033 0.50512 0.0
O596 O 0.61451 0.32029 0.47877 0.0
O597 O 0.57861 0.30702 0.48586 0.0
In598 In 0.89777 0.33017 0.71626 0.0
O599 O 0.91955 0.36255 0.72949 0.0
O600 O 0.93329 0.32672 0.73611 0.0
C601 C 0.85565 0.34953 0.70148 0.0
C602 C 0.8802 0.3064 0.75498 0.0
C603 C 0.91645 0.31927 0.67255 0.0
O604 O 0.87087 0.36179 0.71368 0.0
O605 O 0.86214 0.32809 0.69631 0.0
O606 O 0.9047 0.3037 0.68487 0.0
O607 O 0.91915 0.33968 0.68267 0.0
C608 C 0.93607 0.34937 0.7387 0.0
O609 O 0.89485 0.29601 0.74052 0.0
O610 O 0.87446 0.32785 0.7494 0.0
In611 In 0.59284 0.66024 0.21445 0.0
O612 O 0.59561 0.6941 0.23916 0.0
O613 O 0.61243 0.66073 0.24998 0.0
C614 C 0.57547 0.67042 0.17003 0.0
C615 C 0.55281 0.64146 0.23398 0.0
C616 C 0.63642 0.64265 0.2018 0.0
O617 O 0.58602 0.68656 0.18274 0.0
O618 O 0.57373 0.64977 0.1799 0.0
O619 O 0.62064 0.6294 0.21215 0.0
O620 O 0.62974 0.66419 0.19726 0.0
C621 C 0.60788 0.68261 0.255 0.0
O622 O 0.56995 0.62805 0.22635 0.0
O623 O 0.55601 0.66408 0.23144 0.0
In624 In 0.52313 0.5879 0.84077 0.0
O625 O 0.50145 0.55275 0.84672 0.0
O626 O 0.48268 0.58685 0.84508 0.0
C627 C 0.56911 0.57968 0.82701 0.0
C628 C 0.50802 0.60659 0.79895 0.0
C629 C 0.52847 0.60259 0.88707 0.0
O630 O 0.55517 0.56237 0.83315 0.0
O631 O 0.55983 0.60065 0.82804 0.0
O632 O 0.52239 0.61738 0.87046 0.0
O633 O 0.53234 0.58113 0.87998 0.0
C634 C 0.48137 0.5641 0.84758 0.0
O635 O 0.51257 0.61991 0.81727 0.0
O636 O 0.51199 0.58407 0.80173 0.0
In637 In 0.65634 0.27474 0.09488 0.0
O638 O 0.69063 0.25193 0.10169 0.0
O639 O 0.65593 0.23435 0.09961 0.0
C640 C 0.66569 0.3203 0.08033 0.0
C641 C 0.63768 0.25963 0.05311 0.0
C642 C 0.64111 0.2809 0.14085 0.0
O643 O 0.68266 0.30614 0.08698 0.0
O644 O 0.64454 0.31146 0.08137 0.0
O645 O 0.62651 0.27479 0.12411 0.0
O646 O 0.66271 0.28453 0.13404 0.0
C647 C 0.67855 0.23226 0.10256 0.0
O648 O 0.62434 0.26479 0.07124 0.0
O649 O 0.66027 0.26302 0.05602 0.0
In650 In 0.96558 0.40088 0.34219 0.0
O651 O 0.99104 0.43394 0.34666 0.0
O652 O 0.00147 0.39919 0.36084 0.0
C653 C 0.92144 0.41101 0.3243 0.0
C654 C 0.98562 0.38202 0.30262 0.0
C655 C 0.95246 0.38547 0.38631 0.0
O656 O 0.93485 0.42753 0.33332 0.0
O657 O 0.93055 0.38993 0.32422 0.0
O658 O 0.96171 0.3711 0.37083 0.0
O659 O 0.94908 0.40702 0.37902 0.0
C660 C 0.00683 0.42128 0.35786 0.0
O661 O 0.97761 0.36867 0.31965 0.0
O662 O 0.98284 0.40467 0.30553 0.0
In663 In 0.83509 0.7156 0.59475 0.0
O664 O 0.86693 0.728 0.57179 0.0
O665 O 0.83073 0.7343 0.55877 0.0
C666 C 0.85311 0.70108 0.6375 0.0
C667 C 0.81434 0.75619 0.61156 0.0
C668 C 0.82343 0.67192 0.57659 0.0
O669 O 0.8664 0.71141 0.62174 0.0
O670 O 0.83129 0.6975 0.6312 0.0
O671 O 0.80788 0.68485 0.58771 0.0
O672 O 0.84424 0.68135 0.57442 0.0
C673 C 0.85331 0.73683 0.55538 0.0
O674 O 0.80217 0.74118 0.59889 0.0
O675 O 0.83604 0.75023 0.61578 0.0
In676 In 0.52537 0.40561 0.64691 0.0
O677 O 0.51468 0.37451 0.6715 0.0
O678 O 0.50954 0.41113 0.68406 0.0
C679 C 0.53652 0.38979 0.60239 0.0
C680 C 0.48278 0.42372 0.63246 0.0
C681 C 0.57019 0.41634 0.66243 0.0
O682 O 0.52922 0.37528 0.6188 0.0
O683 O 0.53905 0.41169 0.60896 0.0
O684 O 0.55645 0.43259 0.65339 0.0
O685 O 0.56108 0.39529 0.66372 0.0
C686 C 0.5071 0.3886 0.68814 0.0
O687 O 0.49889 0.43761 0.64161 0.0
O688 O 0.4885 0.40155 0.63096 0.0
In689 In 0.83298 0.27428 0.89666 0.0
O690 O 0.86484 0.26431 0.92042 0.0
O691 O 0.82882 0.26222 0.93539 0.0
C692 C 0.84895 0.28127 0.85108 0.0
C693 C 0.81105 0.23168 0.88865 0.0
C694 C 0.82327 0.31965 0.9115 0.0
O695 O 0.86325 0.27482 0.86795 0.0
O696 O 0.82722 0.28468 0.85755 0.0
O697 O 0.80646 0.30557 0.90431 0.0
O698 O 0.84443 0.31081 0.91091 0.0
C699 C 0.85141 0.2589 0.93841 0.0
O700 O 0.79883 0.25126 0.88964 0.0
O701 O 0.83367 0.23393 0.8915 0.0
In702 In 0.96645 0.58497 0.14739 0.0
O703 O 0.97775 0.61683 0.17076 0.0
O704 O 0.98292 0.58061 0.18439 0.0
C705 C 0.95431 0.60093 0.10317 0.0
C706 C 0.0085 0.56553 0.13289 0.0
C707 C 0.92189 0.57435 0.16384 0.0
O708 O 0.96262 0.61524 0.11924 0.0
O709 O 0.95139 0.57912 0.1099 0.0
O710 O 0.93527 0.55816 0.15423 0.0
O711 O 0.93124 0.59528 0.16524 0.0
C712 C 0.9855 0.60323 0.18773 0.0
O713 O 0.9928 0.55256 0.14384 0.0
O714 O 0.0026 0.58741 0.12938 0.0
In715 In 0.65167 0.71606 0.39778 0.0
O716 O 0.62027 0.72694 0.42187 0.0
O717 O 0.65647 0.72725 0.43662 0.0
C718 C 0.63662 0.70874 0.3519 0.0
C719 C 0.67493 0.75796 0.38984 0.0
C720 C 0.65961 0.67049 0.41292 0.0
O721 O 0.62213 0.71626 0.36816 0.0
O722 O 0.65802 0.70466 0.35911 0.0
O723 O 0.67704 0.68426 0.40663 0.0
O724 O 0.63867 0.67973 0.41121 0.0
C725 C 0.63405 0.7313 0.43991 0.0
O726 O 0.68649 0.73799 0.39081 0.0
O727 O 0.65223 0.75646 0.39264 0.0
In728 In 0.84522 0.52547 0.58352 0.0
O729 O 0.84996 0.49951 0.55097 0.0
O730 O 0.86488 0.4901 0.58568 0.0
C731 C 0.82798 0.56944 0.57172 0.0
C732 C 0.80482 0.50564 0.60097 0.0
C733 C 0.88819 0.53925 0.60155 0.0
O734 O 0.83881 0.55626 0.55616 0.0
O735 O 0.82573 0.56015 0.5926 0.0
O736 O 0.87225 0.52922 0.61486 0.0
O737 O 0.88196 0.54292 0.57972 0.0
C738 C 0.86155 0.48417 0.56381 0.0
O739 O 0.8212 0.51402 0.61491 0.0
O740 O 0.80882 0.50785 0.57845 0.0
In741 In 0.71708 0.59701 0.83495 0.0
O742 O 0.74365 0.60003 0.80275 0.0
O743 O 0.75409 0.61305 0.83798 0.0
C744 C 0.67206 0.58277 0.8234 0.0
C745 C 0.73406 0.55554 0.85271 0.0
C746 C 0.70682 0.64155 0.85134 0.0
O747 O 0.686 0.59227 0.80763 0.0
O748 O 0.68105 0.5804 0.84439 0.0
O749 O 0.71374 0.6248 0.86564 0.0
O750 O 0.7043 0.63533 0.82935 0.0
C751 C 0.75982 0.60989 0.81601 0.0
O752 O 0.72705 0.57266 0.86652 0.0
O753 O 0.7318 0.55935 0.83014 0.0
In754 In 0.6467 0.46745 0.08515 0.0
O755 O 0.67048 0.47874 0.11665 0.0
O756 O 0.68349 0.48426 0.08027 0.0
C757 C 0.60306 0.45433 0.10177 0.0
C758 C 0.6309 0.50912 0.06584 0.0
C759 C 0.66308 0.42301 0.0741 0.0
O760 O 0.61907 0.46313 0.11586 0.0
O761 O 0.60956 0.45156 0.0799 0.0
O762 O 0.6531 0.43642 0.05815 0.0
O763 O 0.66508 0.43235 0.09497 0.0
C764 C 0.68719 0.48667 0.10285 0.0
O765 O 0.64168 0.49347 0.05268 0.0
O766 O 0.62839 0.50342 0.08791 0.0
In767 In 0.77398 0.39727 0.33454 0.0
O768 O 0.74663 0.39173 0.3033 0.0
O769 O 0.73646 0.38304 0.33991 0.0
C770 C 0.81873 0.41017 0.31996 0.0
C771 C 0.75692 0.43939 0.35073 0.0
C772 C 0.78364 0.35463 0.35578 0.0
O773 O 0.80455 0.39854 0.30594 0.0
O774 O 0.81007 0.41525 0.34053 0.0
O775 O 0.78228 0.37414 0.36796 0.0
O776 O 0.78112 0.35694 0.33307 0.0
C777 C 0.73042 0.38382 0.31779 0.0
O778 O 0.76406 0.42278 0.36506 0.0
O779 O 0.75911 0.43483 0.32829 0.0
In780 In 0.84185 0.46692 0.90613 0.0
O781 O 0.81772 0.47784 0.87474 0.0
O782 O 0.80489 0.48321 0.91122 0.0
C783 C 0.88586 0.45444 0.89003 0.0
C784 C 0.85687 0.50912 0.92475 0.0
C785 C 0.82586 0.42237 0.91719 0.0
O786 O 0.86979 0.46277 0.8757 0.0
O787 O 0.87922 0.45175 0.91188 0.0
O788 O 0.83556 0.43592 0.9332 0.0
O789 O 0.82404 0.43159 0.89623 0.0
C790 C 0.80103 0.4856 0.88866 0.0
O791 O 0.84645 0.49344 0.9382 0.0
O792 O 0.85949 0.50317 0.90277 0.0
In793 In 0.77477 0.59559 0.15729 0.0
O794 O 0.74837 0.6001 0.18955 0.0
O795 O 0.7388 0.61393 0.1544 0.0
C796 C 0.81917 0.57899 0.16839 0.0
C797 C 0.75566 0.55511 0.13939 0.0
C798 C 0.78754 0.63934 0.14056 0.0
O799 O 0.80579 0.58896 0.18436 0.0
O800 O 0.80988 0.57727 0.14747 0.0
O801 O 0.7789 0.62318 0.12655 0.0
O802 O 0.79042 0.63292 0.16247 0.0
C803 C 0.73282 0.611 0.17633 0.0
O804 O 0.7636 0.57188 0.12566 0.0
O805 O 0.75802 0.55874 0.16198 0.0
In806 In 0.64524 0.52302 0.40286 0.0
O807 O 0.66999 0.51307 0.37167 0.0
O808 O 0.68321 0.50902 0.40814 0.0
C809 C 0.60223 0.53285 0.38244 0.0
C810 C 0.63289 0.47951 0.42057 0.0
C811 C 0.65805 0.56774 0.41749 0.0
O812 O 0.6215 0.53149 0.36991 0.0
O813 O 0.60494 0.53007 0.40507 0.0
O814 O 0.64638 0.55355 0.43145 0.0
O815 O 0.66322 0.55911 0.39693 0.0
C816 C 0.6872 0.50662 0.38562 0.0
O817 O 0.64126 0.49595 0.43452 0.0
O818 O 0.63102 0.48532 0.39845 0.0
In819 In 0.71771 0.39634 0.65493 0.0
O820 O 0.74431 0.39211 0.687 0.0
O821 O 0.75444 0.37988 0.6514 0.0
C822 C 0.67302 0.41224 0.66568 0.0
C823 C 0.73607 0.43713 0.63698 0.0
C824 C 0.70625 0.35163 0.63984 0.0
O825 O 0.68678 0.40327 0.68194 0.0
O826 O 0.68203 0.41325 0.64458 0.0
O827 O 0.71359 0.36778 0.62507 0.0
O828 O 0.70386 0.35855 0.66164 0.0
C829 C 0.76029 0.38231 0.67345 0.0
O830 O 0.72853 0.42016 0.62325 0.0
O831 O 0.73354 0.43358 0.65958 0.0
In832 In 0.58439 0.84181 0.52513 0.0
O833 O 0.61511 0.81674 0.5147 0.0
O834 O 0.57844 0.80329 0.51321 0.0
C835 C 0.60084 0.88727 0.53186 0.0
C836 C 0.56201 0.85079 0.48307 0.0
C837 C 0.57544 0.82728 0.57066 0.0
O838 O 0.61494 0.87037 0.525 0.0
O839 O 0.57919 0.88083 0.53581 0.0
O840 O 0.5584 0.8344 0.5568 0.0
O841 O 0.59648 0.82782 0.56152 0.0
C842 C 0.60082 0.79929 0.50961 0.0
O843 O 0.55011 0.84995 0.50284 0.0
O844 O 0.58458 0.84719 0.48486 0.0
In845 In 0.08383 0.64871 0.46753 0.0
O846 O 0.04982 0.64158 0.49063 0.0
O847 O 0.08484 0.64277 0.50772 0.0
C848 C 0.07444 0.66414 0.42234 0.0
C849 C 0.10251 0.69022 0.48326 0.0
C850 C 0.09855 0.60284 0.4598 0.0
O851 O 0.05745 0.65738 0.43643 0.0
O852 O 0.09561 0.66286 0.43111 0.0
O853 O 0.11332 0.61914 0.46667 0.0
O854 O 0.07705 0.61003 0.45633 0.0
C855 C 0.06222 0.64002 0.51007 0.0
O856 O 0.11586 0.6722 0.47771 0.0
O857 O 0.0799 0.68733 0.47996 0.0
In858 In 0.59556 0.83494 0.7174 0.0
O859 O 0.57099 0.86603 0.72811 0.0
O860 O 0.55877 0.82937 0.73378 0.0
C861 C 0.63909 0.85183 0.70434 0.0
C862 C 0.61074 0.8169 0.75976 0.0
C863 C 0.57932 0.82291 0.67326 0.0
O864 O 0.62284 0.8659 0.71271 0.0
O865 O 0.63289 0.82981 0.70196 0.0
O866 O 0.5896 0.80733 0.68688 0.0
O867 O 0.57712 0.84396 0.68219 0.0
C868 C 0.55455 0.85187 0.736 0.0
O869 O 0.60051 0.8032 0.74419 0.0
O870 O 0.61324 0.83884 0.75356 0.0
In871 In 0.4055 0.34337 0.96575 0.0
O872 O 0.43836 0.3467 0.99157 0.0
O873 O 0.40505 0.36476 0.0002 0.0
C874 C 0.4175 0.32524 0.92215 0.0
C875 C 0.38605 0.30457 0.98699 0.0
C876 C 0.38823 0.38623 0.95066 0.0
O877 O 0.43298 0.33615 0.93535 0.0
O878 O 0.3966 0.32308 0.93135 0.0
O879 O 0.37468 0.37088 0.96127 0.0
O880 O 0.40994 0.37954 0.94724 0.0
C881 C 0.42653 0.35984 0.00641 0.0
O882 O 0.37294 0.32129 0.97799 0.0
O883 O 0.40872 0.30731 0.9845 0.0
In884 In 0.39663 0.66044 0.71667 0.0
O885 O 0.39088 0.6961 0.73772 0.0
O886 O 0.3928 0.66237 0.75713 0.0
C887 C 0.41018 0.66765 0.6704 0.0
C888 C 0.43878 0.64244 0.73166 0.0
C889 C 0.35073 0.64425 0.71179 0.0
O890 O 0.40309 0.68516 0.68363 0.0
O891 O 0.41013 0.64705 0.6805 0.0
O892 O 0.36781 0.63012 0.71803 0.0
O893 O 0.35709 0.66591 0.70771 0.0
C894 C 0.39042 0.68515 0.75805 0.0
O895 O 0.42053 0.6289 0.72756 0.0
O896 O 0.43576 0.66488 0.72743 0.0
In897 In 0.90542 0.14939 0.02537 0.0
O898 O 0.93805 0.14475 -0.00043 0.0
O899 O 0.90302 0.13108 0.98936 0.0
C900 C 0.91622 0.16736 0.06923 0.0
C901 C 0.88777 0.18993 0.00608 0.0
C902 C 0.8888 0.10564 0.03845 0.0
O903 O 0.93237 0.1572 0.0562 0.0
O904 O 0.89521 0.16821 0.06 0.0
O905 O 0.87489 0.12152 0.02916 0.0
O906 O 0.91052 0.11235 0.04191 0.0
C907 C 0.92506 0.13394 0.98379 0.0
O908 O 0.8739 0.17329 0.01407 0.0
O909 O 0.91032 0.18601 0.00825 0.0
In910 In 0.59256 0.15631 0.77656 0.0
O911 O 0.59754 0.18834 0.74995 0.0
O912 O 0.61254 0.15346 0.74143 0.0
C913 C 0.57514 0.16924 0.82013 0.0
C914 C 0.5526 0.13805 0.75665 0.0
C915 C 0.63527 0.13846 0.79118 0.0
O916 O 0.58608 0.18442 0.80659 0.0
O917 O 0.57276 0.14816 0.81133 0.0
O918 O 0.61934 0.12497 0.78139 0.0
O919 O 0.62916 0.16042 0.79418 0.0
C920 C 0.60927 0.17521 0.73499 0.0
O921 O 0.56902 0.12446 0.76549 0.0
O922 O 0.55627 0.16067 0.75858 0.0
In923 In 0.89699 0.83331 0.27613 0.0
O924 O 0.89235 0.80121 0.24962 0.0
O925 O 0.87678 0.83585 0.24107 0.0
C926 C 0.91504 0.8211 0.31964 0.0
C927 C 0.93687 0.85146 0.25594 0.0
C928 C 0.8543 0.85077 0.29128 0.0
O929 O 0.90395 0.80566 0.30652 0.0
O930 O 0.91721 0.84204 0.31047 0.0
O931 O 0.86992 0.86439 0.28115 0.0
O932 O 0.86065 0.82886 0.29422 0.0
C933 C 0.88045 0.81417 0.23463 0.0
O934 O 0.9204 0.86512 0.26457 0.0
O935 O 0.93325 0.82885 0.25815 0.0
In936 In 0.46626 0.40509 0.14714 0.0
O937 O 0.47852 0.3725 0.16915 0.0
O938 O 0.48439 0.40826 0.18353 0.0
C939 C 0.45296 0.38884 0.10329 0.0
C940 C 0.50705 0.42643 0.13175 0.0
C941 C 0.42216 0.41627 0.16449 0.0
O942 O 0.4622 0.37472 0.11904 0.0
O943 O 0.44976 0.41054 0.11017 0.0
O944 O 0.4354 0.4321 0.15416 0.0
O945 O 0.43149 0.39538 0.16639 0.0
C946 C 0.48712 0.38558 0.18611 0.0
O947 O 0.49172 0.43825 0.14435 0.0
O948 O 0.50137 0.40474 0.12705 0.0
In949 In 0.34068 0.71831 0.89729 0.0
O950 O 0.30608 0.73999 0.88892 0.0
O951 O 0.33962 0.759 0.89447 0.0
C952 C 0.33032 0.67239 0.91031 0.0
C953 C 0.35761 0.73328 0.93992 0.0
C954 C 0.36062 0.71381 0.85287 0.0
O955 O 0.31391 0.68651 0.90236 0.0
O956 O 0.35135 0.6814 0.9111 0.0
O957 O 0.37348 0.71453 0.87192 0.0
O958 O 0.338 0.71487 0.85636 0.0
C959 C 0.3172 0.76021 0.88983 0.0
O960 O 0.37146 0.7298 0.9218 0.0
O961 O 0.33534 0.72863 0.93648 0.0
In962 In 0.02766 0.5825 0.64671 0.0
O963 O 0.01668 0.61333 0.67143 0.0
O964 O 0.01146 0.57671 0.6838 0.0
C965 C 0.03764 0.60366 0.60409 0.0
C966 C 0.98474 0.56464 0.63272 0.0
C967 C 0.07231 0.56871 0.661 0.0
O968 O 0.03575 0.61591 0.6235 0.0
O969 O 0.03558 0.5809 0.60651 0.0
O970 O 0.05883 0.55449 0.6488 0.0
O971 O 0.06304 0.58908 0.66586 0.0
C972 C 0.00902 0.5992 0.68797 0.0
O973 O 0.00079 0.55071 0.64189 0.0
O974 O 0.99067 0.58671 0.63082 0.0
In975 In 0.15726 0.2742 0.39973 0.0
O976 O 0.19188 0.25192 0.39244 0.0
O977 O 0.15729 0.23406 0.39338 0.0
C978 C 0.16603 0.31922 0.41611 0.0
C979 C 0.13818 0.25764 0.44069 0.0
C980 C 0.14154 0.28263 0.35431 0.0
O981 O 0.18318 0.30566 0.40872 0.0
O982 O 0.14505 0.31002 0.41499 0.0
O983 O 0.12742 0.27448 0.37055 0.0
O984 O 0.16297 0.28689 0.36128 0.0
C985 C 0.17995 0.23221 0.39075 0.0
O986 O 0.12505 0.26354 0.42262 0.0
O987 O 0.16082 0.26101 0.43816 0.0
In988 In 0.46675 0.58629 0.34216 0.0
O989 O 0.4883 0.55138 0.34992 0.0
O990 O 0.50736 0.58498 0.34513 0.0
C991 C 0.42096 0.5736 0.33012 0.0
C992 C 0.4828 0.60435 0.30029 0.0
C993 C 0.46275 0.60811 0.38588 0.0
O994 O 0.43514 0.55874 0.34052 0.0
O995 O 0.42996 0.59422 0.32597 0.0
O996 O 0.46145 0.61993 0.36622 0.0
O997 O 0.46549 0.58552 0.38339 0.0
C998 C 0.50853 0.56247 0.34925 0.0
O999 O 0.47785 0.61776 0.31836 0.0
O1000 O 0.47871 0.58187 0.30317 0.0
In1001 In 0.15963 0.71781 0.09518 0.0
O1002 O 0.19204 0.74416 0.0989 0.0
O1003 O 0.15777 0.75305 0.11503 0.0
C1004 C 0.17158 0.6738 0.07814 0.0
C1005 C 0.14092 0.73746 0.05528 0.0
C1006 C 0.1421 0.70409 0.13835 0.0
O1007 O 0.18709 0.68711 0.0889 0.0
O1008 O 0.15071 0.68303 0.07575 0.0
O1009 O 0.12854 0.71369 0.12235 0.0
O1010 O 0.16398 0.70083 0.1321 0.0
C1011 C 0.17942 0.75928 0.11097 0.0
O1012 O 0.12754 0.72892 0.07202 0.0
O1013 O 0.16357 0.73547 0.05864 0.0
In1014 In 0.02412 0.40816 0.84612 0.0
O1015 O 0.01216 0.37559 0.82403 0.0
O1016 O 0.00626 0.41138 0.80963 0.0
C1017 C 0.03752 0.39226 0.89004 0.0
C1018 C 0.98286 0.42871 0.86125 0.0
C1019 C 0.06814 0.41899 0.82838 0.0
O1020 O 0.02849 0.378 0.87433 0.0
O1021 O 0.04046 0.414 0.88311 0.0
O1022 O 0.05504 0.43504 0.83856 0.0
O1023 O 0.05874 0.3981 0.82696 0.0
C1024 C 0.0037 0.38868 0.807 0.0
O1025 O -0.00182 0.44094 0.84901 0.0
O1026 O 0.9888 0.40705 0.86577 0.0
In1027 In 0.33496 0.27711 0.59327 0.0
O1028 O 0.36698 0.2646 0.57061 0.0
O1029 O 0.33087 0.25849 0.55725 0.0
C1030 C 0.35205 0.29123 0.63651 0.0
C1031 C 0.31438 0.23627 0.60971 0.0
C1032 C 0.32383 0.32077 0.57466 0.0
O1033 O 0.36573 0.28131 0.62083 0.0
O1034 O 0.33032 0.29474 0.62985 0.0
O1035 O 0.30797 0.30796 0.5855 0.0
O1036 O 0.34469 0.31131 0.57315 0.0
C1037 C 0.35347 0.25583 0.55408 0.0
O1038 O 0.30209 0.2514 0.59728 0.0
O1039 O 0.3361 0.24221 0.61384 0.0
In1040 In 0.14296 0.4657 0.41254 0.0
O1041 O 0.16586 0.47866 0.3808 0.0
O1042 O 0.17902 0.48424 0.41704 0.0
C1043 C 0.10067 0.45149 0.39307 0.0
C1044 C 0.12635 0.5054 0.43528 0.0
C1045 C 0.16066 0.42165 0.4237 0.0
O1046 O 0.11647 0.46268 0.38056 0.0
O1047 O 0.10664 0.44712 0.41484 0.0
O1048 O 0.1488 0.43411 0.43908 0.0
O1049 O 0.16388 0.43176 0.40335 0.0
C1050 C 0.18239 0.48709 0.3945 0.0
O1051 O 0.13984 0.4903 0.44637 0.0
O1052 O 0.12116 0.49994 0.41366 0.0
In1053 In 0.27378 0.39787 0.15904 0.0
O1054 O 0.25134 0.39001 0.19332 0.0
O1055 O 0.23343 0.39279 0.15883 0.0
C1056 C 0.31942 0.41202 0.16848 0.0
C1057 C 0.25845 0.43997 0.14129 0.0
C1058 C 0.28015 0.35234 0.14265 0.0
O1059 O 0.30535 0.40504 0.18537 0.0
O1060 O 0.3104 0.41165 0.14738 0.0
O1061 O 0.27382 0.36937 0.12847 0.0
O1062 O 0.28379 0.35866 0.16439 0.0
C1063 C 0.23158 0.38919 0.18138 0.0
O1064 O 0.26372 0.42215 0.12758 0.0
O1065 O 0.2618 0.4366 0.16383 0.0
In1066 In 0.34508 0.52458 0.90195 0.0
O1067 O 0.3495 0.49864 0.93445 0.0
O1068 O 0.36046 0.48723 0.89882 0.0
C1069 C 0.33136 0.56954 0.91486 0.0
C1070 C 0.30344 0.50641 0.88574 0.0
C1071 C 0.3879 0.53445 0.88116 0.0
O1072 O 0.34289 0.55592 0.92951 0.0
O1073 O 0.32677 0.56023 0.89445 0.0
O1074 O 0.36864 0.53228 0.86869 0.0
O1075 O 0.38526 0.53246 0.90389 0.0
C1076 C 0.35843 0.48203 0.92107 0.0
O1077 O 0.32022 0.51306 0.8714 0.0
O1078 O 0.30764 0.50952 0.90813 0.0
In1079 In 0.21854 0.59475 0.65828 0.0
O1080 O 0.24171 0.59587 0.6934 0.0
O1081 O 0.25003 0.61985 0.66406 0.0
C1082 C 0.17488 0.57445 0.66698 0.0
C1083 C 0.2432 0.55858 0.63754 0.0
C1084 C 0.20362 0.63721 0.63965 0.0
O1085 O 0.18659 0.58559 0.68343 0.0
O1086 O 0.18558 0.5731 0.64674 0.0
O1087 O 0.21683 0.62273 0.62757 0.0
O1088 O 0.19753 0.62983 0.66056 0.0
C1089 C 0.25547 0.61234 0.68498 0.0
O1090 O 0.23361 0.57544 0.6251 0.0
O1091 O 0.23988 0.55992 0.66021 0.0
In1092 In 0.1495 0.52716 0.0874 0.0
O1093 O 0.14523 0.50094 0.05504 0.0
O1094 O 0.13172 0.49084 0.09014 0.0
C1095 C 0.16633 0.57128 0.07567 0.0
C1096 C 0.19031 0.50862 0.10528 0.0
C1097 C 0.10562 0.54003 0.10381 0.0
O1098 O 0.1564 0.55766 0.05987 0.0
O1099 O 0.16773 0.56243 0.09682 0.0
O1100 O 0.12156 0.53111 0.1179 0.0
O1101 O 0.1123 0.54312 0.08203 0.0
C1102 C 0.13469 0.48509 0.06816 0.0
O1103 O 0.17354 0.51642 0.11907 0.0
O1104 O 0.18645 0.51074 0.08271 0.0
In1105 In 0.21524 0.39755 0.83398 0.0
O1106 O 0.2416 0.39358 0.80168 0.0
O1107 O 0.25174 0.3804 0.83695 0.0
C1108 C 0.17064 0.41371 0.82335 0.0
C1109 C 0.23369 0.43843 0.85154 0.0
C1110 C 0.20366 0.35325 0.85004 0.0
O1111 O 0.18406 0.40418 0.80714 0.0
O1112 O 0.17991 0.41504 0.84432 0.0
O1113 O 0.21166 0.36949 0.86434 0.0
O1114 O 0.20068 0.35988 0.82821 0.0
C1115 C 0.25751 0.38329 0.81496 0.0
O1116 O 0.22634 0.42153 0.86546 0.0
O1117 O 0.23102 0.4347 0.829 0.0
In1118 In 0.34738 0.46684 0.57532 0.0
O1119 O 0.34822 0.49082 0.54077 0.0
O1120 O 0.37374 0.49727 0.56917 0.0
C1121 C 0.3281 0.42311 0.56474 0.0
C1122 C 0.31085 0.49127 0.59573 0.0
C1123 C 0.38858 0.45201 0.59665 0.0
O1124 O 0.34091 0.43472 0.54951 0.0
O1125 O 0.32443 0.43403 0.58456 0.0
O1126 O 0.3738 0.46598 0.60746 0.0
O1127 O 0.38212 0.44524 0.57565 0.0
C1128 C 0.36552 0.50371 0.54883 0.0
O1129 O 0.32727 0.4812 0.60835 0.0
O1130 O 0.31277 0.48852 0.57303 0.0
In1131 In 0.27378 0.59346 0.33943 0.0
O1132 O 0.24854 0.5972 0.3062 0.0
O1133 O 0.23855 0.61339 0.34016 0.0
C1134 C 0.31797 0.57606 0.32876 0.0
C1135 C 0.25278 0.55412 0.35794 0.0
C1136 C 0.28735 0.63721 0.35567 0.0
O1137 O 0.30459 0.58576 0.31263 0.0
O1138 O 0.3087 0.57478 0.34973 0.0
O1139 O 0.27779 0.62161 0.36974 0.0
O1140 O 0.29063 0.63025 0.33401 0.0
C1141 C 0.23306 0.60935 0.31828 0.0
O1142 O 0.26112 0.57086 0.37144 0.0
O1143 O 0.25586 0.55708 0.33536 0.0
In1144 In 0.40854 0.14727 0.46477 0.0
O1145 O 0.44157 0.14283 0.49017 0.0
O1146 O 0.40764 0.12619 0.49939 0.0
C1147 C 0.42047 0.16531 0.42111 0.0
C1148 C 0.39048 0.18676 0.48596 0.0
C1149 C 0.39013 0.10461 0.45042 0.0
O1150 O 0.43589 0.15406 0.4341 0.0
O1151 O 0.39965 0.16765 0.43046 0.0
O1152 O 0.37703 0.12045 0.46085 0.0
O1153 O 0.41194 0.1108 0.44662 0.0
C1154 C 0.42942 0.13019 0.50521 0.0
O1155 O 0.3768 0.17047 0.47703 0.0
O1156 O 0.41304 0.18319 0.48357 0.0
In1157 In 0.90862 0.34349 0.52618 0.0
O1158 O 0.94086 0.34734 0.49979 0.0
O1159 O 0.90597 0.36172 0.49012 0.0
C1160 C 0.92032 0.32648 0.57022 0.0
C1161 C 0.8906 0.30285 0.50741 0.0
C1162 C 0.89196 0.38733 0.5389 0.0
O1163 O 0.93608 0.33676 0.55682 0.0
O1164 O 0.89927 0.32488 0.56121 0.0
O1165 O 0.87799 0.37125 0.53004 0.0
O1166 O 0.91378 0.38079 0.54206 0.0
C1167 C 0.92782 0.35828 0.48414 0.0
O1168 O 0.87688 0.31955 0.51551 0.0
O1169 O 0.91318 0.30669 0.50934 0.0
In1170 In 0.39744 0.15814 0.27538 0.0
O1171 O 0.41996 0.12595 0.26324 0.0
O1172 O 0.43297 0.16193 0.25575 0.0
C1173 C 0.3553 0.1395 0.29069 0.0
C1174 C 0.37955 0.17886 0.23515 0.0
C1175 C 0.41609 0.17038 0.31871 0.0
O1176 O 0.3708 0.12658 0.27957 0.0
O1177 O 0.36156 0.16126 0.29465 0.0
O1178 O 0.4045 0.18566 0.30584 0.0
O1179 O 0.4186 0.1496 0.30931 0.0
C1180 C 0.43618 0.13927 0.25367 0.0
O1181 O 0.3927 0.19103 0.24972 0.0
O1182 O 0.37546 0.1572 0.24136 0.0
In1183 In 0.57683 0.64616 0.02349 0.0
O1184 O 0.60982 0.66699 0.01028 0.0
O1185 O 0.57446 0.68203 0.00409 0.0
C1186 C 0.59607 0.60365 0.03741 0.0
C1187 C 0.55207 0.63003 0.98466 0.0
C1188 C 0.56675 0.66457 0.0676 0.0
O1189 O 0.60827 0.61904 0.02536 0.0
O1190 O 0.57468 0.61012 0.0428 0.0
O1191 O 0.551 0.65273 0.05559 0.0
O1192 O 0.58686 0.66746 0.05701 0.0
C1193 C 0.59716 0.6841 0.00142 0.0
O1194 O 0.54255 0.64524 -0.00086 0.0
O1195 O 0.57305 0.62293 0.99036 0.0
In1196 In 0.59403 0.32764 0.27659 0.0
O1197 O 0.5719 0.3599 0.26341 0.0
O1198 O 0.55875 0.324 0.2563 0.0
C1199 C 0.63537 0.34879 0.29131 0.0
C1200 C 0.61197 0.30351 0.23818 0.0
C1201 C 0.57549 0.31592 0.32023 0.0
O1202 O 0.6201 0.36003 0.27822 0.0
O1203 O 0.62934 0.32744 0.29737 0.0
O1204 O 0.58811 0.30093 0.30808 0.0
O1205 O 0.57189 0.33613 0.30998 0.0
C1206 C 0.55565 0.34662 0.2539 0.0
O1207 O 0.59657 0.29356 0.25214 0.0
O1208 O 0.61844 0.32459 0.24423 0.0
In1209 In 0.08285 0.84338 0.96539 0.0
O1210 O 0.05005 0.84702 0.99124 0.0
O1211 O 0.08394 0.86385 0.00032 0.0
C1212 C 0.07131 0.82507 0.92176 0.0
C1213 C 0.10205 0.80423 0.98611 0.0
C1214 C 0.09994 0.88668 0.95142 0.0
O1215 O 0.05558 0.83582 0.93478 0.0
O1216 O 0.09225 0.82346 0.93102 0.0
O1217 O 0.11359 0.87096 0.96133 0.0
O1218 O 0.07822 0.88004 0.94784 0.0
C1219 C 0.06228 0.85955 0.00633 0.0
O1220 O 0.11524 0.82095 0.97725 0.0
O1221 O 0.07937 0.8072 0.98387 0.0
In1222 In 0.39617 0.83834 0.21806 0.0
O1223 O 0.41961 0.86994 0.22998 0.0
O1224 O 0.4329 0.83356 0.23476 0.0
C1225 C 0.35274 0.85521 0.20449 0.0
C1226 C 0.38066 0.81786 0.25931 0.0
C1227 C 0.41398 0.8279 0.17407 0.0
O1228 O 0.36844 0.86896 0.2143 0.0
O1229 O 0.35941 0.83347 0.20097 0.0
O1230 O 0.40407 0.81164 0.18717 0.0
O1231 O 0.41484 0.84887 0.18337 0.0
C1232 C 0.43648 0.8561 0.2375 0.0
O1233 O 0.39182 0.80529 0.24346 0.0
O1234 O 0.37739 0.8399 0.25394 0.0
In1235 In 0.09517 0.15613 0.71565 0.0
O1236 O 0.10032 0.1885 0.74163 0.0
O1237 O 0.11431 0.1534 0.7512 0.0
C1238 C 0.0769 0.16773 0.67213 0.0
C1239 C 0.05498 0.13875 0.73575 0.0
C1240 C 0.13841 0.13926 0.70145 0.0
O1241 O 0.08741 0.18354 0.6853 0.0
O1242 O 0.07566 0.14662 0.68114 0.0
O1243 O 0.12267 0.12537 0.71101 0.0
O1244 O 0.13183 0.16109 0.6984 0.0
C1245 C 0.11143 0.17537 0.75708 0.0
O1246 O 0.07132 0.12475 0.72743 0.0
O1247 O 0.05892 0.16128 0.73333 0.0
C1248 C 0.10779 0.05866 0.32831 0.0
C1249 C 0.09432 0.07734 0.31737 0.0
H1250 H 0.14327 0.04559 0.33758 0.0
C1251 C 0.10645 0.09482 0.30314 0.0
H1252 H 0.09889 0.04498 0.33937 0.0
C1253 C 0.13184 0.09491 0.30172 0.0
C1254 C 0.14537 0.07781 0.31493 0.0
H1255 H 0.09641 0.10935 0.29438 0.0
H1256 H 0.14083 0.10961 0.29216 0.0
C1257 C 0.13316 0.05904 0.32731 0.0
C1258 C 0.18757 0.88493 0.58401 0.0
C1259 C 0.17066 0.89667 0.56881 0.0
H1260 H 0.20049 0.85095 0.59816 0.0
C1261 C 0.15615 0.88269 0.5532 0.0
H1262 H 0.19901 0.89539 0.59618 0.0
C1263 C 0.15665 0.85732 0.55472 0.0
C1264 C 0.17209 0.84562 0.57143 0.0
H1265 H 0.14289 0.8913 0.54142 0.0
H1266 H 0.14389 0.8469 0.5439 0.0
C1267 C 0.18849 0.85954 0.5851 0.0
C1268 C 0.38104 0.93642 0.83105 0.0
C1269 C 0.3949 0.91869 0.81909 0.0
H1270 H 0.3453 0.94805 0.84111 0.0
C1271 C 0.38314 0.90178 0.8039 0.0
H1272 H 0.38964 0.94965 0.84284 0.0
C1273 C 0.35776 0.9011 0.80258 0.0
C1274 C 0.34388 0.91705 0.81679 0.0
H1275 H 0.39349 0.88801 0.79434 0.0
H1276 H 0.3491 0.88672 0.79225 0.0
C1277 C 0.35568 0.93545 0.83008 0.0
C1278 C 0.30325 0.13097 0.08896 0.0
C1279 C 0.31709 0.14585 0.07357 0.0
H1280 H 0.29687 0.09471 0.10174 0.0
C1281 C 0.33224 0.13503 0.05603 0.0
H1282 H 0.2916 0.13886 0.10274 0.0
C1283 C 0.33488 0.10974 0.05511 0.0
C1284 C 0.3229 0.09507 0.07217 0.0
H1285 H 0.34312 0.1462 0.04398 0.0
H1286 H 0.34774 0.10188 0.04244 0.0
C1287 C 0.3064 0.10576 0.08848 0.0
C1288 C 0.10745 0.93962 0.15544 0.0
C1289 C 0.09372 0.9234 0.16953 0.0
H1290 H 0.14313 0.95014 0.1439 0.0
C1291 C 0.10561 0.90839 0.18649 0.0
H1292 H 0.09871 0.95129 0.14217 0.0
C1293 C 0.13098 0.90807 0.18785 0.0
C1294 C 0.14475 0.92235 0.17184 0.0
H1295 H 0.09534 0.89577 0.19763 0.0
H1296 H 0.13974 0.89512 0.19985 0.0
C1297 C 0.13283 0.93889 0.15638 0.0
C1298 C 0.30275 0.88495 0.40757 0.0
C1299 C 0.31958 0.89691 0.42267 0.0
H1300 H 0.28971 0.85076 0.39416 0.0
C1301 C 0.33359 0.88323 0.439 0.0
H1302 H 0.29167 0.89518 0.39488 0.0
C1303 C 0.33279 0.85783 0.43825 0.0
C1304 C 0.31756 0.84585 0.42156 0.0
H1305 H 0.34675 0.89203 0.45075 0.0
H1306 H 0.34526 0.84758 0.44957 0.0
C1307 C 0.30154 0.85956 0.40722 0.0
C1308 C 0.3865 0.08359 0.68514 0.0
C1309 C 0.39784 0.06827 0.6681 0.0
H1310 H 0.35288 0.09815 0.69844 0.0
C1311 C 0.38352 0.05281 0.65376 0.0
H1312 H 0.39724 0.09565 0.69644 0.0
C1313 C 0.35818 0.05462 0.65456 0.0
C1314 C 0.34688 0.07148 0.67011 0.0
H1315 H 0.39183 0.04094 0.64041 0.0
H1316 H 0.34749 0.04393 0.64192 0.0
C1317 C 0.36116 0.08498 0.68636 0.0
C1318 C 0.15643 0.10909 0.93896 0.0
C1319 C 0.17029 0.09468 0.92316 0.0
H1320 H 0.14568 0.14527 0.94858 0.0
C1321 C 0.18771 0.10583 0.90812 0.0
H1322 H 0.14284 0.10092 0.95065 0.0
C1323 C 0.18968 0.13115 0.90725 0.0
C1324 C 0.17385 0.14563 0.92101 0.0
H1325 H 0.19869 0.09502 0.89585 0.0
H1326 H 0.20199 0.13933 0.89422 0.0
C1327 C 0.15801 0.13444 0.93769 0.0
C1328 C 0.09362 0.29958 0.13074 0.0
C1329 C 0.07693 0.31208 0.14537 0.0
H1330 H 0.1072 0.29419 0.09465 0.0
C1331 C 0.05797 0.32522 0.13428 0.0
H1332 H 0.10843 0.28942 0.13884 0.0
C1333 C 0.05708 0.32775 0.10902 0.0
C1334 C 0.07539 0.31753 0.09456 0.0
H1335 H 0.0448 0.33493 0.14524 0.0
H1336 H 0.04329 0.33938 0.10107 0.0
C1337 C 0.09298 0.30247 0.10548 0.0
C1338 C 0.58307 0.18891 0.8849 0.0
C1339 C 0.56768 0.17238 0.8969 0.0
H1340 H 0.59694 0.20147 0.85072 0.0
C1341 C 0.55128 0.15846 0.88322 0.0
H1342 H 0.59583 0.19992 0.89512 0.0
C1343 C 0.55224 0.15903 0.85783 0.0
C1344 C 0.56922 0.17393 0.84583 0.0
H1345 H 0.5393 0.14553 0.89205 0.0
H1346 H 0.54085 0.14661 0.84761 0.0
C1347 C 0.58365 0.18989 0.85951 0.0
C1348 C 0.90706 0.80144 0.35966 0.0
C1349 C 0.92143 0.81687 0.34532 0.0
H1350 H 0.89541 0.79246 0.39572 0.0
C1351 C 0.93881 0.83185 0.35662 0.0
H1352 H 0.89347 0.78982 0.35138 0.0
C1353 C 0.94022 0.83307 0.38197 0.0
C1354 C 0.92389 0.81972 0.3963 0.0
H1355 H 0.95016 0.84386 0.34589 0.0
H1356 H 0.95252 0.84607 0.39022 0.0
C1357 C 0.90811 0.80305 0.38501 0.0
C1358 C 0.90362 0.19502 0.1304 0.0
C1359 C 0.91845 0.18063 0.14534 0.0
H1360 H 0.89135 0.20193 0.09409 0.0
C1361 C 0.93589 0.16531 0.13459 0.0
H1362 H 0.88999 0.2069 0.13821 0.0
C1363 C 0.93693 0.16272 0.10932 0.0
C1364 C 0.9202 0.17506 0.09456 0.0
H1365 H 0.94761 0.15408 0.14579 0.0
H1366 H 0.94932 0.14951 0.10157 0.0
C1367 C 0.90432 0.19206 0.10518 0.0
C1368 C 0.43314 0.65436 0.63379 0.0
C1369 C 0.41598 0.67005 0.6444 0.0
H1370 H 0.44773 0.63969 0.60071 0.0
C1371 C 0.40199 0.68524 0.62946 0.0
H1372 H 0.44413 0.64247 0.64505 0.0
C1373 C 0.40358 0.68315 0.60418 0.0
C1374 C 0.41973 0.6664 0.59356 0.0
H1375 H 0.38853 0.69733 0.63726 0.0
H1376 H 0.39141 0.69381 0.59292 0.0
C1377 C 0.43528 0.65282 0.6085 0.0
C1378 C 0.0534 0.65824 0.38264 0.0
C1379 C 0.07074 0.67061 0.39664 0.0
H1380 H 0.04209 0.64827 0.3467 0.0
C1381 C 0.08727 0.68632 0.3851 0.0
H1382 H 0.04056 0.64595 0.39115 0.0
C1383 C 0.08775 0.68815 0.35976 0.0
C1384 C 0.07214 0.67375 0.34566 0.0
H1385 H 0.10077 0.69611 0.39561 0.0
H1386 H 0.10176 0.69909 0.35125 0.0
C1387 C 0.05432 0.65955 0.35726 0.0
C1388 C 0.43684 0.33288 0.8572 0.0
C1389 C 0.41971 0.31813 0.84525 0.0
H1390 H 0.45015 0.3461 0.89135 0.0
C1391 C 0.4053 0.30216 0.85896 0.0
H1392 H 0.44823 0.34528 0.84696 0.0
C1393 C 0.4061 0.30296 0.88437 0.0
C1394 C 0.42168 0.31934 0.89634 0.0
H1395 H 0.3919 0.29069 0.85018 0.0
H1396 H 0.39337 0.29195 0.89462 0.0
C1397 C 0.43802 0.33328 0.88258 0.0
C1398 C 0.88565 0.90835 0.68696 0.0
C1399 C 0.8972 0.92356 0.66996 0.0
H1400 H 0.85184 0.89424 0.70025 0.0
C1401 C 0.8831 0.93934 0.65572 0.0
H1402 H 0.89621 0.89606 0.6982 0.0
C1403 C 0.85774 0.93793 0.65656 0.0
C1404 C 0.8462 0.92117 0.67205 0.0
H1405 H 0.89157 0.95114 0.64241 0.0
H1406 H 0.84719 0.94884 0.64397 0.0
C1407 C 0.86029 0.90736 0.68821 0.0
C1408 C 0.80469 0.13351 0.40729 0.0
C1409 C 0.82216 0.14759 0.41938 0.0
H1410 H 0.79334 0.0975 0.39757 0.0
C1411 C 0.83902 0.13613 0.4348 0.0
H1412 H 0.79158 0.14196 0.39524 0.0
C1413 C 0.83964 0.11079 0.43665 0.0
C1414 C 0.82382 0.09661 0.42256 0.0
H1415 H 0.85261 0.1467 0.44438 0.0
H1416 H 0.85384 0.10233 0.44739 0.0
C1417 C 0.80573 0.10813 0.40861 0.0
C1418 C 0.63207 0.0876 0.18954 0.0
C1419 C 0.64667 0.07245 0.17518 0.0
H1420 H 0.59577 0.099 0.19786 0.0
C1421 C 0.63571 0.05373 0.16162 0.0
H1422 H 0.64008 0.1022 0.20008 0.0
C1423 C 0.61042 0.05167 0.16057 0.0
C1424 C 0.59575 0.0686 0.17271 0.0
H1425 H 0.64666 0.04172 0.15049 0.0
H1426 H 0.60246 0.03821 0.14858 0.0
C1427 C 0.60673 0.08582 0.18815 0.0
C1428 C 0.68619 0.88655 0.91094 0.0
C1429 C 0.66862 0.89768 0.92579 0.0
H1430 H 0.70089 0.85306 0.89753 0.0
C1431 C 0.6549 0.88331 0.94177 0.0
H1432 H 0.69707 0.89732 0.89854 0.0
C1433 C 0.6568 0.85795 0.94088 0.0
C1434 C 0.6728 0.84673 0.92438 0.0
H1435 H 0.6412 0.89146 0.95333 0.0
H1436 H 0.64457 0.84711 0.95189 0.0
C1437 C 0.68846 0.86124 0.91044 0.0
C1438 C 0.85799 0.08935 0.80334 0.0
C1439 C 0.84417 0.07344 0.81767 0.0
H1440 H 0.89367 0.1025 0.79495 0.0
C1441 C 0.85604 0.05523 0.83117 0.0
H1442 H 0.84927 0.10358 0.79286 0.0
C1443 C 0.88141 0.05436 0.83211 0.0
C1444 C 0.89521 0.07201 0.81995 0.0
H1445 H 0.84571 0.04267 0.84231 0.0
H1446 H 0.89007 0.04124 0.84401 0.0
C1447 C 0.88337 0.08878 0.80466 0.0
C1448 C 0.6581 0.13429 0.55231 0.0
C1449 C 0.67385 0.14504 0.56937 0.0
H1450 H 0.64373 0.10112 0.53772 0.0
C1451 C 0.69025 0.1303 0.58218 0.0
H1452 H 0.64536 0.14533 0.54211 0.0
C1453 C 0.68904 0.10499 0.57993 0.0
C1454 C 0.67178 0.09415 0.56448 0.0
H1455 H 0.70254 0.13812 0.59545 0.0
H1456 H 0.70052 0.09387 0.59147 0.0
C1457 C 0.65725 0.10901 0.54969 0.0
C1458 C 0.60753 0.90811 0.30853 0.0
C1459 C 0.59608 0.92291 0.32599 0.0
H1460 H 0.64117 0.89357 0.29526 0.0
C1461 C 0.61034 0.93775 0.34101 0.0
H1462 H 0.59686 0.89659 0.29662 0.0
C1463 C 0.63566 0.93574 0.34044 0.0
C1464 C 0.64702 0.91918 0.32457 0.0
H1465 H 0.60197 0.94926 0.35462 0.0
H1466 H 0.64626 0.94597 0.35352 0.0
C1467 C 0.63286 0.90641 0.30767 0.0
C1468 C 0.80209 0.86001 0.08203 0.0
C1469 C 0.81887 0.84597 0.06896 0.0
H1470 H 0.79134 0.89593 0.0926 0.0
C1471 C 0.83471 0.85754 0.05254 0.0
H1472 H 0.78974 0.85154 0.09483 0.0
C1473 C 0.8353 0.88291 0.05089 0.0
C1474 C 0.82043 0.897 0.06605 0.0
H1475 H 0.84774 0.84704 0.04215 0.0
H1476 H 0.84891 0.89142 0.03946 0.0
C1477 C 0.80306 0.88539 0.08079 0.0
C1478 C 0.94134 0.65566 0.88213 0.0
C1479 C 0.92549 0.67018 0.89583 0.0
H1480 H 0.95111 0.64323 0.84654 0.0
C1481 C 0.91048 0.68706 0.88381 0.0
H1482 H 0.95303 0.64247 0.89094 0.0
C1483 C 0.90969 0.68782 0.85841 0.0
C1484 C 0.92352 0.67133 0.84475 0.0
H1485 H 0.89815 0.69853 0.89403 0.0
H1486 H 0.89668 0.69972 0.8496 0.0
C1487 C 0.94016 0.65605 0.85674 0.0
C1488 C 0.41064 0.80684 0.10927 0.0
C1489 C 0.42399 0.82522 0.09749 0.0
H1490 H 0.39752 0.79286 0.14318 0.0
C1491 C 0.43782 0.84147 0.11141 0.0
H1492 H 0.3999 0.79403 0.09884 0.0
C1493 C 0.4361 0.84105 0.13677 0.0
C1494 C 0.42091 0.82409 0.14848 0.0
H1495 H 0.44816 0.85583 0.10274 0.0
H1496 H 0.4454 0.855 0.14713 0.0
C1497 C 0.40931 0.80612 0.13462 0.0
C1498 C 0.0531 0.15626 0.63539 0.0
C1499 C 0.06976 0.17204 0.64669 0.0
H1500 H 0.0395 0.14206 0.60174 0.0
C1501 C 0.08261 0.18886 0.63248 0.0
H1502 H 0.04286 0.14322 0.64605 0.0
C1503 C 0.08097 0.18791 0.60714 0.0
C1504 C 0.06607 0.17051 0.59577 0.0
H1505 H 0.09557 0.20118 0.64075 0.0
H1506 H 0.09263 0.19963 0.59642 0.0
C1507 C 0.05107 0.15567 0.61007 0.0
C1508 C 0.0838 0.7997 0.85957 0.0
C1509 C 0.06926 0.81496 0.8452 0.0
H1510 H 0.09577 0.79103 0.89561 0.0
C1511 C 0.0519 0.82994 0.85652 0.0
H1512 H 0.09736 0.78806 0.8513 0.0
C1513 C 0.05071 0.83137 0.88188 0.0
C1514 C 0.06721 0.81821 0.89618 0.0
H1515 H 0.04041 0.84182 0.84578 0.0
H1516 H 0.03843 0.84439 0.89012 0.0
C1517 C 0.08295 0.8015 0.88491 0.0
C1518 C 0.55031 0.32928 0.38234 0.0
C1519 C 0.56636 0.31588 0.39697 0.0
H1520 H 0.54063 0.33966 0.34607 0.0
C1521 C 0.58193 0.29883 0.38599 0.0
H1522 H 0.53815 0.34256 0.39033 0.0
C1523 C 0.58312 0.2969 0.36068 0.0
C1524 C 0.56906 0.31233 0.34601 0.0
H1525 H 0.5944 0.28816 0.39692 0.0
H1526 H 0.59656 0.28492 0.35268 0.0
C1527 C 0.55181 0.32767 0.35702 0.0
C1528 C 0.93941 0.33175 0.63553 0.0
C1529 C 0.92269 0.31594 0.64671 0.0
H1530 H 0.9523 0.34703 0.60203 0.0
C1531 C 0.90877 0.30026 0.6322 0.0
H1532 H 0.95042 0.34398 0.64638 0.0
C1533 C 0.90955 0.30234 0.60689 0.0
C1534 C 0.92464 0.31973 0.59577 0.0
H1535 H 0.89571 0.28795 0.64034 0.0
H1536 H 0.89719 0.29144 0.59608 0.0
C1537 C 0.94057 0.33346 0.61018 0.0
C1538 C 0.55128 0.6582 0.13377 0.0
C1539 C 0.56852 0.67385 0.14437 0.0
H1540 H 0.5366 0.64354 0.10078 0.0
C1541 C 0.58177 0.68971 0.12944 0.0
H1542 H 0.54075 0.64587 0.14496 0.0
C1543 C 0.57967 0.68809 0.10414 0.0
C1544 C 0.56394 0.67094 0.09349 0.0
H1545 H 0.5952 0.70188 0.13716 0.0
H1546 H 0.59148 0.69916 0.09291 0.0
C1547 C 0.54881 0.65694 0.10851 0.0
C1548 C 0.60692 0.59339 0.80628 0.0
C1549 C 0.59507 0.57651 0.8214 0.0
H1550 H 0.64104 0.608 0.79433 0.0
C1551 C 0.60884 0.55899 0.83379 0.0
H1552 H 0.59659 0.60704 0.79649 0.0
C1553 C 0.63423 0.55991 0.83298 0.0
C1554 C 0.6461 0.57789 0.8192 0.0
H1555 H 0.60011 0.54587 0.84562 0.0
H1556 H 0.64459 0.54741 0.84417 0.0
C1557 C 0.63229 0.59386 0.80492 0.0
C1558 C 0.68586 0.38542 0.08498 0.0
C1559 C 0.66833 0.39702 0.0704 0.0
H1560 H 0.69929 0.35154 0.09898 0.0
C1561 C 0.65279 0.3829 0.05596 0.0
H1562 H 0.69802 0.39601 0.09632 0.0
C1563 C 0.6531 0.35756 0.058 0.0
C1564 C 0.6694 0.34603 0.07397 0.0
H1565 H 0.63899 0.39142 0.04475 0.0
H1566 H 0.63969 0.34705 0.04809 0.0
C1567 C 0.68663 0.36004 0.08649 0.0
C1568 C 0.85821 0.39736 0.30177 0.0
C1569 C 0.84468 0.41449 0.31492 0.0
H1570 H 0.89363 0.38286 0.29454 0.0
C1571 C 0.85691 0.43319 0.32736 0.0
H1572 H 0.84921 0.38271 0.29216 0.0
C1573 C 0.88229 0.43351 0.32847 0.0
C1574 C 0.89576 0.41482 0.31756 0.0
H1575 H 0.84681 0.44666 0.3376 0.0
H1576 H 0.89119 0.44716 0.33956 0.0
C1577 C 0.8836 0.39739 0.30328 0.0
C1578 C 0.80328 0.63198 0.58383 0.0
C1579 C 0.81941 0.64621 0.57014 0.0
H1580 H 0.79342 0.59597 0.59497 0.0
C1581 C 0.83494 0.63479 0.55334 0.0
H1582 H 0.79118 0.64033 0.59694 0.0
C1583 C 0.83594 0.60942 0.55189 0.0
C1584 C 0.82177 0.59519 0.5676 0.0
H1585 H 0.84748 0.64543 0.54249 0.0
H1586 H 0.84932 0.60106 0.5401 0.0
C1587 C 0.80464 0.60662 0.58275 0.0
C1588 C 0.60789 0.40495 0.68477 0.0
C1589 C 0.59611 0.42022 0.66796 0.0
H1590 H 0.64191 0.39104 0.69782 0.0
C1591 C 0.61003 0.43602 0.65358 0.0
H1592 H 0.59748 0.39262 0.69608 0.0
C1593 C 0.63541 0.4347 0.65419 0.0
C1594 C 0.64718 0.41805 0.66965 0.0
H1595 H 0.60138 0.44784 0.64039 0.0
H1596 H 0.64581 0.44569 0.64156 0.0
C1597 C 0.63328 0.4041 0.68584 0.0
C1598 C 0.83561 0.35699 0.93384 0.0
C1599 C 0.81945 0.34539 0.91777 0.0
H1600 H 0.84965 0.3909 0.94698 0.0
C1601 C 0.80237 0.35935 0.905 0.0
H1602 H 0.84891 0.34652 0.94394 0.0
C1603 C 0.80316 0.38474 0.90635 0.0
C1604 C 0.82058 0.3964 0.921 0.0
H1605 H 0.78982 0.35081 0.89243 0.0
H1606 H 0.79113 0.39528 0.89483 0.0
C1607 C 0.83595 0.38234 0.93571 0.0
C1608 C 0.88185 0.55459 0.15603 0.0
C1609 C 0.89605 0.57063 0.16986 0.0
H1610 H 0.84586 0.5448 0.14476 0.0
C1611 C 0.88458 0.58622 0.18657 0.0
H1612 H 0.89024 0.54249 0.14295 0.0
C1613 C 0.85921 0.5872 0.18799 0.0
C1614 C 0.84501 0.57301 0.17228 0.0
H1615 H 0.8952 0.59873 0.19749 0.0
H1616 H 0.85082 0.60054 0.19981 0.0
C1617 C 0.85648 0.55599 0.15702 0.0
C1618 C 0.6444 0.60732 0.43459 0.0
C1619 C 0.6622 0.59368 0.42252 0.0
H1620 H 0.62958 0.64282 0.44074 0.0
C1621 C 0.6815 0.60577 0.4109 0.0
H1622 H 0.62926 0.5984 0.4435 0.0
C1623 C 0.68192 0.63115 0.40962 0.0
C1624 C 0.66271 0.64469 0.41946 0.0
H1625 H 0.69544 0.59555 0.40145 0.0
H1626 H 0.69616 0.63999 0.39926 0.0
C1627 C 0.6445 0.63269 0.43282 0.0
C1628 C 0.55484 0.83383 0.61045 0.0
C1629 C 0.572 0.82121 0.59648 0.0
H1630 H 0.54382 0.84423 0.64634 0.0
C1631 C 0.58853 0.80552 0.60809 0.0
H1632 H 0.54198 0.84608 0.60189 0.0
C1633 C 0.58919 0.80398 0.63344 0.0
C1634 C 0.57375 0.81861 0.64746 0.0
H1635 H 0.60187 0.79552 0.5976 0.0
H1636 H 0.60318 0.79304 0.64199 0.0
C1637 C 0.55593 0.83279 0.63582 0.0
C1638 C 0.38224 0.43551 0.15545 0.0
C1639 C 0.3963 0.42017 0.1702 0.0
H1640 H 0.34638 0.44469 0.1433 0.0
C1641 C 0.38468 0.40526 0.18743 0.0
H1642 H 0.39076 0.44704 0.14193 0.0
C1643 C 0.35929 0.40432 0.1886 0.0
C1644 C 0.34529 0.41779 0.17209 0.0
H1645 H 0.3952 0.39326 0.199 0.0
H1646 H 0.35073 0.39156 0.20095 0.0
C1647 C 0.35689 0.43407 0.15616 0.0
C1648 C 0.30857 0.63306 0.90405 0.0
C1649 C 0.32636 0.64659 0.91628 0.0
H1650 H 0.29624 0.59746 0.89418 0.0
C1651 C 0.34283 0.63457 0.93175 0.0
H1652 H 0.29569 0.64192 0.89206 0.0
C1653 C 0.34286 0.60921 0.93336 0.0
C1654 C 0.32675 0.59556 0.91911 0.0
H1655 H 0.3566 0.64471 0.94154 0.0
H1656 H 0.3568 0.60033 0.94409 0.0
C1657 C 0.30894 0.60767 0.90527 0.0
C1658 C 0.13456 0.57811 0.68737 0.0
C1659 C 0.14912 0.56728 0.66947 0.0
H1660 H 0.09836 0.58685 0.69866 0.0
C1661 C 0.13803 0.55278 0.65151 0.0
H1662 H 0.14258 0.58935 0.70142 0.0
C1663 C 0.11267 0.55102 0.65015 0.0
C1664 C 0.09812 0.56407 0.66649 0.0
H1665 H 0.14888 0.5441 0.63755 0.0
H1666 H 0.10454 0.54125 0.6351 0.0
C1667 C 0.10925 0.57671 0.68575 0.0
C1668 C 0.15146 0.38101 0.44135 0.0
C1669 C 0.16664 0.39576 0.42714 0.0
H1670 H 0.13937 0.34472 0.44874 0.0
C1671 C 0.18467 0.38484 0.41267 0.0
H1672 H 0.13734 0.38897 0.45254 0.0
C1673 C 0.18617 0.35951 0.41087 0.0
C1674 C 0.16924 0.34487 0.42306 0.0
H1675 H 0.19662 0.39591 0.40156 0.0
H1676 H 0.19913 0.35154 0.39836 0.0
C1677 C 0.15254 0.35573 0.43907 0.0
C1678 C 0.38262 0.58251 0.30788 0.0
C1679 C 0.39496 0.56896 0.32572 0.0
H1680 H 0.3482 0.59476 0.29435 0.0
C1681 C 0.38158 0.55428 0.34171 0.0
H1682 H 0.3926 0.5939 0.29526 0.0
C1683 C 0.35617 0.55514 0.34147 0.0
C1684 C 0.34385 0.57026 0.32489 0.0
H1685 H 0.39069 0.54376 0.35567 0.0
H1686 H 0.3462 0.5451 0.35519 0.0
C1687 C 0.35723 0.58294 0.30728 0.0
C1688 C 0.1895 0.60857 0.08667 0.0
C1689 C 0.17277 0.59691 0.07124 0.0
H1690 H 0.20286 0.64253 0.10038 0.0
C1691 C 0.15931 0.61083 0.05465 0.0
H1692 H 0.20018 0.59815 0.09955 0.0
C1693 C 0.16055 0.63622 0.05544 0.0
C1694 C 0.17566 0.64794 0.07243 0.0
H1695 H 0.14626 0.60227 0.04262 0.0
H1696 H 0.14848 0.64669 0.04388 0.0
C1697 C 0.19114 0.63394 0.08708 0.0
C1698 C 0.13053 0.40596 0.80374 0.0
C1699 C 0.14487 0.41991 0.81954 0.0
H1700 H 0.09443 0.39479 0.79426 0.0
C1701 C 0.1336 0.43695 0.8349 0.0
H1702 H 0.1388 0.39264 0.79181 0.0
C1703 C 0.10826 0.43856 0.83595 0.0
C1704 C 0.0939 0.42272 0.82207 0.0
H1705 H 0.14434 0.44797 0.84721 0.0
H1706 H 0.10001 0.45063 0.84916 0.0
C1707 C 0.10518 0.40715 0.80521 0.0
C1708 C 0.33626 0.38215 0.54719 0.0
C1709 C 0.32194 0.39712 0.56206 0.0
H1710 H 0.34801 0.3458 0.53965 0.0
C1711 C 0.30485 0.38636 0.57776 0.0
H1712 H 0.34961 0.38994 0.53498 0.0
C1713 C 0.30365 0.36105 0.58016 0.0
C1714 C 0.31988 0.34623 0.56724 0.0
H1715 H 0.29353 0.39754 0.58938 0.0
H1716 H 0.29155 0.35328 0.59363 0.0
C1717 C 0.33541 0.35689 0.54995 0.0
C1718 C 0.44072 0.15802 0.38124 0.0
C1719 C 0.42465 0.17179 0.39544 0.0
H1720 H 0.45058 0.14688 0.34525 0.0
C1721 C 0.4093 0.18877 0.384 0.0
H1722 H 0.45268 0.14477 0.3896 0.0
C1723 C 0.40839 0.1903 0.35864 0.0
C1724 C 0.42245 0.1745 0.34442 0.0
H1725 H 0.39681 0.1997 0.39461 0.0
H1726 H 0.39511 0.20222 0.35028 0.0
C1727 C 0.43945 0.15919 0.35587 0.0
C1728 C 0.98608 0.14599 0.28106 0.0
C1729 C 0.98926 0.12079 0.28326 0.0
H1730 H 0.96605 0.17475 0.26424 0.0
C1731 C 0.97606 0.10505 0.26805 0.0
H1732 H -0.00387 0.15849 0.2925 0.0
C1733 C 0.95869 0.1143 0.2521 0.0
C1734 C 0.95448 0.13941 0.25096 0.0
H1735 H 0.97824 0.0855 0.26933 0.0
H1736 H 0.94796 0.10174 0.24135 0.0
C1737 C 0.96888 0.15526 0.2649 0.0
C1738 C 0.10487 0.74287 0.52659 0.0
C1739 C 0.12992 0.74438 0.53104 0.0
H1740 H 0.07648 0.72471 0.50726 0.0
C1741 C 0.14607 0.73079 0.51664 0.0
H1742 H 0.09207 0.75334 0.5373 0.0
C1743 C 0.13718 0.71424 0.49963 0.0
C1744 C 0.11204 0.71131 0.49659 0.0
H1745 H 0.16552 0.73175 0.51959 0.0
H1746 H 0.14992 0.70282 0.48988 0.0
C1747 C 0.09598 0.72655 0.50935 0.0
C1748 C 0.5191 0.84421 0.76295 0.0
C1749 C 0.53346 0.86072 0.74974 0.0
H1750 H 0.49225 0.83962 0.79071 0.0
C1751 C 0.52925 0.88575 0.7521 0.0
H1752 H 0.5219 0.82477 0.76135 0.0
C1753 C 0.51215 0.89421 0.76875 0.0
C1754 C 0.49922 0.87773 0.78341 0.0
H1755 H 0.53997 0.89883 0.74197 0.0
H1756 H 0.51008 0.91367 0.77108 0.0
C1757 C 0.50216 0.85267 0.77978 0.0
C1758 C 0.39168 0.2701 0.01572 0.0
C1759 C 0.37599 0.2848 0.00188 0.0
H1760 H 0.3948 0.24367 0.04412 0.0
C1761 C 0.35078 0.28201 0.00434 0.0
H1762 H 0.41124 0.27184 0.01412 0.0
C1763 C 0.3414 0.26573 0.02137 0.0
C1764 C 0.35712 0.25222 0.03634 0.0
H1765 H 0.33831 0.29306 0.9938 0.0
H1766 H 0.32186 0.26459 0.0236 0.0
C1767 C 0.38231 0.25402 0.03293 0.0
C1768 C 0.98856 0.85382 0.21132 0.0
C1769 C 0.99092 0.87897 0.2078 0.0
H1770 H 0.96969 0.82534 0.22981 0.0
C1771 C 0.97771 0.89503 0.22265 0.0
H1772 H -0.00132 0.84107 0.20022 0.0
C1773 C 0.96096 0.88607 0.23942 0.0
C1774 C 0.95739 0.86093 0.24174 0.0
H1775 H 0.97929 0.91455 0.22039 0.0
H1776 H 0.95006 0.89882 0.24975 0.0
C1777 C 0.97199 0.84486 0.22826 0.0
C1778 C 0.39707 0.72504 0.48044 0.0
C1779 C 0.38135 0.70947 0.49322 0.0
H1780 H 0.40025 0.75251 0.453 0.0
C1781 C 0.35615 0.71231 0.49075 0.0
H1782 H 0.41662 0.72322 0.48207 0.0
C1783 C 0.34681 0.72923 0.47436 0.0
C1784 C 0.36258 0.74327 0.45995 0.0
H1785 H 0.34367 0.70062 0.50055 0.0
H1786 H 0.32729 0.73018 0.47189 0.0
C1787 C 0.38774 0.74173 0.46376 0.0
C1788 C 0.51286 0.09424 0.72243 0.0
C1789 C 0.49985 0.11027 0.70735 0.0
H1790 H 0.53992 0.09059 0.75016 0.0
C1791 C 0.50175 0.13541 0.71113 0.0
H1792 H 0.51159 0.07473 0.71998 0.0
C1793 C 0.51779 0.14445 0.72854 0.0
C1794 C 0.5323 0.12845 0.74222 0.0
H1795 H 0.49174 0.14813 0.69988 0.0
H1796 H 0.51982 0.16397 0.73025 0.0
C1797 C 0.52907 0.10328 0.73969 0.0
C1798 C 0.10768 0.25443 0.95953 0.0
C1799 C 0.13276 0.25173 0.95593 0.0
H1800 H 0.07955 0.27388 0.97791 0.0
C1801 C 0.14907 0.26534 0.97015 0.0
H1802 H 0.09476 0.24406 0.94887 0.0
C1803 C 0.14041 0.28257 0.98658 0.0
C1804 C 0.11533 0.28622 0.98919 0.0
H1805 H 0.16854 0.26355 0.96776 0.0
H1806 H 0.15333 0.2936 -0.00343 0.0
C1807 C 0.09902 0.27148 0.97614 0.0
C1808 C 0.27876 0.99312 0.13738 0.0
C1809 C 0.28209 -0.0041 0.11226 0.0
H1810 H 0.26033 0.97389 0.16564 0.0
C1811 C 0.26673 0.98342 0.09608 0.0
H1812 H 0.29027 0.00268 0.15021 0.0
C1813 C 0.24981 0.9667 0.10487 0.0
C1814 C 0.24784 0.96252 0.12994 0.0
H1815 H 0.26887 0.98531 0.07659 0.0
H1816 H 0.23923 0.95617 0.09201 0.0
C1817 C 0.26162 0.97666 0.14617 0.0
C1818 C 0.27777 0.00155 0.35266 0.0
C1819 C 0.28097 -0.00148 0.37778 0.0
H1820 H 0.25961 0.02128 0.3245 0.0
C1821 C 0.26563 0.01095 0.39399 0.0
H1822 H 0.28923 0.99202 0.3398 0.0
C1823 C 0.24884 0.02781 0.38528 0.0
C1824 C 0.247 0.03228 0.36025 0.0
H1825 H 0.26758 0.00879 0.41347 0.0
H1826 H 0.23825 0.03825 0.3982 0.0
C1827 C 0.26078 0.01825 0.34394 0.0
C1828 C 0.21456 0.00191 0.63529 0.0
C1829 C 0.21029 -9e-05 0.61024 0.0
H1830 H 0.23356 0.02069 0.66347 0.0
C1831 C 0.22445 0.01357 0.59393 0.0
H1832 H 0.20402 0.99142 0.64822 0.0
C1833 C 0.2412 0.03049 0.60263 0.0
C1834 C 0.24416 0.03377 0.62773 0.0
H1835 H 0.2216 0.01225 0.57448 0.0
H1836 H 0.2509 0.0418 0.58974 0.0
C1837 C 0.23149 0.01864 0.64398 0.0
C1838 C 0.23875 0.96211 0.88771 0.0
C1839 C 0.24114 0.95816 0.86264 0.0
H1840 H 0.21963 0.98082 0.91582 0.0
C1841 C 0.22777 0.97257 0.84629 0.0
H1842 H 0.24901 0.95136 0.90067 0.0
C1843 C 0.21077 0.98927 0.85494 0.0
C1844 C 0.20713 0.99193 0.88003 0.0
H1845 H 0.22937 0.96995 0.82683 0.0
H1846 H 0.1997 -0.0008 0.842 0.0
C1847 C 0.22195 0.97898 0.89635 0.0
C1848 C 0.60307 0.24341 0.02892 0.0
C1849 C 0.62819 0.24655 0.03185 0.0
H1850 H 0.5748 0.22349 0.01124 0.0
C1851 C 0.64429 0.23408 0.01642 0.0
H1852 H 0.59029 0.25295 0.04048 0.0
C1853 C 0.63548 0.21697 -9e-05 0.0
C1854 C 0.61044 0.21239 -0.00159 0.0
H1855 H 0.66379 0.23624 0.01825 0.0
H1856 H 0.64831 0.20646 0.9893 0.0
C1857 C 0.59424 0.22654 0.01219 0.0
C1858 C 0.01278 0.38834 0.26711 0.0
C1859 C 0.0 0.3723 0.28236 0.0
H1860 H 0.04061 0.39227 0.24026 0.0
C1861 C 0.00335 0.34715 0.27978 0.0
H1862 H 0.01043 0.40785 0.26862 0.0
C1863 C 0.02049 0.33824 0.26337 0.0
C1864 C 0.03464 0.35441 0.24955 0.0
H1865 H 0.99359 0.33442 0.29123 0.0
H1866 H 0.0236 0.3188 0.26255 0.0
C1867 C 0.03008 0.37946 0.25091 0.0
C1868 C 0.84672 0.76495 0.52054 0.0
C1869 C 0.86279 0.75139 0.5351 0.0
H1870 H 0.84293 0.79284 0.49364 0.0
C1871 C 0.88792 0.75372 0.53155 0.0
H1872 H 0.82722 0.76343 0.52286 0.0
C1873 C 0.89687 0.7704 0.51468 0.0
C1874 C 0.88081 0.78514 0.50131 0.0
H1875 H 0.90067 0.74337 0.54244 0.0
H1876 H 0.91638 0.77255 0.513 0.0
C1877 C 0.85568 0.7818 0.50384 0.0
C1878 C 0.01248 0.5966 0.22342 0.0
C1879 C -0.00058 0.6127 0.20845 0.0
H1880 H 0.04019 0.59269 0.25047 0.0
C1881 C 0.00206 0.63785 0.21176 0.0
H1882 H 0.01068 0.57709 0.22132 0.0
C1883 C 0.01879 0.64675 0.2286 0.0
C1884 C 0.03326 0.63061 0.24216 0.0
H1885 H 0.99207 0.65063 0.20057 0.0
H1886 H 0.02133 0.66624 0.22997 0.0
C1887 C 0.02939 0.60549 0.24008 0.0
C1888 C 0.47403 0.34602 0.73012 0.0
C1889 C 0.45918 0.36238 0.74295 0.0
H1890 H 0.50112 0.3416 0.70257 0.0
C1891 C 0.46288 0.38747 0.74022 0.0
H1892 H 0.47167 0.32654 0.73202 0.0
C1893 C 0.47992 0.39606 0.72352 0.0
C1894 C 0.49329 0.37966 0.70918 0.0
H1895 H 0.45179 0.40044 0.75005 0.0
H1896 H 0.48153 0.41551 0.72082 0.0
C1897 C 0.49089 0.3546 0.71326 0.0
C1898 C 0.00284 0.85365 0.71016 0.0
C1899 C 0.00057 0.87888 0.70724 0.0
H1900 H 0.02154 0.82468 0.72808 0.0
C1901 C 0.01384 0.89456 0.72245 0.0
H1902 H 0.99269 0.8412 0.69876 0.0
C1903 C 0.0305 0.88515 0.73907 0.0
C1904 C 0.03393 0.85994 0.74086 0.0
H1905 H 0.01233 0.91412 0.72064 0.0
H1906 H 0.04141 0.89761 0.74974 0.0
C1907 C 0.01934 0.84424 0.72695 0.0
C1908 C 0.88812 0.25071 0.46338 0.0
C1909 C 0.86296 0.24774 0.46065 0.0
H1910 H 0.91667 0.27037 0.48087 0.0
C1911 C 0.84706 0.26043 0.47611 0.0
H1912 H 0.90074 0.24101 0.45178 0.0
C1913 C 0.85612 0.27749 0.49252 0.0
C1914 C 0.88121 0.28181 0.4939 0.0
H1915 H 0.82753 0.25841 0.4744 0.0
H1916 H 0.84345 0.28814 0.50321 0.0
C1917 C 0.8972 0.26752 0.48002 0.0
C1918 C 0.47026 0.14493 0.22453 0.0
C1919 C 0.45596 0.12929 0.23882 0.0
H1920 H 0.49659 0.14785 0.19605 0.0
C1921 C 0.45923 0.10407 0.23698 0.0
H1922 H 0.46813 0.16449 0.22566 0.0
C1923 C 0.47563 0.09459 0.22017 0.0
C1924 C 0.4888 0.11021 0.20482 0.0
H1925 H 0.44851 0.09165 0.24789 0.0
H1926 H 0.47718 0.07501 0.21848 0.0
C1927 C 0.48649 0.13545 0.20756 0.0
C1928 C 0.59267 0.71974 0.9739 0.0
C1929 C 0.60781 0.70413 0.98734 0.0
H1930 H 0.59067 0.74802 0.94723 0.0
C1931 C 0.63311 0.7068 0.98582 0.0
H1932 H 0.57307 0.7181 0.97482 0.0
C1933 C 0.64315 0.72408 0.97022 0.0
C1934 C 0.62801 0.73874 0.95575 0.0
H1935 H 0.64515 0.69507 -0.00388 0.0
H1936 H 0.66276 0.72521 0.96875 0.0
C1937 C 0.60271 0.73685 0.95812 0.0
C1938 C 0.03014 0.10473 0.75237 0.0
C1939 C 0.03415 0.12977 0.74981 0.0
H1940 H 0.01102 0.0768 0.77144 0.0
C1941 C 0.01962 0.14626 0.76286 0.0
H1942 H 0.04098 0.09167 0.74237 0.0
C1943 C 0.00264 0.13778 0.77964 0.0
C1944 C -0.00021 0.11273 0.78339 0.0
H1945 H 0.02226 0.16571 0.76111 0.0
H1946 H 0.99256 0.15084 0.79041 0.0
C1947 C 0.01297 0.09626 0.76897 0.0
C1948 C 0.59541 0.26973 0.51727 0.0
C1949 C 0.61115 0.28427 0.50332 0.0
H1950 H 0.59226 0.24296 0.54536 0.0
C1951 C 0.63634 0.28103 0.50541 0.0
H1952 H 0.57587 0.27183 0.51595 0.0
C1953 C 0.64568 0.26438 0.52209 0.0
C1954 C 0.62996 0.25089 0.53707 0.0
H1955 H 0.64884 0.29193 0.49477 0.0
H1956 H 0.66523 0.26286 0.52397 0.0
C1957 C 0.60475 0.25324 0.53411 0.0
C1958 C 0.48986 0.85708 0.27999 0.0
C1959 C 0.4921 0.88207 0.28448 0.0
H1960 H 0.47056 0.82925 0.26106 0.0
C1961 C 0.47835 0.89866 0.27074 0.0
H1962 H 0.50043 0.84396 0.29022 0.0
C1963 C 0.46105 0.89026 0.25423 0.0
C1964 C 0.45753 0.8652 0.25111 0.0
H1965 H 0.47985 0.91807 0.27381 0.0
H1966 H 0.44965 0.90333 0.24485 0.0
C1967 C 0.47277 0.8487 0.2633 0.0
C1968 C 0.84672 0.72812 0.01898 0.0
C1969 C 0.86268 0.7414 0.0339 0.0
H1970 H 0.84307 0.70036 0.99196 0.0
C1971 C 0.88784 0.7388 0.03078 0.0
H1972 H 0.8272 0.72987 0.02095 0.0
C1973 C 0.89689 0.72206 0.01404 0.0
C1974 C 0.8809 0.70754 0.00037 0.0
H1975 H 0.90051 0.74893 0.04195 0.0
H1976 H 0.9164 0.71965 0.01273 0.0
C1977 C 0.85577 0.71122 0.00241 0.0
C1978 C 0.738 0.02854 0.88829 0.0
C1979 C 0.74031 0.0323 0.86318 0.0
H1980 H 0.71861 0.01047 0.91666 0.0
C1981 C 0.72639 0.01822 0.84702 0.0
H1982 H 0.74865 0.03905 0.90111 0.0
C1983 C 0.70899 0.00204 0.8559 0.0
C1984 C 0.7055 -0.00044 0.88103 0.0
H1985 H 0.72789 0.02073 0.82754 0.0
H1986 H 0.69755 0.99236 0.84311 0.0
C1987 C 0.7208 0.01218 0.89715 0.0
C1988 C 0.73938 0.95884 0.60121 0.0
C1989 C 0.74178 0.95638 0.62647 0.0
H1990 H 0.72027 0.97593 0.57199 0.0
C1991 C 0.72815 0.97149 0.64192 0.0
H1992 H 0.74979 0.94749 0.58893 0.0
C1993 C 0.71109 0.98757 0.63227 0.0
C1994 C 0.70764 0.98894 0.60705 0.0
H1995 H 0.72972 0.97002 0.66151 0.0
H1996 H 0.69999 -0.0018 0.64459 0.0
C1997 C 0.7225 0.97511 0.59155 0.0
C1998 C 0.76282 0.97249 0.34875 0.0
C1999 C 0.75038 0.95783 0.3656 0.0
H2000 H 0.79003 -0.00019 0.34344 0.0
C2001 C 0.75346 0.96198 0.39055 0.0
H2002 H 0.76065 0.96974 0.32937 0.0
C2003 C 0.77007 0.97936 0.39856 0.0
C2004 C 0.784 0.9926 0.38171 0.0
H2005 H 0.74391 0.95105 0.40388 0.0
H2006 H 0.77298 0.98137 0.41794 0.0
C2007 C 0.77964 0.98968 0.35677 0.0
C2008 C 0.76293 0.01894 0.14565 0.0
C2009 C 0.74902 0.03328 0.1297 0.0
H2010 H 0.79121 0.99241 0.14907 0.0
C2011 C 0.75062 0.0293 0.10458 0.0
H2012 H 0.76194 0.02159 0.16514 0.0
C2013 C 0.76719 0.01249 0.09543 0.0
C2014 C 0.78256 -0.00038 0.11128 0.0
H2015 H 0.73992 0.03998 0.09193 0.0
H2016 H 0.76891 0.01064 0.07589 0.0
C2017 C 0.7797 0.00228 0.13648 0.0
C2018 C 0.39102 0.7493 0.96577 0.0
C2019 C 0.36607 0.7459 0.96183 0.0
H2020 H 0.41832 0.76939 0.98471 0.0
C2021 C 0.34922 0.75778 0.9769 0.0
H2022 H 0.40434 0.74015 0.95451 0.0
C2023 C 0.35717 0.77478 0.99395 0.0
C2024 C 0.38205 0.77977 -0.00366 0.0
H2025 H 0.32984 0.75537 0.97429 0.0
H2026 H 0.34379 0.785 0.00418 0.0
C2027 C 0.39898 0.766 0.98307 0.0
C2028 C 0.97694 0.64206 0.7303 0.0
C2029 C 0.9614 0.62599 0.74268 0.0
H2030 H 0.00448 0.64604 0.70315 0.0
C2031 C 0.96425 0.60084 0.73955 0.0
H2032 H 0.97525 0.66157 0.73252 0.0
C2033 C 0.98117 0.59196 0.72288 0.0
C2034 C 0.99524 0.60816 0.70899 0.0
H2035 H 0.95261 0.58808 0.74903 0.0
H2036 H 0.98213 0.57252 0.71983 0.0
C2037 C 0.99367 0.63321 0.71348 0.0
C2038 C 0.09394 0.22404 0.48025 0.0
C2039 C 0.1098 0.20929 0.49382 0.0
H2040 H 0.09063 0.25127 0.45266 0.0
C2041 C 0.13493 0.21339 0.49255 0.0
H2042 H 0.07444 0.22136 0.48105 0.0
C2043 C 0.14415 0.23075 0.47653 0.0
C2044 C 0.12836 0.24397 0.46139 0.0
H2045 H 0.1475 0.2024 0.50301 0.0
H2046 H 0.16369 0.23262 0.47488 0.0
C2047 C 0.10316 0.24117 0.46403 0.0
C2048 C 0.95922 0.38463 0.7552 0.0
C2049 C 0.95597 0.3594 0.7534 0.0
H2050 H 0.97737 0.41371 0.77346 0.0
C2051 C 0.9706 0.34379 0.76738 0.0
H2052 H 0.94827 0.39703 0.74448 0.0
C2053 C 0.98711 0.3533 0.7841 0.0
C2054 C 0.98937 0.37854 0.78688 0.0
H2055 H 0.96852 0.32422 0.76625 0.0
H2056 H -0.00261 0.34091 0.79547 0.0
C2057 C 0.9759 0.39414 0.77174 0.0
C2058 C 0.51628 0.64778 0.25978 0.0
C2059 C 0.53171 0.63178 0.24719 0.0
H2060 H 0.48833 0.65148 0.28654 0.0
C2061 C 0.52812 0.60661 0.24933 0.0
H2062 H 0.51852 0.66731 0.2583 0.0
C2063 C 0.51054 0.59757 0.26524 0.0
C2064 C 0.49661 0.61361 0.27941 0.0
H2065 H 0.53965 0.59391 0.23963 0.0
H2066 H 0.50907 0.57806 0.26765 0.0
C2067 C 0.49896 0.63876 0.2759 0.0
C2068 C 0.4819 0.59962 0.76277 0.0
C2069 C 0.49488 0.61587 0.77763 0.0
H2070 H 0.45361 0.59545 0.73635 0.0
C2071 C 0.49216 0.64099 0.77412 0.0
H2072 H 0.48371 0.58013 0.76508 0.0
C2073 C 0.47521 0.64972 0.75738 0.0
C2074 C 0.46049 0.63342 0.74432 0.0
H2075 H 0.50208 0.65386 0.78526 0.0
H2076 H 0.47239 0.66918 0.75606 0.0
C2077 C 0.46463 0.60834 0.74638 0.0
C2078 C 0.85352 0.21543 0.99096 0.0
C2079 C 0.87858 0.21109 0.99263 0.0
H2080 H 0.82519 0.23472 0.97265 0.0
C2081 C 0.89477 0.22557 0.97918 0.0
H2082 H 0.84069 0.20466 0.00134 0.0
C2083 C 0.88594 0.24261 0.96263 0.0
C2084 C 0.86081 0.24558 0.95954 0.0
H2085 H 0.91423 0.22272 0.98029 0.0
H2086 H 0.89873 0.25245 0.95132 0.0
C2087 C 0.84469 0.23271 0.97462 0.0
C2088 C 0.60036 0.74728 0.46556 0.0
C2089 C 0.62534 0.74403 0.4617 0.0
H2090 H 0.57292 0.76715 0.48452 0.0
C2091 C 0.64208 0.75599 0.47687 0.0
H2092 H 0.58712 0.73809 0.45422 0.0
C2093 C 0.63401 0.77287 0.49396 0.0
C2094 C 0.6091 0.77766 0.49635 0.0
H2095 H 0.66148 0.7537 0.47435 0.0
H2096 H 0.6473 0.78316 0.50424 0.0
C2097 C 0.59228 0.76385 0.48294 0.0
C2098 C 0.76281 0.47295 0.64389 0.0
C2099 C 0.74991 0.45799 0.62766 0.0
H2100 H 0.79051 0.49997 0.64807 0.0
C2101 C 0.75279 0.46134 0.60255 0.0
H2102 H 0.76083 0.47082 0.66338 0.0
C2103 C 0.76962 0.47816 0.59382 0.0
C2104 C 0.78397 0.49167 0.6101 0.0
H2105 H 0.74293 0.45015 0.58967 0.0
H2106 H 0.77235 0.47954 0.57436 0.0
C2107 C 0.77982 0.48959 0.63516 0.0
C2108 C 0.77628 0.5019 0.85444 0.0
C2109 C 0.78017 0.49954 0.87953 0.0
H2110 H 0.75802 0.52139 0.82622 0.0
C2111 C 0.76589 0.51311 0.89579 0.0
H2112 H 0.78691 0.49149 0.84155 0.0
C2113 C 0.74954 0.5304 0.88706 0.0
C2114 C 0.74708 0.53413 0.86196 0.0
H2115 H 0.76843 0.51152 0.91527 0.0
H2116 H 0.73982 0.5417 0.89994 0.0
C2117 C 0.75972 0.519 0.84571 0.0
C2118 C 0.72265 0.51388 0.09601 0.0
C2119 C 0.70802 0.50054 0.11216 0.0
H2120 H 0.74946 0.5418 0.09208 0.0
C2121 C 0.71175 0.50281 0.13728 0.0
H2122 H 0.72023 0.51235 0.07652 0.0
C2123 C 0.72863 0.5195 0.14615 0.0
C2124 C 0.74181 0.5343 0.13001 0.0
H2125 H 0.70082 0.49258 0.15009 0.0
H2126 H 0.73029 0.52178 0.16565 0.0
C2127 C 0.73936 0.53075 0.10489 0.0
C2128 C 0.72984 0.47474 0.34295 0.0
C2129 C 0.74348 0.46074 0.35942 0.0
H2130 H 0.70108 0.50055 0.33847 0.0
C2131 C 0.74134 0.46516 0.38444 0.0
H2132 H 0.73129 0.47179 0.32352 0.0
C2133 C 0.72421 0.48176 0.39296 0.0
C2134 C 0.70886 0.49394 0.37656 0.0
H2135 H 0.75184 0.45476 0.39749 0.0
H2136 H 0.72189 0.48376 0.41242 0.0
C2137 C 0.71253 0.49116 0.35148 0.0
C2138 C 0.52116 0.34083 0.22519 0.0
C2139 C 0.53566 0.35653 0.23921 0.0
H2140 H 0.49421 0.3378 0.19726 0.0
C2141 C 0.53209 0.38172 0.23755 0.0
H2142 H 0.52348 0.32128 0.2262 0.0
C2143 C 0.51518 0.39113 0.22117 0.0
C2144 C 0.50178 0.37548 0.20604 0.0
H2145 H 0.54294 0.39419 0.24829 0.0
H2146 H 0.51345 0.4107 0.21958 0.0
C2147 C 0.50441 0.35024 0.20863 0.0
C2148 C 0.10585 0.75296 0.03121 0.0
C2149 C 0.13104 0.75126 0.03466 0.0
H2150 H 0.07687 0.77097 0.01263 0.0
C2151 C 0.14673 0.76487 0.01976 0.0
H2152 H 0.09339 0.74253 0.04235 0.0
C2153 C 0.13731 0.78129 0.0029 0.0
C2154 C 0.11208 0.78413 0.00056 0.0
H2155 H 0.16627 0.76379 0.02199 0.0
H2156 H 0.14974 0.79247 0.99248 0.0
C2157 C 0.09643 0.76921 0.01418 0.0
C2158 C 0.35594 0.21089 0.50256 0.0
C2159 C 0.38105 0.20714 0.50042 0.0
H2160 H 0.32749 0.22971 0.52112 0.0
C2161 C 0.39714 0.22161 0.51404 0.0
H2162 H 0.34318 0.20007 0.49215 0.0
C2163 C 0.38819 0.23843 0.53076 0.0
C2164 C 0.36305 0.24117 0.53392 0.0
H2165 H 0.41663 0.21914 0.51266 0.0
H2166 H 0.40093 0.24856 0.54186 0.0
C2167 C 0.347 0.22787 0.51911 0.0
C2168 C 0.21763 0.51462 0.40137 0.0
C2169 C 0.20299 0.50131 0.38518 0.0
H2170 H 0.24509 0.54192 0.40535 0.0
C2171 C 0.20695 0.50338 0.36009 0.0
H2172 H 0.21501 0.51327 0.42085 0.0
C2173 C 0.22434 0.51957 0.35127 0.0
C2174 C 0.23782 0.53411 0.36741 0.0
H2175 H 0.19602 0.49318 0.34726 0.0
H2176 H 0.22634 0.52156 0.33177 0.0
C2177 C 0.23484 0.53101 0.39254 0.0
C2178 C 0.2154 0.4929 0.13963 0.0
C2179 C 0.21142 0.49511 0.11453 0.0
H2180 H 0.23412 0.47383 0.16787 0.0
C2181 C 0.22607 0.48191 0.09829 0.0
H2182 H 0.20448 0.50305 0.1525 0.0
C2183 C 0.24284 0.46504 0.10704 0.0
C2184 C 0.24539 0.4614 0.13214 0.0
H2185 H 0.22351 0.48342 0.07881 0.0
H2186 H 0.25279 0.45394 0.09417 0.0
C2187 C 0.23241 0.47624 0.14838 0.0
C2188 C 0.27727 0.49091 0.85231 0.0
C2189 C 0.28202 0.49298 0.87726 0.0
H2190 H 0.25763 0.47218 0.82457 0.0
C2191 C 0.26793 0.47965 0.89391 0.0
H2192 H 0.28774 0.50118 0.83914 0.0
C2193 C 0.25086 0.46285 0.88559 0.0
C2194 C 0.24751 0.45941 0.86055 0.0
H2195 H 0.27117 0.48103 0.9133 0.0
H2196 H 0.24128 0.45169 0.89871 0.0
C2197 C 0.26002 0.47434 0.84401 0.0
C2198 C 0.28907 0.50805 0.63172 0.0
C2199 C 0.29179 0.50661 0.60641 0.0
H2200 H 0.27118 0.52556 0.66143 0.0
C2201 C 0.27712 0.52112 0.59132 0.0
H2202 H 0.3001 0.49698 0.64373 0.0
C2203 C 0.26073 0.53761 0.60142 0.0
C2204 C 0.25861 0.53964 0.62674 0.0
H2205 H 0.27885 0.52034 0.57171 0.0
H2206 H 0.25014 0.54912 0.58942 0.0
C2207 C 0.27251 0.52436 0.64181 0.0
C2208 C 0.05731 0.09757 0.4261 0.0
C2209 C 0.04244 0.1127 0.41192 0.0
H2210 H 0.07474 0.09201 0.46037 0.0
C2211 C 0.03214 0.1336 0.4225 0.0
H2212 H 0.06534 0.08127 0.4185 0.0
C2213 C 0.03707 0.13944 0.44683 0.0
C2214 C 0.05269 0.12467 0.4606 0.0
H2215 H 0.02037 0.14539 0.41198 0.0
H2216 H 0.02955 0.15595 0.45452 0.0
C2217 C 0.06256 0.10362 0.4501 0.0
C2218 C 0.10457 0.78675 0.69697 0.0
C2219 C 0.11908 0.80194 0.71148 0.0
H2220 H 0.09965 0.77057 0.66171 0.0
C2221 C 0.14066 0.81156 0.70187 0.0
H2222 H 0.08766 0.77945 0.70393 0.0
C2223 C 0.14752 0.80648 0.67806 0.0
C2224 C 0.13269 0.79205 0.66314 0.0
H2225 H 0.15208 0.82344 0.71269 0.0
H2226 H 0.16422 0.81434 0.67116 0.0
C2227 C 0.11124 0.782 0.67281 0.0
C2228 C 0.4509 0.85288 0.94705 0.0
C2229 C 0.43155 0.8643 0.95916 0.0
H2230 H 0.47158 0.85055 0.91395 0.0
C2231 C 0.4184 0.88267 0.94727 0.0
H2232 H 0.46111 0.8385 0.95584 0.0
C2233 C 0.42449 0.8897 0.92375 0.0
C2234 C 0.44349 0.8781 0.91137 0.0
H2235 H 0.40339 0.89174 0.95624 0.0
H2236 H 0.41414 0.90411 0.91514 0.0
C2237 C 0.45665 0.85956 0.92311 0.0
C2238 C 0.37609 0.20997 0.17383 0.0
C2239 C 0.35512 0.19898 0.16412 0.0
H2240 H 0.40008 0.21274 0.20466 0.0
C2241 C 0.34157 0.18298 0.17864 0.0
H2242 H 0.38669 0.2226 0.16305 0.0
C2243 C 0.34919 0.1774 0.2021 0.0
C2244 C 0.37032 0.18796 0.21176 0.0
H2245 H 0.32526 0.17435 0.17172 0.0
H2246 H 0.3387 0.16442 0.2126 0.0
C2247 C 0.38355 0.20464 0.19765 0.0
C2248 C 0.05729 0.89655 0.06335 0.0
C2249 C 0.04241 0.88193 0.07801 0.0
H2250 H 0.07495 0.90085 0.02905 0.0
C2251 C 0.03238 0.8605 0.06824 0.0
H2252 H 0.06514 0.91323 0.07033 0.0
C2253 C 0.03756 0.85369 0.0442 0.0
C2254 C 0.05315 0.86802 0.02995 0.0
H2255 H 0.0206 0.84908 0.07913 0.0
H2256 H 0.03022 0.83682 0.03713 0.0
C2257 C 0.06278 0.88955 0.03968 0.0
C2258 C 0.34473 0.8127 0.31709 0.0
C2259 C 0.35847 0.79596 0.33058 0.0
H2260 H 0.34112 0.83256 0.28391 0.0
C2261 C 0.379 0.7851 0.31986 0.0
H2262 H 0.32878 0.82126 0.32485 0.0
C2263 C 0.38574 0.79114 0.296 0.0
C2264 C 0.3723 0.80847 0.28291 0.0
H2265 H 0.38972 0.77193 0.32986 0.0
H2266 H 0.40185 0.78298 0.28815 0.0
C2267 C 0.35173 0.81907 0.29363 0.0
C2268 C 0.42897 0.10003 0.53847 0.0
C2269 C 0.43873 0.12149 0.52869 0.0
H2270 H 0.42666 0.07634 0.56914 0.0
C2271 C 0.45463 0.13562 0.54279 0.0
H2272 H 0.41656 0.0889 0.52794 0.0
C2273 C 0.45996 0.12872 0.56677 0.0
C2274 C 0.44979 0.1074 0.57662 0.0
H2275 H 0.46207 0.15242 0.53568 0.0
H2276 H 0.47195 0.14002 0.57757 0.0
C2277 C 0.43463 0.09293 0.56209 0.0
C2278 C 0.14014 0.17249 0.79151 0.0
C2279 C 0.12 0.184 0.78087 0.0
H2280 H 0.1629 0.16902 0.82278 0.0
C2281 C 0.1071 0.20155 0.79417 0.0
H2282 H 0.15032 0.15882 0.78162 0.0
C2283 C 0.11397 0.20696 0.81813 0.0
C2284 C 0.13408 0.19524 0.82874 0.0
H2285 H 0.09131 0.2104 0.78638 0.0
H2286 H 0.10371 0.22038 0.82825 0.0
C2287 C 0.14726 0.17822 0.81509 0.0
C2288 C 0.45669 0.05049 0.09781 0.0
C2289 C 0.46487 0.04484 0.12129 0.0
H2290 H 0.42715 0.05027 0.07272 0.0
C2291 C 0.44925 0.03269 0.13742 0.0
H2292 H 0.4684 0.06001 0.08512 0.0
C2293 C 0.42522 0.02757 0.13051 0.0
C2294 C 0.41677 0.03426 0.10729 0.0
H2295 H 0.45512 0.02854 0.15577 0.0
H2296 H 0.41312 0.019 0.14347 0.0
C2297 C 0.433 0.04508 0.09081 0.0
C2298 C 0.18843 0.16456 0.38789 0.0
C2299 C 0.20231 0.16225 0.36666 0.0
H2300 H 0.17032 0.1891 0.41214 0.0
C2301 C 0.21148 0.18324 0.35527 0.0
H2302 H 0.18122 0.14863 0.39698 0.0
C2303 C 0.20599 0.20632 0.36442 0.0
C2304 C 0.19072 0.20861 0.38466 0.0
H2305 H 0.22244 0.18182 0.33896 0.0
H2306 H 0.21232 0.22231 0.35478 0.0
C2307 C 0.18233 0.18762 0.39658 0.0
C2308 C 0.04629 0.95323 0.63734 0.0
C2309 C 0.03238 0.93693 0.62347 0.0
H2310 H 0.08089 0.97099 0.64148 0.0
C2311 C 0.04236 0.92674 0.60234 0.0
H2312 H 0.03899 0.96103 0.65389 0.0
C2313 C 0.06593 0.93245 0.59523 0.0
C2314 C 0.08024 0.94811 0.60937 0.0
H2315 H 0.03199 0.91405 0.59139 0.0
H2316 H 0.07311 0.9242 0.57884 0.0
C2317 C 0.07025 0.95862 0.63044 0.0
C2318 C 0.28975 0.7856 0.86433 0.0
C2319 C 0.3059 0.78367 0.88394 0.0
H2320 H 0.27122 0.80968 0.83988 0.0
C2321 C 0.31391 0.80486 0.89578 0.0
H2322 H 0.28359 0.76949 0.85479 0.0
C2323 C 0.30647 0.82775 0.88764 0.0
C2324 C 0.29159 0.82974 0.86705 0.0
H2325 H 0.32649 0.80371 0.91092 0.0
H2326 H 0.31333 0.84387 0.89666 0.0
C2327 C 0.28292 0.80852 0.85571 0.0
C2328 C 0.44782 0.92315 0.38805 0.0
C2329 C 0.45903 0.93468 0.36823 0.0
H2330 H 0.41605 0.91994 0.41012 0.0
C2331 C 0.44618 0.95241 0.35509 0.0
H2332 H 0.45737 0.90934 0.3984 0.0
C2333 C 0.42212 0.95802 0.36142 0.0
C2334 C 0.41098 0.94635 0.38128 0.0
H2335 H 0.45442 0.96128 0.33955 0.0
H2336 H 0.41234 0.97159 0.351 0.0
C2337 C 0.42417 0.92912 0.39468 0.0
C2338 C 0.30971 0.17884 0.64622 0.0
C2339 C 0.29477 0.1643 0.63153 0.0
H2340 H 0.32733 0.21315 0.65075 0.0
C2341 C 0.28457 0.1743 0.61029 0.0
H2342 H 0.3177 0.17167 0.66276 0.0
C2343 C 0.28962 0.19844 0.60371 0.0
C2344 C 0.30529 0.21257 0.61808 0.0
H2345 H 0.27275 0.1635 0.59882 0.0
H2346 H 0.28217 0.20568 0.58697 0.0
C2347 C 0.31509 0.20262 0.63944 0.0
C2348 C 0.06388 0.06156 0.8962 0.0
C2349 C 0.0777 0.04524 0.88233 0.0
H2350 H 0.03032 0.08072 0.89989 0.0
C2351 C 0.06724 0.03438 0.86166 0.0
H2352 H 0.07144 0.07009 0.91227 0.0
C2353 C 0.04329 0.04001 0.8549 0.0
C2354 C 0.02985 0.05694 0.86847 0.0
H2355 H 0.07749 0.02151 0.85085 0.0
H2356 H 0.03565 0.03189 0.83866 0.0
C2357 C 0.04032 0.06753 0.88919 0.0
C2358 C 0.20858 0.82161 0.11152 0.0
C2359 C 0.19809 0.83156 0.13262 0.0
H2360 H 0.2115 0.79018 0.08834 0.0
C2361 C 0.18313 0.81692 0.14719 0.0
H2362 H 0.22043 0.83249 0.10015 0.0
C2363 C 0.17802 0.79309 0.14044 0.0
C2364 C 0.18813 0.78317 0.11923 0.0
H2365 H 0.17492 0.82404 0.16362 0.0
H2366 H 0.1658 0.78247 0.15168 0.0
C2367 C 0.2038 0.7974 0.10496 0.0
C2368 C 0.13249 0.42474 0.035 0.0
C2369 C 0.11304 0.41333 0.04708 0.0
H2370 H 0.1543 0.4571 0.03172 0.0
C2371 C 0.1003 0.42612 0.06506 0.0
H2372 H 0.1424 0.41529 0.02086 0.0
C2373 C 0.10717 0.44966 0.07132 0.0
C2374 C 0.1266 0.46114 0.05939 0.0
H2375 H 0.08518 0.41781 0.07457 0.0
H2376 H 0.09728 0.45889 0.08565 0.0
C2377 C 0.13908 0.44867 0.04096 0.0
C2378 C 0.6004 0.04338 0.92633 0.0
C2379 C 0.62104 0.0328 0.93698 0.0
H2380 H 0.57777 0.07479 0.92335 0.0
C2381 C 0.63498 0.04639 0.9535 0.0
H2382 H 0.58942 0.03328 0.91344 0.0
C2383 C 0.62864 0.07055 0.95871 0.0
C2384 C 0.60803 0.0811 0.94784 0.0
H2385 H 0.65117 0.03865 0.96165 0.0
H2386 H 0.63972 0.08089 0.9713 0.0
C2387 C 0.59382 0.06716 0.93189 0.0
C2388 C 0.18352 0.35157 0.21175 0.0
C2389 C 0.16227 0.36259 0.20276 0.0
H2390 H 0.22253 0.35221 0.2128 0.0
C2391 C 0.16401 0.38424 0.18942 0.0
H2392 H 0.18252 0.33496 0.22231 0.0
C2393 C 0.18682 0.39376 0.18363 0.0
C2394 C 0.20809 0.38224 0.19186 0.0
H2395 H 0.14784 0.39303 0.18237 0.0
H2396 H 0.1879 0.40965 0.172 0.0
C2397 C 0.20632 0.36155 0.20662 0.0
C2398 C 0.86368 0.92358 0.45719 0.0
C2399 C 0.88351 0.9127 0.44527 0.0
H2400 H 0.8415 0.95563 0.46086 0.0
C2401 C 0.89662 0.92616 0.42803 0.0
H2402 H 0.85348 0.9136 0.47078 0.0
C2403 C 0.88972 0.94984 0.42232 0.0
C2404 C 0.86989 0.96076 0.43408 0.0
H2405 H 0.91205 0.91827 0.41867 0.0
H2406 H 0.89986 0.95959 0.40851 0.0
C2407 C 0.85705 0.94762 0.4518 0.0
C2408 C 0.81667 0.14607 0.17474 0.0
C2409 C 0.82919 0.13613 0.19458 0.0
H2410 H 0.78465 0.14533 0.15286 0.0
C2411 C 0.81822 0.11755 0.20834 0.0
H2412 H 0.82468 0.16044 0.16389 0.0
C2413 C 0.79486 0.10922 0.20235 0.0
C2414 C 0.78259 0.11902 0.18221 0.0
H2415 H 0.8275 0.1098 0.2239 0.0
H2416 H 0.78665 0.09487 0.21306 0.0
C2417 C 0.79375 0.13743 0.16847 0.0
C2418 C 0.40489 0.55792 0.53725 0.0
C2419 C 0.38806 0.5748 0.52808 0.0
H2420 H 0.41084 0.52189 0.55053 0.0
C2421 C 0.36442 0.56693 0.52232 0.0
H2422 H 0.42332 0.56332 0.54164 0.0
C2423 C 0.3574 0.54283 0.527 0.0
C2424 C 0.3739 0.52654 0.53772 0.0
H2425 H 0.35116 0.57954 0.51502 0.0
H2426 H 0.33872 0.53745 0.52377 0.0
C2427 C 0.39783 0.53412 0.54216 0.0
C2428 C 0.19619 0.60414 0.29189 0.0
C2429 C 0.20967 0.61793 0.30862 0.0
H2430 H 0.16212 0.60018 0.27309 0.0
C2431 C 0.19948 0.63912 0.31851 0.0
H2432 H 0.20363 0.58755 0.28431 0.0
C2433 C 0.17613 0.64635 0.31208 0.0
C2434 C 0.16223 0.6323 0.29597 0.0
H2435 H 0.20952 0.65001 0.33151 0.0
H2436 H 0.16878 0.66277 0.32012 0.0
C2437 C 0.17243 0.61117 0.28577 0.0
C2438 C 0.29477 0.3882 0.78901 0.0
C2439 C 0.28142 0.37503 0.80633 0.0
H2440 H 0.32892 0.39185 0.77031 0.0
C2441 C 0.29203 0.35473 0.81759 0.0
H2442 H 0.28699 0.40411 0.78036 0.0
C2443 C 0.3156 0.34766 0.81178 0.0
C2444 C 0.3293 0.36107 0.79498 0.0
H2445 H 0.2821 0.34433 0.83107 0.0
H2446 H 0.32324 0.33187 0.82077 0.0
C2447 C 0.31875 0.3814 0.78355 0.0
C2448 C 0.95415 0.85564 0.54416 0.0
C2449 C 0.93848 0.86991 0.52993 0.0
H2450 H 0.97105 0.85101 0.57912 0.0
C2451 C 0.92872 0.89137 0.53967 0.0
H2452 H 0.96158 0.83883 0.53707 0.0
C2453 C 0.93412 0.89833 0.56338 0.0
C2454 C 0.94905 0.88373 0.57803 0.0
H2455 H 0.91649 0.9026 0.52904 0.0
H2456 H 0.92616 0.91493 0.57039 0.0
C2457 C 0.95923 0.86241 0.56822 0.0
C2458 C 0.83944 0.1984 0.31039 0.0
C2459 C 0.85578 0.20982 0.32633 0.0
H2460 H 0.83355 0.18369 0.27492 0.0
C2461 C 0.87842 0.21772 0.31742 0.0
H2462 H 0.82179 0.19226 0.31662 0.0
C2463 C 0.88493 0.21328 0.29315 0.0
C2464 C 0.86899 0.20059 0.27775 0.0
H2465 H 0.89125 0.22679 0.32931 0.0
H2466 H 0.90288 0.21842 0.28688 0.0
C2467 C 0.84607 0.19365 0.28645 0.0
C2468 C 0.53294 0.12818 0.0691 0.0
C2469 C 0.54644 0.10948 0.08021 0.0
H2470 H 0.52823 0.15046 0.03723 0.0
C2471 C 0.56569 0.09872 0.06746 0.0
H2472 H 0.51783 0.13657 0.07854 0.0
C2473 C 0.57168 0.10674 0.04422 0.0
C2474 C 0.55827 0.12536 0.033 0.0
H2475 H 0.57632 0.08422 0.07554 0.0
H2476 H 0.5869 0.09829 0.03499 0.0
C2477 C 0.53867 0.13591 0.04547 0.0
C2478 C 0.61367 0.78492 0.82069 0.0
C2479 C 0.63269 0.79781 0.83193 0.0
H2480 H 0.59211 0.78037 0.78833 0.0
C2481 C 0.64488 0.81601 0.81889 0.0
H2482 H 0.60421 0.77058 0.83034 0.0
C2483 C 0.63792 0.82163 0.79523 0.0
C2484 C 0.61894 0.80885 0.7839 0.0
H2485 H 0.65968 0.82613 0.82708 0.0
H2486 H 0.64741 0.8361 0.78578 0.0
C2487 C 0.60698 0.79025 0.79666 0.0
C2488 C 0.95131 0.13861 0.94676 0.0
C2489 C 0.93399 0.12543 0.96009 0.0
H2490 H 0.9701 0.14226 0.91266 0.0
C2491 C 0.92294 0.10499 0.94955 0.0
H2492 H 0.95981 0.15462 0.95448 0.0
C2493 C 0.92887 0.09787 0.92602 0.0
C2494 C 0.9456 0.11135 0.9123 0.0
H2495 H 0.90946 0.09457 0.95947 0.0
H2496 H 0.91999 0.08201 0.9184 0.0
C2497 C 0.9569 0.13175 0.92284 0.0
C2498 C 0.63814 0.17176 0.70072 0.0
C2499 C 0.61805 0.18355 0.71113 0.0
H2500 H 0.66111 0.16786 0.66966 0.0
C2501 C 0.60547 0.20116 0.69759 0.0
H2502 H 0.64812 0.15804 0.71078 0.0
C2503 C 0.6126 0.20639 0.67366 0.0
C2504 C 0.63266 0.19438 0.66327 0.0
H2505 H 0.58973 0.21026 0.70518 0.0
H2506 H 0.60258 0.21988 0.66337 0.0
C2507 C 0.64551 0.17728 0.67715 0.0
C2508 C 0.53118 0.88721 0.43431 0.0
C2509 C 0.53974 0.87548 0.41327 0.0
H2510 H 0.53077 0.88777 0.47335 0.0
C2511 C 0.55309 0.85389 0.41549 0.0
H2512 H 0.52063 0.9038 0.43294 0.0
C2513 C 0.55924 0.84508 0.4385 0.0
C2514 C 0.55138 0.85726 0.45952 0.0
H2515 H 0.55982 0.84455 0.39951 0.0
H2516 H 0.57081 0.82917 0.4399 0.0
C2517 C 0.53668 0.87794 0.45733 0.0
C2518 C 0.85184 0.81706 0.20006 0.0
C2519 C 0.87221 0.80583 0.21059 0.0
H2520 H 0.8293 0.82082 0.16866 0.0
C2521 C 0.88571 0.78905 0.1969 0.0
H2522 H 0.84119 0.83016 0.21023 0.0
C2523 C 0.87923 0.78414 0.17272 0.0
C2524 C 0.85891 0.79561 0.16221 0.0
H2525 H 0.90169 0.78044 0.20458 0.0
H2526 H 0.88997 0.77132 0.16233 0.0
C2527 C 0.84512 0.81183 0.17623 0.0
C2528 C 0.56571 0.9575 0.86296 0.0
C2529 C 0.576 0.9469 0.88387 0.0
H2530 H 0.53443 0.95948 0.8395 0.0
C2531 C 0.56212 0.93059 0.89771 0.0
H2532 H 0.57601 0.97035 0.85214 0.0
C2533 C 0.53871 0.92433 0.89044 0.0
C2534 C 0.52844 0.93463 0.86946 0.0
H2535 H 0.56954 0.92225 0.91396 0.0
H2536 H 0.52869 0.91113 0.90112 0.0
C2537 C 0.54191 0.95158 0.85593 0.0
C2538 C 0.81492 0.78982 0.6413 0.0
C2539 C 0.8052 0.77986 0.61991 0.0
H2540 H 0.81747 0.8208 0.66454 0.0
C2541 C 0.78959 0.79398 0.60545 0.0
H2542 H 0.8271 0.77928 0.65268 0.0
C2543 C 0.78454 0.81812 0.61195 0.0
C2544 C 0.79469 0.82815 0.63319 0.0
H2545 H 0.7822 0.78674 0.58869 0.0
H2546 H 0.77278 0.82892 0.6004 0.0
C2547 C 0.80954 0.81362 0.64799 0.0
C2548 C 0.92679 0.06356 0.39418 0.0
C2549 C 0.91303 0.04711 0.38039 0.0
H2550 H 0.95993 0.08346 0.39745 0.0
C2551 C 0.92319 0.0369 0.35925 0.0
H2552 H 0.91946 0.07165 0.41058 0.0
C2553 C 0.94681 0.04327 0.352 0.0
C2554 C 0.96017 0.06028 0.36557 0.0
H2555 H 0.91296 0.02396 0.34848 0.0
H2556 H 0.95426 0.03561 0.33546 0.0
C2557 C 0.94998 0.07024 0.38672 0.0
C2558 C 0.68047 0.18767 0.09643 0.0
C2559 C 0.68906 0.2085 0.10849 0.0
H2560 H 0.67931 0.14867 0.09565 0.0
C2561 C 0.7044 0.20594 0.12865 0.0
H2562 H 0.66841 0.18935 0.08093 0.0
C2563 C 0.70986 0.18276 0.13758 0.0
C2564 C 0.70059 0.16193 0.126 0.0
H2565 H 0.71088 0.2218 0.13839 0.0
H2566 H 0.72095 0.18113 0.15379 0.0
C2567 C 0.68657 0.1645 0.10488 0.0
C2568 C 0.5704 0.03135 0.62544 0.0
C2569 C 0.58098 0.04377 0.60572 0.0
H2570 H 0.53891 0.02759 0.64841 0.0
C2571 C 0.56761 0.06185 0.5937 0.0
H2572 H 0.58032 0.01714 0.63482 0.0
C2573 C 0.54434 0.06785 0.60152 0.0
C2574 C 0.53369 0.05561 0.62122 0.0
H2575 H 0.57527 0.07163 0.5784 0.0
H2576 H 0.53466 0.08225 0.59213 0.0
C2577 C 0.54672 0.03707 0.633 0.0
C2578 C 0.67856 0.80227 0.39729 0.0
C2579 C 0.68625 0.78152 0.38453 0.0
H2580 H 0.67925 0.84122 0.39954 0.0
C2581 C 0.70184 0.7841 0.36457 0.0
H2582 H 0.66635 0.80058 0.41266 0.0
C2583 C 0.70847 0.80731 0.35657 0.0
C2584 C 0.70016 0.82812 0.36889 0.0
H2585 H 0.70767 0.76831 0.35433 0.0
H2586 H 0.71971 0.80903 0.34048 0.0
C2587 C 0.68584 0.82542 0.38978 0.0
C2588 C 0.94806 0.92361 0.10244 0.0
C2589 C 0.95858 0.93478 0.12283 0.0
H2590 H 0.91702 0.92069 0.07931 0.0
C2591 C 0.94528 0.95226 0.13583 0.0
H2592 H 0.95796 0.91001 0.09217 0.0
C2593 C 0.92144 0.95795 0.12879 0.0
C2594 C 0.91097 0.94659 0.1084 0.0
H2595 H 0.95299 0.96086 0.15179 0.0
H2596 H 0.9113 0.9713 0.13912 0.0
C2597 C 0.92461 0.92963 0.09515 0.0
C2598 C 0.80951 0.18712 0.8952 0.0
C2599 C 0.80064 0.20779 0.88305 0.0
H2600 H 0.81084 0.14813 0.89643 0.0
C2601 C 0.78492 0.20495 0.86321 0.0
H2602 H 0.82183 0.18901 0.91047 0.0
C2603 C 0.77938 0.18165 0.85468 0.0
C2604 C 0.78893 0.16097 0.86634 0.0
H2605 H 0.7782 0.22068 0.85341 0.0
H2606 H 0.76801 0.17979 0.83869 0.0
C2607 C 0.80334 0.16383 0.88716 0.0
C2608 C 0.86095 0.5698 0.95717 0.0
C2609 C 0.8808 0.58038 0.94498 0.0
H2610 H 0.83808 0.53821 0.96083 0.0
C2611 C 0.89307 0.56697 0.92713 0.0
H2612 H 0.85139 0.57974 0.97122 0.0
C2613 C 0.8854 0.54362 0.92114 0.0
C2614 C 0.86562 0.53294 0.93321 0.0
H2615 H 0.90847 0.57464 0.91753 0.0
H2616 H 0.89499 0.5339 0.90693 0.0
C2617 C 0.85355 0.54603 0.95149 0.0
C2618 C 0.35431 0.91397 0.05392 0.0
C2619 C 0.37542 0.91116 0.03995 0.0
H2620 H 0.3307 0.93909 0.07209 0.0
C2621 C 0.38723 0.93187 0.03068 0.0
H2622 H 0.34492 0.89826 0.06122 0.0
C2623 C 0.37861 0.95515 0.03614 0.0
C2624 C 0.35851 0.95793 0.0515 0.0
H2625 H 0.40345 0.93005 0.01965 0.0
H2626 H 0.38856 0.9709 0.02971 0.0
C2627 C 0.34616 0.93724 0.06002 0.0
C2628 C 0.79671 0.60413 0.78973 0.0
C2629 C 0.78394 0.61746 0.80735 0.0
H2630 H 0.8305 0.59982 0.77052 0.0
C2631 C 0.79524 0.63732 0.8187 0.0
H2632 H 0.78838 0.58857 0.78098 0.0
C2633 C 0.81891 0.64383 0.81266 0.0
C2634 C 0.83201 0.63028 0.79551 0.0
H2635 H 0.78576 0.64785 0.8324 0.0
H2636 H 0.82709 0.65932 0.82169 0.0
C2637 C 0.82078 0.61036 0.78403 0.0
C2638 C 0.12868 0.06956 0.53319 0.0
C2639 C 0.10881 0.08007 0.54539 0.0
H2640 H 0.15158 0.03802 0.52942 0.0
C2641 C 0.09641 0.06649 0.56304 0.0
H2642 H 0.13835 0.07964 0.51929 0.0
C2643 C 0.10404 0.04309 0.56889 0.0
C2644 C 0.1239 0.03252 0.55686 0.0
H2645 H 0.08099 0.07411 0.57264 0.0
H2646 H 0.09441 0.03325 0.583 0.0
C2647 C 0.13604 0.04575 0.53872 0.0
C2648 C 0.1951 0.88506 0.79109 0.0
C2649 C 0.2074 0.87368 0.81036 0.0
H2650 H 0.16208 0.88686 0.77021 0.0
C2651 C 0.1959 0.85486 0.82322 0.0
H2652 H 0.20357 0.89978 0.7811 0.0
C2653 C 0.17258 0.84735 0.8169 0.0
C2654 C 0.16004 0.85889 0.79794 0.0
H2655 H 0.20501 0.84581 0.83818 0.0
H2656 H 0.16428 0.83261 0.82702 0.0
C2657 C 0.17137 0.87789 0.78509 0.0
C2658 C 0.60745 0.44279 0.41523 0.0
C2659 C 0.6251 0.45526 0.42883 0.0
H2660 H 0.58613 0.41054 0.41131 0.0
C2661 C 0.63554 0.44391 0.44919 0.0
H2662 H 0.5991 0.45113 0.39944 0.0
C2663 C 0.62851 0.42024 0.45564 0.0
C2664 C 0.61055 0.40802 0.44213 0.0
H2665 H 0.64933 0.45314 0.45981 0.0
H2666 H 0.63665 0.41174 0.47145 0.0
C2667 C 0.60005 0.41955 0.42197 0.0
C2668 C 0.79586 0.35525 0.66885 0.0
C2669 C 0.78424 0.37386 0.6819 0.0
H2670 H 0.82747 0.33309 0.66489 0.0
C2671 C 0.79636 0.38484 0.70151 0.0
H2672 H 0.78692 0.34647 0.65364 0.0
C2673 C 0.82002 0.37748 0.70764 0.0
C2674 C 0.83148 0.35873 0.69454 0.0
H2675 H 0.7878 0.39938 0.71167 0.0
H2676 H 0.82916 0.38614 0.72279 0.0
C2677 C 0.8191 0.34762 0.67524 0.0
C2678 C 0.69562 0.60708 0.2026 0.0
C2679 C 0.70901 0.61968 0.18488 0.0
H2680 H 0.66151 0.60412 0.22149 0.0
C2681 C 0.69848 0.6398 0.17319 0.0
H2682 H 0.70331 0.59133 0.21162 0.0
C2683 C 0.67496 0.64715 0.17886 0.0
C2684 C 0.66121 0.63426 0.19603 0.0
H2685 H 0.70843 0.6498 0.15942 0.0
H2686 H 0.6674 0.66274 0.16947 0.0
C2687 C 0.67171 0.61419 0.20797 0.0
C2688 C 0.54143 0.59236 0.9291 0.0
C2689 C 0.5315 0.60942 0.91287 0.0
H2690 H 0.5553 0.58563 0.96475 0.0
C2691 C 0.52525 0.63267 0.92154 0.0
H2692 H 0.54625 0.57423 0.92308 0.0
C2693 C 0.52999 0.63903 0.94582 0.0
C2694 C 0.5413 0.62229 0.96146 0.0
H2695 H 0.51737 0.64609 0.90945 0.0
H2696 H 0.52625 0.6574 0.95188 0.0
C2697 C 0.54645 0.59879 0.95303 0.0
C2698 C 0.61087 0.27686 0.17501 0.0
C2699 C 0.63393 0.28398 0.16653 0.0
H2700 H 0.58591 0.27681 0.20514 0.0
C2701 C 0.65045 0.29458 0.18285 0.0
H2702 H 0.59788 0.26843 0.16283 0.0
C2703 C 0.64364 0.29933 0.20674 0.0
C2704 C 0.62032 0.29321 0.215 0.0
H2705 H 0.66842 0.30009 0.17696 0.0
H2706 H 0.65636 0.30867 0.21857 0.0
C2707 C 0.60415 0.2813 0.19922 0.0
C2708 C 0.95815 0.35807 0.42243 0.0
C2709 C 0.94688 0.37829 0.4115 0.0
H2710 H 0.96152 0.33619 0.45473 0.0
C2711 C 0.93076 0.39251 0.42518 0.0
H2712 H 0.97089 0.34701 0.41228 0.0
C2713 C 0.92537 0.38628 0.4491 0.0
C2714 C 0.93637 0.366 0.46004 0.0
H2715 H 0.92194 0.40826 0.41727 0.0
H2716 H 0.91233 0.39723 0.45902 0.0
C2717 C 0.9531 0.3521 0.44671 0.0
C2718 C 0.88893 0.70032 0.69648 0.0
C2719 C 0.87638 0.6823 0.7095 0.0
H2720 H 0.89175 0.72004 0.66281 0.0
C2721 C 0.85637 0.6707 0.69871 0.0
H2722 H 0.90458 0.7093 0.70439 0.0
C2723 C 0.84898 0.67689 0.67531 0.0
C2724 C 0.86175 0.69446 0.66197 0.0
H2725 H 0.84641 0.65669 0.70837 0.0
H2726 H 0.8334 0.66764 0.66754 0.0
C2727 C 0.8818 0.7062 0.67269 0.0
C2728 C 0.53228 0.3601 0.56787 0.0
C2729 C 0.54107 0.3823 0.57705 0.0
H2730 H 0.53077 0.33591 0.53715 0.0
C2731 C 0.55394 0.39798 0.56156 0.0
H2732 H 0.52204 0.34783 0.5794 0.0
C2733 C 0.55889 0.39119 0.5377 0.0
C2734 C 0.55071 0.36879 0.52864 0.0
H2735 H 0.56078 0.41528 0.56805 0.0
H2736 H 0.5697 0.40325 0.52646 0.0
C2737 C 0.53691 0.35346 0.54369 0.0
C2738 C 0.8481 0.30232 0.78596 0.0
C2739 C 0.87135 0.29582 0.77784 0.0
H2740 H 0.82284 0.30265 0.81534 0.0
C2741 C 0.88693 0.28289 0.79341 0.0
H2742 H 0.83584 0.31243 0.77427 0.0
C2743 C 0.87969 0.27775 0.81734 0.0
C2744 C 0.85667 0.28515 0.82568 0.0
H2745 H 0.90511 0.27806 0.78758 0.0
H2746 H 0.89222 0.26849 0.8294 0.0
C2747 C 0.84074 0.29686 0.80952 0.0
C2748 C 0.95396 0.63661 0.04407 0.0
C2749 C 0.93852 0.62211 0.02981 0.0
H2750 H 0.97063 0.64155 0.07909 0.0
C2751 C 0.92901 0.60054 0.03958 0.0
H2752 H 0.96119 0.65351 0.03696 0.0
C2753 C 0.93442 0.5937 0.06333 0.0
C2754 C 0.94907 0.60854 0.07801 0.0
H2755 H 0.91696 0.58913 0.02893 0.0
H2756 H 0.92663 0.57702 0.07037 0.0
C2757 C 0.95903 0.62996 0.06817 0.0
C2758 C 0.6384 0.68496 0.28775 0.0
C2759 C 0.61609 0.69287 0.27829 0.0
H2760 H 0.66233 0.68398 0.31822 0.0
C2761 C 0.60081 0.70737 0.2927 0.0
H2762 H 0.65043 0.67365 0.27698 0.0
C2763 C 0.60739 0.71287 0.31677 0.0
C2764 C 0.62949 0.70426 0.3264 0.0
H2765 H 0.58334 0.71335 0.28583 0.0
H2766 H 0.59509 0.72347 0.32792 0.0
C2767 C 0.64514 0.69078 0.31142 0.0
C2768 C 0.92372 0.53279 0.62954 0.0
C2769 C 0.91277 0.54542 0.61015 0.0
H2770 H 0.95582 0.52844 0.65157 0.0
C2771 C 0.92602 0.56343 0.5979 0.0
H2772 H 0.9139 0.51862 0.63907 0.0
C2773 C 0.94957 0.56912 0.60513 0.0
C2774 C 0.96064 0.55657 0.62442 0.0
H2775 H 0.91805 0.57335 0.58284 0.0
H2776 H 0.95919 0.58344 0.59558 0.0
C2777 C 0.94769 0.53815 0.63647 0.0
C2778 C 0.68548 0.70657 0.85046 0.0
C2779 C 0.69233 0.71485 0.87358 0.0
H2780 H 0.68472 0.67698 0.82542 0.0
C2781 C 0.70518 0.69928 0.88921 0.0
H2782 H 0.67541 0.71824 0.83816 0.0
C2783 C 0.71006 0.67526 0.88211 0.0
C2784 C 0.70243 0.6668 0.85919 0.0
H2785 H 0.71027 0.70523 0.90729 0.0
H2786 H 0.71944 0.66326 0.89461 0.0
C2787 C 0.69064 0.68288 0.84326 0.0
C2788 C 0.56818 0.45791 0.13109 0.0
C2789 C 0.57822 0.44822 0.10965 0.0
H2790 H 0.537 0.45916 0.15471 0.0
C2791 C 0.564 0.43297 0.09497 0.0
H2792 H 0.57876 0.46994 0.14255 0.0
C2793 C 0.5405 0.42682 0.10192 0.0
C2794 C 0.5305 0.43611 0.12345 0.0
H2795 H 0.5712 0.42535 0.0783 0.0
H2796 H 0.53021 0.41442 0.09056 0.0
C2797 C 0.5443 0.45205 0.13785 0.0
C2798 C 0.80203 0.32857 0.38796 0.0
C2799 C 0.78773 0.33072 0.36698 0.0
H2800 H 0.82073 0.30421 0.41198 0.0
C2801 C 0.77833 0.30966 0.35593 0.0
H2802 H 0.80941 0.34457 0.39678 0.0
C2803 C 0.78406 0.28666 0.36512 0.0
C2804 C 0.7998 0.28451 0.38503 0.0
H2805 H 0.76704 0.31097 0.33982 0.0
H2806 H 0.77758 0.27061 0.35569 0.0
C2807 C 0.80837 0.30557 0.39668 0.0
C2808 C 0.92527 0.43385 0.89727 0.0
C2809 C 0.91092 0.44885 0.88244 0.0
H2810 H 0.95939 0.41601 0.90209 0.0
C2811 C 0.92104 0.45886 0.86118 0.0
H2812 H 0.91799 0.42599 0.91381 0.0
C2813 C 0.94515 0.45358 0.85474 0.0
C2814 C 0.9591 0.43788 0.86928 0.0
H2815 H 0.91037 0.47071 0.84962 0.0
H2816 H 0.95253 0.46092 0.83801 0.0
C2817 C 0.949 0.42825 0.89064 0.0
C2818 C 0.80845 0.67876 0.14695 0.0
C2819 C 0.79321 0.66426 0.13255 0.0
H2820 H 0.82663 0.71284 0.15091 0.0
C2821 C 0.78307 0.67409 0.1112 0.0
H2822 H 0.8164 0.67171 0.16356 0.0
C2823 C 0.78848 0.69804 0.10424 0.0
C2824 C 0.80444 0.71211 0.11833 0.0
H2825 H 0.77103 0.6633 0.09994 0.0
H2826 H 0.78105 0.70516 0.08744 0.0
C2827 C 0.81419 0.70233 0.13979 0.0
C2828 C 0.55298 0.55908 0.34274 0.0
C2829 C 0.53196 0.55108 0.35486 0.0
H2830 H 0.59195 0.559 0.34173 0.0
C2831 C 0.53413 0.53521 0.37468 0.0
H2832 H 0.55162 0.57145 0.32745 0.0
C2833 C 0.55715 0.52877 0.3833 0.0
C2834 C 0.5782 0.53758 0.37177 0.0
H2835 H 0.51814 0.5291 0.38444 0.0
H2836 H 0.55851 0.51739 0.39934 0.0
C2837 C 0.57597 0.55204 0.3509 0.0
C2838 C 0.70506 0.2924 0.60439 0.0
C2839 C 0.69116 0.27774 0.62 0.0
H2840 H 0.7203 0.32787 0.59818 0.0
C2841 C 0.68319 0.28722 0.64229 0.0
H2842 H 0.71103 0.28552 0.58692 0.0
C2843 C 0.68846 0.31112 0.64871 0.0
C2844 C 0.70142 0.32623 0.63276 0.0
H2845 H 0.67231 0.27627 0.65455 0.0
H2846 H 0.68177 0.31794 0.66594 0.0
C2847 C 0.71 0.31663 0.61065 0.0
C2848 C 0.63138 0.92122 0.5275 0.0
C2849 C 0.6086 0.91272 0.53546 0.0
H2850 H 0.65651 0.95129 0.52693 0.0
C2851 C 0.59279 0.92886 0.54733 0.0
H2852 H 0.64382 0.90918 0.51811 0.0
C2853 C 0.6 0.95257 0.55233 0.0
C2854 C 0.62301 0.96089 0.54522 0.0
H2855 H 0.57505 0.92296 0.55354 0.0
H2856 H 0.58782 0.96424 0.56253 0.0
C2857 C 0.6385 0.94531 0.53221 0.0
C2858 C 0.12773 0.56777 0.46397 0.0
C2859 C 0.10543 0.57723 0.45573 0.0
H2860 H 0.1517 0.53681 0.46457 0.0
C2861 C 0.08928 0.56192 0.44322 0.0
H2862 H 0.14039 0.57917 0.47386 0.0
C2863 C 0.09574 0.53805 0.4379 0.0
C2864 C 0.11828 0.52877 0.44538 0.0
H2865 H 0.07191 0.5686 0.43676 0.0
H2866 H 0.08336 0.527 0.42725 0.0
C2867 C 0.13405 0.54354 0.45898 0.0
C2868 C 0.67818 0.84546 0.68295 0.0
C2869 C 0.66388 0.85992 0.69831 0.0
H2870 H 0.71205 0.84132 0.66452 0.0
C2871 C 0.67383 0.88129 0.70826 0.0
H2872 H 0.67103 0.82884 0.67512 0.0
C2873 C 0.69774 0.88817 0.70262 0.0
C2874 C 0.71163 0.87396 0.68661 0.0
H2875 H 0.66319 0.89259 0.72038 0.0
H2876 H 0.70499 0.90495 0.70997 0.0
C2877 C 0.70169 0.85253 0.67699 0.0
C2878 C 0.38528 0.44616 0.91785 0.0
C2879 C 0.36631 0.4581 0.93002 0.0
H2880 H 0.40706 0.41413 0.915 0.0
C2881 C 0.35426 0.44623 0.94915 0.0
H2882 H 0.39484 0.45494 0.90301 0.0
C2883 C 0.36088 0.42245 0.95561 0.0
C2884 C 0.37997 0.41063 0.94339 0.0
H2885 H 0.33941 0.45506 0.9586 0.0
H2886 H 0.35135 0.41346 0.97033 0.0
C2887 C 0.39223 0.4228 0.92465 0.0
C2888 C 0.3084 0.65278 0.69854 0.0
C2889 C 0.32527 0.63634 0.7084 0.0
H2890 H 0.27284 0.65794 0.68379 0.0
C2891 C 0.31769 0.6125 0.71384 0.0
H2892 H 0.31356 0.67134 0.69434 0.0
C2893 C 0.29396 0.60495 0.70821 0.0
C2894 C 0.27777 0.6211 0.69683 0.0
H2895 H 0.3303 0.59951 0.72163 0.0
H2896 H 0.28884 0.58616 0.71126 0.0
C2897 C 0.285 0.64519 0.69265 0.0
C2898 C 0.89488 0.06643 0.05997 0.0
C2899 C 0.88092 0.08063 0.04403 0.0
H2900 H 0.89879 0.0324 0.07827 0.0
C2901 C 0.86026 0.07035 0.03296 0.0
H2902 H 0.91096 0.07382 0.06864 0.0
C2903 C 0.85359 0.04624 0.03804 0.0
C2904 C 0.86726 0.03241 0.0546 0.0
H2905 H 0.84937 0.08088 0.02036 0.0
H2906 H 0.83735 0.03875 0.02978 0.0
C2907 C 0.88799 0.04269 0.06537 0.0
C2908 C 0.69449 0.1032 0.7915 0.0
C2909 C 0.70735 0.11562 0.80971 0.0
H2910 H 0.66085 0.10031 0.77176 0.0
C2911 C 0.69633 0.13528 0.82169 0.0
H2912 H 0.7026 0.08782 0.78225 0.0
C2913 C 0.67287 0.14251 0.81561 0.0
C2914 C 0.65971 0.12988 0.79781 0.0
H2915 H 0.7059 0.14512 0.83584 0.0
H2916 H 0.66492 0.15785 0.82507 0.0
C2917 C 0.67062 0.11013 0.78577 0.0
C2918 C 0.81854 0.87876 0.2867 0.0
C2919 C 0.83001 0.85923 0.29861 0.0
H2920 H 0.78633 0.90085 0.28404 0.0
C2921 C 0.81762 0.84682 0.31711 0.0
H2922 H 0.82771 0.88842 0.27219 0.0
C2923 C 0.79438 0.85405 0.32399 0.0
C2924 C 0.78279 0.87346 0.31213 0.0
H2925 H 0.82603 0.83166 0.32651 0.0
H2926 H 0.78543 0.84439 0.33866 0.0
C2927 C 0.79488 0.88566 0.29323 0.0
C2928 C 0.4318 0.3959 0.06408 0.0
C2929 C 0.44711 0.38123 0.07827 0.0
H2930 H 0.41359 0.40059 0.03011 0.0
C2931 C 0.45723 0.3601 0.06799 0.0
H2932 H 0.42386 0.41236 0.07145 0.0
C2933 C 0.45176 0.35363 0.04393 0.0
C2934 C 0.43578 0.36801 0.03013 0.0
H2935 H 0.46933 0.34865 0.07852 0.0
H2936 H 0.45921 0.33699 0.03648 0.0
C2937 C 0.42604 0.38924 0.04037 0.0
C2938 C 0.39947 0.68994 0.80189 0.0
C2939 C 0.38596 0.69714 0.78143 0.0
H2940 H 0.40234 0.69028 0.84076 0.0
C2941 C 0.3657 0.71228 0.78443 0.0
H2942 H 0.41508 0.67807 0.79988 0.0
C2943 C 0.35796 0.71857 0.80783 0.0
C2944 C 0.37081 0.71036 0.82838 0.0
H2945 H 0.35486 0.7177 0.76889 0.0
H2946 H 0.34145 0.72913 0.80989 0.0
C2947 C 0.39219 0.69685 0.8252 0.0
C2948 C 0.0609 0.64517 0.55479 0.0
C2949 C 0.05203 0.63356 0.53382 0.0
H2950 H 0.06275 0.64501 0.59375 0.0
C2951 C 0.03682 0.61327 0.53615 0.0
H2952 H 0.07288 0.66075 0.55327 0.0
C2953 C 0.03181 0.60377 0.55918 0.0
C2954 C 0.04139 0.61488 0.58013 0.0
H2955 H 0.03014 0.60387 0.52017 0.0
H2956 H 0.02084 0.58745 0.56061 0.0
C2957 C 0.05525 0.63614 0.57784 0.0
C2958 C 0.14836 0.30256 0.31447 0.0
C2959 C 0.13394 0.28738 0.32905 0.0
H2960 H 0.15226 0.32075 0.28038 0.0
C2961 C 0.11268 0.2771 0.31919 0.0
H2962 H 0.16488 0.31068 0.32152 0.0
C2963 C 0.10574 0.28244 0.29521 0.0
C2964 C 0.11977 0.29849 0.28116 0.0
H2965 H 0.10138 0.26516 0.33005 0.0
H2966 H 0.08896 0.275 0.28808 0.0
C2967 C 0.14121 0.30825 0.2909 0.0
C2968 C 0.44574 0.64047 0.4126 0.0
C2969 C 0.45968 0.6193 0.40999 0.0
H2970 H 0.42701 0.66399 0.43737 0.0
C2971 C 0.46882 0.60763 0.43086 0.0
H2972 H 0.43849 0.64977 0.3968 0.0
C2973 C 0.4629 0.61622 0.45405 0.0
C2974 C 0.44727 0.63617 0.45656 0.0
H2975 H 0.47977 0.59132 0.42925 0.0
H2976 H 0.46896 0.60617 0.46989 0.0
C2977 C 0.43926 0.64863 0.43574 0.0
C2978 C 0.11316 0.70917 0.17329 0.0
C2979 C 0.13364 0.69786 0.16296 0.0
H2980 H 0.08997 0.71206 0.20468 0.0
C2981 C 0.14688 0.68098 0.17676 0.0
H2982 H 0.10283 0.72247 0.16304 0.0
C2983 C 0.13948 0.67498 0.20019 0.0
C2984 C 0.11898 0.68609 0.21054 0.0
H2985 H 0.16278 0.67208 0.16929 0.0
H2986 H 0.14974 0.66143 0.21019 0.0
C2987 C 0.10601 0.70351 0.19711 0.0
C2988 C 0.03979 0.35665 0.94914 0.0
C2989 C 0.05592 0.371 0.96276 0.0
H2990 H 0.02172 0.35185 0.9148 0.0
C2991 C 0.06522 0.39249 0.95262 0.0
H2992 H 0.0327 0.33982 0.95652 0.0
C2993 C 0.05894 0.39939 0.9291 0.0
C2994 C 0.04359 0.38468 0.91501 0.0
H2995 H 0.07779 0.40378 0.96278 0.0
H2996 H 0.0666 0.41599 0.92175 0.0
C2997 C 0.03383 0.36335 0.92525 0.0
C2998 C 0.34684 0.31428 0.6749 0.0
C2999 C 0.36012 0.2973 0.66132 0.0
H3000 H 0.34343 0.33353 0.70844 0.0
C3001 C 0.38014 0.28554 0.67209 0.0
H3002 H 0.33127 0.3235 0.6671 0.0
C3003 C 0.38677 0.29085 0.69615 0.0
C3004 C 0.37374 0.30833 0.70941 0.0
H3005 H 0.39048 0.27214 0.66202 0.0
H3006 H 0.40245 0.28193 0.70407 0.0
C3007 C 0.35373 0.31992 0.69859 0.0
C3008 C 0.06354 0.42611 0.39561 0.0
C3009 C 0.07663 0.44439 0.3836 0.0
H3010 H 0.03122 0.40469 0.39679 0.0
C3011 C 0.06613 0.45609 0.36339 0.0
H3012 H 0.07113 0.41684 0.41127 0.0
C3013 C 0.04281 0.44946 0.35536 0.0
C3014 C 0.03008 0.43073 0.36717 0.0
H3015 H 0.07582 0.47042 0.35397 0.0
H3016 H 0.03507 0.45841 0.3396 0.0
C3017 C 0.04065 0.41921 0.38736 0.0
C3018 C 0.2944 0.31038 0.15109 0.0
C3019 C 0.28363 0.32689 0.13486 0.0
H3020 H 0.30916 0.27482 0.15627 0.0
C3021 C 0.27687 0.31884 0.11153 0.0
H3022 H 0.29965 0.31593 0.16926 0.0
C3023 C 0.28185 0.29487 0.10427 0.0
C3024 C 0.29392 0.27897 0.1202 0.0
H3025 H 0.26834 0.33118 0.09875 0.0
H3026 H 0.27766 0.28926 0.08586 0.0
C3027 C 0.29968 0.28677 0.14376 0.0
C3028 C 0.43296 0.53023 0.88165 0.0
C3029 C 0.41184 0.53913 0.8703 0.0
H3030 H 0.47198 0.53047 0.88251 0.0
C3031 C 0.41395 0.55368 0.84948 0.0
H3032 H 0.43169 0.5188 0.89766 0.0
C3033 C 0.43689 0.56073 0.84121 0.0
C3034 C 0.45798 0.55259 0.85313 0.0
H3035 H 0.3979 0.56073 0.84047 0.0
H3036 H 0.43817 0.57323 0.82602 0.0
C3037 C 0.45593 0.53664 0.87288 0.0
C3038 C 0.21004 0.67355 0.61266 0.0
C3039 C 0.19665 0.66155 0.63087 0.0
H3040 H 0.21416 0.7062 0.59141 0.0
C3041 C 0.17696 0.6735 0.64176 0.0
H3042 H 0.22549 0.66476 0.60418 0.0
C3043 C 0.17046 0.69681 0.63438 0.0
C3044 C 0.18377 0.70893 0.61627 0.0
H3045 H 0.16638 0.66473 0.65589 0.0
H3046 H 0.15494 0.70541 0.64295 0.0
C3047 C 0.20378 0.69726 0.60557 0.0
C3048 C 0.0701 0.53477 0.13211 0.0
C3049 C 0.08065 0.54582 0.11157 0.0
H3050 H 0.03826 0.53177 0.1547 0.0
C3051 C 0.06675 0.56199 0.09757 0.0
H3052 H 0.08041 0.52201 0.14302 0.0
C3053 C 0.04303 0.56761 0.10429 0.0
C3054 C 0.03246 0.55681 0.12485 0.0
H3055 H 0.07436 0.57068 0.0816 0.0
H3056 H 0.03298 0.58066 0.09346 0.0
C3057 C 0.04599 0.54005 0.13858 0.0
C3058 C 0.18474 0.31298 0.84269 0.0
C3059 C 0.19892 0.328 0.85764 0.0
H3060 H 0.16804 0.27822 0.83805 0.0
C3061 C 0.20891 0.3184 0.87917 0.0
H3062 H 0.17694 0.31982 0.82593 0.0
C3063 C 0.20429 0.29421 0.88582 0.0
C3064 C 0.18929 0.27961 0.87121 0.0
H3065 H 0.22016 0.32959 0.89084 0.0
H3066 H 0.21147 0.2873 0.90282 0.0
C3067 C 0.17979 0.28913 0.84953 0.0
C3068 C 0.42399 0.42425 0.59763 0.0
C3069 C 0.41229 0.44492 0.60684 0.0
H3070 H 0.45537 0.40155 0.59859 0.0
C3071 C 0.42409 0.45916 0.62453 0.0
H3072 H 0.41536 0.413 0.58394 0.0
C3073 C 0.44746 0.45286 0.63264 0.0
C3074 C 0.45895 0.43198 0.62348 0.0
H3075 H 0.41546 0.47535 0.63171 0.0
H3076 H 0.45631 0.46399 0.64627 0.0
C3077 C 0.44693 0.41774 0.606 0.0
C3078 C 0.31001 0.67566 0.34928 0.0
C3079 C 0.29354 0.66213 0.36329 0.0
H3080 H 0.32921 0.70912 0.34498 0.0
C3081 C 0.28259 0.67301 0.38368 0.0
H3082 H 0.31863 0.66778 0.33341 0.0
C3083 C 0.28824 0.69708 0.39 0.0
C3084 C 0.30526 0.71025 0.37625 0.0
H3085 H 0.26961 0.66299 0.3946 0.0
H3086 H 0.28 0.70507 0.406 0.0
C3087 C 0.31597 0.69935 0.35583 0.0
C3088 C 0.36148 0.06947 0.45612 0.0
C3089 C 0.38135 0.08013 0.44403 0.0
H3090 H 0.3388 0.03776 0.45978 0.0
C3091 C 0.39386 0.06669 0.42636 0.0
H3092 H 0.35174 0.07943 0.47003 0.0
C3093 C 0.38641 0.04325 0.42045 0.0
C3094 C 0.3666 0.0325 0.43243 0.0
H3095 H 0.40929 0.07442 0.41685 0.0
H3096 H 0.39618 0.0335 0.40638 0.0
C3097 C 0.3543 0.04563 0.45052 0.0
C3098 C 0.86324 0.42246 0.53344 0.0
C3099 C 0.88402 0.41232 0.54441 0.0
H3100 H 0.8401 0.45391 0.53039 0.0
C3101 C 0.898 0.4266 0.56024 0.0
H3102 H 0.85233 0.41186 0.52093 0.0
C3103 C 0.89097 0.45029 0.56569 0.0
C3104 C 0.87011 0.46042 0.55503 0.0
H3105 H 0.91416 0.4193 0.56884 0.0
H3106 H 0.90174 0.46064 0.57855 0.0
C3107 C 0.85645 0.44653 0.53854 0.0
C3108 C 0.31863 0.14201 0.31663 0.0
C3109 C 0.33103 0.13063 0.29752 0.0
H3110 H 0.28615 0.14374 0.33776 0.0
C3111 C 0.31944 0.11205 0.2843 0.0
H3112 H 0.32713 0.15644 0.32702 0.0
C3113 C 0.29557 0.10517 0.29005 0.0
C3114 C 0.2834 0.11642 0.30944 0.0
H3115 H 0.32863 0.10323 0.26927 0.0
H3116 H 0.28688 0.0908 0.27976 0.0
C3117 C 0.29517 0.13479 0.3227 0.0
C3118 C 0.59399 0.56652 0.06289 0.0
C3119 C 0.60541 0.57945 0.04413 0.0
H3120 H 0.5932 0.53413 0.08425 0.0
C3121 C 0.6249 0.56866 0.03156 0.0
H3122 H 0.57888 0.57434 0.07282 0.0
C3123 C 0.63282 0.54521 0.03779 0.0
C3124 C 0.62163 0.53261 0.05697 0.0
H3125 H 0.63383 0.57824 0.01684 0.0
H3126 H 0.64803 0.53724 0.02814 0.0
C3127 C 0.60215 0.54347 0.06938 0.0
C3128 C 0.67104 0.34991 0.31879 0.0
C3129 C 0.6592 0.35893 0.29811 0.0
H3130 H 0.70276 0.35088 0.3411 0.0
C3131 C 0.67099 0.37629 0.28347 0.0
H3132 H 0.66239 0.33647 0.33033 0.0
C3133 C 0.69456 0.38417 0.28932 0.0
C3134 C 0.70623 0.37519 0.31019 0.0
H3135 H 0.66226 0.3833 0.26726 0.0
H3136 H 0.70345 0.39747 0.27782 0.0
C3137 C 0.69417 0.35814 0.3249 0.0
C3138 C 0.13486 0.94618 0.95192 0.0
C3139 C 0.12186 0.95955 0.93448 0.0
H3140 H 0.13846 0.91198 0.97056 0.0
C3141 C 0.10176 0.94887 0.92293 0.0
H3142 H 0.15061 0.95399 0.96081 0.0
C3143 C 0.09477 0.9252 0.92853 0.0
C3144 C 0.10804 0.9115 0.94545 0.0
H3145 H 0.09149 0.95881 0.90934 0.0
H3146 H 0.07915 0.9175 0.91931 0.0
C3147 C 0.12813 0.92214 0.95721 0.0
C3148 C 0.31467 0.85004 0.18096 0.0
C3149 C 0.32807 0.86335 0.19808 0.0
H3150 H 0.28157 0.84692 0.16093 0.0
C3151 C 0.31734 0.88365 0.20937 0.0
H3152 H 0.32244 0.83427 0.17206 0.0
C3153 C 0.29353 0.89057 0.20341 0.0
C3154 C 0.28052 0.87756 0.18572 0.0
H3155 H 0.32728 0.89402 0.22285 0.0
H3156 H 0.28565 0.90648 0.21194 0.0
C3157 C 0.29126 0.85723 0.17467 0.0
C3158 C 0.17399 0.11103 0.70645 0.0
C3159 C 0.16316 0.13126 0.69511 0.0
H3160 H 0.20595 0.0886 0.70939 0.0
C3161 C 0.17661 0.1448 0.67821 0.0
H3162 H 0.16402 0.10048 0.71977 0.0
C3163 C 0.2002 0.13796 0.67223 0.0
C3164 C 0.21109 0.11774 0.6834 0.0
H3165 H 0.16875 0.16053 0.66929 0.0
H3166 H 0.20994 0.14846 0.65868 0.0
C3167 C 0.19798 0.10445 0.7008 0.0
loop_
_geom_bond_atom_site_label_1
_geom_bond_atom_site_label_2
_geom_bond_distance
_geom_bond_site_symmetry_2
_ccdc_geom_bond_type
In0 O1 2.294 . S
In0 O2 2.326 . S
In0 O6 2.266 . S
In0 O7 2.326 . S
In0 O8 2.266 . S
In0 O9 2.326 . S
In0 O11 2.294 . S
In0 O12 2.326 1_455 S
O1 In0 2.294 . S
O1 C10 1.240 . S
O2 In0 2.326 . S
O2 C10 1.252 . S
C3 O6 1.252 . S
C3 O7 1.260 . S
C4 O11 1.240 1_655 S
C4 O12 1.252 . S
C5 O8 1.252 . S
C5 O9 1.260 . S
O6 In0 2.266 . S
O6 C3 1.252 . S
O7 In0 2.326 . S
O7 C3 1.260 . S
O8 In0 2.266 . S
O8 C5 1.252 . S
O9 In0 2.326 . S
O9 C5 1.260 . S
C10 O1 1.240 . S
C10 O2 1.252 . S
O11 In0 2.294 . S
O11 C4 1.240 1_455 S
O12 In0 2.326 1_655 S
O12 C4 1.252 . S
In13 O14 2.294 . S
In13 O15 2.326 . S
In13 O19 2.266 . S
In13 O20 2.326 . S
In13 O21 2.266 . S
In13 O22 2.326 . S
In13 O24 2.294 . S
In13 O25 2.326 . S
O14 In13 2.294 . S
O14 C23 1.240 . S
O15 In13 2.326 . S
O15 C23 1.252 . S
C16 O19 1.252 . S
C16 O20 1.260 . S
C17 O24 1.240 . S
C17 O25 1.252 . S
C18 O21 1.252 . S
C18 O22 1.260 . S
O19 In13 2.266 . S
O19 C16 1.252 . S
O20 In13 2.326 . S
O20 C16 1.260 . S
O21 In13 2.266 . S
O21 C18 1.252 . S
O22 In13 2.326 . S
O22 C18 1.260 . S
C23 O14 1.240 . S
C23 O15 1.252 . S
O24 In13 2.294 . S
O24 C17 1.240 . S
O25 In13 2.326 . S
O25 C17 1.252 . S
In26 O27 2.294 . S
In26 O28 2.326 . S
In26 O32 2.266 . S
In26 O33 2.326 . S
In26 O34 2.266 . S
In26 O35 2.326 . S
In26 O37 2.294 . S
In26 O38 2.326 . S
O27 In26 2.294 . S
O27 C36 1.240 . S
O28 In26 2.326 . S
O28 C36 1.252 . S
C29 O32 1.252 . S
C29 O33 1.260 . S
C30 O37 1.240 . S
C30 O38 1.252 . S
C31 O34 1.252 . S
C31 O35 1.260 . S
O32 In26 2.266 . S
O32 C29 1.252 . S
O33 In26 2.326 . S
O33 C29 1.260 . S
O34 In26 2.266 . S
O34 C31 1.252 . S
O35 In26 2.326 . S
O35 C31 1.260 . S
C36 O27 1.240 . S
C36 O28 1.252 . S
O37 In26 2.294 . S
O37 C30 1.240 . S
O38 In26 2.326 . S
O38 C30 1.252 . S
In39 O40 2.294 . S
In39 O41 2.326 . S
In39 O45 2.266 . S
In39 O46 2.326 . S
In39 O47 2.266 . S
In39 O48 2.326 . S
In39 O50 2.294 . S
In39 O51 2.326 . S
O40 In39 2.294 . S
O40 C49 1.240 . S
O41 In39 2.326 . S
O41 C49 1.252 . S
C42 O45 1.252 . S
C42 O46 1.260 . S
C43 O50 1.240 . S
C43 O51 1.252 . S
C44 O47 1.252 . S
C44 O48 1.260 . S
O45 In39 2.266 . S
O45 C42 1.252 . S
O46 In39 2.326 . S
O46 C42 1.260 . S
O47 In39 2.266 . S
O47 C44 1.252 . S
O48 In39 2.326 . S
O48 C44 1.260 . S
C49 O40 1.240 . S
C49 O41 1.252 . S
O50 In39 2.294 . S
O50 C43 1.240 . S
O51 In39 2.326 . S
O51 C43 1.252 . S
In52 O53 2.294 . S
In52 O54 2.326 . S
In52 O58 2.266 . S
In52 O59 2.326 . S
In52 O60 2.266 . S
In52 O61 2.326 . S
In52 O63 2.294 . S
In52 O64 2.326 1_455 S
O53 In52 2.294 . S
O53 C62 1.240 . S
O54 In52 2.326 . S
O54 C62 1.252 . S
C55 O58 1.252 . S
C55 O59 1.260 . S
C56 O63 1.240 1_655 S
C56 O64 1.252 . S
C57 O60 1.252 . S
C57 O61 1.260 . S
O58 In52 2.266 . S
O58 C55 1.252 . S
O59 In52 2.326 . S
O59 C55 1.260 . S
O60 In52 2.266 . S
O60 C57 1.252 . S
O61 In52 2.326 . S
O61 C57 1.260 . S
C62 O53 1.240 . S
C62 O54 1.252 . S
O63 In52 2.294 . S
O63 C56 1.240 1_455 S
O64 In52 2.326 1_655 S
O64 C56 1.252 . S
In65 O66 2.294 . S
In65 O67 2.326 . S
In65 O71 2.266 . S
In65 O72 2.326 . S
In65 O73 2.266 . S
In65 O74 2.326 . S
In65 O76 2.294 . S
In65 O77 2.326 . S
O66 In65 2.294 . S
O66 C75 1.240 . S
O67 In65 2.326 . S
O67 C75 1.252 . S
C68 O71 1.252 . S
C68 O72 1.260 . S
C69 O76 1.240 . S
C69 O77 1.252 . S
C70 O73 1.252 . S
C70 O74 1.260 . S
O71 In65 2.266 . S
O71 C68 1.252 . S
O72 In65 2.326 . S
O72 C68 1.260 . S
O73 In65 2.266 . S
O73 C70 1.252 . S
O74 In65 2.326 . S
O74 C70 1.260 . S
C75 O66 1.240 . S
C75 O67 1.252 . S
O76 In65 2.294 . S
O76 C69 1.240 . S
O77 In65 2.326 . S
O77 C69 1.252 . S
In78 O79 2.294 . S
In78 O80 2.326 . S
In78 O84 2.266 . S
In78 O85 2.326 . S
In78 O86 2.266 . S
In78 O87 2.326 . S
In78 O89 2.294 . S
In78 O90 2.326 . S
O79 In78 2.294 . S
O79 C88 1.240 . S
O80 In78 2.326 . S
O80 C88 1.252 . S
C81 O84 1.252 . S
C81 O85 1.260 . S
C82 O89 1.240 . S
C82 O90 1.252 . S
C83 O86 1.252 . S
C83 O87 1.260 . S
O84 In78 2.266 . S
O84 C81 1.252 . S
O85 In78 2.326 . S
O85 C81 1.260 . S
O86 In78 2.266 . S
O86 C83 1.252 . S
O87 In78 2.326 . S
O87 C83 1.260 . S
C88 O79 1.240 . S
C88 O80 1.252 . S
O89 In78 2.294 . S
O89 C82 1.240 . S
O90 In78 2.326 . S
O90 C82 1.252 . S
In91 O92 2.294 . S
In91 O93 2.326 . S
In91 O97 2.266 . S
In91 O98 2.326 . S
In91 O99 2.266 . S
In91 O100 2.326 . S
In91 O102 2.294 . S
In91 O103 2.326 . S
O92 In91 2.294 . S
O92 C101 1.240 . S
O93 In91 2.326 . S
O93 C101 1.252 . S
C94 O97 1.252 . S
C94 O98 1.260 . S
C95 O102 1.240 . S
C95 O103 1.252 . S
C96 O99 1.252 . S
C96 O100 1.260 . S
O97 In91 2.266 . S
O97 C94 1.252 . S
O98 In91 2.326 . S
O98 C94 1.260 . S
O99 In91 2.266 . S
O99 C96 1.252 . S
O100 In91 2.326 . S
O100 C96 1.260 . S
C101 O92 1.240 . S
C101 O93 1.252 . S
O102 In91 2.294 . S
O102 C95 1.240 . S
O103 In91 2.326 . S
O103 C95 1.252 . S
In104 O105 2.294 . S
In104 O106 2.326 1_545 S
In104 O110 2.266 . S
In104 O111 2.326 . S
In104 O112 2.266 . S
In104 O113 2.326 . S
In104 O115 2.294 . S
In104 O116 2.326 . S
O105 In104 2.294 . S
O105 C114 1.240 1_545 S
O106 In104 2.326 1_565 S
O106 C114 1.252 . S
C107 O110 1.252 . S
C107 O111 1.260 . S
C108 O115 1.240 . S
C108 O116 1.252 . S
C109 O112 1.252 . S
C109 O113 1.260 . S
O110 In104 2.266 . S
O110 C107 1.252 . S
O111 In104 2.326 . S
O111 C107 1.260 . S
O112 In104 2.266 . S
O112 C109 1.252 . S
O113 In104 2.326 . S
O113 C109 1.260 . S
C114 O105 1.240 1_565 S
C114 O106 1.252 . S
O115 In104 2.294 . S
O115 C108 1.240 . S
O116 In104 2.326 . S
O116 C108 1.252 . S
In117 O118 2.294 . S
In117 O119 2.326 . S
In117 O123 2.266 . S
In117 O124 2.326 . S
In117 O125 2.266 . S
In117 O126 2.326 . S
In117 O128 2.294 . S
In117 O129 2.326 . S
O118 In117 2.294 . S
O118 C127 1.240 . S
O119 In117 2.326 . S
O119 C127 1.252 . S
C120 O123 1.252 . S
C120 O124 1.260 . S
C121 O128 1.240 . S
C121 O129 1.252 . S
C122 O125 1.252 . S
C122 O126 1.260 . S
O123 In117 2.266 . S
O123 C120 1.252 . S
O124 In117 2.326 . S
O124 C120 1.260 . S
O125 In117 2.266 . S
O125 C122 1.252 . S
O126 In117 2.326 . S
O126 C122 1.260 . S
C127 O118 1.240 . S
C127 O119 1.252 . S
O128 In117 2.294 . S
O128 C121 1.240 . S
O129 In117 2.326 . S
O129 C121 1.252 . S
In130 O131 2.294 . S
In130 O132 2.326 1_565 S
In130 O136 2.266 . S
In130 O137 2.326 . S
In130 O138 2.266 . S
In130 O139 2.326 . S
In130 O141 2.294 . S
In130 O142 2.326 . S
O131 In130 2.294 . S
O131 C140 1.240 1_565 S
O132 In130 2.326 1_545 S
O132 C140 1.252 . S
C133 O136 1.252 . S
C133 O137 1.260 . S
C134 O141 1.240 . S
C134 O142 1.252 . S
C135 O138 1.252 . S
C135 O139 1.260 . S
O136 In130 2.266 . S
O136 C133 1.252 . S
O137 In130 2.326 . S
O137 C133 1.260 . S
O138 In130 2.266 . S
O138 C135 1.252 . S
O139 In130 2.326 . S
O139 C135 1.260 . S
C140 O131 1.240 1_545 S
C140 O132 1.252 . S
O141 In130 2.294 . S
O141 C134 1.240 . S
O142 In130 2.326 . S
O142 C134 1.252 . S
In143 O144 2.294 . S
In143 O145 2.326 . S
In143 O149 2.266 . S
In143 O150 2.326 . S
In143 O151 2.266 . S
In143 O152 2.326 . S
In143 O154 2.294 . S
In143 O155 2.326 . S
O144 In143 2.294 . S
O144 C153 1.240 . S
O145 In143 2.326 . S
O145 C153 1.252 . S
C146 O149 1.252 . S
C146 O150 1.260 . S
C147 O154 1.240 . S
C147 O155 1.252 . S
C148 O151 1.252 . S
C148 O152 1.260 . S
O149 In143 2.266 . S
O149 C146 1.252 . S
O150 In143 2.326 . S
O150 C146 1.260 . S
O151 In143 2.266 . S
O151 C148 1.252 . S
O152 In143 2.326 . S
O152 C148 1.260 . S
C153 O144 1.240 . S
C153 O145 1.252 . S
O154 In143 2.294 . S
O154 C147 1.240 . S
O155 In143 2.326 . S
O155 C147 1.252 . S
In156 O157 2.294 . S
In156 O158 2.326 1_565 S
In156 O162 2.266 . S
In156 O163 2.326 . S
In156 O164 2.266 . S
In156 O165 2.326 . S
In156 O167 2.294 . S
In156 O168 2.326 . S
O157 In156 2.294 . S
O157 C166 1.240 1_565 S
O158 In156 2.326 1_545 S
O158 C166 1.252 . S
C159 O162 1.252 . S
C159 O163 1.260 . S
C160 O167 1.240 . S
C160 O168 1.252 . S
C161 O164 1.252 . S
C161 O165 1.260 . S
O162 In156 2.266 . S
O162 C159 1.252 . S
O163 In156 2.326 . S
O163 C159 1.260 . S
O164 In156 2.266 . S
O164 C161 1.252 . S
O165 In156 2.326 . S
O165 C161 1.260 . S
C166 O157 1.240 1_545 S
C166 O158 1.252 . S
O167 In156 2.294 . S
O167 C160 1.240 . S
O168 In156 2.326 . S
O168 C160 1.252 . S
In169 O170 2.294 . S
In169 O171 2.326 . S
In169 O175 2.266 . S
In169 O176 2.326 . S
In169 O177 2.266 . S
In169 O178 2.326 . S
In169 O180 2.294 . S
In169 O181 2.326 . S
O170 In169 2.294 . S
O170 C179 1.240 . S
O171 In169 2.326 . S
O171 C179 1.252 . S
C172 O175 1.252 . S
C172 O176 1.260 . S
C173 O180 1.240 . S
C173 O181 1.252 . S
C174 O177 1.252 . S
C174 O178 1.260 . S
O175 In169 2.266 . S
O175 C172 1.252 . S
O176 In169 2.326 . S
O176 C172 1.260 . S
O177 In169 2.266 . S
O177 C174 1.252 . S
O178 In169 2.326 . S
O178 C174 1.260 . S
C179 O170 1.240 . S
C179 O171 1.252 . S
O180 In169 2.294 . S
O180 C173 1.240 . S
O181 In169 2.326 . S
O181 C173 1.252 . S
In182 O183 2.294 . S
In182 O184 2.326 1_545 S
In182 O188 2.266 . S
In182 O189 2.326 . S
In182 O190 2.266 . S
In182 O191 2.326 . S
In182 O193 2.294 . S
In182 O194 2.326 . S
O183 In182 2.294 . S
O183 C192 1.240 1_545 S
O184 In182 2.326 1_565 S
O184 C192 1.252 . S
C185 O188 1.252 . S
C185 O189 1.260 . S
C186 O193 1.240 . S
C186 O194 1.252 . S
C187 O190 1.252 . S
C187 O191 1.260 . S
O188 In182 2.266 . S
O188 C185 1.252 . S
O189 In182 2.326 . S
O189 C185 1.260 . S
O190 In182 2.266 . S
O190 C187 1.252 . S
O191 In182 2.326 . S
O191 C187 1.260 . S
C192 O183 1.240 1_565 S
C192 O184 1.252 . S
O193 In182 2.294 . S
O193 C186 1.240 . S
O194 In182 2.326 . S
O194 C186 1.252 . S
In195 O196 2.294 . S
In195 O197 2.326 . S
In195 O201 2.266 . S
In195 O202 2.326 . S
In195 O203 2.266 . S
In195 O204 2.326 . S
In195 O206 2.294 . S
In195 O207 2.326 . S
O196 In195 2.294 . S
O196 C205 1.240 . S
O197 In195 2.326 . S
O197 C205 1.252 . S
C198 O201 1.252 . S
C198 O202 1.260 . S
C199 O206 1.240 . S
C199 O207 1.252 . S
C200 O203 1.252 . S
C200 O204 1.260 . S
O201 In195 2.266 . S
O201 C198 1.252 . S
O202 In195 2.326 . S
O202 C198 1.260 . S
O203 In195 2.266 . S
O203 C200 1.252 . S
O204 In195 2.326 . S
O204 C200 1.260 . S
C205 O196 1.240 . S
C205 O197 1.252 . S
O206 In195 2.294 . S
O206 C199 1.240 . S
O207 In195 2.326 . S
O207 C199 1.252 . S
In208 O209 2.294 . S
In208 O210 2.326 1_554 S
In208 O214 2.266 . S
In208 O215 2.326 . S
In208 O216 2.266 . S
In208 O217 2.326 . S
In208 O219 2.294 . S
In208 O220 2.326 . S
O209 In208 2.294 . S
O209 C218 1.240 1_554 S
O210 In208 2.326 1_556 S
O210 C218 1.252 . S
C211 O214 1.252 . S
C211 O215 1.260 . S
C212 O219 1.240 . S
C212 O220 1.252 . S
C213 O216 1.252 . S
C213 O217 1.260 . S
O214 In208 2.266 . S
O214 C211 1.252 . S
O215 In208 2.326 . S
O215 C211 1.260 . S
O216 In208 2.266 . S
O216 C213 1.252 . S
O217 In208 2.326 . S
O217 C213 1.260 . S
C218 O209 1.240 1_556 S
C218 O210 1.252 . S
O219 In208 2.294 . S
O219 C212 1.240 . S
O220 In208 2.326 . S
O220 C212 1.252 . S
In221 O222 2.294 . S
In221 O223 2.326 1_556 S
In221 O227 2.266 . S
In221 O228 2.326 . S
In221 O229 2.266 . S
In221 O230 2.326 . S
In221 O232 2.294 . S
In221 O233 2.326 . S
O222 In221 2.294 . S
O222 C231 1.240 1_556 S
O223 In221 2.326 1_554 S
O223 C231 1.252 . S
C224 O227 1.252 . S
C224 O228 1.260 . S
C225 O232 1.240 . S
C225 O233 1.252 . S
C226 O229 1.252 . S
C226 O230 1.260 . S
O227 In221 2.266 . S
O227 C224 1.252 . S
O228 In221 2.326 . S
O228 C224 1.260 . S
O229 In221 2.266 . S
O229 C226 1.252 . S
O230 In221 2.326 . S
O230 C226 1.260 . S
C231 O222 1.240 1_554 S
C231 O223 1.252 . S
O232 In221 2.294 . S
O232 C225 1.240 . S
O233 In221 2.326 . S
O233 C225 1.252 . S
In234 O235 2.294 . S
In234 O236 2.326 . S
In234 O240 2.266 . S
In234 O241 2.326 . S
In234 O242 2.266 . S
In234 O243 2.326 . S
In234 O245 2.294 . S
In234 O246 2.326 . S
O235 In234 2.294 . S
O235 C244 1.240 . S
O236 In234 2.326 . S
O236 C244 1.252 . S
C237 O240 1.252 . S
C237 O241 1.260 . S
C238 O245 1.240 . S
C238 O246 1.252 . S
C239 O242 1.252 . S
C239 O243 1.260 . S
O240 In234 2.266 . S
O240 C237 1.252 . S
O241 In234 2.326 . S
O241 C237 1.260 . S
O242 In234 2.266 . S
O242 C239 1.252 . S
O243 In234 2.326 . S
O243 C239 1.260 . S
C244 O235 1.240 . S
C244 O236 1.252 . S
O245 In234 2.294 . S
O245 C238 1.240 . S
O246 In234 2.326 . S
O246 C238 1.252 . S
In247 O248 2.294 . S
In247 O249 2.326 . S
In247 O253 2.266 . S
In247 O254 2.326 . S
In247 O255 2.266 . S
In247 O256 2.326 . S
In247 O258 2.294 . S
In247 O259 2.326 . S
O248 In247 2.294 . S
O248 C257 1.240 . S
O249 In247 2.326 . S
O249 C257 1.252 . S
C250 O253 1.252 . S
C250 O254 1.260 . S
C251 O258 1.240 . S
C251 O259 1.252 . S
C252 O255 1.252 . S
C252 O256 1.260 . S
O253 In247 2.266 . S
O253 C250 1.252 . S
O254 In247 2.326 . S
O254 C250 1.260 . S
O255 In247 2.266 . S
O255 C252 1.252 . S
O256 In247 2.326 . S
O256 C252 1.260 . S
C257 O248 1.240 . S
C257 O249 1.252 . S
O258 In247 2.294 . S
O258 C251 1.240 . S
O259 In247 2.326 . S
O259 C251 1.252 . S
In260 O261 2.294 . S
In260 O262 2.326 . S
In260 O266 2.266 . S
In260 O267 2.326 . S
In260 O268 2.266 . S
In260 O269 2.326 . S
In260 O271 2.294 . S
In260 O272 2.326 . S
O261 In260 2.294 . S
O261 C270 1.240 . S
O262 In260 2.326 . S
O262 C270 1.252 . S
C263 O266 1.252 . S
C263 O267 1.260 . S
C264 O271 1.240 . S
C264 O272 1.252 . S
C265 O268 1.252 . S
C265 O269 1.260 . S
O266 In260 2.266 . S
O266 C263 1.252 . S
O267 In260 2.326 . S
O267 C263 1.260 . S
O268 In260 2.266 . S
O268 C265 1.252 . S
O269 In260 2.326 . S
O269 C265 1.260 . S
C270 O261 1.240 . S
C270 O262 1.252 . S
O271 In260 2.294 . S
O271 C264 1.240 . S
O272 In260 2.326 . S
O272 C264 1.252 . S
In273 O274 2.294 . S
In273 O275 2.326 . S
In273 O279 2.266 . S
In273 O280 2.326 . S
In273 O281 2.266 . S
In273 O282 2.326 . S
In273 O284 2.294 . S
In273 O285 2.326 . S
O274 In273 2.294 . S
O274 C283 1.240 . S
O275 In273 2.326 . S
O275 C283 1.252 . S
C276 O279 1.252 . S
C276 O280 1.260 . S
C277 O284 1.240 . S
C277 O285 1.252 . S
C278 O281 1.252 . S
C278 O282 1.260 . S
O279 In273 2.266 . S
O279 C276 1.252 . S
O280 In273 2.326 . S
O280 C276 1.260 . S
O281 In273 2.266 . S
O281 C278 1.252 . S
O282 In273 2.326 . S
O282 C278 1.260 . S
C283 O274 1.240 . S
C283 O275 1.252 . S
O284 In273 2.294 . S
O284 C277 1.240 . S
O285 In273 2.326 . S
O285 C277 1.252 . S
In286 O287 2.294 . S
In286 O288 2.326 . S
In286 O292 2.266 . S
In286 O293 2.326 . S
In286 O294 2.266 . S
In286 O295 2.326 . S
In286 O297 2.294 . S
In286 O298 2.326 . S
O287 In286 2.294 . S
O287 C296 1.240 . S
O288 In286 2.326 . S
O288 C296 1.252 . S
C289 O292 1.252 . S
C289 O293 1.260 . S
C290 O297 1.240 . S
C290 O298 1.252 . S
C291 O294 1.252 . S
C291 O295 1.260 . S
O292 In286 2.266 . S
O292 C289 1.252 . S
O293 In286 2.326 . S
O293 C289 1.260 . S
O294 In286 2.266 . S
O294 C291 1.252 . S
O295 In286 2.326 . S
O295 C291 1.260 . S
C296 O287 1.240 . S
C296 O288 1.252 . S
O297 In286 2.294 . S
O297 C290 1.240 . S
O298 In286 2.326 . S
O298 C290 1.252 . S
In299 O300 2.294 . S
In299 O301 2.326 . S
In299 O305 2.266 . S
In299 O306 2.326 . S
In299 O307 2.266 . S
In299 O308 2.326 . S
In299 O310 2.294 . S
In299 O311 2.326 . S
O300 In299 2.294 . S
O300 C309 1.240 . S
O301 In299 2.326 . S
O301 C309 1.252 . S
C302 O305 1.252 . S
C302 O306 1.260 . S
C303 O310 1.240 . S
C303 O311 1.252 . S
C304 O307 1.252 . S
C304 O308 1.260 . S
O305 In299 2.266 . S
O305 C302 1.252 . S
O306 In299 2.326 . S
O306 C302 1.260 . S
O307 In299 2.266 . S
O307 C304 1.252 . S
O308 In299 2.326 . S
O308 C304 1.260 . S
C309 O300 1.240 . S
C309 O301 1.252 . S
O310 In299 2.294 . S
O310 C303 1.240 . S
O311 In299 2.326 . S
O311 C303 1.252 . S
In312 O313 2.294 . S
In312 O314 2.326 1_655 S
In312 O318 2.266 . S
In312 O319 2.326 . S
In312 O320 2.266 . S
In312 O321 2.326 . S
In312 O323 2.294 . S
In312 O324 2.326 . S
O313 In312 2.294 . S
O313 C322 1.240 1_655 S
O314 In312 2.326 1_455 S
O314 C322 1.252 . S
C315 O318 1.252 . S
C315 O319 1.260 . S
C316 O323 1.240 . S
C316 O324 1.252 . S
C317 O320 1.252 . S
C317 O321 1.260 . S
O318 In312 2.266 . S
O318 C315 1.252 . S
O319 In312 2.326 . S
O319 C315 1.260 . S
O320 In312 2.266 . S
O320 C317 1.252 . S
O321 In312 2.326 . S
O321 C317 1.260 . S
C322 O313 1.240 1_455 S
C322 O314 1.252 . S
O323 In312 2.294 . S
O323 C316 1.240 . S
O324 In312 2.326 . S
O324 C316 1.252 . S
In325 O326 2.294 . S
In325 O327 2.326 . S
In325 O331 2.266 . S
In325 O332 2.326 . S
In325 O333 2.266 . S
In325 O334 2.326 . S
In325 O336 2.294 . S
In325 O337 2.326 . S
O326 In325 2.294 . S
O326 C335 1.240 . S
O327 In325 2.326 . S
O327 C335 1.252 . S
C328 O331 1.252 . S
C328 O332 1.260 . S
C329 O336 1.240 . S
C329 O337 1.252 . S
C330 O333 1.252 . S
C330 O334 1.260 . S
O331 In325 2.266 . S
O331 C328 1.252 . S
O332 In325 2.326 . S
O332 C328 1.260 . S
O333 In325 2.266 . S
O333 C330 1.252 . S
O334 In325 2.326 . S
O334 C330 1.260 . S
C335 O326 1.240 . S
C335 O327 1.252 . S
O336 In325 2.294 . S
O336 C329 1.240 . S
O337 In325 2.326 . S
O337 C329 1.252 . S
In338 O339 2.294 . S
In338 O340 2.326 . S
In338 O344 2.266 . S
In338 O345 2.326 . S
In338 O346 2.266 . S
In338 O347 2.326 . S
In338 O349 2.294 . S
In338 O350 2.326 . S
O339 In338 2.294 . S
O339 C348 1.240 . S
O340 In338 2.326 . S
O340 C348 1.252 . S
C341 O344 1.252 . S
C341 O345 1.260 . S
C342 O349 1.240 . S
C342 O350 1.252 . S
C343 O346 1.252 . S
C343 O347 1.260 . S
O344 In338 2.266 . S
O344 C341 1.252 . S
O345 In338 2.326 . S
O345 C341 1.260 . S
O346 In338 2.266 . S
O346 C343 1.252 . S
O347 In338 2.326 . S
O347 C343 1.260 . S
C348 O339 1.240 . S
C348 O340 1.252 . S
O349 In338 2.294 . S
O349 C342 1.240 . S
O350 In338 2.326 . S
O350 C342 1.252 . S
In351 O352 2.294 . S
In351 O353 2.326 . S
In351 O357 2.266 . S
In351 O358 2.326 . S
In351 O359 2.266 . S
In351 O360 2.326 . S
In351 O362 2.294 . S
In351 O363 2.326 . S
O352 In351 2.294 . S
O352 C361 1.240 . S
O353 In351 2.326 . S
O353 C361 1.252 . S
C354 O357 1.252 . S
C354 O358 1.260 . S
C355 O362 1.240 . S
C355 O363 1.252 . S
C356 O359 1.252 . S
C356 O360 1.260 . S
O357 In351 2.266 . S
O357 C354 1.252 . S
O358 In351 2.326 . S
O358 C354 1.260 . S
O359 In351 2.266 . S
O359 C356 1.252 . S
O360 In351 2.326 . S
O360 C356 1.260 . S
C361 O352 1.240 . S
C361 O353 1.252 . S
O362 In351 2.294 . S
O362 C355 1.240 . S
O363 In351 2.326 . S
O363 C355 1.252 . S
In364 O365 2.294 . S
In364 O366 2.326 1_655 S
In364 O370 2.266 . S
In364 O371 2.326 . S
In364 O372 2.266 . S
In364 O373 2.326 . S
In364 O375 2.294 . S
In364 O376 2.326 . S
O365 In364 2.294 . S
O365 C374 1.240 1_655 S
O366 In364 2.326 1_455 S
O366 C374 1.252 . S
C367 O370 1.252 . S
C367 O371 1.260 . S
C368 O375 1.240 . S
C368 O376 1.252 . S
C369 O372 1.252 . S
C369 O373 1.260 . S
O370 In364 2.266 . S
O370 C367 1.252 . S
O371 In364 2.326 . S
O371 C367 1.260 . S
O372 In364 2.266 . S
O372 C369 1.252 . S
O373 In364 2.326 . S
O373 C369 1.260 . S
C374 O365 1.240 1_455 S
C374 O366 1.252 . S
O375 In364 2.294 . S
O375 C368 1.240 . S
O376 In364 2.326 . S
O376 C368 1.252 . S
In377 O378 2.294 . S
In377 O379 2.326 . S
In377 O383 2.266 . S
In377 O384 2.326 . S
In377 O385 2.266 . S
In377 O386 2.326 . S
In377 O388 2.294 . S
In377 O389 2.326 . S
O378 In377 2.294 . S
O378 C387 1.240 . S
O379 In377 2.326 . S
O379 C387 1.252 . S
C380 O383 1.252 . S
C380 O384 1.260 . S
C381 O388 1.240 . S
C381 O389 1.252 . S
C382 O385 1.252 . S
C382 O386 1.260 . S
O383 In377 2.266 . S
O383 C380 1.252 . S
O384 In377 2.326 . S
O384 C380 1.260 . S
O385 In377 2.266 . S
O385 C382 1.252 . S
O386 In377 2.326 . S
O386 C382 1.260 . S
C387 O378 1.240 . S
C387 O379 1.252 . S
O388 In377 2.294 . S
O388 C381 1.240 . S
O389 In377 2.326 . S
O389 C381 1.252 . S
In390 O391 2.294 . S
In390 O392 2.326 . S
In390 O396 2.266 . S
In390 O397 2.326 . S
In390 O398 2.266 . S
In390 O399 2.326 . S
In390 O401 2.294 . S
In390 O402 2.326 . S
O391 In390 2.294 . S
O391 C400 1.240 . S
O392 In390 2.326 . S
O392 C400 1.252 . S
C393 O396 1.252 . S
C393 O397 1.260 . S
C394 O401 1.240 . S
C394 O402 1.252 . S
C395 O398 1.252 . S
C395 O399 1.260 . S
O396 In390 2.266 . S
O396 C393 1.252 . S
O397 In390 2.326 . S
O397 C393 1.260 . S
O398 In390 2.266 . S
O398 C395 1.252 . S
O399 In390 2.326 . S
O399 C395 1.260 . S
C400 O391 1.240 . S
C400 O392 1.252 . S
O401 In390 2.294 . S
O401 C394 1.240 . S
O402 In390 2.326 . S
O402 C394 1.252 . S
In403 O404 2.294 . S
In403 O405 2.326 . S
In403 O409 2.266 . S
In403 O410 2.326 . S
In403 O411 2.266 . S
In403 O412 2.326 . S
In403 O414 2.294 . S
In403 O415 2.326 . S
O404 In403 2.294 . S
O404 C413 1.240 . S
O405 In403 2.326 . S
O405 C413 1.252 . S
C406 O409 1.252 . S
C406 O410 1.260 . S
C407 O414 1.240 . S
C407 O415 1.252 . S
C408 O411 1.252 . S
C408 O412 1.260 . S
O409 In403 2.266 . S
O409 C406 1.252 . S
O410 In403 2.326 . S
O410 C406 1.260 . S
O411 In403 2.266 . S
O411 C408 1.252 . S
O412 In403 2.326 . S
O412 C408 1.260 . S
C413 O404 1.240 . S
C413 O405 1.252 . S
O414 In403 2.294 . S
O414 C407 1.240 . S
O415 In403 2.326 . S
O415 C407 1.252 . S
In416 O417 2.294 . S
In416 O418 2.326 1_565 S
In416 O422 2.266 . S
In416 O423 2.326 . S
In416 O424 2.266 . S
In416 O425 2.326 . S
In416 O427 2.294 . S
In416 O428 2.326 . S
O417 In416 2.294 . S
O417 C426 1.240 1_565 S
O418 In416 2.326 1_545 S
O418 C426 1.252 . S
C419 O422 1.252 . S
C419 O423 1.260 . S
C420 O427 1.240 . S
C420 O428 1.252 . S
C421 O424 1.252 . S
C421 O425 1.260 . S
O422 In416 2.266 . S
O422 C419 1.252 . S
O423 In416 2.326 . S
O423 C419 1.260 . S
O424 In416 2.266 . S
O424 C421 1.252 . S
O425 In416 2.326 . S
O425 C421 1.260 . S
C426 O417 1.240 1_545 S
C426 O418 1.252 . S
O427 In416 2.294 . S
O427 C420 1.240 . S
O428 In416 2.326 . S
O428 C420 1.252 . S
In429 O430 2.294 . S
In429 O431 2.326 . S
In429 O435 2.266 . S
In429 O436 2.326 . S
In429 O437 2.266 . S
In429 O438 2.326 . S
In429 O440 2.294 . S
In429 O441 2.326 . S
O430 In429 2.294 . S
O430 C439 1.240 . S
O431 In429 2.326 . S
O431 C439 1.252 . S
C432 O435 1.252 . S
C432 O436 1.260 . S
C433 O440 1.240 . S
C433 O441 1.252 . S
C434 O437 1.252 . S
C434 O438 1.260 . S
O435 In429 2.266 . S
O435 C432 1.252 . S
O436 In429 2.326 . S
O436 C432 1.260 . S
O437 In429 2.266 . S
O437 C434 1.252 . S
O438 In429 2.326 . S
O438 C434 1.260 . S
C439 O430 1.240 . S
C439 O431 1.252 . S
O440 In429 2.294 . S
O440 C433 1.240 . S
O441 In429 2.326 . S
O441 C433 1.252 . S
In442 O443 2.294 . S
In442 O444 2.326 . S
In442 O448 2.266 . S
In442 O449 2.326 . S
In442 O450 2.266 . S
In442 O451 2.326 . S
In442 O453 2.294 . S
In442 O454 2.326 1_545 S
O443 In442 2.294 . S
O443 C452 1.240 . S
O444 In442 2.326 . S
O444 C452 1.252 . S
C445 O448 1.252 . S
C445 O449 1.260 . S
C446 O453 1.240 1_565 S
C446 O454 1.252 . S
C447 O450 1.252 . S
C447 O451 1.260 . S
O448 In442 2.266 . S
O448 C445 1.252 . S
O449 In442 2.326 . S
O449 C445 1.260 . S
O450 In442 2.266 . S
O450 C447 1.252 . S
O451 In442 2.326 . S
O451 C447 1.260 . S
C452 O443 1.240 . S
C452 O444 1.252 . S
O453 In442 2.294 . S
O453 C446 1.240 1_545 S
O454 In442 2.326 1_565 S
O454 C446 1.252 . S
In455 O456 2.294 . S
In455 O457 2.326 . S
In455 O461 2.266 . S
In455 O462 2.326 . S
In455 O463 2.266 . S
In455 O464 2.326 . S
In455 O466 2.294 . S
In455 O467 2.326 . S
O456 In455 2.294 . S
O456 C465 1.240 . S
O457 In455 2.326 . S
O457 C465 1.252 . S
C458 O461 1.252 . S
C458 O462 1.260 . S
C459 O466 1.240 . S
C459 O467 1.252 . S
C460 O463 1.252 . S
C460 O464 1.260 . S
O461 In455 2.266 . S
O461 C458 1.252 . S
O462 In455 2.326 . S
O462 C458 1.260 . S
O463 In455 2.266 . S
O463 C460 1.252 . S
O464 In455 2.326 . S
O464 C460 1.260 . S
C465 O456 1.240 . S
C465 O457 1.252 . S
O466 In455 2.294 . S
O466 C459 1.240 . S
O467 In455 2.326 . S
O467 C459 1.252 . S
In468 O469 2.294 . S
In468 O470 2.326 1_545 S
In468 O474 2.266 . S
In468 O475 2.326 . S
In468 O476 2.266 . S
In468 O477 2.326 . S
In468 O479 2.294 . S
In468 O480 2.326 . S
O469 In468 2.294 . S
O469 C478 1.240 1_545 S
O470 In468 2.326 1_565 S
O470 C478 1.252 . S
C471 O474 1.252 . S
C471 O475 1.260 . S
C472 O479 1.240 . S
C472 O480 1.252 . S
C473 O476 1.252 . S
C473 O477 1.260 . S
O474 In468 2.266 . S
O474 C471 1.252 . S
O475 In468 2.326 . S
O475 C471 1.260 . S
O476 In468 2.266 . S
O476 C473 1.252 . S
O477 In468 2.326 . S
O477 C473 1.260 . S
C478 O469 1.240 1_565 S
C478 O470 1.252 . S
O479 In468 2.294 . S
O479 C472 1.240 . S
O480 In468 2.326 . S
O480 C472 1.252 . S
In481 O482 2.294 . S
In481 O483 2.326 . S
In481 O487 2.266 . S
In481 O488 2.326 . S
In481 O489 2.266 . S
In481 O490 2.326 . S
In481 O492 2.294 . S
In481 O493 2.326 . S
O482 In481 2.294 . S
O482 C491 1.240 . S
O483 In481 2.326 . S
O483 C491 1.252 . S
C484 O487 1.252 . S
C484 O488 1.260 . S
C485 O492 1.240 . S
C485 O493 1.252 . S
C486 O489 1.252 . S
C486 O490 1.260 . S
O487 In481 2.266 . S
O487 C484 1.252 . S
O488 In481 2.326 . S
O488 C484 1.260 . S
O489 In481 2.266 . S
O489 C486 1.252 . S
O490 In481 2.326 . S
O490 C486 1.260 . S
C491 O482 1.240 . S
C491 O483 1.252 . S
O492 In481 2.294 . S
O492 C485 1.240 . S
O493 In481 2.326 . S
O493 C485 1.252 . S
In494 O495 2.294 . S
In494 O496 2.326 1_565 S
In494 O500 2.266 . S
In494 O501 2.326 . S
In494 O502 2.266 . S
In494 O503 2.326 . S
In494 O505 2.294 . S
In494 O506 2.326 . S
O495 In494 2.294 . S
O495 C504 1.240 1_565 S
O496 In494 2.326 1_545 S
O496 C504 1.252 . S
C497 O500 1.252 . S
C497 O501 1.260 . S
C498 O505 1.240 . S
C498 O506 1.252 . S
C499 O502 1.252 . S
C499 O503 1.260 . S
O500 In494 2.266 . S
O500 C497 1.252 . S
O501 In494 2.326 . S
O501 C497 1.260 . S
O502 In494 2.266 . S
O502 C499 1.252 . S
O503 In494 2.326 . S
O503 C499 1.260 . S
C504 O495 1.240 1_545 S
C504 O496 1.252 . S
O505 In494 2.294 . S
O505 C498 1.240 . S
O506 In494 2.326 . S
O506 C498 1.252 . S
In507 O508 2.294 . S
In507 O509 2.326 . S
In507 O513 2.266 . S
In507 O514 2.326 . S
In507 O515 2.266 . S
In507 O516 2.326 . S
In507 O518 2.294 . S
In507 O519 2.326 . S
O508 In507 2.294 . S
O508 C517 1.240 . S
O509 In507 2.326 . S
O509 C517 1.252 . S
C510 O513 1.252 . S
C510 O514 1.260 . S
C511 O518 1.240 . S
C511 O519 1.252 . S
C512 O515 1.252 . S
C512 O516 1.260 . S
O513 In507 2.266 . S
O513 C510 1.252 . S
O514 In507 2.326 . S
O514 C510 1.260 . S
O515 In507 2.266 . S
O515 C512 1.252 . S
O516 In507 2.326 . S
O516 C512 1.260 . S
C517 O508 1.240 . S
C517 O509 1.252 . S
O518 In507 2.294 . S
O518 C511 1.240 . S
O519 In507 2.326 . S
O519 C511 1.252 . S
In520 O521 2.294 . S
In520 O522 2.326 . S
In520 O526 2.266 . S
In520 O527 2.326 . S
In520 O528 2.266 . S
In520 O529 2.326 . S
In520 O531 2.294 . S
In520 O532 2.326 1_556 S
O521 In520 2.294 . S
O521 C530 1.240 . S
O522 In520 2.326 . S
O522 C530 1.252 . S
C523 O526 1.252 . S
C523 O527 1.260 . S
C524 O531 1.240 1_554 S
C524 O532 1.252 . S
C525 O528 1.252 . S
C525 O529 1.260 . S
O526 In520 2.266 . S
O526 C523 1.252 . S
O527 In520 2.326 . S
O527 C523 1.260 . S
O528 In520 2.266 . S
O528 C525 1.252 . S
O529 In520 2.326 . S
O529 C525 1.260 . S
C530 O521 1.240 . S
C530 O522 1.252 . S
O531 In520 2.294 . S
O531 C524 1.240 1_556 S
O532 In520 2.326 1_554 S
O532 C524 1.252 . S
In533 O534 2.294 . S
In533 O535 2.326 1_554 S
In533 O539 2.266 . S
In533 O540 2.326 . S
In533 O541 2.266 . S
In533 O542 2.326 . S
In533 O544 2.294 . S
In533 O545 2.326 . S
O534 In533 2.294 . S
O534 C543 1.240 1_554 S
O535 In533 2.326 1_556 S
O535 C543 1.252 . S
C536 O539 1.252 . S
C536 O540 1.260 . S
C537 O544 1.240 . S
C537 O545 1.252 . S
C538 O541 1.252 . S
C538 O542 1.260 . S
O539 In533 2.266 . S
O539 C536 1.252 . S
O540 In533 2.326 . S
O540 C536 1.260 . S
O541 In533 2.266 . S
O541 C538 1.252 . S
O542 In533 2.326 . S
O542 C538 1.260 . S
C543 O534 1.240 1_556 S
C543 O535 1.252 . S
O544 In533 2.294 . S
O544 C537 1.240 . S
O545 In533 2.326 . S
O545 C537 1.252 . S
In546 O547 2.294 . S
In546 O548 2.326 . S
In546 O552 2.266 . S
In546 O553 2.326 . S
In546 O554 2.266 . S
In546 O555 2.326 . S
In546 O557 2.294 . S
In546 O558 2.326 . S
O547 In546 2.294 . S
O547 C556 1.240 . S
O548 In546 2.326 . S
O548 C556 1.252 . S
C549 O552 1.252 . S
C549 O553 1.260 . S
C550 O557 1.240 . S
C550 O558 1.252 . S
C551 O554 1.252 . S
C551 O555 1.260 . S
O552 In546 2.266 . S
O552 C549 1.252 . S
O553 In546 2.326 . S
O553 C549 1.260 . S
O554 In546 2.266 . S
O554 C551 1.252 . S
O555 In546 2.326 . S
O555 C551 1.260 . S
C556 O547 1.240 . S
C556 O548 1.252 . S
O557 In546 2.294 . S
O557 C550 1.240 . S
O558 In546 2.326 . S
O558 C550 1.252 . S
In559 O560 2.294 . S
In559 O561 2.326 . S
In559 O565 2.266 . S
In559 O566 2.326 . S
In559 O567 2.266 . S
In559 O568 2.326 . S
In559 O570 2.294 . S
In559 O571 2.326 . S
O560 In559 2.294 . S
O560 C569 1.240 . S
O561 In559 2.326 . S
O561 C569 1.252 . S
C562 O565 1.252 . S
C562 O566 1.260 . S
C563 O570 1.240 . S
C563 O571 1.252 . S
C564 O567 1.252 . S
C564 O568 1.260 . S
O565 In559 2.266 . S
O565 C562 1.252 . S
O566 In559 2.326 . S
O566 C562 1.260 . S
O567 In559 2.266 . S
O567 C564 1.252 . S
O568 In559 2.326 . S
O568 C564 1.260 . S
C569 O560 1.240 . S
C569 O561 1.252 . S
O570 In559 2.294 . S
O570 C563 1.240 . S
O571 In559 2.326 . S
O571 C563 1.252 . S
In572 O573 2.294 . S
In572 O574 2.326 . S
In572 O578 2.266 . S
In572 O579 2.326 . S
In572 O580 2.266 . S
In572 O581 2.326 . S
In572 O583 2.294 . S
In572 O584 2.326 . S
O573 In572 2.294 . S
O573 C582 1.240 . S
O574 In572 2.326 . S
O574 C582 1.252 . S
C575 O578 1.252 . S
C575 O579 1.260 . S
C576 O583 1.240 . S
C576 O584 1.252 . S
C577 O580 1.252 . S
C577 O581 1.260 . S
O578 In572 2.266 . S
O578 C575 1.252 . S
O579 In572 2.326 . S
O579 C575 1.260 . S
O580 In572 2.266 . S
O580 C577 1.252 . S
O581 In572 2.326 . S
O581 C577 1.260 . S
C582 O573 1.240 . S
C582 O574 1.252 . S
O583 In572 2.294 . S
O583 C576 1.240 . S
O584 In572 2.326 . S
O584 C576 1.252 . S
In585 O586 2.294 . S
In585 O587 2.326 . S
In585 O591 2.266 . S
In585 O592 2.326 . S
In585 O593 2.266 . S
In585 O594 2.326 . S
In585 O596 2.294 . S
In585 O597 2.326 . S
O586 In585 2.294 . S
O586 C595 1.240 . S
O587 In585 2.326 . S
O587 C595 1.252 . S
C588 O591 1.252 . S
C588 O592 1.260 . S
C589 O596 1.240 . S
C589 O597 1.252 . S
C590 O593 1.252 . S
C590 O594 1.260 . S
O591 In585 2.266 . S
O591 C588 1.252 . S
O592 In585 2.326 . S
O592 C588 1.260 . S
O593 In585 2.266 . S
O593 C590 1.252 . S
O594 In585 2.326 . S
O594 C590 1.260 . S
C595 O586 1.240 . S
C595 O587 1.252 . S
O596 In585 2.294 . S
O596 C589 1.240 . S
O597 In585 2.326 . S
O597 C589 1.252 . S
In598 O599 2.294 . S
In598 O600 2.326 . S
In598 O604 2.266 . S
In598 O605 2.326 . S
In598 O606 2.266 . S
In598 O607 2.326 . S
In598 O609 2.294 . S
In598 O610 2.326 . S
O599 In598 2.294 . S
O599 C608 1.240 . S
O600 In598 2.326 . S
O600 C608 1.252 . S
C601 O604 1.252 . S
C601 O605 1.260 . S
C602 O609 1.240 . S
C602 O610 1.252 . S
C603 O606 1.252 . S
C603 O607 1.260 . S
O604 In598 2.266 . S
O604 C601 1.252 . S
O605 In598 2.326 . S
O605 C601 1.260 . S
O606 In598 2.266 . S
O606 C603 1.252 . S
O607 In598 2.326 . S
O607 C603 1.260 . S
C608 O599 1.240 . S
C608 O600 1.252 . S
O609 In598 2.294 . S
O609 C602 1.240 . S
O610 In598 2.326 . S
O610 C602 1.252 . S
In611 O612 2.294 . S
In611 O613 2.326 . S
In611 O617 2.266 . S
In611 O618 2.326 . S
In611 O619 2.266 . S
In611 O620 2.326 . S
In611 O622 2.294 . S
In611 O623 2.326 . S
O612 In611 2.294 . S
O612 C621 1.240 . S
O613 In611 2.326 . S
O613 C621 1.252 . S
C614 O617 1.252 . S
C614 O618 1.260 . S
C615 O622 1.240 . S
C615 O623 1.252 . S
C616 O619 1.252 . S
C616 O620 1.260 . S
O617 In611 2.266 . S
O617 C614 1.252 . S
O618 In611 2.326 . S
O618 C614 1.260 . S
O619 In611 2.266 . S
O619 C616 1.252 . S
O620 In611 2.326 . S
O620 C616 1.260 . S
C621 O612 1.240 . S
C621 O613 1.252 . S
O622 In611 2.294 . S
O622 C615 1.240 . S
O623 In611 2.326 . S
O623 C615 1.252 . S
In624 O625 2.294 . S
In624 O626 2.326 . S
In624 O630 2.266 . S
In624 O631 2.326 . S
In624 O632 2.266 . S
In624 O633 2.326 . S
In624 O635 2.294 . S
In624 O636 2.326 . S
O625 In624 2.294 . S
O625 C634 1.240 . S
O626 In624 2.326 . S
O626 C634 1.252 . S
C627 O630 1.252 . S
C627 O631 1.260 . S
C628 O635 1.240 . S
C628 O636 1.252 . S
C629 O632 1.252 . S
C629 O633 1.260 . S
O630 In624 2.266 . S
O630 C627 1.252 . S
O631 In624 2.326 . S
O631 C627 1.260 . S
O632 In624 2.266 . S
O632 C629 1.252 . S
O633 In624 2.326 . S
O633 C629 1.260 . S
C634 O625 1.240 . S
C634 O626 1.252 . S
O635 In624 2.294 . S
O635 C628 1.240 . S
O636 In624 2.326 . S
O636 C628 1.252 . S
In637 O638 2.294 . S
In637 O639 2.326 . S
In637 O643 2.266 . S
In637 O644 2.326 . S
In637 O645 2.266 . S
In637 O646 2.326 . S
In637 O648 2.294 . S
In637 O649 2.326 . S
O638 In637 2.294 . S
O638 C647 1.240 . S
O639 In637 2.326 . S
O639 C647 1.252 . S
C640 O643 1.252 . S
C640 O644 1.260 . S
C641 O648 1.240 . S
C641 O649 1.252 . S
C642 O645 1.252 . S
C642 O646 1.260 . S
O643 In637 2.266 . S
O643 C640 1.252 . S
O644 In637 2.326 . S
O644 C640 1.260 . S
O645 In637 2.266 . S
O645 C642 1.252 . S
O646 In637 2.326 . S
O646 C642 1.260 . S
C647 O638 1.240 . S
C647 O639 1.252 . S
O648 In637 2.294 . S
O648 C641 1.240 . S
O649 In637 2.326 . S
O649 C641 1.252 . S
In650 O651 2.294 . S
In650 O652 2.326 1_655 S
In650 O656 2.266 . S
In650 O657 2.326 . S
In650 O658 2.266 . S
In650 O659 2.326 . S
In650 O661 2.294 . S
In650 O662 2.326 . S
O651 In650 2.294 . S
O651 C660 1.240 1_655 S
O652 In650 2.326 1_455 S
O652 C660 1.252 . S
C653 O656 1.252 . S
C653 O657 1.260 . S
C654 O661 1.240 . S
C654 O662 1.252 . S
C655 O658 1.252 . S
C655 O659 1.260 . S
O656 In650 2.266 . S
O656 C653 1.252 . S
O657 In650 2.326 . S
O657 C653 1.260 . S
O658 In650 2.266 . S
O658 C655 1.252 . S
O659 In650 2.326 . S
O659 C655 1.260 . S
C660 O651 1.240 1_455 S
C660 O652 1.252 . S
O661 In650 2.294 . S
O661 C654 1.240 . S
O662 In650 2.326 . S
O662 C654 1.252 . S
In663 O664 2.294 . S
In663 O665 2.326 . S
In663 O669 2.266 . S
In663 O670 2.326 . S
In663 O671 2.266 . S
In663 O672 2.326 . S
In663 O674 2.294 . S
In663 O675 2.326 . S
O664 In663 2.294 . S
O664 C673 1.240 . S
O665 In663 2.326 . S
O665 C673 1.252 . S
C666 O669 1.252 . S
C666 O670 1.260 . S
C667 O674 1.240 . S
C667 O675 1.252 . S
C668 O671 1.252 . S
C668 O672 1.260 . S
O669 In663 2.266 . S
O669 C666 1.252 . S
O670 In663 2.326 . S
O670 C666 1.260 . S
O671 In663 2.266 . S
O671 C668 1.252 . S
O672 In663 2.326 . S
O672 C668 1.260 . S
C673 O664 1.240 . S
C673 O665 1.252 . S
O674 In663 2.294 . S
O674 C667 1.240 . S
O675 In663 2.326 . S
O675 C667 1.252 . S
In676 O677 2.294 . S
In676 O678 2.326 . S
In676 O682 2.266 . S
In676 O683 2.326 . S
In676 O684 2.266 . S
In676 O685 2.326 . S
In676 O687 2.294 . S
In676 O688 2.326 . S
O677 In676 2.294 . S
O677 C686 1.240 . S
O678 In676 2.326 . S
O678 C686 1.252 . S
C679 O682 1.252 . S
C679 O683 1.260 . S
C680 O687 1.240 . S
C680 O688 1.252 . S
C681 O684 1.252 . S
C681 O685 1.260 . S
O682 In676 2.266 . S
O682 C679 1.252 . S
O683 In676 2.326 . S
O683 C679 1.260 . S
O684 In676 2.266 . S
O684 C681 1.252 . S
O685 In676 2.326 . S
O685 C681 1.260 . S
C686 O677 1.240 . S
C686 O678 1.252 . S
O687 In676 2.294 . S
O687 C680 1.240 . S
O688 In676 2.326 . S
O688 C680 1.252 . S
In689 O690 2.294 . S
In689 O691 2.326 . S
In689 O695 2.266 . S
In689 O696 2.326 . S
In689 O697 2.266 . S
In689 O698 2.326 . S
In689 O700 2.294 . S
In689 O701 2.326 . S
O690 In689 2.294 . S
O690 C699 1.240 . S
O691 In689 2.326 . S
O691 C699 1.252 . S
C692 O695 1.252 . S
C692 O696 1.260 . S
C693 O700 1.240 . S
C693 O701 1.252 . S
C694 O697 1.252 . S
C694 O698 1.260 . S
O695 In689 2.266 . S
O695 C692 1.252 . S
O696 In689 2.326 . S
O696 C692 1.260 . S
O697 In689 2.266 . S
O697 C694 1.252 . S
O698 In689 2.326 . S
O698 C694 1.260 . S
C699 O690 1.240 . S
C699 O691 1.252 . S
O700 In689 2.294 . S
O700 C693 1.240 . S
O701 In689 2.326 . S
O701 C693 1.252 . S
In702 O703 2.294 . S
In702 O704 2.326 . S
In702 O708 2.266 . S
In702 O709 2.326 . S
In702 O710 2.266 . S
In702 O711 2.326 . S
In702 O713 2.294 . S
In702 O714 2.326 1_655 S
O703 In702 2.294 . S
O703 C712 1.240 . S
O704 In702 2.326 . S
O704 C712 1.252 . S
C705 O708 1.252 . S
C705 O709 1.260 . S
C706 O713 1.240 1_455 S
C706 O714 1.252 . S
C707 O710 1.252 . S
C707 O711 1.260 . S
O708 In702 2.266 . S
O708 C705 1.252 . S
O709 In702 2.326 . S
O709 C705 1.260 . S
O710 In702 2.266 . S
O710 C707 1.252 . S
O711 In702 2.326 . S
O711 C707 1.260 . S
C712 O703 1.240 . S
C712 O704 1.252 . S
O713 In702 2.294 . S
O713 C706 1.240 1_655 S
O714 In702 2.326 1_455 S
O714 C706 1.252 . S
In715 O716 2.294 . S
In715 O717 2.326 . S
In715 O721 2.266 . S
In715 O722 2.326 . S
In715 O723 2.266 . S
In715 O724 2.326 . S
In715 O726 2.294 . S
In715 O727 2.326 . S
O716 In715 2.294 . S
O716 C725 1.240 . S
O717 In715 2.326 . S
O717 C725 1.252 . S
C718 O721 1.252 . S
C718 O722 1.260 . S
C719 O726 1.240 . S
C719 O727 1.252 . S
C720 O723 1.252 . S
C720 O724 1.260 . S
O721 In715 2.266 . S
O721 C718 1.252 . S
O722 In715 2.326 . S
O722 C718 1.260 . S
O723 In715 2.266 . S
O723 C720 1.252 . S
O724 In715 2.326 . S
O724 C720 1.260 . S
C725 O716 1.240 . S
C725 O717 1.252 . S
O726 In715 2.294 . S
O726 C719 1.240 . S
O727 In715 2.326 . S
O727 C719 1.252 . S
In728 O729 2.294 . S
In728 O730 2.326 . S
In728 O734 2.266 . S
In728 O735 2.326 . S
In728 O736 2.266 . S
In728 O737 2.326 . S
In728 O739 2.294 . S
In728 O740 2.326 . S
O729 In728 2.294 . S
O729 C738 1.240 . S
O730 In728 2.326 . S
O730 C738 1.252 . S
C731 O734 1.252 . S
C731 O735 1.260 . S
C732 O739 1.240 . S
C732 O740 1.252 . S
C733 O736 1.252 . S
C733 O737 1.260 . S
O734 In728 2.266 . S
O734 C731 1.252 . S
O735 In728 2.326 . S
O735 C731 1.260 . S
O736 In728 2.266 . S
O736 C733 1.252 . S
O737 In728 2.326 . S
O737 C733 1.260 . S
C738 O729 1.240 . S
C738 O730 1.252 . S
O739 In728 2.294 . S
O739 C732 1.240 . S
O740 In728 2.326 . S
O740 C732 1.252 . S
In741 O742 2.294 . S
In741 O743 2.326 . S
In741 O747 2.266 . S
In741 O748 2.326 . S
In741 O749 2.266 . S
In741 O750 2.326 . S
In741 O752 2.294 . S
In741 O753 2.326 . S
O742 In741 2.294 . S
O742 C751 1.240 . S
O743 In741 2.326 . S
O743 C751 1.252 . S
C744 O747 1.252 . S
C744 O748 1.260 . S
C745 O752 1.240 . S
C745 O753 1.252 . S
C746 O749 1.252 . S
C746 O750 1.260 . S
O747 In741 2.266 . S
O747 C744 1.252 . S
O748 In741 2.326 . S
O748 C744 1.260 . S
O749 In741 2.266 . S
O749 C746 1.252 . S
O750 In741 2.326 . S
O750 C746 1.260 . S
C751 O742 1.240 . S
C751 O743 1.252 . S
O752 In741 2.294 . S
O752 C745 1.240 . S
O753 In741 2.326 . S
O753 C745 1.252 . S
In754 O755 2.294 . S
In754 O756 2.326 . S
In754 O760 2.266 . S
In754 O761 2.326 . S
In754 O762 2.266 . S
In754 O763 2.326 . S
In754 O765 2.294 . S
In754 O766 2.326 . S
O755 In754 2.294 . S
O755 C764 1.240 . S
O756 In754 2.326 . S
O756 C764 1.252 . S
C757 O760 1.252 . S
C757 O761 1.260 . S
C758 O765 1.240 . S
C758 O766 1.252 . S
C759 O762 1.252 . S
C759 O763 1.260 . S
O760 In754 2.266 . S
O760 C757 1.252 . S
O761 In754 2.326 . S
O761 C757 1.260 . S
O762 In754 2.266 . S
O762 C759 1.252 . S
O763 In754 2.326 . S
O763 C759 1.260 . S
C764 O755 1.240 . S
C764 O756 1.252 . S
O765 In754 2.294 . S
O765 C758 1.240 . S
O766 In754 2.326 . S
O766 C758 1.252 . S
In767 O768 2.294 . S
In767 O769 2.326 . S
In767 O773 2.266 . S
In767 O774 2.326 . S
In767 O775 2.266 . S
In767 O776 2.326 . S
In767 O778 2.294 . S
In767 O779 2.326 . S
O768 In767 2.294 . S
O768 C777 1.240 . S
O769 In767 2.326 . S
O769 C777 1.252 . S
C770 O773 1.252 . S
C770 O774 1.260 . S
C771 O778 1.240 . S
C771 O779 1.252 . S
C772 O775 1.252 . S
C772 O776 1.260 . S
O773 In767 2.266 . S
O773 C770 1.252 . S
O774 In767 2.326 . S
O774 C770 1.260 . S
O775 In767 2.266 . S
O775 C772 1.252 . S
O776 In767 2.326 . S
O776 C772 1.260 . S
C777 O768 1.240 . S
C777 O769 1.252 . S
O778 In767 2.294 . S
O778 C771 1.240 . S
O779 In767 2.326 . S
O779 C771 1.252 . S
In780 O781 2.294 . S
In780 O782 2.326 . S
In780 O786 2.266 . S
In780 O787 2.326 . S
In780 O788 2.266 . S
In780 O789 2.326 . S
In780 O791 2.294 . S
In780 O792 2.326 . S
O781 In780 2.294 . S
O781 C790 1.240 . S
O782 In780 2.326 . S
O782 C790 1.252 . S
C783 O786 1.252 . S
C783 O787 1.260 . S
C784 O791 1.240 . S
C784 O792 1.252 . S
C785 O788 1.252 . S
C785 O789 1.260 . S
O786 In780 2.266 . S
O786 C783 1.252 . S
O787 In780 2.326 . S
O787 C783 1.260 . S
O788 In780 2.266 . S
O788 C785 1.252 . S
O789 In780 2.326 . S
O789 C785 1.260 . S
C790 O781 1.240 . S
C790 O782 1.252 . S
O791 In780 2.294 . S
O791 C784 1.240 . S
O792 In780 2.326 . S
O792 C784 1.252 . S
In793 O794 2.294 . S
In793 O795 2.326 . S
In793 O799 2.266 . S
In793 O800 2.326 . S
In793 O801 2.266 . S
In793 O802 2.326 . S
In793 O804 2.294 . S
In793 O805 2.326 . S
O794 In793 2.294 . S
O794 C803 1.240 . S
O795 In793 2.326 . S
O795 C803 1.252 . S
C796 O799 1.252 . S
C796 O800 1.260 . S
C797 O804 1.240 . S
C797 O805 1.252 . S
C798 O801 1.252 . S
C798 O802 1.260 . S
O799 In793 2.266 . S
O799 C796 1.252 . S
O800 In793 2.326 . S
O800 C796 1.260 . S
O801 In793 2.266 . S
O801 C798 1.252 . S
O802 In793 2.326 . S
O802 C798 1.260 . S
C803 O794 1.240 . S
C803 O795 1.252 . S
O804 In793 2.294 . S
O804 C797 1.240 . S
O805 In793 2.326 . S
O805 C797 1.252 . S
In806 O807 2.294 . S
In806 O808 2.326 . S
In806 O812 2.266 . S
In806 O813 2.326 . S
In806 O814 2.266 . S
In806 O815 2.326 . S
In806 O817 2.294 . S
In806 O818 2.326 . S
O807 In806 2.294 . S
O807 C816 1.240 . S
O808 In806 2.326 . S
O808 C816 1.252 . S
C809 O812 1.252 . S
C809 O813 1.260 . S
C810 O817 1.240 . S
C810 O818 1.252 . S
C811 O814 1.252 . S
C811 O815 1.260 . S
O812 In806 2.266 . S
O812 C809 1.252 . S
O813 In806 2.326 . S
O813 C809 1.260 . S
O814 In806 2.266 . S
O814 C811 1.252 . S
O815 In806 2.326 . S
O815 C811 1.260 . S
C816 O807 1.240 . S
C816 O808 1.252 . S
O817 In806 2.294 . S
O817 C810 1.240 . S
O818 In806 2.326 . S
O818 C810 1.252 . S
In819 O820 2.294 . S
In819 O821 2.326 . S
In819 O825 2.266 . S
In819 O826 2.326 . S
In819 O827 2.266 . S
In819 O828 2.326 . S
In819 O830 2.294 . S
In819 O831 2.326 . S
O820 In819 2.294 . S
O820 C829 1.240 . S
O821 In819 2.326 . S
O821 C829 1.252 . S
C822 O825 1.252 . S
C822 O826 1.260 . S
C823 O830 1.240 . S
C823 O831 1.252 . S
C824 O827 1.252 . S
C824 O828 1.260 . S
O825 In819 2.266 . S
O825 C822 1.252 . S
O826 In819 2.326 . S
O826 C822 1.260 . S
O827 In819 2.266 . S
O827 C824 1.252 . S
O828 In819 2.326 . S
O828 C824 1.260 . S
C829 O820 1.240 . S
C829 O821 1.252 . S
O830 In819 2.294 . S
O830 C823 1.240 . S
O831 In819 2.326 . S
O831 C823 1.252 . S
In832 O833 2.294 . S
In832 O834 2.326 . S
In832 O838 2.266 . S
In832 O839 2.326 . S
In832 O840 2.266 . S
In832 O841 2.326 . S
In832 O843 2.294 . S
In832 O844 2.326 . S
O833 In832 2.294 . S
O833 C842 1.240 . S
O834 In832 2.326 . S
O834 C842 1.252 . S
C835 O838 1.252 . S
C835 O839 1.260 . S
C836 O843 1.240 . S
C836 O844 1.252 . S
C837 O840 1.252 . S
C837 O841 1.260 . S
O838 In832 2.266 . S
O838 C835 1.252 . S
O839 In832 2.326 . S
O839 C835 1.260 . S
O840 In832 2.266 . S
O840 C837 1.252 . S
O841 In832 2.326 . S
O841 C837 1.260 . S
C842 O833 1.240 . S
C842 O834 1.252 . S
O843 In832 2.294 . S
O843 C836 1.240 . S
O844 In832 2.326 . S
O844 C836 1.252 . S
In845 O846 2.294 . S
In845 O847 2.326 . S
In845 O851 2.266 . S
In845 O852 2.326 . S
In845 O853 2.266 . S
In845 O854 2.326 . S
In845 O856 2.294 . S
In845 O857 2.326 . S
O846 In845 2.294 . S
O846 C855 1.240 . S
O847 In845 2.326 . S
O847 C855 1.252 . S
C848 O851 1.252 . S
C848 O852 1.260 . S
C849 O856 1.240 . S
C849 O857 1.252 . S
C850 O853 1.252 . S
C850 O854 1.260 . S
O851 In845 2.266 . S
O851 C848 1.252 . S
O852 In845 2.326 . S
O852 C848 1.260 . S
O853 In845 2.266 . S
O853 C850 1.252 . S
O854 In845 2.326 . S
O854 C850 1.260 . S
C855 O846 1.240 . S
C855 O847 1.252 . S
O856 In845 2.294 . S
O856 C849 1.240 . S
O857 In845 2.326 . S
O857 C849 1.252 . S
In858 O859 2.294 . S
In858 O860 2.326 . S
In858 O864 2.266 . S
In858 O865 2.326 . S
In858 O866 2.266 . S
In858 O867 2.326 . S
In858 O869 2.294 . S
In858 O870 2.326 . S
O859 In858 2.294 . S
O859 C868 1.240 . S
O860 In858 2.326 . S
O860 C868 1.252 . S
C861 O864 1.252 . S
C861 O865 1.260 . S
C862 O869 1.240 . S
C862 O870 1.252 . S
C863 O866 1.252 . S
C863 O867 1.260 . S
O864 In858 2.266 . S
O864 C861 1.252 . S
O865 In858 2.326 . S
O865 C861 1.260 . S
O866 In858 2.266 . S
O866 C863 1.252 . S
O867 In858 2.326 . S
O867 C863 1.260 . S
C868 O859 1.240 . S
C868 O860 1.252 . S
O869 In858 2.294 . S
O869 C862 1.240 . S
O870 In858 2.326 . S
O870 C862 1.252 . S
In871 O872 2.294 . S
In871 O873 2.326 1_556 S
In871 O877 2.266 . S
In871 O878 2.326 . S
In871 O879 2.266 . S
In871 O880 2.326 . S
In871 O882 2.294 . S
In871 O883 2.326 . S
O872 In871 2.294 . S
O872 C881 1.240 1_556 S
O873 In871 2.326 1_554 S
O873 C881 1.252 . S
C874 O877 1.252 . S
C874 O878 1.260 . S
C875 O882 1.240 . S
C875 O883 1.252 . S
C876 O879 1.252 . S
C876 O880 1.260 . S
O877 In871 2.266 . S
O877 C874 1.252 . S
O878 In871 2.326 . S
O878 C874 1.260 . S
O879 In871 2.266 . S
O879 C876 1.252 . S
O880 In871 2.326 . S
O880 C876 1.260 . S
C881 O872 1.240 1_554 S
C881 O873 1.252 . S
O882 In871 2.294 . S
O882 C875 1.240 . S
O883 In871 2.326 . S
O883 C875 1.252 . S
In884 O885 2.294 . S
In884 O886 2.326 . S
In884 O890 2.266 . S
In884 O891 2.326 . S
In884 O892 2.266 . S
In884 O893 2.326 . S
In884 O895 2.294 . S
In884 O896 2.326 . S
O885 In884 2.294 . S
O885 C894 1.240 . S
O886 In884 2.326 . S
O886 C894 1.252 . S
C887 O890 1.252 . S
C887 O891 1.260 . S
C888 O895 1.240 . S
C888 O896 1.252 . S
C889 O892 1.252 . S
C889 O893 1.260 . S
O890 In884 2.266 . S
O890 C887 1.252 . S
O891 In884 2.326 . S
O891 C887 1.260 . S
O892 In884 2.266 . S
O892 C889 1.252 . S
O893 In884 2.326 . S
O893 C889 1.260 . S
C894 O885 1.240 . S
C894 O886 1.252 . S
O895 In884 2.294 . S
O895 C888 1.240 . S
O896 In884 2.326 . S
O896 C888 1.252 . S
In897 O898 2.294 . S
In897 O899 2.326 1_554 S
In897 O903 2.266 . S
In897 O904 2.326 . S
In897 O905 2.266 . S
In897 O906 2.326 . S
In897 O908 2.294 . S
In897 O909 2.326 . S
O898 In897 2.294 . S
O898 C907 1.240 1_554 S
O899 In897 2.326 1_556 S
O899 C907 1.252 . S
C900 O903 1.252 . S
C900 O904 1.260 . S
C901 O908 1.240 . S
C901 O909 1.252 . S
C902 O905 1.252 . S
C902 O906 1.260 . S
O903 In897 2.266 . S
O903 C900 1.252 . S
O904 In897 2.326 . S
O904 C900 1.260 . S
O905 In897 2.266 . S
O905 C902 1.252 . S
O906 In897 2.326 . S
O906 C902 1.260 . S
C907 O898 1.240 1_556 S
C907 O899 1.252 . S
O908 In897 2.294 . S
O908 C901 1.240 . S
O909 In897 2.326 . S
O909 C901 1.252 . S
In910 O911 2.294 . S
In910 O912 2.326 . S
In910 O916 2.266 . S
In910 O917 2.326 . S
In910 O918 2.266 . S
In910 O919 2.326 . S
In910 O921 2.294 . S
In910 O922 2.326 . S
O911 In910 2.294 . S
O911 C920 1.240 . S
O912 In910 2.326 . S
O912 C920 1.252 . S
C913 O916 1.252 . S
C913 O917 1.260 . S
C914 O921 1.240 . S
C914 O922 1.252 . S
C915 O918 1.252 . S
C915 O919 1.260 . S
O916 In910 2.266 . S
O916 C913 1.252 . S
O917 In910 2.326 . S
O917 C913 1.260 . S
O918 In910 2.266 . S
O918 C915 1.252 . S
O919 In910 2.326 . S
O919 C915 1.260 . S
C920 O911 1.240 . S
C920 O912 1.252 . S
O921 In910 2.294 . S
O921 C914 1.240 . S
O922 In910 2.326 . S
O922 C914 1.252 . S
In923 O924 2.294 . S
In923 O925 2.326 . S
In923 O929 2.266 . S
In923 O930 2.326 . S
In923 O931 2.266 . S
In923 O932 2.326 . S
In923 O934 2.294 . S
In923 O935 2.326 . S
O924 In923 2.294 . S
O924 C933 1.240 . S
O925 In923 2.326 . S
O925 C933 1.252 . S
C926 O929 1.252 . S
C926 O930 1.260 . S
C927 O934 1.240 . S
C927 O935 1.252 . S
C928 O931 1.252 . S
C928 O932 1.260 . S
O929 In923 2.266 . S
O929 C926 1.252 . S
O930 In923 2.326 . S
O930 C926 1.260 . S
O931 In923 2.266 . S
O931 C928 1.252 . S
O932 In923 2.326 . S
O932 C928 1.260 . S
C933 O924 1.240 . S
C933 O925 1.252 . S
O934 In923 2.294 . S
O934 C927 1.240 . S
O935 In923 2.326 . S
O935 C927 1.252 . S
In936 O937 2.294 . S
In936 O938 2.326 . S
In936 O942 2.266 . S
In936 O943 2.326 . S
In936 O944 2.266 . S
In936 O945 2.326 . S
In936 O947 2.294 . S
In936 O948 2.326 . S
O937 In936 2.294 . S
O937 C946 1.240 . S
O938 In936 2.326 . S
O938 C946 1.252 . S
C939 O942 1.252 . S
C939 O943 1.260 . S
C940 O947 1.240 . S
C940 O948 1.252 . S
C941 O944 1.252 . S
C941 O945 1.260 . S
O942 In936 2.266 . S
O942 C939 1.252 . S
O943 In936 2.326 . S
O943 C939 1.260 . S
O944 In936 2.266 . S
O944 C941 1.252 . S
O945 In936 2.326 . S
O945 C941 1.260 . S
C946 O937 1.240 . S
C946 O938 1.252 . S
O947 In936 2.294 . S
O947 C940 1.240 . S
O948 In936 2.326 . S
O948 C940 1.252 . S
In949 O950 2.294 . S
In949 O951 2.326 . S
In949 O955 2.266 . S
In949 O956 2.326 . S
In949 O957 2.266 . S
In949 O958 2.326 . S
In949 O960 2.294 . S
In949 O961 2.326 . S
O950 In949 2.294 . S
O950 C959 1.240 . S
O951 In949 2.326 . S
O951 C959 1.252 . S
C952 O955 1.252 . S
C952 O956 1.260 . S
C953 O960 1.240 . S
C953 O961 1.252 . S
C954 O957 1.252 . S
C954 O958 1.260 . S
O955 In949 2.266 . S
O955 C952 1.252 . S
O956 In949 2.326 . S
O956 C952 1.260 . S
O957 In949 2.266 . S
O957 C954 1.252 . S
O958 In949 2.326 . S
O958 C954 1.260 . S
C959 O950 1.240 . S
C959 O951 1.252 . S
O960 In949 2.294 . S
O960 C953 1.240 . S
O961 In949 2.326 . S
O961 C953 1.252 . S
In962 O963 2.294 . S
In962 O964 2.326 . S
In962 O968 2.266 . S
In962 O969 2.326 . S
In962 O970 2.266 . S
In962 O971 2.326 . S
In962 O973 2.294 . S
In962 O974 2.326 1_455 S
O963 In962 2.294 . S
O963 C972 1.240 . S
O964 In962 2.326 . S
O964 C972 1.252 . S
C965 O968 1.252 . S
C965 O969 1.260 . S
C966 O973 1.240 1_655 S
C966 O974 1.252 . S
C967 O970 1.252 . S
C967 O971 1.260 . S
O968 In962 2.266 . S
O968 C965 1.252 . S
O969 In962 2.326 . S
O969 C965 1.260 . S
O970 In962 2.266 . S
O970 C967 1.252 . S
O971 In962 2.326 . S
O971 C967 1.260 . S
C972 O963 1.240 . S
C972 O964 1.252 . S
O973 In962 2.294 . S
O973 C966 1.240 1_455 S
O974 In962 2.326 1_655 S
O974 C966 1.252 . S
In975 O976 2.294 . S
In975 O977 2.326 . S
In975 O981 2.266 . S
In975 O982 2.326 . S
In975 O983 2.266 . S
In975 O984 2.326 . S
In975 O986 2.294 . S
In975 O987 2.326 . S
O976 In975 2.294 . S
O976 C985 1.240 . S
O977 In975 2.326 . S
O977 C985 1.252 . S
C978 O981 1.252 . S
C978 O982 1.260 . S
C979 O986 1.240 . S
C979 O987 1.252 . S
C980 O983 1.252 . S
C980 O984 1.260 . S
O981 In975 2.266 . S
O981 C978 1.252 . S
O982 In975 2.326 . S
O982 C978 1.260 . S
O983 In975 2.266 . S
O983 C980 1.252 . S
O984 In975 2.326 . S
O984 C980 1.260 . S
C985 O976 1.240 . S
C985 O977 1.252 . S
O986 In975 2.294 . S
O986 C979 1.240 . S
O987 In975 2.326 . S
O987 C979 1.252 . S
In988 O989 2.294 . S
In988 O990 2.326 . S
In988 O994 2.266 . S
In988 O995 2.326 . S
In988 O996 2.266 . S
In988 O997 2.326 . S
In988 O999 2.294 . S
In988 O1000 2.326 . S
O989 In988 2.294 . S
O989 C998 1.240 . S
O990 In988 2.326 . S
O990 C998 1.252 . S
C991 O994 1.252 . S
C991 O995 1.260 . S
C992 O999 1.240 . S
C992 O1000 1.252 . S
C993 O996 1.252 . S
C993 O997 1.260 . S
O994 In988 2.266 . S
O994 C991 1.252 . S
O995 In988 2.326 . S
O995 C991 1.260 . S
O996 In988 2.266 . S
O996 C993 1.252 . S
O997 In988 2.326 . S
O997 C993 1.260 . S
C998 O989 1.240 . S
C998 O990 1.252 . S
O999 In988 2.294 . S
O999 C992 1.240 . S
O1000 In988 2.326 . S
O1000 C992 1.252 . S
In1001 O1002 2.294 . S
In1001 O1003 2.326 . S
In1001 O1007 2.266 . S
In1001 O1008 2.326 . S
In1001 O1009 2.266 . S
In1001 O1010 2.326 . S
In1001 O1012 2.294 . S
In1001 O1013 2.326 . S
O1002 In1001 2.294 . S
O1002 C1011 1.240 . S
O1003 In1001 2.326 . S
O1003 C1011 1.252 . S
C1004 O1007 1.252 . S
C1004 O1008 1.260 . S
C1005 O1012 1.240 . S
C1005 O1013 1.252 . S
C1006 O1009 1.252 . S
C1006 O1010 1.260 . S
O1007 In1001 2.266 . S
O1007 C1004 1.252 . S
O1008 In1001 2.326 . S
O1008 C1004 1.260 . S
O1009 In1001 2.266 . S
O1009 C1006 1.252 . S
O1010 In1001 2.326 . S
O1010 C1006 1.260 . S
C1011 O1002 1.240 . S
C1011 O1003 1.252 . S
O1012 In1001 2.294 . S
O1012 C1005 1.240 . S
O1013 In1001 2.326 . S
O1013 C1005 1.252 . S
In1014 O1015 2.294 . S
In1014 O1016 2.326 . S
In1014 O1020 2.266 . S
In1014 O1021 2.326 . S
In1014 O1022 2.266 . S
In1014 O1023 2.326 . S
In1014 O1025 2.294 . S
In1014 O1026 2.326 1_455 S
O1015 In1014 2.294 . S
O1015 C1024 1.240 . S
O1016 In1014 2.326 . S
O1016 C1024 1.252 . S
C1017 O1020 1.252 . S
C1017 O1021 1.260 . S
C1018 O1025 1.240 1_655 S
C1018 O1026 1.252 . S
C1019 O1022 1.252 . S
C1019 O1023 1.260 . S
O1020 In1014 2.266 . S
O1020 C1017 1.252 . S
O1021 In1014 2.326 . S
O1021 C1017 1.260 . S
O1022 In1014 2.266 . S
O1022 C1019 1.252 . S
O1023 In1014 2.326 . S
O1023 C1019 1.260 . S
C1024 O1015 1.240 . S
C1024 O1016 1.252 . S
O1025 In1014 2.294 . S
O1025 C1018 1.240 1_455 S
O1026 In1014 2.326 1_655 S
O1026 C1018 1.252 . S
In1027 O1028 2.294 . S
In1027 O1029 2.326 . S
In1027 O1033 2.266 . S
In1027 O1034 2.326 . S
In1027 O1035 2.266 . S
In1027 O1036 2.326 . S
In1027 O1038 2.294 . S
In1027 O1039 2.326 . S
O1028 In1027 2.294 . S
O1028 C1037 1.240 . S
O1029 In1027 2.326 . S
O1029 C1037 1.252 . S
C1030 O1033 1.252 . S
C1030 O1034 1.260 . S
C1031 O1038 1.240 . S
C1031 O1039 1.252 . S
C1032 O1035 1.252 . S
C1032 O1036 1.260 . S
O1033 In1027 2.266 . S
O1033 C1030 1.252 . S
O1034 In1027 2.326 . S
O1034 C1030 1.260 . S
O1035 In1027 2.266 . S
O1035 C1032 1.252 . S
O1036 In1027 2.326 . S
O1036 C1032 1.260 . S
C1037 O1028 1.240 . S
C1037 O1029 1.252 . S
O1038 In1027 2.294 . S
O1038 C1031 1.240 . S
O1039 In1027 2.326 . S
O1039 C1031 1.252 . S
In1040 O1041 2.294 . S
In1040 O1042 2.326 . S
In1040 O1046 2.266 . S
In1040 O1047 2.326 . S
In1040 O1048 2.266 . S
In1040 O1049 2.326 . S
In1040 O1051 2.294 . S
In1040 O1052 2.326 . S
O1041 In1040 2.294 . S
O1041 C1050 1.240 . S
O1042 In1040 2.326 . S
O1042 C1050 1.252 . S
C1043 O1046 1.252 . S
C1043 O1047 1.260 . S
C1044 O1051 1.240 . S
C1044 O1052 1.252 . S
C1045 O1048 1.252 . S
C1045 O1049 1.260 . S
O1046 In1040 2.266 . S
O1046 C1043 1.252 . S
O1047 In1040 2.326 . S
O1047 C1043 1.260 . S
O1048 In1040 2.266 . S
O1048 C1045 1.252 . S
O1049 In1040 2.326 . S
O1049 C1045 1.260 . S
C1050 O1041 1.240 . S
C1050 O1042 1.252 . S
O1051 In1040 2.294 . S
O1051 C1044 1.240 . S
O1052 In1040 2.326 . S
O1052 C1044 1.252 . S
In1053 O1054 2.294 . S
In1053 O1055 2.326 . S
In1053 O1059 2.266 . S
In1053 O1060 2.326 . S
In1053 O1061 2.266 . S
In1053 O1062 2.326 . S
In1053 O1064 2.294 . S
In1053 O1065 2.326 . S
O1054 In1053 2.294 . S
O1054 C1063 1.240 . S
O1055 In1053 2.326 . S
O1055 C1063 1.252 . S
C1056 O1059 1.252 . S
C1056 O1060 1.260 . S
C1057 O1064 1.240 . S
C1057 O1065 1.252 . S
C1058 O1061 1.252 . S
C1058 O1062 1.260 . S
O1059 In1053 2.266 . S
O1059 C1056 1.252 . S
O1060 In1053 2.326 . S
O1060 C1056 1.260 . S
O1061 In1053 2.266 . S
O1061 C1058 1.252 . S
O1062 In1053 2.326 . S
O1062 C1058 1.260 . S
C1063 O1054 1.240 . S
C1063 O1055 1.252 . S
O1064 In1053 2.294 . S
O1064 C1057 1.240 . S
O1065 In1053 2.326 . S
O1065 C1057 1.252 . S
In1066 O1067 2.294 . S
In1066 O1068 2.326 . S
In1066 O1072 2.266 . S
In1066 O1073 2.326 . S
In1066 O1074 2.266 . S
In1066 O1075 2.326 . S
In1066 O1077 2.294 . S
In1066 O1078 2.326 . S
O1067 In1066 2.294 . S
O1067 C1076 1.240 . S
O1068 In1066 2.326 . S
O1068 C1076 1.252 . S
C1069 O1072 1.252 . S
C1069 O1073 1.260 . S
C1070 O1077 1.240 . S
C1070 O1078 1.252 . S
C1071 O1074 1.252 . S
C1071 O1075 1.260 . S
O1072 In1066 2.266 . S
O1072 C1069 1.252 . S
O1073 In1066 2.326 . S
O1073 C1069 1.260 . S
O1074 In1066 2.266 . S
O1074 C1071 1.252 . S
O1075 In1066 2.326 . S
O1075 C1071 1.260 . S
C1076 O1067 1.240 . S
C1076 O1068 1.252 . S
O1077 In1066 2.294 . S
O1077 C1070 1.240 . S
O1078 In1066 2.326 . S
O1078 C1070 1.252 . S
In1079 O1080 2.294 . S
In1079 O1081 2.326 . S
In1079 O1085 2.266 . S
In1079 O1086 2.326 . S
In1079 O1087 2.266 . S
In1079 O1088 2.326 . S
In1079 O1090 2.294 . S
In1079 O1091 2.326 . S
O1080 In1079 2.294 . S
O1080 C1089 1.240 . S
O1081 In1079 2.326 . S
O1081 C1089 1.252 . S
C1082 O1085 1.252 . S
C1082 O1086 1.260 . S
C1083 O1090 1.240 . S
C1083 O1091 1.252 . S
C1084 O1087 1.252 . S
C1084 O1088 1.260 . S
O1085 In1079 2.266 . S
O1085 C1082 1.252 . S
O1086 In1079 2.326 . S
O1086 C1082 1.260 . S
O1087 In1079 2.266 . S
O1087 C1084 1.252 . S
O1088 In1079 2.326 . S
O1088 C1084 1.260 . S
C1089 O1080 1.240 . S
C1089 O1081 1.252 . S
O1090 In1079 2.294 . S
O1090 C1083 1.240 . S
O1091 In1079 2.326 . S
O1091 C1083 1.252 . S
In1092 O1093 2.294 . S
In1092 O1094 2.326 . S
In1092 O1098 2.266 . S
In1092 O1099 2.326 . S
In1092 O1100 2.266 . S
In1092 O1101 2.326 . S
In1092 O1103 2.294 . S
In1092 O1104 2.326 . S
O1093 In1092 2.294 . S
O1093 C1102 1.240 . S
O1094 In1092 2.326 . S
O1094 C1102 1.252 . S
C1095 O1098 1.252 . S
C1095 O1099 1.260 . S
C1096 O1103 1.240 . S
C1096 O1104 1.252 . S
C1097 O1100 1.252 . S
C1097 O1101 1.260 . S
O1098 In1092 2.266 . S
O1098 C1095 1.252 . S
O1099 In1092 2.326 . S
O1099 C1095 1.260 . S
O1100 In1092 2.266 . S
O1100 C1097 1.252 . S
O1101 In1092 2.326 . S
O1101 C1097 1.260 . S
C1102 O1093 1.240 . S
C1102 O1094 1.252 . S
O1103 In1092 2.294 . S
O1103 C1096 1.240 . S
O1104 In1092 2.326 . S
O1104 C1096 1.252 . S
In1105 O1106 2.294 . S
In1105 O1107 2.326 . S
In1105 O1111 2.266 . S
In1105 O1112 2.326 . S
In1105 O1113 2.266 . S
In1105 O1114 2.326 . S
In1105 O1116 2.294 . S
In1105 O1117 2.326 . S
O1106 In1105 2.294 . S
O1106 C1115 1.240 . S
O1107 In1105 2.326 . S
O1107 C1115 1.252 . S
C1108 O1111 1.252 . S
C1108 O1112 1.260 . S
C1109 O1116 1.240 . S
C1109 O1117 1.252 . S
C1110 O1113 1.252 . S
C1110 O1114 1.260 . S
O1111 In1105 2.266 . S
O1111 C1108 1.252 . S
O1112 In1105 2.326 . S
O1112 C1108 1.260 . S
O1113 In1105 2.266 . S
O1113 C1110 1.252 . S
O1114 In1105 2.326 . S
O1114 C1110 1.260 . S
C1115 O1106 1.240 . S
C1115 O1107 1.252 . S
O1116 In1105 2.294 . S
O1116 C1109 1.240 . S
O1117 In1105 2.326 . S
O1117 C1109 1.252 . S
In1118 O1119 2.294 . S
In1118 O1120 2.326 . S
In1118 O1124 2.266 . S
In1118 O1125 2.326 . S
In1118 O1126 2.266 . S
In1118 O1127 2.326 . S
In1118 O1129 2.294 . S
In1118 O1130 2.326 . S
O1119 In1118 2.294 . S
O1119 C1128 1.240 . S
O1120 In1118 2.326 . S
O1120 C1128 1.252 . S
C1121 O1124 1.252 . S
C1121 O1125 1.260 . S
C1122 O1129 1.240 . S
C1122 O1130 1.252 . S
C1123 O1126 1.252 . S
C1123 O1127 1.260 . S
O1124 In1118 2.266 . S
O1124 C1121 1.252 . S
O1125 In1118 2.326 . S
O1125 C1121 1.260 . S
O1126 In1118 2.266 . S
O1126 C1123 1.252 . S
O1127 In1118 2.326 . S
O1127 C1123 1.260 . S
C1128 O1119 1.240 . S
C1128 O1120 1.252 . S
O1129 In1118 2.294 . S
O1129 C1122 1.240 . S
O1130 In1118 2.326 . S
O1130 C1122 1.252 . S
In1131 O1132 2.294 . S
In1131 O1133 2.326 . S
In1131 O1137 2.266 . S
In1131 O1138 2.326 . S
In1131 O1139 2.266 . S
In1131 O1140 2.326 . S
In1131 O1142 2.294 . S
In1131 O1143 2.326 . S
O1132 In1131 2.294 . S
O1132 C1141 1.240 . S
O1133 In1131 2.326 . S
O1133 C1141 1.252 . S
C1134 O1137 1.252 . S
C1134 O1138 1.260 . S
C1135 O1142 1.240 . S
C1135 O1143 1.252 . S
C1136 O1139 1.252 . S
C1136 O1140 1.260 . S
O1137 In1131 2.266 . S
O1137 C1134 1.252 . S
O1138 In1131 2.326 . S
O1138 C1134 1.260 . S
O1139 In1131 2.266 . S
O1139 C1136 1.252 . S
O1140 In1131 2.326 . S
O1140 C1136 1.260 . S
C1141 O1132 1.240 . S
C1141 O1133 1.252 . S
O1142 In1131 2.294 . S
O1142 C1135 1.240 . S
O1143 In1131 2.326 . S
O1143 C1135 1.252 . S
In1144 O1145 2.294 . S
In1144 O1146 2.326 . S
In1144 O1150 2.266 . S
In1144 O1151 2.326 . S
In1144 O1152 2.266 . S
In1144 O1153 2.326 . S
In1144 O1155 2.294 . S
In1144 O1156 2.326 . S
O1145 In1144 2.294 . S
O1145 C1154 1.240 . S
O1146 In1144 2.326 . S
O1146 C1154 1.252 . S
C1147 O1150 1.252 . S
C1147 O1151 1.260 . S
C1148 O1155 1.240 . S
C1148 O1156 1.252 . S
C1149 O1152 1.252 . S
C1149 O1153 1.260 . S
O1150 In1144 2.266 . S
O1150 C1147 1.252 . S
O1151 In1144 2.326 . S
O1151 C1147 1.260 . S
O1152 In1144 2.266 . S
O1152 C1149 1.252 . S
O1153 In1144 2.326 . S
O1153 C1149 1.260 . S
C1154 O1145 1.240 . S
C1154 O1146 1.252 . S
O1155 In1144 2.294 . S
O1155 C1148 1.240 . S
O1156 In1144 2.326 . S
O1156 C1148 1.252 . S
In1157 O1158 2.294 . S
In1157 O1159 2.326 . S
In1157 O1163 2.266 . S
In1157 O1164 2.326 . S
In1157 O1165 2.266 . S
In1157 O1166 2.326 . S
In1157 O1168 2.294 . S
In1157 O1169 2.326 . S
O1158 In1157 2.294 . S
O1158 C1167 1.240 . S
O1159 In1157 2.326 . S
O1159 C1167 1.252 . S
C1160 O1163 1.252 . S
C1160 O1164 1.260 . S
C1161 O1168 1.240 . S
C1161 O1169 1.252 . S
C1162 O1165 1.252 . S
C1162 O1166 1.260 . S
O1163 In1157 2.266 . S
O1163 C1160 1.252 . S
O1164 In1157 2.326 . S
O1164 C1160 1.260 . S
O1165 In1157 2.266 . S
O1165 C1162 1.252 . S
O1166 In1157 2.326 . S
O1166 C1162 1.260 . S
C1167 O1158 1.240 . S
C1167 O1159 1.252 . S
O1168 In1157 2.294 . S
O1168 C1161 1.240 . S
O1169 In1157 2.326 . S
O1169 C1161 1.252 . S
In1170 O1171 2.294 . S
In1170 O1172 2.326 . S
In1170 O1176 2.266 . S
In1170 O1177 2.326 . S
In1170 O1178 2.266 . S
In1170 O1179 2.326 . S
In1170 O1181 2.294 . S
In1170 O1182 2.326 . S
O1171 In1170 2.294 . S
O1171 C1180 1.240 . S
O1172 In1170 2.326 . S
O1172 C1180 1.252 . S
C1173 O1176 1.252 . S
C1173 O1177 1.260 . S
C1174 O1181 1.240 . S
C1174 O1182 1.252 . S
C1175 O1178 1.252 . S
C1175 O1179 1.260 . S
O1176 In1170 2.266 . S
O1176 C1173 1.252 . S
O1177 In1170 2.326 . S
O1177 C1173 1.260 . S
O1178 In1170 2.266 . S
O1178 C1175 1.252 . S
O1179 In1170 2.326 . S
O1179 C1175 1.260 . S
C1180 O1171 1.240 . S
C1180 O1172 1.252 . S
O1181 In1170 2.294 . S
O1181 C1174 1.240 . S
O1182 In1170 2.326 . S
O1182 C1174 1.252 . S
In1183 O1184 2.294 . S
In1183 O1185 2.326 . S
In1183 O1189 2.266 . S
In1183 O1190 2.326 . S
In1183 O1191 2.266 . S
In1183 O1192 2.326 . S
In1183 O1194 2.294 . S
In1183 O1195 2.326 1_554 S
O1184 In1183 2.294 . S
O1184 C1193 1.240 . S
O1185 In1183 2.326 . S
O1185 C1193 1.252 . S
C1186 O1189 1.252 . S
C1186 O1190 1.260 . S
C1187 O1194 1.240 1_556 S
C1187 O1195 1.252 . S
C1188 O1191 1.252 . S
C1188 O1192 1.260 . S
O1189 In1183 2.266 . S
O1189 C1186 1.252 . S
O1190 In1183 2.326 . S
O1190 C1186 1.260 . S
O1191 In1183 2.266 . S
O1191 C1188 1.252 . S
O1192 In1183 2.326 . S
O1192 C1188 1.260 . S
C1193 O1184 1.240 . S
C1193 O1185 1.252 . S
O1194 In1183 2.294 . S
O1194 C1187 1.240 1_554 S
O1195 In1183 2.326 1_556 S
O1195 C1187 1.252 . S
In1196 O1197 2.294 . S
In1196 O1198 2.326 . S
In1196 O1202 2.266 . S
In1196 O1203 2.326 . S
In1196 O1204 2.266 . S
In1196 O1205 2.326 . S
In1196 O1207 2.294 . S
In1196 O1208 2.326 . S
O1197 In1196 2.294 . S
O1197 C1206 1.240 . S
O1198 In1196 2.326 . S
O1198 C1206 1.252 . S
C1199 O1202 1.252 . S
C1199 O1203 1.260 . S
C1200 O1207 1.240 . S
C1200 O1208 1.252 . S
C1201 O1204 1.252 . S
C1201 O1205 1.260 . S
O1202 In1196 2.266 . S
O1202 C1199 1.252 . S
O1203 In1196 2.326 . S
O1203 C1199 1.260 . S
O1204 In1196 2.266 . S
O1204 C1201 1.252 . S
O1205 In1196 2.326 . S
O1205 C1201 1.260 . S
C1206 O1197 1.240 . S
C1206 O1198 1.252 . S
O1207 In1196 2.294 . S
O1207 C1200 1.240 . S
O1208 In1196 2.326 . S
O1208 C1200 1.252 . S
In1209 O1210 2.294 . S
In1209 O1211 2.326 1_556 S
In1209 O1215 2.266 . S
In1209 O1216 2.326 . S
In1209 O1217 2.266 . S
In1209 O1218 2.326 . S
In1209 O1220 2.294 . S
In1209 O1221 2.326 . S
O1210 In1209 2.294 . S
O1210 C1219 1.240 1_556 S
O1211 In1209 2.326 1_554 S
O1211 C1219 1.252 . S
C1212 O1215 1.252 . S
C1212 O1216 1.260 . S
C1213 O1220 1.240 . S
C1213 O1221 1.252 . S
C1214 O1217 1.252 . S
C1214 O1218 1.260 . S
O1215 In1209 2.266 . S
O1215 C1212 1.252 . S
O1216 In1209 2.326 . S
O1216 C1212 1.260 . S
O1217 In1209 2.266 . S
O1217 C1214 1.252 . S
O1218 In1209 2.326 . S
O1218 C1214 1.260 . S
C1219 O1210 1.240 1_554 S
C1219 O1211 1.252 . S
O1220 In1209 2.294 . S
O1220 C1213 1.240 . S
O1221 In1209 2.326 . S
O1221 C1213 1.252 . S
In1222 O1223 2.294 . S
In1222 O1224 2.326 . S
In1222 O1228 2.266 . S
In1222 O1229 2.326 . S
In1222 O1230 2.266 . S
In1222 O1231 2.326 . S
In1222 O1233 2.294 . S
In1222 O1234 2.326 . S
O1223 In1222 2.294 . S
O1223 C1232 1.240 . S
O1224 In1222 2.326 . S
O1224 C1232 1.252 . S
C1225 O1228 1.252 . S
C1225 O1229 1.260 . S
C1226 O1233 1.240 . S
C1226 O1234 1.252 . S
C1227 O1230 1.252 . S
C1227 O1231 1.260 . S
O1228 In1222 2.266 . S
O1228 C1225 1.252 . S
O1229 In1222 2.326 . S
O1229 C1225 1.260 . S
O1230 In1222 2.266 . S
O1230 C1227 1.252 . S
O1231 In1222 2.326 . S
O1231 C1227 1.260 . S
C1232 O1223 1.240 . S
C1232 O1224 1.252 . S
O1233 In1222 2.294 . S
O1233 C1226 1.240 . S
O1234 In1222 2.326 . S
O1234 C1226 1.252 . S
In1235 O1236 2.294 . S
In1235 O1237 2.326 . S
In1235 O1241 2.266 . S
In1235 O1242 2.326 . S
In1235 O1243 2.266 . S
In1235 O1244 2.326 . S
In1235 O1246 2.294 . S
In1235 O1247 2.326 . S
O1236 In1235 2.294 . S
O1236 C1245 1.240 . S
O1237 In1235 2.326 . S
O1237 C1245 1.252 . S
C1238 O1241 1.252 . S
C1238 O1242 1.260 . S
C1239 O1246 1.240 . S
C1239 O1247 1.252 . S
C1240 O1243 1.252 . S
C1240 O1244 1.260 . S
O1241 In1235 2.266 . S
O1241 C1238 1.252 . S
O1242 In1235 2.326 . S
O1242 C1238 1.260 . S
O1243 In1235 2.266 . S
O1243 C1240 1.252 . S
O1244 In1235 2.326 . S
O1244 C1240 1.260 . S
C1245 O1236 1.240 . S
C1245 O1237 1.252 . S
O1246 In1235 2.294 . S
O1246 C1239 1.240 . S
O1247 In1235 2.326 . S
O1247 C1239 1.252 . S
C1248 C1249 1.387 . S
C1248 H1252 0.950 . S
C1248 C1257 1.390 . S
C1249 C1248 1.387 . S
C1249 C1251 1.387 . S
H1250 C1257 0.950 . S
C1251 C1249 1.387 . S
C1251 C1253 1.390 . S
C1251 H1255 0.950 . S
H1252 C1248 0.950 . S
C1253 C1251 1.390 . S
C1253 C1254 1.387 . S
C1253 H1256 0.950 . S
C1254 C1253 1.387 . S
C1254 C1257 1.387 . S
H1255 C1251 0.950 . S
H1256 C1253 0.950 . S
C1257 C1248 1.390 . S
C1257 H1250 0.950 . S
C1257 C1254 1.387 . S
C1258 C1259 1.387 . S
C1258 H1262 0.950 . S
C1258 C1267 1.390 . S
C1259 C1258 1.387 . S
C1259 C1261 1.387 . S
H1260 C1267 0.950 . S
C1261 C1259 1.387 . S
C1261 C1263 1.390 . S
C1261 H1265 0.950 . S
H1262 C1258 0.950 . S
C1263 C1261 1.390 . S
C1263 C1264 1.387 . S
C1263 H1266 0.950 . S
C1264 C1263 1.387 . S
C1264 C1267 1.387 . S
H1265 C1261 0.950 . S
H1266 C1263 0.950 . S
C1267 C1258 1.390 . S
C1267 H1260 0.950 . S
C1267 C1264 1.387 . S
C1268 C1269 1.387 . S
C1268 H1272 0.950 . S
C1268 C1277 1.390 . S
C1269 C1268 1.387 . S
C1269 C1271 1.387 . S
H1270 C1277 0.950 . S
C1271 C1269 1.387 . S
C1271 C1273 1.390 . S
C1271 H1275 0.950 . S
H1272 C1268 0.950 . S
C1273 C1271 1.390 . S
C1273 C1274 1.387 . S
C1273 H1276 0.950 . S
C1274 C1273 1.387 . S
C1274 C1277 1.387 . S
H1275 C1271 0.950 . S
H1276 C1273 0.950 . S
C1277 C1268 1.390 . S
C1277 H1270 0.950 . S
C1277 C1274 1.387 . S
C1278 C1279 1.387 . S
C1278 H1282 0.950 . S
C1278 C1287 1.390 . S
C1279 C1278 1.387 . S
C1279 C1281 1.387 . S
H1280 C1287 0.950 . S
C1281 C1279 1.387 . S
C1281 C1283 1.390 . S
C1281 H1285 0.950 . S
H1282 C1278 0.950 . S
C1283 C1281 1.390 . S
C1283 C1284 1.387 . S
C1283 H1286 0.950 . S
C1284 C1283 1.387 . S
C1284 C1287 1.387 . S
H1285 C1281 0.950 . S
H1286 C1283 0.950 . S
C1287 C1278 1.390 . S
C1287 H1280 0.950 . S
C1287 C1284 1.387 . S
C1288 C1289 1.387 . S
C1288 H1292 0.950 . S
C1288 C1297 1.390 . S
C1289 C1288 1.387 . S
C1289 C1291 1.387 . S
H1290 C1297 0.950 . S
C1291 C1289 1.387 . S
C1291 C1293 1.390 . S
C1291 H1295 0.950 . S
H1292 C1288 0.950 . S
C1293 C1291 1.390 . S
C1293 C1294 1.387 . S
C1293 H1296 0.950 . S
C1294 C1293 1.387 . S
C1294 C1297 1.387 . S
H1295 C1291 0.950 . S
H1296 C1293 0.950 . S
C1297 C1288 1.390 . S
C1297 H1290 0.950 . S
C1297 C1294 1.387 . S
C1298 C1299 1.387 . S
C1298 H1302 0.950 . S
C1298 C1307 1.390 . S
C1299 C1298 1.387 . S
C1299 C1301 1.387 . S
H1300 C1307 0.950 . S
C1301 C1299 1.387 . S
C1301 C1303 1.390 . S
C1301 H1305 0.950 . S
H1302 C1298 0.950 . S
C1303 C1301 1.390 . S
C1303 C1304 1.387 . S
C1303 H1306 0.950 . S
C1304 C1303 1.387 . S
C1304 C1307 1.387 . S
H1305 C1301 0.950 . S
H1306 C1303 0.950 . S
C1307 C1298 1.390 . S
C1307 H1300 0.950 . S
C1307 C1304 1.387 . S
C1308 C1309 1.387 . S
C1308 H1312 0.950 . S
C1308 C1317 1.390 . S
C1309 C1308 1.387 . S
C1309 C1311 1.387 . S
H1310 C1317 0.950 . S
C1311 C1309 1.387 . S
C1311 C1313 1.390 . S
C1311 H1315 0.950 . S
H1312 C1308 0.950 . S
C1313 C1311 1.390 . S
C1313 C1314 1.387 . S
C1313 H1316 0.950 . S
C1314 C1313 1.387 . S
C1314 C1317 1.387 . S
H1315 C1311 0.950 . S
H1316 C1313 0.950 . S
C1317 C1308 1.390 . S
C1317 H1310 0.950 . S
C1317 C1314 1.387 . S
C1318 C1319 1.387 . S
C1318 H1322 0.950 . S
C1318 C1327 1.390 . S
C1319 C1318 1.387 . S
C1319 C1321 1.387 . S
H1320 C1327 0.950 . S
C1321 C1319 1.387 . S
C1321 C1323 1.390 . S
C1321 H1325 0.950 . S
H1322 C1318 0.950 . S
C1323 C1321 1.390 . S
C1323 C1324 1.387 . S
C1323 H1326 0.950 . S
C1324 C1323 1.387 . S
C1324 C1327 1.387 . S
H1325 C1321 0.950 . S
H1326 C1323 0.950 . S
C1327 C1318 1.390 . S
C1327 H1320 0.950 . S
C1327 C1324 1.387 . S
C1328 C1329 1.387 . S
C1328 H1332 0.950 . S
C1328 C1337 1.390 . S
C1329 C1328 1.387 . S
C1329 C1331 1.387 . S
H1330 C1337 0.950 . S
C1331 C1329 1.387 . S
C1331 C1333 1.390 . S
C1331 H1335 0.950 . S
H1332 C1328 0.950 . S
C1333 C1331 1.390 . S
C1333 C1334 1.387 . S
C1333 H1336 0.950 . S
C1334 C1333 1.387 . S
C1334 C1337 1.387 . S
H1335 C1331 0.950 . S
H1336 C1333 0.950 . S
C1337 C1328 1.390 . S
C1337 H1330 0.950 . S
C1337 C1334 1.387 . S
C1338 C1339 1.387 . S
C1338 H1342 0.950 . S
C1338 C1347 1.390 . S
C1339 C1338 1.387 . S
C1339 C1341 1.387 . S
H1340 C1347 0.950 . S
C1341 C1339 1.387 . S
C1341 C1343 1.390 . S
C1341 H1345 0.950 . S
H1342 C1338 0.950 . S
C1343 C1341 1.390 . S
C1343 C1344 1.387 . S
C1343 H1346 0.950 . S
C1344 C1343 1.387 . S
C1344 C1347 1.387 . S
H1345 C1341 0.950 . S
H1346 C1343 0.950 . S
C1347 C1338 1.390 . S
C1347 H1340 0.950 . S
C1347 C1344 1.387 . S
C1348 C1349 1.387 . S
C1348 H1352 0.950 . S
C1348 C1357 1.390 . S
C1349 C1348 1.387 . S
C1349 C1351 1.387 . S
H1350 C1357 0.950 . S
C1351 C1349 1.387 . S
C1351 C1353 1.390 . S
C1351 H1355 0.950 . S
H1352 C1348 0.950 . S
C1353 C1351 1.390 . S
C1353 C1354 1.387 . S
C1353 H1356 0.950 . S
C1354 C1353 1.387 . S
C1354 C1357 1.387 . S
H1355 C1351 0.950 . S
H1356 C1353 0.950 . S
C1357 C1348 1.390 . S
C1357 H1350 0.950 . S
C1357 C1354 1.387 . S
C1358 C1359 1.387 . S
C1358 H1362 0.950 . S
C1358 C1367 1.390 . S
C1359 C1358 1.387 . S
C1359 C1361 1.387 . S
H1360 C1367 0.950 . S
C1361 C1359 1.387 . S
C1361 C1363 1.390 . S
C1361 H1365 0.950 . S
H1362 C1358 0.950 . S
C1363 C1361 1.390 . S
C1363 C1364 1.387 . S
C1363 H1366 0.950 . S
C1364 C1363 1.387 . S
C1364 C1367 1.387 . S
H1365 C1361 0.950 . S
H1366 C1363 0.950 . S
C1367 C1358 1.390 . S
C1367 H1360 0.950 . S
C1367 C1364 1.387 . S
C1368 C1369 1.387 . S
C1368 H1372 0.950 . S
C1368 C1377 1.390 . S
C1369 C1368 1.387 . S
C1369 C1371 1.387 . S
H1370 C1377 0.950 . S
C1371 C1369 1.387 . S
C1371 C1373 1.390 . S
C1371 H1375 0.950 . S
H1372 C1368 0.950 . S
C1373 C1371 1.390 . S
C1373 C1374 1.387 . S
C1373 H1376 0.950 . S
C1374 C1373 1.387 . S
C1374 C1377 1.387 . S
H1375 C1371 0.950 . S
H1376 C1373 0.950 . S
C1377 C1368 1.390 . S
C1377 H1370 0.950 . S
C1377 C1374 1.387 . S
C1378 C1379 1.387 . S
C1378 H1382 0.950 . S
C1378 C1387 1.390 . S
C1379 C1378 1.387 . S
C1379 C1381 1.387 . S
H1380 C1387 0.950 . S
C1381 C1379 1.387 . S
C1381 C1383 1.390 . S
C1381 H1385 0.950 . S
H1382 C1378 0.950 . S
C1383 C1381 1.390 . S
C1383 C1384 1.387 . S
C1383 H1386 0.950 . S
C1384 C1383 1.387 . S
C1384 C1387 1.387 . S
H1385 C1381 0.950 . S
H1386 C1383 0.950 . S
C1387 C1378 1.390 . S
C1387 H1380 0.950 . S
C1387 C1384 1.387 . S
C1388 C1389 1.387 . S
C1388 H1392 0.950 . S
C1388 C1397 1.390 . S
C1389 C1388 1.387 . S
C1389 C1391 1.387 . S
H1390 C1397 0.950 . S
C1391 C1389 1.387 . S
C1391 C1393 1.390 . S
C1391 H1395 0.950 . S
H1392 C1388 0.950 . S
C1393 C1391 1.390 . S
C1393 C1394 1.387 . S
C1393 H1396 0.950 . S
C1394 C1393 1.387 . S
C1394 C1397 1.387 . S
H1395 C1391 0.950 . S
H1396 C1393 0.950 . S
C1397 C1388 1.390 . S
C1397 H1390 0.950 . S
C1397 C1394 1.387 . S
C1398 C1399 1.387 . S
C1398 H1402 0.950 . S
C1398 C1407 1.390 . S
C1399 C1398 1.387 . S
C1399 C1401 1.387 . S
H1400 C1407 0.950 . S
C1401 C1399 1.387 . S
C1401 C1403 1.390 . S
C1401 H1405 0.950 . S
H1402 C1398 0.950 . S
C1403 C1401 1.390 . S
C1403 C1404 1.387 . S
C1403 H1406 0.950 . S
C1404 C1403 1.387 . S
C1404 C1407 1.387 . S
H1405 C1401 0.950 . S
H1406 C1403 0.950 . S
C1407 C1398 1.390 . S
C1407 H1400 0.950 . S
C1407 C1404 1.387 . S
C1408 C1409 1.387 . S
C1408 H1412 0.950 . S
C1408 C1417 1.390 . S
C1409 C1408 1.387 . S
C1409 C1411 1.387 . S
H1410 C1417 0.950 . S
C1411 C1409 1.387 . S
C1411 C1413 1.390 . S
C1411 H1415 0.950 . S
H1412 C1408 0.950 . S
C1413 C1411 1.390 . S
C1413 C1414 1.387 . S
C1413 H1416 0.950 . S
C1414 C1413 1.387 . S
C1414 C1417 1.387 . S
H1415 C1411 0.950 . S
H1416 C1413 0.950 . S
C1417 C1408 1.390 . S
C1417 H1410 0.950 . S
C1417 C1414 1.387 . S
C1418 C1419 1.387 . S
C1418 H1422 0.950 . S
C1418 C1427 1.390 . S
C1419 C1418 1.387 . S
C1419 C1421 1.387 . S
H1420 C1427 0.950 . S
C1421 C1419 1.387 . S
C1421 C1423 1.390 . S
C1421 H1425 0.950 . S
H1422 C1418 0.950 . S
C1423 C1421 1.390 . S
C1423 C1424 1.387 . S
C1423 H1426 0.950 . S
C1424 C1423 1.387 . S
C1424 C1427 1.387 . S
H1425 C1421 0.950 . S
H1426 C1423 0.950 . S
C1427 C1418 1.390 . S
C1427 H1420 0.950 . S
C1427 C1424 1.387 . S
C1428 C1429 1.387 . S
C1428 H1432 0.950 . S
C1428 C1437 1.390 . S
C1429 C1428 1.387 . S
C1429 C1431 1.387 . S
H1430 C1437 0.950 . S
C1431 C1429 1.387 . S
C1431 C1433 1.390 . S
C1431 H1435 0.950 . S
H1432 C1428 0.950 . S
C1433 C1431 1.390 . S
C1433 C1434 1.387 . S
C1433 H1436 0.950 . S
C1434 C1433 1.387 . S
C1434 C1437 1.387 . S
H1435 C1431 0.950 . S
H1436 C1433 0.950 . S
C1437 C1428 1.390 . S
C1437 H1430 0.950 . S
C1437 C1434 1.387 . S
C1438 C1439 1.387 . S
C1438 H1442 0.950 . S
C1438 C1447 1.390 . S
C1439 C1438 1.387 . S
C1439 C1441 1.387 . S
H1440 C1447 0.950 . S
C1441 C1439 1.387 . S
C1441 C1443 1.390 . S
C1441 H1445 0.950 . S
H1442 C1438 0.950 . S
C1443 C1441 1.390 . S
C1443 C1444 1.387 . S
C1443 H1446 0.950 . S
C1444 C1443 1.387 . S
C1444 C1447 1.387 . S
H1445 C1441 0.950 . S
H1446 C1443 0.950 . S
C1447 C1438 1.390 . S
C1447 H1440 0.950 . S
C1447 C1444 1.387 . S
C1448 C1449 1.387 . S
C1448 H1452 0.950 . S
C1448 C1457 1.390 . S
C1449 C1448 1.387 . S
C1449 C1451 1.387 . S
H1450 C1457 0.950 . S
C1451 C1449 1.387 . S
C1451 C1453 1.390 . S
C1451 H1455 0.950 . S
H1452 C1448 0.950 . S
C1453 C1451 1.390 . S
C1453 C1454 1.387 . S
C1453 H1456 0.950 . S
C1454 C1453 1.387 . S
C1454 C1457 1.387 . S
H1455 C1451 0.950 . S
H1456 C1453 0.950 . S
C1457 C1448 1.390 . S
C1457 H1450 0.950 . S
C1457 C1454 1.387 . S
C1458 C1459 1.387 . S
C1458 H1462 0.950 . S
C1458 C1467 1.390 . S
C1459 C1458 1.387 . S
C1459 C1461 1.387 . S
H1460 C1467 0.950 . S
C1461 C1459 1.387 . S
C1461 C1463 1.390 . S
C1461 H1465 0.950 . S
H1462 C1458 0.950 . S
C1463 C1461 1.390 . S
C1463 C1464 1.387 . S
C1463 H1466 0.950 . S
C1464 C1463 1.387 . S
C1464 C1467 1.387 . S
H1465 C1461 0.950 . S
H1466 C1463 0.950 . S
C1467 C1458 1.390 . S
C1467 H1460 0.950 . S
C1467 C1464 1.387 . S
C1468 C1469 1.387 . S
C1468 H1472 0.950 . S
C1468 C1477 1.390 . S
C1469 C1468 1.387 . S
C1469 C1471 1.387 . S
H1470 C1477 0.950 . S
C1471 C1469 1.387 . S
C1471 C1473 1.390 . S
C1471 H1475 0.950 . S
H1472 C1468 0.950 . S
C1473 C1471 1.390 . S
C1473 C1474 1.387 . S
C1473 H1476 0.950 . S
C1474 C1473 1.387 . S
C1474 C1477 1.387 . S
H1475 C1471 0.950 . S
H1476 C1473 0.950 . S
C1477 C1468 1.390 . S
C1477 H1470 0.950 . S
C1477 C1474 1.387 . S
C1478 C1479 1.387 . S
C1478 H1482 0.950 . S
C1478 C1487 1.390 . S
C1479 C1478 1.387 . S
C1479 C1481 1.387 . S
H1480 C1487 0.950 . S
C1481 C1479 1.387 . S
C1481 C1483 1.390 . S
C1481 H1485 0.950 . S
H1482 C1478 0.950 . S
C1483 C1481 1.390 . S
C1483 C1484 1.387 . S
C1483 H1486 0.950 . S
C1484 C1483 1.387 . S
C1484 C1487 1.387 . S
H1485 C1481 0.950 . S
H1486 C1483 0.950 . S
C1487 C1478 1.390 . S
C1487 H1480 0.950 . S
C1487 C1484 1.387 . S
C1488 C1489 1.387 . S
C1488 H1492 0.950 . S
C1488 C1497 1.390 . S
C1489 C1488 1.387 . S
C1489 C1491 1.387 . S
H1490 C1497 0.950 . S
C1491 C1489 1.387 . S
C1491 C1493 1.390 . S
C1491 H1495 0.950 . S
H1492 C1488 0.950 . S
C1493 C1491 1.390 . S
C1493 C1494 1.387 . S
C1493 H1496 0.950 . S
C1494 C1493 1.387 . S
C1494 C1497 1.387 . S
H1495 C1491 0.950 . S
H1496 C1493 0.950 . S
C1497 C1488 1.390 . S
C1497 H1490 0.950 . S
C1497 C1494 1.387 . S
C1498 C1499 1.387 . S
C1498 H1502 0.950 . S
C1498 C1507 1.390 . S
C1499 C1498 1.387 . S
C1499 C1501 1.387 . S
H1500 C1507 0.950 . S
C1501 C1499 1.387 . S
C1501 C1503 1.390 . S
C1501 H1505 0.950 . S
H1502 C1498 0.950 . S
C1503 C1501 1.390 . S
C1503 C1504 1.387 . S
C1503 H1506 0.950 . S
C1504 C1503 1.387 . S
C1504 C1507 1.387 . S
H1505 C1501 0.950 . S
H1506 C1503 0.950 . S
C1507 C1498 1.390 . S
C1507 H1500 0.950 . S
C1507 C1504 1.387 . S
C1508 C1509 1.387 . S
C1508 H1512 0.950 . S
C1508 C1517 1.390 . S
C1509 C1508 1.387 . S
C1509 C1511 1.387 . S
H1510 C1517 0.950 . S
C1511 C1509 1.387 . S
C1511 C1513 1.390 . S
C1511 H1515 0.950 . S
H1512 C1508 0.950 . S
C1513 C1511 1.390 . S
C1513 C1514 1.387 . S
C1513 H1516 0.950 . S
C1514 C1513 1.387 . S
C1514 C1517 1.387 . S
H1515 C1511 0.950 . S
H1516 C1513 0.950 . S
C1517 C1508 1.390 . S
C1517 H1510 0.950 . S
C1517 C1514 1.387 . S
C1518 C1519 1.387 . S
C1518 H1522 0.950 . S
C1518 C1527 1.390 . S
C1519 C1518 1.387 . S
C1519 C1521 1.387 . S
H1520 C1527 0.950 . S
C1521 C1519 1.387 . S
C1521 C1523 1.390 . S
C1521 H1525 0.950 . S
H1522 C1518 0.950 . S
C1523 C1521 1.390 . S
C1523 C1524 1.387 . S
C1523 H1526 0.950 . S
C1524 C1523 1.387 . S
C1524 C1527 1.387 . S
H1525 C1521 0.950 . S
H1526 C1523 0.950 . S
C1527 C1518 1.390 . S
C1527 H1520 0.950 . S
C1527 C1524 1.387 . S
C1528 C1529 1.387 . S
C1528 H1532 0.950 . S
C1528 C1537 1.390 . S
C1529 C1528 1.387 . S
C1529 C1531 1.387 . S
H1530 C1537 0.950 . S
C1531 C1529 1.387 . S
C1531 C1533 1.390 . S
C1531 H1535 0.950 . S
H1532 C1528 0.950 . S
C1533 C1531 1.390 . S
C1533 C1534 1.387 . S
C1533 H1536 0.950 . S
C1534 C1533 1.387 . S
C1534 C1537 1.387 . S
H1535 C1531 0.950 . S
H1536 C1533 0.950 . S
C1537 C1528 1.390 . S
C1537 H1530 0.950 . S
C1537 C1534 1.387 . S
C1538 C1539 1.387 . S
C1538 H1542 0.950 . S
C1538 C1547 1.390 . S
C1539 C1538 1.387 . S
C1539 C1541 1.387 . S
H1540 C1547 0.950 . S
C1541 C1539 1.387 . S
C1541 C1543 1.390 . S
C1541 H1545 0.950 . S
H1542 C1538 0.950 . S
C1543 C1541 1.390 . S
C1543 C1544 1.387 . S
C1543 H1546 0.950 . S
C1544 C1543 1.387 . S
C1544 C1547 1.387 . S
H1545 C1541 0.950 . S
H1546 C1543 0.950 . S
C1547 C1538 1.390 . S
C1547 H1540 0.950 . S
C1547 C1544 1.387 . S
C1548 C1549 1.387 . S
C1548 H1552 0.950 . S
C1548 C1557 1.390 . S
C1549 C1548 1.387 . S
C1549 C1551 1.387 . S
H1550 C1557 0.950 . S
C1551 C1549 1.387 . S
C1551 C1553 1.390 . S
C1551 H1555 0.950 . S
H1552 C1548 0.950 . S
C1553 C1551 1.390 . S
C1553 C1554 1.387 . S
C1553 H1556 0.950 . S
C1554 C1553 1.387 . S
C1554 C1557 1.387 . S
H1555 C1551 0.950 . S
H1556 C1553 0.950 . S
C1557 C1548 1.390 . S
C1557 H1550 0.950 . S
C1557 C1554 1.387 . S
C1558 C1559 1.387 . S
C1558 H1562 0.950 . S
C1558 C1567 1.390 . S
C1559 C1558 1.387 . S
C1559 C1561 1.387 . S
H1560 C1567 0.950 . S
C1561 C1559 1.387 . S
C1561 C1563 1.390 . S
C1561 H1565 0.950 . S
H1562 C1558 0.950 . S
C1563 C1561 1.390 . S
C1563 C1564 1.387 . S
C1563 H1566 0.950 . S
C1564 C1563 1.387 . S
C1564 C1567 1.387 . S
H1565 C1561 0.950 . S
H1566 C1563 0.950 . S
C1567 C1558 1.390 . S
C1567 H1560 0.950 . S
C1567 C1564 1.387 . S
C1568 C1569 1.387 . S
C1568 H1572 0.950 . S
C1568 C1577 1.390 . S
C1569 C1568 1.387 . S
C1569 C1571 1.387 . S
H1570 C1577 0.950 . S
C1571 C1569 1.387 . S
C1571 C1573 1.390 . S
C1571 H1575 0.950 . S
H1572 C1568 0.950 . S
C1573 C1571 1.390 . S
C1573 C1574 1.387 . S
C1573 H1576 0.950 . S
C1574 C1573 1.387 . S
C1574 C1577 1.387 . S
H1575 C1571 0.950 . S
H1576 C1573 0.950 . S
C1577 C1568 1.390 . S
C1577 H1570 0.950 . S
C1577 C1574 1.387 . S
C1578 C1579 1.387 . S
C1578 H1582 0.950 . S
C1578 C1587 1.390 . S
C1579 C1578 1.387 . S
C1579 C1581 1.387 . S
H1580 C1587 0.950 . S
C1581 C1579 1.387 . S
C1581 C1583 1.390 . S
C1581 H1585 0.950 . S
H1582 C1578 0.950 . S
C1583 C1581 1.390 . S
C1583 C1584 1.387 . S
C1583 H1586 0.950 . S
C1584 C1583 1.387 . S
C1584 C1587 1.387 . S
H1585 C1581 0.950 . S
H1586 C1583 0.950 . S
C1587 C1578 1.390 . S
C1587 H1580 0.950 . S
C1587 C1584 1.387 . S
C1588 C1589 1.387 . S
C1588 H1592 0.950 . S
C1588 C1597 1.390 . S
C1589 C1588 1.387 . S
C1589 C1591 1.387 . S
H1590 C1597 0.950 . S
C1591 C1589 1.387 . S
C1591 C1593 1.390 . S
C1591 H1595 0.950 . S
H1592 C1588 0.950 . S
C1593 C1591 1.390 . S
C1593 C1594 1.387 . S
C1593 H1596 0.950 . S
C1594 C1593 1.387 . S
C1594 C1597 1.387 . S
H1595 C1591 0.950 . S
H1596 C1593 0.950 . S
C1597 C1588 1.390 . S
C1597 H1590 0.950 . S
C1597 C1594 1.387 . S
C1598 C1599 1.387 . S
C1598 H1602 0.950 . S
C1598 C1607 1.390 . S
C1599 C1598 1.387 . S
C1599 C1601 1.387 . S
H1600 C1607 0.950 . S
C1601 C1599 1.387 . S
C1601 C1603 1.390 . S
C1601 H1605 0.950 . S
H1602 C1598 0.950 . S
C1603 C1601 1.390 . S
C1603 C1604 1.387 . S
C1603 H1606 0.950 . S
C1604 C1603 1.387 . S
C1604 C1607 1.387 . S
H1605 C1601 0.950 . S
H1606 C1603 0.950 . S
C1607 C1598 1.390 . S
C1607 H1600 0.950 . S
C1607 C1604 1.387 . S
C1608 C1609 1.387 . S
C1608 H1612 0.950 . S
C1608 C1617 1.390 . S
C1609 C1608 1.387 . S
C1609 C1611 1.387 . S
H1610 C1617 0.950 . S
C1611 C1609 1.387 . S
C1611 C1613 1.390 . S
C1611 H1615 0.950 . S
H1612 C1608 0.950 . S
C1613 C1611 1.390 . S
C1613 C1614 1.387 . S
C1613 H1616 0.950 . S
C1614 C1613 1.387 . S
C1614 C1617 1.387 . S
H1615 C1611 0.950 . S
H1616 C1613 0.950 . S
C1617 C1608 1.390 . S
C1617 H1610 0.950 . S
C1617 C1614 1.387 . S
C1618 C1619 1.387 . S
C1618 H1622 0.950 . S
C1618 C1627 1.390 . S
C1619 C1618 1.387 . S
C1619 C1621 1.387 . S
H1620 C1627 0.950 . S
C1621 C1619 1.387 . S
C1621 C1623 1.390 . S
C1621 H1625 0.950 . S
H1622 C1618 0.950 . S
C1623 C1621 1.390 . S
C1623 C1624 1.387 . S
C1623 H1626 0.950 . S
C1624 C1623 1.387 . S
C1624 C1627 1.387 . S
H1625 C1621 0.950 . S
H1626 C1623 0.950 . S
C1627 C1618 1.390 . S
C1627 H1620 0.950 . S
C1627 C1624 1.387 . S
C1628 C1629 1.387 . S
C1628 H1632 0.950 . S
C1628 C1637 1.390 . S
C1629 C1628 1.387 . S
C1629 C1631 1.387 . S
H1630 C1637 0.950 . S
C1631 C1629 1.387 . S
C1631 C1633 1.390 . S
C1631 H1635 0.950 . S
H1632 C1628 0.950 . S
C1633 C1631 1.390 . S
C1633 C1634 1.387 . S
C1633 H1636 0.950 . S
C1634 C1633 1.387 . S
C1634 C1637 1.387 . S
H1635 C1631 0.950 . S
H1636 C1633 0.950 . S
C1637 C1628 1.390 . S
C1637 H1630 0.950 . S
C1637 C1634 1.387 . S
C1638 C1639 1.387 . S
C1638 H1642 0.950 . S
C1638 C1647 1.390 . S
C1639 C1638 1.387 . S
C1639 C1641 1.387 . S
H1640 C1647 0.950 . S
C1641 C1639 1.387 . S
C1641 C1643 1.390 . S
C1641 H1645 0.950 . S
H1642 C1638 0.950 . S
C1643 C1641 1.390 . S
C1643 C1644 1.387 . S
C1643 H1646 0.950 . S
C1644 C1643 1.387 . S
C1644 C1647 1.387 . S
H1645 C1641 0.950 . S
H1646 C1643 0.950 . S
C1647 C1638 1.390 . S
C1647 H1640 0.950 . S
C1647 C1644 1.387 . S
C1648 C1649 1.387 . S
C1648 H1652 0.950 . S
C1648 C1657 1.390 . S
C1649 C1648 1.387 . S
C1649 C1651 1.387 . S
H1650 C1657 0.950 . S
C1651 C1649 1.387 . S
C1651 C1653 1.390 . S
C1651 H1655 0.950 . S
H1652 C1648 0.950 . S
C1653 C1651 1.390 . S
C1653 C1654 1.387 . S
C1653 H1656 0.950 . S
C1654 C1653 1.387 . S
C1654 C1657 1.387 . S
H1655 C1651 0.950 . S
H1656 C1653 0.950 . S
C1657 C1648 1.390 . S
C1657 H1650 0.950 . S
C1657 C1654 1.387 . S
C1658 C1659 1.387 . S
C1658 H1662 0.950 . S
C1658 C1667 1.390 . S
C1659 C1658 1.387 . S
C1659 C1661 1.387 . S
H1660 C1667 0.950 . S
C1661 C1659 1.387 . S
C1661 C1663 1.390 . S
C1661 H1665 0.950 . S
H1662 C1658 0.950 . S
C1663 C1661 1.390 . S
C1663 C1664 1.387 . S
C1663 H1666 0.950 . S
C1664 C1663 1.387 . S
C1664 C1667 1.387 . S
H1665 C1661 0.950 . S
H1666 C1663 0.950 . S
C1667 C1658 1.390 . S
C1667 H1660 0.950 . S
C1667 C1664 1.387 . S
C1668 C1669 1.387 . S
C1668 H1672 0.950 . S
C1668 C1677 1.390 . S
C1669 C1668 1.387 . S
C1669 C1671 1.387 . S
H1670 C1677 0.950 . S
C1671 C1669 1.387 . S
C1671 C1673 1.390 . S
C1671 H1675 0.950 . S
H1672 C1668 0.950 . S
C1673 C1671 1.390 . S
C1673 C1674 1.387 . S
C1673 H1676 0.950 . S
C1674 C1673 1.387 . S
C1674 C1677 1.387 . S
H1675 C1671 0.950 . S
H1676 C1673 0.950 . S
C1677 C1668 1.390 . S
C1677 H1670 0.950 . S
C1677 C1674 1.387 . S
C1678 C1679 1.387 . S
C1678 H1682 0.950 . S
C1678 C1687 1.390 . S
C1679 C1678 1.387 . S
C1679 C1681 1.387 . S
H1680 C1687 0.950 . S
C1681 C1679 1.387 . S
C1681 C1683 1.390 . S
C1681 H1685 0.950 . S
H1682 C1678 0.950 . S
C1683 C1681 1.390 . S
C1683 C1684 1.387 . S
C1683 H1686 0.950 . S
C1684 C1683 1.387 . S
C1684 C1687 1.387 . S
H1685 C1681 0.950 . S
H1686 C1683 0.950 . S
C1687 C1678 1.390 . S
C1687 H1680 0.950 . S
C1687 C1684 1.387 . S
C1688 C1689 1.387 . S
C1688 H1692 0.950 . S
C1688 C1697 1.390 . S
C1689 C1688 1.387 . S
C1689 C1691 1.387 . S
H1690 C1697 0.950 . S
C1691 C1689 1.387 . S
C1691 C1693 1.390 . S
C1691 H1695 0.950 . S
H1692 C1688 0.950 . S
C1693 C1691 1.390 . S
C1693 C1694 1.387 . S
C1693 H1696 0.950 . S
C1694 C1693 1.387 . S
C1694 C1697 1.387 . S
H1695 C1691 0.950 . S
H1696 C1693 0.950 . S
C1697 C1688 1.390 . S
C1697 H1690 0.950 . S
C1697 C1694 1.387 . S
C1698 C1699 1.387 . S
C1698 H1702 0.950 . S
C1698 C1707 1.390 . S
C1699 C1698 1.387 . S
C1699 C1701 1.387 . S
H1700 C1707 0.950 . S
C1701 C1699 1.387 . S
C1701 C1703 1.390 . S
C1701 H1705 0.950 . S
H1702 C1698 0.950 . S
C1703 C1701 1.390 . S
C1703 C1704 1.387 . S
C1703 H1706 0.950 . S
C1704 C1703 1.387 . S
C1704 C1707 1.387 . S
H1705 C1701 0.950 . S
H1706 C1703 0.950 . S
C1707 C1698 1.390 . S
C1707 H1700 0.950 . S
C1707 C1704 1.387 . S
C1708 C1709 1.387 . S
C1708 H1712 0.950 . S
C1708 C1717 1.390 . S
C1709 C1708 1.387 . S
C1709 C1711 1.387 . S
H1710 C1717 0.950 . S
C1711 C1709 1.387 . S
C1711 C1713 1.390 . S
C1711 H1715 0.950 . S
H1712 C1708 0.950 . S
C1713 C1711 1.390 . S
C1713 C1714 1.387 . S
C1713 H1716 0.950 . S
C1714 C1713 1.387 . S
C1714 C1717 1.387 . S
H1715 C1711 0.950 . S
H1716 C1713 0.950 . S
C1717 C1708 1.390 . S
C1717 H1710 0.950 . S
C1717 C1714 1.387 . S
C1718 C1719 1.387 . S
C1718 H1722 0.950 . S
C1718 C1727 1.390 . S
C1719 C1718 1.387 . S
C1719 C1721 1.387 . S
H1720 C1727 0.950 . S
C1721 C1719 1.387 . S
C1721 C1723 1.390 . S
C1721 H1725 0.950 . S
H1722 C1718 0.950 . S
C1723 C1721 1.390 . S
C1723 C1724 1.387 . S
C1723 H1726 0.950 . S
C1724 C1723 1.387 . S
C1724 C1727 1.387 . S
H1725 C1721 0.950 . S
H1726 C1723 0.950 . S
C1727 C1718 1.390 . S
C1727 H1720 0.950 . S
C1727 C1724 1.387 . S
C1728 C1729 1.387 . S
C1728 H1732 0.950 . S
C1728 C1737 1.390 . S
C1729 C1728 1.387 . S
C1729 C1731 1.387 . S
H1730 C1737 0.950 . S
C1731 C1729 1.387 . S
C1731 C1733 1.390 . S
C1731 H1735 0.950 . S
H1732 C1728 0.950 . S
C1733 C1731 1.390 . S
C1733 C1734 1.387 . S
C1733 H1736 0.950 . S
C1734 C1733 1.387 . S
C1734 C1737 1.387 . S
H1735 C1731 0.950 . S
H1736 C1733 0.950 . S
C1737 C1728 1.390 . S
C1737 H1730 0.950 . S
C1737 C1734 1.387 . S
C1738 C1739 1.387 . S
C1738 H1742 0.950 . S
C1738 C1747 1.390 . S
C1739 C1738 1.387 . S
C1739 C1741 1.387 . S
H1740 C1747 0.950 . S
C1741 C1739 1.387 . S
C1741 C1743 1.390 . S
C1741 H1745 0.950 . S
H1742 C1738 0.950 . S
C1743 C1741 1.390 . S
C1743 C1744 1.387 . S
C1743 H1746 0.950 . S
C1744 C1743 1.387 . S
C1744 C1747 1.387 . S
H1745 C1741 0.950 . S
H1746 C1743 0.950 . S
C1747 C1738 1.390 . S
C1747 H1740 0.950 . S
C1747 C1744 1.387 . S
C1748 C1749 1.387 . S
C1748 H1752 0.950 . S
C1748 C1757 1.390 . S
C1749 C1748 1.387 . S
C1749 C1751 1.387 . S
H1750 C1757 0.950 . S
C1751 C1749 1.387 . S
C1751 C1753 1.390 . S
C1751 H1755 0.950 . S
H1752 C1748 0.950 . S
C1753 C1751 1.390 . S
C1753 C1754 1.387 . S
C1753 H1756 0.950 . S
C1754 C1753 1.387 . S
C1754 C1757 1.387 . S
H1755 C1751 0.950 . S
H1756 C1753 0.950 . S
C1757 C1748 1.390 . S
C1757 H1750 0.950 . S
C1757 C1754 1.387 . S
C1758 C1759 1.387 . S
C1758 H1762 0.950 . S
C1758 C1767 1.390 . S
C1759 C1758 1.387 . S
C1759 C1761 1.387 . S
H1760 C1767 0.950 . S
C1761 C1759 1.387 . S
C1761 C1763 1.390 . S
C1761 H1765 0.950 1_554 S
H1762 C1758 0.950 . S
C1763 C1761 1.390 . S
C1763 C1764 1.387 . S
C1763 H1766 0.950 . S
C1764 C1763 1.387 . S
C1764 C1767 1.387 . S
H1765 C1761 0.950 1_556 S
H1766 C1763 0.950 . S
C1767 C1758 1.390 . S
C1767 H1760 0.950 . S
C1767 C1764 1.387 . S
C1768 C1769 1.387 . S
C1768 H1772 0.950 . S
C1768 C1777 1.390 . S
C1769 C1768 1.387 . S
C1769 C1771 1.387 . S
H1770 C1777 0.950 . S
C1771 C1769 1.387 . S
C1771 C1773 1.390 . S
C1771 H1775 0.950 . S
H1772 C1768 0.950 . S
C1773 C1771 1.390 . S
C1773 C1774 1.387 . S
C1773 H1776 0.950 . S
C1774 C1773 1.387 . S
C1774 C1777 1.387 . S
H1775 C1771 0.950 . S
H1776 C1773 0.950 . S
C1777 C1768 1.390 . S
C1777 H1770 0.950 . S
C1777 C1774 1.387 . S
C1778 C1779 1.387 . S
C1778 H1782 0.950 . S
C1778 C1787 1.390 . S
C1779 C1778 1.387 . S
C1779 C1781 1.387 . S
H1780 C1787 0.950 . S
C1781 C1779 1.387 . S
C1781 C1783 1.390 . S
C1781 H1785 0.950 . S
H1782 C1778 0.950 . S
C1783 C1781 1.390 . S
C1783 C1784 1.387 . S
C1783 H1786 0.950 . S
C1784 C1783 1.387 . S
C1784 C1787 1.387 . S
H1785 C1781 0.950 . S
H1786 C1783 0.950 . S
C1787 C1778 1.390 . S
C1787 H1780 0.950 . S
C1787 C1784 1.387 . S
C1788 C1789 1.387 . S
C1788 H1792 0.950 . S
C1788 C1797 1.390 . S
C1789 C1788 1.387 . S
C1789 C1791 1.387 . S
H1790 C1797 0.950 . S
C1791 C1789 1.387 . S
C1791 C1793 1.390 . S
C1791 H1795 0.950 . S
H1792 C1788 0.950 . S
C1793 C1791 1.390 . S
C1793 C1794 1.387 . S
C1793 H1796 0.950 . S
C1794 C1793 1.387 . S
C1794 C1797 1.387 . S
H1795 C1791 0.950 . S
H1796 C1793 0.950 . S
C1797 C1788 1.390 . S
C1797 H1790 0.950 . S
C1797 C1794 1.387 . S
C1798 C1799 1.387 . S
C1798 H1802 0.950 . S
C1798 C1807 1.390 . S
C1799 C1798 1.387 . S
C1799 C1801 1.387 . S
H1800 C1807 0.950 . S
C1801 C1799 1.387 . S
C1801 C1803 1.390 . S
C1801 H1805 0.950 . S
H1802 C1798 0.950 . S
C1803 C1801 1.390 . S
C1803 C1804 1.387 . S
C1803 H1806 0.950 1_556 S
C1804 C1803 1.387 . S
C1804 C1807 1.387 . S
H1805 C1801 0.950 . S
H1806 C1803 0.950 1_554 S
C1807 C1798 1.390 . S
C1807 H1800 0.950 . S
C1807 C1804 1.387 . S
C1808 C1809 1.387 . S
C1808 H1812 0.950 . S
C1808 C1817 1.390 . S
C1809 C1808 1.387 . S
C1809 C1811 1.387 . S
H1810 C1817 0.950 . S
C1811 C1809 1.387 . S
C1811 C1813 1.390 . S
C1811 H1815 0.950 . S
H1812 C1808 0.950 . S
C1813 C1811 1.390 . S
C1813 C1814 1.387 . S
C1813 H1816 0.950 . S
C1814 C1813 1.387 . S
C1814 C1817 1.387 . S
H1815 C1811 0.950 . S
H1816 C1813 0.950 . S
C1817 C1808 1.390 . S
C1817 H1810 0.950 . S
C1817 C1814 1.387 . S
C1818 C1819 1.387 . S
C1818 H1822 0.950 . S
C1818 C1827 1.390 . S
C1819 C1818 1.387 . S
C1819 C1821 1.387 . S
H1820 C1827 0.950 . S
C1821 C1819 1.387 . S
C1821 C1823 1.390 . S
C1821 H1825 0.950 . S
H1822 C1818 0.950 . S
C1823 C1821 1.390 . S
C1823 C1824 1.387 . S
C1823 H1826 0.950 . S
C1824 C1823 1.387 . S
C1824 C1827 1.387 . S
H1825 C1821 0.950 . S
H1826 C1823 0.950 . S
C1827 C1818 1.390 . S
C1827 H1820 0.950 . S
C1827 C1824 1.387 . S
C1828 C1829 1.387 . S
C1828 H1832 0.950 1_545 S
C1828 C1837 1.390 . S
C1829 C1828 1.387 . S
C1829 C1831 1.387 . S
H1830 C1837 0.950 . S
C1831 C1829 1.387 . S
C1831 C1833 1.390 . S
C1831 H1835 0.950 . S
H1832 C1828 0.950 1_565 S
C1833 C1831 1.390 . S
C1833 C1834 1.387 . S
C1833 H1836 0.950 . S
C1834 C1833 1.387 . S
C1834 C1837 1.387 . S
H1835 C1831 0.950 . S
H1836 C1833 0.950 . S
C1837 C1828 1.390 . S
C1837 H1830 0.950 . S
C1837 C1834 1.387 . S
C1838 C1839 1.387 . S
C1838 H1842 0.950 . S
C1838 C1847 1.390 . S
C1839 C1838 1.387 . S
C1839 C1841 1.387 . S
H1840 C1847 0.950 . S
C1841 C1839 1.387 . S
C1841 C1843 1.390 . S
C1841 H1845 0.950 . S
H1842 C1838 0.950 . S
C1843 C1841 1.390 . S
C1843 C1844 1.387 . S
C1843 H1846 0.950 1_565 S
C1844 C1843 1.387 . S
C1844 C1847 1.387 . S
H1845 C1841 0.950 . S
H1846 C1843 0.950 1_545 S
C1847 C1838 1.390 . S
C1847 H1840 0.950 . S
C1847 C1844 1.387 . S
C1848 C1849 1.387 . S
C1848 H1852 0.950 . S
C1848 C1857 1.390 . S
C1849 C1848 1.387 . S
C1849 C1851 1.387 . S
H1850 C1857 0.950 . S
C1851 C1849 1.387 . S
C1851 C1853 1.390 . S
C1851 H1855 0.950 . S
H1852 C1848 0.950 . S
C1853 C1851 1.390 . S
C1853 C1854 1.387 . S
C1853 H1856 0.950 1_554 S
C1854 C1853 1.387 . S
C1854 C1857 1.387 . S
H1855 C1851 0.950 . S
H1856 C1853 0.950 1_556 S
C1857 C1848 1.390 . S
C1857 H1850 0.950 . S
C1857 C1854 1.387 . S
C1858 C1859 1.387 . S
C1858 H1862 0.950 . S
C1858 C1867 1.390 . S
C1859 C1858 1.387 . S
C1859 C1861 1.387 . S
H1860 C1867 0.950 . S
C1861 C1859 1.387 . S
C1861 C1863 1.390 . S
C1861 H1865 0.950 . S
H1862 C1858 0.950 . S
C1863 C1861 1.390 . S
C1863 C1864 1.387 . S
C1863 H1866 0.950 . S
C1864 C1863 1.387 . S
C1864 C1867 1.387 . S
H1865 C1861 0.950 . S
H1866 C1863 0.950 . S
C1867 C1858 1.390 . S
C1867 H1860 0.950 . S
C1867 C1864 1.387 . S
C1868 C1869 1.387 . S
C1868 H1872 0.950 . S
C1868 C1877 1.390 . S
C1869 C1868 1.387 . S
C1869 C1871 1.387 . S
H1870 C1877 0.950 . S
C1871 C1869 1.387 . S
C1871 C1873 1.390 . S
C1871 H1875 0.950 . S
H1872 C1868 0.950 . S
C1873 C1871 1.390 . S
C1873 C1874 1.387 . S
C1873 H1876 0.950 . S
C1874 C1873 1.387 . S
C1874 C1877 1.387 . S
H1875 C1871 0.950 . S
H1876 C1873 0.950 . S
C1877 C1868 1.390 . S
C1877 H1870 0.950 . S
C1877 C1874 1.387 . S
C1878 C1879 1.387 . S
C1878 H1882 0.950 1_455 S
C1878 C1887 1.390 . S
C1879 C1878 1.387 . S
C1879 C1881 1.387 . S
H1880 C1887 0.950 . S
C1881 C1879 1.387 . S
C1881 C1883 1.390 . S
C1881 H1885 0.950 . S
H1882 C1878 0.950 1_655 S
C1883 C1881 1.390 . S
C1883 C1884 1.387 . S
C1883 H1886 0.950 . S
C1884 C1883 1.387 . S
C1884 C1887 1.387 . S
H1885 C1881 0.950 . S
H1886 C1883 0.950 . S
C1887 C1878 1.390 . S
C1887 H1880 0.950 . S
C1887 C1884 1.387 . S
C1888 C1889 1.387 . S
C1888 H1892 0.950 . S
C1888 C1897 1.390 . S
C1889 C1888 1.387 . S
C1889 C1891 1.387 . S
H1890 C1897 0.950 . S
C1891 C1889 1.387 . S
C1891 C1893 1.390 . S
C1891 H1895 0.950 . S
H1892 C1888 0.950 . S
C1893 C1891 1.390 . S
C1893 C1894 1.387 . S
C1893 H1896 0.950 . S
C1894 C1893 1.387 . S
C1894 C1897 1.387 . S
H1895 C1891 0.950 . S
H1896 C1893 0.950 . S
C1897 C1888 1.390 . S
C1897 H1890 0.950 . S
C1897 C1894 1.387 . S
C1898 C1899 1.387 . S
C1898 H1902 0.950 . S
C1898 C1907 1.390 . S
C1899 C1898 1.387 . S
C1899 C1901 1.387 . S
H1900 C1907 0.950 . S
C1901 C1899 1.387 . S
C1901 C1903 1.390 . S
C1901 H1905 0.950 1_455 S
H1902 C1898 0.950 . S
C1903 C1901 1.390 . S
C1903 C1904 1.387 . S
C1903 H1906 0.950 . S
C1904 C1903 1.387 . S
C1904 C1907 1.387 . S
H1905 C1901 0.950 1_655 S
H1906 C1903 0.950 . S
C1907 C1898 1.390 . S
C1907 H1900 0.950 . S
C1907 C1904 1.387 . S
C1908 C1909 1.387 . S
C1908 H1912 0.950 . S
C1908 C1917 1.390 . S
C1909 C1908 1.387 . S
C1909 C1911 1.387 . S
H1910 C1917 0.950 . S
C1911 C1909 1.387 . S
C1911 C1913 1.390 . S
C1911 H1915 0.950 . S
H1912 C1908 0.950 . S
C1913 C1911 1.390 . S
C1913 C1914 1.387 . S
C1913 H1916 0.950 . S
C1914 C1913 1.387 . S
C1914 C1917 1.387 . S
H1915 C1911 0.950 . S
H1916 C1913 0.950 . S
C1917 C1908 1.390 . S
C1917 H1910 0.950 . S
C1917 C1914 1.387 . S
C1918 C1919 1.387 . S
C1918 H1922 0.950 . S
C1918 C1927 1.390 . S
C1919 C1918 1.387 . S
C1919 C1921 1.387 . S
H1920 C1927 0.950 . S
C1921 C1919 1.387 . S
C1921 C1923 1.390 . S
C1921 H1925 0.950 . S
H1922 C1918 0.950 . S
C1923 C1921 1.390 . S
C1923 C1924 1.387 . S
C1923 H1926 0.950 . S
C1924 C1923 1.387 . S
C1924 C1927 1.387 . S
H1925 C1921 0.950 . S
H1926 C1923 0.950 . S
C1927 C1918 1.390 . S
C1927 H1920 0.950 . S
C1927 C1924 1.387 . S
C1928 C1929 1.387 . S
C1928 H1932 0.950 1_556 S
C1928 C1937 1.390 . S
C1929 C1928 1.387 . S
C1929 C1931 1.387 . S
H1930 C1937 0.950 . S
C1931 C1929 1.387 . S
C1931 C1933 1.390 . S
C1931 H1935 0.950 . S
H1932 C1928 0.950 1_554 S
C1933 C1931 1.390 . S
C1933 C1934 1.387 . S
C1933 H1936 0.950 . S
C1934 C1933 1.387 . S
C1934 C1937 1.387 . S
H1935 C1931 0.950 . S
H1936 C1933 0.950 . S
C1937 C1928 1.390 . S
C1937 H1930 0.950 . S
C1937 C1934 1.387 . S
C1938 C1939 1.387 . S
C1938 H1942 0.950 . S
C1938 C1947 1.390 . S
C1939 C1938 1.387 . S
C1939 C1941 1.387 . S
H1940 C1947 0.950 . S
C1941 C1939 1.387 . S
C1941 C1943 1.390 . S
C1941 H1945 0.950 . S
H1942 C1938 0.950 . S
C1943 C1941 1.390 . S
C1943 C1944 1.387 . S
C1943 H1946 0.950 . S
C1944 C1943 1.387 . S
C1944 C1947 1.387 . S
H1945 C1941 0.950 . S
H1946 C1943 0.950 . S
C1947 C1938 1.390 . S
C1947 H1940 0.950 . S
C1947 C1944 1.387 . S
C1948 C1949 1.387 . S
C1948 H1952 0.950 . S
C1948 C1957 1.390 . S
C1949 C1948 1.387 . S
C1949 C1951 1.387 . S
H1950 C1957 0.950 . S
C1951 C1949 1.387 . S
C1951 C1953 1.390 . S
C1951 H1955 0.950 . S
H1952 C1948 0.950 . S
C1953 C1951 1.390 . S
C1953 C1954 1.387 . S
C1953 H1956 0.950 . S
C1954 C1953 1.387 . S
C1954 C1957 1.387 . S
H1955 C1951 0.950 . S
H1956 C1953 0.950 . S
C1957 C1948 1.390 . S
C1957 H1950 0.950 . S
C1957 C1954 1.387 . S
C1958 C1959 1.387 . S
C1958 H1962 0.950 . S
C1958 C1967 1.390 . S
C1959 C1958 1.387 . S
C1959 C1961 1.387 . S
H1960 C1967 0.950 . S
C1961 C1959 1.387 . S
C1961 C1963 1.390 . S
C1961 H1965 0.950 . S
H1962 C1958 0.950 . S
C1963 C1961 1.390 . S
C1963 C1964 1.387 . S
C1963 H1966 0.950 . S
C1964 C1963 1.387 . S
C1964 C1967 1.387 . S
H1965 C1961 0.950 . S
H1966 C1963 0.950 . S
C1967 C1958 1.390 . S
C1967 H1960 0.950 . S
C1967 C1964 1.387 . S
C1968 C1969 1.387 . S
C1968 H1972 0.950 . S
C1968 C1977 1.390 . S
C1969 C1968 1.387 . S
C1969 C1971 1.387 . S
H1970 C1977 0.950 . S
C1971 C1969 1.387 . S
C1971 C1973 1.390 . S
C1971 H1975 0.950 . S
H1972 C1968 0.950 . S
C1973 C1971 1.390 . S
C1973 C1974 1.387 . S
C1973 H1976 0.950 . S
C1974 C1973 1.387 . S
C1974 C1977 1.387 . S
H1975 C1971 0.950 . S
H1976 C1973 0.950 . S
C1977 C1968 1.390 . S
C1977 H1970 0.950 . S
C1977 C1974 1.387 . S
C1978 C1979 1.387 . S
C1978 H1982 0.950 . S
C1978 C1987 1.390 . S
C1979 C1978 1.387 . S
C1979 C1981 1.387 . S
H1980 C1987 0.950 . S
C1981 C1979 1.387 . S
C1981 C1983 1.390 . S
C1981 H1985 0.950 . S
H1982 C1978 0.950 . S
C1983 C1981 1.390 . S
C1983 C1984 1.387 . S
C1983 H1986 0.950 1_545 S
C1984 C1983 1.387 . S
C1984 C1987 1.387 . S
H1985 C1981 0.950 . S
H1986 C1983 0.950 1_565 S
C1987 C1978 1.390 . S
C1987 H1980 0.950 . S
C1987 C1984 1.387 . S
C1988 C1989 1.387 . S
C1988 H1992 0.950 . S
C1988 C1997 1.390 . S
C1989 C1988 1.387 . S
C1989 C1991 1.387 . S
H1990 C1997 0.950 . S
C1991 C1989 1.387 . S
C1991 C1993 1.390 . S
C1991 H1995 0.950 . S
H1992 C1988 0.950 . S
C1993 C1991 1.390 . S
C1993 C1994 1.387 . S
C1993 H1996 0.950 1_565 S
C1994 C1993 1.387 . S
C1994 C1997 1.387 . S
H1995 C1991 0.950 . S
H1996 C1993 0.950 1_545 S
C1997 C1988 1.390 . S
C1997 H1990 0.950 . S
C1997 C1994 1.387 . S
C1998 C1999 1.387 . S
C1998 H2002 0.950 . S
C1998 C2007 1.390 . S
C1999 C1998 1.387 . S
C1999 C2001 1.387 . S
H2000 C2007 0.950 1_545 S
C2001 C1999 1.387 . S
C2001 C2003 1.390 . S
C2001 H2005 0.950 . S
H2002 C1998 0.950 . S
C2003 C2001 1.390 . S
C2003 C2004 1.387 . S
C2003 H2006 0.950 . S
C2004 C2003 1.387 . S
C2004 C2007 1.387 . S
H2005 C2001 0.950 . S
H2006 C2003 0.950 . S
C2007 C1998 1.390 . S
C2007 H2000 0.950 1_565 S
C2007 C2004 1.387 . S
C2008 C2009 1.387 . S
C2008 H2012 0.950 . S
C2008 C2017 1.390 . S
C2009 C2008 1.387 . S
C2009 C2011 1.387 . S
H2010 C2017 0.950 1_565 S
C2011 C2009 1.387 . S
C2011 C2013 1.390 . S
C2011 H2015 0.950 . S
H2012 C2008 0.950 . S
C2013 C2011 1.390 . S
C2013 C2014 1.387 . S
C2013 H2016 0.950 . S
C2014 C2013 1.387 . S
C2014 C2017 1.387 . S
H2015 C2011 0.950 . S
H2016 C2013 0.950 . S
C2017 C2008 1.390 . S
C2017 H2010 0.950 1_545 S
C2017 C2014 1.387 . S
C2018 C2019 1.387 . S
C2018 H2022 0.950 . S
C2018 C2027 1.390 . S
C2019 C2018 1.387 . S
C2019 C2021 1.387 . S
H2020 C2027 0.950 . S
C2021 C2019 1.387 . S
C2021 C2023 1.390 . S
C2021 H2025 0.950 . S
H2022 C2018 0.950 . S
C2023 C2021 1.390 . S
C2023 C2024 1.387 . S
C2023 H2026 0.950 1_556 S
C2024 C2023 1.387 . S
C2024 C2027 1.387 . S
H2025 C2021 0.950 . S
H2026 C2023 0.950 1_554 S
C2027 C2018 1.390 . S
C2027 H2020 0.950 . S
C2027 C2024 1.387 . S
C2028 C2029 1.387 . S
C2028 H2032 0.950 . S
C2028 C2037 1.390 . S
C2029 C2028 1.387 . S
C2029 C2031 1.387 . S
H2030 C2037 0.950 1_455 S
C2031 C2029 1.387 . S
C2031 C2033 1.390 . S
C2031 H2035 0.950 . S
H2032 C2028 0.950 . S
C2033 C2031 1.390 . S
C2033 C2034 1.387 . S
C2033 H2036 0.950 . S
C2034 C2033 1.387 . S
C2034 C2037 1.387 . S
H2035 C2031 0.950 . S
H2036 C2033 0.950 . S
C2037 C2028 1.390 . S
C2037 H2030 0.950 1_655 S
C2037 C2034 1.387 . S
C2038 C2039 1.387 . S
C2038 H2042 0.950 . S
C2038 C2047 1.390 . S
C2039 C2038 1.387 . S
C2039 C2041 1.387 . S
H2040 C2047 0.950 . S
C2041 C2039 1.387 . S
C2041 C2043 1.390 . S
C2041 H2045 0.950 . S
H2042 C2038 0.950 . S
C2043 C2041 1.390 . S
C2043 C2044 1.387 . S
C2043 H2046 0.950 . S
C2044 C2043 1.387 . S
C2044 C2047 1.387 . S
H2045 C2041 0.950 . S
H2046 C2043 0.950 . S
C2047 C2038 1.390 . S
C2047 H2040 0.950 . S
C2047 C2044 1.387 . S
C2048 C2049 1.387 . S
C2048 H2052 0.950 . S
C2048 C2057 1.390 . S
C2049 C2048 1.387 . S
C2049 C2051 1.387 . S
H2050 C2057 0.950 . S
C2051 C2049 1.387 . S
C2051 C2053 1.390 . S
C2051 H2055 0.950 . S
H2052 C2048 0.950 . S
C2053 C2051 1.390 . S
C2053 C2054 1.387 . S
C2053 H2056 0.950 . S
C2054 C2053 1.387 . S
C2054 C2057 1.387 . S
H2055 C2051 0.950 . S
H2056 C2053 0.950 . S
C2057 C2048 1.390 . S
C2057 H2050 0.950 . S
C2057 C2054 1.387 . S
C2058 C2059 1.387 . S
C2058 H2062 0.950 . S
C2058 C2067 1.390 . S
C2059 C2058 1.387 . S
C2059 C2061 1.387 . S
H2060 C2067 0.950 . S
C2061 C2059 1.387 . S
C2061 C2063 1.390 . S
C2061 H2065 0.950 . S
H2062 C2058 0.950 . S
C2063 C2061 1.390 . S
C2063 C2064 1.387 . S
C2063 H2066 0.950 . S
C2064 C2063 1.387 . S
C2064 C2067 1.387 . S
H2065 C2061 0.950 . S
H2066 C2063 0.950 . S
C2067 C2058 1.390 . S
C2067 H2060 0.950 . S
C2067 C2064 1.387 . S
C2068 C2069 1.387 . S
C2068 H2072 0.950 . S
C2068 C2077 1.390 . S
C2069 C2068 1.387 . S
C2069 C2071 1.387 . S
H2070 C2077 0.950 . S
C2071 C2069 1.387 . S
C2071 C2073 1.390 . S
C2071 H2075 0.950 . S
H2072 C2068 0.950 . S
C2073 C2071 1.390 . S
C2073 C2074 1.387 . S
C2073 H2076 0.950 . S
C2074 C2073 1.387 . S
C2074 C2077 1.387 . S
H2075 C2071 0.950 . S
H2076 C2073 0.950 . S
C2077 C2068 1.390 . S
C2077 H2070 0.950 . S
C2077 C2074 1.387 . S
C2078 C2079 1.387 . S
C2078 H2082 0.950 1_556 S
C2078 C2087 1.390 . S
C2079 C2078 1.387 . S
C2079 C2081 1.387 . S
H2080 C2087 0.950 . S
C2081 C2079 1.387 . S
C2081 C2083 1.390 . S
C2081 H2085 0.950 . S
H2082 C2078 0.950 1_554 S
C2083 C2081 1.390 . S
C2083 C2084 1.387 . S
C2083 H2086 0.950 . S
C2084 C2083 1.387 . S
C2084 C2087 1.387 . S
H2085 C2081 0.950 . S
H2086 C2083 0.950 . S
C2087 C2078 1.390 . S
C2087 H2080 0.950 . S
C2087 C2084 1.387 . S
C2088 C2089 1.387 . S
C2088 H2092 0.950 . S
C2088 C2097 1.390 . S
C2089 C2088 1.387 . S
C2089 C2091 1.387 . S
H2090 C2097 0.950 . S
C2091 C2089 1.387 . S
C2091 C2093 1.390 . S
C2091 H2095 0.950 . S
H2092 C2088 0.950 . S
C2093 C2091 1.390 . S
C2093 C2094 1.387 . S
C2093 H2096 0.950 . S
C2094 C2093 1.387 . S
C2094 C2097 1.387 . S
H2095 C2091 0.950 . S
H2096 C2093 0.950 . S
C2097 C2088 1.390 . S
C2097 H2090 0.950 . S
C2097 C2094 1.387 . S
C2098 C2099 1.387 . S
C2098 H2102 0.950 . S
C2098 C2107 1.390 . S
C2099 C2098 1.387 . S
C2099 C2101 1.387 . S
H2100 C2107 0.950 . S
C2101 C2099 1.387 . S
C2101 C2103 1.390 . S
C2101 H2105 0.950 . S
H2102 C2098 0.950 . S
C2103 C2101 1.390 . S
C2103 C2104 1.387 . S
C2103 H2106 0.950 . S
C2104 C2103 1.387 . S
C2104 C2107 1.387 . S
H2105 C2101 0.950 . S
H2106 C2103 0.950 . S
C2107 C2098 1.390 . S
C2107 H2100 0.950 . S
C2107 C2104 1.387 . S
C2108 C2109 1.387 . S
C2108 H2112 0.950 . S
C2108 C2117 1.390 . S
C2109 C2108 1.387 . S
C2109 C2111 1.387 . S
H2110 C2117 0.950 . S
C2111 C2109 1.387 . S
C2111 C2113 1.390 . S
C2111 H2115 0.950 . S
H2112 C2108 0.950 . S
C2113 C2111 1.390 . S
C2113 C2114 1.387 . S
C2113 H2116 0.950 . S
C2114 C2113 1.387 . S
C2114 C2117 1.387 . S
H2115 C2111 0.950 . S
H2116 C2113 0.950 . S
C2117 C2108 1.390 . S
C2117 H2110 0.950 . S
C2117 C2114 1.387 . S
C2118 C2119 1.387 . S
C2118 H2122 0.950 . S
C2118 C2127 1.390 . S
C2119 C2118 1.387 . S
C2119 C2121 1.387 . S
H2120 C2127 0.950 . S
C2121 C2119 1.387 . S
C2121 C2123 1.390 . S
C2121 H2125 0.950 . S
H2122 C2118 0.950 . S
C2123 C2121 1.390 . S
C2123 C2124 1.387 . S
C2123 H2126 0.950 . S
C2124 C2123 1.387 . S
C2124 C2127 1.387 . S
H2125 C2121 0.950 . S
H2126 C2123 0.950 . S
C2127 C2118 1.390 . S
C2127 H2120 0.950 . S
C2127 C2124 1.387 . S
C2128 C2129 1.387 . S
C2128 H2132 0.950 . S
C2128 C2137 1.390 . S
C2129 C2128 1.387 . S
C2129 C2131 1.387 . S
H2130 C2137 0.950 . S
C2131 C2129 1.387 . S
C2131 C2133 1.390 . S
C2131 H2135 0.950 . S
H2132 C2128 0.950 . S
C2133 C2131 1.390 . S
C2133 C2134 1.387 . S
C2133 H2136 0.950 . S
C2134 C2133 1.387 . S
C2134 C2137 1.387 . S
H2135 C2131 0.950 . S
H2136 C2133 0.950 . S
C2137 C2128 1.390 . S
C2137 H2130 0.950 . S
C2137 C2134 1.387 . S
C2138 C2139 1.387 . S
C2138 H2142 0.950 . S
C2138 C2147 1.390 . S
C2139 C2138 1.387 . S
C2139 C2141 1.387 . S
H2140 C2147 0.950 . S
C2141 C2139 1.387 . S
C2141 C2143 1.390 . S
C2141 H2145 0.950 . S
H2142 C2138 0.950 . S
C2143 C2141 1.390 . S
C2143 C2144 1.387 . S
C2143 H2146 0.950 . S
C2144 C2143 1.387 . S
C2144 C2147 1.387 . S
H2145 C2141 0.950 . S
H2146 C2143 0.950 . S
C2147 C2138 1.390 . S
C2147 H2140 0.950 . S
C2147 C2144 1.387 . S
C2148 C2149 1.387 . S
C2148 H2152 0.950 . S
C2148 C2157 1.390 . S
C2149 C2148 1.387 . S
C2149 C2151 1.387 . S
H2150 C2157 0.950 . S
C2151 C2149 1.387 . S
C2151 C2153 1.390 . S
C2151 H2155 0.950 . S
H2152 C2148 0.950 . S
C2153 C2151 1.390 . S
C2153 C2154 1.387 . S
C2153 H2156 0.950 . S
C2154 C2153 1.387 . S
C2154 C2157 1.387 . S
H2155 C2151 0.950 . S
H2156 C2153 0.950 . S
C2157 C2148 1.390 . S
C2157 H2150 0.950 . S
C2157 C2154 1.387 . S
C2158 C2159 1.387 . S
C2158 H2162 0.950 . S
C2158 C2167 1.390 . S
C2159 C2158 1.387 . S
C2159 C2161 1.387 . S
H2160 C2167 0.950 . S
C2161 C2159 1.387 . S
C2161 C2163 1.390 . S
C2161 H2165 0.950 . S
H2162 C2158 0.950 . S
C2163 C2161 1.390 . S
C2163 C2164 1.387 . S
C2163 H2166 0.950 . S
C2164 C2163 1.387 . S
C2164 C2167 1.387 . S
H2165 C2161 0.950 . S
H2166 C2163 0.950 . S
C2167 C2158 1.390 . S
C2167 H2160 0.950 . S
C2167 C2164 1.387 . S
C2168 C2169 1.387 . S
C2168 H2172 0.950 . S
C2168 C2177 1.390 . S
C2169 C2168 1.387 . S
C2169 C2171 1.387 . S
H2170 C2177 0.950 . S
C2171 C2169 1.387 . S
C2171 C2173 1.390 . S
C2171 H2175 0.950 . S
H2172 C2168 0.950 . S
C2173 C2171 1.390 . S
C2173 C2174 1.387 . S
C2173 H2176 0.950 . S
C2174 C2173 1.387 . S
C2174 C2177 1.387 . S
H2175 C2171 0.950 . S
H2176 C2173 0.950 . S
C2177 C2168 1.390 . S
C2177 H2170 0.950 . S
C2177 C2174 1.387 . S
C2178 C2179 1.387 . S
C2178 H2182 0.950 . S
C2178 C2187 1.390 . S
C2179 C2178 1.387 . S
C2179 C2181 1.387 . S
H2180 C2187 0.950 . S
C2181 C2179 1.387 . S
C2181 C2183 1.390 . S
C2181 H2185 0.950 . S
H2182 C2178 0.950 . S
C2183 C2181 1.390 . S
C2183 C2184 1.387 . S
C2183 H2186 0.950 . S
C2184 C2183 1.387 . S
C2184 C2187 1.387 . S
H2185 C2181 0.950 . S
H2186 C2183 0.950 . S
C2187 C2178 1.390 . S
C2187 H2180 0.950 . S
C2187 C2184 1.387 . S
C2188 C2189 1.387 . S
C2188 H2192 0.950 . S
C2188 C2197 1.390 . S
C2189 C2188 1.387 . S
C2189 C2191 1.387 . S
H2190 C2197 0.950 . S
C2191 C2189 1.387 . S
C2191 C2193 1.390 . S
C2191 H2195 0.950 . S
H2192 C2188 0.950 . S
C2193 C2191 1.390 . S
C2193 C2194 1.387 . S
C2193 H2196 0.950 . S
C2194 C2193 1.387 . S
C2194 C2197 1.387 . S
H2195 C2191 0.950 . S
H2196 C2193 0.950 . S
C2197 C2188 1.390 . S
C2197 H2190 0.950 . S
C2197 C2194 1.387 . S
C2198 C2199 1.387 . S
C2198 H2202 0.950 . S
C2198 C2207 1.390 . S
C2199 C2198 1.387 . S
C2199 C2201 1.387 . S
H2200 C2207 0.950 . S
C2201 C2199 1.387 . S
C2201 C2203 1.390 . S
C2201 H2205 0.950 . S
H2202 C2198 0.950 . S
C2203 C2201 1.390 . S
C2203 C2204 1.387 . S
C2203 H2206 0.950 . S
C2204 C2203 1.387 . S
C2204 C2207 1.387 . S
H2205 C2201 0.950 . S
H2206 C2203 0.950 . S
C2207 C2198 1.390 . S
C2207 H2200 0.950 . S
C2207 C2204 1.387 . S
C2208 C2209 1.387 . S
C2208 H2212 0.950 . S
C2208 C2217 1.390 . S
C2209 C2208 1.387 . S
C2209 C2211 1.387 . S
H2210 C2217 0.950 . S
C2211 C2209 1.387 . S
C2211 C2213 1.390 . S
C2211 H2215 0.950 . S
H2212 C2208 0.950 . S
C2213 C2211 1.390 . S
C2213 C2214 1.387 . S
C2213 H2216 0.950 . S
C2214 C2213 1.387 . S
C2214 C2217 1.387 . S
H2215 C2211 0.950 . S
H2216 C2213 0.950 . S
C2217 C2208 1.390 . S
C2217 H2210 0.950 . S
C2217 C2214 1.387 . S
C2218 C2219 1.387 . S
C2218 H2222 0.950 . S
C2218 C2227 1.390 . S
C2219 C2218 1.387 . S
C2219 C2221 1.387 . S
H2220 C2227 0.950 . S
C2221 C2219 1.387 . S
C2221 C2223 1.390 . S
C2221 H2225 0.950 . S
H2222 C2218 0.950 . S
C2223 C2221 1.390 . S
C2223 C2224 1.387 . S
C2223 H2226 0.950 . S
C2224 C2223 1.387 . S
C2224 C2227 1.387 . S
H2225 C2221 0.950 . S
H2226 C2223 0.950 . S
C2227 C2218 1.390 . S
C2227 H2220 0.950 . S
C2227 C2224 1.387 . S
C2228 C2229 1.387 . S
C2228 H2232 0.950 . S
C2228 C2237 1.390 . S
C2229 C2228 1.387 . S
C2229 C2231 1.387 . S
H2230 C2237 0.950 . S
C2231 C2229 1.387 . S
C2231 C2233 1.390 . S
C2231 H2235 0.950 . S
H2232 C2228 0.950 . S
C2233 C2231 1.390 . S
C2233 C2234 1.387 . S
C2233 H2236 0.950 . S
C2234 C2233 1.387 . S
C2234 C2237 1.387 . S
H2235 C2231 0.950 . S
H2236 C2233 0.950 . S
C2237 C2228 1.390 . S
C2237 H2230 0.950 . S
C2237 C2234 1.387 . S
C2238 C2239 1.387 . S
C2238 H2242 0.950 . S
C2238 C2247 1.390 . S
C2239 C2238 1.387 . S
C2239 C2241 1.387 . S
H2240 C2247 0.950 . S
C2241 C2239 1.387 . S
C2241 C2243 1.390 . S
C2241 H2245 0.950 . S
H2242 C2238 0.950 . S
C2243 C2241 1.390 . S
C2243 C2244 1.387 . S
C2243 H2246 0.950 . S
C2244 C2243 1.387 . S
C2244 C2247 1.387 . S
H2245 C2241 0.950 . S
H2246 C2243 0.950 . S
C2247 C2238 1.390 . S
C2247 H2240 0.950 . S
C2247 C2244 1.387 . S
C2248 C2249 1.387 . S
C2248 H2252 0.950 . S
C2248 C2257 1.390 . S
C2249 C2248 1.387 . S
C2249 C2251 1.387 . S
H2250 C2257 0.950 . S
C2251 C2249 1.387 . S
C2251 C2253 1.390 . S
C2251 H2255 0.950 . S
H2252 C2248 0.950 . S
C2253 C2251 1.390 . S
C2253 C2254 1.387 . S
C2253 H2256 0.950 . S
C2254 C2253 1.387 . S
C2254 C2257 1.387 . S
H2255 C2251 0.950 . S
H2256 C2253 0.950 . S
C2257 C2248 1.390 . S
C2257 H2250 0.950 . S
C2257 C2254 1.387 . S
C2258 C2259 1.387 . S
C2258 H2262 0.950 . S
C2258 C2267 1.390 . S
C2259 C2258 1.387 . S
C2259 C2261 1.387 . S
H2260 C2267 0.950 . S
C2261 C2259 1.387 . S
C2261 C2263 1.390 . S
C2261 H2265 0.950 . S
H2262 C2258 0.950 . S
C2263 C2261 1.390 . S
C2263 C2264 1.387 . S
C2263 H2266 0.950 . S
C2264 C2263 1.387 . S
C2264 C2267 1.387 . S
H2265 C2261 0.950 . S
H2266 C2263 0.950 . S
C2267 C2258 1.390 . S
C2267 H2260 0.950 . S
C2267 C2264 1.387 . S
C2268 C2269 1.387 . S
C2268 H2272 0.950 . S
C2268 C2277 1.390 . S
C2269 C2268 1.387 . S
C2269 C2271 1.387 . S
H2270 C2277 0.950 . S
C2271 C2269 1.387 . S
C2271 C2273 1.390 . S
C2271 H2275 0.950 . S
H2272 C2268 0.950 . S
C2273 C2271 1.390 . S
C2273 C2274 1.387 . S
C2273 H2276 0.950 . S
C2274 C2273 1.387 . S
C2274 C2277 1.387 . S
H2275 C2271 0.950 . S
H2276 C2273 0.950 . S
C2277 C2268 1.390 . S
C2277 H2270 0.950 . S
C2277 C2274 1.387 . S
C2278 C2279 1.387 . S
C2278 H2282 0.950 . S
C2278 C2287 1.390 . S
C2279 C2278 1.387 . S
C2279 C2281 1.387 . S
H2280 C2287 0.950 . S
C2281 C2279 1.387 . S
C2281 C2283 1.390 . S
C2281 H2285 0.950 . S
H2282 C2278 0.950 . S
C2283 C2281 1.390 . S
C2283 C2284 1.387 . S
C2283 H2286 0.950 . S
C2284 C2283 1.387 . S
C2284 C2287 1.387 . S
H2285 C2281 0.950 . S
H2286 C2283 0.950 . S
C2287 C2278 1.390 . S
C2287 H2280 0.950 . S
C2287 C2284 1.387 . S
C2288 C2289 1.387 . S
C2288 H2292 0.950 . S
C2288 C2297 1.390 . S
C2289 C2288 1.387 . S
C2289 C2291 1.387 . S
H2290 C2297 0.950 . S
C2291 C2289 1.387 . S
C2291 C2293 1.390 . S
C2291 H2295 0.950 . S
H2292 C2288 0.950 . S
C2293 C2291 1.390 . S
C2293 C2294 1.387 . S
C2293 H2296 0.950 . S
C2294 C2293 1.387 . S
C2294 C2297 1.387 . S
H2295 C2291 0.950 . S
H2296 C2293 0.950 . S
C2297 C2288 1.390 . S
C2297 H2290 0.950 . S
C2297 C2294 1.387 . S
C2298 C2299 1.387 . S
C2298 H2302 0.950 . S
C2298 C2307 1.390 . S
C2299 C2298 1.387 . S
C2299 C2301 1.387 . S
H2300 C2307 0.950 . S
C2301 C2299 1.387 . S
C2301 C2303 1.390 . S
C2301 H2305 0.950 . S
H2302 C2298 0.950 . S
C2303 C2301 1.390 . S
C2303 C2304 1.387 . S
C2303 H2306 0.950 . S
C2304 C2303 1.387 . S
C2304 C2307 1.387 . S
H2305 C2301 0.950 . S
H2306 C2303 0.950 . S
C2307 C2298 1.390 . S
C2307 H2300 0.950 . S
C2307 C2304 1.387 . S
C2308 C2309 1.387 . S
C2308 H2312 0.950 . S
C2308 C2317 1.390 . S
C2309 C2308 1.387 . S
C2309 C2311 1.387 . S
H2310 C2317 0.950 . S
C2311 C2309 1.387 . S
C2311 C2313 1.390 . S
C2311 H2315 0.950 . S
H2312 C2308 0.950 . S
C2313 C2311 1.390 . S
C2313 C2314 1.387 . S
C2313 H2316 0.950 . S
C2314 C2313 1.387 . S
C2314 C2317 1.387 . S
H2315 C2311 0.950 . S
H2316 C2313 0.950 . S
C2317 C2308 1.390 . S
C2317 H2310 0.950 . S
C2317 C2314 1.387 . S
C2318 C2319 1.387 . S
C2318 H2322 0.950 . S
C2318 C2327 1.390 . S
C2319 C2318 1.387 . S
C2319 C2321 1.387 . S
H2320 C2327 0.950 . S
C2321 C2319 1.387 . S
C2321 C2323 1.390 . S
C2321 H2325 0.950 . S
H2322 C2318 0.950 . S
C2323 C2321 1.390 . S
C2323 C2324 1.387 . S
C2323 H2326 0.950 . S
C2324 C2323 1.387 . S
C2324 C2327 1.387 . S
H2325 C2321 0.950 . S
H2326 C2323 0.950 . S
C2327 C2318 1.390 . S
C2327 H2320 0.950 . S
C2327 C2324 1.387 . S
C2328 C2329 1.387 . S
C2328 H2332 0.950 . S
C2328 C2337 1.390 . S
C2329 C2328 1.387 . S
C2329 C2331 1.387 . S
H2330 C2337 0.950 . S
C2331 C2329 1.387 . S
C2331 C2333 1.390 . S
C2331 H2335 0.950 . S
H2332 C2328 0.950 . S
C2333 C2331 1.390 . S
C2333 C2334 1.387 . S
C2333 H2336 0.950 . S
C2334 C2333 1.387 . S
C2334 C2337 1.387 . S
H2335 C2331 0.950 . S
H2336 C2333 0.950 . S
C2337 C2328 1.390 . S
C2337 H2330 0.950 . S
C2337 C2334 1.387 . S
C2338 C2339 1.387 . S
C2338 H2342 0.950 . S
C2338 C2347 1.390 . S
C2339 C2338 1.387 . S
C2339 C2341 1.387 . S
H2340 C2347 0.950 . S
C2341 C2339 1.387 . S
C2341 C2343 1.390 . S
C2341 H2345 0.950 . S
H2342 C2338 0.950 . S
C2343 C2341 1.390 . S
C2343 C2344 1.387 . S
C2343 H2346 0.950 . S
C2344 C2343 1.387 . S
C2344 C2347 1.387 . S
H2345 C2341 0.950 . S
H2346 C2343 0.950 . S
C2347 C2338 1.390 . S
C2347 H2340 0.950 . S
C2347 C2344 1.387 . S
C2348 C2349 1.387 . S
C2348 H2352 0.950 . S
C2348 C2357 1.390 . S
C2349 C2348 1.387 . S
C2349 C2351 1.387 . S
H2350 C2357 0.950 . S
C2351 C2349 1.387 . S
C2351 C2353 1.390 . S
C2351 H2355 0.950 . S
H2352 C2348 0.950 . S
C2353 C2351 1.390 . S
C2353 C2354 1.387 . S
C2353 H2356 0.950 . S
C2354 C2353 1.387 . S
C2354 C2357 1.387 . S
H2355 C2351 0.950 . S
H2356 C2353 0.950 . S
C2357 C2348 1.390 . S
C2357 H2350 0.950 . S
C2357 C2354 1.387 . S
C2358 C2359 1.387 . S
C2358 H2362 0.950 . S
C2358 C2367 1.390 . S
C2359 C2358 1.387 . S
C2359 C2361 1.387 . S
H2360 C2367 0.950 . S
C2361 C2359 1.387 . S
C2361 C2363 1.390 . S
C2361 H2365 0.950 . S
H2362 C2358 0.950 . S
C2363 C2361 1.390 . S
C2363 C2364 1.387 . S
C2363 H2366 0.950 . S
C2364 C2363 1.387 . S
C2364 C2367 1.387 . S
H2365 C2361 0.950 . S
H2366 C2363 0.950 . S
C2367 C2358 1.390 . S
C2367 H2360 0.950 . S
C2367 C2364 1.387 . S
C2368 C2369 1.387 . S
C2368 H2372 0.950 . S
C2368 C2377 1.390 . S
C2369 C2368 1.387 . S
C2369 C2371 1.387 . S
H2370 C2377 0.950 . S
C2371 C2369 1.387 . S
C2371 C2373 1.390 . S
C2371 H2375 0.950 . S
H2372 C2368 0.950 . S
C2373 C2371 1.390 . S
C2373 C2374 1.387 . S
C2373 H2376 0.950 . S
C2374 C2373 1.387 . S
C2374 C2377 1.387 . S
H2375 C2371 0.950 . S
H2376 C2373 0.950 . S
C2377 C2368 1.390 . S
C2377 H2370 0.950 . S
C2377 C2374 1.387 . S
C2378 C2379 1.387 . S
C2378 H2382 0.950 . S
C2378 C2387 1.390 . S
C2379 C2378 1.387 . S
C2379 C2381 1.387 . S
H2380 C2387 0.950 . S
C2381 C2379 1.387 . S
C2381 C2383 1.390 . S
C2381 H2385 0.950 . S
H2382 C2378 0.950 . S
C2383 C2381 1.390 . S
C2383 C2384 1.387 . S
C2383 H2386 0.950 . S
C2384 C2383 1.387 . S
C2384 C2387 1.387 . S
H2385 C2381 0.950 . S
H2386 C2383 0.950 . S
C2387 C2378 1.390 . S
C2387 H2380 0.950 . S
C2387 C2384 1.387 . S
C2388 C2389 1.387 . S
C2388 H2392 0.950 . S
C2388 C2397 1.390 . S
C2389 C2388 1.387 . S
C2389 C2391 1.387 . S
H2390 C2397 0.950 . S
C2391 C2389 1.387 . S
C2391 C2393 1.390 . S
C2391 H2395 0.950 . S
H2392 C2388 0.950 . S
C2393 C2391 1.390 . S
C2393 C2394 1.387 . S
C2393 H2396 0.950 . S
C2394 C2393 1.387 . S
C2394 C2397 1.387 . S
H2395 C2391 0.950 . S
H2396 C2393 0.950 . S
C2397 C2388 1.390 . S
C2397 H2390 0.950 . S
C2397 C2394 1.387 . S
C2398 C2399 1.387 . S
C2398 H2402 0.950 . S
C2398 C2407 1.390 . S
C2399 C2398 1.387 . S
C2399 C2401 1.387 . S
H2400 C2407 0.950 . S
C2401 C2399 1.387 . S
C2401 C2403 1.390 . S
C2401 H2405 0.950 . S
H2402 C2398 0.950 . S
C2403 C2401 1.390 . S
C2403 C2404 1.387 . S
C2403 H2406 0.950 . S
C2404 C2403 1.387 . S
C2404 C2407 1.387 . S
H2405 C2401 0.950 . S
H2406 C2403 0.950 . S
C2407 C2398 1.390 . S
C2407 H2400 0.950 . S
C2407 C2404 1.387 . S
C2408 C2409 1.387 . S
C2408 H2412 0.950 . S
C2408 C2417 1.390 . S
C2409 C2408 1.387 . S
C2409 C2411 1.387 . S
H2410 C2417 0.950 . S
C2411 C2409 1.387 . S
C2411 C2413 1.390 . S
C2411 H2415 0.950 . S
H2412 C2408 0.950 . S
C2413 C2411 1.390 . S
C2413 C2414 1.387 . S
C2413 H2416 0.950 . S
C2414 C2413 1.387 . S
C2414 C2417 1.387 . S
H2415 C2411 0.950 . S
H2416 C2413 0.950 . S
C2417 C2408 1.390 . S
C2417 H2410 0.950 . S
C2417 C2414 1.387 . S
C2418 C2419 1.387 . S
C2418 H2422 0.950 . S
C2418 C2427 1.390 . S
C2419 C2418 1.387 . S
C2419 C2421 1.387 . S
H2420 C2427 0.950 . S
C2421 C2419 1.387 . S
C2421 C2423 1.390 . S
C2421 H2425 0.950 . S
H2422 C2418 0.950 . S
C2423 C2421 1.390 . S
C2423 C2424 1.387 . S
C2423 H2426 0.950 . S
C2424 C2423 1.387 . S
C2424 C2427 1.387 . S
H2425 C2421 0.950 . S
H2426 C2423 0.950 . S
C2427 C2418 1.390 . S
C2427 H2420 0.950 . S
C2427 C2424 1.387 . S
C2428 C2429 1.387 . S
C2428 H2432 0.950 . S
C2428 C2437 1.390 . S
C2429 C2428 1.387 . S
C2429 C2431 1.387 . S
H2430 C2437 0.950 . S
C2431 C2429 1.387 . S
C2431 C2433 1.390 . S
C2431 H2435 0.950 . S
H2432 C2428 0.950 . S
C2433 C2431 1.390 . S
C2433 C2434 1.387 . S
C2433 H2436 0.950 . S
C2434 C2433 1.387 . S
C2434 C2437 1.387 . S
H2435 C2431 0.950 . S
H2436 C2433 0.950 . S
C2437 C2428 1.390 . S
C2437 H2430 0.950 . S
C2437 C2434 1.387 . S
C2438 C2439 1.387 . S
C2438 H2442 0.950 . S
C2438 C2447 1.390 . S
C2439 C2438 1.387 . S
C2439 C2441 1.387 . S
H2440 C2447 0.950 . S
C2441 C2439 1.387 . S
C2441 C2443 1.390 . S
C2441 H2445 0.950 . S
H2442 C2438 0.950 . S
C2443 C2441 1.390 . S
C2443 C2444 1.387 . S
C2443 H2446 0.950 . S
C2444 C2443 1.387 . S
C2444 C2447 1.387 . S
H2445 C2441 0.950 . S
H2446 C2443 0.950 . S
C2447 C2438 1.390 . S
C2447 H2440 0.950 . S
C2447 C2444 1.387 . S
C2448 C2449 1.387 . S
C2448 H2452 0.950 . S
C2448 C2457 1.390 . S
C2449 C2448 1.387 . S
C2449 C2451 1.387 . S
H2450 C2457 0.950 . S
C2451 C2449 1.387 . S
C2451 C2453 1.390 . S
C2451 H2455 0.950 . S
H2452 C2448 0.950 . S
C2453 C2451 1.390 . S
C2453 C2454 1.387 . S
C2453 H2456 0.950 . S
C2454 C2453 1.387 . S
C2454 C2457 1.387 . S
H2455 C2451 0.950 . S
H2456 C2453 0.950 . S
C2457 C2448 1.390 . S
C2457 H2450 0.950 . S
C2457 C2454 1.387 . S
C2458 C2459 1.387 . S
C2458 H2462 0.950 . S
C2458 C2467 1.390 . S
C2459 C2458 1.387 . S
C2459 C2461 1.387 . S
H2460 C2467 0.950 . S
C2461 C2459 1.387 . S
C2461 C2463 1.390 . S
C2461 H2465 0.950 . S
H2462 C2458 0.950 . S
C2463 C2461 1.390 . S
C2463 C2464 1.387 . S
C2463 H2466 0.950 . S
C2464 C2463 1.387 . S
C2464 C2467 1.387 . S
H2465 C2461 0.950 . S
H2466 C2463 0.950 . S
C2467 C2458 1.390 . S
C2467 H2460 0.950 . S
C2467 C2464 1.387 . S
C2468 C2469 1.387 . S
C2468 H2472 0.950 . S
C2468 C2477 1.390 . S
C2469 C2468 1.387 . S
C2469 C2471 1.387 . S
H2470 C2477 0.950 . S
C2471 C2469 1.387 . S
C2471 C2473 1.390 . S
C2471 H2475 0.950 . S
H2472 C2468 0.950 . S
C2473 C2471 1.390 . S
C2473 C2474 1.387 . S
C2473 H2476 0.950 . S
C2474 C2473 1.387 . S
C2474 C2477 1.387 . S
H2475 C2471 0.950 . S
H2476 C2473 0.950 . S
C2477 C2468 1.390 . S
C2477 H2470 0.950 . S
C2477 C2474 1.387 . S
C2478 C2479 1.387 . S
C2478 H2482 0.950 . S
C2478 C2487 1.390 . S
C2479 C2478 1.387 . S
C2479 C2481 1.387 . S
H2480 C2487 0.950 . S
C2481 C2479 1.387 . S
C2481 C2483 1.390 . S
C2481 H2485 0.950 . S
H2482 C2478 0.950 . S
C2483 C2481 1.390 . S
C2483 C2484 1.387 . S
C2483 H2486 0.950 . S
C2484 C2483 1.387 . S
C2484 C2487 1.387 . S
H2485 C2481 0.950 . S
H2486 C2483 0.950 . S
C2487 C2478 1.390 . S
C2487 H2480 0.950 . S
C2487 C2484 1.387 . S
C2488 C2489 1.387 . S
C2488 H2492 0.950 . S
C2488 C2497 1.390 . S
C2489 C2488 1.387 . S
C2489 C2491 1.387 . S
H2490 C2497 0.950 . S
C2491 C2489 1.387 . S
C2491 C2493 1.390 . S
C2491 H2495 0.950 . S
H2492 C2488 0.950 . S
C2493 C2491 1.390 . S
C2493 C2494 1.387 . S
C2493 H2496 0.950 . S
C2494 C2493 1.387 . S
C2494 C2497 1.387 . S
H2495 C2491 0.950 . S
H2496 C2493 0.950 . S
C2497 C2488 1.390 . S
C2497 H2490 0.950 . S
C2497 C2494 1.387 . S
C2498 C2499 1.387 . S
C2498 H2502 0.950 . S
C2498 C2507 1.390 . S
C2499 C2498 1.387 . S
C2499 C2501 1.387 . S
H2500 C2507 0.950 . S
C2501 C2499 1.387 . S
C2501 C2503 1.390 . S
C2501 H2505 0.950 . S
H2502 C2498 0.950 . S
C2503 C2501 1.390 . S
C2503 C2504 1.387 . S
C2503 H2506 0.950 . S
C2504 C2503 1.387 . S
C2504 C2507 1.387 . S
H2505 C2501 0.950 . S
H2506 C2503 0.950 . S
C2507 C2498 1.390 . S
C2507 H2500 0.950 . S
C2507 C2504 1.387 . S
C2508 C2509 1.387 . S
C2508 H2512 0.950 . S
C2508 C2517 1.390 . S
C2509 C2508 1.387 . S
C2509 C2511 1.387 . S
H2510 C2517 0.950 . S
C2511 C2509 1.387 . S
C2511 C2513 1.390 . S
C2511 H2515 0.950 . S
H2512 C2508 0.950 . S
C2513 C2511 1.390 . S
C2513 C2514 1.387 . S
C2513 H2516 0.950 . S
C2514 C2513 1.387 . S
C2514 C2517 1.387 . S
H2515 C2511 0.950 . S
H2516 C2513 0.950 . S
C2517 C2508 1.390 . S
C2517 H2510 0.950 . S
C2517 C2514 1.387 . S
C2518 C2519 1.387 . S
C2518 H2522 0.950 . S
C2518 C2527 1.390 . S
C2519 C2518 1.387 . S
C2519 C2521 1.387 . S
H2520 C2527 0.950 . S
C2521 C2519 1.387 . S
C2521 C2523 1.390 . S
C2521 H2525 0.950 . S
H2522 C2518 0.950 . S
C2523 C2521 1.390 . S
C2523 C2524 1.387 . S
C2523 H2526 0.950 . S
C2524 C2523 1.387 . S
C2524 C2527 1.387 . S
H2525 C2521 0.950 . S
H2526 C2523 0.950 . S
C2527 C2518 1.390 . S
C2527 H2520 0.950 . S
C2527 C2524 1.387 . S
C2528 C2529 1.387 . S
C2528 H2532 0.950 . S
C2528 C2537 1.390 . S
C2529 C2528 1.387 . S
C2529 C2531 1.387 . S
H2530 C2537 0.950 . S
C2531 C2529 1.387 . S
C2531 C2533 1.390 . S
C2531 H2535 0.950 . S
H2532 C2528 0.950 . S
C2533 C2531 1.390 . S
C2533 C2534 1.387 . S
C2533 H2536 0.950 . S
C2534 C2533 1.387 . S
C2534 C2537 1.387 . S
H2535 C2531 0.950 . S
H2536 C2533 0.950 . S
C2537 C2528 1.390 . S
C2537 H2530 0.950 . S
C2537 C2534 1.387 . S
C2538 C2539 1.387 . S
C2538 H2542 0.950 . S
C2538 C2547 1.390 . S
C2539 C2538 1.387 . S
C2539 C2541 1.387 . S
H2540 C2547 0.950 . S
C2541 C2539 1.387 . S
C2541 C2543 1.390 . S
C2541 H2545 0.950 . S
H2542 C2538 0.950 . S
C2543 C2541 1.390 . S
C2543 C2544 1.387 . S
C2543 H2546 0.950 . S
C2544 C2543 1.387 . S
C2544 C2547 1.387 . S
H2545 C2541 0.950 . S
H2546 C2543 0.950 . S
C2547 C2538 1.390 . S
C2547 H2540 0.950 . S
C2547 C2544 1.387 . S
C2548 C2549 1.387 . S
C2548 H2552 0.950 . S
C2548 C2557 1.390 . S
C2549 C2548 1.387 . S
C2549 C2551 1.387 . S
H2550 C2557 0.950 . S
C2551 C2549 1.387 . S
C2551 C2553 1.390 . S
C2551 H2555 0.950 . S
H2552 C2548 0.950 . S
C2553 C2551 1.390 . S
C2553 C2554 1.387 . S
C2553 H2556 0.950 . S
C2554 C2553 1.387 . S
C2554 C2557 1.387 . S
H2555 C2551 0.950 . S
H2556 C2553 0.950 . S
C2557 C2548 1.390 . S
C2557 H2550 0.950 . S
C2557 C2554 1.387 . S
C2558 C2559 1.387 . S
C2558 H2562 0.950 . S
C2558 C2567 1.390 . S
C2559 C2558 1.387 . S
C2559 C2561 1.387 . S
H2560 C2567 0.950 . S
C2561 C2559 1.387 . S
C2561 C2563 1.390 . S
C2561 H2565 0.950 . S
H2562 C2558 0.950 . S
C2563 C2561 1.390 . S
C2563 C2564 1.387 . S
C2563 H2566 0.950 . S
C2564 C2563 1.387 . S
C2564 C2567 1.387 . S
H2565 C2561 0.950 . S
H2566 C2563 0.950 . S
C2567 C2558 1.390 . S
C2567 H2560 0.950 . S
C2567 C2564 1.387 . S
C2568 C2569 1.387 . S
C2568 H2572 0.950 . S
C2568 C2577 1.390 . S
C2569 C2568 1.387 . S
C2569 C2571 1.387 . S
H2570 C2577 0.950 . S
C2571 C2569 1.387 . S
C2571 C2573 1.390 . S
C2571 H2575 0.950 . S
H2572 C2568 0.950 . S
C2573 C2571 1.390 . S
C2573 C2574 1.387 . S
C2573 H2576 0.950 . S
C2574 C2573 1.387 . S
C2574 C2577 1.387 . S
H2575 C2571 0.950 . S
H2576 C2573 0.950 . S
C2577 C2568 1.390 . S
C2577 H2570 0.950 . S
C2577 C2574 1.387 . S
C2578 C2579 1.387 . S
C2578 H2582 0.950 . S
C2578 C2587 1.390 . S
C2579 C2578 1.387 . S
C2579 C2581 1.387 . S
H2580 C2587 0.950 . S
C2581 C2579 1.387 . S
C2581 C2583 1.390 . S
C2581 H2585 0.950 . S
H2582 C2578 0.950 . S
C2583 C2581 1.390 . S
C2583 C2584 1.387 . S
C2583 H2586 0.950 . S
C2584 C2583 1.387 . S
C2584 C2587 1.387 . S
H2585 C2581 0.950 . S
H2586 C2583 0.950 . S
C2587 C2578 1.390 . S
C2587 H2580 0.950 . S
C2587 C2584 1.387 . S
C2588 C2589 1.387 . S
C2588 H2592 0.950 . S
C2588 C2597 1.390 . S
C2589 C2588 1.387 . S
C2589 C2591 1.387 . S
H2590 C2597 0.950 . S
C2591 C2589 1.387 . S
C2591 C2593 1.390 . S
C2591 H2595 0.950 . S
H2592 C2588 0.950 . S
C2593 C2591 1.390 . S
C2593 C2594 1.387 . S
C2593 H2596 0.950 . S
C2594 C2593 1.387 . S
C2594 C2597 1.387 . S
H2595 C2591 0.950 . S
H2596 C2593 0.950 . S
C2597 C2588 1.390 . S
C2597 H2590 0.950 . S
C2597 C2594 1.387 . S
C2598 C2599 1.387 . S
C2598 H2602 0.950 . S
C2598 C2607 1.390 . S
C2599 C2598 1.387 . S
C2599 C2601 1.387 . S
H2600 C2607 0.950 . S
C2601 C2599 1.387 . S
C2601 C2603 1.390 . S
C2601 H2605 0.950 . S
H2602 C2598 0.950 . S
C2603 C2601 1.390 . S
C2603 C2604 1.387 . S
C2603 H2606 0.950 . S
C2604 C2603 1.387 . S
C2604 C2607 1.387 . S
H2605 C2601 0.950 . S
H2606 C2603 0.950 . S
C2607 C2598 1.390 . S
C2607 H2600 0.950 . S
C2607 C2604 1.387 . S
C2608 C2609 1.387 . S
C2608 H2612 0.950 . S
C2608 C2617 1.390 . S
C2609 C2608 1.387 . S
C2609 C2611 1.387 . S
H2610 C2617 0.950 . S
C2611 C2609 1.387 . S
C2611 C2613 1.390 . S
C2611 H2615 0.950 . S
H2612 C2608 0.950 . S
C2613 C2611 1.390 . S
C2613 C2614 1.387 . S
C2613 H2616 0.950 . S
C2614 C2613 1.387 . S
C2614 C2617 1.387 . S
H2615 C2611 0.950 . S
H2616 C2613 0.950 . S
C2617 C2608 1.390 . S
C2617 H2610 0.950 . S
C2617 C2614 1.387 . S
C2618 C2619 1.387 . S
C2618 H2622 0.950 . S
C2618 C2627 1.390 . S
C2619 C2618 1.387 . S
C2619 C2621 1.387 . S
H2620 C2627 0.950 . S
C2621 C2619 1.387 . S
C2621 C2623 1.390 . S
C2621 H2625 0.950 . S
H2622 C2618 0.950 . S
C2623 C2621 1.390 . S
C2623 C2624 1.387 . S
C2623 H2626 0.950 . S
C2624 C2623 1.387 . S
C2624 C2627 1.387 . S
H2625 C2621 0.950 . S
H2626 C2623 0.950 . S
C2627 C2618 1.390 . S
C2627 H2620 0.950 . S
C2627 C2624 1.387 . S
C2628 C2629 1.387 . S
C2628 H2632 0.950 . S
C2628 C2637 1.390 . S
C2629 C2628 1.387 . S
C2629 C2631 1.387 . S
H2630 C2637 0.950 . S
C2631 C2629 1.387 . S
C2631 C2633 1.390 . S
C2631 H2635 0.950 . S
H2632 C2628 0.950 . S
C2633 C2631 1.390 . S
C2633 C2634 1.387 . S
C2633 H2636 0.950 . S
C2634 C2633 1.387 . S
C2634 C2637 1.387 . S
H2635 C2631 0.950 . S
H2636 C2633 0.950 . S
C2637 C2628 1.390 . S
C2637 H2630 0.950 . S
C2637 C2634 1.387 . S
C2638 C2639 1.387 . S
C2638 H2642 0.950 . S
C2638 C2647 1.390 . S
C2639 C2638 1.387 . S
C2639 C2641 1.387 . S
H2640 C2647 0.950 . S
C2641 C2639 1.387 . S
C2641 C2643 1.390 . S
C2641 H2645 0.950 . S
H2642 C2638 0.950 . S
C2643 C2641 1.390 . S
C2643 C2644 1.387 . S
C2643 H2646 0.950 . S
C2644 C2643 1.387 . S
C2644 C2647 1.387 . S
H2645 C2641 0.950 . S
H2646 C2643 0.950 . S
C2647 C2638 1.390 . S
C2647 H2640 0.950 . S
C2647 C2644 1.387 . S
C2648 C2649 1.387 . S
C2648 H2652 0.950 . S
C2648 C2657 1.390 . S
C2649 C2648 1.387 . S
C2649 C2651 1.387 . S
H2650 C2657 0.950 . S
C2651 C2649 1.387 . S
C2651 C2653 1.390 . S
C2651 H2655 0.950 . S
H2652 C2648 0.950 . S
C2653 C2651 1.390 . S
C2653 C2654 1.387 . S
C2653 H2656 0.950 . S
C2654 C2653 1.387 . S
C2654 C2657 1.387 . S
H2655 C2651 0.950 . S
H2656 C2653 0.950 . S
C2657 C2648 1.390 . S
C2657 H2650 0.950 . S
C2657 C2654 1.387 . S
C2658 C2659 1.387 . S
C2658 H2662 0.950 . S
C2658 C2667 1.390 . S
C2659 C2658 1.387 . S
C2659 C2661 1.387 . S
H2660 C2667 0.950 . S
C2661 C2659 1.387 . S
C2661 C2663 1.390 . S
C2661 H2665 0.950 . S
H2662 C2658 0.950 . S
C2663 C2661 1.390 . S
C2663 C2664 1.387 . S
C2663 H2666 0.950 . S
C2664 C2663 1.387 . S
C2664 C2667 1.387 . S
H2665 C2661 0.950 . S
H2666 C2663 0.950 . S
C2667 C2658 1.390 . S
C2667 H2660 0.950 . S
C2667 C2664 1.387 . S
C2668 C2669 1.387 . S
C2668 H2672 0.950 . S
C2668 C2677 1.390 . S
C2669 C2668 1.387 . S
C2669 C2671 1.387 . S
H2670 C2677 0.950 . S
C2671 C2669 1.387 . S
C2671 C2673 1.390 . S
C2671 H2675 0.950 . S
H2672 C2668 0.950 . S
C2673 C2671 1.390 . S
C2673 C2674 1.387 . S
C2673 H2676 0.950 . S
C2674 C2673 1.387 . S
C2674 C2677 1.387 . S
H2675 C2671 0.950 . S
H2676 C2673 0.950 . S
C2677 C2668 1.390 . S
C2677 H2670 0.950 . S
C2677 C2674 1.387 . S
C2678 C2679 1.387 . S
C2678 H2682 0.950 . S
C2678 C2687 1.390 . S
C2679 C2678 1.387 . S
C2679 C2681 1.387 . S
H2680 C2687 0.950 . S
C2681 C2679 1.387 . S
C2681 C2683 1.390 . S
C2681 H2685 0.950 . S
H2682 C2678 0.950 . S
C2683 C2681 1.390 . S
C2683 C2684 1.387 . S
C2683 H2686 0.950 . S
C2684 C2683 1.387 . S
C2684 C2687 1.387 . S
H2685 C2681 0.950 . S
H2686 C2683 0.950 . S
C2687 C2678 1.390 . S
C2687 H2680 0.950 . S
C2687 C2684 1.387 . S
C2688 C2689 1.387 . S
C2688 H2692 0.950 . S
C2688 C2697 1.390 . S
C2689 C2688 1.387 . S
C2689 C2691 1.387 . S
H2690 C2697 0.950 . S
C2691 C2689 1.387 . S
C2691 C2693 1.390 . S
C2691 H2695 0.950 . S
H2692 C2688 0.950 . S
C2693 C2691 1.390 . S
C2693 C2694 1.387 . S
C2693 H2696 0.950 . S
C2694 C2693 1.387 . S
C2694 C2697 1.387 . S
H2695 C2691 0.950 . S
H2696 C2693 0.950 . S
C2697 C2688 1.390 . S
C2697 H2690 0.950 . S
C2697 C2694 1.387 . S
C2698 C2699 1.387 . S
C2698 H2702 0.950 . S
C2698 C2707 1.390 . S
C2699 C2698 1.387 . S
C2699 C2701 1.387 . S
H2700 C2707 0.950 . S
C2701 C2699 1.387 . S
C2701 C2703 1.390 . S
C2701 H2705 0.950 . S
H2702 C2698 0.950 . S
C2703 C2701 1.390 . S
C2703 C2704 1.387 . S
C2703 H2706 0.950 . S
C2704 C2703 1.387 . S
C2704 C2707 1.387 . S
H2705 C2701 0.950 . S
H2706 C2703 0.950 . S
C2707 C2698 1.390 . S
C2707 H2700 0.950 . S
C2707 C2704 1.387 . S
C2708 C2709 1.387 . S
C2708 H2712 0.950 . S
C2708 C2717 1.390 . S
C2709 C2708 1.387 . S
C2709 C2711 1.387 . S
H2710 C2717 0.950 . S
C2711 C2709 1.387 . S
C2711 C2713 1.390 . S
C2711 H2715 0.950 . S
H2712 C2708 0.950 . S
C2713 C2711 1.390 . S
C2713 C2714 1.387 . S
C2713 H2716 0.950 . S
C2714 C2713 1.387 . S
C2714 C2717 1.387 . S
H2715 C2711 0.950 . S
H2716 C2713 0.950 . S
C2717 C2708 1.390 . S
C2717 H2710 0.950 . S
C2717 C2714 1.387 . S
C2718 C2719 1.387 . S
C2718 H2722 0.950 . S
C2718 C2727 1.390 . S
C2719 C2718 1.387 . S
C2719 C2721 1.387 . S
H2720 C2727 0.950 . S
C2721 C2719 1.387 . S
C2721 C2723 1.390 . S
C2721 H2725 0.950 . S
H2722 C2718 0.950 . S
C2723 C2721 1.390 . S
C2723 C2724 1.387 . S
C2723 H2726 0.950 . S
C2724 C2723 1.387 . S
C2724 C2727 1.387 . S
H2725 C2721 0.950 . S
H2726 C2723 0.950 . S
C2727 C2718 1.390 . S
C2727 H2720 0.950 . S
C2727 C2724 1.387 . S
C2728 C2729 1.387 . S
C2728 H2732 0.950 . S
C2728 C2737 1.390 . S
C2729 C2728 1.387 . S
C2729 C2731 1.387 . S
H2730 C2737 0.950 . S
C2731 C2729 1.387 . S
C2731 C2733 1.390 . S
C2731 H2735 0.950 . S
H2732 C2728 0.950 . S
C2733 C2731 1.390 . S
C2733 C2734 1.387 . S
C2733 H2736 0.950 . S
C2734 C2733 1.387 . S
C2734 C2737 1.387 . S
H2735 C2731 0.950 . S
H2736 C2733 0.950 . S
C2737 C2728 1.390 . S
C2737 H2730 0.950 . S
C2737 C2734 1.387 . S
C2738 C2739 1.387 . S
C2738 H2742 0.950 . S
C2738 C2747 1.390 . S
C2739 C2738 1.387 . S
C2739 C2741 1.387 . S
H2740 C2747 0.950 . S
C2741 C2739 1.387 . S
C2741 C2743 1.390 . S
C2741 H2745 0.950 . S
H2742 C2738 0.950 . S
C2743 C2741 1.390 . S
C2743 C2744 1.387 . S
C2743 H2746 0.950 . S
C2744 C2743 1.387 . S
C2744 C2747 1.387 . S
H2745 C2741 0.950 . S
H2746 C2743 0.950 . S
C2747 C2738 1.390 . S
C2747 H2740 0.950 . S
C2747 C2744 1.387 . S
C2748 C2749 1.387 . S
C2748 H2752 0.950 . S
C2748 C2757 1.390 . S
C2749 C2748 1.387 . S
C2749 C2751 1.387 . S
H2750 C2757 0.950 . S
C2751 C2749 1.387 . S
C2751 C2753 1.390 . S
C2751 H2755 0.950 . S
H2752 C2748 0.950 . S
C2753 C2751 1.390 . S
C2753 C2754 1.387 . S
C2753 H2756 0.950 . S
C2754 C2753 1.387 . S
C2754 C2757 1.387 . S
H2755 C2751 0.950 . S
H2756 C2753 0.950 . S
C2757 C2748 1.390 . S
C2757 H2750 0.950 . S
C2757 C2754 1.387 . S
C2758 C2759 1.387 . S
C2758 H2762 0.950 . S
C2758 C2767 1.390 . S
C2759 C2758 1.387 . S
C2759 C2761 1.387 . S
H2760 C2767 0.950 . S
C2761 C2759 1.387 . S
C2761 C2763 1.390 . S
C2761 H2765 0.950 . S
H2762 C2758 0.950 . S
C2763 C2761 1.390 . S
C2763 C2764 1.387 . S
C2763 H2766 0.950 . S
C2764 C2763 1.387 . S
C2764 C2767 1.387 . S
H2765 C2761 0.950 . S
H2766 C2763 0.950 . S
C2767 C2758 1.390 . S
C2767 H2760 0.950 . S
C2767 C2764 1.387 . S
C2768 C2769 1.387 . S
C2768 H2772 0.950 . S
C2768 C2777 1.390 . S
C2769 C2768 1.387 . S
C2769 C2771 1.387 . S
H2770 C2777 0.950 . S
C2771 C2769 1.387 . S
C2771 C2773 1.390 . S
C2771 H2775 0.950 . S
H2772 C2768 0.950 . S
C2773 C2771 1.390 . S
C2773 C2774 1.387 . S
C2773 H2776 0.950 . S
C2774 C2773 1.387 . S
C2774 C2777 1.387 . S
H2775 C2771 0.950 . S
H2776 C2773 0.950 . S
C2777 C2768 1.390 . S
C2777 H2770 0.950 . S
C2777 C2774 1.387 . S
C2778 C2779 1.387 . S
C2778 H2782 0.950 . S
C2778 C2787 1.390 . S
C2779 C2778 1.387 . S
C2779 C2781 1.387 . S
H2780 C2787 0.950 . S
C2781 C2779 1.387 . S
C2781 C2783 1.390 . S
C2781 H2785 0.950 . S
H2782 C2778 0.950 . S
C2783 C2781 1.390 . S
C2783 C2784 1.387 . S
C2783 H2786 0.950 . S
C2784 C2783 1.387 . S
C2784 C2787 1.387 . S
H2785 C2781 0.950 . S
H2786 C2783 0.950 . S
C2787 C2778 1.390 . S
C2787 H2780 0.950 . S
C2787 C2784 1.387 . S
C2788 C2789 1.387 . S
C2788 H2792 0.950 . S
C2788 C2797 1.390 . S
C2789 C2788 1.387 . S
C2789 C2791 1.387 . S
H2790 C2797 0.950 . S
C2791 C2789 1.387 . S
C2791 C2793 1.390 . S
C2791 H2795 0.950 . S
H2792 C2788 0.950 . S
C2793 C2791 1.390 . S
C2793 C2794 1.387 . S
C2793 H2796 0.950 . S
C2794 C2793 1.387 . S
C2794 C2797 1.387 . S
H2795 C2791 0.950 . S
H2796 C2793 0.950 . S
C2797 C2788 1.390 . S
C2797 H2790 0.950 . S
C2797 C2794 1.387 . S
C2798 C2799 1.387 . S
C2798 H2802 0.950 . S
C2798 C2807 1.390 . S
C2799 C2798 1.387 . S
C2799 C2801 1.387 . S
H2800 C2807 0.950 . S
C2801 C2799 1.387 . S
C2801 C2803 1.390 . S
C2801 H2805 0.950 . S
H2802 C2798 0.950 . S
C2803 C2801 1.390 . S
C2803 C2804 1.387 . S
C2803 H2806 0.950 . S
C2804 C2803 1.387 . S
C2804 C2807 1.387 . S
H2805 C2801 0.950 . S
H2806 C2803 0.950 . S
C2807 C2798 1.390 . S
C2807 H2800 0.950 . S
C2807 C2804 1.387 . S
C2808 C2809 1.387 . S
C2808 H2812 0.950 . S
C2808 C2817 1.390 . S
C2809 C2808 1.387 . S
C2809 C2811 1.387 . S
H2810 C2817 0.950 . S
C2811 C2809 1.387 . S
C2811 C2813 1.390 . S
C2811 H2815 0.950 . S
H2812 C2808 0.950 . S
C2813 C2811 1.390 . S
C2813 C2814 1.387 . S
C2813 H2816 0.950 . S
C2814 C2813 1.387 . S
C2814 C2817 1.387 . S
H2815 C2811 0.950 . S
H2816 C2813 0.950 . S
C2817 C2808 1.390 . S
C2817 H2810 0.950 . S
C2817 C2814 1.387 . S
C2818 C2819 1.387 . S
C2818 H2822 0.950 . S
C2818 C2827 1.390 . S
C2819 C2818 1.387 . S
C2819 C2821 1.387 . S
H2820 C2827 0.950 . S
C2821 C2819 1.387 . S
C2821 C2823 1.390 . S
C2821 H2825 0.950 . S
H2822 C2818 0.950 . S
C2823 C2821 1.390 . S
C2823 C2824 1.387 . S
C2823 H2826 0.950 . S
C2824 C2823 1.387 . S
C2824 C2827 1.387 . S
H2825 C2821 0.950 . S
H2826 C2823 0.950 . S
C2827 C2818 1.390 . S
C2827 H2820 0.950 . S
C2827 C2824 1.387 . S
C2828 C2829 1.387 . S
C2828 H2832 0.950 . S
C2828 C2837 1.390 . S
C2829 C2828 1.387 . S
C2829 C2831 1.387 . S
H2830 C2837 0.950 . S
C2831 C2829 1.387 . S
C2831 C2833 1.390 . S
C2831 H2835 0.950 . S
H2832 C2828 0.950 . S
C2833 C2831 1.390 . S
C2833 C2834 1.387 . S
C2833 H2836 0.950 . S
C2834 C2833 1.387 . S
C2834 C2837 1.387 . S
H2835 C2831 0.950 . S
H2836 C2833 0.950 . S
C2837 C2828 1.390 . S
C2837 H2830 0.950 . S
C2837 C2834 1.387 . S
C2838 C2839 1.387 . S
C2838 H2842 0.950 . S
C2838 C2847 1.390 . S
C2839 C2838 1.387 . S
C2839 C2841 1.387 . S
H2840 C2847 0.950 . S
C2841 C2839 1.387 . S
C2841 C2843 1.390 . S
C2841 H2845 0.950 . S
H2842 C2838 0.950 . S
C2843 C2841 1.390 . S
C2843 C2844 1.387 . S
C2843 H2846 0.950 . S
C2844 C2843 1.387 . S
C2844 C2847 1.387 . S
H2845 C2841 0.950 . S
H2846 C2843 0.950 . S
C2847 C2838 1.390 . S
C2847 H2840 0.950 . S
C2847 C2844 1.387 . S
C2848 C2849 1.387 . S
C2848 H2852 0.950 . S
C2848 C2857 1.390 . S
C2849 C2848 1.387 . S
C2849 C2851 1.387 . S
H2850 C2857 0.950 . S
C2851 C2849 1.387 . S
C2851 C2853 1.390 . S
C2851 H2855 0.950 . S
H2852 C2848 0.950 . S
C2853 C2851 1.390 . S
C2853 C2854 1.387 . S
C2853 H2856 0.950 . S
C2854 C2853 1.387 . S
C2854 C2857 1.387 . S
H2855 C2851 0.950 . S
H2856 C2853 0.950 . S
C2857 C2848 1.390 . S
C2857 H2850 0.950 . S
C2857 C2854 1.387 . S
C2858 C2859 1.387 . S
C2858 H2862 0.950 . S
C2858 C2867 1.390 . S
C2859 C2858 1.387 . S
C2859 C2861 1.387 . S
H2860 C2867 0.950 . S
C2861 C2859 1.387 . S
C2861 C2863 1.390 . S
C2861 H2865 0.950 . S
H2862 C2858 0.950 . S
C2863 C2861 1.390 . S
C2863 C2864 1.387 . S
C2863 H2866 0.950 . S
C2864 C2863 1.387 . S
C2864 C2867 1.387 . S
H2865 C2861 0.950 . S
H2866 C2863 0.950 . S
C2867 C2858 1.390 . S
C2867 H2860 0.950 . S
C2867 C2864 1.387 . S
C2868 C2869 1.387 . S
C2868 H2872 0.950 . S
C2868 C2877 1.390 . S
C2869 C2868 1.387 . S
C2869 C2871 1.387 . S
H2870 C2877 0.950 . S
C2871 C2869 1.387 . S
C2871 C2873 1.390 . S
C2871 H2875 0.950 . S
H2872 C2868 0.950 . S
C2873 C2871 1.390 . S
C2873 C2874 1.387 . S
C2873 H2876 0.950 . S
C2874 C2873 1.387 . S
C2874 C2877 1.387 . S
H2875 C2871 0.950 . S
H2876 C2873 0.950 . S
C2877 C2868 1.390 . S
C2877 H2870 0.950 . S
C2877 C2874 1.387 . S
C2878 C2879 1.387 . S
C2878 H2882 0.950 . S
C2878 C2887 1.390 . S
C2879 C2878 1.387 . S
C2879 C2881 1.387 . S
H2880 C2887 0.950 . S
C2881 C2879 1.387 . S
C2881 C2883 1.390 . S
C2881 H2885 0.950 . S
H2882 C2878 0.950 . S
C2883 C2881 1.390 . S
C2883 C2884 1.387 . S
C2883 H2886 0.950 . S
C2884 C2883 1.387 . S
C2884 C2887 1.387 . S
H2885 C2881 0.950 . S
H2886 C2883 0.950 . S
C2887 C2878 1.390 . S
C2887 H2880 0.950 . S
C2887 C2884 1.387 . S
C2888 C2889 1.387 . S
C2888 H2892 0.950 . S
C2888 C2897 1.390 . S
C2889 C2888 1.387 . S
C2889 C2891 1.387 . S
H2890 C2897 0.950 . S
C2891 C2889 1.387 . S
C2891 C2893 1.390 . S
C2891 H2895 0.950 . S
H2892 C2888 0.950 . S
C2893 C2891 1.390 . S
C2893 C2894 1.387 . S
C2893 H2896 0.950 . S
C2894 C2893 1.387 . S
C2894 C2897 1.387 . S
H2895 C2891 0.950 . S
H2896 C2893 0.950 . S
C2897 C2888 1.390 . S
C2897 H2890 0.950 . S
C2897 C2894 1.387 . S
C2898 C2899 1.387 . S
C2898 H2902 0.950 . S
C2898 C2907 1.390 . S
C2899 C2898 1.387 . S
C2899 C2901 1.387 . S
H2900 C2907 0.950 . S
C2901 C2899 1.387 . S
C2901 C2903 1.390 . S
C2901 H2905 0.950 . S
H2902 C2898 0.950 . S
C2903 C2901 1.390 . S
C2903 C2904 1.387 . S
C2903 H2906 0.950 . S
C2904 C2903 1.387 . S
C2904 C2907 1.387 . S
H2905 C2901 0.950 . S
H2906 C2903 0.950 . S
C2907 C2898 1.390 . S
C2907 H2900 0.950 . S
C2907 C2904 1.387 . S
C2908 C2909 1.387 . S
C2908 H2912 0.950 . S
C2908 C2917 1.390 . S
C2909 C2908 1.387 . S
C2909 C2911 1.387 . S
H2910 C2917 0.950 . S
C2911 C2909 1.387 . S
C2911 C2913 1.390 . S
C2911 H2915 0.950 . S
H2912 C2908 0.950 . S
C2913 C2911 1.390 . S
C2913 C2914 1.387 . S
C2913 H2916 0.950 . S
C2914 C2913 1.387 . S
C2914 C2917 1.387 . S
H2915 C2911 0.950 . S
H2916 C2913 0.950 . S
C2917 C2908 1.390 . S
C2917 H2910 0.950 . S
C2917 C2914 1.387 . S
C2918 C2919 1.387 . S
C2918 H2922 0.950 . S
C2918 C2927 1.390 . S
C2919 C2918 1.387 . S
C2919 C2921 1.387 . S
H2920 C2927 0.950 . S
C2921 C2919 1.387 . S
C2921 C2923 1.390 . S
C2921 H2925 0.950 . S
H2922 C2918 0.950 . S
C2923 C2921 1.390 . S
C2923 C2924 1.387 . S
C2923 H2926 0.950 . S
C2924 C2923 1.387 . S
C2924 C2927 1.387 . S
H2925 C2921 0.950 . S
H2926 C2923 0.950 . S
C2927 C2918 1.390 . S
C2927 H2920 0.950 . S
C2927 C2924 1.387 . S
C2928 C2929 1.387 . S
C2928 H2932 0.950 . S
C2928 C2937 1.390 . S
C2929 C2928 1.387 . S
C2929 C2931 1.387 . S
H2930 C2937 0.950 . S
C2931 C2929 1.387 . S
C2931 C2933 1.390 . S
C2931 H2935 0.950 . S
H2932 C2928 0.950 . S
C2933 C2931 1.390 . S
C2933 C2934 1.387 . S
C2933 H2936 0.950 . S
C2934 C2933 1.387 . S
C2934 C2937 1.387 . S
H2935 C2931 0.950 . S
H2936 C2933 0.950 . S
C2937 C2928 1.390 . S
C2937 H2930 0.950 . S
C2937 C2934 1.387 . S
C2938 C2939 1.387 . S
C2938 H2942 0.950 . S
C2938 C2947 1.390 . S
C2939 C2938 1.387 . S
C2939 C2941 1.387 . S
H2940 C2947 0.950 . S
C2941 C2939 1.387 . S
C2941 C2943 1.390 . S
C2941 H2945 0.950 . S
H2942 C2938 0.950 . S
C2943 C2941 1.390 . S
C2943 C2944 1.387 . S
C2943 H2946 0.950 . S
C2944 C2943 1.387 . S
C2944 C2947 1.387 . S
H2945 C2941 0.950 . S
H2946 C2943 0.950 . S
C2947 C2938 1.390 . S
C2947 H2940 0.950 . S
C2947 C2944 1.387 . S
C2948 C2949 1.387 . S
C2948 H2952 0.950 . S
C2948 C2957 1.390 . S
C2949 C2948 1.387 . S
C2949 C2951 1.387 . S
H2950 C2957 0.950 . S
C2951 C2949 1.387 . S
C2951 C2953 1.390 . S
C2951 H2955 0.950 . S
H2952 C2948 0.950 . S
C2953 C2951 1.390 . S
C2953 C2954 1.387 . S
C2953 H2956 0.950 . S
C2954 C2953 1.387 . S
C2954 C2957 1.387 . S
H2955 C2951 0.950 . S
H2956 C2953 0.950 . S
C2957 C2948 1.390 . S
C2957 H2950 0.950 . S
C2957 C2954 1.387 . S
C2958 C2959 1.387 . S
C2958 H2962 0.950 . S
C2958 C2967 1.390 . S
C2959 C2958 1.387 . S
C2959 C2961 1.387 . S
H2960 C2967 0.950 . S
C2961 C2959 1.387 . S
C2961 C2963 1.390 . S
C2961 H2965 0.950 . S
H2962 C2958 0.950 . S
C2963 C2961 1.390 . S
C2963 C2964 1.387 . S
C2963 H2966 0.950 . S
C2964 C2963 1.387 . S
C2964 C2967 1.387 . S
H2965 C2961 0.950 . S
H2966 C2963 0.950 . S
C2967 C2958 1.390 . S
C2967 H2960 0.950 . S
C2967 C2964 1.387 . S
C2968 C2969 1.387 . S
C2968 H2972 0.950 . S
C2968 C2977 1.390 . S
C2969 C2968 1.387 . S
C2969 C2971 1.387 . S
H2970 C2977 0.950 . S
C2971 C2969 1.387 . S
C2971 C2973 1.390 . S
C2971 H2975 0.950 . S
H2972 C2968 0.950 . S
C2973 C2971 1.390 . S
C2973 C2974 1.387 . S
C2973 H2976 0.950 . S
C2974 C2973 1.387 . S
C2974 C2977 1.387 . S
H2975 C2971 0.950 . S
H2976 C2973 0.950 . S
C2977 C2968 1.390 . S
C2977 H2970 0.950 . S
C2977 C2974 1.387 . S
C2978 C2979 1.387 . S
C2978 H2982 0.950 . S
C2978 C2987 1.390 . S
C2979 C2978 1.387 . S
C2979 C2981 1.387 . S
H2980 C2987 0.950 . S
C2981 C2979 1.387 . S
C2981 C2983 1.390 . S
C2981 H2985 0.950 . S
H2982 C2978 0.950 . S
C2983 C2981 1.390 . S
C2983 C2984 1.387 . S
C2983 H2986 0.950 . S
C2984 C2983 1.387 . S
C2984 C2987 1.387 . S
H2985 C2981 0.950 . S
H2986 C2983 0.950 . S
C2987 C2978 1.390 . S
C2987 H2980 0.950 . S
C2987 C2984 1.387 . S
C2988 C2989 1.387 . S
C2988 H2992 0.950 . S
C2988 C2997 1.390 . S
C2989 C2988 1.387 . S
C2989 C2991 1.387 . S
H2990 C2997 0.950 . S
C2991 C2989 1.387 . S
C2991 C2993 1.390 . S
C2991 H2995 0.950 . S
H2992 C2988 0.950 . S
C2993 C2991 1.390 . S
C2993 C2994 1.387 . S
C2993 H2996 0.950 . S
C2994 C2993 1.387 . S
C2994 C2997 1.387 . S
H2995 C2991 0.950 . S
H2996 C2993 0.950 . S
C2997 C2988 1.390 . S
C2997 H2990 0.950 . S
C2997 C2994 1.387 . S
C2998 C2999 1.387 . S
C2998 H3002 0.950 . S
C2998 C3007 1.390 . S
C2999 C2998 1.387 . S
C2999 C3001 1.387 . S
H3000 C3007 0.950 . S
C3001 C2999 1.387 . S
C3001 C3003 1.390 . S
C3001 H3005 0.950 . S
H3002 C2998 0.950 . S
C3003 C3001 1.390 . S
C3003 C3004 1.387 . S
C3003 H3006 0.950 . S
C3004 C3003 1.387 . S
C3004 C3007 1.387 . S
H3005 C3001 0.950 . S
H3006 C3003 0.950 . S
C3007 C2998 1.390 . S
C3007 H3000 0.950 . S
C3007 C3004 1.387 . S
C3008 C3009 1.387 . S
C3008 H3012 0.950 . S
C3008 C3017 1.390 . S
C3009 C3008 1.387 . S
C3009 C3011 1.387 . S
H3010 C3017 0.950 . S
C3011 C3009 1.387 . S
C3011 C3013 1.390 . S
C3011 H3015 0.950 . S
H3012 C3008 0.950 . S
C3013 C3011 1.390 . S
C3013 C3014 1.387 . S
C3013 H3016 0.950 . S
C3014 C3013 1.387 . S
C3014 C3017 1.387 . S
H3015 C3011 0.950 . S
H3016 C3013 0.950 . S
C3017 C3008 1.390 . S
C3017 H3010 0.950 . S
C3017 C3014 1.387 . S
C3018 C3019 1.387 . S
C3018 H3022 0.950 . S
C3018 C3027 1.390 . S
C3019 C3018 1.387 . S
C3019 C3021 1.387 . S
H3020 C3027 0.950 . S
C3021 C3019 1.387 . S
C3021 C3023 1.390 . S
C3021 H3025 0.950 . S
H3022 C3018 0.950 . S
C3023 C3021 1.390 . S
C3023 C3024 1.387 . S
C3023 H3026 0.950 . S
C3024 C3023 1.387 . S
C3024 C3027 1.387 . S
H3025 C3021 0.950 . S
H3026 C3023 0.950 . S
C3027 C3018 1.390 . S
C3027 H3020 0.950 . S
C3027 C3024 1.387 . S
C3028 C3029 1.387 . S
C3028 H3032 0.950 . S
C3028 C3037 1.390 . S
C3029 C3028 1.387 . S
C3029 C3031 1.387 . S
H3030 C3037 0.950 . S
C3031 C3029 1.387 . S
C3031 C3033 1.390 . S
C3031 H3035 0.950 . S
H3032 C3028 0.950 . S
C3033 C3031 1.390 . S
C3033 C3034 1.387 . S
C3033 H3036 0.950 . S
C3034 C3033 1.387 . S
C3034 C3037 1.387 . S
H3035 C3031 0.950 . S
H3036 C3033 0.950 . S
C3037 C3028 1.390 . S
C3037 H3030 0.950 . S
C3037 C3034 1.387 . S
C3038 C3039 1.387 . S
C3038 H3042 0.950 . S
C3038 C3047 1.390 . S
C3039 C3038 1.387 . S
C3039 C3041 1.387 . S
H3040 C3047 0.950 . S
C3041 C3039 1.387 . S
C3041 C3043 1.390 . S
C3041 H3045 0.950 . S
H3042 C3038 0.950 . S
C3043 C3041 1.390 . S
C3043 C3044 1.387 . S
C3043 H3046 0.950 . S
C3044 C3043 1.387 . S
C3044 C3047 1.387 . S
H3045 C3041 0.950 . S
H3046 C3043 0.950 . S
C3047 C3038 1.390 . S
C3047 H3040 0.950 . S
C3047 C3044 1.387 . S
C3048 C3049 1.387 . S
C3048 H3052 0.950 . S
C3048 C3057 1.390 . S
C3049 C3048 1.387 . S
C3049 C3051 1.387 . S
H3050 C3057 0.950 . S
C3051 C3049 1.387 . S
C3051 C3053 1.390 . S
C3051 H3055 0.950 . S
H3052 C3048 0.950 . S
C3053 C3051 1.390 . S
C3053 C3054 1.387 . S
C3053 H3056 0.950 . S
C3054 C3053 1.387 . S
C3054 C3057 1.387 . S
H3055 C3051 0.950 . S
H3056 C3053 0.950 . S
C3057 C3048 1.390 . S
C3057 H3050 0.950 . S
C3057 C3054 1.387 . S
C3058 C3059 1.387 . S
C3058 H3062 0.950 . S
C3058 C3067 1.390 . S
C3059 C3058 1.387 . S
C3059 C3061 1.387 . S
H3060 C3067 0.950 . S
C3061 C3059 1.387 . S
C3061 C3063 1.390 . S
C3061 H3065 0.950 . S
H3062 C3058 0.950 . S
C3063 C3061 1.390 . S
C3063 C3064 1.387 . S
C3063 H3066 0.950 . S
C3064 C3063 1.387 . S
C3064 C3067 1.387 . S
H3065 C3061 0.950 . S
H3066 C3063 0.950 . S
C3067 C3058 1.390 . S
C3067 H3060 0.950 . S
C3067 C3064 1.387 . S
C3068 C3069 1.387 . S
C3068 H3072 0.950 . S
C3068 C3077 1.390 . S
C3069 C3068 1.387 . S
C3069 C3071 1.387 . S
H3070 C3077 0.950 . S
C3071 C3069 1.387 . S
C3071 C3073 1.390 . S
C3071 H3075 0.950 . S
H3072 C3068 0.950 . S
C3073 C3071 1.390 . S
C3073 C3074 1.387 . S
C3073 H3076 0.950 . S
C3074 C3073 1.387 . S
C3074 C3077 1.387 . S
H3075 C3071 0.950 . S
H3076 C3073 0.950 . S
C3077 C3068 1.390 . S
C3077 H3070 0.950 . S
C3077 C3074 1.387 . S
C3078 C3079 1.387 . S
C3078 H3082 0.950 . S
C3078 C3087 1.390 . S
C3079 C3078 1.387 . S
C3079 C3081 1.387 . S
H3080 C3087 0.950 . S
C3081 C3079 1.387 . S
C3081 C3083 1.390 . S
C3081 H3085 0.950 . S
H3082 C3078 0.950 . S
C3083 C3081 1.390 . S
C3083 C3084 1.387 . S
C3083 H3086 0.950 . S
C3084 C3083 1.387 . S
C3084 C3087 1.387 . S
H3085 C3081 0.950 . S
H3086 C3083 0.950 . S
C3087 C3078 1.390 . S
C3087 H3080 0.950 . S
C3087 C3084 1.387 . S
C3088 C3089 1.387 . S
C3088 H3092 0.950 . S
C3088 C3097 1.390 . S
C3089 C3088 1.387 . S
C3089 C3091 1.387 . S
H3090 C3097 0.950 . S
C3091 C3089 1.387 . S
C3091 C3093 1.390 . S
C3091 H3095 0.950 . S
H3092 C3088 0.950 . S
C3093 C3091 1.390 . S
C3093 C3094 1.387 . S
C3093 H3096 0.950 . S
C3094 C3093 1.387 . S
C3094 C3097 1.387 . S
H3095 C3091 0.950 . S
H3096 C3093 0.950 . S
C3097 C3088 1.390 . S
C3097 H3090 0.950 . S
C3097 C3094 1.387 . S
C3098 C3099 1.387 . S
C3098 H3102 0.950 . S
C3098 C3107 1.390 . S
C3099 C3098 1.387 . S
C3099 C3101 1.387 . S
H3100 C3107 0.950 . S
C3101 C3099 1.387 . S
C3101 C3103 1.390 . S
C3101 H3105 0.950 . S
H3102 C3098 0.950 . S
C3103 C3101 1.390 . S
C3103 C3104 1.387 . S
C3103 H3106 0.950 . S
C3104 C3103 1.387 . S
C3104 C3107 1.387 . S
H3105 C3101 0.950 . S
H3106 C3103 0.950 . S
C3107 C3098 1.390 . S
C3107 H3100 0.950 . S
C3107 C3104 1.387 . S
C3108 C3109 1.387 . S
C3108 H3112 0.950 . S
C3108 C3117 1.390 . S
C3109 C3108 1.387 . S
C3109 C3111 1.387 . S
H3110 C3117 0.950 . S
C3111 C3109 1.387 . S
C3111 C3113 1.390 . S
C3111 H3115 0.950 . S
H3112 C3108 0.950 . S
C3113 C3111 1.390 . S
C3113 C3114 1.387 . S
C3113 H3116 0.950 . S
C3114 C3113 1.387 . S
C3114 C3117 1.387 . S
H3115 C3111 0.950 . S
H3116 C3113 0.950 . S
C3117 C3108 1.390 . S
C3117 H3110 0.950 . S
C3117 C3114 1.387 . S
C3118 C3119 1.387 . S
C3118 H3122 0.950 . S
C3118 C3127 1.390 . S
C3119 C3118 1.387 . S
C3119 C3121 1.387 . S
H3120 C3127 0.950 . S
C3121 C3119 1.387 . S
C3121 C3123 1.390 . S
C3121 H3125 0.950 . S
H3122 C3118 0.950 . S
C3123 C3121 1.390 . S
C3123 C3124 1.387 . S
C3123 H3126 0.950 . S
C3124 C3123 1.387 . S
C3124 C3127 1.387 . S
H3125 C3121 0.950 . S
H3126 C3123 0.950 . S
C3127 C3118 1.390 . S
C3127 H3120 0.950 . S
C3127 C3124 1.387 . S
C3128 C3129 1.387 . S
C3128 H3132 0.950 . S
C3128 C3137 1.390 . S
C3129 C3128 1.387 . S
C3129 C3131 1.387 . S
H3130 C3137 0.950 . S
C3131 C3129 1.387 . S
C3131 C3133 1.390 . S
C3131 H3135 0.950 . S
H3132 C3128 0.950 . S
C3133 C3131 1.390 . S
C3133 C3134 1.387 . S
C3133 H3136 0.950 . S
C3134 C3133 1.387 . S
C3134 C3137 1.387 . S
H3135 C3131 0.950 . S
H3136 C3133 0.950 . S
C3137 C3128 1.390 . S
C3137 H3130 0.950 . S
C3137 C3134 1.387 . S
C3138 C3139 1.387 . S
C3138 H3142 0.950 . S
C3138 C3147 1.390 . S
C3139 C3138 1.387 . S
C3139 C3141 1.387 . S
H3140 C3147 0.950 . S
C3141 C3139 1.387 . S
C3141 C3143 1.390 . S
C3141 H3145 0.950 . S
H3142 C3138 0.950 . S
C3143 C3141 1.390 . S
C3143 C3144 1.387 . S
C3143 H3146 0.950 . S
C3144 C3143 1.387 . S
C3144 C3147 1.387 . S
H3145 C3141 0.950 . S
H3146 C3143 0.950 . S
C3147 C3138 1.390 . S
C3147 H3140 0.950 . S
C3147 C3144 1.387 . S
C3148 C3149 1.387 . S
C3148 H3152 0.950 . S
C3148 C3157 1.390 . S
C3149 C3148 1.387 . S
C3149 C3151 1.387 . S
H3150 C3157 0.950 . S
C3151 C3149 1.387 . S
C3151 C3153 1.390 . S
C3151 H3155 0.950 . S
H3152 C3148 0.950 . S
C3153 C3151 1.390 . S
C3153 C3154 1.387 . S
C3153 H3156 0.950 . S
C3154 C3153 1.387 . S
C3154 C3157 1.387 . S
H3155 C3151 0.950 . S
H3156 C3153 0.950 . S
C3157 C3148 1.390 . S
C3157 H3150 0.950 . S
C3157 C3154 1.387 . S
C3158 C3159 1.387 . S
C3158 H3162 0.950 . S
C3158 C3167 1.390 . S
C3159 C3158 1.387 . S
C3159 C3161 1.387 . S
H3160 C3167 0.950 . S
C3161 C3159 1.387 . S
C3161 C3163 1.390 . S
C3161 H3165 0.950 . S
H3162 C3158 0.950 . S
C3163 C3161 1.390 . S
C3163 C3164 1.387 . S
C3163 H3166 0.950 . S
C3164 C3163 1.387 . S
C3164 C3167 1.387 . S
H3165 C3161 0.950 . S
H3166 C3163 0.950 . S
C3167 C3158 1.390 . S
C3167 H3160 0.950 . S
C3167 C3164 1.387 . S
C1249 C5 1.464 . S
C1254 C120 1.465 . S
C1259 C133 1.465 . S
C1264 C18 1.463 . S
C1269 C29 1.464 . S
C1274 C148 1.465 . S
C1279 C44 1.464 . S
C1284 C107 1.465 . S
C1289 C57 1.464 . S
C1294 C198 1.465 . S
C1299 C159 1.465 . S
C1304 C68 1.464 . S
C1309 C83 1.465 . S
C1314 C172 1.463 . S
C1319 C185 1.464 . S
C1324 C96 1.465 . S
C1329 C237 1.463 . S
C1334 C211 1.465 . S
C1339 C224 1.465 . S
C1344 C913 1.464 . S
C1349 C926 1.464 . S
C1354 C250 1.465 . S
C1359 C263 1.463 . S
C1364 C900 1.465 . S
C1369 C887 1.465 . S
C1374 C276 1.463 . S
C1379 C848 1.464 . S
C1384 C291 1.465 . S
C1389 C304 1.465 . S
C1394 C874 1.464 . S
C1399 C315 1.465 . S
C1404 C434 1.465 . S
C1409 C330 1.465 . S
C1414 C447 1.464 . S
C1419 C458 1.465 . S
C1424 C341 1.464 . S
C1429 C419 1.464 . S
C1434 C356 1.465 . S
C1439 C512 1.464 . S
C1444 C367 1.464 . S
C1449 C380 1.463 . S
C1454 C471 1.465 . S
C1459 C395 1.464 . S
C1464 C486 1.464 . S
C1469 C406 1.465 . S
C1474 C497 1.463 . S
C1479 C525 1.465 . S
C1484 C551 1.464 . S
C1489 C536 1.464 . S
C1494 C1227 1.465 . S
C1499 C1238 1.464 . S
C1504 C562 1.465 . S
C1509 C575 1.465 . S
C1514 C1212 1.464 . S
C1519 C588 1.465 . S
C1524 C1201 1.464 . S
C1529 C603 1.464 . S
C1534 C1160 1.465 . S
C1539 C614 1.464 . S
C1544 C1188 1.465 . S
C1549 C627 1.464 . S
C1554 C744 1.464 . S
C1559 C759 1.464 . S
C1564 C640 1.464 . S
C1569 C770 1.463 . S
C1574 C653 1.465 . S
C1579 C668 1.463 . S
C1584 C731 1.465 . S
C1589 C681 1.465 . S
C1594 C822 1.465 . S
C1599 C694 1.465 . S
C1604 C785 1.464 . S
C1609 C707 1.464 . S
C1614 C796 1.464 . S
C1619 C811 1.464 . S
C1624 C720 1.465 . S
C1629 C837 1.464 . S
C1634 C863 1.465 . S
C1639 C941 1.465 . S
C1644 C1056 1.465 . S
C1649 C952 1.465 . S
C1654 C1069 1.464 . S
C1659 C1082 1.464 . S
C1664 C967 1.464 . S
C1669 C1045 1.465 . S
C1674 C978 1.463 . S
C1679 C991 1.464 . S
C1684 C1134 1.465 . S
C1689 C1095 1.464 . S
C1694 C1004 1.465 . S
C1699 C1108 1.465 . S
C1704 C1019 1.464 . S
C1709 C1121 1.465 . S
C1714 C1032 1.463 . S
C1719 C1147 1.465 . S
C1724 C1175 1.464 . S
C1729 C10 1.492 1_655 S
C1734 C264 1.493 . S
C1739 C23 1.492 . S
C1744 C849 1.492 . S
C1749 C868 1.493 . S
C1754 C30 1.492 . S
C1759 C875 1.493 1_554 S
C1764 C49 1.492 . S
C1769 C62 1.492 1_655 S
C1774 C927 1.493 . S
C1779 C277 1.493 . S
C1784 C69 1.492 . S
C1789 C88 1.493 . S
C1794 C914 1.492 . S
C1799 C101 1.492 . S
C1804 C212 1.492 1_556 S
C1809 C108 1.492 1_565 S
C1814 C199 1.493 . S
C1819 C160 1.492 1_545 S
C1824 C121 1.493 . S
C1829 C134 1.492 1_545 S
C1834 C173 1.493 . S
C1839 C153 1.492 . S
C1844 C186 1.493 1_565 S
C1849 C641 1.492 . S
C1854 C225 1.493 1_554 S
C1859 C654 1.493 1_455 S
C1864 C238 1.492 . S
C1869 C673 1.492 . S
C1874 C251 1.492 . S
C1879 C712 1.493 1_455 S
C1884 C296 1.492 . S
C1889 C309 1.493 . S
C1894 C686 1.492 . S
C1899 C316 1.493 1_455 S
C1904 C576 1.492 . S
C1909 C335 1.493 . S
C1914 C1161 1.492 . S
C1919 C1180 1.492 . S
C1924 C342 1.493 . S
C1929 C1193 1.492 1_556 S
C1934 C361 1.492 . S
C1939 C1239 1.493 . S
C1944 C368 1.492 1_455 S
C1949 C589 1.492 . S
C1954 C381 1.493 . S
C1959 C400 1.493 . S
C1964 C1232 1.492 . S
C1969 C407 1.492 . S
C1974 C530 1.493 1_554 S
C1979 C517 1.493 . S
C1984 C420 1.492 1_545 S
C1989 C439 1.493 . S
C1994 C472 1.492 1_565 S
C1999 C491 1.492 . S
C2004 C452 1.493 1_565 S
C2009 C459 1.492 . S
C2014 C498 1.493 1_545 S
C2019 C953 1.492 . S
C2024 C537 1.492 1_556 S
C2029 C556 1.492 . S
C2034 C972 1.493 1_655 S
C2039 C563 1.492 . S
C2044 C979 1.492 . S
C2049 C608 1.493 . S
C2054 C1024 1.492 1_655 S
C2059 C615 1.492 . S
C2064 C992 1.493 . S
C2069 C628 1.493 . S
C2074 C888 1.492 . S
C2079 C901 1.492 1_556 S
C2084 C699 1.493 . S
C2089 C725 1.492 . S
C2094 C842 1.492 . S
C2099 C823 1.493 . S
C2104 C732 1.492 . S
C2109 C790 1.492 . S
C2114 C745 1.493 . S
C2119 C764 1.493 . S
C2124 C797 1.492 . S
C2129 C771 1.492 . S
C2134 C816 1.492 . S
C2139 C1206 1.492 . S
C2144 C946 1.493 . S
C2149 C1005 1.493 . S
C2154 C1213 1.492 1_554 S
C2159 C1148 1.492 . S
C2164 C1037 1.492 . S
C2169 C1050 1.492 . S
C2174 C1135 1.493 . S
C2179 C1096 1.493 . S
C2184 C1057 1.492 . S
C2189 C1070 1.493 . S
C2194 C1109 1.492 . S
C2199 C1122 1.493 . S
C2204 C1083 1.492 . S
C2209 C3 1.429 . S
C2214 C569 1.371 . S
C2219 C582 1.373 . S
C2224 C16 1.430 . S
C2229 C543 1.373 . S
C2234 C31 1.430 . S
C2239 C42 1.430 . S
C2244 C1174 1.373 . S
C2249 C55 1.429 . S
C2254 C1219 1.372 . S
C2259 C70 1.430 . S
C2264 C1226 1.373 . S
C2269 C1154 1.373 . S
C2274 C81 1.429 . S
C2279 C1245 1.373 . S
C2284 C94 1.430 . S
C2289 C348 1.373 . S
C2294 C109 1.430 . S
C2299 C122 1.430 . S
C2304 C985 1.374 . S
C2309 C322 1.373 . S
C2314 C135 1.430 . S
C2319 C959 1.372 . S
C2324 C146 1.429 . S
C2329 C394 1.373 . S
C2334 C161 1.430 . S
C2339 C174 1.430 . S
C2344 C1031 1.373 . S
C2349 C187 1.430 . S
C2354 C374 1.373 . S
C2359 C200 1.430 . S
C2364 C1011 1.373 . S
C2369 C213 1.430 . S
C2374 C1102 1.373 . S
C2379 C426 1.373 . S
C2384 C226 1.430 . S
C2389 C239 1.430 . S
C2394 C1063 1.372 . S
C2399 C252 1.430 . S
C2404 C446 1.373 . S
C2409 C265 1.430 . S
C2414 C465 1.373 . S
C2419 C278 1.430 . S
C2424 C1128 1.373 . S
C2429 C1141 1.373 . S
C2434 C289 1.430 . S
C2439 C1115 1.373 . S
C2444 C302 1.430 . S
C2449 C257 1.373 . S
C2454 C317 1.430 . S
C2459 C328 1.430 . S
C2464 C270 1.373 . S
C2469 C343 1.430 . S
C2474 C231 1.373 . S
C2479 C354 1.430 . S
C2484 C862 1.373 . S
C2489 C907 1.373 . S
C2494 C369 1.430 . S
C2499 C920 1.373 . S
C2504 C382 1.430 . S
C2509 C393 1.430 . S
C2514 C836 1.375 . S
C2519 C933 1.373 . S
C2524 C408 1.430 . S
C2529 C421 1.430 . S
C2534 C36 1.373 . S
C2539 C667 1.374 . S
C2544 C432 1.430 . S
C2549 C445 1.430 . S
C2554 C4 1.373 . S
C2559 C647 1.372 . S
C2564 C460 1.429 . S
C2569 C473 1.430 . S
C2574 C82 1.373 . S
C2579 C719 1.371 . S
C2584 C484 1.429 . S
C2589 C56 1.373 . S
C2594 C499 1.430 . S
C2599 C693 1.372 . S
C2604 C510 1.429 . S
C2609 C523 1.430 . S
C2614 C784 1.373 . S
C2619 C538 1.429 . S
C2624 C114 1.372 . S
C2629 C751 1.373 . S
C2634 C549 1.430 . S
C2639 C564 1.430 . S
C2644 C140 1.373 . S
C2649 C147 1.374 . S
C2654 C577 1.430 . S
C2659 C810 1.373 . S
C2664 C590 1.430 . S
C2669 C829 1.373 . S
C2674 C601 1.430 . S
C2679 C803 1.373 . S
C2684 C616 1.430 . S
C2689 C629 1.430 . S
C2694 C1187 1.373 . S
C2699 C642 1.430 . S
C2704 C1200 1.373 . S
C2709 C655 1.430 . S
C2714 C1167 1.373 . S
C2719 C550 1.373 . S
C2724 C666 1.430 . S
C2729 C679 1.430 . S
C2734 C595 1.373 . S
C2739 C602 1.373 . S
C2744 C692 1.430 . S
C2749 C524 1.374 . S
C2754 C705 1.430 . S
C2759 C621 1.373 . S
C2764 C718 1.430 . S
C2769 C733 1.430 . S
C2774 C966 1.373 . S
C2779 C355 1.372 . S
C2784 C746 1.429 . S
C2789 C757 1.430 . S
C2794 C940 1.373 . S
C2799 C772 1.430 . S
C2804 C329 1.374 . S
C2809 C783 1.430 . S
C2814 C1018 1.373 . S
C2819 C798 1.430 . S
C2824 C413 1.373 . S
C2829 C998 1.375 . S
C2834 C809 1.431 . S
C2839 C387 1.374 . S
C2844 C824 1.430 . S
C2849 C835 1.430 . S
C2854 C478 1.373 . S
C2859 C850 1.430 . S
C2864 C1044 1.373 . S
C2869 C861 1.430 . S
C2874 C433 1.374 . S
C2879 C1076 1.373 . S
C2884 C876 1.430 . S
C2889 C889 1.430 . S
C2894 C1089 1.373 . S
C2899 C902 1.430 . S
C2904 C504 1.373 . S
C2909 C511 1.373 . S
C2914 C915 1.430 . S
C2919 C928 1.430 . S
C2924 C485 1.373 . S
C2929 C939 1.430 . S
C2934 C881 1.373 . S
C2939 C894 1.372 . S
C2944 C954 1.429 . S
C2949 C855 1.373 . S
C2954 C965 1.430 . S
C2959 C980 1.430 . S
C2964 C244 1.373 . S
C2969 C993 1.429 . S
C2974 C283 1.372 . S
C2979 C1006 1.430 . S
C2984 C290 1.373 . S
C2989 C218 1.373 . S
C2994 C1017 1.430 . S
C2999 C1030 1.430 . S
C3004 C303 1.373 . S
C3009 C1043 1.430 . S
C3014 C660 1.373 . S
C3019 C1058 1.430 . S
C3024 C43 1.373 . S
C3029 C1071 1.430 . S
C3034 C634 1.374 . S
C3039 C1084 1.430 . S
C3044 C17 1.373 . S
C3049 C1097 1.430 . S
C3054 C706 1.373 . S
C3059 C1110 1.430 . S
C3064 C95 1.373 . S
C3069 C1123 1.430 . S
C3074 C680 1.373 . S
C3079 C1136 1.430 . S
C3084 C75 1.373 . S
C3089 C1149 1.430 . S
C3094 C166 1.373 . S
C3099 C1162 1.430 . S
C3104 C738 1.373 . S
C3109 C1173 1.430 . S
C3114 C127 1.373 . S
C3119 C1186 1.430 . S
C3124 C758 1.373 . S
C3129 C1199 1.430 . S
C3134 C777 1.373 . S
C3139 C192 1.373 . S
C3144 C1214 1.430 . S
C3149 C1225 1.430 . S
C3154 C205 1.373 . S
C3159 C1240 1.430 . S
C3164 C179 1.373 . S
