# Generated by pormake.
# Topology pts-e, (5)-cn, num edge types: 1
# Building blocks:
#     Node 0, Type 0, BuildingBlock: BEQFEK_clean_sbu_0, # of connection points: 5
#     Node 1, Type 0, BuildingBlock: BEQFEK_clean_sbu_0, # of connection points: 5
#     Node 2, Type 0, BuildingBlock: BEQFEK_clean_sbu_0, # of connection points: 5
#     Node 3, Type 0, BuildingBlock: BEQFEK_clean_sbu_0, # of connection points: 5
#     Node 4, Type 0, BuildingBlock: BEQFEK_clean_sbu_0, # of connection points: 5
#     Node 5, Type 0, BuildingBlock: BEQFEK_clean_sbu_0, # of connection points: 5
#     Node 6, Type 0, BuildingBlock: BEQFEK_clean_sbu_0, # of connection points: 5
#     Node 7, Type 0, BuildingBlock: BEQFEK_clean_sbu_0, # of connection points: 5
#     Edge 8, Type (0, 0), BuildingBlock: AJUNOK_clean_linker_0, # of connection points: 2
#     Edge 9, Type (0, 0), BuildingBlock: AJUNOK_clean_linker_0, # of connection points: 2
#     Edge 10, Type (0, 0), BuildingBlock: AJUNOK_clean_linker_0, # of connection points: 2
#     Edge 11, Type (0, 0), BuildingBlock: AJUNOK_clean_linker_0, # of connection points: 2
#     Edge 12, Type (0, 0), BuildingBlock: AJUNOK_clean_linker_0, # of connection points: 2
#     Edge 13, Type (0, 0), BuildingBlock: AJUNOK_clean_linker_0, # of connection points: 2
#     Edge 14, Type (0, 0), BuildingBlock: AJUNOK_clean_linker_0, # of connection points: 2
#     Edge 15, Type (0, 0), BuildingBlock: AJUNOK_clean_linker_0, # of connection points: 2
#     Edge 16, Type (0, 0), BuildingBlock: AJUNOK_clean_linker_0, # of connection points: 2
#     Edge 17, Type (0, 0), BuildingBlock: AJUNOK_clean_linker_0, # of connection points: 2
#     Edge 18, Type (0, 0), BuildingBlock: AJUNOK_clean_linker_0, # of connection points: 2
#     Edge 19, Type (0, 0), BuildingBlock: AJUNOK_clean_linker_0, # of connection points: 2
#     Edge 20, Type (0, 0), BuildingBlock: AJUNOK_clean_linker_0, # of connection points: 2
#     Edge 21, Type (0, 0), BuildingBlock: AJUNOK_clean_linker_0, # of connection points: 2
#     Edge 22, Type (0, 0), BuildingBlock: AJUNOK_clean_linker_0, # of connection points: 2
#     Edge 23, Type (0, 0), BuildingBlock: AJUNOK_clean_linker_0, # of connection points: 2
#     Edge 24, Type (0, 0), BuildingBlock: AJUNOK_clean_linker_0, # of connection points: 2
#     Edge 25, Type (0, 0), BuildingBlock: AJUNOK_clean_linker_0, # of connection points: 2
#     Edge 26, Type (0, 0), BuildingBlock: AJUNOK_clean_linker_0, # of connection points: 2
#     Edge 27, Type (0, 0), BuildingBlock: AJUNOK_clean_linker_0, # of connection points: 2
# Relax obj value: 0.397
# Max RMSD: 0.231
# Mean RMSD: 0.231
data_MOF--net-pts-e--node1-BEQFEK_clean_sbu_0--edge1-AJUNOK_clean_linker_0
_symmetry_space_group_name_H-M    P1
_symmetry_Int_Tables_number       1
_symmetry_cell_setting            triclinic
loop_
_symmetry_equiv_pos_as_xyz
'x, y, z'
_cell_length_a     28.281273
_cell_length_b     28.257627
_cell_length_c     36.91159
_cell_angle_alpha  89.919181
_cell_angle_beta   89.87779
_cell_angle_gamma 89.615177
loop_
_atom_site_label
_atom_site_type_symbol
_atom_site_fract_x
_atom_site_fract_y
_atom_site_fract_z
_atom_type_partial_charge
Co0 Co 0.18462 0.02875 0.17819 0.0
Co1 Co 0.28244 0.02351 0.216 0.0
C2 C 0.21798 0.10411 0.23138 0.0
O3 O 0.18852 0.0856 0.20958 0.0
O4 O 0.25843 0.08498 0.23717 0.0
C5 C 0.11439 0.07371 0.13348 0.0
O6 O 0.13856 0.11273 0.13825 0.0
C7 C 0.38363 0.03305 0.23668 0.0
C8 C 0.405 0.95759 0.23568 0.0
C9 C 0.42249 0.00279 0.24005 0.0
N10 N 0.34531 0.00669 0.22972 0.0
N11 N 0.35831 0.96168 0.22968 0.0
C12 C 0.38203 0.08561 0.2416 0.0
H13 H 0.35043 0.09549 0.25784 0.0
H14 H 0.37851 0.10311 0.21483 0.0
H15 H 0.41433 0.09853 0.25533 0.0
C16 C 0.24225 0.02109 0.11241 0.0
N17 N 0.23789 0.0222 0.14867 0.0
N18 N 0.28001 0.02315 0.16359 0.0
C19 C 0.31276 0.02409 0.13666 0.0
C20 C 0.28962 0.02284 0.10343 0.0
C21 C 0.20176 0.01905 0.08645 0.0
H22 H 0.17352 0.99616 0.09748 0.0
H23 H 0.18745 0.05527 0.08218 0.0
H24 H 0.21327 0.00477 0.05987 0.0
O25 O 0.1747 0.97313 0.20926 0.0
O26 O 0.24236 0.97333 0.23936 0.0
H27 H 0.37771 0.99631 0.15739 0.0
H28 H 0.38414 0.03051 0.11625 0.0
C29 C 0.36487 0.02789 0.1424 0.0
H30 H 0.37235 0.05955 0.15904 0.0
H31 H 0.33544 0.9337 0.22432 0.0
O32 O 0.12823 0.03548 0.14822 0.0
C33 C 0.20117 0.95674 0.2341 0.0
Co34 Co 0.97669 0.18264 0.67305 0.0
Co35 Co 0.01337 0.27122 0.71629 0.0
C36 C 0.9238 0.21905 0.7374 0.0
O37 O 0.9281 0.19243 0.70991 0.0
O38 O 0.95382 0.25169 0.7437 0.0
C39 C 0.94583 0.09954 0.62432 0.0
O40 O 0.91417 0.08829 0.59986 0.0
C41 C 0.01182 0.37178 0.73697 0.0
C42 C 0.08771 0.38642 0.74491 0.0
C43 C 0.04372 0.40823 0.7433 0.0
N44 N 0.03613 0.3309 0.73377 0.0
N45 N 0.08139 0.33981 0.73916 0.0
C46 C 0.95905 0.37487 0.73476 0.0
H47 H 0.94319 0.34516 0.7501 0.0
H48 H 0.94785 0.37116 0.70612 0.0
H49 H 0.94559 0.40887 0.74587 0.0
C50 C 0.9892 0.24671 0.61167 0.0
N51 N 0.99045 0.23844 0.64759 0.0
N52 N 0.00581 0.27624 0.66447 0.0
C53 C 0.01567 0.30973 0.63916 0.0
C54 C 0.00419 0.29233 0.60508 0.0
C55 C 0.97843 0.21 0.58362 0.0
H56 H 0.94016 0.20174 0.5845 0.0
H57 H 0.98756 0.22189 0.55585 0.0
H58 H 0.99888 0.17729 0.58947 0.0
O59 O 0.03324 0.15714 0.70006 0.0
O60 O 0.06116 0.22086 0.72825 0.0
H61 H 0.06884 0.35126 0.66498 0.0
H62 H 0.04967 0.37409 0.62152 0.0
C63 C 0.03806 0.35635 0.64683 0.0
H64 H 0.01198 0.37944 0.66061 0.0
H65 H 0.10825 0.3144 0.73731 0.0
O66 O 0.94528 0.14118 0.63704 0.0
C67 C 0.06333 0.17665 0.7211 0.0
Co68 Co 0.85749 0.01133 0.17861 0.0
Co69 Co 0.76276 0.02095 0.22087 0.0
C70 C 0.83074 0.93865 0.23384 0.0
O71 O 0.85901 0.95438 0.20974 0.0
O72 O 0.79174 0.96013 0.24121 0.0
C73 C 0.91929 0.05393 0.1308 0.0
O74 O 0.88833 0.0883 0.13534 0.0
C75 C 0.66113 0.00847 0.23974 0.0
C76 C 0.64328 0.08209 0.25506 0.0
C77 C 0.62376 0.03805 0.24935 0.0
N78 N 0.70096 0.03426 0.23933 0.0
N79 N 0.69002 0.07793 0.24928 0.0
C80 C 0.65835 0.95807 0.22772 0.0
H81 H 0.69105 0.94754 0.21301 0.0
H82 H 0.62688 0.95283 0.2103 0.0
H83 H 0.65434 0.9351 0.25192 0.0
C84 C 0.79434 0.00856 0.11584 0.0
N85 N 0.80151 0.0134 0.15165 0.0
N86 N 0.7609 0.02089 0.16819 0.0
C87 C 0.72658 0.02346 0.14253 0.0
C88 C 0.74682 0.01502 0.10871 0.0
C89 C 0.83236 0.99741 0.08873 0.0
H90 H 0.84946 0.03077 0.08007 0.0
H91 H 0.85932 0.97364 0.10089 0.0
H92 H 0.81787 0.98027 0.06419 0.0
O93 O 0.86717 0.06771 0.20947 0.0
O94 O 0.80129 0.0735 0.24123 0.0
H95 H 0.67209 0.06018 0.17195 0.0
H96 H 0.65808 0.04813 0.125 0.0
C97 C 0.6756 0.03409 0.14971 0.0
H98 H 0.65749 1.00103 0.15767 0.0
H99 H 0.71409 0.10571 0.2502 0.0
O100 O 0.91209 0.01415 0.14597 0.0
C101 C 0.84251 0.08806 0.23364 0.0
Co102 Co 0.05074 0.84969 0.68894 0.0
Co103 Co 0.03379 0.75261 0.72616 0.0
C104 C 0.1205 0.81194 0.74191 0.0
O105 O 0.10666 0.843 0.71927 0.0
O106 O 0.09613 0.77472 0.74828 0.0
C107 C 0.06475 0.94628 0.67316 0.0
O108 O 0.08511 0.94769 0.70505 0.0
C109 C 0.04373 0.64923 0.7408 0.0
C110 C 0.96958 0.63188 0.75399 0.0
C111 C 0.01384 0.61188 0.74891 0.0
N112 N 0.01811 0.68958 0.74099 0.0
N113 N 0.97401 0.67887 0.74949 0.0
C114 C 0.09455 0.64606 0.72986 0.0
H115 H 0.10626 0.67973 0.71729 0.0
H116 H 0.09996 0.61621 0.71073 0.0
H117 H 0.11631 0.63881 0.75425 0.0
C118 C 0.04491 0.7937 0.62285 0.0
N119 N 0.04375 0.797 0.65913 0.0
N120 N 0.03478 0.75539 0.67347 0.0
C121 C 0.02867 0.72415 0.64595 0.0
C122 C 0.03551 0.74754 0.61307 0.0
C123 C 0.05362 0.83467 0.598 0.0
H124 H 0.08631 0.85312 0.6064 0.0
H125 H 0.05726 0.82333 0.56938 0.0
H126 H 0.0237 0.86012 0.60019 0.0
O127 O 0.99375 0.86154 0.71888 0.0
O128 O 0.98187 0.7937 0.74724 0.0
H129 H 0.98752 0.67017 0.67159 0.0
H130 H 0.00309 0.65788 0.62484 0.0
C131 C 0.01555 0.67338 0.65071 0.0
H132 H 0.04699 0.65315 0.65996 0.0
H133 H 0.94635 0.70346 0.75062 0.0
O134 O 0.05431 0.90661 0.65946 0.0
C135 C 0.97025 0.8366 0.74107 0.0
Co136 Co 0.18388 1.00049 0.88035 0.0
Co137 Co 0.27854 0.02111 0.83978 0.0
C138 C 0.22766 0.92715 0.83301 0.0
O139 O 0.19719 0.94001 0.85648 0.0
O140 O 0.26126 0.95472 0.8235 0.0
C141 C 0.1152 0.95436 0.92615 0.0
O142 O 0.13934 0.9152 0.92038 0.0
C143 C 0.38086 0.01354 0.82123 0.0
C144 C 0.39829 0.08898 0.81369 0.0
C145 C 0.41857 0.04425 0.8152 0.0
N146 N 0.34074 0.03927 0.824 0.0
N147 N 0.35145 0.08422 0.81886 0.0
C148 C 0.38237 0.96066 0.8236 0.0
H149 H 0.34987 0.94557 0.8117 0.0
H150 H 0.38397 0.94969 0.85243 0.0
H151 H 0.41362 0.94612 0.80907 0.0
C152 C 0.23981 0.0257 0.94383 0.0
N153 N 0.23533 0.02093 0.90777 0.0
N154 N 0.27657 0.02718 0.89205 0.0
C155 C 0.30907 0.0352 0.91835 0.0
C156 C 0.28657 0.03445 0.95191 0.0
C157 C 0.20021 0.02014 0.97039 0.0
H158 H 0.19048 0.98226 0.9722 0.0
H159 H 0.21017 0.03274 0.99773 0.0
H160 H 0.1691 0.04073 0.96099 0.0
O161 O 0.16497 0.04516 0.8419 0.0
O162 O 0.23167 0.06471 0.81411 0.0
H163 H 0.36605 0.07206 0.89309 0.0
H164 H 0.37973 0.04907 0.93762 0.0
C165 C 0.36075 0.04197 0.91192 0.0
H166 H 0.3758 0.00971 0.89923 0.0
H167 H 0.32697 0.11198 0.82042 0.0
O168 O 0.12855 0.9928 0.91168 0.0
C169 C 0.18675 0.06777 0.81726 0.0
Co170 Co 0.03223 0.18734 0.3819 0.0
Co171 Co 0.02248 0.28383 0.34242 0.0
C172 C 0.1042 0.21542 0.32729 0.0
O173 O 0.08938 0.18628 0.35113 0.0
O174 O 0.0825 0.25464 0.32116 0.0
C175 C 0.98716 0.12554 0.42778 0.0
O176 O 0.95369 0.15739 0.42293 0.0
C177 C 0.04049 0.38441 0.32515 0.0
C178 C 0.96757 0.40882 0.31361 0.0
C179 C 0.01347 0.42462 0.31758 0.0
N180 N 0.0114 0.34705 0.32656 0.0
N181 N 0.96807 0.36181 0.31908 0.0
C182 C 0.09296 0.38059 0.32966 0.0
H183 H 0.10627 0.34878 0.31519 0.0
H184 H 0.10153 0.37584 0.35875 0.0
H185 H 0.11103 0.4125 0.31906 0.0
C186 C 0.03504 0.24789 0.44643 0.0
N187 N 0.0307 0.24207 0.41042 0.0
N188 N 0.02268 0.28319 0.39488 0.0
C189 C 0.01911 0.31642 0.42128 0.0
C190 C 0.02766 0.29508 0.4547 0.0
C191 C 0.0447 0.20861 0.47279 0.0
H192 H 0.01072 0.19252 0.48116 0.0
H193 H 0.06753 0.18119 0.46017 0.0
H194 H 0.06236 0.22172 0.49754 0.0
O195 O 0.97657 0.17965 0.3499 0.0
O196 O 0.96952 0.24754 0.32075 0.0
H197 H 0.97808 0.37044 0.39507 0.0
H198 H 0.99681 0.38518 0.44061 0.0
C199 C 0.0072 0.36736 0.41499 0.0
H200 H 0.03864 0.38545 0.40386 0.0
H201 H 0.93841 0.34003 0.3191 0.0
O202 O 0.02746 0.13178 0.41321 0.0
C203 C 0.95594 0.20549 0.32661 0.0
Co204 Co 0.85628 0.0223 0.88752 0.0
Co205 Co 0.76096 0.01472 0.84586 0.0
C206 C 0.82625 0.09917 0.83638 0.0
O207 O 0.85561 0.08167 0.85904 0.0
O208 O 0.78773 0.07769 0.8286 0.0
C209 C 0.9197 0.97654 0.93225 0.0
O210 O 0.88905 0.94261 0.92657 0.0
C211 C 0.65963 0.03173 0.82689 0.0
C212 C 0.63857 0.95873 0.81315 0.0
C213 C 0.62097 0.00417 0.81741 0.0
N214 N 0.69821 0.00355 0.82829 0.0
N215 N 0.68533 0.96019 0.81946 0.0
C216 C 0.65925 0.08262 0.83793 0.0
H217 H 0.68975 0.09017 0.85586 0.0
H218 H 0.62555 0.09185 0.85178 0.0
H219 H 0.66243 0.10501 0.81335 0.0
C220 C 0.79398 0.02006 0.95091 0.0
N221 N 0.80083 0.01725 0.91491 0.0
N222 N 0.76006 0.01141 0.89847 0.0
C223 C 0.72585 0.00851 0.92426 0.0
C224 C 0.74643 0.01442 0.95817 0.0
C225 C 0.83224 0.02916 0.97803 0.0
H226 H 0.8502 0.99527 0.98472 0.0
H227 H 0.85851 0.05409 0.96671 0.0
H228 H 0.81791 0.04403 1.00359 0.0
O229 O 0.86693 0.96873 0.85417 0.0
O230 O 0.80114 0.96379 0.82235 0.0
H231 H 0.67008 0.9739 0.89564 0.0
H232 H 0.65559 0.98995 0.94189 0.0
C233 C 0.6745 1.0011 0.91694 0.0
H234 H 0.65858 0.03474 0.90727 0.0
H235 H 0.70816 0.93103 0.81935 0.0
O236 O 0.91156 0.01751 0.91923 0.0
C237 C 0.84305 0.9497 0.8292 0.0
Co238 Co 0.01147 0.85954 0.38694 0.0
Co239 Co 0.02489 0.76341 0.34814 0.0
C240 C 0.94214 0.82563 0.33037 0.0
O241 O 0.95706 0.85527 0.35358 0.0
O242 O 0.96381 0.78629 0.32501 0.0
C243 C 0.96325 0.9307 0.42931 0.0
O244 O 0.92395 0.90822 0.42183 0.0
C245 C 0.02004 0.6619 0.32772 0.0
C246 C 0.09647 0.64592 0.32284 0.0
C247 C 0.05225 0.62552 0.32161 0.0
N248 N 0.04432 0.70211 0.33258 0.0
N249 N 0.08988 0.69235 0.329 0.0
C250 C 0.96773 0.65766 0.33239 0.0
H251 H 0.95287 0.68995 0.34533 0.0
H252 H 0.95931 0.62597 0.34895 0.0
H253 H 0.9512 0.65303 0.30541 0.0
C254 C 0.01708 0.80073 0.45232 0.0
N255 N 0.01746 0.80568 0.41608 0.0
N256 N 0.02289 0.76407 0.4007 0.0
C257 C 0.02628 0.73098 0.42731 0.0
C258 C 0.02203 0.75331 0.46082 0.0
C259 C 0.01428 0.84106 0.47853 0.0
H260 H 0.97774 0.8555 0.47873 0.0
H261 H 0.02355 0.82984 0.50643 0.0
H262 H 0.03877 0.86942 0.46996 0.0
O263 O 0.06912 0.87227 0.35825 0.0
O264 O 0.07507 0.8053 0.32765 0.0
H265 H 0.06515 0.67356 0.40377 0.0
H266 H 0.03795 0.65973 0.44693 0.0
C267 C 0.03347 0.6792 0.42101 0.0
H268 H 0.00243 0.66494 0.40648 0.0
H269 H 0.11674 0.7171 0.33242 0.0
O270 O 0.00234 0.91514 0.41718 0.0
C271 C 0.08927 0.84701 0.33425 0.0
C272 C 0.31661 0.98897 0.04462 0.0
C273 C 0.30793 0.02911 0.06613 0.0
C274 C 0.31585 0.99202 1.00658 0.0
C275 C 0.30635 0.03526 0.98901 0.0
H276 H 0.31941 0.95439 0.05717 0.0
H277 H 0.31811 0.95965 0.99095 0.0
S278 S 0.28585 0.15106 0.03319 0.0
N279 N 0.29364 0.1138 0.06723 0.0
N280 N 0.2921 0.11943 0.99584 0.0
C281 C 0.30173 0.07615 1.01022 0.0
C282 C 0.30254 0.07309 0.04883 0.0
C283 C 0.06177 0.31435 0.51512 0.0
C284 C 0.02236 0.3141 0.49188 0.0
C285 C 0.056 0.31375 0.55297 0.0
C286 C 0.01064 0.31317 0.56855 0.0
H287 H 0.09702 0.30999 0.50401 0.0
H288 H 0.08691 0.30874 0.56988 0.0
S289 S 0.89666 0.31988 0.51957 0.0
N290 N 0.937 0.31917 0.48714 0.0
N291 N 0.92613 0.31872 0.55817 0.0
C292 C 0.97134 0.3184 0.54564 0.0
C293 C 0.9772 0.31873 0.50723 0.0
C294 C 0.72301 0.05711 0.05244 0.0
C295 C 0.72551 0.01456 0.0721 0.0
C296 C 0.72269 0.0569 1.01435 0.0
C297 C 0.72528 0.01415 0.99491 0.0
H298 H 0.72639 0.09063 0.06638 0.0
H299 H 0.72584 0.09031 1.00013 0.0
S300 S 0.72542 0.8935 0.03394 0.0
N301 N 0.72434 0.92884 0.06956 0.0
N302 N 0.72462 0.92849 0.99804 0.0
C303 C 0.7226 0.97156 1.01429 0.0
C304 C 0.72249 0.97176 0.05299 0.0
C305 C 0.98313 0.73743 0.52009 0.0
C306 C 0.02374 0.73385 0.49814 0.0
C307 C 0.98638 0.7358 0.55807 0.0
C308 C 0.03039 0.73068 0.57529 0.0
H309 H 0.94923 0.74575 0.50794 0.0
H310 H 0.95495 0.743 0.57403 0.0
S311 S 0.14648 0.71558 0.53003 0.0
N312 N 0.10856 0.72107 0.49626 0.0
N313 N 0.11475 0.71826 0.56763 0.0
C314 C 0.07063 0.72323 0.55361 0.0
C315 C 0.06729 0.72472 0.51496 0.0
C316 C 0.17798 0.16793 0.31592 0.0
C317 C 0.14259 0.19877 0.30268 0.0
C318 C 0.20666 0.14116 0.29231 0.0
C319 C 0.2002 0.14338 0.25456 0.0
H320 H 0.18153 0.1622 0.34482 0.0
H321 H 0.2309 0.11542 0.30384 0.0
S322 S 0.11642 0.22242 0.20587 0.0
N323 N 0.10645 0.23357 0.24914 0.0
N324 N 0.15929 0.18246 0.20494 0.0
C325 C 0.16758 0.17677 0.24094 0.0
C326 C 0.13906 0.2047 0.26494 0.0
C327 C 0.82592 0.14679 0.77888 0.0
C328 C 0.84147 0.14122 0.81483 0.0
C329 C 0.84956 0.177 0.75468 0.0
C330 C 0.88935 0.20332 0.76549 0.0
H331 H 0.79801 0.12464 0.76838 0.0
H332 H 0.83895 0.17675 0.72649 0.0
S333 S 0.93752 0.20935 0.85873 0.0
N334 N 0.89413 0.1707 0.8616 0.0
N335 N 0.93822 0.22742 0.81617 0.0
C336 C 0.90157 0.20239 0.80239 0.0
C337 C 0.87781 0.17126 0.82699 0.0
C338 C 0.84184 0.90207 0.29512 0.0
C339 C 0.84823 0.89941 0.25737 0.0
C340 C 0.86946 0.8744 0.31882 0.0
C341 C 0.90379 0.84222 0.30573 0.0
H342 H 0.81846 0.92865 0.3066 0.0
H343 H 0.86614 0.8806 0.34768 0.0
S344 S 0.92829 0.81605 0.20905 0.0
N345 N 0.88723 0.85788 0.20791 0.0
N346 N 0.93815 0.8052 0.25237 0.0
C347 C 0.90694 0.83572 0.26804 0.0
C348 C 0.87948 0.86454 0.2439 0.0
C349 C 0.18372 0.85121 0.82562 0.0
C350 C 0.21597 0.88439 0.81131 0.0
C351 C 0.15685 0.82199 0.80289 0.0
C352 C 0.16112 0.82518 0.76505 0.0
H353 H 0.17575 0.85108 0.85435 0.0
H354 H 0.12898 0.80095 0.81486 0.0
S355 S 0.24863 0.89687 0.71441 0.0
N356 N 0.25711 0.9113 0.75723 0.0
N357 N 0.20635 0.85685 0.71465 0.0
C358 C 0.19771 0.85323 0.75079 0.0
C359 C 0.22534 0.88266 0.77391 0.0
C360 C 0.92675 0.85139 0.7994 0.0
C361 C 0.9314 0.8597 0.76196 0.0
C362 C 0.89602 0.87907 0.82084 0.0
C363 C 0.86755 0.9149 0.80546 0.0
H364 H 0.94912 0.82535 0.81262 0.0
H365 H 0.89572 0.87349 0.84989 0.0
S366 S 0.86383 0.94834 0.70835 0.0
N367 N 0.90329 0.90503 0.71021 0.0
N368 N 0.8444 0.95557 0.75024 0.0
C369 C 0.86983 0.92163 0.76778 0.0
C370 C 0.90204 0.89443 0.74611 0.0
C371 C 0.15039 0.88689 0.24814 0.0
C372 C 0.18056 0.92286 0.26031 0.0
C373 C 0.12363 0.85995 0.27264 0.0
C374 C 0.1249 0.86907 0.31013 0.0
H375 H 0.1462 0.88063 0.21937 0.0
H376 H 0.09953 0.83387 0.2619 0.0
S377 S 0.20002 0.95771 0.35596 0.0
N378 N 0.21242 0.96414 0.31249 0.0
N379 N 0.16073 0.91482 0.35836 0.0
C380 C 0.15627 0.90369 0.32274 0.0
C381 C 0.1845 0.93022 0.29787 0.0
C382 C 0.14066 0.16539 0.75437 0.0
C383 C 0.09764 0.14657 0.74165 0.0
C384 C 0.17061 0.13926 0.77766 0.0
C385 C 0.15787 0.09397 0.78999 0.0
H386 H 0.1509 0.20092 0.74676 0.0
H387 H 0.20292 0.15536 0.7872 0.0
S388 S 0.04998 0.02793 0.76401 0.0
N389 N 0.04518 0.07877 0.74224 0.0
N390 N 0.10035 0.03058 0.78641 0.0
C391 C 0.11557 0.07439 0.77678 0.0
C392 C 0.08579 0.1004 0.75253 0.0
C393 C 0.85893 0.12396 0.29417 0.0
C394 C 0.86491 0.12491 0.25629 0.0
C395 C 0.88692 0.15205 0.31692 0.0
C396 C 0.92067 0.18329 0.30255 0.0
H397 H 0.83467 0.09911 0.30646 0.0
H398 H 0.8833 0.14812 0.346 0.0
S399 S 0.94724 0.20192 0.20517 0.0
N400 N 0.90555 0.16125 0.20542 0.0
N401 N 0.95663 0.21543 0.24806 0.0
C402 C 0.92485 0.18675 0.26468 0.0
C403 C 0.89738 0.15718 0.24158 0.0
C404 C 0.0365 0.11359 0.12741 0.0
C405 C 0.06622 0.0752 0.1188 0.0
C406 C 0.98733 0.10841 0.12672 0.0
C407 C 0.96702 0.06469 0.11767 0.0
H408 H 0.051 0.14585 0.13852 0.0
H409 H 0.9656 0.13703 0.13713 0.0
S410 S 0.02961 0.9596 0.08119 0.0
N411 N 0.07211 0.9968 0.09201 0.0
N412 N 0.97947 0.98693 0.09126 0.0
C413 C 0.9962 0.02884 0.10369 0.0
C414 C 0.04609 0.03419 0.10412 0.0
C415 C 0.9589 0.01784 0.64499 0.0
C416 C 0.97769 0.06275 0.63821 0.0
C417 C 0.98784 0.98063 0.65618 0.0
C418 C 0.03663 0.98701 0.66111 0.0
H419 H 0.92144 0.01135 0.64156 0.0
H420 H 0.97178 0.94654 0.66124 0.0
S421 S 0.10387 0.09658 0.64394 0.0
N422 N 0.04849 0.1109 0.63434 0.0
N423 N 0.10299 0.04082 0.65753 0.0
C424 C 0.05608 0.03168 0.65461 0.0
C425 C 0.02653 0.06967 0.64253 0.0
C426 C 0.98811 0.9213 0.93293 0.0
C427 C 0.96792 0.96463 0.94392 0.0
C428 C 0.03726 0.9155 0.93157 0.0
C429 C 0.06716 0.95287 0.94122 0.0
H430 H 0.96626 0.89366 0.92165 0.0
H431 H 0.05159 0.88373 0.91919 0.0
S432 S 0.03113 0.0666 0.98326 0.0
N433 N 0.98083 0.04055 0.97288 0.0
N434 N 0.07343 0.02957 0.97055 0.0
C435 C 0.04724 0.99329 0.95746 0.0
C436 C 0.99735 0.99924 0.95873 0.0
C437 C 0.92483 0.00967 0.4331 0.0
C438 C 0.96225 0.97945 0.44304 0.0
C439 C 0.93121 0.05874 0.4324 0.0
C440 C 0.97516 0.07842 0.4415 0.0
H441 H 0.89249 0.99543 0.42197 0.0
H442 H 0.90342 0.08064 0.42092 0.0
S443 S 0.07813 0.01517 0.48054 0.0
N444 N 0.04 0.97307 0.47079 0.0
N445 N 0.05216 0.06543 0.46885 0.0
C446 C 0.01001 0.0491 0.45664 0.0
C447 C 0.00341 0.99936 0.45766 0.0
C448 C 0.50242 0.98614 0.2658 0.0
C449 C 0.47334 0.01391 0.24312 0.0
C450 C 0.5514 0.99352 0.26746 0.0
C451 C 0.57269 0.02897 0.24652 0.0
H452 H 0.48716 0.95849 0.28239 0.0
H453 H 0.5726 0.97184 0.28549 0.0
S454 S 0.51382 0.10641 0.17897 0.0
N455 N 0.47063 0.0744 0.19622 0.0
N456 N 0.56224 0.08949 0.20042 0.0
C457 C 0.54434 0.05618 0.22315 0.0
C458 C 0.49471 0.04833 0.22114 0.0
C459 C 0.05391 0.5377 0.77043 0.0
C460 C 0.02329 0.5606 0.74608 0.0
C461 C 0.05996 0.48827 0.76946 0.0
C462 C 0.03558 0.46024 0.74415 0.0
H463 H 0.07246 0.55797 0.79076 0.0
H464 H 0.08345 0.47178 0.78897 0.0
S465 S 0.95735 0.50517 0.67089 0.0
N466 N 0.97178 0.55285 0.69405 0.0
N467 N 0.98445 0.46056 0.69118 0.0
C468 C 0.00659 0.48337 0.71862 0.0
C469 C 1.00008 0.53344 0.7199 0.0
C470 C 0.48967 0.99865 0.83724 0.0
C471 C 0.47037 0.03428 0.81492 0.0
C472 C 0.53845 0.98959 0.83796 0.0
C473 C 0.57009 0.01669 0.81727 0.0
H474 H 0.46727 0.97808 0.85495 0.0
H475 H 0.55161 0.96144 0.85526 0.0
S476 S 0.53858 0.11492 0.7552 0.0
N477 N 0.48738 0.0973 0.77188 0.0
N478 N 0.57924 0.08077 0.77411 0.0
C479 C 0.55174 0.05313 0.79555 0.0
C480 C 0.5019 0.06192 0.7943 0.0
C481 C 0.00605 0.50618 0.29242 0.0
C482 C 0.02673 0.47516 0.31784 0.0
C483 C 0.01413 0.55505 0.2938 0.0
C484 C 0.04331 0.57434 0.32056 0.0
H485 H 0.98316 0.49258 0.27141 0.0
H486 H 0.99774 0.57781 0.27372 0.0
S487 S 0.10096 0.5099 0.39612 0.0
N488 N 0.0737 0.46844 0.37281 0.0
N489 N 0.09052 0.55994 0.37432 0.0
C490 C 0.06373 0.54405 0.34638 0.0
C491 C 0.05501 0.49447 0.34532 0.0
loop_
_geom_bond_atom_site_label_1
_geom_bond_atom_site_label_2
_geom_bond_distance
_geom_bond_site_symmetry_2
_ccdc_geom_bond_type
Co0 O3 1.970 . S
Co0 N17 1.989 . S
Co0 O25 1.967 1_545 S
Co0 O32 1.920 . S
Co1 O4 1.966 . S
Co1 N10 2.022 . S
Co1 N18 1.993 . S
Co1 O26 1.941 1_545 S
C2 O3 1.258 . S
C2 O4 1.263 . S
O3 Co0 1.970 . S
O3 C2 1.258 . S
O4 Co1 1.966 . S
O4 C2 1.263 . S
C5 O6 1.235 . S
C5 O32 1.289 . S
O6 C5 1.235 . S
C7 C9 1.400 . S
C7 N10 1.351 . S
C7 C12 1.501 . S
C8 C9 1.387 1_565 S
C8 N11 1.341 . S
C9 C7 1.400 . S
C9 C8 1.387 1_545 S
N10 Co1 2.022 . S
N10 C7 1.351 . S
N10 N11 1.365 1_545 S
N11 C8 1.341 . S
N11 N10 1.365 1_565 S
N11 H31 0.862 . S
C12 C7 1.501 . S
C12 H13 0.961 . S
C12 H14 0.961 . S
C12 H15 0.960 . S
H13 C12 0.961 . S
H14 C12 0.961 . S
H15 C12 0.960 . S
C16 N17 1.342 . S
C16 C20 1.401 . S
C16 C21 1.499 . S
N17 Co0 1.989 . S
N17 C16 1.342 . S
N17 N18 1.388 . S
N18 Co1 1.993 . S
N18 N17 1.388 . S
N18 C19 1.346 . S
C19 N18 1.346 . S
C19 C20 1.396 . S
C19 C29 1.510 . S
C20 C16 1.401 . S
C20 C19 1.396 . S
C21 C16 1.499 . S
C21 H22 0.959 . S
C21 H23 0.960 . S
C21 H24 0.961 1_545 S
H22 C21 0.959 . S
H23 C21 0.960 . S
H24 C21 0.961 1_565 S
O25 Co0 1.967 1_565 S
O25 C33 1.258 . S
O26 Co1 1.941 1_565 S
O26 C33 1.266 . S
H27 C29 0.959 1_565 S
H28 C29 0.961 . S
C29 C19 1.510 . S
C29 H27 0.959 1_545 S
C29 H28 0.961 . S
C29 H30 0.960 . S
H30 C29 0.960 . S
H31 N11 0.862 . S
O32 Co0 1.920 . S
O32 C5 1.289 . S
C33 O25 1.258 . S
C33 O26 1.266 . S
Co34 O37 1.970 1_455 S
Co34 N51 1.989 . S
Co34 O59 1.967 . S
Co34 O66 1.920 . S
Co35 O38 1.966 1_455 S
Co35 N44 2.022 . S
Co35 N52 1.993 . S
Co35 O60 1.941 . S
C36 O37 1.258 . S
C36 O38 1.263 . S
O37 Co34 1.970 1_655 S
O37 C36 1.258 . S
O38 Co35 1.966 1_655 S
O38 C36 1.263 . S
C39 O40 1.235 . S
C39 O66 1.289 1_655 S
O40 C39 1.235 . S
C41 C43 1.400 . S
C41 N44 1.351 1_655 S
C41 C46 1.501 . S
C42 C43 1.387 1_455 S
C42 N45 1.341 . S
C43 C41 1.400 . S
C43 C42 1.387 1_655 S
N44 Co35 2.022 . S
N44 C41 1.351 1_455 S
N44 N45 1.365 . S
N45 C42 1.341 . S
N45 N44 1.365 . S
N45 H65 0.862 . S
C46 C41 1.501 . S
C46 H47 0.961 . S
C46 H48 0.961 . S
C46 H49 0.960 . S
H47 C46 0.961 . S
H48 C46 0.961 . S
H49 C46 0.960 . S
C50 N51 1.342 . S
C50 C54 1.401 . S
C50 C55 1.499 . S
N51 Co34 1.989 . S
N51 C50 1.342 . S
N51 N52 1.388 . S
N52 Co35 1.993 . S
N52 N51 1.388 . S
N52 C53 1.346 . S
C53 N52 1.346 . S
C53 C54 1.396 . S
C53 C63 1.510 . S
C54 C50 1.401 . S
C54 C53 1.396 . S
C55 C50 1.499 . S
C55 H56 0.959 . S
C55 H57 0.960 . S
C55 H58 0.961 . S
H56 C55 0.959 . S
H57 C55 0.960 . S
H58 C55 0.961 . S
O59 Co34 1.967 . S
O59 C67 1.258 . S
O60 Co35 1.941 . S
O60 C67 1.266 . S
H61 C63 0.959 . S
H62 C63 0.961 1_655 S
C63 C53 1.510 . S
C63 H61 0.959 . S
C63 H62 0.961 1_455 S
C63 H64 0.960 . S
H64 C63 0.960 . S
H65 N45 0.862 . S
O66 Co34 1.920 . S
O66 C39 1.289 1_455 S
C67 O59 1.258 . S
C67 O60 1.266 . S
Co68 O71 1.970 1_545 S
Co68 N85 1.989 . S
Co68 O93 1.967 . S
Co68 O100 1.920 . S
Co69 O72 1.966 1_545 S
Co69 N78 2.022 . S
Co69 N86 1.993 . S
Co69 O94 1.941 . S
C70 O71 1.258 . S
C70 O72 1.263 . S
O71 Co68 1.970 1_565 S
O71 C70 1.258 . S
O72 Co69 1.966 1_565 S
O72 C70 1.263 . S
C73 O74 1.235 . S
C73 O100 1.289 1_565 S
O74 C73 1.235 . S
C75 C77 1.407 . S
C75 N78 1.351 1_565 S
C75 C80 1.501 . S
C76 C77 1.366 1_545 S
C76 N79 1.341 . S
C77 C75 1.407 . S
C77 C76 1.366 1_565 S
N78 Co69 2.022 . S
N78 C75 1.351 1_545 S
N78 N79 1.365 . S
N79 C76 1.341 . S
N79 N78 1.365 . S
N79 H99 0.862 . S
C80 C75 1.501 . S
C80 H81 0.961 . S
C80 H82 0.961 . S
C80 H83 0.960 . S
H81 C80 0.961 . S
H82 C80 0.961 . S
H83 C80 0.960 . S
C84 N85 1.342 . S
C84 C88 1.401 . S
C84 C89 1.499 . S
N85 Co68 1.989 . S
N85 C84 1.342 . S
N85 N86 1.388 . S
N86 Co69 1.993 . S
N86 N85 1.388 . S
N86 C87 1.346 . S
C87 N86 1.346 . S
C87 C88 1.396 . S
C87 C97 1.510 . S
C88 C84 1.401 . S
C88 C87 1.396 . S
C89 C84 1.499 . S
C89 H90 0.959 . S
C89 H91 0.960 . S
C89 H92 0.961 . S
H90 C89 0.959 . S
H91 C89 0.960 . S
H92 C89 0.961 . S
O93 Co68 1.967 . S
O93 C101 1.258 . S
O94 Co69 1.941 . S
O94 C101 1.266 . S
H95 C97 0.959 . S
H96 C97 0.961 1_565 S
C97 C87 1.510 . S
C97 H95 0.959 . S
C97 H96 0.961 1_545 S
C97 H98 0.960 . S
H98 C97 0.960 . S
H99 N79 0.862 . S
O100 Co68 1.920 . S
O100 C73 1.289 1_545 S
C101 O93 1.258 . S
C101 O94 1.266 . S
Co102 O105 1.970 . S
Co102 N119 1.989 . S
Co102 O127 1.967 1_455 S
Co102 O134 1.920 . S
Co103 O106 1.966 . S
Co103 N112 2.022 . S
Co103 N120 1.993 . S
Co103 O128 1.941 1_455 S
C104 O105 1.258 . S
C104 O106 1.263 . S
O105 Co102 1.970 . S
O105 C104 1.258 . S
O106 Co103 1.966 . S
O106 C104 1.263 . S
C107 O108 1.235 . S
C107 O134 1.289 . S
O108 C107 1.235 . S
C109 C111 1.400 . S
C109 N112 1.351 . S
C109 C114 1.501 . S
C110 C111 1.387 1_655 S
C110 N113 1.341 . S
C111 C109 1.400 . S
C111 C110 1.387 1_455 S
N112 Co103 2.022 . S
N112 C109 1.351 . S
N112 N113 1.365 1_455 S
N113 C110 1.341 . S
N113 N112 1.365 1_655 S
N113 H133 0.862 . S
C114 C109 1.501 . S
C114 H115 0.961 . S
C114 H116 0.961 . S
C114 H117 0.960 . S
H115 C114 0.961 . S
H116 C114 0.961 . S
H117 C114 0.960 . S
C118 N119 1.342 . S
C118 C122 1.401 . S
C118 C123 1.499 . S
N119 Co102 1.989 . S
N119 C118 1.342 . S
N119 N120 1.388 . S
N120 Co103 1.993 . S
N120 N119 1.388 . S
N120 C121 1.346 . S
C121 N120 1.346 . S
C121 C122 1.396 . S
C121 C131 1.510 . S
C122 C118 1.401 . S
C122 C121 1.396 . S
C123 C118 1.499 . S
C123 H124 0.959 . S
C123 H125 0.960 . S
C123 H126 0.961 1_455 S
H124 C123 0.959 . S
H125 C123 0.960 . S
H126 C123 0.961 1_655 S
O127 Co102 1.967 1_655 S
O127 C135 1.258 . S
O128 Co103 1.941 1_655 S
O128 C135 1.266 . S
H129 C131 0.959 1_655 S
H130 C131 0.961 . S
C131 C121 1.510 . S
C131 H129 0.959 1_455 S
C131 H130 0.961 . S
C131 H132 0.960 . S
H132 C131 0.960 . S
H133 N113 0.862 . S
O134 Co102 1.920 . S
O134 C107 1.289 . S
C135 O127 1.258 . S
C135 O128 1.266 . S
Co136 O139 1.970 1_545 S
Co136 N153 1.989 . S
Co136 O161 1.967 . S
Co136 O168 1.920 . S
Co137 O140 1.966 1_545 S
Co137 N146 2.022 . S
Co137 N154 1.993 . S
Co137 O162 1.941 . S
C138 O139 1.258 . S
C138 O140 1.263 . S
O139 Co136 1.970 1_565 S
O139 C138 1.258 . S
O140 Co137 1.966 1_565 S
O140 C138 1.263 . S
C141 O142 1.235 . S
C141 O168 1.289 1_565 S
O142 C141 1.235 . S
C143 C145 1.400 . S
C143 N146 1.351 1_565 S
C143 C148 1.501 . S
C144 C145 1.387 1_545 S
C144 N147 1.341 . S
C145 C143 1.400 . S
C145 C144 1.387 1_565 S
N146 Co137 2.022 . S
N146 C143 1.351 1_545 S
N146 N147 1.365 . S
N147 C144 1.341 . S
N147 N146 1.365 . S
N147 H167 0.862 . S
C148 C143 1.501 . S
C148 H149 0.961 . S
C148 H150 0.961 . S
C148 H151 0.960 . S
H149 C148 0.961 . S
H150 C148 0.961 . S
H151 C148 0.960 . S
C152 N153 1.342 . S
C152 C156 1.401 . S
C152 C157 1.499 . S
N153 Co136 1.989 . S
N153 C152 1.342 . S
N153 N154 1.388 . S
N154 Co137 1.993 . S
N154 N153 1.388 . S
N154 C155 1.346 . S
C155 N154 1.346 . S
C155 C156 1.396 . S
C155 C165 1.510 . S
C156 C152 1.401 . S
C156 C155 1.396 . S
C157 C152 1.499 . S
C157 H158 0.959 . S
C157 H159 0.960 . S
C157 H160 0.961 . S
H158 C157 0.959 . S
H159 C157 0.960 . S
H160 C157 0.961 . S
O161 Co136 1.967 . S
O161 C169 1.258 . S
O162 Co137 1.941 . S
O162 C169 1.266 . S
H163 C165 0.959 . S
H164 C165 0.961 1_565 S
C165 C155 1.510 . S
C165 H163 0.959 . S
C165 H164 0.961 1_545 S
C165 H166 0.960 . S
H166 C165 0.960 . S
H167 N147 0.862 . S
O168 Co136 1.920 . S
O168 C141 1.289 1_545 S
C169 O161 1.258 . S
C169 O162 1.266 . S
Co170 O173 1.970 . S
Co170 N187 1.989 . S
Co170 O195 1.967 1_455 S
Co170 O202 1.920 . S
Co171 O174 1.966 . S
Co171 N180 2.022 . S
Co171 N188 1.993 . S
Co171 O196 1.941 1_455 S
C172 O173 1.258 . S
C172 O174 1.263 . S
O173 Co170 1.970 . S
O173 C172 1.258 . S
O174 Co171 1.966 . S
O174 C172 1.263 . S
C175 O176 1.235 . S
C175 O202 1.289 . S
O176 C175 1.235 . S
C177 C179 1.400 . S
C177 N180 1.351 . S
C177 C182 1.501 . S
C178 C179 1.387 1_655 S
C178 N181 1.341 . S
C179 C177 1.400 . S
C179 C178 1.387 1_455 S
N180 Co171 2.022 . S
N180 C177 1.351 . S
N180 N181 1.365 1_455 S
N181 C178 1.341 . S
N181 N180 1.365 1_655 S
N181 H201 0.862 . S
C182 C177 1.501 . S
C182 H183 0.961 . S
C182 H184 0.961 . S
C182 H185 0.960 . S
H183 C182 0.961 . S
H184 C182 0.961 . S
H185 C182 0.960 . S
C186 N187 1.342 . S
C186 C190 1.401 . S
C186 C191 1.499 . S
N187 Co170 1.989 . S
N187 C186 1.342 . S
N187 N188 1.388 . S
N188 Co171 1.993 . S
N188 N187 1.388 . S
N188 C189 1.346 . S
C189 N188 1.346 . S
C189 C190 1.396 . S
C189 C199 1.510 . S
C190 C186 1.401 . S
C190 C189 1.396 . S
C191 C186 1.499 . S
C191 H192 0.959 . S
C191 H193 0.960 . S
C191 H194 0.961 1_455 S
H192 C191 0.959 . S
H193 C191 0.960 . S
H194 C191 0.961 1_655 S
O195 Co170 1.967 1_655 S
O195 C203 1.258 . S
O196 Co171 1.941 1_655 S
O196 C203 1.266 . S
H197 C199 0.959 1_655 S
H198 C199 0.961 . S
C199 C189 1.510 . S
C199 H197 0.959 1_455 S
C199 H198 0.961 . S
C199 H200 0.960 . S
H200 C199 0.960 . S
H201 N181 0.862 . S
O202 Co170 1.920 . S
O202 C175 1.289 . S
C203 O195 1.258 . S
C203 O196 1.266 . S
Co204 O207 1.970 . S
Co204 N221 1.989 . S
Co204 O229 1.967 1_545 S
Co204 O236 1.920 . S
Co205 O208 1.966 . S
Co205 N214 2.022 . S
Co205 N222 1.993 . S
Co205 O230 1.941 1_545 S
C206 O207 1.258 . S
C206 O208 1.263 . S
O207 Co204 1.970 . S
O207 C206 1.258 . S
O208 Co205 1.966 . S
O208 C206 1.263 . S
C209 O210 1.235 . S
C209 O236 1.289 . S
O210 C209 1.235 . S
C211 C213 1.400 . S
C211 N214 1.351 . S
C211 C216 1.501 . S
C212 C213 1.387 1_565 S
C212 N215 1.341 . S
C213 C211 1.400 . S
C213 C212 1.387 1_545 S
N214 Co205 2.022 . S
N214 C211 1.351 . S
N214 N215 1.365 1_545 S
N215 C212 1.341 . S
N215 N214 1.365 1_565 S
N215 H235 0.862 . S
C216 C211 1.501 . S
C216 H217 0.961 . S
C216 H218 0.961 . S
C216 H219 0.960 . S
H217 C216 0.961 . S
H218 C216 0.961 . S
H219 C216 0.960 . S
C220 N221 1.342 . S
C220 C224 1.401 . S
C220 C225 1.499 . S
N221 Co204 1.989 . S
N221 C220 1.342 . S
N221 N222 1.388 . S
N222 Co205 1.993 . S
N222 N221 1.388 . S
N222 C223 1.346 . S
C223 N222 1.346 . S
C223 C224 1.396 . S
C223 C233 1.510 . S
C224 C220 1.401 . S
C224 C223 1.396 . S
C225 C220 1.499 . S
C225 H226 0.959 . S
C225 H227 0.960 . S
C225 H228 0.961 1_545 S
H226 C225 0.959 . S
H227 C225 0.960 . S
H228 C225 0.961 1_565 S
O229 Co204 1.967 1_565 S
O229 C237 1.258 . S
O230 Co205 1.941 1_565 S
O230 C237 1.266 . S
H231 C233 0.959 1_565 S
H232 C233 0.961 . S
C233 C223 1.510 . S
C233 H231 0.959 1_545 S
C233 H232 0.961 . S
C233 H234 0.960 . S
H234 C233 0.960 . S
H235 N215 0.862 . S
O236 Co204 1.920 . S
O236 C209 1.289 . S
C237 O229 1.258 . S
C237 O230 1.266 . S
Co238 O241 1.970 1_455 S
Co238 N255 1.989 . S
Co238 O263 1.967 . S
Co238 O270 1.920 . S
Co239 O242 1.966 1_455 S
Co239 N248 2.022 . S
Co239 N256 1.993 . S
Co239 O264 1.941 . S
C240 O241 1.258 . S
C240 O242 1.263 . S
O241 Co238 1.970 1_655 S
O241 C240 1.258 . S
O242 Co239 1.966 1_655 S
O242 C240 1.263 . S
C243 O244 1.235 . S
C243 O270 1.289 1_655 S
O244 C243 1.235 . S
C245 C247 1.407 . S
C245 N248 1.351 1_655 S
C245 C250 1.501 . S
C246 C247 1.366 1_455 S
C246 N249 1.341 . S
C247 C245 1.407 . S
C247 C246 1.366 1_655 S
N248 Co239 2.022 . S
N248 C245 1.351 1_455 S
N248 N249 1.365 . S
N249 C246 1.341 . S
N249 N248 1.365 . S
N249 H269 0.862 . S
C250 C245 1.501 . S
C250 H251 0.961 . S
C250 H252 0.961 . S
C250 H253 0.960 . S
H251 C250 0.961 . S
H252 C250 0.961 . S
H253 C250 0.960 . S
C254 N255 1.342 . S
C254 C258 1.401 . S
C254 C259 1.499 . S
N255 Co238 1.989 . S
N255 C254 1.342 . S
N255 N256 1.388 . S
N256 Co239 1.993 . S
N256 N255 1.388 . S
N256 C257 1.346 . S
C257 N256 1.346 . S
C257 C258 1.396 . S
C257 C267 1.510 . S
C258 C254 1.401 . S
C258 C257 1.396 . S
C259 C254 1.499 . S
C259 H260 0.959 . S
C259 H261 0.960 . S
C259 H262 0.961 . S
H260 C259 0.959 . S
H261 C259 0.960 . S
H262 C259 0.961 . S
O263 Co238 1.967 . S
O263 C271 1.258 . S
O264 Co239 1.941 . S
O264 C271 1.266 . S
H265 C267 0.959 . S
H266 C267 0.961 1_655 S
C267 C257 1.510 . S
C267 H265 0.959 . S
C267 H266 0.961 1_455 S
C267 H268 0.960 . S
H268 C267 0.960 . S
H269 N249 0.862 . S
O270 Co238 1.920 . S
O270 C243 1.289 1_455 S
C271 O263 1.258 . S
C271 O264 1.266 . S
C272 C273 1.369 1_565 S
C272 C274 1.419 1_554 S
C272 H276 0.930 . S
C273 C272 1.369 1_545 S
C273 C282 1.429 . S
C274 C272 1.419 1_556 S
C274 C275 1.363 1_565 S
C274 H277 0.929 . S
C275 C274 1.363 1_545 S
C275 C281 1.428 . S
H276 C272 0.930 . S
H277 C274 0.929 . S
S278 N279 1.613 . S
S278 N280 1.610 1_554 S
N279 S278 1.613 . S
N279 C282 1.350 . S
N280 S278 1.610 1_556 S
N280 C281 1.351 . S
C281 C275 1.428 . S
C281 N280 1.351 . S
C281 C282 1.434 1_556 S
C282 C273 1.429 . S
C282 N279 1.350 . S
C282 C281 1.434 1_554 S
C283 C284 1.369 . S
C283 C285 1.419 . S
C283 H287 0.930 . S
C284 C283 1.369 . S
C284 C293 1.429 1_455 S
C285 C283 1.419 . S
C285 C286 1.363 . S
C285 H288 0.929 . S
C286 C285 1.363 . S
C286 C292 1.428 1_455 S
H287 C283 0.930 . S
H288 C285 0.929 . S
S289 N290 1.613 . S
S289 N291 1.610 . S
N290 S289 1.613 . S
N290 C293 1.350 . S
N291 S289 1.610 . S
N291 C292 1.351 . S
C292 C286 1.428 1_655 S
C292 N291 1.351 . S
C292 C293 1.434 . S
C293 C284 1.429 1_655 S
C293 N290 1.350 . S
C293 C292 1.434 . S
C294 C295 1.369 . S
C294 C296 1.419 1_554 S
C294 H298 0.930 . S
C295 C294 1.369 . S
C295 C304 1.429 1_545 S
C296 C294 1.419 1_556 S
C296 C297 1.363 . S
C296 H299 0.929 . S
C297 C296 1.363 . S
C297 C303 1.428 1_545 S
H298 C294 0.930 . S
H299 C296 0.929 . S
S300 N301 1.613 . S
S300 N302 1.610 1_554 S
N301 S300 1.613 . S
N301 C304 1.350 . S
N302 S300 1.610 1_556 S
N302 C303 1.351 . S
C303 C297 1.428 1_565 S
C303 N302 1.351 . S
C303 C304 1.434 1_556 S
C304 C295 1.429 1_565 S
C304 N301 1.350 . S
C304 C303 1.434 1_554 S
C305 C306 1.369 1_655 S
C305 C307 1.419 . S
C305 H309 0.930 . S
C306 C305 1.369 1_455 S
C306 C315 1.429 . S
C307 C305 1.419 . S
C307 C308 1.363 1_655 S
C307 H310 0.929 . S
C308 C307 1.363 1_455 S
C308 C314 1.428 . S
H309 C305 0.930 . S
H310 C307 0.929 . S
S311 N312 1.613 . S
S311 N313 1.610 . S
N312 S311 1.613 . S
N312 C315 1.350 . S
N313 S311 1.610 . S
N313 C314 1.351 . S
C314 C308 1.428 . S
C314 N313 1.351 . S
C314 C315 1.434 . S
C315 C306 1.429 . S
C315 N312 1.350 . S
C315 C314 1.434 . S
C316 C317 1.369 . S
C316 C318 1.419 . S
C316 H320 0.930 . S
C317 C316 1.369 . S
C317 C326 1.429 . S
C318 C316 1.419 . S
C318 C319 1.363 . S
C318 H321 0.929 . S
C319 C318 1.363 . S
C319 C325 1.428 . S
H320 C316 0.930 . S
H321 C318 0.929 . S
S322 N323 1.613 . S
S322 N324 1.610 . S
N323 S322 1.613 . S
N323 C326 1.350 . S
N324 S322 1.610 . S
N324 C325 1.351 . S
C325 C319 1.428 . S
C325 N324 1.351 . S
C325 C326 1.434 . S
C326 C317 1.429 . S
C326 N323 1.350 . S
C326 C325 1.434 . S
C327 C328 1.369 . S
C327 C329 1.419 . S
C327 H331 0.930 . S
C328 C327 1.369 . S
C328 C337 1.429 . S
C329 C327 1.419 . S
C329 C330 1.363 . S
C329 H332 0.929 . S
C330 C329 1.363 . S
C330 C336 1.428 . S
H331 C327 0.930 . S
H332 C329 0.929 . S
S333 N334 1.613 . S
S333 N335 1.610 . S
N334 S333 1.613 . S
N334 C337 1.350 . S
N335 S333 1.610 . S
N335 C336 1.351 . S
C336 C330 1.428 . S
C336 N335 1.351 . S
C336 C337 1.434 . S
C337 C328 1.429 . S
C337 N334 1.350 . S
C337 C336 1.434 . S
C338 C339 1.369 . S
C338 C340 1.419 . S
C338 H342 0.930 . S
C339 C338 1.369 . S
C339 C348 1.429 . S
C340 C338 1.419 . S
C340 C341 1.363 . S
C340 H343 0.929 . S
C341 C340 1.363 . S
C341 C347 1.428 . S
H342 C338 0.930 . S
H343 C340 0.929 . S
S344 N345 1.613 . S
S344 N346 1.610 . S
N345 S344 1.613 . S
N345 C348 1.350 . S
N346 S344 1.610 . S
N346 C347 1.351 . S
C347 C341 1.428 . S
C347 N346 1.351 . S
C347 C348 1.434 . S
C348 C339 1.429 . S
C348 N345 1.350 . S
C348 C347 1.434 . S
C349 C350 1.369 . S
C349 C351 1.419 . S
C349 H353 0.930 . S
C350 C349 1.369 . S
C350 C359 1.429 . S
C351 C349 1.419 . S
C351 C352 1.363 . S
C351 H354 0.929 . S
C352 C351 1.363 . S
C352 C358 1.428 . S
H353 C349 0.930 . S
H354 C351 0.929 . S
S355 N356 1.613 . S
S355 N357 1.610 . S
N356 S355 1.613 . S
N356 C359 1.350 . S
N357 S355 1.610 . S
N357 C358 1.351 . S
C358 C352 1.428 . S
C358 N357 1.351 . S
C358 C359 1.434 . S
C359 C350 1.429 . S
C359 N356 1.350 . S
C359 C358 1.434 . S
C360 C361 1.369 . S
C360 C362 1.419 . S
C360 H364 0.930 . S
C361 C360 1.369 . S
C361 C370 1.429 . S
C362 C360 1.419 . S
C362 C363 1.363 . S
C362 H365 0.929 . S
C363 C362 1.363 . S
C363 C369 1.428 . S
H364 C360 0.930 . S
H365 C362 0.929 . S
S366 N367 1.613 . S
S366 N368 1.610 . S
N367 S366 1.613 . S
N367 C370 1.350 . S
N368 S366 1.610 . S
N368 C369 1.351 . S
C369 C363 1.428 . S
C369 N368 1.351 . S
C369 C370 1.434 . S
C370 C361 1.429 . S
C370 N367 1.350 . S
C370 C369 1.434 . S
C371 C372 1.369 . S
C371 C373 1.419 . S
C371 H375 0.930 . S
C372 C371 1.369 . S
C372 C381 1.429 . S
C373 C371 1.419 . S
C373 C374 1.363 . S
C373 H376 0.929 . S
C374 C373 1.363 . S
C374 C380 1.428 . S
H375 C371 0.930 . S
H376 C373 0.929 . S
S377 N378 1.613 . S
S377 N379 1.610 . S
N378 S377 1.613 . S
N378 C381 1.350 . S
N379 S377 1.610 . S
N379 C380 1.351 . S
C380 C374 1.428 . S
C380 N379 1.351 . S
C380 C381 1.434 . S
C381 C372 1.429 . S
C381 N378 1.350 . S
C381 C380 1.434 . S
C382 C383 1.369 . S
C382 C384 1.419 . S
C382 H386 0.930 . S
C383 C382 1.369 . S
C383 C392 1.429 . S
C384 C382 1.419 . S
C384 C385 1.363 . S
C384 H387 0.929 . S
C385 C384 1.363 . S
C385 C391 1.428 . S
H386 C382 0.930 . S
H387 C384 0.929 . S
S388 N389 1.613 . S
S388 N390 1.610 . S
N389 S388 1.613 . S
N389 C392 1.350 . S
N390 S388 1.610 . S
N390 C391 1.351 . S
C391 C385 1.428 . S
C391 N390 1.351 . S
C391 C392 1.434 . S
C392 C383 1.429 . S
C392 N389 1.350 . S
C392 C391 1.434 . S
C393 C394 1.369 . S
C393 C395 1.419 . S
C393 H397 0.930 . S
C394 C393 1.369 . S
C394 C403 1.429 . S
C395 C393 1.419 . S
C395 C396 1.363 . S
C395 H398 0.929 . S
C396 C395 1.363 . S
C396 C402 1.428 . S
H397 C393 0.930 . S
H398 C395 0.929 . S
S399 N400 1.613 . S
S399 N401 1.610 . S
N400 S399 1.613 . S
N400 C403 1.350 . S
N401 S399 1.610 . S
N401 C402 1.351 . S
C402 C396 1.428 . S
C402 N401 1.351 . S
C402 C403 1.434 . S
C403 C394 1.429 . S
C403 N400 1.350 . S
C403 C402 1.434 . S
C404 C405 1.369 . S
C404 C406 1.419 1_455 S
C404 H408 0.930 . S
C405 C404 1.369 . S
C405 C414 1.429 . S
C406 C404 1.419 1_655 S
C406 C407 1.363 1_545 S
C406 H409 0.929 . S
C407 C406 1.363 1_565 S
C407 C413 1.428 1_655 S
H408 C404 0.930 . S
H409 C406 0.929 . S
S410 N411 1.613 1_565 S
S410 N412 1.610 . S
N411 S410 1.613 1_545 S
N411 C414 1.350 . S
N412 S410 1.610 . S
N412 C413 1.351 . S
C413 C407 1.428 1_455 S
C413 N412 1.351 . S
C413 C414 1.434 1_565 S
C414 C405 1.429 . S
C414 N411 1.350 . S
C414 C413 1.434 1_545 S
C415 C416 1.369 . S
C415 C417 1.419 1_645 S
C415 H419 0.930 . S
C416 C415 1.369 . S
C416 C425 1.429 1_655 S
C417 C415 1.419 1_465 S
C417 C418 1.363 . S
C417 H420 0.929 . S
C418 C417 1.363 . S
C418 C424 1.428 1_565 S
H419 C415 0.930 . S
H420 C417 0.929 . S
S421 N422 1.613 . S
S421 N423 1.610 . S
N422 S421 1.613 . S
N422 C425 1.350 . S
N423 S421 1.610 . S
N423 C424 1.351 . S
C424 C418 1.428 1_545 S
C424 N423 1.351 . S
C424 C425 1.434 . S
C425 C416 1.429 1_455 S
C425 N422 1.350 . S
C425 C424 1.434 . S
C426 C427 1.369 . S
C426 C428 1.419 1_645 S
C426 H430 0.930 . S
C427 C426 1.369 . S
C427 C436 1.429 1_655 S
C428 C426 1.419 1_465 S
C428 C429 1.363 . S
C428 H431 0.929 . S
C429 C428 1.363 . S
C429 C435 1.428 1_565 S
H430 C426 0.930 . S
H431 C428 0.929 . S
S432 N433 1.613 . S
S432 N434 1.610 . S
N433 S432 1.613 . S
N433 C436 1.350 . S
N434 S432 1.610 . S
N434 C435 1.351 . S
C435 C429 1.428 1_545 S
C435 N434 1.351 . S
C435 C436 1.434 . S
C436 C427 1.429 1_455 S
C436 N433 1.350 . S
C436 C435 1.434 . S
C437 C438 1.369 1_545 S
C437 C439 1.419 1_655 S
C437 H441 0.930 . S
C438 C437 1.369 1_565 S
C438 C447 1.429 1_655 S
C439 C437 1.419 1_455 S
C439 C440 1.363 . S
C439 H442 0.929 . S
C440 C439 1.363 . S
C440 C446 1.428 . S
H441 C437 0.930 . S
H442 C439 0.929 . S
S443 N444 1.613 . S
S443 N445 1.606 1_565 S
N444 S443 1.613 . S
N444 C447 1.350 . S
N445 S443 1.606 1_545 S
N445 C446 1.352 . S
C446 C440 1.428 . S
C446 N445 1.352 . S
C446 C447 1.434 1_545 S
C447 C438 1.429 1_455 S
C447 N444 1.350 . S
C447 C446 1.434 1_565 S
C448 C449 1.369 1_565 S
C448 C450 1.419 . S
C448 H452 0.930 . S
C449 C448 1.369 1_545 S
C449 C458 1.429 . S
C450 C448 1.419 . S
C450 C451 1.363 . S
C450 H453 0.929 . S
C451 C450 1.363 . S
C451 C457 1.428 1_565 S
H452 C448 0.930 . S
H453 C450 0.929 . S
S454 N455 1.613 . S
S454 N456 1.610 . S
N455 S454 1.613 . S
N455 C458 1.350 . S
N456 S454 1.610 . S
N456 C457 1.351 . S
C457 C451 1.428 1_545 S
C457 N456 1.351 . S
C457 C458 1.434 . S
C458 C449 1.429 . S
C458 N455 1.350 . S
C458 C457 1.434 . S
C459 C460 1.369 . S
C459 C461 1.419 . S
C459 H463 0.930 . S
C460 C459 1.369 . S
C460 C469 1.429 . S
C461 C459 1.419 . S
C461 C462 1.363 1_455 S
C461 H464 0.929 . S
C462 C461 1.363 1_655 S
C462 C468 1.428 . S
H463 C459 0.930 . S
H464 C461 0.929 . S
S465 N466 1.613 1_655 S
S465 N467 1.610 . S
N466 S465 1.613 1_455 S
N466 C469 1.350 . S
N467 S465 1.610 . S
N467 C468 1.351 . S
C468 C462 1.428 . S
C468 N467 1.351 . S
C468 C469 1.434 1_655 S
C469 C460 1.429 . S
C469 N466 1.350 . S
C469 C468 1.434 1_455 S
C470 C471 1.369 . S
C470 C472 1.419 1_565 S
C470 H474 0.930 . S
C471 C470 1.369 . S
C471 C480 1.429 1_565 S
C472 C470 1.419 1_545 S
C472 C473 1.363 . S
C472 H475 0.929 . S
C473 C472 1.363 . S
C473 C479 1.428 . S
H474 C470 0.930 . S
H475 C472 0.929 . S
S476 N477 1.613 . S
S476 N478 1.610 . S
N477 S476 1.613 . S
N477 C480 1.350 . S
N478 S476 1.610 . S
N478 C479 1.351 . S
C479 C473 1.428 . S
C479 N478 1.351 . S
C479 C480 1.434 . S
C480 C471 1.429 1_545 S
C480 N477 1.350 . S
C480 C479 1.434 . S
C481 C482 1.369 1_655 S
C481 C483 1.419 . S
C481 H485 0.930 . S
C482 C481 1.369 1_455 S
C482 C491 1.429 . S
C483 C481 1.419 . S
C483 C484 1.363 . S
C483 H486 0.929 . S
C484 C483 1.363 . S
C484 C490 1.428 1_655 S
H485 C481 0.930 . S
H486 C483 0.929 . S
S487 N488 1.613 . S
S487 N489 1.610 . S
N488 S487 1.613 . S
N488 C491 1.350 . S
N489 S487 1.610 . S
N489 C490 1.351 . S
C490 C484 1.428 1_455 S
C490 N489 1.351 . S
C490 C491 1.434 . S
C491 C482 1.429 . S
C491 N488 1.350 . S
C491 C490 1.434 . S
C273 C20 1.691 . S
C275 C156 1.693 . S
C284 C190 1.696 . S
C286 C54 1.694 . S
C295 C88 1.690 . S
C297 C224 1.696 . S
C306 C258 1.697 . S
C308 C122 1.693 . S
C317 C172 1.457 . S
C319 C2 1.460 . S
C328 C206 1.466 . S
C330 C36 1.465 . S
C339 C70 1.462 . S
C341 C240 1.466 . S
C350 C138 1.467 . S
C352 C104 1.464 . S
C361 C135 1.488 . S
C363 C237 1.490 . S
C372 C33 1.494 . S
C374 C271 1.492 . S
C383 C67 1.488 . S
C385 C169 1.489 . S
C394 C101 1.489 . S
C396 C203 1.491 . S
C405 C5 0.742 . S
C407 C73 0.752 . S
C416 C39 0.738 . S
C418 C107 0.756 . S
C427 C209 0.759 . S
C429 C141 0.743 . S
C438 C243 0.743 . S
C440 C175 0.752 . S
C449 C9 1.389 . S
C451 C77 1.380 . S
C460 C111 1.380 . S
C462 C43 1.389 . S
C471 C145 1.385 . S
C473 C213 1.386 . S
C482 C179 1.390 . S
C484 C247 1.379 . S
