# Generated by pormake.
# Topology wkj, (6)-cn, num edge types: 1
# Building blocks:
#     Node 0, Type 0, BuildingBlock: LEVNOQ01_clean_sbu_1, # of connection points: 6
#     Node 1, Type 0, BuildingBlock: LEVNOQ01_clean_sbu_1, # of connection points: 6
#     Node 2, Type 0, BuildingBlock: LEVNOQ01_clean_sbu_1, # of connection points: 6
#     Node 3, Type 0, BuildingBlock: LEVNOQ01_clean_sbu_1, # of connection points: 6
#     Node 4, Type 0, BuildingBlock: LEVNOQ01_clean_sbu_1, # of connection points: 6
#     Node 5, Type 0, BuildingBlock: LEVNOQ01_clean_sbu_1, # of connection points: 6
#     Node 6, Type 0, BuildingBlock: LEVNOQ01_clean_sbu_1, # of connection points: 6
#     Node 7, Type 0, BuildingBlock: LEVNOQ01_clean_sbu_1, # of connection points: 6
#     Node 8, Type 0, BuildingBlock: LEVNOQ01_clean_sbu_1, # of connection points: 6
#     Node 9, Type 0, BuildingBlock: LEVNOQ01_clean_sbu_1, # of connection points: 6
#     Node 10, Type 0, BuildingBlock: LEVNOQ01_clean_sbu_1, # of connection points: 6
#     Node 11, Type 0, BuildingBlock: LEVNOQ01_clean_sbu_1, # of connection points: 6
#     Edge 12, Type (0, 0), BuildingBlock: ZUJKAS_clean_linker_0, # of connection points: 2
#     Edge 13, Type (0, 0), BuildingBlock: ZUJKAS_clean_linker_0, # of connection points: 2
#     Edge 14, Type (0, 0), BuildingBlock: ZUJKAS_clean_linker_0, # of connection points: 2
#     Edge 15, Type (0, 0), BuildingBlock: ZUJKAS_clean_linker_0, # of connection points: 2
#     Edge 16, Type (0, 0), BuildingBlock: ZUJKAS_clean_linker_0, # of connection points: 2
#     Edge 17, Type (0, 0), BuildingBlock: ZUJKAS_clean_linker_0, # of connection points: 2
#     Edge 18, Type (0, 0), BuildingBlock: ZUJKAS_clean_linker_0, # of connection points: 2
#     Edge 19, Type (0, 0), BuildingBlock: ZUJKAS_clean_linker_0, # of connection points: 2
#     Edge 20, Type (0, 0), BuildingBlock: ZUJKAS_clean_linker_0, # of connection points: 2
#     Edge 21, Type (0, 0), BuildingBlock: ZUJKAS_clean_linker_0, # of connection points: 2
#     Edge 22, Type (0, 0), BuildingBlock: ZUJKAS_clean_linker_0, # of connection points: 2
#     Edge 23, Type (0, 0), BuildingBlock: ZUJKAS_clean_linker_0, # of connection points: 2
#     Edge 24, Type (0, 0), BuildingBlock: ZUJKAS_clean_linker_0, # of connection points: 2
#     Edge 25, Type (0, 0), BuildingBlock: ZUJKAS_clean_linker_0, # of connection points: 2
#     Edge 26, Type (0, 0), BuildingBlock: ZUJKAS_clean_linker_0, # of connection points: 2
#     Edge 27, Type (0, 0), BuildingBlock: ZUJKAS_clean_linker_0, # of connection points: 2
#     Edge 28, Type (0, 0), BuildingBlock: ZUJKAS_clean_linker_0, # of connection points: 2
#     Edge 29, Type (0, 0), BuildingBlock: ZUJKAS_clean_linker_0, # of connection points: 2
#     Edge 30, Type (0, 0), BuildingBlock: ZUJKAS_clean_linker_0, # of connection points: 2
#     Edge 31, Type (0, 0), BuildingBlock: ZUJKAS_clean_linker_0, # of connection points: 2
#     Edge 32, Type (0, 0), BuildingBlock: ZUJKAS_clean_linker_0, # of connection points: 2
#     Edge 33, Type (0, 0), BuildingBlock: ZUJKAS_clean_linker_0, # of connection points: 2
#     Edge 34, Type (0, 0), BuildingBlock: ZUJKAS_clean_linker_0, # of connection points: 2
#     Edge 35, Type (0, 0), BuildingBlock: ZUJKAS_clean_linker_0, # of connection points: 2
#     Edge 36, Type (0, 0), BuildingBlock: ZUJKAS_clean_linker_0, # of connection points: 2
#     Edge 37, Type (0, 0), BuildingBlock: ZUJKAS_clean_linker_0, # of connection points: 2
#     Edge 38, Type (0, 0), BuildingBlock: ZUJKAS_clean_linker_0, # of connection points: 2
#     Edge 39, Type (0, 0), BuildingBlock: ZUJKAS_clean_linker_0, # of connection points: 2
#     Edge 40, Type (0, 0), BuildingBlock: ZUJKAS_clean_linker_0, # of connection points: 2
#     Edge 41, Type (0, 0), BuildingBlock: ZUJKAS_clean_linker_0, # of connection points: 2
#     Edge 42, Type (0, 0), BuildingBlock: ZUJKAS_clean_linker_0, # of connection points: 2
#     Edge 43, Type (0, 0), BuildingBlock: ZUJKAS_clean_linker_0, # of connection points: 2
#     Edge 44, Type (0, 0), BuildingBlock: ZUJKAS_clean_linker_0, # of connection points: 2
#     Edge 45, Type (0, 0), BuildingBlock: ZUJKAS_clean_linker_0, # of connection points: 2
#     Edge 46, Type (0, 0), BuildingBlock: ZUJKAS_clean_linker_0, # of connection points: 2
#     Edge 47, Type (0, 0), BuildingBlock: ZUJKAS_clean_linker_0, # of connection points: 2
# Relax obj value: 0.510
# Max RMSD: 0.239
# Mean RMSD: 0.239
data_MOF--net-wkj--node1-LEVNOQ01_clean_sbu_1--edge1-ZUJKAS_clean_linker_0
_symmetry_space_group_name_H-M    P1
_symmetry_Int_Tables_number       1
_symmetry_cell_setting            triclinic
loop_
_symmetry_equiv_pos_as_xyz
'x, y, z'
_cell_length_a     64.745436
_cell_length_b     64.680069
_cell_length_c     32.035625
_cell_angle_alpha  90.112713
_cell_angle_beta   89.944018
_cell_angle_gamma 120.02853
loop_
_atom_site_label
_atom_site_type_symbol
_atom_site_fract_x
_atom_site_fract_y
_atom_site_fract_z
_atom_type_partial_charge
O0 O 0.48304 0.13105 0.33333 0.0
Mg1 Mg 0.45017 0.12376 0.30658 0.0
O2 O 0.48525 0.10214 0.29958 0.0
Mg3 Mg 0.45551 0.08543 0.24848 0.0
O4 O 0.45227 0.11837 0.24455 0.0
O5 O 0.44806 0.14825 0.26844 0.0
O6 O 0.42612 0.06873 0.19665 0.0
O7 O 0.48567 0.10269 0.19741 0.0
Mg8 Mg 0.46184 0.04506 0.19371 0.0
O9 O 0.45717 0.05188 0.25318 0.0
O10 O 0.4312 0.04144 0.16236 0.0
O11 O 0.49455 0.07535 0.17533 0.0
O12 O 0.4593 0.01993 0.23848 0.0
C13 C 0.41455 0.07304 0.32577 0.0
C14 C 0.49323 0.11891 0.32675 0.0
C15 C 0.45076 0.13714 0.23732 0.0
C16 C 0.42006 0.05274 0.16832 0.0
C17 C 0.49884 0.09681 0.17655 0.0
C18 C 0.45672 0.03289 0.26626 0.0
O19 O 0.41944 0.09442 0.33164 0.0
O20 O 0.4261 0.06802 0.29922 0.0
O21 O 0.34892 0.48111 0.66583 0.0
Mg22 Mg 0.32348 0.44882 0.63683 0.0
O23 O 0.38046 0.48417 0.63254 0.0
Mg24 Mg 0.36843 0.45391 0.58314 0.0
O25 O 0.33257 0.4508 0.57552 0.0
O26 O 0.29819 0.4472 0.59588 0.0
O27 O 0.35581 0.42269 0.53378 0.0
O28 O 0.38278 0.48189 0.52907 0.0
Mg29 Mg 0.4116 0.44966 0.53598 0.0
O30 O 0.40442 0.45838 0.59184 0.0
O31 O 0.38457 0.41365 0.52745 0.0
O32 O 0.40925 0.47511 0.49594 0.0
O33 O 0.43899 0.46093 0.58142 0.0
C34 C 0.33752 0.41324 0.65999 0.0
C35 C 0.37132 0.49162 0.65993 0.0
C36 C 0.31257 0.44936 0.56613 0.0
C37 C 0.36319 0.40867 0.52138 0.0
C38 C 0.39747 0.48605 0.49907 0.0
C39 C 0.42507 0.46402 0.60613 0.0
O40 O 0.32058 0.41767 0.66264 0.0
O41 O 0.35521 0.42522 0.63563 0.0
O42 O 0.87211 0.34021 0.00672 0.0
Mg43 Mg 0.88357 0.32076 0.96677 0.0
O44 O 0.88282 0.37256 0.96754 0.0
Mg45 Mg 0.90412 0.37032 0.91223 0.0
O46 O 0.87934 0.33093 0.9095 0.0
O47 O 0.85948 0.29313 0.92742 0.0
O48 O 0.92668 0.36789 0.85738 0.0
O49 O 0.87875 0.37382 0.86321 0.0
Mg50 Mg 0.93008 0.42166 0.85974 0.0
O51 O 0.92843 0.4096 0.91796 0.0
O52 O 0.9438 0.4031 0.82471 0.0
O53 O 0.89456 0.41186 0.84408 0.0
O54 O 0.95107 0.44775 0.90476 0.0
C55 C 0.93475 0.35244 0.97512 0.0
C56 C 0.87315 0.36022 0.00035 0.0
C57 C 0.86273 0.30956 0.90119 0.0
C58 C 0.94012 0.38191 0.82861 0.0
C59 C 0.87745 0.3904 0.84368 0.0
C60 C 0.94326 0.43061 0.93148 0.0
O61 O 0.9197 0.3303 0.97328 0.0
O62 O 0.93023 0.36776 0.9589 0.0
O63 O 0.51921 0.87231 0.33824 0.0
Mg64 Mg 0.55068 0.87975 0.30435 0.0
O65 O 0.51165 0.89728 0.30245 0.0
Mg66 Mg 0.53897 0.9145 0.24884 0.0
O67 O 0.54334 0.88197 0.24349 0.0
O68 O 0.55136 0.85438 0.2661 0.0
O69 O 0.56768 0.93301 0.19545 0.0
O70 O 0.50833 0.89599 0.19931 0.0
Mg71 Mg 0.53231 0.95564 0.19673 0.0
O72 O 0.5325 0.94514 0.25537 0.0
O73 O 0.5668 0.96547 0.17466 0.0
O74 O 0.50366 0.92443 0.16881 0.0
O75 O 0.52553 0.97446 0.24366 0.0
C76 C 0.58468 0.93101 0.31898 0.0
C77 C 0.50682 0.88229 0.33196 0.0
C78 C 0.54468 0.86304 0.23622 0.0
C79 C 0.57646 0.95252 0.17461 0.0
C80 C 0.4976 0.90255 0.17351 0.0
C81 C 0.5272 0.96038 0.27006 0.0
O82 O 0.58244 0.91045 0.32195 0.0
O83 O 0.57003 0.93434 0.29726 0.0
O84 O 0.65191 0.52242 0.67313 0.0
Mg85 Mg 0.67501 0.55365 0.63762 0.0
O86 O 0.61837 0.51202 0.63804 0.0
Mg87 Mg 0.62674 0.53794 0.58243 0.0
O88 O 0.66397 0.544 0.57777 0.0
O89 O 0.70046 0.55394 0.59745 0.0
O90 O 0.63555 0.56441 0.52662 0.0
O91 O 0.61526 0.50581 0.53553 0.0
Mg92 Mg 0.57758 0.52473 0.53047 0.0
O93 O 0.58988 0.53282 0.58926 0.0
O94 O 0.60109 0.55604 0.49663 0.0
O95 O 0.57804 0.49315 0.5145 0.0
O96 O 0.55383 0.52574 0.57367 0.0
C97 C 0.65469 0.58531 0.64968 0.0
C98 C 0.62958 0.5087 0.66775 0.0
C99 C 0.68416 0.54568 0.56907 0.0
C100 C 0.62367 0.56875 0.49961 0.0
C101 C 0.59637 0.49079 0.516 0.0
C102 C 0.57036 0.53172 0.60125 0.0
O103 O 0.67395 0.58483 0.65336 0.0
O104 O 0.63735 0.56953 0.62817 0.0
O105 O 0.12921 0.6578 0.00314 0.0
Mg106 Mg 0.11798 0.67942 0.97054 0.0
O107 O 0.10539 0.6241 0.96896 0.0
Mg108 Mg 0.08624 0.63026 0.91393 0.0
O109 O 0.11374 0.66873 0.91023 0.0
O110 O 0.13916 0.70594 0.92759 0.0
O111 O 0.06627 0.63689 0.85935 0.0
O112 O 0.10879 0.62223 0.86588 0.0
Mg113 Mg 0.05038 0.58095 0.8597 0.0
O114 O 0.05937 0.59146 0.91938 0.0
O115 O 0.03651 0.60224 0.83585 0.0
O116 O 0.08345 0.58864 0.8321 0.0
O117 O 0.03376 0.55398 0.9055 0.0
C118 C 0.06474 0.65498 0.98341 0.0
C119 C 0.12038 0.63541 0.998 0.0
C120 C 0.12974 0.68978 0.89903 0.0
C121 C 0.04772 0.62493 0.83677 0.0
C122 C 0.10441 0.60596 0.83874 0.0
C123 C 0.0459 0.57013 0.93296 0.0
O124 O 0.08445 0.67418 0.98873 0.0
O125 O 0.06322 0.63802 0.96055 0.0
O126 O 0.87478 0.52485 0.32632 0.0
Mg127 Mg 0.88323 0.55468 0.36725 0.0
O128 O 0.88667 0.50517 0.36776 0.0
Mg129 Mg 0.90794 0.53241 0.41891 0.0
O130 O 0.87826 0.54131 0.42619 0.0
O131 O 0.85744 0.55724 0.40071 0.0
O132 O 0.93042 0.56168 0.46928 0.0
O133 O 0.88845 0.50355 0.4716 0.0
Mg134 Mg 0.94774 0.52215 0.468 0.0
O135 O 0.93567 0.52204 0.41053 0.0
O136 O 0.96161 0.55797 0.48779 0.0
O137 O 0.91646 0.49775 0.50106 0.0
O138 O 0.96311 0.51206 0.4192 0.0
C139 C 0.93197 0.57988 0.35239 0.0
C140 C 0.87696 0.50668 0.33408 0.0
C141 C 0.86137 0.54628 0.43053 0.0
C142 C 0.95029 0.56937 0.48853 0.0
C143 C 0.895 0.49337 0.49867 0.0
C144 C 0.9497 0.51564 0.39414 0.0
O145 O 0.91647 0.58585 0.35924 0.0
O146 O 0.92926 0.56039 0.36719 0.0
O147 O 0.33861 0.86107 0.67026 0.0
Mg148 Mg 0.31748 0.87321 0.7021 0.0
O149 O 0.37245 0.8848 0.70378 0.0
Mg150 Mg 0.36721 0.90621 0.756 0.0
O151 O 0.32877 0.87918 0.76194 0.0
O152 O 0.29143 0.85336 0.74651 0.0
O153 O 0.36214 0.92915 0.80765 0.0
O154 O 0.37441 0.88427 0.80684 0.0
Mg155 Mg 0.41774 0.94069 0.80791 0.0
O156 O 0.40615 0.93202 0.74872 0.0
O157 O 0.39802 0.95627 0.83148 0.0
O158 O 0.4099 0.90791 0.83628 0.0
O159 O 0.44406 0.95668 0.76133 0.0
C160 C 0.34251 0.9255 0.682 0.0
C161 C 0.36091 0.86943 0.67537 0.0
C162 C 0.30795 0.86328 0.7743 0.0
C163 C 0.37552 0.94756 0.82987 0.0
C164 C 0.39112 0.88768 0.83216 0.0
C165 C 0.42731 0.94538 0.73441 0.0
O166 O 0.32286 0.90595 0.68032 0.0
O167 O 0.35976 0.92795 0.70513 0.0
O168 O 0.47728 0.34271 0.00181 0.0
Mg169 Mg 0.44428 0.32069 0.0329 0.0
O170 O 0.48254 0.37679 0.02898 0.0
Mg171 Mg 0.45579 0.37002 0.08303 0.0
O172 O 0.44874 0.33283 0.09255 0.0
O173 O 0.44055 0.2961 0.07812 0.0
O174 O 0.42788 0.36261 0.1363 0.0
O175 O 0.48684 0.38272 0.13211 0.0
Mg176 Mg 0.46579 0.41979 0.13031 0.0
O177 O 0.46262 0.4073 0.07157 0.0
O178 O 0.4323 0.39722 0.15873 0.0
O179 O 0.49562 0.41868 0.15585 0.0
O180 O 0.46916 0.44368 0.08301 0.0
C181 C 0.41172 0.33986 0.01151 0.0
C182 C 0.48859 0.36538 0.00379 0.0
C183 C 0.4456 0.31266 0.10538 0.0
C184 C 0.42104 0.37453 0.15861 0.0
C185 C 0.49965 0.40135 0.15422 0.0
C186 C 0.46606 0.42727 0.05672 0.0
O187 O 0.41476 0.32199 0.00829 0.0
O188 O 0.42506 0.35761 0.03493 0.0
O189 O 0.13254 0.48442 0.3359 0.0
Mg190 Mg 0.1227 0.45095 0.3638 0.0
O191 O 0.10542 0.48978 0.36911 0.0
Mg192 Mg 0.08597 0.46068 0.41979 0.0
O193 O 0.11632 0.45372 0.42512 0.0
O194 O 0.14472 0.4464 0.40506 0.0
O195 O 0.0664 0.43141 0.47108 0.0
O196 O 0.10444 0.49033 0.47129 0.0
Mg197 Mg 0.04675 0.47005 0.4712 0.0
O198 O 0.05485 0.46641 0.41206 0.0
O199 O 0.03787 0.43681 0.49907 0.0
O200 O 0.07811 0.50028 0.49467 0.0
O201 O 0.02479 0.47208 0.42477 0.0
C202 C 0.0712 0.41891 0.34316 0.0
C203 C 0.12197 0.49627 0.34189 0.0
C204 C 0.13347 0.45004 0.43477 0.0
C205 C 0.04869 0.42501 0.4958 0.0
C206 C 0.0992 0.50358 0.49341 0.0
C207 C 0.03749 0.46859 0.39775 0.0
O208 O 0.09187 0.42157 0.33856 0.0
O209 O 0.06743 0.4318 0.36879 0.0
O210 O 0.66004 0.13271 0.66056 0.0
Mg211 Mg 0.68264 0.12403 0.69653 0.0
O212 O 0.62578 0.10983 0.69447 0.0
Mg213 Mg 0.63264 0.09098 0.74949 0.0
O214 O 0.67017 0.12108 0.7555 0.0
O215 O 0.70724 0.14781 0.74002 0.0
O216 O 0.64093 0.07117 0.80282 0.0
O217 O 0.62137 0.11067 0.79846 0.0
Mg218 Mg 0.58368 0.05171 0.80075 0.0
O219 O 0.59495 0.0611 0.74163 0.0
O220 O 0.60678 0.04069 0.82633 0.0
O221 O 0.58663 0.08345 0.82649 0.0
O222 O 0.55865 0.03166 0.75415 0.0
C223 C 0.65993 0.07206 0.68002 0.0
C224 C 0.6377 0.12435 0.66514 0.0
C225 C 0.69013 0.13905 0.7669 0.0
C226 C 0.62943 0.05238 0.82513 0.0
C227 C 0.60351 0.10492 0.82256 0.0
C228 C 0.57459 0.04506 0.72737 0.0
O229 O 0.68002 0.09118 0.67917 0.0
O230 O 0.64256 0.0707 0.70114 0.0
O231 O 0.53302 0.65814 0.99072 0.0
Mg232 Mg 0.56305 0.67953 0.03127 0.0
O233 O 0.5113 0.62628 0.03095 0.0
Mg234 Mg 0.53654 0.63035 0.08427 0.0
O235 O 0.54875 0.66942 0.08887 0.0
O236 O 0.56555 0.70703 0.06921 0.0
O237 O 0.56418 0.63538 0.13585 0.0
O238 O 0.5074 0.62391 0.13539 0.0
Mg239 Mg 0.52005 0.57975 0.13723 0.0
O240 O 0.52304 0.59114 0.07812 0.0
O241 O 0.55507 0.59988 0.16235 0.0
O242 O 0.49488 0.58783 0.16309 0.0
O243 O 0.50976 0.5532 0.09088 0.0
C244 C 0.5844 0.65123 0.01821 0.0
C245 C 0.51431 0.63794 0.99715 0.0
C246 C 0.55359 0.69089 0.09675 0.0
C247 C 0.5689 0.62232 0.15933 0.0
C248 C 0.4936 0.60674 0.1597 0.0
C249 C 0.51506 0.56988 0.06394 0.0
O250 O 0.59179 0.67312 0.02485 0.0
O251 O 0.56455 0.63522 0.03347 0.0
H252 H 0.41656 0.13596 0.188 0.0
H253 H 0.42366 0.17365 0.15862 0.0
H254 H 0.4995 0.20194 0.16874 0.0
H255 H 0.49234 0.16399 0.19731 0.0
H256 H 0.45325 0.20589 0.23353 0.0
H257 H 0.48645 0.24302 0.07479 0.0
H258 H 0.46495 0.21173 0.0819 0.0
H259 H 0.49508 0.22325 0.09894 0.0
C260 C 0.43471 0.14948 0.18049 0.0
C261 C 0.45394 0.14762 0.196 0.0
C262 C 0.43878 0.17113 0.16409 0.0
C263 C 0.46207 0.19067 0.16292 0.0
C264 C 0.4814 0.18703 0.16971 0.0
H265 H 0.48873 0.33273 0.14217 0.0
H266 H 0.49952 0.30605 0.17734 0.0
C267 C 0.47727 0.16523 0.18572 0.0
C268 C 0.4654 0.21462 0.16985 0.0
H269 H 0.48015 0.26711 0.12242 0.0
C270 C 0.45939 0.21946 0.20943 0.0
C271 C 0.47392 0.23223 0.1387 0.0
C272 C 0.48053 0.22752 0.09605 0.0
C273 C 0.46045 0.24119 0.21797 0.0
C274 C 0.46764 0.25838 0.18604 0.0
C275 C 0.475 0.25402 0.14718 0.0
C276 C 0.463 0.27847 0.18843 0.0
C277 C 0.45302 0.2452 0.26045 0.0
C278 C 0.43911 0.27301 0.18804 0.0
C279 C 0.433 0.28825 0.16788 0.0
C280 C 0.45075 0.30872 0.14793 0.0
C281 C 0.47477 0.31681 0.15709 0.0
C282 C 0.48096 0.30145 0.17685 0.0
H283 H 0.45636 0.23503 0.28483 0.0
H284 H 0.46263 0.26444 0.26895 0.0
H285 H 0.4336 0.23878 0.26018 0.0
H286 H 0.42493 0.25541 0.19685 0.0
H287 H 0.41433 0.28185 0.16134 0.0
H288 H 0.2834 0.41417 0.51364 0.0
H289 H 0.25104 0.41801 0.48329 0.0
H290 H 0.29283 0.4945 0.49726 0.0
H291 H 0.32533 0.49059 0.52646 0.0
H292 H 0.24028 0.43801 0.55427 0.0
H293 H 0.24284 0.48551 0.40807 0.0
H294 H 0.25924 0.46985 0.41406 0.0
H295 H 0.26998 0.49855 0.43799 0.0
C296 C 0.28648 0.43189 0.50669 0.0
C297 C 0.3062 0.45204 0.52377 0.0
C298 C 0.26783 0.43407 0.4898 0.0
C299 C 0.26928 0.45646 0.48965 0.0
C300 C 0.29129 0.47704 0.49741 0.0
H301 H 0.1586 0.4897 0.48135 0.0
H302 H 0.19394 0.49458 0.51739 0.0
C303 C 0.31002 0.47479 0.51384 0.0
C304 C 0.24731 0.45749 0.49638 0.0
H305 H 0.21341 0.47956 0.45783 0.0
C306 C 0.23429 0.44701 0.53307 0.0
C307 C 0.24016 0.46995 0.46957 0.0
C308 C 0.25365 0.4815 0.43003 0.0
C309 C 0.21378 0.44804 0.54302 0.0
C310 C 0.20604 0.45971 0.51541 0.0
C311 C 0.21959 0.47094 0.47946 0.0
C312 C 0.18197 0.45679 0.51816 0.0
C313 C 0.20046 0.43635 0.58264 0.0
C314 C 0.16237 0.4338 0.51208 0.0
C315 C 0.14212 0.43107 0.49191 0.0
C316 C 0.14173 0.45127 0.4774 0.0
C317 C 0.15876 0.4739 0.49209 0.0
C318 C 0.17909 0.47671 0.51233 0.0
H319 H 0.21285 0.43693 0.60721 0.0
H320 H 0.1906 0.44504 0.59477 0.0
H321 H 0.18747 0.41728 0.57622 0.0
H322 H 0.1641 0.41813 0.51635 0.0
H323 H 0.12897 0.41343 0.481 0.0
H324 H 0.83804 0.333 0.89617 0.0
H325 H 0.7957 0.3133 0.87731 0.0
H326 H 0.8005 0.25426 0.82554 0.0
H327 H 0.84246 0.27352 0.84538 0.0
H328 H 0.76411 0.26831 0.78743 0.0
H329 H 0.76066 0.25085 0.95838 0.0
H330 H 0.7773 0.28074 0.93771 0.0
H331 H 0.78814 0.26033 0.93038 0.0
C332 C 0.8304 0.31655 0.87836 0.0
C333 C 0.84333 0.30463 0.87219 0.0
C334 C 0.80616 0.30522 0.86804 0.0
C335 C 0.79502 0.28223 0.85072 0.0
C336 C 0.80886 0.27204 0.83894 0.0
H337 H 0.72531 0.15371 0.82379 0.0
H338 H 0.74122 0.19154 0.86066 0.0
C339 C 0.83287 0.28309 0.84997 0.0
C340 C 0.76896 0.26627 0.85323 0.0
H341 H 0.73046 0.22102 0.91668 0.0
C342 C 0.75606 0.25857 0.81596 0.0
C343 C 0.75863 0.25378 0.89072 0.0
C344 C 0.77175 0.26175 0.93176 0.0
C345 C 0.73444 0.23687 0.81413 0.0
C346 C 0.72583 0.22261 0.85058 0.0
C347 C 0.7371 0.23198 0.8889 0.0
C348 C 0.7112 0.19637 0.84647 0.0
C349 C 0.72272 0.22789 0.77214 0.0
C350 C 0.68793 0.18537 0.83037 0.0
C351 C 0.67863 0.16338 0.80975 0.0
C352 C 0.69274 0.15264 0.80502 0.0
C353 C 0.71418 0.16174 0.82716 0.0
C354 C 0.72328 0.18343 0.84813 0.0
H355 H 0.73159 0.24137 0.7471 0.0
H356 H 0.72324 0.21154 0.76338 0.0
H357 H 0.70375 0.22322 0.77375 0.0
H358 H 0.67823 0.19499 0.82929 0.0
H359 H 0.66209 0.15671 0.79257 0.0
H360 H 0.50653 0.66661 0.11625 0.0
H361 H 0.48509 0.68577 0.1449 0.0
H362 H 0.55222 0.74761 0.1779 0.0
H363 H 0.57355 0.72881 0.1486 0.0
H364 H 0.50879 0.73625 0.2314 0.0
H365 H 0.4996 0.74224 0.05927 0.0
H366 H 0.48867 0.71366 0.08415 0.0
H367 H 0.52019 0.7337 0.07974 0.0
C368 C 0.51658 0.68368 0.13191 0.0
C369 C 0.54162 0.69646 0.13001 0.0
C370 C 0.50432 0.69466 0.14792 0.0
C371 C 0.51715 0.71824 0.16263 0.0
C372 C 0.54204 0.72941 0.16652 0.0
H373 H 0.56684 0.85119 0.1776 0.0
H374 H 0.54814 0.81106 0.14816 0.0
C375 C 0.55423 0.71866 0.14993 0.0
C376 C 0.50632 0.73358 0.16456 0.0
H377 H 0.50158 0.77316 0.10059 0.0
C378 C 0.50597 0.74365 0.20305 0.0
C379 C 0.50281 0.7432 0.1273 0.0
C380 C 0.50279 0.73275 0.08512 0.0
C381 C 0.50485 0.76473 0.20499 0.0
C382 C 0.50425 0.77591 0.16739 0.0
C383 C 0.50195 0.76442 0.12921 0.0
C384 C 0.51243 0.80168 0.16727 0.0
C385 C 0.50716 0.7764 0.24691 0.0
C386 C 0.49813 0.81034 0.18366 0.0
C387 C 0.50883 0.83363 0.19943 0.0
C388 C 0.53381 0.84794 0.19966 0.0
C389 C 0.54754 0.84051 0.1773 0.0
C390 C 0.53684 0.81749 0.16084 0.0
H391 H 0.50688 0.76507 0.27318 0.0
H392 H 0.52415 0.79373 0.24828 0.0
H393 H 0.49232 0.78012 0.25128 0.0
H394 H 0.47925 0.79835 0.18875 0.0
H395 H 0.49796 0.83898 0.21703 0.0
H396 H 0.65947 0.49885 0.54954 0.0
H397 H 0.67914 0.47838 0.51912 0.0
H398 H 0.73745 0.54617 0.47879 0.0
H399 H 0.71828 0.56657 0.51032 0.0
H400 H 0.72727 0.50034 0.43015 0.0
H401 H 0.73903 0.50166 0.60297 0.0
H402 H 0.70961 0.48799 0.5804 0.0
H403 H 0.72838 0.51985 0.57933 0.0
C404 C 0.67569 0.50915 0.53167 0.0
C405 C 0.68765 0.53423 0.53256 0.0
C406 C 0.68697 0.49744 0.51458 0.0
C407 C 0.70994 0.51087 0.49768 0.0
C408 C 0.71974 0.53554 0.49191 0.0
H409 H 0.84378 0.56801 0.47885 0.0
H410 H 0.80313 0.54816 0.50597 0.0
C411 C 0.70874 0.54722 0.50968 0.0
C412 C 0.72657 0.50153 0.49713 0.0
H413 H 0.76956 0.50337 0.56118 0.0
C414 C 0.7359 0.49974 0.45876 0.0
C415 C 0.7378 0.50093 0.5347 0.0
C416 C 0.72831 0.50269 0.57683 0.0
C417 C 0.75766 0.49997 0.45684 0.0
C418 C 0.77031 0.50234 0.49423 0.0
C419 C 0.75968 0.50144 0.53272 0.0
C420 C 0.79638 0.51246 0.49291 0.0
C421 C 0.76838 0.50055 0.4147 0.0
C422 C 0.80652 0.49877 0.48005 0.0
C423 C 0.83008 0.51017 0.46555 0.0
C424 C 0.84321 0.53522 0.46305 0.0
C425 C 0.83398 0.54869 0.48084 0.0
C426 C 0.81074 0.53734 0.49608 0.0
H427 H 0.75578 0.49743 0.38874 0.0
H428 H 0.78469 0.51818 0.41 0.0
H429 H 0.77369 0.48669 0.41326 0.0
H430 H 0.79563 0.47953 0.47748 0.0
H431 H 0.83683 0.49948 0.45145 0.0
H432 H 0.27728 0.8619 0.83305 0.0
H433 H 0.24877 0.82241 0.85903 0.0
H434 H 0.29793 0.79788 0.82973 0.0
H435 H 0.32681 0.83771 0.80519 0.0
H436 H 0.24644 0.79591 0.77434 0.0
H437 H 0.24525 0.74924 0.92124 0.0
H438 H 0.25409 0.78053 0.92241 0.0
H439 H 0.273 0.77132 0.89773 0.0
C440 C 0.28287 0.84872 0.83577 0.0
C441 C 0.30353 0.85222 0.81539 0.0
C442 C 0.26643 0.82601 0.8502 0.0
C443 C 0.271 0.80715 0.84459 0.0
C444 C 0.29404 0.81222 0.83381 0.0
H445 H 0.15074 0.66844 0.85858 0.0
H446 H 0.18793 0.69289 0.82078 0.0
C447 C 0.31066 0.83513 0.82013 0.0
C448 C 0.25068 0.7835 0.83446 0.0
H449 H 0.21281 0.729 0.87516 0.0
C450 C 0.23921 0.78103 0.79601 0.0
C451 C 0.24191 0.76416 0.86223 0.0
C452 C 0.2541 0.76619 0.9033 0.0
C453 C 0.21796 0.76019 0.78603 0.0
C454 C 0.20794 0.74149 0.81541 0.0
C455 C 0.22058 0.74325 0.85233 0.0
C456 C 0.18241 0.72306 0.81424 0.0
C457 C 0.20582 0.75897 0.7452 0.0
C458 C 0.16575 0.73083 0.81811 0.0
C459 C 0.14456 0.71687 0.83965 0.0
C460 C 0.14007 0.69522 0.85728 0.0
C461 C 0.15403 0.68522 0.84531 0.0
C462 C 0.1754 0.69928 0.82396 0.0
H463 H 0.21921 0.76852 0.72029 0.0
H464 H 0.19377 0.74024 0.73513 0.0
H465 H 0.19517 0.768 0.74878 0.0
H466 H 0.17067 0.74908 0.81096 0.0
H467 H 0.13383 0.72475 0.84843 0.0
H468 H 0.57155 0.12012 0.81928 0.0
H469 H 0.56057 0.13708 0.87766 0.0
H470 H 0.62005 0.14321 0.94855 0.0
H471 H 0.63173 0.12752 0.88912 0.0
H472 H 0.54535 0.11063 0.94247 0.0
H473 H 0.61691 0.1983 0.99737 0.0
H474 H 0.61715 0.18707 0.9458 0.0
H475 H 0.62816 0.17825 0.99001 0.0
C476 C 0.58303 0.12644 0.84647 0.0
C477 C 0.60254 0.12274 0.84978 0.0
C478 C 0.57669 0.13598 0.87998 0.0
C479 C 0.58936 0.14138 0.91782 0.0
C480 C 0.61021 0.13973 0.91963 0.0
H481 H 0.5415 0.10025 0.1596 0.0
H482 H 0.56652 0.11938 0.0986 0.0
C483 C 0.61688 0.13068 0.88564 0.0
C484 C 0.57791 0.14319 0.95701 0.0
H485 H 0.58868 0.17237 0.05073 0.0
C486 C 0.55465 0.1246 0.96548 0.0
C487 C 0.59 0.16121 0.98751 0.0
C488 C 0.61434 0.18245 0.97948 0.0
C489 C 0.54368 0.1228 0.00403 0.0
C490 C 0.55624 0.14002 0.03529 0.0
C491 C 0.5791 0.15921 0.02661 0.0
C492 C 0.54652 0.13607 0.07824 0.0
C493 C 0.51917 0.10167 0.01206 0.0
C494 C 0.5278 0.14028 0.08823 0.0
C495 C 0.51357 0.12954 0.1235 0.0
C496 C 0.51771 0.11414 0.14856 0.0
C497 C 0.53787 0.11194 0.14065 0.0
C498 C 0.55226 0.12296 0.10594 0.0
H499 H 0.51196 0.08961 0.9846 0.0
H500 H 0.51984 0.09122 0.03896 0.0
H501 H 0.50661 0.10803 0.02021 0.0
H502 H 0.52298 0.15016 0.06694 0.0
H503 H 0.49806 0.13142 0.12875 0.0
H504 H 0.44668 0.57558 0.16806 0.0
H505 H 0.42458 0.5681 0.2328 0.0
H506 H 0.48153 0.63364 0.28426 0.0
H507 H 0.50393 0.64094 0.2189 0.0
H508 H 0.47669 0.59745 0.32672 0.0
H509 H 0.3862 0.58326 0.31052 0.0
H510 H 0.39098 0.5676 0.26895 0.0
H511 H 0.40908 0.59972 0.27208 0.0
C512 C 0.45384 0.58911 0.19228 0.0
C513 C 0.47699 0.60878 0.18859 0.0
C514 C 0.44112 0.58486 0.22948 0.0
C515 C 0.4513 0.60024 0.2638 0.0
C516 C 0.47323 0.62151 0.25827 0.0
H517 H 0.38977 0.52436 0.50404 0.0
H518 H 0.40147 0.55645 0.4521 0.0
C519 C 0.48597 0.62582 0.22077 0.0
C520 C 0.44215 0.5909 0.30645 0.0
H521 H 0.39011 0.55502 0.35861 0.0
C522 C 0.45786 0.58897 0.33427 0.0
C523 C 0.41763 0.57987 0.317 0.0
C524 C 0.40013 0.58299 0.29062 0.0
C525 C 0.44944 0.57437 0.3697 0.0
C526 C 0.42463 0.56107 0.37738 0.0
C527 C 0.40911 0.56485 0.3522 0.0
C528 C 0.41478 0.54086 0.4073 0.0
C529 C 0.46709 0.57204 0.39718 0.0
C530 C 0.41765 0.5212 0.39866 0.0
C531 C 0.41124 0.50315 0.42805 0.0
C532 C 0.40155 0.50415 0.46679 0.0
C533 C 0.3973 0.52315 0.47456 0.0
C534 C 0.40396 0.54147 0.44498 0.0
H535 H 0.48518 0.58802 0.39484 0.0
H536 H 0.46133 0.56944 0.43035 0.0
H537 H 0.46833 0.55628 0.38703 0.0
H538 H 0.42558 0.52019 0.36948 0.0
H539 H 0.41434 0.48858 0.42064 0.0
H540 H 0.88507 0.38316 0.765 0.0
H541 H 0.86653 0.38898 0.70391 0.0
H542 H 0.81242 0.38963 0.78201 0.0
H543 H 0.83275 0.38605 0.8442 0.0
H544 H 0.82936 0.3736 0.6598 0.0
H545 H 0.83924 0.45458 0.74088 0.0
H546 H 0.84943 0.43623 0.76489 0.0
H547 H 0.81798 0.42615 0.76201 0.0
C548 C 0.86877 0.38379 0.76902 0.0
C549 C 0.86042 0.38436 0.80913 0.0
C550 C 0.85809 0.38715 0.73396 0.0
C551 C 0.83852 0.39081 0.73809 0.0
C552 C 0.82816 0.38806 0.77794 0.0
H553 H 0.84687 0.45926 0.49283 0.0
H554 H 0.82227 0.43086 0.54816 0.0
C555 C 0.83945 0.3855 0.81346 0.0
C556 C 0.83217 0.40101 0.70164 0.0
H557 H 0.83819 0.45408 0.66908 0.0
C558 C 0.83065 0.39095 0.66191 0.0
C559 C 0.83336 0.42353 0.70407 0.0
C560 C 0.83519 0.43588 0.74511 0.0
C561 C 0.83384 0.4041 0.62513 0.0
C562 C 0.83764 0.42755 0.62807 0.0
C563 C 0.8355 0.43614 0.66713 0.0
C564 C 0.85036 0.44543 0.59463 0.0
C565 C 0.83583 0.3939 0.58392 0.0
C566 C 0.87388 0.46336 0.60273 0.0
C567 C 0.88772 0.47921 0.57164 0.0
C568 C 0.87844 0.47777 0.53147 0.0
C569 C 0.85445 0.46066 0.52354 0.0
C570 C 0.84049 0.4444 0.55498 0.0
H571 H 0.83315 0.37562 0.58716 0.0
H572 H 0.82228 0.3932 0.5619 0.0
H573 H 0.85369 0.4056 0.57 0.0
H574 H 0.88192 0.4646 0.63298 0.0
H575 H 0.90601 0.49244 0.57894 0.0
H576 H 0.40787 0.85681 0.82376 0.0
H577 H 0.4159 0.83707 0.88165 0.0
H578 H 0.37937 0.86034 0.9657 0.0
H579 H 0.37035 0.87871 0.90764 0.0
H580 H 0.44476 0.86253 0.9368 0.0
H581 H 0.36477 0.80158 0.02491 0.0
H582 H 0.36282 0.8102 0.97212 0.0
H583 H 0.36325 0.82806 0.01596 0.0
C584 C 0.40036 0.85636 0.85421 0.0
C585 C 0.38821 0.8689 0.86134 0.0
C586 C 0.40511 0.84527 0.88741 0.0
C587 C 0.39824 0.84704 0.92839 0.0
C588 C 0.38433 0.85793 0.93457 0.0
H589 H 0.45898 0.90405 0.14545 0.0
H590 H 0.43233 0.88073 0.08878 0.0
C591 C 0.37923 0.86861 0.90129 0.0
C592 C 0.40992 0.84285 0.96503 0.0
H593 H 0.4006 0.82832 0.06853 0.0
C594 C 0.43497 0.85414 0.96511 0.0
C595 C 0.39739 0.83174 0.00218 0.0
C596 C 0.37055 0.817 0.00349 0.0
C597 C 0.44778 0.8571 0.00208 0.0
C598 C 0.43524 0.84856 0.04009 0.0
C599 C 0.41022 0.83513 0.03943 0.0
C600 C 0.44764 0.85798 0.0805 0.0
C601 C 0.4747 0.87139 0.00091 0.0
C602 C 0.46446 0.85222 0.09596 0.0
C603 C 0.47972 0.86552 0.12885 0.0
C604 C 0.4785 0.8849 0.1461 0.0
C605 C 0.46048 0.88937 0.1325 0.0
C606 C 0.44513 0.87595 0.10026 0.0
H607 H 0.4817 0.87755 0.96892 0.0
H608 H 0.48127 0.88726 0.02157 0.0
H609 H 0.48211 0.86031 0.01263 0.0
H610 H 0.46664 0.83837 0.08114 0.0
H611 H 0.4935 0.86174 0.13867 0.0
H612 H 0.54598 0.43619 0.15695 0.0
H613 H 0.57362 0.44466 0.2149 0.0
H614 H 0.52182 0.37941 0.27513 0.0
H615 H 0.49486 0.37024 0.21564 0.0
H616 H 0.56216 0.45455 0.28464 0.0
H617 H 0.58079 0.38166 0.31641 0.0
H618 H 0.56866 0.38419 0.26719 0.0
H619 H 0.54935 0.37021 0.31133 0.0
C620 C 0.54105 0.42313 0.18164 0.0
C621 C 0.5184 0.40258 0.18193 0.0
C622 C 0.55679 0.42799 0.21488 0.0
C623 C 0.54991 0.41278 0.24975 0.0
C624 C 0.52793 0.39124 0.24846 0.0
H625 H 0.55998 0.44586 0.50148 0.0
H626 H 0.5543 0.42329 0.43718 0.0
C627 C 0.51241 0.38603 0.21449 0.0
C628 C 0.56316 0.42183 0.2899 0.0
H629 H 0.58376 0.40653 0.37619 0.0
C630 C 0.56746 0.44424 0.30396 0.0
C631 C 0.5699 0.40839 0.31568 0.0
C632 C 0.56715 0.38489 0.30163 0.0
C633 C 0.57726 0.45311 0.34334 0.0
C634 C 0.583 0.43926 0.36983 0.0
C635 C 0.57944 0.41715 0.35568 0.0
C636 C 0.58985 0.44676 0.41376 0.0
C637 C 0.58029 0.47681 0.35733 0.0
C638 C 0.61234 0.46641 0.42328 0.0
C639 C 0.61573 0.47925 0.46042 0.0
C640 C 0.59651 0.47272 0.48791 0.0
C641 C 0.57504 0.45131 0.4807 0.0
C642 C 0.57179 0.43834 0.44399 0.0
H643 H 0.57341 0.48457 0.33401 0.0
H644 H 0.5708 0.47466 0.38731 0.0
H645 H 0.59949 0.48969 0.36262 0.0
H646 H 0.62646 0.47325 0.40019 0.0
H647 H 0.63241 0.49575 0.46507 0.0
H648 H 0.11344 0.6249 0.76194 0.0
H649 H 0.1321 0.61469 0.70549 0.0
H650 H 0.1554 0.58032 0.79385 0.0
H651 H 0.13557 0.58964 0.85029 0.0
H652 H 0.17303 0.61737 0.67912 0.0
H653 H 0.10793 0.52409 0.72732 0.0
H654 H 0.1083 0.54947 0.75119 0.0
H655 H 0.13063 0.54183 0.76463 0.0
C656 C 0.12339 0.61602 0.76949 0.0
C657 C 0.12312 0.60801 0.81023 0.0
C658 C 0.13402 0.61011 0.7372 0.0
C659 C 0.14452 0.59605 0.74514 0.0
C660 C 0.14681 0.59059 0.78678 0.0
H661 H 0.13317 0.50097 0.54025 0.0
H662 H 0.15445 0.52642 0.60042 0.0
C663 C 0.13581 0.5962 0.81911 0.0
C664 C 0.149 0.58408 0.70933 0.0
H665 H 0.12536 0.52945 0.66221 0.0
C666 C 0.16305 0.5981 0.67581 0.0
C667 C 0.13601 0.55886 0.70482 0.0
C668 C 0.11973 0.54262 0.73867 0.0
C669 C 0.16305 0.58773 0.63715 0.0
C670 C 0.14867 0.56277 0.6319 0.0
C671 C 0.13643 0.5486 0.6664 0.0
C672 C 0.14195 0.55139 0.59004 0.0
C673 C 0.17748 0.60367 0.6016 0.0
C674 C 0.12847 0.55737 0.56359 0.0
C675 C 0.11605 0.54269 0.52988 0.0
C676 C 0.11706 0.52189 0.52162 0.0
C677 C 0.13226 0.51702 0.54574 0.0
C678 C 0.14439 0.53153 0.58011 0.0
H679 H 0.19331 0.62018 0.61332 0.0
H680 H 0.18353 0.59429 0.58006 0.0
H681 H 0.16628 0.60906 0.5837 0.0
H682 H 0.12589 0.57227 0.57101 0.0
H683 H 0.10446 0.54684 0.51177 0.0
H684 H 0.39752 0.99319 0.85786 0.0
H685 H 0.38442 0.0095 0.91351 0.0
H686 H 0.31683 0.94386 0.9188 0.0
H687 H 0.33017 0.92706 0.86294 0.0
H688 H 0.346 0.01687 0.93271 0.0
H689 H 0.34644 0.94639 0.03256 0.0
H690 H 0.35803 0.95144 0.98012 0.0
H691 H 0.32645 0.93755 0.98877 0.0
C692 C 0.37967 0.9823 0.87025 0.0
C693 C 0.36509 0.95864 0.85672 0.0
C694 C 0.37211 0.99175 0.90188 0.0
C695 C 0.34983 0.97777 0.92091 0.0
C696 C 0.33426 0.95483 0.90498 0.0
H697 H 0.37245 0.02204 0.17755 0.0
H698 H 0.34375 0.00437 0.11997 0.0
C699 C 0.34185 0.9453 0.87297 0.0
C700 C 0.34533 0.98635 0.96103 0.0
H701 H 0.35273 0.98108 0.06496 0.0
C702 C 0.34664 0.0087 0.96186 0.0
C703 C 0.34572 0.97553 0.99917 0.0
C704 C 0.34415 0.95144 0.0005 0.0
C705 C 0.35108 0.02166 0.99924 0.0
C706 C 0.35473 0.01217 0.03646 0.0
C707 C 0.35025 0.98856 0.03641 0.0
C708 C 0.36819 0.02756 0.07254 0.0
C709 C 0.35326 0.04596 0.99793 0.0
C710 C 0.39105 0.04728 0.06554 0.0
C711 C 0.40723 0.05744 0.09839 0.0
C712 C 0.40091 0.04807 0.13876 0.0
C713 C 0.37749 0.0298 0.14669 0.0
C714 C 0.36117 0.01967 0.11377 0.0
H715 H 0.34003 0.04595 0.97584 0.0
H716 H 0.35054 0.05167 0.02919 0.0
H717 H 0.37125 0.05923 0.98633 0.0
H718 H 0.39732 0.05333 0.03413 0.0
H719 H 0.4254 0.07117 0.09153 0.0
H720 H 0.40765 0.33394 0.20426 0.0
H721 H 0.38096 0.32081 0.26511 0.0
H722 H 0.36261 0.37512 0.23955 0.0
H723 H 0.38916 0.38826 0.17942 0.0
H724 H 0.39381 0.35445 0.32673 0.0
H725 H 0.29974 0.32175 0.28576 0.0
H726 H 0.32085 0.32131 0.24926 0.0
H727 H 0.31946 0.34817 0.25703 0.0
C728 C 0.39714 0.34238 0.21073 0.0
C729 C 0.40065 0.3623 0.18754 0.0
C730 C 0.38189 0.33486 0.24544 0.0
C731 C 0.3696 0.34684 0.25676 0.0
C732 C 0.37144 0.36524 0.23109 0.0
H733 H 0.34232 0.41216 0.45056 0.0
H734 H 0.33626 0.38813 0.38793 0.0
C735 C 0.38687 0.37294 0.19694 0.0
C736 C 0.35976 0.34449 0.29947 0.0
H737 H 0.31307 0.34266 0.35264 0.0
C738 C 0.37589 0.35107 0.33274 0.0
C739 C 0.33648 0.3404 0.30709 0.0
C740 C 0.31808 0.33228 0.27287 0.0
C741 C 0.37025 0.35584 0.37251 0.0
C742 C 0.34733 0.35299 0.37979 0.0
C743 C 0.33056 0.34476 0.34719 0.0
C744 C 0.34216 0.36184 0.41905 0.0
C745 C 0.38973 0.36599 0.40515 0.0
C746 C 0.34532 0.35387 0.458 0.0
C747 C 0.34941 0.36795 0.49359 0.0
C748 C 0.34937 0.3896 0.49092 0.0
C749 C 0.34232 0.39547 0.45344 0.0
C750 C 0.33893 0.38175 0.41756 0.0
H751 H 0.40757 0.37145 0.39172 0.0
H752 H 0.39066 0.38182 0.42059 0.0
H753 H 0.38593 0.35227 0.4293 0.0
H754 H 0.34716 0.33816 0.46008 0.0
H755 H 0.35474 0.36305 0.52225 0.0
H756 H 0.07668 0.41201 0.54001 0.0
H757 H 0.06389 0.38593 0.60168 0.0
H758 H 0.99091 0.36708 0.57761 0.0
H759 H 0.00354 0.3926 0.51667 0.0
H760 H 0.04744 0.39814 0.66442 0.0
H761 H 0.97811 0.3067 0.63065 0.0
H762 H -0.00125 0.32543 0.59075 0.0
H763 H 0.97105 0.32523 0.59948 0.0
C764 C 0.05781 0.40134 0.54695 0.0
C765 C 0.04107 0.40445 0.52401 0.0
C766 C 0.05051 0.38647 0.58219 0.0
C767 C 0.02637 0.3743 0.5944 0.0
C768 C 0.00952 0.37564 0.56866 0.0
H769 H 0.95388 0.39821 0.75014 0.0
H770 H 0.97733 0.38908 0.70216 0.0
C771 C 0.01679 0.39055 0.53393 0.0
C772 C 0.01919 0.36549 0.63785 0.0
H773 H 0.96784 0.32717 0.68908 0.0
C774 C 0.03063 0.38196 0.67033 0.0
C775 C -0.00242 0.34415 0.64653 0.0
C776 C 0.98592 0.32432 0.61489 0.0
C777 C 0.01905 0.37965 0.70847 0.0
C778 C 0.9955 0.3606 0.71394 0.0
C779 C 0.9857 0.34213 0.68438 0.0
C780 C 0.97929 0.36347 0.74281 0.0
C781 C 0.03085 0.39919 0.74064 0.0
C782 C 0.97195 0.35141 0.78111 0.0
C783 C 0.95826 0.35655 0.80887 0.0
C784 C 0.95204 0.3739 0.79853 0.0
C785 C 0.95867 0.38504 0.75935 0.0
C786 C 0.97203 0.37981 0.73182 0.0
H787 H 0.0506 0.40852 0.73789 0.0
H788 H 0.02508 0.41254 0.73576 0.0
H789 H 0.02561 0.39191 0.77271 0.0
H790 H 0.97737 0.33867 0.78996 0.0
H791 H 0.95338 0.34771 0.8389 0.0
H792 H 0.60973 0.99756 0.15346 0.0
H793 H 0.63465 0.00953 0.0914 0.0
H794 H 0.61465 0.93612 0.06818 0.0
H795 H 0.58892 0.92386 0.13035 0.0
H796 H 0.67053 0.00578 0.04995 0.0
H797 H 0.58163 0.95054 0.97424 0.0
H798 H 0.5843 0.95644 0.02949 0.0
H799 H 0.59212 0.93559 0.0079 0.0
C800 C 0.61115 0.98399 0.13587 0.0
C801 C 0.59688 0.95971 0.14603 0.0
C802 C 0.62557 0.9909 0.10048 0.0
C803 C 0.62598 0.97367 0.07442 0.0
C804 C 0.61416 0.94966 0.08739 0.0
H805 H 0.63159 0.01198 0.81576 0.0
H806 H 0.64012 0.99131 0.87114 0.0
C807 C 0.5996 0.94268 0.12305 0.0
C808 C 0.63457 0.98069 0.0309 0.0
H809 H 0.61208 0.97907 0.93404 0.0
C810 C 0.65798 -0.0005 0.02418 0.0
C811 C 0.61823 0.97248 0.99717 0.0
C812 C 0.59263 0.95276 0.0023 0.0
C813 C 0.66489 0.01145 0.9856 0.0
C814 C 0.64785 0.00462 0.95322 0.0
C815 C 0.6252 0.98441 0.9588 0.0
C816 C 0.65121 0.01992 0.91624 0.0
C817 C 0.69009 0.03179 0.98053 0.0
C818 C 0.65604 0.04351 0.92212 0.0
C819 C 0.65165 0.05551 0.89009 0.0
C820 C 0.64207 0.04396 0.85202 0.0
C821 C 0.63925 0.0213 0.84481 0.0
C822 C 0.64406 0.00947 0.87649 0.0
H823 H 0.70273 0.02844 0.99869 0.0
H824 H 0.69569 0.03464 0.94729 0.0
H825 H 0.69131 0.04841 0.99292 0.0
H826 H 0.66094 0.05182 0.95261 0.0
H827 H 0.65347 0.0728 0.89653 0.0
H828 H 0.66382 0.58103 0.45341 0.0
H829 H 0.67682 0.60704 0.39152 0.0
H830 H 0.62304 0.6262 0.41687 0.0
H831 H 0.61006 0.60031 0.47771 0.0
H832 H 0.64439 0.5947 0.32933 0.0
H833 H 0.67552 0.68832 0.36943 0.0
H834 H 0.67658 0.66768 0.40621 0.0
H835 H 0.64975 0.66935 0.40013 0.0
C836 C 0.65553 0.59161 0.44654 0.0
C837 C 0.63586 0.58863 0.46992 0.0
C838 C 0.66295 0.60645 0.41129 0.0
C839 C 0.65112 0.61884 0.39976 0.0
C840 C 0.63289 0.61738 0.42553 0.0
H841 H 0.57018 0.63646 0.2386 0.0
H842 H 0.60056 0.64334 0.29062 0.0
C843 C 0.62527 0.60235 0.4601 0.0
C844 C 0.65329 0.62848 0.35699 0.0
H845 H 0.64929 0.67286 0.30697 0.0
C846 C 0.64643 0.61217 0.32382 0.0
C847 C 0.65613 0.65132 0.34979 0.0
C848 C 0.66517 0.67021 0.38333 0.0
C849 C 0.63905 0.61673 0.28549 0.0
C850 C 0.6392 0.63855 0.27992 0.0
C851 C 0.64891 0.65605 0.31135 0.0
C852 C 0.62474 0.64108 0.24653 0.0
C853 C 0.62862 0.59703 0.25322 0.0
C854 C 0.62883 0.63889 0.20406 0.0
C855 C 0.61128 0.63472 0.17435 0.0
C856 C 0.58981 0.63327 0.18678 0.0
C857 C 0.58676 0.63776 0.22844 0.0
C858 C 0.60413 0.64172 0.25809 0.0
H859 H 0.62735 0.58023 0.26467 0.0
H860 H 0.61049 0.59314 0.24399 0.0
H861 H 0.64006 0.60276 0.22497 0.0
H862 H 0.64478 0.63874 0.19436 0.0
H863 H 0.61381 0.6311 0.14229 0.0
H864 H 0.06647 0.64004 0.76061 0.0
H865 H 0.0482 0.64957 0.70294 0.0
H866 H 0.99419 0.64624 0.7864 0.0
H867 H 0.01208 0.63548 0.84394 0.0
H868 H 0.9742 0.61708 0.72714 0.0
H869 H 0.03939 0.69965 0.65007 0.0
H870 H 0.05354 0.68232 0.65836 0.0
H871 H 0.04398 0.69274 0.70269 0.0
C872 C 0.05128 0.64234 0.76687 0.0
C873 C 0.04069 0.63725 0.80646 0.0
C874 C 0.04092 0.64803 0.73395 0.0
C875 C 0.01993 0.64905 0.74018 0.0
C876 C 0.01045 0.64577 0.78078 0.0
H877 H 0.92636 0.59074 0.52229 0.0
H878 H 0.9402 0.61936 0.58053 0.0
C879 C 0.02065 0.63967 0.81363 0.0
C880 C 0.00549 0.64803 0.70327 0.0
H881 H 0.01272 0.66621 0.60177 0.0
C882 C 0.98225 0.6284 0.70014 0.0
C883 C 0.01565 0.663 0.66813 0.0
C884 C 0.03943 0.68574 0.6703 0.0
C885 C 0.97044 0.62131 0.66161 0.0
C886 C 0.98212 0.63443 0.62527 0.0
C887 C 0.00392 0.65589 0.62945 0.0
C888 C 0.97532 0.62306 0.5834 0.0
C889 C 0.94677 0.59832 0.65959 0.0
C890 C 0.99104 0.6172 0.56359 0.0
C891 C 0.98332 0.60119 0.53032 0.0
C892 C 0.95965 0.59059 0.51609 0.0
C893 C 0.94462 0.59838 0.53292 0.0
C894 C 0.95246 0.61462 0.56637 0.0
H895 H 0.94109 0.58945 0.69049 0.0
H896 H 0.93279 0.60209 0.64837 0.0
H897 H 0.94781 0.58565 0.63742 0.0
H898 H 0.00881 0.62357 0.5759 0.0
H899 H 0.99554 0.59597 0.51753 0.0
H900 H 0.43793 0.9881 0.29608 0.0
H901 H 0.44429 0.97683 0.36432 0.0
H902 H 0.47547 0.05003 0.40598 0.0
H903 H 0.46809 0.06113 0.33663 0.0
H904 H 0.50775 0.03941 0.40972 0.0
H905 H 0.43689 0.96426 0.48516 0.0
H906 H 0.4291 0.95391 0.43261 0.0
H907 H 0.42937 0.98088 0.44888 0.0
C908 C 0.44529 0.00168 0.3202 0.0
C909 C 0.45365 0.02571 0.3106 0.0
C910 C 0.44864 0.99516 0.35987 0.0
C911 C 0.4609 0.01261 0.39074 0.0
C912 C 0.46619 0.03619 0.38282 0.0
H913 H 0.55248 0.9695 0.3433 0.0
H914 H 0.54085 0.97907 0.41071 0.0
C915 C 0.46229 0.04263 0.34299 0.0
C916 C 0.47437 0.00739 0.42278 0.0
H917 H 0.46896 0.95369 0.44567 0.0
C918 C 0.49934 0.02093 0.41964 0.0
C919 C 0.46433 0.98427 0.44029 0.0
C920 C 0.4384 0.97022 0.45224 0.0
C921 C 0.51289 0.00946 0.41914 0.0
C922 C 0.50081 0.98423 0.42214 0.0
C923 C 0.47786 0.97276 0.43989 0.0
C924 C 0.50571 0.97077 0.38967 0.0
C925 C 0.53889 0.02379 0.40752 0.0
C926 C 0.48925 0.96102 0.35663 0.0
C927 C 0.4959 0.95569 0.31868 0.0
C928 C 0.51896 0.95951 0.31303 0.0
C929 C 0.53461 0.96652 0.34719 0.0
C930 C 0.52799 0.97208 0.38555 0.0
H931 H 0.54613 0.04323 0.41253 0.0
H932 H 0.54946 0.01808 0.42652 0.0
H933 H 0.54116 0.02091 0.37404 0.0
H934 H 0.47194 0.95973 0.35859 0.0
H935 H 0.48351 0.95017 0.29272 0.0
H936 H 0.46389 0.507 0.61324 0.0
H937 H 0.48612 0.52584 0.67622 0.0
H938 H 0.43074 0.47007 0.75081 0.0
H939 H 0.40802 0.45106 0.68645 0.0
H940 H 0.48243 0.54171 0.76077 0.0
H941 H 0.48715 0.4586 0.76635 0.0
H942 H 0.47294 0.46149 0.72021 0.0
H943 H 0.45934 0.45852 0.77049 0.0
C944 C 0.45609 0.49914 0.64315 0.0
C945 C 0.4346 0.47743 0.64518 0.0
C946 C 0.46868 0.51005 0.67933 0.0
C947 C 0.46036 0.49922 0.71843 0.0
C948 C 0.43765 0.47863 0.721 0.0
H949 H 0.58462 0.52304 0.67722 0.0
H950 H 0.56674 0.52321 0.74497 0.0
C951 C 0.42471 0.46779 0.68435 0.0
C952 C 0.47836 0.50673 0.75234 0.0
H953 H 0.52384 0.49504 0.75481 0.0
C954 C 0.49125 0.53123 0.76211 0.0
C955 C 0.48992 0.49326 0.75785 0.0
C956 C 0.47662 0.46645 0.7537 0.0
C957 C 0.51628 0.54317 0.76417 0.0
C958 C 0.528 0.5303 0.7541 0.0
C959 C 0.51495 0.50536 0.7587 0.0
C960 C 0.5469 0.53952 0.72119 0.0
C961 C 0.52991 0.56989 0.76944 0.0
C962 C 0.54336 0.55025 0.68579 0.0
C963 C 0.55303 0.54957 0.64744 0.0
C964 C 0.5668 0.53852 0.64344 0.0
C965 C 0.57349 0.53107 0.67954 0.0
C966 C 0.56344 0.5314 0.71829 0.0
H967 H 0.52391 0.57479 0.7984 0.0
H968 H 0.54946 0.57701 0.77122 0.0
H969 H 0.52594 0.57847 0.74306 0.0
H970 H 0.53069 0.55652 0.68604 0.0
H971 H 0.54806 0.55597 0.62014 0.0
H972 H 0.91907 0.41653 0.00628 0.0
H973 H 0.9354 0.43492 0.07472 0.0
H974 H 0.00556 0.47421 0.01958 0.0
H975 H 0.98935 0.45613 0.95255 0.0
H976 H 0.00851 0.46773 0.10718 0.0
H977 H 0.94591 0.50132 0.0843 0.0
H978 H 0.93616 0.47043 0.09521 0.0
H979 H 0.94481 0.48191 0.04299 0.0
C980 C 0.93807 0.42847 0.00953 0.0
C981 C 0.95294 0.43546 0.97422 0.0
C982 C 0.94741 0.43901 0.04857 0.0
C983 C 0.97168 0.4565 0.0524 0.0
C984 C 0.98679 0.46091 0.01791 0.0
H985 H 0.0528 0.5349 0.96002 0.0
H986 H 0.04137 0.51514 0.02681 0.0
C987 C 0.97749 0.45072 0.97926 0.0
C988 C 0.98087 0.47469 0.08642 0.0
H989 H 0.98752 0.5298 0.07578 0.0
C990 C 0.00356 0.48129 0.10262 0.0
C991 C 0.97412 0.49239 0.08543 0.0
C992 C 0.94881 0.48621 0.07662 0.0
C993 C 0.02147 0.5055 0.10341 0.0
C994 C 0.01624 0.52262 0.08676 0.0
C995 C 0.99215 0.51649 0.08491 0.0
C996 C 0.03237 0.54023 0.05505 0.0
C997 C 0.04651 0.5121 0.11545 0.0
C998 C 0.03274 0.56196 0.04847 0.0
C999 C 0.0396 0.57348 0.00956 0.0
C1000 C 0.04572 0.56314 0.97676 0.0
C1001 C 0.04788 0.54305 0.98478 0.0
C1002 C 0.0416 0.5319 0.02356 0.0
H1003 H 0.04626 0.50381 0.14593 0.0
H1004 H 0.05391 0.50488 0.09204 0.0
H1005 H 0.05836 0.53175 0.11785 0.0
H1006 H 0.02573 0.56884 0.07199 0.0
H1007 H 0.03809 0.58914 0.00405 0.0
H1008 H 0.06694 0.47957 0.32878 0.0
H1009 H 0.05764 0.48736 0.25813 0.0
H1010 H 0.98449 0.46035 0.29611 0.0
H1011 H 0.99388 0.4531 0.36535 0.0
H1012 H 0.98729 0.45691 0.20786 0.0
H1013 H 0.05621 0.54817 0.24965 0.0
H1014 H 0.06269 0.52479 0.23702 0.0
H1015 H 0.0533 0.52712 0.28906 0.0
C1016 C 0.04884 0.47486 0.32143 0.0
C1017 C 0.0314 0.46688 0.35293 0.0
C1018 C 0.04346 0.47918 0.28096 0.0
C1019 C 0.02049 0.47522 0.27174 0.0
C1020 C 0.00245 0.46388 0.30192 0.0
H1021 H 0.93612 0.4741 0.35482 0.0
H1022 H 0.9509 0.46951 0.28833 0.0
C1023 C 0.00788 0.45998 0.34203 0.0
C1024 C 0.01596 0.48802 0.23749 0.0
H1025 H 0.01519 0.53875 0.25955 0.0
C1026 C 0.99383 0.47532 0.21695 0.0
C1027 C 0.02518 0.51278 0.24345 0.0
C1028 C 0.05083 0.52919 0.25533 0.0
C1029 C 0.97779 0.48403 0.21809 0.0
C1030 C 0.98448 0.50543 0.24026 0.0
C1031 C 0.00901 0.52119 0.24631 0.0
C1032 C 0.96778 0.507 0.27076 0.0
C1033 C 0.95293 0.46873 0.20137 0.0
C1034 C 0.97109 0.52934 0.28349 0.0
C1035 C 0.96298 0.53193 0.32271 0.0
C1036 C 0.95086 0.51216 0.3491 0.0
C1037 C 0.94512 0.48952 0.33457 0.0
C1038 C 0.95343 0.48692 0.29587 0.0
H1039 H 0.95368 0.46232 0.16954 0.0
H1040 H 0.94317 0.45272 0.22137 0.0
H1041 H 0.94297 0.47858 0.20028 0.0
H1042 H 0.98202 0.54519 0.26511 0.0
H1043 H 0.96816 0.54967 0.334 0.0
H1044 H 0.46484 0.94525 0.69918 0.0
H1045 H 0.4831 0.96365 0.63342 0.0
H1046 H 0.42179 0.97028 0.60234 0.0
H1047 H 0.40345 0.95172 0.66936 0.0
H1048 H 0.47926 0.96795 0.54553 0.0
H1049 H 0.47027 0.03883 0.62729 0.0
H1050 H 0.45918 0.01134 0.65574 0.0
H1051 H 0.44482 0.01205 0.60814 0.0
C1052 C 0.45481 0.94973 0.67758 0.0
C1053 C 0.43316 0.94786 0.68968 0.0
C1054 C 0.46515 0.96009 0.63959 0.0
C1055 C 0.45423 0.96918 0.61326 0.0
C1056 C 0.43085 0.96396 0.62247 0.0
H1057 H 0.57573 0.07793 0.67308 0.0
H1058 H 0.55226 0.06847 0.60867 0.0
C1059 C 0.42032 0.9533 0.66072 0.0
C1060 C 0.47033 0.98923 0.58545 0.0
H1061 H 0.50925 0.04585 0.61631 0.0
C1062 C 0.48558 0.98547 0.55916 0.0
C1063 C 0.47829 0.01278 0.5998 0.0
C1064 C 0.46227 0.01918 0.62397 0.0
C1065 C 0.51014 0.00219 0.55825 0.0
C1066 C 0.51903 0.02266 0.58407 0.0
C1067 C 0.50279 0.02937 0.59885 0.0
C1068 C 0.54116 0.03082 0.60931 0.0
C1069 C 0.52664 0.9962 0.53481 0.0
C1070 C 0.54433 0.01332 0.62973 0.0
C1071 C 0.55787 0.01883 0.66608 0.0
C1072 C 0.56863 0.04191 0.68277 0.0
C1073 C 0.56792 0.06008 0.66019 0.0
C1074 C 0.55441 0.05461 0.62343 0.0
H1075 H 0.51973 0.99011 0.50284 0.0
H1076 H 0.54502 0.01176 0.53282 0.0
H1077 H 0.52715 0.98115 0.55037 0.0
H1078 H 0.53399 0.99469 0.621 0.0
H1079 H 0.55799 0.00449 0.68335 0.0
H1080 H 0.47613 0.53347 0.02896 0.0
H1081 H 0.47405 0.5157 0.96146 0.0
H1082 H 0.5435 0.5749 0.92982 0.0
H1083 H 0.54595 0.59181 0.99971 0.0
H1084 H 0.47886 0.51971 0.87529 0.0
H1085 H 0.56204 0.5257 0.93368 0.0
H1086 H 0.54994 0.53885 0.96828 0.0
H1087 H 0.56048 0.55146 0.91716 0.0
C1088 C 0.49062 0.54308 0.00705 0.0
C1089 C 0.51131 0.56391 0.01929 0.0
C1090 C 0.48937 0.53306 0.96803 0.0
C1091 C 0.50895 0.54354 0.94049 0.0
C1092 C 0.52839 0.5661 0.95067 0.0
H1093 H 0.49433 0.4236 0.99779 0.0
H1094 H 0.5051 0.4445 0.93055 0.0
C1095 C 0.52969 0.57605 0.99025 0.0
C1096 C 0.51078 0.52754 0.90899 0.0
H1097 H 0.52772 0.48708 0.93173 0.0
C1098 C 0.4901 0.51272 0.88574 0.0
C1099 C 0.52643 0.51877 0.91783 0.0
C1100 C 0.55114 0.53457 0.9351 0.0
C1101 C 0.48098 0.4879 0.88496 0.0
C1102 C 0.49311 0.47842 0.90768 0.0
C1103 C 0.51721 0.49399 0.91756 0.0
C1104 C 0.47986 0.45715 0.93536 0.0
C1105 C 0.45704 0.47202 0.86516 0.0
C1106 C 0.46076 0.45545 0.95919 0.0
C1107 C 0.45438 0.44311 0.99692 0.0
C1108 C 0.46688 0.43217 0.01178 0.0
C1109 C 0.48403 0.43138 0.98621 0.0
C1110 C 0.4903 0.44355 0.94793 0.0
H1111 H 0.45633 0.47913 0.83401 0.0
H1112 H 0.45333 0.45337 0.86182 0.0
H1113 H 0.4428 0.47217 0.88424 0.0
H1114 H 0.45263 0.46608 0.95181 0.0
H1115 H 0.44121 0.44411 0.01641 0.0
H1116 H 0.31376 0.92033 0.61655 0.0
H1117 H 0.32294 0.94638 0.55716 0.0
H1118 H 0.38807 -0.00096 0.61669 0.0
H1119 H 0.37958 0.97209 0.67619 0.0
H1120 H 0.3294 0.98801 0.54109 0.0
H1121 H 0.41481 0.9895 0.51164 0.0
H1122 H 0.39321 0.96965 0.54908 0.0
H1123 H 0.41271 0.00068 0.56155 0.0
C1124 C 0.32998 0.93754 0.61757 0.0
C1125 C 0.34625 0.94389 0.65086 0.0
C1126 C 0.33518 0.95248 0.58336 0.0
C1127 C 0.35653 0.97436 0.5818 0.0
C1128 C 0.3719 0.9818 0.61652 0.0
H1129 H 0.38906 0.07823 0.38858 0.0
H1130 H 0.37183 0.0522 0.44841 0.0
C1131 C 0.36694 0.96652 0.65068 0.0
C1132 C 0.36283 0.9883 0.54256 0.0
H1133 H 0.40474 0.01118 0.4655 0.0
C1134 C 0.34589 0.99311 0.52457 0.0
C1135 C 0.38404 0.99432 0.52042 0.0
C1136 C 0.40215 0.98807 0.53634 0.0
C1137 C 0.34954 0.00371 0.48512 0.0
C1138 C 0.37118 0.01062 0.46387 0.0
C1139 C 0.38812 0.00584 0.48181 0.0
C1140 C 0.37746 0.02412 0.42424 0.0
C1141 C 0.32987 0.00674 0.46624 0.0
C1142 C 0.38607 0.01687 0.39027 0.0
C1143 C 0.39643 0.03199 0.35612 0.0
C1144 C 0.39835 0.05463 0.35553 0.0
C1145 C 0.38794 0.06095 0.38804 0.0
C1146 C 0.37786 0.04596 0.42228 0.0
H1147 H 0.31211 0.99302 0.47816 0.0
H1148 H 0.33252 0.0245 0.47512 0.0
H1149 H 0.32974 0.00551 0.43166 0.0
H1150 H 0.38592 4e-05 0.39117 0.0
H1151 H 0.40426 0.02656 0.3316 0.0
H1152 H 0.38541 0.30841 0.95012 0.0
H1153 H 0.36656 0.31614 0.89139 0.0
H1154 H 0.38045 0.38246 0.94802 0.0
H1155 H 0.40047 0.37543 0.00639 0.0
H1156 H 0.3313 0.32465 0.87503 0.0
H1157 H 0.41863 0.4056 0.84208 0.0
H1158 H 0.41505 0.38451 0.88205 0.0
H1159 H 0.40633 0.40649 0.89176 0.0
C1160 C 0.38413 0.32447 0.95062 0.0
C1161 C 0.39503 0.34163 0.9824 0.0
C1162 C 0.37327 0.32882 0.91697 0.0
C1163 C 0.37286 0.35023 0.91475 0.0
C1164 C 0.38133 0.36618 0.9486 0.0
H1165 H 0.30687 0.39065 0.72442 0.0
H1166 H 0.31362 0.37141 0.7836 0.0
C1167 C 0.39257 0.36204 0.98208 0.0
C1168 C 0.36575 0.35669 0.87527 0.0
H1169 H 0.3866 0.39833 0.79785 0.0
C1170 C 0.34336 0.34075 0.85808 0.0
C1171 C 0.38183 0.37738 0.85272 0.0
C1172 C 0.40688 0.39435 0.86783 0.0
C1173 C 0.33647 0.34508 0.81907 0.0
C1174 C 0.35218 0.36624 0.79738 0.0
C1175 C 0.37461 0.38206 0.81449 0.0
C1176 C 0.34549 0.3733 0.75807 0.0
C1177 C 0.31268 0.32673 0.80123 0.0
C1178 C 0.36097 0.38044 0.72359 0.0
C1179 C 0.35746 0.39199 0.68991 0.0
C1180 C 0.33836 0.39648 0.69019 0.0
C1181 C 0.32181 0.38753 0.7232 0.0
C1182 C 0.32551 0.37629 0.75705 0.0
H1183 H 0.30704 0.30861 0.81353 0.0
H1184 H 0.29894 0.33131 0.81051 0.0
H1185 H 0.31323 0.32616 0.76662 0.0
H1186 H 0.3765 0.37825 0.7238 0.0
H1187 H 0.37044 0.39854 0.66485 0.0
H1188 H 0.95543 0.32726 0.00334 0.0
H1189 H 0.98044 0.33646 0.06553 0.0
H1190 H 0.98285 0.4041 0.07747 0.0
H1191 H 0.95872 0.39547 0.01459 0.0
H1192 H 0.02416 0.40728 0.10142 0.0
H1193 H 0.94781 0.32902 0.17666 0.0
H1194 H 0.9588 0.3215 0.13107 0.0
H1195 H 0.94547 0.34002 0.12624 0.0
C1196 C 0.96187 0.34437 0.01859 0.0
C1197 C 0.95478 0.36046 0.00461 0.0
C1198 C 0.97592 0.34948 0.0543 0.0
C1199 C 0.98262 0.3705 0.07692 0.0
C1200 C 0.97753 0.3876 0.06076 0.0
H1201 H 0.02918 0.41799 0.32818 0.0
H1202 H 0.00505 0.4029 0.26491 0.0
C1203 C 0.96382 0.38268 0.02467 0.0
C1204 C 0.99334 0.37395 0.11884 0.0
H1205 H 0.98331 0.3496 0.21655 0.0
C1206 C 0.01527 0.39465 0.12652 0.0
C1207 C 0.98137 0.35763 0.15179 0.0
C1208 C 0.95695 0.33592 0.14626 0.0
C1209 C 0.02574 0.39929 0.16617 0.0
C1210 C 0.01411 0.38265 0.19855 0.0
C1211 C 0.99215 0.36208 0.19122 0.0
C1212 C 0.02478 0.38676 0.24029 0.0
C1213 C 0.04907 0.42206 0.17356 0.0
C1214 C 0.04292 0.38148 0.2479 0.0
C1215 C 0.05673 0.39003 0.2839 0.0
C1216 C 0.05261 0.40408 0.31255 0.0
C1217 C 0.03286 0.4073 0.30667 0.0
C1218 C 0.01908 0.39875 0.27054 0.0
H1219 H 0.05504 0.43387 0.14574 0.0
H1220 H 0.04726 0.432 0.20029 0.0
H1221 H 0.06309 0.41766 0.18178 0.0
H1222 H 0.04737 0.37211 0.22472 0.0
H1223 H 0.07167 0.38705 0.28775 0.0
H1224 H 0.61675 0.03687 0.65201 0.0
H1225 H 0.60939 0.01249 0.58979 0.0
H1226 H 0.68503 0.04024 0.57544 0.0
H1227 H 0.69265 0.06533 0.63719 0.0
H1228 H 0.66504 0.04542 0.50511 0.0
H1229 H 0.61104 0.95267 0.56272 0.0
H1230 H 0.59885 0.97105 0.578 0.0
H1231 H 0.62759 0.97763 0.59747 0.0
C1232 C 0.63181 0.03726 0.63647 0.0
C1233 C 0.65532 0.05311 0.64947 0.0
C1234 C 0.62755 0.02326 0.60083 0.0
C1235 C 0.64666 0.02447 0.5781 0.0
C1236 C 0.67005 0.0391 0.59254 0.0
H1237 H 0.61787 0.92939 0.36915 0.0
H1238 H 0.63785 0.95513 0.42868 0.0
C1239 C 0.67436 0.05332 0.62794 0.0
C1240 C 0.64237 0.01234 0.5372 0.0
H1241 H 0.60963 0.95845 0.48913 0.0
C1242 C 0.6532 0.02634 0.50163 0.0
C1243 C 0.62696 0.98747 0.53276 0.0
C1244 C 0.61563 0.97131 0.56985 0.0
C1245 C 0.64851 0.01619 0.46156 0.0
C1246 C 0.63236 0.99151 0.45706 0.0
C1247 C 0.622 0.97743 0.4927 0.0
C1248 C 0.62517 0.97969 0.41585 0.0
C1249 C 0.66085 0.03193 0.42447 0.0
C1250 C 0.61251 0.98577 0.38759 0.0
C1251 C 0.6012 0.97116 0.35307 0.0
C1252 C 0.60193 0.95001 0.34706 0.0
C1253 C 0.61654 0.94531 0.37325 0.0
C1254 C 0.62798 0.95999 0.40739 0.0
H1255 H 0.67732 0.04854 0.43387 0.0
H1256 H 0.66559 0.02236 0.40092 0.0
H1257 H 0.64866 0.03711 0.40955 0.0
H1258 H 0.61001 0.00085 0.39367 0.0
H1259 H 0.59062 0.97558 0.33284 0.0
H1260 H 0.55986 0.6236 0.95312 0.0
H1261 H 0.57569 0.61693 0.8886 0.0
H1262 H 0.64737 0.66152 0.93441 0.0
H1263 H 0.63137 0.66755 0.00022 0.0
H1264 H 0.60696 0.65476 0.83411 0.0
H1265 H 0.64556 0.5998 0.89012 0.0
H1266 H 0.62315 0.60258 0.91915 0.0
H1267 H 0.65346 0.62668 0.91891 0.0
C1268 C 0.57894 0.63097 0.95033 0.0
C1269 C 0.59441 0.64511 0.98231 0.0
C1270 C 0.58797 0.6276 0.91312 0.0
C1271 C 0.61264 0.63853 0.90704 0.0
C1272 C 0.62824 0.65262 0.93895 0.0
H1273 H 0.68769 0.62217 0.69728 0.0
H1274 H 0.67927 0.64049 0.75666 0.0
C1275 C 0.61916 0.65602 0.97638 0.0
C1276 C 0.62179 0.63595 0.86635 0.0
H1277 H 0.65033 0.61007 0.81903 0.0
C1278 C 0.61663 0.64516 0.83072 0.0
C1279 C 0.63428 0.62338 0.86229 0.0
C1280 C 0.63936 0.61235 0.8995 0.0
C1281 C 0.6235 0.64192 0.79083 0.0
C1282 C 0.63562 0.62897 0.78668 0.0
C1283 C 0.64122 0.62021 0.82245 0.0
C1284 C 0.64124 0.62262 0.74559 0.0
C1285 C 0.61765 0.65225 0.75354 0.0
C1286 C 0.62272 0.60739 0.71866 0.0
C1287 C 0.62748 0.597 0.68448 0.0
C1288 C 0.65076 0.60136 0.67726 0.0
C1289 C 0.66953 0.61826 0.70221 0.0
C1290 C 0.66477 0.62873 0.7362 0.0
H1291 H 0.61488 0.66727 0.76266 0.0
H1292 H 0.63204 0.6587 0.72976 0.0
H1293 H 0.60091 0.63818 0.73902 0.0
H1294 H 0.60438 0.60216 0.72571 0.0
H1295 H 0.61263 0.58413 0.66584 0.0
H1296 H 0.06199 0.68715 0.03501 0.0
H1297 H 0.03584 0.67731 0.09535 0.0
H1298 H 0.9959 0.60405 0.05445 0.0
H1299 H 0.02171 0.61377 0.99317 0.0
H1300 H 0.97972 0.64592 0.11202 0.0
H1301 H 0.03959 0.61232 0.16508 0.0
H1302 H 0.04789 0.63393 0.12363 0.0
H1303 H 0.02612 0.60325 0.11427 0.0
C1304 C 0.04716 0.66908 0.03793 0.0
C1305 C 0.04455 0.65093 0.01038 0.0
C1306 C 0.0322 0.66357 0.07239 0.0
C1307 C 0.01444 0.63993 0.07953 0.0
C1308 C 0.00979 0.62238 0.04939 0.0
H1309 H 0.94151 0.55748 0.29122 0.0
H1310 H 0.96369 0.57464 0.22717 0.0
C1311 C 0.02465 0.62793 0.01463 0.0
C1312 C 0.00413 0.63297 0.1215 0.0
H1313 H 0.00951 0.60796 0.21133 0.0
C1314 C 0.98611 0.63762 0.1339 0.0
C1315 C 0.01297 0.62251 0.14975 0.0
C1316 C 0.03281 0.61777 0.13786 0.0
C1317 C 0.97593 0.63114 0.17382 0.0
C1318 C 0.98458 0.62037 0.202 0.0
C1319 C 0.00305 0.61632 0.18969 0.0
C1320 C 0.97322 0.61093 0.24283 0.0
C1321 C 0.95547 0.63504 0.18487 0.0
C1322 C 0.9719 0.62579 0.27348 0.0
C1323 C 0.95933 0.61594 0.3105 0.0
C1324 C 0.9485 0.59126 0.31749 0.0
C1325 C 0.95065 0.57667 0.28741 0.0
C1326 C 0.96297 0.58642 0.25051 0.0
H1327 H 0.94769 0.63862 0.1568 0.0
H1328 H 0.94115 0.61926 0.2013 0.0
H1329 H 0.962 0.65068 0.20601 0.0
H1330 H 0.98013 0.64485 0.26839 0.0
H1331 H 0.95762 0.62744 0.33318 0.0
H1332 H 0.52198 0.15917 0.37118 0.0
H1333 H 0.55144 0.16451 0.42387 0.0
H1334 H 0.53867 0.09349 0.3985 0.0
H1335 H 0.51016 0.08856 0.34412 0.0
H1336 H 0.54166 0.13977 0.49324 0.0
H1337 H 0.60966 0.12885 0.40686 0.0
H1338 H 0.58741 0.13308 0.38058 0.0
H1339 H 0.58024 0.10395 0.39915 0.0
C1340 C 0.52584 0.14488 0.37616 0.0
C1341 C 0.51354 0.12332 0.35379 0.0
C1342 C 0.54266 0.14795 0.40634 0.0
C1343 C 0.5474 0.12948 0.41507 0.0
C1344 C 0.53577 0.10824 0.39173 0.0
H1345 H 0.60864 0.09005 0.6125 0.0
H1346 H 0.58758 0.09359 0.552 0.0
C1347 C 0.51926 0.10533 0.36087 0.0
C1348 C 0.56267 0.13164 0.45121 0.0
H1349 H 0.6095 0.1249 0.48146 0.0
C1350 C 0.55674 0.1369 0.49052 0.0
C1351 C 0.58231 0.12784 0.44769 0.0
C1352 C 0.59042 0.12336 0.4062 0.0
C1353 C 0.56936 0.13762 0.52657 0.0
C1354 C 0.58849 0.13311 0.52315 0.0
C1355 C 0.59479 0.12836 0.48384 0.0
C1356 C 0.60101 0.13141 0.56037 0.0
C1357 C 0.56156 0.14222 0.5683 0.0
C1358 C 0.61559 0.15157 0.58495 0.0
C1359 C 0.62748 0.14947 0.61982 0.0
C1360 C 0.62456 0.12715 0.63052 0.0
C1361 C 0.61025 0.10719 0.60561 0.0
C1362 C 0.59854 0.10927 0.57085 0.0
H1363 H 0.54422 0.14179 0.56632 0.0
H1364 H 0.55993 0.12875 0.59151 0.0
H1365 H 0.57521 0.16007 0.57993 0.0
H1366 H 0.61799 0.16889 0.57686 0.0
H1367 H 0.63892 0.16516 0.63825 0.0
H1368 H 0.42012 0.51432 0.66605 0.0
H1369 H 0.44493 0.54161 0.72145 0.0
H1370 H 0.38285 0.53944 0.77544 0.0
H1371 H 0.35797 0.51234 0.72043 0.0
H1372 H 0.42507 0.58625 0.7702 0.0
H1373 H 0.44194 0.51809 0.84421 0.0
H1374 H 0.44245 0.51998 0.78814 0.0
H1375 H 0.41501 0.51005 0.81532 0.0
C1376 C 0.4118 0.51988 0.68939 0.0
C1377 C 0.38702 0.51093 0.68903 0.0
C1378 C 0.42597 0.53534 0.72113 0.0
C1379 C 0.41556 0.54209 0.75285 0.0
C1380 C 0.39112 0.53423 0.75136 0.0
H1381 H 0.47172 0.59587 0.99903 0.0
H1382 H 0.44701 0.57358 0.93947 0.0
C1383 C 0.37695 0.51876 0.71981 0.0
C1384 C 0.4299 0.55693 0.78829 0.0
H1385 H 0.45958 0.55599 0.8755 0.0
C1386 C 0.43276 0.57976 0.79318 0.0
C1387 C 0.43921 0.548 0.81867 0.0
C1388 C 0.43453 0.52268 0.8168 0.0
C1389 C 0.44493 0.5941 0.82765 0.0
C1390 C 0.45509 0.58558 0.8573 0.0
C1391 C 0.45203 0.56261 0.85248 0.0
C1392 C 0.46892 0.60013 0.89363 0.0
C1393 C 0.44613 0.61789 0.83255 0.0
C1394 C 0.48923 0.62263 0.88773 0.0
C1395 C 0.50319 0.6356 0.92176 0.0
C1396 C 0.49735 0.62612 0.96235 0.0
C1397 C 0.47667 0.60379 0.96827 0.0
C1398 C 0.4626 0.59094 0.93422 0.0
H1399 H 0.43149 0.61835 0.81526 0.0
H1400 H 0.44507 0.62199 0.86589 0.0
H1401 H 0.46329 0.63216 0.81964 0.0
H1402 H 0.49479 0.62983 0.85663 0.0
H1403 H 0.51916 0.65257 0.91593 0.0
H1404 H 0.87412 0.40303 0.9994 0.0
H1405 H 0.86835 0.42344 0.05861 0.0
H1406 H 0.84907 0.36211 0.13634 0.0
H1407 H 0.85521 0.34158 0.07756 0.0
H1408 H 0.8262 0.40717 0.1195 0.0
H1409 H 0.91034 0.41954 0.19034 0.0
H1410 H 0.90613 0.41739 0.13444 0.0
H1411 H 0.88972 0.39156 0.16665 0.0
C1412 C 0.86831 0.39367 0.02887 0.0
C1413 C 0.86552 0.37078 0.03385 0.0
C1414 C 0.86497 0.40538 0.06263 0.0
C1415 C 0.85864 0.39437 0.10182 0.0
C1416 C 0.85425 0.37096 0.10633 0.0
H1417 H 0.87246 0.46254 0.34296 0.0
H1418 H 0.86494 0.43326 0.28817 0.0
C1419 C 0.85771 0.35925 0.07265 0.0
C1420 C 0.85853 0.40816 0.13854 0.0
H1421 H 0.89189 0.43842 0.22328 0.0
C1422 C 0.84039 0.41386 0.1425 0.0
C1423 C 0.87703 0.41666 0.16843 0.0
C1424 C 0.89702 0.41113 0.16501 0.0
C1425 C 0.84031 0.428 0.17576 0.0
C1426 C 0.85934 0.43733 0.20487 0.0
C1427 C 0.87727 0.43123 0.2011 0.0
C1428 C 0.86161 0.45411 0.2386 0.0
C1429 C 0.81968 0.43254 0.17954 0.0
C1430 C 0.86213 0.47555 0.22908 0.0
C1431 C 0.86606 0.49217 0.26044 0.0
C1432 C 0.87007 0.48791 0.30187 0.0
C1433 C 0.86934 0.46634 0.31141 0.0
C1434 C 0.8651 0.4496 0.2801 0.0
H1435 H 0.80334 0.41804 0.16455 0.0
H1436 H 0.8156 0.43407 0.21269 0.0
H1437 H 0.82427 0.44946 0.16337 0.0
H1438 H 0.86026 0.47982 0.19715 0.0
H1439 H 0.86688 0.50875 0.25188 0.0
H1440 H 0.47603 0.84065 0.37082 0.0
H1441 H 0.44756 0.83493 0.42622 0.0
H1442 H 0.4686 0.90961 0.41899 0.0
H1443 H 0.4959 0.91486 0.36205 0.0
H1444 H 0.4575 0.85341 0.49991 0.0
H1445 H 0.39893 0.88252 0.42623 0.0
H1446 H 0.41969 0.87764 0.39621 0.0
H1447 H 0.4297 0.90529 0.42408 0.0
C1448 C 0.47408 0.85564 0.38049 0.0
C1449 C 0.4879 0.87813 0.36199 0.0
C1450 C 0.45791 0.85242 0.41217 0.0
C1451 C 0.45563 0.87174 0.42653 0.0
C1452 C 0.46934 0.89421 0.40768 0.0
H1453 H 0.40932 0.88918 0.66942 0.0
H1454 H 0.43172 0.88739 0.60966 0.0
C1455 C 0.48505 0.89726 0.37523 0.0
C1456 C 0.44052 0.86876 0.46349 0.0
H1457 H 0.39705 0.87909 0.50076 0.0
C1458 C 0.44409 0.85878 0.49983 0.0
C1459 C 0.423 0.87577 0.46355 0.0
C1460 C 0.41745 0.88568 0.42527 0.0
C1461 C 0.4309 0.85589 0.53625 0.0
C1462 C 0.41398 0.86358 0.53662 0.0
C1463 C 0.41011 0.87325 0.50029 0.0
C1464 C 0.40051 0.86236 0.57472 0.0
C1465 C 0.43506 0.84454 0.574 0.0
C1466 C 0.37554 0.84859 0.57509 0.0
C1467 C 0.3626 0.84954 0.60925 0.0
C1468 C 0.37445 0.86447 0.64349 0.0
C1469 C 0.39957 0.87735 0.64379 0.0
C1470 C 0.41246 0.87637 0.60961 0.0
H1471 H 0.4442 0.83445 0.56563 0.0
H1472 H 0.44649 0.85871 0.5966 0.0
H1473 H 0.41794 0.83224 0.58973 0.0
H1474 H 0.36603 0.83767 0.54837 0.0
H1475 H 0.3433 0.83942 0.60792 0.0
H1476 H 0.64726 0.4886 0.72156 0.0
H1477 H 0.62555 0.45894 0.77574 0.0
H1478 H 0.56037 0.45667 0.73869 0.0
H1479 H 0.5816 0.48498 0.6829 0.0
H1480 H 0.60478 0.46348 0.84093 0.0
H1481 H 0.5356 0.38753 0.75111 0.0
H1482 H 0.56067 0.41236 0.72599 0.0
H1483 H 0.5345 0.41403 0.73966 0.0
C1484 C 0.6282 0.48142 0.7245 0.0
C1485 C 0.61617 0.48926 0.69808 0.0
C1486 C 0.61582 0.46448 0.7555 0.0
C1487 C 0.59123 0.45525 0.76103 0.0
C1488 C 0.57916 0.46288 0.73433 0.0
H1489 H 0.48522 0.39308 0.94538 0.0
H1490 H 0.51265 0.41379 0.88771 0.0
C1491 C 0.59141 0.47937 0.70269 0.0
C1492 C 0.57858 0.43933 0.79687 0.0
H1493 H 0.52675 0.38921 0.82425 0.0
C1494 C 0.58798 0.44696 0.83717 0.0
C1495 C 0.55672 0.41766 0.79208 0.0
C1496 C 0.54647 0.40733 0.74978 0.0
C1497 C 0.57541 0.43429 0.87279 0.0
C1498 C 0.5529 0.41356 0.86792 0.0
C1499 C 0.54399 0.40528 0.82775 0.0
C1500 C 0.53722 0.40161 0.90401 0.0
C1501 C 0.58565 0.44374 0.91547 0.0
C1502 C 0.54202 0.38792 0.93216 0.0
C1503 C 0.52643 0.3763 0.96549 0.0
C1504 C 0.50618 0.37863 0.97114 0.0
C1505 C 0.50139 0.39212 0.94272 0.0
C1506 C 0.51679 0.40357 0.90948 0.0
H1507 H 0.60249 0.4612 0.91393 0.0
H1508 H 0.57253 0.44582 0.93472 0.0
H1509 H 0.58937 0.43075 0.93151 0.0
H1510 H 0.55755 0.38596 0.92798 0.0
H1511 H 0.53008 0.36547 0.98665 0.0
H1512 H 0.09885 0.52204 0.33645 0.0
H1513 H 0.10167 0.54832 0.27929 0.0
H1514 H 0.1591 0.54183 0.2249 0.0
H1515 H 0.1562 0.51525 0.28128 0.0
H1516 H 0.13569 0.59015 0.24444 0.0
H1517 H 0.10846 0.51507 0.13369 0.0
H1518 H 0.10697 0.51116 0.18952 0.0
H1519 H 0.13482 0.5216 0.16246 0.0
C1520 C 0.11226 0.52638 0.3126 0.0
C1521 C 0.12684 0.51598 0.31283 0.0
C1522 C 0.11381 0.54139 0.27992 0.0
C1523 C 0.12997 0.54625 0.24711 0.0
C1524 C 0.14597 0.53765 0.24926 0.0
H1525 H 0.15858 0.65094 0.05095 0.0
H1526 H 0.16223 0.62923 0.11043 0.0
C1527 C 0.14437 0.52257 0.2817 0.0
C1528 C 0.12918 0.55904 0.20943 0.0
H1529 H 0.1219 0.55327 0.10381 0.0
C1530 C 0.13266 0.58214 0.21364 0.0
C1531 C 0.12445 0.54821 0.1695 0.0
C1532 C 0.11819 0.52255 0.16346 0.0
C1533 C 0.13204 0.59496 0.17879 0.0
C1534 C 0.12881 0.58469 0.13846 0.0
C1535 C 0.1249 0.56138 0.13451 0.0
C1536 C 0.12811 0.59721 0.10015 0.0
C1537 C 0.13406 0.61898 0.18589 0.0
C1538 C 0.10864 0.58583 0.07276 0.0
C1539 C 0.10705 0.59784 0.03793 0.0
C1540 C 0.12462 0.62164 0.03017 0.0
C1541 C 0.14465 0.63269 0.05646 0.0
C1542 C 0.14657 0.62041 0.09076 0.0
H1543 H 0.12892 0.62072 0.21826 0.0
H1544 H 0.15285 0.63325 0.18119 0.0
H1545 H 0.12259 0.62198 0.16386 0.0
H1546 H 0.09425 0.56788 0.079 0.0
H1547 H 0.0914 0.58885 0.01832 0.0
loop_
_geom_bond_atom_site_label_1
_geom_bond_atom_site_label_2
_geom_bond_distance
_geom_bond_site_symmetry_2
_ccdc_geom_bond_type
O0 Mg1 1.990 . S
O0 C14 1.253 . S
Mg1 O0 1.990 . S
Mg1 O4 2.180 . S
Mg1 O5 2.117 . S
Mg1 O19 2.030 . S
O2 Mg3 2.072 . S
O2 C14 1.260 . S
Mg3 O2 2.072 . S
Mg3 O4 2.099 . S
Mg3 O6 2.079 . S
Mg3 O7 2.072 . S
Mg3 O9 2.099 . S
Mg3 O20 2.079 . S
O4 Mg1 2.180 . S
O4 Mg3 2.099 . S
O4 C15 1.279 . S
O5 Mg1 2.117 . S
O5 C15 1.250 . S
O6 Mg3 2.079 . S
O6 C16 1.264 . S
O7 Mg3 2.072 . S
O7 C17 1.260 . S
Mg8 O9 2.180 . S
Mg8 O10 2.030 . S
Mg8 O11 1.990 . S
Mg8 O12 2.117 . S
O9 Mg3 2.099 . S
O9 Mg8 2.180 . S
O9 C18 1.279 . S
O10 Mg8 2.030 . S
O10 C16 1.248 . S
O11 Mg8 1.990 . S
O11 C17 1.253 . S
O12 Mg8 2.117 . S
O12 C18 1.250 . S
C13 O19 1.248 . S
C13 O20 1.264 . S
C14 O0 1.253 . S
C14 O2 1.260 . S
C15 O4 1.279 . S
C15 O5 1.250 . S
C16 O6 1.264 . S
C16 O10 1.248 . S
C17 O7 1.260 . S
C17 O11 1.253 . S
C18 O9 1.279 . S
C18 O12 1.250 . S
O19 Mg1 2.030 . S
O19 C13 1.248 . S
O20 Mg3 2.079 . S
O20 C13 1.264 . S
O21 Mg22 1.990 . S
O21 C35 1.253 . S
Mg22 O21 1.990 . S
Mg22 O25 2.180 . S
Mg22 O26 2.117 . S
Mg22 O40 2.030 . S
O23 Mg24 2.072 . S
O23 C35 1.260 . S
Mg24 O23 2.072 . S
Mg24 O25 2.099 . S
Mg24 O27 2.079 . S
Mg24 O28 2.072 . S
Mg24 O30 2.099 . S
Mg24 O41 2.079 . S
O25 Mg22 2.180 . S
O25 Mg24 2.099 . S
O25 C36 1.279 . S
O26 Mg22 2.117 . S
O26 C36 1.250 . S
O27 Mg24 2.079 . S
O27 C37 1.264 . S
O28 Mg24 2.072 . S
O28 C38 1.260 . S
Mg29 O30 2.180 . S
Mg29 O31 2.030 . S
Mg29 O32 1.990 . S
Mg29 O33 2.117 . S
O30 Mg24 2.099 . S
O30 Mg29 2.180 . S
O30 C39 1.279 . S
O31 Mg29 2.030 . S
O31 C37 1.248 . S
O32 Mg29 1.990 . S
O32 C38 1.253 . S
O33 Mg29 2.117 . S
O33 C39 1.250 . S
C34 O40 1.248 . S
C34 O41 1.264 . S
C35 O21 1.253 . S
C35 O23 1.260 . S
C36 O25 1.279 . S
C36 O26 1.250 . S
C37 O27 1.264 . S
C37 O31 1.248 . S
C38 O28 1.260 . S
C38 O32 1.253 . S
C39 O30 1.279 . S
C39 O33 1.250 . S
O40 Mg22 2.030 . S
O40 C34 1.248 . S
O41 Mg24 2.079 . S
O41 C34 1.264 . S
O42 Mg43 1.990 1_554 S
O42 C56 1.253 1_554 S
Mg43 O42 1.990 1_556 S
Mg43 O46 2.180 . S
Mg43 O47 2.117 . S
Mg43 O61 2.030 1_556 S
O44 Mg45 2.072 . S
O44 C56 1.260 . S
Mg45 O44 2.072 . S
Mg45 O46 2.099 . S
Mg45 O48 2.079 . S
Mg45 O49 2.072 . S
Mg45 O51 2.099 . S
Mg45 O62 2.079 . S
O46 Mg43 2.180 . S
O46 Mg45 2.099 . S
O46 C57 1.279 . S
O47 Mg43 2.117 . S
O47 C57 1.250 . S
O48 Mg45 2.079 . S
O48 C58 1.264 . S
O49 Mg45 2.072 . S
O49 C59 1.260 . S
Mg50 O51 2.180 . S
Mg50 O52 2.030 . S
Mg50 O53 1.990 . S
Mg50 O54 2.117 . S
O51 Mg45 2.099 . S
O51 Mg50 2.180 . S
O51 C60 1.279 . S
O52 Mg50 2.030 . S
O52 C58 1.248 . S
O53 Mg50 1.990 . S
O53 C59 1.253 . S
O54 Mg50 2.117 . S
O54 C60 1.250 . S
C55 O61 1.248 . S
C55 O62 1.264 1_554 S
C56 O42 1.253 1_556 S
C56 O44 1.260 . S
C57 O46 1.279 . S
C57 O47 1.250 . S
C58 O48 1.264 . S
C58 O52 1.248 . S
C59 O49 1.260 . S
C59 O53 1.253 . S
C60 O51 1.279 . S
C60 O54 1.250 . S
O61 Mg43 2.030 1_554 S
O61 C55 1.248 . S
O62 Mg45 2.079 . S
O62 C55 1.264 1_556 S
O63 Mg64 1.990 . S
O63 C77 1.253 . S
Mg64 O63 1.990 . S
Mg64 O67 2.180 . S
Mg64 O68 2.117 . S
Mg64 O82 2.030 . S
O65 Mg66 2.072 . S
O65 C77 1.260 . S
Mg66 O65 2.072 . S
Mg66 O67 2.099 . S
Mg66 O69 2.079 . S
Mg66 O70 2.072 . S
Mg66 O72 2.099 . S
Mg66 O83 2.079 . S
O67 Mg64 2.180 . S
O67 Mg66 2.099 . S
O67 C78 1.279 . S
O68 Mg64 2.117 . S
O68 C78 1.250 . S
O69 Mg66 2.079 . S
O69 C79 1.264 . S
O70 Mg66 2.072 . S
O70 C80 1.260 . S
Mg71 O72 2.180 . S
Mg71 O73 2.030 . S
Mg71 O74 1.990 . S
Mg71 O75 2.117 . S
O72 Mg66 2.099 . S
O72 Mg71 2.180 . S
O72 C81 1.279 . S
O73 Mg71 2.030 . S
O73 C79 1.248 . S
O74 Mg71 1.990 . S
O74 C80 1.253 . S
O75 Mg71 2.117 . S
O75 C81 1.250 . S
C76 O82 1.248 . S
C76 O83 1.264 . S
C77 O63 1.253 . S
C77 O65 1.260 . S
C78 O67 1.279 . S
C78 O68 1.250 . S
C79 O69 1.264 . S
C79 O73 1.248 . S
C80 O70 1.260 . S
C80 O74 1.253 . S
C81 O72 1.279 . S
C81 O75 1.250 . S
O82 Mg64 2.030 . S
O82 C76 1.248 . S
O83 Mg66 2.079 . S
O83 C76 1.264 . S
O84 Mg85 1.990 . S
O84 C98 1.253 . S
Mg85 O84 1.990 . S
Mg85 O88 2.180 . S
Mg85 O89 2.117 . S
Mg85 O103 2.030 . S
O86 Mg87 2.072 . S
O86 C98 1.260 . S
Mg87 O86 2.072 . S
Mg87 O88 2.099 . S
Mg87 O90 2.079 . S
Mg87 O91 2.072 . S
Mg87 O93 2.099 . S
Mg87 O104 2.079 . S
O88 Mg85 2.180 . S
O88 Mg87 2.099 . S
O88 C99 1.279 . S
O89 Mg85 2.117 . S
O89 C99 1.250 . S
O90 Mg87 2.079 . S
O90 C100 1.264 . S
O91 Mg87 2.072 . S
O91 C101 1.260 . S
Mg92 O93 2.180 . S
Mg92 O94 2.030 . S
Mg92 O95 1.990 . S
Mg92 O96 2.117 . S
O93 Mg87 2.099 . S
O93 Mg92 2.180 . S
O93 C102 1.279 . S
O94 Mg92 2.030 . S
O94 C100 1.248 . S
O95 Mg92 1.990 . S
O95 C101 1.253 . S
O96 Mg92 2.117 . S
O96 C102 1.250 . S
C97 O103 1.248 . S
C97 O104 1.264 . S
C98 O84 1.253 . S
C98 O86 1.260 . S
C99 O88 1.279 . S
C99 O89 1.250 . S
C100 O90 1.264 . S
C100 O94 1.248 . S
C101 O91 1.260 . S
C101 O95 1.253 . S
C102 O93 1.279 . S
C102 O96 1.250 . S
O103 Mg85 2.030 . S
O103 C97 1.248 . S
O104 Mg87 2.079 . S
O104 C97 1.264 . S
O105 Mg106 1.990 1_554 S
O105 C119 1.253 1_554 S
Mg106 O105 1.990 1_556 S
Mg106 O109 2.180 . S
Mg106 O110 2.117 . S
Mg106 O124 2.030 1_556 S
O107 Mg108 2.072 . S
O107 C119 1.260 . S
Mg108 O107 2.072 . S
Mg108 O109 2.099 . S
Mg108 O111 2.079 . S
Mg108 O112 2.072 . S
Mg108 O114 2.099 . S
Mg108 O125 2.079 . S
O109 Mg106 2.180 . S
O109 Mg108 2.099 . S
O109 C120 1.279 . S
O110 Mg106 2.117 . S
O110 C120 1.250 . S
O111 Mg108 2.079 . S
O111 C121 1.264 . S
O112 Mg108 2.072 . S
O112 C122 1.260 . S
Mg113 O114 2.180 . S
Mg113 O115 2.030 . S
Mg113 O116 1.990 . S
Mg113 O117 2.117 . S
O114 Mg108 2.099 . S
O114 Mg113 2.180 . S
O114 C123 1.279 . S
O115 Mg113 2.030 . S
O115 C121 1.248 . S
O116 Mg113 1.990 . S
O116 C122 1.253 . S
O117 Mg113 2.117 . S
O117 C123 1.250 . S
C118 O124 1.248 . S
C118 O125 1.264 1_554 S
C119 O105 1.253 1_556 S
C119 O107 1.260 . S
C120 O109 1.279 . S
C120 O110 1.250 . S
C121 O111 1.264 . S
C121 O115 1.248 . S
C122 O112 1.260 . S
C122 O116 1.253 . S
C123 O114 1.279 . S
C123 O117 1.250 . S
O124 Mg106 2.030 1_554 S
O124 C118 1.248 . S
O125 Mg108 2.079 . S
O125 C118 1.264 1_556 S
O126 Mg127 1.990 . S
O126 C140 1.253 . S
Mg127 O126 1.990 . S
Mg127 O130 2.180 . S
Mg127 O131 2.117 . S
Mg127 O145 2.030 . S
O128 Mg129 2.072 . S
O128 C140 1.260 . S
Mg129 O128 2.072 . S
Mg129 O130 2.099 . S
Mg129 O132 2.079 . S
Mg129 O133 2.072 . S
Mg129 O135 2.099 . S
Mg129 O146 2.079 . S
O130 Mg127 2.180 . S
O130 Mg129 2.099 . S
O130 C141 1.279 . S
O131 Mg127 2.117 . S
O131 C141 1.250 . S
O132 Mg129 2.079 . S
O132 C142 1.264 . S
O133 Mg129 2.072 . S
O133 C143 1.260 . S
Mg134 O135 2.180 . S
Mg134 O136 2.030 . S
Mg134 O137 1.990 . S
Mg134 O138 2.117 . S
O135 Mg129 2.099 . S
O135 Mg134 2.180 . S
O135 C144 1.279 . S
O136 Mg134 2.030 . S
O136 C142 1.248 . S
O137 Mg134 1.990 . S
O137 C143 1.253 . S
O138 Mg134 2.117 . S
O138 C144 1.250 . S
C139 O145 1.248 . S
C139 O146 1.264 . S
C140 O126 1.253 . S
C140 O128 1.260 . S
C141 O130 1.279 . S
C141 O131 1.250 . S
C142 O132 1.264 . S
C142 O136 1.248 . S
C143 O133 1.260 . S
C143 O137 1.253 . S
C144 O135 1.279 . S
C144 O138 1.250 . S
O145 Mg127 2.030 . S
O145 C139 1.248 . S
O146 Mg129 2.079 . S
O146 C139 1.264 . S
O147 Mg148 1.990 . S
O147 C161 1.253 . S
Mg148 O147 1.990 . S
Mg148 O151 2.180 . S
Mg148 O152 2.117 . S
Mg148 O166 2.030 . S
O149 Mg150 2.072 . S
O149 C161 1.260 . S
Mg150 O149 2.072 . S
Mg150 O151 2.099 . S
Mg150 O153 2.079 . S
Mg150 O154 2.072 . S
Mg150 O156 2.099 . S
Mg150 O167 2.079 . S
O151 Mg148 2.180 . S
O151 Mg150 2.099 . S
O151 C162 1.279 . S
O152 Mg148 2.117 . S
O152 C162 1.250 . S
O153 Mg150 2.079 . S
O153 C163 1.264 . S
O154 Mg150 2.072 . S
O154 C164 1.260 . S
Mg155 O156 2.180 . S
Mg155 O157 2.030 . S
Mg155 O158 1.990 . S
Mg155 O159 2.117 . S
O156 Mg150 2.099 . S
O156 Mg155 2.180 . S
O156 C165 1.279 . S
O157 Mg155 2.030 . S
O157 C163 1.248 . S
O158 Mg155 1.990 . S
O158 C164 1.253 . S
O159 Mg155 2.117 . S
O159 C165 1.250 . S
C160 O166 1.248 . S
C160 O167 1.264 . S
C161 O147 1.253 . S
C161 O149 1.260 . S
C162 O151 1.279 . S
C162 O152 1.250 . S
C163 O153 1.264 . S
C163 O157 1.248 . S
C164 O154 1.260 . S
C164 O158 1.253 . S
C165 O156 1.279 . S
C165 O159 1.250 . S
O166 Mg148 2.030 . S
O166 C160 1.248 . S
O167 Mg150 2.079 . S
O167 C160 1.264 . S
O168 Mg169 1.990 1_556 S
O168 C182 1.253 1_556 S
Mg169 O168 1.990 1_554 S
Mg169 O172 2.180 . S
Mg169 O173 2.117 . S
Mg169 O187 2.030 1_554 S
O170 Mg171 2.072 . S
O170 C182 1.260 . S
Mg171 O170 2.072 . S
Mg171 O172 2.099 . S
Mg171 O174 2.079 . S
Mg171 O175 2.072 . S
Mg171 O177 2.099 . S
Mg171 O188 2.079 . S
O172 Mg169 2.180 . S
O172 Mg171 2.099 . S
O172 C183 1.279 . S
O173 Mg169 2.117 . S
O173 C183 1.250 . S
O174 Mg171 2.079 . S
O174 C184 1.264 . S
O175 Mg171 2.072 . S
O175 C185 1.260 . S
Mg176 O177 2.180 . S
Mg176 O178 2.030 . S
Mg176 O179 1.990 . S
Mg176 O180 2.117 . S
O177 Mg171 2.099 . S
O177 Mg176 2.180 . S
O177 C186 1.279 . S
O178 Mg176 2.030 . S
O178 C184 1.248 . S
O179 Mg176 1.990 . S
O179 C185 1.253 . S
O180 Mg176 2.117 . S
O180 C186 1.250 . S
C181 O187 1.248 . S
C181 O188 1.264 1_556 S
C182 O168 1.253 1_554 S
C182 O170 1.260 . S
C183 O172 1.279 . S
C183 O173 1.250 . S
C184 O174 1.264 . S
C184 O178 1.248 . S
C185 O175 1.260 . S
C185 O179 1.253 . S
C186 O177 1.279 . S
C186 O180 1.250 . S
O187 Mg169 2.030 1_556 S
O187 C181 1.248 . S
O188 Mg171 2.079 . S
O188 C181 1.264 1_554 S
O189 Mg190 1.990 . S
O189 C203 1.253 . S
Mg190 O189 1.990 . S
Mg190 O193 2.180 . S
Mg190 O194 2.117 . S
Mg190 O208 2.030 . S
O191 Mg192 2.072 . S
O191 C203 1.260 . S
Mg192 O191 2.072 . S
Mg192 O193 2.099 . S
Mg192 O195 2.079 . S
Mg192 O196 2.072 . S
Mg192 O198 2.099 . S
Mg192 O209 2.079 . S
O193 Mg190 2.180 . S
O193 Mg192 2.099 . S
O193 C204 1.279 . S
O194 Mg190 2.117 . S
O194 C204 1.250 . S
O195 Mg192 2.079 . S
O195 C205 1.264 . S
O196 Mg192 2.072 . S
O196 C206 1.260 . S
Mg197 O198 2.180 . S
Mg197 O199 2.030 . S
Mg197 O200 1.990 . S
Mg197 O201 2.117 . S
O198 Mg192 2.099 . S
O198 Mg197 2.180 . S
O198 C207 1.279 . S
O199 Mg197 2.030 . S
O199 C205 1.248 . S
O200 Mg197 1.990 . S
O200 C206 1.253 . S
O201 Mg197 2.117 . S
O201 C207 1.250 . S
C202 O208 1.248 . S
C202 O209 1.264 . S
C203 O189 1.253 . S
C203 O191 1.260 . S
C204 O193 1.279 . S
C204 O194 1.250 . S
C205 O195 1.264 . S
C205 O199 1.248 . S
C206 O196 1.260 . S
C206 O200 1.253 . S
C207 O198 1.279 . S
C207 O201 1.250 . S
O208 Mg190 2.030 . S
O208 C202 1.248 . S
O209 Mg192 2.079 . S
O209 C202 1.264 . S
O210 Mg211 1.990 . S
O210 C224 1.253 . S
Mg211 O210 1.990 . S
Mg211 O214 2.180 . S
Mg211 O215 2.117 . S
Mg211 O229 2.030 . S
O212 Mg213 2.072 . S
O212 C224 1.260 . S
Mg213 O212 2.072 . S
Mg213 O214 2.099 . S
Mg213 O216 2.079 . S
Mg213 O217 2.072 . S
Mg213 O219 2.099 . S
Mg213 O230 2.079 . S
O214 Mg211 2.180 . S
O214 Mg213 2.099 . S
O214 C225 1.279 . S
O215 Mg211 2.117 . S
O215 C225 1.250 . S
O216 Mg213 2.079 . S
O216 C226 1.264 . S
O217 Mg213 2.072 . S
O217 C227 1.260 . S
Mg218 O219 2.180 . S
Mg218 O220 2.030 . S
Mg218 O221 1.990 . S
Mg218 O222 2.117 . S
O219 Mg213 2.099 . S
O219 Mg218 2.180 . S
O219 C228 1.279 . S
O220 Mg218 2.030 . S
O220 C226 1.248 . S
O221 Mg218 1.990 . S
O221 C227 1.253 . S
O222 Mg218 2.117 . S
O222 C228 1.250 . S
C223 O229 1.248 . S
C223 O230 1.264 . S
C224 O210 1.253 . S
C224 O212 1.260 . S
C225 O214 1.279 . S
C225 O215 1.250 . S
C226 O216 1.264 . S
C226 O220 1.248 . S
C227 O217 1.260 . S
C227 O221 1.253 . S
C228 O219 1.279 . S
C228 O222 1.250 . S
O229 Mg211 2.030 . S
O229 C223 1.248 . S
O230 Mg213 2.079 . S
O230 C223 1.264 . S
O231 Mg232 1.990 1_556 S
O231 C245 1.253 1_556 S
Mg232 O231 1.990 1_554 S
Mg232 O235 2.180 . S
Mg232 O236 2.117 . S
Mg232 O250 2.030 1_554 S
O233 Mg234 2.072 . S
O233 C245 1.260 . S
Mg234 O233 2.072 . S
Mg234 O235 2.099 . S
Mg234 O237 2.079 . S
Mg234 O238 2.072 . S
Mg234 O240 2.099 . S
Mg234 O251 2.079 . S
O235 Mg232 2.180 . S
O235 Mg234 2.099 . S
O235 C246 1.279 . S
O236 Mg232 2.117 . S
O236 C246 1.250 . S
O237 Mg234 2.079 . S
O237 C247 1.264 . S
O238 Mg234 2.072 . S
O238 C248 1.260 . S
Mg239 O240 2.180 . S
Mg239 O241 2.030 . S
Mg239 O242 1.990 . S
Mg239 O243 2.117 . S
O240 Mg234 2.099 . S
O240 Mg239 2.180 . S
O240 C249 1.279 . S
O241 Mg239 2.030 . S
O241 C247 1.248 . S
O242 Mg239 1.990 . S
O242 C248 1.253 . S
O243 Mg239 2.117 . S
O243 C249 1.250 . S
C244 O250 1.248 . S
C244 O251 1.264 1_556 S
C245 O231 1.253 1_554 S
C245 O233 1.260 . S
C246 O235 1.279 . S
C246 O236 1.250 . S
C247 O237 1.264 . S
C247 O241 1.248 . S
C248 O238 1.260 . S
C248 O242 1.253 . S
C249 O240 1.279 . S
C249 O243 1.250 . S
O250 Mg232 2.030 1_556 S
O250 C244 1.248 . S
O251 Mg234 2.079 . S
O251 C244 1.264 1_554 S
H252 C260 0.929 . S
H253 C262 0.930 . S
H254 C264 0.930 . S
H255 C267 0.929 . S
H256 C270 0.930 . S
H257 C272 0.960 . S
H258 C272 0.960 . S
H259 C272 0.960 . S
C260 H252 0.929 . S
C260 C261 1.377 . S
C260 C262 1.384 . S
C261 C260 1.377 . S
C261 C267 1.390 . S
C262 H253 0.930 . S
C262 C260 1.384 . S
C262 C263 1.372 . S
C263 C262 1.372 . S
C263 C264 1.400 . S
C263 C268 1.490 . S
C264 H254 0.930 . S
C264 C263 1.400 . S
C264 C267 1.386 . S
H265 C281 0.930 . S
H266 C282 0.931 . S
C267 H255 0.929 . S
C267 C261 1.390 . S
C267 C264 1.386 . S
C268 C263 1.490 . S
C268 C270 1.395 . S
C268 C271 1.403 . S
H269 C275 0.930 . S
C270 H256 0.930 . S
C270 C268 1.395 . S
C270 C273 1.403 . S
C271 C268 1.403 . S
C271 C272 1.524 . S
C271 C275 1.400 . S
C272 H257 0.960 . S
C272 H258 0.960 . S
C272 H259 0.960 . S
C272 C271 1.524 . S
C273 C270 1.403 . S
C273 C274 1.392 . S
C273 C277 1.495 . S
C274 C273 1.392 . S
C274 C275 1.385 . S
C274 C276 1.478 . S
C275 H269 0.930 . S
C275 C271 1.400 . S
C275 C274 1.385 . S
C276 C274 1.478 . S
C276 C278 1.381 . S
C276 C282 1.383 . S
C277 C273 1.495 . S
C277 H283 0.959 . S
C277 H284 0.961 . S
C277 H285 0.960 . S
C278 C276 1.381 . S
C278 C279 1.394 . S
C278 H286 0.930 . S
C279 C278 1.394 . S
C279 C280 1.383 . S
C279 H287 0.929 . S
C280 C279 1.383 . S
C280 C281 1.377 . S
C281 H265 0.930 . S
C281 C280 1.377 . S
C281 C282 1.379 . S
C282 H266 0.931 . S
C282 C276 1.383 . S
C282 C281 1.379 . S
H283 C277 0.959 . S
H284 C277 0.961 . S
H285 C277 0.960 . S
H286 C278 0.930 . S
H287 C279 0.929 . S
H288 C296 0.929 . S
H289 C298 0.930 . S
H290 C300 0.930 . S
H291 C303 0.929 . S
H292 C306 0.930 . S
H293 C308 0.960 . S
H294 C308 0.960 . S
H295 C308 0.960 . S
C296 H288 0.929 . S
C296 C297 1.377 . S
C296 C298 1.384 . S
C297 C296 1.377 . S
C297 C303 1.390 . S
C298 H289 0.930 . S
C298 C296 1.384 . S
C298 C299 1.372 . S
C299 C298 1.372 . S
C299 C300 1.400 . S
C299 C304 1.490 . S
C300 H290 0.930 . S
C300 C299 1.400 . S
C300 C303 1.386 . S
H301 C317 0.930 . S
H302 C318 0.931 . S
C303 H291 0.929 . S
C303 C297 1.390 . S
C303 C300 1.386 . S
C304 C299 1.490 . S
C304 C306 1.395 . S
C304 C307 1.403 . S
H305 C311 0.930 . S
C306 H292 0.930 . S
C306 C304 1.395 . S
C306 C309 1.403 . S
C307 C304 1.403 . S
C307 C308 1.524 . S
C307 C311 1.400 . S
C308 H293 0.960 . S
C308 H294 0.960 . S
C308 H295 0.960 . S
C308 C307 1.524 . S
C309 C306 1.403 . S
C309 C310 1.392 . S
C309 C313 1.495 . S
C310 C309 1.392 . S
C310 C311 1.385 . S
C310 C312 1.478 . S
C311 H305 0.930 . S
C311 C307 1.400 . S
C311 C310 1.385 . S
C312 C310 1.478 . S
C312 C314 1.381 . S
C312 C318 1.383 . S
C313 C309 1.495 . S
C313 H319 0.959 . S
C313 H320 0.961 . S
C313 H321 0.960 . S
C314 C312 1.381 . S
C314 C315 1.394 . S
C314 H322 0.930 . S
C315 C314 1.394 . S
C315 C316 1.383 . S
C315 H323 0.929 . S
C316 C315 1.383 . S
C316 C317 1.377 . S
C317 H301 0.930 . S
C317 C316 1.377 . S
C317 C318 1.379 . S
C318 H302 0.931 . S
C318 C312 1.383 . S
C318 C317 1.379 . S
H319 C313 0.959 . S
H320 C313 0.961 . S
H321 C313 0.960 . S
H322 C314 0.930 . S
H323 C315 0.929 . S
H324 C332 0.929 . S
H325 C334 0.930 . S
H326 C336 0.930 . S
H327 C339 0.929 . S
H328 C342 0.930 . S
H329 C344 0.960 . S
H330 C344 0.960 . S
H331 C344 0.960 . S
C332 H324 0.929 . S
C332 C333 1.377 . S
C332 C334 1.384 . S
C333 C332 1.377 . S
C333 C339 1.390 . S
C334 H325 0.930 . S
C334 C332 1.384 . S
C334 C335 1.372 . S
C335 C334 1.372 . S
C335 C336 1.400 . S
C335 C340 1.490 . S
C336 H326 0.930 . S
C336 C335 1.400 . S
C336 C339 1.386 . S
H337 C353 0.930 . S
H338 C354 0.931 . S
C339 H327 0.929 . S
C339 C333 1.390 . S
C339 C336 1.386 . S
C340 C335 1.490 . S
C340 C342 1.395 . S
C340 C343 1.403 . S
H341 C347 0.930 . S
C342 H328 0.930 . S
C342 C340 1.395 . S
C342 C345 1.403 . S
C343 C340 1.403 . S
C343 C344 1.524 . S
C343 C347 1.400 . S
C344 H329 0.960 . S
C344 H330 0.960 . S
C344 H331 0.960 . S
C344 C343 1.524 . S
C345 C342 1.403 . S
C345 C346 1.392 . S
C345 C349 1.495 . S
C346 C345 1.392 . S
C346 C347 1.385 . S
C346 C348 1.478 . S
C347 H341 0.930 . S
C347 C343 1.400 . S
C347 C346 1.385 . S
C348 C346 1.478 . S
C348 C350 1.381 . S
C348 C354 1.383 . S
C349 C345 1.495 . S
C349 H355 0.959 . S
C349 H356 0.961 . S
C349 H357 0.960 . S
C350 C348 1.381 . S
C350 C351 1.394 . S
C350 H358 0.930 . S
C351 C350 1.394 . S
C351 C352 1.383 . S
C351 H359 0.929 . S
C352 C351 1.383 . S
C352 C353 1.377 . S
C353 H337 0.930 . S
C353 C352 1.377 . S
C353 C354 1.379 . S
C354 H338 0.931 . S
C354 C348 1.383 . S
C354 C353 1.379 . S
H355 C349 0.959 . S
H356 C349 0.961 . S
H357 C349 0.960 . S
H358 C350 0.930 . S
H359 C351 0.929 . S
H360 C368 0.929 . S
H361 C370 0.930 . S
H362 C372 0.930 . S
H363 C375 0.929 . S
H364 C378 0.930 . S
H365 C380 0.960 . S
H366 C380 0.960 . S
H367 C380 0.960 . S
C368 H360 0.929 . S
C368 C369 1.377 . S
C368 C370 1.384 . S
C369 C368 1.377 . S
C369 C375 1.390 . S
C370 H361 0.930 . S
C370 C368 1.384 . S
C370 C371 1.372 . S
C371 C370 1.372 . S
C371 C372 1.400 . S
C371 C376 1.490 . S
C372 H362 0.930 . S
C372 C371 1.400 . S
C372 C375 1.386 . S
H373 C389 0.930 . S
H374 C390 0.931 . S
C375 H363 0.929 . S
C375 C369 1.390 . S
C375 C372 1.386 . S
C376 C371 1.490 . S
C376 C378 1.395 . S
C376 C379 1.403 . S
H377 C383 0.930 . S
C378 H364 0.930 . S
C378 C376 1.395 . S
C378 C381 1.403 . S
C379 C376 1.403 . S
C379 C380 1.524 . S
C379 C383 1.400 . S
C380 H365 0.960 . S
C380 H366 0.960 . S
C380 H367 0.960 . S
C380 C379 1.524 . S
C381 C378 1.403 . S
C381 C382 1.392 . S
C381 C385 1.495 . S
C382 C381 1.392 . S
C382 C383 1.385 . S
C382 C384 1.478 . S
C383 H377 0.930 . S
C383 C379 1.400 . S
C383 C382 1.385 . S
C384 C382 1.478 . S
C384 C386 1.381 . S
C384 C390 1.383 . S
C385 C381 1.495 . S
C385 H391 0.959 . S
C385 H392 0.961 . S
C385 H393 0.960 . S
C386 C384 1.381 . S
C386 C387 1.394 . S
C386 H394 0.930 . S
C387 C386 1.394 . S
C387 C388 1.383 . S
C387 H395 0.929 . S
C388 C387 1.383 . S
C388 C389 1.377 . S
C389 H373 0.930 . S
C389 C388 1.377 . S
C389 C390 1.379 . S
C390 H374 0.931 . S
C390 C384 1.383 . S
C390 C389 1.379 . S
H391 C385 0.959 . S
H392 C385 0.961 . S
H393 C385 0.960 . S
H394 C386 0.930 . S
H395 C387 0.929 . S
H396 C404 0.929 . S
H397 C406 0.930 . S
H398 C408 0.930 . S
H399 C411 0.929 . S
H400 C414 0.930 . S
H401 C416 0.960 . S
H402 C416 0.960 . S
H403 C416 0.960 . S
C404 H396 0.929 . S
C404 C405 1.377 . S
C404 C406 1.384 . S
C405 C404 1.377 . S
C405 C411 1.390 . S
C406 H397 0.930 . S
C406 C404 1.384 . S
C406 C407 1.372 . S
C407 C406 1.372 . S
C407 C408 1.400 . S
C407 C412 1.490 . S
C408 H398 0.930 . S
C408 C407 1.400 . S
C408 C411 1.386 . S
H409 C425 0.930 . S
H410 C426 0.931 . S
C411 H399 0.929 . S
C411 C405 1.390 . S
C411 C408 1.386 . S
C412 C407 1.490 . S
C412 C414 1.395 . S
C412 C415 1.403 . S
H413 C419 0.930 . S
C414 H400 0.930 . S
C414 C412 1.395 . S
C414 C417 1.403 . S
C415 C412 1.403 . S
C415 C416 1.524 . S
C415 C419 1.400 . S
C416 H401 0.960 . S
C416 H402 0.960 . S
C416 H403 0.960 . S
C416 C415 1.524 . S
C417 C414 1.403 . S
C417 C418 1.392 . S
C417 C421 1.495 . S
C418 C417 1.392 . S
C418 C419 1.385 . S
C418 C420 1.478 . S
C419 H413 0.930 . S
C419 C415 1.400 . S
C419 C418 1.385 . S
C420 C418 1.478 . S
C420 C422 1.381 . S
C420 C426 1.383 . S
C421 C417 1.495 . S
C421 H427 0.959 . S
C421 H428 0.961 . S
C421 H429 0.960 . S
C422 C420 1.381 . S
C422 C423 1.394 . S
C422 H430 0.930 . S
C423 C422 1.394 . S
C423 C424 1.383 . S
C423 H431 0.929 . S
C424 C423 1.383 . S
C424 C425 1.377 . S
C425 H409 0.930 . S
C425 C424 1.377 . S
C425 C426 1.379 . S
C426 H410 0.931 . S
C426 C420 1.383 . S
C426 C425 1.379 . S
H427 C421 0.959 . S
H428 C421 0.961 . S
H429 C421 0.960 . S
H430 C422 0.930 . S
H431 C423 0.929 . S
H432 C440 0.929 . S
H433 C442 0.930 . S
H434 C444 0.930 . S
H435 C447 0.929 . S
H436 C450 0.930 . S
H437 C452 0.960 . S
H438 C452 0.960 . S
H439 C452 0.960 . S
C440 H432 0.929 . S
C440 C441 1.377 . S
C440 C442 1.384 . S
C441 C440 1.377 . S
C441 C447 1.390 . S
C442 H433 0.930 . S
C442 C440 1.384 . S
C442 C443 1.372 . S
C443 C442 1.372 . S
C443 C444 1.400 . S
C443 C448 1.490 . S
C444 H434 0.930 . S
C444 C443 1.400 . S
C444 C447 1.386 . S
H445 C461 0.930 . S
H446 C462 0.931 . S
C447 H435 0.929 . S
C447 C441 1.390 . S
C447 C444 1.386 . S
C448 C443 1.490 . S
C448 C450 1.395 . S
C448 C451 1.403 . S
H449 C455 0.930 . S
C450 H436 0.930 . S
C450 C448 1.395 . S
C450 C453 1.403 . S
C451 C448 1.403 . S
C451 C452 1.524 . S
C451 C455 1.400 . S
C452 H437 0.960 . S
C452 H438 0.960 . S
C452 H439 0.960 . S
C452 C451 1.524 . S
C453 C450 1.403 . S
C453 C454 1.392 . S
C453 C457 1.495 . S
C454 C453 1.392 . S
C454 C455 1.385 . S
C454 C456 1.478 . S
C455 H449 0.930 . S
C455 C451 1.400 . S
C455 C454 1.385 . S
C456 C454 1.478 . S
C456 C458 1.381 . S
C456 C462 1.383 . S
C457 C453 1.495 . S
C457 H463 0.959 . S
C457 H464 0.961 . S
C457 H465 0.960 . S
C458 C456 1.381 . S
C458 C459 1.394 . S
C458 H466 0.930 . S
C459 C458 1.394 . S
C459 C460 1.383 . S
C459 H467 0.929 . S
C460 C459 1.383 . S
C460 C461 1.377 . S
C461 H445 0.930 . S
C461 C460 1.377 . S
C461 C462 1.379 . S
C462 H446 0.931 . S
C462 C456 1.383 . S
C462 C461 1.379 . S
H463 C457 0.959 . S
H464 C457 0.961 . S
H465 C457 0.960 . S
H466 C458 0.930 . S
H467 C459 0.929 . S
H468 C476 0.929 . S
H469 C478 0.930 . S
H470 C480 0.930 . S
H471 C483 0.929 . S
H472 C486 0.930 . S
H473 C488 0.960 . S
H474 C488 0.960 . S
H475 C488 0.960 . S
C476 H468 0.929 . S
C476 C477 1.377 . S
C476 C478 1.384 . S
C477 C476 1.377 . S
C477 C483 1.390 . S
C478 H469 0.930 . S
C478 C476 1.384 . S
C478 C479 1.372 . S
C479 C478 1.372 . S
C479 C480 1.400 . S
C479 C484 1.490 . S
C480 H470 0.930 . S
C480 C479 1.400 . S
C480 C483 1.386 . S
H481 C497 0.930 . S
H482 C498 0.931 . S
C483 H471 0.929 . S
C483 C477 1.390 . S
C483 C480 1.386 . S
C484 C479 1.490 . S
C484 C486 1.395 . S
C484 C487 1.403 . S
H485 C491 0.930 . S
C486 H472 0.930 . S
C486 C484 1.395 . S
C486 C489 1.403 1_556 S
C487 C484 1.403 . S
C487 C488 1.524 . S
C487 C491 1.400 1_556 S
C488 H473 0.960 . S
C488 H474 0.960 . S
C488 H475 0.960 . S
C488 C487 1.524 . S
C489 C486 1.403 1_554 S
C489 C490 1.392 . S
C489 C493 1.495 . S
C490 C489 1.392 . S
C490 C491 1.385 . S
C490 C492 1.478 . S
C491 H485 0.930 . S
C491 C487 1.400 1_554 S
C491 C490 1.385 . S
C492 C490 1.478 . S
C492 C494 1.381 . S
C492 C498 1.383 . S
C493 C489 1.495 . S
C493 H499 0.959 . S
C493 H500 0.961 . S
C493 H501 0.960 . S
C494 C492 1.381 . S
C494 C495 1.394 . S
C494 H502 0.930 . S
C495 C494 1.394 . S
C495 C496 1.383 . S
C495 H503 0.929 . S
C496 C495 1.383 . S
C496 C497 1.377 . S
C497 H481 0.930 . S
C497 C496 1.377 . S
C497 C498 1.379 . S
C498 H482 0.931 . S
C498 C492 1.383 . S
C498 C497 1.379 . S
H499 C493 0.959 . S
H500 C493 0.961 . S
H501 C493 0.960 . S
H502 C494 0.930 . S
H503 C495 0.929 . S
H504 C512 0.929 . S
H505 C514 0.930 . S
H506 C516 0.930 . S
H507 C519 0.929 . S
H508 C522 0.930 . S
H509 C524 0.960 . S
H510 C524 0.960 . S
H511 C524 0.960 . S
C512 H504 0.929 . S
C512 C513 1.377 . S
C512 C514 1.384 . S
C513 C512 1.377 . S
C513 C519 1.390 . S
C514 H505 0.930 . S
C514 C512 1.384 . S
C514 C515 1.372 . S
C515 C514 1.372 . S
C515 C516 1.400 . S
C515 C520 1.490 . S
C516 H506 0.930 . S
C516 C515 1.400 . S
C516 C519 1.386 . S
H517 C533 0.930 . S
H518 C534 0.931 . S
C519 H507 0.929 . S
C519 C513 1.390 . S
C519 C516 1.386 . S
C520 C515 1.490 . S
C520 C522 1.395 . S
C520 C523 1.403 . S
H521 C527 0.930 . S
C522 H508 0.930 . S
C522 C520 1.395 . S
C522 C525 1.403 . S
C523 C520 1.403 . S
C523 C524 1.524 . S
C523 C527 1.400 . S
C524 H509 0.960 . S
C524 H510 0.960 . S
C524 H511 0.960 . S
C524 C523 1.524 . S
C525 C522 1.403 . S
C525 C526 1.392 . S
C525 C529 1.495 . S
C526 C525 1.392 . S
C526 C527 1.385 . S
C526 C528 1.478 . S
C527 H521 0.930 . S
C527 C523 1.400 . S
C527 C526 1.385 . S
C528 C526 1.478 . S
C528 C530 1.381 . S
C528 C534 1.383 . S
C529 C525 1.495 . S
C529 H535 0.959 . S
C529 H536 0.961 . S
C529 H537 0.960 . S
C530 C528 1.381 . S
C530 C531 1.394 . S
C530 H538 0.930 . S
C531 C530 1.394 . S
C531 C532 1.383 . S
C531 H539 0.929 . S
C532 C531 1.383 . S
C532 C533 1.377 . S
C533 H517 0.930 . S
C533 C532 1.377 . S
C533 C534 1.379 . S
C534 H518 0.931 . S
C534 C528 1.383 . S
C534 C533 1.379 . S
H535 C529 0.959 . S
H536 C529 0.961 . S
H537 C529 0.960 . S
H538 C530 0.930 . S
H539 C531 0.929 . S
H540 C548 0.929 . S
H541 C550 0.930 . S
H542 C552 0.930 . S
H543 C555 0.929 . S
H544 C558 0.930 . S
H545 C560 0.960 . S
H546 C560 0.960 . S
H547 C560 0.960 . S
C548 H540 0.929 . S
C548 C549 1.377 . S
C548 C550 1.384 . S
C549 C548 1.377 . S
C549 C555 1.390 . S
C550 H541 0.930 . S
C550 C548 1.384 . S
C550 C551 1.372 . S
C551 C550 1.372 . S
C551 C552 1.400 . S
C551 C556 1.490 . S
C552 H542 0.930 . S
C552 C551 1.400 . S
C552 C555 1.386 . S
H553 C569 0.930 . S
H554 C570 0.931 . S
C555 H543 0.929 . S
C555 C549 1.390 . S
C555 C552 1.386 . S
C556 C551 1.490 . S
C556 C558 1.395 . S
C556 C559 1.403 . S
H557 C563 0.930 . S
C558 H544 0.930 . S
C558 C556 1.395 . S
C558 C561 1.403 . S
C559 C556 1.403 . S
C559 C560 1.524 . S
C559 C563 1.400 . S
C560 H545 0.960 . S
C560 H546 0.960 . S
C560 H547 0.960 . S
C560 C559 1.524 . S
C561 C558 1.403 . S
C561 C562 1.392 . S
C561 C565 1.495 . S
C562 C561 1.392 . S
C562 C563 1.385 . S
C562 C564 1.478 . S
C563 H557 0.930 . S
C563 C559 1.400 . S
C563 C562 1.385 . S
C564 C562 1.478 . S
C564 C566 1.381 . S
C564 C570 1.383 . S
C565 C561 1.495 . S
C565 H571 0.959 . S
C565 H572 0.961 . S
C565 H573 0.960 . S
C566 C564 1.381 . S
C566 C567 1.394 . S
C566 H574 0.930 . S
C567 C566 1.394 . S
C567 C568 1.383 . S
C567 H575 0.929 . S
C568 C567 1.383 . S
C568 C569 1.377 . S
C569 H553 0.930 . S
C569 C568 1.377 . S
C569 C570 1.379 . S
C570 H554 0.931 . S
C570 C564 1.383 . S
C570 C569 1.379 . S
H571 C565 0.959 . S
H572 C565 0.961 . S
H573 C565 0.960 . S
H574 C566 0.930 . S
H575 C567 0.929 . S
H576 C584 0.929 . S
H577 C586 0.930 . S
H578 C588 0.930 . S
H579 C591 0.929 . S
H580 C594 0.930 . S
H581 C596 0.960 . S
H582 C596 0.960 1_556 S
H583 C596 0.960 . S
C584 H576 0.929 . S
C584 C585 1.377 . S
C584 C586 1.384 . S
C585 C584 1.377 . S
C585 C591 1.390 . S
C586 H577 0.930 . S
C586 C584 1.384 . S
C586 C587 1.372 . S
C587 C586 1.372 . S
C587 C588 1.400 . S
C587 C592 1.490 . S
C588 H578 0.930 . S
C588 C587 1.400 . S
C588 C591 1.386 . S
H589 C605 0.930 . S
H590 C606 0.931 . S
C591 H579 0.929 . S
C591 C585 1.390 . S
C591 C588 1.386 . S
C592 C587 1.490 . S
C592 C594 1.395 . S
C592 C595 1.403 1_556 S
H593 C599 0.930 . S
C594 H580 0.930 . S
C594 C592 1.395 . S
C594 C597 1.403 . S
C595 C592 1.403 1_554 S
C595 C596 1.524 . S
C595 C599 1.400 . S
C596 H581 0.960 . S
C596 H582 0.960 1_554 S
C596 H583 0.960 . S
C596 C595 1.524 . S
C597 C594 1.403 . S
C597 C598 1.392 1_556 S
C597 C601 1.495 . S
C598 C597 1.392 1_554 S
C598 C599 1.385 . S
C598 C600 1.478 . S
C599 H593 0.930 . S
C599 C595 1.400 . S
C599 C598 1.385 . S
C600 C598 1.478 . S
C600 C602 1.381 . S
C600 C606 1.383 . S
C601 C597 1.495 . S
C601 H607 0.959 . S
C601 H608 0.961 1_556 S
C601 H609 0.960 . S
C602 C600 1.381 . S
C602 C603 1.394 . S
C602 H610 0.930 . S
C603 C602 1.394 . S
C603 C604 1.383 . S
C603 H611 0.929 . S
C604 C603 1.383 . S
C604 C605 1.377 . S
C605 H589 0.930 . S
C605 C604 1.377 . S
C605 C606 1.379 . S
C606 H590 0.931 . S
C606 C600 1.383 . S
C606 C605 1.379 . S
H607 C601 0.959 . S
H608 C601 0.961 1_554 S
H609 C601 0.960 . S
H610 C602 0.930 . S
H611 C603 0.929 . S
H612 C620 0.929 . S
H613 C622 0.930 . S
H614 C624 0.930 . S
H615 C627 0.929 . S
H616 C630 0.930 . S
H617 C632 0.960 . S
H618 C632 0.960 . S
H619 C632 0.960 . S
C620 H612 0.929 . S
C620 C621 1.377 . S
C620 C622 1.384 . S
C621 C620 1.377 . S
C621 C627 1.390 . S
C622 H613 0.930 . S
C622 C620 1.384 . S
C622 C623 1.372 . S
C623 C622 1.372 . S
C623 C624 1.400 . S
C623 C628 1.490 . S
C624 H614 0.930 . S
C624 C623 1.400 . S
C624 C627 1.386 . S
H625 C641 0.930 . S
H626 C642 0.931 . S
C627 H615 0.929 . S
C627 C621 1.390 . S
C627 C624 1.386 . S
C628 C623 1.490 . S
C628 C630 1.395 . S
C628 C631 1.403 . S
H629 C635 0.930 . S
C630 H616 0.930 . S
C630 C628 1.395 . S
C630 C633 1.403 . S
C631 C628 1.403 . S
C631 C632 1.524 . S
C631 C635 1.400 . S
C632 H617 0.960 . S
C632 H618 0.960 . S
C632 H619 0.960 . S
C632 C631 1.524 . S
C633 C630 1.403 . S
C633 C634 1.392 . S
C633 C637 1.495 . S
C634 C633 1.392 . S
C634 C635 1.385 . S
C634 C636 1.478 . S
C635 H629 0.930 . S
C635 C631 1.400 . S
C635 C634 1.385 . S
C636 C634 1.478 . S
C636 C638 1.381 . S
C636 C642 1.383 . S
C637 C633 1.495 . S
C637 H643 0.959 . S
C637 H644 0.961 . S
C637 H645 0.960 . S
C638 C636 1.381 . S
C638 C639 1.394 . S
C638 H646 0.930 . S
C639 C638 1.394 . S
C639 C640 1.383 . S
C639 H647 0.929 . S
C640 C639 1.383 . S
C640 C641 1.377 . S
C641 H625 0.930 . S
C641 C640 1.377 . S
C641 C642 1.379 . S
C642 H626 0.931 . S
C642 C636 1.383 . S
C642 C641 1.379 . S
H643 C637 0.959 . S
H644 C637 0.961 . S
H645 C637 0.960 . S
H646 C638 0.930 . S
H647 C639 0.929 . S
H648 C656 0.929 . S
H649 C658 0.930 . S
H650 C660 0.930 . S
H651 C663 0.929 . S
H652 C666 0.930 . S
H653 C668 0.960 . S
H654 C668 0.960 . S
H655 C668 0.960 . S
C656 H648 0.929 . S
C656 C657 1.377 . S
C656 C658 1.384 . S
C657 C656 1.377 . S
C657 C663 1.390 . S
C658 H649 0.930 . S
C658 C656 1.384 . S
C658 C659 1.372 . S
C659 C658 1.372 . S
C659 C660 1.400 . S
C659 C664 1.490 . S
C660 H650 0.930 . S
C660 C659 1.400 . S
C660 C663 1.386 . S
H661 C677 0.930 . S
H662 C678 0.931 . S
C663 H651 0.929 . S
C663 C657 1.390 . S
C663 C660 1.386 . S
C664 C659 1.490 . S
C664 C666 1.395 . S
C664 C667 1.403 . S
H665 C671 0.930 . S
C666 H652 0.930 . S
C666 C664 1.395 . S
C666 C669 1.403 . S
C667 C664 1.403 . S
C667 C668 1.524 . S
C667 C671 1.400 . S
C668 H653 0.960 . S
C668 H654 0.960 . S
C668 H655 0.960 . S
C668 C667 1.524 . S
C669 C666 1.403 . S
C669 C670 1.392 . S
C669 C673 1.495 . S
C670 C669 1.392 . S
C670 C671 1.385 . S
C670 C672 1.478 . S
C671 H665 0.930 . S
C671 C667 1.400 . S
C671 C670 1.385 . S
C672 C670 1.478 . S
C672 C674 1.381 . S
C672 C678 1.383 . S
C673 C669 1.495 . S
C673 H679 0.959 . S
C673 H680 0.961 . S
C673 H681 0.960 . S
C674 C672 1.381 . S
C674 C675 1.394 . S
C674 H682 0.930 . S
C675 C674 1.394 . S
C675 C676 1.383 . S
C675 H683 0.929 . S
C676 C675 1.383 . S
C676 C677 1.377 . S
C677 H661 0.930 . S
C677 C676 1.377 . S
C677 C678 1.379 . S
C678 H662 0.931 . S
C678 C672 1.383 . S
C678 C677 1.379 . S
H679 C673 0.959 . S
H680 C673 0.961 . S
H681 C673 0.960 . S
H682 C674 0.930 . S
H683 C675 0.929 . S
H684 C692 0.929 . S
H685 C694 0.930 . S
H686 C696 0.930 . S
H687 C699 0.929 . S
H688 C702 0.930 . S
H689 C704 0.960 . S
H690 C704 0.960 . S
H691 C704 0.960 1_556 S
C692 H684 0.929 . S
C692 C693 1.377 . S
C692 C694 1.384 . S
C693 C692 1.377 . S
C693 C699 1.390 . S
C694 H685 0.930 . S
C694 C692 1.384 . S
C694 C695 1.372 . S
C695 C694 1.372 . S
C695 C696 1.400 . S
C695 C700 1.490 . S
C696 H686 0.930 . S
C696 C695 1.400 . S
C696 C699 1.386 . S
H697 C713 0.930 . S
H698 C714 0.931 . S
C699 H687 0.929 . S
C699 C693 1.390 . S
C699 C696 1.386 . S
C700 C695 1.490 . S
C700 C702 1.395 1_565 S
C700 C703 1.403 1_556 S
H701 C707 0.930 . S
C702 H688 0.930 . S
C702 C700 1.395 1_545 S
C702 C705 1.403 . S
C703 C700 1.403 1_554 S
C703 C704 1.524 . S
C703 C707 1.400 . S
C704 H689 0.960 . S
C704 H690 0.960 . S
C704 H691 0.960 1_554 S
C704 C703 1.524 . S
C705 C702 1.403 . S
C705 C706 1.392 1_556 S
C705 C709 1.495 . S
C706 C705 1.392 1_554 S
C706 C707 1.385 1_545 S
C706 C708 1.478 . S
C707 H701 0.930 . S
C707 C703 1.400 . S
C707 C706 1.385 1_565 S
C708 C706 1.478 . S
C708 C710 1.381 . S
C708 C714 1.383 . S
C709 C705 1.495 . S
C709 H715 0.959 . S
C709 H716 0.961 . S
C709 H717 0.953 1_556 S
C710 C708 1.381 . S
C710 C711 1.394 . S
C710 H718 0.930 . S
C711 C710 1.394 . S
C711 C712 1.383 . S
C711 H719 0.929 . S
C712 C711 1.383 . S
C712 C713 1.377 . S
C713 H697 0.930 . S
C713 C712 1.377 . S
C713 C714 1.379 . S
C714 H698 0.931 . S
C714 C708 1.383 . S
C714 C713 1.379 . S
H715 C709 0.959 . S
H716 C709 0.961 . S
H717 C709 0.953 1_554 S
H718 C710 0.930 . S
H719 C711 0.929 . S
H720 C728 0.929 . S
H721 C730 0.930 . S
H722 C732 0.930 . S
H723 C735 0.929 . S
H724 C738 0.930 . S
H725 C740 0.960 . S
H726 C740 0.960 . S
H727 C740 0.960 . S
C728 H720 0.929 . S
C728 C729 1.377 . S
C728 C730 1.384 . S
C729 C728 1.377 . S
C729 C735 1.390 . S
C730 H721 0.930 . S
C730 C728 1.384 . S
C730 C731 1.372 . S
C731 C730 1.372 . S
C731 C732 1.400 . S
C731 C736 1.490 . S
C732 H722 0.930 . S
C732 C731 1.400 . S
C732 C735 1.386 . S
H733 C749 0.930 . S
H734 C750 0.931 . S
C735 H723 0.929 . S
C735 C729 1.390 . S
C735 C732 1.386 . S
C736 C731 1.490 . S
C736 C738 1.395 . S
C736 C739 1.403 . S
H737 C743 0.930 . S
C738 H724 0.930 . S
C738 C736 1.395 . S
C738 C741 1.403 . S
C739 C736 1.403 . S
C739 C740 1.524 . S
C739 C743 1.400 . S
C740 H725 0.960 . S
C740 H726 0.960 . S
C740 H727 0.960 . S
C740 C739 1.524 . S
C741 C738 1.403 . S
C741 C742 1.392 . S
C741 C745 1.495 . S
C742 C741 1.392 . S
C742 C743 1.385 . S
C742 C744 1.478 . S
C743 H737 0.930 . S
C743 C739 1.400 . S
C743 C742 1.385 . S
C744 C742 1.478 . S
C744 C746 1.381 . S
C744 C750 1.383 . S
C745 C741 1.495 . S
C745 H751 0.959 . S
C745 H752 0.961 . S
C745 H753 0.960 . S
C746 C744 1.381 . S
C746 C747 1.394 . S
C746 H754 0.930 . S
C747 C746 1.394 . S
C747 C748 1.383 . S
C747 H755 0.929 . S
C748 C747 1.383 . S
C748 C749 1.377 . S
C749 H733 0.930 . S
C749 C748 1.377 . S
C749 C750 1.379 . S
C750 H734 0.931 . S
C750 C744 1.383 . S
C750 C749 1.379 . S
H751 C745 0.959 . S
H752 C745 0.961 . S
H753 C745 0.960 . S
H754 C746 0.930 . S
H755 C747 0.929 . S
H756 C764 0.929 . S
H757 C766 0.930 . S
H758 C768 0.930 . S
H759 C771 0.929 . S
H760 C774 0.930 . S
H761 C776 0.960 . S
H762 C776 0.960 . S
H763 C776 0.960 . S
C764 H756 0.929 . S
C764 C765 1.377 . S
C764 C766 1.384 . S
C765 C764 1.377 . S
C765 C771 1.390 . S
C766 H757 0.930 . S
C766 C764 1.384 . S
C766 C767 1.372 . S
C767 C766 1.372 . S
C767 C768 1.400 . S
C767 C772 1.490 . S
C768 H758 0.930 . S
C768 C767 1.400 . S
C768 C771 1.386 . S
H769 C785 0.930 . S
H770 C786 0.931 . S
C771 H759 0.929 . S
C771 C765 1.390 . S
C771 C768 1.386 . S
C772 C767 1.490 . S
C772 C774 1.395 . S
C772 C775 1.403 1_455 S
H773 C779 0.930 . S
C774 H760 0.930 . S
C774 C772 1.395 . S
C774 C777 1.403 . S
C775 C772 1.403 1_655 S
C775 C776 1.524 . S
C775 C779 1.400 . S
C776 H761 0.960 . S
C776 H762 0.960 . S
C776 H763 0.960 . S
C776 C775 1.524 . S
C777 C774 1.403 . S
C777 C778 1.392 1_455 S
C777 C781 1.495 . S
C778 C777 1.392 1_655 S
C778 C779 1.385 . S
C778 C780 1.478 . S
C779 H773 0.930 . S
C779 C775 1.400 . S
C779 C778 1.385 . S
C780 C778 1.478 . S
C780 C782 1.381 . S
C780 C786 1.383 . S
C781 C777 1.495 . S
C781 H787 0.959 . S
C781 H788 0.961 . S
C781 H789 0.960 . S
C782 C780 1.381 . S
C782 C783 1.394 . S
C782 H790 0.930 . S
C783 C782 1.394 . S
C783 C784 1.383 . S
C783 H791 0.929 . S
C784 C783 1.383 . S
C784 C785 1.377 . S
C785 H769 0.930 . S
C785 C784 1.377 . S
C785 C786 1.379 . S
C786 H770 0.931 . S
C786 C780 1.383 . S
C786 C785 1.379 . S
H787 C781 0.959 . S
H788 C781 0.961 . S
H789 C781 0.960 . S
H790 C782 0.930 . S
H791 C783 0.929 . S
H792 C800 0.929 . S
H793 C802 0.930 . S
H794 C804 0.930 . S
H795 C807 0.929 . S
H796 C810 0.930 . S
H797 C812 0.960 1_556 S
H798 C812 0.960 . S
H799 C812 0.960 . S
C800 H792 0.929 . S
C800 C801 1.377 . S
C800 C802 1.384 . S
C801 C800 1.377 . S
C801 C807 1.390 . S
C802 H793 0.930 . S
C802 C800 1.384 . S
C802 C803 1.372 . S
C803 C802 1.372 . S
C803 C804 1.400 . S
C803 C808 1.490 . S
C804 H794 0.930 . S
C804 C803 1.400 . S
C804 C807 1.386 . S
H805 C821 0.930 . S
H806 C822 0.931 . S
C807 H795 0.929 . S
C807 C801 1.390 . S
C807 C804 1.386 . S
C808 C803 1.490 . S
C808 C810 1.395 1_565 S
C808 C811 1.403 . S
H809 C815 0.930 . S
C810 H796 0.930 . S
C810 C808 1.395 1_545 S
C810 C813 1.392 1_554 S
C811 C808 1.403 . S
C811 C812 1.524 . S
C811 C815 1.400 1_554 S
C812 H797 0.960 1_554 S
C812 H798 0.960 . S
C812 H799 0.960 . S
C812 C811 1.524 . S
C813 C810 1.392 1_556 S
C813 C814 1.403 . S
C813 C817 1.496 . S
C814 C813 1.403 . S
C814 C815 1.385 1_545 S
C814 C816 1.478 . S
C815 H809 0.930 . S
C815 C811 1.400 1_556 S
C815 C814 1.385 1_565 S
C816 C814 1.478 . S
C816 C818 1.381 . S
C816 C822 1.383 . S
C817 C813 1.496 . S
C817 H823 0.959 1_556 S
C817 H824 0.961 . S
C817 H825 0.960 . S
C818 C816 1.381 . S
C818 C819 1.394 . S
C818 H826 0.930 . S
C819 C818 1.394 . S
C819 C820 1.383 . S
C819 H827 0.929 . S
C820 C819 1.383 . S
C820 C821 1.377 . S
C821 H805 0.930 . S
C821 C820 1.377 . S
C821 C822 1.379 . S
C822 H806 0.931 . S
C822 C816 1.383 . S
C822 C821 1.379 . S
H823 C817 0.959 1_554 S
H824 C817 0.961 . S
H825 C817 0.960 . S
H826 C818 0.930 . S
H827 C819 0.929 . S
H828 C836 0.929 . S
H829 C838 0.930 . S
H830 C840 0.930 . S
H831 C843 0.929 . S
H832 C846 0.930 . S
H833 C848 0.960 . S
H834 C848 0.960 . S
H835 C848 0.960 . S
C836 H828 0.929 . S
C836 C837 1.377 . S
C836 C838 1.384 . S
C837 C836 1.377 . S
C837 C843 1.390 . S
C838 H829 0.930 . S
C838 C836 1.384 . S
C838 C839 1.372 . S
C839 C838 1.372 . S
C839 C840 1.400 . S
C839 C844 1.490 . S
C840 H830 0.930 . S
C840 C839 1.400 . S
C840 C843 1.386 . S
H841 C857 0.930 . S
H842 C858 0.931 . S
C843 H831 0.929 . S
C843 C837 1.390 . S
C843 C840 1.386 . S
C844 C839 1.490 . S
C844 C846 1.395 . S
C844 C847 1.403 . S
H845 C851 0.930 . S
C846 H832 0.930 . S
C846 C844 1.395 . S
C846 C849 1.403 . S
C847 C844 1.403 . S
C847 C848 1.524 . S
C847 C851 1.400 . S
C848 H833 0.960 . S
C848 H834 0.960 . S
C848 H835 0.960 . S
C848 C847 1.524 . S
C849 C846 1.403 . S
C849 C850 1.392 . S
C849 C853 1.495 . S
C850 C849 1.392 . S
C850 C851 1.385 . S
C850 C852 1.478 . S
C851 H845 0.930 . S
C851 C847 1.400 . S
C851 C850 1.385 . S
C852 C850 1.478 . S
C852 C854 1.381 . S
C852 C858 1.383 . S
C853 C849 1.495 . S
C853 H859 0.959 . S
C853 H860 0.961 . S
C853 H861 0.960 . S
C854 C852 1.381 . S
C854 C855 1.394 . S
C854 H862 0.930 . S
C855 C854 1.394 . S
C855 C856 1.383 . S
C855 H863 0.929 . S
C856 C855 1.383 . S
C856 C857 1.377 . S
C857 H841 0.930 . S
C857 C856 1.377 . S
C857 C858 1.379 . S
C858 H842 0.931 . S
C858 C852 1.383 . S
C858 C857 1.379 . S
H859 C853 0.959 . S
H860 C853 0.961 . S
H861 C853 0.960 . S
H862 C854 0.930 . S
H863 C855 0.929 . S
H864 C872 0.929 . S
H865 C874 0.930 . S
H866 C876 0.930 . S
H867 C879 0.929 . S
H868 C882 0.930 . S
H869 C884 0.960 . S
H870 C884 0.960 . S
H871 C884 0.960 . S
C872 H864 0.929 . S
C872 C873 1.377 . S
C872 C874 1.384 . S
C873 C872 1.377 . S
C873 C879 1.390 . S
C874 H865 0.930 . S
C874 C872 1.384 . S
C874 C875 1.372 . S
C875 C874 1.372 . S
C875 C876 1.400 . S
C875 C880 1.490 . S
C876 H866 0.930 . S
C876 C875 1.400 . S
C876 C879 1.386 . S
H877 C893 0.930 . S
H878 C894 0.931 . S
C879 H867 0.929 . S
C879 C873 1.390 . S
C879 C876 1.386 . S
C880 C875 1.490 . S
C880 C882 1.395 1_455 S
C880 C883 1.403 . S
H881 C887 0.930 . S
C882 H868 0.930 . S
C882 C880 1.395 1_655 S
C882 C885 1.403 . S
C883 C880 1.403 . S
C883 C884 1.524 . S
C883 C887 1.400 . S
C884 H869 0.960 . S
C884 H870 0.960 . S
C884 H871 0.960 . S
C884 C883 1.524 . S
C885 C882 1.403 . S
C885 C886 1.392 . S
C885 C889 1.495 . S
C886 C885 1.392 . S
C886 C887 1.385 1_655 S
C886 C888 1.478 . S
C887 H881 0.930 . S
C887 C883 1.400 . S
C887 C886 1.385 1_455 S
C888 C886 1.478 . S
C888 C890 1.381 . S
C888 C894 1.383 . S
C889 C885 1.495 . S
C889 H895 0.959 . S
C889 H896 0.961 . S
C889 H897 0.960 . S
C890 C888 1.381 . S
C890 C891 1.394 . S
C890 H898 0.930 . S
C891 C890 1.394 . S
C891 C892 1.383 . S
C891 H899 0.929 . S
C892 C891 1.383 . S
C892 C893 1.377 . S
C893 H877 0.930 . S
C893 C892 1.377 . S
C893 C894 1.379 . S
C894 H878 0.931 . S
C894 C888 1.383 . S
C894 C893 1.379 . S
H895 C889 0.959 . S
H896 C889 0.961 . S
H897 C889 0.960 . S
H898 C890 0.930 . S
H899 C891 0.929 . S
H900 C908 0.929 . S
H901 C910 0.930 . S
H902 C912 0.930 . S
H903 C915 0.929 . S
H904 C918 0.930 . S
H905 C920 0.960 . S
H906 C920 0.960 . S
H907 C920 0.960 1_545 S
C908 H900 0.929 . S
C908 C909 1.377 . S
C908 C910 1.384 . S
C909 C908 1.377 . S
C909 C915 1.390 . S
C910 H901 0.930 . S
C910 C908 1.384 . S
C910 C911 1.372 . S
C911 C910 1.372 . S
C911 C912 1.400 . S
C911 C916 1.490 . S
C912 H902 0.930 . S
C912 C911 1.400 . S
C912 C915 1.386 . S
H913 C929 0.930 . S
H914 C930 0.931 . S
C915 H903 0.929 . S
C915 C909 1.390 . S
C915 C912 1.386 . S
C916 C911 1.490 . S
C916 C918 1.395 . S
C916 C919 1.403 1_545 S
H917 C923 0.930 . S
C918 H904 0.930 . S
C918 C916 1.395 . S
C918 C921 1.403 . S
C919 C916 1.403 1_565 S
C919 C920 1.524 . S
C919 C923 1.400 . S
C920 H905 0.960 . S
C920 H906 0.960 . S
C920 H907 0.960 1_565 S
C920 C919 1.524 . S
C921 C918 1.403 . S
C921 C922 1.392 1_545 S
C921 C925 1.495 . S
C922 C921 1.392 1_565 S
C922 C923 1.385 . S
C922 C924 1.478 . S
C923 H917 0.930 . S
C923 C919 1.400 . S
C923 C922 1.385 . S
C924 C922 1.478 . S
C924 C926 1.381 . S
C924 C930 1.383 . S
C925 C921 1.495 . S
C925 H931 0.959 . S
C925 H932 0.961 . S
C925 H933 0.960 1_545 S
C926 C924 1.381 . S
C926 C927 1.394 . S
C926 H934 0.930 . S
C927 C926 1.394 . S
C927 C928 1.383 . S
C927 H935 0.929 . S
C928 C927 1.383 . S
C928 C929 1.377 . S
C929 H913 0.930 . S
C929 C928 1.377 . S
C929 C930 1.379 . S
C930 H914 0.931 . S
C930 C924 1.383 . S
C930 C929 1.379 . S
H931 C925 0.959 . S
H932 C925 0.961 . S
H933 C925 0.960 1_565 S
H934 C926 0.930 . S
H935 C927 0.929 . S
H936 C944 0.929 . S
H937 C946 0.930 . S
H938 C948 0.930 . S
H939 C951 0.929 . S
H940 C954 0.930 . S
H941 C956 0.960 . S
H942 C956 0.960 . S
H943 C956 0.960 . S
C944 H936 0.929 . S
C944 C945 1.377 . S
C944 C946 1.384 . S
C945 C944 1.377 . S
C945 C951 1.390 . S
C946 H937 0.930 . S
C946 C944 1.384 . S
C946 C947 1.372 . S
C947 C946 1.372 . S
C947 C948 1.400 . S
C947 C952 1.490 . S
C948 H938 0.930 . S
C948 C947 1.400 . S
C948 C951 1.386 . S
H949 C965 0.930 . S
H950 C966 0.931 . S
C951 H939 0.929 . S
C951 C945 1.390 . S
C951 C948 1.386 . S
C952 C947 1.490 . S
C952 C954 1.395 . S
C952 C955 1.403 . S
H953 C959 0.930 . S
C954 H940 0.930 . S
C954 C952 1.395 . S
C954 C957 1.403 . S
C955 C952 1.403 . S
C955 C956 1.524 . S
C955 C959 1.400 . S
C956 H941 0.960 . S
C956 H942 0.960 . S
C956 H943 0.960 . S
C956 C955 1.524 . S
C957 C954 1.403 . S
C957 C958 1.392 . S
C957 C961 1.495 . S
C958 C957 1.392 . S
C958 C959 1.385 . S
C958 C960 1.478 . S
C959 H953 0.930 . S
C959 C955 1.400 . S
C959 C958 1.385 . S
C960 C958 1.478 . S
C960 C962 1.381 . S
C960 C966 1.383 . S
C961 C957 1.495 . S
C961 H967 0.959 . S
C961 H968 0.961 . S
C961 H969 0.960 . S
C962 C960 1.381 . S
C962 C963 1.394 . S
C962 H970 0.930 . S
C963 C962 1.394 . S
C963 C964 1.383 . S
C963 H971 0.929 . S
C964 C963 1.383 . S
C964 C965 1.377 . S
C965 H949 0.930 . S
C965 C964 1.377 . S
C965 C966 1.379 . S
C966 H950 0.931 . S
C966 C960 1.383 . S
C966 C965 1.379 . S
H967 C961 0.959 . S
H968 C961 0.961 . S
H969 C961 0.960 . S
H970 C962 0.930 . S
H971 C963 0.929 . S
H972 C980 0.929 1_554 S
H973 C982 0.930 1_554 S
H974 C984 0.930 . S
H975 C987 0.929 . S
H976 C990 0.930 . S
H977 C992 0.960 . S
H978 C992 0.960 . S
H979 C992 0.960 . S
C980 H972 0.929 1_556 S
C980 C981 1.377 . S
C980 C982 1.384 . S
C981 C980 1.377 . S
C981 C987 1.390 . S
C982 H973 0.930 1_556 S
C982 C980 1.384 . S
C982 C983 1.372 . S
C983 C982 1.372 . S
C983 C984 1.400 . S
C983 C988 1.490 . S
C984 H974 0.930 . S
C984 C983 1.400 . S
C984 C987 1.386 . S
H985 C1001 0.930 . S
H986 C1002 0.931 . S
C987 H975 0.929 . S
C987 C981 1.390 . S
C987 C984 1.386 . S
C988 C983 1.490 . S
C988 C990 1.395 1_655 S
C988 C991 1.403 . S
H989 C995 0.930 . S
C990 H976 0.930 . S
C990 C988 1.395 1_455 S
C990 C993 1.403 . S
C991 C988 1.403 . S
C991 C992 1.524 . S
C991 C995 1.400 . S
C992 H977 0.960 . S
C992 H978 0.960 . S
C992 H979 0.960 . S
C992 C991 1.524 . S
C993 C990 1.403 . S
C993 C994 1.392 . S
C993 C997 1.495 . S
C994 C993 1.392 . S
C994 C995 1.385 1_455 S
C994 C996 1.478 . S
C995 H989 0.930 . S
C995 C991 1.400 . S
C995 C994 1.385 1_655 S
C996 C994 1.478 . S
C996 C998 1.381 . S
C996 C1002 1.383 . S
C997 C993 1.495 . S
C997 H1003 0.959 . S
C997 H1004 0.961 . S
C997 H1005 0.960 1_556 S
C998 C996 1.381 . S
C998 C999 1.394 . S
C998 H1006 0.930 1_556 S
C999 C998 1.394 . S
C999 C1000 1.383 . S
C999 H1007 0.929 1_556 S
C1000 C999 1.383 . S
C1000 C1001 1.377 . S
C1001 H985 0.930 . S
C1001 C1000 1.377 . S
C1001 C1002 1.379 . S
C1002 H986 0.931 . S
C1002 C996 1.383 . S
C1002 C1001 1.379 . S
H1003 C997 0.959 . S
H1004 C997 0.961 . S
H1005 C997 0.960 1_554 S
H1006 C998 0.930 1_554 S
H1007 C999 0.929 1_554 S
H1008 C1016 0.929 . S
H1009 C1018 0.930 . S
H1010 C1020 0.930 . S
H1011 C1023 0.929 . S
H1012 C1026 0.930 . S
H1013 C1028 0.960 . S
H1014 C1028 0.960 . S
H1015 C1028 0.960 . S
C1016 H1008 0.929 . S
C1016 C1017 1.377 . S
C1016 C1018 1.384 . S
C1017 C1016 1.377 . S
C1017 C1023 1.390 . S
C1018 H1009 0.930 . S
C1018 C1016 1.384 . S
C1018 C1019 1.372 . S
C1019 C1018 1.372 . S
C1019 C1020 1.400 . S
C1019 C1024 1.490 . S
C1020 H1010 0.930 . S
C1020 C1019 1.400 . S
C1020 C1023 1.386 . S
H1021 C1037 0.930 . S
H1022 C1038 0.931 . S
C1023 H1011 0.929 . S
C1023 C1017 1.390 . S
C1023 C1020 1.386 . S
C1024 C1019 1.490 . S
C1024 C1026 1.395 1_455 S
C1024 C1027 1.403 . S
H1025 C1031 0.936 . S
C1026 H1012 0.930 . S
C1026 C1024 1.395 1_655 S
C1026 C1029 1.403 . S
C1027 C1024 1.403 . S
C1027 C1028 1.524 . S
C1027 C1031 1.374 1_455 S
C1028 H1013 0.960 . S
C1028 H1014 0.960 . S
C1028 H1015 0.960 . S
C1028 C1027 1.524 . S
C1029 C1026 1.403 . S
C1029 C1030 1.392 . S
C1029 C1033 1.495 . S
C1030 C1029 1.392 . S
C1030 C1031 1.402 . S
C1030 C1032 1.478 . S
C1031 H1025 0.936 . S
C1031 C1027 1.374 1_655 S
C1031 C1030 1.402 . S
C1032 C1030 1.478 . S
C1032 C1034 1.381 . S
C1032 C1038 1.383 . S
C1033 C1029 1.495 . S
C1033 H1039 0.959 . S
C1033 H1040 0.961 . S
C1033 H1041 0.960 . S
C1034 C1032 1.381 . S
C1034 C1035 1.394 . S
C1034 H1042 0.930 . S
C1035 C1034 1.394 . S
C1035 C1036 1.383 . S
C1035 H1043 0.929 . S
C1036 C1035 1.383 . S
C1036 C1037 1.377 . S
C1037 H1021 0.930 . S
C1037 C1036 1.377 . S
C1037 C1038 1.379 . S
C1038 H1022 0.931 . S
C1038 C1032 1.383 . S
C1038 C1037 1.379 . S
H1039 C1033 0.959 . S
H1040 C1033 0.961 . S
H1041 C1033 0.960 . S
H1042 C1034 0.930 . S
H1043 C1035 0.929 . S
H1044 C1052 0.929 . S
H1045 C1054 0.930 . S
H1046 C1056 0.930 . S
H1047 C1059 0.929 . S
H1048 C1062 0.930 . S
H1049 C1064 0.960 . S
H1050 C1064 0.960 1_565 S
H1051 C1064 0.960 . S
C1052 H1044 0.929 . S
C1052 C1053 1.377 . S
C1052 C1054 1.384 . S
C1053 C1052 1.377 . S
C1053 C1059 1.390 . S
C1054 H1045 0.930 . S
C1054 C1052 1.384 . S
C1054 C1055 1.372 . S
C1055 C1054 1.372 . S
C1055 C1056 1.400 . S
C1055 C1060 1.490 . S
C1056 H1046 0.930 . S
C1056 C1055 1.400 . S
C1056 C1059 1.386 . S
H1057 C1073 0.930 . S
H1058 C1074 0.931 . S
C1059 H1047 0.929 . S
C1059 C1053 1.390 . S
C1059 C1056 1.386 . S
C1060 C1055 1.490 . S
C1060 C1062 1.395 . S
C1060 C1063 1.416 . S
H1061 C1067 0.930 . S
C1062 H1048 0.930 . S
C1062 C1060 1.395 . S
C1062 C1065 1.403 . S
C1063 C1060 1.416 . S
C1063 C1064 1.515 1_565 S
C1063 C1067 1.396 1_565 S
C1064 H1049 0.960 . S
C1064 H1050 0.960 1_545 S
C1064 H1051 0.960 . S
C1064 C1063 1.515 1_545 S
C1065 C1062 1.403 . S
C1065 C1066 1.392 1_565 S
C1065 C1069 1.495 . S
C1066 C1065 1.392 1_545 S
C1066 C1067 1.385 . S
C1066 C1068 1.478 . S
C1067 H1061 0.930 . S
C1067 C1063 1.396 1_545 S
C1067 C1066 1.385 . S
C1068 C1066 1.478 . S
C1068 C1070 1.381 . S
C1068 C1074 1.383 . S
C1069 C1065 1.495 . S
C1069 H1075 0.959 . S
C1069 H1076 0.961 1_565 S
C1069 H1077 0.960 . S
C1070 C1068 1.381 . S
C1070 C1071 1.394 . S
C1070 H1078 0.930 . S
C1071 C1070 1.394 . S
C1071 C1072 1.383 . S
C1071 H1079 0.929 . S
C1072 C1071 1.383 . S
C1072 C1073 1.377 . S
C1073 H1057 0.930 . S
C1073 C1072 1.377 . S
C1073 C1074 1.379 . S
C1074 H1058 0.931 . S
C1074 C1068 1.383 . S
C1074 C1073 1.379 . S
H1075 C1069 0.959 . S
H1076 C1069 0.961 1_545 S
H1077 C1069 0.960 . S
H1078 C1070 0.930 . S
H1079 C1071 0.929 . S
H1080 C1088 0.929 . S
H1081 C1090 0.930 . S
H1082 C1092 0.930 . S
H1083 C1095 0.929 . S
H1084 C1098 0.930 1_556 S
H1085 C1100 0.960 . S
H1086 C1100 0.960 . S
H1087 C1100 0.960 . S
C1088 H1080 0.929 . S
C1088 C1089 1.377 . S
C1088 C1090 1.384 . S
C1089 C1088 1.377 . S
C1089 C1095 1.390 . S
C1090 H1081 0.930 . S
C1090 C1088 1.384 . S
C1090 C1091 1.372 . S
C1091 C1090 1.372 . S
C1091 C1092 1.400 . S
C1091 C1096 1.490 . S
C1092 H1082 0.930 . S
C1092 C1091 1.400 . S
C1092 C1095 1.386 . S
H1093 C1109 0.930 . S
H1094 C1110 0.931 . S
C1095 H1083 0.929 . S
C1095 C1089 1.390 . S
C1095 C1092 1.386 . S
C1096 C1091 1.490 . S
C1096 C1098 1.395 . S
C1096 C1099 1.403 . S
H1097 C1103 0.930 . S
C1098 H1084 0.930 1_554 S
C1098 C1096 1.395 . S
C1098 C1101 1.403 . S
C1099 C1096 1.403 . S
C1099 C1100 1.524 . S
C1099 C1103 1.400 . S
C1100 H1085 0.960 . S
C1100 H1086 0.960 . S
C1100 H1087 0.960 . S
C1100 C1099 1.524 . S
C1101 C1098 1.403 . S
C1101 C1102 1.392 . S
C1101 C1105 1.495 1_554 S
C1102 C1101 1.392 . S
C1102 C1103 1.385 . S
C1102 C1104 1.478 . S
C1103 H1097 0.930 . S
C1103 C1099 1.400 . S
C1103 C1102 1.385 . S
C1104 C1102 1.478 . S
C1104 C1106 1.381 . S
C1104 C1110 1.383 . S
C1105 C1101 1.495 1_556 S
C1105 H1111 0.959 . S
C1105 H1112 0.961 . S
C1105 H1113 0.960 . S
C1106 C1104 1.381 . S
C1106 C1107 1.394 . S
C1106 H1114 0.930 . S
C1107 C1106 1.394 . S
C1107 C1108 1.383 . S
C1107 H1115 0.929 . S
C1108 C1107 1.383 . S
C1108 C1109 1.377 . S
C1109 H1093 0.930 . S
C1109 C1108 1.377 . S
C1109 C1110 1.379 . S
C1110 H1094 0.931 . S
C1110 C1104 1.383 . S
C1110 C1109 1.379 . S
H1111 C1105 0.959 . S
H1112 C1105 0.961 . S
H1113 C1105 0.960 . S
H1114 C1106 0.930 . S
H1115 C1107 0.929 . S
H1116 C1124 0.929 . S
H1117 C1126 0.930 . S
H1118 C1128 0.930 . S
H1119 C1131 0.929 . S
H1120 C1134 0.930 . S
H1121 C1136 0.960 . S
H1122 C1136 0.960 1_565 S
H1123 C1136 0.960 . S
C1124 H1116 0.929 . S
C1124 C1125 1.377 . S
C1124 C1126 1.384 . S
C1125 C1124 1.377 . S
C1125 C1131 1.390 . S
C1126 H1117 0.930 . S
C1126 C1124 1.384 . S
C1126 C1127 1.372 . S
C1127 C1126 1.372 . S
C1127 C1128 1.400 . S
C1127 C1132 1.490 . S
C1128 H1118 0.930 . S
C1128 C1127 1.400 . S
C1128 C1131 1.386 . S
H1129 C1145 0.930 . S
H1130 C1146 0.931 . S
C1131 H1119 0.929 . S
C1131 C1125 1.390 . S
C1131 C1128 1.386 . S
C1132 C1127 1.490 . S
C1132 C1134 1.395 . S
C1132 C1135 1.403 1_565 S
H1133 C1139 0.930 . S
C1134 H1120 0.930 . S
C1134 C1132 1.395 . S
C1134 C1137 1.403 . S
C1135 C1132 1.403 1_545 S
C1135 C1136 1.524 . S
C1135 C1139 1.400 . S
C1136 H1121 0.960 . S
C1136 H1122 0.960 1_545 S
C1136 H1123 0.960 . S
C1136 C1135 1.524 . S
C1137 C1134 1.403 . S
C1137 C1138 1.392 1_565 S
C1137 C1141 1.495 . S
C1138 C1137 1.392 1_545 S
C1138 C1139 1.385 . S
C1138 C1140 1.478 . S
C1139 H1133 0.930 . S
C1139 C1135 1.400 . S
C1139 C1138 1.385 . S
C1140 C1138 1.478 . S
C1140 C1142 1.381 . S
C1140 C1146 1.383 . S
C1141 C1137 1.495 . S
C1141 H1147 0.959 . S
C1141 H1148 0.961 1_565 S
C1141 H1149 0.960 . S
C1142 C1140 1.381 . S
C1142 C1143 1.394 . S
C1142 H1150 0.930 . S
C1143 C1142 1.394 . S
C1143 C1144 1.383 . S
C1143 H1151 0.929 . S
C1144 C1143 1.383 . S
C1144 C1145 1.377 . S
C1145 H1129 0.930 . S
C1145 C1144 1.377 . S
C1145 C1146 1.379 . S
C1146 H1130 0.931 . S
C1146 C1140 1.383 . S
C1146 C1145 1.379 . S
H1147 C1141 0.959 . S
H1148 C1141 0.961 1_545 S
H1149 C1141 0.960 . S
H1150 C1142 0.930 . S
H1151 C1143 0.929 . S
H1152 C1160 0.929 . S
H1153 C1162 0.930 . S
H1154 C1164 0.930 . S
H1155 C1167 0.906 1_554 S
H1156 C1170 0.930 . S
H1157 C1172 0.960 . S
H1158 C1172 0.960 . S
H1159 C1172 0.960 . S
C1160 H1152 0.929 . S
C1160 C1161 1.377 . S
C1160 C1162 1.384 . S
C1161 C1160 1.377 . S
C1161 C1167 1.390 . S
C1162 H1153 0.930 . S
C1162 C1160 1.384 . S
C1162 C1163 1.372 . S
C1163 C1162 1.372 . S
C1163 C1164 1.400 . S
C1163 C1168 1.490 . S
C1164 H1154 0.930 . S
C1164 C1163 1.400 . S
C1164 C1167 1.386 . S
H1165 C1181 0.930 . S
H1166 C1182 0.931 . S
C1167 H1155 0.906 1_556 S
C1167 C1161 1.390 . S
C1167 C1164 1.386 . S
C1168 C1163 1.490 . S
C1168 C1170 1.395 . S
C1168 C1171 1.403 . S
H1169 C1175 0.930 . S
C1170 H1156 0.930 . S
C1170 C1168 1.395 . S
C1170 C1173 1.403 . S
C1171 C1168 1.403 . S
C1171 C1172 1.524 . S
C1171 C1175 1.400 . S
C1172 H1157 0.960 . S
C1172 H1158 0.960 . S
C1172 H1159 0.960 . S
C1172 C1171 1.524 . S
C1173 C1170 1.403 . S
C1173 C1174 1.392 . S
C1173 C1177 1.495 . S
C1174 C1173 1.392 . S
C1174 C1175 1.385 . S
C1174 C1176 1.478 . S
C1175 H1169 0.930 . S
C1175 C1171 1.400 . S
C1175 C1174 1.385 . S
C1176 C1174 1.478 . S
C1176 C1178 1.381 . S
C1176 C1182 1.383 . S
C1177 C1173 1.495 . S
C1177 H1183 0.959 . S
C1177 H1184 0.961 . S
C1177 H1185 0.960 . S
C1178 C1176 1.381 . S
C1178 C1179 1.394 . S
C1178 H1186 0.930 . S
C1179 C1178 1.394 . S
C1179 C1180 1.383 . S
C1179 H1187 0.929 . S
C1180 C1179 1.383 . S
C1180 C1181 1.377 . S
C1181 H1165 0.930 . S
C1181 C1180 1.377 . S
C1181 C1182 1.379 . S
C1182 H1166 0.931 . S
C1182 C1176 1.383 . S
C1182 C1181 1.379 . S
H1183 C1177 0.959 . S
H1184 C1177 0.961 . S
H1185 C1177 0.960 . S
H1186 C1178 0.930 . S
H1187 C1179 0.929 . S
H1188 C1196 0.929 1_556 S
H1189 C1198 0.930 . S
H1190 C1200 0.930 . S
H1191 C1203 0.929 . S
H1192 C1206 0.930 . S
H1193 C1208 0.960 . S
H1194 C1208 0.960 . S
H1195 C1208 0.960 . S
C1196 H1188 0.929 1_554 S
C1196 C1197 1.377 . S
C1196 C1198 1.384 . S
C1197 C1196 1.377 . S
C1197 C1203 1.390 . S
C1198 H1189 0.930 . S
C1198 C1196 1.384 . S
C1198 C1199 1.372 . S
C1199 C1198 1.372 . S
C1199 C1200 1.400 . S
C1199 C1204 1.490 . S
C1200 H1190 0.930 . S
C1200 C1199 1.400 . S
C1200 C1203 1.386 . S
H1201 C1217 0.930 . S
H1202 C1218 0.931 . S
C1203 H1191 0.929 . S
C1203 C1197 1.390 . S
C1203 C1200 1.386 . S
C1204 C1199 1.490 . S
C1204 C1206 1.395 1_655 S
C1204 C1207 1.403 . S
H1205 C1211 0.930 . S
C1206 H1192 0.930 . S
C1206 C1204 1.395 1_455 S
C1206 C1209 1.403 . S
C1207 C1204 1.403 . S
C1207 C1208 1.524 . S
C1207 C1211 1.400 . S
C1208 H1193 0.960 . S
C1208 H1194 0.960 . S
C1208 H1195 0.960 . S
C1208 C1207 1.524 . S
C1209 C1206 1.403 . S
C1209 C1210 1.392 . S
C1209 C1213 1.495 . S
C1210 C1209 1.392 . S
C1210 C1211 1.385 1_455 S
C1210 C1212 1.478 . S
C1211 H1205 0.930 . S
C1211 C1207 1.400 . S
C1211 C1210 1.385 1_655 S
C1212 C1210 1.478 . S
C1212 C1214 1.381 . S
C1212 C1218 1.383 . S
C1213 C1209 1.495 . S
C1213 H1219 0.959 . S
C1213 H1220 0.961 . S
C1213 H1221 0.960 . S
C1214 C1212 1.381 . S
C1214 C1215 1.394 . S
C1214 H1222 0.930 . S
C1215 C1214 1.394 . S
C1215 C1216 1.383 . S
C1215 H1223 0.929 . S
C1216 C1215 1.383 . S
C1216 C1217 1.377 . S
C1217 H1201 0.930 . S
C1217 C1216 1.377 . S
C1217 C1218 1.379 . S
C1218 H1202 0.931 . S
C1218 C1212 1.383 . S
C1218 C1217 1.379 . S
H1219 C1213 0.959 . S
H1220 C1213 0.961 . S
H1221 C1213 0.960 . S
H1222 C1214 0.930 . S
H1223 C1215 0.929 . S
H1224 C1232 0.929 . S
H1225 C1234 0.930 . S
H1226 C1236 0.930 . S
H1227 C1239 0.929 . S
H1228 C1242 0.930 . S
H1229 C1244 0.960 . S
H1230 C1244 0.960 . S
H1231 C1244 0.960 . S
C1232 H1224 0.929 . S
C1232 C1233 1.377 . S
C1232 C1234 1.384 . S
C1233 C1232 1.377 . S
C1233 C1239 1.390 . S
C1234 H1225 0.930 . S
C1234 C1232 1.384 . S
C1234 C1235 1.372 . S
C1235 C1234 1.372 . S
C1235 C1236 1.400 . S
C1235 C1240 1.490 . S
C1236 H1226 0.930 . S
C1236 C1235 1.400 . S
C1236 C1239 1.386 . S
H1237 C1253 0.930 . S
H1238 C1254 0.931 . S
C1239 H1227 0.929 . S
C1239 C1233 1.390 . S
C1239 C1236 1.386 . S
C1240 C1235 1.490 . S
C1240 C1242 1.395 . S
C1240 C1243 1.403 1_545 S
H1241 C1247 0.930 . S
C1242 H1228 0.930 . S
C1242 C1240 1.395 . S
C1242 C1245 1.403 . S
C1243 C1240 1.403 1_565 S
C1243 C1244 1.524 . S
C1243 C1247 1.400 . S
C1244 H1229 0.960 . S
C1244 H1230 0.960 . S
C1244 H1231 0.960 . S
C1244 C1243 1.524 . S
C1245 C1242 1.403 . S
C1245 C1246 1.392 1_545 S
C1245 C1249 1.495 . S
C1246 C1245 1.392 1_565 S
C1246 C1247 1.385 . S
C1246 C1248 1.478 . S
C1247 H1241 0.930 . S
C1247 C1243 1.400 . S
C1247 C1246 1.385 . S
C1248 C1246 1.478 . S
C1248 C1250 1.381 . S
C1248 C1254 1.383 . S
C1249 C1245 1.495 . S
C1249 H1255 0.959 . S
C1249 H1256 0.961 . S
C1249 H1257 0.960 . S
C1250 C1248 1.381 . S
C1250 C1251 1.394 . S
C1250 H1258 0.930 . S
C1251 C1250 1.394 . S
C1251 C1252 1.383 . S
C1251 H1259 0.929 . S
C1252 C1251 1.383 . S
C1252 C1253 1.377 . S
C1253 H1237 0.930 . S
C1253 C1252 1.377 . S
C1253 C1254 1.379 . S
C1254 H1238 0.931 . S
C1254 C1248 1.383 . S
C1254 C1253 1.379 . S
H1255 C1249 0.959 . S
H1256 C1249 0.961 . S
H1257 C1249 0.960 . S
H1258 C1250 0.930 . S
H1259 C1251 0.929 . S
H1260 C1268 0.929 . S
H1261 C1270 0.930 . S
H1262 C1272 0.930 . S
H1263 C1275 0.929 . S
H1264 C1278 0.930 . S
H1265 C1280 0.960 . S
H1266 C1280 0.960 . S
H1267 C1280 0.960 . S
C1268 H1260 0.929 . S
C1268 C1269 1.377 . S
C1268 C1270 1.384 . S
C1269 C1268 1.377 . S
C1269 C1275 1.390 . S
C1270 H1261 0.930 . S
C1270 C1268 1.384 . S
C1270 C1271 1.372 . S
C1271 C1270 1.372 . S
C1271 C1272 1.400 . S
C1271 C1276 1.490 . S
C1272 H1262 0.930 . S
C1272 C1271 1.400 . S
C1272 C1275 1.386 . S
H1273 C1289 0.930 . S
H1274 C1290 0.931 . S
C1275 H1263 0.929 . S
C1275 C1269 1.390 . S
C1275 C1272 1.386 . S
C1276 C1271 1.490 . S
C1276 C1278 1.395 . S
C1276 C1279 1.403 . S
H1277 C1283 0.930 . S
C1278 H1264 0.930 . S
C1278 C1276 1.395 . S
C1278 C1281 1.403 . S
C1279 C1276 1.403 . S
C1279 C1280 1.524 . S
C1279 C1283 1.400 . S
C1280 H1265 0.960 . S
C1280 H1266 0.960 . S
C1280 H1267 0.960 . S
C1280 C1279 1.524 . S
C1281 C1278 1.403 . S
C1281 C1282 1.392 . S
C1281 C1285 1.495 . S
C1282 C1281 1.392 . S
C1282 C1283 1.385 . S
C1282 C1284 1.478 . S
C1283 H1277 0.930 . S
C1283 C1279 1.400 . S
C1283 C1282 1.385 . S
C1284 C1282 1.478 . S
C1284 C1286 1.381 . S
C1284 C1290 1.383 . S
C1285 C1281 1.495 . S
C1285 H1291 0.959 . S
C1285 H1292 0.961 . S
C1285 H1293 0.960 . S
C1286 C1284 1.381 . S
C1286 C1287 1.394 . S
C1286 H1294 0.930 . S
C1287 C1286 1.394 . S
C1287 C1288 1.383 . S
C1287 H1295 0.929 . S
C1288 C1287 1.383 . S
C1288 C1289 1.377 . S
C1289 H1273 0.930 . S
C1289 C1288 1.377 . S
C1289 C1290 1.379 . S
C1290 H1274 0.931 . S
C1290 C1284 1.383 . S
C1290 C1289 1.379 . S
H1291 C1285 0.959 . S
H1292 C1285 0.961 . S
H1293 C1285 0.960 . S
H1294 C1286 0.930 . S
H1295 C1287 0.929 . S
H1296 C1304 0.929 . S
H1297 C1306 0.930 . S
H1298 C1308 0.930 . S
H1299 C1311 0.929 . S
H1300 C1314 0.930 . S
H1301 C1316 0.960 . S
H1302 C1316 0.960 . S
H1303 C1316 0.960 . S
C1304 H1296 0.929 . S
C1304 C1305 1.377 . S
C1304 C1306 1.384 . S
C1305 C1304 1.377 . S
C1305 C1311 1.390 . S
C1306 H1297 0.930 . S
C1306 C1304 1.384 . S
C1306 C1307 1.372 . S
C1307 C1306 1.372 . S
C1307 C1308 1.400 . S
C1307 C1312 1.490 . S
C1308 H1298 0.930 . S
C1308 C1307 1.400 . S
C1308 C1311 1.386 . S
H1309 C1325 0.930 . S
H1310 C1326 0.931 . S
C1311 H1299 0.929 . S
C1311 C1305 1.390 . S
C1311 C1308 1.386 . S
C1312 C1307 1.490 . S
C1312 C1314 1.395 . S
C1312 C1315 1.403 . S
H1313 C1319 0.930 . S
C1314 H1300 0.930 . S
C1314 C1312 1.395 . S
C1314 C1317 1.403 1_455 S
C1315 C1312 1.403 . S
C1315 C1316 1.524 . S
C1315 C1319 1.400 1_455 S
C1316 H1301 0.960 . S
C1316 H1302 0.960 . S
C1316 H1303 0.960 . S
C1316 C1315 1.524 . S
C1317 C1314 1.403 1_655 S
C1317 C1318 1.392 . S
C1317 C1321 1.495 . S
C1318 C1317 1.392 . S
C1318 C1319 1.385 . S
C1318 C1320 1.478 . S
C1319 H1313 0.930 . S
C1319 C1315 1.400 1_655 S
C1319 C1318 1.385 . S
C1320 C1318 1.478 . S
C1320 C1322 1.381 . S
C1320 C1326 1.383 . S
C1321 C1317 1.495 . S
C1321 H1327 0.959 . S
C1321 H1328 0.961 . S
C1321 H1329 0.960 . S
C1322 C1320 1.381 . S
C1322 C1323 1.394 . S
C1322 H1330 0.930 . S
C1323 C1322 1.394 . S
C1323 C1324 1.383 . S
C1323 H1331 0.929 . S
C1324 C1323 1.383 . S
C1324 C1325 1.377 . S
C1325 H1309 0.930 . S
C1325 C1324 1.377 . S
C1325 C1326 1.379 . S
C1326 H1310 0.931 . S
C1326 C1320 1.383 . S
C1326 C1325 1.379 . S
H1327 C1321 0.959 . S
H1328 C1321 0.961 . S
H1329 C1321 0.960 . S
H1330 C1322 0.930 . S
H1331 C1323 0.929 . S
H1332 C1340 0.929 . S
H1333 C1342 0.930 . S
H1334 C1344 0.930 . S
H1335 C1347 0.929 . S
H1336 C1350 0.930 . S
H1337 C1352 0.960 . S
H1338 C1352 0.960 . S
H1339 C1352 0.960 . S
C1340 H1332 0.929 . S
C1340 C1341 1.377 . S
C1340 C1342 1.384 . S
C1341 C1340 1.377 . S
C1341 C1347 1.390 . S
C1342 H1333 0.930 . S
C1342 C1340 1.384 . S
C1342 C1343 1.372 . S
C1343 C1342 1.372 . S
C1343 C1344 1.400 . S
C1343 C1348 1.490 . S
C1344 H1334 0.930 . S
C1344 C1343 1.400 . S
C1344 C1347 1.386 . S
H1345 C1361 0.930 . S
H1346 C1362 0.931 . S
C1347 H1335 0.929 . S
C1347 C1341 1.390 . S
C1347 C1344 1.386 . S
C1348 C1343 1.490 . S
C1348 C1350 1.395 . S
C1348 C1351 1.403 . S
H1349 C1355 0.930 . S
C1350 H1336 0.930 . S
C1350 C1348 1.395 . S
C1350 C1353 1.403 . S
C1351 C1348 1.403 . S
C1351 C1352 1.524 . S
C1351 C1355 1.400 . S
C1352 H1337 0.960 . S
C1352 H1338 0.960 . S
C1352 H1339 0.960 . S
C1352 C1351 1.524 . S
C1353 C1350 1.403 . S
C1353 C1354 1.392 . S
C1353 C1357 1.495 . S
C1354 C1353 1.392 . S
C1354 C1355 1.385 . S
C1354 C1356 1.478 . S
C1355 H1349 0.930 . S
C1355 C1351 1.400 . S
C1355 C1354 1.385 . S
C1356 C1354 1.478 . S
C1356 C1358 1.381 . S
C1356 C1362 1.383 . S
C1357 C1353 1.495 . S
C1357 H1363 0.959 . S
C1357 H1364 0.961 . S
C1357 H1365 0.960 . S
C1358 C1356 1.381 . S
C1358 C1359 1.394 . S
C1358 H1366 0.930 . S
C1359 C1358 1.394 . S
C1359 C1360 1.383 . S
C1359 H1367 0.929 . S
C1360 C1359 1.383 . S
C1360 C1361 1.377 . S
C1361 H1345 0.930 . S
C1361 C1360 1.377 . S
C1361 C1362 1.379 . S
C1362 H1346 0.931 . S
C1362 C1356 1.383 . S
C1362 C1361 1.379 . S
H1363 C1357 0.959 . S
H1364 C1357 0.961 . S
H1365 C1357 0.960 . S
H1366 C1358 0.930 . S
H1367 C1359 0.929 . S
H1368 C1376 0.929 . S
H1369 C1378 0.930 . S
H1370 C1380 0.930 . S
H1371 C1383 0.929 . S
H1372 C1386 0.930 . S
H1373 C1388 0.960 . S
H1374 C1388 0.960 . S
H1375 C1388 0.960 . S
C1376 H1368 0.929 . S
C1376 C1377 1.377 . S
C1376 C1378 1.384 . S
C1377 C1376 1.377 . S
C1377 C1383 1.390 . S
C1378 H1369 0.930 . S
C1378 C1376 1.384 . S
C1378 C1379 1.372 . S
C1379 C1378 1.372 . S
C1379 C1380 1.400 . S
C1379 C1384 1.490 . S
C1380 H1370 0.930 . S
C1380 C1379 1.400 . S
C1380 C1383 1.386 . S
H1381 C1397 0.905 1_554 S
H1382 C1398 0.931 . S
C1383 H1371 0.929 . S
C1383 C1377 1.390 . S
C1383 C1380 1.386 . S
C1384 C1379 1.490 . S
C1384 C1386 1.395 . S
C1384 C1387 1.403 . S
H1385 C1391 0.930 . S
C1386 H1372 0.930 . S
C1386 C1384 1.395 . S
C1386 C1389 1.403 . S
C1387 C1384 1.403 . S
C1387 C1388 1.524 . S
C1387 C1391 1.400 . S
C1388 H1373 0.960 . S
C1388 H1374 0.960 . S
C1388 H1375 0.960 . S
C1388 C1387 1.524 . S
C1389 C1386 1.403 . S
C1389 C1390 1.392 . S
C1389 C1393 1.495 . S
C1390 C1389 1.392 . S
C1390 C1391 1.385 . S
C1390 C1392 1.478 . S
C1391 H1385 0.930 . S
C1391 C1387 1.400 . S
C1391 C1390 1.385 . S
C1392 C1390 1.478 . S
C1392 C1394 1.381 . S
C1392 C1398 1.383 . S
C1393 C1389 1.495 . S
C1393 H1399 0.959 . S
C1393 H1400 0.961 . S
C1393 H1401 0.960 . S
C1394 C1392 1.381 . S
C1394 C1395 1.394 . S
C1394 H1402 0.930 . S
C1395 C1394 1.394 . S
C1395 C1396 1.383 . S
C1395 H1403 0.929 . S
C1396 C1395 1.383 . S
C1396 C1397 1.377 . S
C1397 H1381 0.905 1_556 S
C1397 C1396 1.377 . S
C1397 C1398 1.379 . S
C1398 H1382 0.931 . S
C1398 C1392 1.383 . S
C1398 C1397 1.379 . S
H1399 C1393 0.959 . S
H1400 C1393 0.961 . S
H1401 C1393 0.960 . S
H1402 C1394 0.930 . S
H1403 C1395 0.929 . S
H1404 C1412 0.929 1_556 S
H1405 C1414 0.930 . S
H1406 C1416 0.930 . S
H1407 C1419 0.929 . S
H1408 C1422 0.930 . S
H1409 C1424 0.960 . S
H1410 C1424 0.960 . S
H1411 C1424 0.960 . S
C1412 H1404 0.929 1_554 S
C1412 C1413 1.377 . S
C1412 C1414 1.384 . S
C1413 C1412 1.377 . S
C1413 C1419 1.390 . S
C1414 H1405 0.930 . S
C1414 C1412 1.384 . S
C1414 C1415 1.372 . S
C1415 C1414 1.372 . S
C1415 C1416 1.400 . S
C1415 C1420 1.490 . S
C1416 H1406 0.930 . S
C1416 C1415 1.400 . S
C1416 C1419 1.386 . S
H1417 C1433 0.930 . S
H1418 C1434 0.931 . S
C1419 H1407 0.929 . S
C1419 C1413 1.390 . S
C1419 C1416 1.386 . S
C1420 C1415 1.490 . S
C1420 C1422 1.395 . S
C1420 C1423 1.403 . S
H1421 C1427 0.930 . S
C1422 H1408 0.930 . S
C1422 C1420 1.395 . S
C1422 C1425 1.403 . S
C1423 C1420 1.403 . S
C1423 C1424 1.524 . S
C1423 C1427 1.400 . S
C1424 H1409 0.960 . S
C1424 H1410 0.960 . S
C1424 H1411 0.960 . S
C1424 C1423 1.524 . S
C1425 C1422 1.403 . S
C1425 C1426 1.392 . S
C1425 C1429 1.495 . S
C1426 C1425 1.392 . S
C1426 C1427 1.385 . S
C1426 C1428 1.478 . S
C1427 H1421 0.930 . S
C1427 C1423 1.400 . S
C1427 C1426 1.385 . S
C1428 C1426 1.478 . S
C1428 C1430 1.381 . S
C1428 C1434 1.383 . S
C1429 C1425 1.495 . S
C1429 H1435 0.959 . S
C1429 H1436 0.961 . S
C1429 H1437 0.960 . S
C1430 C1428 1.381 . S
C1430 C1431 1.394 . S
C1430 H1438 0.930 . S
C1431 C1430 1.394 . S
C1431 C1432 1.383 . S
C1431 H1439 0.929 . S
C1432 C1431 1.383 . S
C1432 C1433 1.377 . S
C1433 H1417 0.930 . S
C1433 C1432 1.377 . S
C1433 C1434 1.379 . S
C1434 H1418 0.931 . S
C1434 C1428 1.383 . S
C1434 C1433 1.379 . S
H1435 C1429 0.959 . S
H1436 C1429 0.961 . S
H1437 C1429 0.960 . S
H1438 C1430 0.930 . S
H1439 C1431 0.929 . S
H1440 C1448 0.929 . S
H1441 C1450 0.930 . S
H1442 C1452 0.930 . S
H1443 C1455 0.929 . S
H1444 C1458 0.930 . S
H1445 C1460 0.960 . S
H1446 C1460 0.960 . S
H1447 C1460 0.960 . S
C1448 H1440 0.929 . S
C1448 C1449 1.377 . S
C1448 C1450 1.384 . S
C1449 C1448 1.377 . S
C1449 C1455 1.390 . S
C1450 H1441 0.930 . S
C1450 C1448 1.384 . S
C1450 C1451 1.372 . S
C1451 C1450 1.372 . S
C1451 C1452 1.400 . S
C1451 C1456 1.490 . S
C1452 H1442 0.930 . S
C1452 C1451 1.400 . S
C1452 C1455 1.386 . S
H1453 C1469 0.930 . S
H1454 C1470 0.931 . S
C1455 H1443 0.929 . S
C1455 C1449 1.390 . S
C1455 C1452 1.386 . S
C1456 C1451 1.490 . S
C1456 C1458 1.395 . S
C1456 C1459 1.403 . S
H1457 C1463 0.930 . S
C1458 H1444 0.930 . S
C1458 C1456 1.395 . S
C1458 C1461 1.403 . S
C1459 C1456 1.403 . S
C1459 C1460 1.524 . S
C1459 C1463 1.400 . S
C1460 H1445 0.960 . S
C1460 H1446 0.960 . S
C1460 H1447 0.960 . S
C1460 C1459 1.524 . S
C1461 C1458 1.403 . S
C1461 C1462 1.392 . S
C1461 C1465 1.495 . S
C1462 C1461 1.392 . S
C1462 C1463 1.385 . S
C1462 C1464 1.478 . S
C1463 H1457 0.930 . S
C1463 C1459 1.400 . S
C1463 C1462 1.385 . S
C1464 C1462 1.478 . S
C1464 C1466 1.381 . S
C1464 C1470 1.383 . S
C1465 C1461 1.495 . S
C1465 H1471 0.959 . S
C1465 H1472 0.961 . S
C1465 H1473 0.960 . S
C1466 C1464 1.381 . S
C1466 C1467 1.394 . S
C1466 H1474 0.930 . S
C1467 C1466 1.394 . S
C1467 C1468 1.383 . S
C1467 H1475 0.929 . S
C1468 C1467 1.383 . S
C1468 C1469 1.377 . S
C1469 H1453 0.930 . S
C1469 C1468 1.377 . S
C1469 C1470 1.379 . S
C1470 H1454 0.931 . S
C1470 C1464 1.383 . S
C1470 C1469 1.379 . S
H1471 C1465 0.959 . S
H1472 C1465 0.961 . S
H1473 C1465 0.960 . S
H1474 C1466 0.930 . S
H1475 C1467 0.929 . S
H1476 C1484 0.929 . S
H1477 C1486 0.930 . S
H1478 C1488 0.930 . S
H1479 C1491 0.929 . S
H1480 C1494 0.930 . S
H1481 C1496 0.960 . S
H1482 C1496 0.960 . S
H1483 C1496 0.960 . S
C1484 H1476 0.929 . S
C1484 C1485 1.377 . S
C1484 C1486 1.384 . S
C1485 C1484 1.377 . S
C1485 C1491 1.390 . S
C1486 H1477 0.930 . S
C1486 C1484 1.384 . S
C1486 C1487 1.372 . S
C1487 C1486 1.372 . S
C1487 C1488 1.400 . S
C1487 C1492 1.490 . S
C1488 H1478 0.930 . S
C1488 C1487 1.400 . S
C1488 C1491 1.386 . S
H1489 C1505 0.930 . S
H1490 C1506 0.931 . S
C1491 H1479 0.929 . S
C1491 C1485 1.390 . S
C1491 C1488 1.386 . S
C1492 C1487 1.490 . S
C1492 C1494 1.395 . S
C1492 C1495 1.403 . S
H1493 C1499 0.930 . S
C1494 H1480 0.930 . S
C1494 C1492 1.395 . S
C1494 C1497 1.403 . S
C1495 C1492 1.403 . S
C1495 C1496 1.524 . S
C1495 C1499 1.400 . S
C1496 H1481 0.960 . S
C1496 H1482 0.960 . S
C1496 H1483 0.960 . S
C1496 C1495 1.524 . S
C1497 C1494 1.403 . S
C1497 C1498 1.392 . S
C1497 C1501 1.495 . S
C1498 C1497 1.392 . S
C1498 C1499 1.385 . S
C1498 C1500 1.478 . S
C1499 H1493 0.930 . S
C1499 C1495 1.400 . S
C1499 C1498 1.385 . S
C1500 C1498 1.478 . S
C1500 C1502 1.381 . S
C1500 C1506 1.383 . S
C1501 C1497 1.495 . S
C1501 H1507 0.959 . S
C1501 H1508 0.961 . S
C1501 H1509 0.960 . S
C1502 C1500 1.381 . S
C1502 C1503 1.394 . S
C1502 H1510 0.930 . S
C1503 C1502 1.394 . S
C1503 C1504 1.383 . S
C1503 H1511 0.929 . S
C1504 C1503 1.383 . S
C1504 C1505 1.377 . S
C1505 H1489 0.930 . S
C1505 C1504 1.377 . S
C1505 C1506 1.379 . S
C1506 H1490 0.931 . S
C1506 C1500 1.383 . S
C1506 C1505 1.379 . S
H1507 C1501 0.959 . S
H1508 C1501 0.961 . S
H1509 C1501 0.960 . S
H1510 C1502 0.930 . S
H1511 C1503 0.929 . S
H1512 C1520 0.929 . S
H1513 C1522 0.930 . S
H1514 C1524 0.930 . S
H1515 C1527 0.929 . S
H1516 C1530 0.930 . S
H1517 C1532 0.960 . S
H1518 C1532 0.960 . S
H1519 C1532 0.960 . S
C1520 H1512 0.929 . S
C1520 C1521 1.377 . S
C1520 C1522 1.384 . S
C1521 C1520 1.377 . S
C1521 C1527 1.390 . S
C1522 H1513 0.930 . S
C1522 C1520 1.384 . S
C1522 C1523 1.372 . S
C1523 C1522 1.372 . S
C1523 C1524 1.400 . S
C1523 C1528 1.490 . S
C1524 H1514 0.930 . S
C1524 C1523 1.400 . S
C1524 C1527 1.386 . S
H1525 C1541 0.930 . S
H1526 C1542 0.931 . S
C1527 H1515 0.929 . S
C1527 C1521 1.390 . S
C1527 C1524 1.386 . S
C1528 C1523 1.490 . S
C1528 C1530 1.395 . S
C1528 C1531 1.403 . S
H1529 C1535 0.930 . S
C1530 H1516 0.930 . S
C1530 C1528 1.395 . S
C1530 C1533 1.403 . S
C1531 C1528 1.403 . S
C1531 C1532 1.524 . S
C1531 C1535 1.400 . S
C1532 H1517 0.960 . S
C1532 H1518 0.960 . S
C1532 H1519 0.960 . S
C1532 C1531 1.524 . S
C1533 C1530 1.403 . S
C1533 C1534 1.392 . S
C1533 C1537 1.495 . S
C1534 C1533 1.392 . S
C1534 C1535 1.385 . S
C1534 C1536 1.478 . S
C1535 H1529 0.930 . S
C1535 C1531 1.400 . S
C1535 C1534 1.385 . S
C1536 C1534 1.478 . S
C1536 C1538 1.381 . S
C1536 C1542 1.383 . S
C1537 C1533 1.495 . S
C1537 H1543 0.959 . S
C1537 H1544 0.961 . S
C1537 H1545 0.960 . S
C1538 C1536 1.381 . S
C1538 C1539 1.394 . S
C1538 H1546 0.930 . S
C1539 C1538 1.394 . S
C1539 C1540 1.383 . S
C1539 H1547 0.929 . S
C1540 C1539 1.383 . S
C1540 C1541 1.377 . S
C1541 H1525 0.930 . S
C1541 C1540 1.377 . S
C1541 C1542 1.379 . S
C1542 H1526 0.931 . S
C1542 C1536 1.383 . S
C1542 C1541 1.379 . S
H1543 C1537 0.959 . S
H1544 C1537 0.961 . S
H1545 C1537 0.960 . S
H1546 C1538 0.930 . S
H1547 C1539 0.929 . S
C261 C15 0.860 . S
C280 C183 0.916 . S
C297 C36 0.864 . S
C316 C204 0.900 . S
C333 C57 0.835 . S
C352 C225 0.801 . S
C369 C246 0.845 . S
C388 C78 0.784 . S
C405 C99 0.839 . S
C424 C141 0.786 . S
C441 C162 0.863 . S
C460 C120 0.891 . S
C477 C227 1.490 . S
C496 C17 1.444 . S
C513 C248 1.485 . S
C532 C38 1.443 . S
C549 C59 1.481 . S
C568 C143 1.452 . S
C585 C164 1.496 . S
C604 C80 1.474 . S
C621 C185 1.488 . S
C640 C101 1.443 . S
C657 C122 1.480 . S
C676 C206 1.498 . S
C693 C163 1.178 . S
C712 C16 1.186 . S
C729 C184 1.198 . S
C748 C37 1.141 . S
C765 C205 1.197 . S
C784 C58 1.155 . S
C801 C79 1.176 . S
C820 C226 1.235 . S
C837 C100 1.197 . S
C856 C247 1.134 . S
C873 C121 1.180 . S
C892 C142 1.175 . S
C909 C18 1.451 . S
C928 C81 1.435 . S
C945 C39 1.445 . S
C964 C102 1.467 . S
C981 C60 1.461 . S
C1000 C123 1.482 . S
C1017 C207 1.457 . S
C1036 C144 1.495 . S
C1053 C165 1.446 . S
C1072 C228 1.508 . S
C1089 C249 1.447 . S
C1108 C186 1.510 . S
C1125 C160 1.090 . S
C1144 C13 1.126 . S
C1161 C181 1.091 . S
C1180 C34 1.114 . S
C1197 C55 1.103 . S
C1216 C202 1.062 . S
C1233 C223 1.093 . S
C1252 C76 1.126 . S
C1269 C244 1.094 . S
C1288 C97 1.125 . S
C1305 C118 1.092 . S
C1324 C139 1.103 . S
C1341 C14 1.363 . S
C1360 C224 1.371 . S
C1377 C35 1.361 . S
C1396 C245 1.348 1_556 S
C1413 C56 1.361 1_554 S
C1432 C140 1.348 . S
C1449 C77 1.363 . S
C1468 C161 1.369 . S
C1485 C98 1.363 . S
C1504 C182 1.369 1_556 S
C1521 C203 1.359 . S
C1540 C119 1.341 1_554 S
