# Generated by pormake.
# Topology sod-e, (6)-cn, num edge types: 1
# Building blocks:
#     Node 0, Type 0, BuildingBlock: OJICUG_clean_sbu_0, # of connection points: 6
#     Node 1, Type 0, BuildingBlock: OJICUG_clean_sbu_0, # of connection points: 6
#     Node 2, Type 0, BuildingBlock: OJICUG_clean_sbu_0, # of connection points: 6
#     Node 3, Type 0, BuildingBlock: OJICUG_clean_sbu_0, # of connection points: 6
#     Node 4, Type 0, BuildingBlock: OJICUG_clean_sbu_0, # of connection points: 6
#     Node 5, Type 0, BuildingBlock: OJICUG_clean_sbu_0, # of connection points: 6
#     Node 6, Type 0, BuildingBlock: OJICUG_clean_sbu_0, # of connection points: 6
#     Node 7, Type 0, BuildingBlock: OJICUG_clean_sbu_0, # of connection points: 6
#     Node 8, Type 0, BuildingBlock: OJICUG_clean_sbu_0, # of connection points: 6
#     Node 9, Type 0, BuildingBlock: OJICUG_clean_sbu_0, # of connection points: 6
#     Node 10, Type 0, BuildingBlock: OJICUG_clean_sbu_0, # of connection points: 6
#     Node 11, Type 0, BuildingBlock: OJICUG_clean_sbu_0, # of connection points: 6
#     Node 12, Type 0, BuildingBlock: OJICUG_clean_sbu_0, # of connection points: 6
#     Node 13, Type 0, BuildingBlock: OJICUG_clean_sbu_0, # of connection points: 6
#     Node 14, Type 0, BuildingBlock: OJICUG_clean_sbu_0, # of connection points: 6
#     Node 15, Type 0, BuildingBlock: OJICUG_clean_sbu_0, # of connection points: 6
#     Node 16, Type 0, BuildingBlock: OJICUG_clean_sbu_0, # of connection points: 6
#     Node 17, Type 0, BuildingBlock: OJICUG_clean_sbu_0, # of connection points: 6
#     Node 18, Type 0, BuildingBlock: OJICUG_clean_sbu_0, # of connection points: 6
#     Node 19, Type 0, BuildingBlock: OJICUG_clean_sbu_0, # of connection points: 6
#     Node 20, Type 0, BuildingBlock: OJICUG_clean_sbu_0, # of connection points: 6
#     Node 21, Type 0, BuildingBlock: OJICUG_clean_sbu_0, # of connection points: 6
#     Node 22, Type 0, BuildingBlock: OJICUG_clean_sbu_0, # of connection points: 6
#     Node 23, Type 0, BuildingBlock: OJICUG_clean_sbu_0, # of connection points: 6
#     Edge 24, Type (0, 0), BuildingBlock: XUDNAN_clean_linker_2, # of connection points: 2
#     Edge 25, Type (0, 0), BuildingBlock: XUDNAN_clean_linker_2, # of connection points: 2
#     Edge 26, Type (0, 0), BuildingBlock: XUDNAN_clean_linker_2, # of connection points: 2
#     Edge 27, Type (0, 0), BuildingBlock: XUDNAN_clean_linker_2, # of connection points: 2
#     Edge 28, Type (0, 0), BuildingBlock: XUDNAN_clean_linker_2, # of connection points: 2
#     Edge 29, Type (0, 0), BuildingBlock: XUDNAN_clean_linker_2, # of connection points: 2
#     Edge 30, Type (0, 0), BuildingBlock: XUDNAN_clean_linker_2, # of connection points: 2
#     Edge 31, Type (0, 0), BuildingBlock: XUDNAN_clean_linker_2, # of connection points: 2
#     Edge 32, Type (0, 0), BuildingBlock: XUDNAN_clean_linker_2, # of connection points: 2
#     Edge 33, Type (0, 0), BuildingBlock: XUDNAN_clean_linker_2, # of connection points: 2
#     Edge 34, Type (0, 0), BuildingBlock: XUDNAN_clean_linker_2, # of connection points: 2
#     Edge 35, Type (0, 0), BuildingBlock: XUDNAN_clean_linker_2, # of connection points: 2
#     Edge 36, Type (0, 0), BuildingBlock: XUDNAN_clean_linker_2, # of connection points: 2
#     Edge 37, Type (0, 0), BuildingBlock: XUDNAN_clean_linker_2, # of connection points: 2
#     Edge 38, Type (0, 0), BuildingBlock: XUDNAN_clean_linker_2, # of connection points: 2
#     Edge 39, Type (0, 0), BuildingBlock: XUDNAN_clean_linker_2, # of connection points: 2
#     Edge 40, Type (0, 0), BuildingBlock: XUDNAN_clean_linker_2, # of connection points: 2
#     Edge 41, Type (0, 0), BuildingBlock: XUDNAN_clean_linker_2, # of connection points: 2
#     Edge 42, Type (0, 0), BuildingBlock: XUDNAN_clean_linker_2, # of connection points: 2
#     Edge 43, Type (0, 0), BuildingBlock: XUDNAN_clean_linker_2, # of connection points: 2
#     Edge 44, Type (0, 0), BuildingBlock: XUDNAN_clean_linker_2, # of connection points: 2
#     Edge 45, Type (0, 0), BuildingBlock: XUDNAN_clean_linker_2, # of connection points: 2
#     Edge 46, Type (0, 0), BuildingBlock: XUDNAN_clean_linker_2, # of connection points: 2
#     Edge 47, Type (0, 0), BuildingBlock: XUDNAN_clean_linker_2, # of connection points: 2
#     Edge 48, Type (0, 0), BuildingBlock: XUDNAN_clean_linker_2, # of connection points: 2
#     Edge 49, Type (0, 0), BuildingBlock: XUDNAN_clean_linker_2, # of connection points: 2
#     Edge 50, Type (0, 0), BuildingBlock: XUDNAN_clean_linker_2, # of connection points: 2
#     Edge 51, Type (0, 0), BuildingBlock: XUDNAN_clean_linker_2, # of connection points: 2
#     Edge 52, Type (0, 0), BuildingBlock: XUDNAN_clean_linker_2, # of connection points: 2
#     Edge 53, Type (0, 0), BuildingBlock: XUDNAN_clean_linker_2, # of connection points: 2
#     Edge 54, Type (0, 0), BuildingBlock: XUDNAN_clean_linker_2, # of connection points: 2
#     Edge 55, Type (0, 0), BuildingBlock: XUDNAN_clean_linker_2, # of connection points: 2
#     Edge 56, Type (0, 0), BuildingBlock: XUDNAN_clean_linker_2, # of connection points: 2
#     Edge 57, Type (0, 0), BuildingBlock: XUDNAN_clean_linker_2, # of connection points: 2
#     Edge 58, Type (0, 0), BuildingBlock: XUDNAN_clean_linker_2, # of connection points: 2
#     Edge 59, Type (0, 0), BuildingBlock: XUDNAN_clean_linker_2, # of connection points: 2
#     Edge 60, Type (0, 0), BuildingBlock: XUDNAN_clean_linker_2, # of connection points: 2
#     Edge 61, Type (0, 0), BuildingBlock: XUDNAN_clean_linker_2, # of connection points: 2
#     Edge 62, Type (0, 0), BuildingBlock: XUDNAN_clean_linker_2, # of connection points: 2
#     Edge 63, Type (0, 0), BuildingBlock: XUDNAN_clean_linker_2, # of connection points: 2
#     Edge 64, Type (0, 0), BuildingBlock: XUDNAN_clean_linker_2, # of connection points: 2
#     Edge 65, Type (0, 0), BuildingBlock: XUDNAN_clean_linker_2, # of connection points: 2
#     Edge 66, Type (0, 0), BuildingBlock: XUDNAN_clean_linker_2, # of connection points: 2
#     Edge 67, Type (0, 0), BuildingBlock: XUDNAN_clean_linker_2, # of connection points: 2
#     Edge 68, Type (0, 0), BuildingBlock: XUDNAN_clean_linker_2, # of connection points: 2
#     Edge 69, Type (0, 0), BuildingBlock: XUDNAN_clean_linker_2, # of connection points: 2
#     Edge 70, Type (0, 0), BuildingBlock: XUDNAN_clean_linker_2, # of connection points: 2
#     Edge 71, Type (0, 0), BuildingBlock: XUDNAN_clean_linker_2, # of connection points: 2
#     Edge 72, Type (0, 0), BuildingBlock: XUDNAN_clean_linker_2, # of connection points: 2
#     Edge 73, Type (0, 0), BuildingBlock: XUDNAN_clean_linker_2, # of connection points: 2
#     Edge 74, Type (0, 0), BuildingBlock: XUDNAN_clean_linker_2, # of connection points: 2
#     Edge 75, Type (0, 0), BuildingBlock: XUDNAN_clean_linker_2, # of connection points: 2
#     Edge 76, Type (0, 0), BuildingBlock: XUDNAN_clean_linker_2, # of connection points: 2
#     Edge 77, Type (0, 0), BuildingBlock: XUDNAN_clean_linker_2, # of connection points: 2
#     Edge 78, Type (0, 0), BuildingBlock: XUDNAN_clean_linker_2, # of connection points: 2
#     Edge 79, Type (0, 0), BuildingBlock: XUDNAN_clean_linker_2, # of connection points: 2
#     Edge 80, Type (0, 0), BuildingBlock: XUDNAN_clean_linker_2, # of connection points: 2
#     Edge 81, Type (0, 0), BuildingBlock: XUDNAN_clean_linker_2, # of connection points: 2
#     Edge 82, Type (0, 0), BuildingBlock: XUDNAN_clean_linker_2, # of connection points: 2
#     Edge 83, Type (0, 0), BuildingBlock: XUDNAN_clean_linker_2, # of connection points: 2
#     Edge 84, Type (0, 0), BuildingBlock: XUDNAN_clean_linker_2, # of connection points: 2
#     Edge 85, Type (0, 0), BuildingBlock: XUDNAN_clean_linker_2, # of connection points: 2
#     Edge 86, Type (0, 0), BuildingBlock: XUDNAN_clean_linker_2, # of connection points: 2
#     Edge 87, Type (0, 0), BuildingBlock: XUDNAN_clean_linker_2, # of connection points: 2
#     Edge 88, Type (0, 0), BuildingBlock: XUDNAN_clean_linker_2, # of connection points: 2
#     Edge 89, Type (0, 0), BuildingBlock: XUDNAN_clean_linker_2, # of connection points: 2
#     Edge 90, Type (0, 0), BuildingBlock: XUDNAN_clean_linker_2, # of connection points: 2
#     Edge 91, Type (0, 0), BuildingBlock: XUDNAN_clean_linker_2, # of connection points: 2
#     Edge 92, Type (0, 0), BuildingBlock: XUDNAN_clean_linker_2, # of connection points: 2
#     Edge 93, Type (0, 0), BuildingBlock: XUDNAN_clean_linker_2, # of connection points: 2
#     Edge 94, Type (0, 0), BuildingBlock: XUDNAN_clean_linker_2, # of connection points: 2
#     Edge 95, Type (0, 0), BuildingBlock: XUDNAN_clean_linker_2, # of connection points: 2
# Relax obj value: 0.275
# Max RMSD: 0.220
# Mean RMSD: 0.220
data_MOF--net-sod-e--node1-OJICUG_clean_sbu_0--edge1-XUDNAN_clean_linker_2
_symmetry_space_group_name_H-M    P1
_symmetry_Int_Tables_number       1
_symmetry_cell_setting            triclinic
loop_
_symmetry_equiv_pos_as_xyz
'x, y, z'
_cell_length_a     51.393525
_cell_length_b     51.364189
_cell_length_c     51.319211
_cell_angle_alpha  90.308039
_cell_angle_beta   90.125302
_cell_angle_gamma 89.908698
loop_
_atom_site_label
_atom_site_type_symbol
_atom_site_fract_x
_atom_site_fract_y
_atom_site_fract_z
_atom_type_partial_charge
Sc0 Sc 0.07848 0.32669 0.33026 0.0
Sc1 Sc 0.12428 0.36718 0.36259 0.0
Sc2 Sc 0.0587 0.37705 0.37096 0.0
O3 O 0.08731 0.35667 0.35427 0.0
C4 C 0.02951 0.36049 0.31859 0.0
C5 C 0.12519 0.35614 0.30161 0.0
C6 C 0.09463 0.42106 0.35325 0.0
C7 C 0.12872 0.30558 0.36023 0.0
C8 C 0.0406 0.32036 0.38012 0.0
C9 C 0.09938 0.37669 0.41637 0.0
O10 O 0.04798 0.34703 0.30911 0.0
O11 O 0.13344 0.36773 0.32201 0.0
O12 O 0.07215 0.41087 0.35172 0.0
O13 O 0.10741 0.30188 0.34811 0.0
O14 O 0.04532 0.34281 0.38964 0.0
O15 O 0.11753 0.3656 0.40392 0.0
O16 O 0.04962 0.31245 0.35814 0.0
O17 O 0.1375 0.32796 0.3658 0.0
O18 O 0.08033 0.3874 0.40507 0.0
O19 O 0.10599 0.34037 0.30133 0.0
O20 O 0.03076 0.37063 0.34101 0.0
O21 O 0.11473 0.40849 0.36073 0.0
Sc22 Sc 0.6784 0.04838 0.28134 0.0
Sc23 Sc 0.65484 0.00321 0.32501 0.0
Sc24 Sc 0.62668 0.06399 0.32258 0.0
O25 O 0.65336 0.03909 0.31006 0.0
C26 C 0.67955 0.09754 0.31795 0.0
C27 C 0.71203 0.01377 0.32135 0.0
C28 C 0.63486 0.03508 0.37436 0.0
C29 C 0.65946 0.99394 0.26709 0.0
C30 C 0.62777 0.07881 0.26371 0.0
C31 C 0.59582 0.00987 0.31438 0.0
O32 O 0.69201 0.08102 0.30397 0.0
O33 O 0.69336 0.01164 0.33737 0.0
O34 O 0.63466 0.05658 0.36249 0.0
O35 O 0.66187 0.017 0.25873 0.0
O36 O 0.61561 0.07373 0.28438 0.0
O37 O 0.61612 -0.00422 0.31242 0.0
O38 O 0.65175 0.07379 0.26038 0.0
O39 O 0.66967 0.98801 0.28873 0.0
O40 O 0.5965 0.034 0.3209 0.0
O41 O 0.70872 0.02334 0.29857 0.0
O42 O 0.6556 0.09483 0.32426 0.0
O43 O 0.63996 0.01366 0.36302 0.0
Sc44 Sc 0.00503 0.66798 0.30681 0.0
Sc45 Sc 0.97491 0.6188 0.34081 0.0
Sc46 Sc 0.02441 0.65443 0.36949 0.0
O47 O 0.00115 0.64697 0.3394 0.0
C48 C 0.06108 0.65312 0.3201 0.0
C49 C 0.98453 0.61445 0.28309 0.0
C50 C 0.02557 0.59351 0.36651 0.0
C51 C 0.94607 0.66939 0.31808 0.0
C52 C 0.01973 0.70927 0.35071 0.0
C53 C 0.97097 0.64043 0.39796 0.0
O54 O 0.043 0.65137 0.30308 0.0
O55 O 0.98828 0.60351 0.30465 0.0
O56 O 0.03692 0.61493 0.37138 0.0
O57 O 0.96677 0.6823 0.31333 0.0
O58 O 0.01214 0.69393 0.36829 0.0
O59 O 0.96028 0.63082 0.37783 0.0
O60 O 0.02228 0.70142 0.32726 0.0
O61 O 0.94609 0.64502 0.32352 0.0
O62 O 0.9945 0.64813 0.39827 0.0
O63 O 0.98753 0.6389 0.28088 0.0
O64 O 0.05725 0.66104 0.34342 0.0
O65 O 0.00231 0.59194 0.35792 0.0
Sc66 Sc 0.37801 0.91104 0.36126 0.0
Sc67 Sc 0.37382 0.9784 0.371 0.0
Sc68 Sc 0.31878 0.94398 0.34856 0.0
O69 O 0.3568 0.94445 0.36018 0.0
C70 C 0.34724 0.9069 0.3075 0.0
C71 C 0.42099 0.95092 0.34181 0.0
C72 C 0.34079 -0.00437 0.32162 0.0
C73 C 0.39132 0.93859 0.41534 0.0
C74 C 0.32279 0.891 0.38059 0.0
C75 C 0.31733 0.98432 0.39567 0.0
O76 O 0.3662 0.90147 0.32247 0.0
O77 O 0.40937 0.97068 0.35094 0.0
O78 O 0.32358 0.97813 0.32471 0.0
O79 O 0.39043 0.91864 0.40056 0.0
O80 O 0.30973 0.90961 0.37081 0.0
O81 O 0.34082 0.99077 0.39238 0.0
O82 O 0.34724 0.88906 0.37831 0.0
O83 O 0.38707 0.96157 0.40714 0.0
O84 O 0.30597 0.96705 0.38185 0.0
O85 O 0.41223 0.92802 0.3443 0.0
O86 O 0.32823 0.92143 0.31403 0.0
O87 O 0.36068 -0.00224 0.33629 0.0
Sc88 Sc 0.94387 0.62927 0.63163 0.0
Sc89 Sc 0.87687 0.6322 0.62687 0.0
Sc90 Sc 0.91001 0.67506 0.66735 0.0
O91 O 0.91036 0.64569 0.64183 0.0
C92 C 0.95527 0.63825 0.68994 0.0
C93 C 0.90623 0.58151 0.63969 0.0
C94 C 0.86319 0.64151 0.68519 0.0
C95 C 0.91511 0.62988 0.57868 0.0
C96 C 0.95762 0.68959 0.63324 0.0
C97 C 0.86897 0.69168 0.6238 0.0
O98 O 0.95423 0.62207 0.67121 0.0
O99 O 0.88531 0.59439 0.64261 0.0
O100 O 0.88456 0.65235 0.69146 0.0
O101 O 0.93507 0.6361 0.59184 0.0
O102 O 0.93624 0.69697 0.64339 0.0
O103 O 0.86887 0.66994 0.61186 0.0
O104 O 0.96446 0.6658 0.6318 0.0
O105 O 0.89397 0.6226 0.58928 0.0
O106 O 0.87811 0.69438 0.64686 0.0
O107 O 0.92694 0.59105 0.63021 0.0
O108 O 0.94268 0.6597 0.68985 0.0
O109 O 0.85511 0.64093 0.6618 0.0
Sc110 Sc 0.3561 0.9214 0.65452 0.0
Sc111 Sc 0.33138 0.9834 0.64322 0.0
Sc112 Sc 0.31375 0.95097 0.69902 0.0
O113 O 0.33358 0.95129 0.66525 0.0
C114 C 0.30161 0.8963 0.6731 0.0
C115 C 0.34137 0.94072 0.59873 0.0
C116 C 0.27518 0.98007 0.65901 0.0
C117 C 0.39103 0.97294 0.64771 0.0
C118 C 0.36424 0.91875 0.71545 0.0
C119 C 0.33712 0.00594 0.69869 0.0
O120 O 0.32377 0.89482 0.66165 0.0
O121 O 0.33778 0.96403 0.60624 0.0
O122 O 0.28215 0.97458 0.6823 0.0
O123 O 0.38866 0.94806 0.64778 0.0
O124 O 0.34232 0.92885 0.72085 0.0
O125 O 0.32586 0.00876 0.67684 0.0
O126 O 0.37215 0.9161 0.69232 0.0
O127 O 0.37185 0.98855 0.64713 0.0
O128 O 0.33555 0.98461 0.71088 0.0
O129 O 0.34427 0.92219 0.6146 0.0
O130 O 0.29436 0.9159 0.68678 0.0
O131 O 0.29062 0.9776 0.63987 0.0
Sc132 Sc 0.01024 0.324 0.67591 0.0
Sc133 Sc 0.04299 0.38137 0.65696 0.0
Sc134 Sc 0.98571 0.36302 0.62516 0.0
O135 O 0.01297 0.35602 0.65274 0.0
C136 C 0.98699 0.30157 0.62216 0.0
C137 C 0.06989 0.3251 0.65888 0.0
C138 C 0.03757 0.37819 0.59538 0.0
C139 C 0.03325 0.36613 0.71571 0.0
C140 C 0.95244 0.34624 0.67515 0.0
C141 C -0.0042 0.41979 0.64801 0.0
O142 O -0.00406 0.29831 0.64506 0.0
O143 O 0.07072 0.34973 0.65606 0.0
O144 O 0.01448 0.36932 0.59538 0.0
O145 O 0.02341 0.34388 0.71118 0.0
O146 O 0.95478 0.35686 0.65286 0.0
O147 O 0.01764 0.41489 0.65854 0.0
O148 O 0.97092 0.33407 0.68644 0.0
O149 O 0.04051 0.38136 0.69797 0.0
O150 O 0.98339 0.40335 0.63438 0.0
O151 O 0.04943 0.31295 0.66587 0.0
O152 O 0.9839 0.32388 0.61238 0.0
O153 O 0.04942 0.38479 0.61604 0.0
Sc154 Sc 0.614 0.05593 0.60502 0.0
Sc155 Sc 0.61671 0.98817 0.60732 0.0
Sc156 Sc 0.67003 0.02482 0.62948 0.0
O157 O 0.6337 0.02299 0.61404 0.0
C158 C 0.67027 0.06915 0.58547 0.0
C159 C 0.59879 0.01864 0.55772 0.0
C160 C 0.67533 0.97651 0.59109 0.0
C161 C 0.57 0.02224 0.62999 0.0
C162 C 0.64357 0.0731 0.65698 0.0
C163 C 0.64369 0.97855 0.66167 0.0
O164 O 0.64575 0.0702 0.58242 0.0
O165 O 0.60759 -0.00204 0.56786 0.0
O166 O 0.68534 -0.00346 0.60184 0.0
O167 O 0.58086 0.04427 0.62742 0.0
O168 O 0.65856 0.05343 0.65863 0.0
O169 O 0.62503 0.97524 0.64577 0.0
O170 O 0.62802 0.07667 0.63816 0.0
O171 O 0.5798 0.00123 0.62133 0.0
O172 O 0.66205 0.99474 0.65784 0.0
O173 O 0.59746 0.04011 0.56998 0.0
O174 O 0.68136 0.05499 0.60256 0.0
O175 O 0.65143 0.97091 0.59296 0.0
Sc176 Sc 0.3483 0.36768 0.95368 0.0
Sc177 Sc 0.32561 0.36202 0.01774 0.0
Sc178 Sc 0.2891 0.33496 0.96621 0.0
O179 O 0.32111 0.35453 0.97916 0.0
C180 C 0.29626 0.37715 0.92129 0.0
C181 C 0.33942 0.41619 0.99139 0.0
C182 C 0.26499 0.37215 0.0098 0.0
C183 C 0.38412 0.35205 0.00229 0.0
C184 C 0.33601 0.31079 0.93217 0.0
C185 C 0.30336 0.30459 0.01882 0.0
O186 O 0.32043 0.37982 0.92524 0.0
O187 O 0.33398 0.40215 0.01091 0.0
O188 O 0.26218 0.35889 0.98894 0.0
O189 O 0.38075 0.35805 0.97854 0.0
O190 O 0.31299 0.31019 0.94151 0.0
O191 O 0.31636 0.32324 0.02846 0.0
O192 O 0.35151 0.32985 0.9357 0.0
O193 O 0.36571 0.35153 0.01859 0.0
O194 O 0.29229 0.30549 -0.00342 0.0
O195 O 0.34545 0.40672 0.96924 0.0
O196 O 0.28216 0.36214 0.93491 0.0
O197 O 0.28645 0.3737 0.0218 0.0
Sc198 Sc 0.32731 0.70649 0.97724 0.0
Sc199 Sc 0.34757 0.64809 0.94599 0.0
Sc200 Sc 0.34359 0.65097 0.0139 0.0
O201 O 0.33938 0.66855 0.97905 0.0
C202 C 0.36319 0.70761 0.02834 0.0
C203 C 0.37161 0.70411 0.93427 0.0
C204 C 0.39362 0.6313 0.98338 0.0
C205 C 0.29766 0.67953 0.92873 0.0
C206 C 0.29058 0.68295 0.02025 0.0
C207 C 0.32183 0.60367 0.98044 0.0
O208 O 0.35055 0.71936 0.01057 0.0
O209 O 0.36758 0.6803 0.92894 0.0
O210 O 0.38124 0.63572 0.00433 0.0
O211 O 0.30153 0.6986 0.94429 0.0
O212 O 0.30658 0.66511 0.02636 0.0
O213 O 0.32929 0.61259 0.95868 0.0
O214 O 0.29449 0.69956 0.00242 0.0
O215 O 0.31194 0.65937 0.92828 0.0
O216 O 0.32474 0.61598 0.00169 0.0
O217 O 0.35964 0.71636 0.95227 0.0
O218 O 0.36319 0.68316 0.03089 0.0
O219 O 0.38418 0.63507 0.96084 0.0
Sc220 Sc 0.64926 0.28617 0.02876 0.0
Sc221 Sc 0.62503 0.33999 0.06255 0.0
Sc222 Sc 0.61575 0.33394 -0.00358 0.0
O223 O 0.63073 0.32045 0.02939 0.0
C224 C 0.67032 0.31003 0.9788 0.0
C225 C 0.6809 0.31901 0.07187 0.0
C226 C 0.63881 0.3839 0.02046 0.0
C227 C 0.61192 0.28178 0.07687 0.0
C228 C 0.60398 0.27794 0.98641 0.0
C229 C 0.5713 0.34858 0.03601 0.0
O230 O 0.67679 0.30111 0.00101 0.0
O231 O 0.66538 0.33825 0.07152 0.0
O232 O 0.63738 0.36892 0.00073 0.0
O233 O 0.62066 0.27163 0.05586 0.0
O234 O 0.59345 0.29933 0.99252 0.0
O235 O 0.58389 0.34181 0.05611 0.0
O236 O 0.62608 0.27136 -0.00425 0.0
O237 O 0.6177 0.30482 0.08415 0.0
O238 O 0.58218 0.35163 0.01408 0.0
O239 O 0.67611 0.29754 0.0601 0.0
O240 O 0.64739 0.31796 0.97365 0.0
O241 O 0.63181 0.37704 0.04332 0.0
Sc242 Sc 0.62129 0.6134 0.04857 0.0
Sc243 Sc 0.63839 0.62825 0.98638 0.0
Sc244 Sc 0.67932 0.64663 0.03567 0.0
O245 O 0.64595 0.63008 0.02435 0.0
C246 C 0.63957 0.66485 0.07939 0.0
C247 C 0.58121 0.6269 0.00777 0.0
C248 C 0.65173 0.68473 0.99298 0.0
C249 C 0.63294 0.57186 0.00387 0.0
C250 C 0.67525 0.59705 0.07325 0.0
C251 C 0.6957 0.62162 0.9841 0.0
O252 O 0.62468 0.64523 0.07595 0.0
O253 O 0.59767 0.62132 0.99034 0.0
O254 O 0.67184 0.67835 0.00676 0.0
O255 O 0.61848 0.57987 0.02261 0.0
O256 O 0.688 0.61659 0.06471 0.0
O257 O 0.67772 0.63604 0.97608 0.0
O258 O 0.65152 0.59318 0.06786 0.0
O259 O 0.64457 0.58724 0.98834 0.0
O260 O 0.70067 0.62161 0.00828 0.0
O261 O 0.58809 0.63187 0.03099 0.0
O262 O 0.65931 0.6697 0.06507 0.0
O263 O 0.63329 0.66887 0.98804 0.0
Sc264 Sc 0.55891 0.83142 0.83179 0.0
Sc265 Sc 0.5999 0.86721 0.87296 0.0
Sc266 Sc 0.53406 0.86176 0.88675 0.0
O267 O 0.56408 0.85405 0.8634 0.0
C268 C 0.50918 0.86637 0.82937 0.0
C269 C 0.60091 0.87434 0.81362 0.0
C270 C 0.563 0.91505 0.88647 0.0
C271 C 0.60995 0.80986 0.85767 0.0
C272 C 0.51993 0.80491 0.87239 0.0
C273 C 0.5791 0.84785 0.92632 0.0
O274 O 0.52828 0.85655 0.81669 0.0
O275 O 0.60393 0.88452 0.83597 0.0
O276 O 0.54212 0.90212 0.88469 0.0
O277 O 0.58737 0.80521 0.8485 0.0
O278 O 0.52379 0.82186 0.88999 0.0
O279 O 0.59778 0.84902 0.91029 0.0
O280 O 0.52925 0.80707 0.84952 0.0
O281 O 0.61908 0.83274 0.85855 0.0
O282 O 0.55649 0.85667 0.92155 0.0
O283 O 0.58769 0.85361 0.8096 0.0
O284 O 0.50844 0.86696 0.85416 0.0
O285 O 0.58537 0.90436 0.88708 0.0
Sc286 Sc 0.14586 0.54389 0.81722 0.0
Sc287 Sc 0.13456 0.50965 0.87336 0.0
Sc288 Sc 0.10257 0.56861 0.86383 0.0
O289 O 0.12739 0.5411 0.85164 0.0
C290 C 0.15458 0.5982 0.84506 0.0
C291 C 0.18803 0.51437 0.85229 0.0
C292 C 0.1263 0.55169 0.91798 0.0
C293 C 0.12686 0.48714 0.81704 0.0
C294 C 0.0934 0.5742 0.80379 0.0
C295 C 0.07334 0.51447 0.87293 0.0
O296 O 0.16371 0.57932 0.83135 0.0
O297 O 0.17478 0.51863 0.87253 0.0
O298 O 0.11552 0.56839 0.90351 0.0
O299 O 0.12583 0.50889 0.80517 0.0
O300 O 0.08481 0.57342 0.82675 0.0
O301 O 0.09401 0.50086 0.87442 0.0
O302 O 0.11615 0.56682 0.79772 0.0
O303 O 0.13744 0.48478 0.83932 0.0
O304 O 0.07325 0.5393 0.871 0.0
O305 O 0.17915 0.52009 0.82984 0.0
O306 O 0.13207 0.59786 0.85588 0.0
O307 O 0.13332 0.52946 0.90999 0.0
Sc308 Sc 0.48442 0.1797 0.79627 0.0
Sc309 Sc 0.45981 0.12741 0.83415 0.0
Sc310 Sc 0.52362 0.1492 0.84346 0.0
O311 O 0.48926 0.15207 0.82446 0.0
C312 C 0.54137 0.15768 0.78477 0.0
C313 C 0.45366 0.13036 0.77281 0.0
C314 C 0.50883 0.08962 0.83757 0.0
C315 C 0.431 0.18237 0.82773 0.0
C316 C 0.51892 0.2103 0.83805 0.0
C317 C 0.4831 0.14221 0.88949 0.0
O318 O 0.52062 0.16906 0.77722 0.0
O319 O 0.45154 0.11886 0.79446 0.0
O320 O 0.52463 0.10817 0.84078 0.0
O321 O 0.44857 0.19283 0.81382 0.0
O322 O 0.52713 0.18971 0.84854 0.0
O323 O 0.46492 0.1337 0.87505 0.0
O324 O 0.50368 0.21054 0.8185 0.0
O325 O 0.43191 0.15878 0.83511 0.0
O326 O 0.50534 0.1485 0.8809 0.0
O327 O 0.46429 0.1526 0.77013 0.0
O328 O 0.54494 0.14975 0.80788 0.0
O329 O 0.48443 0.09299 0.83502 0.0
Sc330 Sc 0.84857 0.42061 0.86569 0.0
Sc331 Sc 0.84582 0.48837 0.86079 0.0
Sc332 Sc 0.7971 0.4508 0.8309 0.0
O333 O 0.83043 0.45319 0.85244 0.0
C334 C 0.83351 0.40717 0.80626 0.0
C335 C 0.89663 0.45597 0.8486 0.0
C336 C 0.82368 0.50029 0.80459 0.0
C337 C 0.85594 0.45824 0.914 0.0
C338 C 0.7899 0.40317 0.87032 0.0
C339 C 0.78516 0.4957 0.87218 0.0
O340 O 0.8458 0.40321 0.8275 0.0
O341 O 0.88387 0.47715 0.84834 0.0
O342 O 0.80654 0.48252 0.80484 0.0
O343 O 0.853 0.43528 0.9051 0.0
O344 O 0.78174 0.41865 0.8529 0.0
O345 O 0.80894 0.50216 0.87448 0.0
O346 O 0.81328 0.40267 0.87809 0.0
O347 O 0.85451 0.47823 0.8998 0.0
O348 O 0.77726 0.4774 0.85719 0.0
O349 O 0.88666 0.4344 0.85528 0.0
O350 O 0.81565 0.42428 0.80391 0.0
O351 O 0.83964 0.50366 0.82303 0.0
Sc352 Sc 0.4611 0.11321 0.12884 0.0
Sc353 Sc 0.39551 0.10741 0.11357 0.0
Sc354 Sc 0.41751 0.15237 0.1614 0.0
O355 O 0.42437 0.12451 0.13416 0.0
C356 C 0.46455 0.12058 0.1868 0.0
C357 C 0.43333 0.05897 0.11855 0.0
C358 C 0.37698 0.10742 0.17345 0.0
C359 C 0.43956 0.12153 0.07208 0.0
C360 C 0.46649 0.17489 0.13582 0.0
C361 C 0.37282 0.1644 0.11965 0.0
O362 O 0.46407 0.1037 0.16885 0.0
O363 O 0.41055 0.0682 0.11636 0.0
O364 O 0.39255 0.12535 0.18094 0.0
O365 O 0.45784 0.12212 0.08878 0.0
O366 O 0.44304 0.17958 0.14233 0.0
O367 O 0.37617 0.14357 0.10683 0.0
O368 O 0.47582 0.15198 0.13462 0.0
O369 O 0.41625 0.1145 0.07725 0.0
O370 O 0.38472 0.16928 0.14086 0.0
O371 O 0.45303 0.07324 0.12194 0.0
O372 O 0.45051 0.141 0.18577 0.0
O373 O 0.37428 0.10033 0.1496 0.0
Sc374 Sc 0.87665 0.43568 0.15355 0.0
Sc375 Sc 0.84642 0.49576 0.15696 0.0
Sc376 Sc 0.83018 0.44935 0.20156 0.0
O377 O 0.85109 0.45954 0.17023 0.0
C378 C 0.8247 0.40176 0.16219 0.0
C379 C 0.86171 0.46758 0.10437 0.0
C380 C 0.7908 0.48217 0.16525 0.0
C381 C 0.90612 0.49049 0.1633 0.0
C382 C 0.88307 0.4181 0.21209 0.0
C383 C 0.84662 0.50471 0.21452 0.0
O384 O 0.84738 0.40497 0.1523 0.0
O385 O 0.85803 0.48801 0.11772 0.0
O386 O 0.79666 0.47286 0.18768 0.0
O387 O 0.9061 0.46661 0.15558 0.0
O388 O 0.86024 0.42502 0.21882 0.0
O389 O 0.83327 0.50891 0.19437 0.0
O390 O 0.89201 0.42229 0.18958 0.0
O391 O 0.88556 0.5039 0.16671 0.0
O392 O 0.84818 0.48153 0.22278 0.0
O393 O 0.86486 0.44549 0.11468 0.0
O394 O 0.81506 0.4167 0.17977 0.0
O395 O 0.8077 0.48594 0.1477 0.0
Sc396 Sc 0.50723 0.81504 0.19399 0.0
Sc397 Sc 0.54471 0.85066 0.15094 0.0
Sc398 Sc 0.48839 0.82073 0.13002 0.0
O399 O 0.51337 0.82965 0.1582 0.0
C400 C 0.48178 0.77175 0.15809 0.0
C401 C 0.56409 0.79923 0.18078 0.0
C402 C 0.54184 0.81809 0.09904 0.0
C403 C 0.5355 0.86789 0.20774 0.0
C404 C 0.45446 0.83797 0.17962 0.0
C405 C 0.49863 0.88021 0.12042 0.0
O406 O 0.48164 0.78349 0.17996 0.0
O407 O 0.56876 0.82193 0.17147 0.0
O408 O 0.51739 0.81478 0.10033 0.0
O409 O 0.5298 0.84489 0.21474 0.0
O410 O 0.45584 0.82672 0.15729 0.0
O411 O 0.52171 0.87942 0.12982 0.0
O412 O 0.47336 0.83876 0.19577 0.0
O413 O 0.53752 0.87414 0.18413 0.0
O414 O 0.4837 0.8605 0.1194 0.0
O415 O 0.54168 0.79227 0.18897 0.0
O416 O 0.49487 0.78109 0.13978 0.0
O417 O 0.55461 0.82983 0.11656 0.0
Sc418 Sc 0.13226 0.58107 0.16121 0.0
Sc419 Sc 0.12321 0.51926 0.13666 0.0
Sc420 Sc 0.18378 0.53785 0.16018 0.0
O421 O 0.14648 0.54558 0.15318 0.0
C422 C 0.18733 0.59476 0.14114 0.0
C423 C 0.1135 0.57032 0.1055 0.0
C424 C 0.17368 0.50829 0.10549 0.0
C425 C 0.08411 0.54476 0.17346 0.0
C426 C 0.16347 0.5689 0.2105 0.0
C427 C 0.15814 0.48513 0.17554 0.0
O428 O 0.16888 0.6009 0.15631 0.0
O429 O 0.1038 0.54909 0.11371 0.0
O430 O 0.18796 0.51461 0.12491 0.0
O431 O 0.09305 0.56709 0.16778 0.0
O432 O 0.18246 0.55985 0.19708 0.0
O433 O 0.14031 0.48754 0.15839 0.0
O434 O 0.14137 0.57471 0.20087 0.0
O435 O 0.0962 0.52402 0.16773 0.0
O436 O 0.17424 0.50316 0.18115 0.0
O437 O 0.12561 0.58581 0.12055 0.0
O438 O 0.19437 0.57132 0.13774 0.0
O439 O 0.14933 0.51244 0.10491 0.0
Sc440 Sc 0.86433 0.86491 0.40243 0.0
Sc441 Sc 0.85597 0.88237 0.46756 0.0
Sc442 Sc 0.81503 0.83688 0.43873 0.0
O443 O 0.84571 0.86089 0.4367 0.0
C444 C 0.80685 0.86584 0.3866 0.0
C445 C 0.85672 0.92267 0.42022 0.0
C446 C 0.79601 0.88279 0.47617 0.0
C447 C 0.9108 0.87171 0.44337 0.0
C448 C 0.85476 0.80641 0.40117 0.0
C449 C 0.8435 0.8256 0.49124 0.0
O450 O 0.82939 0.85827 0.38011 0.0
O451 O 0.8601 0.91699 0.44417 0.0
O452 O 0.79348 0.86027 0.46619 0.0
O453 O 0.90193 0.87159 0.42022 0.0
O454 O 0.83227 0.80948 0.41121 0.0
O455 O 0.85118 0.84922 0.49297 0.0
O456 O 0.87194 0.82419 0.40127 0.0
O457 O 0.89617 0.87215 0.46325 0.0
O458 O 0.83245 0.81617 0.47092 0.0
O459 O 0.85622 0.90575 0.40207 0.0
O460 O 0.79725 0.85988 0.40856 0.0
O461 O 0.81716 0.89532 0.47522 0.0
Sc462 Sc 0.87018 0.16646 0.41232 0.0
Sc463 Sc 0.8661 0.14271 0.47627 0.0
Sc464 Sc 0.83902 0.20374 0.46132 0.0
O465 O 0.85829 0.17094 0.44994 0.0
C466 C 0.88257 0.22612 0.42371 0.0
C467 C 0.91901 0.14644 0.44437 0.0
C468 C 0.87718 0.19368 0.50968 0.0
C469 C 0.85211 0.109 0.42596 0.0
C470 C 0.81352 0.19061 0.40576 0.0
C471 C 0.8086 0.15934 0.49183 0.0
O472 O 0.88446 0.20538 0.41035 0.0
O473 O 0.90572 0.13985 0.46407 0.0
O474 O 0.86309 0.20854 0.49573 0.0
O475 O 0.85793 0.12643 0.40954 0.0
O476 O 0.8132 0.20209 0.42784 0.0
O477 O 0.82747 0.14339 0.49122 0.0
O478 O 0.83275 0.1772 0.39782 0.0
O479 O 0.85389 0.1125 0.45037 0.0
O480 O 0.80972 0.18199 0.482 0.0
O481 O 0.90894 0.15591 0.42388 0.0
O482 O 0.8668 0.22867 0.44257 0.0
O483 O 0.8795 0.1695 0.50531 0.0
Sc484 Sc 0.14991 0.79374 0.52486 0.0
Sc485 Sc 0.12022 0.84754 0.55377 0.0
Sc486 Sc 0.14986 0.85316 0.49359 0.0
O487 O 0.13998 0.83161 0.52432 0.0
C488 C 0.19872 0.8207 0.49739 0.0
C489 C 0.16522 0.8134 0.58069 0.0
C490 C 0.1544 0.89508 0.53966 0.0
C491 C 0.09434 0.79276 0.55196 0.0
C492 C 0.13086 0.80057 0.46828 0.0
C493 C 0.09186 0.86925 0.50243 0.0
O494 O 0.18538 0.80038 0.50223 0.0
O495 O 0.1452 0.8282 0.58202 0.0
O496 O 0.15538 0.88843 0.5158 0.0
O497 O 0.1154 0.78099 0.54619 0.0
O498 O 0.14477 0.82096 0.46645 0.0
O499 O 0.09367 0.86738 0.52722 0.0
O500 O 0.12801 0.78838 0.48962 0.0
O501 O 0.09273 0.81723 0.55312 0.0
O502 O 0.11026 0.86328 0.487 0.0
O503 O 0.17134 0.8004 0.56033 0.0
O504 O 0.18949 0.84343 0.50001 0.0
O505 O 0.14544 0.88024 0.55704 0.0
Sc506 Sc 0.13373 0.13786 0.55417 0.0
Sc507 Sc 0.15164 0.11919 0.49181 0.0
Sc508 Sc 0.19542 0.15294 0.5306 0.0
O509 O 0.16011 0.13716 0.52534 0.0
C510 C 0.15726 0.1922 0.5615 0.0
C511 C 0.09926 0.14666 0.50291 0.0
C512 C 0.18362 0.16943 0.47374 0.0
C513 C 0.1288 0.08094 0.53408 0.0
C514 C 0.18572 0.12334 0.58267 0.0
C515 C 0.20848 0.10116 0.49792 0.0
O516 O 0.13693 0.17886 0.55716 0.0
O517 O 0.11769 0.14219 0.48717 0.0
O518 O 0.19068 0.17688 0.49644 0.0
O519 O 0.13073 0.09669 0.55303 0.0
O520 O 0.20042 0.12786 0.56334 0.0
O521 O 0.18491 0.09515 0.4943 0.0
O522 O 0.16276 0.13244 0.58447 0.0
O523 O 0.1306 0.08803 0.51043 0.0
O524 O 0.21545 0.12296 0.50773 0.0
O525 O 0.10122 0.14284 0.52737 0.0
O526 O 0.18005 0.18452 0.55515 0.0
O527 O 0.17237 0.14774 0.46946 0.0
H528 H 0.05742 0.36222 0.44315 0.0
H529 H 0.13735 0.38716 0.45301 0.0
H530 H 0.13077 0.38905 0.50105 0.0
H531 H 0.02927 0.40205 0.4889 0.0
H532 H 0.00599 0.37863 0.50053 0.0
H533 H 0.0179 0.37636 0.46768 0.0
H534 H 0.03339 0.32895 0.47564 0.0
H535 H 0.02088 0.33085 0.50833 0.0
H536 H 0.05442 0.32209 0.50288 0.0
H537 H 0.11334 0.39229 0.54727 0.0
H538 H 0.08836 0.39303 0.58823 0.0
H539 H 0.01999 0.36534 0.5466 0.0
C540 C 0.07367 0.36768 0.4555 0.0
C541 C 0.09781 0.37475 0.44474 0.0
C542 C 0.11877 0.38163 0.46119 0.0
C543 C 0.11514 0.3828 0.48833 0.0
C544 C 0.09065 0.37651 0.49829 0.0
C545 C 0.07046 0.36857 0.48232 0.0
C546 C 0.0458 0.36358 0.49741 0.0
C547 C 0.02344 0.38122 0.48807 0.0
C548 C 0.03819 0.33465 0.49598 0.0
C549 C 0.05484 0.371 0.52438 0.0
C550 C 0.08077 0.37818 0.52461 0.0
C551 C 0.09312 0.38643 0.54734 0.0
C552 C 0.07867 0.38693 0.57046 0.0
C553 C 0.05212 0.37928 0.57063 0.0
C554 C 0.04017 0.37134 0.54718 0.0
H555 H 0.64493 -0.0007 0.41278 0.0
H556 H 0.60168 0.07002 0.39608 0.0
H557 H 0.58172 0.06841 0.43948 0.0
H558 H 0.59519 0.96757 0.45316 0.0
H559 H 0.61868 0.95503 0.47603 0.0
H560 H 0.62766 0.95969 0.44244 0.0
H561 H 0.66625 0.98905 0.45667 0.0
H562 H 0.65767 0.98397 0.4902 0.0
H563 H 0.66014 0.01661 0.47771 0.0
H564 H 0.56837 0.06122 0.48458 0.0
H565 H 0.56764 0.05266 0.53172 0.0
H566 H 0.61993 0.98711 0.52037 0.0
C567 C 0.63114 0.0143 0.41828 0.0
C568 C 0.62483 0.03475 0.40114 0.0
C569 C 0.60698 0.05429 0.40903 0.0
C570 C 0.59522 0.05336 0.43348 0.0
C571 C 0.60161 0.03284 0.44985 0.0
C572 C 0.61947 0.01391 0.44286 0.0
C573 C 0.62496 -0.0043 0.46531 0.0
C574 C 0.61608 0.96785 0.45884 0.0
C575 C 0.65396 -0.0036 0.47292 0.0
C576 C 0.60796 0.00791 0.48614 0.0
C577 C 0.59418 0.0289 0.47653 0.0
C578 C 0.57878 0.04466 0.49237 0.0
C579 C 0.57847 0.03964 0.51908 0.0
C580 C 0.59365 0.0192 0.52957 0.0
C581 C 0.60768 0.00249 0.51276 0.0
H582 H 0.9549 0.65042 0.55061 0.0
H583 H 0.87926 0.61366 0.54202 0.0
H584 H 0.88337 0.61656 0.49407 0.0
H585 H 0.94881 0.69469 0.49527 0.0
H586 H 0.98269 0.69135 0.48686 0.0
H587 H 0.97262 0.68847 0.52033 0.0
H588 H 0.9945 0.64307 0.52301 0.0
H589 H 0.00473 0.64579 0.48967 0.0
H590 H 0.98566 0.61819 0.49971 0.0
H591 H 0.8975 0.62054 0.4473 0.0
H592 H 0.92081 0.62386 0.40553 0.0
H593 H 0.987 0.65815 0.44575 0.0
C594 C 0.93904 0.64307 0.53876 0.0
C595 C 0.91681 0.63165 0.55006 0.0
C596 C 0.89651 0.62243 0.53376 0.0
C597 C 0.89861 0.62412 0.50656 0.0
C598 C 0.92097 0.63532 0.49614 0.0
C599 C 0.94076 0.6447 0.51179 0.0
C600 C 0.96343 0.65452 0.49598 0.0
C601 C 0.96709 0.68401 0.49984 0.0
C602 C 0.98854 0.63948 0.50248 0.0
C603 C 0.95376 0.64828 0.46889 0.0
C604 C 0.92907 0.63762 0.46932 0.0
C605 C 0.91671 0.6291 0.44669 0.0
C606 C 0.93017 0.63104 0.42308 0.0
C607 C 0.95582 0.64118 0.42237 0.0
C608 C 0.96742 0.6504 0.44557 0.0
H609 H 0.38697 0.97512 0.45462 0.0
H610 H 0.39396 0.89183 0.44072 0.0
H611 H 0.38127 0.88354 0.48606 0.0
H612 H 0.41068 0.97273 0.52421 0.0
H613 H 0.38863 -0.00161 0.53369 0.0
H614 H 0.40186 -0.00235 0.50121 0.0
H615 H 0.35535 -0.0005 0.48336 0.0
H616 H 0.34111 -0.00181 0.51525 0.0
H617 H 0.33242 0.97411 0.49107 0.0
H618 H 0.36202 0.88388 0.53072 0.0
H619 H 0.34505 0.89311 0.57469 0.0
H620 H 0.35107 0.9761 0.55993 0.0
C621 C 0.3868 0.95515 0.46129 0.0
C622 C 0.39144 0.93416 0.4439 0.0
C623 C 0.39062 0.90832 0.45353 0.0
C624 C 0.38322 0.90335 0.47927 0.0
C625 C 0.37717 0.9244 0.49534 0.0
C626 C 0.37966 0.94982 0.48703 0.0
C627 C 0.37128 0.96885 0.50809 0.0
C628 C 0.3945 0.98537 0.51736 0.0
C629 C 0.34866 0.98615 0.49888 0.0
C630 C 0.36262 0.95013 0.52902 0.0
C631 C 0.36629 0.92459 0.5213 0.0
C632 C 0.35942 0.90381 0.53715 0.0
C633 C 0.34958 0.90928 0.56203 0.0
C634 C 0.3467 0.93535 0.57085 0.0
C635 C 0.35278 0.95597 0.55378 0.0
H636 H 0.44453 -0.00272 0.33116 0.0
H637 H 0.45485 0.91366 0.32336 0.0
H638 H 0.49951 0.92072 0.3074 0.0
H639 H 0.48815 0.01609 0.27417 0.0
H640 H 0.49948 0.04424 0.29193 0.0
H641 H 0.46668 0.03274 0.29646 0.0
H642 H 0.47535 0.02997 0.34625 0.0
H643 H 0.50817 0.04085 0.34166 0.0
H644 H 0.5021 0.01044 0.3579 0.0
H645 H 0.54479 0.936 0.30145 0.0
H646 H 0.58691 0.95827 0.30466 0.0
H647 H 0.54725 0.03227 0.31526 0.0
C648 C 0.45588 0.98043 0.32544 0.0
C649 C 0.44627 0.9549 0.32875 0.0
C650 C 0.46182 0.9334 0.32111 0.0
C651 C 0.48715 0.93723 0.31184 0.0
C652 C 0.49642 0.96265 0.30995 0.0
C653 C 0.4811 0.98392 0.31614 0.0
C654 C 0.49654 0.00898 0.31548 0.0
C655 C 0.48715 0.02654 0.29317 0.0
C656 C 0.49547 0.02337 0.34189 0.0
C657 C 0.52338 -0.00173 0.31001 0.0
C658 C 0.52277 0.97159 0.30617 0.0
C659 C 0.54543 0.95696 0.30371 0.0
C660 C 0.56931 0.96983 0.30566 0.0
C661 C 0.57042 -0.0029 0.31002 0.0
C662 C 0.54708 0.01149 0.31161 0.0
H663 H 0.01785 0.54983 0.33772 0.0
H664 H 0.06978 0.58425 0.39509 0.0
H665 H 0.09849 0.54562 0.39193 0.0
H666 H 0.02137 0.48569 0.359 0.0
H667 H 0.02056 0.47184 0.32665 0.0
H668 H 0.00573 0.50295 0.33275 0.0
H669 H 0.0343 0.52329 0.29624 0.0
H670 H 0.04913 0.49196 0.29048 0.0
H671 H 0.06917 0.51977 0.29783 0.0
H672 H 0.11929 0.50179 0.38489 0.0
H673 H 0.12747 0.45477 0.37844 0.0
H674 H 0.06313 0.45103 0.32375 0.0
C675 C 0.03511 0.54917 0.34986 0.0
C676 C 0.04141 0.56972 0.367 0.0
C677 C 0.06451 0.56846 0.38205 0.0
C678 C 0.08102 0.54678 0.38019 0.0
C679 C 0.07435 0.52697 0.36277 0.0
C680 C 0.05194 0.52805 0.34788 0.0
C681 C 0.04842 0.50388 0.33149 0.0
C682 C 0.02251 0.49029 0.33788 0.0
C683 C 0.05037 0.51012 0.30228 0.0
C684 C 0.07163 0.48833 0.34055 0.0
C685 C 0.08681 0.50219 0.35805 0.0
C686 C 0.10786 0.49086 0.3709 0.0
C687 C 0.11249 0.46421 0.36698 0.0
C688 C 0.09583 0.44945 0.35066 0.0
C689 C 0.07621 0.46201 0.33621 0.0
H690 H 0.4387 0.94863 0.65192 0.0
H691 H 0.402 0.02488 0.64833 0.0
H692 H 0.44446 0.04574 0.65296 0.0
H693 H 0.49296 0.96785 0.69733 0.0
H694 H 0.51614 0.94775 0.68019 0.0
H695 H 0.48242 0.93822 0.68161 0.0
H696 H 0.48042 0.93575 0.63117 0.0
H697 H 0.51409 0.94484 0.62962 0.0
H698 H 0.49003 0.96368 0.61237 0.0
H699 H 0.49019 0.05877 0.65198 0.0
H700 H 0.53663 0.06257 0.64081 0.0
H701 H 0.54434 0.97844 0.64479 0.0
C702 C 0.43959 0.96969 0.65245 0.0
C703 C 0.41696 0.98498 0.64987 0.0
C704 C 0.419 0.01256 0.65029 0.0
C705 C 0.44304 0.02473 0.65325 0.0
C706 C 0.46496 0.00914 0.65572 0.0
C707 C 0.46356 0.98223 0.65519 0.0
C708 C 0.49037 0.97015 0.65471 0.0
C709 C 0.49579 0.95511 0.67997 0.0
C710 C 0.49393 0.9526 0.63052 0.0
C711 C 0.50682 0.9945 0.65323 0.0
C712 C 0.49184 0.01679 0.65476 0.0
C713 C 0.5023 0.04153 0.65122 0.0
C714 C 0.52867 0.04351 0.64484 0.0
C715 C 0.54396 0.0208 0.6417 0.0
C716 C 0.5331 -0.00384 0.64705 0.0
H717 H 0.96239 0.44432 0.61566 0.0
H718 H -0.00077 0.4511 0.69153 0.0
H719 H 0.97219 0.49005 0.70112 0.0
H720 H 0.961 0.51124 0.60218 0.0
H721 H 0.93041 0.50956 0.58499 0.0
H722 H 0.95132 0.48154 0.586 0.0
H723 H 0.91307 0.45463 0.60493 0.0
H724 H 0.89237 0.48299 0.60485 0.0
H725 H 0.89758 0.46526 0.63463 0.0
H726 H 0.94221 0.52898 0.70133 0.0
H727 H 0.91915 0.5693 0.68882 0.0
H728 H 0.90279 0.53657 0.61274 0.0
C729 C 0.96473 0.45395 0.63436 0.0
C730 C 0.98272 0.44478 0.65293 0.0
C731 C 0.98562 0.45805 0.67699 0.0
C732 C 0.97005 0.47984 0.68274 0.0
C733 C 0.95185 0.48788 0.66419 0.0
C734 C 0.94958 0.4756 0.64029 0.0
C735 C 0.9306 0.48936 0.62259 0.0
C736 C 0.94415 0.49848 0.59748 0.0
C737 C 0.90701 0.47202 0.6164 0.0
C738 C 0.92303 0.51193 0.63991 0.0
C739 C 0.93485 0.51035 0.66415 0.0
C740 C 0.93248 0.53016 0.68265 0.0
C741 C 0.91907 0.55282 0.67554 0.0
C742 C 0.90865 0.55537 0.65017 0.0
C743 C 0.90968 0.53439 0.63258 0.0
H744 H 0.34898 0.4546 0.95528 0.0
H745 H 0.31731 0.44173 0.03267 0.0
H746 H 0.30303 0.48729 0.03466 0.0
H747 H 0.37401 0.5179 0.96864 0.0
H748 H 0.36648 0.53036 0.93673 0.0
H749 H 0.37277 0.49619 0.94094 0.0
H750 H 0.32815 0.48578 0.91954 0.0
H751 H 0.32148 0.52005 0.91594 0.0
H752 H 0.29891 0.49961 0.93319 0.0
H753 H 0.2929 0.53397 0.02918 0.0
H754 H 0.29453 0.58087 0.0197 0.0
H755 H 0.33293 0.56419 0.94618 0.0
C756 C 0.33919 0.46138 0.97271 0.0
C757 C 0.33434 0.44446 0.99377 0.0
C758 C 0.32148 0.45422 0.01626 0.0
C759 C 0.31292 0.48003 0.0175 0.0
C760 C 0.31738 0.49594 -0.00386 0.0
C761 C 0.33061 0.4872 0.97438 0.0
C762 C 0.33451 0.50894 0.95497 0.0
C763 C 0.36367 0.51363 0.95005 0.0
C764 C 0.31989 0.50325 0.9294 0.0
C765 C 0.32214 0.53141 0.96967 0.0
C766 C 0.31179 0.52328 0.99308 0.0
C767 C 0.30078 0.54062 0.01084 0.0
C768 C 0.30172 0.56721 0.00524 0.0
C769 C 0.31386 0.57616 0.98221 0.0
C770 C 0.32309 0.55792 0.96369 0.0
H771 H 0.42967 0.35594 0.97493 0.0
H772 H 0.39906 0.33899 0.05188 0.0
H773 H 0.44374 0.33707 0.06929 0.0
H774 H 0.48697 0.31413 0.97995 0.0
H775 H 0.50711 0.33647 0.96209 0.0
H776 H 0.47272 0.33485 0.95553 0.0
H777 H 0.46883 0.38447 0.96447 0.0
H778 H 0.50312 0.38622 0.97146 0.0
H779 H 0.47987 0.39752 0.99524 0.0
H780 H 0.49174 0.33911 0.07874 0.0
H781 H 0.53975 0.34172 0.07864 0.0
H782 H 0.53804 0.3582 -0.00434 0.0
C783 C 0.43229 0.35144 0.99537 0.0
C784 C 0.41082 0.34771 0.01202 0.0
C785 C 0.41519 0.34197 0.03869 0.0
C786 C 0.44049 0.34089 0.04882 0.0
C787 C 0.46115 0.34549 0.032 0.0
C788 C 0.45733 0.35033 0.0058 0.0
C789 C 0.48277 0.355 0.99194 0.0
C790 C 0.48768 0.33386 0.97116 0.0
C791 C 0.48368 0.38243 0.98009 0.0
C792 C 0.50144 0.35249 0.01455 0.0
C793 C 0.48867 0.34691 0.03749 0.0
C794 C 0.50199 0.34345 0.06089 0.0
C795 C 0.52922 0.34514 0.06067 0.0
C796 C 0.54268 0.35032 0.03719 0.0
C797 C 0.52842 0.35443 0.01401 0.0
H798 H 0.62806 0.4258 0.05137 0.0
H799 H 0.66495 0.40353 0.97854 0.0
H800 H 0.67024 0.44988 0.96734 0.0
H801 H 0.5907 0.4744 0.02618 0.0
H802 H 0.59314 0.49628 0.05365 0.0
H803 H 0.59645 0.46179 0.05842 0.0
H804 H 0.64189 0.46825 0.07995 0.0
H805 H 0.63786 0.50285 0.07617 0.0
H806 H 0.6663 0.48689 0.06315 0.0
H807 H 0.66682 0.49835 0.96187 0.0
H808 H 0.6566 0.54538 0.96363 0.0
H809 H 0.62071 0.53478 0.03941 0.0
C810 C 0.63803 0.43064 0.03347 0.0
C811 C 0.64612 0.41115 0.01586 0.0
C812 C 0.65856 0.41825 0.99231 0.0
C813 C 0.66172 0.44448 0.9858 0.0
C814 C 0.65241 0.46324 0.0031 0.0
C815 C 0.6411 0.45665 0.02659 0.0
C816 C 0.63052 0.48026 0.04064 0.0
C817 C 0.60096 0.47803 0.04495 0.0
C818 C 0.64503 0.48483 0.06649 0.0
C819 C 0.63688 0.50102 0.02099 0.0
C820 C 0.64982 0.49098 -0.00037 0.0
C821 C 0.65692 0.5065 0.97863 0.0
C822 C 0.65089 0.53311 0.97971 0.0
C823 C 0.63764 0.54369 0.00152 0.0
C824 C 0.63057 0.5273 0.0223 0.0
H825 H 0.53843 0.64438 0.03509 0.0
H826 H 0.56159 0.60205 0.96527 0.0
H827 H 0.51579 0.59498 0.95397 0.0
H828 H 0.48148 0.60585 0.05059 0.0
H829 H 0.46194 0.63344 0.06011 0.0
H830 H 0.49675 0.63444 0.06423 0.0
H831 H 0.49863 0.67655 0.03772 0.0
H832 H 0.46411 0.67611 0.03161 0.0
H833 H 0.48642 0.67698 0.00474 0.0
H834 H 0.46836 0.59426 0.94856 0.0
H835 H 0.42098 0.60218 0.94846 0.0
H836 H 0.42795 0.64434 0.02169 0.0
C837 C 0.53381 0.63346 0.01757 0.0
C838 C 0.55355 0.62374 0.00114 0.0
C839 C 0.5468 0.60984 0.97814 0.0
C840 C 0.52083 0.60548 0.97161 0.0
C841 C 0.50185 0.61518 0.98822 0.0
C842 C 0.50789 0.62905 0.01059 0.0
C843 C 0.48357 0.63896 0.02388 0.0
C844 C 0.48078 0.62748 0.05133 0.0
C845 C 0.4832 0.66892 0.02454 0.0
C846 C 0.46307 0.62835 0.00551 0.0
C847 C 0.47409 0.61466 0.9851 0.0
C848 C 0.45936 0.60464 0.96459 0.0
C849 C 0.43257 0.60923 0.96467 0.0
C850 C 0.42097 0.62356 0.98519 0.0
C851 C 0.43633 0.63275 0.00611 0.0
H852 H 0.54322 0.81898 0.95069 0.0
H853 H 0.62297 0.84552 0.95679 0.0
H854 H 0.62566 0.82732 0.00125 0.0
H855 H 0.52241 0.83787 0.00602 0.0
H856 H 0.50184 0.81078 0.01441 0.0
H857 H 0.50888 0.81711 0.98095 0.0
H858 H 0.5278 0.77028 0.97475 0.0
H859 H 0.51892 0.764 0.00813 0.0
H860 H 0.55183 0.75849 -0.00251 0.0
H861 H 0.61526 0.82025 0.0469 0.0
H862 H 0.59369 0.82353 0.08925 0.0
H863 H 0.52114 0.79805 0.05424 0.0
C864 C 0.56146 0.8203 0.96124 0.0
C865 C 0.58272 0.83404 0.9509 0.0
C866 C 0.60646 0.83515 0.96469 0.0
C867 C 0.60819 0.82462 0.98976 0.0
C868 C 0.58627 0.81242 0.00012 0.0
C869 C 0.5635 0.80959 0.98598 0.0
C870 C 0.54147 0.79964 0.00263 0.0
C871 C 0.51729 0.81744 0.00091 0.0
C872 C 0.53461 0.77142 0.9953 0.0
C873 C 0.55434 0.80089 0.02907 0.0
C874 C 0.5805 0.80715 0.02708 0.0
C875 C 0.59519 0.81421 0.04877 0.0
C876 C 0.58268 0.81609 0.07282 0.0
C877 C 0.55578 0.81065 0.07509 0.0
C878 C 0.54184 0.80174 0.05316 0.0
H879 H 0.08151 0.57927 0.0634 0.0
H880 H 0.16094 0.56245 0.08634 0.0
H881 H 0.17363 0.55826 0.04023 0.0
H882 H 0.0784 0.53652 0.01017 0.0
H883 H 0.05975 0.55764 0.98929 0.0
H884 H 0.057 0.56067 0.02412 0.0
H885 H 0.06944 0.60947 0.02133 0.0
H886 H 0.07218 0.6066 0.98642 0.0
H887 H 0.09921 0.61868 0.00535 0.0
H888 H 0.17696 0.55216 0.99283 0.0
H889 H 0.17083 0.54544 0.94546 0.0
H890 H 0.09051 0.57048 0.95216 0.0
C891 C 0.10164 0.57543 0.05849 0.0
C892 C 0.12042 0.57139 0.07802 0.0
C893 C 0.14652 0.5659 0.07132 0.0
C894 C 0.15388 0.56353 0.0453 0.0
C895 C 0.13507 0.56778 0.02631 0.0
C896 C 0.10957 0.57394 0.03244 0.0
C897 C 0.09314 0.57652 0.00808 0.0
C898 C 0.07076 0.55665 0.00792 0.0
C899 C 0.08289 0.60449 0.00513 0.0
C900 C 0.11326 0.57014 0.98749 0.0
C901 C 0.1373 0.56514 -0.0015 0.0
C902 C 0.15842 0.55656 0.98382 0.0
C903 C 0.15479 0.55273 0.95707 0.0
C904 C 0.1304 0.55793 0.94546 0.0
C905 C 0.10951 0.56711 0.9607 0.0
H906 H 0.44374 0.12026 0.91764 0.0
H907 H 0.51114 0.17078 0.92451 0.0
H908 H 0.50335 0.17512 0.97166 0.0
H909 H 0.40371 0.15254 0.96866 0.0
H910 H 0.39097 0.122 0.9801 0.0
H911 H 0.39954 0.1257 0.94628 0.0
H912 H 0.43011 0.08563 0.94945 0.0
H913 H 0.42169 0.08184 0.98321 0.0
H914 H 0.45532 0.08521 0.97393 0.0
H915 H 0.49137 0.17071 0.0175 0.0
H916 H 0.47686 0.15668 0.06067 0.0
H917 H 0.41725 0.10827 0.02496 0.0
C918 C 0.45658 0.1326 0.929 0.0
C919 C 0.47799 0.14529 0.91749 0.0
C920 C 0.49465 0.1609 0.93301 0.0
C921 C 0.49027 0.16364 0.95972 0.0
C922 C 0.46918 0.15062 0.9705 0.0
C923 C 0.4526 0.13538 0.95573 0.0
C924 C 0.43287 0.12156 0.97259 0.0
C925 C 0.40513 0.13103 0.96654 0.0
C926 C 0.43516 0.0918 0.96962 0.0
C927 C 0.44166 0.13062 -0.00074 0.0
C928 C 0.46233 0.14775 -0.00256 0.0
C929 C 0.47504 0.15756 0.01924 0.0
C930 C 0.46676 0.14926 0.04364 0.0
C931 C 0.44607 0.1312 0.04604 0.0
C932 C 0.43294 0.12224 0.0236 0.0
H933 H 0.85172 0.4235 0.95494 0.0
H934 H 0.87082 0.50381 0.93644 0.0
H935 H 0.87554 0.51379 0.98279 0.0
H936 H 0.81402 0.43747 0.01088 0.0
H937 H 0.8254 0.4102 0.02973 0.0
H938 H 0.82495 0.40821 0.99469 0.0
H939 H 0.87412 0.39695 0.99449 0.0
H940 H 0.87469 0.39874 0.02957 0.0
H941 H 0.89677 0.41834 0.01078 0.0
H942 H 0.87512 0.51673 0.03 0.0
H943 H 0.87222 0.51161 0.07744 0.0
H944 H 0.85479 0.4294 0.0671 0.0
C945 C 0.85728 0.44304 0.96067 0.0
C946 C 0.86076 0.46283 0.94198 0.0
C947 C 0.86784 0.48826 0.95029 0.0
C948 C 0.87067 0.49421 0.97662 0.0
C949 C 0.86659 0.47451 0.99451 0.0
C950 C 0.86031 0.44939 0.98709 0.0
C951 C 0.8564 0.43227 0.01073 0.0
C952 C 0.82854 0.4214 0.01155 0.0
C953 C 0.87671 0.41027 0.01143 0.0
C954 C 0.86104 0.45194 0.03238 0.0
C955 C 0.86687 0.47614 0.02241 0.0
C956 C 0.87088 0.49784 0.03819 0.0
C957 C 0.86903 0.49475 0.06509 0.0
C958 C 0.86336 0.47011 0.0759 0.0
C959 C 0.85942 0.44839 0.05932 0.0
H960 H 0.92505 0.49866 0.83515 0.0
H961 H 0.93249 0.41673 0.85441 0.0
H962 H 0.97989 0.42217 0.85895 0.0
H963 H 0.9905 0.50512 0.80138 0.0
H964 H 0.99479 0.53734 0.81475 0.0
H965 H 0.96263 0.52578 0.80677 0.0
H966 H 0.9478 0.536 0.85389 0.0
H967 H 0.97989 0.54699 0.86239 0.0
H968 H 0.96483 0.52138 0.88088 0.0
H969 H 0.02442 0.43813 0.86968 0.0
H970 H 0.06421 0.46254 0.88084 0.0
H971 H 0.02697 0.53422 0.85581 0.0
C972 C 0.93669 0.4816 0.83938 0.0
C973 C 0.92502 0.45734 0.84466 0.0
C974 C 0.94097 0.43555 0.8503 0.0
C975 C 0.96794 0.43843 0.85293 0.0
C976 C 0.97856 0.46309 0.84946 0.0
C977 C 0.96352 0.48418 0.84217 0.0
C978 C 0.97908 0.50914 0.84241 0.0
C979 C 0.98192 0.51997 0.81468 0.0
C980 C 0.96718 0.52955 0.86101 0.0
C981 C 0.00472 0.49905 0.85261 0.0
C982 C 0.00421 0.4724 0.85608 0.0
C983 C 0.02522 0.45894 0.86662 0.0
C984 C 0.04761 0.47304 0.87317 0.0
C985 C 0.04863 0.50036 0.86943 0.0
C986 C 0.02676 0.51343 0.85919 0.0
H987 H 0.48548 0.04511 0.85559 0.0
H988 H 0.55787 0.07526 0.82447 0.0
H989 H 0.58028 0.03471 0.83653 0.0
H990 H 0.51203 0.01418 0.90999 0.0
H991 H 0.49146 0.9858 0.90866 0.0
H992 H 0.47999 0.01627 0.89575 0.0
H993 H 0.47126 0.99468 0.85077 0.0
H994 H 0.48187 0.96396 0.86382 0.0
H995 H 0.49697 0.97673 0.83492 0.0
H996 H 0.59582 0.99306 0.85536 0.0
H997 H 0.60177 0.94857 0.87222 0.0
H998 H 0.51941 0.94527 0.89094 0.0
C999 C 0.50583 0.04281 0.85063 0.0
C1000 C 0.51999 0.0633 0.83929 0.0
C1001 C 0.54672 0.05979 0.83338 0.0
C1002 C 0.55967 0.03692 0.84025 0.0
C1003 C 0.54557 0.01769 0.8528 0.0
C1004 C 0.51913 0.02001 0.85734 0.0
C1005 C 0.50871 -0.00369 0.8712 0.0
C1006 C 0.49739 0.00359 0.89799 0.0
C1007 C 0.48852 0.98207 0.85416 0.0
C1008 C 0.53349 0.98058 0.87396 0.0
C1009 C 0.55455 0.99338 0.86344 0.0
C1010 C 0.57947 0.98268 0.86354 0.0
C1011 C 0.58272 0.95754 0.87346 0.0
C1012 C 0.56107 0.94343 0.88287 0.0
C1013 C 0.53637 0.95557 0.88393 0.0
H1014 H 0.95346 0.46772 0.17289 0.0
H1015 H 0.91464 0.54271 0.16801 0.0
H1016 H 0.95557 0.5648 0.17927 0.0
H1017 H -0.00064 0.48735 0.22732 0.0
H1018 H 0.0245 0.46708 0.2135 0.0
H1019 H 0.99073 0.45832 0.20958 0.0
H1020 H -0.00166 0.45639 0.15924 0.0
H1021 H 0.03155 0.46621 0.16375 0.0
H1022 H 0.01038 0.485 0.14301 0.0
H1023 H 0.00123 0.57899 0.18528 0.0
H1024 H 0.04877 0.58408 0.18172 0.0
H1025 H 0.05783 0.50003 0.1842 0.0
C1026 C 0.95358 0.48877 0.17428 0.0
C1027 C 0.93093 0.50346 0.16947 0.0
C1028 C 0.93178 0.531 0.17169 0.0
C1029 C 0.95489 0.54376 0.17824 0.0
C1030 C 0.97691 0.52872 0.18281 0.0
C1031 C 0.97647 0.50184 0.18097 0.0
C1032 C 0.00325 0.49039 0.18486 0.0
C1033 C 0.00456 0.47486 0.21034 0.0
C1034 C 0.01135 0.47353 0.16131 0.0
C1035 C 0.01907 0.51509 0.18695 0.0
C1036 C 0.00343 0.53698 0.1867 0.0
C1037 C 0.01374 0.56203 0.18592 0.0
C1038 C 0.04077 0.56472 0.18388 0.0
C1039 C 0.05697 0.54243 0.18237 0.0
C1040 C 0.04599 0.51745 0.18534 0.0
H1041 H 0.51572 0.92892 0.13427 0.0
H1042 H 0.45477 0.8887 0.09137 0.0
H1043 H 0.43118 0.93015 0.08611 0.0
H1044 H 0.47459 0.97028 0.16952 0.0
H1045 H 0.49579 -0.00181 0.16854 0.0
H1046 H 0.5093 0.96587 0.16692 0.0
H1047 H 0.5324 0.97698 0.1235 0.0
H1048 H 0.51935 0.0095 0.1253 0.0
H1049 H 0.51362 0.98974 0.09673 0.0
H1050 H 0.41223 0.97533 0.0889 0.0
H1051 H 0.4019 0.02202 0.09561 0.0
H1052 H 0.47532 0.03207 0.13646 0.0
C1053 C 0.4978 0.92891 0.12312 0.0
C1054 C 0.48718 0.90557 0.11316 0.0
C1055 C 0.46334 0.90636 0.09917 0.0
C1056 C 0.44972 0.92979 0.09613 0.0
C1057 C 0.46023 0.95226 0.1071 0.0
C1058 C 0.4839 0.9521 0.11998 0.0
C1059 C 0.49045 0.97873 0.13079 0.0
C1060 C 0.49265 0.97822 0.16071 0.0
C1061 C 0.51543 0.98937 0.11832 0.0
C1062 C 0.46671 0.99381 0.12206 0.0
C1063 C 0.4494 0.97823 0.10855 0.0
C1064 C 0.42575 0.98782 0.09922 0.0
C1065 C 0.41995 0.01426 0.10328 0.0
C1066 C 0.43786 0.03067 0.11637 0.0
C1067 C 0.46133 0.02009 0.12611 0.0
H1068 H 0.83909 0.96056 0.45269 0.0
H1069 H 0.8626 0.94641 0.3727 0.0
H1070 H 0.85601 0.99309 0.36288 0.0
H1071 H 0.78983 0.01298 0.4378 0.0
H1072 H 0.79836 0.02965 0.46755 0.0
H1073 H 0.80048 0.99464 0.46572 0.0
H1074 H 0.8489 -0.00204 0.48073 0.0
H1075 H 0.8466 0.03281 0.48158 0.0
H1076 H 0.87123 0.01728 0.46192 0.0
H1077 H 0.85382 0.04213 0.3641 0.0
H1078 H 0.85685 0.08863 0.3764 0.0
H1079 H 0.83277 0.0695 0.45502 0.0
C1080 C 0.84263 0.9672 0.43302 0.0
C1081 C 0.85178 0.95007 0.41356 0.0
C1082 C 0.85576 0.95936 0.38795 0.0
C1083 C 0.85188 0.98575 0.38216 0.0
C1084 C 0.84341 0.00229 0.40205 0.0
C1085 C 0.83851 0.99323 0.42688 0.0
C1086 C 0.83179 0.01505 0.44546 0.0
C1087 C 0.80343 0.01294 0.45467 0.0
C1088 C 0.85077 0.01582 0.46876 0.0
C1089 C 0.83541 0.03805 0.42768 0.0
C1090 C 0.8415 0.0304 0.40255 0.0
C1091 C 0.84848 0.04839 0.38354 0.0
C1092 C 0.85018 0.07475 0.39071 0.0
C1093 C 0.8452 0.08265 0.41671 0.0
C1094 C 0.83665 0.06412 0.43497 0.0
H1095 H 0.04339 0.86459 0.52419 0.0
H1096 H 0.08316 0.88733 0.45329 0.0
H1097 H 0.04098 0.89092 0.43067 0.0
H1098 H -0.00286 0.8248 0.49386 0.0
H1099 H 0.97052 0.83339 0.51507 0.0
H1100 H 0.00347 0.83512 0.5269 0.0
H1101 H -0.00283 0.88358 0.5396 0.0
H1102 H 0.96396 0.88196 0.52839 0.0
H1103 H 0.98559 0.90629 0.51553 0.0
H1104 H -0.00474 0.88829 0.41467 0.0
H1105 H 0.94807 0.88354 0.4073 0.0
H1106 H 0.93792 0.86274 0.48861 0.0
C1107 C 0.04318 0.8711 0.50415 0.0
C1108 C 0.06654 0.87588 0.49056 0.0
C1109 C 0.06548 0.88366 0.46411 0.0
C1110 C 0.04164 0.88569 0.45107 0.0
C1111 C 0.01905 0.87994 0.46474 0.0
C1112 C 0.01953 0.87312 0.49076 0.0
C1113 C 0.99251 0.86681 0.50054 0.0
C1114 C 0.99083 0.83834 0.50962 0.0
C1115 C 0.98433 0.8858 0.5223 0.0
C1116 C 0.97684 0.87109 0.47592 0.0
C1117 C 0.99255 0.87851 0.45548 0.0
C1118 C 0.98267 0.88276 0.43058 0.0
C1119 C 0.95586 0.87985 0.42656 0.0
C1120 C 0.93926 0.8729 0.44739 0.0
C1121 C 0.95003 0.8683 0.47232 0.0
H1122 H 0.16779 0.93461 0.50697 0.0
H1123 H 0.14833 0.91824 0.58758 0.0
H1124 H 0.14056 0.96492 0.59536 0.0
H1125 H 0.19781 0.00053 0.52055 0.0
H1126 H 0.18498 0.01352 0.49066 0.0
H1127 H 0.1942 0.97964 0.4925 0.0
H1128 H 0.14843 0.9661 0.4769 0.0
H1129 H 0.13844 -0.00041 0.47526 0.0
H1130 H 0.12026 0.97697 0.49483 0.0
H1131 H 0.12735 0.01175 0.59225 0.0
H1132 H 0.11734 0.05723 0.58037 0.0
H1133 H 0.14413 0.04189 0.50153 0.0
C1134 C 0.16289 0.94088 0.52654 0.0
C1135 C 0.15829 0.92272 0.54652 0.0
C1136 C 0.15184 0.93177 0.57187 0.0
C1137 C 0.14724 0.95825 0.57649 0.0
C1138 C 0.14963 0.97531 0.55568 0.0
C1139 C 0.15816 0.96715 0.53145 0.0
C1140 C 0.15755 0.98905 0.51195 0.0
C1141 C 0.18528 -0.00388 0.50341 0.0
C1142 C 0.14012 0.98251 0.48836 0.0
C1143 C 0.14579 0.0103 0.52855 0.0
C1144 C 0.14167 0.00216 0.5538 0.0
C1145 C 0.13071 0.01844 0.57258 0.0
C1146 C 0.12483 0.0441 0.56559 0.0
C1147 C 0.12964 0.05298 0.53994 0.0
C1148 C 0.13973 0.0356 0.52114 0.0
H1149 H 0.05117 0.13862 0.52393 0.0
H1150 H 0.09025 0.16872 0.45551 0.0
H1151 H 0.04808 0.17215 0.43278 0.0
H1152 H 0.00821 0.09871 0.49109 0.0
H1153 H 0.98079 0.10428 0.51224 0.0
H1154 H 0.01335 0.10753 0.52476 0.0
H1155 H 0.00359 0.1548 0.53998 0.0
H1156 H 0.97073 0.15145 0.52815 0.0
H1157 H 0.99072 0.17792 0.51698 0.0
H1158 H 0.00234 0.1686 0.4162 0.0
H1159 H 0.95539 0.16196 0.4084 0.0
H1160 H 0.94717 0.13262 0.48728 0.0
C1161 C 0.05077 0.1467 0.50448 0.0
C1162 C 0.07389 0.15342 0.49148 0.0
C1163 C 0.07267 0.16341 0.4658 0.0
C1164 C 0.04886 0.16541 0.45271 0.0
C1165 C 0.02654 0.15741 0.46564 0.0
C1166 C 0.02721 0.14863 0.49107 0.0
C1167 C 0.00067 0.13987 0.50001 0.0
C1168 C 0.00078 0.11088 0.50745 0.0
C1169 C 0.99085 0.15704 0.52261 0.0
C1170 C 0.98518 0.14448 0.47542 0.0
C1171 C 0.00034 0.15478 0.45587 0.0
C1172 C 0.9902 0.16064 0.43139 0.0
C1173 C 0.96357 0.15657 0.42708 0.0
C1174 C 0.94757 0.14663 0.44716 0.0
C1175 C 0.9588 0.14006 0.47141 0.0
H1176 H 0.18715 0.22273 0.47448 0.0
H1177 H 0.1832 0.15601 0.42238 0.0
H1178 H 0.17502 0.18507 0.38539 0.0
H1179 H 0.13657 0.25495 0.45005 0.0
H1180 H 0.14941 0.28751 0.45245 0.0
H1181 H 0.16125 0.26264 0.4739 0.0
H1182 H 0.20852 0.27089 0.45865 0.0
H1183 H 0.1969 0.29625 0.4374 0.0
H1184 H 0.21606 0.26982 0.42436 0.0
H1185 H 0.1565 0.21913 0.35695 0.0
H1186 H 0.13487 0.25758 0.33753 0.0
H1187 H 0.15339 0.30273 0.40672 0.0
C1188 C 0.18579 0.21438 0.4551 0.0
C1189 C 0.1857 0.18717 0.45133 0.0
C1190 C 0.1832 0.17685 0.42576 0.0
C1191 C 0.17864 0.19319 0.40455 0.0
C1192 C 0.17714 0.21984 0.40913 0.0
C1193 C 0.18132 0.2305 0.43363 0.0
C1194 C 0.17579 0.25944 0.43378 0.0
C1195 C 0.15449 0.26652 0.45371 0.0
C1196 C 0.20081 0.27502 0.43884 0.0
C1197 C 0.16631 0.26295 0.40608 0.0
C1198 C 0.16742 0.23993 0.39209 0.0
C1199 C 0.15639 0.23754 0.3673 0.0
C1200 C 0.14397 0.25931 0.35652 0.0
C1201 C 0.143 0.28306 0.37048 0.0
C1202 C 0.15466 0.28494 0.39534 0.0
H1203 H 0.80799 0.16984 0.35714 0.0
H1204 H 0.76417 0.2065 0.41958 0.0
H1205 H 0.72325 0.19312 0.39817 0.0
H1206 H 0.75835 0.17968 0.30276 0.0
H1207 H 0.76591 0.14796 0.28959 0.0
H1208 H 0.79093 0.1669 0.30542 0.0
H1209 H 0.80022 0.12833 0.33646 0.0
H1210 H 0.77505 0.10949 0.32119 0.0
H1211 H 0.77409 0.11536 0.35584 0.0
H1212 H 0.6882 0.16774 0.37559 0.0
H1213 H 0.66231 0.1337 0.35366 0.0
H1214 H 0.72954 0.11227 0.3071 0.0
C1215 C 0.78981 0.17604 0.36583 0.0
C1216 C 0.78934 0.18925 0.39005 0.0
C1217 C 0.76509 0.19661 0.40091 0.0
C1218 C 0.7417 0.18906 0.38887 0.0
C1219 C 0.74295 0.17446 0.36588 0.0
C1220 C 0.76645 0.16837 0.35428 0.0
C1221 C 0.76304 0.14913 0.33211 0.0
C1222 C 0.76996 0.16167 0.30592 0.0
C1223 C 0.77903 0.12412 0.33671 0.0
C1224 C 0.73418 0.14405 0.33406 0.0
C1225 C 0.72277 0.15932 0.35316 0.0
C1226 C 0.6968 0.15615 0.36017 0.0
C1227 C 0.68227 0.13664 0.34765 0.0
C1228 C 0.69388 0.12024 0.32862 0.0
C1229 C 0.71999 0.12456 0.32139 0.0
H1230 H 0.93789 0.72029 0.30655 0.0
H1231 H 0.90036 0.65283 0.34029 0.0
H1232 H 0.86703 0.68138 0.35976 0.0
H1233 H 0.93685 0.75542 0.35947 0.0
H1234 H 0.93114 0.78688 0.34514 0.0
H1235 H 0.94643 0.76168 0.32631 0.0
H1236 H 0.91099 0.76531 0.29053 0.0
H1237 H 0.89588 0.7913 0.30882 0.0
H1238 H 0.87712 0.76317 0.29933 0.0
H1239 H 0.84449 0.71754 0.38393 0.0
H1240 H 0.83356 0.75789 0.40827 0.0
H1241 H 0.88828 0.80088 0.36087 0.0
C1242 C 0.92198 0.71134 0.31699 0.0
C1243 C 0.92183 0.68438 0.32198 0.0
C1244 C 0.90083 0.67345 0.33602 0.0
C1245 C 0.88179 0.68955 0.34724 0.0
C1246 C 0.88391 0.71638 0.3439 0.0
C1247 C 0.90325 0.72714 0.32864 0.0
C1248 C 0.90431 0.75639 0.33163 0.0
C1249 C 0.93126 0.76559 0.34122 0.0
C1250 C 0.8966 0.76983 0.30606 0.0
C1251 C 0.88379 0.76026 0.35223 0.0
C1252 C 0.87165 0.73716 0.35859 0.0
C1253 C 0.85345 0.73583 0.37868 0.0
C1254 C 0.84752 0.75873 0.39252 0.0
C1255 C 0.8603 0.78233 0.38655 0.0
C1256 C 0.87837 0.78304 0.36597 0.0
H1257 H 0.27152 0.87715 0.37885 0.0
H1258 H 0.34375 0.86222 0.42004 0.0
H1259 H 0.32032 0.83445 0.45124 0.0
H1260 H 0.2333 0.88505 0.43171 0.0
H1261 H 0.2048 0.86932 0.41853 0.0
H1262 H 0.22802 0.88381 0.39698 0.0
H1263 H 0.2331 0.83972 0.37258 0.0
H1264 H 0.20988 0.82503 0.39429 0.0
H1265 H 0.2418 0.81092 0.39055 0.0
H1266 H 0.2878 0.81592 0.48267 0.0
H1267 H 0.24902 0.80766 0.51029 0.0
H1268 H 0.19899 0.83203 0.44703 0.0
C1269 C 0.28248 0.86745 0.39402 0.0
C1270 C 0.30938 0.87175 0.397 0.0
C1271 C 0.32312 0.85894 0.41722 0.0
C1272 C 0.31 0.84308 0.43502 0.0
C1273 C 0.28328 0.83973 0.43194 0.0
C1274 C 0.26977 0.85124 0.41165 0.0
C1275 C 0.24086 0.84676 0.41398 0.0
C1276 C 0.22589 0.87277 0.41541 0.0
C1277 C 0.23083 0.82958 0.39151 0.0
C1278 C 0.24005 0.83239 0.43957 0.0
C1279 C 0.26468 0.82807 0.44956 0.0
C1280 C 0.26845 0.81832 0.47469 0.0
C1281 C 0.24645 0.81359 0.49022 0.0
C1282 C 0.22133 0.81866 0.48032 0.0
C1283 C 0.21814 0.82728 0.45453 0.0
H1284 H 0.08969 0.74325 0.57236 0.0
H1285 H 0.04497 0.81035 0.54693 0.0
H1286 H 0.00515 0.79092 0.56447 0.0
H1287 H 0.03697 0.69467 0.5591 0.0
H1288 H 0.04554 0.67563 0.58724 0.0
H1289 H 0.07026 0.69361 0.57021 0.0
H1290 H 0.08282 0.71668 0.6135 0.0
H1291 H 0.05779 0.69921 0.63052 0.0
H1292 H 0.05829 0.73429 0.63147 0.0
H1293 H 0.97138 0.76743 0.58924 0.0
H1294 H 0.94388 0.73745 0.6146 0.0
H1295 H 0.00958 0.6848 0.62295 0.0
C1296 C 0.0714 0.75345 0.56992 0.0
C1297 C 0.07048 0.77839 0.55859 0.0
C1298 C 0.0462 0.79134 0.5559 0.0
C1299 C 0.02342 0.78049 0.56576 0.0
C1300 C 0.02512 0.75651 0.57796 0.0
C1301 C 0.04828 0.7428 0.57961 0.0
C1302 C 0.04461 0.71768 0.59443 0.0
C1303 C 0.04964 0.694 0.57668 0.0
C1304 C 0.06191 0.71695 0.61893 0.0
C1305 C 0.01608 0.71996 0.60148 0.0
C1306 C 0.00524 0.74252 0.59179 0.0
C1307 C 0.97948 0.74948 0.59666 0.0
C1308 C 0.96411 0.7325 0.61131 0.0
C1309 C 0.9746 0.70885 0.62069 0.0
C1310 C 0.00099 0.7027 0.61588 0.0
H1311 H 0.2518 0.98915 0.61251 0.0
H1312 H 0.24644 0.00792 0.69481 0.0
H1313 H 0.21682 0.04439 0.68454 0.0
H1314 H 0.26092 0.04909 0.59226 0.0
H1315 H 0.24254 0.04718 0.56235 0.0
H1316 H 0.25627 0.0182 0.57607 0.0
H1317 H 0.21101 -0.00334 0.57647 0.0
H1318 H 0.1964 0.02562 0.56308 0.0
H1319 H 0.18446 0.01235 0.59322 0.0
H1320 H 0.19484 0.08398 0.66436 0.0
H1321 H 0.18168 0.12113 0.63624 0.0
H1322 H 0.20553 0.07733 0.56797 0.0
C1323 C 0.24352 0.00021 0.62851 0.0
C1324 C 0.25145 -0.00428 0.65443 0.0
C1325 C 0.24041 0.0108 0.6748 0.0
C1326 C 0.22364 0.03167 0.66912 0.0
C1327 C 0.21795 0.03691 0.64307 0.0
C1328 C 0.22724 0.02122 0.62312 0.0
C1329 C 0.2217 0.03278 0.59668 0.0
C1330 C 0.24685 0.03707 0.58096 0.0
C1331 C 0.20224 0.01584 0.58146 0.0
C1332 C 0.20952 0.05826 0.60485 0.0
C1333 C 0.20665 0.06009 0.63156 0.0
C1334 C 0.19673 0.08258 0.6434 0.0
C1335 C 0.18955 0.10361 0.62743 0.0
C1336 C 0.19329 0.10213 0.60018 0.0
C1337 C 0.20308 0.07909 0.58888 0.0
H1338 H 0.89483 0.24369 0.5129 0.0
H1339 H 0.89811 0.16918 0.55221 0.0
H1340 H 0.92942 0.18738 0.58411 0.0
H1341 H 0.96259 0.25836 0.51961 0.0
H1342 H 0.95722 0.29274 0.52444 0.0
H1343 H 0.93456 0.27391 0.50531 0.0
H1344 H 0.89659 0.28898 0.53502 0.0
H1345 H 0.91905 0.30817 0.55396 0.0
H1346 H 0.89897 0.28425 0.56974 0.0
H1347 H 0.95958 0.21492 0.61282 0.0
H1348 H 0.98469 0.2494 0.63567 0.0
H1349 H 0.96344 0.30382 0.57466 0.0
C1350 C 0.90179 0.2313 0.52845 0.0
C1351 C 0.89376 0.20515 0.5303 0.0
C1352 C 0.90386 0.18938 0.55057 0.0
C1353 C 0.92174 0.19949 0.56869 0.0
C1354 C 0.9296 0.22528 0.56603 0.0
C1355 C 0.91992 0.2409 0.54636 0.0
C1356 C 0.93155 0.26783 0.54744 0.0
C1357 C 0.94743 0.27353 0.52273 0.0
C1358 C 0.91028 0.28852 0.55181 0.0
C1359 C 0.94895 0.2651 0.57105 0.0
C1360 C 0.94766 0.2405 0.58163 0.0
C1361 C 0.96095 0.2342 0.60454 0.0
C1362 C 0.97526 0.25385 0.61734 0.0
C1363 C 0.97619 0.27936 0.60704 0.0
C1364 C 0.96344 0.28456 0.58315 0.0
H1365 H 0.72324 0.98587 0.56827 0.0
H1366 H 0.6632 0.92702 0.57708 0.0
H1367 H 0.68669 0.8981 0.54717 0.0
H1368 H 0.73509 0.97416 0.50001 0.0
H1369 H 0.7698 0.97866 0.50221 0.0
H1370 H 0.74857 -0.00458 0.52463 0.0
H1371 H 0.77354 0.97554 0.56368 0.0
H1372 H 0.79503 0.95901 0.54137 0.0
H1373 H 0.77754 0.94072 0.56554 0.0
H1374 H 0.71514 0.87574 0.51612 0.0
H1375 H 0.74996 0.85915 0.48778 0.0
H1376 H 0.79259 0.9315 0.49872 0.0
C1377 C 0.71524 0.9668 0.5641 0.0
C1378 C 0.69131 0.95882 0.57494 0.0
C1379 C 0.68138 0.93374 0.56887 0.0
C1380 C 0.69453 0.91711 0.55185 0.0
C1381 C 0.71765 0.92573 0.54104 0.0
C1382 C 0.72817 0.9498 0.547 0.0
C1383 C 0.75361 0.95384 0.53268 0.0
C1384 C 0.75163 0.97689 0.51376 0.0
C1385 C 0.77627 0.95748 0.55197 0.0
C1386 C 0.75569 0.92815 0.51809 0.0
C1387 C 0.73455 0.91243 0.52305 0.0
C1388 C 0.7319 0.88777 0.51205 0.0
C1389 C 0.75177 0.87857 0.49591 0.0
C1390 C 0.77409 0.89393 0.49109 0.0
C1391 C 0.77582 0.91923 0.50206 0.0
H1392 H 0.39065 0.104 0.22459 0.0
H1393 H 0.33402 0.07575 0.16833 0.0
H1394 H 0.31531 0.04703 0.20203 0.0
H1395 H 0.40387 0.04386 0.25164 0.0
H1396 H 0.40844 0.05581 0.28441 0.0
H1397 H 0.41467 0.07681 0.25722 0.0
H1398 H 0.3822 0.11085 0.27573 0.0
H1399 H 0.37595 0.08999 0.30312 0.0
H1400 H 0.34935 0.10114 0.28311 0.0
H1401 H 0.30538 0.01883 0.24098 0.0
H1402 H 0.30614 0.99227 0.2809 0.0
H1403 H 0.37062 0.03836 0.31055 0.0
C1404 C 0.37382 0.09237 0.21946 0.0
C1405 C 0.36353 0.0924 0.1939 0.0
C1406 C 0.34206 0.0762 0.18785 0.0
C1407 C 0.33129 0.05989 0.20687 0.0
C1408 C 0.34232 0.05997 0.23175 0.0
C1409 C 0.36315 0.07579 0.23801 0.0
C1410 C 0.37321 0.07048 0.26519 0.0
C1411 C 0.40172 0.06118 0.26456 0.0
C1412 C 0.36997 0.09455 0.28283 0.0
C1413 C 0.35507 0.04884 0.27317 0.0
C1414 C 0.33715 0.04328 0.25381 0.0
C1415 C 0.31915 0.02322 0.25637 0.0
C1416 C 0.31974 0.00824 0.27916 0.0
C1417 C 0.33842 0.01322 0.29895 0.0
C1418 C 0.356 0.03408 0.29592 0.0
H1419 H 0.02008 0.36815 0.26597 0.0
H1420 H 0.9822 0.35921 0.34087 0.0
H1421 H 0.93983 0.36901 0.32088 0.0
H1422 H 0.9843 0.42192 0.24562 0.0
H1423 H 0.98191 0.41215 0.21187 0.0
H1424 H 0.00881 0.40113 0.23138 0.0
H1425 H -0.003 0.35338 0.21952 0.0
H1426 H 0.96992 0.36469 0.20024 0.0
H1427 H 0.96464 0.34157 0.22598 0.0
H1428 H 0.90253 0.38473 0.29457 0.0
H1429 H 0.87228 0.40419 0.26265 0.0
H1430 H 0.93378 0.40311 0.20464 0.0
C1431 C 0.00273 0.36759 0.27788 0.0
C1432 C 0.00437 0.363 0.30491 0.0
C1433 C 0.98135 0.36289 0.3201 0.0
C1434 C 0.95715 0.3683 0.30895 0.0
C1435 C 0.95617 0.37368 0.28248 0.0
C1436 C 0.97823 0.37314 0.26702 0.0
C1437 C 0.97183 0.38151 0.23948 0.0
C1438 C 0.98766 0.40562 0.23167 0.0
C1439 C 0.9761 0.35893 0.22017 0.0
C1440 C 0.94313 0.38787 0.24232 0.0
C1441 C 0.9344 0.38282 0.26717 0.0
C1442 C 0.90897 0.38841 0.27487 0.0
C1443 C 0.89194 0.39956 0.25665 0.0
C1444 C 0.90051 0.40513 0.23109 0.0
C1445 C 0.92643 0.39892 0.22392 0.0
H1446 H 0.65343 0.941 0.27001 0.0
H1447 H 0.61499 0.01156 0.24406 0.0
H1448 H 0.57517 0.98657 0.23466 0.0
H1449 H 0.62679 0.90016 0.21996 0.0
H1450 H 0.62415 0.87211 0.24074 0.0
H1451 H 0.64863 0.89627 0.24721 0.0
H1452 H 0.63062 0.90148 0.29428 0.0
H1453 H 0.60573 0.87771 0.28738 0.0
H1454 H 0.59682 0.90967 0.29893 0.0
H1455 H 0.53995 0.95444 0.22764 0.0
H1456 H 0.51534 0.91596 0.2128 0.0
H1457 H 0.57653 0.86548 0.2413 0.0
C1458 C 0.63667 0.95107 0.26214 0.0
C1459 C 0.63732 0.97818 0.25767 0.0
C1460 C 0.61507 0.99075 0.24728 0.0
C1461 C 0.59221 0.97679 0.24226 0.0
C1462 C 0.59201 0.95021 0.24746 0.0
C1463 C 0.61381 0.93732 0.25651 0.0
C1464 C 0.60911 0.90825 0.25804 0.0
C1465 C 0.62829 0.89332 0.24043 0.0
C1466 C 0.61067 0.89873 0.28635 0.0
C1467 C 0.58146 0.90674 0.24778 0.0
C1468 C 0.5717 0.93134 0.24274 0.0
C1469 C 0.54726 0.93509 0.23165 0.0
C1470 C 0.53326 0.91315 0.2236 0.0
C1471 C 0.5439 0.88789 0.22643 0.0
C1472 C 0.56763 0.88455 0.23986 0.0
H1473 H 0.07032 0.60264 0.31233 0.0
H1474 H 0.10773 0.67793 0.31367 0.0
H1475 H 0.14848 0.65781 0.2972 0.0
H1476 H 0.13279 0.56168 0.32579 0.0
H1477 H 0.12054 0.53668 0.30422 0.0
H1478 H 0.09832 0.5558 0.3236 0.0
H1479 H 0.07286 0.56846 0.2819 0.0
H1480 H 0.09489 0.54946 0.26279 0.0
H1481 H 0.09018 0.58343 0.2554 0.0
H1482 H 0.1788 0.63291 0.26946 0.0
H1483 H 0.19293 0.60774 0.23099 0.0
H1484 H 0.13816 0.54717 0.2498 0.0
C1485 C 0.08752 0.61457 0.30992 0.0
C1486 C 0.0863 0.6416 0.31394 0.0
C1487 C 0.10866 0.65707 0.31062 0.0
C1488 C 0.13185 0.64572 0.30158 0.0
C1489 C 0.1323 0.61889 0.29671 0.0
C1490 C 0.11069 0.60347 0.30116 0.0
C1491 C 0.11419 0.57636 0.29022 0.0
C1492 C 0.11666 0.55643 0.31228 0.0
C1493 C 0.09175 0.56906 0.27145 0.0
C1494 C 0.13982 0.57971 0.27621 0.0
C1495 C 0.15062 0.604 0.28113 0.0
C1496 C 0.17124 0.6135 0.26625 0.0
C1497 C 0.17941 0.59897 0.24453 0.0
C1498 C 0.16679 0.57545 0.23803 0.0
C1499 C 0.14855 0.56472 0.25524 0.0
H1500 H 0.49786 0.86622 0.77629 0.0
H1501 H 0.4677 0.89088 0.85165 0.0
H1502 H 0.4276 0.90591 0.83086 0.0
H1503 H 0.46992 0.92089 0.73988 0.0
H1504 H 0.46265 0.90121 0.71162 0.0
H1505 H 0.48974 0.89287 0.7323 0.0
H1506 H 0.47056 0.84659 0.73815 0.0
H1507 H 0.44327 0.855 0.71777 0.0
H1508 H 0.43785 0.84302 0.75026 0.0
H1509 H 0.38978 0.91675 0.80291 0.0
H1510 H 0.35782 0.92591 0.76815 0.0
H1511 H 0.41202 0.8952 0.71073 0.0
C1512 C 0.48293 0.87497 0.78836 0.0
C1513 C 0.48606 0.87705 0.81567 0.0
C1514 C 0.46593 0.88874 0.83071 0.0
C1515 C 0.44293 0.89741 0.81912 0.0
C1516 C 0.44021 0.89456 0.79237 0.0
C1517 C 0.4597 0.88396 0.77705 0.0
C1518 C 0.45156 0.8834 0.74865 0.0
C1519 C 0.46954 0.90062 0.73215 0.0
C1520 C 0.45076 0.85533 0.7381 0.0
C1521 C 0.42444 0.89496 0.75065 0.0
C1522 C 0.4183 0.90122 0.77606 0.0
C1523 C 0.39434 0.91205 0.78285 0.0
C1524 C 0.37625 0.91706 0.763 0.0
C1525 C 0.38229 0.91129 0.7367 0.0
C1526 C 0.40668 0.89984 0.73063 0.0
H1527 H 0.01975 0.41205 0.73657 0.0
H1528 H 0.06269 0.34135 0.75217 0.0
H1529 H 0.08847 0.36455 0.78571 0.0
H1530 H 0.06816 0.45046 0.73313 0.0
H1531 H 0.05541 0.47921 0.7489 0.0
H1532 H 0.03355 0.45631 0.73409 0.0
H1533 H 0.00875 0.45058 0.77739 0.0
H1534 H 0.02992 0.47418 0.79261 0.0
H1535 H 0.02634 0.44231 0.80662 0.0
H1536 H 0.11653 0.39742 0.80815 0.0
H1537 H 0.14128 0.43632 0.82218 0.0
H1538 H 0.08169 0.48616 0.78918 0.0
C1539 C 0.03335 0.40113 0.74843 0.0
C1540 C 0.03907 0.37494 0.7423 0.0
C1541 C 0.05762 0.36123 0.75722 0.0
C1542 C 0.07251 0.37439 0.77609 0.0
C1543 C 0.06817 0.401 0.77989 0.0
C1544 C 0.04841 0.41409 0.76705 0.0
C1545 C 0.0503 0.44327 0.77126 0.0
C1546 C 0.05197 0.45814 0.7453 0.0
C1547 C 0.02747 0.45317 0.78796 0.0
C1548 C 0.07558 0.44474 0.78624 0.0
C1549 C 0.08512 0.42019 0.79183 0.0
C1550 C 0.10895 0.4167 0.80435 0.0
C1551 C 0.12302 0.43886 0.81191 0.0
C1552 C 0.11355 0.46412 0.80627 0.0
C1553 C 0.08958 0.46703 0.79323 0.0
H1554 H 0.63496 0.06336 0.70831 0.0
H1555 H 0.64465 0.12526 0.65229 0.0
H1556 H 0.62471 0.15647 0.68289 0.0
H1557 H 0.57544 0.0779 0.72542 0.0
H1558 H 0.57722 0.07121 0.75983 0.0
H1559 H 0.59921 0.05522 0.73781 0.0
H1560 H 0.6389 0.07265 0.76364 0.0
H1561 H 0.61698 0.0881 0.78638 0.0
H1562 H 0.64162 0.10705 0.77029 0.0
H1563 H 0.593 0.17708 0.7127 0.0
H1564 H 0.55823 0.18797 0.74436 0.0
H1565 H 0.57034 0.11373 0.78233 0.0
C1566 C 0.63444 0.08382 0.70335 0.0
C1567 C 0.64164 0.09213 0.67828 0.0
C1568 C 0.63957 0.11877 0.67168 0.0
C1569 C 0.62818 0.13659 0.68889 0.0
C1570 C 0.61928 0.12748 0.71273 0.0
C1571 C 0.623 0.10189 0.72041 0.0
C1572 C 0.60852 0.09631 0.74543 0.0
C1573 C 0.58895 0.07385 0.74188 0.0
C1574 C 0.62765 0.09071 0.76776 0.0
C1575 C 0.59477 0.12208 0.7495 0.0
C1576 C 0.60134 0.1399 0.73058 0.0
C1577 C 0.5884 0.16372 0.72826 0.0
C1578 C 0.56851 0.16963 0.74603 0.0
C1579 C 0.56204 0.15186 0.76588 0.0
C1580 C 0.5755 0.12795 0.7677 0.0
H1581 H 0.88479 0.61853 0.72767 0.0
H1582 H 0.8127 0.62444 0.68392 0.0
H1583 H 0.79427 0.58823 0.70952 0.0
H1584 H 0.88671 0.55078 0.72829 0.0
H1585 H 0.90049 0.54824 0.7605 0.0
H1586 H 0.9068 0.5766 0.7411 0.0
H1587 H 0.88871 0.60649 0.7778 0.0
H1588 H 0.88292 0.5782 0.79752 0.0
H1589 H 0.85666 0.60046 0.79065 0.0
H1590 H 0.78527 0.5487 0.73769 0.0
H1591 H 0.78509 0.51219 0.76913 0.0
H1592 H 0.86395 0.53211 0.79223 0.0
C1593 C 0.86479 0.6129 0.72409 0.0
C1594 C 0.85002 0.62453 0.70409 0.0
C1595 C 0.82423 0.61594 0.69939 0.0
C1596 C 0.81367 0.5953 0.71369 0.0
C1597 C 0.82924 0.58344 0.73245 0.0
C1598 C 0.85415 0.59215 0.73784 0.0
C1599 C 0.86753 0.57524 0.75777 0.0
C1600 C 0.89181 0.56194 0.74621 0.0
C1601 C 0.87434 0.59104 0.7824 0.0
C1602 C 0.84622 0.55574 0.76291 0.0
C1603 C 0.8243 0.5606 0.7481 0.0
C1604 C 0.80227 0.5448 0.74953 0.0
C1605 C 0.80242 0.524 0.76723 0.0
C1606 C 0.82443 0.51939 0.7832 0.0
C1607 C 0.84671 0.53521 0.78046 0.0
H1608 H 0.21636 0.47761 0.10961 0.0
H1609 H 0.15537 0.49988 0.05555 0.0
H1610 H 0.17045 0.46582 0.02456 0.0
H1611 H 0.2659 0.46103 0.06164 0.0
H1612 H 0.27757 0.43426 0.08098 0.0
H1613 H 0.26331 0.46226 0.09665 0.0
H1614 H 0.23047 0.43188 0.11996 0.0
H1615 H 0.24412 0.40389 0.10376 0.0
H1616 H 0.20986 0.41083 0.10075 0.0
H1617 H 0.193 0.42754 -0.00019 0.0
H1618 H 0.2213 0.39137 0.98414 0.0
H1619 H 0.26252 0.39305 0.05804 0.0
C1620 C 0.20653 0.47589 0.09098 0.0
C1621 C 0.1849 0.49155 0.08487 0.0
C1622 C 0.17216 0.48813 0.06054 0.0
C1623 C 0.1805 0.46878 0.04288 0.0
C1624 C 0.20134 0.4529 0.05009 0.0
C1625 C 0.21416 0.45647 0.07358 0.0
C1626 C 0.23506 0.43635 0.07772 0.0
C1627 C 0.26205 0.44924 0.07933 0.0
C1628 C 0.22953 0.41976 0.10198 0.0
C1629 C 0.23199 0.42066 0.05303 0.0
C1630 C 0.21278 0.43046 0.03699 0.0
C1631 C 0.20793 0.4196 0.01239 0.0
C1632 C 0.22385 0.39887 0.00374 0.0
C1633 C 0.24406 0.38925 0.01988 0.0
C1634 C 0.24725 0.3998 0.04514 0.0
H1635 H 0.29123 0.65072 0.88477 0.0
H1636 H 0.25163 0.70649 0.93455 0.0
H1637 H 0.21048 0.69774 0.91096 0.0
H1638 H 0.25008 0.66082 0.8239 0.0
H1639 H 0.25149 0.62648 0.8166 0.0
H1640 H 0.27861 0.64224 0.83247 0.0
H1641 H 0.27621 0.60868 0.86993 0.0
H1642 H 0.2491 0.59302 0.85441 0.0
H1643 H 0.24609 0.60477 0.88743 0.0
H1644 H 0.17268 0.67592 0.88888 0.0
H1645 H 0.14208 0.64382 0.87044 0.0
H1646 H 0.20673 0.60208 0.83536 0.0
C1647 C 0.27411 0.66181 0.89013 0.0
C1648 C 0.27459 0.6793 0.91147 0.0
C1649 C 0.25176 0.69324 0.91806 0.0
C1650 C 0.22831 0.68837 0.90475 0.0
C1651 C 0.22823 0.66988 0.88468 0.0
C1652 C 0.25072 0.65712 0.87716 0.0
C1653 C 0.24512 0.6355 0.85781 0.0
C1654 C 0.25703 0.64164 0.83111 0.0
C1655 C 0.25468 0.60896 0.86803 0.0
C1656 C 0.21578 0.63689 0.85685 0.0
C1657 C 0.20638 0.65721 0.87195 0.0
C1658 C 0.17983 0.66039 0.87648 0.0
C1659 C 0.16259 0.64194 0.86598 0.0
C1660 C 0.17197 0.62038 0.85136 0.0
C1661 C 0.19884 0.61852 0.84602 0.0
H1662 H 0.43435 0.2341 0.83943 0.0
H1663 H 0.38214 0.16796 0.84318 0.0
H1664 H 0.35081 0.19443 0.86855 0.0
H1665 H 0.42513 0.25396 0.90371 0.0
H1666 H 0.42713 0.28837 0.89735 0.0
H1667 H 0.44374 0.2656 0.87642 0.0
H1668 H 0.41961 0.28418 0.83617 0.0
H1669 H 0.40318 0.30731 0.85693 0.0
H1670 H 0.38456 0.28584 0.83619 0.0
H1671 H 0.32677 0.22722 0.89634 0.0
H1672 H 0.31169 0.26377 0.92392 0.0
H1673 H 0.38086 0.30756 0.90334 0.0
C1674 C 0.41594 0.22544 0.84482 0.0
C1675 C 0.41043 0.19913 0.83894 0.0
C1676 C 0.38657 0.18819 0.84724 0.0
C1677 C 0.3687 0.20306 0.86167 0.0
C1678 C 0.37511 0.22873 0.86784 0.0
C1679 C 0.39813 0.23985 0.8596 0.0
C1680 C 0.40143 0.26704 0.87061 0.0
C1681 C 0.42579 0.26883 0.88805 0.0
C1682 C 0.40223 0.28729 0.84866 0.0
C1683 C 0.37674 0.26945 0.88646 0.0
C1684 C 0.36172 0.24725 0.88449 0.0
C1685 C 0.33829 0.24478 0.89787 0.0
C1686 C 0.32991 0.26565 0.91355 0.0
C1687 C 0.34504 0.28861 0.91587 0.0
C1688 C 0.36878 0.29034 0.90209 0.0
H1689 H 0.78979 0.3843 0.91995 0.0
H1690 H 0.74876 0.37998 0.84608 0.0
H1691 H 0.7182 0.34814 0.86483 0.0
H1692 H 0.78003 0.31578 0.94049 0.0
H1693 H 0.77464 0.32491 0.97402 0.0
H1694 H 0.79584 0.34417 0.9539 0.0
H1695 H 0.76859 0.38545 0.96423 0.0
H1696 H 0.74763 0.36642 0.98461 0.0
H1697 H 0.734 0.3851 0.95825 0.0
H1698 H 0.6902 0.32052 0.89189 0.0
H1699 H 0.66265 0.3035 0.92705 0.0
H1700 H 0.72069 0.32626 0.9842 0.0
C1701 C 0.77464 0.37622 0.90764 0.0
C1702 C 0.77167 0.3843 0.88154 0.0
C1703 C 0.75127 0.37397 0.86614 0.0
C1704 C 0.73406 0.35568 0.87651 0.0
C1705 C 0.73748 0.3481 0.90233 0.0
C1706 C 0.75703 0.35828 0.91783 0.0
C1707 C 0.75433 0.34951 0.94584 0.0
C1708 C 0.7776 0.33258 0.95403 0.0
C1709 C 0.75092 0.37302 0.9643 0.0
C1710 C 0.72967 0.33351 0.94383 0.0
C1711 C 0.72073 0.33243 0.91838 0.0
C1712 C 0.69716 0.32084 0.91181 0.0
C1713 C 0.68168 0.3112 0.93189 0.0
C1714 C 0.68978 0.31337 0.95819 0.0
C1715 C 0.7145 0.3237 0.96416 0.0
H1716 H 0.60939 0.70688 0.97074 0.0
H1717 H 0.69295 0.71621 0.97854 0.0
H1718 H 0.69204 0.7492 0.94335 0.0
H1719 H 0.6083 0.70668 0.90325 0.0
H1720 H 0.57767 0.7236 0.90043 0.0
H1721 H 0.58435 0.70412 0.92871 0.0
H1722 H 0.57546 0.74353 0.9586 0.0
H1723 H 0.56861 0.76374 0.93085 0.0
H1724 H 0.59333 0.77328 0.954 0.0
H1725 H 0.68145 0.7792 0.90461 0.0
H1726 H 0.66198 0.80551 0.86918 0.0
H1727 H 0.58653 0.77159 0.88524 0.0
C1728 C 0.62753 0.71622 0.96556 0.0
C1729 C 0.65127 0.70895 0.97744 0.0
C1730 C 0.67449 0.7217 0.96997 0.0
C1731 C 0.67416 0.74021 0.94978 0.0
C1732 C 0.65053 0.74551 0.93732 0.0
C1733 C 0.62764 0.73399 0.94522 0.0
C1734 C 0.60497 0.74147 0.92802 0.0
C1735 C 0.59315 0.71754 0.9143 0.0
C1736 C 0.58435 0.75642 0.94379 0.0
C1737 C 0.61858 0.75893 0.9089 0.0
C1738 C 0.64481 0.76129 0.91458 0.0
C1739 C 0.66099 0.77733 0.89997 0.0
C1740 C 0.64983 0.79197 0.87973 0.0
C1741 C 0.62287 0.79012 0.87406 0.0
C1742 C 0.60733 0.77284 0.88848 0.0
H1743 H 0.78581 0.53362 0.16104 0.0
H1744 H 0.74219 0.46167 0.15745 0.0
H1745 H 0.70514 0.48528 0.13728 0.0
H1746 H 0.7288 0.57992 0.17002 0.0
H1747 H 0.74401 0.60363 0.14926 0.0
H1748 H 0.76377 0.58251 0.16913 0.0
H1749 H 0.78869 0.56769 0.12783 0.0
H1750 H 0.7686 0.58803 0.10769 0.0
H1751 H 0.77088 0.55363 0.10092 0.0
H1752 H 0.67696 0.51475 0.11094 0.0
H1753 H 0.65773 0.54805 0.08269 0.0
H1754 H 0.72103 0.6009 0.10159 0.0
C1755 C 0.76786 0.5232 0.1572 0.0
C1756 C 0.76629 0.49611 0.16131 0.0
C1757 C 0.74321 0.4826 0.15513 0.0
C1758 C 0.72227 0.49585 0.14351 0.0
C1759 C 0.725 0.52243 0.13839 0.0
C1760 C 0.7471 0.53605 0.14541 0.0
C1761 C 0.74676 0.56354 0.13481 0.0
C1762 C 0.74576 0.58359 0.15714 0.0
C1763 C 0.77011 0.56848 0.11674 0.0
C1764 C 0.7215 0.56303 0.11973 0.0
C1765 C 0.70909 0.53928 0.12242 0.0
C1766 C 0.68622 0.53356 0.10915 0.0
C1767 C 0.67553 0.55268 0.09305 0.0
C1768 C 0.68778 0.57728 0.09006 0.0
C1769 C 0.71116 0.5824 0.10355 0.0
H1770 H 0.48191 0.73195 0.12344 0.0
H1771 H 0.43085 0.77887 0.17154 0.0
H1772 H 0.39386 0.76809 0.14253 0.0
H1773 H 0.4599 0.7506 0.06611 0.0
H1774 H 0.46065 0.72013 0.04872 0.0
H1775 H 0.48244 0.72545 0.07568 0.0
H1776 H 0.46601 0.68527 0.09975 0.0
H1777 H 0.44413 0.6777 0.0733 0.0
H1778 H 0.43171 0.68125 0.10584 0.0
H1779 H 0.36505 0.75946 0.10278 0.0
H1780 H 0.34382 0.74414 0.06195 0.0
H1781 H 0.41378 0.70173 0.04139 0.0
C1782 C 0.46263 0.73868 0.12872 0.0
C1783 C 0.45916 0.75625 0.14965 0.0
C1784 C 0.43381 0.76523 0.15569 0.0
C1785 C 0.41278 0.75947 0.13909 0.0
C1786 C 0.41742 0.74405 0.11711 0.0
C1787 C 0.4415 0.73285 0.11257 0.0
C1788 C 0.44193 0.71809 0.08701 0.0
C1789 C 0.46245 0.72922 0.0683 0.0
C1790 C 0.44621 0.68885 0.09176 0.0
C1791 C 0.41469 0.72351 0.07734 0.0
C1792 C 0.40082 0.73868 0.09479 0.0
C1793 C 0.3756 0.7472 0.08922 0.0
C1794 C 0.36387 0.73887 0.06582 0.0
C1795 C 0.3774 0.72216 0.04854 0.0
C1796 C 0.40321 0.7148 0.05422 0.0
H1797 H 0.50392 0.17362 0.09909 0.0
H1798 H 0.47015 0.22345 0.15856 0.0
H1799 H 0.50529 0.25579 0.15126 0.0
H1800 H 0.56961 0.18455 0.11389 0.0
H1801 H 0.58041 0.18463 0.0805 0.0
H1802 H 0.55205 0.16624 0.0895 0.0
H1803 H 0.52432 0.19072 0.05521 0.0
H1804 H 0.5527 0.20877 0.04562 0.0
H1805 H 0.52365 0.22581 0.05555 0.0
H1806 H 0.54607 0.28072 0.13928 0.0
H1807 H 0.58526 0.29973 0.1196 0.0
H1808 H 0.59116 0.23333 0.06707 0.0
C1809 C 0.50371 0.19152 0.11036 0.0
C1810 C 0.48448 0.19616 0.12943 0.0
C1811 C 0.48467 0.21975 0.14372 0.0
C1812 C 0.50464 0.23803 0.13985 0.0
C1813 C 0.52383 0.23238 0.1214 0.0
C1814 C 0.52315 0.20993 0.10653 0.0
C1815 C 0.54574 0.20842 0.08774 0.0
C1816 C 0.56297 0.18454 0.09325 0.0
C1817 C 0.53602 0.20845 0.05935 0.0
C1818 C 0.55964 0.23344 0.09457 0.0
C1819 C 0.54682 0.24689 0.11415 0.0
C1820 C 0.55613 0.27044 0.12383 0.0
C1821 C 0.57859 0.28096 0.1126 0.0
C1822 C 0.59143 0.26804 0.09171 0.0
C1823 C 0.582 0.24368 0.08305 0.0
H1824 H 0.85309 0.69423 0.57284 0.0
H1825 H 0.86726 0.74227 0.64137 0.0
H1826 H 0.8603 0.78167 0.61497 0.0
H1827 H 0.88701 0.73286 0.52922 0.0
H1828 H 0.86508 0.72808 0.50217 0.0
H1829 H 0.86803 0.70346 0.52683 0.0
H1830 H 0.81836 0.70546 0.53522 0.0
H1831 H 0.81515 0.72983 0.51028 0.0
H1832 H 0.80326 0.73631 0.5427 0.0
H1833 H 0.85649 0.81552 0.58057 0.0
H1834 H 0.85271 0.84208 0.54103 0.0
H1835 H 0.84072 0.77205 0.49466 0.0
C1836 C 0.85409 0.71297 0.58255 0.0
C1837 C 0.86061 0.71509 0.60929 0.0
C1838 C 0.86213 0.74009 0.621 0.0
C1839 C 0.85827 0.76259 0.60614 0.0
C1840 C 0.85278 0.75975 0.57968 0.0
C1841 C 0.85036 0.7356 0.56803 0.0
C1842 C 0.84573 0.73791 0.53895 0.0
C1843 C 0.86778 0.72481 0.52339 0.0
C1844 C 0.81903 0.72672 0.53135 0.0
C1845 C 0.84632 0.7672 0.536 0.0
C1846 C 0.85042 0.77938 0.55975 0.0
C1847 C 0.85294 0.80624 0.56191 0.0
C1848 C 0.85094 0.82113 0.53925 0.0
C1849 C 0.84636 0.80917 0.51468 0.0
C1850 C 0.84399 0.7818 0.51314 0.0
H1851 H 0.29925 0.86273 0.63153 0.0
H1852 H 0.2592 0.88432 0.70276 0.0
H1853 H 0.22233 0.85632 0.69022 0.0
H1854 H 0.24769 0.86812 0.59217 0.0
H1855 H 0.25497 0.84117 0.57074 0.0
H1856 H 0.28079 0.85715 0.5881 0.0
H1857 H 0.29491 0.81311 0.60814 0.0
H1858 H 0.26902 0.79693 0.59069 0.0
H1859 H 0.2715 0.7938 0.62558 0.0
H1860 H 0.18658 0.83479 0.66614 0.0
H1861 H 0.15505 0.82108 0.63242 0.0
H1862 H 0.21796 0.81208 0.57699 0.0
C1863 C 0.28324 0.86063 0.64503 0.0
C1864 C 0.28221 0.87554 0.66822 0.0
C1865 C 0.26047 0.873 0.68494 0.0
C1866 C 0.23948 0.857 0.67804 0.0
C1867 C 0.24053 0.84348 0.65446 0.0
C1868 C 0.262 0.84487 0.6383 0.0
C1869 C 0.25674 0.8316 0.61237 0.0
C1870 C 0.26024 0.85065 0.58953 0.0
C1871 C 0.27407 0.80742 0.60901 0.0
C1872 C 0.22848 0.82401 0.61587 0.0
C1873 C 0.21966 0.83053 0.6405 0.0
C1874 C 0.19341 0.8288 0.64709 0.0
C1875 C 0.17561 0.82104 0.62783 0.0
C1876 C 0.18416 0.81503 0.60231 0.0
C1877 C 0.21103 0.81561 0.59662 0.0
H1878 H 0.07612 0.27251 0.66228 0.0
H1879 H 0.11415 0.34225 0.6341 0.0
H1880 H 0.14624 0.31506 0.61077 0.0
H1881 H 0.13593 0.2299 0.66633 0.0
H1882 H 0.11756 0.20218 0.65501 0.0
H1883 H 0.10194 0.22702 0.67442 0.0
H1884 H 0.06705 0.23275 0.63831 0.0
H1885 H 0.08267 0.20834 0.61868 0.0
H1886 H 0.07722 0.24041 0.60564 0.0
H1887 H 0.16934 0.27993 0.58407 0.0
H1888 H 0.18051 0.24064 0.55769 0.0
H1889 H 0.12593 0.19543 0.60298 0.0
C1890 C 0.09174 0.28216 0.65204 0.0
C1891 C 0.09256 0.30951 0.65012 0.0
C1892 C 0.11317 0.3213 0.6361 0.0
C1893 C 0.13154 0.306 0.62274 0.0
C1894 C 0.12923 0.27899 0.62386 0.0
C1895 C 0.10999 0.26724 0.63852 0.0
C1896 C 0.10924 0.23822 0.63399 0.0
C1897 C 0.11662 0.22346 0.65892 0.0
C1898 C 0.08248 0.22945 0.62352 0.0
C1899 C 0.13011 0.23558 0.61353 0.0
C1900 C 0.14197 0.25907 0.60823 0.0
C1901 C 0.16051 0.26134 0.58844 0.0
C1902 C 0.16672 0.23906 0.57353 0.0
C1903 C 0.15387 0.21526 0.57827 0.0
C1904 C 0.13591 0.21352 0.59889 0.0
H1905 H 0.80221 0.11638 0.52197 0.0
H1906 H 0.76008 0.1821 0.4895 0.0
H1907 H 0.7194 0.1655 0.50907 0.0
H1908 H 0.75243 0.06868 0.5121 0.0
H1909 H 0.7594 0.05198 0.54212 0.0
H1910 H 0.78493 0.06901 0.52536 0.0
H1911 H 0.79455 0.0961 0.56711 0.0
H1912 H 0.76915 0.07908 0.58402 0.0
H1913 H 0.76857 0.11412 0.58242 0.0
H1914 H 0.68336 0.14098 0.53169 0.0
H1915 H 0.65531 0.11217 0.55784 0.0
H1916 H 0.72213 0.06347 0.57558 0.0
C1917 C 0.78448 0.12738 0.51888 0.0
C1918 C 0.78429 0.15052 0.50416 0.0
C1919 C 0.76067 0.16436 0.50081 0.0
C1920 C 0.73749 0.15503 0.51172 0.0
C1921 C 0.73842 0.13197 0.52591 0.0
C1922 C 0.76137 0.11846 0.52961 0.0
C1923 C 0.75745 0.09446 0.546 0.0
C1924 C 0.76393 0.06957 0.53046 0.0
C1925 C 0.77337 0.09605 0.57139 0.0
C1926 C 0.72866 0.09664 0.55119 0.0
C1927 C 0.71794 0.11822 0.53925 0.0
C1928 C 0.69155 0.12407 0.54118 0.0
C1929 C 0.6758 0.10756 0.55599 0.0
C1930 C 0.68662 0.08568 0.56884 0.0
C1931 C 0.71335 0.08016 0.56619 0.0
H1932 H 0.91554 0.23066 0.38232 0.0
H1933 H 0.89702 0.26499 0.45762 0.0
H1934 H 0.93757 0.2906 0.45593 0.0
H1935 H 0.9825 0.22308 0.39354 0.0
H1936 H 0.99227 0.23096 0.3608 0.0
H1937 H 0.96079 0.21679 0.36661 0.0
H1938 H 0.93804 0.25553 0.34355 0.0
H1939 H 0.96948 0.26934 0.33686 0.0
H1940 H 0.94532 0.28833 0.35388 0.0
H1941 H 0.98146 0.30987 0.4475 0.0
H1942 H 0.02205 0.32754 0.42945 0.0
H1943 H 0.01202 0.27987 0.36001 0.0
C1944 C 0.91965 0.244 0.39822 0.0
C1945 C 0.90304 0.24587 0.42006 0.0
C1946 C 0.90925 0.26346 0.44051 0.0
C1947 C 0.93241 0.27782 0.43991 0.0
C1948 C 0.94897 0.2744 0.4187 0.0
C1949 C 0.94262 0.25837 0.39798 0.0
C1950 C 0.9638 0.258 0.37757 0.0
C1951 C 0.97552 0.23058 0.37446 0.0
C1952 C 0.95355 0.26843 0.35142 0.0
C1953 C 0.98306 0.27652 0.38996 0.0
C1954 C 0.97427 0.28548 0.41383 0.0
C1955 C 0.98848 0.3031 0.42878 0.0
C1956 C 0.01162 0.31286 0.41842 0.0
C1957 C 0.02024 0.3051 0.39329 0.0
C1958 C 0.00617 0.28598 0.37936 0.0
H1959 H 0.72784 -0.00339 0.36881 0.0
H1960 H 0.74786 0.99406 0.28674 0.0
H1961 H 0.77727 0.95695 0.29511 0.0
H1962 H 0.79264 0.97288 0.39474 0.0
H1963 H 0.77676 0.95437 0.41981 0.0
H1964 H 0.76257 0.98443 0.40862 0.0
H1965 H 0.71964 0.96038 0.39829 0.0
H1966 H 0.73348 0.93002 0.40868 0.0
H1967 H 0.72003 0.93284 0.37635 0.0
H1968 H 0.7982 0.91543 0.31114 0.0
H1969 H 0.81273 0.87593 0.33457 0.0
H1970 H 0.77592 0.9047 0.40509 0.0
C1971 C 0.73922 0.98897 0.35275 0.0
C1972 C 0.73551 -0.00182 0.32712 0.0
C1973 C 0.75058 0.98751 0.30659 0.0
C1974 C 0.7672 0.96628 0.31113 0.0
C1975 C 0.76868 0.95629 0.33632 0.0
C1976 C 0.75554 0.9677 0.35691 0.0
C1977 C 0.75799 0.95175 0.38149 0.0
C1978 C 0.77342 0.96674 0.40241 0.0
C1979 C 0.73119 0.94326 0.39177 0.0
C1980 C 0.7733 0.92885 0.37118 0.0
C1981 C 0.7798 0.93199 0.34527 0.0
C1982 C 0.79347 0.91293 0.33151 0.0
C1983 C 0.80133 0.89045 0.34484 0.0
C1984 C 0.79498 0.88706 0.37146 0.0
C1985 C 0.78054 0.90644 0.38459 0.0
H1986 H 0.01276 0.73364 0.39712 0.0
H1987 H 0.05709 0.73793 0.32549 0.0
H1988 H 0.08806 0.76793 0.34693 0.0
H1989 H 0.02919 0.80173 0.42365 0.0
H1990 H 0.0312 0.78883 0.45617 0.0
H1991 H 0.00842 0.77517 0.43311 0.0
H1992 H 0.0284 0.72958 0.44118 0.0
H1993 H 0.0518 0.74304 0.46344 0.0
H1994 H 0.06268 0.7245 0.43559 0.0
H1995 H 0.11886 0.78972 0.37858 0.0
H1996 H 0.14522 0.80303 0.41693 0.0
H1997 H 0.0823 0.78027 0.46806 0.0
C1998 C 0.02829 0.74185 0.38556 0.0
C1999 C 0.03254 0.73345 0.35968 0.0
C2000 C 0.05327 0.74434 0.34526 0.0
C2001 C 0.07105 0.7613 0.35735 0.0
C2002 C 0.06756 0.76733 0.38367 0.0
C2003 C 0.04633 0.75831 0.39746 0.0
C2004 C 0.04896 0.76392 0.42632 0.0
C2005 C 0.02822 0.78359 0.43533 0.0
C2006 C 0.04791 0.73876 0.44255 0.0
C2007 C 0.07575 0.77587 0.42688 0.0
C2008 C 0.08588 0.7785 0.4021 0.0
C2009 C 0.11093 0.78809 0.39802 0.0
C2010 C 0.12582 0.79536 0.41985 0.0
C2011 C 0.11585 0.79219 0.44532 0.0
C2012 C 0.0905 0.78245 0.44877 0.0
H2013 H 0.2021 0.06466 0.45992 0.0
H2014 H 0.2591 0.09564 0.51436 0.0
H2015 H 0.29179 0.06455 0.49713 0.0
H2016 H 0.22419 -0.00383 0.45922 0.0
H2017 H 0.21817 0.99291 0.4248 0.0
H2018 H 0.19856 0.01484 0.444 0.0
H2019 H 0.21081 0.05255 0.41285 0.0
H2020 H 0.2306 0.03062 0.39392 0.0
H2021 H 0.24466 0.05988 0.4074 0.0
H2022 H 0.31858 0.03303 0.47201 0.0
H2023 H 0.33919 0.00495 0.43903 0.0
H2024 H 0.26488 -0.00481 0.39987 0.0
C2025 C 0.22132 0.06459 0.46861 0.0
C2026 C 0.22812 0.0824 0.48862 0.0
C2027 C 0.2536 0.08216 0.49902 0.0
C2028 C 0.27214 0.06445 0.48951 0.0
C2029 C 0.26481 0.04735 0.46958 0.0
C2030 C 0.24005 0.04736 0.45915 0.0
C2031 C 0.23788 0.02901 0.43601 0.0
C2032 C 0.21852 0.00693 0.44136 0.0
C2033 C 0.23057 0.04391 0.41108 0.0
C2034 C 0.26544 0.01883 0.43482 0.0
C2035 C 0.2805 0.02944 0.45459 0.0
C2036 C 0.30694 0.02434 0.45668 0.0
C2037 C 0.31843 0.00842 0.4378 0.0
C2038 C 0.30356 -0.00215 0.41696 0.0
C2039 C 0.27659 0.00263 0.41582 0.0
H2040 H 0.5837 0.8789 0.76325 0.0
H2041 H 0.64688 0.89999 0.81541 0.0
H2042 H 0.66672 0.92646 0.78085 0.0
H2043 H 0.62231 0.87734 0.7022 0.0
H2044 H 0.59633 0.89165 0.68344 0.0
H2045 H 0.58892 0.87155 0.71112 0.0
H2046 H 0.56157 0.90914 0.73103 0.0
H2047 H 0.56907 0.9294 0.70358 0.0
H2048 H 0.57645 0.94052 0.73613 0.0
H2049 H 0.67761 0.95367 0.74243 0.0
H2050 H 0.67892 0.97967 0.70211 0.0
H2051 H 0.60814 0.94157 0.67546 0.0
C2052 C 0.60206 0.88853 0.76706 0.0
C2053 C 0.6139 0.88734 0.7918 0.0
C2054 C 0.63755 0.90073 0.79647 0.0
C2055 C 0.64902 0.91571 0.77698 0.0
C2056 C 0.63652 0.91715 0.75299 0.0
C2057 C 0.61362 0.90389 0.74788 0.0
C2058 C 0.60308 0.91051 0.7212 0.0
C2059 C 0.60265 0.88632 0.70344 0.0
C2060 C 0.57595 0.92315 0.72311 0.0
C2061 C 0.62336 0.92989 0.71244 0.0
C2062 C 0.64262 0.93326 0.73091 0.0
C2063 C 0.66282 0.95101 0.72761 0.0
C2064 C 0.66336 0.96574 0.70471 0.0
C2065 C 0.64369 0.96268 0.68557 0.0
C2066 C 0.62358 0.94436 0.68958 0.0
H2067 H 0.97403 0.59106 0.7062 0.0
H2068 H 0.98093 0.67431 0.71955 0.0
H2069 H 0.01858 0.66659 0.74846 0.0
H2070 H 0.99181 0.57202 0.77312 0.0
H2071 H 0.0089 0.54331 0.76221 0.0
H2072 H 0.98173 0.55553 0.7437 0.0
H2073 H 0.01106 0.5575 0.7028 0.0
H2074 H 0.03849 0.54596 0.72135 0.0
H2075 H 0.0407 0.57622 0.70386 0.0
H2076 H 0.05724 0.65036 0.77291 0.0
H2077 H 0.0907 0.62594 0.79747 0.0
H2078 H 0.05815 0.55313 0.7697 0.0
C2079 C 0.98323 0.60762 0.71556 0.0
C2080 C 0.97463 0.63331 0.71062 0.0
C2081 C 0.98705 0.65449 0.72325 0.0
C2082 C 0.00859 0.65031 0.7395 0.0
C2083 C 0.01716 0.62484 0.74318 0.0
C2084 C 0.00451 0.60378 0.73214 0.0
C2085 C 0.01749 0.57834 0.73963 0.0
C2086 C -0.00113 0.56131 0.75562 0.0
C2087 C 0.02753 0.56365 0.71546 0.0
C2088 C 0.03976 0.58847 0.75619 0.0
C2089 C 0.03928 0.61537 0.75777 0.0
C2090 C 0.05782 0.62932 0.77188 0.0
C2091 C 0.07686 0.61538 0.78549 0.0
C2092 C 0.07717 0.58788 0.78481 0.0
C2093 C 0.0586 0.57422 0.76983 0.0
H2094 H 0.40626 0.13496 0.74954 0.0
H2095 H 0.47801 0.0908 0.74873 0.0
H2096 H 0.45618 0.05536 0.7246 0.0
H2097 H 0.36641 0.08679 0.76338 0.0
H2098 H 0.3392 0.09503 0.74277 0.0
H2099 H 0.36118 0.12006 0.75358 0.0
H2100 H 0.37061 0.13335 0.70598 0.0
H2101 H 0.34789 0.10895 0.69489 0.0
H2102 H 0.38077 0.10896 0.68273 0.0
H2103 H 0.4248 0.02097 0.71351 0.0
H2104 H 0.38727 0.99238 0.70479 0.0
H2105 H 0.33539 0.05892 0.70814 0.0
C2106 C 0.41765 0.11857 0.74264 0.0
C2107 C 0.44395 0.11578 0.75018 0.0
C2108 C 0.45809 0.0935 0.74231 0.0
C2109 C 0.44576 0.0732 0.72886 0.0
C2110 C 0.41936 0.07571 0.72317 0.0
C2111 C 0.4056 0.09821 0.72885 0.0
C2112 C 0.37685 0.09475 0.72275 0.0
C2113 C 0.35994 0.09943 0.74707 0.0
C2114 C 0.36854 0.11256 0.70024 0.0
C2115 C 0.3764 0.06636 0.71449 0.0
C2116 C 0.40118 0.05581 0.71502 0.0
C2117 C 0.40546 0.0292 0.71195 0.0
C2118 C 0.38402 0.01309 0.70734 0.0
C2119 C 0.35864 0.02361 0.70544 0.0
C2120 C 0.35475 0.0506 0.70893 0.0
H2121 H 0.87284 0.37144 0.80329 0.0
H2122 H 0.81568 0.41178 0.75582 0.0
H2123 H 0.83642 0.39407 0.71617 0.0
H2124 H 0.92479 0.3865 0.7664 0.0
H2125 H 0.94202 0.35621 0.77056 0.0
H2126 H 0.91955 0.36706 0.79506 0.0
H2127 H 0.89396 0.32376 0.79093 0.0
H2128 H 0.91657 0.31261 0.76647 0.0
H2129 H 0.88219 0.31331 0.75946 0.0
H2130 H 0.86775 0.37861 0.68206 0.0
H2131 H 0.90645 0.36622 0.65647 0.0
H2132 H 0.94301 0.33628 0.72657 0.0
C2133 C 0.86406 0.37592 0.78465 0.0
C2134 C 0.84255 0.39299 0.78274 0.0
C2135 C 0.83204 0.39864 0.75785 0.0
C2136 C 0.84367 0.38861 0.73519 0.0
C2137 C 0.86557 0.37277 0.73779 0.0
C2138 C 0.87547 0.36623 0.76195 0.0
C2139 C 0.90095 0.35164 0.75961 0.0
C2140 C 0.92311 0.36623 0.77373 0.0
C2141 C 0.89824 0.32366 0.76971 0.0
C2142 C 0.90448 0.35199 0.7304 0.0
C2143 C 0.8837 0.36387 0.71809 0.0
C2144 C 0.88385 0.36874 0.69141 0.0
C2145 C 0.906 0.36173 0.67706 0.0
C2146 C 0.92776 0.35013 0.68947 0.0
C2147 C 0.92657 0.34465 0.71637 0.0
H2148 H 0.49053 0.0776 0.20285 0.0
H2149 H 0.49143 0.16198 0.20709 0.0
H2150 H 0.53715 0.16066 0.22213 0.0
H2151 H 0.53352 0.0659 0.25944 0.0
H2152 H 0.54803 0.03807 0.2436 0.0
H2153 H 0.51483 0.04674 0.23662 0.0
H2154 H 0.52674 0.04793 0.18745 0.0
H2155 H 0.56033 0.0409 0.1946 0.0
H2156 H 0.55189 0.06971 0.17651 0.0
H2157 H 0.58375 0.14984 0.23403 0.0
H2158 H 0.62433 0.12983 0.25077 0.0
H2159 H 0.59306 0.05325 0.23489 0.0
C2160 C 0.50007 0.09577 0.2078 0.0
C2161 C 0.48749 0.11987 0.20392 0.0
C2162 C 0.5006 0.14328 0.21035 0.0
C2163 C 0.52671 0.14273 0.21842 0.0
C2164 C 0.53915 0.11865 0.22001 0.0
C2165 C 0.52601 0.09558 0.21561 0.0
C2166 C 0.54367 0.07224 0.2184 0.0
C2167 C 0.53448 0.05472 0.24085 0.0
C2168 C 0.54577 0.0568 0.1927 0.0
C2169 C 0.56893 0.08578 0.22489 0.0
C2170 C 0.56605 0.11255 0.22561 0.0
C2171 C 0.58635 0.12894 0.23321 0.0
C2172 C 0.60952 0.1175 0.24214 0.0
C2173 C 0.61194 0.09013 0.24315 0.0
C2174 C 0.592 0.07423 0.23312 0.0
H2175 H 0.97354 0.56236 0.28319 0.0
H2176 H 0.95989 0.63329 0.2395 0.0
H2177 H 0.92422 0.61154 0.21571 0.0
H2178 H 0.95404 0.51434 0.23066 0.0
H2179 H 0.93912 0.49357 0.25438 0.0
H2180 H 0.96705 0.51295 0.26321 0.0
H2181 H 0.9403 0.53252 0.30137 0.0
H2182 H 0.91201 0.51422 0.29176 0.0
H2183 H 0.91016 0.54917 0.29451 0.0
H2184 H 0.88509 0.58582 0.20362 0.0
H2185 H 0.84952 0.55457 0.19709 0.0
H2186 H 0.88817 0.49988 0.24867 0.0
C2187 C 0.96377 0.57307 0.26789 0.0
C2188 C 0.96947 0.59965 0.26332 0.0
C2189 C 0.95602 0.61294 0.24329 0.0
C2190 C 0.93558 0.60079 0.22981 0.0
C2191 C 0.92909 0.5753 0.2364 0.0
C2192 C 0.94323 0.56129 0.25443 0.0
C2193 C 0.93076 0.53508 0.25976 0.0
C2194 C 0.94882 0.51266 0.25151 0.0
C2195 C 0.92284 0.53263 0.28855 0.0
C2196 C 0.90707 0.53678 0.24227 0.0
C2197 C 0.90647 0.56021 0.22913 0.0
C2198 C 0.88565 0.56717 0.21331 0.0
C2199 C 0.86539 0.54931 0.20995 0.0
C2200 C 0.86607 0.52461 0.22221 0.0
C2201 C 0.88706 0.51851 0.23895 0.0
H2202 H 0.44908 0.88496 0.20194 0.0
H2203 H 0.40518 0.81752 0.17682 0.0
H2204 H 0.36651 0.83417 0.20038 0.0
H2205 H 0.4301 0.88697 0.26254 0.0
H2206 H 0.42788 0.9218 0.2664 0.0
H2207 H 0.44901 0.90827 0.24218 0.0
H2208 H 0.42569 0.93514 0.20641 0.0
H2209 H 0.40437 0.94891 0.23074 0.0
H2210 H 0.39091 0.93269 0.20255 0.0
H2211 H 0.33787 0.8518 0.2361 0.0
H2212 H 0.32175 0.86999 0.27802 0.0
H2213 H 0.38306 0.92748 0.27696 0.0
C2214 C 0.43095 0.8743 0.20061 0.0
C2215 C 0.42992 0.85 0.18791 0.0
C2216 C 0.40617 0.83625 0.1865 0.0
C2217 C 0.38413 0.84565 0.19972 0.0
C2218 C 0.38612 0.86917 0.21338 0.0
C2219 C 0.40883 0.88366 0.21323 0.0
C2220 C 0.40744 0.90644 0.23188 0.0
C2221 C 0.4299 0.90578 0.25192 0.0
C2222 C 0.40707 0.93233 0.217 0.0
C2223 C 0.38143 0.90116 0.24437 0.0
C2224 C 0.36899 0.87999 0.23312 0.0
C2225 C 0.34682 0.86903 0.24438 0.0
C2226 C 0.33774 0.87941 0.26811 0.0
C2227 C 0.35098 0.90036 0.28003 0.0
C2228 C 0.37228 0.91193 0.26752 0.0
H2229 H 0.11895 0.45067 0.18483 0.0
H2230 H 0.20107 0.46427 0.19901 0.0
H2231 H 0.20314 0.42446 0.2256 0.0
H2232 H 0.10415 0.43428 0.24687 0.0
H2233 H 0.0802 0.40985 0.23899 0.0
H2234 H 0.08657 0.43565 0.21646 0.0
H2235 H 0.09663 0.40153 0.18043 0.0
H2236 H 0.09053 0.37555 0.20311 0.0
H2237 H 0.12112 0.37701 0.18606 0.0
H2238 H 0.19501 0.38887 0.25621 0.0
H2239 H 0.1765 0.3624 0.29153 0.0
H2240 H 0.09965 0.37095 0.25787 0.0
C2241 C 0.13754 0.44477 0.19287 0.0
C2242 C 0.1599 0.46035 0.18975 0.0
C2243 C 0.18371 0.45255 0.20119 0.0
C2244 C 0.18513 0.42982 0.21606 0.0
C2245 C 0.16259 0.41512 0.21923 0.0
C2246 C 0.13919 0.42231 0.20802 0.0
C2247 C 0.11702 0.40558 0.21771 0.0
C2248 C 0.09577 0.42234 0.2308 0.0
C2249 C 0.10566 0.38893 0.1955 0.0
C2250 C 0.13137 0.38887 0.23727 0.0
C2251 C 0.15778 0.39419 0.23726 0.0
C2252 C 0.17455 0.38393 0.25594 0.0
C2253 C 0.16391 0.36891 0.27589 0.0
C2254 C 0.13683 0.36431 0.27692 0.0
C2255 C 0.12055 0.37339 0.25679 0.0
H2256 H 0.74189 0.5935 0.98551 0.0
H2257 H 0.66963 0.60246 0.94236 0.0
H2258 H 0.68282 0.56783 0.91223 0.0
H2259 H 0.78105 0.58583 0.92936 0.0
H2260 H 0.80291 0.56226 0.94343 0.0
H2261 H 0.7866 0.58551 0.96407 0.0
H2262 H 0.76777 0.5478 0.99157 0.0
H2263 H 0.78397 0.52443 0.97087 0.0
H2264 H 0.7493 0.52244 0.9757 0.0
H2265 H 0.7037 0.53359 0.88552 0.0
H2266 H 0.73387 0.50504 0.861 0.0
H2267 H 0.7939 0.51991 0.91883 0.0
C2268 C 0.7288 0.58787 0.96992 0.0
C2269 C 0.70467 0.60057 0.96651 0.0
C2270 C 0.68825 0.59306 0.94548 0.0
C2271 C 0.69542 0.57322 0.92829 0.0
C2272 C 0.71929 0.56117 0.932 0.0
C2273 C 0.73595 0.56834 0.95202 0.0
C2274 C 0.7616 0.55392 0.94981 0.0
C2275 C 0.78438 0.57302 0.94646 0.0
C2276 C 0.7659 0.53608 0.97339 0.0
C2277 C 0.7568 0.53818 0.92516 0.0
C2278 C 0.73203 0.54217 0.9156 0.0
C2279 C 0.72318 0.53017 0.8928 0.0
C2280 C 0.74037 0.51399 0.87903 0.0
C2281 C 0.76618 0.51047 0.88791 0.0
C2282 C 0.77429 0.52243 0.91148 0.0
H2283 H 0.68847 0.35011 0.11401 0.0
H2284 H 0.72874 0.29647 0.06248 0.0
H2285 H 0.7706 0.308 0.08381 0.0
H2286 H 0.73345 0.39925 0.11238 0.0
H2287 H 0.72987 0.40889 0.146 0.0
H2288 H 0.70323 0.39361 0.12918 0.0
H2289 H 0.70116 0.35789 0.16466 0.0
H2290 H 0.72782 0.37318 0.18169 0.0
H2291 H 0.72998 0.33937 0.17232 0.0
H2292 H 0.80854 0.33079 0.10672 0.0
H2293 H 0.83835 0.36065 0.13015 0.0
H2294 H 0.77203 0.39769 0.16729 0.0
C2295 C 0.70601 0.34034 0.10754 0.0
C2296 C 0.70543 0.32242 0.0866 0.0
C2297 C 0.72877 0.31008 0.07867 0.0
C2298 C 0.7526 0.31656 0.09064 0.0
C2299 C 0.75254 0.33499 0.11078 0.0
C2300 C 0.7297 0.34635 0.11939 0.0
C2301 C 0.73472 0.36681 0.14007 0.0
C2302 C 0.72474 0.39371 0.13137 0.0
C2303 C 0.72271 0.35882 0.16624 0.0
C2304 C 0.76407 0.36597 0.14117 0.0
C2305 C 0.7741 0.34744 0.12431 0.0
C2306 C 0.80085 0.34494 0.12039 0.0
C2307 C 0.81764 0.36203 0.13374 0.0
C2308 C 0.80761 0.38136 0.15084 0.0
C2309 C 0.78047 0.38281 0.15488 0.0
H2310 H 0.60512 0.79822 0.14673 0.0
H2311 H 0.56637 0.75262 0.206 0.0
H2312 H 0.58917 0.7134 0.19058 0.0
H2313 H 0.59795 0.75954 0.0987 0.0
H2314 H 0.62904 0.76123 0.08252 0.0
H2315 H 0.61856 0.78773 0.10274 0.0
H2316 H 0.6588 0.78581 0.13162 0.0
H2317 H 0.67137 0.76024 0.11094 0.0
H2318 H 0.66877 0.75525 0.14558 0.0
H2319 H 0.60507 0.67852 0.16203 0.0
H2320 H 0.61785 0.65044 0.12523 0.0
H2321 H 0.64812 0.71758 0.0844 0.0
C2322 C 0.60264 0.7803 0.15746 0.0
C2323 C 0.58397 0.77853 0.17762 0.0
C2324 C 0.58059 0.75451 0.19058 0.0
C2325 C 0.59353 0.73208 0.18197 0.0
C2326 C 0.61024 0.73404 0.16074 0.0
C2327 C 0.61556 0.75767 0.14913 0.0
C2328 C 0.63158 0.75381 0.12454 0.0
C2329 C 0.61842 0.76625 0.1007 0.0
C2330 C 0.65928 0.7644 0.12841 0.0
C2331 C 0.6318 0.72438 0.12263 0.0
C2332 C 0.62006 0.7134 0.14415 0.0
C2333 C 0.61506 0.68682 0.14551 0.0
C2334 C 0.62211 0.67107 0.12434 0.0
C2335 C 0.63401 0.68188 0.10202 0.0
C2336 C 0.63947 0.70879 0.10144 0.0
H2337 H 0.25493 0.64608 0.01509 0.0
H2338 H 0.27343 0.71628 0.05797 0.0
H2339 H 0.24159 0.70417 0.09198 0.0
H2340 H 0.18357 0.63899 0.03877 0.0
H2341 H 0.18803 0.60428 0.03985 0.0
H2342 H 0.20427 0.62302 0.01526 0.0
H2343 H 0.24803 0.60298 0.0301 0.0
H2344 H 0.23232 0.58502 0.05541 0.0
H2345 H 0.25844 0.60705 0.06346 0.0
H2346 H 0.21616 0.67939 0.1255 0.0
H2347 H 0.19806 0.64536 0.15439 0.0
H2348 H 0.20059 0.58992 0.09051 0.0
C2349 C 0.25085 0.65964 0.03082 0.0
C2350 C 0.26576 0.68233 0.03383 0.0
C2351 C 0.26132 0.69925 0.05512 0.0
C2352 C 0.24345 0.69238 0.07455 0.0
C2353 C 0.23041 0.66865 0.0721 0.0
C2354 C 0.23359 0.65276 0.05043 0.0
C2355 C 0.22138 0.62636 0.05424 0.0
C2356 C 0.19791 0.62299 0.03595 0.0
C2357 C 0.24124 0.60409 0.05061 0.0
C2358 C 0.21288 0.62894 0.08223 0.0
C2359 C 0.21726 0.65372 0.09195 0.0
C2360 C 0.21223 0.66009 0.11793 0.0
C2361 C 0.20227 0.64066 0.13424 0.0
C2362 C 0.19845 0.61509 0.12463 0.0
C2363 C 0.20368 0.60929 0.09833 0.0
H2364 H 0.32008 0.25535 0.00722 0.0
H2365 H 0.28521 0.30271 0.06785 0.0
H2366 H 0.29398 0.26831 0.10004 0.0
H2367 H 0.30059 0.18897 0.03543 0.0
H2368 H 0.33129 0.175 0.0257 0.0
H2369 H 0.31655 0.20028 0.00636 0.0
H2370 H 0.35886 0.22732 0.01034 0.0
H2371 H 0.37352 0.20251 0.0301 0.0
H2372 H 0.37132 0.23544 0.04224 0.0
H2373 H 0.31521 0.23447 0.12688 0.0
H2374 H 0.3432 0.20024 0.14596 0.0
H2375 H 0.3635 0.17367 0.06825 0.0
C2376 C 0.31301 0.25768 0.02696 0.0
C2377 C 0.30145 0.28125 0.03509 0.0
C2378 C 0.29361 0.28445 0.06132 0.0
C2379 C 0.29859 0.26507 0.07971 0.0
C2380 C 0.31134 0.24257 0.07152 0.0
C2381 C 0.31799 0.23846 0.04567 0.0
C2382 C 0.33436 0.21406 0.04266 0.0
C2383 C 0.31982 0.19334 0.02659 0.0
C2384 C 0.36109 0.22022 0.03064 0.0
C2385 C 0.33694 0.20597 0.07091 0.0
C2386 C 0.32336 0.22255 0.08723 0.0
C2387 C 0.32527 0.22083 0.1143 0.0
C2388 C 0.34137 0.20152 0.12498 0.0
C2389 C 0.35514 0.18414 0.10859 0.0
C2390 C 0.35261 0.18628 0.08124 0.0
H2391 H 0.18228 0.46873 0.87638 0.0
H2392 H 0.23842 0.51432 0.83344 0.0
H2393 H 0.27199 0.48023 0.84161 0.0
H2394 H 0.22261 0.44887 0.92583 0.0
H2395 H 0.20885 0.41676 0.92875 0.0
H2396 H 0.18926 0.44302 0.91656 0.0
H2397 H 0.17943 0.41636 0.87458 0.0
H2398 H 0.19909 0.38994 0.88669 0.0
H2399 H 0.206 0.40389 0.85531 0.0
H2400 H 0.30009 0.4436 0.85973 0.0
H2401 H 0.32024 0.40844 0.88539 0.0
H2402 H 0.24427 0.38691 0.91508 0.0
C2403 C 0.2016 0.47139 0.86841 0.0
C2404 C 0.20806 0.49409 0.85454 0.0
C2405 C 0.2333 0.49694 0.84413 0.0
C2406 C 0.25233 0.4777 0.84863 0.0
C2407 C 0.24538 0.45568 0.86297 0.0
C2408 C 0.22046 0.4524 0.87241 0.0
C2409 C 0.21799 0.42806 0.8886 0.0
C2410 C 0.20918 0.43458 0.91658 0.0
C2411 C 0.19953 0.4084 0.8755 0.0
C2412 C 0.24576 0.41857 0.88794 0.0
C2413 C 0.26125 0.43449 0.8728 0.0
C2414 C 0.28804 0.43076 0.87118 0.0
C2415 C 0.2993 0.41072 0.88589 0.0
C2416 C 0.2838 0.39475 0.90218 0.0
C2417 C 0.25661 0.39837 0.90249 0.0
H2418 H 0.55396 0.26616 0.97271 0.0
H2419 H 0.6333 0.26593 0.94419 0.0
H2420 H 0.61717 0.25881 0.89931 0.0
H2421 H 0.53293 0.21362 0.93069 0.0
H2422 H 0.50053 0.22661 0.92676 0.0
H2423 H 0.51864 0.23337 0.95602 0.0
H2424 H 0.51213 0.28266 0.94828 0.0
H2425 H 0.49476 0.27626 0.91838 0.0
H2426 H 0.52303 0.297 0.91825 0.0
H2427 H 0.5926 0.25304 0.85769 0.0
H2428 H 0.56319 0.23434 0.82455 0.0
H2429 H 0.49999 0.23564 0.88004 0.0
C2430 C 0.56789 0.26403 0.95702 0.0
C2431 C 0.59484 0.26637 0.9618 0.0
C2432 C 0.61259 0.26369 0.94092 0.0
C2433 C 0.60357 0.26024 0.91533 0.0
C2434 C 0.57679 0.2592 0.91108 0.0
C2435 C 0.55925 0.25996 0.93144 0.0
C2436 C 0.53172 0.25535 0.92193 0.0
C2437 C 0.52028 0.23078 0.93457 0.0
C2438 C 0.51439 0.27926 0.92701 0.0
C2439 C 0.53656 0.25152 0.89302 0.0
C2440 C 0.56259 0.2548 0.88708 0.0
C2441 C 0.57215 0.25061 0.86202 0.0
C2442 C 0.55518 0.24052 0.84311 0.0
C2443 C 0.52927 0.23416 0.84965 0.0
C2444 C 0.51944 0.24134 0.87433 0.0
H2445 H 0.49325 0.79758 0.91776 0.0
H2446 H 0.5031 0.76561 0.83981 0.0
H2447 H 0.46642 0.73559 0.84759 0.0
H2448 H 0.47339 0.73713 0.94983 0.0
H2449 H 0.45016 0.75378 0.97027 0.0
H2450 H 0.47906 0.7704 0.95965 0.0
H2451 H 0.4507 0.80716 0.94031 0.0
H2452 H 0.42158 0.79067 0.95042 0.0
H2453 H 0.42587 0.79926 0.91669 0.0
H2454 H 0.42674 0.71152 0.86276 0.0
H2455 H 0.38828 0.69341 0.88497 0.0
H2456 H 0.40339 0.74314 0.95194 0.0
C2457 C 0.48816 0.78394 0.90242 0.0
C2458 C 0.5011 0.78398 0.87812 0.0
C2459 C 0.49356 0.76588 0.85861 0.0
C2460 C 0.4727 0.74883 0.86282 0.0
C2461 C 0.4597 0.75016 0.88661 0.0
C2462 C 0.46731 0.76708 0.90617 0.0
C2463 C 0.44925 0.76584 0.92939 0.0
C2464 C 0.46384 0.7562 0.95372 0.0
C2465 C 0.43607 0.7923 0.93448 0.0
C2466 C 0.42991 0.74589 0.91964 0.0
C2467 C 0.43642 0.73691 0.89504 0.0
C2468 C 0.42151 0.71834 0.88204 0.0
C2469 C 0.39966 0.70828 0.89475 0.0
C2470 C 0.39277 0.71709 0.92004 0.0
C2471 C 0.40795 0.73638 0.93244 0.0
loop_
_geom_bond_atom_site_label_1
_geom_bond_atom_site_label_2
_geom_bond_distance
_geom_bond_site_symmetry_2
_ccdc_geom_bond_type
Sc0 O3 2.025 . S
Sc0 O10 2.105 1_455 S
Sc0 O13 2.105 . S
Sc0 O16 2.105 1_455 S
Sc0 O19 2.105 . S
Sc1 O3 2.025 . S
Sc1 O11 2.105 . S
Sc1 O15 2.105 . S
Sc1 O17 2.105 . S
Sc1 O21 2.105 . S
Sc2 O3 2.025 1_655 S
Sc2 O12 2.105 . S
Sc2 O14 2.105 . S
Sc2 O18 2.105 . S
Sc2 O20 2.105 . S
O3 Sc0 2.025 . S
O3 Sc1 2.025 . S
O3 Sc2 2.025 1_455 S
C4 O10 1.268 . S
C4 O20 1.268 . S
C5 O11 1.268 . S
C5 O19 1.268 . S
C6 O12 1.268 1_455 S
C6 O21 1.268 . S
C7 O13 1.268 . S
C7 O17 1.268 . S
C8 O14 1.268 . S
C8 O16 1.268 . S
C9 O15 1.268 . S
C9 O18 1.268 1_455 S
O10 Sc0 2.105 1_655 S
O10 C4 1.268 . S
O11 Sc1 2.105 . S
O11 C5 1.268 . S
O12 Sc2 2.105 . S
O12 C6 1.268 1_655 S
O13 Sc0 2.105 . S
O13 C7 1.268 . S
O14 Sc2 2.105 . S
O14 C8 1.268 . S
O15 Sc1 2.105 . S
O15 C9 1.268 . S
O16 Sc0 2.105 1_655 S
O16 C8 1.268 . S
O17 Sc1 2.105 . S
O17 C7 1.268 . S
O18 Sc2 2.105 . S
O18 C9 1.268 1_655 S
O19 Sc0 2.105 . S
O19 C5 1.268 . S
O20 Sc2 2.105 . S
O20 C4 1.268 . S
O21 Sc1 2.105 . S
O21 C6 1.268 . S
Sc22 O25 2.025 . S
Sc22 O32 2.105 . S
Sc22 O35 2.105 1_545 S
Sc22 O38 2.105 . S
Sc22 O41 2.105 1_545 S
Sc23 O25 2.025 1_565 S
Sc23 O33 2.105 . S
Sc23 O37 2.105 . S
Sc23 O39 2.105 . S
Sc23 O43 2.105 . S
Sc24 O25 2.025 . S
Sc24 O34 2.105 . S
Sc24 O36 2.105 . S
Sc24 O40 2.105 . S
Sc24 O42 2.105 . S
O25 Sc22 2.025 . S
O25 Sc23 2.025 1_545 S
O25 Sc24 2.025 . S
C26 O32 1.268 . S
C26 O42 1.268 . S
C27 O33 1.268 . S
C27 O41 1.268 . S
C28 O34 1.268 . S
C28 O43 1.268 1_545 S
C29 O35 1.268 . S
C29 O39 1.268 . S
C30 O36 1.268 . S
C30 O38 1.268 . S
C31 O37 1.268 1_545 S
C31 O40 1.268 . S
O32 Sc22 2.105 . S
O32 C26 1.268 . S
O33 Sc23 2.105 . S
O33 C27 1.268 . S
O34 Sc24 2.105 . S
O34 C28 1.268 . S
O35 Sc22 2.105 1_565 S
O35 C29 1.268 . S
O36 Sc24 2.105 . S
O36 C30 1.268 . S
O37 Sc23 2.105 . S
O37 C31 1.268 1_565 S
O38 Sc22 2.105 . S
O38 C30 1.268 . S
O39 Sc23 2.105 . S
O39 C29 1.268 . S
O40 Sc24 2.105 . S
O40 C31 1.268 . S
O41 Sc22 2.105 1_565 S
O41 C27 1.268 . S
O42 Sc24 2.105 . S
O42 C26 1.268 . S
O43 Sc23 2.105 . S
O43 C28 1.268 1_565 S
Sc44 O47 2.025 . S
Sc44 O54 2.105 . S
Sc44 O57 2.105 1_455 S
Sc44 O60 2.105 . S
Sc44 O63 2.105 1_455 S
Sc45 O47 2.025 1_655 S
Sc45 O55 2.105 . S
Sc45 O59 2.105 . S
Sc45 O61 2.105 . S
Sc45 O65 2.105 . S
Sc46 O47 2.025 . S
Sc46 O56 2.105 . S
Sc46 O58 2.105 . S
Sc46 O62 2.105 . S
Sc46 O64 2.105 . S
O47 Sc44 2.025 . S
O47 Sc45 2.025 1_455 S
O47 Sc46 2.025 . S
C48 O54 1.268 . S
C48 O64 1.268 . S
C49 O55 1.268 . S
C49 O63 1.268 . S
C50 O56 1.268 . S
C50 O65 1.268 1_455 S
C51 O57 1.268 . S
C51 O61 1.268 . S
C52 O58 1.268 . S
C52 O60 1.268 . S
C53 O59 1.268 1_455 S
C53 O62 1.268 . S
O54 Sc44 2.105 . S
O54 C48 1.268 . S
O55 Sc45 2.105 . S
O55 C49 1.268 . S
O56 Sc46 2.105 . S
O56 C50 1.268 . S
O57 Sc44 2.105 1_655 S
O57 C51 1.268 . S
O58 Sc46 2.105 . S
O58 C52 1.268 . S
O59 Sc45 2.105 . S
O59 C53 1.268 1_655 S
O60 Sc44 2.105 . S
O60 C52 1.268 . S
O61 Sc45 2.105 . S
O61 C51 1.268 . S
O62 Sc46 2.105 . S
O62 C53 1.268 . S
O63 Sc44 2.105 1_655 S
O63 C49 1.268 . S
O64 Sc46 2.105 . S
O64 C48 1.268 . S
O65 Sc45 2.105 . S
O65 C50 1.268 1_655 S
Sc66 O69 2.025 1_565 S
Sc66 O76 2.105 . S
Sc66 O79 2.105 . S
Sc66 O82 2.105 . S
Sc66 O85 2.105 . S
Sc67 O69 2.025 . S
Sc67 O77 2.105 . S
Sc67 O81 2.105 . S
Sc67 O83 2.105 . S
Sc67 O87 2.105 . S
Sc68 O69 2.025 . S
Sc68 O78 2.105 . S
Sc68 O80 2.105 1_545 S
Sc68 O84 2.105 . S
Sc68 O86 2.105 1_545 S
O69 Sc66 2.025 1_545 S
O69 Sc67 2.025 . S
O69 Sc68 2.025 . S
C70 O76 1.268 . S
C70 O86 1.268 . S
C71 O77 1.268 . S
C71 O85 1.268 1_545 S
C72 O78 1.268 . S
C72 O87 1.268 . S
C73 O79 1.268 1_545 S
C73 O83 1.268 . S
C74 O80 1.268 . S
C74 O82 1.268 . S
C75 O81 1.268 . S
C75 O84 1.268 . S
O76 Sc66 2.105 . S
O76 C70 1.268 . S
O77 Sc67 2.105 . S
O77 C71 1.268 . S
O78 Sc68 2.105 . S
O78 C72 1.268 . S
O79 Sc66 2.105 . S
O79 C73 1.268 1_565 S
O80 Sc68 2.105 1_565 S
O80 C74 1.268 . S
O81 Sc67 2.105 . S
O81 C75 1.268 . S
O82 Sc66 2.105 . S
O82 C74 1.268 . S
O83 Sc67 2.105 . S
O83 C73 1.268 . S
O84 Sc68 2.105 . S
O84 C75 1.268 . S
O85 Sc66 2.105 . S
O85 C71 1.268 1_565 S
O86 Sc68 2.105 1_565 S
O86 C70 1.268 . S
O87 Sc67 2.105 . S
O87 C72 1.268 . S
Sc88 O91 2.025 . S
Sc88 O98 2.105 . S
Sc88 O101 2.105 . S
Sc88 O104 2.105 . S
Sc88 O107 2.105 . S
Sc89 O91 2.025 1_655 S
Sc89 O99 2.105 . S
Sc89 O103 2.105 . S
Sc89 O105 2.105 . S
Sc89 O109 2.105 . S
Sc90 O91 2.025 . S
Sc90 O100 2.105 1_455 S
Sc90 O102 2.105 . S
Sc90 O106 2.105 1_455 S
Sc90 O108 2.105 . S
O91 Sc88 2.025 . S
O91 Sc89 2.025 1_455 S
O91 Sc90 2.025 . S
C92 O98 1.268 . S
C92 O108 1.268 . S
C93 O99 1.268 1_455 S
C93 O107 1.268 . S
C94 O100 1.268 . S
C94 O109 1.268 . S
C95 O101 1.268 . S
C95 O105 1.268 1_455 S
C96 O102 1.268 . S
C96 O104 1.268 . S
C97 O103 1.268 . S
C97 O106 1.268 . S
O98 Sc88 2.105 . S
O98 C92 1.268 . S
O99 Sc89 2.105 . S
O99 C93 1.268 1_655 S
O100 Sc90 2.105 1_655 S
O100 C94 1.268 . S
O101 Sc88 2.105 . S
O101 C95 1.268 . S
O102 Sc90 2.105 . S
O102 C96 1.268 . S
O103 Sc89 2.105 . S
O103 C97 1.268 . S
O104 Sc88 2.105 . S
O104 C96 1.268 . S
O105 Sc89 2.105 . S
O105 C95 1.268 1_655 S
O106 Sc90 2.105 1_655 S
O106 C97 1.268 . S
O107 Sc88 2.105 . S
O107 C93 1.268 . S
O108 Sc90 2.105 . S
O108 C92 1.268 . S
O109 Sc89 2.105 . S
O109 C94 1.268 . S
Sc110 O113 2.025 1_565 S
Sc110 O120 2.105 . S
Sc110 O123 2.105 . S
Sc110 O126 2.105 . S
Sc110 O129 2.105 . S
Sc111 O113 2.025 . S
Sc111 O121 2.105 . S
Sc111 O125 2.105 . S
Sc111 O127 2.105 . S
Sc111 O131 2.105 . S
Sc112 O113 2.025 . S
Sc112 O122 2.105 . S
Sc112 O124 2.105 1_545 S
Sc112 O128 2.105 . S
Sc112 O130 2.105 1_545 S
O113 Sc110 2.025 1_545 S
O113 Sc111 2.025 . S
O113 Sc112 2.025 . S
C114 O120 1.268 . S
C114 O130 1.268 . S
C115 O121 1.268 . S
C115 O129 1.268 1_545 S
C116 O122 1.268 . S
C116 O131 1.268 . S
C117 O123 1.268 1_545 S
C117 O127 1.268 . S
C118 O124 1.268 . S
C118 O126 1.268 . S
C119 O125 1.268 . S
C119 O128 1.268 . S
O120 Sc110 2.105 . S
O120 C114 1.268 . S
O121 Sc111 2.105 . S
O121 C115 1.268 . S
O122 Sc112 2.105 . S
O122 C116 1.268 . S
O123 Sc110 2.105 . S
O123 C117 1.268 1_565 S
O124 Sc112 2.105 1_565 S
O124 C118 1.268 . S
O125 Sc111 2.105 . S
O125 C119 1.268 . S
O126 Sc110 2.105 . S
O126 C118 1.268 . S
O127 Sc111 2.105 . S
O127 C117 1.268 . S
O128 Sc112 2.105 . S
O128 C119 1.268 . S
O129 Sc110 2.105 . S
O129 C115 1.268 1_565 S
O130 Sc112 2.105 1_565 S
O130 C114 1.268 . S
O131 Sc111 2.105 . S
O131 C116 1.268 . S
Sc132 O135 2.025 . S
Sc132 O142 2.105 1_455 S
Sc132 O145 2.105 . S
Sc132 O148 2.105 1_455 S
Sc132 O151 2.105 . S
Sc133 O135 2.025 . S
Sc133 O143 2.105 . S
Sc133 O147 2.105 . S
Sc133 O149 2.105 . S
Sc133 O153 2.105 . S
Sc134 O135 2.025 1_655 S
Sc134 O144 2.105 . S
Sc134 O146 2.105 . S
Sc134 O150 2.105 . S
Sc134 O152 2.105 . S
O135 Sc132 2.025 . S
O135 Sc133 2.025 . S
O135 Sc134 2.025 1_455 S
C136 O142 1.268 . S
C136 O152 1.268 . S
C137 O143 1.268 . S
C137 O151 1.268 . S
C138 O144 1.268 1_455 S
C138 O153 1.268 . S
C139 O145 1.268 . S
C139 O149 1.268 . S
C140 O146 1.268 . S
C140 O148 1.268 . S
C141 O147 1.268 . S
C141 O150 1.268 1_455 S
O142 Sc132 2.105 1_655 S
O142 C136 1.268 . S
O143 Sc133 2.105 . S
O143 C137 1.268 . S
O144 Sc134 2.105 . S
O144 C138 1.268 1_655 S
O145 Sc132 2.105 . S
O145 C139 1.268 . S
O146 Sc134 2.105 . S
O146 C140 1.268 . S
O147 Sc133 2.105 . S
O147 C141 1.268 . S
O148 Sc132 2.105 1_655 S
O148 C140 1.268 . S
O149 Sc133 2.105 . S
O149 C139 1.268 . S
O150 Sc134 2.105 . S
O150 C141 1.268 1_655 S
O151 Sc132 2.105 . S
O151 C137 1.268 . S
O152 Sc134 2.105 . S
O152 C136 1.268 . S
O153 Sc133 2.105 . S
O153 C138 1.268 . S
Sc154 O157 2.025 . S
Sc154 O164 2.105 . S
Sc154 O167 2.105 . S
Sc154 O170 2.105 . S
Sc154 O173 2.105 . S
Sc155 O157 2.025 1_565 S
Sc155 O165 2.105 . S
Sc155 O169 2.105 . S
Sc155 O171 2.105 . S
Sc155 O175 2.105 . S
Sc156 O157 2.025 . S
Sc156 O166 2.105 1_545 S
Sc156 O168 2.105 . S
Sc156 O172 2.105 1_545 S
Sc156 O174 2.105 . S
O157 Sc154 2.025 . S
O157 Sc155 2.025 1_545 S
O157 Sc156 2.025 . S
C158 O164 1.268 . S
C158 O174 1.268 . S
C159 O165 1.268 1_545 S
C159 O173 1.268 . S
C160 O166 1.268 . S
C160 O175 1.268 . S
C161 O167 1.268 . S
C161 O171 1.268 1_545 S
C162 O168 1.268 . S
C162 O170 1.268 . S
C163 O169 1.268 . S
C163 O172 1.268 . S
O164 Sc154 2.105 . S
O164 C158 1.268 . S
O165 Sc155 2.105 . S
O165 C159 1.268 1_565 S
O166 Sc156 2.105 1_565 S
O166 C160 1.268 . S
O167 Sc154 2.105 . S
O167 C161 1.268 . S
O168 Sc156 2.105 . S
O168 C162 1.268 . S
O169 Sc155 2.105 . S
O169 C163 1.268 . S
O170 Sc154 2.105 . S
O170 C162 1.268 . S
O171 Sc155 2.105 . S
O171 C161 1.268 1_565 S
O172 Sc156 2.105 1_565 S
O172 C163 1.268 . S
O173 Sc154 2.105 . S
O173 C159 1.268 . S
O174 Sc156 2.105 . S
O174 C158 1.268 . S
O175 Sc155 2.105 . S
O175 C160 1.268 . S
Sc176 O179 2.025 1_556 S
Sc176 O186 2.105 . S
Sc176 O189 2.105 . S
Sc176 O192 2.105 . S
Sc176 O195 2.105 . S
Sc177 O179 2.025 . S
Sc177 O187 2.105 . S
Sc177 O191 2.105 . S
Sc177 O193 2.105 . S
Sc177 O197 2.105 . S
Sc178 O179 2.025 . S
Sc178 O188 2.105 . S
Sc178 O190 2.105 1_554 S
Sc178 O194 2.105 . S
Sc178 O196 2.105 1_554 S
O179 Sc176 2.025 1_554 S
O179 Sc177 2.025 . S
O179 Sc178 2.025 . S
C180 O186 1.268 . S
C180 O196 1.268 . S
C181 O187 1.268 . S
C181 O195 1.268 1_554 S
C182 O188 1.268 . S
C182 O197 1.268 . S
C183 O189 1.268 1_554 S
C183 O193 1.268 . S
C184 O190 1.268 . S
C184 O192 1.268 . S
C185 O191 1.268 . S
C185 O194 1.268 . S
O186 Sc176 2.105 . S
O186 C180 1.268 . S
O187 Sc177 2.105 . S
O187 C181 1.268 . S
O188 Sc178 2.105 . S
O188 C182 1.268 . S
O189 Sc176 2.105 . S
O189 C183 1.268 1_556 S
O190 Sc178 2.105 1_556 S
O190 C184 1.268 . S
O191 Sc177 2.105 . S
O191 C185 1.268 . S
O192 Sc176 2.105 . S
O192 C184 1.268 . S
O193 Sc177 2.105 . S
O193 C183 1.268 . S
O194 Sc178 2.105 . S
O194 C185 1.268 . S
O195 Sc176 2.105 . S
O195 C181 1.268 1_556 S
O196 Sc178 2.105 1_556 S
O196 C180 1.268 . S
O197 Sc177 2.105 . S
O197 C182 1.268 . S
Sc198 O201 2.025 . S
Sc198 O208 2.105 . S
Sc198 O211 2.105 1_554 S
Sc198 O214 2.105 . S
Sc198 O217 2.105 1_554 S
Sc199 O201 2.025 1_556 S
Sc199 O209 2.105 . S
Sc199 O213 2.105 . S
Sc199 O215 2.105 . S
Sc199 O219 2.105 . S
Sc200 O201 2.025 . S
Sc200 O210 2.105 . S
Sc200 O212 2.105 . S
Sc200 O216 2.105 . S
Sc200 O218 2.105 . S
O201 Sc198 2.025 . S
O201 Sc199 2.025 1_554 S
O201 Sc200 2.025 . S
C202 O208 1.268 . S
C202 O218 1.268 . S
C203 O209 1.268 . S
C203 O217 1.268 . S
C204 O210 1.268 . S
C204 O219 1.268 1_554 S
C205 O211 1.268 . S
C205 O215 1.268 . S
C206 O212 1.268 . S
C206 O214 1.268 . S
C207 O213 1.268 1_554 S
C207 O216 1.268 . S
O208 Sc198 2.105 . S
O208 C202 1.268 . S
O209 Sc199 2.105 . S
O209 C203 1.268 . S
O210 Sc200 2.105 . S
O210 C204 1.268 . S
O211 Sc198 2.105 1_556 S
O211 C205 1.268 . S
O212 Sc200 2.105 . S
O212 C206 1.268 . S
O213 Sc199 2.105 . S
O213 C207 1.268 1_556 S
O214 Sc198 2.105 . S
O214 C206 1.268 . S
O215 Sc199 2.105 . S
O215 C205 1.268 . S
O216 Sc200 2.105 . S
O216 C207 1.268 . S
O217 Sc198 2.105 1_556 S
O217 C203 1.268 . S
O218 Sc200 2.105 . S
O218 C202 1.268 . S
O219 Sc199 2.105 . S
O219 C204 1.268 1_556 S
Sc220 O223 2.025 . S
Sc220 O230 2.105 1_554 S
Sc220 O233 2.105 . S
Sc220 O236 2.105 1_554 S
Sc220 O239 2.105 . S
Sc221 O223 2.025 . S
Sc221 O231 2.105 . S
Sc221 O235 2.105 . S
Sc221 O237 2.105 . S
Sc221 O241 2.105 . S
Sc222 O223 2.025 1_556 S
Sc222 O232 2.105 . S
Sc222 O234 2.105 . S
Sc222 O238 2.105 . S
Sc222 O240 2.105 . S
O223 Sc220 2.025 . S
O223 Sc221 2.025 . S
O223 Sc222 2.025 1_554 S
C224 O230 1.268 . S
C224 O240 1.268 . S
C225 O231 1.268 . S
C225 O239 1.268 . S
C226 O232 1.268 1_554 S
C226 O241 1.268 . S
C227 O233 1.268 . S
C227 O237 1.268 . S
C228 O234 1.268 . S
C228 O236 1.268 . S
C229 O235 1.268 . S
C229 O238 1.268 1_554 S
O230 Sc220 2.105 1_556 S
O230 C224 1.268 . S
O231 Sc221 2.105 . S
O231 C225 1.268 . S
O232 Sc222 2.105 . S
O232 C226 1.268 1_556 S
O233 Sc220 2.105 . S
O233 C227 1.268 . S
O234 Sc222 2.105 . S
O234 C228 1.268 . S
O235 Sc221 2.105 . S
O235 C229 1.268 . S
O236 Sc220 2.105 1_556 S
O236 C228 1.268 . S
O237 Sc221 2.105 . S
O237 C227 1.268 . S
O238 Sc222 2.105 . S
O238 C229 1.268 1_556 S
O239 Sc220 2.105 . S
O239 C225 1.268 . S
O240 Sc222 2.105 . S
O240 C224 1.268 . S
O241 Sc221 2.105 . S
O241 C226 1.268 . S
Sc242 O245 2.025 . S
Sc242 O252 2.105 . S
Sc242 O255 2.105 . S
Sc242 O258 2.105 . S
Sc242 O261 2.105 . S
Sc243 O245 2.025 1_556 S
Sc243 O253 2.105 . S
Sc243 O257 2.105 . S
Sc243 O259 2.105 . S
Sc243 O263 2.105 . S
Sc244 O245 2.025 . S
Sc244 O254 2.105 1_554 S
Sc244 O256 2.105 . S
Sc244 O260 2.105 1_554 S
Sc244 O262 2.105 . S
O245 Sc242 2.025 . S
O245 Sc243 2.025 1_554 S
O245 Sc244 2.025 . S
C246 O252 1.268 . S
C246 O262 1.268 . S
C247 O253 1.268 1_554 S
C247 O261 1.268 . S
C248 O254 1.268 . S
C248 O263 1.268 . S
C249 O255 1.268 . S
C249 O259 1.268 1_554 S
C250 O256 1.268 . S
C250 O258 1.268 . S
C251 O257 1.268 . S
C251 O260 1.268 . S
O252 Sc242 2.105 . S
O252 C246 1.268 . S
O253 Sc243 2.105 . S
O253 C247 1.268 1_556 S
O254 Sc244 2.105 1_556 S
O254 C248 1.268 . S
O255 Sc242 2.105 . S
O255 C249 1.268 . S
O256 Sc244 2.105 . S
O256 C250 1.268 . S
O257 Sc243 2.105 . S
O257 C251 1.268 . S
O258 Sc242 2.105 . S
O258 C250 1.268 . S
O259 Sc243 2.105 . S
O259 C249 1.268 1_556 S
O260 Sc244 2.105 1_556 S
O260 C251 1.268 . S
O261 Sc242 2.105 . S
O261 C247 1.268 . S
O262 Sc244 2.105 . S
O262 C246 1.268 . S
O263 Sc243 2.105 . S
O263 C248 1.268 . S
Sc264 O267 2.025 . S
Sc264 O274 2.105 . S
Sc264 O277 2.105 . S
Sc264 O280 2.105 . S
Sc264 O283 2.105 . S
Sc265 O267 2.025 . S
Sc265 O275 2.105 . S
Sc265 O279 2.105 . S
Sc265 O281 2.105 . S
Sc265 O285 2.105 . S
Sc266 O267 2.025 . S
Sc266 O276 2.105 . S
Sc266 O278 2.105 . S
Sc266 O282 2.105 . S
Sc266 O284 2.105 . S
O267 Sc264 2.025 . S
O267 Sc265 2.025 . S
O267 Sc266 2.025 . S
C268 O274 1.268 . S
C268 O284 1.268 . S
C269 O275 1.268 . S
C269 O283 1.268 . S
C270 O276 1.268 . S
C270 O285 1.268 . S
C271 O277 1.268 . S
C271 O281 1.268 . S
C272 O278 1.268 . S
C272 O280 1.268 . S
C273 O279 1.268 . S
C273 O282 1.268 . S
O274 Sc264 2.105 . S
O274 C268 1.268 . S
O275 Sc265 2.105 . S
O275 C269 1.268 . S
O276 Sc266 2.105 . S
O276 C270 1.268 . S
O277 Sc264 2.105 . S
O277 C271 1.268 . S
O278 Sc266 2.105 . S
O278 C272 1.268 . S
O279 Sc265 2.105 . S
O279 C273 1.268 . S
O280 Sc264 2.105 . S
O280 C272 1.268 . S
O281 Sc265 2.105 . S
O281 C271 1.268 . S
O282 Sc266 2.105 . S
O282 C273 1.268 . S
O283 Sc264 2.105 . S
O283 C269 1.268 . S
O284 Sc266 2.105 . S
O284 C268 1.268 . S
O285 Sc265 2.105 . S
O285 C270 1.268 . S
Sc286 O289 2.025 . S
Sc286 O296 2.105 . S
Sc286 O299 2.105 . S
Sc286 O302 2.105 . S
Sc286 O305 2.105 . S
Sc287 O289 2.025 . S
Sc287 O297 2.105 . S
Sc287 O301 2.105 . S
Sc287 O303 2.105 . S
Sc287 O307 2.105 . S
Sc288 O289 2.025 . S
Sc288 O298 2.105 . S
Sc288 O300 2.105 . S
Sc288 O304 2.105 . S
Sc288 O306 2.105 . S
O289 Sc286 2.025 . S
O289 Sc287 2.025 . S
O289 Sc288 2.025 . S
C290 O296 1.268 . S
C290 O306 1.268 . S
C291 O297 1.268 . S
C291 O305 1.268 . S
C292 O298 1.268 . S
C292 O307 1.268 . S
C293 O299 1.268 . S
C293 O303 1.268 . S
C294 O300 1.268 . S
C294 O302 1.268 . S
C295 O301 1.268 . S
C295 O304 1.268 . S
O296 Sc286 2.105 . S
O296 C290 1.268 . S
O297 Sc287 2.105 . S
O297 C291 1.268 . S
O298 Sc288 2.105 . S
O298 C292 1.268 . S
O299 Sc286 2.105 . S
O299 C293 1.268 . S
O300 Sc288 2.105 . S
O300 C294 1.268 . S
O301 Sc287 2.105 . S
O301 C295 1.268 . S
O302 Sc286 2.105 . S
O302 C294 1.268 . S
O303 Sc287 2.105 . S
O303 C293 1.268 . S
O304 Sc288 2.105 . S
O304 C295 1.268 . S
O305 Sc286 2.105 . S
O305 C291 1.268 . S
O306 Sc288 2.105 . S
O306 C290 1.268 . S
O307 Sc287 2.105 . S
O307 C292 1.268 . S
Sc308 O311 2.025 . S
Sc308 O318 2.105 . S
Sc308 O321 2.105 . S
Sc308 O324 2.105 . S
Sc308 O327 2.105 . S
Sc309 O311 2.025 . S
Sc309 O319 2.105 . S
Sc309 O323 2.105 . S
Sc309 O325 2.105 . S
Sc309 O329 2.105 . S
Sc310 O311 2.025 . S
Sc310 O320 2.105 . S
Sc310 O322 2.105 . S
Sc310 O326 2.105 . S
Sc310 O328 2.105 . S
O311 Sc308 2.025 . S
O311 Sc309 2.025 . S
O311 Sc310 2.025 . S
C312 O318 1.268 . S
C312 O328 1.268 . S
C313 O319 1.268 . S
C313 O327 1.268 . S
C314 O320 1.268 . S
C314 O329 1.268 . S
C315 O321 1.268 . S
C315 O325 1.268 . S
C316 O322 1.268 . S
C316 O324 1.268 . S
C317 O323 1.268 . S
C317 O326 1.268 . S
O318 Sc308 2.105 . S
O318 C312 1.268 . S
O319 Sc309 2.105 . S
O319 C313 1.268 . S
O320 Sc310 2.105 . S
O320 C314 1.268 . S
O321 Sc308 2.105 . S
O321 C315 1.268 . S
O322 Sc310 2.105 . S
O322 C316 1.268 . S
O323 Sc309 2.105 . S
O323 C317 1.268 . S
O324 Sc308 2.105 . S
O324 C316 1.268 . S
O325 Sc309 2.105 . S
O325 C315 1.268 . S
O326 Sc310 2.105 . S
O326 C317 1.268 . S
O327 Sc308 2.105 . S
O327 C313 1.268 . S
O328 Sc310 2.105 . S
O328 C312 1.268 . S
O329 Sc309 2.105 . S
O329 C314 1.268 . S
Sc330 O333 2.025 . S
Sc330 O340 2.105 . S
Sc330 O343 2.105 . S
Sc330 O346 2.105 . S
Sc330 O349 2.105 . S
Sc331 O333 2.025 . S
Sc331 O341 2.105 . S
Sc331 O345 2.105 . S
Sc331 O347 2.105 . S
Sc331 O351 2.105 . S
Sc332 O333 2.025 . S
Sc332 O342 2.105 . S
Sc332 O344 2.105 . S
Sc332 O348 2.105 . S
Sc332 O350 2.105 . S
O333 Sc330 2.025 . S
O333 Sc331 2.025 . S
O333 Sc332 2.025 . S
C334 O340 1.268 . S
C334 O350 1.268 . S
C335 O341 1.268 . S
C335 O349 1.268 . S
C336 O342 1.268 . S
C336 O351 1.268 . S
C337 O343 1.268 . S
C337 O347 1.268 . S
C338 O344 1.268 . S
C338 O346 1.268 . S
C339 O345 1.268 . S
C339 O348 1.268 . S
O340 Sc330 2.105 . S
O340 C334 1.268 . S
O341 Sc331 2.105 . S
O341 C335 1.268 . S
O342 Sc332 2.105 . S
O342 C336 1.268 . S
O343 Sc330 2.105 . S
O343 C337 1.268 . S
O344 Sc332 2.105 . S
O344 C338 1.268 . S
O345 Sc331 2.105 . S
O345 C339 1.268 . S
O346 Sc330 2.105 . S
O346 C338 1.268 . S
O347 Sc331 2.105 . S
O347 C337 1.268 . S
O348 Sc332 2.105 . S
O348 C339 1.268 . S
O349 Sc330 2.105 . S
O349 C335 1.268 . S
O350 Sc332 2.105 . S
O350 C334 1.268 . S
O351 Sc331 2.105 . S
O351 C336 1.268 . S
Sc352 O355 2.025 . S
Sc352 O362 2.105 . S
Sc352 O365 2.105 . S
Sc352 O368 2.105 . S
Sc352 O371 2.105 . S
Sc353 O355 2.025 . S
Sc353 O363 2.105 . S
Sc353 O367 2.105 . S
Sc353 O369 2.105 . S
Sc353 O373 2.105 . S
Sc354 O355 2.025 . S
Sc354 O364 2.105 . S
Sc354 O366 2.105 . S
Sc354 O370 2.105 . S
Sc354 O372 2.105 . S
O355 Sc352 2.025 . S
O355 Sc353 2.025 . S
O355 Sc354 2.025 . S
C356 O362 1.268 . S
C356 O372 1.268 . S
C357 O363 1.268 . S
C357 O371 1.268 . S
C358 O364 1.268 . S
C358 O373 1.268 . S
C359 O365 1.268 . S
C359 O369 1.268 . S
C360 O366 1.268 . S
C360 O368 1.268 . S
C361 O367 1.268 . S
C361 O370 1.268 . S
O362 Sc352 2.105 . S
O362 C356 1.268 . S
O363 Sc353 2.105 . S
O363 C357 1.268 . S
O364 Sc354 2.105 . S
O364 C358 1.268 . S
O365 Sc352 2.105 . S
O365 C359 1.268 . S
O366 Sc354 2.105 . S
O366 C360 1.268 . S
O367 Sc353 2.105 . S
O367 C361 1.268 . S
O368 Sc352 2.105 . S
O368 C360 1.268 . S
O369 Sc353 2.105 . S
O369 C359 1.268 . S
O370 Sc354 2.105 . S
O370 C361 1.268 . S
O371 Sc352 2.105 . S
O371 C357 1.268 . S
O372 Sc354 2.105 . S
O372 C356 1.268 . S
O373 Sc353 2.105 . S
O373 C358 1.268 . S
Sc374 O377 2.025 . S
Sc374 O384 2.105 . S
Sc374 O387 2.105 . S
Sc374 O390 2.105 . S
Sc374 O393 2.105 . S
Sc375 O377 2.025 . S
Sc375 O385 2.105 . S
Sc375 O389 2.105 . S
Sc375 O391 2.105 . S
Sc375 O395 2.105 . S
Sc376 O377 2.025 . S
Sc376 O386 2.105 . S
Sc376 O388 2.105 . S
Sc376 O392 2.105 . S
Sc376 O394 2.105 . S
O377 Sc374 2.025 . S
O377 Sc375 2.025 . S
O377 Sc376 2.025 . S
C378 O384 1.268 . S
C378 O394 1.268 . S
C379 O385 1.268 . S
C379 O393 1.268 . S
C380 O386 1.268 . S
C380 O395 1.268 . S
C381 O387 1.268 . S
C381 O391 1.268 . S
C382 O388 1.268 . S
C382 O390 1.268 . S
C383 O389 1.268 . S
C383 O392 1.268 . S
O384 Sc374 2.105 . S
O384 C378 1.268 . S
O385 Sc375 2.105 . S
O385 C379 1.268 . S
O386 Sc376 2.105 . S
O386 C380 1.268 . S
O387 Sc374 2.105 . S
O387 C381 1.268 . S
O388 Sc376 2.105 . S
O388 C382 1.268 . S
O389 Sc375 2.105 . S
O389 C383 1.268 . S
O390 Sc374 2.105 . S
O390 C382 1.268 . S
O391 Sc375 2.105 . S
O391 C381 1.268 . S
O392 Sc376 2.105 . S
O392 C383 1.268 . S
O393 Sc374 2.105 . S
O393 C379 1.268 . S
O394 Sc376 2.105 . S
O394 C378 1.268 . S
O395 Sc375 2.105 . S
O395 C380 1.268 . S
Sc396 O399 2.025 . S
Sc396 O406 2.105 . S
Sc396 O409 2.105 . S
Sc396 O412 2.105 . S
Sc396 O415 2.105 . S
Sc397 O399 2.025 . S
Sc397 O407 2.105 . S
Sc397 O411 2.105 . S
Sc397 O413 2.105 . S
Sc397 O417 2.105 . S
Sc398 O399 2.025 . S
Sc398 O408 2.105 . S
Sc398 O410 2.105 . S
Sc398 O414 2.105 . S
Sc398 O416 2.105 . S
O399 Sc396 2.025 . S
O399 Sc397 2.025 . S
O399 Sc398 2.025 . S
C400 O406 1.268 . S
C400 O416 1.268 . S
C401 O407 1.268 . S
C401 O415 1.268 . S
C402 O408 1.268 . S
C402 O417 1.268 . S
C403 O409 1.268 . S
C403 O413 1.268 . S
C404 O410 1.268 . S
C404 O412 1.268 . S
C405 O411 1.268 . S
C405 O414 1.268 . S
O406 Sc396 2.105 . S
O406 C400 1.268 . S
O407 Sc397 2.105 . S
O407 C401 1.268 . S
O408 Sc398 2.105 . S
O408 C402 1.268 . S
O409 Sc396 2.105 . S
O409 C403 1.268 . S
O410 Sc398 2.105 . S
O410 C404 1.268 . S
O411 Sc397 2.105 . S
O411 C405 1.268 . S
O412 Sc396 2.105 . S
O412 C404 1.268 . S
O413 Sc397 2.105 . S
O413 C403 1.268 . S
O414 Sc398 2.105 . S
O414 C405 1.268 . S
O415 Sc396 2.105 . S
O415 C401 1.268 . S
O416 Sc398 2.105 . S
O416 C400 1.268 . S
O417 Sc397 2.105 . S
O417 C402 1.268 . S
Sc418 O421 2.025 . S
Sc418 O428 2.105 . S
Sc418 O431 2.105 . S
Sc418 O434 2.105 . S
Sc418 O437 2.105 . S
Sc419 O421 2.025 . S
Sc419 O429 2.105 . S
Sc419 O433 2.105 . S
Sc419 O435 2.105 . S
Sc419 O439 2.105 . S
Sc420 O421 2.025 . S
Sc420 O430 2.105 . S
Sc420 O432 2.105 . S
Sc420 O436 2.105 . S
Sc420 O438 2.105 . S
O421 Sc418 2.025 . S
O421 Sc419 2.025 . S
O421 Sc420 2.025 . S
C422 O428 1.268 . S
C422 O438 1.268 . S
C423 O429 1.268 . S
C423 O437 1.268 . S
C424 O430 1.268 . S
C424 O439 1.268 . S
C425 O431 1.268 . S
C425 O435 1.268 . S
C426 O432 1.268 . S
C426 O434 1.268 . S
C427 O433 1.268 . S
C427 O436 1.268 . S
O428 Sc418 2.105 . S
O428 C422 1.268 . S
O429 Sc419 2.105 . S
O429 C423 1.268 . S
O430 Sc420 2.105 . S
O430 C424 1.268 . S
O431 Sc418 2.105 . S
O431 C425 1.268 . S
O432 Sc420 2.105 . S
O432 C426 1.268 . S
O433 Sc419 2.105 . S
O433 C427 1.268 . S
O434 Sc418 2.105 . S
O434 C426 1.268 . S
O435 Sc419 2.105 . S
O435 C425 1.268 . S
O436 Sc420 2.105 . S
O436 C427 1.268 . S
O437 Sc418 2.105 . S
O437 C423 1.268 . S
O438 Sc420 2.105 . S
O438 C422 1.268 . S
O439 Sc419 2.105 . S
O439 C424 1.268 . S
Sc440 O443 2.025 . S
Sc440 O450 2.105 . S
Sc440 O453 2.105 . S
Sc440 O456 2.105 . S
Sc440 O459 2.105 . S
Sc441 O443 2.025 . S
Sc441 O451 2.105 . S
Sc441 O455 2.105 . S
Sc441 O457 2.105 . S
Sc441 O461 2.105 . S
Sc442 O443 2.025 . S
Sc442 O452 2.105 . S
Sc442 O454 2.105 . S
Sc442 O458 2.105 . S
Sc442 O460 2.105 . S
O443 Sc440 2.025 . S
O443 Sc441 2.025 . S
O443 Sc442 2.025 . S
C444 O450 1.268 . S
C444 O460 1.268 . S
C445 O451 1.268 . S
C445 O459 1.268 . S
C446 O452 1.268 . S
C446 O461 1.268 . S
C447 O453 1.268 . S
C447 O457 1.268 . S
C448 O454 1.268 . S
C448 O456 1.268 . S
C449 O455 1.268 . S
C449 O458 1.268 . S
O450 Sc440 2.105 . S
O450 C444 1.268 . S
O451 Sc441 2.105 . S
O451 C445 1.268 . S
O452 Sc442 2.105 . S
O452 C446 1.268 . S
O453 Sc440 2.105 . S
O453 C447 1.268 . S
O454 Sc442 2.105 . S
O454 C448 1.268 . S
O455 Sc441 2.105 . S
O455 C449 1.268 . S
O456 Sc440 2.105 . S
O456 C448 1.268 . S
O457 Sc441 2.105 . S
O457 C447 1.268 . S
O458 Sc442 2.105 . S
O458 C449 1.268 . S
O459 Sc440 2.105 . S
O459 C445 1.268 . S
O460 Sc442 2.105 . S
O460 C444 1.268 . S
O461 Sc441 2.105 . S
O461 C446 1.268 . S
Sc462 O465 2.025 . S
Sc462 O472 2.105 . S
Sc462 O475 2.105 . S
Sc462 O478 2.105 . S
Sc462 O481 2.105 . S
Sc463 O465 2.025 . S
Sc463 O473 2.105 . S
Sc463 O477 2.105 . S
Sc463 O479 2.105 . S
Sc463 O483 2.105 . S
Sc464 O465 2.025 . S
Sc464 O474 2.105 . S
Sc464 O476 2.105 . S
Sc464 O480 2.105 . S
Sc464 O482 2.105 . S
O465 Sc462 2.025 . S
O465 Sc463 2.025 . S
O465 Sc464 2.025 . S
C466 O472 1.268 . S
C466 O482 1.268 . S
C467 O473 1.268 . S
C467 O481 1.268 . S
C468 O474 1.268 . S
C468 O483 1.268 . S
C469 O475 1.268 . S
C469 O479 1.268 . S
C470 O476 1.268 . S
C470 O478 1.268 . S
C471 O477 1.268 . S
C471 O480 1.268 . S
O472 Sc462 2.105 . S
O472 C466 1.268 . S
O473 Sc463 2.105 . S
O473 C467 1.268 . S
O474 Sc464 2.105 . S
O474 C468 1.268 . S
O475 Sc462 2.105 . S
O475 C469 1.268 . S
O476 Sc464 2.105 . S
O476 C470 1.268 . S
O477 Sc463 2.105 . S
O477 C471 1.268 . S
O478 Sc462 2.105 . S
O478 C470 1.268 . S
O479 Sc463 2.105 . S
O479 C469 1.268 . S
O480 Sc464 2.105 . S
O480 C471 1.268 . S
O481 Sc462 2.105 . S
O481 C467 1.268 . S
O482 Sc464 2.105 . S
O482 C466 1.268 . S
O483 Sc463 2.105 . S
O483 C468 1.268 . S
Sc484 O487 2.025 . S
Sc484 O494 2.105 . S
Sc484 O497 2.105 . S
Sc484 O500 2.105 . S
Sc484 O503 2.105 . S
Sc485 O487 2.025 . S
Sc485 O495 2.105 . S
Sc485 O499 2.105 . S
Sc485 O501 2.105 . S
Sc485 O505 2.105 . S
Sc486 O487 2.025 . S
Sc486 O496 2.105 . S
Sc486 O498 2.105 . S
Sc486 O502 2.105 . S
Sc486 O504 2.105 . S
O487 Sc484 2.025 . S
O487 Sc485 2.025 . S
O487 Sc486 2.025 . S
C488 O494 1.268 . S
C488 O504 1.268 . S
C489 O495 1.268 . S
C489 O503 1.268 . S
C490 O496 1.268 . S
C490 O505 1.268 . S
C491 O497 1.268 . S
C491 O501 1.268 . S
C492 O498 1.268 . S
C492 O500 1.268 . S
C493 O499 1.268 . S
C493 O502 1.268 . S
O494 Sc484 2.105 . S
O494 C488 1.268 . S
O495 Sc485 2.105 . S
O495 C489 1.268 . S
O496 Sc486 2.105 . S
O496 C490 1.268 . S
O497 Sc484 2.105 . S
O497 C491 1.268 . S
O498 Sc486 2.105 . S
O498 C492 1.268 . S
O499 Sc485 2.105 . S
O499 C493 1.268 . S
O500 Sc484 2.105 . S
O500 C492 1.268 . S
O501 Sc485 2.105 . S
O501 C491 1.268 . S
O502 Sc486 2.105 . S
O502 C493 1.268 . S
O503 Sc484 2.105 . S
O503 C489 1.268 . S
O504 Sc486 2.105 . S
O504 C488 1.268 . S
O505 Sc485 2.105 . S
O505 C490 1.268 . S
Sc506 O509 2.025 . S
Sc506 O516 2.105 . S
Sc506 O519 2.105 . S
Sc506 O522 2.105 . S
Sc506 O525 2.105 . S
Sc507 O509 2.025 . S
Sc507 O517 2.105 . S
Sc507 O521 2.105 . S
Sc507 O523 2.105 . S
Sc507 O527 2.105 . S
Sc508 O509 2.025 . S
Sc508 O518 2.105 . S
Sc508 O520 2.105 . S
Sc508 O524 2.105 . S
Sc508 O526 2.105 . S
O509 Sc506 2.025 . S
O509 Sc507 2.025 . S
O509 Sc508 2.025 . S
C510 O516 1.268 . S
C510 O526 1.268 . S
C511 O517 1.268 . S
C511 O525 1.268 . S
C512 O518 1.268 . S
C512 O527 1.268 . S
C513 O519 1.268 . S
C513 O523 1.268 . S
C514 O520 1.268 . S
C514 O522 1.268 . S
C515 O521 1.268 . S
C515 O524 1.268 . S
O516 Sc506 2.105 . S
O516 C510 1.268 . S
O517 Sc507 2.105 . S
O517 C511 1.268 . S
O518 Sc508 2.105 . S
O518 C512 1.268 . S
O519 Sc506 2.105 . S
O519 C513 1.268 . S
O520 Sc508 2.105 . S
O520 C514 1.268 . S
O521 Sc507 2.105 . S
O521 C515 1.268 . S
O522 Sc506 2.105 . S
O522 C514 1.268 . S
O523 Sc507 2.105 . S
O523 C513 1.268 . S
O524 Sc508 2.105 . S
O524 C515 1.268 . S
O525 Sc506 2.105 . S
O525 C511 1.268 . S
O526 Sc508 2.105 . S
O526 C510 1.268 . S
O527 Sc507 2.105 . S
O527 C512 1.268 . S
H528 C540 0.930 . S
H529 C542 0.930 . S
H530 C543 0.930 . S
H531 C547 0.959 . S
H532 C547 0.959 . S
H533 C547 0.961 . S
H534 C548 0.960 . S
H535 C548 0.961 . S
H536 C548 0.959 . S
H537 C551 0.929 . S
H538 C552 0.931 . S
H539 C554 0.930 . S
C540 H528 0.930 . S
C540 C541 1.399 1_655 S
C540 C545 1.399 . S
C541 C540 1.399 1_455 S
C541 C542 1.376 . S
C542 H529 0.930 . S
C542 C541 1.376 . S
C542 C543 1.388 . S
C543 H530 0.930 . S
C543 C542 1.388 . S
C543 C544 1.390 . S
C544 C543 1.390 . S
C544 C545 1.394 1_455 S
C544 C550 1.465 . S
C545 C540 1.399 . S
C545 C544 1.394 1_655 S
C545 C546 1.516 . S
C546 C545 1.516 . S
C546 C547 1.502 . S
C546 C548 1.561 1_655 S
C546 C549 1.526 . S
C547 H531 0.959 . S
C547 H532 0.959 . S
C547 H533 0.961 . S
C547 C546 1.502 . S
C548 H534 0.960 . S
C548 H535 0.961 . S
C548 H536 0.959 . S
C548 C546 1.561 1_455 S
C549 C546 1.526 . S
C549 C550 1.396 1_655 S
C549 C554 1.390 . S
C550 C544 1.465 . S
C550 C549 1.396 1_455 S
C550 C551 1.399 . S
C551 H537 0.929 . S
C551 C550 1.399 . S
C551 C552 1.385 . S
C552 H538 0.931 . S
C552 C551 1.385 . S
C552 C553 1.389 . S
C553 C552 1.389 . S
C553 C554 1.387 1_455 S
C554 H539 0.930 . S
C554 C549 1.390 . S
C554 C553 1.387 1_655 S
H555 C567 0.930 . S
H556 C569 0.930 . S
H557 C570 0.930 . S
H558 C574 0.959 . S
H559 C574 0.959 . S
H560 C574 0.961 . S
H561 C575 0.960 . S
H562 C575 0.961 . S
H563 C575 0.959 . S
H564 C578 0.929 . S
H565 C579 0.931 . S
H566 C581 0.930 . S
C567 H555 0.930 . S
C567 C568 1.399 1_565 S
C567 C572 1.399 . S
C568 C567 1.399 1_545 S
C568 C569 1.376 . S
C569 H556 0.930 . S
C569 C568 1.376 . S
C569 C570 1.388 . S
C570 H557 0.930 . S
C570 C569 1.388 . S
C570 C571 1.390 . S
C571 C570 1.390 . S
C571 C572 1.394 1_545 S
C571 C577 1.465 . S
C572 C567 1.399 . S
C572 C571 1.394 1_565 S
C572 C573 1.516 . S
C573 C572 1.516 . S
C573 C574 1.502 . S
C573 C575 1.561 . S
C573 C576 1.526 . S
C574 H558 0.959 . S
C574 H559 0.959 . S
C574 H560 0.961 . S
C574 C573 1.502 . S
C575 H561 0.960 . S
C575 H562 0.961 . S
C575 H563 0.959 . S
C575 C573 1.561 . S
C576 C573 1.526 . S
C576 C577 1.396 1_565 S
C576 C581 1.390 . S
C577 C571 1.465 . S
C577 C576 1.396 1_545 S
C577 C578 1.399 . S
C578 H564 0.929 . S
C578 C577 1.399 . S
C578 C579 1.385 . S
C579 H565 0.931 . S
C579 C578 1.385 . S
C579 C580 1.389 . S
C580 C579 1.389 . S
C580 C581 1.387 1_545 S
C581 H566 0.930 . S
C581 C576 1.390 . S
C581 C580 1.387 1_565 S
H582 C594 0.930 . S
H583 C596 0.930 . S
H584 C597 0.930 . S
H585 C601 0.959 . S
H586 C601 0.959 . S
H587 C601 0.961 . S
H588 C602 0.960 . S
H589 C602 0.961 . S
H590 C602 0.959 . S
H591 C605 0.929 . S
H592 C606 0.931 . S
H593 C608 0.930 . S
C594 H582 0.930 . S
C594 C595 1.399 1_455 S
C594 C599 1.399 . S
C595 C594 1.399 1_655 S
C595 C596 1.376 . S
C596 H583 0.930 . S
C596 C595 1.376 . S
C596 C597 1.388 . S
C597 H584 0.930 . S
C597 C596 1.388 . S
C597 C598 1.390 . S
C598 C597 1.390 . S
C598 C599 1.394 1_655 S
C598 C604 1.465 . S
C599 C594 1.399 . S
C599 C598 1.394 1_455 S
C599 C600 1.516 . S
C600 C599 1.516 . S
C600 C601 1.502 . S
C600 C602 1.561 1_455 S
C600 C603 1.526 . S
C601 H585 0.959 . S
C601 H586 0.959 . S
C601 H587 0.961 . S
C601 C600 1.502 . S
C602 H588 0.960 . S
C602 H589 0.961 . S
C602 H590 0.959 . S
C602 C600 1.561 1_655 S
C603 C600 1.526 . S
C603 C604 1.396 1_455 S
C603 C608 1.390 . S
C604 C598 1.465 . S
C604 C603 1.396 1_655 S
C604 C605 1.399 . S
C605 H591 0.929 . S
C605 C604 1.399 . S
C605 C606 1.385 . S
C606 H592 0.931 . S
C606 C605 1.385 . S
C606 C607 1.389 . S
C607 C606 1.389 . S
C607 C608 1.387 1_655 S
C608 H593 0.930 . S
C608 C603 1.390 . S
C608 C607 1.387 1_455 S
H609 C621 0.930 . S
H610 C623 0.930 . S
H611 C624 0.930 . S
H612 C628 0.959 . S
H613 C628 0.959 . S
H614 C628 0.961 . S
H615 C629 0.960 . S
H616 C629 0.961 . S
H617 C629 0.959 . S
H618 C632 0.929 . S
H619 C633 0.931 . S
H620 C635 0.930 . S
C621 H609 0.930 . S
C621 C622 1.399 1_545 S
C621 C626 1.399 . S
C622 C621 1.399 1_565 S
C622 C623 1.376 . S
C623 H610 0.930 . S
C623 C622 1.376 . S
C623 C624 1.388 . S
C624 H611 0.930 . S
C624 C623 1.388 . S
C624 C625 1.390 . S
C625 C624 1.390 . S
C625 C626 1.394 1_565 S
C625 C631 1.465 . S
C626 C621 1.399 . S
C626 C625 1.394 1_545 S
C626 C627 1.516 . S
C627 C626 1.516 . S
C627 C628 1.502 . S
C627 C629 1.561 . S
C627 C630 1.526 . S
C628 H612 0.959 . S
C628 H613 0.959 . S
C628 H614 0.961 . S
C628 C627 1.502 . S
C629 H615 0.960 . S
C629 H616 0.961 . S
C629 H617 0.959 . S
C629 C627 1.561 . S
C630 C627 1.526 . S
C630 C631 1.396 1_545 S
C630 C635 1.390 . S
C631 C625 1.465 . S
C631 C630 1.396 1_565 S
C631 C632 1.399 . S
C632 H618 0.929 . S
C632 C631 1.399 . S
C632 C633 1.385 . S
C633 H619 0.931 . S
C633 C632 1.385 . S
C633 C634 1.389 . S
C634 C633 1.389 . S
C634 C635 1.387 1_565 S
C635 H620 0.930 . S
C635 C630 1.390 . S
C635 C634 1.387 1_545 S
H636 C648 0.930 . S
H637 C650 0.930 . S
H638 C651 0.930 . S
H639 C655 0.959 . S
H640 C655 0.959 . S
H641 C655 0.961 . S
H642 C656 0.960 . S
H643 C656 0.961 . S
H644 C656 0.959 . S
H645 C659 0.929 . S
H646 C660 0.931 . S
H647 C662 0.930 . S
C648 H636 0.930 . S
C648 C649 1.399 1_545 S
C648 C653 1.399 . S
C649 C648 1.399 1_565 S
C649 C650 1.376 . S
C650 H637 0.930 . S
C650 C649 1.376 . S
C650 C651 1.388 . S
C651 H638 0.930 . S
C651 C650 1.388 . S
C651 C652 1.390 . S
C652 C651 1.390 . S
C652 C653 1.394 1_565 S
C652 C658 1.465 . S
C653 C648 1.399 . S
C653 C652 1.394 1_545 S
C653 C654 1.516 . S
C654 C653 1.516 . S
C654 C655 1.502 . S
C654 C656 1.561 . S
C654 C657 1.526 . S
C655 H639 0.959 . S
C655 H640 0.959 . S
C655 H641 0.961 . S
C655 C654 1.502 . S
C656 H642 0.960 . S
C656 H643 0.961 . S
C656 H644 0.959 . S
C656 C654 1.561 . S
C657 C654 1.526 . S
C657 C658 1.396 1_545 S
C657 C662 1.390 . S
C658 C652 1.465 . S
C658 C657 1.396 1_565 S
C658 C659 1.399 . S
C659 H645 0.929 . S
C659 C658 1.399 . S
C659 C660 1.385 . S
C660 H646 0.931 . S
C660 C659 1.385 . S
C660 C661 1.389 . S
C661 C660 1.389 . S
C661 C662 1.387 1_565 S
C662 H647 0.930 . S
C662 C657 1.390 . S
C662 C661 1.387 1_545 S
H663 C675 0.930 . S
H664 C677 0.930 . S
H665 C678 0.930 . S
H666 C682 0.959 . S
H667 C682 0.959 . S
H668 C682 0.961 . S
H669 C683 0.960 . S
H670 C683 0.961 . S
H671 C683 0.959 . S
H672 C686 0.929 . S
H673 C687 0.931 . S
H674 C689 0.930 . S
C675 H663 0.930 . S
C675 C676 1.399 1_655 S
C675 C680 1.399 . S
C676 C675 1.399 1_455 S
C676 C677 1.376 . S
C677 H664 0.930 . S
C677 C676 1.376 . S
C677 C678 1.388 . S
C678 H665 0.930 . S
C678 C677 1.388 . S
C678 C679 1.390 . S
C679 C678 1.390 . S
C679 C680 1.394 1_455 S
C679 C685 1.465 . S
C680 C675 1.399 . S
C680 C679 1.394 1_655 S
C680 C681 1.516 . S
C681 C680 1.516 . S
C681 C682 1.502 . S
C681 C683 1.561 1_655 S
C681 C684 1.526 . S
C682 H666 0.959 . S
C682 H667 0.959 . S
C682 H668 0.961 . S
C682 C681 1.502 . S
C683 H669 0.960 . S
C683 H670 0.961 . S
C683 H671 0.959 . S
C683 C681 1.561 1_455 S
C684 C681 1.526 . S
C684 C685 1.396 1_655 S
C684 C689 1.390 . S
C685 C679 1.465 . S
C685 C684 1.396 1_455 S
C685 C686 1.399 . S
C686 H672 0.929 . S
C686 C685 1.399 . S
C686 C687 1.385 . S
C687 H673 0.931 . S
C687 C686 1.385 . S
C687 C688 1.389 . S
C688 C687 1.389 . S
C688 C689 1.387 1_455 S
C689 H674 0.930 . S
C689 C684 1.390 . S
C689 C688 1.387 1_655 S
H690 C702 0.930 . S
H691 C704 0.930 . S
H692 C705 0.930 . S
H693 C709 0.959 . S
H694 C709 0.959 . S
H695 C709 0.961 . S
H696 C710 0.960 . S
H697 C710 0.961 . S
H698 C710 0.959 . S
H699 C713 0.929 . S
H700 C714 0.931 . S
H701 C716 0.930 . S
C702 H690 0.930 . S
C702 C703 1.399 1_565 S
C702 C707 1.399 . S
C703 C702 1.399 1_545 S
C703 C704 1.376 . S
C704 H691 0.930 . S
C704 C703 1.376 . S
C704 C705 1.388 . S
C705 H692 0.930 . S
C705 C704 1.388 . S
C705 C706 1.390 . S
C706 C705 1.390 . S
C706 C707 1.394 1_545 S
C706 C712 1.465 . S
C707 C702 1.399 . S
C707 C706 1.394 1_565 S
C707 C708 1.516 . S
C708 C707 1.516 . S
C708 C709 1.502 . S
C708 C710 1.561 . S
C708 C711 1.526 . S
C709 H693 0.959 . S
C709 H694 0.959 . S
C709 H695 0.961 . S
C709 C708 1.502 . S
C710 H696 0.960 . S
C710 H697 0.961 . S
C710 H698 0.959 . S
C710 C708 1.561 . S
C711 C708 1.526 . S
C711 C712 1.396 1_565 S
C711 C716 1.390 . S
C712 C706 1.465 . S
C712 C711 1.396 1_545 S
C712 C713 1.399 . S
C713 H699 0.929 . S
C713 C712 1.399 . S
C713 C714 1.385 . S
C714 H700 0.931 . S
C714 C713 1.385 . S
C714 C715 1.389 . S
C715 C714 1.389 . S
C715 C716 1.387 1_545 S
C716 H701 0.930 . S
C716 C711 1.390 . S
C716 C715 1.387 1_565 S
H717 C729 0.930 . S
H718 C731 0.930 . S
H719 C732 0.930 . S
H720 C736 0.959 . S
H721 C736 0.959 . S
H722 C736 0.961 . S
H723 C737 0.960 . S
H724 C737 0.961 . S
H725 C737 0.959 . S
H726 C740 0.929 . S
H727 C741 0.931 . S
H728 C743 0.930 . S
C729 H717 0.930 . S
C729 C730 1.399 1_455 S
C729 C734 1.399 . S
C730 C729 1.399 1_655 S
C730 C731 1.376 . S
C731 H718 0.930 . S
C731 C730 1.376 . S
C731 C732 1.388 . S
C732 H719 0.930 . S
C732 C731 1.388 . S
C732 C733 1.390 . S
C733 C732 1.390 . S
C733 C734 1.394 1_655 S
C733 C739 1.465 . S
C734 C729 1.399 . S
C734 C733 1.394 1_455 S
C734 C735 1.516 . S
C735 C734 1.516 . S
C735 C736 1.502 . S
C735 C737 1.561 1_455 S
C735 C738 1.526 . S
C736 H720 0.959 . S
C736 H721 0.959 . S
C736 H722 0.961 . S
C736 C735 1.502 . S
C737 H723 0.960 . S
C737 H724 0.961 . S
C737 H725 0.959 . S
C737 C735 1.561 1_655 S
C738 C735 1.526 . S
C738 C739 1.396 1_455 S
C738 C743 1.390 . S
C739 C733 1.465 . S
C739 C738 1.396 1_655 S
C739 C740 1.399 . S
C740 H726 0.929 . S
C740 C739 1.399 . S
C740 C741 1.385 . S
C741 H727 0.931 . S
C741 C740 1.385 . S
C741 C742 1.402 . S
C742 C741 1.402 . S
C742 C743 1.380 1_655 S
C743 H728 0.930 . S
C743 C738 1.390 . S
C743 C742 1.380 1_455 S
H744 C756 0.930 . S
H745 C758 0.930 . S
H746 C759 0.930 . S
H747 C763 0.959 . S
H748 C763 0.959 . S
H749 C763 0.961 . S
H750 C764 0.960 . S
H751 C764 0.961 . S
H752 C764 0.959 . S
H753 C767 0.929 . S
H754 C768 0.931 . S
H755 C770 0.930 . S
C756 H744 0.930 . S
C756 C757 1.399 1_556 S
C756 C761 1.399 . S
C757 C756 1.399 1_554 S
C757 C758 1.376 . S
C758 H745 0.930 . S
C758 C757 1.376 . S
C758 C759 1.388 . S
C759 H746 0.930 . S
C759 C758 1.388 . S
C759 C760 1.390 . S
C760 C759 1.390 . S
C760 C761 1.394 1_554 S
C760 C766 1.465 . S
C761 C756 1.399 . S
C761 C760 1.394 1_556 S
C761 C762 1.516 . S
C762 C761 1.516 . S
C762 C763 1.502 . S
C762 C764 1.561 . S
C762 C765 1.526 . S
C763 H747 0.959 . S
C763 H748 0.959 . S
C763 H749 0.961 . S
C763 C762 1.502 . S
C764 H750 0.960 . S
C764 H751 0.961 . S
C764 H752 0.959 . S
C764 C762 1.561 . S
C765 C762 1.526 . S
C765 C766 1.396 1_556 S
C765 C770 1.390 . S
C766 C760 1.465 . S
C766 C765 1.396 1_554 S
C766 C767 1.399 . S
C767 H753 0.929 . S
C767 C766 1.399 . S
C767 C768 1.385 . S
C768 H754 0.931 . S
C768 C767 1.385 . S
C768 C769 1.389 . S
C769 C768 1.389 . S
C769 C770 1.387 1_554 S
C770 H755 0.930 . S
C770 C765 1.390 . S
C770 C769 1.387 1_556 S
H771 C783 0.930 . S
H772 C785 0.930 . S
H773 C786 0.930 . S
H774 C790 0.959 . S
H775 C790 0.959 . S
H776 C790 0.961 . S
H777 C791 0.960 . S
H778 C791 0.961 . S
H779 C791 0.959 . S
H780 C794 0.929 . S
H781 C795 0.931 . S
H782 C797 0.930 . S
C783 H771 0.930 . S
C783 C784 1.399 1_556 S
C783 C788 1.399 . S
C784 C783 1.399 1_554 S
C784 C785 1.376 . S
C785 H772 0.930 . S
C785 C784 1.376 . S
C785 C786 1.388 . S
C786 H773 0.930 . S
C786 C785 1.388 . S
C786 C787 1.390 . S
C787 C786 1.390 . S
C787 C788 1.394 1_554 S
C787 C793 1.465 . S
C788 C783 1.399 . S
C788 C787 1.394 1_556 S
C788 C789 1.516 . S
C789 C788 1.516 . S
C789 C790 1.502 . S
C789 C791 1.561 . S
C789 C792 1.526 . S
C790 H774 0.959 . S
C790 H775 0.959 . S
C790 H776 0.961 . S
C790 C789 1.502 . S
C791 H777 0.960 . S
C791 H778 0.961 . S
C791 H779 0.959 . S
C791 C789 1.561 . S
C792 C789 1.526 . S
C792 C793 1.396 1_556 S
C792 C797 1.390 . S
C793 C787 1.465 . S
C793 C792 1.396 1_554 S
C793 C794 1.399 . S
C794 H780 0.929 . S
C794 C793 1.399 . S
C794 C795 1.385 . S
C795 H781 0.931 . S
C795 C794 1.385 . S
C795 C796 1.389 . S
C796 C795 1.389 . S
C796 C797 1.387 1_554 S
C797 H782 0.930 . S
C797 C792 1.390 . S
C797 C796 1.387 1_556 S
H798 C810 0.930 . S
H799 C812 0.930 . S
H800 C813 0.930 . S
H801 C817 0.959 . S
H802 C817 0.959 . S
H803 C817 0.961 . S
H804 C818 0.960 . S
H805 C818 0.961 . S
H806 C818 0.959 . S
H807 C821 0.929 . S
H808 C822 0.931 . S
H809 C824 0.930 . S
C810 H798 0.930 . S
C810 C811 1.399 1_554 S
C810 C815 1.399 . S
C811 C810 1.399 1_556 S
C811 C812 1.376 . S
C812 H799 0.930 . S
C812 C811 1.376 . S
C812 C813 1.388 . S
C813 H800 0.930 . S
C813 C812 1.388 . S
C813 C814 1.390 . S
C814 C813 1.390 . S
C814 C815 1.394 1_556 S
C814 C820 1.465 . S
C815 C810 1.399 . S
C815 C814 1.394 1_554 S
C815 C816 1.516 . S
C816 C815 1.516 . S
C816 C817 1.502 . S
C816 C818 1.561 . S
C816 C819 1.526 . S
C817 H801 0.959 . S
C817 H802 0.959 . S
C817 H803 0.961 . S
C817 C816 1.502 . S
C818 H804 0.960 . S
C818 H805 0.961 . S
C818 H806 0.959 . S
C818 C816 1.561 . S
C819 C816 1.526 . S
C819 C820 1.396 1_554 S
C819 C824 1.390 . S
C820 C814 1.465 . S
C820 C819 1.396 1_556 S
C820 C821 1.399 . S
C821 H807 0.929 . S
C821 C820 1.399 . S
C821 C822 1.385 . S
C822 H808 0.931 . S
C822 C821 1.385 . S
C822 C823 1.389 . S
C823 C822 1.389 . S
C823 C824 1.387 1_556 S
C824 H809 0.930 . S
C824 C819 1.390 . S
C824 C823 1.387 1_554 S
H825 C837 0.930 . S
H826 C839 0.930 . S
H827 C840 0.930 . S
H828 C844 0.959 . S
H829 C844 0.959 . S
H830 C844 0.961 . S
H831 C845 0.960 . S
H832 C845 0.961 . S
H833 C845 0.959 . S
H834 C848 0.929 . S
H835 C849 0.931 . S
H836 C851 0.930 . S
C837 H825 0.930 . S
C837 C838 1.399 1_554 S
C837 C842 1.399 . S
C838 C837 1.399 1_556 S
C838 C839 1.376 . S
C839 H826 0.930 . S
C839 C838 1.376 . S
C839 C840 1.388 . S
C840 H827 0.930 . S
C840 C839 1.388 . S
C840 C841 1.390 . S
C841 C840 1.390 . S
C841 C842 1.394 1_556 S
C841 C847 1.465 . S
C842 C837 1.399 . S
C842 C841 1.394 1_554 S
C842 C843 1.516 . S
C843 C842 1.516 . S
C843 C844 1.502 . S
C843 C845 1.561 . S
C843 C846 1.526 . S
C844 H828 0.959 . S
C844 H829 0.959 . S
C844 H830 0.961 . S
C844 C843 1.502 . S
C845 H831 0.960 . S
C845 H832 0.961 . S
C845 H833 0.959 . S
C845 C843 1.561 . S
C846 C843 1.526 . S
C846 C847 1.396 1_554 S
C846 C851 1.390 . S
C847 C841 1.465 . S
C847 C846 1.396 1_556 S
C847 C848 1.399 . S
C848 H834 0.929 . S
C848 C847 1.399 . S
C848 C849 1.385 . S
C849 H835 0.931 . S
C849 C848 1.385 . S
C849 C850 1.389 . S
C850 C849 1.389 . S
C850 C851 1.387 1_556 S
C851 H836 0.930 . S
C851 C846 1.390 . S
C851 C850 1.387 1_554 S
H852 C864 0.930 . S
H853 C866 0.930 . S
H854 C867 0.930 . S
H855 C871 0.962 . S
H856 C871 0.979 . S
H857 C871 0.939 1_556 S
H858 C872 0.957 1_556 S
H859 C872 0.964 . S
H860 C872 0.959 . S
H861 C875 0.929 . S
H862 C876 0.931 . S
H863 C878 0.930 . S
C864 H852 0.930 . S
C864 C865 1.399 . S
C864 C869 1.399 . S
C865 C864 1.399 . S
C865 C866 1.376 . S
C866 H853 0.930 . S
C866 C865 1.376 . S
C866 C867 1.388 . S
C867 H854 0.930 . S
C867 C866 1.388 . S
C867 C868 1.390 . S
C868 C867 1.390 . S
C868 C869 1.394 . S
C868 C874 1.465 1_556 S
C869 C864 1.399 . S
C869 C868 1.394 . S
C869 C870 1.517 1_556 S
C870 C869 1.517 1_554 S
C870 C871 1.502 . S
C870 C872 1.561 . S
C870 C873 1.525 . S
C871 H855 0.962 . S
C871 H856 0.979 . S
C871 H857 0.939 1_554 S
C871 C870 1.502 . S
C872 H858 0.957 1_554 S
C872 H859 0.964 . S
C872 H860 0.959 . S
C872 C870 1.561 . S
C873 C870 1.525 . S
C873 C874 1.396 . S
C873 C878 1.390 . S
C874 C868 1.465 1_554 S
C874 C873 1.396 . S
C874 C875 1.399 . S
C875 H861 0.929 . S
C875 C874 1.399 . S
C875 C876 1.385 . S
C876 H862 0.931 . S
C876 C875 1.385 . S
C876 C877 1.389 . S
C877 C876 1.389 . S
C877 C878 1.387 . S
C878 H863 0.930 . S
C878 C873 1.390 . S
C878 C877 1.387 . S
H879 C891 0.930 . S
H880 C893 0.930 . S
H881 C894 0.930 . S
H882 C898 0.962 . S
H883 C898 0.979 . S
H884 C898 0.939 1_554 S
H885 C899 0.957 1_554 S
H886 C899 0.964 . S
H887 C899 0.959 . S
H888 C902 0.929 . S
H889 C903 0.931 . S
H890 C905 0.930 . S
C891 H879 0.930 . S
C891 C892 1.399 . S
C891 C896 1.399 . S
C892 C891 1.399 . S
C892 C893 1.376 . S
C893 H880 0.930 . S
C893 C892 1.376 . S
C893 C894 1.388 . S
C894 H881 0.930 . S
C894 C893 1.388 . S
C894 C895 1.390 . S
C895 C894 1.390 . S
C895 C896 1.394 . S
C895 C901 1.465 1_554 S
C896 C891 1.399 . S
C896 C895 1.394 . S
C896 C897 1.517 1_554 S
C897 C896 1.517 1_556 S
C897 C898 1.502 . S
C897 C899 1.561 . S
C897 C900 1.525 . S
C898 H882 0.962 . S
C898 H883 0.979 . S
C898 H884 0.939 1_556 S
C898 C897 1.502 . S
C899 H885 0.957 1_556 S
C899 H886 0.964 . S
C899 H887 0.959 . S
C899 C897 1.561 . S
C900 C897 1.525 . S
C900 C901 1.396 . S
C900 C905 1.390 . S
C901 C895 1.465 1_556 S
C901 C900 1.396 . S
C901 C902 1.399 . S
C902 H888 0.929 . S
C902 C901 1.399 . S
C902 C903 1.385 . S
C903 H889 0.931 . S
C903 C902 1.385 . S
C903 C904 1.389 . S
C904 C903 1.389 . S
C904 C905 1.387 . S
C905 H890 0.930 . S
C905 C900 1.390 . S
C905 C904 1.387 . S
H906 C918 0.930 . S
H907 C920 0.930 . S
H908 C921 0.930 . S
H909 C925 0.962 . S
H910 C925 0.979 . S
H911 C925 0.939 1_556 S
H912 C926 0.957 1_556 S
H913 C926 0.964 . S
H914 C926 0.959 . S
H915 C929 0.929 . S
H916 C930 0.931 . S
H917 C932 0.930 . S
C918 H906 0.930 . S
C918 C919 1.399 . S
C918 C923 1.399 . S
C919 C918 1.399 . S
C919 C920 1.376 . S
C920 H907 0.930 . S
C920 C919 1.376 . S
C920 C921 1.388 . S
C921 H908 0.930 . S
C921 C920 1.388 . S
C921 C922 1.390 . S
C922 C921 1.390 . S
C922 C923 1.394 . S
C922 C928 1.465 1_556 S
C923 C918 1.399 . S
C923 C922 1.394 . S
C923 C924 1.517 1_556 S
C924 C923 1.517 1_554 S
C924 C925 1.502 . S
C924 C926 1.561 . S
C924 C927 1.525 . S
C925 H909 0.962 . S
C925 H910 0.979 . S
C925 H911 0.939 1_554 S
C925 C924 1.502 . S
C926 H912 0.957 1_554 S
C926 H913 0.964 . S
C926 H914 0.959 . S
C926 C924 1.561 . S
C927 C924 1.525 . S
C927 C928 1.396 . S
C927 C932 1.390 . S
C928 C922 1.465 1_554 S
C928 C927 1.396 . S
C928 C929 1.399 . S
C929 H915 0.929 . S
C929 C928 1.399 . S
C929 C930 1.385 . S
C930 H916 0.931 . S
C930 C929 1.385 . S
C930 C931 1.389 . S
C931 C930 1.389 . S
C931 C932 1.387 . S
C932 H917 0.930 . S
C932 C927 1.390 . S
C932 C931 1.387 . S
H933 C945 0.930 . S
H934 C947 0.930 . S
H935 C948 0.930 . S
H936 C952 0.962 . S
H937 C952 0.979 . S
H938 C952 0.939 1_556 S
H939 C953 0.957 1_556 S
H940 C953 0.964 . S
H941 C953 0.959 . S
H942 C956 0.929 . S
H943 C957 0.931 . S
H944 C959 0.930 . S
C945 H933 0.930 . S
C945 C946 1.399 . S
C945 C950 1.399 . S
C946 C945 1.399 . S
C946 C947 1.376 . S
C947 H934 0.930 . S
C947 C946 1.376 . S
C947 C948 1.388 . S
C948 H935 0.930 . S
C948 C947 1.388 . S
C948 C949 1.390 . S
C949 C948 1.390 . S
C949 C950 1.394 . S
C949 C955 1.465 1_556 S
C950 C945 1.399 . S
C950 C949 1.394 . S
C950 C951 1.517 1_556 S
C951 C950 1.517 1_554 S
C951 C952 1.502 . S
C951 C953 1.561 . S
C951 C954 1.525 . S
C952 H936 0.962 . S
C952 H937 0.979 . S
C952 H938 0.939 1_554 S
C952 C951 1.502 . S
C953 H939 0.957 1_554 S
C953 H940 0.964 . S
C953 H941 0.959 . S
C953 C951 1.561 . S
C954 C951 1.525 . S
C954 C955 1.396 . S
C954 C959 1.390 . S
C955 C949 1.465 1_554 S
C955 C954 1.396 . S
C955 C956 1.399 . S
C956 H942 0.929 . S
C956 C955 1.399 . S
C956 C957 1.385 . S
C957 H943 0.931 . S
C957 C956 1.385 . S
C957 C958 1.389 . S
C958 C957 1.389 . S
C958 C959 1.387 . S
C959 H944 0.930 . S
C959 C954 1.390 . S
C959 C958 1.387 . S
H960 C972 0.930 . S
H961 C974 0.930 . S
H962 C975 0.930 . S
H963 C979 0.962 . S
H964 C979 0.979 . S
H965 C979 0.939 1_655 S
H966 C980 0.957 1_655 S
H967 C980 0.964 . S
H968 C980 0.959 . S
H969 C983 0.929 . S
H970 C984 0.931 . S
H971 C986 0.930 . S
C972 H960 0.930 . S
C972 C973 1.399 . S
C972 C977 1.399 . S
C973 C972 1.399 . S
C973 C974 1.376 . S
C974 H961 0.930 . S
C974 C973 1.376 . S
C974 C975 1.388 . S
C975 H962 0.930 . S
C975 C974 1.388 . S
C975 C976 1.390 . S
C976 C975 1.390 . S
C976 C977 1.394 . S
C976 C982 1.465 1_655 S
C977 C972 1.399 . S
C977 C976 1.394 . S
C977 C978 1.517 1_655 S
C978 C977 1.517 1_455 S
C978 C979 1.502 . S
C978 C980 1.561 . S
C978 C981 1.525 . S
C979 H963 0.962 . S
C979 H964 0.979 . S
C979 H965 0.939 1_455 S
C979 C978 1.502 . S
C980 H966 0.957 1_455 S
C980 H967 0.964 . S
C980 H968 0.959 . S
C980 C978 1.561 . S
C981 C978 1.525 . S
C981 C982 1.396 . S
C981 C986 1.390 . S
C982 C976 1.465 1_455 S
C982 C981 1.396 . S
C982 C983 1.399 . S
C983 H969 0.929 . S
C983 C982 1.399 . S
C983 C984 1.385 . S
C984 H970 0.931 . S
C984 C983 1.385 . S
C984 C985 1.389 . S
C985 C984 1.389 . S
C985 C986 1.387 . S
C986 H971 0.930 . S
C986 C981 1.390 . S
C986 C985 1.387 . S
H987 C999 0.930 . S
H988 C1001 0.930 . S
H989 C1002 0.930 . S
H990 C1006 0.962 . S
H991 C1006 0.979 . S
H992 C1006 0.939 1_545 S
H993 C1007 0.957 1_545 S
H994 C1007 0.964 . S
H995 C1007 0.959 . S
H996 C1010 0.929 . S
H997 C1011 0.931 . S
H998 C1013 0.930 . S
C999 H987 0.930 . S
C999 C1000 1.399 . S
C999 C1004 1.399 . S
C1000 C999 1.399 . S
C1000 C1001 1.376 . S
C1001 H988 0.930 . S
C1001 C1000 1.376 . S
C1001 C1002 1.388 . S
C1002 H989 0.930 . S
C1002 C1001 1.388 . S
C1002 C1003 1.390 . S
C1003 C1002 1.390 . S
C1003 C1004 1.394 . S
C1003 C1009 1.465 1_545 S
C1004 C999 1.399 . S
C1004 C1003 1.394 . S
C1004 C1005 1.517 1_545 S
C1005 C1004 1.517 1_565 S
C1005 C1006 1.502 . S
C1005 C1007 1.561 . S
C1005 C1008 1.525 . S
C1006 H990 0.962 . S
C1006 H991 0.979 . S
C1006 H992 0.939 1_565 S
C1006 C1005 1.502 . S
C1007 H993 0.957 1_565 S
C1007 H994 0.964 . S
C1007 H995 0.959 . S
C1007 C1005 1.561 . S
C1008 C1005 1.525 . S
C1008 C1009 1.396 . S
C1008 C1013 1.390 . S
C1009 C1003 1.465 1_565 S
C1009 C1008 1.396 . S
C1009 C1010 1.399 . S
C1010 H996 0.929 . S
C1010 C1009 1.399 . S
C1010 C1011 1.385 . S
C1011 H997 0.931 . S
C1011 C1010 1.385 . S
C1011 C1012 1.389 . S
C1012 C1011 1.389 . S
C1012 C1013 1.387 . S
C1013 H998 0.930 . S
C1013 C1008 1.390 . S
C1013 C1012 1.387 . S
H1014 C1026 0.930 . S
H1015 C1028 0.930 . S
H1016 C1029 0.930 . S
H1017 C1033 0.962 . S
H1018 C1033 0.979 . S
H1019 C1033 0.939 1_655 S
H1020 C1034 0.957 1_655 S
H1021 C1034 0.964 . S
H1022 C1034 0.959 . S
H1023 C1037 0.929 . S
H1024 C1038 0.931 . S
H1025 C1040 0.930 . S
C1026 H1014 0.930 . S
C1026 C1027 1.399 . S
C1026 C1031 1.399 . S
C1027 C1026 1.399 . S
C1027 C1028 1.376 . S
C1028 H1015 0.930 . S
C1028 C1027 1.376 . S
C1028 C1029 1.388 . S
C1029 H1016 0.930 . S
C1029 C1028 1.388 . S
C1029 C1030 1.390 . S
C1030 C1029 1.390 . S
C1030 C1031 1.394 . S
C1030 C1036 1.465 1_655 S
C1031 C1026 1.399 . S
C1031 C1030 1.394 . S
C1031 C1032 1.517 1_655 S
C1032 C1031 1.517 1_455 S
C1032 C1033 1.502 . S
C1032 C1034 1.561 . S
C1032 C1035 1.525 . S
C1033 H1017 0.962 . S
C1033 H1018 0.979 . S
C1033 H1019 0.939 1_455 S
C1033 C1032 1.502 . S
C1034 H1020 0.957 1_455 S
C1034 H1021 0.964 . S
C1034 H1022 0.959 . S
C1034 C1032 1.561 . S
C1035 C1032 1.525 . S
C1035 C1036 1.396 . S
C1035 C1040 1.390 . S
C1036 C1030 1.465 1_455 S
C1036 C1035 1.396 . S
C1036 C1037 1.399 . S
C1037 H1023 0.929 . S
C1037 C1036 1.399 . S
C1037 C1038 1.385 . S
C1038 H1024 0.931 . S
C1038 C1037 1.385 . S
C1038 C1039 1.389 . S
C1039 C1038 1.389 . S
C1039 C1040 1.387 . S
C1040 H1025 0.930 . S
C1040 C1035 1.390 . S
C1040 C1039 1.387 . S
H1041 C1053 0.930 . S
H1042 C1055 0.930 . S
H1043 C1056 0.930 . S
H1044 C1060 0.962 . S
H1045 C1060 0.979 . S
H1046 C1060 0.939 1_565 S
H1047 C1061 0.957 1_565 S
H1048 C1061 0.964 . S
H1049 C1061 0.959 . S
H1050 C1064 0.929 . S
H1051 C1065 0.931 . S
H1052 C1067 0.930 . S
C1053 H1041 0.930 . S
C1053 C1054 1.399 . S
C1053 C1058 1.399 . S
C1054 C1053 1.399 . S
C1054 C1055 1.376 . S
C1055 H1042 0.930 . S
C1055 C1054 1.376 . S
C1055 C1056 1.388 . S
C1056 H1043 0.930 . S
C1056 C1055 1.388 . S
C1056 C1057 1.390 . S
C1057 C1056 1.390 . S
C1057 C1058 1.394 . S
C1057 C1063 1.465 1_565 S
C1058 C1053 1.399 . S
C1058 C1057 1.394 . S
C1058 C1059 1.517 1_565 S
C1059 C1058 1.517 1_545 S
C1059 C1060 1.502 . S
C1059 C1061 1.561 . S
C1059 C1062 1.525 . S
C1060 H1044 0.962 . S
C1060 H1045 0.979 . S
C1060 H1046 0.939 1_545 S
C1060 C1059 1.502 . S
C1061 H1047 0.957 1_545 S
C1061 H1048 0.964 . S
C1061 H1049 0.959 . S
C1061 C1059 1.561 . S
C1062 C1059 1.525 . S
C1062 C1063 1.396 . S
C1062 C1067 1.390 . S
C1063 C1057 1.465 1_545 S
C1063 C1062 1.396 . S
C1063 C1064 1.399 . S
C1064 H1050 0.929 . S
C1064 C1063 1.399 . S
C1064 C1065 1.385 . S
C1065 H1051 0.931 . S
C1065 C1064 1.385 . S
C1065 C1066 1.389 . S
C1066 C1065 1.389 . S
C1066 C1067 1.387 . S
C1067 H1052 0.930 . S
C1067 C1062 1.390 . S
C1067 C1066 1.387 . S
H1068 C1080 0.930 . S
H1069 C1082 0.930 . S
H1070 C1083 0.930 . S
H1071 C1087 0.962 . S
H1072 C1087 0.979 . S
H1073 C1087 0.939 1_565 S
H1074 C1088 0.957 1_565 S
H1075 C1088 0.964 . S
H1076 C1088 0.959 . S
H1077 C1091 0.929 . S
H1078 C1092 0.931 . S
H1079 C1094 0.930 . S
C1080 H1068 0.930 . S
C1080 C1081 1.399 . S
C1080 C1085 1.399 . S
C1081 C1080 1.399 . S
C1081 C1082 1.376 . S
C1082 H1069 0.930 . S
C1082 C1081 1.376 . S
C1082 C1083 1.388 . S
C1083 H1070 0.930 . S
C1083 C1082 1.388 . S
C1083 C1084 1.390 . S
C1084 C1083 1.390 . S
C1084 C1085 1.394 . S
C1084 C1090 1.465 1_565 S
C1085 C1080 1.399 . S
C1085 C1084 1.394 . S
C1085 C1086 1.517 1_565 S
C1086 C1085 1.517 1_545 S
C1086 C1087 1.502 . S
C1086 C1088 1.561 . S
C1086 C1089 1.525 . S
C1087 H1071 0.962 . S
C1087 H1072 0.979 . S
C1087 H1073 0.939 1_545 S
C1087 C1086 1.502 . S
C1088 H1074 0.957 1_545 S
C1088 H1075 0.964 . S
C1088 H1076 0.959 . S
C1088 C1086 1.561 . S
C1089 C1086 1.525 . S
C1089 C1090 1.396 . S
C1089 C1094 1.390 . S
C1090 C1084 1.465 1_545 S
C1090 C1089 1.396 . S
C1090 C1091 1.399 . S
C1091 H1077 0.929 . S
C1091 C1090 1.399 . S
C1091 C1092 1.385 . S
C1092 H1078 0.931 . S
C1092 C1091 1.385 . S
C1092 C1093 1.389 . S
C1093 C1092 1.389 . S
C1093 C1094 1.387 . S
C1094 H1079 0.930 . S
C1094 C1089 1.390 . S
C1094 C1093 1.387 . S
H1095 C1107 0.930 . S
H1096 C1109 0.930 . S
H1097 C1110 0.930 . S
H1098 C1114 0.962 . S
H1099 C1114 0.979 . S
H1100 C1114 0.939 1_455 S
H1101 C1115 0.957 1_455 S
H1102 C1115 0.964 . S
H1103 C1115 0.959 . S
H1104 C1118 0.929 . S
H1105 C1119 0.931 . S
H1106 C1121 0.930 . S
C1107 H1095 0.930 . S
C1107 C1108 1.399 . S
C1107 C1112 1.399 . S
C1108 C1107 1.399 . S
C1108 C1109 1.376 . S
C1109 H1096 0.930 . S
C1109 C1108 1.376 . S
C1109 C1110 1.388 . S
C1110 H1097 0.930 . S
C1110 C1109 1.388 . S
C1110 C1111 1.390 . S
C1111 C1110 1.390 . S
C1111 C1112 1.394 . S
C1111 C1117 1.465 1_455 S
C1112 C1107 1.399 . S
C1112 C1111 1.394 . S
C1112 C1113 1.517 1_455 S
C1113 C1112 1.517 1_655 S
C1113 C1114 1.502 . S
C1113 C1115 1.561 . S
C1113 C1116 1.525 . S
C1114 H1098 0.962 . S
C1114 H1099 0.979 . S
C1114 H1100 0.939 1_655 S
C1114 C1113 1.502 . S
C1115 H1101 0.957 1_655 S
C1115 H1102 0.964 . S
C1115 H1103 0.959 . S
C1115 C1113 1.561 . S
C1116 C1113 1.525 . S
C1116 C1117 1.396 . S
C1116 C1121 1.390 . S
C1117 C1111 1.465 1_655 S
C1117 C1116 1.396 . S
C1117 C1118 1.399 . S
C1118 H1104 0.929 . S
C1118 C1117 1.399 . S
C1118 C1119 1.385 . S
C1119 H1105 0.931 . S
C1119 C1118 1.385 . S
C1119 C1120 1.389 . S
C1120 C1119 1.389 . S
C1120 C1121 1.387 . S
C1121 H1106 0.930 . S
C1121 C1116 1.390 . S
C1121 C1120 1.387 . S
H1122 C1134 0.930 . S
H1123 C1136 0.930 . S
H1124 C1137 0.930 . S
H1125 C1141 0.962 . S
H1126 C1141 0.979 . S
H1127 C1141 0.939 1_565 S
H1128 C1142 0.957 1_565 S
H1129 C1142 0.964 . S
H1130 C1142 0.959 . S
H1131 C1145 0.929 . S
H1132 C1146 0.931 . S
H1133 C1148 0.930 . S
C1134 H1122 0.930 . S
C1134 C1135 1.399 . S
C1134 C1139 1.399 . S
C1135 C1134 1.399 . S
C1135 C1136 1.376 . S
C1136 H1123 0.930 . S
C1136 C1135 1.376 . S
C1136 C1137 1.388 . S
C1137 H1124 0.930 . S
C1137 C1136 1.388 . S
C1137 C1138 1.390 . S
C1138 C1137 1.390 . S
C1138 C1139 1.394 . S
C1138 C1144 1.465 1_565 S
C1139 C1134 1.399 . S
C1139 C1138 1.394 . S
C1139 C1140 1.517 1_565 S
C1140 C1139 1.517 1_545 S
C1140 C1141 1.502 . S
C1140 C1142 1.561 . S
C1140 C1143 1.525 . S
C1141 H1125 0.962 . S
C1141 H1126 0.979 . S
C1141 H1127 0.939 1_545 S
C1141 C1140 1.502 . S
C1142 H1128 0.957 1_545 S
C1142 H1129 0.964 . S
C1142 H1130 0.959 . S
C1142 C1140 1.561 . S
C1143 C1140 1.525 . S
C1143 C1144 1.396 . S
C1143 C1148 1.390 . S
C1144 C1138 1.465 1_545 S
C1144 C1143 1.396 . S
C1144 C1145 1.399 . S
C1145 H1131 0.929 . S
C1145 C1144 1.399 . S
C1145 C1146 1.385 . S
C1146 H1132 0.931 . S
C1146 C1145 1.385 . S
C1146 C1147 1.389 . S
C1147 C1146 1.389 . S
C1147 C1148 1.387 . S
C1148 H1133 0.930 . S
C1148 C1143 1.390 . S
C1148 C1147 1.387 . S
H1149 C1161 0.930 . S
H1150 C1163 0.930 . S
H1151 C1164 0.930 . S
H1152 C1168 0.962 . S
H1153 C1168 0.979 . S
H1154 C1168 0.939 1_455 S
H1155 C1169 0.957 1_455 S
H1156 C1169 0.964 . S
H1157 C1169 0.959 . S
H1158 C1172 0.929 . S
H1159 C1173 0.931 . S
H1160 C1175 0.930 . S
C1161 H1149 0.930 . S
C1161 C1162 1.399 . S
C1161 C1166 1.399 . S
C1162 C1161 1.399 . S
C1162 C1163 1.376 . S
C1163 H1150 0.930 . S
C1163 C1162 1.376 . S
C1163 C1164 1.388 . S
C1164 H1151 0.930 . S
C1164 C1163 1.388 . S
C1164 C1165 1.390 . S
C1165 C1164 1.390 . S
C1165 C1166 1.394 . S
C1165 C1171 1.465 1_455 S
C1166 C1161 1.399 . S
C1166 C1165 1.394 . S
C1166 C1167 1.517 1_455 S
C1167 C1166 1.517 1_655 S
C1167 C1168 1.502 . S
C1167 C1169 1.561 . S
C1167 C1170 1.525 . S
C1168 H1152 0.962 . S
C1168 H1153 0.979 . S
C1168 H1154 0.939 1_655 S
C1168 C1167 1.502 . S
C1169 H1155 0.957 1_655 S
C1169 H1156 0.964 . S
C1169 H1157 0.959 . S
C1169 C1167 1.561 . S
C1170 C1167 1.525 . S
C1170 C1171 1.396 . S
C1170 C1175 1.390 . S
C1171 C1165 1.465 1_655 S
C1171 C1170 1.396 . S
C1171 C1172 1.399 . S
C1172 H1158 0.929 . S
C1172 C1171 1.399 . S
C1172 C1173 1.385 . S
C1173 H1159 0.931 . S
C1173 C1172 1.385 . S
C1173 C1174 1.389 . S
C1174 C1173 1.389 . S
C1174 C1175 1.387 . S
C1175 H1160 0.930 . S
C1175 C1170 1.390 . S
C1175 C1174 1.387 . S
H1176 C1188 0.930 . S
H1177 C1190 0.930 . S
H1178 C1191 0.930 . S
H1179 C1195 0.959 . S
H1180 C1195 0.959 . S
H1181 C1195 0.961 . S
H1182 C1196 0.960 . S
H1183 C1196 0.961 . S
H1184 C1196 0.959 . S
H1185 C1199 0.929 . S
H1186 C1200 0.931 . S
H1187 C1202 0.930 . S
C1188 H1176 0.930 . S
C1188 C1189 1.399 . S
C1188 C1193 1.399 . S
C1189 C1188 1.399 . S
C1189 C1190 1.376 . S
C1190 H1177 0.930 . S
C1190 C1189 1.376 . S
C1190 C1191 1.388 . S
C1191 H1178 0.930 . S
C1191 C1190 1.388 . S
C1191 C1192 1.390 . S
C1192 C1191 1.390 . S
C1192 C1193 1.394 . S
C1192 C1198 1.465 . S
C1193 C1188 1.399 . S
C1193 C1192 1.394 . S
C1193 C1194 1.516 . S
C1194 C1193 1.516 . S
C1194 C1195 1.502 . S
C1194 C1196 1.561 . S
C1194 C1197 1.526 . S
C1195 H1179 0.959 . S
C1195 H1180 0.959 . S
C1195 H1181 0.961 . S
C1195 C1194 1.502 . S
C1196 H1182 0.960 . S
C1196 H1183 0.961 . S
C1196 H1184 0.959 . S
C1196 C1194 1.561 . S
C1197 C1194 1.526 . S
C1197 C1198 1.396 . S
C1197 C1202 1.390 . S
C1198 C1192 1.465 . S
C1198 C1197 1.396 . S
C1198 C1199 1.399 . S
C1199 H1185 0.929 . S
C1199 C1198 1.399 . S
C1199 C1200 1.385 . S
C1200 H1186 0.931 . S
C1200 C1199 1.385 . S
C1200 C1201 1.389 . S
C1201 C1200 1.389 . S
C1201 C1202 1.387 . S
C1202 H1187 0.930 . S
C1202 C1197 1.390 . S
C1202 C1201 1.387 . S
H1203 C1215 0.930 . S
H1204 C1217 0.930 . S
H1205 C1218 0.930 . S
H1206 C1222 0.959 . S
H1207 C1222 0.959 . S
H1208 C1222 0.961 . S
H1209 C1223 0.960 . S
H1210 C1223 0.961 . S
H1211 C1223 0.959 . S
H1212 C1226 0.929 . S
H1213 C1227 0.931 . S
H1214 C1229 0.930 . S
C1215 H1203 0.930 . S
C1215 C1216 1.399 . S
C1215 C1220 1.399 . S
C1216 C1215 1.399 . S
C1216 C1217 1.376 . S
C1217 H1204 0.930 . S
C1217 C1216 1.376 . S
C1217 C1218 1.388 . S
C1218 H1205 0.930 . S
C1218 C1217 1.388 . S
C1218 C1219 1.390 . S
C1219 C1218 1.390 . S
C1219 C1220 1.394 . S
C1219 C1225 1.465 . S
C1220 C1215 1.399 . S
C1220 C1219 1.394 . S
C1220 C1221 1.516 . S
C1221 C1220 1.516 . S
C1221 C1222 1.502 . S
C1221 C1223 1.561 . S
C1221 C1224 1.526 . S
C1222 H1206 0.959 . S
C1222 H1207 0.959 . S
C1222 H1208 0.961 . S
C1222 C1221 1.502 . S
C1223 H1209 0.960 . S
C1223 H1210 0.961 . S
C1223 H1211 0.959 . S
C1223 C1221 1.561 . S
C1224 C1221 1.526 . S
C1224 C1225 1.396 . S
C1224 C1229 1.390 . S
C1225 C1219 1.465 . S
C1225 C1224 1.396 . S
C1225 C1226 1.399 . S
C1226 H1212 0.929 . S
C1226 C1225 1.399 . S
C1226 C1227 1.385 . S
C1227 H1213 0.931 . S
C1227 C1226 1.385 . S
C1227 C1228 1.389 . S
C1228 C1227 1.389 . S
C1228 C1229 1.387 . S
C1229 H1214 0.930 . S
C1229 C1224 1.390 . S
C1229 C1228 1.387 . S
H1230 C1242 0.930 . S
H1231 C1244 0.930 . S
H1232 C1245 0.930 . S
H1233 C1249 0.959 . S
H1234 C1249 0.959 . S
H1235 C1249 0.961 . S
H1236 C1250 0.960 . S
H1237 C1250 0.961 . S
H1238 C1250 0.959 . S
H1239 C1253 0.929 . S
H1240 C1254 0.931 . S
H1241 C1256 0.930 . S
C1242 H1230 0.930 . S
C1242 C1243 1.399 . S
C1242 C1247 1.399 . S
C1243 C1242 1.399 . S
C1243 C1244 1.376 . S
C1244 H1231 0.930 . S
C1244 C1243 1.376 . S
C1244 C1245 1.388 . S
C1245 H1232 0.930 . S
C1245 C1244 1.388 . S
C1245 C1246 1.390 . S
C1246 C1245 1.390 . S
C1246 C1247 1.394 . S
C1246 C1252 1.465 . S
C1247 C1242 1.399 . S
C1247 C1246 1.394 . S
C1247 C1248 1.516 . S
C1248 C1247 1.516 . S
C1248 C1249 1.502 . S
C1248 C1250 1.561 . S
C1248 C1251 1.526 . S
C1249 H1233 0.959 . S
C1249 H1234 0.959 . S
C1249 H1235 0.961 . S
C1249 C1248 1.502 . S
C1250 H1236 0.960 . S
C1250 H1237 0.961 . S
C1250 H1238 0.959 . S
C1250 C1248 1.561 . S
C1251 C1248 1.526 . S
C1251 C1252 1.396 . S
C1251 C1256 1.390 . S
C1252 C1246 1.465 . S
C1252 C1251 1.396 . S
C1252 C1253 1.399 . S
C1253 H1239 0.929 . S
C1253 C1252 1.399 . S
C1253 C1254 1.385 . S
C1254 H1240 0.931 . S
C1254 C1253 1.385 . S
C1254 C1255 1.389 . S
C1255 C1254 1.389 . S
C1255 C1256 1.387 . S
C1256 H1241 0.930 . S
C1256 C1251 1.390 . S
C1256 C1255 1.387 . S
H1257 C1269 0.930 . S
H1258 C1271 0.930 . S
H1259 C1272 0.930 . S
H1260 C1276 0.959 . S
H1261 C1276 0.959 . S
H1262 C1276 0.961 . S
H1263 C1277 0.960 . S
H1264 C1277 0.961 . S
H1265 C1277 0.959 . S
H1266 C1280 0.929 . S
H1267 C1281 0.931 . S
H1268 C1283 0.930 . S
C1269 H1257 0.930 . S
C1269 C1270 1.399 . S
C1269 C1274 1.399 . S
C1270 C1269 1.399 . S
C1270 C1271 1.376 . S
C1271 H1258 0.930 . S
C1271 C1270 1.376 . S
C1271 C1272 1.388 . S
C1272 H1259 0.930 . S
C1272 C1271 1.388 . S
C1272 C1273 1.390 . S
C1273 C1272 1.390 . S
C1273 C1274 1.394 . S
C1273 C1279 1.465 . S
C1274 C1269 1.399 . S
C1274 C1273 1.394 . S
C1274 C1275 1.516 . S
C1275 C1274 1.516 . S
C1275 C1276 1.502 . S
C1275 C1277 1.561 . S
C1275 C1278 1.526 . S
C1276 H1260 0.959 . S
C1276 H1261 0.959 . S
C1276 H1262 0.961 . S
C1276 C1275 1.502 . S
C1277 H1263 0.960 . S
C1277 H1264 0.961 . S
C1277 H1265 0.959 . S
C1277 C1275 1.561 . S
C1278 C1275 1.526 . S
C1278 C1279 1.396 . S
C1278 C1283 1.390 . S
C1279 C1273 1.465 . S
C1279 C1278 1.396 . S
C1279 C1280 1.399 . S
C1280 H1266 0.929 . S
C1280 C1279 1.399 . S
C1280 C1281 1.385 . S
C1281 H1267 0.931 . S
C1281 C1280 1.385 . S
C1281 C1282 1.389 . S
C1282 C1281 1.389 . S
C1282 C1283 1.387 . S
C1283 H1268 0.930 . S
C1283 C1278 1.390 . S
C1283 C1282 1.387 . S
H1284 C1296 0.930 . S
H1285 C1298 0.930 . S
H1286 C1299 0.930 . S
H1287 C1303 0.959 . S
H1288 C1303 0.959 . S
H1289 C1303 0.961 . S
H1290 C1304 0.960 . S
H1291 C1304 0.961 . S
H1292 C1304 0.959 . S
H1293 C1307 0.929 . S
H1294 C1308 0.931 . S
H1295 C1310 0.930 . S
C1296 H1284 0.930 . S
C1296 C1297 1.399 . S
C1296 C1301 1.399 . S
C1297 C1296 1.399 . S
C1297 C1298 1.376 . S
C1298 H1285 0.930 . S
C1298 C1297 1.376 . S
C1298 C1299 1.388 . S
C1299 H1286 0.930 . S
C1299 C1298 1.388 . S
C1299 C1300 1.390 . S
C1300 C1299 1.390 . S
C1300 C1301 1.394 . S
C1300 C1306 1.465 . S
C1301 C1296 1.399 . S
C1301 C1300 1.394 . S
C1301 C1302 1.516 . S
C1302 C1301 1.516 . S
C1302 C1303 1.502 . S
C1302 C1304 1.561 . S
C1302 C1305 1.526 . S
C1303 H1287 0.959 . S
C1303 H1288 0.959 . S
C1303 H1289 0.961 . S
C1303 C1302 1.502 . S
C1304 H1290 0.960 . S
C1304 H1291 0.961 . S
C1304 H1292 0.959 . S
C1304 C1302 1.561 . S
C1305 C1302 1.526 . S
C1305 C1306 1.396 . S
C1305 C1310 1.390 . S
C1306 C1300 1.465 . S
C1306 C1305 1.396 . S
C1306 C1307 1.399 . S
C1307 H1293 0.929 . S
C1307 C1306 1.399 . S
C1307 C1308 1.385 . S
C1308 H1294 0.931 . S
C1308 C1307 1.385 . S
C1308 C1309 1.389 . S
C1309 C1308 1.389 . S
C1309 C1310 1.387 . S
C1310 H1295 0.930 . S
C1310 C1305 1.390 . S
C1310 C1309 1.387 . S
H1311 C1323 0.930 . S
H1312 C1325 0.930 . S
H1313 C1326 0.930 . S
H1314 C1330 0.959 . S
H1315 C1330 0.959 . S
H1316 C1330 0.961 . S
H1317 C1331 0.960 . S
H1318 C1331 0.961 . S
H1319 C1331 0.959 . S
H1320 C1334 0.929 . S
H1321 C1335 0.931 . S
H1322 C1337 0.930 . S
C1323 H1311 0.930 . S
C1323 C1324 1.399 . S
C1323 C1328 1.399 . S
C1324 C1323 1.399 . S
C1324 C1325 1.376 . S
C1325 H1312 0.930 . S
C1325 C1324 1.376 . S
C1325 C1326 1.388 . S
C1326 H1313 0.930 . S
C1326 C1325 1.388 . S
C1326 C1327 1.390 . S
C1327 C1326 1.390 . S
C1327 C1328 1.394 . S
C1327 C1333 1.465 . S
C1328 C1323 1.399 . S
C1328 C1327 1.394 . S
C1328 C1329 1.516 . S
C1329 C1328 1.516 . S
C1329 C1330 1.502 . S
C1329 C1331 1.561 . S
C1329 C1332 1.526 . S
C1330 H1314 0.959 . S
C1330 H1315 0.959 . S
C1330 H1316 0.961 . S
C1330 C1329 1.502 . S
C1331 H1317 0.960 . S
C1331 H1318 0.961 . S
C1331 H1319 0.959 . S
C1331 C1329 1.561 . S
C1332 C1329 1.526 . S
C1332 C1333 1.396 . S
C1332 C1337 1.390 . S
C1333 C1327 1.465 . S
C1333 C1332 1.396 . S
C1333 C1334 1.399 . S
C1334 H1320 0.929 . S
C1334 C1333 1.399 . S
C1334 C1335 1.385 . S
C1335 H1321 0.931 . S
C1335 C1334 1.385 . S
C1335 C1336 1.389 . S
C1336 C1335 1.389 . S
C1336 C1337 1.387 . S
C1337 H1322 0.930 . S
C1337 C1332 1.390 . S
C1337 C1336 1.387 . S
H1338 C1350 0.930 . S
H1339 C1352 0.930 . S
H1340 C1353 0.930 . S
H1341 C1357 0.959 . S
H1342 C1357 0.959 . S
H1343 C1357 0.961 . S
H1344 C1358 0.960 . S
H1345 C1358 0.961 . S
H1346 C1358 0.959 . S
H1347 C1361 0.929 . S
H1348 C1362 0.931 . S
H1349 C1364 0.930 . S
C1350 H1338 0.930 . S
C1350 C1351 1.399 . S
C1350 C1355 1.399 . S
C1351 C1350 1.399 . S
C1351 C1352 1.376 . S
C1352 H1339 0.930 . S
C1352 C1351 1.376 . S
C1352 C1353 1.388 . S
C1353 H1340 0.930 . S
C1353 C1352 1.388 . S
C1353 C1354 1.390 . S
C1354 C1353 1.390 . S
C1354 C1355 1.394 . S
C1354 C1360 1.465 . S
C1355 C1350 1.399 . S
C1355 C1354 1.394 . S
C1355 C1356 1.516 . S
C1356 C1355 1.516 . S
C1356 C1357 1.502 . S
C1356 C1358 1.561 . S
C1356 C1359 1.526 . S
C1357 H1341 0.959 . S
C1357 H1342 0.959 . S
C1357 H1343 0.961 . S
C1357 C1356 1.502 . S
C1358 H1344 0.960 . S
C1358 H1345 0.961 . S
C1358 H1346 0.959 . S
C1358 C1356 1.561 . S
C1359 C1356 1.526 . S
C1359 C1360 1.396 . S
C1359 C1364 1.390 . S
C1360 C1354 1.465 . S
C1360 C1359 1.396 . S
C1360 C1361 1.399 . S
C1361 H1347 0.929 . S
C1361 C1360 1.399 . S
C1361 C1362 1.385 . S
C1362 H1348 0.931 . S
C1362 C1361 1.385 . S
C1362 C1363 1.389 . S
C1363 C1362 1.389 . S
C1363 C1364 1.387 . S
C1364 H1349 0.930 . S
C1364 C1359 1.390 . S
C1364 C1363 1.387 . S
H1365 C1377 0.930 . S
H1366 C1379 0.930 . S
H1367 C1380 0.930 . S
H1368 C1384 0.959 . S
H1369 C1384 0.959 . S
H1370 C1384 0.961 . S
H1371 C1385 0.960 . S
H1372 C1385 0.961 . S
H1373 C1385 0.959 . S
H1374 C1388 0.929 . S
H1375 C1389 0.931 . S
H1376 C1391 0.930 . S
C1377 H1365 0.930 . S
C1377 C1378 1.399 . S
C1377 C1382 1.399 . S
C1378 C1377 1.399 . S
C1378 C1379 1.376 . S
C1379 H1366 0.930 . S
C1379 C1378 1.376 . S
C1379 C1380 1.388 . S
C1380 H1367 0.930 . S
C1380 C1379 1.388 . S
C1380 C1381 1.390 . S
C1381 C1380 1.390 . S
C1381 C1382 1.394 . S
C1381 C1387 1.465 . S
C1382 C1377 1.399 . S
C1382 C1381 1.394 . S
C1382 C1383 1.516 . S
C1383 C1382 1.516 . S
C1383 C1384 1.502 . S
C1383 C1385 1.561 . S
C1383 C1386 1.526 . S
C1384 H1368 0.959 . S
C1384 H1369 0.959 . S
C1384 H1370 0.961 . S
C1384 C1383 1.502 . S
C1385 H1371 0.960 . S
C1385 H1372 0.961 . S
C1385 H1373 0.959 . S
C1385 C1383 1.561 . S
C1386 C1383 1.526 . S
C1386 C1387 1.396 . S
C1386 C1391 1.390 . S
C1387 C1381 1.465 . S
C1387 C1386 1.396 . S
C1387 C1388 1.399 . S
C1388 H1374 0.929 . S
C1388 C1387 1.399 . S
C1388 C1389 1.385 . S
C1389 H1375 0.931 . S
C1389 C1388 1.385 . S
C1389 C1390 1.389 . S
C1390 C1389 1.389 . S
C1390 C1391 1.387 . S
C1391 H1376 0.930 . S
C1391 C1386 1.390 . S
C1391 C1390 1.387 . S
H1392 C1404 0.930 . S
H1393 C1406 0.930 . S
H1394 C1407 0.930 . S
H1395 C1411 0.959 . S
H1396 C1411 0.959 . S
H1397 C1411 0.961 . S
H1398 C1412 0.960 . S
H1399 C1412 0.961 . S
H1400 C1412 0.959 . S
H1401 C1415 0.929 . S
H1402 C1416 0.931 . S
H1403 C1418 0.930 . S
C1404 H1392 0.930 . S
C1404 C1405 1.399 . S
C1404 C1409 1.399 . S
C1405 C1404 1.399 . S
C1405 C1406 1.376 . S
C1406 H1393 0.930 . S
C1406 C1405 1.376 . S
C1406 C1407 1.388 . S
C1407 H1394 0.930 . S
C1407 C1406 1.388 . S
C1407 C1408 1.390 . S
C1408 C1407 1.390 . S
C1408 C1409 1.394 . S
C1408 C1414 1.465 . S
C1409 C1404 1.399 . S
C1409 C1408 1.394 . S
C1409 C1410 1.516 . S
C1410 C1409 1.516 . S
C1410 C1411 1.502 . S
C1410 C1412 1.561 . S
C1410 C1413 1.526 . S
C1411 H1395 0.959 . S
C1411 H1396 0.959 . S
C1411 H1397 0.961 . S
C1411 C1410 1.502 . S
C1412 H1398 0.960 . S
C1412 H1399 0.961 . S
C1412 H1400 0.959 . S
C1412 C1410 1.561 . S
C1413 C1410 1.526 . S
C1413 C1414 1.396 . S
C1413 C1418 1.390 . S
C1414 C1408 1.465 . S
C1414 C1413 1.396 . S
C1414 C1415 1.399 . S
C1415 H1401 0.929 . S
C1415 C1414 1.399 . S
C1415 C1416 1.385 . S
C1416 H1402 0.931 . S
C1416 C1415 1.385 . S
C1416 C1417 1.389 . S
C1417 C1416 1.389 . S
C1417 C1418 1.387 . S
C1418 H1403 0.930 . S
C1418 C1413 1.390 . S
C1418 C1417 1.387 . S
H1419 C1431 0.930 . S
H1420 C1433 0.930 . S
H1421 C1434 0.930 . S
H1422 C1438 0.959 . S
H1423 C1438 0.959 . S
H1424 C1438 0.961 . S
H1425 C1439 0.960 . S
H1426 C1439 0.961 . S
H1427 C1439 0.959 . S
H1428 C1442 0.929 . S
H1429 C1443 0.931 . S
H1430 C1445 0.930 . S
C1431 H1419 0.930 . S
C1431 C1432 1.399 . S
C1431 C1436 1.399 . S
C1432 C1431 1.399 . S
C1432 C1433 1.376 . S
C1433 H1420 0.930 . S
C1433 C1432 1.376 . S
C1433 C1434 1.388 . S
C1434 H1421 0.930 . S
C1434 C1433 1.388 . S
C1434 C1435 1.390 . S
C1435 C1434 1.390 . S
C1435 C1436 1.394 . S
C1435 C1441 1.465 . S
C1436 C1431 1.399 . S
C1436 C1435 1.394 . S
C1436 C1437 1.516 . S
C1437 C1436 1.516 . S
C1437 C1438 1.502 . S
C1437 C1439 1.561 . S
C1437 C1440 1.526 . S
C1438 H1422 0.959 . S
C1438 H1423 0.959 . S
C1438 H1424 0.961 . S
C1438 C1437 1.502 . S
C1439 H1425 0.960 . S
C1439 H1426 0.961 . S
C1439 H1427 0.959 . S
C1439 C1437 1.561 . S
C1440 C1437 1.526 . S
C1440 C1441 1.396 . S
C1440 C1445 1.390 . S
C1441 C1435 1.465 . S
C1441 C1440 1.396 . S
C1441 C1442 1.399 . S
C1442 H1428 0.929 . S
C1442 C1441 1.399 . S
C1442 C1443 1.385 . S
C1443 H1429 0.931 . S
C1443 C1442 1.385 . S
C1443 C1444 1.389 . S
C1444 C1443 1.389 . S
C1444 C1445 1.387 . S
C1445 H1430 0.930 . S
C1445 C1440 1.390 . S
C1445 C1444 1.387 . S
H1446 C1458 0.930 . S
H1447 C1460 0.930 . S
H1448 C1461 0.930 . S
H1449 C1465 0.959 . S
H1450 C1465 0.959 . S
H1451 C1465 0.961 . S
H1452 C1466 0.960 . S
H1453 C1466 0.961 . S
H1454 C1466 0.959 . S
H1455 C1469 0.929 . S
H1456 C1470 0.931 . S
H1457 C1472 0.930 . S
C1458 H1446 0.930 . S
C1458 C1459 1.399 . S
C1458 C1463 1.399 . S
C1459 C1458 1.399 . S
C1459 C1460 1.376 . S
C1460 H1447 0.930 . S
C1460 C1459 1.376 . S
C1460 C1461 1.388 . S
C1461 H1448 0.930 . S
C1461 C1460 1.388 . S
C1461 C1462 1.390 . S
C1462 C1461 1.390 . S
C1462 C1463 1.394 . S
C1462 C1468 1.465 . S
C1463 C1458 1.399 . S
C1463 C1462 1.394 . S
C1463 C1464 1.516 . S
C1464 C1463 1.516 . S
C1464 C1465 1.502 . S
C1464 C1466 1.561 . S
C1464 C1467 1.526 . S
C1465 H1449 0.959 . S
C1465 H1450 0.959 . S
C1465 H1451 0.961 . S
C1465 C1464 1.502 . S
C1466 H1452 0.960 . S
C1466 H1453 0.961 . S
C1466 H1454 0.959 . S
C1466 C1464 1.561 . S
C1467 C1464 1.526 . S
C1467 C1468 1.396 . S
C1467 C1472 1.390 . S
C1468 C1462 1.465 . S
C1468 C1467 1.396 . S
C1468 C1469 1.399 . S
C1469 H1455 0.929 . S
C1469 C1468 1.399 . S
C1469 C1470 1.385 . S
C1470 H1456 0.931 . S
C1470 C1469 1.385 . S
C1470 C1471 1.389 . S
C1471 C1470 1.389 . S
C1471 C1472 1.387 . S
C1472 H1457 0.930 . S
C1472 C1467 1.390 . S
C1472 C1471 1.387 . S
H1473 C1485 0.930 . S
H1474 C1487 0.930 . S
H1475 C1488 0.930 . S
H1476 C1492 0.959 . S
H1477 C1492 0.959 . S
H1478 C1492 0.961 . S
H1479 C1493 0.960 . S
H1480 C1493 0.961 . S
H1481 C1493 0.959 . S
H1482 C1496 0.929 . S
H1483 C1497 0.931 . S
H1484 C1499 0.930 . S
C1485 H1473 0.930 . S
C1485 C1486 1.399 . S
C1485 C1490 1.399 . S
C1486 C1485 1.399 . S
C1486 C1487 1.376 . S
C1487 H1474 0.930 . S
C1487 C1486 1.376 . S
C1487 C1488 1.388 . S
C1488 H1475 0.930 . S
C1488 C1487 1.388 . S
C1488 C1489 1.390 . S
C1489 C1488 1.390 . S
C1489 C1490 1.394 . S
C1489 C1495 1.465 . S
C1490 C1485 1.399 . S
C1490 C1489 1.394 . S
C1490 C1491 1.516 . S
C1491 C1490 1.516 . S
C1491 C1492 1.502 . S
C1491 C1493 1.561 . S
C1491 C1494 1.526 . S
C1492 H1476 0.959 . S
C1492 H1477 0.959 . S
C1492 H1478 0.961 . S
C1492 C1491 1.502 . S
C1493 H1479 0.960 . S
C1493 H1480 0.961 . S
C1493 H1481 0.959 . S
C1493 C1491 1.561 . S
C1494 C1491 1.526 . S
C1494 C1495 1.396 . S
C1494 C1499 1.390 . S
C1495 C1489 1.465 . S
C1495 C1494 1.396 . S
C1495 C1496 1.399 . S
C1496 H1482 0.929 . S
C1496 C1495 1.399 . S
C1496 C1497 1.385 . S
C1497 H1483 0.931 . S
C1497 C1496 1.385 . S
C1497 C1498 1.389 . S
C1498 C1497 1.389 . S
C1498 C1499 1.387 . S
C1499 H1484 0.930 . S
C1499 C1494 1.390 . S
C1499 C1498 1.387 . S
H1500 C1512 0.930 . S
H1501 C1514 0.930 . S
H1502 C1515 0.930 . S
H1503 C1519 0.959 . S
H1504 C1519 0.959 . S
H1505 C1519 0.961 . S
H1506 C1520 0.960 . S
H1507 C1520 0.961 . S
H1508 C1520 0.959 . S
H1509 C1523 0.929 . S
H1510 C1524 0.931 . S
H1511 C1526 0.930 . S
C1512 H1500 0.930 . S
C1512 C1513 1.399 . S
C1512 C1517 1.399 . S
C1513 C1512 1.399 . S
C1513 C1514 1.376 . S
C1514 H1501 0.930 . S
C1514 C1513 1.376 . S
C1514 C1515 1.388 . S
C1515 H1502 0.930 . S
C1515 C1514 1.388 . S
C1515 C1516 1.390 . S
C1516 C1515 1.390 . S
C1516 C1517 1.394 . S
C1516 C1522 1.465 . S
C1517 C1512 1.399 . S
C1517 C1516 1.394 . S
C1517 C1518 1.516 . S
C1518 C1517 1.516 . S
C1518 C1519 1.502 . S
C1518 C1520 1.561 . S
C1518 C1521 1.526 . S
C1519 H1503 0.959 . S
C1519 H1504 0.959 . S
C1519 H1505 0.961 . S
C1519 C1518 1.502 . S
C1520 H1506 0.960 . S
C1520 H1507 0.961 . S
C1520 H1508 0.959 . S
C1520 C1518 1.561 . S
C1521 C1518 1.526 . S
C1521 C1522 1.396 . S
C1521 C1526 1.390 . S
C1522 C1516 1.465 . S
C1522 C1521 1.396 . S
C1522 C1523 1.399 . S
C1523 H1509 0.929 . S
C1523 C1522 1.399 . S
C1523 C1524 1.385 . S
C1524 H1510 0.931 . S
C1524 C1523 1.385 . S
C1524 C1525 1.389 . S
C1525 C1524 1.389 . S
C1525 C1526 1.387 . S
C1526 H1511 0.930 . S
C1526 C1521 1.390 . S
C1526 C1525 1.387 . S
H1527 C1539 0.930 . S
H1528 C1541 0.930 . S
H1529 C1542 0.930 . S
H1530 C1546 0.959 . S
H1531 C1546 0.959 . S
H1532 C1546 0.961 . S
H1533 C1547 0.960 . S
H1534 C1547 0.961 . S
H1535 C1547 0.959 . S
H1536 C1550 0.929 . S
H1537 C1551 0.931 . S
H1538 C1553 0.930 . S
C1539 H1527 0.930 . S
C1539 C1540 1.399 . S
C1539 C1544 1.399 . S
C1540 C1539 1.399 . S
C1540 C1541 1.376 . S
C1541 H1528 0.930 . S
C1541 C1540 1.376 . S
C1541 C1542 1.388 . S
C1542 H1529 0.930 . S
C1542 C1541 1.388 . S
C1542 C1543 1.390 . S
C1543 C1542 1.390 . S
C1543 C1544 1.394 . S
C1543 C1549 1.465 . S
C1544 C1539 1.399 . S
C1544 C1543 1.394 . S
C1544 C1545 1.516 . S
C1545 C1544 1.516 . S
C1545 C1546 1.502 . S
C1545 C1547 1.561 . S
C1545 C1548 1.526 . S
C1546 H1530 0.959 . S
C1546 H1531 0.959 . S
C1546 H1532 0.961 . S
C1546 C1545 1.502 . S
C1547 H1533 0.960 . S
C1547 H1534 0.961 . S
C1547 H1535 0.959 . S
C1547 C1545 1.561 . S
C1548 C1545 1.526 . S
C1548 C1549 1.396 . S
C1548 C1553 1.390 . S
C1549 C1543 1.465 . S
C1549 C1548 1.396 . S
C1549 C1550 1.399 . S
C1550 H1536 0.929 . S
C1550 C1549 1.399 . S
C1550 C1551 1.385 . S
C1551 H1537 0.931 . S
C1551 C1550 1.385 . S
C1551 C1552 1.389 . S
C1552 C1551 1.389 . S
C1552 C1553 1.387 . S
C1553 H1538 0.930 . S
C1553 C1548 1.390 . S
C1553 C1552 1.387 . S
H1554 C1566 0.930 . S
H1555 C1568 0.930 . S
H1556 C1569 0.930 . S
H1557 C1573 0.959 . S
H1558 C1573 0.959 . S
H1559 C1573 0.961 . S
H1560 C1574 0.960 . S
H1561 C1574 0.961 . S
H1562 C1574 0.959 . S
H1563 C1577 0.929 . S
H1564 C1578 0.931 . S
H1565 C1580 0.930 . S
C1566 H1554 0.930 . S
C1566 C1567 1.399 . S
C1566 C1571 1.399 . S
C1567 C1566 1.399 . S
C1567 C1568 1.376 . S
C1568 H1555 0.930 . S
C1568 C1567 1.376 . S
C1568 C1569 1.388 . S
C1569 H1556 0.930 . S
C1569 C1568 1.388 . S
C1569 C1570 1.390 . S
C1570 C1569 1.390 . S
C1570 C1571 1.394 . S
C1570 C1576 1.465 . S
C1571 C1566 1.399 . S
C1571 C1570 1.394 . S
C1571 C1572 1.516 . S
C1572 C1571 1.516 . S
C1572 C1573 1.502 . S
C1572 C1574 1.561 . S
C1572 C1575 1.526 . S
C1573 H1557 0.959 . S
C1573 H1558 0.959 . S
C1573 H1559 0.961 . S
C1573 C1572 1.502 . S
C1574 H1560 0.960 . S
C1574 H1561 0.961 . S
C1574 H1562 0.959 . S
C1574 C1572 1.561 . S
C1575 C1572 1.526 . S
C1575 C1576 1.396 . S
C1575 C1580 1.390 . S
C1576 C1570 1.465 . S
C1576 C1575 1.396 . S
C1576 C1577 1.399 . S
C1577 H1563 0.929 . S
C1577 C1576 1.399 . S
C1577 C1578 1.385 . S
C1578 H1564 0.931 . S
C1578 C1577 1.385 . S
C1578 C1579 1.389 . S
C1579 C1578 1.389 . S
C1579 C1580 1.387 . S
C1580 H1565 0.930 . S
C1580 C1575 1.390 . S
C1580 C1579 1.387 . S
H1581 C1593 0.930 . S
H1582 C1595 0.930 . S
H1583 C1596 0.930 . S
H1584 C1600 0.959 . S
H1585 C1600 0.959 . S
H1586 C1600 0.961 . S
H1587 C1601 0.960 . S
H1588 C1601 0.961 . S
H1589 C1601 0.959 . S
H1590 C1604 0.929 . S
H1591 C1605 0.931 . S
H1592 C1607 0.930 . S
C1593 H1581 0.930 . S
C1593 C1594 1.399 . S
C1593 C1598 1.399 . S
C1594 C1593 1.399 . S
C1594 C1595 1.376 . S
C1595 H1582 0.930 . S
C1595 C1594 1.376 . S
C1595 C1596 1.388 . S
C1596 H1583 0.930 . S
C1596 C1595 1.388 . S
C1596 C1597 1.390 . S
C1597 C1596 1.390 . S
C1597 C1598 1.394 . S
C1597 C1603 1.465 . S
C1598 C1593 1.399 . S
C1598 C1597 1.394 . S
C1598 C1599 1.516 . S
C1599 C1598 1.516 . S
C1599 C1600 1.502 . S
C1599 C1601 1.561 . S
C1599 C1602 1.526 . S
C1600 H1584 0.959 . S
C1600 H1585 0.959 . S
C1600 H1586 0.961 . S
C1600 C1599 1.502 . S
C1601 H1587 0.960 . S
C1601 H1588 0.961 . S
C1601 H1589 0.959 . S
C1601 C1599 1.561 . S
C1602 C1599 1.526 . S
C1602 C1603 1.396 . S
C1602 C1607 1.390 . S
C1603 C1597 1.465 . S
C1603 C1602 1.396 . S
C1603 C1604 1.399 . S
C1604 H1590 0.929 . S
C1604 C1603 1.399 . S
C1604 C1605 1.385 . S
C1605 H1591 0.931 . S
C1605 C1604 1.385 . S
C1605 C1606 1.389 . S
C1606 C1605 1.389 . S
C1606 C1607 1.387 . S
C1607 H1592 0.930 . S
C1607 C1602 1.390 . S
C1607 C1606 1.387 . S
H1608 C1620 0.930 . S
H1609 C1622 0.930 . S
H1610 C1623 0.930 . S
H1611 C1627 0.959 . S
H1612 C1627 0.959 . S
H1613 C1627 0.961 . S
H1614 C1628 0.960 . S
H1615 C1628 0.961 . S
H1616 C1628 0.959 . S
H1617 C1631 0.929 . S
H1618 C1632 0.931 . S
H1619 C1634 0.930 . S
C1620 H1608 0.930 . S
C1620 C1621 1.399 . S
C1620 C1625 1.399 . S
C1621 C1620 1.399 . S
C1621 C1622 1.376 . S
C1622 H1609 0.930 . S
C1622 C1621 1.376 . S
C1622 C1623 1.388 . S
C1623 H1610 0.930 . S
C1623 C1622 1.388 . S
C1623 C1624 1.390 . S
C1624 C1623 1.390 . S
C1624 C1625 1.394 . S
C1624 C1630 1.465 . S
C1625 C1620 1.399 . S
C1625 C1624 1.394 . S
C1625 C1626 1.516 . S
C1626 C1625 1.516 . S
C1626 C1627 1.502 . S
C1626 C1628 1.561 . S
C1626 C1629 1.526 . S
C1627 H1611 0.959 . S
C1627 H1612 0.959 . S
C1627 H1613 0.961 . S
C1627 C1626 1.502 . S
C1628 H1614 0.960 . S
C1628 H1615 0.961 . S
C1628 H1616 0.959 . S
C1628 C1626 1.561 . S
C1629 C1626 1.526 . S
C1629 C1630 1.396 . S
C1629 C1634 1.390 . S
C1630 C1624 1.465 . S
C1630 C1629 1.396 . S
C1630 C1631 1.399 . S
C1631 H1617 0.929 . S
C1631 C1630 1.399 . S
C1631 C1632 1.385 . S
C1632 H1618 0.931 . S
C1632 C1631 1.385 . S
C1632 C1633 1.389 . S
C1633 C1632 1.389 . S
C1633 C1634 1.387 . S
C1634 H1619 0.930 . S
C1634 C1629 1.390 . S
C1634 C1633 1.387 . S
H1635 C1647 0.930 . S
H1636 C1649 0.930 . S
H1637 C1650 0.930 . S
H1638 C1654 0.959 . S
H1639 C1654 0.959 . S
H1640 C1654 0.961 . S
H1641 C1655 0.960 . S
H1642 C1655 0.961 . S
H1643 C1655 0.959 . S
H1644 C1658 0.929 . S
H1645 C1659 0.931 . S
H1646 C1661 0.930 . S
C1647 H1635 0.930 . S
C1647 C1648 1.399 . S
C1647 C1652 1.399 . S
C1648 C1647 1.399 . S
C1648 C1649 1.376 . S
C1649 H1636 0.930 . S
C1649 C1648 1.376 . S
C1649 C1650 1.388 . S
C1650 H1637 0.930 . S
C1650 C1649 1.388 . S
C1650 C1651 1.390 . S
C1651 C1650 1.390 . S
C1651 C1652 1.394 . S
C1651 C1657 1.465 . S
C1652 C1647 1.399 . S
C1652 C1651 1.394 . S
C1652 C1653 1.516 . S
C1653 C1652 1.516 . S
C1653 C1654 1.502 . S
C1653 C1655 1.561 . S
C1653 C1656 1.526 . S
C1654 H1638 0.959 . S
C1654 H1639 0.959 . S
C1654 H1640 0.961 . S
C1654 C1653 1.502 . S
C1655 H1641 0.960 . S
C1655 H1642 0.961 . S
C1655 H1643 0.959 . S
C1655 C1653 1.561 . S
C1656 C1653 1.526 . S
C1656 C1657 1.396 . S
C1656 C1661 1.390 . S
C1657 C1651 1.465 . S
C1657 C1656 1.396 . S
C1657 C1658 1.399 . S
C1658 H1644 0.929 . S
C1658 C1657 1.399 . S
C1658 C1659 1.385 . S
C1659 H1645 0.931 . S
C1659 C1658 1.385 . S
C1659 C1660 1.389 . S
C1660 C1659 1.389 . S
C1660 C1661 1.387 . S
C1661 H1646 0.930 . S
C1661 C1656 1.390 . S
C1661 C1660 1.387 . S
H1662 C1674 0.930 . S
H1663 C1676 0.930 . S
H1664 C1677 0.930 . S
H1665 C1681 0.959 . S
H1666 C1681 0.959 . S
H1667 C1681 0.961 . S
H1668 C1682 0.960 . S
H1669 C1682 0.961 . S
H1670 C1682 0.959 . S
H1671 C1685 0.929 . S
H1672 C1686 0.931 . S
H1673 C1688 0.930 . S
C1674 H1662 0.930 . S
C1674 C1675 1.399 . S
C1674 C1679 1.399 . S
C1675 C1674 1.399 . S
C1675 C1676 1.376 . S
C1676 H1663 0.930 . S
C1676 C1675 1.376 . S
C1676 C1677 1.388 . S
C1677 H1664 0.930 . S
C1677 C1676 1.388 . S
C1677 C1678 1.390 . S
C1678 C1677 1.390 . S
C1678 C1679 1.394 . S
C1678 C1684 1.465 . S
C1679 C1674 1.399 . S
C1679 C1678 1.394 . S
C1679 C1680 1.516 . S
C1680 C1679 1.516 . S
C1680 C1681 1.502 . S
C1680 C1682 1.561 . S
C1680 C1683 1.526 . S
C1681 H1665 0.959 . S
C1681 H1666 0.959 . S
C1681 H1667 0.961 . S
C1681 C1680 1.502 . S
C1682 H1668 0.960 . S
C1682 H1669 0.961 . S
C1682 H1670 0.959 . S
C1682 C1680 1.561 . S
C1683 C1680 1.526 . S
C1683 C1684 1.396 . S
C1683 C1688 1.390 . S
C1684 C1678 1.465 . S
C1684 C1683 1.396 . S
C1684 C1685 1.399 . S
C1685 H1671 0.929 . S
C1685 C1684 1.399 . S
C1685 C1686 1.385 . S
C1686 H1672 0.931 . S
C1686 C1685 1.385 . S
C1686 C1687 1.389 . S
C1687 C1686 1.389 . S
C1687 C1688 1.387 . S
C1688 H1673 0.930 . S
C1688 C1683 1.390 . S
C1688 C1687 1.387 . S
H1689 C1701 0.930 . S
H1690 C1703 0.930 . S
H1691 C1704 0.930 . S
H1692 C1708 0.959 . S
H1693 C1708 0.959 . S
H1694 C1708 0.961 . S
H1695 C1709 0.960 . S
H1696 C1709 0.961 . S
H1697 C1709 0.959 . S
H1698 C1712 0.929 . S
H1699 C1713 0.931 . S
H1700 C1715 0.930 . S
C1701 H1689 0.930 . S
C1701 C1702 1.399 . S
C1701 C1706 1.399 . S
C1702 C1701 1.399 . S
C1702 C1703 1.376 . S
C1703 H1690 0.930 . S
C1703 C1702 1.376 . S
C1703 C1704 1.388 . S
C1704 H1691 0.930 . S
C1704 C1703 1.388 . S
C1704 C1705 1.390 . S
C1705 C1704 1.390 . S
C1705 C1706 1.394 . S
C1705 C1711 1.465 . S
C1706 C1701 1.399 . S
C1706 C1705 1.394 . S
C1706 C1707 1.516 . S
C1707 C1706 1.516 . S
C1707 C1708 1.502 . S
C1707 C1709 1.561 . S
C1707 C1710 1.526 . S
C1708 H1692 0.959 . S
C1708 H1693 0.959 . S
C1708 H1694 0.961 . S
C1708 C1707 1.502 . S
C1709 H1695 0.960 . S
C1709 H1696 0.961 . S
C1709 H1697 0.959 . S
C1709 C1707 1.561 . S
C1710 C1707 1.526 . S
C1710 C1711 1.396 . S
C1710 C1715 1.390 . S
C1711 C1705 1.465 . S
C1711 C1710 1.396 . S
C1711 C1712 1.399 . S
C1712 H1698 0.929 . S
C1712 C1711 1.399 . S
C1712 C1713 1.385 . S
C1713 H1699 0.931 . S
C1713 C1712 1.385 . S
C1713 C1714 1.389 . S
C1714 C1713 1.389 . S
C1714 C1715 1.387 . S
C1715 H1700 0.930 . S
C1715 C1710 1.390 . S
C1715 C1714 1.387 . S
H1716 C1728 0.930 . S
H1717 C1730 0.930 . S
H1718 C1731 0.930 . S
H1719 C1735 0.959 . S
H1720 C1735 0.959 . S
H1721 C1735 0.961 . S
H1722 C1736 0.960 . S
H1723 C1736 0.961 . S
H1724 C1736 0.959 . S
H1725 C1739 0.929 . S
H1726 C1740 0.931 . S
H1727 C1742 0.930 . S
C1728 H1716 0.930 . S
C1728 C1729 1.399 . S
C1728 C1733 1.399 . S
C1729 C1728 1.399 . S
C1729 C1730 1.376 . S
C1730 H1717 0.930 . S
C1730 C1729 1.376 . S
C1730 C1731 1.388 . S
C1731 H1718 0.930 . S
C1731 C1730 1.388 . S
C1731 C1732 1.390 . S
C1732 C1731 1.390 . S
C1732 C1733 1.394 . S
C1732 C1738 1.465 . S
C1733 C1728 1.399 . S
C1733 C1732 1.394 . S
C1733 C1734 1.516 . S
C1734 C1733 1.516 . S
C1734 C1735 1.502 . S
C1734 C1736 1.561 . S
C1734 C1737 1.526 . S
C1735 H1719 0.959 . S
C1735 H1720 0.959 . S
C1735 H1721 0.961 . S
C1735 C1734 1.502 . S
C1736 H1722 0.960 . S
C1736 H1723 0.961 . S
C1736 H1724 0.959 . S
C1736 C1734 1.561 . S
C1737 C1734 1.526 . S
C1737 C1738 1.396 . S
C1737 C1742 1.390 . S
C1738 C1732 1.465 . S
C1738 C1737 1.396 . S
C1738 C1739 1.399 . S
C1739 H1725 0.929 . S
C1739 C1738 1.399 . S
C1739 C1740 1.385 . S
C1740 H1726 0.931 . S
C1740 C1739 1.385 . S
C1740 C1741 1.389 . S
C1741 C1740 1.389 . S
C1741 C1742 1.387 . S
C1742 H1727 0.930 . S
C1742 C1737 1.390 . S
C1742 C1741 1.387 . S
H1743 C1755 0.930 . S
H1744 C1757 0.930 . S
H1745 C1758 0.930 . S
H1746 C1762 0.959 . S
H1747 C1762 0.959 . S
H1748 C1762 0.961 . S
H1749 C1763 0.960 . S
H1750 C1763 0.961 . S
H1751 C1763 0.959 . S
H1752 C1766 0.929 . S
H1753 C1767 0.931 . S
H1754 C1769 0.930 . S
C1755 H1743 0.930 . S
C1755 C1756 1.399 . S
C1755 C1760 1.399 . S
C1756 C1755 1.399 . S
C1756 C1757 1.376 . S
C1757 H1744 0.930 . S
C1757 C1756 1.376 . S
C1757 C1758 1.388 . S
C1758 H1745 0.930 . S
C1758 C1757 1.388 . S
C1758 C1759 1.390 . S
C1759 C1758 1.390 . S
C1759 C1760 1.394 . S
C1759 C1765 1.465 . S
C1760 C1755 1.399 . S
C1760 C1759 1.394 . S
C1760 C1761 1.516 . S
C1761 C1760 1.516 . S
C1761 C1762 1.502 . S
C1761 C1763 1.561 . S
C1761 C1764 1.526 . S
C1762 H1746 0.959 . S
C1762 H1747 0.959 . S
C1762 H1748 0.961 . S
C1762 C1761 1.502 . S
C1763 H1749 0.960 . S
C1763 H1750 0.961 . S
C1763 H1751 0.959 . S
C1763 C1761 1.561 . S
C1764 C1761 1.526 . S
C1764 C1765 1.396 . S
C1764 C1769 1.390 . S
C1765 C1759 1.465 . S
C1765 C1764 1.396 . S
C1765 C1766 1.399 . S
C1766 H1752 0.929 . S
C1766 C1765 1.399 . S
C1766 C1767 1.385 . S
C1767 H1753 0.931 . S
C1767 C1766 1.385 . S
C1767 C1768 1.389 . S
C1768 C1767 1.389 . S
C1768 C1769 1.387 . S
C1769 H1754 0.930 . S
C1769 C1764 1.390 . S
C1769 C1768 1.387 . S
H1770 C1782 0.930 . S
H1771 C1784 0.930 . S
H1772 C1785 0.930 . S
H1773 C1789 0.959 . S
H1774 C1789 0.959 . S
H1775 C1789 0.961 . S
H1776 C1790 0.960 . S
H1777 C1790 0.961 . S
H1778 C1790 0.959 . S
H1779 C1793 0.929 . S
H1780 C1794 0.931 . S
H1781 C1796 0.930 . S
C1782 H1770 0.930 . S
C1782 C1783 1.399 . S
C1782 C1787 1.399 . S
C1783 C1782 1.399 . S
C1783 C1784 1.376 . S
C1784 H1771 0.930 . S
C1784 C1783 1.376 . S
C1784 C1785 1.388 . S
C1785 H1772 0.930 . S
C1785 C1784 1.388 . S
C1785 C1786 1.390 . S
C1786 C1785 1.390 . S
C1786 C1787 1.394 . S
C1786 C1792 1.465 . S
C1787 C1782 1.399 . S
C1787 C1786 1.394 . S
C1787 C1788 1.516 . S
C1788 C1787 1.516 . S
C1788 C1789 1.502 . S
C1788 C1790 1.561 . S
C1788 C1791 1.526 . S
C1789 H1773 0.959 . S
C1789 H1774 0.959 . S
C1789 H1775 0.961 . S
C1789 C1788 1.502 . S
C1790 H1776 0.960 . S
C1790 H1777 0.961 . S
C1790 H1778 0.959 . S
C1790 C1788 1.561 . S
C1791 C1788 1.526 . S
C1791 C1792 1.396 . S
C1791 C1796 1.390 . S
C1792 C1786 1.465 . S
C1792 C1791 1.396 . S
C1792 C1793 1.399 . S
C1793 H1779 0.929 . S
C1793 C1792 1.399 . S
C1793 C1794 1.385 . S
C1794 H1780 0.931 . S
C1794 C1793 1.385 . S
C1794 C1795 1.389 . S
C1795 C1794 1.389 . S
C1795 C1796 1.387 . S
C1796 H1781 0.930 . S
C1796 C1791 1.390 . S
C1796 C1795 1.387 . S
H1797 C1809 0.930 . S
H1798 C1811 0.930 . S
H1799 C1812 0.930 . S
H1800 C1816 0.959 . S
H1801 C1816 0.959 . S
H1802 C1816 0.961 . S
H1803 C1817 0.960 . S
H1804 C1817 0.961 . S
H1805 C1817 0.959 . S
H1806 C1820 0.929 . S
H1807 C1821 0.931 . S
H1808 C1823 0.930 . S
C1809 H1797 0.930 . S
C1809 C1810 1.399 . S
C1809 C1814 1.399 . S
C1810 C1809 1.399 . S
C1810 C1811 1.376 . S
C1811 H1798 0.930 . S
C1811 C1810 1.376 . S
C1811 C1812 1.388 . S
C1812 H1799 0.930 . S
C1812 C1811 1.388 . S
C1812 C1813 1.390 . S
C1813 C1812 1.390 . S
C1813 C1814 1.394 . S
C1813 C1819 1.465 . S
C1814 C1809 1.399 . S
C1814 C1813 1.394 . S
C1814 C1815 1.516 . S
C1815 C1814 1.516 . S
C1815 C1816 1.502 . S
C1815 C1817 1.561 . S
C1815 C1818 1.526 . S
C1816 H1800 0.959 . S
C1816 H1801 0.959 . S
C1816 H1802 0.961 . S
C1816 C1815 1.502 . S
C1817 H1803 0.960 . S
C1817 H1804 0.961 . S
C1817 H1805 0.959 . S
C1817 C1815 1.561 . S
C1818 C1815 1.526 . S
C1818 C1819 1.396 . S
C1818 C1823 1.390 . S
C1819 C1813 1.465 . S
C1819 C1818 1.396 . S
C1819 C1820 1.399 . S
C1820 H1806 0.929 . S
C1820 C1819 1.399 . S
C1820 C1821 1.385 . S
C1821 H1807 0.931 . S
C1821 C1820 1.385 . S
C1821 C1822 1.389 . S
C1822 C1821 1.389 . S
C1822 C1823 1.387 . S
C1823 H1808 0.930 . S
C1823 C1818 1.390 . S
C1823 C1822 1.387 . S
H1824 C1836 0.930 . S
H1825 C1838 0.930 . S
H1826 C1839 0.930 . S
H1827 C1843 0.959 . S
H1828 C1843 0.959 . S
H1829 C1843 0.961 . S
H1830 C1844 0.960 . S
H1831 C1844 0.961 . S
H1832 C1844 0.959 . S
H1833 C1847 0.929 . S
H1834 C1848 0.931 . S
H1835 C1850 0.930 . S
C1836 H1824 0.930 . S
C1836 C1837 1.399 . S
C1836 C1841 1.399 . S
C1837 C1836 1.399 . S
C1837 C1838 1.376 . S
C1838 H1825 0.930 . S
C1838 C1837 1.376 . S
C1838 C1839 1.388 . S
C1839 H1826 0.930 . S
C1839 C1838 1.388 . S
C1839 C1840 1.390 . S
C1840 C1839 1.390 . S
C1840 C1841 1.394 . S
C1840 C1846 1.465 . S
C1841 C1836 1.399 . S
C1841 C1840 1.394 . S
C1841 C1842 1.516 . S
C1842 C1841 1.516 . S
C1842 C1843 1.502 . S
C1842 C1844 1.561 . S
C1842 C1845 1.526 . S
C1843 H1827 0.959 . S
C1843 H1828 0.959 . S
C1843 H1829 0.961 . S
C1843 C1842 1.502 . S
C1844 H1830 0.960 . S
C1844 H1831 0.961 . S
C1844 H1832 0.959 . S
C1844 C1842 1.561 . S
C1845 C1842 1.526 . S
C1845 C1846 1.396 . S
C1845 C1850 1.390 . S
C1846 C1840 1.465 . S
C1846 C1845 1.396 . S
C1846 C1847 1.399 . S
C1847 H1833 0.929 . S
C1847 C1846 1.399 . S
C1847 C1848 1.385 . S
C1848 H1834 0.931 . S
C1848 C1847 1.385 . S
C1848 C1849 1.389 . S
C1849 C1848 1.389 . S
C1849 C1850 1.387 . S
C1850 H1835 0.930 . S
C1850 C1845 1.390 . S
C1850 C1849 1.387 . S
H1851 C1863 0.930 . S
H1852 C1865 0.930 . S
H1853 C1866 0.930 . S
H1854 C1870 0.959 . S
H1855 C1870 0.959 . S
H1856 C1870 0.961 . S
H1857 C1871 0.960 . S
H1858 C1871 0.961 . S
H1859 C1871 0.959 . S
H1860 C1874 0.929 . S
H1861 C1875 0.931 . S
H1862 C1877 0.930 . S
C1863 H1851 0.930 . S
C1863 C1864 1.399 . S
C1863 C1868 1.399 . S
C1864 C1863 1.399 . S
C1864 C1865 1.376 . S
C1865 H1852 0.930 . S
C1865 C1864 1.376 . S
C1865 C1866 1.388 . S
C1866 H1853 0.930 . S
C1866 C1865 1.388 . S
C1866 C1867 1.390 . S
C1867 C1866 1.390 . S
C1867 C1868 1.394 . S
C1867 C1873 1.465 . S
C1868 C1863 1.399 . S
C1868 C1867 1.394 . S
C1868 C1869 1.516 . S
C1869 C1868 1.516 . S
C1869 C1870 1.502 . S
C1869 C1871 1.561 . S
C1869 C1872 1.526 . S
C1870 H1854 0.959 . S
C1870 H1855 0.959 . S
C1870 H1856 0.961 . S
C1870 C1869 1.502 . S
C1871 H1857 0.960 . S
C1871 H1858 0.961 . S
C1871 H1859 0.959 . S
C1871 C1869 1.561 . S
C1872 C1869 1.526 . S
C1872 C1873 1.396 . S
C1872 C1877 1.390 . S
C1873 C1867 1.465 . S
C1873 C1872 1.396 . S
C1873 C1874 1.399 . S
C1874 H1860 0.929 . S
C1874 C1873 1.399 . S
C1874 C1875 1.385 . S
C1875 H1861 0.931 . S
C1875 C1874 1.385 . S
C1875 C1876 1.389 . S
C1876 C1875 1.389 . S
C1876 C1877 1.387 . S
C1877 H1862 0.930 . S
C1877 C1872 1.390 . S
C1877 C1876 1.387 . S
H1878 C1890 0.930 . S
H1879 C1892 0.930 . S
H1880 C1893 0.930 . S
H1881 C1897 0.959 . S
H1882 C1897 0.959 . S
H1883 C1897 0.961 . S
H1884 C1898 0.960 . S
H1885 C1898 0.961 . S
H1886 C1898 0.959 . S
H1887 C1901 0.929 . S
H1888 C1902 0.931 . S
H1889 C1904 0.930 . S
C1890 H1878 0.930 . S
C1890 C1891 1.399 . S
C1890 C1895 1.399 . S
C1891 C1890 1.399 . S
C1891 C1892 1.376 . S
C1892 H1879 0.930 . S
C1892 C1891 1.376 . S
C1892 C1893 1.388 . S
C1893 H1880 0.930 . S
C1893 C1892 1.388 . S
C1893 C1894 1.390 . S
C1894 C1893 1.390 . S
C1894 C1895 1.394 . S
C1894 C1900 1.465 . S
C1895 C1890 1.399 . S
C1895 C1894 1.394 . S
C1895 C1896 1.516 . S
C1896 C1895 1.516 . S
C1896 C1897 1.502 . S
C1896 C1898 1.561 . S
C1896 C1899 1.526 . S
C1897 H1881 0.959 . S
C1897 H1882 0.959 . S
C1897 H1883 0.961 . S
C1897 C1896 1.502 . S
C1898 H1884 0.960 . S
C1898 H1885 0.961 . S
C1898 H1886 0.959 . S
C1898 C1896 1.561 . S
C1899 C1896 1.526 . S
C1899 C1900 1.396 . S
C1899 C1904 1.390 . S
C1900 C1894 1.465 . S
C1900 C1899 1.396 . S
C1900 C1901 1.399 . S
C1901 H1887 0.929 . S
C1901 C1900 1.399 . S
C1901 C1902 1.385 . S
C1902 H1888 0.931 . S
C1902 C1901 1.385 . S
C1902 C1903 1.389 . S
C1903 C1902 1.389 . S
C1903 C1904 1.387 . S
C1904 H1889 0.930 . S
C1904 C1899 1.390 . S
C1904 C1903 1.387 . S
H1905 C1917 0.930 . S
H1906 C1919 0.930 . S
H1907 C1920 0.930 . S
H1908 C1924 0.959 . S
H1909 C1924 0.959 . S
H1910 C1924 0.961 . S
H1911 C1925 0.960 . S
H1912 C1925 0.961 . S
H1913 C1925 0.959 . S
H1914 C1928 0.929 . S
H1915 C1929 0.931 . S
H1916 C1931 0.930 . S
C1917 H1905 0.930 . S
C1917 C1918 1.399 . S
C1917 C1922 1.399 . S
C1918 C1917 1.399 . S
C1918 C1919 1.376 . S
C1919 H1906 0.930 . S
C1919 C1918 1.376 . S
C1919 C1920 1.388 . S
C1920 H1907 0.930 . S
C1920 C1919 1.388 . S
C1920 C1921 1.390 . S
C1921 C1920 1.390 . S
C1921 C1922 1.394 . S
C1921 C1927 1.465 . S
C1922 C1917 1.399 . S
C1922 C1921 1.394 . S
C1922 C1923 1.516 . S
C1923 C1922 1.516 . S
C1923 C1924 1.502 . S
C1923 C1925 1.561 . S
C1923 C1926 1.526 . S
C1924 H1908 0.959 . S
C1924 H1909 0.959 . S
C1924 H1910 0.961 . S
C1924 C1923 1.502 . S
C1925 H1911 0.960 . S
C1925 H1912 0.961 . S
C1925 H1913 0.959 . S
C1925 C1923 1.561 . S
C1926 C1923 1.526 . S
C1926 C1927 1.396 . S
C1926 C1931 1.390 . S
C1927 C1921 1.465 . S
C1927 C1926 1.396 . S
C1927 C1928 1.399 . S
C1928 H1914 0.929 . S
C1928 C1927 1.399 . S
C1928 C1929 1.385 . S
C1929 H1915 0.931 . S
C1929 C1928 1.385 . S
C1929 C1930 1.389 . S
C1930 C1929 1.389 . S
C1930 C1931 1.387 . S
C1931 H1916 0.930 . S
C1931 C1926 1.390 . S
C1931 C1930 1.387 . S
H1932 C1944 0.930 . S
H1933 C1946 0.930 . S
H1934 C1947 0.930 . S
H1935 C1951 0.959 . S
H1936 C1951 0.959 . S
H1937 C1951 0.961 . S
H1938 C1952 0.960 . S
H1939 C1952 0.961 . S
H1940 C1952 0.959 . S
H1941 C1955 0.929 . S
H1942 C1956 0.931 . S
H1943 C1958 0.930 . S
C1944 H1932 0.930 . S
C1944 C1945 1.399 . S
C1944 C1949 1.399 . S
C1945 C1944 1.399 . S
C1945 C1946 1.376 . S
C1946 H1933 0.930 . S
C1946 C1945 1.376 . S
C1946 C1947 1.388 . S
C1947 H1934 0.930 . S
C1947 C1946 1.388 . S
C1947 C1948 1.390 . S
C1948 C1947 1.390 . S
C1948 C1949 1.394 . S
C1948 C1954 1.465 . S
C1949 C1944 1.399 . S
C1949 C1948 1.394 . S
C1949 C1950 1.516 . S
C1950 C1949 1.516 . S
C1950 C1951 1.502 . S
C1950 C1952 1.561 . S
C1950 C1953 1.526 . S
C1951 H1935 0.959 . S
C1951 H1936 0.959 . S
C1951 H1937 0.961 . S
C1951 C1950 1.502 . S
C1952 H1938 0.960 . S
C1952 H1939 0.961 . S
C1952 H1940 0.959 . S
C1952 C1950 1.561 . S
C1953 C1950 1.526 . S
C1953 C1954 1.396 . S
C1953 C1958 1.390 . S
C1954 C1948 1.465 . S
C1954 C1953 1.396 . S
C1954 C1955 1.399 . S
C1955 H1941 0.929 . S
C1955 C1954 1.399 . S
C1955 C1956 1.385 . S
C1956 H1942 0.931 . S
C1956 C1955 1.385 . S
C1956 C1957 1.389 . S
C1957 C1956 1.389 . S
C1957 C1958 1.387 . S
C1958 H1943 0.930 . S
C1958 C1953 1.390 . S
C1958 C1957 1.387 . S
H1959 C1971 0.930 . S
H1960 C1973 0.930 . S
H1961 C1974 0.930 . S
H1962 C1978 0.959 . S
H1963 C1978 0.959 . S
H1964 C1978 0.961 . S
H1965 C1979 0.960 . S
H1966 C1979 0.961 . S
H1967 C1979 0.959 . S
H1968 C1982 0.929 . S
H1969 C1983 0.931 . S
H1970 C1985 0.930 . S
C1971 H1959 0.930 . S
C1971 C1972 1.399 . S
C1971 C1976 1.399 . S
C1972 C1971 1.399 . S
C1972 C1973 1.376 . S
C1973 H1960 0.930 . S
C1973 C1972 1.376 . S
C1973 C1974 1.388 . S
C1974 H1961 0.930 . S
C1974 C1973 1.388 . S
C1974 C1975 1.390 . S
C1975 C1974 1.390 . S
C1975 C1976 1.394 . S
C1975 C1981 1.465 . S
C1976 C1971 1.399 . S
C1976 C1975 1.394 . S
C1976 C1977 1.516 . S
C1977 C1976 1.516 . S
C1977 C1978 1.502 . S
C1977 C1979 1.561 . S
C1977 C1980 1.526 . S
C1978 H1962 0.959 . S
C1978 H1963 0.959 . S
C1978 H1964 0.961 . S
C1978 C1977 1.502 . S
C1979 H1965 0.960 . S
C1979 H1966 0.961 . S
C1979 H1967 0.959 . S
C1979 C1977 1.561 . S
C1980 C1977 1.526 . S
C1980 C1981 1.396 . S
C1980 C1985 1.390 . S
C1981 C1975 1.465 . S
C1981 C1980 1.396 . S
C1981 C1982 1.399 . S
C1982 H1968 0.929 . S
C1982 C1981 1.399 . S
C1982 C1983 1.385 . S
C1983 H1969 0.931 . S
C1983 C1982 1.385 . S
C1983 C1984 1.389 . S
C1984 C1983 1.389 . S
C1984 C1985 1.387 . S
C1985 H1970 0.930 . S
C1985 C1980 1.390 . S
C1985 C1984 1.387 . S
H1986 C1998 0.930 . S
H1987 C2000 0.930 . S
H1988 C2001 0.930 . S
H1989 C2005 0.959 . S
H1990 C2005 0.959 . S
H1991 C2005 0.961 . S
H1992 C2006 0.960 . S
H1993 C2006 0.961 . S
H1994 C2006 0.959 . S
H1995 C2009 0.929 . S
H1996 C2010 0.931 . S
H1997 C2012 0.930 . S
C1998 H1986 0.930 . S
C1998 C1999 1.399 . S
C1998 C2003 1.399 . S
C1999 C1998 1.399 . S
C1999 C2000 1.376 . S
C2000 H1987 0.930 . S
C2000 C1999 1.376 . S
C2000 C2001 1.388 . S
C2001 H1988 0.930 . S
C2001 C2000 1.388 . S
C2001 C2002 1.390 . S
C2002 C2001 1.390 . S
C2002 C2003 1.394 . S
C2002 C2008 1.465 . S
C2003 C1998 1.399 . S
C2003 C2002 1.394 . S
C2003 C2004 1.516 . S
C2004 C2003 1.516 . S
C2004 C2005 1.502 . S
C2004 C2006 1.561 . S
C2004 C2007 1.526 . S
C2005 H1989 0.959 . S
C2005 H1990 0.959 . S
C2005 H1991 0.961 . S
C2005 C2004 1.502 . S
C2006 H1992 0.960 . S
C2006 H1993 0.961 . S
C2006 H1994 0.959 . S
C2006 C2004 1.561 . S
C2007 C2004 1.526 . S
C2007 C2008 1.396 . S
C2007 C2012 1.390 . S
C2008 C2002 1.465 . S
C2008 C2007 1.396 . S
C2008 C2009 1.399 . S
C2009 H1995 0.929 . S
C2009 C2008 1.399 . S
C2009 C2010 1.385 . S
C2010 H1996 0.931 . S
C2010 C2009 1.385 . S
C2010 C2011 1.389 . S
C2011 C2010 1.389 . S
C2011 C2012 1.387 . S
C2012 H1997 0.930 . S
C2012 C2007 1.390 . S
C2012 C2011 1.387 . S
H2013 C2025 0.930 . S
H2014 C2027 0.930 . S
H2015 C2028 0.930 . S
H2016 C2032 0.959 . S
H2017 C2032 0.959 . S
H2018 C2032 0.961 . S
H2019 C2033 0.960 . S
H2020 C2033 0.961 . S
H2021 C2033 0.959 . S
H2022 C2036 0.929 . S
H2023 C2037 0.931 . S
H2024 C2039 0.930 . S
C2025 H2013 0.930 . S
C2025 C2026 1.399 . S
C2025 C2030 1.399 . S
C2026 C2025 1.399 . S
C2026 C2027 1.376 . S
C2027 H2014 0.930 . S
C2027 C2026 1.376 . S
C2027 C2028 1.388 . S
C2028 H2015 0.930 . S
C2028 C2027 1.388 . S
C2028 C2029 1.390 . S
C2029 C2028 1.390 . S
C2029 C2030 1.394 . S
C2029 C2035 1.465 . S
C2030 C2025 1.399 . S
C2030 C2029 1.394 . S
C2030 C2031 1.516 . S
C2031 C2030 1.516 . S
C2031 C2032 1.502 . S
C2031 C2033 1.561 . S
C2031 C2034 1.526 . S
C2032 H2016 0.959 . S
C2032 H2017 0.959 . S
C2032 H2018 0.961 . S
C2032 C2031 1.502 . S
C2033 H2019 0.960 . S
C2033 H2020 0.961 . S
C2033 H2021 0.959 . S
C2033 C2031 1.561 . S
C2034 C2031 1.526 . S
C2034 C2035 1.396 . S
C2034 C2039 1.390 . S
C2035 C2029 1.465 . S
C2035 C2034 1.396 . S
C2035 C2036 1.399 . S
C2036 H2022 0.929 . S
C2036 C2035 1.399 . S
C2036 C2037 1.385 . S
C2037 H2023 0.931 . S
C2037 C2036 1.385 . S
C2037 C2038 1.389 . S
C2038 C2037 1.389 . S
C2038 C2039 1.387 . S
C2039 H2024 0.930 . S
C2039 C2034 1.390 . S
C2039 C2038 1.387 . S
H2040 C2052 0.930 . S
H2041 C2054 0.930 . S
H2042 C2055 0.930 . S
H2043 C2059 0.959 . S
H2044 C2059 0.959 . S
H2045 C2059 0.961 . S
H2046 C2060 0.960 . S
H2047 C2060 0.961 . S
H2048 C2060 0.959 . S
H2049 C2063 0.929 . S
H2050 C2064 0.931 . S
H2051 C2066 0.930 . S
C2052 H2040 0.930 . S
C2052 C2053 1.399 . S
C2052 C2057 1.399 . S
C2053 C2052 1.399 . S
C2053 C2054 1.376 . S
C2054 H2041 0.930 . S
C2054 C2053 1.376 . S
C2054 C2055 1.388 . S
C2055 H2042 0.930 . S
C2055 C2054 1.388 . S
C2055 C2056 1.390 . S
C2056 C2055 1.390 . S
C2056 C2057 1.394 . S
C2056 C2062 1.465 . S
C2057 C2052 1.399 . S
C2057 C2056 1.394 . S
C2057 C2058 1.516 . S
C2058 C2057 1.516 . S
C2058 C2059 1.502 . S
C2058 C2060 1.561 . S
C2058 C2061 1.526 . S
C2059 H2043 0.959 . S
C2059 H2044 0.959 . S
C2059 H2045 0.961 . S
C2059 C2058 1.502 . S
C2060 H2046 0.960 . S
C2060 H2047 0.961 . S
C2060 H2048 0.959 . S
C2060 C2058 1.561 . S
C2061 C2058 1.526 . S
C2061 C2062 1.396 . S
C2061 C2066 1.390 . S
C2062 C2056 1.465 . S
C2062 C2061 1.396 . S
C2062 C2063 1.399 . S
C2063 H2049 0.929 . S
C2063 C2062 1.399 . S
C2063 C2064 1.385 . S
C2064 H2050 0.931 . S
C2064 C2063 1.385 . S
C2064 C2065 1.389 . S
C2065 C2064 1.389 . S
C2065 C2066 1.387 . S
C2066 H2051 0.930 . S
C2066 C2061 1.390 . S
C2066 C2065 1.387 . S
H2067 C2079 0.930 . S
H2068 C2081 0.930 . S
H2069 C2082 0.930 . S
H2070 C2086 0.959 . S
H2071 C2086 0.959 . S
H2072 C2086 0.961 . S
H2073 C2087 0.960 . S
H2074 C2087 0.961 . S
H2075 C2087 0.959 . S
H2076 C2090 0.929 . S
H2077 C2091 0.931 . S
H2078 C2093 0.930 . S
C2079 H2067 0.930 . S
C2079 C2080 1.399 . S
C2079 C2084 1.399 . S
C2080 C2079 1.399 . S
C2080 C2081 1.376 . S
C2081 H2068 0.930 . S
C2081 C2080 1.376 . S
C2081 C2082 1.388 . S
C2082 H2069 0.930 . S
C2082 C2081 1.388 . S
C2082 C2083 1.390 . S
C2083 C2082 1.390 . S
C2083 C2084 1.394 . S
C2083 C2089 1.465 . S
C2084 C2079 1.399 . S
C2084 C2083 1.394 . S
C2084 C2085 1.516 . S
C2085 C2084 1.516 . S
C2085 C2086 1.502 . S
C2085 C2087 1.561 . S
C2085 C2088 1.526 . S
C2086 H2070 0.959 . S
C2086 H2071 0.959 . S
C2086 H2072 0.961 . S
C2086 C2085 1.502 . S
C2087 H2073 0.960 . S
C2087 H2074 0.961 . S
C2087 H2075 0.959 . S
C2087 C2085 1.561 . S
C2088 C2085 1.526 . S
C2088 C2089 1.396 . S
C2088 C2093 1.390 . S
C2089 C2083 1.465 . S
C2089 C2088 1.396 . S
C2089 C2090 1.399 . S
C2090 H2076 0.929 . S
C2090 C2089 1.399 . S
C2090 C2091 1.385 . S
C2091 H2077 0.931 . S
C2091 C2090 1.385 . S
C2091 C2092 1.389 . S
C2092 C2091 1.389 . S
C2092 C2093 1.387 . S
C2093 H2078 0.930 . S
C2093 C2088 1.390 . S
C2093 C2092 1.387 . S
H2094 C2106 0.930 . S
H2095 C2108 0.930 . S
H2096 C2109 0.930 . S
H2097 C2113 0.959 . S
H2098 C2113 0.959 . S
H2099 C2113 0.961 . S
H2100 C2114 0.960 . S
H2101 C2114 0.961 . S
H2102 C2114 0.959 . S
H2103 C2117 0.929 . S
H2104 C2118 0.931 . S
H2105 C2120 0.930 . S
C2106 H2094 0.930 . S
C2106 C2107 1.399 . S
C2106 C2111 1.399 . S
C2107 C2106 1.399 . S
C2107 C2108 1.376 . S
C2108 H2095 0.930 . S
C2108 C2107 1.376 . S
C2108 C2109 1.388 . S
C2109 H2096 0.930 . S
C2109 C2108 1.388 . S
C2109 C2110 1.390 . S
C2110 C2109 1.390 . S
C2110 C2111 1.394 . S
C2110 C2116 1.465 . S
C2111 C2106 1.399 . S
C2111 C2110 1.394 . S
C2111 C2112 1.516 . S
C2112 C2111 1.516 . S
C2112 C2113 1.502 . S
C2112 C2114 1.561 . S
C2112 C2115 1.526 . S
C2113 H2097 0.959 . S
C2113 H2098 0.959 . S
C2113 H2099 0.961 . S
C2113 C2112 1.502 . S
C2114 H2100 0.960 . S
C2114 H2101 0.961 . S
C2114 H2102 0.959 . S
C2114 C2112 1.561 . S
C2115 C2112 1.526 . S
C2115 C2116 1.396 . S
C2115 C2120 1.390 . S
C2116 C2110 1.465 . S
C2116 C2115 1.396 . S
C2116 C2117 1.399 . S
C2117 H2103 0.929 . S
C2117 C2116 1.399 . S
C2117 C2118 1.385 . S
C2118 H2104 0.931 . S
C2118 C2117 1.385 . S
C2118 C2119 1.389 . S
C2119 C2118 1.389 . S
C2119 C2120 1.387 . S
C2120 H2105 0.930 . S
C2120 C2115 1.390 . S
C2120 C2119 1.387 . S
H2121 C2133 0.930 . S
H2122 C2135 0.930 . S
H2123 C2136 0.930 . S
H2124 C2140 0.959 . S
H2125 C2140 0.959 . S
H2126 C2140 0.961 . S
H2127 C2141 0.960 . S
H2128 C2141 0.961 . S
H2129 C2141 0.959 . S
H2130 C2144 0.929 . S
H2131 C2145 0.931 . S
H2132 C2147 0.930 . S
C2133 H2121 0.930 . S
C2133 C2134 1.399 . S
C2133 C2138 1.399 . S
C2134 C2133 1.399 . S
C2134 C2135 1.376 . S
C2135 H2122 0.930 . S
C2135 C2134 1.376 . S
C2135 C2136 1.388 . S
C2136 H2123 0.930 . S
C2136 C2135 1.388 . S
C2136 C2137 1.390 . S
C2137 C2136 1.390 . S
C2137 C2138 1.394 . S
C2137 C2143 1.465 . S
C2138 C2133 1.399 . S
C2138 C2137 1.394 . S
C2138 C2139 1.516 . S
C2139 C2138 1.516 . S
C2139 C2140 1.502 . S
C2139 C2141 1.561 . S
C2139 C2142 1.526 . S
C2140 H2124 0.959 . S
C2140 H2125 0.959 . S
C2140 H2126 0.961 . S
C2140 C2139 1.502 . S
C2141 H2127 0.960 . S
C2141 H2128 0.961 . S
C2141 H2129 0.959 . S
C2141 C2139 1.561 . S
C2142 C2139 1.526 . S
C2142 C2143 1.396 . S
C2142 C2147 1.390 . S
C2143 C2137 1.465 . S
C2143 C2142 1.396 . S
C2143 C2144 1.399 . S
C2144 H2130 0.929 . S
C2144 C2143 1.399 . S
C2144 C2145 1.385 . S
C2145 H2131 0.931 . S
C2145 C2144 1.385 . S
C2145 C2146 1.389 . S
C2146 C2145 1.389 . S
C2146 C2147 1.387 . S
C2147 H2132 0.930 . S
C2147 C2142 1.390 . S
C2147 C2146 1.387 . S
H2148 C2160 0.930 . S
H2149 C2162 0.930 . S
H2150 C2163 0.930 . S
H2151 C2167 0.959 . S
H2152 C2167 0.959 . S
H2153 C2167 0.961 . S
H2154 C2168 0.960 . S
H2155 C2168 0.961 . S
H2156 C2168 0.959 . S
H2157 C2171 0.929 . S
H2158 C2172 0.931 . S
H2159 C2174 0.930 . S
C2160 H2148 0.930 . S
C2160 C2161 1.399 . S
C2160 C2165 1.399 . S
C2161 C2160 1.399 . S
C2161 C2162 1.376 . S
C2162 H2149 0.930 . S
C2162 C2161 1.376 . S
C2162 C2163 1.388 . S
C2163 H2150 0.930 . S
C2163 C2162 1.388 . S
C2163 C2164 1.390 . S
C2164 C2163 1.390 . S
C2164 C2165 1.394 . S
C2164 C2170 1.465 . S
C2165 C2160 1.399 . S
C2165 C2164 1.394 . S
C2165 C2166 1.516 . S
C2166 C2165 1.516 . S
C2166 C2167 1.502 . S
C2166 C2168 1.561 . S
C2166 C2169 1.526 . S
C2167 H2151 0.959 . S
C2167 H2152 0.959 . S
C2167 H2153 0.961 . S
C2167 C2166 1.502 . S
C2168 H2154 0.960 . S
C2168 H2155 0.961 . S
C2168 H2156 0.959 . S
C2168 C2166 1.561 . S
C2169 C2166 1.526 . S
C2169 C2170 1.396 . S
C2169 C2174 1.390 . S
C2170 C2164 1.465 . S
C2170 C2169 1.396 . S
C2170 C2171 1.399 . S
C2171 H2157 0.929 . S
C2171 C2170 1.399 . S
C2171 C2172 1.385 . S
C2172 H2158 0.931 . S
C2172 C2171 1.385 . S
C2172 C2173 1.389 . S
C2173 C2172 1.389 . S
C2173 C2174 1.387 . S
C2174 H2159 0.930 . S
C2174 C2169 1.390 . S
C2174 C2173 1.387 . S
H2175 C2187 0.930 . S
H2176 C2189 0.930 . S
H2177 C2190 0.930 . S
H2178 C2194 0.959 . S
H2179 C2194 0.959 . S
H2180 C2194 0.961 . S
H2181 C2195 0.960 . S
H2182 C2195 0.961 . S
H2183 C2195 0.959 . S
H2184 C2198 0.929 . S
H2185 C2199 0.931 . S
H2186 C2201 0.930 . S
C2187 H2175 0.930 . S
C2187 C2188 1.399 . S
C2187 C2192 1.399 . S
C2188 C2187 1.399 . S
C2188 C2189 1.376 . S
C2189 H2176 0.930 . S
C2189 C2188 1.376 . S
C2189 C2190 1.388 . S
C2190 H2177 0.930 . S
C2190 C2189 1.388 . S
C2190 C2191 1.390 . S
C2191 C2190 1.390 . S
C2191 C2192 1.394 . S
C2191 C2197 1.465 . S
C2192 C2187 1.399 . S
C2192 C2191 1.394 . S
C2192 C2193 1.516 . S
C2193 C2192 1.516 . S
C2193 C2194 1.502 . S
C2193 C2195 1.561 . S
C2193 C2196 1.526 . S
C2194 H2178 0.959 . S
C2194 H2179 0.959 . S
C2194 H2180 0.961 . S
C2194 C2193 1.502 . S
C2195 H2181 0.960 . S
C2195 H2182 0.961 . S
C2195 H2183 0.959 . S
C2195 C2193 1.561 . S
C2196 C2193 1.526 . S
C2196 C2197 1.396 . S
C2196 C2201 1.390 . S
C2197 C2191 1.465 . S
C2197 C2196 1.396 . S
C2197 C2198 1.399 . S
C2198 H2184 0.929 . S
C2198 C2197 1.399 . S
C2198 C2199 1.385 . S
C2199 H2185 0.931 . S
C2199 C2198 1.385 . S
C2199 C2200 1.389 . S
C2200 C2199 1.389 . S
C2200 C2201 1.387 . S
C2201 H2186 0.930 . S
C2201 C2196 1.390 . S
C2201 C2200 1.387 . S
H2202 C2214 0.930 . S
H2203 C2216 0.930 . S
H2204 C2217 0.930 . S
H2205 C2221 0.959 . S
H2206 C2221 0.959 . S
H2207 C2221 0.961 . S
H2208 C2222 0.960 . S
H2209 C2222 0.961 . S
H2210 C2222 0.959 . S
H2211 C2225 0.929 . S
H2212 C2226 0.931 . S
H2213 C2228 0.930 . S
C2214 H2202 0.930 . S
C2214 C2215 1.399 . S
C2214 C2219 1.399 . S
C2215 C2214 1.399 . S
C2215 C2216 1.376 . S
C2216 H2203 0.930 . S
C2216 C2215 1.376 . S
C2216 C2217 1.388 . S
C2217 H2204 0.930 . S
C2217 C2216 1.388 . S
C2217 C2218 1.390 . S
C2218 C2217 1.390 . S
C2218 C2219 1.394 . S
C2218 C2224 1.465 . S
C2219 C2214 1.399 . S
C2219 C2218 1.394 . S
C2219 C2220 1.516 . S
C2220 C2219 1.516 . S
C2220 C2221 1.502 . S
C2220 C2222 1.561 . S
C2220 C2223 1.526 . S
C2221 H2205 0.959 . S
C2221 H2206 0.959 . S
C2221 H2207 0.961 . S
C2221 C2220 1.502 . S
C2222 H2208 0.960 . S
C2222 H2209 0.961 . S
C2222 H2210 0.959 . S
C2222 C2220 1.561 . S
C2223 C2220 1.526 . S
C2223 C2224 1.396 . S
C2223 C2228 1.390 . S
C2224 C2218 1.465 . S
C2224 C2223 1.396 . S
C2224 C2225 1.399 . S
C2225 H2211 0.929 . S
C2225 C2224 1.399 . S
C2225 C2226 1.385 . S
C2226 H2212 0.931 . S
C2226 C2225 1.385 . S
C2226 C2227 1.389 . S
C2227 C2226 1.389 . S
C2227 C2228 1.387 . S
C2228 H2213 0.930 . S
C2228 C2223 1.390 . S
C2228 C2227 1.387 . S
H2229 C2241 0.930 . S
H2230 C2243 0.930 . S
H2231 C2244 0.930 . S
H2232 C2248 0.959 . S
H2233 C2248 0.959 . S
H2234 C2248 0.961 . S
H2235 C2249 0.960 . S
H2236 C2249 0.961 . S
H2237 C2249 0.959 . S
H2238 C2252 0.929 . S
H2239 C2253 0.931 . S
H2240 C2255 0.930 . S
C2241 H2229 0.930 . S
C2241 C2242 1.399 . S
C2241 C2246 1.399 . S
C2242 C2241 1.399 . S
C2242 C2243 1.376 . S
C2243 H2230 0.930 . S
C2243 C2242 1.376 . S
C2243 C2244 1.388 . S
C2244 H2231 0.930 . S
C2244 C2243 1.388 . S
C2244 C2245 1.390 . S
C2245 C2244 1.390 . S
C2245 C2246 1.394 . S
C2245 C2251 1.465 . S
C2246 C2241 1.399 . S
C2246 C2245 1.394 . S
C2246 C2247 1.516 . S
C2247 C2246 1.516 . S
C2247 C2248 1.502 . S
C2247 C2249 1.561 . S
C2247 C2250 1.526 . S
C2248 H2232 0.959 . S
C2248 H2233 0.959 . S
C2248 H2234 0.961 . S
C2248 C2247 1.502 . S
C2249 H2235 0.960 . S
C2249 H2236 0.961 . S
C2249 H2237 0.959 . S
C2249 C2247 1.561 . S
C2250 C2247 1.526 . S
C2250 C2251 1.396 . S
C2250 C2255 1.390 . S
C2251 C2245 1.465 . S
C2251 C2250 1.396 . S
C2251 C2252 1.399 . S
C2252 H2238 0.929 . S
C2252 C2251 1.399 . S
C2252 C2253 1.385 . S
C2253 H2239 0.931 . S
C2253 C2252 1.385 . S
C2253 C2254 1.389 . S
C2254 C2253 1.389 . S
C2254 C2255 1.387 . S
C2255 H2240 0.930 . S
C2255 C2250 1.390 . S
C2255 C2254 1.387 . S
H2256 C2268 0.930 . S
H2257 C2270 0.930 . S
H2258 C2271 0.930 . S
H2259 C2275 0.959 . S
H2260 C2275 0.959 . S
H2261 C2275 0.961 . S
H2262 C2276 0.960 . S
H2263 C2276 0.961 . S
H2264 C2276 0.959 . S
H2265 C2279 0.929 . S
H2266 C2280 0.931 . S
H2267 C2282 0.930 . S
C2268 H2256 0.930 . S
C2268 C2269 1.399 . S
C2268 C2273 1.399 . S
C2269 C2268 1.399 . S
C2269 C2270 1.376 . S
C2270 H2257 0.930 . S
C2270 C2269 1.376 . S
C2270 C2271 1.388 . S
C2271 H2258 0.930 . S
C2271 C2270 1.388 . S
C2271 C2272 1.390 . S
C2272 C2271 1.390 . S
C2272 C2273 1.394 . S
C2272 C2278 1.465 . S
C2273 C2268 1.399 . S
C2273 C2272 1.394 . S
C2273 C2274 1.516 . S
C2274 C2273 1.516 . S
C2274 C2275 1.502 . S
C2274 C2276 1.561 . S
C2274 C2277 1.526 . S
C2275 H2259 0.959 . S
C2275 H2260 0.959 . S
C2275 H2261 0.961 . S
C2275 C2274 1.502 . S
C2276 H2262 0.960 . S
C2276 H2263 0.961 . S
C2276 H2264 0.959 . S
C2276 C2274 1.561 . S
C2277 C2274 1.526 . S
C2277 C2278 1.396 . S
C2277 C2282 1.390 . S
C2278 C2272 1.465 . S
C2278 C2277 1.396 . S
C2278 C2279 1.399 . S
C2279 H2265 0.929 . S
C2279 C2278 1.399 . S
C2279 C2280 1.385 . S
C2280 H2266 0.931 . S
C2280 C2279 1.385 . S
C2280 C2281 1.389 . S
C2281 C2280 1.389 . S
C2281 C2282 1.387 . S
C2282 H2267 0.930 . S
C2282 C2277 1.390 . S
C2282 C2281 1.387 . S
H2283 C2295 0.930 . S
H2284 C2297 0.930 . S
H2285 C2298 0.930 . S
H2286 C2302 0.959 . S
H2287 C2302 0.959 . S
H2288 C2302 0.961 . S
H2289 C2303 0.960 . S
H2290 C2303 0.961 . S
H2291 C2303 0.959 . S
H2292 C2306 0.929 . S
H2293 C2307 0.931 . S
H2294 C2309 0.930 . S
C2295 H2283 0.930 . S
C2295 C2296 1.399 . S
C2295 C2300 1.399 . S
C2296 C2295 1.399 . S
C2296 C2297 1.376 . S
C2297 H2284 0.930 . S
C2297 C2296 1.376 . S
C2297 C2298 1.388 . S
C2298 H2285 0.930 . S
C2298 C2297 1.388 . S
C2298 C2299 1.390 . S
C2299 C2298 1.390 . S
C2299 C2300 1.394 . S
C2299 C2305 1.465 . S
C2300 C2295 1.399 . S
C2300 C2299 1.394 . S
C2300 C2301 1.516 . S
C2301 C2300 1.516 . S
C2301 C2302 1.502 . S
C2301 C2303 1.561 . S
C2301 C2304 1.526 . S
C2302 H2286 0.959 . S
C2302 H2287 0.959 . S
C2302 H2288 0.961 . S
C2302 C2301 1.502 . S
C2303 H2289 0.960 . S
C2303 H2290 0.961 . S
C2303 H2291 0.959 . S
C2303 C2301 1.561 . S
C2304 C2301 1.526 . S
C2304 C2305 1.396 . S
C2304 C2309 1.390 . S
C2305 C2299 1.465 . S
C2305 C2304 1.396 . S
C2305 C2306 1.399 . S
C2306 H2292 0.929 . S
C2306 C2305 1.399 . S
C2306 C2307 1.385 . S
C2307 H2293 0.931 . S
C2307 C2306 1.385 . S
C2307 C2308 1.389 . S
C2308 C2307 1.389 . S
C2308 C2309 1.387 . S
C2309 H2294 0.930 . S
C2309 C2304 1.390 . S
C2309 C2308 1.387 . S
H2310 C2322 0.930 . S
H2311 C2324 0.930 . S
H2312 C2325 0.930 . S
H2313 C2329 0.959 . S
H2314 C2329 0.959 . S
H2315 C2329 0.961 . S
H2316 C2330 0.960 . S
H2317 C2330 0.961 . S
H2318 C2330 0.959 . S
H2319 C2333 0.929 . S
H2320 C2334 0.931 . S
H2321 C2336 0.930 . S
C2322 H2310 0.930 . S
C2322 C2323 1.399 . S
C2322 C2327 1.399 . S
C2323 C2322 1.399 . S
C2323 C2324 1.376 . S
C2324 H2311 0.930 . S
C2324 C2323 1.376 . S
C2324 C2325 1.388 . S
C2325 H2312 0.930 . S
C2325 C2324 1.388 . S
C2325 C2326 1.390 . S
C2326 C2325 1.390 . S
C2326 C2327 1.394 . S
C2326 C2332 1.465 . S
C2327 C2322 1.399 . S
C2327 C2326 1.394 . S
C2327 C2328 1.516 . S
C2328 C2327 1.516 . S
C2328 C2329 1.502 . S
C2328 C2330 1.561 . S
C2328 C2331 1.526 . S
C2329 H2313 0.959 . S
C2329 H2314 0.959 . S
C2329 H2315 0.961 . S
C2329 C2328 1.502 . S
C2330 H2316 0.960 . S
C2330 H2317 0.961 . S
C2330 H2318 0.959 . S
C2330 C2328 1.561 . S
C2331 C2328 1.526 . S
C2331 C2332 1.396 . S
C2331 C2336 1.390 . S
C2332 C2326 1.465 . S
C2332 C2331 1.396 . S
C2332 C2333 1.399 . S
C2333 H2319 0.929 . S
C2333 C2332 1.399 . S
C2333 C2334 1.385 . S
C2334 H2320 0.931 . S
C2334 C2333 1.385 . S
C2334 C2335 1.389 . S
C2335 C2334 1.389 . S
C2335 C2336 1.387 . S
C2336 H2321 0.930 . S
C2336 C2331 1.390 . S
C2336 C2335 1.387 . S
H2337 C2349 0.930 . S
H2338 C2351 0.930 . S
H2339 C2352 0.930 . S
H2340 C2356 0.959 . S
H2341 C2356 0.959 . S
H2342 C2356 0.961 . S
H2343 C2357 0.960 . S
H2344 C2357 0.961 . S
H2345 C2357 0.959 . S
H2346 C2360 0.929 . S
H2347 C2361 0.931 . S
H2348 C2363 0.930 . S
C2349 H2337 0.930 . S
C2349 C2350 1.399 . S
C2349 C2354 1.399 . S
C2350 C2349 1.399 . S
C2350 C2351 1.376 . S
C2351 H2338 0.930 . S
C2351 C2350 1.376 . S
C2351 C2352 1.388 . S
C2352 H2339 0.930 . S
C2352 C2351 1.388 . S
C2352 C2353 1.390 . S
C2353 C2352 1.390 . S
C2353 C2354 1.394 . S
C2353 C2359 1.465 . S
C2354 C2349 1.399 . S
C2354 C2353 1.394 . S
C2354 C2355 1.516 . S
C2355 C2354 1.516 . S
C2355 C2356 1.502 . S
C2355 C2357 1.561 . S
C2355 C2358 1.526 . S
C2356 H2340 0.959 . S
C2356 H2341 0.959 . S
C2356 H2342 0.961 . S
C2356 C2355 1.502 . S
C2357 H2343 0.960 . S
C2357 H2344 0.961 . S
C2357 H2345 0.959 . S
C2357 C2355 1.561 . S
C2358 C2355 1.526 . S
C2358 C2359 1.396 . S
C2358 C2363 1.390 . S
C2359 C2353 1.465 . S
C2359 C2358 1.396 . S
C2359 C2360 1.399 . S
C2360 H2346 0.929 . S
C2360 C2359 1.399 . S
C2360 C2361 1.385 . S
C2361 H2347 0.931 . S
C2361 C2360 1.385 . S
C2361 C2362 1.389 . S
C2362 C2361 1.389 . S
C2362 C2363 1.387 . S
C2363 H2348 0.930 . S
C2363 C2358 1.390 . S
C2363 C2362 1.387 . S
H2364 C2376 0.930 . S
H2365 C2378 0.930 . S
H2366 C2379 0.930 . S
H2367 C2383 0.959 . S
H2368 C2383 0.959 . S
H2369 C2383 0.961 . S
H2370 C2384 0.960 . S
H2371 C2384 0.961 . S
H2372 C2384 0.959 . S
H2373 C2387 0.929 . S
H2374 C2388 0.931 . S
H2375 C2390 0.930 . S
C2376 H2364 0.930 . S
C2376 C2377 1.399 . S
C2376 C2381 1.399 . S
C2377 C2376 1.399 . S
C2377 C2378 1.376 . S
C2378 H2365 0.930 . S
C2378 C2377 1.376 . S
C2378 C2379 1.388 . S
C2379 H2366 0.930 . S
C2379 C2378 1.388 . S
C2379 C2380 1.390 . S
C2380 C2379 1.390 . S
C2380 C2381 1.394 . S
C2380 C2386 1.465 . S
C2381 C2376 1.399 . S
C2381 C2380 1.394 . S
C2381 C2382 1.516 . S
C2382 C2381 1.516 . S
C2382 C2383 1.502 . S
C2382 C2384 1.561 . S
C2382 C2385 1.526 . S
C2383 H2367 0.959 . S
C2383 H2368 0.959 . S
C2383 H2369 0.961 . S
C2383 C2382 1.502 . S
C2384 H2370 0.960 . S
C2384 H2371 0.961 . S
C2384 H2372 0.959 . S
C2384 C2382 1.561 . S
C2385 C2382 1.526 . S
C2385 C2386 1.396 . S
C2385 C2390 1.390 . S
C2386 C2380 1.465 . S
C2386 C2385 1.396 . S
C2386 C2387 1.399 . S
C2387 H2373 0.929 . S
C2387 C2386 1.399 . S
C2387 C2388 1.385 . S
C2388 H2374 0.931 . S
C2388 C2387 1.385 . S
C2388 C2389 1.389 . S
C2389 C2388 1.389 . S
C2389 C2390 1.387 . S
C2390 H2375 0.930 . S
C2390 C2385 1.390 . S
C2390 C2389 1.387 . S
H2391 C2403 0.930 . S
H2392 C2405 0.930 . S
H2393 C2406 0.930 . S
H2394 C2410 0.959 . S
H2395 C2410 0.959 . S
H2396 C2410 0.961 . S
H2397 C2411 0.960 . S
H2398 C2411 0.961 . S
H2399 C2411 0.959 . S
H2400 C2414 0.929 . S
H2401 C2415 0.931 . S
H2402 C2417 0.930 . S
C2403 H2391 0.930 . S
C2403 C2404 1.399 . S
C2403 C2408 1.399 . S
C2404 C2403 1.399 . S
C2404 C2405 1.376 . S
C2405 H2392 0.930 . S
C2405 C2404 1.376 . S
C2405 C2406 1.388 . S
C2406 H2393 0.930 . S
C2406 C2405 1.388 . S
C2406 C2407 1.390 . S
C2407 C2406 1.390 . S
C2407 C2408 1.394 . S
C2407 C2413 1.465 . S
C2408 C2403 1.399 . S
C2408 C2407 1.394 . S
C2408 C2409 1.516 . S
C2409 C2408 1.516 . S
C2409 C2410 1.502 . S
C2409 C2411 1.561 . S
C2409 C2412 1.526 . S
C2410 H2394 0.959 . S
C2410 H2395 0.959 . S
C2410 H2396 0.961 . S
C2410 C2409 1.502 . S
C2411 H2397 0.960 . S
C2411 H2398 0.961 . S
C2411 H2399 0.959 . S
C2411 C2409 1.561 . S
C2412 C2409 1.526 . S
C2412 C2413 1.396 . S
C2412 C2417 1.390 . S
C2413 C2407 1.465 . S
C2413 C2412 1.396 . S
C2413 C2414 1.399 . S
C2414 H2400 0.929 . S
C2414 C2413 1.399 . S
C2414 C2415 1.385 . S
C2415 H2401 0.931 . S
C2415 C2414 1.385 . S
C2415 C2416 1.389 . S
C2416 C2415 1.389 . S
C2416 C2417 1.387 . S
C2417 H2402 0.930 . S
C2417 C2412 1.390 . S
C2417 C2416 1.387 . S
H2418 C2430 0.930 . S
H2419 C2432 0.930 . S
H2420 C2433 0.930 . S
H2421 C2437 0.959 . S
H2422 C2437 0.959 . S
H2423 C2437 0.961 . S
H2424 C2438 0.960 . S
H2425 C2438 0.961 . S
H2426 C2438 0.959 . S
H2427 C2441 0.929 . S
H2428 C2442 0.931 . S
H2429 C2444 0.930 . S
C2430 H2418 0.930 . S
C2430 C2431 1.399 . S
C2430 C2435 1.399 . S
C2431 C2430 1.399 . S
C2431 C2432 1.376 . S
C2432 H2419 0.930 . S
C2432 C2431 1.376 . S
C2432 C2433 1.388 . S
C2433 H2420 0.930 . S
C2433 C2432 1.388 . S
C2433 C2434 1.390 . S
C2434 C2433 1.390 . S
C2434 C2435 1.394 . S
C2434 C2440 1.465 . S
C2435 C2430 1.399 . S
C2435 C2434 1.394 . S
C2435 C2436 1.516 . S
C2436 C2435 1.516 . S
C2436 C2437 1.502 . S
C2436 C2438 1.561 . S
C2436 C2439 1.526 . S
C2437 H2421 0.959 . S
C2437 H2422 0.959 . S
C2437 H2423 0.961 . S
C2437 C2436 1.502 . S
C2438 H2424 0.960 . S
C2438 H2425 0.961 . S
C2438 H2426 0.959 . S
C2438 C2436 1.561 . S
C2439 C2436 1.526 . S
C2439 C2440 1.396 . S
C2439 C2444 1.390 . S
C2440 C2434 1.465 . S
C2440 C2439 1.396 . S
C2440 C2441 1.399 . S
C2441 H2427 0.929 . S
C2441 C2440 1.399 . S
C2441 C2442 1.385 . S
C2442 H2428 0.931 . S
C2442 C2441 1.385 . S
C2442 C2443 1.389 . S
C2443 C2442 1.389 . S
C2443 C2444 1.387 . S
C2444 H2429 0.930 . S
C2444 C2439 1.390 . S
C2444 C2443 1.387 . S
H2445 C2457 0.930 . S
H2446 C2459 0.930 . S
H2447 C2460 0.930 . S
H2448 C2464 0.959 . S
H2449 C2464 0.959 . S
H2450 C2464 0.961 . S
H2451 C2465 0.960 . S
H2452 C2465 0.961 . S
H2453 C2465 0.959 . S
H2454 C2468 0.929 . S
H2455 C2469 0.931 . S
H2456 C2471 0.930 . S
C2457 H2445 0.930 . S
C2457 C2458 1.399 . S
C2457 C2462 1.399 . S
C2458 C2457 1.399 . S
C2458 C2459 1.376 . S
C2459 H2446 0.930 . S
C2459 C2458 1.376 . S
C2459 C2460 1.388 . S
C2460 H2447 0.930 . S
C2460 C2459 1.388 . S
C2460 C2461 1.390 . S
C2461 C2460 1.390 . S
C2461 C2462 1.394 . S
C2461 C2467 1.465 . S
C2462 C2457 1.399 . S
C2462 C2461 1.394 . S
C2462 C2463 1.516 . S
C2463 C2462 1.516 . S
C2463 C2464 1.502 . S
C2463 C2465 1.561 . S
C2463 C2466 1.526 . S
C2464 H2448 0.959 . S
C2464 H2449 0.959 . S
C2464 H2450 0.961 . S
C2464 C2463 1.502 . S
C2465 H2451 0.960 . S
C2465 H2452 0.961 . S
C2465 H2453 0.959 . S
C2465 C2463 1.561 . S
C2466 C2463 1.526 . S
C2466 C2467 1.396 . S
C2466 C2471 1.390 . S
C2467 C2461 1.465 . S
C2467 C2466 1.396 . S
C2467 C2468 1.399 . S
C2468 H2454 0.929 . S
C2468 C2467 1.399 . S
C2468 C2469 1.385 . S
C2469 H2455 0.931 . S
C2469 C2468 1.385 . S
C2469 C2470 1.389 . S
C2470 C2469 1.389 . S
C2470 C2471 1.387 . S
C2471 H2456 0.930 . S
C2471 C2466 1.390 . S
C2471 C2470 1.387 . S
C541 C9 1.121 . S
C553 C138 1.117 . S
C568 C28 1.156 . S
C580 C159 1.150 . S
C595 C95 1.155 1_655 S
C607 C53 1.159 1_655 S
C622 C73 1.155 1_565 S
C634 C115 1.148 1_565 S
C649 C71 1.129 1_565 S
C661 C31 1.137 1_565 S
C676 C50 1.119 . S
C688 C6 1.115 . S
C703 C117 1.126 . S
C715 C161 1.134 . S
C730 C141 1.157 1_655 S
C742 C93 1.159 1_655 S
C757 C181 1.151 . S
C769 C207 1.144 . S
C784 C183 1.129 . S
C796 C229 1.137 . S
C811 C226 1.157 1_556 S
C823 C249 1.152 1_556 S
C838 C247 1.152 1_556 S
C850 C204 1.145 1_556 S
C865 C273 1.119 . S
C877 C402 1.115 . S
C892 C423 1.156 . S
C904 C292 1.149 . S
C919 C317 1.154 . S
C931 C359 1.159 . S
C946 C337 1.119 . S
C958 C379 1.126 . S
C973 C335 1.122 . S
C985 C295 1.129 . S
C1000 C314 1.120 . S
C1012 C270 1.116 . S
C1027 C381 1.144 . S
C1039 C425 1.151 . S
C1054 C405 1.151 . S
C1066 C357 1.157 . S
C1081 C445 1.117 . S
C1093 C469 1.123 . S
C1108 C493 1.122 . S
C1120 C447 1.130 . S
C1135 C490 1.120 . S
C1147 C513 1.127 . S
C1162 C511 1.154 . S
C1174 C467 1.148 . S
C1189 C512 0.937 . S
C1201 C7 1.003 . S
C1216 C470 0.950 . S
C1228 C26 0.976 . S
C1243 C51 0.929 . S
C1255 C448 1.006 . S
C1270 C74 0.940 . S
C1282 C488 0.991 . S
C1297 C491 0.938 . S
C1309 C96 1.002 . S
C1324 C116 1.008 . S
C1336 C514 0.927 . S
C1351 C468 0.954 . S
C1363 C136 0.975 . S
C1378 C160 0.929 . S
C1390 C446 1.005 . S
C1405 C358 0.928 . S
C1417 C72 1.004 . S
C1432 C4 0.931 . S
C1444 C382 1.009 . S
C1459 C29 0.935 . S
C1471 C403 0.997 . S
C1486 C48 0.964 . S
C1498 C426 0.982 . S
C1513 C268 1.008 . S
C1525 C118 0.934 . S
C1540 C139 1.008 . S
C1552 C293 0.927 . S
C1567 C162 0.997 . S
C1579 C312 0.947 . S
C1594 C94 0.946 . S
C1606 C336 1.001 . S
C1621 C424 0.950 . S
C1633 C182 0.976 . S
C1648 C205 1.005 . S
C1660 C290 0.932 . S
C1675 C315 1.008 . S
C1687 C184 0.932 . S
C1702 C338 0.985 . S
C1714 C224 0.946 . S
C1729 C248 1.004 . S
C1741 C271 0.933 . S
C1756 C380 0.932 . S
C1768 C250 0.997 . S
C1783 C400 0.937 . S
C1795 C202 1.002 . S
C1810 C360 0.935 . S
C1822 C227 1.004 . S
C1837 C97 0.985 . S
C1849 C449 0.944 . S
C1864 C114 0.935 . S
C1876 C489 0.994 . S
C1891 C137 0.962 . S
C1903 C510 0.986 . S
C1918 C471 1.006 . S
C1930 C158 0.936 . S
C1945 C466 0.963 . S
C1957 C8 0.989 . S
C1972 C27 0.929 . S
C1984 C444 1.009 . S
C1999 C52 1.007 . S
C2011 C492 0.932 . S
C2026 C515 1.008 . S
C2038 C75 0.931 . S
C2053 C269 0.967 . S
C2065 C163 0.961 . S
C2080 C92 0.938 . S
C2092 C294 0.987 . S
C2107 C313 0.983 . S
C2119 C119 0.966 . S
C2134 C334 0.982 . S
C2146 C140 0.947 . S
C2161 C356 0.968 . S
C2173 C30 0.954 . S
C2188 C49 0.996 . S
C2200 C383 0.936 . S
C2215 C404 0.978 . S
C2227 C70 0.951 . S
C2242 C427 0.998 . S
C2254 C5 0.929 . S
C2269 C251 0.939 . S
C2281 C339 0.989 . S
C2296 C225 0.942 . S
C2308 C378 0.981 . S
C2323 C401 0.989 . S
C2335 C246 0.935 . S
C2350 C206 0.929 . S
C2362 C422 1.001 . S
C2377 C185 0.931 . S
C2389 C361 1.005 . S
C2404 C291 0.993 . S
C2416 C180 0.959 . S
C2431 C228 0.928 . S
C2443 C316 1.007 . S
C2458 C272 1.007 . S
C2470 C203 0.938 . S
