# Generated by pormake.
# Topology wjf, (4)-cn, num edge types: 1
# Building blocks:
#     Node 0, Type 0, BuildingBlock: CEKHIL_clean_sbu_0, # of connection points: 4
#     Node 1, Type 0, BuildingBlock: CEKHIL_clean_sbu_0, # of connection points: 4
#     Node 2, Type 0, BuildingBlock: CEKHIL_clean_sbu_0, # of connection points: 4
#     Node 3, Type 0, BuildingBlock: CEKHIL_clean_sbu_0, # of connection points: 4
#     Node 4, Type 0, BuildingBlock: CEKHIL_clean_sbu_0, # of connection points: 4
#     Node 5, Type 0, BuildingBlock: CEKHIL_clean_sbu_0, # of connection points: 4
#     Node 6, Type 0, BuildingBlock: CEKHIL_clean_sbu_0, # of connection points: 4
#     Node 7, Type 0, BuildingBlock: CEKHIL_clean_sbu_0, # of connection points: 4
#     Node 8, Type 0, BuildingBlock: CEKHIL_clean_sbu_0, # of connection points: 4
#     Node 9, Type 0, BuildingBlock: CEKHIL_clean_sbu_0, # of connection points: 4
#     Node 10, Type 0, BuildingBlock: CEKHIL_clean_sbu_0, # of connection points: 4
#     Node 11, Type 0, BuildingBlock: CEKHIL_clean_sbu_0, # of connection points: 4
#     Edge 12, Type (0, 0), BuildingBlock: UVAHIK_clean_linker_0, # of connection points: 2
#     Edge 13, Type (0, 0), BuildingBlock: UVAHIK_clean_linker_0, # of connection points: 2
#     Edge 14, Type (0, 0), BuildingBlock: UVAHIK_clean_linker_0, # of connection points: 2
#     Edge 15, Type (0, 0), BuildingBlock: UVAHIK_clean_linker_0, # of connection points: 2
#     Edge 16, Type (0, 0), BuildingBlock: UVAHIK_clean_linker_0, # of connection points: 2
#     Edge 17, Type (0, 0), BuildingBlock: UVAHIK_clean_linker_0, # of connection points: 2
#     Edge 18, Type (0, 0), BuildingBlock: UVAHIK_clean_linker_0, # of connection points: 2
#     Edge 19, Type (0, 0), BuildingBlock: UVAHIK_clean_linker_0, # of connection points: 2
#     Edge 20, Type (0, 0), BuildingBlock: UVAHIK_clean_linker_0, # of connection points: 2
#     Edge 21, Type (0, 0), BuildingBlock: UVAHIK_clean_linker_0, # of connection points: 2
#     Edge 22, Type (0, 0), BuildingBlock: UVAHIK_clean_linker_0, # of connection points: 2
#     Edge 23, Type (0, 0), BuildingBlock: UVAHIK_clean_linker_0, # of connection points: 2
#     Edge 24, Type (0, 0), BuildingBlock: UVAHIK_clean_linker_0, # of connection points: 2
#     Edge 25, Type (0, 0), BuildingBlock: UVAHIK_clean_linker_0, # of connection points: 2
#     Edge 26, Type (0, 0), BuildingBlock: UVAHIK_clean_linker_0, # of connection points: 2
#     Edge 27, Type (0, 0), BuildingBlock: UVAHIK_clean_linker_0, # of connection points: 2
#     Edge 28, Type (0, 0), BuildingBlock: UVAHIK_clean_linker_0, # of connection points: 2
#     Edge 29, Type (0, 0), BuildingBlock: UVAHIK_clean_linker_0, # of connection points: 2
#     Edge 30, Type (0, 0), BuildingBlock: UVAHIK_clean_linker_0, # of connection points: 2
#     Edge 31, Type (0, 0), BuildingBlock: UVAHIK_clean_linker_0, # of connection points: 2
#     Edge 32, Type (0, 0), BuildingBlock: UVAHIK_clean_linker_0, # of connection points: 2
#     Edge 33, Type (0, 0), BuildingBlock: UVAHIK_clean_linker_0, # of connection points: 2
#     Edge 34, Type (0, 0), BuildingBlock: UVAHIK_clean_linker_0, # of connection points: 2
#     Edge 35, Type (0, 0), BuildingBlock: UVAHIK_clean_linker_0, # of connection points: 2
# Relax obj value: 0.113
# Max RMSD: 0.134
# Mean RMSD: 0.134
data_MOF--net-wjf--node1-CEKHIL_clean_sbu_0--edge1-UVAHIK_clean_linker_0
_symmetry_space_group_name_H-M    P1
_symmetry_Int_Tables_number       1
_symmetry_cell_setting            triclinic
loop_
_symmetry_equiv_pos_as_xyz
'x, y, z'
_cell_length_a     65.111941
_cell_length_b     65.13291
_cell_length_c     35.765729
_cell_angle_alpha  90.059703
_cell_angle_beta   89.965014
_cell_angle_gamma 119.98009
loop_
_atom_site_label
_atom_site_type_symbol
_atom_site_fract_x
_atom_site_fract_y
_atom_site_fract_z
_atom_type_partial_charge
Co0 Co 0.32732 0.38038 0.07057 0.0
O1 O 0.29349 0.36668 0.06743 0.0
O2 O 0.31977 0.40148 0.04365 0.0
C3 C 0.32911 0.37323 0.13143 0.0
O4 O 0.36346 0.40062 0.0694 0.0
Co5 Co 0.34966 0.34913 0.08995 0.0
O6 O 0.37952 0.37991 0.09341 0.0
C7 C 0.33046 0.34668 0.0147 0.0
C8 C 0.29766 0.38556 0.04904 0.0
C9 C 0.38144 0.39905 0.08063 0.0
O10 O 0.32689 0.36389 0.02274 0.0
O11 O 0.33824 0.33733 0.03808 0.0
O12 O 0.32739 0.39146 0.1212 0.0
O13 O 0.32715 0.35878 0.10509 0.0
Co14 Co 0.94937 0.32797 0.40364 0.0
O15 O 0.92931 0.29415 0.40138 0.0
O16 O 0.92042 0.32006 0.37719 0.0
C17 C 0.95889 0.3304 0.46433 0.0
O18 O 0.96533 0.36413 0.40175 0.0
Co19 Co 0.00315 0.35002 0.42176 0.0
O20 O 0.00254 0.38006 0.4241 0.0
C21 C 0.98555 0.33023 0.34712 0.0
C22 C 0.9144 0.29804 0.38304 0.0
C23 C 0.98523 0.38207 0.41197 0.0
O24 O 0.96496 0.32704 0.35555 0.0
O25 O 0.00287 0.33795 0.37014 0.0
O26 O 0.93884 0.32857 0.45443 0.0
O27 O 0.97107 0.32808 0.43785 0.0
Co28 Co 0.6179 0.94553 0.73796 0.0
O29 O 0.63227 0.92602 0.73507 0.0
O30 O 0.59676 0.91613 0.71269 0.0
C31 C 0.62627 0.95586 0.79818 0.0
O32 O 0.59704 0.96079 0.73697 0.0
Co33 Co 0.64888 0.9996 0.75439 0.0
O34 O 0.61786 0.99808 0.75907 0.0
C35 C 0.6503 0.98128 0.67991 0.0
C36 C 0.61323 0.91065 0.71769 0.0
C37 C 0.59856 0.98044 0.74756 0.0
O38 O 0.63323 0.96069 0.68906 0.0
O39 O 0.66001 0.99886 0.70247 0.0
O40 O 0.60805 0.93553 0.78936 0.0
O41 O 0.63997 0.96791 0.77088 0.0
Co42 Co 0.67232 0.6193 0.0676 0.0
O43 O 0.70617 0.63324 0.06672 0.0
O44 O 0.68081 0.59828 0.04239 0.0
C45 C 0.66918 0.62673 0.12787 0.0
O46 O 0.63621 0.59889 0.06464 0.0
Co47 Co 0.64968 0.65078 0.08352 0.0
O48 O 0.6198 0.62 0.08587 0.0
C49 C 0.67081 0.65295 0.00999 0.0
C50 C 0.70271 0.61437 0.04902 0.0
C51 C 0.61807 0.60069 0.07423 0.0
O52 O 0.6738 0.63552 0.01903 0.0
O53 O 0.66274 0.66258 0.03236 0.0
O54 O 0.67116 0.60848 0.11869 0.0
O55 O 0.67164 0.64101 0.10101 0.0
Co56 Co 0.05655 0.67336 0.4051 0.0
O57 O 0.07639 0.70717 0.40112 0.0
O58 O 0.0855 0.68091 0.37897 0.0
C59 C 0.04713 0.67236 0.46562 0.0
O60 O 0.04099 0.63722 0.405 0.0
Co61 Co 0.00276 0.65071 0.42364 0.0
O62 O 0.00403 0.6211 0.42836 0.0
C63 C 0.01992 0.6693 0.34823 0.0
C64 C 0.09137 0.703 0.3835 0.0
C65 C 0.02144 0.61924 0.41624 0.0
O66 O 0.04071 0.67306 0.35666 0.0
O67 O 0.00269 0.66169 0.37142 0.0
O68 O 0.06722 0.67406 0.45627 0.0
O69 O 0.03475 0.67373 0.43858 0.0
Co70 Co 0.38124 0.05461 0.73588 0.0
O71 O 0.36811 0.07521 0.73317 0.0
O72 O 0.40334 0.08383 0.71105 0.0
C73 C 0.37248 0.04409 0.79594 0.0
O74 O 0.40084 0.03803 0.73481 0.0
Co75 Co 0.34805 1.00073 0.75071 0.0
O76 O 0.37824 1.00041 0.75465 0.0
C77 C 0.34777 0.02037 0.67703 0.0
C78 C 0.38745 0.09013 0.71599 0.0
C79 C 0.39812 0.01771 0.74429 0.0
O80 O 0.36594 0.04012 0.68667 0.0
O81 O 0.33681 0.00287 0.69943 0.0
O82 O 0.39115 0.06413 0.78736 0.0
O83 O 0.35853 0.03258 0.7685 0.0
Co84 Co 0.62238 0.67448 0.56604 0.0
O85 O 0.63625 0.70831 0.56849 0.0
O86 O 0.6017 0.68245 0.59351 0.0
C87 C 0.62886 0.67232 0.505 0.0
O88 O 0.60202 0.63836 0.56796 0.0
Co89 Co 0.65325 0.65183 0.54568 0.0
O90 O 0.62235 0.62206 0.54316 0.0
C91 C 0.65669 0.67163 0.6208 0.0
C92 C 0.6176 0.70446 0.58732 0.0
C93 C 0.6034 0.62027 0.55662 0.0
O94 O 0.63944 0.67523 0.61335 0.0
O95 O 0.66568 0.66359 0.59715 0.0
O96 O 0.61072 0.67408 0.51571 0.0
O97 O 0.64353 0.67433 0.53096 0.0
Co98 Co 0.94724 0.6215 0.90073 0.0
O99 O 0.92696 0.63499 0.90449 0.0
O100 O 0.91836 0.5998 0.92668 0.0
C101 C 0.95679 0.62989 0.84028 0.0
O102 O 0.96335 0.60143 0.90103 0.0
Co103 Co 1.00099 0.65338 0.88275 0.0
O104 O 1.00036 0.62279 0.87808 0.0
C105 C 0.98334 0.65439 0.958 0.0
C106 C 0.91215 0.61577 0.92206 0.0
C107 C 0.98311 0.60337 0.89 0.0
O108 O 0.96275 0.63713 0.94929 0.0
O109 O 1.00064 0.66431 0.93498 0.0
O110 O 0.9368 0.61137 0.84957 0.0
O111 O 0.96893 0.64382 0.86733 0.0
Co112 Co 0.3301 0.94561 0.23203 0.0
O113 O 0.29629 0.92572 0.23434 0.0
O114 O 0.32203 0.91661 0.25856 0.0
C115 C 0.33222 0.95494 0.17124 0.0
O116 O 0.36625 0.96156 0.23377 0.0
Co117 Co 0.35178 0.99928 0.21372 0.0
O118 O 0.38206 0.99899 0.21249 0.0
C119 C 0.33088 0.98139 0.28769 0.0
C120 C 0.30002 0.9107 0.2526 0.0
C121 C 0.38416 0.98165 0.22418 0.0
O122 O 0.3294 0.96139 0.28008 0.0
O123 O 0.33741 0.99813 0.26379 0.0
O124 O 0.3305 0.93494 0.18114 0.0
O125 O 0.33008 0.96717 0.1978 0.0
Co126 Co 0.38364 0.32924 0.56751 0.0
O127 O 0.3697 0.29539 0.56878 0.0
O128 O 0.40459 0.32087 0.59318 0.0
C129 C 0.37636 0.33214 0.50704 0.0
O130 O 0.40404 0.36536 0.57027 0.0
Co131 Co 0.35221 0.35183 0.55067 0.0
O132 O 0.38297 0.38176 0.54893 0.0
C133 C 0.34996 0.33129 0.6247 0.0
C134 C 0.38852 0.29895 0.58674 0.0
C135 C 0.40223 0.38349 0.56077 0.0
O136 O 0.36727 0.32802 0.61592 0.0
O137 O 0.34045 0.3393 0.60205 0.0
O138 O 0.39458 0.33017 0.51644 0.0
O139 O 0.36204 0.32979 0.5338 0.0
Co140 Co 0.05533 0.38389 0.90136 0.0
O141 O 0.07498 0.36965 0.90248 0.0
O142 O 0.08447 0.40431 0.92796 0.0
C143 C 0.04582 0.37754 0.84059 0.0
O144 O 0.0398 0.40448 0.90438 0.0
Co145 Co 1.00149 0.35288 0.88311 0.0
O146 O 0.0026 0.38377 0.88177 0.0
C147 C 0.01898 0.34964 0.95728 0.0
C148 C 0.09018 0.38816 0.92111 0.0
C149 C 0.02002 0.40287 0.89432 0.0
O150 O 0.03965 0.36697 0.94911 0.0
O151 O 1.00164 0.34047 0.93425 0.0
O152 O 0.06595 0.39551 0.85084 0.0
O153 O 0.03347 0.36285 0.86673 0.0
Co154 Co 0.67601 0.05379 0.23429 0.0
O155 O 0.70987 0.07337 0.23726 0.0
O156 O 0.68417 0.08262 0.26142 0.0
C157 C 0.67416 0.04498 0.17335 0.0
O158 O 0.63986 0.03835 0.23547 0.0
Co159 Co 0.65316 1.00019 0.2143 0.0
O160 O 0.62364 0.00172 0.21073 0.0
C161 C 0.67221 0.01655 0.28977 0.0
C162 C 0.70616 0.0884 0.25568 0.0
C163 C 0.62183 0.01895 0.22385 0.0
O164 O 0.67615 0.03747 0.28194 0.0
O165 O 0.66429 0.99949 0.26622 0.0
O166 O 0.67613 0.06501 0.18377 0.0
O167 O 0.67586 0.0323 0.19956 0.0
C168 C 0.33151 0.38259 0.19949 0.0
C169 C 0.33475 0.37018 0.1701 0.0
C170 C 0.3367 0.37949 0.23621 0.0
C171 C 0.37326 0.36417 0.2921 0.0
H172 H 0.32354 0.34264 0.36672 0.0
C173 C 0.38393 0.33364 0.43845 0.0
C174 C 0.37282 0.33787 0.46869 0.0
C175 C 0.37991 0.33843 0.40197 0.0
C176 C 0.33781 0.3491 0.34651 0.0
H177 H 0.34625 0.34511 0.15581 0.0
H178 H 0.35593 0.34023 0.21996 0.0
H179 H 0.31574 0.35035 0.30319 0.0
H180 H 0.34948 0.3511 0.4849 0.0
H181 H 0.34337 0.36056 0.42172 0.0
H182 H 0.39564 0.36369 0.3353 0.0
C183 C 0.34919 0.35215 0.21451 0.0
C184 C 0.33324 0.35336 0.31011 0.0
C185 C 0.34355 0.35487 0.17793 0.0
C186 C 0.35808 0.34744 0.46203 0.0
C187 C 0.35444 0.35269 0.42571 0.0
C188 C 0.37801 0.36036 0.32869 0.0
C189 C 0.34566 0.36432 0.2439 0.0
C190 C 0.35086 0.36075 0.28263 0.0
C191 C 0.36505 0.34797 0.39514 0.0
C192 C 0.36029 0.35261 0.35633 0.0
H193 H 0.32472 0.39448 0.19416 0.0
H194 H 0.33391 0.38906 0.25858 0.0
H195 H 0.38714 0.37003 0.27124 0.0
H196 H 0.3953 0.32614 0.4429 0.0
H197 H 0.38808 0.33417 0.37916 0.0
C198 C 0.95267 0.33339 0.53248 0.0
C199 C 0.968 0.33648 0.50274 0.0
C200 C 0.96135 0.33893 0.56897 0.0
C201 C 0.01343 0.34989 0.62654 0.0
H202 H 0.9859 0.3743 0.69768 0.0
C203 C 0.05302 0.38635 0.77251 0.0
C204 C 0.03715 0.3746 0.80193 0.0
C205 C 0.04488 0.38289 0.73567 0.0
C206 C 0.99368 0.36749 0.67798 0.0
H207 H 0.00446 0.34832 0.48747 0.0
H208 H 0.01983 0.35904 0.55062 0.0
H209 H 0.97135 0.36639 0.6334 0.0
H210 H 1.00035 0.35059 0.81628 0.0
H211 H 0.98606 0.3451 0.75183 0.0
H212 H 0.03621 0.35172 0.67118 0.0
C213 C 1.00096 0.35154 0.54625 0.0
C214 C 0.98528 0.36278 0.64128 0.0
C215 C 0.99219 0.34555 0.50994 0.0
C216 C 0.01296 0.35979 0.79408 0.0
C217 C 0.00476 0.35674 0.75735 0.0
C218 C 0.02211 0.35505 0.663 0.0
C219 C 0.98563 0.3481 0.57632 0.0
C220 C 0.99492 0.35373 0.61516 0.0
C221 C 0.0207 0.36806 0.72789 0.0
C222 C 0.01218 0.36369 0.689 0.0
H223 H 0.93389 0.3263 0.52764 0.0
H224 H 0.94893 0.33563 0.59143 0.0
H225 H 0.02096 0.34247 0.60755 0.0
H226 H 0.07176 0.39784 0.77787 0.0
H227 H 0.05742 0.39181 0.71324 0.0
C228 C 0.64516 0.98968 0.84276 0.0
C229 C 0.63027 0.96534 0.83644 0.0
C230 C 0.64901 0.99879 0.87896 0.0
C231 C 0.62544 0.98364 0.97593 0.0
H232 H 0.68785 0.03562 0.0014 0.0
C233 C 0.65968 0.01234 0.12656 0.0
C234 C 0.6686 0.03644 0.13459 0.0
C235 C 0.65414 0.0041 0.0899 0.0
C236 C 0.67032 0.02123 -0.00553 0.0
H237 H 0.60786 0.93134 0.86273 0.0
H238 H 0.61545 0.94701 0.92625 0.0
H239 H 0.68003 0.01987 0.93794 0.0
H240 H 0.67899 0.07089 0.11084 0.0
H241 H 0.66993 0.05648 0.04625 0.0
H242 H 0.61627 0.98448 0.03326 0.0
C243 C 0.62355 0.95926 0.90325 0.0
C244 C 0.66574 0.01225 0.95813 0.0
C245 C 0.61933 0.95022 0.86691 0.0
C246 C 0.67208 0.05222 0.10534 0.0
C247 C 0.66698 0.04403 0.06853 0.0
C248 C 0.63019 0.99234 0.01244 0.0
C249 C 0.63845 0.98368 0.90973 0.0
C250 C 0.64323 0.99334 0.94837 0.0
C251 C 0.65787 0.01991 0.06065 0.0
C252 C 0.65264 0.01119 0.0219 0.0
H253 H 0.65368 0.00178 0.81973 0.0
H254 H 0.66016 0.01774 0.88271 0.0
H255 H 0.60778 0.96941 0.96932 0.0
H256 H 0.65681 0.99979 0.14856 0.0
H257 H 0.64729 0.98544 0.0843 0.0
C258 C 0.66754 0.61901 0.1963 0.0
C259 C 0.66364 0.63046 0.16623 0.0
C260 C 0.66303 0.62318 0.23284 0.0
C261 C 0.62773 0.63974 0.28918 0.0
H262 H 0.67969 0.664 0.36009 0.0
C263 C 0.61989 0.67096 0.43693 0.0
C264 C 0.63189 0.66702 0.46611 0.0
C265 C 0.62331 0.66642 0.39995 0.0
C266 C 0.66484 0.65683 0.34092 0.0
H267 H 0.65142 0.65472 0.15043 0.0
H268 H 0.64289 0.66146 0.21444 0.0
H269 H 0.68591 0.65515 0.29631 0.0
H270 H 0.65632 0.65468 0.47988 0.0
H271 H 0.66141 0.64567 0.41588 0.0
H272 H 0.60633 0.64055 0.33384 0.0
C273 C 0.64968 0.64951 0.20963 0.0
C274 C 0.6685 0.65192 0.30438 0.0
C275 C 0.65466 0.64573 0.17315 0.0
C276 C 0.647 0.65808 0.45787 0.0
C277 C 0.65006 0.65311 0.42108 0.0
C278 C 0.6239 0.64421 0.32597 0.0
C279 C 0.65409 0.63846 0.2397 0.0
C280 C 0.65 0.64338 0.2783 0.0
C281 C 0.63848 0.65746 0.39157 0.0
C282 C 0.64243 0.65281 0.35232 0.0
H283 H 0.67449 0.60718 0.19166 0.0
H284 H 0.66645 0.61444 0.25576 0.0
H285 H 0.61321 0.63304 0.26939 0.0
H286 H 0.60822 0.67797 0.44261 0.0
H287 H 0.61437 0.67033 0.37795 0.0
C288 C 0.95074 0.62199 0.77175 0.0
C289 C 0.96597 0.63381 0.80183 0.0
C290 C 0.95954 0.62592 0.73527 0.0
C291 C 0.01203 0.64207 0.6808 0.0
H292 H 0.98492 0.66486 0.6064 0.0
C293 C 0.05357 0.67198 0.53435 0.0
C294 C 0.03814 0.66754 0.50419 0.0
C295 C 0.04492 0.66781 0.57096 0.0
C296 C 0.99245 0.65809 0.62657 0.0
H297 H 0.0023 0.65872 0.81761 0.0
H298 H 0.01773 0.665 0.75388 0.0
H299 H 0.96887 0.65663 0.66964 0.0
H300 H 1.00158 0.65472 0.48834 0.0
H301 H 0.98631 0.64633 0.55168 0.0
H302 H 0.03508 0.64266 0.63779 0.0
C303 C 0.99902 0.65293 0.7586 0.0
C304 C 0.9833 0.65353 0.66278 0.0
C305 C 0.99015 0.64939 0.79494 0.0
C306 C 0.01392 0.6585 0.5111 0.0
C307 C 0.0052 0.65388 0.54752 0.0
C308 C 0.0209 0.64618 0.64438 0.0
C309 C 0.98375 0.64132 0.72853 0.0
C310 C 0.99309 0.64558 0.69013 0.0
C311 C 0.0206 0.65869 0.57798 0.0
C312 C 0.01125 0.6543 0.61681 0.0
H313 H 0.93201 0.60993 0.77636 0.0
H314 H 0.94751 0.61678 0.71234 0.0
H315 H 0.01971 0.63581 0.70158 0.0
H316 H 0.07237 0.67909 0.52972 0.0
H317 H 0.05738 0.67209 0.5937 0.0
C318 C 0.34616 0.98773 0.12503 0.0
C319 C 0.33706 0.96359 0.13249 0.0
C320 C 0.35036 0.99603 0.08835 0.0
C321 C 0.35627 0.97916 -0.00883 0.0
H322 H 0.34557 0.03105 0.96638 0.0
C323 C 0.3527 0.01023 0.84049 0.0
C324 C 0.3683 0.03447 0.83411 0.0
C325 C 0.34905 0.00108 0.87669 0.0
C326 C 0.34869 0.01661 0.97306 0.0
H327 H 0.32516 0.92908 0.10775 0.0
H328 H 0.33144 0.94332 0.04339 0.0
H329 H 0.33829 0.01553 0.02988 0.0
H330 H 0.39213 0.06819 0.86031 0.0
H331 H 0.38512 0.05222 0.92389 0.0
H332 H 0.36581 0.97988 0.93356 0.0
C333 C 0.33606 0.95605 0.06584 0.0
C334 C 0.3447 0.00779 0.00945 0.0
C335 C 0.33231 0.94783 0.10267 0.0
C336 C 0.38004 0.04943 0.8645 0.0
C337 C 0.37601 0.04036 0.90077 0.0
C338 C 0.35982 0.98771 0.95456 0.0
C339 C 0.34506 0.98027 0.05821 0.0
C340 C 0.34869 0.98912 0.01911 0.0
C341 C 0.36056 0.01612 0.90707 0.0
C342 C 0.35626 0.00663 0.9454 0.0
H343 H 0.35022 1.00032 0.14755 0.0
H344 H 0.35789 0.01486 0.08373 0.0
H345 H 0.35988 0.96503 -0.00237 0.0
H346 H 0.34348 0.9983 0.81752 0.0
H347 H 0.33697 0.98234 0.88106 0.0
C348 C 0.13174 0.41216 0.9458 0.0
C349 C 0.11276 0.39034 0.93387 0.0
C350 C 0.15328 0.41395 0.95655 0.0
C351 C 0.1867 0.38134 0.94888 0.0
H352 H 0.22292 0.42102 0.03228 0.0
C353 C 0.25542 0.36835 0.02997 0.0
C354 C 0.27802 0.38836 0.03436 0.0
C355 C 0.23671 0.37065 0.0158 0.0
C356 C 0.21306 0.41008 0.00869 0.0
H357 H 0.10113 0.35318 0.92498 0.0
H358 H 0.13803 0.35603 0.94489 0.0
H359 H 0.18711 0.42106 0.01162 0.0
H360 H 0.29876 0.42651 0.02792 0.0
H361 H 0.26561 0.4306 0.004 0.0
H362 H 0.21208 0.36958 0.94722 0.0
C363 C 0.13683 0.37202 0.94475 0.0
C364 C 0.19261 0.41013 -0.00327 0.0
C365 C 0.11553 0.37032 0.93359 0.0
C366 C 0.28151 0.4108 0.02468 0.0
C367 C 0.2626 0.41316 0.01119 0.0
C368 C 0.20685 0.38102 0.96122 0.0
C369 C 0.15613 0.39389 0.95594 0.0
C370 C 0.17892 0.39543 0.96706 0.0
C371 C 0.2401 0.39305 0.00638 0.0
C372 C 0.22002 0.39512 -0.00847 0.0
H373 H 0.1301 0.42791 0.94619 0.0
H374 H 0.16778 0.43113 0.96471 0.0
H375 H 0.17707 0.37032 0.92525 0.0
H376 H 0.25222 0.35083 0.03709 0.0
H377 H 0.21947 0.35492 0.01258 0.0
C378 C 0.87297 0.28133 0.35823 0.0
C379 C 0.89198 0.27813 0.36877 0.0
C380 C 0.8518 0.26214 0.34499 0.0
C381 C 0.82893 0.20569 0.29718 0.0
H382 H 0.76865 0.18625 0.34561 0.0
C383 C 0.74906 0.1138 0.27033 0.0
C384 C 0.72625 0.11097 0.26914 0.0
C385 C 0.76843 0.13522 0.28172 0.0
C386 C 0.78523 0.19164 0.33129 0.0
H387 H 0.90389 0.25251 0.37336 0.0
H388 H 0.86727 0.2193 0.34939 0.0
H389 H 0.80414 0.22253 0.3659 0.0
H390 H 0.70572 0.12828 0.27922 0.0
H391 H 0.73977 0.16615 0.29813 0.0
H392 H 0.81037 0.17532 0.26217 0.0
C393 C 0.86863 0.23653 0.3517 0.0
C394 C 0.80553 0.21238 0.34301 0.0
C395 C 0.88953 0.25551 0.36556 0.0
C396 C 0.72313 0.12997 0.27999 0.0
C397 C 0.74263 0.15162 0.29095 0.0
C398 C 0.80867 0.18524 0.28509 0.0
C399 C 0.84958 0.23964 0.34133 0.0
C400 C 0.82762 0.21925 0.32658 0.0
C401 C 0.76559 0.15457 0.29165 0.0
C402 C 0.78663 0.17757 0.30258 0.0
H403 H 0.87439 0.29858 0.36054 0.0
H404 H 0.83733 0.26493 0.33707 0.0
H405 H 0.84573 0.21083 0.28374 0.0
H406 H 0.752 0.09939 0.26259 0.0
H407 H 0.78565 0.13651 0.28292 0.0
C408 C 0.63146 0.88651 0.69879 0.0
C409 C 0.61102 0.88838 0.70333 0.0
C410 C 0.62982 0.86579 0.68465 0.0
C411 C 0.59199 0.80249 0.67726 0.0
H412 H 0.63243 0.80789 0.59379 0.0
C413 C 0.59278 0.72085 0.61285 0.0
C414 C 0.61486 0.7244 0.6008 0.0
C415 C 0.59034 0.74013 0.62413 0.0
C416 C 0.62123 0.80605 0.61743 0.0
H417 H 0.57279 0.86991 0.69721 0.0
H418 H 0.56989 0.83315 0.67328 0.0
H419 H 0.63177 0.84288 0.61607 0.0
H420 H 0.65182 0.75069 0.59228 0.0
H421 H 0.64785 0.78399 0.61312 0.0
H422 H 0.58221 0.76587 0.67983 0.0
C423 C 0.58714 0.84796 0.68037 0.0
C424 C 0.62074 0.82608 0.62994 0.0
C425 C 0.58883 0.86895 0.69388 0.0
C426 C 0.6345 0.74742 0.60099 0.0
C427 C 0.63215 0.76658 0.61268 0.0
C428 C 0.59273 0.78242 0.6651 0.0
C429 C 0.60768 0.84633 0.67534 0.0
C430 C 0.60639 0.82456 0.66027 0.0
C431 C 0.61 0.76329 0.62394 0.0
C432 C 0.6077 0.78405 0.63541 0.0
H433 H 0.64882 0.90121 0.70571 0.0
H434 H 0.64589 0.86488 0.68128 0.0
H435 H 0.58087 0.80095 0.70087 0.0
H436 H 0.57731 0.70327 0.61288 0.0
H437 H 0.57297 0.73692 0.63232 0.0
C438 C 0.71982 0.58978 0.02511 0.0
C439 C 0.72298 0.61174 0.03699 0.0
C440 C 0.7394 0.58757 0.0148 0.0
C441 C 0.8053 0.61904 0.02362 0.0
H442 H 0.80189 0.58018 0.93898 0.0
C443 C 0.88703 0.63267 0.94215 0.0
C444 C 0.88964 0.61272 0.93688 0.0
C445 C 0.866 0.63019 0.95656 0.0
C446 C 0.80296 0.59087 0.96294 0.0
H447 H 0.74896 0.64871 0.04639 0.0
H448 H 0.78276 0.64514 0.02733 0.0
H449 H 0.76615 0.58037 0.95972 0.0
H450 H 0.87221 0.57449 0.94201 0.0
H451 H 0.83491 0.57009 0.96637 0.0
H452 H 0.84234 0.63038 0.02557 0.0
C453 C 0.7654 0.62936 0.02711 0.0
C454 C 0.78252 0.59094 0.97493 0.0
C455 C 0.74595 0.63147 0.03778 0.0
C456 C 0.87067 0.59016 0.94592 0.0
C457 C 0.84937 0.58762 0.95968 0.0
C458 C 0.82572 0.61923 0.01128 0.0
C459 C 0.76248 0.60735 0.01586 0.0
C460 C 0.78355 0.60542 0.00498 0.0
C461 C 0.84698 0.60767 0.96538 0.0
C462 C 0.82481 0.60546 0.98048 0.0
H463 H 0.70229 0.57424 0.02433 0.0
H464 H 0.73648 0.57031 0.00656 0.0
H465 H 0.80669 0.62987 0.04753 0.0
H466 H 0.90137 0.65029 0.93555 0.0
H467 H 0.8645 0.64588 0.96046 0.0
C468 C 0.13286 0.7193 0.35931 0.0
C469 C 0.11376 0.72265 0.36867 0.0
C470 C 0.15404 0.73822 0.34558 0.0
C471 C 0.1771 0.79367 0.29474 0.0
H472 H 0.23716 0.81394 0.34445 0.0
C473 C 0.25702 0.88516 0.26626 0.0
C474 C 0.27989 0.8881 0.26592 0.0
C475 C 0.23762 0.86383 0.27778 0.0
C476 C 0.22065 0.80829 0.32977 0.0
H477 H 0.1017 0.74822 0.37061 0.0
H478 H 0.13837 0.78096 0.34577 0.0
H479 H 0.20154 0.7781 0.36561 0.0
H480 H 0.30047 0.87105 0.27763 0.0
H481 H 0.26634 0.83331 0.29686 0.0
H482 H 0.19587 0.82336 0.25853 0.0
C483 C 0.13705 0.76383 0.34939 0.0
C484 C 0.20027 0.78781 0.342 0.0
C485 C 0.11613 0.74512 0.36375 0.0
C486 C 0.28302 0.86928 0.27769 0.0
C487 C 0.26347 0.8477 0.28884 0.0
C488 C 0.19745 0.81385 0.28216 0.0
C489 C 0.15621 0.76058 0.34024 0.0
C490 C 0.17825 0.78067 0.32509 0.0
C491 C 0.24047 0.84467 0.28875 0.0
C492 C 0.21939 0.82182 0.3001 0.0
H493 H 0.13151 0.70216 0.36294 0.0
H494 H 0.16859 0.73531 0.33862 0.0
H495 H 0.16037 0.7883 0.2809 0.0
H496 H 0.25405 0.89943 0.2578 0.0
H497 H 0.22036 0.86249 0.27834 0.0
C498 C 0.41309 0.13171 0.69243 0.0
C499 C 0.39055 0.11275 0.70161 0.0
C500 C 0.41558 0.153 0.67876 0.0
C501 C 0.38382 0.17631 0.62709 0.0
H502 H 0.42244 0.23615 0.67809 0.0
C503 C 0.3714 0.25577 0.5987 0.0
C504 C 0.39112 0.27876 0.5993 0.0
C505 C 0.3735 0.23642 0.60992 0.0
C506 C 0.41192 0.2197 0.66304 0.0
H507 H 0.35298 0.10106 0.70336 0.0
H508 H 0.35731 0.13788 0.67862 0.0
H509 H 0.4228 0.20061 0.69932 0.0
H510 H 0.42858 0.29956 0.61223 0.0
H511 H 0.43249 0.26553 0.63092 0.0
H512 H 0.37307 0.19505 0.59049 0.0
C513 C 0.37303 0.13639 0.68235 0.0
C514 C 0.41211 0.19938 0.67531 0.0
C515 C 0.37059 0.11538 0.69666 0.0
C516 C 0.41305 0.28202 0.61156 0.0
C517 C 0.41525 0.26253 0.62242 0.0
C518 C 0.3839 0.1966 0.61447 0.0
C519 C 0.39551 0.15538 0.67328 0.0
C520 C 0.39761 0.17743 0.65795 0.0
C521 C 0.39549 0.23944 0.62153 0.0
C522 C 0.39744 0.21846 0.63287 0.0
H523 H 0.42877 0.13015 0.69608 0.0
H524 H 0.43309 0.16745 0.67189 0.0
H525 H 0.37273 0.15961 0.61295 0.0
H526 H 0.35418 0.2527 0.58982 0.0
H527 H 0.35773 0.21906 0.60982 0.0
C528 C 0.33646 0.34281 0.68172 0.0
C529 C 0.3414 0.32675 0.66344 0.0
C530 C 0.33001 0.33966 0.71933 0.0
C531 C 0.33216 0.30744 0.80398 0.0
H532 H 0.30004 0.33857 0.84614 0.0
C533 C 0.34315 0.33382 0.95821 0.0
C534 C 0.32646 0.33803 0.97602 0.0
C535 C 0.34056 0.32756 0.92052 0.0
C536 C 0.30855 0.32921 0.83516 0.0
H537 H 0.34235 0.29416 0.66896 0.0
H538 H 0.32939 0.28754 0.73401 0.0
H539 H 0.30141 0.33504 0.77927 0.0
H540 H 0.29328 0.33775 0.96964 0.0
H541 H 0.28763 0.32504 0.90451 0.0
H542 H 0.33783 0.3001 0.85986 0.0
C543 C 0.3316 0.30328 0.72016 0.0
C544 C 0.30983 0.32768 0.79641 0.0
C545 C 0.33885 0.30691 0.68279 0.0
C546 C 0.30652 0.33482 0.95617 0.0
C547 C 0.30345 0.32774 0.91875 0.0
C548 C 0.33013 0.3082 0.84272 0.0
C549 C 0.3276 0.31991 0.73926 0.0
C550 C 0.32261 0.31776 0.78023 0.0
C551 C 0.32076 0.3246 0.90004 0.0
C552 C 0.31924 0.32006 0.85895 0.0
H553 H 0.33855 0.35838 0.66735 0.0
H554 H 0.3278 0.35328 0.73289 0.0
H555 H 0.3422 0.29964 0.79299 0.0
H556 H 0.35879 0.33641 0.97301 0.0
H557 H 0.35466 0.32598 0.90731 0.0
C558 C 0.97265 0.30615 0.28868 0.0
C559 C 0.9898 0.32594 0.30836 0.0
C560 C 0.97633 0.30287 0.25118 0.0
C561 C 0.0222 0.32852 0.17462 0.0
H562 H 0.96634 0.30094 0.11176 0.0
C563 C 0.03176 0.33753 0.01482 0.0
C564 C 0.01471 0.34063 -0.00425 0.0
C565 C 0.02806 0.33006 0.05205 0.0
C566 C 0.98222 0.30905 0.12874 0.0
H567 H 0.02413 0.35777 0.30495 0.0
H568 H 0.02985 0.35328 0.23917 0.0
H569 H 0.9618 0.29968 0.17871 0.0
H570 H 0.98053 0.33844 -3e-05 0.0
H571 H 0.97478 0.32733 0.06537 0.0
H572 H 0.04264 0.34021 0.12472 0.0
C573 C 0.0141 0.33944 0.25255 0.0
C574 C 0.9796 0.30782 0.16752 0.0
C575 C 0.01076 0.34224 0.2903 0.0
C576 C 0.99382 0.33594 0.01414 0.0
C577 C 0.99047 0.32928 0.05166 0.0
C578 C 0.02483 0.33051 0.13586 0.0
C579 C 0.99685 0.3198 0.23224 0.0
C580 C 0.99957 0.31812 0.1911 0.0
C581 C 0.00761 0.32641 0.07136 0.0
C582 C 0.00487 0.32138 0.11232 0.0
H583 H 0.95644 0.29321 0.30235 0.0
H584 H 0.96289 0.28718 0.23707 0.0
H585 H 0.03808 0.33589 0.19158 0.0
H586 H 0.04791 0.34083 0.00088 0.0
H587 H 0.04142 0.32746 0.06567 0.0
C588 C 0.66376 0.00614 0.62272 0.0
C589 C 0.65857 0.9851 0.64102 0.0
C590 C 0.67018 0.0093 0.5851 0.0
C591 C 0.66771 0.9747 0.50046 0.0
H592 H 0.70141 0.03794 0.45867 0.0
C593 C 0.65857 0.99086 0.34595 0.0
C594 C 0.67579 0.01159 0.32846 0.0
C595 C 0.66072 0.98698 0.3837 0.0
C596 C 0.69246 0.02006 0.46957 0.0
H597 H 0.65711 0.95131 0.63547 0.0
H598 H 0.66997 0.95736 0.57041 0.0
H599 H 0.69936 0.03294 0.52555 0.0
H600 H 0.70941 0.0439 0.3354 0.0
H601 H 0.71425 0.03642 0.40067 0.0
H602 H 0.66222 0.96174 0.44452 0.0
C603 C 0.66799 0.97105 0.58426 0.0
C604 C 0.69079 0.0172 0.50829 0.0
C605 C 0.66079 0.96759 0.62163 0.0
C606 C 0.69579 0.0279 0.34865 0.0
C607 C 0.69839 0.02364 0.38613 0.0
C608 C 0.67011 0.97751 0.46175 0.0
C609 C 0.67232 0.99177 0.56519 0.0
C610 C 0.67749 0.99455 0.5243 0.0
C611 C 0.68056 0.00342 0.40453 0.0
C612 C 0.6816 1.00027 0.44566 0.0
H613 H 0.66194 0.0198 0.63713 0.0
H614 H 0.67265 0.02521 0.57151 0.0
H615 H 0.65726 0.9569 0.51133 0.0
H616 H 0.64288 0.97816 0.33087 0.0
H617 H 0.64625 0.9715 0.39666 0.0
C618 C 0.67016 0.69632 0.67848 0.0
C619 C 0.6658 0.67581 0.65917 0.0
C620 C 0.67759 0.69956 0.71573 0.0
C621 C 0.69547 0.67188 0.79237 0.0
H622 H 0.67083 0.7031 0.85508 0.0
C623 C 0.69558 0.6633 0.95236 0.0
C624 C 0.67595 0.66161 0.97133 0.0
C625 C 0.69974 0.67056 0.91503 0.0
C626 C 0.67757 0.69399 0.83814 0.0
H627 H 0.66577 0.64266 0.66283 0.0
H628 H 0.67674 0.64713 0.7283 0.0
H629 H 0.66758 0.70437 0.78816 0.0
H630 H 0.64528 0.66609 0.96678 0.0
H631 H 0.65128 0.67692 0.90128 0.0
H632 H 0.70304 0.65927 0.8424 0.0
C633 C 0.67583 0.66151 0.7148 0.0
C634 C 0.67622 0.6952 0.79936 0.0
C635 C 0.66925 0.65872 0.67725 0.0
C636 C 0.66068 0.66749 0.95271 0.0
C637 C 0.66435 0.67397 0.91514 0.0
C638 C 0.69604 0.66995 0.83116 0.0
C639 C 0.67988 0.68187 0.7348 0.0
C640 C 0.68453 0.68358 0.77585 0.0
C641 C 0.68386 0.67547 0.89558 0.0
C642 C 0.68645 0.6804 0.85462 0.0
H643 H 0.66785 0.70985 0.66474 0.0
H644 H 0.68116 0.71579 0.72956 0.0
H645 H 0.70293 0.66344 0.77545 0.0
H646 H 0.70774 0.65908 0.96644 0.0
H647 H 0.71528 0.67204 0.90146 0.0
C648 C 0.03172 0.69345 0.29002 0.0
C649 C 0.01538 0.67312 0.30945 0.0
C650 C 0.02752 0.69667 0.25278 0.0
C651 C 0.98115 0.67001 0.17723 0.0
H652 H 0.03626 0.7011 0.11305 0.0
C653 C 0.97022 0.66424 0.01747 0.0
C654 C 0.98761 0.66243 -0.00299 0.0
C655 C 0.97398 0.67083 0.05512 0.0
C656 C 0.02061 0.69203 0.1304 0.0
H657 H 0.98207 0.64015 0.30592 0.0
H658 H 0.97556 0.64459 0.24042 0.0
H659 H 0.0416 0.70141 0.17976 0.0
H660 H 0.02244 0.66598 -0.0008 0.0
H661 H 0.0284 0.67563 0.06517 0.0
H662 H 0.96028 0.65841 0.12773 0.0
C663 C 0.99098 0.65885 0.25387 0.0
C664 C 0.02366 0.69268 0.16906 0.0
C665 C 0.99479 0.65608 0.29139 0.0
C666 C 0.00888 0.66751 0.01445 0.0
C667 C 0.01234 0.67331 0.05231 0.0
C668 C 0.97814 0.66863 0.13853 0.0
C669 C 0.00733 0.67916 0.23387 0.0
C670 C 0.00399 0.68114 0.19305 0.0
C671 C 0.99488 0.67491 0.07335 0.0
C672 C 0.99787 0.67909 0.11449 0.0
H673 H 0.04761 0.70694 0.30374 0.0
H674 H 0.04026 0.71283 0.23889 0.0
H675 H 0.96545 0.66164 0.19461 0.0
H676 H 0.95375 0.66063 0.00431 0.0
H677 H 0.96035 0.67245 0.06987 0.0
C678 C 0.317 0.96746 0.35303 0.0
C679 C 0.32605 0.98579 0.32642 0.0
C680 C 0.31449 0.97215 0.39034 0.0
C681 C 0.34194 0.02022 0.45726 0.0
H682 H 0.28984 0.97845 0.52192 0.0
C683 C 0.34699 0.03741 0.61483 0.0
C684 C 0.33989 0.01746 0.63771 0.0
C685 C 0.34125 0.0347 0.57689 0.0
C686 C 0.30457 0.99023 0.50425 0.0
H687 H 0.33841 0.02321 0.31787 0.0
H688 H 0.33415 0.03132 0.38303 0.0
H689 H 0.28686 0.97118 0.45453 0.0
H690 H 0.32044 0.97902 0.63911 0.0
H691 H 0.31113 0.97426 0.57273 0.0
H692 H 0.36022 0.03861 0.50663 0.0
C693 C 0.32917 0.01339 0.37496 0.0
C694 C 0.3028 0.98609 0.46572 0.0
C695 C 0.33154 0.00869 0.33764 0.0
C696 C 0.32615 0.99475 0.6222 0.0
C697 C 0.32067 0.99203 0.58414 0.0
C698 C 0.3438 0.02422 0.4957 0.0
C699 C 0.3211 0.99528 0.40178 0.0
C700 C 0.32163 1.00086 0.44197 0.0
C701 C 0.32857 0.01198 0.56088 0.0
C702 C 0.32531 0.00906 0.51976 0.0
H703 H 0.31242 0.94958 0.3453 0.0
H704 H 0.30839 0.95789 0.41052 0.0
H705 H 0.35688 0.03167 0.43967 0.0
H706 H 0.35728 0.05517 0.62611 0.0
H707 H 0.34716 0.05044 0.55995 0.0
C708 C 0.42562 0.41738 0.08213 0.0
C709 C 0.40557 0.42003 0.07786 0.0
C710 C 0.44844 0.43693 0.07952 0.0
C711 C 0.48184 0.50121 0.09099 0.0
H712 H 0.53034 0.49742 0.03337 0.0
C713 C 0.5741 0.58286 0.07056 0.0
C714 C 0.59397 0.57974 0.07144 0.0
C715 C 0.55121 0.56338 0.06935 0.0
C716 C 0.51711 0.49869 0.04999 0.0
H717 H 0.39391 0.44542 0.0675 0.0
H718 H 0.43396 0.47971 0.06339 0.0
H719 H 0.49008 0.46357 0.03496 0.0
H720 H 0.60532 0.55363 0.07127 0.0
H721 H 0.56519 0.51942 0.07022 0.0
H722 H 0.50879 0.53597 0.10693 0.0
C723 C 0.43185 0.4624 0.06872 0.0
C724 C 0.49403 0.47933 0.05074 0.0
C725 C 0.40894 0.44275 0.07092 0.0
C726 C 0.59038 0.55661 0.07049 0.0
C727 C 0.56737 0.53702 0.06972 0.0
C728 C 0.50495 0.52046 0.09055 0.0
C729 C 0.45182 0.45965 0.07294 0.0
C730 C 0.47616 0.4804 0.07124 0.0
C731 C 0.54747 0.54018 0.06947 0.0
C732 C 0.5229 0.5195 0.06998 0.0
H733 H 0.42374 0.40015 0.08738 0.0
H734 H 0.46349 0.43431 0.0833 0.0
H735 H 0.46852 0.5024 0.10751 0.0
H736 H 0.57621 0.60044 0.07071 0.0
H737 H 0.53641 0.56656 0.06821 0.0
C738 C 0.99576 0.57508 0.4183 0.0
C739 C 0.01843 0.59513 0.414 0.0
C740 C 0.99254 0.55227 0.41586 0.0
C741 C 0.02329 0.51879 0.42765 0.0
H742 H 0.97108 0.47042 0.36982 0.0
C743 C 0.01178 0.42598 0.40861 0.0
C744 C 0.9887 0.4063 0.40916 0.0
C745 C 0.01548 0.44898 0.40714 0.0
C746 C 0.98556 0.4836 0.3865 0.0
H747 H 0.05552 0.60682 0.40384 0.0
H748 H 0.04986 0.56677 0.40006 0.0
H749 H 0.97774 0.51076 0.37111 0.0
H750 H 0.95134 0.39539 0.40822 0.0
H751 H 0.95775 0.43569 0.40679 0.0
H752 H 0.03081 0.49169 0.444 0.0
C753 C 0.03462 0.56887 0.40526 0.0
C754 C 0.98943 0.50674 0.38707 0.0
C755 C 0.03784 0.59178 0.40729 0.0
C756 C 0.96934 0.41018 0.4077 0.0
C757 C 0.97305 0.43329 0.40669 0.0
C758 C 0.01929 0.49561 0.42741 0.0
C759 C 0.01191 0.5489 0.40941 0.0
C760 C 0.00832 0.52456 0.40769 0.0
C761 C 0.9962 0.45301 0.40668 0.0
C762 C 1.00037 0.47769 0.40682 0.0
H763 H 0.98036 0.57692 0.42338 0.0
H764 H 0.97488 0.53723 0.41961 0.0
H765 H 0.03777 0.53207 0.44423 0.0
H766 H 0.02713 0.42364 0.40914 0.0
H767 H 0.03354 0.46361 0.4062 0.0
C768 C 0.57996 0.00602 0.74879 0.0
C769 C 0.57738 0.9833 0.74548 0.0
C770 C 0.56029 0.00911 0.74675 0.0
C771 C 0.49629 0.97864 0.76138 0.0
H772 H 0.49929 0.02972 0.70156 0.0
C773 C 0.41501 0.99063 0.74332 0.0
C774 C 0.41868 0.01382 0.74261 0.0
C775 C 0.43416 0.98664 0.74214 0.0
C776 C 0.49825 0.01558 0.71881 0.0
H777 H 0.55193 0.946 0.73752 0.0
H778 H 0.51736 0.95146 0.7344 0.0
H779 H 0.53285 0.02287 0.70208 0.0
H780 H 0.44545 0.05103 0.74011 0.0
H781 H 0.479 0.04411 0.73911 0.0
H782 H 0.46202 0.97166 0.77898 0.0
C783 C 0.53476 0.96683 0.73852 0.0
C784 C 0.51744 0.01159 0.71893 0.0
C785 C 0.55455 0.96372 0.74015 0.0
C786 C 0.44201 0.03295 0.74052 0.0
C787 C 0.46123 0.02895 0.73975 0.0
C788 C 0.47718 0.98276 0.76155 0.0
C789 C 0.53748 0.98959 0.74168 0.0
C790 C 0.51668 0.99312 0.7403 0.0
C791 C 0.45754 0.00572 0.74065 0.0
C792 C 0.47791 0.00132 0.74031 0.0
H793 H 0.59725 0.02154 0.75282 0.0
H794 H 0.56291 0.02682 0.74973 0.0
H795 H 0.49535 0.96449 0.77852 0.0
H796 H 0.39727 0.97543 0.74447 0.0
H797 H 0.43055 0.96851 0.74206 0.0
C798 C 0.55977 0.59286 0.56763 0.0
C799 C 0.58242 0.59618 0.55998 0.0
C800 C 0.54012 0.56997 0.57013 0.0
C801 C 0.52316 0.50766 0.58705 0.0
H802 H 0.46638 0.49319 0.5316 0.0
C803 C 0.44627 0.41136 0.56502 0.0
C804 C 0.42308 0.40762 0.56416 0.0
C805 C 0.46576 0.43442 0.56647 0.0
C806 C 0.48192 0.49694 0.5478 0.0
H807 H 0.60216 0.57793 0.54965 0.0
H808 H 0.568 0.53825 0.55421 0.0
H809 H 0.49986 0.53349 0.53168 0.0
H810 H 0.40214 0.42511 0.56586 0.0
H811 H 0.43583 0.46496 0.56956 0.0
H812 H 0.50522 0.4712 0.60353 0.0
C813 C 0.56544 0.55331 0.55832 0.0
C814 C 0.50112 0.52008 0.54774 0.0
C815 C 0.58499 0.5761 0.55543 0.0
C816 C 0.41978 0.42735 0.56586 0.0
C817 C 0.43916 0.45028 0.56778 0.0
C818 C 0.50386 0.48453 0.58743 0.0
C819 C 0.54279 0.54997 0.56551 0.0
C820 C 0.522 0.52565 0.56716 0.0
C821 C 0.46243 0.4542 0.56754 0.0
C822 C 0.483 0.47884 0.56766 0.0
H823 H 0.55717 0.60791 0.57131 0.0
H824 H 0.52285 0.56789 0.57592 0.0
H825 H 0.53898 0.51151 0.60258 0.0
H826 H 0.44939 0.39652 0.56364 0.0
H827 H 0.48342 0.43674 0.56584 0.0
C828 C 0.00928 0.58541 0.88767 0.0
C829 C 0.9865 0.58251 0.89218 0.0
C830 C 0.01282 0.56601 0.89002 0.0
C831 C 0.9825 0.50172 0.87854 0.0
H832 H 0.03515 0.50609 0.93576 0.0
C833 C 0.9938 0.42054 0.89886 0.0
C834 C 0.01681 0.42376 0.89765 0.0
C835 C 0.99027 0.43995 0.90027 0.0
C836 C 0.02055 0.50466 0.91925 0.0
H837 H 0.94955 0.55679 0.90261 0.0
H838 H 0.95576 0.52277 0.90628 0.0
H839 H 0.02836 0.53971 0.9342 0.0
H840 H 0.05423 0.44998 0.89757 0.0
H841 H 0.04811 0.48409 0.89894 0.0
H842 H 0.97495 0.46702 0.86269 0.0
C843 C 0.97084 0.54017 0.90096 0.0
C844 C 0.01661 0.52389 0.91851 0.0
C845 C 0.96731 0.55966 0.899 0.0
C846 C 0.03629 0.44692 0.89859 0.0
C847 C 0.03275 0.46645 0.89953 0.0
C848 C 0.98656 0.4826 0.87897 0.0
C849 C 0.99366 0.54319 0.89659 0.0
C850 C 0.99752 0.5226 0.89817 0.0
C851 C 0.00965 0.46318 0.89998 0.0
C852 C 0.00559 0.48376 0.89943 0.0
H853 H 0.02452 0.60273 0.88249 0.0
H854 H 0.03055 0.56884 0.8861 0.0
H855 H 0.96789 0.50036 0.86214 0.0
H856 H 0.97837 0.40292 0.89877 0.0
H857 H 0.97227 0.43667 0.90162 0.0
C858 C 0.57767 0.99325 0.22186 0.0
C859 C 0.59771 0.0159 0.2265 0.0
C860 C 0.55484 0.98999 0.22416 0.0
C861 C 0.5214 0.02075 0.21211 0.0
H862 H 0.47248 0.96791 0.2681 0.0
C863 C 0.42803 0.00843 0.22845 0.0
C864 C 0.40846 0.98529 0.2273 0.0
C865 C 0.45109 0.01228 0.23048 0.0
C866 C 0.48583 0.98257 0.25192 0.0
H867 H 0.60933 0.0529 0.23726 0.0
H868 H 0.56922 0.04718 0.24081 0.0
H869 H 0.51292 0.97479 0.26796 0.0
H870 H 0.39781 0.94801 0.22769 0.0
H871 H 0.43821 0.9547 0.23008 0.0
H872 H 0.49438 0.02821 0.19507 0.0
C873 C 0.57137 0.03199 0.23544 0.0
C874 C 0.50902 0.98657 0.25203 0.0
C875 C 0.59431 0.03524 0.23356 0.0
C876 C 0.4125 0.96604 0.22866 0.0
C877 C 0.43568 0.96991 0.23023 0.0
C878 C 0.49818 0.01662 0.21167 0.0
C879 C 0.55142 0.0093 0.23082 0.0
C880 C 0.52704 0.00567 0.23206 0.0
C881 C 0.45529 0.99312 0.23092 0.0
C882 C 0.48005 0.99746 0.23156 0.0
H883 H 0.57955 0.9779 0.21651 0.0
H884 H 0.53984 0.97236 0.22004 0.0
H885 H 0.53484 0.03539 0.196 0.0
H886 H 0.42557 0.02369 0.228 0.0
H887 H 0.46563 0.03038 0.23191 0.0
loop_
_geom_bond_atom_site_label_1
_geom_bond_atom_site_label_2
_geom_bond_distance
_geom_bond_site_symmetry_2
_ccdc_geom_bond_type
Co0 O1 2.216 . S
Co0 O2 2.091 . S
Co0 O4 2.004 . S
Co0 O10 2.021 . S
Co0 O12 2.137 . S
Co0 O13 2.244 . S
O1 Co0 2.216 . S
O1 C8 1.247 . S
O2 Co0 2.091 . S
O2 C8 1.261 . S
C3 O12 1.247 . S
C3 O13 1.272 . S
O4 Co0 2.004 . S
O4 C9 1.259 . S
Co5 O6 2.061 . S
Co5 O11 2.052 . S
Co5 O13 2.135 . S
O6 Co5 2.061 . S
O6 C9 1.235 . S
C7 O10 1.238 . S
C7 O11 1.241 . S
C8 O1 1.247 . S
C8 O2 1.261 . S
C9 O4 1.259 . S
C9 O6 1.235 . S
O10 Co0 2.021 . S
O10 C7 1.238 . S
O11 Co5 2.052 . S
O11 C7 1.241 . S
O12 Co0 2.137 . S
O12 C3 1.247 . S
O13 Co0 2.244 . S
O13 C3 1.272 . S
O13 Co5 2.135 . S
Co14 O15 2.216 . S
Co14 O16 2.091 . S
Co14 O18 2.004 . S
Co14 O24 2.021 . S
Co14 O26 2.137 . S
Co14 O27 2.244 . S
O15 Co14 2.216 . S
O15 C22 1.247 . S
O16 Co14 2.091 . S
O16 C22 1.261 . S
C17 O26 1.247 . S
C17 O27 1.272 . S
O18 Co14 2.004 . S
O18 C23 1.259 . S
Co19 O20 2.061 1_455 S
Co19 O25 2.052 . S
Co19 O27 2.135 1_455 S
O20 Co19 2.061 1_655 S
O20 C23 1.235 . S
C21 O24 1.238 . S
C21 O25 1.241 1_655 S
C22 O15 1.247 . S
C22 O16 1.261 . S
C23 O18 1.259 . S
C23 O20 1.235 . S
O24 Co14 2.021 . S
O24 C21 1.238 . S
O25 Co19 2.052 . S
O25 C21 1.241 1_455 S
O26 Co14 2.137 . S
O26 C17 1.247 . S
O27 Co14 2.244 . S
O27 C17 1.272 . S
O27 Co19 2.135 1_655 S
Co28 O29 2.216 . S
Co28 O30 2.091 . S
Co28 O32 2.004 . S
Co28 O38 2.021 . S
Co28 O40 2.137 . S
Co28 O41 2.244 . S
O29 Co28 2.216 . S
O29 C36 1.247 . S
O30 Co28 2.091 . S
O30 C36 1.261 . S
C31 O40 1.247 . S
C31 O41 1.272 . S
O32 Co28 2.004 . S
O32 C37 1.259 . S
Co33 O34 2.061 1_545 S
Co33 O39 2.052 . S
Co33 O41 2.135 1_545 S
O34 Co33 2.061 1_565 S
O34 C37 1.235 . S
C35 O38 1.238 . S
C35 O39 1.241 1_565 S
C36 O29 1.247 . S
C36 O30 1.261 . S
C37 O32 1.259 . S
C37 O34 1.235 . S
O38 Co28 2.021 . S
O38 C35 1.238 . S
O39 Co33 2.052 . S
O39 C35 1.241 1_545 S
O40 Co28 2.137 . S
O40 C31 1.247 . S
O41 Co28 2.244 . S
O41 C31 1.272 . S
O41 Co33 2.135 1_565 S
Co42 O43 2.216 . S
Co42 O44 2.091 . S
Co42 O46 2.004 . S
Co42 O52 2.021 . S
Co42 O54 2.137 . S
Co42 O55 2.244 . S
O43 Co42 2.216 . S
O43 C50 1.247 . S
O44 Co42 2.091 . S
O44 C50 1.261 . S
C45 O54 1.247 . S
C45 O55 1.272 . S
O46 Co42 2.004 . S
O46 C51 1.259 . S
Co47 O48 2.061 . S
Co47 O53 2.052 . S
Co47 O55 2.135 . S
O48 Co47 2.061 . S
O48 C51 1.235 . S
C49 O52 1.238 . S
C49 O53 1.241 . S
C50 O43 1.247 . S
C50 O44 1.261 . S
C51 O46 1.259 . S
C51 O48 1.235 . S
O52 Co42 2.021 . S
O52 C49 1.238 . S
O53 Co47 2.052 . S
O53 C49 1.241 . S
O54 Co42 2.137 . S
O54 C45 1.247 . S
O55 Co42 2.244 . S
O55 C45 1.272 . S
O55 Co47 2.135 . S
Co56 O57 2.216 . S
Co56 O58 2.091 . S
Co56 O60 2.004 . S
Co56 O66 2.021 . S
Co56 O68 2.137 . S
Co56 O69 2.244 . S
O57 Co56 2.216 . S
O57 C64 1.247 . S
O58 Co56 2.091 . S
O58 C64 1.261 . S
C59 O68 1.247 . S
C59 O69 1.272 . S
O60 Co56 2.004 . S
O60 C65 1.259 . S
Co61 O62 2.061 1_655 S
Co61 O67 2.052 . S
Co61 O69 2.135 1_655 S
O62 Co61 2.061 1_455 S
O62 C65 1.235 . S
C63 O66 1.238 . S
C63 O67 1.241 1_455 S
C64 O57 1.247 . S
C64 O58 1.261 . S
C65 O60 1.259 . S
C65 O62 1.235 . S
O66 Co56 2.021 . S
O66 C63 1.238 . S
O67 Co61 2.052 . S
O67 C63 1.241 1_655 S
O68 Co56 2.137 . S
O68 C59 1.247 . S
O69 Co56 2.244 . S
O69 C59 1.272 . S
O69 Co61 2.135 1_455 S
Co70 O71 2.216 . S
Co70 O72 2.091 . S
Co70 O74 2.004 . S
Co70 O80 2.021 . S
Co70 O82 2.137 . S
Co70 O83 2.244 . S
O71 Co70 2.216 . S
O71 C78 1.247 . S
O72 Co70 2.091 . S
O72 C78 1.261 . S
C73 O82 1.247 . S
C73 O83 1.272 . S
O74 Co70 2.004 . S
O74 C79 1.259 . S
Co75 O76 2.061 1_565 S
Co75 O81 2.052 . S
Co75 O83 2.135 1_565 S
O76 Co75 2.061 1_545 S
O76 C79 1.235 . S
C77 O80 1.238 . S
C77 O81 1.241 1_545 S
C78 O71 1.247 . S
C78 O72 1.261 . S
C79 O74 1.259 . S
C79 O76 1.235 . S
O80 Co70 2.021 . S
O80 C77 1.238 . S
O81 Co75 2.052 . S
O81 C77 1.241 1_565 S
O82 Co70 2.137 . S
O82 C73 1.247 . S
O83 Co70 2.244 . S
O83 C73 1.272 . S
O83 Co75 2.135 1_545 S
Co84 O85 2.216 . S
Co84 O86 2.091 . S
Co84 O88 2.004 . S
Co84 O94 2.021 . S
Co84 O96 2.137 . S
Co84 O97 2.244 . S
O85 Co84 2.216 . S
O85 C92 1.247 . S
O86 Co84 2.091 . S
O86 C92 1.261 . S
C87 O96 1.247 . S
C87 O97 1.272 . S
O88 Co84 2.004 . S
O88 C93 1.259 . S
Co89 O90 2.061 . S
Co89 O95 2.052 . S
Co89 O97 2.135 . S
O90 Co89 2.061 . S
O90 C93 1.235 . S
C91 O94 1.238 . S
C91 O95 1.241 . S
C92 O85 1.247 . S
C92 O86 1.261 . S
C93 O88 1.259 . S
C93 O90 1.235 . S
O94 Co84 2.021 . S
O94 C91 1.238 . S
O95 Co89 2.052 . S
O95 C91 1.241 . S
O96 Co84 2.137 . S
O96 C87 1.247 . S
O97 Co84 2.244 . S
O97 C87 1.272 . S
O97 Co89 2.135 . S
Co98 O99 2.216 . S
Co98 O100 2.091 . S
Co98 O102 2.004 . S
Co98 O108 2.021 . S
Co98 O110 2.137 . S
Co98 O111 2.244 . S
O99 Co98 2.216 . S
O99 C106 1.247 . S
O100 Co98 2.091 . S
O100 C106 1.261 . S
C101 O110 1.247 . S
C101 O111 1.272 . S
O102 Co98 2.004 . S
O102 C107 1.259 . S
Co103 O104 2.061 1_455 S
Co103 O109 2.052 . S
Co103 O111 2.135 1_455 S
O104 Co103 2.061 1_655 S
O104 C107 1.235 . S
C105 O108 1.238 . S
C105 O109 1.241 1_655 S
C106 O99 1.247 . S
C106 O100 1.261 . S
C107 O102 1.259 . S
C107 O104 1.235 . S
O108 Co98 2.021 . S
O108 C105 1.238 . S
O109 Co103 2.052 . S
O109 C105 1.241 1_455 S
O110 Co98 2.137 . S
O110 C101 1.247 . S
O111 Co98 2.244 . S
O111 C101 1.272 . S
O111 Co103 2.135 1_655 S
Co112 O113 2.216 . S
Co112 O114 2.091 . S
Co112 O116 2.004 . S
Co112 O122 2.021 . S
Co112 O124 2.137 . S
Co112 O125 2.244 . S
O113 Co112 2.216 . S
O113 C120 1.247 . S
O114 Co112 2.091 . S
O114 C120 1.261 . S
C115 O124 1.247 . S
C115 O125 1.272 . S
O116 Co112 2.004 . S
O116 C121 1.259 . S
Co117 O118 2.061 1_545 S
Co117 O123 2.052 . S
Co117 O125 2.135 1_545 S
O118 Co117 2.061 1_565 S
O118 C121 1.235 . S
C119 O122 1.238 . S
C119 O123 1.241 1_565 S
C120 O113 1.247 . S
C120 O114 1.261 . S
C121 O116 1.259 . S
C121 O118 1.235 . S
O122 Co112 2.021 . S
O122 C119 1.238 . S
O123 Co117 2.052 . S
O123 C119 1.241 1_545 S
O124 Co112 2.137 . S
O124 C115 1.247 . S
O125 Co112 2.244 . S
O125 C115 1.272 . S
O125 Co117 2.135 1_565 S
Co126 O127 2.216 . S
Co126 O128 2.091 . S
Co126 O130 2.004 . S
Co126 O136 2.021 . S
Co126 O138 2.137 . S
Co126 O139 2.244 . S
O127 Co126 2.216 . S
O127 C134 1.247 . S
O128 Co126 2.091 . S
O128 C134 1.261 . S
C129 O138 1.247 . S
C129 O139 1.272 . S
O130 Co126 2.004 . S
O130 C135 1.259 . S
Co131 O132 2.061 . S
Co131 O137 2.052 . S
Co131 O139 2.135 . S
O132 Co131 2.061 . S
O132 C135 1.235 . S
C133 O136 1.238 . S
C133 O137 1.241 . S
C134 O127 1.247 . S
C134 O128 1.261 . S
C135 O130 1.259 . S
C135 O132 1.235 . S
O136 Co126 2.021 . S
O136 C133 1.238 . S
O137 Co131 2.052 . S
O137 C133 1.241 . S
O138 Co126 2.137 . S
O138 C129 1.247 . S
O139 Co126 2.244 . S
O139 C129 1.272 . S
O139 Co131 2.135 . S
Co140 O141 2.216 . S
Co140 O142 2.091 . S
Co140 O144 2.004 . S
Co140 O150 2.021 . S
Co140 O152 2.137 . S
Co140 O153 2.244 . S
O141 Co140 2.216 . S
O141 C148 1.247 . S
O142 Co140 2.091 . S
O142 C148 1.261 . S
C143 O152 1.247 . S
C143 O153 1.272 . S
O144 Co140 2.004 . S
O144 C149 1.259 . S
Co145 O146 2.061 1_655 S
Co145 O151 2.052 . S
Co145 O153 2.135 1_655 S
O146 Co145 2.061 1_455 S
O146 C149 1.235 . S
C147 O150 1.238 . S
C147 O151 1.241 1_455 S
C148 O141 1.247 . S
C148 O142 1.261 . S
C149 O144 1.259 . S
C149 O146 1.235 . S
O150 Co140 2.021 . S
O150 C147 1.238 . S
O151 Co145 2.052 . S
O151 C147 1.241 1_655 S
O152 Co140 2.137 . S
O152 C143 1.247 . S
O153 Co140 2.244 . S
O153 C143 1.272 . S
O153 Co145 2.135 1_455 S
Co154 O155 2.216 . S
Co154 O156 2.091 . S
Co154 O158 2.004 . S
Co154 O164 2.021 . S
Co154 O166 2.137 . S
Co154 O167 2.244 . S
O155 Co154 2.216 . S
O155 C162 1.247 . S
O156 Co154 2.091 . S
O156 C162 1.261 . S
C157 O166 1.247 . S
C157 O167 1.272 . S
O158 Co154 2.004 . S
O158 C163 1.259 . S
Co159 O160 2.061 1_565 S
Co159 O165 2.052 . S
Co159 O167 2.135 1_565 S
O160 Co159 2.061 1_545 S
O160 C163 1.235 . S
C161 O164 1.238 . S
C161 O165 1.241 1_545 S
C162 O155 1.247 . S
C162 O156 1.261 . S
C163 O158 1.259 . S
C163 O160 1.235 . S
O164 Co154 2.021 . S
O164 C161 1.238 . S
O165 Co159 2.052 . S
O165 C161 1.241 1_565 S
O166 Co154 2.137 . S
O166 C157 1.247 . S
O167 Co154 2.244 . S
O167 C157 1.272 . S
O167 Co159 2.135 1_545 S
C168 C169 1.349 . S
C168 C170 1.327 . S
C168 H193 0.950 . S
C169 C168 1.349 . S
C169 C185 1.349 . S
C170 C168 1.327 . S
C170 C189 1.429 . S
C170 H194 0.950 . S
C171 C188 1.574 . S
C171 C190 1.368 . S
C171 H195 0.949 . S
H172 C176 0.949 . S
C173 C174 1.349 . S
C173 C175 1.327 . S
C173 H196 0.950 . S
C174 C173 1.349 . S
C174 C186 1.349 . S
C175 C173 1.327 . S
C175 C191 1.429 . S
C175 H197 0.950 . S
C176 H172 0.949 . S
C176 C184 1.574 . S
C176 C192 1.368 . S
H177 C185 0.950 . S
H178 C183 0.950 . S
H179 C184 0.949 . S
H180 C186 0.950 . S
H181 C187 0.950 . S
H182 C188 0.949 . S
C183 H178 0.950 . S
C183 C185 1.327 . S
C183 C189 1.429 . S
C184 C176 1.574 . S
C184 H179 0.949 . S
C184 C190 1.368 . S
C185 C169 1.349 . S
C185 H177 0.950 . S
C185 C183 1.327 . S
C186 C174 1.349 . S
C186 H180 0.950 . S
C186 C187 1.327 . S
C187 H181 0.950 . S
C187 C186 1.327 . S
C187 C191 1.429 . S
C188 C171 1.574 . S
C188 H182 0.949 . S
C188 C192 1.368 . S
C189 C170 1.429 . S
C189 C183 1.429 . S
C189 C190 1.523 . S
C190 C171 1.368 . S
C190 C184 1.368 . S
C190 C189 1.523 . S
C191 C175 1.429 . S
C191 C187 1.429 . S
C191 C192 1.523 . S
C192 C176 1.368 . S
C192 C188 1.368 . S
C192 C191 1.523 . S
H193 C168 0.950 . S
H194 C170 0.950 . S
H195 C171 0.949 . S
H196 C173 0.950 . S
H197 C175 0.950 . S
C198 C199 1.349 . S
C198 C200 1.327 . S
C198 H223 0.950 . S
C199 C198 1.349 . S
C199 C215 1.349 . S
C200 C198 1.327 . S
C200 C219 1.429 . S
C200 H224 0.950 . S
C201 C218 1.581 . S
C201 C220 1.342 1_455 S
C201 H225 0.968 . S
H202 C206 0.968 . S
C203 C204 1.349 . S
C203 C205 1.327 . S
C203 H226 0.950 . S
C204 C203 1.349 . S
C204 C216 1.349 . S
C205 C203 1.327 . S
C205 C221 1.429 . S
C205 H227 0.950 . S
C206 H202 0.968 . S
C206 C214 1.581 . S
C206 C222 1.342 1_655 S
H207 C215 0.950 . S
H208 C213 0.950 . S
H209 C214 0.949 . S
H210 C216 0.950 . S
H211 C217 0.950 . S
H212 C218 0.949 . S
C213 H208 0.950 . S
C213 C215 1.327 . S
C213 C219 1.429 . S
C214 C206 1.581 . S
C214 H209 0.949 . S
C214 C220 1.368 . S
C215 C199 1.349 . S
C215 H207 0.950 . S
C215 C213 1.327 . S
C216 C204 1.349 . S
C216 H210 0.950 . S
C216 C217 1.327 . S
C217 H211 0.950 . S
C217 C216 1.327 . S
C217 C221 1.429 . S
C218 C201 1.581 . S
C218 H212 0.949 . S
C218 C222 1.368 . S
C219 C200 1.429 . S
C219 C213 1.429 . S
C219 C220 1.523 . S
C220 C201 1.342 1_655 S
C220 C214 1.368 . S
C220 C219 1.523 . S
C221 C205 1.429 . S
C221 C217 1.429 . S
C221 C222 1.523 . S
C222 C206 1.342 1_455 S
C222 C218 1.368 . S
C222 C221 1.523 . S
H223 C198 0.950 . S
H224 C200 0.950 . S
H225 C201 0.968 . S
H226 C203 0.950 . S
H227 C205 0.950 . S
C228 C229 1.365 . S
C228 C230 1.324 1_565 S
C228 H253 0.937 1_565 S
C229 C228 1.365 . S
C229 C245 1.349 . S
C230 C228 1.324 1_545 S
C230 C249 1.429 1_545 S
C230 H254 0.950 . S
C231 C248 1.574 1_556 S
C231 C250 1.368 . S
C231 H255 0.949 . S
H232 C236 0.949 . S
C233 C234 1.364 . S
C233 C235 1.324 1_545 S
C233 H256 0.937 1_545 S
C234 C233 1.364 . S
C234 C246 1.349 . S
C235 C233 1.324 1_565 S
C235 C251 1.429 1_565 S
C235 H257 0.950 . S
C236 H232 0.949 . S
C236 C244 1.574 1_554 S
C236 C252 1.368 . S
H237 C245 0.950 . S
H238 C243 0.950 . S
H239 C244 0.949 . S
H240 C246 0.950 . S
H241 C247 0.950 . S
H242 C248 0.949 . S
C243 H238 0.950 . S
C243 C245 1.327 . S
C243 C249 1.429 . S
C244 C236 1.574 1_556 S
C244 H239 0.949 . S
C244 C250 1.368 1_545 S
C245 C229 1.349 . S
C245 H237 0.950 . S
C245 C243 1.327 . S
C246 C234 1.349 . S
C246 H240 0.950 . S
C246 C247 1.327 . S
C247 H241 0.950 . S
C247 C246 1.327 . S
C247 C251 1.429 . S
C248 C231 1.574 1_554 S
C248 H242 0.949 . S
C248 C252 1.368 1_565 S
C249 C230 1.429 1_565 S
C249 C243 1.429 . S
C249 C250 1.523 . S
C250 C231 1.368 . S
C250 C244 1.368 1_565 S
C250 C249 1.523 . S
C251 C235 1.429 1_545 S
C251 C247 1.429 . S
C251 C252 1.523 . S
C252 C236 1.368 . S
C252 C248 1.368 1_545 S
C252 C251 1.523 . S
H253 C228 0.937 1_545 S
H254 C230 0.950 . S
H255 C231 0.949 . S
H256 C233 0.937 1_565 S
H257 C235 0.950 . S
C258 C259 1.349 . S
C258 C260 1.327 . S
C258 H283 0.950 . S
C259 C258 1.349 . S
C259 C275 1.349 . S
C260 C258 1.327 . S
C260 C279 1.429 . S
C260 H284 0.950 . S
C261 C278 1.574 . S
C261 C280 1.368 . S
C261 H285 0.949 . S
H262 C266 0.949 . S
C263 C264 1.349 . S
C263 C265 1.327 . S
C263 H286 0.950 . S
C264 C263 1.349 . S
C264 C276 1.349 . S
C265 C263 1.327 . S
C265 C281 1.429 . S
C265 H287 0.950 . S
C266 H262 0.949 . S
C266 C274 1.574 . S
C266 C282 1.368 . S
H267 C275 0.950 . S
H268 C273 0.950 . S
H269 C274 0.949 . S
H270 C276 0.950 . S
H271 C277 0.950 . S
H272 C278 0.949 . S
C273 H268 0.950 . S
C273 C275 1.327 . S
C273 C279 1.429 . S
C274 C266 1.574 . S
C274 H269 0.949 . S
C274 C280 1.368 . S
C275 C259 1.349 . S
C275 H267 0.950 . S
C275 C273 1.327 . S
C276 C264 1.349 . S
C276 H270 0.950 . S
C276 C277 1.327 . S
C277 H271 0.950 . S
C277 C276 1.327 . S
C277 C281 1.429 . S
C278 C261 1.574 . S
C278 H272 0.949 . S
C278 C282 1.368 . S
C279 C260 1.429 . S
C279 C273 1.429 . S
C279 C280 1.523 . S
C280 C261 1.368 . S
C280 C274 1.368 . S
C280 C279 1.523 . S
C281 C265 1.429 . S
C281 C277 1.429 . S
C281 C282 1.523 . S
C282 C266 1.368 . S
C282 C278 1.368 . S
C282 C281 1.523 . S
H283 C258 0.950 . S
H284 C260 0.950 . S
H285 C261 0.949 . S
H286 C263 0.950 . S
H287 C265 0.950 . S
C288 C289 1.349 . S
C288 C290 1.327 . S
C288 H313 0.950 . S
C289 C288 1.349 . S
C289 C305 1.349 1_655 S
C290 C288 1.327 . S
C290 C309 1.429 . S
C290 H314 0.950 . S
C291 C308 1.574 . S
C291 C310 1.368 1_455 S
C291 H315 0.949 . S
H292 C296 0.949 . S
C293 C294 1.349 . S
C293 C295 1.327 . S
C293 H316 0.950 . S
C294 C293 1.349 . S
C294 C306 1.349 1_455 S
C295 C293 1.327 . S
C295 C311 1.429 . S
C295 H317 0.950 . S
C296 H292 0.949 . S
C296 C304 1.574 . S
C296 C312 1.368 1_655 S
H297 C305 0.950 . S
H298 C303 0.950 . S
H299 C304 0.949 . S
H300 C306 0.950 . S
H301 C307 0.950 . S
H302 C308 0.949 . S
C303 H298 0.950 . S
C303 C305 1.327 . S
C303 C309 1.429 1_455 S
C304 C296 1.574 . S
C304 H299 0.949 . S
C304 C310 1.368 . S
C305 C289 1.349 1_455 S
C305 H297 0.950 . S
C305 C303 1.327 . S
C306 C294 1.349 1_655 S
C306 H300 0.950 . S
C306 C307 1.327 . S
C307 H301 0.950 . S
C307 C306 1.327 . S
C307 C311 1.429 1_655 S
C308 C291 1.574 . S
C308 H302 0.949 . S
C308 C312 1.368 . S
C309 C290 1.429 . S
C309 C303 1.429 1_655 S
C309 C310 1.523 . S
C310 C291 1.368 1_655 S
C310 C304 1.368 . S
C310 C309 1.523 . S
C311 C295 1.429 . S
C311 C307 1.429 1_455 S
C311 C312 1.523 . S
C312 C296 1.368 1_455 S
C312 C308 1.368 . S
C312 C311 1.523 . S
H313 C288 0.950 . S
H314 C290 0.950 . S
H315 C291 0.949 . S
H316 C293 0.950 . S
H317 C295 0.950 . S
C318 C319 1.349 1_545 S
C318 C320 1.327 . S
C318 H343 0.950 . S
C319 C318 1.349 1_565 S
C319 C335 1.349 . S
C320 C318 1.327 . S
C320 C339 1.429 1_545 S
C320 H344 0.950 . S
C321 C338 1.574 1_554 S
C321 C340 1.368 . S
C321 H345 0.949 . S
H322 C326 0.949 . S
C323 C324 1.349 1_565 S
C323 C325 1.327 . S
C323 H346 0.950 . S
C324 C323 1.349 1_545 S
C324 C336 1.349 . S
C325 C323 1.327 . S
C325 C341 1.429 1_565 S
C325 H347 0.950 . S
C326 H322 0.949 . S
C326 C334 1.574 1_556 S
C326 C342 1.368 . S
H327 C335 0.950 . S
H328 C333 0.950 . S
H329 C334 0.949 . S
H330 C336 0.950 . S
H331 C337 0.950 . S
H332 C338 0.949 . S
C333 H328 0.950 . S
C333 C335 1.327 . S
C333 C339 1.429 . S
C334 C326 1.574 1_554 S
C334 H329 0.949 . S
C334 C340 1.368 1_545 S
C335 C319 1.349 . S
C335 H327 0.950 . S
C335 C333 1.327 . S
C336 C324 1.349 . S
C336 H330 0.950 . S
C336 C337 1.327 . S
C337 H331 0.950 . S
C337 C336 1.327 . S
C337 C341 1.429 . S
C338 C321 1.574 1_556 S
C338 H332 0.949 . S
C338 C342 1.368 1_565 S
C339 C320 1.429 1_565 S
C339 C333 1.429 . S
C339 C340 1.523 . S
C340 C321 1.368 . S
C340 C334 1.368 1_565 S
C340 C339 1.523 . S
C341 C325 1.429 1_545 S
C341 C337 1.429 . S
C341 C342 1.523 . S
C342 C326 1.368 . S
C342 C338 1.368 1_545 S
C342 C341 1.523 . S
H343 C318 0.950 . S
H344 C320 0.950 . S
H345 C321 0.949 . S
H346 C323 0.950 . S
H347 C325 0.950 . S
C348 C349 1.349 . S
C348 C350 1.327 . S
C348 H373 0.950 . S
C349 C348 1.349 . S
C349 C365 1.349 . S
C350 C348 1.327 . S
C350 C369 1.429 . S
C350 H374 0.950 1_556 S
C351 C368 1.574 . S
C351 C370 1.368 . S
C351 H375 0.949 . S
H352 C356 0.949 . S
C353 C354 1.349 . S
C353 C355 1.327 . S
C353 H376 0.950 . S
C354 C353 1.349 . S
C354 C366 1.349 . S
C355 C353 1.327 . S
C355 C371 1.429 . S
C355 H377 0.950 1_554 S
C356 H352 0.949 . S
C356 C364 1.574 . S
C356 C372 1.368 . S
H357 C365 0.950 . S
H358 C363 0.950 . S
H359 C364 0.949 . S
H360 C366 0.950 . S
H361 C367 0.950 . S
H362 C368 0.949 . S
C363 H358 0.950 . S
C363 C365 1.327 . S
C363 C369 1.429 . S
C364 C356 1.574 . S
C364 H359 0.949 . S
C364 C370 1.368 1_554 S
C365 C349 1.349 . S
C365 H357 0.950 . S
C365 C363 1.327 . S
C366 C354 1.349 . S
C366 H360 0.950 . S
C366 C367 1.327 . S
C367 H361 0.950 . S
C367 C366 1.327 . S
C367 C371 1.429 . S
C368 C351 1.574 . S
C368 H362 0.949 . S
C368 C372 1.368 1_556 S
C369 C350 1.429 . S
C369 C363 1.429 . S
C369 C370 1.523 . S
C370 C351 1.368 . S
C370 C364 1.368 1_556 S
C370 C369 1.523 . S
C371 C355 1.429 . S
C371 C367 1.429 . S
C371 C372 1.523 . S
C372 C356 1.368 . S
C372 C368 1.368 1_554 S
C372 C371 1.523 . S
H373 C348 0.950 . S
H374 C350 0.950 1_554 S
H375 C351 0.949 . S
H376 C353 0.950 . S
H377 C355 0.950 1_556 S
C378 C379 1.349 . S
C378 C380 1.327 . S
C378 H403 0.950 . S
C379 C378 1.349 . S
C379 C395 1.349 . S
C380 C378 1.327 . S
C380 C399 1.429 . S
C380 H404 0.950 . S
C381 C398 1.574 . S
C381 C400 1.368 . S
C381 H405 0.949 . S
H382 C386 0.949 . S
C383 C384 1.349 . S
C383 C385 1.327 . S
C383 H406 0.950 . S
C384 C383 1.349 . S
C384 C396 1.349 . S
C385 C383 1.327 . S
C385 C401 1.429 . S
C385 H407 0.950 . S
C386 H382 0.949 . S
C386 C394 1.574 . S
C386 C402 1.368 . S
H387 C395 0.950 . S
H388 C393 0.950 . S
H389 C394 0.949 . S
H390 C396 0.950 . S
H391 C397 0.950 . S
H392 C398 0.949 . S
C393 H388 0.950 . S
C393 C395 1.327 . S
C393 C399 1.429 . S
C394 C386 1.574 . S
C394 H389 0.949 . S
C394 C400 1.368 . S
C395 C379 1.349 . S
C395 H387 0.950 . S
C395 C393 1.327 . S
C396 C384 1.349 . S
C396 H390 0.950 . S
C396 C397 1.327 . S
C397 H391 0.950 . S
C397 C396 1.327 . S
C397 C401 1.429 . S
C398 C381 1.574 . S
C398 H392 0.949 . S
C398 C402 1.368 . S
C399 C380 1.429 . S
C399 C393 1.429 . S
C399 C400 1.523 . S
C400 C381 1.368 . S
C400 C394 1.368 . S
C400 C399 1.523 . S
C401 C385 1.429 . S
C401 C397 1.429 . S
C401 C402 1.523 . S
C402 C386 1.368 . S
C402 C398 1.368 . S
C402 C401 1.523 . S
H403 C378 0.950 . S
H404 C380 0.950 . S
H405 C381 0.949 . S
H406 C383 0.950 . S
H407 C385 0.950 . S
C408 C409 1.349 . S
C408 C410 1.327 . S
C408 H433 0.950 . S
C409 C408 1.349 . S
C409 C425 1.349 . S
C410 C408 1.327 . S
C410 C429 1.429 . S
C410 H434 0.950 . S
C411 C428 1.574 . S
C411 C430 1.368 . S
C411 H435 0.949 . S
H412 C416 0.949 . S
C413 C414 1.349 . S
C413 C415 1.327 . S
C413 H436 0.950 . S
C414 C413 1.349 . S
C414 C426 1.349 . S
C415 C413 1.327 . S
C415 C431 1.429 . S
C415 H437 0.950 . S
C416 H412 0.949 . S
C416 C424 1.574 . S
C416 C432 1.368 . S
H417 C425 0.950 . S
H418 C423 0.950 . S
H419 C424 0.949 . S
H420 C426 0.950 . S
H421 C427 0.950 . S
H422 C428 0.949 . S
C423 H418 0.950 . S
C423 C425 1.327 . S
C423 C429 1.429 . S
C424 C416 1.574 . S
C424 H419 0.949 . S
C424 C430 1.368 . S
C425 C409 1.349 . S
C425 H417 0.950 . S
C425 C423 1.327 . S
C426 C414 1.349 . S
C426 H420 0.950 . S
C426 C427 1.327 . S
C427 H421 0.950 . S
C427 C426 1.327 . S
C427 C431 1.429 . S
C428 C411 1.574 . S
C428 H422 0.949 . S
C428 C432 1.368 . S
C429 C410 1.429 . S
C429 C423 1.429 . S
C429 C430 1.523 . S
C430 C411 1.368 . S
C430 C424 1.368 . S
C430 C429 1.523 . S
C431 C415 1.429 . S
C431 C427 1.429 . S
C431 C432 1.523 . S
C432 C416 1.368 . S
C432 C428 1.368 . S
C432 C431 1.523 . S
H433 C408 0.950 . S
H434 C410 0.950 . S
H435 C411 0.949 . S
H436 C413 0.950 . S
H437 C415 0.950 . S
C438 C439 1.349 . S
C438 C440 1.327 . S
C438 H463 0.950 . S
C439 C438 1.349 . S
C439 C455 1.349 . S
C440 C438 1.327 . S
C440 C459 1.429 . S
C440 H464 0.950 1_554 S
C441 C458 1.574 . S
C441 C460 1.368 . S
C441 H465 0.949 . S
H442 C446 0.949 . S
C443 C444 1.349 . S
C443 C445 1.327 . S
C443 H466 0.950 . S
C444 C443 1.349 . S
C444 C456 1.349 . S
C445 C443 1.327 . S
C445 C461 1.429 . S
C445 H467 0.950 1_556 S
C446 H442 0.949 . S
C446 C454 1.574 . S
C446 C462 1.368 . S
H447 C455 0.950 . S
H448 C453 0.950 . S
H449 C454 0.949 . S
H450 C456 0.950 . S
H451 C457 0.950 . S
H452 C458 0.949 . S
C453 H448 0.950 . S
C453 C455 1.327 . S
C453 C459 1.429 . S
C454 C446 1.574 . S
C454 H449 0.949 . S
C454 C460 1.368 1_556 S
C455 C439 1.349 . S
C455 H447 0.950 . S
C455 C453 1.327 . S
C456 C444 1.349 . S
C456 H450 0.950 . S
C456 C457 1.327 . S
C457 H451 0.950 . S
C457 C456 1.327 . S
C457 C461 1.429 . S
C458 C441 1.574 . S
C458 H452 0.949 . S
C458 C462 1.368 1_554 S
C459 C440 1.429 . S
C459 C453 1.429 . S
C459 C460 1.523 . S
C460 C441 1.368 . S
C460 C454 1.368 1_554 S
C460 C459 1.523 . S
C461 C445 1.429 . S
C461 C457 1.429 . S
C461 C462 1.523 . S
C462 C446 1.368 . S
C462 C458 1.368 1_556 S
C462 C461 1.523 . S
H463 C438 0.950 . S
H464 C440 0.950 1_556 S
H465 C441 0.949 . S
H466 C443 0.950 . S
H467 C445 0.950 1_554 S
C468 C469 1.349 . S
C468 C470 1.327 . S
C468 H493 0.950 . S
C469 C468 1.349 . S
C469 C485 1.349 . S
C470 C468 1.327 . S
C470 C489 1.429 . S
C470 H494 0.950 . S
C471 C488 1.574 . S
C471 C490 1.368 . S
C471 H495 0.949 . S
H472 C476 0.949 . S
C473 C474 1.349 . S
C473 C475 1.327 . S
C473 H496 0.950 . S
C474 C473 1.349 . S
C474 C486 1.349 . S
C475 C473 1.327 . S
C475 C491 1.429 . S
C475 H497 0.950 . S
C476 H472 0.949 . S
C476 C484 1.574 . S
C476 C492 1.368 . S
H477 C485 0.950 . S
H478 C483 0.950 . S
H479 C484 0.949 . S
H480 C486 0.950 . S
H481 C487 0.950 . S
H482 C488 0.949 . S
C483 H478 0.950 . S
C483 C485 1.327 . S
C483 C489 1.429 . S
C484 C476 1.574 . S
C484 H479 0.949 . S
C484 C490 1.368 . S
C485 C469 1.349 . S
C485 H477 0.950 . S
C485 C483 1.327 . S
C486 C474 1.349 . S
C486 H480 0.950 . S
C486 C487 1.327 . S
C487 H481 0.950 . S
C487 C486 1.327 . S
C487 C491 1.429 . S
C488 C471 1.574 . S
C488 H482 0.949 . S
C488 C492 1.368 . S
C489 C470 1.429 . S
C489 C483 1.429 . S
C489 C490 1.523 . S
C490 C471 1.368 . S
C490 C484 1.368 . S
C490 C489 1.523 . S
C491 C475 1.429 . S
C491 C487 1.429 . S
C491 C492 1.523 . S
C492 C476 1.368 . S
C492 C488 1.368 . S
C492 C491 1.523 . S
H493 C468 0.950 . S
H494 C470 0.950 . S
H495 C471 0.949 . S
H496 C473 0.950 . S
H497 C475 0.950 . S
C498 C499 1.349 . S
C498 C500 1.327 . S
C498 H523 0.950 . S
C499 C498 1.349 . S
C499 C515 1.349 . S
C500 C498 1.327 . S
C500 C519 1.429 . S
C500 H524 0.950 . S
C501 C518 1.574 . S
C501 C520 1.368 . S
C501 H525 0.949 . S
H502 C506 0.949 . S
C503 C504 1.349 . S
C503 C505 1.327 . S
C503 H526 0.950 . S
C504 C503 1.349 . S
C504 C516 1.349 . S
C505 C503 1.327 . S
C505 C521 1.429 . S
C505 H527 0.950 . S
C506 H502 0.949 . S
C506 C514 1.574 . S
C506 C522 1.368 . S
H507 C515 0.950 . S
H508 C513 0.950 . S
H509 C514 0.949 . S
H510 C516 0.950 . S
H511 C517 0.950 . S
H512 C518 0.949 . S
C513 H508 0.950 . S
C513 C515 1.327 . S
C513 C519 1.429 . S
C514 C506 1.574 . S
C514 H509 0.949 . S
C514 C520 1.368 . S
C515 C499 1.349 . S
C515 H507 0.950 . S
C515 C513 1.327 . S
C516 C504 1.349 . S
C516 H510 0.950 . S
C516 C517 1.327 . S
C517 H511 0.950 . S
C517 C516 1.327 . S
C517 C521 1.429 . S
C518 C501 1.574 . S
C518 H512 0.949 . S
C518 C522 1.368 . S
C519 C500 1.429 . S
C519 C513 1.429 . S
C519 C520 1.523 . S
C520 C501 1.368 . S
C520 C514 1.368 . S
C520 C519 1.523 . S
C521 C505 1.429 . S
C521 C517 1.429 . S
C521 C522 1.523 . S
C522 C506 1.368 . S
C522 C518 1.368 . S
C522 C521 1.523 . S
H523 C498 0.950 . S
H524 C500 0.950 . S
H525 C501 0.949 . S
H526 C503 0.950 . S
H527 C505 0.950 . S
C528 C529 1.349 . S
C528 C530 1.327 . S
C528 H553 0.950 . S
C529 C528 1.349 . S
C529 C545 1.349 . S
C530 C528 1.327 . S
C530 C549 1.429 . S
C530 H554 0.950 . S
C531 C548 1.574 . S
C531 C550 1.368 . S
C531 H555 0.949 . S
H532 C536 0.949 . S
C533 C534 1.349 . S
C533 C535 1.327 . S
C533 H556 0.950 . S
C534 C533 1.349 . S
C534 C546 1.349 . S
C535 C533 1.327 . S
C535 C551 1.429 . S
C535 H557 0.950 . S
C536 H532 0.949 . S
C536 C544 1.574 . S
C536 C552 1.368 . S
H537 C545 0.950 . S
H538 C543 0.950 . S
H539 C544 0.949 . S
H540 C546 0.950 . S
H541 C547 0.950 . S
H542 C548 0.949 . S
C543 H538 0.950 . S
C543 C545 1.327 . S
C543 C549 1.429 . S
C544 C536 1.574 . S
C544 H539 0.949 . S
C544 C550 1.368 . S
C545 C529 1.349 . S
C545 H537 0.950 . S
C545 C543 1.327 . S
C546 C534 1.349 . S
C546 H540 0.950 . S
C546 C547 1.327 . S
C547 H541 0.950 . S
C547 C546 1.327 . S
C547 C551 1.429 . S
C548 C531 1.574 . S
C548 H542 0.949 . S
C548 C552 1.368 . S
C549 C530 1.429 . S
C549 C543 1.429 . S
C549 C550 1.523 . S
C550 C531 1.368 . S
C550 C544 1.368 . S
C550 C549 1.523 . S
C551 C535 1.429 . S
C551 C547 1.429 . S
C551 C552 1.523 . S
C552 C536 1.368 . S
C552 C548 1.368 . S
C552 C551 1.523 . S
H553 C528 0.950 . S
H554 C530 0.950 . S
H555 C531 0.949 . S
H556 C533 0.950 . S
H557 C535 0.950 . S
C558 C559 1.349 . S
C558 C560 1.327 . S
C558 H583 0.950 . S
C559 C558 1.349 . S
C559 C575 1.349 1_655 S
C560 C558 1.327 . S
C560 C579 1.429 . S
C560 H584 0.950 . S
C561 C578 1.574 . S
C561 C580 1.368 1_455 S
C561 H585 0.949 . S
H562 C566 0.949 . S
C563 C564 1.349 . S
C563 C565 1.327 . S
C563 H586 0.950 . S
C564 C563 1.349 . S
C564 C576 1.349 1_455 S
C565 C563 1.327 . S
C565 C581 1.429 . S
C565 H587 0.950 . S
C566 H562 0.949 . S
C566 C574 1.574 . S
C566 C582 1.368 1_655 S
H567 C575 0.950 . S
H568 C573 0.950 . S
H569 C574 0.949 . S
H570 C576 0.950 . S
H571 C577 0.950 . S
H572 C578 0.949 . S
C573 H568 0.950 . S
C573 C575 1.327 . S
C573 C579 1.429 1_455 S
C574 C566 1.574 . S
C574 H569 0.949 . S
C574 C580 1.368 . S
C575 C559 1.349 1_455 S
C575 H567 0.950 . S
C575 C573 1.327 . S
C576 C564 1.349 1_655 S
C576 H570 0.950 . S
C576 C577 1.327 . S
C577 H571 0.950 . S
C577 C576 1.327 . S
C577 C581 1.429 1_655 S
C578 C561 1.574 . S
C578 H572 0.949 . S
C578 C582 1.368 . S
C579 C560 1.429 . S
C579 C573 1.429 1_655 S
C579 C580 1.523 . S
C580 C561 1.368 1_655 S
C580 C574 1.368 . S
C580 C579 1.523 . S
C581 C565 1.429 . S
C581 C577 1.429 1_455 S
C581 C582 1.523 . S
C582 C566 1.368 1_455 S
C582 C578 1.368 . S
C582 C581 1.523 . S
H583 C558 0.950 . S
H584 C560 0.950 . S
H585 C561 0.949 . S
H586 C563 0.950 . S
H587 C565 0.950 . S
C588 C589 1.349 1_545 S
C588 C590 1.327 . S
C588 H613 0.950 . S
C589 C588 1.349 1_565 S
C589 C605 1.349 . S
C590 C588 1.327 . S
C590 C609 1.429 1_545 S
C590 H614 0.950 . S
C591 C608 1.574 . S
C591 C610 1.368 . S
C591 H615 0.949 . S
H592 C596 0.949 . S
C593 C594 1.349 1_565 S
C593 C595 1.327 . S
C593 H616 0.950 . S
C594 C593 1.349 1_545 S
C594 C606 1.349 . S
C595 C593 1.327 . S
C595 C611 1.429 1_565 S
C595 H617 0.950 . S
C596 H592 0.949 . S
C596 C604 1.574 . S
C596 C612 1.368 . S
H597 C605 0.950 . S
H598 C603 0.950 . S
H599 C604 0.949 . S
H600 C606 0.950 . S
H601 C607 0.950 . S
H602 C608 0.949 . S
C603 H598 0.950 . S
C603 C605 1.327 . S
C603 C609 1.429 . S
C604 C596 1.574 . S
C604 H599 0.949 . S
C604 C610 1.368 1_545 S
C605 C589 1.349 . S
C605 H597 0.950 . S
C605 C603 1.327 . S
C606 C594 1.349 . S
C606 H600 0.950 . S
C606 C607 1.327 . S
C607 H601 0.950 . S
C607 C606 1.327 . S
C607 C611 1.429 . S
C608 C591 1.574 . S
C608 H602 0.949 . S
C608 C612 1.368 1_565 S
C609 C590 1.429 1_565 S
C609 C603 1.429 . S
C609 C610 1.523 . S
C610 C591 1.368 . S
C610 C604 1.368 1_565 S
C610 C609 1.523 . S
C611 C595 1.429 1_545 S
C611 C607 1.429 . S
C611 C612 1.523 . S
C612 C596 1.368 . S
C612 C608 1.368 1_545 S
C612 C611 1.523 . S
H613 C588 0.950 . S
H614 C590 0.950 . S
H615 C591 0.949 . S
H616 C593 0.950 . S
H617 C595 0.950 . S
C618 C619 1.349 . S
C618 C620 1.327 . S
C618 H643 0.950 . S
C619 C618 1.349 . S
C619 C635 1.349 . S
C620 C618 1.327 . S
C620 C639 1.429 . S
C620 H644 0.950 . S
C621 C638 1.574 . S
C621 C640 1.368 . S
C621 H645 0.949 . S
H622 C626 0.949 . S
C623 C624 1.349 . S
C623 C625 1.327 . S
C623 H646 0.950 . S
C624 C623 1.349 . S
C624 C636 1.349 . S
C625 C623 1.327 . S
C625 C641 1.429 . S
C625 H647 0.950 . S
C626 H622 0.949 . S
C626 C634 1.574 . S
C626 C642 1.368 . S
H627 C635 0.950 . S
H628 C633 0.950 . S
H629 C634 0.949 . S
H630 C636 0.950 . S
H631 C637 0.950 . S
H632 C638 0.949 . S
C633 H628 0.950 . S
C633 C635 1.327 . S
C633 C639 1.429 . S
C634 C626 1.574 . S
C634 H629 0.949 . S
C634 C640 1.368 . S
C635 C619 1.349 . S
C635 H627 0.950 . S
C635 C633 1.327 . S
C636 C624 1.349 . S
C636 H630 0.950 . S
C636 C637 1.327 . S
C637 H631 0.950 . S
C637 C636 1.327 . S
C637 C641 1.429 . S
C638 C621 1.574 . S
C638 H632 0.949 . S
C638 C642 1.368 . S
C639 C620 1.429 . S
C639 C633 1.429 . S
C639 C640 1.523 . S
C640 C621 1.368 . S
C640 C634 1.368 . S
C640 C639 1.523 . S
C641 C625 1.429 . S
C641 C637 1.429 . S
C641 C642 1.523 . S
C642 C626 1.368 . S
C642 C638 1.368 . S
C642 C641 1.523 . S
H643 C618 0.950 . S
H644 C620 0.950 . S
H645 C621 0.949 . S
H646 C623 0.950 . S
H647 C625 0.950 . S
C648 C649 1.349 . S
C648 C650 1.327 . S
C648 H673 0.950 . S
C649 C648 1.349 . S
C649 C665 1.349 1_455 S
C650 C648 1.327 . S
C650 C669 1.429 . S
C650 H674 0.950 . S
C651 C668 1.574 . S
C651 C670 1.368 1_655 S
C651 H675 0.949 . S
H652 C656 0.949 . S
C653 C654 1.349 . S
C653 C655 1.327 . S
C653 H676 0.950 . S
C654 C653 1.349 . S
C654 C666 1.349 1_655 S
C655 C653 1.327 . S
C655 C671 1.429 . S
C655 H677 0.950 . S
C656 H652 0.949 . S
C656 C664 1.574 . S
C656 C672 1.368 1_455 S
H657 C665 0.950 . S
H658 C663 0.950 . S
H659 C664 0.949 . S
H660 C666 0.950 . S
H661 C667 0.950 . S
H662 C668 0.949 . S
C663 H658 0.950 . S
C663 C665 1.327 . S
C663 C669 1.429 1_655 S
C664 C656 1.574 . S
C664 H659 0.949 . S
C664 C670 1.368 . S
C665 C649 1.349 1_655 S
C665 H657 0.950 . S
C665 C663 1.327 . S
C666 C654 1.349 1_455 S
C666 H660 0.950 . S
C666 C667 1.327 . S
C667 H661 0.950 . S
C667 C666 1.327 . S
C667 C671 1.429 1_455 S
C668 C651 1.574 . S
C668 H662 0.949 . S
C668 C672 1.368 . S
C669 C650 1.429 . S
C669 C663 1.429 1_455 S
C669 C670 1.523 . S
C670 C651 1.368 1_455 S
C670 C664 1.368 . S
C670 C669 1.523 . S
C671 C655 1.429 . S
C671 C667 1.429 1_655 S
C671 C672 1.523 . S
C672 C656 1.368 1_655 S
C672 C668 1.368 . S
C672 C671 1.523 . S
H673 C648 0.950 . S
H674 C650 0.950 . S
H675 C651 0.949 . S
H676 C653 0.950 . S
H677 C655 0.950 . S
C678 C679 1.349 . S
C678 C680 1.327 . S
C678 H703 0.950 . S
C679 C678 1.349 . S
C679 C695 1.349 . S
C680 C678 1.327 . S
C680 C699 1.429 . S
C680 H704 0.950 . S
C681 C698 1.576 . S
C681 C700 1.376 1_545 S
C681 H705 0.954 . S
H682 C686 0.954 . S
C683 C684 1.349 . S
C683 C685 1.327 . S
C683 H706 0.950 . S
C684 C683 1.349 . S
C684 C696 1.349 . S
C685 C683 1.327 . S
C685 C701 1.429 . S
C685 H707 0.950 . S
C686 H682 0.954 . S
C686 C694 1.576 . S
C686 C702 1.376 1_565 S
H687 C695 0.950 . S
H688 C693 0.950 . S
H689 C694 0.949 . S
H690 C696 0.950 . S
H691 C697 0.950 . S
H692 C698 0.949 . S
C693 H688 0.950 . S
C693 C695 1.327 . S
C693 C699 1.429 . S
C694 C686 1.576 . S
C694 H689 0.949 . S
C694 C700 1.368 . S
C695 C679 1.349 . S
C695 H687 0.950 . S
C695 C693 1.327 . S
C696 C684 1.349 . S
C696 H690 0.950 . S
C696 C697 1.327 . S
C697 H691 0.950 . S
C697 C696 1.327 . S
C697 C701 1.429 . S
C698 C681 1.576 . S
C698 H692 0.949 . S
C698 C702 1.368 . S
C699 C680 1.429 . S
C699 C693 1.429 . S
C699 C700 1.523 . S
C700 C681 1.376 1_565 S
C700 C694 1.368 . S
C700 C699 1.523 . S
C701 C685 1.429 . S
C701 C697 1.429 . S
C701 C702 1.523 . S
C702 C686 1.376 1_545 S
C702 C698 1.368 . S
C702 C701 1.523 . S
H703 C678 0.950 . S
H704 C680 0.950 . S
H705 C681 0.954 . S
H706 C683 0.950 . S
H707 C685 0.950 . S
C708 C709 1.349 . S
C708 C710 1.327 . S
C708 H733 0.950 . S
C709 C708 1.349 . S
C709 C725 1.349 . S
C710 C708 1.327 . S
C710 C729 1.429 . S
C710 H734 0.950 . S
C711 C728 1.574 . S
C711 C730 1.368 . S
C711 H735 0.949 . S
H712 C716 0.949 . S
C713 C714 1.349 . S
C713 C715 1.327 . S
C713 H736 0.950 . S
C714 C713 1.349 . S
C714 C726 1.349 . S
C715 C713 1.327 . S
C715 C731 1.429 . S
C715 H737 0.950 . S
C716 H712 0.949 . S
C716 C724 1.574 . S
C716 C732 1.368 . S
H717 C725 0.950 . S
H718 C723 0.950 . S
H719 C724 0.949 . S
H720 C726 0.950 . S
H721 C727 0.950 . S
H722 C728 0.949 . S
C723 H718 0.950 . S
C723 C725 1.327 . S
C723 C729 1.429 . S
C724 C716 1.574 . S
C724 H719 0.949 . S
C724 C730 1.368 . S
C725 C709 1.349 . S
C725 H717 0.950 . S
C725 C723 1.327 . S
C726 C714 1.349 . S
C726 H720 0.950 . S
C726 C727 1.327 . S
C727 H721 0.950 . S
C727 C726 1.327 . S
C727 C731 1.429 . S
C728 C711 1.574 . S
C728 H722 0.949 . S
C728 C732 1.368 . S
C729 C710 1.429 . S
C729 C723 1.429 . S
C729 C730 1.523 . S
C730 C711 1.368 . S
C730 C724 1.368 . S
C730 C729 1.523 . S
C731 C715 1.429 . S
C731 C727 1.429 . S
C731 C732 1.523 . S
C732 C716 1.368 . S
C732 C728 1.368 . S
C732 C731 1.523 . S
H733 C708 0.950 . S
H734 C710 0.950 . S
H735 C711 0.949 . S
H736 C713 0.950 . S
H737 C715 0.950 . S
C738 C739 1.349 . S
C738 C740 1.327 . S
C738 H763 0.950 . S
C739 C738 1.349 . S
C739 C755 1.349 . S
C740 C738 1.327 . S
C740 C759 1.429 . S
C740 H764 0.950 1_455 S
C741 C758 1.574 . S
C741 C760 1.368 . S
C741 H765 0.949 . S
H742 C746 0.949 . S
C743 C744 1.349 . S
C743 C745 1.327 . S
C743 H766 0.950 . S
C744 C743 1.349 . S
C744 C756 1.349 . S
C745 C743 1.327 . S
C745 C761 1.429 . S
C745 H767 0.950 1_655 S
C746 H742 0.949 . S
C746 C754 1.574 . S
C746 C762 1.368 . S
H747 C755 0.950 . S
H748 C753 0.950 . S
H749 C754 0.949 . S
H750 C756 0.950 . S
H751 C757 0.950 . S
H752 C758 0.949 . S
C753 H748 0.950 . S
C753 C755 1.327 . S
C753 C759 1.429 . S
C754 C746 1.574 . S
C754 H749 0.949 . S
C754 C760 1.368 1_655 S
C755 C739 1.349 . S
C755 H747 0.950 . S
C755 C753 1.327 . S
C756 C744 1.349 . S
C756 H750 0.950 . S
C756 C757 1.327 . S
C757 H751 0.950 . S
C757 C756 1.327 . S
C757 C761 1.429 . S
C758 C741 1.574 . S
C758 H752 0.949 . S
C758 C762 1.368 1_455 S
C759 C740 1.429 . S
C759 C753 1.429 . S
C759 C760 1.523 . S
C760 C741 1.368 . S
C760 C754 1.368 1_455 S
C760 C759 1.523 . S
C761 C745 1.429 . S
C761 C757 1.429 . S
C761 C762 1.523 . S
C762 C746 1.368 . S
C762 C758 1.368 1_655 S
C762 C761 1.523 . S
H763 C738 0.950 . S
H764 C740 0.950 1_655 S
H765 C741 0.949 . S
H766 C743 0.950 . S
H767 C745 0.950 1_455 S
C768 C769 1.349 . S
C768 C770 1.327 . S
C768 H793 0.950 . S
C769 C768 1.349 . S
C769 C785 1.349 . S
C770 C768 1.327 . S
C770 C789 1.429 . S
C770 H794 0.950 1_565 S
C771 C788 1.574 . S
C771 C790 1.368 . S
C771 H795 0.949 . S
H772 C776 0.949 . S
C773 C774 1.349 . S
C773 C775 1.327 . S
C773 H796 0.950 . S
C774 C773 1.349 . S
C774 C786 1.349 . S
C775 C773 1.327 . S
C775 C791 1.429 . S
C775 H797 0.950 1_545 S
C776 H772 0.949 . S
C776 C784 1.574 . S
C776 C792 1.368 . S
H777 C785 0.950 . S
H778 C783 0.950 . S
H779 C784 0.949 . S
H780 C786 0.950 . S
H781 C787 0.950 . S
H782 C788 0.949 . S
C783 H778 0.950 . S
C783 C785 1.327 . S
C783 C789 1.429 . S
C784 C776 1.574 . S
C784 H779 0.949 . S
C784 C790 1.368 1_545 S
C785 C769 1.349 . S
C785 H777 0.950 . S
C785 C783 1.327 . S
C786 C774 1.349 . S
C786 H780 0.950 . S
C786 C787 1.327 . S
C787 H781 0.950 . S
C787 C786 1.327 . S
C787 C791 1.429 . S
C788 C771 1.574 . S
C788 H782 0.949 . S
C788 C792 1.368 1_565 S
C789 C770 1.429 . S
C789 C783 1.429 . S
C789 C790 1.523 . S
C790 C771 1.368 . S
C790 C784 1.368 1_565 S
C790 C789 1.523 . S
C791 C775 1.429 . S
C791 C787 1.429 . S
C791 C792 1.523 . S
C792 C776 1.368 . S
C792 C788 1.368 1_545 S
C792 C791 1.523 . S
H793 C768 0.950 . S
H794 C770 0.950 1_545 S
H795 C771 0.949 . S
H796 C773 0.950 . S
H797 C775 0.950 1_565 S
C798 C799 1.349 . S
C798 C800 1.327 . S
C798 H823 0.950 . S
C799 C798 1.349 . S
C799 C815 1.349 . S
C800 C798 1.327 . S
C800 C819 1.429 . S
C800 H824 0.950 . S
C801 C818 1.574 . S
C801 C820 1.368 . S
C801 H825 0.949 . S
H802 C806 0.949 . S
C803 C804 1.349 . S
C803 C805 1.327 . S
C803 H826 0.950 . S
C804 C803 1.349 . S
C804 C816 1.349 . S
C805 C803 1.327 . S
C805 C821 1.429 . S
C805 H827 0.950 . S
C806 H802 0.949 . S
C806 C814 1.574 . S
C806 C822 1.368 . S
H807 C815 0.950 . S
H808 C813 0.950 . S
H809 C814 0.949 . S
H810 C816 0.950 . S
H811 C817 0.950 . S
H812 C818 0.949 . S
C813 H808 0.950 . S
C813 C815 1.327 . S
C813 C819 1.429 . S
C814 C806 1.574 . S
C814 H809 0.949 . S
C814 C820 1.368 . S
C815 C799 1.349 . S
C815 H807 0.950 . S
C815 C813 1.327 . S
C816 C804 1.349 . S
C816 H810 0.950 . S
C816 C817 1.327 . S
C817 H811 0.950 . S
C817 C816 1.327 . S
C817 C821 1.429 . S
C818 C801 1.574 . S
C818 H812 0.949 . S
C818 C822 1.368 . S
C819 C800 1.429 . S
C819 C813 1.429 . S
C819 C820 1.523 . S
C820 C801 1.368 . S
C820 C814 1.368 . S
C820 C819 1.523 . S
C821 C805 1.429 . S
C821 C817 1.429 . S
C821 C822 1.523 . S
C822 C806 1.368 . S
C822 C818 1.368 . S
C822 C821 1.523 . S
H823 C798 0.950 . S
H824 C800 0.950 . S
H825 C801 0.949 . S
H826 C803 0.950 . S
H827 C805 0.950 . S
C828 C829 1.349 . S
C828 C830 1.327 . S
C828 H853 0.950 . S
C829 C828 1.349 . S
C829 C845 1.349 . S
C830 C828 1.327 . S
C830 C849 1.429 . S
C830 H854 0.950 1_655 S
C831 C848 1.574 . S
C831 C850 1.368 . S
C831 H855 0.949 . S
H832 C836 0.949 . S
C833 C834 1.349 . S
C833 C835 1.327 . S
C833 H856 0.950 . S
C834 C833 1.349 . S
C834 C846 1.349 . S
C835 C833 1.327 . S
C835 C851 1.429 . S
C835 H857 0.950 1_455 S
C836 H832 0.949 . S
C836 C844 1.574 . S
C836 C852 1.368 . S
H837 C845 0.950 . S
H838 C843 0.950 . S
H839 C844 0.949 . S
H840 C846 0.950 . S
H841 C847 0.950 . S
H842 C848 0.949 . S
C843 H838 0.950 . S
C843 C845 1.327 . S
C843 C849 1.429 . S
C844 C836 1.574 . S
C844 H839 0.949 . S
C844 C850 1.368 1_455 S
C845 C829 1.349 . S
C845 H837 0.950 . S
C845 C843 1.327 . S
C846 C834 1.349 . S
C846 H840 0.950 . S
C846 C847 1.327 . S
C847 H841 0.950 . S
C847 C846 1.327 . S
C847 C851 1.429 . S
C848 C831 1.574 . S
C848 H842 0.949 . S
C848 C852 1.368 1_655 S
C849 C830 1.429 . S
C849 C843 1.429 . S
C849 C850 1.523 . S
C850 C831 1.368 . S
C850 C844 1.368 1_655 S
C850 C849 1.523 . S
C851 C835 1.429 . S
C851 C847 1.429 . S
C851 C852 1.523 . S
C852 C836 1.368 . S
C852 C848 1.368 1_455 S
C852 C851 1.523 . S
H853 C828 0.950 . S
H854 C830 0.950 1_455 S
H855 C831 0.949 . S
H856 C833 0.950 . S
H857 C835 0.950 1_655 S
C858 C859 1.349 . S
C858 C860 1.327 . S
C858 H883 0.950 . S
C859 C858 1.349 . S
C859 C875 1.349 . S
C860 C858 1.327 . S
C860 C879 1.429 . S
C860 H884 0.950 1_545 S
C861 C878 1.574 . S
C861 C880 1.368 . S
C861 H885 0.949 . S
H862 C866 0.949 . S
C863 C864 1.349 . S
C863 C865 1.327 . S
C863 H886 0.950 . S
C864 C863 1.349 . S
C864 C876 1.349 . S
C865 C863 1.327 . S
C865 C881 1.429 . S
C865 H887 0.950 1_565 S
C866 H862 0.949 . S
C866 C874 1.574 . S
C866 C882 1.368 . S
H867 C875 0.950 . S
H868 C873 0.950 . S
H869 C874 0.949 . S
H870 C876 0.950 . S
H871 C877 0.950 . S
H872 C878 0.949 . S
C873 H868 0.950 . S
C873 C875 1.327 . S
C873 C879 1.429 . S
C874 C866 1.574 . S
C874 H869 0.949 . S
C874 C880 1.368 1_565 S
C875 C859 1.349 . S
C875 H867 0.950 . S
C875 C873 1.327 . S
C876 C864 1.349 . S
C876 H870 0.950 . S
C876 C877 1.327 . S
C877 H871 0.950 . S
C877 C876 1.327 . S
C877 C881 1.429 . S
C878 C861 1.574 . S
C878 H872 0.949 . S
C878 C882 1.368 1_545 S
C879 C860 1.429 . S
C879 C873 1.429 . S
C879 C880 1.523 . S
C880 C861 1.368 . S
C880 C874 1.368 1_545 S
C880 C879 1.523 . S
C881 C865 1.429 . S
C881 C877 1.429 . S
C881 C882 1.523 . S
C882 C866 1.368 . S
C882 C878 1.368 1_565 S
C882 C881 1.523 . S
H883 C858 0.950 . S
H884 C860 0.950 1_565 S
H885 C861 0.949 . S
H886 C863 0.950 . S
H887 C865 0.950 1_545 S
C169 C3 1.467 . S
C174 C129 1.467 . S
C199 C17 1.467 . S
C204 C143 1.467 . S
C229 C31 1.467 . S
C234 C157 1.467 . S
C259 C45 1.467 . S
C264 C87 1.467 . S
C289 C101 1.467 . S
C294 C59 1.467 . S
C319 C115 1.467 . S
C324 C73 1.467 . S
C349 C148 1.587 . S
C354 C8 1.587 . S
C379 C22 1.587 . S
C384 C162 1.587 . S
C409 C36 1.587 . S
C414 C92 1.587 . S
C439 C50 1.587 . S
C444 C106 1.587 . S
C469 C64 1.587 . S
C474 C120 1.587 . S
C499 C78 1.587 . S
C504 C134 1.587 . S
C529 C133 0.468 . S
C534 C7 0.468 1_556 S
C559 C21 0.468 . S
C564 C147 0.468 1_554 S
C589 C35 0.468 . S
C594 C161 0.468 . S
C619 C91 0.468 . S
C624 C49 0.468 1_556 S
C649 C63 0.468 . S
C654 C105 0.468 1_554 S
C679 C119 0.468 . S
C684 C77 0.468 . S
C709 C9 1.522 . S
C714 C51 1.522 . S
C739 C65 1.522 . S
C744 C23 1.522 . S
C769 C37 1.522 . S
C774 C79 1.522 . S
C799 C93 1.522 . S
C804 C135 1.522 . S
C829 C107 1.521 . S
C834 C149 1.521 . S
C859 C163 1.522 . S
C864 C121 1.522 . S
