# Generated by pormake.
# Topology uow, (4)-cn, num edge types: 1
# Building blocks:
#     Node 0, Type 0, BuildingBlock: AZAVOO_clean_sbu_0, # of connection points: 4
#     Node 1, Type 0, BuildingBlock: AZAVOO_clean_sbu_0, # of connection points: 4
#     Node 2, Type 0, BuildingBlock: AZAVOO_clean_sbu_0, # of connection points: 4
#     Node 3, Type 0, BuildingBlock: AZAVOO_clean_sbu_0, # of connection points: 4
#     Node 4, Type 0, BuildingBlock: AZAVOO_clean_sbu_0, # of connection points: 4
#     Node 5, Type 0, BuildingBlock: AZAVOO_clean_sbu_0, # of connection points: 4
#     Node 6, Type 0, BuildingBlock: AZAVOO_clean_sbu_0, # of connection points: 4
#     Node 7, Type 0, BuildingBlock: AZAVOO_clean_sbu_0, # of connection points: 4
#     Node 8, Type 0, BuildingBlock: AZAVOO_clean_sbu_0, # of connection points: 4
#     Node 9, Type 0, BuildingBlock: AZAVOO_clean_sbu_0, # of connection points: 4
#     Node 10, Type 0, BuildingBlock: AZAVOO_clean_sbu_0, # of connection points: 4
#     Node 11, Type 0, BuildingBlock: AZAVOO_clean_sbu_0, # of connection points: 4
#     Node 12, Type 0, BuildingBlock: AZAVOO_clean_sbu_0, # of connection points: 4
#     Node 13, Type 0, BuildingBlock: AZAVOO_clean_sbu_0, # of connection points: 4
#     Node 14, Type 0, BuildingBlock: AZAVOO_clean_sbu_0, # of connection points: 4
#     Node 15, Type 0, BuildingBlock: AZAVOO_clean_sbu_0, # of connection points: 4
#     Node 16, Type 0, BuildingBlock: AZAVOO_clean_sbu_0, # of connection points: 4
#     Node 17, Type 0, BuildingBlock: AZAVOO_clean_sbu_0, # of connection points: 4
#     Node 18, Type 0, BuildingBlock: AZAVOO_clean_sbu_0, # of connection points: 4
#     Node 19, Type 0, BuildingBlock: AZAVOO_clean_sbu_0, # of connection points: 4
#     Node 20, Type 0, BuildingBlock: AZAVOO_clean_sbu_0, # of connection points: 4
#     Node 21, Type 0, BuildingBlock: AZAVOO_clean_sbu_0, # of connection points: 4
#     Node 22, Type 0, BuildingBlock: AZAVOO_clean_sbu_0, # of connection points: 4
#     Node 23, Type 0, BuildingBlock: AZAVOO_clean_sbu_0, # of connection points: 4
#     Node 24, Type 0, BuildingBlock: AZAVOO_clean_sbu_0, # of connection points: 4
#     Node 25, Type 0, BuildingBlock: AZAVOO_clean_sbu_0, # of connection points: 4
#     Node 26, Type 0, BuildingBlock: AZAVOO_clean_sbu_0, # of connection points: 4
#     Node 27, Type 0, BuildingBlock: AZAVOO_clean_sbu_0, # of connection points: 4
#     Node 28, Type 0, BuildingBlock: AZAVOO_clean_sbu_0, # of connection points: 4
#     Node 29, Type 0, BuildingBlock: AZAVOO_clean_sbu_0, # of connection points: 4
#     Node 30, Type 0, BuildingBlock: AZAVOO_clean_sbu_0, # of connection points: 4
#     Node 31, Type 0, BuildingBlock: AZAVOO_clean_sbu_0, # of connection points: 4
#     Edge 32, Type (0, 0), BuildingBlock: KIFKEQ_clean_linker_1, # of connection points: 2
#     Edge 33, Type (0, 0), BuildingBlock: KIFKEQ_clean_linker_1, # of connection points: 2
#     Edge 34, Type (0, 0), BuildingBlock: KIFKEQ_clean_linker_1, # of connection points: 2
#     Edge 35, Type (0, 0), BuildingBlock: KIFKEQ_clean_linker_1, # of connection points: 2
#     Edge 36, Type (0, 0), BuildingBlock: KIFKEQ_clean_linker_1, # of connection points: 2
#     Edge 37, Type (0, 0), BuildingBlock: KIFKEQ_clean_linker_1, # of connection points: 2
#     Edge 38, Type (0, 0), BuildingBlock: KIFKEQ_clean_linker_1, # of connection points: 2
#     Edge 39, Type (0, 0), BuildingBlock: KIFKEQ_clean_linker_1, # of connection points: 2
#     Edge 40, Type (0, 0), BuildingBlock: KIFKEQ_clean_linker_1, # of connection points: 2
#     Edge 41, Type (0, 0), BuildingBlock: KIFKEQ_clean_linker_1, # of connection points: 2
#     Edge 42, Type (0, 0), BuildingBlock: KIFKEQ_clean_linker_1, # of connection points: 2
#     Edge 43, Type (0, 0), BuildingBlock: KIFKEQ_clean_linker_1, # of connection points: 2
#     Edge 44, Type (0, 0), BuildingBlock: KIFKEQ_clean_linker_1, # of connection points: 2
#     Edge 45, Type (0, 0), BuildingBlock: KIFKEQ_clean_linker_1, # of connection points: 2
#     Edge 46, Type (0, 0), BuildingBlock: KIFKEQ_clean_linker_1, # of connection points: 2
#     Edge 47, Type (0, 0), BuildingBlock: KIFKEQ_clean_linker_1, # of connection points: 2
#     Edge 48, Type (0, 0), BuildingBlock: KIFKEQ_clean_linker_1, # of connection points: 2
#     Edge 49, Type (0, 0), BuildingBlock: KIFKEQ_clean_linker_1, # of connection points: 2
#     Edge 50, Type (0, 0), BuildingBlock: KIFKEQ_clean_linker_1, # of connection points: 2
#     Edge 51, Type (0, 0), BuildingBlock: KIFKEQ_clean_linker_1, # of connection points: 2
#     Edge 52, Type (0, 0), BuildingBlock: KIFKEQ_clean_linker_1, # of connection points: 2
#     Edge 53, Type (0, 0), BuildingBlock: KIFKEQ_clean_linker_1, # of connection points: 2
#     Edge 54, Type (0, 0), BuildingBlock: KIFKEQ_clean_linker_1, # of connection points: 2
#     Edge 55, Type (0, 0), BuildingBlock: KIFKEQ_clean_linker_1, # of connection points: 2
#     Edge 56, Type (0, 0), BuildingBlock: KIFKEQ_clean_linker_1, # of connection points: 2
#     Edge 57, Type (0, 0), BuildingBlock: KIFKEQ_clean_linker_1, # of connection points: 2
#     Edge 58, Type (0, 0), BuildingBlock: KIFKEQ_clean_linker_1, # of connection points: 2
#     Edge 59, Type (0, 0), BuildingBlock: KIFKEQ_clean_linker_1, # of connection points: 2
#     Edge 60, Type (0, 0), BuildingBlock: KIFKEQ_clean_linker_1, # of connection points: 2
#     Edge 61, Type (0, 0), BuildingBlock: KIFKEQ_clean_linker_1, # of connection points: 2
#     Edge 62, Type (0, 0), BuildingBlock: KIFKEQ_clean_linker_1, # of connection points: 2
#     Edge 63, Type (0, 0), BuildingBlock: KIFKEQ_clean_linker_1, # of connection points: 2
#     Edge 64, Type (0, 0), BuildingBlock: KIFKEQ_clean_linker_1, # of connection points: 2
#     Edge 65, Type (0, 0), BuildingBlock: KIFKEQ_clean_linker_1, # of connection points: 2
#     Edge 66, Type (0, 0), BuildingBlock: KIFKEQ_clean_linker_1, # of connection points: 2
#     Edge 67, Type (0, 0), BuildingBlock: KIFKEQ_clean_linker_1, # of connection points: 2
#     Edge 68, Type (0, 0), BuildingBlock: KIFKEQ_clean_linker_1, # of connection points: 2
#     Edge 69, Type (0, 0), BuildingBlock: KIFKEQ_clean_linker_1, # of connection points: 2
#     Edge 70, Type (0, 0), BuildingBlock: KIFKEQ_clean_linker_1, # of connection points: 2
#     Edge 71, Type (0, 0), BuildingBlock: KIFKEQ_clean_linker_1, # of connection points: 2
#     Edge 72, Type (0, 0), BuildingBlock: KIFKEQ_clean_linker_1, # of connection points: 2
#     Edge 73, Type (0, 0), BuildingBlock: KIFKEQ_clean_linker_1, # of connection points: 2
#     Edge 74, Type (0, 0), BuildingBlock: KIFKEQ_clean_linker_1, # of connection points: 2
#     Edge 75, Type (0, 0), BuildingBlock: KIFKEQ_clean_linker_1, # of connection points: 2
#     Edge 76, Type (0, 0), BuildingBlock: KIFKEQ_clean_linker_1, # of connection points: 2
#     Edge 77, Type (0, 0), BuildingBlock: KIFKEQ_clean_linker_1, # of connection points: 2
#     Edge 78, Type (0, 0), BuildingBlock: KIFKEQ_clean_linker_1, # of connection points: 2
#     Edge 79, Type (0, 0), BuildingBlock: KIFKEQ_clean_linker_1, # of connection points: 2
#     Edge 80, Type (0, 0), BuildingBlock: KIFKEQ_clean_linker_1, # of connection points: 2
#     Edge 81, Type (0, 0), BuildingBlock: KIFKEQ_clean_linker_1, # of connection points: 2
#     Edge 82, Type (0, 0), BuildingBlock: KIFKEQ_clean_linker_1, # of connection points: 2
#     Edge 83, Type (0, 0), BuildingBlock: KIFKEQ_clean_linker_1, # of connection points: 2
#     Edge 84, Type (0, 0), BuildingBlock: KIFKEQ_clean_linker_1, # of connection points: 2
#     Edge 85, Type (0, 0), BuildingBlock: KIFKEQ_clean_linker_1, # of connection points: 2
#     Edge 86, Type (0, 0), BuildingBlock: KIFKEQ_clean_linker_1, # of connection points: 2
#     Edge 87, Type (0, 0), BuildingBlock: KIFKEQ_clean_linker_1, # of connection points: 2
#     Edge 88, Type (0, 0), BuildingBlock: KIFKEQ_clean_linker_1, # of connection points: 2
#     Edge 89, Type (0, 0), BuildingBlock: KIFKEQ_clean_linker_1, # of connection points: 2
#     Edge 90, Type (0, 0), BuildingBlock: KIFKEQ_clean_linker_1, # of connection points: 2
#     Edge 91, Type (0, 0), BuildingBlock: KIFKEQ_clean_linker_1, # of connection points: 2
#     Edge 92, Type (0, 0), BuildingBlock: KIFKEQ_clean_linker_1, # of connection points: 2
#     Edge 93, Type (0, 0), BuildingBlock: KIFKEQ_clean_linker_1, # of connection points: 2
#     Edge 94, Type (0, 0), BuildingBlock: KIFKEQ_clean_linker_1, # of connection points: 2
#     Edge 95, Type (0, 0), BuildingBlock: KIFKEQ_clean_linker_1, # of connection points: 2
# Relax obj value: 0.273
# Max RMSD: 0.244
# Mean RMSD: 0.244
data_MOF--net-uow--node1-AZAVOO_clean_sbu_0--edge1-KIFKEQ_clean_linker_1
_symmetry_space_group_name_H-M    P1
_symmetry_Int_Tables_number       1
_symmetry_cell_setting            triclinic
loop_
_symmetry_equiv_pos_as_xyz
'x, y, z'
_cell_length_a     60.695132
_cell_length_b     60.686927
_cell_length_c     41.304658
_cell_angle_alpha  89.979993
_cell_angle_beta   90.007505
_cell_angle_gamma 89.995989
loop_
_atom_site_label
_atom_site_type_symbol
_atom_site_fract_x
_atom_site_fract_y
_atom_site_fract_z
_atom_type_partial_charge
Mg0 Mg 0.97765 0.36867 0.23246 0.0
O1 O 0.00664 0.36234 0.2665 0.0
O2 O 0.03858 0.36878 0.24159 0.0
Mg3 Mg 0.02957 0.38052 0.1905 0.0
C4 C 0.02764 0.36295 0.26654 0.0
C5 C 0.94018 0.35066 0.27555 0.0
O6 O 0.93678 0.34 0.24832 0.0
O7 O 0.98189 0.40589 0.23937 0.0
O8 O 0.01322 0.41128 0.21202 0.0
O9 O 0.98049 0.33423 0.21371 0.0
O10 O 0.99794 0.36268 0.19247 0.0
C11 C 0.99699 0.41861 0.22853 0.0
C12 C 0.9946 0.34173 0.19298 0.0
O13 O 0.95517 0.36526 0.27645 0.0
Mg14 Mg 0.88053 0.72659 0.48642 0.0
O15 O 0.88689 0.75518 0.52143 0.0
O16 O 0.8788 0.78734 0.49813 0.0
Mg17 Mg 0.86533 0.779 0.44794 0.0
C18 C 0.8857 0.77617 0.52225 0.0
C19 C 0.90443 0.69335 0.53021 0.0
O20 O 0.91797 0.69558 0.50564 0.0
O21 O 0.84359 0.72918 0.49583 0.0
O22 O 0.83604 0.76154 0.47213 0.0
O23 O 0.91406 0.73115 0.46545 0.0
O24 O 0.88444 0.74805 0.44692 0.0
C25 C 0.83012 0.74443 0.48793 0.0
C26 C 0.90548 0.74537 0.44586 0.0
O27 O 0.88591 0.70312 0.5292 0.0
Mg28 Mg 0.52325 0.63645 0.73215 0.0
O29 O 0.49266 0.64209 0.7631 0.0
O30 O 0.46196 0.63732 0.73432 0.0
Mg31 Mg 0.47366 0.62678 0.68368 0.0
C32 C 0.47171 0.64201 0.76082 0.0
C33 C 0.55992 0.65136 0.77848 0.0
O34 O 0.56547 0.66103 0.7512 0.0
O35 O 0.51812 0.59924 0.73625 0.0
O36 O 0.4881 0.59495 0.70545 0.0
O37 O 0.52164 0.67143 0.71568 0.0
O38 O 0.50546 0.64377 0.69021 0.0
C39 C 0.50338 0.58702 0.72333 0.0
C40 C 0.50894 0.66463 0.69258 0.0
O41 O 0.54353 0.63834 0.77853 0.0
Mg42 Mg 0.61568 0.27436 0.98464 0.0
O43 O 0.60994 0.24476 0.01798 0.0
O44 O 0.6145 0.21302 0.99143 0.0
Mg45 Mg 0.62716 0.22291 0.94136 0.0
C46 C 0.60969 0.22375 0.01701 0.0
C47 C 0.59858 0.31164 0.0289 0.0
O48 O 0.58807 0.3158 0.00175 0.0
O49 O 0.65271 0.27009 0.99079 0.0
O50 O 0.65804 0.23803 0.965 0.0
O51 O 0.58118 0.27185 0.96642 0.0
O52 O 0.6095 0.2547 0.94415 0.0
C53 C 0.66521 0.25445 0.98128 0.0
C54 C 0.58855 0.25812 0.94503 0.0
O55 O 0.6127 0.29619 0.02934 0.0
Mg56 Mg 0.98091 0.633 0.26543 0.0
O57 O 0.01044 0.6385 0.2321 0.0
O58 O 0.0419 0.6312 0.25788 0.0
Mg59 Mg 0.03201 0.61962 0.30866 0.0
C60 C 0.03143 0.63732 0.23264 0.0
C61 C 0.94409 0.65201 0.22202 0.0
O62 O 0.94081 0.66259 0.24935 0.0
O63 O 0.98417 0.59567 0.25846 0.0
O64 O 0.01504 0.58941 0.28655 0.0
O65 O 0.98453 0.66731 0.28444 0.0
O66 O 0.00094 0.63833 0.30592 0.0
C67 C 0.99881 0.58254 0.26961 0.0
C68 C 0.99819 0.65936 0.30547 0.0
O69 O 0.95884 0.63716 0.22105 0.0
Mg70 Mg 0.616 0.7239 0.51944 0.0
O71 O 0.6097 0.75268 0.48481 0.0
O72 O 0.61635 0.78487 0.5089 0.0
Mg73 Mg 0.62885 0.77619 0.55958 0.0
C74 C 0.61033 0.77369 0.48429 0.0
C75 C 0.59737 0.68655 0.47636 0.0
O76 O 0.58624 0.6834 0.50325 0.0
O77 O 0.65305 0.72757 0.51194 0.0
O78 O 0.65923 0.75987 0.5366 0.0
O79 O 0.58183 0.7272 0.53867 0.0
O80 O 0.61066 0.74461 0.55902 0.0
C81 C 0.66595 0.74307 0.5208 0.0
C82 C 0.58967 0.74139 0.55902 0.0
O83 O 0.6123 0.70122 0.47587 0.0
Mg84 Mg 0.52042 0.37318 0.76244 0.0
O85 O 0.49179 0.36558 0.72829 0.0
O86 O 0.45961 0.37217 0.75244 0.0
Mg87 Mg 0.46812 0.38499 0.80314 0.0
C88 C 0.47078 0.36592 0.72793 0.0
C89 C 0.55879 0.35561 0.72066 0.0
O90 O 0.56254 0.34575 0.74844 0.0
O91 O 0.5155 0.41008 0.75397 0.0
O92 O 0.48394 0.41582 0.78058 0.0
O93 O 0.51839 0.33911 0.78247 0.0
O94 O 0.50003 0.36744 0.80242 0.0
C95 C 0.50022 0.42289 0.76391 0.0
C96 C 0.50399 0.34658 0.80279 0.0
O97 O 0.54323 0.36956 0.71894 0.0
Mg98 Mg 0.87943 0.27195 0.01277 0.0
O99 O 0.88625 0.24281 0.979 0.0
O100 O 0.87964 0.21094 0.00407 0.0
Mg101 Mg 0.86692 0.22014 0.05438 0.0
C102 C 0.88575 0.22179 0.97918 0.0
C103 C 0.89623 0.31023 0.96962 0.0
O104 O 0.90618 0.31474 0.99709 0.0
O105 O 0.84251 0.26775 0.00525 0.0
O106 O 0.8363 0.23579 0.03084 0.0
O107 O 0.91356 0.26951 0.03223 0.0
O108 O 0.88501 0.25183 0.05297 0.0
C109 C 0.82962 0.25236 0.01446 0.0
C110 C 0.90595 0.25544 0.05297 0.0
O111 O 0.88276 0.29423 0.96867 0.0
Mg112 Mg 0.02132 0.63038 0.76686 0.0
O113 O 0.99091 0.63543 0.73542 0.0
O114 O 0.95964 0.63097 0.76306 0.0
Mg115 Mg 0.97103 0.61948 0.81334 0.0
C116 C 0.96995 0.63546 0.73698 0.0
C117 C 0.06127 0.63841 0.71825 0.0
O118 O 0.07306 0.63995 0.74483 0.0
O119 O 0.01696 0.59322 0.76185 0.0
O120 O 0.9863 0.58827 0.791 0.0
O121 O 0.019 0.66515 0.78414 0.0
O122 O 0.00277 0.63703 0.80836 0.0
C123 C 0.00206 0.58071 0.77371 0.0
C124 C 0.00591 0.65798 0.80652 0.0
O125 O 0.04102 0.63329 0.72024 0.0
Mg126 Mg 0.11725 0.27066 0.51433 0.0
O127 O 0.11035 0.24094 0.48153 0.0
O128 O 0.11904 0.20968 0.50707 0.0
Mg129 Mg 0.13164 0.2197 0.55707 0.0
C130 C 0.11188 0.21997 0.48227 0.0
C131 C 0.0987 0.30816 0.47145 0.0
O132 O 0.08878 0.31215 0.4991 0.0
O133 O 0.15423 0.26717 0.50565 0.0
O134 O 0.1614 0.23588 0.53244 0.0
O135 O 0.08349 0.26772 0.53484 0.0
O136 O 0.11267 0.25081 0.55508 0.0
C137 C 0.16755 0.25225 0.51523 0.0
C138 C 0.09166 0.25393 0.55552 0.0
O139 O 0.11274 0.29265 0.47011 0.0
Mg140 Mg 0.47736 0.36847 0.26941 0.0
O141 O 0.50651 0.36181 0.23582 0.0
O142 O 0.53836 0.36819 0.26103 0.0
Mg143 Mg 0.52904 0.37993 0.31202 0.0
C144 C 0.52752 0.36236 0.23598 0.0
C145 C 0.43995 0.3513 0.2253 0.0
O146 O 0.43604 0.34045 0.25222 0.0
O147 O 0.48209 0.40552 0.26247 0.0
O148 O 0.51324 0.411 0.29022 0.0
O149 O 0.47947 0.33405 0.28832 0.0
O150 O 0.49724 0.36226 0.30972 0.0
C151 C 0.49713 0.41826 0.27337 0.0
C152 C 0.49349 0.34137 0.30934 0.0
O153 O 0.45525 0.36559 0.22503 0.0
Mg154 Mg 0.3828 0.7279 0.01127 0.0
O155 O 0.38813 0.75836 0.97975 0.0
O156 O 0.38464 0.78932 0.0086 0.0
Mg157 Mg 0.37359 0.778 0.059 0.0
C158 C 0.3886 0.77931 0.98209 0.0
C159 C 0.39629 0.6902 0.96522 0.0
O160 O 0.40529 0.68388 0.99264 0.0
O161 O 0.34572 0.73324 0.00733 0.0
O162 O 0.34174 0.76372 0.03722 0.0
O163 O 0.41787 0.72919 0.0277 0.0
O164 O 0.39051 0.74612 0.05266 0.0
C165 C 0.33367 0.7483 0.01976 0.0
C166 C 0.41134 0.74237 0.05037 0.0
O167 O 0.38429 0.70735 0.96511 0.0
Mg168 Mg 0.0213 0.36703 0.73583 0.0
O169 O 0.99081 0.36061 0.76649 0.0
O170 O 0.95974 0.36718 0.73948 0.0
Mg171 Mg 0.97123 0.37933 0.6896 0.0
C172 C 0.96986 0.36122 0.76511 0.0
C173 C 0.06116 0.35931 0.78557 0.0
O174 O 0.07387 0.36 0.75985 0.0
O175 O 0.01671 0.40408 0.74323 0.0
O176 O 0.98643 0.40989 0.71357 0.0
O177 O 0.01934 0.33285 0.71619 0.0
O178 O 0.00297 0.36157 0.69375 0.0
C179 C 0.00199 0.41693 0.73168 0.0
C180 C 0.00626 0.3406 0.69421 0.0
O181 O 0.04064 0.36286 0.78259 0.0
Mg182 Mg 0.38208 0.26829 0.48377 0.0
O183 O 0.3877 0.23975 0.51915 0.0
O184 O 0.38025 0.20755 0.49553 0.0
Mg185 Mg 0.36783 0.21593 0.44477 0.0
C186 C 0.38658 0.21876 0.51995 0.0
C187 C 0.40106 0.30658 0.52467 0.0
O188 O 0.41167 0.30928 0.49723 0.0
O189 O 0.34497 0.26569 0.49142 0.0
O190 O 0.33797 0.23329 0.46754 0.0
O191 O 0.41612 0.2639 0.46473 0.0
O192 O 0.3869 0.24693 0.44474 0.0
C193 C 0.33169 0.25042 0.48297 0.0
C194 C 0.40797 0.2496 0.4448 0.0
O195 O 0.38641 0.29168 0.52647 0.0
Mg196 Mg 0.47672 0.63183 0.23394 0.0
O197 O 0.50561 0.63815 0.26815 0.0
O198 O 0.5376 0.63171 0.24333 0.0
Mg199 Mg 0.52876 0.62028 0.19205 0.0
C200 C 0.52662 0.63746 0.26828 0.0
C201 C 0.44154 0.65178 0.27827 0.0
O202 O 0.44097 0.66453 0.25258 0.0
O203 O 0.48124 0.59467 0.24078 0.0
O204 O 0.5126 0.58934 0.21348 0.0
O205 O 0.47934 0.66631 0.21518 0.0
O206 O 0.49708 0.63808 0.19396 0.0
C207 C 0.49639 0.582 0.23003 0.0
C208 C 0.49347 0.65899 0.19438 0.0
O209 O 0.45393 0.63489 0.27785 0.0
Mg210 Mg 0.12012 0.72966 0.98664 0.0
O211 O 0.11352 0.75882 0.02034 0.0
O212 O 0.11783 0.79077 0.99421 0.0
Mg213 Mg 0.1303 0.78149 0.94364 0.0
C214 C 0.11303 0.77983 0.01962 0.0
C215 C 0.10462 0.691 0.02928 0.0
O216 O 0.095 0.68654 0.00154 0.0
O217 O 0.15698 0.73496 0.99306 0.0
O218 O 0.16173 0.76647 0.96584 0.0
O219 O 0.08555 0.73128 0.96838 0.0
O220 O 0.11338 0.74936 0.94639 0.0
C221 C 0.16934 0.75041 0.98248 0.0
C222 C 0.09254 0.74534 0.94718 0.0
O223 O 0.1177 0.70731 0.03078 0.0
Mg224 Mg 0.47878 0.869 0.73403 0.0
O225 O 0.50752 0.86206 0.76847 0.0
O226 O 0.53956 0.8684 0.7437 0.0
Mg227 Mg 0.53099 0.88038 0.6926 0.0
C228 C 0.52855 0.86252 0.76857 0.0
C229 C 0.44274 0.84923 0.77647 0.0
O230 O 0.44196 0.83735 0.74992 0.0
O231 O 0.48357 0.90602 0.74141 0.0
O232 O 0.51499 0.91137 0.71428 0.0
O233 O 0.48102 0.83466 0.71501 0.0
O234 O 0.49921 0.86276 0.69413 0.0
C235 C 0.49878 0.91869 0.73086 0.0
C236 C 0.49531 0.84189 0.69437 0.0
O237 O 0.45563 0.86572 0.7774 0.0
Mg238 Mg 0.38464 0.23106 0.98392 0.0
O239 O 0.39065 0.26059 0.01697 0.0
O240 O 0.38324 0.29243 0.99246 0.0
Mg241 Mg 0.37038 0.28247 0.9424 0.0
C242 C 0.38968 0.28157 0.01715 0.0
C243 C 0.39405 0.18966 0.03038 0.0
O244 O 0.39379 0.17786 0.00372 0.0
O245 O 0.34756 0.23414 0.99224 0.0
O246 O 0.34052 0.26598 0.96676 0.0
O247 O 0.41848 0.2346 0.96385 0.0
O248 O 0.38919 0.25113 0.94326 0.0
C249 C 0.33428 0.24928 0.98325 0.0
C250 C 0.41024 0.24827 0.94304 0.0
O251 O 0.38974 0.21011 0.02899 0.0
Mg252 Mg 0.01857 0.13353 0.23365 0.0
O253 O 0.98822 0.13859 0.26538 0.0
O254 O 0.95677 0.13363 0.23833 0.0
Mg255 Mg 0.96805 0.12087 0.18882 0.0
C256 C 0.96724 0.13854 0.26409 0.0
C257 C 0.05885 0.14144 0.28267 0.0
O258 O 0.07134 0.14119 0.2567 0.0
O259 O 0.01503 0.09645 0.24014 0.0
O260 O 0.98344 0.09042 0.21346 0.0
O261 O 0.01562 0.16785 0.215 0.0
O262 O 0.99962 0.13907 0.19213 0.0
C263 C -0.00025 0.08362 0.23032 0.0
C264 C 0.00255 0.16009 0.19302 0.0
O265 O 0.03836 0.1376 0.28002 0.0
Mg266 Mg 0.12097 0.76882 0.48945 0.0
O267 O 0.11364 0.73875 0.52138 0.0
O268 O 0.12297 0.70782 0.49548 0.0
Mg269 Mg 0.13611 0.7184 0.44603 0.0
C270 C 0.11534 0.7178 0.52024 0.0
C271 C 0.10103 0.80525 0.53256 0.0
O272 O 0.09119 0.80896 0.50475 0.0
O273 O 0.15786 0.76529 0.49901 0.0
O274 O 0.16571 0.73438 0.47168 0.0
O275 O 0.08751 0.76628 0.46813 0.0
O276 O 0.11674 0.74935 0.44808 0.0
C277 C 0.17146 0.75062 0.48945 0.0
C278 C 0.09574 0.75266 0.44728 0.0
O279 O 0.11572 0.79036 0.53401 0.0
Mg280 Mg 0.47708 0.13196 0.76995 0.0
O281 O 0.50622 0.13935 0.73651 0.0
O282 O 0.53802 0.13342 0.76213 0.0
Mg283 Mg 0.52878 0.12125 0.8129 0.0
C284 C 0.52724 0.13919 0.73698 0.0
C285 C 0.43931 0.14878 0.72669 0.0
O286 O 0.43539 0.15915 0.75401 0.0
O287 O 0.48251 0.09503 0.76269 0.0
O288 O 0.51363 0.09 0.7907 0.0
O289 O 0.47843 0.16631 0.78905 0.0
O290 O 0.49672 0.13839 0.8104 0.0
C291 C 0.49773 0.08252 0.77362 0.0
C292 C 0.49256 0.15921 0.81008 0.0
O293 O 0.45485 0.13476 0.72576 0.0
Mg294 Mg 0.11983 0.22948 0.01676 0.0
O295 O 0.11275 0.25921 0.984 0.0
O296 O 0.12109 0.29046 0.00979 0.0
Mg297 Mg 0.13356 0.28042 0.05987 0.0
C298 C 0.1141 0.28019 0.98488 0.0
C299 C 0.10119 0.19228 0.97391 0.0
O300 O 0.09121 0.18858 0.00162 0.0
O301 O 0.15686 0.23335 0.00845 0.0
O302 O 0.16369 0.26458 0.03553 0.0
O303 O 0.08595 0.23187 0.03678 0.0
O304 O 0.11467 0.24923 0.05759 0.0
C305 C 0.17005 0.24831 0.01829 0.0
C306 C 0.09369 0.24576 0.05765 0.0
O307 O 0.11554 0.20749 0.97246 0.0
Mg308 Mg 0.01835 0.86949 0.26684 0.0
O309 O 0.98988 0.86375 0.23138 0.0
O310 O 0.95738 0.86941 0.25545 0.0
Mg311 Mg 0.9656 0.88298 0.30561 0.0
C312 C 0.96885 0.86391 0.23089 0.0
C313 C 0.05316 0.84699 0.22461 0.0
O314 O 0.05204 0.83432 0.25033 0.0
O315 O 0.01525 0.90649 0.25869 0.0
O316 O 0.98243 0.9129 0.28175 0.0
O317 O 0.01419 0.83551 0.2863 0.0
O318 O 0.9969 0.86451 0.30612 0.0
C319 C 0.99954 0.91945 0.26646 0.0
C320 C -0.00011 0.84349 0.30629 0.0
O321 O 0.04209 0.86479 0.22421 0.0
Mg322 Mg 0.38542 0.77223 0.51083 0.0
O323 O 0.38886 0.74037 0.48215 0.0
O324 O 0.38614 0.7104 0.5132 0.0
Mg325 Mg 0.37576 0.72427 0.56266 0.0
C326 C 0.38929 0.71954 0.4858 0.0
C327 C 0.39244 0.80983 0.45841 0.0
O328 O 0.39463 0.8225 0.48399 0.0
O329 O 0.34813 0.76837 0.50918 0.0
O330 O 0.34387 0.73808 0.53965 0.0
O331 O 0.42065 0.76986 0.52529 0.0
O332 O 0.3932 0.75571 0.55379 0.0
C333 C 0.33602 0.7535 0.52194 0.0
C334 C 0.41409 0.75832 0.54981 0.0
O335 O 0.38712 0.78975 0.46217 0.0
Mg336 Mg 0.52125 0.12764 0.26368 0.0
O337 O 0.49226 0.13454 0.22945 0.0
O338 O 0.46058 0.1248 0.25296 0.0
Mg339 Mg 0.46948 0.11151 0.30305 0.0
C340 C 0.47132 0.13259 0.229 0.0
C341 C 0.55508 0.15181 0.22176 0.0
O342 O 0.55404 0.16392 0.24805 0.0
O343 O 0.51882 0.09071 0.25353 0.0
O344 O 0.48707 0.08247 0.27842 0.0
O345 O 0.51706 0.16088 0.2852 0.0
O346 O 0.50014 0.13124 0.30369 0.0
C347 C 0.50399 0.07692 0.26194 0.0
C348 C 0.50296 0.15229 0.30495 0.0
O349 O 0.54441 0.13379 0.22085 0.0
Mg350 Mg 0.61755 0.77266 0.01836 0.0
O351 O 0.61072 0.74343 0.98496 0.0
O352 O 0.61691 0.71163 0.01044 0.0
Mg353 Mg 0.62892 0.72102 0.06126 0.0
C354 C 0.6111 0.72242 0.98532 0.0
C355 C 0.59995 0.81003 0.97473 0.0
O356 O 0.58947 0.81382 0.002 0.0
O357 O 0.65467 0.76783 0.01123 0.0
O358 O 0.65992 0.73673 0.03922 0.0
O359 O 0.58317 0.77061 0.03751 0.0
O360 O 0.61142 0.75287 0.05884 0.0
C361 C 0.66731 0.75273 0.02227 0.0
C362 C 0.59053 0.75663 0.05855 0.0
O363 O 0.61431 0.79479 0.97397 0.0
Mg364 Mg 0.97696 0.86641 0.76981 0.0
O365 O 0.00595 0.85901 0.73589 0.0
O366 O 0.03791 0.86576 0.76062 0.0
Mg367 Mg 0.02899 0.87922 0.81062 0.0
C368 C 0.02697 0.85939 0.73596 0.0
C369 C 0.9396 0.84745 0.72755 0.0
O370 O 0.93655 0.83687 0.75494 0.0
O371 O 0.98128 0.90327 0.76104 0.0
O372 O 0.01338 0.90951 0.78621 0.0
O373 O 0.97941 0.83254 0.79026 0.0
O374 O 0.99724 0.86132 0.80998 0.0
C375 C 0.99683 0.91614 0.76976 0.0
C376 C 0.99359 0.8404 0.8106 0.0
O377 O 0.95435 0.86228 0.72625 0.0
Mg378 Mg 0.88118 0.22927 0.5159 0.0
O379 O 0.88784 0.25809 0.48148 0.0
O380 O 0.88138 0.2901 0.50624 0.0
Mg381 Mg 0.86961 0.28144 0.55743 0.0
C382 C 0.88727 0.27911 0.48136 0.0
C383 C 0.90164 0.19425 0.47208 0.0
O384 O 0.91437 0.19414 0.49778 0.0
O385 O 0.84403 0.23376 0.50887 0.0
O386 O 0.83871 0.26515 0.53612 0.0
O387 O 0.91556 0.2318 0.53493 0.0
O388 O 0.88736 0.24974 0.55586 0.0
C389 C 0.83135 0.2489 0.51966 0.0
C390 C 0.90825 0.24599 0.55563 0.0
O391 O 0.88447 0.20624 0.47228 0.0
Mg392 Mg 0.52517 0.86258 0.2299 0.0
O393 O 0.49441 0.85557 0.26057 0.0
O394 O 0.46403 0.86419 0.2328 0.0
Mg395 Mg 0.47567 0.87652 0.1834 0.0
C396 C 0.47348 0.85708 0.25833 0.0
C397 C 0.56092 0.844 0.27563 0.0
O398 O 0.5656 0.83383 0.2484 0.0
O399 O 0.52115 0.89964 0.23794 0.0
O400 O 0.49085 0.90657 0.20869 0.0
O401 O 0.52324 0.82869 0.20946 0.0
O402 O 0.50676 0.85763 0.18776 0.0
C403 C 0.50657 0.91288 0.22704 0.0
C404 C 0.51011 0.83664 0.18769 0.0
O405 O 0.54564 0.85831 0.27572 0.0
Mg406 Mg 0.88105 0.77189 0.98121 0.0
O407 O 0.88862 0.7435 0.0161 0.0
O408 O 0.8819 0.71121 0.99231 0.0
Mg409 Mg 0.86907 0.71919 0.94144 0.0
C410 C 0.8882 0.72248 0.01669 0.0
C411 C 0.90245 0.80718 0.02348 0.0
O412 O 0.91487 0.80682 0.99746 0.0
O413 O 0.84406 0.76721 0.98992 0.0
O414 O 0.83844 0.73551 0.96362 0.0
O415 O 0.91504 0.76944 0.96094 0.0
O416 O 0.88668 0.75099 0.9415 0.0
C417 C 0.83128 0.75188 0.98 0.0
C418 C 0.90754 0.75493 0.9409 0.0
O419 O 0.88508 0.79547 0.02404 0.0
Mg420 Mg 0.97942 0.13033 0.73502 0.0
O421 O 0.00814 0.13721 0.76965 0.0
O422 O 0.04026 0.13036 0.74544 0.0
Mg423 Mg 0.03169 0.11735 0.69505 0.0
C424 C 0.02916 0.13665 0.76998 0.0
C425 C 0.94123 0.14866 0.77634 0.0
O426 O 0.93803 0.15886 0.74866 0.0
O427 O 0.98329 0.09338 0.74316 0.0
O428 O 0.01552 0.08696 0.71847 0.0
O429 O 0.9823 0.16432 0.71536 0.0
O430 O 0.00015 0.13563 0.69537 0.0
C431 C 0.99873 0.08038 0.73445 0.0
C432 C 0.99665 0.15659 0.69515 0.0
O433 O 0.95641 0.13429 0.77817 0.0
Mg434 Mg 0.61709 0.22874 0.48738 0.0
O435 O 0.6108 0.25859 0.51986 0.0
O436 O 0.61719 0.28984 0.49305 0.0
Mg437 Mg 0.62862 0.27954 0.44237 0.0
C438 C 0.61145 0.27959 0.51867 0.0
C439 C 0.59991 0.19169 0.53177 0.0
O440 O 0.58985 0.18733 0.50433 0.0
O441 O 0.65431 0.2333 0.49374 0.0
O442 O 0.65957 0.26385 0.46447 0.0
O443 O 0.58258 0.23085 0.46866 0.0
O444 O 0.61086 0.24793 0.44631 0.0
C445 C 0.66697 0.2481 0.48189 0.0
C446 C 0.58994 0.2444 0.44702 0.0
O447 O 0.6139 0.20726 0.53248 0.0
H448 H 0.02548 0.35302 0.14794 0.0
H449 H 0.99357 0.29654 0.19119 0.0
H450 H 0.04912 0.32867 0.11675 0.0
H451 H 0.01701 0.27207 0.15887 0.0
H452 H 0.10454 0.2783 0.10062 0.0
H453 H 0.07967 0.30067 0.13314 0.0
H454 H 0.02412 0.26383 0.09681 0.0
H455 H 0.04897 0.24164 0.06341 0.0
C456 C 0.02356 0.33543 0.151 0.0
C457 C 0.00795 0.32675 0.17264 0.0
C458 C 0.03709 0.32149 0.133 0.0
C459 C 0.03504 0.29855 0.13575 0.0
C460 C 0.01892 0.28974 0.15643 0.0
C461 C 0.00557 0.30374 0.17492 0.0
C462 C 0.08706 0.27501 0.09927 0.0
C463 C 0.07873 0.25846 0.07889 0.0
C464 C 0.07283 0.2878 0.118 0.0
C465 C 0.05001 0.28405 0.11721 0.0
C466 C 0.04167 0.267 0.09783 0.0
C467 C 0.0559 0.2544 0.07865 0.0
H468 H 0.96734 0.85514 0.34878 0.0
H469 H 0.00233 0.79864 0.31114 0.0
H470 H 0.94463 0.83087 0.3818 0.0
H471 H 0.97977 0.77439 0.34482 0.0
H472 H 0.89245 0.77767 0.4038 0.0
H473 H 0.91569 0.80119 0.37042 0.0
H474 H 0.97352 0.76736 0.40554 0.0
H475 H 0.9503 0.74399 0.43959 0.0
C476 C 0.97011 0.83757 0.34733 0.0
C477 C 0.98643 0.82882 0.32692 0.0
C478 C 0.95711 0.82368 0.36631 0.0
C479 C 0.96039 0.80078 0.36567 0.0
C480 C 0.97698 0.79201 0.34581 0.0
C481 C 0.98981 0.8059 0.32647 0.0
C482 C 0.9101 0.77534 0.40474 0.0
C483 C 0.91952 0.75918 0.42478 0.0
C484 C 0.9234 0.78881 0.38556 0.0
C485 C 0.94637 0.78616 0.3856 0.0
C486 C 0.95582 0.76968 0.40501 0.0
C487 C 0.94253 0.75638 0.42456 0.0
H488 H 0.49256 0.65639 0.63263 0.0
H489 H 0.49915 0.70793 0.70412 0.0
H490 H 0.47183 0.68151 0.59768 0.0
H491 H 0.47777 0.73285 0.66931 0.0
H492 H 0.40728 0.74453 0.61158 0.0
H493 H 0.43276 0.72405 0.64634 0.0
H494 H 0.4817 0.72515 0.57066 0.0
H495 H 0.45647 0.74627 0.53601 0.0
C496 C 0.48963 0.6731 0.6408 0.0
C497 C 0.49736 0.68022 0.6711 0.0
C498 C 0.47792 0.68744 0.62075 0.0
C499 C 0.47335 0.70899 0.63095 0.0
C500 C 0.48122 0.71626 0.66105 0.0
C501 C 0.4934 0.70205 0.68084 0.0
C502 C 0.42356 0.7406 0.60248 0.0
C503 C 0.42991 0.74689 0.5711 0.0
C504 C 0.43811 0.72904 0.62241 0.0
C505 C 0.45907 0.72319 0.61103 0.0
C506 C 0.46558 0.72962 0.57984 0.0
C507 C 0.45119 0.74165 0.56013 0.0
H508 H 0.48872 0.20419 0.81353 0.0
H509 H 0.52398 0.14905 0.85493 0.0
H510 H 0.51075 0.22953 0.84658 0.0
H511 H 0.54621 0.17432 0.88682 0.0
H512 H 0.54337 0.25982 0.94317 0.0
H513 H 0.51861 0.23692 0.91042 0.0
H514 H 0.57481 0.2046 0.8676 0.0
H515 H 0.59946 0.22772 0.89914 0.0
C516 C 0.50113 0.19747 0.82959 0.0
C517 C 0.50492 0.17461 0.83107 0.0
C518 C 0.51363 0.21196 0.84852 0.0
C519 C 0.5303 0.2038 0.86882 0.0
C520 C 0.53366 0.18099 0.87092 0.0
C521 C 0.52098 0.16654 0.8525 0.0
C522 C 0.55042 0.24791 0.92661 0.0
C523 C 0.57341 0.24526 0.9243 0.0
C524 C 0.53626 0.2349 0.90787 0.0
C525 C 0.54489 0.21886 0.88693 0.0
C526 C 0.5678 0.21663 0.88402 0.0
C527 C 0.5819 0.22982 0.90224 0.0
H528 H 0.02822 0.64708 0.35123 0.0
H529 H 0.99821 0.70454 0.3078 0.0
H530 H 0.05175 0.67069 0.38381 0.0
H531 H 0.02153 0.72826 0.34148 0.0
H532 H 0.10736 0.72011 0.40469 0.0
H533 H 0.08312 0.69834 0.37025 0.0
H534 H 0.02712 0.73574 0.40377 0.0
H535 H 0.0513 0.75732 0.43897 0.0
C536 C 0.02672 0.66473 0.3484 0.0
C537 C 0.01164 0.6739 0.32637 0.0
C538 C 0.04019 0.67824 0.36718 0.0
C539 C 0.0386 0.70124 0.36485 0.0
C540 C 0.02307 0.71053 0.34363 0.0
C541 C 0.00979 0.69696 0.32437 0.0
C542 C 0.08991 0.72365 0.40497 0.0
C543 C 0.08125 0.74019 0.42505 0.0
C544 C 0.07604 0.71121 0.38517 0.0
C545 C 0.05328 0.71531 0.38458 0.0
C546 C 0.04464 0.73232 0.40376 0.0
C547 C 0.05848 0.74456 0.42398 0.0
H548 H 0.60159 0.77272 0.60299 0.0
H549 H 0.54454 0.74016 0.5625 0.0
H550 H 0.57767 0.79645 0.63474 0.0
H551 H 0.52052 0.76375 0.59527 0.0
H552 H 0.52762 0.85201 0.6508 0.0
H553 H 0.54963 0.82668 0.61861 0.0
H554 H 0.51291 0.77169 0.6571 0.0
H555 H 0.49106 0.79705 0.69019 0.0
C556 C 0.58397 0.77067 0.60068 0.0
C557 C 0.57499 0.75486 0.57963 0.0
C558 C 0.57028 0.78424 0.61899 0.0
C559 C 0.5473 0.78207 0.61711 0.0
C560 C 0.53822 0.76575 0.59705 0.0
C561 C 0.55196 0.75233 0.57828 0.0
C562 C 0.52431 0.83455 0.65274 0.0
C563 C 0.50788 0.82654 0.6736 0.0
C564 C 0.53688 0.82006 0.63419 0.0
C565 C 0.53307 0.79727 0.63566 0.0
C566 C 0.51614 0.78922 0.65558 0.0
C567 C 0.50374 0.80373 0.67456 0.0
H568 H 0.39776 0.27936 0.89888 0.0
H569 H 0.45525 0.24676 0.93791 0.0
H570 H 0.42131 0.30252 0.86556 0.0
H571 H 0.47886 0.26976 0.90368 0.0
H572 H 0.50784 0.30172 0.80806 0.0
H573 H 0.4859 0.27693 0.84201 0.0
H574 H 0.4497 0.33266 0.87918 0.0
H575 H 0.47177 0.3574 0.84613 0.0
C576 C 0.4154 0.27717 0.90051 0.0
C577 C 0.42462 0.2615 0.92158 0.0
C578 C 0.42889 0.29042 0.88132 0.0
C579 C 0.45188 0.28805 0.88233 0.0
C580 C 0.46116 0.27189 0.90249 0.0
C581 C 0.44764 0.25881 0.92212 0.0
C582 C 0.49524 0.30868 0.82356 0.0
C583 C 0.4913 0.33153 0.82394 0.0
C584 C 0.48278 0.29449 0.84303 0.0
C585 C 0.46598 0.30291 0.86288 0.0
C586 C 0.46231 0.32573 0.86367 0.0
C587 C 0.47495 0.3399 0.84463 0.0
H588 H 0.89489 0.22333 0.09636 0.0
H589 H 0.95081 0.25912 0.05847 0.0
H590 H 0.91947 0.20102 0.12933 0.0
H591 H 0.97543 0.237 0.09253 0.0
H592 H 0.00383 0.20525 0.19027 0.0
H593 H 0.9814 0.22949 0.15604 0.0
H594 H 0.95029 0.17261 0.11319 0.0
H595 H 0.97296 0.14845 0.1463 0.0
C596 C 0.9124 0.22641 0.0949 0.0
C597 C 0.9209 0.24271 0.07422 0.0
C598 C 0.92646 0.21367 0.11392 0.0
C599 C 0.94929 0.21721 0.11318 0.0
C600 C 0.95784 0.23399 0.09345 0.0
C601 C 0.94377 0.24655 0.07393 0.0
C602 C 0.99229 0.19793 0.17341 0.0
C603 C 0.98986 0.1749 0.17151 0.0
C604 C 0.97955 0.2118 0.15381 0.0
C605 C 0.96399 0.20284 0.13237 0.0
C606 C 0.96195 0.17989 0.12994 0.0
C607 C 0.97489 0.16607 0.14905 0.0
H608 H 0.00599 0.70323 0.80545 0.0
H609 H 0.97735 0.64738 0.85501 0.0
H610 H 0.98298 0.72809 0.83787 0.0
H611 H 0.95408 0.67208 0.88622 0.0
H612 H 0.89707 0.72135 0.89957 0.0
H613 H 0.92215 0.69886 0.86763 0.0
H614 H 0.97717 0.73768 0.90111 0.0
H615 H 0.95212 0.75996 0.93412 0.0
C616 C 0.99483 0.69625 0.82317 0.0
C617 C 0.99315 0.67328 0.82714 0.0
C618 C 0.98174 0.71047 0.84169 0.0
C619 C 0.9666 0.70189 0.86408 0.0
C620 C 0.96537 0.67903 0.86865 0.0
C621 C 0.97866 0.6649 0.85063 0.0
C622 C 0.91448 0.72504 0.90047 0.0
C623 C 0.92262 0.74215 0.91999 0.0
C624 C 0.92882 0.7122 0.88205 0.0
C625 C 0.95154 0.71647 0.88222 0.0
C626 C 0.95968 0.7341 0.90064 0.0
C627 C 0.94535 0.74674 0.91958 0.0
H628 H 0.04668 0.25565 0.56041 0.0
H629 H 0.10396 0.22294 0.59997 0.0
H630 H 0.0229 0.23281 0.59456 0.0
H631 H 0.08021 0.19994 0.63327 0.0
H632 H 0.9933 0.20144 0.68976 0.0
H633 H 0.01568 0.22596 0.65609 0.0
H634 H 0.05172 0.16987 0.61972 0.0
H635 H 0.0292 0.14537 0.65254 0.0
C636 C 0.05421 0.24361 0.57631 0.0
C637 C 0.07722 0.24084 0.57702 0.0
C638 C 0.0406 0.23063 0.5959 0.0
C639 C 0.04976 0.21448 0.6162 0.0
C640 C 0.07274 0.21203 0.61739 0.0
C641 C 0.08633 0.22519 0.59822 0.0
C642 C 0.00596 0.19434 0.67451 0.0
C643 C 0.00971 0.17146 0.67425 0.0
C644 C 0.01868 0.20837 0.6552 0.0
C645 C 0.03553 0.19978 0.63564 0.0
C646 C 0.03904 0.17693 0.63502 0.0
C647 C 0.02616 0.1629 0.6539 0.0
H648 H 0.54478 0.24241 0.44467 0.0
H649 H 0.60089 0.27433 0.40044 0.0
H650 H 0.52005 0.26476 0.41102 0.0
H651 H 0.57627 0.29693 0.368 0.0
H652 H 0.49029 0.29633 0.31319 0.0
H653 H 0.51252 0.27142 0.34671 0.0
H654 H 0.54729 0.32724 0.38633 0.0
H655 H 0.52484 0.35207 0.354 0.0
C656 C 0.55184 0.25415 0.42787 0.0
C657 C 0.57482 0.25693 0.42576 0.0
C658 C 0.5377 0.26685 0.40861 0.0
C659 C 0.54633 0.28269 0.38733 0.0
C660 C 0.56924 0.28504 0.38464 0.0
C661 C 0.58333 0.27215 0.40339 0.0
C662 C 0.50259 0.30327 0.32919 0.0
C663 C 0.5061 0.32619 0.3304 0.0
C664 C 0.51521 0.28903 0.3484 0.0
C665 C 0.53172 0.29748 0.36871 0.0
C666 C 0.53486 0.32034 0.37046 0.0
C667 C 0.52205 0.33455 0.35178 0.0
H668 H 0.51319 0.7917 0.1823 0.0
H669 H 0.47957 0.8483 0.14223 0.0
H670 H 0.49086 0.76742 0.14799 0.0
H671 H 0.45696 0.82403 0.10917 0.0
H672 H 0.45657 0.74033 0.04925 0.0
H673 H 0.48244 0.76209 0.08195 0.0
H674 H 0.42776 0.7933 0.13036 0.0
H675 H 0.40206 0.77122 0.09906 0.0
C676 C 0.50111 0.79898 0.16622 0.0
C677 C 0.49781 0.82194 0.16556 0.0
C678 C 0.48845 0.78508 0.14657 0.0
C679 C 0.47211 0.79394 0.12638 0.0
C680 C 0.46931 0.81686 0.12493 0.0
C681 C 0.48218 0.83073 0.14404 0.0
C682 C 0.4501 0.75172 0.06704 0.0
C683 C 0.42722 0.75441 0.07101 0.0
C684 C 0.46489 0.76409 0.08571 0.0
C685 C 0.45697 0.77951 0.10819 0.0
C686 C 0.4342 0.78174 0.11275 0.0
C687 C 0.41949 0.76916 0.09464 0.0
H688 H 0.97745 0.35238 0.64658 0.0
H689 H 0.00707 0.29541 0.69195 0.0
H690 H 0.95447 0.32837 0.61373 0.0
H691 H 0.98436 0.27129 0.65792 0.0
H692 H 0.8979 0.27852 0.59873 0.0
H693 H 0.92303 0.30062 0.63111 0.0
H694 H 0.9782 0.26351 0.59414 0.0
H695 H 0.95305 0.24163 0.56065 0.0
C696 C 0.97905 0.33476 0.64966 0.0
C697 C 0.99372 0.32583 0.67249 0.0
C698 C 0.96594 0.32103 0.6307 0.0
C699 C 0.96752 0.29807 0.63364 0.0
C700 C 0.98286 0.289 0.65533 0.0
C701 C 0.99577 0.30279 0.67479 0.0
C702 C 0.91536 0.27515 0.5971 0.0
C703 C 0.92348 0.25862 0.57653 0.0
C704 C 0.92973 0.28777 0.61578 0.0
C705 C 0.9525 0.28385 0.61481 0.0
C706 C 0.96067 0.26682 0.59522 0.0
C707 C 0.94628 0.2544 0.57602 0.0
H708 H 0.46964 0.13993 0.34589 0.0
H709 H 0.50654 0.19672 0.31343 0.0
H710 H 0.44712 0.1637 0.38011 0.0
H711 H 0.48417 0.22039 0.34808 0.0
H712 H 0.45302 0.24998 0.44152 0.0
H713 H 0.47667 0.22636 0.40842 0.0
H714 H 0.41914 0.19415 0.36924 0.0
H715 H 0.39554 0.21788 0.40159 0.0
C716 C 0.47292 0.15745 0.34593 0.0
C717 C 0.48968 0.16645 0.32656 0.0
C718 C 0.46004 0.17105 0.36556 0.0
C719 C 0.46387 0.19386 0.36659 0.0
C720 C 0.48095 0.20282 0.34785 0.0
C721 C 0.49366 0.18927 0.32791 0.0
C722 C 0.44542 0.23787 0.42583 0.0
C723 C 0.42238 0.23561 0.42455 0.0
C724 C 0.45896 0.22441 0.40686 0.0
C725 C 0.4497 0.20832 0.38656 0.0
C726 C 0.4267 0.20617 0.38513 0.0
C727 C 0.41319 0.21978 0.40372 0.0
H728 H 0.5251 0.64836 0.15007 0.0
H729 H 0.49046 0.70403 0.19095 0.0
H730 H 0.54772 0.67328 0.11815 0.0
H731 H 0.51292 0.72902 0.15798 0.0
H732 H 0.60142 0.72568 0.10371 0.0
H733 H 0.57675 0.70289 0.13574 0.0
H734 H 0.52064 0.73667 0.09504 0.0
H735 H 0.54542 0.75925 0.06184 0.0
C736 C 0.52234 0.66589 0.1524 0.0
C737 C 0.50629 0.6742 0.17364 0.0
C738 C 0.53526 0.68015 0.13398 0.0
C739 C 0.53216 0.70302 0.1359 0.0
C740 C 0.51558 0.71141 0.15613 0.0
C741 C 0.50283 0.69712 0.17504 0.0
C742 C 0.58387 0.72817 0.10118 0.0
C743 C 0.5754 0.74393 0.07958 0.0
C744 C 0.56975 0.71516 0.11968 0.0
C745 C 0.54685 0.71788 0.1175 0.0
C746 C 0.53828 0.73426 0.09703 0.0
C747 C 0.55245 0.74709 0.07802 0.0
H748 H 0.99072 0.79546 0.81607 0.0
H749 H 0.02538 0.85206 0.85408 0.0
H750 H 0.01359 0.77122 0.84962 0.0
H751 H 0.04841 0.82787 0.88659 0.0
H752 H 0.10267 0.77599 0.90126 0.0
H753 H 0.07745 0.79828 0.86939 0.0
H754 H 0.02209 0.76461 0.91243 0.0
H755 H 0.04743 0.74251 0.94539 0.0
C756 C 0.00318 0.80274 0.8315 0.0
C757 C 0.00654 0.82568 0.83189 0.0
C758 C 0.01617 0.78887 0.85074 0.0
C759 C 0.03288 0.79773 0.87028 0.0
C760 C 0.03584 0.82065 0.87128 0.0
C761 C 0.02269 0.83448 0.85253 0.0
C762 C 0.08517 0.77342 0.90433 0.0
C763 C 0.07707 0.75781 0.92645 0.0
C764 C 0.07073 0.78615 0.88594 0.0
C765 C 0.04789 0.78329 0.88879 0.0
C766 C 0.03968 0.76711 0.9099 0.0
C767 C 0.05417 0.75455 0.92876 0.0
H768 H 0.00979 0.35227 0.32518 0.0
H769 H 0.07233 0.35934 0.27611 0.0
H770 H 0.02885 0.34131 0.3743 0.0
H771 H 0.09145 0.3486 0.32574 0.0
H772 H 0.11213 0.30041 0.40912 0.0
H773 H 0.09624 0.31542 0.35954 0.0
H774 H 0.05272 0.35633 0.41638 0.0
H775 H 0.06831 0.34111 0.46591 0.0
C776 C 0.02762 0.35162 0.32486 0.0
C777 C 0.0395 0.35667 0.29658 0.0
C778 C 0.03857 0.34549 0.35318 0.0
C779 C 0.06168 0.34421 0.35401 0.0
C780 C 0.07362 0.3493 0.32581 0.0
C781 C 0.06265 0.35553 0.29742 0.0
C782 C 0.09939 0.31283 0.41105 0.0
C783 C 0.09133 0.31939 0.44149 0.0
C784 C 0.09033 0.32149 0.38261 0.0
C785 C 0.07303 0.33687 0.38402 0.0
C786 C 0.06574 0.34419 0.41448 0.0
C787 C 0.07478 0.33555 0.44288 0.0
H788 H 0.89901 0.75793 0.57955 0.0
H789 H 0.88738 0.82077 0.53317 0.0
H790 H 0.90992 0.77682 0.62889 0.0
H791 H 0.89807 0.83966 0.58294 0.0
H792 H 0.94588 0.86212 0.66546 0.0
H793 H 0.93145 0.84588 0.61576 0.0
H794 H 0.89392 0.79918 0.67224 0.0
H795 H 0.90855 0.81515 0.72187 0.0
C796 C 0.89868 0.77577 0.57986 0.0
C797 C 0.89231 0.7878 0.5523 0.0
C798 C 0.90478 0.78661 0.60829 0.0
C799 C 0.90472 0.80974 0.6099 0.0
C800 C 0.89841 0.82182 0.58238 0.0
C801 C 0.89222 0.81097 0.55391 0.0
C802 C 0.9343 0.8486 0.6673 0.0
C803 C 0.92852 0.83981 0.69764 0.0
C804 C 0.92599 0.83933 0.6388 0.0
C805 C 0.91176 0.82107 0.64006 0.0
C806 C 0.9052 0.81297 0.67045 0.0
C807 C 0.91347 0.82223 0.69891 0.0
H808 H 0.38607 0.70305 0.9033 0.0
H809 H 0.42229 0.65392 0.95726 0.0
H810 H 0.40237 0.68944 0.85308 0.0
H811 H 0.43828 0.64021 0.9071 0.0
H812 H 0.48676 0.64722 0.82254 0.0
H813 H 0.46587 0.6564 0.87072 0.0
H814 H 0.40591 0.65793 0.81445 0.0
H815 H 0.42697 0.64885 0.76566 0.0
C816 C 0.39715 0.68907 0.90441 0.0
C817 C 0.40311 0.67976 0.93437 0.0
C818 C 0.40643 0.68124 0.8756 0.0
C819 C 0.42187 0.66397 0.87619 0.0
C820 C 0.42677 0.65383 0.90593 0.0
C821 C 0.41751 0.66163 0.93468 0.0
C822 C 0.46912 0.64944 0.82027 0.0
C823 C 0.45858 0.64731 0.79011 0.0
C824 C 0.4571 0.65453 0.84804 0.0
C825 C 0.4342 0.65772 0.84648 0.0
C826 C 0.42356 0.65563 0.81638 0.0
C827 C 0.43561 0.65036 0.78849 0.0
H828 H 0.58732 0.18481 0.02224 0.0
H829 H 0.61933 0.23527 0.07879 0.0
H830 H 0.5757 0.16633 0.07189 0.0
H831 H 0.60929 0.21618 0.12829 0.0
H832 H 0.56534 0.1945 0.20996 0.0
H833 H 0.57943 0.21056 0.16068 0.0
H834 H 0.58394 0.14567 0.11771 0.0
H835 H 0.56826 0.12973 0.16696 0.0
C836 C 0.59217 0.19171 0.04536 0.0
C837 C 0.60393 0.2116 0.04677 0.0
C838 C 0.58568 0.18105 0.07388 0.0
C839 C 0.59128 0.1898 0.1044 0.0
C840 C 0.60398 0.20922 0.10547 0.0
C841 C 0.60991 0.22015 0.07705 0.0
C842 C 0.56951 0.18359 0.19013 0.0
C843 C 0.56572 0.16082 0.19239 0.0
C844 C 0.5778 0.19282 0.16175 0.0
C845 C 0.58308 0.1795 0.13496 0.0
C846 C 0.57977 0.15656 0.13753 0.0
C847 C 0.57098 0.14735 0.16585 0.0
H848 H 0.01465 0.64692 0.17294 0.0
H849 H 0.07625 0.64115 0.22489 0.0
H850 H 0.03458 0.65731 0.12431 0.0
H851 H 0.09626 0.65139 0.17576 0.0
H852 H 0.11715 0.69957 0.0918 0.0
H853 H 0.10097 0.68456 0.14119 0.0
H854 H 0.05973 0.64165 0.08388 0.0
H855 H 0.07563 0.6568 0.03453 0.0
C856 C 0.03247 0.64775 0.174 0.0
C857 C 0.04382 0.64323 0.20293 0.0
C858 C 0.04391 0.65354 0.14598 0.0
C859 C 0.06702 0.65504 0.14611 0.0
C860 C 0.07844 0.65048 0.17496 0.0
C861 C 0.06697 0.64454 0.20305 0.0
C862 C 0.10489 0.68667 0.08973 0.0
C863 C 0.0975 0.67957 0.05919 0.0
C864 C 0.09567 0.67803 0.11807 0.0
C865 C 0.07886 0.66214 0.11641 0.0
C866 C 0.07236 0.65419 0.08592 0.0
C867 C 0.08158 0.66279 0.05764 0.0
H868 H 0.59303 0.81299 0.28369 0.0
H869 H 0.55151 0.85792 0.33725 0.0
H870 H 0.60643 0.79741 0.33434 0.0
H871 H 0.56474 0.84205 0.38797 0.0
H872 H 0.60697 0.81829 0.47385 0.0
H873 H 0.59716 0.83707 0.42353 0.0
H874 H 0.58974 0.77411 0.37605 0.0
H875 H 0.59975 0.75536 0.42591 0.0
C876 C 0.5869 0.8197 0.30626 0.0
C877 C 0.57105 0.83658 0.30639 0.0
C878 C 0.59449 0.81066 0.33529 0.0
C879 C 0.58642 0.81829 0.36515 0.0
C880 C 0.57135 0.83588 0.36537 0.0
C881 C 0.56372 0.84492 0.33628 0.0
C882 C 0.60329 0.80845 0.45266 0.0
C883 C 0.60417 0.7853 0.45398 0.0
C884 C 0.59759 0.81923 0.42387 0.0
C885 C 0.59281 0.80709 0.39575 0.0
C886 C 0.5937 0.78397 0.39712 0.0
C887 C 0.59928 0.77321 0.42585 0.0
H888 H 0.38671 0.3009 0.58704 0.0
H889 H 0.43216 0.33894 0.52905 0.0
H890 H 0.40236 0.31689 0.63611 0.0
H891 H 0.4475 0.35518 0.57803 0.0
H892 H 0.48915 0.35327 0.67048 0.0
H893 H 0.47051 0.34116 0.62163 0.0
H894 H 0.40747 0.35066 0.66808 0.0
H895 H 0.42617 0.36253 0.71749 0.0
C896 C 0.39976 0.31296 0.58471 0.0
C897 C 0.40833 0.31847 0.55412 0.0
C898 C 0.40869 0.32218 0.61285 0.0
C899 C 0.42636 0.33711 0.611 0.0
C900 C 0.43419 0.3434 0.58032 0.0
C901 C 0.42529 0.33419 0.55222 0.0
C902 C 0.47131 0.35286 0.6704 0.0
C903 C 0.45919 0.35887 0.69804 0.0
C904 C 0.46061 0.34606 0.64221 0.0
C905 C 0.43749 0.34507 0.64086 0.0
C906 C 0.42531 0.35111 0.66843 0.0
C907 C 0.43604 0.35799 0.69669 0.0
H908 H 0.90887 0.17975 0.78083 0.0
H909 H 0.94797 0.13524 0.83893 0.0
H910 H 0.89363 0.19599 0.82987 0.0
H911 H 0.93295 0.15177 0.88801 0.0
H912 H 0.88878 0.17704 0.97016 0.0
H913 H 0.89967 0.15751 0.92101 0.0
H914 H 0.90877 0.21974 0.87204 0.0
H915 H 0.89763 0.23925 0.92072 0.0
C916 C 0.91405 0.17326 0.80404 0.0
C917 C 0.92979 0.15632 0.80594 0.0
C918 C 0.90542 0.18268 0.83216 0.0
C919 C 0.91231 0.17539 0.86284 0.0
C920 C 0.92722 0.1577 0.86476 0.0
C921 C 0.93587 0.14826 0.8366 0.0
C922 C 0.89304 0.18657 0.94888 0.0
C923 C 0.89233 0.20974 0.94946 0.0
C924 C 0.89935 0.17535 0.92076 0.0
C925 C 0.90497 0.18706 0.89257 0.0
C926 C 0.90417 0.21021 0.89316 0.0
C927 C 0.89795 0.2214 0.92122 0.0
H928 H 0.98051 0.62361 0.67587 0.0
H929 H 0.93164 0.65902 0.73101 0.0
H930 H 0.96241 0.63428 0.62586 0.0
H931 H 0.91413 0.67114 0.68069 0.0
H932 H 0.88008 0.68071 0.58331 0.0
H933 H 0.89377 0.66385 0.63326 0.0
H934 H 0.95998 0.66546 0.59452 0.0
H935 H 0.9462 0.68094 0.54466 0.0
C936 C 0.96587 0.6338 0.67718 0.0
C937 C 0.95758 0.6407 0.7072 0.0
C938 C 0.95555 0.64009 0.64849 0.0
C939 C 0.93703 0.65405 0.64898 0.0
C940 C 0.92823 0.66028 0.67922 0.0
C941 C 0.93831 0.65346 0.70809 0.0
C942 C 0.8975 0.67712 0.58546 0.0
C943 C 0.91202 0.68203 0.55994 0.0
C944 C 0.9054 0.66763 0.61418 0.0
C945 C 0.92802 0.66312 0.61808 0.0
C946 C 0.94239 0.66804 0.59233 0.0
C947 C 0.93448 0.67713 0.56363 0.0
H948 H 0.10204 0.14694 0.30092 0.0
H949 H 0.03516 0.15508 0.33497 0.0
H950 H 0.11566 0.1646 0.35052 0.0
H951 H 0.04882 0.173 0.38374 0.0
H952 H 0.08304 0.23264 0.43526 0.0
H953 H 0.07091 0.2115 0.38821 0.0
H954 H 0.11307 0.15761 0.41655 0.0
H955 H 0.12497 0.17855 0.46426 0.0
C956 C 0.0903 0.15226 0.31905 0.0
C957 C 0.06753 0.14969 0.31391 0.0
C958 C 0.09809 0.1623 0.34737 0.0
C959 C 0.08322 0.17028 0.37064 0.0
C960 C 0.06057 0.16713 0.36598 0.0
C961 C 0.0528 0.15676 0.33809 0.0
C962 C 0.08976 0.2163 0.4315 0.0
C963 C 0.1049 0.20723 0.45352 0.0
C964 C 0.08275 0.2042 0.40467 0.0
C965 C 0.09106 0.18297 0.39894 0.0
C966 C 0.1065 0.17399 0.42051 0.0
C967 C 0.11318 0.18592 0.4478 0.0
H968 H 0.61247 0.30275 0.09073 0.0
H969 H 0.56831 0.34452 0.0362 0.0
H970 H 0.59666 0.31657 0.14113 0.0
H971 H 0.55279 0.35852 0.0865 0.0
H972 H 0.50984 0.35207 0.1771 0.0
H973 H 0.52904 0.34205 0.12771 0.0
H974 H 0.59153 0.34904 0.17666 0.0
H975 H 0.57226 0.35888 0.2266 0.0
C976 C 0.59969 0.31517 0.08948 0.0
C977 C 0.59149 0.32235 0.05941 0.0
C978 C 0.59067 0.32313 0.11838 0.0
C979 C 0.57326 0.33841 0.1178 0.0
C980 C 0.56588 0.34642 0.08775 0.0
C981 C 0.57489 0.33849 0.05891 0.0
C982 C 0.52768 0.35152 0.17748 0.0
C983 C 0.53948 0.35629 0.20593 0.0
C984 C 0.5387 0.34594 0.149 0.0
C985 C 0.56183 0.34492 0.14816 0.0
C986 C 0.57369 0.34959 0.17658 0.0
C987 C 0.56264 0.35529 0.20515 0.0
H988 H 0.37359 0.77164 0.92153 0.0
H989 H 0.41461 0.81587 0.97667 0.0
H990 H 0.38303 0.79112 0.87207 0.0
H991 H 0.42567 0.8345 0.9268 0.0
H992 H 0.43449 0.87182 0.83288 0.0
H993 H 0.41841 0.85719 0.88272 0.0
H994 H 0.41177 0.7934 0.83688 0.0
H995 H 0.42628 0.80837 0.78718 0.0
C996 C 0.3848 0.78551 0.92291 0.0
C997 C 0.39356 0.79217 0.95273 0.0
C998 C 0.3904 0.79661 0.89451 0.0
C999 C 0.40555 0.8142 0.89505 0.0
C1000 C 0.4138 0.82124 0.92525 0.0
C1001 C 0.40763 0.81049 0.95386 0.0
C1002 C 0.4292 0.85478 0.83349 0.0
C1003 C 0.43155 0.84129 0.80607 0.0
C1004 C 0.42017 0.8463 0.86214 0.0
C1005 C 0.41369 0.82402 0.86412 0.0
C1006 C 0.41592 0.81074 0.83637 0.0
C1007 C 0.42445 0.81932 0.80772 0.0
H1008 H 0.88335 0.30094 0.90748 0.0
H1009 H 0.92536 0.34421 0.96313 0.0
H1010 H 0.89945 0.31515 0.8575 0.0
H1011 H 0.94115 0.35859 0.9132 0.0
H1012 H 0.98622 0.35161 0.82494 0.0
H1013 H 0.96607 0.34187 0.87354 0.0
H1014 H 0.90461 0.34771 0.82153 0.0
H1015 H 0.9249 0.35733 0.77226 0.0
C1016 C 0.8957 0.31379 0.90905 0.0
C1017 C 0.90328 0.32124 0.93933 0.0
C1018 C 0.90486 0.32197 0.88038 0.0
C1019 C 0.92179 0.33775 0.88143 0.0
C1020 C 0.92843 0.34611 0.91164 0.0
C1021 C 0.91929 0.33795 0.94025 0.0
C1022 C 0.96841 0.35087 0.82369 0.0
C1023 C 0.9572 0.35525 0.79457 0.0
C1024 C 0.95683 0.34547 0.85173 0.0
C1025 C 0.93372 0.34422 0.85149 0.0
C1026 C 0.92243 0.34848 0.82242 0.0
C1027 C 0.93405 0.35404 0.79425 0.0
H1028 H 0.44705 0.13452 0.66477 0.0
H1029 H 0.4068 0.17955 0.72021 0.0
H1030 H 0.43264 0.15028 0.6147 0.0
H1031 H 0.39222 0.19503 0.67019 0.0
H1032 H 0.3978 0.23709 0.5781 0.0
H1033 H 0.40824 0.21829 0.62774 0.0
H1034 H 0.3995 0.15536 0.58067 0.0
H1035 H 0.38926 0.17417 0.53059 0.0
C1036 C 0.43484 0.14749 0.6663 0.0
C1037 C 0.42824 0.15592 0.6965 0.0
C1038 C 0.42654 0.15648 0.63759 0.0
C1039 C 0.4115 0.17409 0.6385 0.0
C1040 C 0.40411 0.18176 0.6687 0.0
C1041 C 0.41237 0.17277 0.69737 0.0
C1042 C 0.39805 0.21924 0.57823 0.0
C1043 C 0.39271 0.20716 0.55026 0.0
C1044 C 0.40387 0.20846 0.60683 0.0
C1045 C 0.40457 0.18533 0.6082 0.0
C1046 C 0.39924 0.1732 0.5803 0.0
C1047 C 0.3933 0.184 0.55165 0.0
H1048 H 0.56574 0.65498 0.46899 0.0
H1049 H 0.61236 0.69419 0.41478 0.0
H1050 H 0.55018 0.64121 0.41854 0.0
H1051 H 0.59649 0.68068 0.36429 0.0
H1052 H 0.57132 0.63931 0.27877 0.0
H1053 H 0.59037 0.64851 0.32912 0.0
H1054 H 0.52764 0.65805 0.37646 0.0
H1055 H 0.50864 0.64861 0.32665 0.0
C1056 C 0.57283 0.66048 0.44633 0.0
C1057 C 0.59015 0.67584 0.44593 0.0
C1058 C 0.56381 0.6527 0.4174 0.0
C1059 C 0.57187 0.66011 0.3874 0.0
C1060 C 0.58996 0.67457 0.38698 0.0
C1061 C 0.59902 0.68236 0.41595 0.0
C1062 C 0.5616 0.64333 0.29995 0.0
C1063 C 0.53843 0.64321 0.29859 0.0
C1064 C 0.57253 0.64866 0.32876 0.0
C1065 C 0.56053 0.65387 0.35685 0.0
C1066 C 0.53739 0.65372 0.35544 0.0
C1067 C 0.52649 0.64848 0.32672 0.0
H1068 H 0.08946 0.81807 0.02509 0.0
H1069 H 0.12274 0.76827 0.08136 0.0
H1070 H 0.07659 0.83557 0.07484 0.0
H1071 H 0.11144 0.78644 0.13101 0.0
H1072 H 0.06534 0.80496 0.21173 0.0
H1073 H 0.08083 0.79028 0.16246 0.0
H1074 H 0.08317 0.85592 0.12162 0.0
H1075 H 0.06612 0.87045 0.17084 0.0
C1076 C 0.09435 0.81114 0.04818 0.0
C1077 C 0.1068 0.79167 0.04946 0.0
C1078 C 0.08712 0.82124 0.07677 0.0
C1079 C 0.09266 0.81234 0.10723 0.0
C1080 C 0.10613 0.79345 0.1082 0.0
C1081 C 0.1128 0.78307 0.07971 0.0
C1082 C 0.06932 0.81635 0.19238 0.0
C1083 C 0.06454 0.83889 0.19525 0.0
C1084 C 0.07842 0.80791 0.16401 0.0
C1085 C 0.08354 0.82184 0.13782 0.0
C1086 C 0.07919 0.84457 0.14097 0.0
C1087 C 0.0696 0.85297 0.16929 0.0
H1088 H 0.56923 0.84256 0.96822 0.0
H1089 H 0.6137 0.8018 0.91264 0.0
H1090 H 0.55344 0.85691 0.91828 0.0
H1091 H 0.59762 0.81596 0.86261 0.0
H1092 H 0.57322 0.85906 0.77823 0.0
H1093 H 0.59238 0.84872 0.828 0.0
H1094 H 0.5298 0.84107 0.87648 0.0
H1095 H 0.51068 0.85163 0.82718 0.0
C1096 C 0.57581 0.83682 0.94536 0.0
C1097 C 0.5926 0.82089 0.94445 0.0
C1098 C 0.56664 0.84494 0.91672 0.0
C1099 C 0.57405 0.83734 0.88647 0.0
C1100 C 0.5916 0.82223 0.88551 0.0
C1101 C 0.60078 0.81407 0.91421 0.0
C1102 C 0.56355 0.85523 0.79953 0.0
C1103 C 0.54038 0.8562 0.79863 0.0
C1104 C 0.57454 0.84923 0.82801 0.0
C1105 C 0.56263 0.8442 0.85625 0.0
C1106 C 0.5395 0.84522 0.85532 0.0
C1107 C 0.52852 0.85111 0.82691 0.0
H1108 H 0.44832 0.36615 0.1638 0.0
H1109 H 0.40757 0.32057 0.21747 0.0
H1110 H 0.43459 0.35071 0.11309 0.0
H1111 H 0.39367 0.30541 0.16686 0.0
H1112 H 0.40099 0.26356 0.07538 0.0
H1113 H 0.41081 0.28248 0.12506 0.0
H1114 H 0.40192 0.34529 0.07766 0.0
H1115 H 0.39223 0.3263 0.02738 0.0
C1116 C 0.43613 0.35314 0.16481 0.0
C1117 C 0.42922 0.34443 0.19471 0.0
C1118 C 0.42822 0.34433 0.13573 0.0
C1119 C 0.41328 0.32663 0.13597 0.0
C1120 C 0.40551 0.31875 0.16588 0.0
C1121 C 0.41338 0.32755 0.1949 0.0
C1122 C 0.40108 0.28141 0.07538 0.0
C1123 C 0.3958 0.29339 0.04728 0.0
C1124 C 0.40655 0.29227 0.10404 0.0
C1125 C 0.40695 0.31539 0.1054 0.0
C1126 C 0.40182 0.32745 0.07731 0.0
C1127 C 0.39622 0.31656 0.04856 0.0
H1128 H 0.87767 0.18445 0.41738 0.0
H1129 H 0.94285 0.17975 0.45872 0.0
H1130 H 0.89137 0.16822 0.36705 0.0
H1131 H 0.95679 0.16507 0.40849 0.0
H1132 H 0.97705 0.12527 0.32478 0.0
H1133 H 0.9588 0.13536 0.37492 0.0
H1134 H 0.91247 0.17527 0.32093 0.0
H1135 H 0.92997 0.16355 0.27045 0.0
C1136 C 0.89489 0.17992 0.41571 0.0
C1137 C 0.90913 0.18323 0.44209 0.0
C1138 C 0.90283 0.1708 0.38677 0.0
C1139 C 0.92525 0.16517 0.38346 0.0
C1140 C 0.93933 0.1685 0.4101 0.0
C1141 C 0.93134 0.17714 0.43905 0.0
C1142 C 0.96281 0.13602 0.32371 0.0
C1143 C 0.95501 0.14383 0.2939 0.0
C1144 C 0.95241 0.142 0.35248 0.0
C1145 C 0.93437 0.15661 0.35231 0.0
C1146 C 0.92615 0.16387 0.3222 0.0
C1147 C 0.93624 0.15731 0.29323 0.0
H1148 H 0.08503 0.72938 0.56579 0.0
H1149 H 0.12917 0.67669 0.5385 0.0
H1150 H 0.07254 0.70771 0.61217 0.0
H1151 H 0.11695 0.65525 0.58558 0.0
H1152 H 0.10446 0.64551 0.70156 0.0
H1153 H 0.11822 0.66316 0.65205 0.0
H1154 H 0.05177 0.66788 0.61568 0.0
H1155 H 0.03799 0.6499 0.66441 0.0
C1156 C 0.09214 0.71323 0.56979 0.0
C1157 C 0.10804 0.70471 0.54847 0.0
C1158 C 0.08493 0.70083 0.59621 0.0
C1159 C 0.09379 0.67986 0.60225 0.0
C1160 C 0.10993 0.67141 0.58135 0.0
C1161 C 0.11681 0.68363 0.55443 0.0
C1162 C 0.09285 0.64997 0.68275 0.0
C1163 C 0.07014 0.64638 0.68698 0.0
C1164 C 0.10073 0.66001 0.65448 0.0
C1165 C 0.08598 0.66698 0.63036 0.0
C1166 C 0.06341 0.66276 0.6341 0.0
C1167 C 0.05559 0.65237 0.66196 0.0
H1168 H 0.56992 0.15849 0.53828 0.0
H1169 H 0.61272 0.20091 0.59402 0.0
H1170 H 0.55392 0.14428 0.58813 0.0
H1171 H 0.59642 0.18685 0.64398 0.0
H1172 H 0.57196 0.14367 0.72856 0.0
H1173 H 0.59151 0.15417 0.67917 0.0
H1174 H 0.5294 0.16013 0.62891 0.0
H1175 H 0.50991 0.14944 0.6778 0.0
C1176 C 0.57609 0.16463 0.56116 0.0
C1177 C 0.59247 0.18099 0.56212 0.0
C1178 C 0.5668 0.15658 0.58975 0.0
C1179 C 0.57366 0.16467 0.62 0.0
C1180 C 0.59083 0.18021 0.62107 0.0
C1181 C 0.60013 0.18831 0.59242 0.0
C1182 C 0.56248 0.14717 0.70695 0.0
C1183 C 0.53934 0.14568 0.70722 0.0
C1184 C 0.5737 0.15326 0.67869 0.0
C1185 C 0.56203 0.15784 0.65006 0.0
C1186 C 0.53892 0.15633 0.65038 0.0
C1187 C 0.52772 0.15036 0.67856 0.0
H1188 H 0.10427 0.35443 0.80454 0.0
H1189 H 0.03727 0.34474 0.83714 0.0
H1190 H 0.11779 0.33659 0.85407 0.0
H1191 H 0.05083 0.32666 0.88586 0.0
H1192 H 0.0856 0.26742 0.93747 0.0
H1193 H 0.07339 0.28866 0.89054 0.0
H1194 H 0.11478 0.34291 0.91981 0.0
H1195 H 0.12675 0.32185 0.96738 0.0
C1196 C 0.09247 0.34873 0.82234 0.0
C1197 C 0.06971 0.35092 0.81682 0.0
C1198 C 0.10021 0.33859 0.85063 0.0
C1199 C 0.0853 0.33013 0.87348 0.0
C1200 C 0.06262 0.3329 0.86842 0.0
C1201 C 0.05491 0.34336 0.84057 0.0
C1202 C 0.09213 0.28386 0.93393 0.0
C1203 C 0.10708 0.29299 0.95617 0.0
C1204 C 0.08508 0.29602 0.90717 0.0
C1205 C 0.09314 0.31738 0.90174 0.0
C1206 C 0.10839 0.32643 0.92353 0.0
C1207 C 0.11512 0.31443 0.95075 0.0
H1208 H 0.87901 0.81997 0.07722 0.0
H1209 H 0.9446 0.81857 0.03686 0.0
H1210 H 0.89361 0.8362 0.12696 0.0
H1211 H 0.95938 0.83313 0.08668 0.0
H1212 H 0.98177 0.87334 0.16966 0.0
H1213 H 0.96395 0.86286 0.11933 0.0
H1214 H 0.91333 0.82877 0.17363 0.0
H1215 H 0.93046 0.84094 0.22399 0.0
C1216 C 0.89653 0.82314 0.07902 0.0
C1217 C 0.91062 0.81816 0.05308 0.0
C1218 C 0.90498 0.83224 0.10763 0.0
C1219 C 0.92777 0.8361 0.11113 0.0
C1220 C 0.94171 0.83109 0.08491 0.0
C1221 C 0.93322 0.82253 0.05621 0.0
C1222 C 0.96675 0.86372 0.17071 0.0
C1223 C 0.95757 0.85778 0.2006 0.0
C1224 C 0.95656 0.85752 0.14184 0.0
C1225 C 0.93729 0.84456 0.14209 0.0
C1226 C 0.92793 0.83896 0.17222 0.0
C1227 C 0.93782 0.84576 0.20116 0.0
H1228 H 0.37117 0.72488 0.42669 0.0
H1229 H 0.41654 0.68384 0.47977 0.0
H1230 H 0.38013 0.70543 0.37701 0.0
H1231 H 0.42695 0.6652 0.42951 0.0
H1232 H 0.43544 0.62839 0.33469 0.0
H1233 H 0.41963 0.64187 0.38543 0.0
H1234 H 0.40873 0.70547 0.34085 0.0
H1235 H 0.42316 0.69168 0.29037 0.0
C1236 C 0.38313 0.71163 0.42759 0.0
C1237 C 0.39333 0.70594 0.45686 0.0
C1238 C 0.38845 0.70057 0.39907 0.0
C1239 C 0.40472 0.68403 0.39886 0.0
C1240 C 0.41425 0.67771 0.42859 0.0
C1241 C 0.40842 0.68843 0.45742 0.0
C1242 C 0.42929 0.64513 0.33575 0.0
C1243 C 0.43048 0.65893 0.30845 0.0
C1244 C 0.42039 0.65294 0.36491 0.0
C1245 C 0.41278 0.67481 0.36748 0.0
C1246 C 0.4138 0.68839 0.33988 0.0
C1247 C 0.4223 0.6805 0.31078 0.0
H1248 H 0.43046 0.1194 0.20859 0.0
H1249 H 0.48462 0.16243 0.18368 0.0
H1250 H 0.41022 0.1322 0.16073 0.0
H1251 H 0.46417 0.17543 0.13644 0.0
H1252 H 0.40794 0.21215 0.08364 0.0
H1253 H 0.42589 0.19741 0.13174 0.0
H1254 H 0.41766 0.13135 0.09517 0.0
H1255 H 0.39998 0.14609 0.04626 0.0
C1256 C 0.43801 0.13159 0.19297 0.0
C1257 C 0.45911 0.13995 0.19992 0.0
C1258 C 0.42648 0.13879 0.16558 0.0
C1259 C 0.43565 0.15481 0.14512 0.0
C1260 C 0.45672 0.16314 0.15202 0.0
C1261 C 0.46843 0.15564 0.17896 0.0
C1262 C 0.4097 0.19445 0.08587 0.0
C1263 C 0.40261 0.18028 0.061 0.0
C1264 C 0.42009 0.18607 0.11336 0.0
C1265 C 0.42326 0.16331 0.11693 0.0
C1266 C 0.41535 0.14898 0.09288 0.0
C1267 C 0.40529 0.15741 0.06495 0.0
H1268 H 0.59438 0.6797 0.78636 0.0
H1269 H 0.54893 0.63899 0.84033 0.0
H1270 H 0.60828 0.69514 0.83677 0.0
H1271 H 0.56275 0.6547 0.89086 0.0
H1272 H 0.60562 0.67778 0.97704 0.0
H1273 H 0.59537 0.65836 0.92737 0.0
H1274 H 0.59198 0.72048 0.87658 0.0
H1275 H 0.60234 0.73982 0.92573 0.0
C1276 C 0.58751 0.67385 0.80898 0.0
C1277 C 0.57038 0.65827 0.80927 0.0
C1278 C 0.5954 0.68281 0.83787 0.0
C1279 C 0.58639 0.67638 0.86777 0.0
C1280 C 0.57008 0.65994 0.86822 0.0
C1281 C 0.56213 0.65098 0.83925 0.0
C1282 C 0.60274 0.68728 0.95525 0.0
C1283 C 0.60483 0.71038 0.95544 0.0
C1284 C 0.5968 0.67615 0.92685 0.0
C1285 C 0.59302 0.68787 0.89801 0.0
C1286 C 0.59515 0.71092 0.89825 0.0
C1287 C 0.60093 0.72203 0.92657 0.0
H1288 H 0.07168 0.85619 0.72684 0.0
H1289 H 0.00942 0.84696 0.67777 0.0
H1290 H 0.09115 0.84515 0.67774 0.0
H1291 H 0.02888 0.83568 0.62908 0.0
H1292 H 0.06912 0.83675 0.53766 0.0
H1293 H 0.05245 0.85117 0.5869 0.0
H1294 H 0.09712 0.812 0.64449 0.0
H1295 H 0.11409 0.79778 0.59517 0.0
C1296 C 0.06213 0.85179 0.70566 0.0
C1297 C 0.03895 0.85249 0.70632 0.0
C1298 C 0.07331 0.84538 0.67756 0.0
C1299 C 0.06158 0.83965 0.64946 0.0
C1300 C 0.03843 0.84035 0.65014 0.0
C1301 C 0.02726 0.84667 0.6782 0.0
C1302 C 0.0756 0.8314 0.56079 0.0
C1303 C 0.09284 0.81598 0.56245 0.0
C1304 C 0.06592 0.83956 0.58903 0.0
C1305 C 0.07326 0.83252 0.61961 0.0
C1306 C 0.09116 0.81784 0.62132 0.0
C1307 C 0.10084 0.80965 0.59303 0.0
H1308 H 0.89848 0.26127 0.42288 0.0
H1309 H 0.89032 0.32381 0.47157 0.0
H1310 H 0.90909 0.28041 0.37364 0.0
H1311 H 0.90071 0.343 0.42184 0.0
H1312 H 0.94785 0.36463 0.3377 0.0
H1313 H 0.93353 0.34851 0.3876 0.0
H1314 H 0.89339 0.30382 0.33155 0.0
H1315 H 0.90791 0.31963 0.28174 0.0
C1316 C 0.89883 0.27912 0.4231 0.0
C1317 C 0.89354 0.29097 0.4513 0.0
C1318 C 0.90477 0.2901 0.39471 0.0
C1319 C 0.90561 0.31324 0.39373 0.0
C1320 C 0.90035 0.32515 0.42188 0.0
C1321 C 0.89431 0.31414 0.45033 0.0
C1322 C 0.93571 0.35159 0.33601 0.0
C1323 C 0.92919 0.34327 0.30571 0.0
C1324 C 0.92747 0.34239 0.36464 0.0
C1325 C 0.91254 0.32468 0.36354 0.0
C1326 C 0.90521 0.31714 0.33322 0.0
C1327 C 0.91343 0.32632 0.30466 0.0
H1328 H 0.484 0.82757 0.30559 0.0
H1329 H 0.43216 0.87151 0.27432 0.0
H1330 H 0.46158 0.81645 0.35196 0.0
H1331 H 0.40997 0.86069 0.32139 0.0
H1332 H 0.39966 0.85226 0.43814 0.0
H1333 H 0.4174 0.86405 0.38765 0.0
H1334 H 0.42149 0.79633 0.35656 0.0
H1335 H 0.40338 0.7845 0.40632 0.0
C1336 C 0.46786 0.8349 0.30868 0.0
C1337 C 0.45982 0.85037 0.2863 0.0
C1338 C 0.45502 0.82846 0.33509 0.0
C1339 C 0.4341 0.83772 0.34006 0.0
C1340 C 0.42609 0.85337 0.31799 0.0
C1341 C 0.43873 0.85945 0.29109 0.0
C1342 C 0.40396 0.83995 0.42025 0.0
C1343 C 0.4002 0.81746 0.42631 0.0
C1344 C 0.41406 0.8467 0.39141 0.0
C1345 C 0.42092 0.83103 0.36852 0.0
C1346 C 0.41645 0.80867 0.37401 0.0
C1347 C 0.40598 0.80197 0.40244 0.0
H1348 H 0.95116 0.6379 0.15977 0.0
H1349 H 0.91224 0.68351 0.21619 0.0
H1350 H 0.93639 0.65389 0.11004 0.0
H1351 H 0.89728 0.6992 0.16659 0.0
H1352 H 0.90058 0.74089 0.07431 0.0
H1353 H 0.91222 0.72222 0.12347 0.0
H1354 H 0.90307 0.65919 0.07686 0.0
H1355 H 0.89165 0.67789 0.02724 0.0
C1356 C 0.93918 0.65107 0.1616 0.0
C1357 C 0.93304 0.65955 0.19198 0.0
C1358 C 0.93068 0.6602 0.13308 0.0
C1359 C 0.91586 0.67801 0.13434 0.0
C1360 C 0.909 0.6858 0.16476 0.0
C1361 C 0.91747 0.67668 0.19322 0.0
C1362 C 0.90099 0.72305 0.07443 0.0
C1363 C 0.89516 0.71093 0.04671 0.0
C1364 C 0.90753 0.71233 0.10277 0.0
C1365 C 0.90845 0.6892 0.10418 0.0
C1366 C 0.90267 0.67703 0.07649 0.0
C1367 C 0.89605 0.68777 0.04809 0.0
H1368 H 0.07 0.16007 0.96881 0.0
H1369 H 0.11456 0.19958 0.91141 0.0
H1370 H 0.05391 0.14505 0.91953 0.0
H1371 H 0.09817 0.18474 0.86205 0.0
H1372 H 0.07379 0.14009 0.77969 0.0
H1373 H 0.0929 0.15132 0.82903 0.0
H1374 H 0.03028 0.16009 0.87699 0.0
H1375 H 0.01119 0.14862 0.82808 0.0
C1376 C 0.07652 0.16541 0.94569 0.0
C1377 C 0.09346 0.18116 0.94407 0.0
C1378 C 0.06718 0.1569 0.91743 0.0
C1379 C 0.07456 0.16392 0.88687 0.0
C1380 C 0.09219 0.17891 0.88522 0.0
C1381 C 0.10153 0.18746 0.91353 0.0
C1382 C 0.06409 0.14435 0.80079 0.0
C1383 C 0.04093 0.14344 0.79986 0.0
C1384 C 0.07506 0.15087 0.82901 0.0
C1385 C 0.06312 0.1565 0.85697 0.0
C1386 C 0.03999 0.15551 0.85605 0.0
C1387 C 0.02903 0.14909 0.82786 0.0
H1388 H 0.60127 0.26338 0.57854 0.0
H1389 H 0.60806 0.32452 0.52567 0.0
H1390 H 0.59101 0.28381 0.62677 0.0
H1391 H 0.598 0.34502 0.57441 0.0
H1392 H 0.55071 0.36792 0.65789 0.0
H1393 H 0.56526 0.3509 0.60883 0.0
H1394 H 0.60675 0.30873 0.667 0.0
H1395 H 0.592 0.32545 0.71601 0.0
C1396 C 0.60069 0.2812 0.57719 0.0
C1397 C 0.60547 0.29227 0.54811 0.0
C1398 C 0.59497 0.29293 0.60499 0.0
C1399 C 0.59383 0.31606 0.60451 0.0
C1400 C 0.59862 0.3272 0.5755 0.0
C1401 C 0.60445 0.31544 0.54762 0.0
C1402 C 0.5632 0.35526 0.66021 0.0
C1403 C 0.57002 0.34787 0.6909 0.0
C1404 C 0.57158 0.34555 0.63206 0.0
C1405 C 0.58694 0.32825 0.63403 0.0
C1406 C 0.5946 0.32171 0.66469 0.0
C1407 C 0.58625 0.33141 0.69279 0.0
H1408 H 0.96302 0.4428 0.25511 0.0
H1409 H 0.02869 0.44905 0.21548 0.0
H1410 H 0.96213 0.48271 0.26459 0.0
H1411 H 0.02761 0.48846 0.22468 0.0
H1412 H 0.02962 0.55131 0.28321 0.0
H1413 H 0.02766 0.51195 0.27387 0.0
H1414 H 0.96274 0.51937 0.23258 0.0
H1415 H 0.96452 0.55924 0.24219 0.0
C1416 C 0.97722 0.45261 0.24844 0.0
C1417 C 0.99597 0.44266 0.23471 0.0
C1418 C 0.97662 0.47544 0.25363 0.0
C1419 C 0.99485 0.48863 0.2455 0.0
C1420 C 0.01343 0.47868 0.23156 0.0
C1421 C 0.01398 0.45604 0.2262 0.0
C1422 C 0.01485 0.5447 0.27214 0.0
C1423 C 0.99726 0.55853 0.2633 0.0
C1424 C 0.0138 0.52209 0.2667 0.0
C1425 C 0.99511 0.51262 0.25234 0.0
C1426 C 0.9773 0.52627 0.24385 0.0
C1427 C 0.97841 0.54907 0.24913 0.0
H1428 H 0.80374 0.70836 0.48089 0.0
H1429 H 0.80378 0.77598 0.51287 0.0
H1430 H 0.76373 0.70694 0.48706 0.0
H1431 H 0.76425 0.7743 0.52162 0.0
H1432 H 0.69255 0.77609 0.5009 0.0
H1433 H 0.73216 0.77507 0.49304 0.0
H1434 H 0.7327 0.70603 0.51957 0.0
H1435 H 0.69261 0.70693 0.52491 0.0
C1436 C 0.79516 0.72272 0.49005 0.0
C1437 C 0.80666 0.74232 0.49621 0.0
C1438 C 0.77223 0.72195 0.49369 0.0
C1439 C 0.76049 0.74065 0.5043 0.0
C1440 C 0.77243 0.75981 0.51221 0.0
C1441 C 0.79516 0.76074 0.50766 0.0
C1442 C 0.70118 0.76066 0.50464 0.0
C1443 C 0.68964 0.74161 0.51353 0.0
C1444 C 0.72397 0.76008 0.50058 0.0
C1445 C 0.73593 0.74058 0.5064 0.0
C1446 C 0.72418 0.72133 0.51459 0.0
C1447 C 0.70121 0.7218 0.51775 0.0
H1448 H 0.53515 0.44662 0.73965 0.0
H1449 H 0.46781 0.45345 0.77231 0.0
H1450 H 0.53674 0.48638 0.72958 0.0
H1451 H 0.46953 0.49286 0.76247 0.0
H1452 H 0.47201 0.55705 0.70611 0.0
H1453 H 0.47219 0.51748 0.71474 0.0
H1454 H 0.53559 0.52223 0.76162 0.0
H1455 H 0.53559 0.56214 0.7528 0.0
C1456 C 0.52069 0.45654 0.74457 0.0
C1457 C 0.50134 0.44681 0.75672 0.0
C1458 C 0.52167 0.4793 0.73904 0.0
C1459 C 0.50325 0.4927 0.7452 0.0
C1460 C 0.48392 0.48294 0.75716 0.0
C1461 C 0.48299 0.46032 0.76293 0.0
C1462 C 0.48606 0.54977 0.71824 0.0
C1463 C 0.50376 0.56286 0.72887 0.0
C1464 C 0.48609 0.52705 0.72328 0.0
C1465 C 0.50386 0.51677 0.73895 0.0
C1466 C 0.52174 0.52972 0.74925 0.0
C1467 C 0.52165 0.55257 0.74441 0.0
H1468 H 0.80297 0.2196 0.99347 0.0
H1469 H 0.80311 0.28837 0.01957 0.0
H1470 H 0.76343 0.22103 0.98464 0.0
H1471 H 0.76316 0.28964 0.0136 0.0
H1472 H 0.69263 0.28975 0.9756 0.0
H1473 H 0.73263 0.28998 0.9813 0.0
H1474 H 0.73066 0.22149 0.01073 0.0
H1475 H 0.69108 0.22107 0.00219 0.0
C1476 C 0.79438 0.23501 0.9975 0.0
C1477 C 0.80595 0.25387 0.00713 0.0
C1478 C 0.77163 0.23583 0.99289 0.0
C1479 C 0.75974 0.25536 0.99898 0.0
C1480 C 0.77157 0.27435 0.0082 0.0
C1481 C 0.79448 0.27367 0.01179 0.0
C1482 C 0.7009 0.27485 0.98341 0.0
C1483 C 0.68894 0.25537 0.98831 0.0
C1484 C 0.72384 0.27494 0.98684 0.0
C1485 C 0.7352 0.25567 0.99614 0.0
C1486 C 0.72283 0.23647 0.00242 0.0
C1487 C 0.70005 0.23624 0.99798 0.0
H1488 H 0.96995 0.44734 0.72018 0.0
H1489 H 0.03578 0.44075 0.75908 0.0
H1490 H 0.97102 0.48671 0.73034 0.0
H1491 H 0.0367 0.48052 0.76945 0.0
H1492 H 0.03556 0.5565 0.74637 0.0
H1493 H 0.03643 0.51663 0.73719 0.0
H1494 H 0.97151 0.51079 0.77903 0.0
H1495 H 0.97048 0.55031 0.78802 0.0
C1496 C 0.98467 0.45426 0.73097 0.0
C1497 C 0.00278 0.44084 0.73887 0.0
C1498 C 0.98521 0.47685 0.73692 0.0
C1499 C 0.00391 0.48665 0.75076 0.0
C1500 C 0.02213 0.47337 0.75854 0.0
C1501 C 0.02153 0.45062 0.75283 0.0
C1502 C 0.02147 0.54669 0.75356 0.0
C1503 C 0.00291 0.55664 0.7678 0.0
C1504 C 0.02206 0.52388 0.74853 0.0
C1505 C 0.00401 0.51066 0.75732 0.0
C1506 C 0.98556 0.5206 0.77169 0.0
C1507 C 0.98503 0.54328 0.77693 0.0
H1508 H 0.30559 0.28675 0.47629 0.0
H1509 H 0.30475 0.21857 0.50562 0.0
H1510 H 0.26551 0.28838 0.48157 0.0
H1511 H 0.26516 0.2204 0.51347 0.0
H1512 H 0.19363 0.21959 0.49303 0.0
H1513 H 0.2332 0.22051 0.48454 0.0
H1514 H 0.23436 0.289 0.51392 0.0
H1515 H 0.19429 0.28824 0.51981 0.0
C1516 C 0.29679 0.27229 0.48462 0.0
C1517 C 0.30808 0.2525 0.49033 0.0
C1518 C 0.27383 0.27318 0.48775 0.0
C1519 C 0.26184 0.2544 0.4974 0.0
C1520 C 0.27354 0.23499 0.50477 0.0
C1521 C 0.29631 0.23395 0.50073 0.0
C1522 C 0.2024 0.23489 0.49716 0.0
C1523 C 0.19107 0.25382 0.50707 0.0
C1524 C 0.22515 0.23541 0.49277 0.0
C1525 C 0.23728 0.25469 0.49933 0.0
C1526 C 0.22571 0.27387 0.50838 0.0
C1527 C 0.20275 0.27349 0.51184 0.0
H1528 H 0.5282 0.55152 0.21744 0.0
H1529 H 0.46256 0.55796 0.25708 0.0
H1530 H 0.52721 0.51215 0.22741 0.0
H1531 H 0.46174 0.51817 0.2673 0.0
H1532 H 0.46318 0.44199 0.24616 0.0
H1533 H 0.46197 0.48176 0.23604 0.0
H1534 H 0.5273 0.4884 0.27621 0.0
H1535 H 0.52868 0.44901 0.28608 0.0
C1536 C 0.51353 0.54458 0.22833 0.0
C1537 C 0.49547 0.55799 0.23657 0.0
C1538 C 0.51303 0.52197 0.23416 0.0
C1539 C 0.49445 0.51211 0.24827 0.0
C1540 C 0.47623 0.52535 0.2562 0.0
C1541 C 0.47677 0.54813 0.25056 0.0
C1542 C 0.47728 0.45195 0.25276 0.0
C1543 C 0.49606 0.44226 0.2668 0.0
C1544 C 0.47651 0.47472 0.24718 0.0
C1545 C 0.49457 0.48813 0.25523 0.0
C1546 C 0.51324 0.47844 0.26939 0.0
C1547 C 0.51396 0.45583 0.27515 0.0
H1548 H 0.19947 0.78296 0.97178 0.0
H1549 H 0.19367 0.71616 0.00731 0.0
H1550 H 0.23904 0.7817 0.98056 0.0
H1551 H 0.2335 0.71507 0.0163 0.0
H1552 H 0.30862 0.71579 0.99161 0.0
H1553 H 0.26871 0.71576 0.98326 0.0
H1554 H 0.26436 0.78003 0.02761 0.0
H1555 H 0.30399 0.78024 0.03576 0.0
C1556 C 0.2066 0.768 0.98155 0.0
C1557 C 0.19335 0.74966 0.98888 0.0
C1558 C 0.22929 0.76735 0.9867 0.0
C1559 C 0.23934 0.7483 0.99914 0.0
C1560 C 0.22619 0.7299 0.00643 0.0
C1561 C 0.20338 0.7306 0.0015 0.0
C1562 C 0.29915 0.72992 0.99952 0.0
C1563 C 0.30955 0.74804 0.01427 0.0
C1564 C 0.27629 0.72982 0.99494 0.0
C1565 C 0.26346 0.74791 0.00474 0.0
C1566 C 0.27386 0.76596 0.01949 0.0
C1567 C 0.29659 0.76601 0.02427 0.0
H1568 H 0.46476 0.9426 0.75753 0.0
H1569 H 0.53061 0.94927 0.71874 0.0
H1570 H 0.46366 0.98238 0.76749 0.0
H1571 H 0.52933 0.98868 0.72842 0.0
H1572 H 0.52978 0.05227 0.78634 0.0
H1573 H 0.52899 0.01284 0.77659 0.0
H1574 H 0.46364 0.01852 0.73612 0.0
H1575 H 0.46425 0.0583 0.74614 0.0
C1576 C 0.47897 0.95248 0.75116 0.0
C1577 C 0.4978 0.94269 0.73745 0.0
C1578 C 0.47826 0.97526 0.75664 0.0
C1579 C 0.49644 0.9886 0.74882 0.0
C1580 C 0.51517 0.9788 0.73507 0.0
C1581 C 0.51584 0.95617 0.7294 0.0
C1582 C 0.51519 0.04522 0.77535 0.0
C1583 C 0.49709 0.05853 0.76693 0.0
C1584 C 0.5148 0.02259 0.76965 0.0
C1585 C 0.49629 0.01262 0.75549 0.0
C1586 C 0.47807 0.02578 0.74729 0.0
C1587 C 0.4785 0.04856 0.7528 0.0
H1588 H 0.30772 0.21324 0.9775 0.0
H1589 H 0.30785 0.28153 0.00613 0.0
H1590 H 0.26772 0.21201 0.98372 0.0
H1591 H 0.26835 0.2801 0.01509 0.0
H1592 H 0.19629 0.28128 0.99722 0.0
H1593 H 0.2358 0.28034 0.98825 0.0
H1594 H 0.23687 0.2115 0.01593 0.0
H1595 H 0.19686 0.21231 0.02216 0.0
C1596 C 0.29915 0.22782 0.98591 0.0
C1597 C 0.3107 0.24751 0.99117 0.0
C1598 C 0.27622 0.22716 0.9896 0.0
C1599 C 0.26447 0.24607 0.99944 0.0
C1600 C 0.27647 0.2654 0.00629 0.0
C1601 C 0.29921 0.26621 0.00163 0.0
C1602 C 0.20503 0.26591 0.00091 0.0
C1603 C 0.19365 0.24688 0.01034 0.0
C1604 C 0.22778 0.26537 0.99625 0.0
C1605 C 0.23989 0.24595 0.00207 0.0
C1606 C 0.22827 0.22673 0.01087 0.0
C1607 C 0.20533 0.22715 0.01455 0.0
H1608 H 0.9663 0.05707 0.24899 0.0
H1609 H 0.03585 0.05693 0.22784 0.0
H1610 H 0.96729 0.01757 0.25812 0.0
H1611 H 0.03678 0.01696 0.23423 0.0
H1612 H 0.03496 0.94658 0.27393 0.0
H1613 H 0.0358 0.98653 0.2671 0.0
H1614 H 0.96856 0.98475 0.23206 0.0
H1615 H 0.96744 0.94528 0.24163 0.0
C1616 C 0.9818 0.04843 0.24608 0.0
C1617 C 0.00098 0.05993 0.23773 0.0
C1618 C 0.98238 0.02569 0.25088 0.0
C1619 C 0.00204 0.01372 0.2463 0.0
C1620 C 0.02136 0.02545 0.23839 0.0
C1621 C 0.02088 0.04837 0.23458 0.0
C1622 C 0.02048 0.95488 0.26461 0.0
C1623 C 0.0011 0.94303 0.25848 0.0
C1624 C 0.02093 0.97778 0.26054 0.0
C1625 C 0.00213 0.98918 0.24943 0.0
C1626 C 0.98313 0.97689 0.2418 0.0
C1627 C 0.98251 0.95417 0.24683 0.0
H1628 H 0.30936 0.71897 0.50844 0.0
H1629 H 0.3088 0.78921 0.52386 0.0
H1630 H 0.26969 0.71918 0.50114 0.0
H1631 H 0.26873 0.78946 0.51952 0.0
H1632 H 0.19821 0.7861 0.48109 0.0
H1633 H 0.23808 0.78741 0.48803 0.0
H1634 H 0.23676 0.7209 0.52616 0.0
H1635 H 0.19732 0.71925 0.51621 0.0
C1636 C 0.30058 0.73445 0.51061 0.0
C1637 C 0.31203 0.75406 0.51663 0.0
C1638 C 0.27773 0.7346 0.50687 0.0
C1639 C 0.26561 0.7543 0.51022 0.0
C1640 C 0.27728 0.77398 0.51621 0.0
C1641 C 0.30028 0.77389 0.51889 0.0
C1642 C 0.20659 0.7719 0.49117 0.0
C1643 C 0.19488 0.75256 0.49804 0.0
C1644 C 0.22947 0.77261 0.49532 0.0
C1645 C 0.24102 0.75415 0.50732 0.0
C1646 C 0.22883 0.73521 0.51576 0.0
C1647 C 0.20612 0.7343 0.51056 0.0
H1648 H 0.47315 0.05066 0.23499 0.0
H1649 H 0.53991 0.0506 0.27058 0.0
H1650 H 0.47513 0.01117 0.22591 0.0
H1651 H 0.54156 0.01061 0.26419 0.0
H1652 H 0.5428 0.93954 0.22619 0.0
H1653 H 0.54346 0.97961 0.23204 0.0
H1654 H 0.47363 0.97885 0.25354 0.0
H1655 H 0.47294 0.93929 0.24504 0.0
C1656 C 0.48827 0.04204 0.24089 0.0
C1657 C 0.50637 0.05352 0.2534 0.0
C1658 C 0.48936 0.01932 0.23619 0.0
C1659 C 0.50833 0.00735 0.24505 0.0
C1660 C 0.52672 0.0191 0.25678 0.0
C1661 C 0.52582 0.04203 0.26054 0.0
C1662 C 0.52771 0.94809 0.23238 0.0
C1663 C 0.5078 0.93649 0.23499 0.0
C1664 C 0.52803 0.97106 0.23583 0.0
C1665 C 0.50852 0.98277 0.24272 0.0
C1666 C 0.48887 0.97074 0.247 0.0
C1667 C 0.48846 0.94797 0.24261 0.0
H1668 H 0.80739 0.78629 0.00583 0.0
H1669 H 0.80072 0.71984 0.96934 0.0
H1670 H 0.76759 0.78752 0.01585 0.0
H1671 H 0.76135 0.72124 0.97902 0.0
H1672 H 0.69783 0.72122 0.03633 0.0
H1673 H 0.73725 0.72222 0.02704 0.0
H1674 H 0.73129 0.78697 0.98462 0.0
H1675 H 0.69143 0.78616 0.99422 0.0
C1676 C 0.79751 0.77197 1.00001 0.0
C1677 C 0.80731 0.75294 0.98691 0.0
C1678 C 0.77472 0.77275 0.0055 0.0
C1679 C 0.76139 0.75444 0.99831 0.0
C1680 C 0.77121 0.73551 0.98519 0.0
C1681 C 0.79383 0.73477 0.97953 0.0
C1682 C 0.70479 0.73574 0.02501 0.0
C1683 C 0.69136 0.75359 0.0159 0.0
C1684 C 0.72744 0.73624 0.01959 0.0
C1685 C 0.73735 0.75462 0.00497 0.0
C1686 C 0.72408 0.77265 0.99614 0.0
C1687 C 0.70127 0.7721 0.00141 0.0
H1688 H 0.03139 0.0536 0.75539 0.0
H1689 H 0.96254 0.05398 0.72974 0.0
H1690 H 0.02987 0.01408 0.76423 0.0
H1691 H 0.96117 0.014 0.73584 0.0
H1692 H 0.96135 0.94346 0.77493 0.0
H1693 H 0.96096 0.98343 0.76839 0.0
H1694 H 0.0292 0.98135 0.73787 0.0
H1695 H 0.0298 0.94184 0.74718 0.0
C1696 C 0.01593 0.04507 0.75147 0.0
C1697 C 0.9971 0.05672 0.74193 0.0
C1698 C 0.01506 0.02232 0.75608 0.0
C1699 C 0.99549 0.01049 0.75013 0.0
C1700 C 0.9765 0.02238 0.74107 0.0
C1701 C 0.97724 0.04531 0.73744 0.0
C1702 C 0.97615 0.95169 0.76664 0.0
C1703 C 0.99563 0.93973 0.76171 0.0
C1704 C 0.97597 0.97461 0.76275 0.0
C1705 C 0.99515 0.98594 0.75302 0.0
C1706 C 0.0143 0.97355 0.74655 0.0
C1707 C 0.01463 0.95081 0.75141 0.0
H1708 H 0.69125 0.21465 0.50965 0.0
H1709 H 0.69738 0.27951 0.46716 0.0
H1710 H 0.73122 0.21376 0.51836 0.0
H1711 H 0.73689 0.27843 0.47559 0.0
H1712 H 0.80088 0.28076 0.53187 0.0
H1713 H 0.76137 0.2793 0.52348 0.0
H1714 H 0.76721 0.21324 0.48568 0.0
H1715 H 0.80717 0.21453 0.49435 0.0
C1716 C 0.70105 0.22868 0.50221 0.0
C1717 C 0.69106 0.24719 0.48785 0.0
C1718 C 0.72392 0.22808 0.50696 0.0
C1719 C 0.73713 0.24606 0.49775 0.0
C1720 C 0.72711 0.26444 0.4833 0.0
C1721 C 0.70442 0.265 0.47837 0.0
C1722 C 0.79387 0.26586 0.52175 0.0
C1723 C 0.80728 0.24778 0.51366 0.0
C1724 C 0.77118 0.26509 0.51684 0.0
C1725 C 0.76122 0.2462 0.50381 0.0
C1726 C 0.77447 0.22796 0.49597 0.0
C1727 C 0.79734 0.22878 0.50069 0.0
loop_
_geom_bond_atom_site_label_1
_geom_bond_atom_site_label_2
_geom_bond_distance
_geom_bond_site_symmetry_2
_ccdc_geom_bond_type
Mg0 O1 2.028 . S
Mg0 O7 1.986 . S
Mg0 O9 2.114 . S
Mg0 O10 2.251 . S
Mg0 O13 2.010 1_455 S
O1 Mg0 2.028 . S
O1 C4 1.250 . S
O2 Mg3 2.028 . S
O2 C4 1.248 . S
Mg3 O2 2.028 . S
Mg3 O8 2.032 . S
Mg3 O10 2.079 . S
C4 O1 1.250 . S
C4 O2 1.248 . S
C5 O6 1.264 . S
C5 O13 1.249 . S
O6 C5 1.264 . S
O7 Mg0 1.986 . S
O7 C11 1.246 . S
O8 Mg3 2.032 . S
O8 C11 1.259 . S
O9 Mg0 2.114 . S
O9 C12 1.252 . S
O10 Mg0 2.251 . S
O10 Mg3 2.079 . S
O10 C12 1.273 . S
C11 O7 1.246 . S
C11 O8 1.259 . S
C12 O9 1.252 . S
C12 O10 1.273 . S
O13 Mg0 2.010 1_655 S
O13 C5 1.249 . S
Mg14 O15 2.028 . S
Mg14 O21 1.986 . S
Mg14 O23 2.114 . S
Mg14 O24 2.251 . S
Mg14 O27 2.010 . S
O15 Mg14 2.028 . S
O15 C18 1.250 . S
O16 Mg17 2.028 . S
O16 C18 1.248 . S
Mg17 O16 2.028 . S
Mg17 O22 2.032 . S
Mg17 O24 2.079 . S
C18 O15 1.250 . S
C18 O16 1.248 . S
C19 O20 1.264 . S
C19 O27 1.249 . S
O20 C19 1.264 . S
O21 Mg14 1.986 . S
O21 C25 1.246 . S
O22 Mg17 2.032 . S
O22 C25 1.259 . S
O23 Mg14 2.114 . S
O23 C26 1.252 . S
O24 Mg14 2.251 . S
O24 Mg17 2.079 . S
O24 C26 1.273 . S
C25 O21 1.246 . S
C25 O22 1.259 . S
C26 O23 1.252 . S
C26 O24 1.273 . S
O27 Mg14 2.010 . S
O27 C19 1.249 . S
Mg28 O29 2.028 . S
Mg28 O35 1.986 . S
Mg28 O37 2.114 . S
Mg28 O38 2.251 . S
Mg28 O41 2.010 . S
O29 Mg28 2.028 . S
O29 C32 1.250 . S
O30 Mg31 2.028 . S
O30 C32 1.248 . S
Mg31 O30 2.028 . S
Mg31 O36 2.032 . S
Mg31 O38 2.079 . S
C32 O29 1.250 . S
C32 O30 1.248 . S
C33 O34 1.264 . S
C33 O41 1.249 . S
O34 C33 1.264 . S
O35 Mg28 1.986 . S
O35 C39 1.246 . S
O36 Mg31 2.032 . S
O36 C39 1.259 . S
O37 Mg28 2.114 . S
O37 C40 1.252 . S
O38 Mg28 2.251 . S
O38 Mg31 2.079 . S
O38 C40 1.273 . S
C39 O35 1.246 . S
C39 O36 1.259 . S
C40 O37 1.252 . S
C40 O38 1.273 . S
O41 Mg28 2.010 . S
O41 C33 1.249 . S
Mg42 O43 2.028 . S
Mg42 O49 1.986 . S
Mg42 O51 2.114 1_554 S
Mg42 O52 2.251 1_554 S
Mg42 O55 2.010 . S
O43 Mg42 2.028 . S
O43 C46 1.250 . S
O44 Mg45 2.028 1_554 S
O44 C46 1.248 . S
Mg45 O44 2.028 1_556 S
Mg45 O50 2.032 1_556 S
Mg45 O52 2.079 . S
C46 O43 1.250 . S
C46 O44 1.248 . S
C47 O48 1.264 . S
C47 O55 1.249 . S
O48 C47 1.264 . S
O49 Mg42 1.986 . S
O49 C53 1.246 . S
O50 Mg45 2.032 1_554 S
O50 C53 1.259 . S
O51 Mg42 2.114 1_556 S
O51 C54 1.252 . S
O52 Mg42 2.251 1_556 S
O52 Mg45 2.079 . S
O52 C54 1.273 . S
C53 O49 1.246 . S
C53 O50 1.259 . S
C54 O51 1.252 . S
C54 O52 1.273 . S
O55 Mg42 2.010 . S
O55 C47 1.249 . S
Mg56 O57 2.028 . S
Mg56 O63 1.986 . S
Mg56 O65 2.114 . S
Mg56 O66 2.251 . S
Mg56 O69 2.010 1_455 S
O57 Mg56 2.028 . S
O57 C60 1.250 . S
O58 Mg59 2.028 . S
O58 C60 1.248 . S
Mg59 O58 2.028 . S
Mg59 O64 2.032 . S
Mg59 O66 2.079 . S
C60 O57 1.250 . S
C60 O58 1.248 . S
C61 O62 1.264 . S
C61 O69 1.249 . S
O62 C61 1.264 . S
O63 Mg56 1.986 . S
O63 C67 1.246 . S
O64 Mg59 2.032 . S
O64 C67 1.259 . S
O65 Mg56 2.114 . S
O65 C68 1.252 . S
O66 Mg56 2.251 . S
O66 Mg59 2.079 . S
O66 C68 1.273 . S
C67 O63 1.246 . S
C67 O64 1.259 . S
C68 O65 1.252 . S
C68 O66 1.273 . S
O69 Mg56 2.010 1_655 S
O69 C61 1.249 . S
Mg70 O71 2.028 . S
Mg70 O77 1.986 . S
Mg70 O79 2.114 . S
Mg70 O80 2.251 . S
Mg70 O83 2.010 . S
O71 Mg70 2.028 . S
O71 C74 1.250 . S
O72 Mg73 2.028 . S
O72 C74 1.248 . S
Mg73 O72 2.028 . S
Mg73 O78 2.032 . S
Mg73 O80 2.079 . S
C74 O71 1.250 . S
C74 O72 1.248 . S
C75 O76 1.264 . S
C75 O83 1.249 . S
O76 C75 1.264 . S
O77 Mg70 1.986 . S
O77 C81 1.246 . S
O78 Mg73 2.032 . S
O78 C81 1.259 . S
O79 Mg70 2.114 . S
O79 C82 1.252 . S
O80 Mg70 2.251 . S
O80 Mg73 2.079 . S
O80 C82 1.273 . S
C81 O77 1.246 . S
C81 O78 1.259 . S
C82 O79 1.252 . S
C82 O80 1.273 . S
O83 Mg70 2.010 . S
O83 C75 1.249 . S
Mg84 O85 2.028 . S
Mg84 O91 1.986 . S
Mg84 O93 2.114 . S
Mg84 O94 2.251 . S
Mg84 O97 2.010 . S
O85 Mg84 2.028 . S
O85 C88 1.250 . S
O86 Mg87 2.028 . S
O86 C88 1.248 . S
Mg87 O86 2.028 . S
Mg87 O92 2.032 . S
Mg87 O94 2.079 . S
C88 O85 1.250 . S
C88 O86 1.248 . S
C89 O90 1.264 . S
C89 O97 1.249 . S
O90 C89 1.264 . S
O91 Mg84 1.986 . S
O91 C95 1.246 . S
O92 Mg87 2.032 . S
O92 C95 1.259 . S
O93 Mg84 2.114 . S
O93 C96 1.252 . S
O94 Mg84 2.251 . S
O94 Mg87 2.079 . S
O94 C96 1.273 . S
C95 O91 1.246 . S
C95 O92 1.259 . S
C96 O93 1.252 . S
C96 O94 1.273 . S
O97 Mg84 2.010 . S
O97 C89 1.249 . S
Mg98 O99 2.028 . S
Mg98 O105 1.986 . S
Mg98 O107 2.114 1_556 S
Mg98 O108 2.251 1_556 S
Mg98 O111 2.010 . S
O99 Mg98 2.028 . S
O99 C102 1.250 . S
O100 Mg101 2.028 1_556 S
O100 C102 1.248 . S
Mg101 O100 2.028 1_554 S
Mg101 O106 2.032 1_554 S
Mg101 O108 2.079 . S
C102 O99 1.250 . S
C102 O100 1.248 . S
C103 O104 1.264 . S
C103 O111 1.249 . S
O104 C103 1.264 . S
O105 Mg98 1.986 . S
O105 C109 1.246 . S
O106 Mg101 2.032 1_556 S
O106 C109 1.259 . S
O107 Mg98 2.114 1_554 S
O107 C110 1.252 . S
O108 Mg98 2.251 1_554 S
O108 Mg101 2.079 . S
O108 C110 1.273 . S
C109 O105 1.246 . S
C109 O106 1.259 . S
C110 O107 1.252 . S
C110 O108 1.273 . S
O111 Mg98 2.010 . S
O111 C103 1.249 . S
Mg112 O113 2.028 . S
Mg112 O119 1.986 . S
Mg112 O121 2.114 . S
Mg112 O122 2.251 . S
Mg112 O125 2.010 1_655 S
O113 Mg112 2.028 . S
O113 C116 1.250 . S
O114 Mg115 2.028 . S
O114 C116 1.248 . S
Mg115 O114 2.028 . S
Mg115 O120 2.032 . S
Mg115 O122 2.079 . S
C116 O113 1.250 . S
C116 O114 1.248 . S
C117 O118 1.264 . S
C117 O125 1.249 . S
O118 C117 1.264 . S
O119 Mg112 1.986 . S
O119 C123 1.246 . S
O120 Mg115 2.032 . S
O120 C123 1.259 . S
O121 Mg112 2.114 . S
O121 C124 1.252 . S
O122 Mg112 2.251 . S
O122 Mg115 2.079 . S
O122 C124 1.273 . S
C123 O119 1.246 . S
C123 O120 1.259 . S
C124 O121 1.252 . S
C124 O122 1.273 . S
O125 Mg112 2.010 1_455 S
O125 C117 1.249 . S
Mg126 O127 2.028 . S
Mg126 O133 1.986 . S
Mg126 O135 2.114 . S
Mg126 O136 2.251 . S
Mg126 O139 2.010 . S
O127 Mg126 2.028 . S
O127 C130 1.250 . S
O128 Mg129 2.028 . S
O128 C130 1.248 . S
Mg129 O128 2.028 . S
Mg129 O134 2.032 . S
Mg129 O136 2.079 . S
C130 O127 1.250 . S
C130 O128 1.248 . S
C131 O132 1.264 . S
C131 O139 1.249 . S
O132 C131 1.264 . S
O133 Mg126 1.986 . S
O133 C137 1.246 . S
O134 Mg129 2.032 . S
O134 C137 1.259 . S
O135 Mg126 2.114 . S
O135 C138 1.252 . S
O136 Mg126 2.251 . S
O136 Mg129 2.079 . S
O136 C138 1.273 . S
C137 O133 1.246 . S
C137 O134 1.259 . S
C138 O135 1.252 . S
C138 O136 1.273 . S
O139 Mg126 2.010 . S
O139 C131 1.249 . S
Mg140 O141 2.028 . S
Mg140 O147 1.986 . S
Mg140 O149 2.114 . S
Mg140 O150 2.251 . S
Mg140 O153 2.010 . S
O141 Mg140 2.028 . S
O141 C144 1.250 . S
O142 Mg143 2.028 . S
O142 C144 1.248 . S
Mg143 O142 2.028 . S
Mg143 O148 2.032 . S
Mg143 O150 2.079 . S
C144 O141 1.250 . S
C144 O142 1.248 . S
C145 O146 1.264 . S
C145 O153 1.249 . S
O146 C145 1.264 . S
O147 Mg140 1.986 . S
O147 C151 1.246 . S
O148 Mg143 2.032 . S
O148 C151 1.259 . S
O149 Mg140 2.114 . S
O149 C152 1.252 . S
O150 Mg140 2.251 . S
O150 Mg143 2.079 . S
O150 C152 1.273 . S
C151 O147 1.246 . S
C151 O148 1.259 . S
C152 O149 1.252 . S
C152 O150 1.273 . S
O153 Mg140 2.010 . S
O153 C145 1.249 . S
Mg154 O155 2.028 . S
Mg154 O161 1.986 . S
Mg154 O163 2.114 1_556 S
Mg154 O164 2.251 1_556 S
Mg154 O167 2.010 . S
O155 Mg154 2.028 . S
O155 C158 1.250 . S
O156 Mg157 2.028 1_556 S
O156 C158 1.248 . S
Mg157 O156 2.028 1_554 S
Mg157 O162 2.032 1_554 S
Mg157 O164 2.079 . S
C158 O155 1.250 . S
C158 O156 1.248 . S
C159 O160 1.264 . S
C159 O167 1.249 . S
O160 C159 1.264 . S
O161 Mg154 1.986 . S
O161 C165 1.246 . S
O162 Mg157 2.032 1_556 S
O162 C165 1.259 . S
O163 Mg154 2.114 1_554 S
O163 C166 1.252 . S
O164 Mg154 2.251 1_554 S
O164 Mg157 2.079 . S
O164 C166 1.273 . S
C165 O161 1.246 . S
C165 O162 1.259 . S
C166 O163 1.252 . S
C166 O164 1.273 . S
O167 Mg154 2.010 . S
O167 C159 1.249 . S
Mg168 O169 2.028 . S
Mg168 O175 1.986 . S
Mg168 O177 2.114 . S
Mg168 O178 2.251 . S
Mg168 O181 2.010 1_655 S
O169 Mg168 2.028 . S
O169 C172 1.250 . S
O170 Mg171 2.028 . S
O170 C172 1.248 . S
Mg171 O170 2.028 . S
Mg171 O176 2.032 . S
Mg171 O178 2.079 . S
C172 O169 1.250 . S
C172 O170 1.248 . S
C173 O174 1.264 . S
C173 O181 1.249 . S
O174 C173 1.264 . S
O175 Mg168 1.986 . S
O175 C179 1.246 . S
O176 Mg171 2.032 . S
O176 C179 1.259 . S
O177 Mg168 2.114 . S
O177 C180 1.252 . S
O178 Mg168 2.251 . S
O178 Mg171 2.079 . S
O178 C180 1.273 . S
C179 O175 1.246 . S
C179 O176 1.259 . S
C180 O177 1.252 . S
C180 O178 1.273 . S
O181 Mg168 2.010 1_455 S
O181 C173 1.249 . S
Mg182 O183 2.028 . S
Mg182 O189 1.986 . S
Mg182 O191 2.114 . S
Mg182 O192 2.251 . S
Mg182 O195 2.010 . S
O183 Mg182 2.028 . S
O183 C186 1.250 . S
O184 Mg185 2.028 . S
O184 C186 1.248 . S
Mg185 O184 2.028 . S
Mg185 O190 2.032 . S
Mg185 O192 2.079 . S
C186 O183 1.250 . S
C186 O184 1.248 . S
C187 O188 1.264 . S
C187 O195 1.249 . S
O188 C187 1.264 . S
O189 Mg182 1.986 . S
O189 C193 1.246 . S
O190 Mg185 2.032 . S
O190 C193 1.259 . S
O191 Mg182 2.114 . S
O191 C194 1.252 . S
O192 Mg182 2.251 . S
O192 Mg185 2.079 . S
O192 C194 1.273 . S
C193 O189 1.246 . S
C193 O190 1.259 . S
C194 O191 1.252 . S
C194 O192 1.273 . S
O195 Mg182 2.010 . S
O195 C187 1.249 . S
Mg196 O197 2.028 . S
Mg196 O203 1.986 . S
Mg196 O205 2.114 . S
Mg196 O206 2.251 . S
Mg196 O209 2.010 . S
O197 Mg196 2.028 . S
O197 C200 1.250 . S
O198 Mg199 2.028 . S
O198 C200 1.248 . S
Mg199 O198 2.028 . S
Mg199 O204 2.032 . S
Mg199 O206 2.079 . S
C200 O197 1.250 . S
C200 O198 1.248 . S
C201 O202 1.264 . S
C201 O209 1.249 . S
O202 C201 1.264 . S
O203 Mg196 1.986 . S
O203 C207 1.246 . S
O204 Mg199 2.032 . S
O204 C207 1.259 . S
O205 Mg196 2.114 . S
O205 C208 1.252 . S
O206 Mg196 2.251 . S
O206 Mg199 2.079 . S
O206 C208 1.273 . S
C207 O203 1.246 . S
C207 O204 1.259 . S
C208 O205 1.252 . S
C208 O206 1.273 . S
O209 Mg196 2.010 . S
O209 C201 1.249 . S
Mg210 O211 2.028 . S
Mg210 O217 1.986 . S
Mg210 O219 2.114 1_554 S
Mg210 O220 2.251 1_554 S
Mg210 O223 2.010 . S
O211 Mg210 2.028 . S
O211 C214 1.250 . S
O212 Mg213 2.028 1_554 S
O212 C214 1.248 . S
Mg213 O212 2.028 1_556 S
Mg213 O218 2.032 1_556 S
Mg213 O220 2.079 . S
C214 O211 1.250 . S
C214 O212 1.248 . S
C215 O216 1.264 . S
C215 O223 1.249 . S
O216 C215 1.264 . S
O217 Mg210 1.986 . S
O217 C221 1.246 . S
O218 Mg213 2.032 1_554 S
O218 C221 1.259 . S
O219 Mg210 2.114 1_556 S
O219 C222 1.252 . S
O220 Mg210 2.251 1_556 S
O220 Mg213 2.079 . S
O220 C222 1.273 . S
C221 O217 1.246 . S
C221 O218 1.259 . S
C222 O219 1.252 . S
C222 O220 1.273 . S
O223 Mg210 2.010 . S
O223 C215 1.249 . S
Mg224 O225 2.028 . S
Mg224 O231 1.986 . S
Mg224 O233 2.114 . S
Mg224 O234 2.251 . S
Mg224 O237 2.010 . S
O225 Mg224 2.028 . S
O225 C228 1.250 . S
O226 Mg227 2.028 . S
O226 C228 1.248 . S
Mg227 O226 2.028 . S
Mg227 O232 2.032 . S
Mg227 O234 2.079 . S
C228 O225 1.250 . S
C228 O226 1.248 . S
C229 O230 1.264 . S
C229 O237 1.249 . S
O230 C229 1.264 . S
O231 Mg224 1.986 . S
O231 C235 1.246 . S
O232 Mg227 2.032 . S
O232 C235 1.259 . S
O233 Mg224 2.114 . S
O233 C236 1.252 . S
O234 Mg224 2.251 . S
O234 Mg227 2.079 . S
O234 C236 1.273 . S
C235 O231 1.246 . S
C235 O232 1.259 . S
C236 O233 1.252 . S
C236 O234 1.273 . S
O237 Mg224 2.010 . S
O237 C229 1.249 . S
Mg238 O239 2.028 . S
Mg238 O245 1.986 . S
Mg238 O247 2.114 1_554 S
Mg238 O248 2.251 1_554 S
Mg238 O251 2.010 . S
O239 Mg238 2.028 . S
O239 C242 1.250 . S
O240 Mg241 2.028 1_554 S
O240 C242 1.248 . S
Mg241 O240 2.028 1_556 S
Mg241 O246 2.032 1_556 S
Mg241 O248 2.079 . S
C242 O239 1.250 . S
C242 O240 1.248 . S
C243 O244 1.264 . S
C243 O251 1.249 . S
O244 C243 1.264 . S
O245 Mg238 1.986 . S
O245 C249 1.246 . S
O246 Mg241 2.032 1_554 S
O246 C249 1.259 . S
O247 Mg238 2.114 1_556 S
O247 C250 1.252 . S
O248 Mg238 2.251 1_556 S
O248 Mg241 2.079 . S
O248 C250 1.273 . S
C249 O245 1.246 . S
C249 O246 1.259 . S
C250 O247 1.252 . S
C250 O248 1.273 . S
O251 Mg238 2.010 . S
O251 C243 1.249 . S
Mg252 O253 2.028 . S
Mg252 O259 1.986 . S
Mg252 O261 2.114 . S
Mg252 O262 2.251 . S
Mg252 O265 2.010 1_655 S
O253 Mg252 2.028 . S
O253 C256 1.250 . S
O254 Mg255 2.028 . S
O254 C256 1.248 . S
Mg255 O254 2.028 . S
Mg255 O260 2.032 . S
Mg255 O262 2.079 . S
C256 O253 1.250 . S
C256 O254 1.248 . S
C257 O258 1.264 . S
C257 O265 1.249 . S
O258 C257 1.264 . S
O259 Mg252 1.986 . S
O259 C263 1.246 . S
O260 Mg255 2.032 . S
O260 C263 1.259 . S
O261 Mg252 2.114 . S
O261 C264 1.252 . S
O262 Mg252 2.251 . S
O262 Mg255 2.079 . S
O262 C264 1.273 . S
C263 O259 1.246 . S
C263 O260 1.259 . S
C264 O261 1.252 . S
C264 O262 1.273 . S
O265 Mg252 2.010 1_455 S
O265 C257 1.249 . S
Mg266 O267 2.028 . S
Mg266 O273 1.986 . S
Mg266 O275 2.114 . S
Mg266 O276 2.251 . S
Mg266 O279 2.010 . S
O267 Mg266 2.028 . S
O267 C270 1.250 . S
O268 Mg269 2.028 . S
O268 C270 1.248 . S
Mg269 O268 2.028 . S
Mg269 O274 2.032 . S
Mg269 O276 2.079 . S
C270 O267 1.250 . S
C270 O268 1.248 . S
C271 O272 1.264 . S
C271 O279 1.249 . S
O272 C271 1.264 . S
O273 Mg266 1.986 . S
O273 C277 1.246 . S
O274 Mg269 2.032 . S
O274 C277 1.259 . S
O275 Mg266 2.114 . S
O275 C278 1.252 . S
O276 Mg266 2.251 . S
O276 Mg269 2.079 . S
O276 C278 1.273 . S
C277 O273 1.246 . S
C277 O274 1.259 . S
C278 O275 1.252 . S
C278 O276 1.273 . S
O279 Mg266 2.010 . S
O279 C271 1.249 . S
Mg280 O281 2.028 . S
Mg280 O287 1.986 . S
Mg280 O289 2.114 . S
Mg280 O290 2.251 . S
Mg280 O293 2.010 . S
O281 Mg280 2.028 . S
O281 C284 1.250 . S
O282 Mg283 2.028 . S
O282 C284 1.248 . S
Mg283 O282 2.028 . S
Mg283 O288 2.032 . S
Mg283 O290 2.079 . S
C284 O281 1.250 . S
C284 O282 1.248 . S
C285 O286 1.264 . S
C285 O293 1.249 . S
O286 C285 1.264 . S
O287 Mg280 1.986 . S
O287 C291 1.246 . S
O288 Mg283 2.032 . S
O288 C291 1.259 . S
O289 Mg280 2.114 . S
O289 C292 1.252 . S
O290 Mg280 2.251 . S
O290 Mg283 2.079 . S
O290 C292 1.273 . S
C291 O287 1.246 . S
C291 O288 1.259 . S
C292 O289 1.252 . S
C292 O290 1.273 . S
O293 Mg280 2.010 . S
O293 C285 1.249 . S
Mg294 O295 2.028 . S
Mg294 O301 1.986 . S
Mg294 O303 2.114 1_556 S
Mg294 O304 2.251 1_556 S
Mg294 O307 2.010 . S
O295 Mg294 2.028 . S
O295 C298 1.250 . S
O296 Mg297 2.028 1_556 S
O296 C298 1.248 . S
Mg297 O296 2.028 1_554 S
Mg297 O302 2.032 1_554 S
Mg297 O304 2.079 . S
C298 O295 1.250 . S
C298 O296 1.248 . S
C299 O300 1.264 . S
C299 O307 1.249 . S
O300 C299 1.264 . S
O301 Mg294 1.986 . S
O301 C305 1.246 . S
O302 Mg297 2.032 1_556 S
O302 C305 1.259 . S
O303 Mg294 2.114 1_554 S
O303 C306 1.252 . S
O304 Mg294 2.251 1_554 S
O304 Mg297 2.079 . S
O304 C306 1.273 . S
C305 O301 1.246 . S
C305 O302 1.259 . S
C306 O303 1.252 . S
C306 O304 1.273 . S
O307 Mg294 2.010 . S
O307 C299 1.249 . S
Mg308 O309 2.028 . S
Mg308 O315 1.986 . S
Mg308 O317 2.114 . S
Mg308 O318 2.251 . S
Mg308 O321 2.010 1_655 S
O309 Mg308 2.028 . S
O309 C312 1.250 . S
O310 Mg311 2.028 . S
O310 C312 1.248 . S
Mg311 O310 2.028 . S
Mg311 O316 2.032 . S
Mg311 O318 2.079 . S
C312 O309 1.250 . S
C312 O310 1.248 . S
C313 O314 1.264 . S
C313 O321 1.249 . S
O314 C313 1.264 . S
O315 Mg308 1.986 . S
O315 C319 1.246 . S
O316 Mg311 2.032 . S
O316 C319 1.259 . S
O317 Mg308 2.114 . S
O317 C320 1.252 . S
O318 Mg308 2.251 . S
O318 Mg311 2.079 . S
O318 C320 1.273 . S
C319 O315 1.246 . S
C319 O316 1.259 . S
C320 O317 1.252 . S
C320 O318 1.273 . S
O321 Mg308 2.010 1_455 S
O321 C313 1.249 . S
Mg322 O323 2.028 . S
Mg322 O329 1.986 . S
Mg322 O331 2.114 . S
Mg322 O332 2.251 . S
Mg322 O335 2.010 . S
O323 Mg322 2.028 . S
O323 C326 1.250 . S
O324 Mg325 2.028 . S
O324 C326 1.248 . S
Mg325 O324 2.028 . S
Mg325 O330 2.032 . S
Mg325 O332 2.079 . S
C326 O323 1.250 . S
C326 O324 1.248 . S
C327 O328 1.264 . S
C327 O335 1.249 . S
O328 C327 1.264 . S
O329 Mg322 1.986 . S
O329 C333 1.246 . S
O330 Mg325 2.032 . S
O330 C333 1.259 . S
O331 Mg322 2.114 . S
O331 C334 1.252 . S
O332 Mg322 2.251 . S
O332 Mg325 2.079 . S
O332 C334 1.273 . S
C333 O329 1.246 . S
C333 O330 1.259 . S
C334 O331 1.252 . S
C334 O332 1.273 . S
O335 Mg322 2.010 . S
O335 C327 1.249 . S
Mg336 O337 2.028 . S
Mg336 O343 1.986 . S
Mg336 O345 2.114 . S
Mg336 O346 2.251 . S
Mg336 O349 2.010 . S
O337 Mg336 2.028 . S
O337 C340 1.250 . S
O338 Mg339 2.028 . S
O338 C340 1.248 . S
Mg339 O338 2.028 . S
Mg339 O344 2.032 . S
Mg339 O346 2.079 . S
C340 O337 1.250 . S
C340 O338 1.248 . S
C341 O342 1.264 . S
C341 O349 1.249 . S
O342 C341 1.264 . S
O343 Mg336 1.986 . S
O343 C347 1.246 . S
O344 Mg339 2.032 . S
O344 C347 1.259 . S
O345 Mg336 2.114 . S
O345 C348 1.252 . S
O346 Mg336 2.251 . S
O346 Mg339 2.079 . S
O346 C348 1.273 . S
C347 O343 1.246 . S
C347 O344 1.259 . S
C348 O345 1.252 . S
C348 O346 1.273 . S
O349 Mg336 2.010 . S
O349 C341 1.249 . S
Mg350 O351 2.028 . S
Mg350 O357 1.986 . S
Mg350 O359 2.114 1_556 S
Mg350 O360 2.251 1_556 S
Mg350 O363 2.010 . S
O351 Mg350 2.028 . S
O351 C354 1.250 . S
O352 Mg353 2.028 1_556 S
O352 C354 1.248 . S
Mg353 O352 2.028 1_554 S
Mg353 O358 2.032 1_554 S
Mg353 O360 2.079 . S
C354 O351 1.250 . S
C354 O352 1.248 . S
C355 O356 1.264 . S
C355 O363 1.249 . S
O356 C355 1.264 . S
O357 Mg350 1.986 . S
O357 C361 1.246 . S
O358 Mg353 2.032 1_556 S
O358 C361 1.259 . S
O359 Mg350 2.114 1_554 S
O359 C362 1.252 . S
O360 Mg350 2.251 1_554 S
O360 Mg353 2.079 . S
O360 C362 1.273 . S
C361 O357 1.246 . S
C361 O358 1.259 . S
C362 O359 1.252 . S
C362 O360 1.273 . S
O363 Mg350 2.010 . S
O363 C355 1.249 . S
Mg364 O365 2.028 . S
Mg364 O371 1.986 . S
Mg364 O373 2.114 . S
Mg364 O374 2.251 . S
Mg364 O377 2.010 1_455 S
O365 Mg364 2.028 . S
O365 C368 1.250 . S
O366 Mg367 2.028 . S
O366 C368 1.248 . S
Mg367 O366 2.028 . S
Mg367 O372 2.032 . S
Mg367 O374 2.079 . S
C368 O365 1.250 . S
C368 O366 1.248 . S
C369 O370 1.264 . S
C369 O377 1.249 . S
O370 C369 1.264 . S
O371 Mg364 1.986 . S
O371 C375 1.246 . S
O372 Mg367 2.032 . S
O372 C375 1.259 . S
O373 Mg364 2.114 . S
O373 C376 1.252 . S
O374 Mg364 2.251 . S
O374 Mg367 2.079 . S
O374 C376 1.273 . S
C375 O371 1.246 . S
C375 O372 1.259 . S
C376 O373 1.252 . S
C376 O374 1.273 . S
O377 Mg364 2.010 1_655 S
O377 C369 1.249 . S
Mg378 O379 2.028 . S
Mg378 O385 1.986 . S
Mg378 O387 2.114 . S
Mg378 O388 2.251 . S
Mg378 O391 2.010 . S
O379 Mg378 2.028 . S
O379 C382 1.250 . S
O380 Mg381 2.028 . S
O380 C382 1.248 . S
Mg381 O380 2.028 . S
Mg381 O386 2.032 . S
Mg381 O388 2.079 . S
C382 O379 1.250 . S
C382 O380 1.248 . S
C383 O384 1.264 . S
C383 O391 1.249 . S
O384 C383 1.264 . S
O385 Mg378 1.986 . S
O385 C389 1.246 . S
O386 Mg381 2.032 . S
O386 C389 1.259 . S
O387 Mg378 2.114 . S
O387 C390 1.252 . S
O388 Mg378 2.251 . S
O388 Mg381 2.079 . S
O388 C390 1.273 . S
C389 O385 1.246 . S
C389 O386 1.259 . S
C390 O387 1.252 . S
C390 O388 1.273 . S
O391 Mg378 2.010 . S
O391 C383 1.249 . S
Mg392 O393 2.028 . S
Mg392 O399 1.986 . S
Mg392 O401 2.114 . S
Mg392 O402 2.251 . S
Mg392 O405 2.010 . S
O393 Mg392 2.028 . S
O393 C396 1.250 . S
O394 Mg395 2.028 . S
O394 C396 1.248 . S
Mg395 O394 2.028 . S
Mg395 O400 2.032 . S
Mg395 O402 2.079 . S
C396 O393 1.250 . S
C396 O394 1.248 . S
C397 O398 1.264 . S
C397 O405 1.249 . S
O398 C397 1.264 . S
O399 Mg392 1.986 . S
O399 C403 1.246 . S
O400 Mg395 2.032 . S
O400 C403 1.259 . S
O401 Mg392 2.114 . S
O401 C404 1.252 . S
O402 Mg392 2.251 . S
O402 Mg395 2.079 . S
O402 C404 1.273 . S
C403 O399 1.246 . S
C403 O400 1.259 . S
C404 O401 1.252 . S
C404 O402 1.273 . S
O405 Mg392 2.010 . S
O405 C397 1.249 . S
Mg406 O407 2.028 . S
Mg406 O413 1.986 . S
Mg406 O415 2.114 1_554 S
Mg406 O416 2.251 1_554 S
Mg406 O419 2.010 . S
O407 Mg406 2.028 . S
O407 C410 1.250 . S
O408 Mg409 2.028 1_554 S
O408 C410 1.248 . S
Mg409 O408 2.028 1_556 S
Mg409 O414 2.032 1_556 S
Mg409 O416 2.079 . S
C410 O407 1.250 . S
C410 O408 1.248 . S
C411 O412 1.264 . S
C411 O419 1.249 . S
O412 C411 1.264 . S
O413 Mg406 1.986 . S
O413 C417 1.246 . S
O414 Mg409 2.032 1_554 S
O414 C417 1.259 . S
O415 Mg406 2.114 1_556 S
O415 C418 1.252 . S
O416 Mg406 2.251 1_556 S
O416 Mg409 2.079 . S
O416 C418 1.273 . S
C417 O413 1.246 . S
C417 O414 1.259 . S
C418 O415 1.252 . S
C418 O416 1.273 . S
O419 Mg406 2.010 . S
O419 C411 1.249 . S
Mg420 O421 2.028 . S
Mg420 O427 1.986 . S
Mg420 O429 2.114 . S
Mg420 O430 2.251 . S
Mg420 O433 2.010 1_455 S
O421 Mg420 2.028 . S
O421 C424 1.250 . S
O422 Mg423 2.028 . S
O422 C424 1.248 . S
Mg423 O422 2.028 . S
Mg423 O428 2.032 . S
Mg423 O430 2.079 . S
C424 O421 1.250 . S
C424 O422 1.248 . S
C425 O426 1.264 . S
C425 O433 1.249 . S
O426 C425 1.264 . S
O427 Mg420 1.986 . S
O427 C431 1.246 . S
O428 Mg423 2.032 . S
O428 C431 1.259 . S
O429 Mg420 2.114 . S
O429 C432 1.252 . S
O430 Mg420 2.251 . S
O430 Mg423 2.079 . S
O430 C432 1.273 . S
C431 O427 1.246 . S
C431 O428 1.259 . S
C432 O429 1.252 . S
C432 O430 1.273 . S
O433 Mg420 2.010 1_655 S
O433 C425 1.249 . S
Mg434 O435 2.028 . S
Mg434 O441 1.986 . S
Mg434 O443 2.114 . S
Mg434 O444 2.251 . S
Mg434 O447 2.010 . S
O435 Mg434 2.028 . S
O435 C438 1.250 . S
O436 Mg437 2.028 . S
O436 C438 1.248 . S
Mg437 O436 2.028 . S
Mg437 O442 2.032 . S
Mg437 O444 2.079 . S
C438 O435 1.250 . S
C438 O436 1.248 . S
C439 O440 1.264 . S
C439 O447 1.249 . S
O440 C439 1.264 . S
O441 Mg434 1.986 . S
O441 C445 1.246 . S
O442 Mg437 2.032 . S
O442 C445 1.259 . S
O443 Mg434 2.114 . S
O443 C446 1.252 . S
O444 Mg434 2.251 . S
O444 Mg437 2.079 . S
O444 C446 1.273 . S
C445 O441 1.246 . S
C445 O442 1.259 . S
C446 O443 1.252 . S
C446 O444 1.273 . S
O447 Mg434 2.010 . S
O447 C439 1.249 . S
H448 C456 0.950 . S
H449 C461 0.950 . S
H450 C458 0.950 . S
H451 C460 0.950 . S
H452 C462 0.950 . S
H453 C464 0.950 . S
H454 C466 0.950 . S
H455 C467 0.950 . S
C456 H448 0.950 . S
C456 C457 1.386 . S
C456 C458 1.391 . S
C457 C456 1.386 . S
C457 C461 1.393 . S
C458 H450 0.950 . S
C458 C456 1.391 . S
C458 C459 1.400 . S
C459 C458 1.400 . S
C459 C460 1.398 . S
C459 C465 1.491 . S
C460 H451 0.950 . S
C460 C459 1.398 . S
C460 C461 1.391 . S
C461 H449 0.950 . S
C461 C457 1.393 . S
C461 C460 1.391 . S
C462 H452 0.950 . S
C462 C463 1.386 . S
C462 C464 1.391 . S
C463 C462 1.386 . S
C463 C467 1.393 . S
C464 H453 0.950 . S
C464 C462 1.391 . S
C464 C465 1.400 . S
C465 C459 1.491 . S
C465 C464 1.400 . S
C465 C466 1.398 . S
C466 H454 0.950 . S
C466 C465 1.398 . S
C466 C467 1.391 . S
C467 H455 0.950 . S
C467 C463 1.393 . S
C467 C466 1.391 . S
H468 C476 0.950 . S
H469 C481 0.950 . S
H470 C478 0.950 . S
H471 C480 0.950 . S
H472 C482 0.950 . S
H473 C484 0.950 . S
H474 C486 0.950 . S
H475 C487 0.950 . S
C476 H468 0.950 . S
C476 C477 1.386 . S
C476 C478 1.391 . S
C477 C476 1.386 . S
C477 C481 1.393 . S
C478 H470 0.950 . S
C478 C476 1.391 . S
C478 C479 1.400 . S
C479 C478 1.400 . S
C479 C480 1.398 . S
C479 C485 1.491 . S
C480 H471 0.950 . S
C480 C479 1.398 . S
C480 C481 1.391 . S
C481 H469 0.950 . S
C481 C477 1.393 . S
C481 C480 1.391 . S
C482 H472 0.950 . S
C482 C483 1.386 . S
C482 C484 1.391 . S
C483 C482 1.386 . S
C483 C487 1.393 . S
C484 H473 0.950 . S
C484 C482 1.391 . S
C484 C485 1.400 . S
C485 C479 1.491 . S
C485 C484 1.400 . S
C485 C486 1.398 . S
C486 H474 0.950 . S
C486 C485 1.398 . S
C486 C487 1.391 . S
C487 H475 0.950 . S
C487 C483 1.393 . S
C487 C486 1.391 . S
H488 C496 0.950 . S
H489 C501 0.950 . S
H490 C498 0.950 . S
H491 C500 0.950 . S
H492 C502 0.950 . S
H493 C504 0.950 . S
H494 C506 0.950 . S
H495 C507 0.950 . S
C496 H488 0.950 . S
C496 C497 1.386 . S
C496 C498 1.391 . S
C497 C496 1.386 . S
C497 C501 1.393 . S
C498 H490 0.950 . S
C498 C496 1.391 . S
C498 C499 1.400 . S
C499 C498 1.400 . S
C499 C500 1.398 . S
C499 C505 1.491 . S
C500 H491 0.950 . S
C500 C499 1.398 . S
C500 C501 1.391 . S
C501 H489 0.950 . S
C501 C497 1.393 . S
C501 C500 1.391 . S
C502 H492 0.950 . S
C502 C503 1.386 . S
C502 C504 1.391 . S
C503 C502 1.386 . S
C503 C507 1.393 . S
C504 H493 0.950 . S
C504 C502 1.391 . S
C504 C505 1.400 . S
C505 C499 1.491 . S
C505 C504 1.400 . S
C505 C506 1.398 . S
C506 H494 0.950 . S
C506 C505 1.398 . S
C506 C507 1.391 . S
C507 H495 0.950 . S
C507 C503 1.393 . S
C507 C506 1.391 . S
H508 C516 0.950 . S
H509 C521 0.950 . S
H510 C518 0.950 . S
H511 C520 0.950 . S
H512 C522 0.950 . S
H513 C524 0.950 . S
H514 C526 0.950 . S
H515 C527 0.950 . S
C516 H508 0.950 . S
C516 C517 1.386 . S
C516 C518 1.391 . S
C517 C516 1.386 . S
C517 C521 1.393 . S
C518 H510 0.950 . S
C518 C516 1.391 . S
C518 C519 1.400 . S
C519 C518 1.400 . S
C519 C520 1.398 . S
C519 C525 1.491 . S
C520 H511 0.950 . S
C520 C519 1.398 . S
C520 C521 1.391 . S
C521 H509 0.950 . S
C521 C517 1.393 . S
C521 C520 1.391 . S
C522 H512 0.950 . S
C522 C523 1.386 . S
C522 C524 1.391 . S
C523 C522 1.386 . S
C523 C527 1.393 . S
C524 H513 0.950 . S
C524 C522 1.391 . S
C524 C525 1.400 . S
C525 C519 1.491 . S
C525 C524 1.400 . S
C525 C526 1.398 . S
C526 H514 0.950 . S
C526 C525 1.398 . S
C526 C527 1.391 . S
C527 H515 0.950 . S
C527 C523 1.393 . S
C527 C526 1.391 . S
H528 C536 0.950 . S
H529 C541 0.950 . S
H530 C538 0.950 . S
H531 C540 0.950 . S
H532 C542 0.950 . S
H533 C544 0.950 . S
H534 C546 0.950 . S
H535 C547 0.950 . S
C536 H528 0.950 . S
C536 C537 1.386 . S
C536 C538 1.391 . S
C537 C536 1.386 . S
C537 C541 1.393 . S
C538 H530 0.950 . S
C538 C536 1.391 . S
C538 C539 1.400 . S
C539 C538 1.400 . S
C539 C540 1.398 . S
C539 C545 1.491 . S
C540 H531 0.950 . S
C540 C539 1.398 . S
C540 C541 1.391 . S
C541 H529 0.950 . S
C541 C537 1.393 . S
C541 C540 1.391 . S
C542 H532 0.950 . S
C542 C543 1.386 . S
C542 C544 1.391 . S
C543 C542 1.386 . S
C543 C547 1.393 . S
C544 H533 0.950 . S
C544 C542 1.391 . S
C544 C545 1.400 . S
C545 C539 1.491 . S
C545 C544 1.400 . S
C545 C546 1.398 . S
C546 H534 0.950 . S
C546 C545 1.398 . S
C546 C547 1.391 . S
C547 H535 0.950 . S
C547 C543 1.393 . S
C547 C546 1.391 . S
H548 C556 0.950 . S
H549 C561 0.950 . S
H550 C558 0.950 . S
H551 C560 0.950 . S
H552 C562 0.950 . S
H553 C564 0.950 . S
H554 C566 0.950 . S
H555 C567 0.950 . S
C556 H548 0.950 . S
C556 C557 1.386 . S
C556 C558 1.391 . S
C557 C556 1.386 . S
C557 C561 1.393 . S
C558 H550 0.950 . S
C558 C556 1.391 . S
C558 C559 1.400 . S
C559 C558 1.400 . S
C559 C560 1.398 . S
C559 C565 1.491 . S
C560 H551 0.950 . S
C560 C559 1.398 . S
C560 C561 1.391 . S
C561 H549 0.950 . S
C561 C557 1.393 . S
C561 C560 1.391 . S
C562 H552 0.950 . S
C562 C563 1.386 . S
C562 C564 1.391 . S
C563 C562 1.386 . S
C563 C567 1.393 . S
C564 H553 0.950 . S
C564 C562 1.391 . S
C564 C565 1.400 . S
C565 C559 1.491 . S
C565 C564 1.400 . S
C565 C566 1.398 . S
C566 H554 0.950 . S
C566 C565 1.398 . S
C566 C567 1.391 . S
C567 H555 0.950 . S
C567 C563 1.393 . S
C567 C566 1.391 . S
H568 C576 0.950 . S
H569 C581 0.950 . S
H570 C578 0.950 . S
H571 C580 0.950 . S
H572 C582 0.950 . S
H573 C584 0.950 . S
H574 C586 0.950 . S
H575 C587 0.950 . S
C576 H568 0.950 . S
C576 C577 1.386 . S
C576 C578 1.391 . S
C577 C576 1.386 . S
C577 C581 1.393 . S
C578 H570 0.950 . S
C578 C576 1.391 . S
C578 C579 1.400 . S
C579 C578 1.400 . S
C579 C580 1.398 . S
C579 C585 1.491 . S
C580 H571 0.950 . S
C580 C579 1.398 . S
C580 C581 1.391 . S
C581 H569 0.950 . S
C581 C577 1.393 . S
C581 C580 1.391 . S
C582 H572 0.950 . S
C582 C583 1.386 . S
C582 C584 1.391 . S
C583 C582 1.386 . S
C583 C587 1.393 . S
C584 H573 0.950 . S
C584 C582 1.391 . S
C584 C585 1.400 . S
C585 C579 1.491 . S
C585 C584 1.400 . S
C585 C586 1.398 . S
C586 H574 0.950 . S
C586 C585 1.398 . S
C586 C587 1.391 . S
C587 H575 0.950 . S
C587 C583 1.393 . S
C587 C586 1.391 . S
H588 C596 0.950 . S
H589 C601 0.950 . S
H590 C598 0.950 . S
H591 C600 0.950 . S
H592 C602 0.950 . S
H593 C604 0.950 . S
H594 C606 0.950 . S
H595 C607 0.950 . S
C596 H588 0.950 . S
C596 C597 1.386 . S
C596 C598 1.391 . S
C597 C596 1.386 . S
C597 C601 1.393 . S
C598 H590 0.950 . S
C598 C596 1.391 . S
C598 C599 1.400 . S
C599 C598 1.400 . S
C599 C600 1.398 . S
C599 C605 1.491 . S
C600 H591 0.950 . S
C600 C599 1.398 . S
C600 C601 1.391 . S
C601 H589 0.950 . S
C601 C597 1.393 . S
C601 C600 1.391 . S
C602 H592 0.950 . S
C602 C603 1.386 . S
C602 C604 1.391 . S
C603 C602 1.386 . S
C603 C607 1.393 . S
C604 H593 0.950 . S
C604 C602 1.391 . S
C604 C605 1.400 . S
C605 C599 1.491 . S
C605 C604 1.400 . S
C605 C606 1.398 . S
C606 H594 0.950 . S
C606 C605 1.398 . S
C606 C607 1.391 . S
C607 H595 0.950 . S
C607 C603 1.393 . S
C607 C606 1.391 . S
H608 C616 0.950 . S
H609 C621 0.950 . S
H610 C618 0.950 . S
H611 C620 0.950 . S
H612 C622 0.950 . S
H613 C624 0.950 . S
H614 C626 0.950 . S
H615 C627 0.950 . S
C616 H608 0.950 . S
C616 C617 1.386 . S
C616 C618 1.391 . S
C617 C616 1.386 . S
C617 C621 1.393 . S
C618 H610 0.950 . S
C618 C616 1.391 . S
C618 C619 1.400 . S
C619 C618 1.400 . S
C619 C620 1.398 . S
C619 C625 1.491 . S
C620 H611 0.950 . S
C620 C619 1.398 . S
C620 C621 1.391 . S
C621 H609 0.950 . S
C621 C617 1.393 . S
C621 C620 1.391 . S
C622 H612 0.950 . S
C622 C623 1.386 . S
C622 C624 1.391 . S
C623 C622 1.386 . S
C623 C627 1.393 . S
C624 H613 0.950 . S
C624 C622 1.391 . S
C624 C625 1.400 . S
C625 C619 1.491 . S
C625 C624 1.400 . S
C625 C626 1.398 . S
C626 H614 0.950 . S
C626 C625 1.398 . S
C626 C627 1.391 . S
C627 H615 0.950 . S
C627 C623 1.393 . S
C627 C626 1.391 . S
H628 C636 0.950 . S
H629 C641 0.950 . S
H630 C638 0.950 . S
H631 C640 0.950 . S
H632 C642 0.950 . S
H633 C644 0.950 . S
H634 C646 0.950 . S
H635 C647 0.950 . S
C636 H628 0.950 . S
C636 C637 1.386 . S
C636 C638 1.391 . S
C637 C636 1.386 . S
C637 C641 1.393 . S
C638 H630 0.950 . S
C638 C636 1.391 . S
C638 C639 1.400 . S
C639 C638 1.400 . S
C639 C640 1.398 . S
C639 C645 1.491 . S
C640 H631 0.950 . S
C640 C639 1.398 . S
C640 C641 1.391 . S
C641 H629 0.950 . S
C641 C637 1.393 . S
C641 C640 1.391 . S
C642 H632 0.950 . S
C642 C643 1.386 . S
C642 C644 1.391 . S
C643 C642 1.386 . S
C643 C647 1.393 . S
C644 H633 0.950 . S
C644 C642 1.391 . S
C644 C645 1.400 . S
C645 C639 1.491 . S
C645 C644 1.400 . S
C645 C646 1.398 . S
C646 H634 0.950 . S
C646 C645 1.398 . S
C646 C647 1.391 . S
C647 H635 0.950 . S
C647 C643 1.393 . S
C647 C646 1.391 . S
H648 C656 0.950 . S
H649 C661 0.950 . S
H650 C658 0.950 . S
H651 C660 0.950 . S
H652 C662 0.950 . S
H653 C664 0.950 . S
H654 C666 0.950 . S
H655 C667 0.950 . S
C656 H648 0.950 . S
C656 C657 1.386 . S
C656 C658 1.391 . S
C657 C656 1.386 . S
C657 C661 1.393 . S
C658 H650 0.950 . S
C658 C656 1.391 . S
C658 C659 1.400 . S
C659 C658 1.400 . S
C659 C660 1.398 . S
C659 C665 1.491 . S
C660 H651 0.950 . S
C660 C659 1.398 . S
C660 C661 1.391 . S
C661 H649 0.950 . S
C661 C657 1.393 . S
C661 C660 1.391 . S
C662 H652 0.950 . S
C662 C663 1.386 . S
C662 C664 1.391 . S
C663 C662 1.386 . S
C663 C667 1.393 . S
C664 H653 0.950 . S
C664 C662 1.391 . S
C664 C665 1.400 . S
C665 C659 1.491 . S
C665 C664 1.400 . S
C665 C666 1.398 . S
C666 H654 0.950 . S
C666 C665 1.398 . S
C666 C667 1.391 . S
C667 H655 0.950 . S
C667 C663 1.393 . S
C667 C666 1.391 . S
H668 C676 0.950 . S
H669 C681 0.950 . S
H670 C678 0.950 . S
H671 C680 0.950 . S
H672 C682 0.950 . S
H673 C684 0.950 . S
H674 C686 0.950 . S
H675 C687 0.950 . S
C676 H668 0.950 . S
C676 C677 1.386 . S
C676 C678 1.391 . S
C677 C676 1.386 . S
C677 C681 1.393 . S
C678 H670 0.950 . S
C678 C676 1.391 . S
C678 C679 1.400 . S
C679 C678 1.400 . S
C679 C680 1.398 . S
C679 C685 1.491 . S
C680 H671 0.950 . S
C680 C679 1.398 . S
C680 C681 1.391 . S
C681 H669 0.950 . S
C681 C677 1.393 . S
C681 C680 1.391 . S
C682 H672 0.950 . S
C682 C683 1.386 . S
C682 C684 1.391 . S
C683 C682 1.386 . S
C683 C687 1.393 . S
C684 H673 0.950 . S
C684 C682 1.391 . S
C684 C685 1.400 . S
C685 C679 1.491 . S
C685 C684 1.400 . S
C685 C686 1.398 . S
C686 H674 0.950 . S
C686 C685 1.398 . S
C686 C687 1.391 . S
C687 H675 0.950 . S
C687 C683 1.393 . S
C687 C686 1.391 . S
H688 C696 0.950 . S
H689 C701 0.950 . S
H690 C698 0.950 . S
H691 C700 0.950 . S
H692 C702 0.950 . S
H693 C704 0.950 . S
H694 C706 0.950 . S
H695 C707 0.950 . S
C696 H688 0.950 . S
C696 C697 1.386 . S
C696 C698 1.391 . S
C697 C696 1.386 . S
C697 C701 1.393 . S
C698 H690 0.950 . S
C698 C696 1.391 . S
C698 C699 1.400 . S
C699 C698 1.400 . S
C699 C700 1.398 . S
C699 C705 1.491 . S
C700 H691 0.950 . S
C700 C699 1.398 . S
C700 C701 1.391 . S
C701 H689 0.950 . S
C701 C697 1.393 . S
C701 C700 1.391 . S
C702 H692 0.950 . S
C702 C703 1.386 . S
C702 C704 1.391 . S
C703 C702 1.386 . S
C703 C707 1.393 . S
C704 H693 0.950 . S
C704 C702 1.391 . S
C704 C705 1.400 . S
C705 C699 1.491 . S
C705 C704 1.400 . S
C705 C706 1.398 . S
C706 H694 0.950 . S
C706 C705 1.398 . S
C706 C707 1.391 . S
C707 H695 0.950 . S
C707 C703 1.393 . S
C707 C706 1.391 . S
H708 C716 0.950 . S
H709 C721 0.950 . S
H710 C718 0.950 . S
H711 C720 0.950 . S
H712 C722 0.950 . S
H713 C724 0.950 . S
H714 C726 0.950 . S
H715 C727 0.950 . S
C716 H708 0.950 . S
C716 C717 1.386 . S
C716 C718 1.391 . S
C717 C716 1.386 . S
C717 C721 1.393 . S
C718 H710 0.950 . S
C718 C716 1.391 . S
C718 C719 1.400 . S
C719 C718 1.400 . S
C719 C720 1.398 . S
C719 C725 1.491 . S
C720 H711 0.950 . S
C720 C719 1.398 . S
C720 C721 1.391 . S
C721 H709 0.950 . S
C721 C717 1.393 . S
C721 C720 1.391 . S
C722 H712 0.950 . S
C722 C723 1.386 . S
C722 C724 1.391 . S
C723 C722 1.386 . S
C723 C727 1.393 . S
C724 H713 0.950 . S
C724 C722 1.391 . S
C724 C725 1.400 . S
C725 C719 1.491 . S
C725 C724 1.400 . S
C725 C726 1.398 . S
C726 H714 0.950 . S
C726 C725 1.398 . S
C726 C727 1.391 . S
C727 H715 0.950 . S
C727 C723 1.393 . S
C727 C726 1.391 . S
H728 C736 0.950 . S
H729 C741 0.950 . S
H730 C738 0.950 . S
H731 C740 0.950 . S
H732 C742 0.950 . S
H733 C744 0.950 . S
H734 C746 0.950 . S
H735 C747 0.950 . S
C736 H728 0.950 . S
C736 C737 1.386 . S
C736 C738 1.391 . S
C737 C736 1.386 . S
C737 C741 1.393 . S
C738 H730 0.950 . S
C738 C736 1.391 . S
C738 C739 1.400 . S
C739 C738 1.400 . S
C739 C740 1.398 . S
C739 C745 1.491 . S
C740 H731 0.950 . S
C740 C739 1.398 . S
C740 C741 1.391 . S
C741 H729 0.950 . S
C741 C737 1.393 . S
C741 C740 1.391 . S
C742 H732 0.950 . S
C742 C743 1.386 . S
C742 C744 1.391 . S
C743 C742 1.386 . S
C743 C747 1.393 . S
C744 H733 0.950 . S
C744 C742 1.391 . S
C744 C745 1.400 . S
C745 C739 1.491 . S
C745 C744 1.400 . S
C745 C746 1.398 . S
C746 H734 0.950 . S
C746 C745 1.398 . S
C746 C747 1.391 . S
C747 H735 0.950 . S
C747 C743 1.393 . S
C747 C746 1.391 . S
H748 C756 0.950 . S
H749 C761 0.950 . S
H750 C758 0.950 . S
H751 C760 0.950 . S
H752 C762 0.950 . S
H753 C764 0.950 . S
H754 C766 0.950 . S
H755 C767 0.950 . S
C756 H748 0.950 . S
C756 C757 1.386 . S
C756 C758 1.391 . S
C757 C756 1.386 . S
C757 C761 1.393 . S
C758 H750 0.950 . S
C758 C756 1.391 . S
C758 C759 1.400 . S
C759 C758 1.400 . S
C759 C760 1.398 . S
C759 C765 1.491 . S
C760 H751 0.950 . S
C760 C759 1.398 . S
C760 C761 1.391 . S
C761 H749 0.950 . S
C761 C757 1.393 . S
C761 C760 1.391 . S
C762 H752 0.950 . S
C762 C763 1.386 . S
C762 C764 1.391 . S
C763 C762 1.386 . S
C763 C767 1.393 . S
C764 H753 0.950 . S
C764 C762 1.391 . S
C764 C765 1.400 . S
C765 C759 1.491 . S
C765 C764 1.400 . S
C765 C766 1.398 . S
C766 H754 0.950 . S
C766 C765 1.398 . S
C766 C767 1.391 . S
C767 H755 0.950 . S
C767 C763 1.393 . S
C767 C766 1.391 . S
H768 C776 0.950 . S
H769 C781 0.950 . S
H770 C778 0.950 . S
H771 C780 0.950 . S
H772 C782 0.950 . S
H773 C784 0.950 . S
H774 C786 0.950 . S
H775 C787 0.950 . S
C776 H768 0.950 . S
C776 C777 1.386 . S
C776 C778 1.391 . S
C777 C776 1.386 . S
C777 C781 1.393 . S
C778 H770 0.950 . S
C778 C776 1.391 . S
C778 C779 1.400 . S
C779 C778 1.400 . S
C779 C780 1.398 . S
C779 C785 1.491 . S
C780 H771 0.950 . S
C780 C779 1.398 . S
C780 C781 1.391 . S
C781 H769 0.950 . S
C781 C777 1.393 . S
C781 C780 1.391 . S
C782 H772 0.950 . S
C782 C783 1.386 . S
C782 C784 1.391 . S
C783 C782 1.386 . S
C783 C787 1.393 . S
C784 H773 0.950 . S
C784 C782 1.391 . S
C784 C785 1.400 . S
C785 C779 1.491 . S
C785 C784 1.400 . S
C785 C786 1.398 . S
C786 H774 0.950 . S
C786 C785 1.398 . S
C786 C787 1.391 . S
C787 H775 0.950 . S
C787 C783 1.393 . S
C787 C786 1.391 . S
H788 C796 0.950 . S
H789 C801 0.950 . S
H790 C798 0.950 . S
H791 C800 0.950 . S
H792 C802 0.950 . S
H793 C804 0.950 . S
H794 C806 0.950 . S
H795 C807 0.950 . S
C796 H788 0.950 . S
C796 C797 1.386 . S
C796 C798 1.391 . S
C797 C796 1.386 . S
C797 C801 1.393 . S
C798 H790 0.950 . S
C798 C796 1.391 . S
C798 C799 1.400 . S
C799 C798 1.400 . S
C799 C800 1.398 . S
C799 C805 1.491 . S
C800 H791 0.950 . S
C800 C799 1.398 . S
C800 C801 1.391 . S
C801 H789 0.950 . S
C801 C797 1.393 . S
C801 C800 1.391 . S
C802 H792 0.950 . S
C802 C803 1.386 . S
C802 C804 1.391 . S
C803 C802 1.386 . S
C803 C807 1.393 . S
C804 H793 0.950 . S
C804 C802 1.391 . S
C804 C805 1.400 . S
C805 C799 1.491 . S
C805 C804 1.400 . S
C805 C806 1.398 . S
C806 H794 0.950 . S
C806 C805 1.398 . S
C806 C807 1.391 . S
C807 H795 0.950 . S
C807 C803 1.393 . S
C807 C806 1.391 . S
H808 C816 0.950 . S
H809 C821 0.950 . S
H810 C818 0.950 . S
H811 C820 0.950 . S
H812 C822 0.950 . S
H813 C824 0.950 . S
H814 C826 0.950 . S
H815 C827 0.950 . S
C816 H808 0.950 . S
C816 C817 1.386 . S
C816 C818 1.391 . S
C817 C816 1.386 . S
C817 C821 1.393 . S
C818 H810 0.950 . S
C818 C816 1.391 . S
C818 C819 1.400 . S
C819 C818 1.400 . S
C819 C820 1.398 . S
C819 C825 1.491 . S
C820 H811 0.950 . S
C820 C819 1.398 . S
C820 C821 1.391 . S
C821 H809 0.950 . S
C821 C817 1.393 . S
C821 C820 1.391 . S
C822 H812 0.950 . S
C822 C823 1.386 . S
C822 C824 1.391 . S
C823 C822 1.386 . S
C823 C827 1.393 . S
C824 H813 0.950 . S
C824 C822 1.391 . S
C824 C825 1.400 . S
C825 C819 1.491 . S
C825 C824 1.400 . S
C825 C826 1.398 . S
C826 H814 0.950 . S
C826 C825 1.398 . S
C826 C827 1.391 . S
C827 H815 0.950 . S
C827 C823 1.393 . S
C827 C826 1.391 . S
H828 C836 0.950 . S
H829 C841 0.950 . S
H830 C838 0.950 . S
H831 C840 0.950 . S
H832 C842 0.950 . S
H833 C844 0.950 . S
H834 C846 0.950 . S
H835 C847 0.950 . S
C836 H828 0.950 . S
C836 C837 1.386 . S
C836 C838 1.391 . S
C837 C836 1.386 . S
C837 C841 1.393 . S
C838 H830 0.950 . S
C838 C836 1.391 . S
C838 C839 1.400 . S
C839 C838 1.400 . S
C839 C840 1.398 . S
C839 C845 1.491 . S
C840 H831 0.950 . S
C840 C839 1.398 . S
C840 C841 1.391 . S
C841 H829 0.950 . S
C841 C837 1.393 . S
C841 C840 1.391 . S
C842 H832 0.950 . S
C842 C843 1.386 . S
C842 C844 1.391 . S
C843 C842 1.386 . S
C843 C847 1.393 . S
C844 H833 0.950 . S
C844 C842 1.391 . S
C844 C845 1.400 . S
C845 C839 1.491 . S
C845 C844 1.400 . S
C845 C846 1.398 . S
C846 H834 0.950 . S
C846 C845 1.398 . S
C846 C847 1.391 . S
C847 H835 0.950 . S
C847 C843 1.393 . S
C847 C846 1.391 . S
H848 C856 0.950 . S
H849 C861 0.950 . S
H850 C858 0.950 . S
H851 C860 0.950 . S
H852 C862 0.950 . S
H853 C864 0.950 . S
H854 C866 0.950 . S
H855 C867 0.950 . S
C856 H848 0.950 . S
C856 C857 1.386 . S
C856 C858 1.391 . S
C857 C856 1.386 . S
C857 C861 1.393 . S
C858 H850 0.950 . S
C858 C856 1.391 . S
C858 C859 1.400 . S
C859 C858 1.400 . S
C859 C860 1.398 . S
C859 C865 1.491 . S
C860 H851 0.950 . S
C860 C859 1.398 . S
C860 C861 1.391 . S
C861 H849 0.950 . S
C861 C857 1.393 . S
C861 C860 1.391 . S
C862 H852 0.950 . S
C862 C863 1.386 . S
C862 C864 1.391 . S
C863 C862 1.386 . S
C863 C867 1.393 . S
C864 H853 0.950 . S
C864 C862 1.391 . S
C864 C865 1.400 . S
C865 C859 1.491 . S
C865 C864 1.400 . S
C865 C866 1.398 . S
C866 H854 0.950 . S
C866 C865 1.398 . S
C866 C867 1.391 . S
C867 H855 0.950 . S
C867 C863 1.393 . S
C867 C866 1.391 . S
H868 C876 0.950 . S
H869 C881 0.950 . S
H870 C878 0.950 . S
H871 C880 0.950 . S
H872 C882 0.950 . S
H873 C884 0.950 . S
H874 C886 0.950 . S
H875 C887 0.950 . S
C876 H868 0.950 . S
C876 C877 1.386 . S
C876 C878 1.391 . S
C877 C876 1.386 . S
C877 C881 1.393 . S
C878 H870 0.950 . S
C878 C876 1.391 . S
C878 C879 1.400 . S
C879 C878 1.400 . S
C879 C880 1.398 . S
C879 C885 1.491 . S
C880 H871 0.950 . S
C880 C879 1.398 . S
C880 C881 1.391 . S
C881 H869 0.950 . S
C881 C877 1.393 . S
C881 C880 1.391 . S
C882 H872 0.950 . S
C882 C883 1.386 . S
C882 C884 1.391 . S
C883 C882 1.386 . S
C883 C887 1.393 . S
C884 H873 0.950 . S
C884 C882 1.391 . S
C884 C885 1.400 . S
C885 C879 1.491 . S
C885 C884 1.400 . S
C885 C886 1.398 . S
C886 H874 0.950 . S
C886 C885 1.398 . S
C886 C887 1.391 . S
C887 H875 0.950 . S
C887 C883 1.393 . S
C887 C886 1.391 . S
H888 C896 0.950 . S
H889 C901 0.950 . S
H890 C898 0.950 . S
H891 C900 0.950 . S
H892 C902 0.950 . S
H893 C904 0.950 . S
H894 C906 0.950 . S
H895 C907 0.950 . S
C896 H888 0.950 . S
C896 C897 1.386 . S
C896 C898 1.391 . S
C897 C896 1.386 . S
C897 C901 1.393 . S
C898 H890 0.950 . S
C898 C896 1.391 . S
C898 C899 1.400 . S
C899 C898 1.400 . S
C899 C900 1.398 . S
C899 C905 1.491 . S
C900 H891 0.950 . S
C900 C899 1.398 . S
C900 C901 1.391 . S
C901 H889 0.950 . S
C901 C897 1.393 . S
C901 C900 1.391 . S
C902 H892 0.950 . S
C902 C903 1.386 . S
C902 C904 1.391 . S
C903 C902 1.386 . S
C903 C907 1.393 . S
C904 H893 0.950 . S
C904 C902 1.391 . S
C904 C905 1.400 . S
C905 C899 1.491 . S
C905 C904 1.400 . S
C905 C906 1.398 . S
C906 H894 0.950 . S
C906 C905 1.398 . S
C906 C907 1.391 . S
C907 H895 0.950 . S
C907 C903 1.393 . S
C907 C906 1.391 . S
H908 C916 0.950 . S
H909 C921 0.950 . S
H910 C918 0.950 . S
H911 C920 0.950 . S
H912 C922 0.950 . S
H913 C924 0.950 . S
H914 C926 0.950 . S
H915 C927 0.950 . S
C916 H908 0.950 . S
C916 C917 1.386 . S
C916 C918 1.391 . S
C917 C916 1.386 . S
C917 C921 1.393 . S
C918 H910 0.950 . S
C918 C916 1.391 . S
C918 C919 1.400 . S
C919 C918 1.400 . S
C919 C920 1.398 . S
C919 C925 1.491 . S
C920 H911 0.950 . S
C920 C919 1.398 . S
C920 C921 1.391 . S
C921 H909 0.950 . S
C921 C917 1.393 . S
C921 C920 1.391 . S
C922 H912 0.950 . S
C922 C923 1.386 . S
C922 C924 1.391 . S
C923 C922 1.386 . S
C923 C927 1.393 . S
C924 H913 0.950 . S
C924 C922 1.391 . S
C924 C925 1.400 . S
C925 C919 1.491 . S
C925 C924 1.400 . S
C925 C926 1.398 . S
C926 H914 0.950 . S
C926 C925 1.398 . S
C926 C927 1.391 . S
C927 H915 0.950 . S
C927 C923 1.393 . S
C927 C926 1.391 . S
H928 C936 0.950 . S
H929 C941 0.950 . S
H930 C938 0.950 . S
H931 C940 0.950 . S
H932 C942 0.950 . S
H933 C944 0.950 . S
H934 C946 0.950 . S
H935 C947 0.950 . S
C936 H928 0.950 . S
C936 C937 1.386 . S
C936 C938 1.391 . S
C937 C936 1.386 . S
C937 C941 1.393 . S
C938 H930 0.950 . S
C938 C936 1.391 . S
C938 C939 1.400 . S
C939 C938 1.400 . S
C939 C940 1.398 . S
C939 C945 1.491 . S
C940 H931 0.950 . S
C940 C939 1.398 . S
C940 C941 1.391 . S
C941 H929 0.950 . S
C941 C937 1.393 . S
C941 C940 1.391 . S
C942 H932 0.950 . S
C942 C943 1.386 . S
C942 C944 1.391 . S
C943 C942 1.386 . S
C943 C947 1.393 . S
C944 H933 0.950 . S
C944 C942 1.391 . S
C944 C945 1.400 . S
C945 C939 1.491 . S
C945 C944 1.400 . S
C945 C946 1.398 . S
C946 H934 0.950 . S
C946 C945 1.398 . S
C946 C947 1.391 . S
C947 H935 0.950 . S
C947 C943 1.393 . S
C947 C946 1.391 . S
H948 C956 0.950 . S
H949 C961 0.950 . S
H950 C958 0.950 . S
H951 C960 0.950 . S
H952 C962 0.950 . S
H953 C964 0.950 . S
H954 C966 0.950 . S
H955 C967 0.950 . S
C956 H948 0.950 . S
C956 C957 1.386 . S
C956 C958 1.391 . S
C957 C956 1.386 . S
C957 C961 1.393 . S
C958 H950 0.950 . S
C958 C956 1.391 . S
C958 C959 1.400 . S
C959 C958 1.400 . S
C959 C960 1.398 . S
C959 C965 1.491 . S
C960 H951 0.950 . S
C960 C959 1.398 . S
C960 C961 1.391 . S
C961 H949 0.950 . S
C961 C957 1.393 . S
C961 C960 1.391 . S
C962 H952 0.950 . S
C962 C963 1.386 . S
C962 C964 1.391 . S
C963 C962 1.386 . S
C963 C967 1.393 . S
C964 H953 0.950 . S
C964 C962 1.391 . S
C964 C965 1.400 . S
C965 C959 1.491 . S
C965 C964 1.400 . S
C965 C966 1.398 . S
C966 H954 0.950 . S
C966 C965 1.398 . S
C966 C967 1.391 . S
C967 H955 0.950 . S
C967 C963 1.393 . S
C967 C966 1.391 . S
H968 C976 0.950 . S
H969 C981 0.950 . S
H970 C978 0.950 . S
H971 C980 0.950 . S
H972 C982 0.950 . S
H973 C984 0.950 . S
H974 C986 0.950 . S
H975 C987 0.950 . S
C976 H968 0.950 . S
C976 C977 1.386 . S
C976 C978 1.391 . S
C977 C976 1.386 . S
C977 C981 1.393 . S
C978 H970 0.950 . S
C978 C976 1.391 . S
C978 C979 1.400 . S
C979 C978 1.400 . S
C979 C980 1.398 . S
C979 C985 1.491 . S
C980 H971 0.950 . S
C980 C979 1.398 . S
C980 C981 1.391 . S
C981 H969 0.950 . S
C981 C977 1.393 . S
C981 C980 1.391 . S
C982 H972 0.950 . S
C982 C983 1.386 . S
C982 C984 1.391 . S
C983 C982 1.386 . S
C983 C987 1.393 . S
C984 H973 0.950 . S
C984 C982 1.391 . S
C984 C985 1.400 . S
C985 C979 1.491 . S
C985 C984 1.400 . S
C985 C986 1.398 . S
C986 H974 0.950 . S
C986 C985 1.398 . S
C986 C987 1.391 . S
C987 H975 0.950 . S
C987 C983 1.393 . S
C987 C986 1.391 . S
H988 C996 0.950 . S
H989 C1001 0.950 . S
H990 C998 0.950 . S
H991 C1000 0.950 . S
H992 C1002 0.950 . S
H993 C1004 0.950 . S
H994 C1006 0.950 . S
H995 C1007 0.950 . S
C996 H988 0.950 . S
C996 C997 1.386 . S
C996 C998 1.391 . S
C997 C996 1.386 . S
C997 C1001 1.393 . S
C998 H990 0.950 . S
C998 C996 1.391 . S
C998 C999 1.400 . S
C999 C998 1.400 . S
C999 C1000 1.398 . S
C999 C1005 1.491 . S
C1000 H991 0.950 . S
C1000 C999 1.398 . S
C1000 C1001 1.391 . S
C1001 H989 0.950 . S
C1001 C997 1.393 . S
C1001 C1000 1.391 . S
C1002 H992 0.950 . S
C1002 C1003 1.386 . S
C1002 C1004 1.391 . S
C1003 C1002 1.386 . S
C1003 C1007 1.393 . S
C1004 H993 0.950 . S
C1004 C1002 1.391 . S
C1004 C1005 1.400 . S
C1005 C999 1.491 . S
C1005 C1004 1.400 . S
C1005 C1006 1.398 . S
C1006 H994 0.950 . S
C1006 C1005 1.398 . S
C1006 C1007 1.391 . S
C1007 H995 0.950 . S
C1007 C1003 1.393 . S
C1007 C1006 1.391 . S
H1008 C1016 0.950 . S
H1009 C1021 0.950 . S
H1010 C1018 0.950 . S
H1011 C1020 0.950 . S
H1012 C1022 0.950 . S
H1013 C1024 0.950 . S
H1014 C1026 0.950 . S
H1015 C1027 0.950 . S
C1016 H1008 0.950 . S
C1016 C1017 1.386 . S
C1016 C1018 1.391 . S
C1017 C1016 1.386 . S
C1017 C1021 1.393 . S
C1018 H1010 0.950 . S
C1018 C1016 1.391 . S
C1018 C1019 1.400 . S
C1019 C1018 1.400 . S
C1019 C1020 1.398 . S
C1019 C1025 1.491 . S
C1020 H1011 0.950 . S
C1020 C1019 1.398 . S
C1020 C1021 1.391 . S
C1021 H1009 0.950 . S
C1021 C1017 1.393 . S
C1021 C1020 1.391 . S
C1022 H1012 0.950 . S
C1022 C1023 1.386 . S
C1022 C1024 1.391 . S
C1023 C1022 1.386 . S
C1023 C1027 1.393 . S
C1024 H1013 0.950 . S
C1024 C1022 1.391 . S
C1024 C1025 1.400 . S
C1025 C1019 1.491 . S
C1025 C1024 1.400 . S
C1025 C1026 1.398 . S
C1026 H1014 0.950 . S
C1026 C1025 1.398 . S
C1026 C1027 1.391 . S
C1027 H1015 0.950 . S
C1027 C1023 1.393 . S
C1027 C1026 1.391 . S
H1028 C1036 0.950 . S
H1029 C1041 0.950 . S
H1030 C1038 0.950 . S
H1031 C1040 0.950 . S
H1032 C1042 0.950 . S
H1033 C1044 0.950 . S
H1034 C1046 0.950 . S
H1035 C1047 0.950 . S
C1036 H1028 0.950 . S
C1036 C1037 1.386 . S
C1036 C1038 1.391 . S
C1037 C1036 1.386 . S
C1037 C1041 1.393 . S
C1038 H1030 0.950 . S
C1038 C1036 1.391 . S
C1038 C1039 1.400 . S
C1039 C1038 1.400 . S
C1039 C1040 1.398 . S
C1039 C1045 1.491 . S
C1040 H1031 0.950 . S
C1040 C1039 1.398 . S
C1040 C1041 1.391 . S
C1041 H1029 0.950 . S
C1041 C1037 1.393 . S
C1041 C1040 1.391 . S
C1042 H1032 0.950 . S
C1042 C1043 1.386 . S
C1042 C1044 1.391 . S
C1043 C1042 1.386 . S
C1043 C1047 1.393 . S
C1044 H1033 0.950 . S
C1044 C1042 1.391 . S
C1044 C1045 1.400 . S
C1045 C1039 1.491 . S
C1045 C1044 1.400 . S
C1045 C1046 1.398 . S
C1046 H1034 0.950 . S
C1046 C1045 1.398 . S
C1046 C1047 1.391 . S
C1047 H1035 0.950 . S
C1047 C1043 1.393 . S
C1047 C1046 1.391 . S
H1048 C1056 0.950 . S
H1049 C1061 0.950 . S
H1050 C1058 0.950 . S
H1051 C1060 0.950 . S
H1052 C1062 0.950 . S
H1053 C1064 0.950 . S
H1054 C1066 0.950 . S
H1055 C1067 0.950 . S
C1056 H1048 0.950 . S
C1056 C1057 1.386 . S
C1056 C1058 1.391 . S
C1057 C1056 1.386 . S
C1057 C1061 1.393 . S
C1058 H1050 0.950 . S
C1058 C1056 1.391 . S
C1058 C1059 1.400 . S
C1059 C1058 1.400 . S
C1059 C1060 1.398 . S
C1059 C1065 1.491 . S
C1060 H1051 0.950 . S
C1060 C1059 1.398 . S
C1060 C1061 1.391 . S
C1061 H1049 0.950 . S
C1061 C1057 1.393 . S
C1061 C1060 1.391 . S
C1062 H1052 0.950 . S
C1062 C1063 1.386 . S
C1062 C1064 1.391 . S
C1063 C1062 1.386 . S
C1063 C1067 1.393 . S
C1064 H1053 0.950 . S
C1064 C1062 1.391 . S
C1064 C1065 1.400 . S
C1065 C1059 1.491 . S
C1065 C1064 1.400 . S
C1065 C1066 1.398 . S
C1066 H1054 0.950 . S
C1066 C1065 1.398 . S
C1066 C1067 1.391 . S
C1067 H1055 0.950 . S
C1067 C1063 1.393 . S
C1067 C1066 1.391 . S
H1068 C1076 0.950 . S
H1069 C1081 0.950 . S
H1070 C1078 0.950 . S
H1071 C1080 0.950 . S
H1072 C1082 0.950 . S
H1073 C1084 0.950 . S
H1074 C1086 0.950 . S
H1075 C1087 0.950 . S
C1076 H1068 0.950 . S
C1076 C1077 1.386 . S
C1076 C1078 1.391 . S
C1077 C1076 1.386 . S
C1077 C1081 1.393 . S
C1078 H1070 0.950 . S
C1078 C1076 1.391 . S
C1078 C1079 1.400 . S
C1079 C1078 1.400 . S
C1079 C1080 1.398 . S
C1079 C1085 1.491 . S
C1080 H1071 0.950 . S
C1080 C1079 1.398 . S
C1080 C1081 1.391 . S
C1081 H1069 0.950 . S
C1081 C1077 1.393 . S
C1081 C1080 1.391 . S
C1082 H1072 0.950 . S
C1082 C1083 1.386 . S
C1082 C1084 1.391 . S
C1083 C1082 1.386 . S
C1083 C1087 1.393 . S
C1084 H1073 0.950 . S
C1084 C1082 1.391 . S
C1084 C1085 1.400 . S
C1085 C1079 1.491 . S
C1085 C1084 1.400 . S
C1085 C1086 1.398 . S
C1086 H1074 0.950 . S
C1086 C1085 1.398 . S
C1086 C1087 1.391 . S
C1087 H1075 0.950 . S
C1087 C1083 1.393 . S
C1087 C1086 1.391 . S
H1088 C1096 0.950 . S
H1089 C1101 0.950 . S
H1090 C1098 0.950 . S
H1091 C1100 0.950 . S
H1092 C1102 0.950 . S
H1093 C1104 0.950 . S
H1094 C1106 0.950 . S
H1095 C1107 0.950 . S
C1096 H1088 0.950 . S
C1096 C1097 1.386 . S
C1096 C1098 1.391 . S
C1097 C1096 1.386 . S
C1097 C1101 1.393 . S
C1098 H1090 0.950 . S
C1098 C1096 1.391 . S
C1098 C1099 1.400 . S
C1099 C1098 1.400 . S
C1099 C1100 1.398 . S
C1099 C1105 1.491 . S
C1100 H1091 0.950 . S
C1100 C1099 1.398 . S
C1100 C1101 1.391 . S
C1101 H1089 0.950 . S
C1101 C1097 1.393 . S
C1101 C1100 1.391 . S
C1102 H1092 0.950 . S
C1102 C1103 1.386 . S
C1102 C1104 1.391 . S
C1103 C1102 1.386 . S
C1103 C1107 1.393 . S
C1104 H1093 0.950 . S
C1104 C1102 1.391 . S
C1104 C1105 1.400 . S
C1105 C1099 1.491 . S
C1105 C1104 1.400 . S
C1105 C1106 1.398 . S
C1106 H1094 0.950 . S
C1106 C1105 1.398 . S
C1106 C1107 1.391 . S
C1107 H1095 0.950 . S
C1107 C1103 1.393 . S
C1107 C1106 1.391 . S
H1108 C1116 0.950 . S
H1109 C1121 0.950 . S
H1110 C1118 0.950 . S
H1111 C1120 0.950 . S
H1112 C1122 0.950 . S
H1113 C1124 0.950 . S
H1114 C1126 0.950 . S
H1115 C1127 0.950 . S
C1116 H1108 0.950 . S
C1116 C1117 1.386 . S
C1116 C1118 1.391 . S
C1117 C1116 1.386 . S
C1117 C1121 1.393 . S
C1118 H1110 0.950 . S
C1118 C1116 1.391 . S
C1118 C1119 1.400 . S
C1119 C1118 1.400 . S
C1119 C1120 1.398 . S
C1119 C1125 1.491 . S
C1120 H1111 0.950 . S
C1120 C1119 1.398 . S
C1120 C1121 1.391 . S
C1121 H1109 0.950 . S
C1121 C1117 1.393 . S
C1121 C1120 1.391 . S
C1122 H1112 0.950 . S
C1122 C1123 1.386 . S
C1122 C1124 1.391 . S
C1123 C1122 1.386 . S
C1123 C1127 1.393 . S
C1124 H1113 0.950 . S
C1124 C1122 1.391 . S
C1124 C1125 1.400 . S
C1125 C1119 1.491 . S
C1125 C1124 1.400 . S
C1125 C1126 1.398 . S
C1126 H1114 0.950 . S
C1126 C1125 1.398 . S
C1126 C1127 1.391 . S
C1127 H1115 0.950 . S
C1127 C1123 1.393 . S
C1127 C1126 1.391 . S
H1128 C1136 0.950 . S
H1129 C1141 0.950 . S
H1130 C1138 0.950 . S
H1131 C1140 0.950 . S
H1132 C1142 0.950 . S
H1133 C1144 0.950 . S
H1134 C1146 0.950 . S
H1135 C1147 0.950 . S
C1136 H1128 0.950 . S
C1136 C1137 1.386 . S
C1136 C1138 1.391 . S
C1137 C1136 1.386 . S
C1137 C1141 1.393 . S
C1138 H1130 0.950 . S
C1138 C1136 1.391 . S
C1138 C1139 1.400 . S
C1139 C1138 1.400 . S
C1139 C1140 1.398 . S
C1139 C1145 1.491 . S
C1140 H1131 0.950 . S
C1140 C1139 1.398 . S
C1140 C1141 1.391 . S
C1141 H1129 0.950 . S
C1141 C1137 1.393 . S
C1141 C1140 1.391 . S
C1142 H1132 0.950 . S
C1142 C1143 1.386 . S
C1142 C1144 1.391 . S
C1143 C1142 1.386 . S
C1143 C1147 1.393 . S
C1144 H1133 0.950 . S
C1144 C1142 1.391 . S
C1144 C1145 1.400 . S
C1145 C1139 1.491 . S
C1145 C1144 1.400 . S
C1145 C1146 1.398 . S
C1146 H1134 0.950 . S
C1146 C1145 1.398 . S
C1146 C1147 1.391 . S
C1147 H1135 0.950 . S
C1147 C1143 1.393 . S
C1147 C1146 1.391 . S
H1148 C1156 0.950 . S
H1149 C1161 0.950 . S
H1150 C1158 0.950 . S
H1151 C1160 0.950 . S
H1152 C1162 0.950 . S
H1153 C1164 0.950 . S
H1154 C1166 0.950 . S
H1155 C1167 0.950 . S
C1156 H1148 0.950 . S
C1156 C1157 1.386 . S
C1156 C1158 1.391 . S
C1157 C1156 1.386 . S
C1157 C1161 1.393 . S
C1158 H1150 0.950 . S
C1158 C1156 1.391 . S
C1158 C1159 1.400 . S
C1159 C1158 1.400 . S
C1159 C1160 1.398 . S
C1159 C1165 1.491 . S
C1160 H1151 0.950 . S
C1160 C1159 1.398 . S
C1160 C1161 1.391 . S
C1161 H1149 0.950 . S
C1161 C1157 1.393 . S
C1161 C1160 1.391 . S
C1162 H1152 0.950 . S
C1162 C1163 1.386 . S
C1162 C1164 1.391 . S
C1163 C1162 1.386 . S
C1163 C1167 1.393 . S
C1164 H1153 0.950 . S
C1164 C1162 1.391 . S
C1164 C1165 1.400 . S
C1165 C1159 1.491 . S
C1165 C1164 1.400 . S
C1165 C1166 1.398 . S
C1166 H1154 0.950 . S
C1166 C1165 1.398 . S
C1166 C1167 1.391 . S
C1167 H1155 0.950 . S
C1167 C1163 1.393 . S
C1167 C1166 1.391 . S
H1168 C1176 0.950 . S
H1169 C1181 0.950 . S
H1170 C1178 0.950 . S
H1171 C1180 0.950 . S
H1172 C1182 0.950 . S
H1173 C1184 0.950 . S
H1174 C1186 0.950 . S
H1175 C1187 0.950 . S
C1176 H1168 0.950 . S
C1176 C1177 1.386 . S
C1176 C1178 1.391 . S
C1177 C1176 1.386 . S
C1177 C1181 1.393 . S
C1178 H1170 0.950 . S
C1178 C1176 1.391 . S
C1178 C1179 1.400 . S
C1179 C1178 1.400 . S
C1179 C1180 1.398 . S
C1179 C1185 1.491 . S
C1180 H1171 0.950 . S
C1180 C1179 1.398 . S
C1180 C1181 1.391 . S
C1181 H1169 0.950 . S
C1181 C1177 1.393 . S
C1181 C1180 1.391 . S
C1182 H1172 0.950 . S
C1182 C1183 1.386 . S
C1182 C1184 1.391 . S
C1183 C1182 1.386 . S
C1183 C1187 1.393 . S
C1184 H1173 0.950 . S
C1184 C1182 1.391 . S
C1184 C1185 1.400 . S
C1185 C1179 1.491 . S
C1185 C1184 1.400 . S
C1185 C1186 1.398 . S
C1186 H1174 0.950 . S
C1186 C1185 1.398 . S
C1186 C1187 1.391 . S
C1187 H1175 0.950 . S
C1187 C1183 1.393 . S
C1187 C1186 1.391 . S
H1188 C1196 0.950 . S
H1189 C1201 0.950 . S
H1190 C1198 0.950 . S
H1191 C1200 0.950 . S
H1192 C1202 0.950 . S
H1193 C1204 0.950 . S
H1194 C1206 0.950 . S
H1195 C1207 0.950 . S
C1196 H1188 0.950 . S
C1196 C1197 1.386 . S
C1196 C1198 1.391 . S
C1197 C1196 1.386 . S
C1197 C1201 1.393 . S
C1198 H1190 0.950 . S
C1198 C1196 1.391 . S
C1198 C1199 1.400 . S
C1199 C1198 1.400 . S
C1199 C1200 1.398 . S
C1199 C1205 1.491 . S
C1200 H1191 0.950 . S
C1200 C1199 1.398 . S
C1200 C1201 1.391 . S
C1201 H1189 0.950 . S
C1201 C1197 1.393 . S
C1201 C1200 1.391 . S
C1202 H1192 0.950 . S
C1202 C1203 1.386 . S
C1202 C1204 1.391 . S
C1203 C1202 1.386 . S
C1203 C1207 1.393 . S
C1204 H1193 0.950 . S
C1204 C1202 1.391 . S
C1204 C1205 1.400 . S
C1205 C1199 1.491 . S
C1205 C1204 1.400 . S
C1205 C1206 1.398 . S
C1206 H1194 0.950 . S
C1206 C1205 1.398 . S
C1206 C1207 1.391 . S
C1207 H1195 0.950 . S
C1207 C1203 1.393 . S
C1207 C1206 1.391 . S
H1208 C1216 0.950 . S
H1209 C1221 0.950 . S
H1210 C1218 0.950 . S
H1211 C1220 0.950 . S
H1212 C1222 0.950 . S
H1213 C1224 0.950 . S
H1214 C1226 0.950 . S
H1215 C1227 0.950 . S
C1216 H1208 0.950 . S
C1216 C1217 1.386 . S
C1216 C1218 1.391 . S
C1217 C1216 1.386 . S
C1217 C1221 1.393 . S
C1218 H1210 0.950 . S
C1218 C1216 1.391 . S
C1218 C1219 1.400 . S
C1219 C1218 1.400 . S
C1219 C1220 1.398 . S
C1219 C1225 1.491 . S
C1220 H1211 0.950 . S
C1220 C1219 1.398 . S
C1220 C1221 1.391 . S
C1221 H1209 0.950 . S
C1221 C1217 1.393 . S
C1221 C1220 1.391 . S
C1222 H1212 0.950 . S
C1222 C1223 1.386 . S
C1222 C1224 1.391 . S
C1223 C1222 1.386 . S
C1223 C1227 1.393 . S
C1224 H1213 0.950 . S
C1224 C1222 1.391 . S
C1224 C1225 1.400 . S
C1225 C1219 1.491 . S
C1225 C1224 1.400 . S
C1225 C1226 1.398 . S
C1226 H1214 0.950 . S
C1226 C1225 1.398 . S
C1226 C1227 1.391 . S
C1227 H1215 0.950 . S
C1227 C1223 1.393 . S
C1227 C1226 1.391 . S
H1228 C1236 0.950 . S
H1229 C1241 0.950 . S
H1230 C1238 0.950 . S
H1231 C1240 0.950 . S
H1232 C1242 0.950 . S
H1233 C1244 0.950 . S
H1234 C1246 0.950 . S
H1235 C1247 0.950 . S
C1236 H1228 0.950 . S
C1236 C1237 1.386 . S
C1236 C1238 1.391 . S
C1237 C1236 1.386 . S
C1237 C1241 1.393 . S
C1238 H1230 0.950 . S
C1238 C1236 1.391 . S
C1238 C1239 1.400 . S
C1239 C1238 1.400 . S
C1239 C1240 1.398 . S
C1239 C1245 1.491 . S
C1240 H1231 0.950 . S
C1240 C1239 1.398 . S
C1240 C1241 1.391 . S
C1241 H1229 0.950 . S
C1241 C1237 1.393 . S
C1241 C1240 1.391 . S
C1242 H1232 0.950 . S
C1242 C1243 1.386 . S
C1242 C1244 1.391 . S
C1243 C1242 1.386 . S
C1243 C1247 1.393 . S
C1244 H1233 0.950 . S
C1244 C1242 1.391 . S
C1244 C1245 1.400 . S
C1245 C1239 1.491 . S
C1245 C1244 1.400 . S
C1245 C1246 1.398 . S
C1246 H1234 0.950 . S
C1246 C1245 1.398 . S
C1246 C1247 1.391 . S
C1247 H1235 0.950 . S
C1247 C1243 1.393 . S
C1247 C1246 1.391 . S
H1248 C1256 0.950 . S
H1249 C1261 0.950 . S
H1250 C1258 0.950 . S
H1251 C1260 0.950 . S
H1252 C1262 0.950 . S
H1253 C1264 0.950 . S
H1254 C1266 0.950 . S
H1255 C1267 0.950 . S
C1256 H1248 0.950 . S
C1256 C1257 1.386 . S
C1256 C1258 1.391 . S
C1257 C1256 1.386 . S
C1257 C1261 1.393 . S
C1258 H1250 0.950 . S
C1258 C1256 1.391 . S
C1258 C1259 1.400 . S
C1259 C1258 1.400 . S
C1259 C1260 1.398 . S
C1259 C1265 1.491 . S
C1260 H1251 0.950 . S
C1260 C1259 1.398 . S
C1260 C1261 1.391 . S
C1261 H1249 0.950 . S
C1261 C1257 1.393 . S
C1261 C1260 1.391 . S
C1262 H1252 0.950 . S
C1262 C1263 1.386 . S
C1262 C1264 1.391 . S
C1263 C1262 1.386 . S
C1263 C1267 1.393 . S
C1264 H1253 0.950 . S
C1264 C1262 1.391 . S
C1264 C1265 1.400 . S
C1265 C1259 1.491 . S
C1265 C1264 1.400 . S
C1265 C1266 1.398 . S
C1266 H1254 0.950 . S
C1266 C1265 1.398 . S
C1266 C1267 1.391 . S
C1267 H1255 0.950 . S
C1267 C1263 1.393 . S
C1267 C1266 1.391 . S
H1268 C1276 0.950 . S
H1269 C1281 0.950 . S
H1270 C1278 0.950 . S
H1271 C1280 0.950 . S
H1272 C1282 0.950 . S
H1273 C1284 0.950 . S
H1274 C1286 0.950 . S
H1275 C1287 0.950 . S
C1276 H1268 0.950 . S
C1276 C1277 1.386 . S
C1276 C1278 1.391 . S
C1277 C1276 1.386 . S
C1277 C1281 1.393 . S
C1278 H1270 0.950 . S
C1278 C1276 1.391 . S
C1278 C1279 1.400 . S
C1279 C1278 1.400 . S
C1279 C1280 1.398 . S
C1279 C1285 1.491 . S
C1280 H1271 0.950 . S
C1280 C1279 1.398 . S
C1280 C1281 1.391 . S
C1281 H1269 0.950 . S
C1281 C1277 1.393 . S
C1281 C1280 1.391 . S
C1282 H1272 0.950 . S
C1282 C1283 1.386 . S
C1282 C1284 1.391 . S
C1283 C1282 1.386 . S
C1283 C1287 1.393 . S
C1284 H1273 0.950 . S
C1284 C1282 1.391 . S
C1284 C1285 1.400 . S
C1285 C1279 1.491 . S
C1285 C1284 1.400 . S
C1285 C1286 1.398 . S
C1286 H1274 0.950 . S
C1286 C1285 1.398 . S
C1286 C1287 1.391 . S
C1287 H1275 0.950 . S
C1287 C1283 1.393 . S
C1287 C1286 1.391 . S
H1288 C1296 0.950 . S
H1289 C1301 0.950 . S
H1290 C1298 0.950 . S
H1291 C1300 0.950 . S
H1292 C1302 0.950 . S
H1293 C1304 0.950 . S
H1294 C1306 0.950 . S
H1295 C1307 0.950 . S
C1296 H1288 0.950 . S
C1296 C1297 1.386 . S
C1296 C1298 1.391 . S
C1297 C1296 1.386 . S
C1297 C1301 1.393 . S
C1298 H1290 0.950 . S
C1298 C1296 1.391 . S
C1298 C1299 1.400 . S
C1299 C1298 1.400 . S
C1299 C1300 1.398 . S
C1299 C1305 1.491 . S
C1300 H1291 0.950 . S
C1300 C1299 1.398 . S
C1300 C1301 1.391 . S
C1301 H1289 0.950 . S
C1301 C1297 1.393 . S
C1301 C1300 1.391 . S
C1302 H1292 0.950 . S
C1302 C1303 1.386 . S
C1302 C1304 1.391 . S
C1303 C1302 1.386 . S
C1303 C1307 1.393 . S
C1304 H1293 0.950 . S
C1304 C1302 1.391 . S
C1304 C1305 1.400 . S
C1305 C1299 1.491 . S
C1305 C1304 1.400 . S
C1305 C1306 1.398 . S
C1306 H1294 0.950 . S
C1306 C1305 1.398 . S
C1306 C1307 1.391 . S
C1307 H1295 0.950 . S
C1307 C1303 1.393 . S
C1307 C1306 1.391 . S
H1308 C1316 0.950 . S
H1309 C1321 0.950 . S
H1310 C1318 0.950 . S
H1311 C1320 0.950 . S
H1312 C1322 0.950 . S
H1313 C1324 0.950 . S
H1314 C1326 0.950 . S
H1315 C1327 0.950 . S
C1316 H1308 0.950 . S
C1316 C1317 1.386 . S
C1316 C1318 1.391 . S
C1317 C1316 1.386 . S
C1317 C1321 1.393 . S
C1318 H1310 0.950 . S
C1318 C1316 1.391 . S
C1318 C1319 1.400 . S
C1319 C1318 1.400 . S
C1319 C1320 1.398 . S
C1319 C1325 1.491 . S
C1320 H1311 0.950 . S
C1320 C1319 1.398 . S
C1320 C1321 1.391 . S
C1321 H1309 0.950 . S
C1321 C1317 1.393 . S
C1321 C1320 1.391 . S
C1322 H1312 0.950 . S
C1322 C1323 1.386 . S
C1322 C1324 1.391 . S
C1323 C1322 1.386 . S
C1323 C1327 1.393 . S
C1324 H1313 0.950 . S
C1324 C1322 1.391 . S
C1324 C1325 1.400 . S
C1325 C1319 1.491 . S
C1325 C1324 1.400 . S
C1325 C1326 1.398 . S
C1326 H1314 0.950 . S
C1326 C1325 1.398 . S
C1326 C1327 1.391 . S
C1327 H1315 0.950 . S
C1327 C1323 1.393 . S
C1327 C1326 1.391 . S
H1328 C1336 0.950 . S
H1329 C1341 0.950 . S
H1330 C1338 0.950 . S
H1331 C1340 0.950 . S
H1332 C1342 0.950 . S
H1333 C1344 0.950 . S
H1334 C1346 0.950 . S
H1335 C1347 0.950 . S
C1336 H1328 0.950 . S
C1336 C1337 1.386 . S
C1336 C1338 1.391 . S
C1337 C1336 1.386 . S
C1337 C1341 1.393 . S
C1338 H1330 0.950 . S
C1338 C1336 1.391 . S
C1338 C1339 1.400 . S
C1339 C1338 1.400 . S
C1339 C1340 1.398 . S
C1339 C1345 1.491 . S
C1340 H1331 0.950 . S
C1340 C1339 1.398 . S
C1340 C1341 1.391 . S
C1341 H1329 0.950 . S
C1341 C1337 1.393 . S
C1341 C1340 1.391 . S
C1342 H1332 0.950 . S
C1342 C1343 1.386 . S
C1342 C1344 1.391 . S
C1343 C1342 1.386 . S
C1343 C1347 1.393 . S
C1344 H1333 0.950 . S
C1344 C1342 1.391 . S
C1344 C1345 1.400 . S
C1345 C1339 1.491 . S
C1345 C1344 1.400 . S
C1345 C1346 1.398 . S
C1346 H1334 0.950 . S
C1346 C1345 1.398 . S
C1346 C1347 1.391 . S
C1347 H1335 0.950 . S
C1347 C1343 1.393 . S
C1347 C1346 1.391 . S
H1348 C1356 0.950 . S
H1349 C1361 0.950 . S
H1350 C1358 0.950 . S
H1351 C1360 0.950 . S
H1352 C1362 0.950 . S
H1353 C1364 0.950 . S
H1354 C1366 0.950 . S
H1355 C1367 0.950 . S
C1356 H1348 0.950 . S
C1356 C1357 1.386 . S
C1356 C1358 1.391 . S
C1357 C1356 1.386 . S
C1357 C1361 1.393 . S
C1358 H1350 0.950 . S
C1358 C1356 1.391 . S
C1358 C1359 1.400 . S
C1359 C1358 1.400 . S
C1359 C1360 1.398 . S
C1359 C1365 1.491 . S
C1360 H1351 0.950 . S
C1360 C1359 1.398 . S
C1360 C1361 1.391 . S
C1361 H1349 0.950 . S
C1361 C1357 1.393 . S
C1361 C1360 1.391 . S
C1362 H1352 0.950 . S
C1362 C1363 1.386 . S
C1362 C1364 1.391 . S
C1363 C1362 1.386 . S
C1363 C1367 1.393 . S
C1364 H1353 0.950 . S
C1364 C1362 1.391 . S
C1364 C1365 1.400 . S
C1365 C1359 1.491 . S
C1365 C1364 1.400 . S
C1365 C1366 1.398 . S
C1366 H1354 0.950 . S
C1366 C1365 1.398 . S
C1366 C1367 1.391 . S
C1367 H1355 0.950 . S
C1367 C1363 1.393 . S
C1367 C1366 1.391 . S
H1368 C1376 0.950 . S
H1369 C1381 0.950 . S
H1370 C1378 0.950 . S
H1371 C1380 0.950 . S
H1372 C1382 0.950 . S
H1373 C1384 0.950 . S
H1374 C1386 0.950 . S
H1375 C1387 0.950 . S
C1376 H1368 0.950 . S
C1376 C1377 1.386 . S
C1376 C1378 1.391 . S
C1377 C1376 1.386 . S
C1377 C1381 1.393 . S
C1378 H1370 0.950 . S
C1378 C1376 1.391 . S
C1378 C1379 1.400 . S
C1379 C1378 1.400 . S
C1379 C1380 1.398 . S
C1379 C1385 1.491 . S
C1380 H1371 0.950 . S
C1380 C1379 1.398 . S
C1380 C1381 1.391 . S
C1381 H1369 0.950 . S
C1381 C1377 1.393 . S
C1381 C1380 1.391 . S
C1382 H1372 0.950 . S
C1382 C1383 1.386 . S
C1382 C1384 1.391 . S
C1383 C1382 1.386 . S
C1383 C1387 1.393 . S
C1384 H1373 0.950 . S
C1384 C1382 1.391 . S
C1384 C1385 1.400 . S
C1385 C1379 1.491 . S
C1385 C1384 1.400 . S
C1385 C1386 1.398 . S
C1386 H1374 0.950 . S
C1386 C1385 1.398 . S
C1386 C1387 1.391 . S
C1387 H1375 0.950 . S
C1387 C1383 1.393 . S
C1387 C1386 1.391 . S
H1388 C1396 0.950 . S
H1389 C1401 0.950 . S
H1390 C1398 0.950 . S
H1391 C1400 0.950 . S
H1392 C1402 0.950 . S
H1393 C1404 0.950 . S
H1394 C1406 0.950 . S
H1395 C1407 0.950 . S
C1396 H1388 0.950 . S
C1396 C1397 1.386 . S
C1396 C1398 1.391 . S
C1397 C1396 1.386 . S
C1397 C1401 1.393 . S
C1398 H1390 0.950 . S
C1398 C1396 1.391 . S
C1398 C1399 1.400 . S
C1399 C1398 1.400 . S
C1399 C1400 1.398 . S
C1399 C1405 1.491 . S
C1400 H1391 0.950 . S
C1400 C1399 1.398 . S
C1400 C1401 1.391 . S
C1401 H1389 0.950 . S
C1401 C1397 1.393 . S
C1401 C1400 1.391 . S
C1402 H1392 0.950 . S
C1402 C1403 1.386 . S
C1402 C1404 1.391 . S
C1403 C1402 1.386 . S
C1403 C1407 1.393 . S
C1404 H1393 0.950 . S
C1404 C1402 1.391 . S
C1404 C1405 1.400 . S
C1405 C1399 1.491 . S
C1405 C1404 1.400 . S
C1405 C1406 1.398 . S
C1406 H1394 0.950 . S
C1406 C1405 1.398 . S
C1406 C1407 1.391 . S
C1407 H1395 0.950 . S
C1407 C1403 1.393 . S
C1407 C1406 1.391 . S
H1408 C1416 0.950 . S
H1409 C1421 0.950 . S
H1410 C1418 0.950 . S
H1411 C1420 0.950 . S
H1412 C1422 0.950 . S
H1413 C1424 0.950 . S
H1414 C1426 0.950 . S
H1415 C1427 0.950 . S
C1416 H1408 0.950 . S
C1416 C1417 1.386 . S
C1416 C1418 1.391 . S
C1417 C1416 1.386 . S
C1417 C1421 1.393 . S
C1418 H1410 0.950 . S
C1418 C1416 1.391 . S
C1418 C1419 1.400 . S
C1419 C1418 1.400 . S
C1419 C1420 1.398 . S
C1419 C1425 1.491 . S
C1420 H1411 0.950 . S
C1420 C1419 1.398 . S
C1420 C1421 1.391 . S
C1421 H1409 0.950 . S
C1421 C1417 1.393 . S
C1421 C1420 1.391 . S
C1422 H1412 0.950 . S
C1422 C1423 1.386 . S
C1422 C1424 1.391 . S
C1423 C1422 1.386 . S
C1423 C1427 1.393 . S
C1424 H1413 0.950 . S
C1424 C1422 1.391 . S
C1424 C1425 1.400 . S
C1425 C1419 1.491 . S
C1425 C1424 1.400 . S
C1425 C1426 1.398 . S
C1426 H1414 0.950 . S
C1426 C1425 1.398 . S
C1426 C1427 1.391 . S
C1427 H1415 0.950 . S
C1427 C1423 1.393 . S
C1427 C1426 1.391 . S
H1428 C1436 0.950 . S
H1429 C1441 0.950 . S
H1430 C1438 0.950 . S
H1431 C1440 0.950 . S
H1432 C1442 0.950 . S
H1433 C1444 0.950 . S
H1434 C1446 0.950 . S
H1435 C1447 0.950 . S
C1436 H1428 0.950 . S
C1436 C1437 1.386 . S
C1436 C1438 1.391 . S
C1437 C1436 1.386 . S
C1437 C1441 1.393 . S
C1438 H1430 0.950 . S
C1438 C1436 1.391 . S
C1438 C1439 1.400 . S
C1439 C1438 1.400 . S
C1439 C1440 1.398 . S
C1439 C1445 1.491 . S
C1440 H1431 0.950 . S
C1440 C1439 1.398 . S
C1440 C1441 1.391 . S
C1441 H1429 0.950 . S
C1441 C1437 1.393 . S
C1441 C1440 1.391 . S
C1442 H1432 0.950 . S
C1442 C1443 1.386 . S
C1442 C1444 1.391 . S
C1443 C1442 1.386 . S
C1443 C1447 1.393 . S
C1444 H1433 0.950 . S
C1444 C1442 1.391 . S
C1444 C1445 1.400 . S
C1445 C1439 1.491 . S
C1445 C1444 1.400 . S
C1445 C1446 1.398 . S
C1446 H1434 0.950 . S
C1446 C1445 1.398 . S
C1446 C1447 1.391 . S
C1447 H1435 0.950 . S
C1447 C1443 1.393 . S
C1447 C1446 1.391 . S
H1448 C1456 0.950 . S
H1449 C1461 0.950 . S
H1450 C1458 0.950 . S
H1451 C1460 0.950 . S
H1452 C1462 0.950 . S
H1453 C1464 0.950 . S
H1454 C1466 0.950 . S
H1455 C1467 0.950 . S
C1456 H1448 0.950 . S
C1456 C1457 1.386 . S
C1456 C1458 1.391 . S
C1457 C1456 1.386 . S
C1457 C1461 1.393 . S
C1458 H1450 0.950 . S
C1458 C1456 1.391 . S
C1458 C1459 1.400 . S
C1459 C1458 1.400 . S
C1459 C1460 1.398 . S
C1459 C1465 1.491 . S
C1460 H1451 0.950 . S
C1460 C1459 1.398 . S
C1460 C1461 1.391 . S
C1461 H1449 0.950 . S
C1461 C1457 1.393 . S
C1461 C1460 1.391 . S
C1462 H1452 0.950 . S
C1462 C1463 1.386 . S
C1462 C1464 1.391 . S
C1463 C1462 1.386 . S
C1463 C1467 1.393 . S
C1464 H1453 0.950 . S
C1464 C1462 1.391 . S
C1464 C1465 1.400 . S
C1465 C1459 1.491 . S
C1465 C1464 1.400 . S
C1465 C1466 1.398 . S
C1466 H1454 0.950 . S
C1466 C1465 1.398 . S
C1466 C1467 1.391 . S
C1467 H1455 0.950 . S
C1467 C1463 1.393 . S
C1467 C1466 1.391 . S
H1468 C1476 0.950 1_554 S
H1469 C1481 0.950 . S
H1470 C1478 0.950 . S
H1471 C1480 0.950 . S
H1472 C1482 0.950 1_556 S
H1473 C1484 0.950 . S
H1474 C1486 0.950 . S
H1475 C1487 0.950 . S
C1476 H1468 0.950 1_556 S
C1476 C1477 1.386 . S
C1476 C1478 1.391 1_556 S
C1477 C1476 1.386 . S
C1477 C1481 1.393 . S
C1478 H1470 0.950 . S
C1478 C1476 1.391 1_554 S
C1478 C1479 1.400 1_554 S
C1479 C1478 1.400 1_556 S
C1479 C1480 1.398 . S
C1479 C1485 1.491 1_556 S
C1480 H1471 0.950 . S
C1480 C1479 1.398 . S
C1480 C1481 1.391 . S
C1481 H1469 0.950 . S
C1481 C1477 1.393 . S
C1481 C1480 1.391 . S
C1482 H1472 0.950 1_554 S
C1482 C1483 1.386 . S
C1482 C1484 1.391 1_554 S
C1483 C1482 1.386 . S
C1483 C1487 1.393 . S
C1484 H1473 0.950 . S
C1484 C1482 1.391 1_556 S
C1484 C1485 1.400 1_556 S
C1485 C1479 1.491 1_554 S
C1485 C1484 1.400 1_554 S
C1485 C1486 1.398 . S
C1486 H1474 0.950 . S
C1486 C1485 1.398 . S
C1486 C1487 1.391 . S
C1487 H1475 0.950 . S
C1487 C1483 1.393 . S
C1487 C1486 1.391 . S
H1488 C1496 0.950 . S
H1489 C1501 0.950 . S
H1490 C1498 0.950 . S
H1491 C1500 0.950 . S
H1492 C1502 0.950 . S
H1493 C1504 0.950 . S
H1494 C1506 0.950 . S
H1495 C1507 0.950 . S
C1496 H1488 0.950 . S
C1496 C1497 1.386 . S
C1496 C1498 1.391 . S
C1497 C1496 1.386 . S
C1497 C1501 1.393 . S
C1498 H1490 0.950 . S
C1498 C1496 1.391 . S
C1498 C1499 1.400 . S
C1499 C1498 1.400 . S
C1499 C1500 1.398 . S
C1499 C1505 1.491 . S
C1500 H1491 0.950 . S
C1500 C1499 1.398 . S
C1500 C1501 1.391 . S
C1501 H1489 0.950 . S
C1501 C1497 1.393 . S
C1501 C1500 1.391 . S
C1502 H1492 0.950 . S
C1502 C1503 1.386 . S
C1502 C1504 1.391 . S
C1503 C1502 1.386 . S
C1503 C1507 1.393 . S
C1504 H1493 0.950 . S
C1504 C1502 1.391 . S
C1504 C1505 1.400 . S
C1505 C1499 1.491 . S
C1505 C1504 1.400 . S
C1505 C1506 1.398 . S
C1506 H1494 0.950 . S
C1506 C1505 1.398 . S
C1506 C1507 1.391 . S
C1507 H1495 0.950 . S
C1507 C1503 1.393 . S
C1507 C1506 1.391 . S
H1508 C1516 0.950 . S
H1509 C1521 0.950 . S
H1510 C1518 0.950 . S
H1511 C1520 0.950 . S
H1512 C1522 0.950 . S
H1513 C1524 0.950 . S
H1514 C1526 0.950 . S
H1515 C1527 0.950 . S
C1516 H1508 0.950 . S
C1516 C1517 1.386 . S
C1516 C1518 1.391 . S
C1517 C1516 1.386 . S
C1517 C1521 1.393 . S
C1518 H1510 0.950 . S
C1518 C1516 1.391 . S
C1518 C1519 1.400 . S
C1519 C1518 1.400 . S
C1519 C1520 1.398 . S
C1519 C1525 1.491 . S
C1520 H1511 0.950 . S
C1520 C1519 1.398 . S
C1520 C1521 1.391 . S
C1521 H1509 0.950 . S
C1521 C1517 1.393 . S
C1521 C1520 1.391 . S
C1522 H1512 0.950 . S
C1522 C1523 1.386 . S
C1522 C1524 1.391 . S
C1523 C1522 1.386 . S
C1523 C1527 1.393 . S
C1524 H1513 0.950 . S
C1524 C1522 1.391 . S
C1524 C1525 1.400 . S
C1525 C1519 1.491 . S
C1525 C1524 1.400 . S
C1525 C1526 1.398 . S
C1526 H1514 0.950 . S
C1526 C1525 1.398 . S
C1526 C1527 1.391 . S
C1527 H1515 0.950 . S
C1527 C1523 1.393 . S
C1527 C1526 1.391 . S
H1528 C1536 0.950 . S
H1529 C1541 0.950 . S
H1530 C1538 0.950 . S
H1531 C1540 0.950 . S
H1532 C1542 0.950 . S
H1533 C1544 0.950 . S
H1534 C1546 0.950 . S
H1535 C1547 0.950 . S
C1536 H1528 0.950 . S
C1536 C1537 1.386 . S
C1536 C1538 1.391 . S
C1537 C1536 1.386 . S
C1537 C1541 1.393 . S
C1538 H1530 0.950 . S
C1538 C1536 1.391 . S
C1538 C1539 1.400 . S
C1539 C1538 1.400 . S
C1539 C1540 1.398 . S
C1539 C1545 1.491 . S
C1540 H1531 0.950 . S
C1540 C1539 1.398 . S
C1540 C1541 1.391 . S
C1541 H1529 0.950 . S
C1541 C1537 1.393 . S
C1541 C1540 1.391 . S
C1542 H1532 0.950 . S
C1542 C1543 1.386 . S
C1542 C1544 1.391 . S
C1543 C1542 1.386 . S
C1543 C1547 1.393 . S
C1544 H1533 0.950 . S
C1544 C1542 1.391 . S
C1544 C1545 1.400 . S
C1545 C1539 1.491 . S
C1545 C1544 1.400 . S
C1545 C1546 1.398 . S
C1546 H1534 0.950 . S
C1546 C1545 1.398 . S
C1546 C1547 1.391 . S
C1547 H1535 0.950 . S
C1547 C1543 1.393 . S
C1547 C1546 1.391 . S
H1548 C1556 0.950 . S
H1549 C1561 0.950 . S
H1550 C1558 0.950 . S
H1551 C1560 0.950 . S
H1552 C1562 0.950 . S
H1553 C1564 0.950 . S
H1554 C1566 0.950 . S
H1555 C1567 0.950 . S
C1556 H1548 0.950 . S
C1556 C1557 1.386 . S
C1556 C1558 1.391 . S
C1557 C1556 1.386 . S
C1557 C1561 1.393 1_554 S
C1558 H1550 0.950 . S
C1558 C1556 1.391 . S
C1558 C1559 1.400 . S
C1559 C1558 1.400 . S
C1559 C1560 1.398 1_554 S
C1559 C1565 1.491 1_554 S
C1560 H1551 0.950 . S
C1560 C1559 1.398 1_556 S
C1560 C1561 1.391 . S
C1561 H1549 0.950 . S
C1561 C1557 1.393 1_556 S
C1561 C1560 1.391 . S
C1562 H1552 0.950 . S
C1562 C1563 1.386 . S
C1562 C1564 1.391 . S
C1563 C1562 1.386 . S
C1563 C1567 1.393 1_556 S
C1564 H1553 0.950 . S
C1564 C1562 1.391 . S
C1564 C1565 1.400 . S
C1565 C1559 1.491 1_556 S
C1565 C1564 1.400 . S
C1565 C1566 1.398 1_556 S
C1566 H1554 0.950 . S
C1566 C1565 1.398 1_554 S
C1566 C1567 1.391 . S
C1567 H1555 0.950 . S
C1567 C1563 1.393 1_554 S
C1567 C1566 1.391 . S
H1568 C1576 0.950 . S
H1569 C1581 0.950 . S
H1570 C1578 0.950 . S
H1571 C1580 0.950 . S
H1572 C1582 0.950 . S
H1573 C1584 0.950 . S
H1574 C1586 0.950 . S
H1575 C1587 0.950 . S
C1576 H1568 0.950 . S
C1576 C1577 1.386 . S
C1576 C1578 1.391 . S
C1577 C1576 1.386 . S
C1577 C1581 1.393 . S
C1578 H1570 0.950 . S
C1578 C1576 1.391 . S
C1578 C1579 1.400 . S
C1579 C1578 1.400 . S
C1579 C1580 1.398 . S
C1579 C1585 1.491 1_565 S
C1580 H1571 0.950 . S
C1580 C1579 1.398 . S
C1580 C1581 1.391 . S
C1581 H1569 0.950 . S
C1581 C1577 1.393 . S
C1581 C1580 1.391 . S
C1582 H1572 0.950 . S
C1582 C1583 1.386 . S
C1582 C1584 1.391 . S
C1583 C1582 1.386 . S
C1583 C1587 1.393 . S
C1584 H1573 0.950 . S
C1584 C1582 1.391 . S
C1584 C1585 1.400 . S
C1585 C1579 1.491 1_545 S
C1585 C1584 1.400 . S
C1585 C1586 1.398 . S
C1586 H1574 0.950 . S
C1586 C1585 1.398 . S
C1586 C1587 1.391 . S
C1587 H1575 0.950 . S
C1587 C1583 1.393 . S
C1587 C1586 1.391 . S
H1588 C1596 0.950 . S
H1589 C1601 0.950 . S
H1590 C1598 0.950 . S
H1591 C1600 0.950 . S
H1592 C1602 0.950 . S
H1593 C1604 0.950 . S
H1594 C1606 0.950 . S
H1595 C1607 0.950 . S
C1596 H1588 0.950 . S
C1596 C1597 1.386 . S
C1596 C1598 1.391 1_554 S
C1597 C1596 1.386 . S
C1597 C1601 1.393 . S
C1598 H1590 0.950 . S
C1598 C1596 1.391 1_556 S
C1598 C1599 1.400 1_556 S
C1599 C1598 1.400 1_554 S
C1599 C1600 1.398 . S
C1599 C1605 1.491 1_554 S
C1600 H1591 0.950 . S
C1600 C1599 1.398 . S
C1600 C1601 1.391 . S
C1601 H1589 0.950 . S
C1601 C1597 1.393 . S
C1601 C1600 1.391 . S
C1602 H1592 0.950 . S
C1602 C1603 1.386 . S
C1602 C1604 1.391 1_556 S
C1603 C1602 1.386 . S
C1603 C1607 1.393 . S
C1604 H1593 0.950 . S
C1604 C1602 1.391 1_554 S
C1604 C1605 1.400 1_554 S
C1605 C1599 1.491 1_556 S
C1605 C1604 1.400 1_556 S
C1605 C1606 1.398 . S
C1606 H1594 0.950 . S
C1606 C1605 1.398 . S
C1606 C1607 1.391 . S
C1607 H1595 0.950 . S
C1607 C1603 1.393 . S
C1607 C1606 1.391 . S
H1608 C1616 0.950 . S
H1609 C1621 0.950 1_455 S
H1610 C1618 0.950 . S
H1611 C1620 0.950 1_455 S
H1612 C1622 0.950 1_455 S
H1613 C1624 0.950 1_455 S
H1614 C1626 0.950 . S
H1615 C1627 0.950 . S
C1616 H1608 0.950 . S
C1616 C1617 1.386 . S
C1616 C1618 1.391 . S
C1617 C1616 1.386 . S
C1617 C1621 1.393 . S
C1618 H1610 0.950 . S
C1618 C1616 1.391 . S
C1618 C1619 1.400 . S
C1619 C1618 1.400 . S
C1619 C1620 1.398 . S
C1619 C1625 1.491 1_545 S
C1620 H1611 0.950 1_655 S
C1620 C1619 1.398 . S
C1620 C1621 1.391 . S
C1621 H1609 0.950 1_655 S
C1621 C1617 1.393 . S
C1621 C1620 1.391 . S
C1622 H1612 0.950 1_655 S
C1622 C1623 1.386 . S
C1622 C1624 1.391 . S
C1623 C1622 1.386 . S
C1623 C1627 1.393 . S
C1624 H1613 0.950 1_655 S
C1624 C1622 1.391 . S
C1624 C1625 1.400 . S
C1625 C1619 1.491 1_565 S
C1625 C1624 1.400 . S
C1625 C1626 1.398 . S
C1626 H1614 0.950 . S
C1626 C1625 1.398 . S
C1626 C1627 1.391 . S
C1627 H1615 0.950 . S
C1627 C1623 1.393 . S
C1627 C1626 1.391 . S
H1628 C1636 0.950 . S
H1629 C1641 0.950 . S
H1630 C1638 0.950 . S
H1631 C1640 0.950 . S
H1632 C1642 0.950 . S
H1633 C1644 0.950 . S
H1634 C1646 0.950 . S
H1635 C1647 0.950 . S
C1636 H1628 0.950 . S
C1636 C1637 1.386 . S
C1636 C1638 1.391 . S
C1637 C1636 1.386 . S
C1637 C1641 1.393 . S
C1638 H1630 0.950 . S
C1638 C1636 1.391 . S
C1638 C1639 1.400 . S
C1639 C1638 1.400 . S
C1639 C1640 1.398 . S
C1639 C1645 1.491 . S
C1640 H1631 0.950 . S
C1640 C1639 1.398 . S
C1640 C1641 1.391 . S
C1641 H1629 0.950 . S
C1641 C1637 1.393 . S
C1641 C1640 1.391 . S
C1642 H1632 0.950 . S
C1642 C1643 1.386 . S
C1642 C1644 1.391 . S
C1643 C1642 1.386 . S
C1643 C1647 1.393 . S
C1644 H1633 0.950 . S
C1644 C1642 1.391 . S
C1644 C1645 1.400 . S
C1645 C1639 1.491 . S
C1645 C1644 1.400 . S
C1645 C1646 1.398 . S
C1646 H1634 0.950 . S
C1646 C1645 1.398 . S
C1646 C1647 1.391 . S
C1647 H1635 0.950 . S
C1647 C1643 1.393 . S
C1647 C1646 1.391 . S
H1648 C1656 0.950 . S
H1649 C1661 0.950 . S
H1650 C1658 0.950 . S
H1651 C1660 0.950 . S
H1652 C1662 0.950 . S
H1653 C1664 0.950 . S
H1654 C1666 0.950 . S
H1655 C1667 0.950 . S
C1656 H1648 0.950 . S
C1656 C1657 1.386 . S
C1656 C1658 1.391 . S
C1657 C1656 1.386 . S
C1657 C1661 1.393 . S
C1658 H1650 0.950 . S
C1658 C1656 1.391 . S
C1658 C1659 1.400 . S
C1659 C1658 1.400 . S
C1659 C1660 1.398 . S
C1659 C1665 1.491 1_545 S
C1660 H1651 0.950 . S
C1660 C1659 1.398 . S
C1660 C1661 1.391 . S
C1661 H1649 0.950 . S
C1661 C1657 1.393 . S
C1661 C1660 1.391 . S
C1662 H1652 0.950 . S
C1662 C1663 1.386 . S
C1662 C1664 1.391 . S
C1663 C1662 1.386 . S
C1663 C1667 1.393 . S
C1664 H1653 0.950 . S
C1664 C1662 1.391 . S
C1664 C1665 1.400 . S
C1665 C1659 1.491 1_565 S
C1665 C1664 1.400 . S
C1665 C1666 1.398 . S
C1666 H1654 0.950 . S
C1666 C1665 1.398 . S
C1666 C1667 1.391 . S
C1667 H1655 0.950 . S
C1667 C1663 1.393 . S
C1667 C1666 1.391 . S
H1668 C1676 0.950 . S
H1669 C1681 0.950 . S
H1670 C1678 0.950 . S
H1671 C1680 0.950 . S
H1672 C1682 0.950 . S
H1673 C1684 0.950 . S
H1674 C1686 0.950 . S
H1675 C1687 0.950 . S
C1676 H1668 0.950 . S
C1676 C1677 1.386 . S
C1676 C1678 1.391 . S
C1677 C1676 1.386 . S
C1677 C1681 1.393 1_554 S
C1678 H1670 0.950 . S
C1678 C1676 1.391 . S
C1678 C1679 1.400 . S
C1679 C1678 1.400 . S
C1679 C1680 1.398 1_554 S
C1679 C1685 1.491 1_554 S
C1680 H1671 0.950 . S
C1680 C1679 1.398 1_556 S
C1680 C1681 1.391 . S
C1681 H1669 0.950 . S
C1681 C1677 1.393 1_556 S
C1681 C1680 1.391 . S
C1682 H1672 0.950 . S
C1682 C1683 1.386 . S
C1682 C1684 1.391 . S
C1683 C1682 1.386 . S
C1683 C1687 1.393 1_556 S
C1684 H1673 0.950 . S
C1684 C1682 1.391 . S
C1684 C1685 1.400 . S
C1685 C1679 1.491 1_556 S
C1685 C1684 1.400 . S
C1685 C1686 1.398 1_556 S
C1686 H1674 0.950 . S
C1686 C1685 1.398 1_554 S
C1686 C1687 1.391 . S
C1687 H1675 0.950 . S
C1687 C1683 1.393 1_554 S
C1687 C1686 1.391 . S
H1688 C1696 0.950 . S
H1689 C1701 0.943 1_655 S
H1690 C1698 0.950 . S
H1691 C1700 0.925 1_655 S
H1692 C1702 0.950 . S
H1693 C1704 0.984 . S
H1694 C1706 0.950 . S
H1695 C1707 0.950 . S
C1696 H1688 0.950 . S
C1696 C1697 1.386 . S
C1696 C1698 1.391 . S
C1697 C1696 1.386 . S
C1697 C1701 1.393 . S
C1698 H1690 0.950 . S
C1698 C1696 1.391 . S
C1698 C1699 1.400 . S
C1699 C1698 1.400 . S
C1699 C1700 1.398 . S
C1699 C1705 1.491 1_545 S
C1700 H1691 0.925 1_455 S
C1700 C1699 1.398 . S
C1700 C1701 1.391 . S
C1701 H1689 0.943 1_455 S
C1701 C1697 1.393 . S
C1701 C1700 1.391 . S
C1702 H1692 0.950 . S
C1702 C1703 1.386 . S
C1702 C1704 1.391 . S
C1703 C1702 1.386 . S
C1703 C1707 1.393 . S
C1704 H1693 0.984 . S
C1704 C1702 1.391 . S
C1704 C1705 1.400 . S
C1705 C1699 1.491 1_565 S
C1705 C1704 1.400 . S
C1705 C1706 1.398 . S
C1706 H1694 0.950 . S
C1706 C1705 1.398 . S
C1706 C1707 1.391 . S
C1707 H1695 0.950 . S
C1707 C1703 1.393 . S
C1707 C1706 1.391 . S
H1708 C1716 0.950 . S
H1709 C1721 0.950 . S
H1710 C1718 0.950 . S
H1711 C1720 0.950 . S
H1712 C1722 0.950 . S
H1713 C1724 0.950 . S
H1714 C1726 0.950 . S
H1715 C1727 0.950 . S
C1716 H1708 0.950 . S
C1716 C1717 1.386 . S
C1716 C1718 1.391 . S
C1717 C1716 1.386 . S
C1717 C1721 1.393 . S
C1718 H1710 0.950 . S
C1718 C1716 1.391 . S
C1718 C1719 1.400 . S
C1719 C1718 1.400 . S
C1719 C1720 1.398 . S
C1719 C1725 1.491 . S
C1720 H1711 0.950 . S
C1720 C1719 1.398 . S
C1720 C1721 1.391 . S
C1721 H1709 0.950 . S
C1721 C1717 1.393 . S
C1721 C1720 1.391 . S
C1722 H1712 0.950 . S
C1722 C1723 1.386 . S
C1722 C1724 1.391 . S
C1723 C1722 1.386 . S
C1723 C1727 1.393 . S
C1724 H1713 0.950 . S
C1724 C1722 1.391 . S
C1724 C1725 1.400 . S
C1725 C1719 1.491 . S
C1725 C1724 1.400 . S
C1725 C1726 1.398 . S
C1726 H1714 0.950 . S
C1726 C1725 1.398 . S
C1726 C1727 1.391 . S
C1727 H1715 0.950 . S
C1727 C1723 1.393 . S
C1727 C1726 1.391 . S
C457 C12 1.541 . S
C463 C306 1.543 . S
C477 C320 1.545 . S
C483 C26 1.548 . S
C497 C40 1.543 . S
C503 C334 1.546 . S
C517 C292 1.548 . S
C523 C54 1.545 . S
C537 C68 1.540 . S
C543 C278 1.541 . S
C557 C82 1.551 . S
C563 C236 1.553 . S
C577 C250 1.541 . S
C583 C96 1.540 . S
C597 C110 1.540 . S
C603 C264 1.542 . S
C617 C124 1.541 . S
C623 C418 1.540 . S
C637 C138 1.552 . S
C643 C432 1.553 . S
C657 C446 1.550 . S
C663 C152 1.552 . S
C677 C404 1.553 . S
C683 C166 1.554 . S
C697 C180 1.551 . S
C703 C390 1.549 . S
C717 C348 1.553 . S
C723 C194 1.554 . S
C737 C208 1.547 . S
C743 C362 1.544 . S
C757 C376 1.540 . S
C763 C222 1.540 . S
C777 C4 0.949 . S
C783 C131 0.911 . S
C797 C18 0.948 . S
C803 C369 0.906 . S
C817 C159 0.945 . S
C823 C32 0.962 . S
C837 C46 0.956 . S
C843 C341 0.938 . S
C857 C60 0.949 . S
C863 C215 0.912 . S
C877 C397 0.922 . S
C883 C74 0.964 . S
C897 C187 0.942 . S
C903 C88 0.965 . S
C917 C425 0.900 . S
C923 C102 0.948 . S
C937 C116 0.953 . S
C943 C19 0.931 . S
C957 C257 0.931 . S
C963 C130 0.953 . S
C977 C47 0.894 . S
C983 C144 0.953 . S
C997 C158 0.956 . S
C1003 C229 0.939 . S
C1017 C103 0.918 . S
C1023 C172 0.963 . S
C1037 C285 0.900 . S
C1043 C186 0.948 . S
C1057 C75 0.945 . S
C1063 C200 0.963 . S
C1077 C214 0.961 . S
C1083 C313 0.909 . S
C1097 C355 0.905 . S
C1103 C228 0.948 . S
C1117 C145 0.938 . S
C1123 C242 0.965 . S
C1137 C383 0.930 . S
C1143 C256 0.953 . S
C1157 C270 0.951 . S
C1163 C117 0.924 . S
C1177 C439 0.901 . S
C1183 C284 0.948 . S
C1197 C173 0.922 . S
C1203 C298 0.964 . S
C1217 C411 0.935 . S
C1223 C312 0.955 . S
C1237 C326 0.958 . S
C1243 C201 0.901 . S
C1257 C340 0.949 . S
C1263 C243 0.916 . S
C1277 C33 0.943 . S
C1283 C354 0.964 . S
C1297 C368 0.964 . S
C1303 C271 0.922 . S
C1317 C382 0.965 . S
C1323 C5 0.942 . S
C1337 C396 0.961 . S
C1343 C327 0.911 . S
C1357 C61 0.916 . S
C1363 C410 0.963 . S
C1377 C299 0.938 . S
C1383 C424 0.965 . S
C1397 C438 0.963 . S
C1403 C89 0.945 . S
C1417 C11 1.160 . S
C1423 C67 1.148 . S
C1437 C25 1.160 . S
C1443 C81 1.151 . S
C1457 C95 1.160 . S
C1463 C39 1.148 . S
C1477 C109 1.144 . S
C1483 C53 1.135 . S
C1497 C179 1.149 . S
C1503 C123 1.160 . S
C1517 C193 1.140 . S
C1523 C137 1.136 . S
C1537 C207 1.150 . S
C1543 C151 1.160 . S
C1557 C221 1.156 . S
C1563 C165 1.139 . S
C1577 C235 1.139 . S
C1583 C291 1.156 . S
C1597 C249 1.159 . S
C1603 C305 1.155 . S
C1617 C263 1.143 . S
C1623 C319 1.135 . S
C1637 C333 1.137 . S
C1643 C277 1.140 . S
C1657 C347 1.159 . S
C1663 C403 1.155 . S
C1677 C417 1.144 . S
C1683 C361 1.135 . S
C1697 C431 1.160 . S
C1703 C375 1.147 . S
C1717 C445 1.150 . S
C1723 C389 1.136 . S
