# Generated by pormake.
# Topology lcs, (4)-cn, num edge types: 1
# Building blocks:
#     Node 0, Type 0, BuildingBlock: CEKHIL_clean_sbu_0, # of connection points: 4
#     Node 1, Type 0, BuildingBlock: CEKHIL_clean_sbu_0, # of connection points: 4
#     Node 2, Type 0, BuildingBlock: CEKHIL_clean_sbu_0, # of connection points: 4
#     Node 3, Type 0, BuildingBlock: CEKHIL_clean_sbu_0, # of connection points: 4
#     Node 4, Type 0, BuildingBlock: CEKHIL_clean_sbu_0, # of connection points: 4
#     Node 5, Type 0, BuildingBlock: CEKHIL_clean_sbu_0, # of connection points: 4
#     Node 6, Type 0, BuildingBlock: CEKHIL_clean_sbu_0, # of connection points: 4
#     Node 7, Type 0, BuildingBlock: CEKHIL_clean_sbu_0, # of connection points: 4
#     Node 8, Type 0, BuildingBlock: CEKHIL_clean_sbu_0, # of connection points: 4
#     Node 9, Type 0, BuildingBlock: CEKHIL_clean_sbu_0, # of connection points: 4
#     Node 10, Type 0, BuildingBlock: CEKHIL_clean_sbu_0, # of connection points: 4
#     Node 11, Type 0, BuildingBlock: CEKHIL_clean_sbu_0, # of connection points: 4
#     Node 12, Type 0, BuildingBlock: CEKHIL_clean_sbu_0, # of connection points: 4
#     Node 13, Type 0, BuildingBlock: CEKHIL_clean_sbu_0, # of connection points: 4
#     Node 14, Type 0, BuildingBlock: CEKHIL_clean_sbu_0, # of connection points: 4
#     Node 15, Type 0, BuildingBlock: CEKHIL_clean_sbu_0, # of connection points: 4
#     Node 16, Type 0, BuildingBlock: CEKHIL_clean_sbu_0, # of connection points: 4
#     Node 17, Type 0, BuildingBlock: CEKHIL_clean_sbu_0, # of connection points: 4
#     Node 18, Type 0, BuildingBlock: CEKHIL_clean_sbu_0, # of connection points: 4
#     Node 19, Type 0, BuildingBlock: CEKHIL_clean_sbu_0, # of connection points: 4
#     Node 20, Type 0, BuildingBlock: CEKHIL_clean_sbu_0, # of connection points: 4
#     Node 21, Type 0, BuildingBlock: CEKHIL_clean_sbu_0, # of connection points: 4
#     Node 22, Type 0, BuildingBlock: CEKHIL_clean_sbu_0, # of connection points: 4
#     Node 23, Type 0, BuildingBlock: CEKHIL_clean_sbu_0, # of connection points: 4
#     Edge 24, Type (0, 0), BuildingBlock: UVAHIK_clean_linker_0, # of connection points: 2
#     Edge 25, Type (0, 0), BuildingBlock: UVAHIK_clean_linker_0, # of connection points: 2
#     Edge 26, Type (0, 0), BuildingBlock: UVAHIK_clean_linker_0, # of connection points: 2
#     Edge 27, Type (0, 0), BuildingBlock: UVAHIK_clean_linker_0, # of connection points: 2
#     Edge 28, Type (0, 0), BuildingBlock: UVAHIK_clean_linker_0, # of connection points: 2
#     Edge 29, Type (0, 0), BuildingBlock: UVAHIK_clean_linker_0, # of connection points: 2
#     Edge 30, Type (0, 0), BuildingBlock: UVAHIK_clean_linker_0, # of connection points: 2
#     Edge 31, Type (0, 0), BuildingBlock: UVAHIK_clean_linker_0, # of connection points: 2
#     Edge 32, Type (0, 0), BuildingBlock: UVAHIK_clean_linker_0, # of connection points: 2
#     Edge 33, Type (0, 0), BuildingBlock: UVAHIK_clean_linker_0, # of connection points: 2
#     Edge 34, Type (0, 0), BuildingBlock: UVAHIK_clean_linker_0, # of connection points: 2
#     Edge 35, Type (0, 0), BuildingBlock: UVAHIK_clean_linker_0, # of connection points: 2
#     Edge 36, Type (0, 0), BuildingBlock: UVAHIK_clean_linker_0, # of connection points: 2
#     Edge 37, Type (0, 0), BuildingBlock: UVAHIK_clean_linker_0, # of connection points: 2
#     Edge 38, Type (0, 0), BuildingBlock: UVAHIK_clean_linker_0, # of connection points: 2
#     Edge 39, Type (0, 0), BuildingBlock: UVAHIK_clean_linker_0, # of connection points: 2
#     Edge 40, Type (0, 0), BuildingBlock: UVAHIK_clean_linker_0, # of connection points: 2
#     Edge 41, Type (0, 0), BuildingBlock: UVAHIK_clean_linker_0, # of connection points: 2
#     Edge 42, Type (0, 0), BuildingBlock: UVAHIK_clean_linker_0, # of connection points: 2
#     Edge 43, Type (0, 0), BuildingBlock: UVAHIK_clean_linker_0, # of connection points: 2
#     Edge 44, Type (0, 0), BuildingBlock: UVAHIK_clean_linker_0, # of connection points: 2
#     Edge 45, Type (0, 0), BuildingBlock: UVAHIK_clean_linker_0, # of connection points: 2
#     Edge 46, Type (0, 0), BuildingBlock: UVAHIK_clean_linker_0, # of connection points: 2
#     Edge 47, Type (0, 0), BuildingBlock: UVAHIK_clean_linker_0, # of connection points: 2
#     Edge 48, Type (0, 0), BuildingBlock: UVAHIK_clean_linker_0, # of connection points: 2
#     Edge 49, Type (0, 0), BuildingBlock: UVAHIK_clean_linker_0, # of connection points: 2
#     Edge 50, Type (0, 0), BuildingBlock: UVAHIK_clean_linker_0, # of connection points: 2
#     Edge 51, Type (0, 0), BuildingBlock: UVAHIK_clean_linker_0, # of connection points: 2
#     Edge 52, Type (0, 0), BuildingBlock: UVAHIK_clean_linker_0, # of connection points: 2
#     Edge 53, Type (0, 0), BuildingBlock: UVAHIK_clean_linker_0, # of connection points: 2
#     Edge 54, Type (0, 0), BuildingBlock: UVAHIK_clean_linker_0, # of connection points: 2
#     Edge 55, Type (0, 0), BuildingBlock: UVAHIK_clean_linker_0, # of connection points: 2
#     Edge 56, Type (0, 0), BuildingBlock: UVAHIK_clean_linker_0, # of connection points: 2
#     Edge 57, Type (0, 0), BuildingBlock: UVAHIK_clean_linker_0, # of connection points: 2
#     Edge 58, Type (0, 0), BuildingBlock: UVAHIK_clean_linker_0, # of connection points: 2
#     Edge 59, Type (0, 0), BuildingBlock: UVAHIK_clean_linker_0, # of connection points: 2
#     Edge 60, Type (0, 0), BuildingBlock: UVAHIK_clean_linker_0, # of connection points: 2
#     Edge 61, Type (0, 0), BuildingBlock: UVAHIK_clean_linker_0, # of connection points: 2
#     Edge 62, Type (0, 0), BuildingBlock: UVAHIK_clean_linker_0, # of connection points: 2
#     Edge 63, Type (0, 0), BuildingBlock: UVAHIK_clean_linker_0, # of connection points: 2
#     Edge 64, Type (0, 0), BuildingBlock: UVAHIK_clean_linker_0, # of connection points: 2
#     Edge 65, Type (0, 0), BuildingBlock: UVAHIK_clean_linker_0, # of connection points: 2
#     Edge 66, Type (0, 0), BuildingBlock: UVAHIK_clean_linker_0, # of connection points: 2
#     Edge 67, Type (0, 0), BuildingBlock: UVAHIK_clean_linker_0, # of connection points: 2
#     Edge 68, Type (0, 0), BuildingBlock: UVAHIK_clean_linker_0, # of connection points: 2
#     Edge 69, Type (0, 0), BuildingBlock: UVAHIK_clean_linker_0, # of connection points: 2
#     Edge 70, Type (0, 0), BuildingBlock: UVAHIK_clean_linker_0, # of connection points: 2
#     Edge 71, Type (0, 0), BuildingBlock: UVAHIK_clean_linker_0, # of connection points: 2
# Relax obj value: 0.002
# Max RMSD: 0.025
# Mean RMSD: 0.021
data_MOF--net-lcs--node1-CEKHIL_clean_sbu_0--edge1-UVAHIK_clean_linker_0
_symmetry_space_group_name_H-M    P1
_symmetry_Int_Tables_number       1
_symmetry_cell_setting            triclinic
loop_
_symmetry_equiv_pos_as_xyz
'x, y, z'
_cell_length_a     64.053286
_cell_length_b     62.966112
_cell_length_c     62.970533
_cell_angle_alpha  90.72049
_cell_angle_beta   90.317291
_cell_angle_gamma 90.619179
loop_
_atom_site_label
_atom_site_type_symbol
_atom_site_fract_x
_atom_site_fract_y
_atom_site_fract_z
_atom_type_partial_charge
Co0 Co 0.00561 0.26119 0.38663 0.0
O1 O 0.97748 0.27146 0.38359 0.0
O2 O 0.98996 0.25581 0.41219 0.0
C3 C 0.02137 0.29079 0.37392 0.0
O4 O 0.03357 0.24928 0.39649 0.0
Co5 Co 0.03526 0.25484 0.34855 0.0
O6 O 0.0572 0.25062 0.37036 0.0
C7 C 1.00121 0.22358 0.35603 0.0
C8 C 0.97445 0.26514 0.4029 0.0
C9 C 0.05232 0.24704 0.38958 0.0
O10 O 0.99689 0.23273 0.37388 0.0
O11 O 0.01485 0.23093 0.34317 0.0
O12 O 0.01547 0.28997 0.3936 0.0
O13 O 0.01642 0.27442 0.36231 0.0
Co14 Co 0.01499 0.75198 0.63631 0.0
O15 O 0.04103 0.73778 0.64096 0.0
O16 O 0.02205 0.73442 0.6117 0.0
C17 C 0.0272 0.78404 0.64754 0.0
O18 O 0.98753 0.76497 0.6257 0.0
Co19 Co 0.99175 0.77331 0.67384 0.0
O20 O 0.97619 0.78762 0.65093 0.0
C21 C 0.98935 0.72652 0.66785 0.0
C22 C 0.03904 0.72974 0.62202 0.0
C23 C 0.97523 0.77982 0.63218 0.0
O24 O 0.99931 0.72775 0.65016 0.0
O25 O 0.98608 0.74262 0.67998 0.0
O26 O 0.03007 0.77774 0.62808 0.0
O27 O 0.01824 0.77046 0.65977 0.0
Co28 Co 0.50577 0.762 0.8886 0.0
O29 O 0.47827 0.77312 0.88377 0.0
O30 O 0.48819 0.7568 0.91299 0.0
C31 C 0.52285 0.79134 0.87714 0.0
O32 O 0.53286 0.74939 0.90007 0.0
Co33 Co 0.53755 0.75528 0.85237 0.0
O34 O 0.55818 0.75363 0.87588 0.0
C35 C 0.50261 0.72447 0.85771 0.0
C36 C 0.47371 0.76686 0.90277 0.0
C37 C 0.55219 0.74897 0.89451 0.0
O38 O 0.49723 0.73383 0.87513 0.0
O39 O 0.51731 0.73142 0.84585 0.0
O40 O 0.51573 0.79056 0.89639 0.0
O41 O 0.51836 0.77512 0.86515 0.0
Co42 Co 0.5142 0.25247 0.13507 0.0
O43 O 0.5408 0.23943 0.13958 0.0
O44 O 0.5221 0.23579 0.11015 0.0
C45 C 0.52463 0.28483 0.14716 0.0
O46 O 0.48622 0.26453 0.12475 0.0
Co47 Co 0.48999 0.27083 0.17368 0.0
O48 O 0.47326 0.28467 0.1513 0.0
C49 C 0.49284 0.2244 0.16719 0.0
C50 C 0.53921 0.23163 0.12051 0.0
C51 C 0.47298 0.2781 0.13207 0.0
O52 O 0.49976 0.22716 0.14824 0.0
O53 O 0.48991 0.23972 0.18038 0.0
O54 O 0.52829 0.27908 0.12767 0.0
O55 O 0.51627 0.27046 0.1589 0.0
Co56 Co 0.01173 0.75494 0.13141 0.0
O57 O 0.03939 0.76657 0.13581 0.0
O58 O 0.0285 0.75072 0.10617 0.0
C59 C 0.99467 0.78343 0.14455 0.0
O60 O 0.9841 0.74213 0.12046 0.0
Co61 Co 0.98224 0.74629 0.1692 0.0
O62 O 0.9606 0.74324 0.1468 0.0
C63 C 0.01598 0.71603 0.15978 0.0
C64 C 0.04335 0.7608 0.1164 0.0
C65 C 0.96529 0.73999 0.1274 0.0
O66 O 0.02081 0.7266 0.14307 0.0
O67 O 1.00186 0.72194 0.17284 0.0
O68 O 1.00143 0.78325 0.12516 0.0
O69 O 0.99993 0.76734 0.15589 0.0
Co70 Co 0.49717 0.7588 0.38594 0.0
O71 O 0.47067 0.74446 0.38213 0.0
O72 O 0.48999 0.74283 0.41121 0.0
C73 C 0.48579 0.79012 0.37323 0.0
O74 O 0.52495 0.77231 0.39603 0.0
Co75 Co 0.52108 0.77773 0.34755 0.0
O76 O 0.53744 0.79277 0.36989 0.0
C77 C 0.52385 0.7317 0.35652 0.0
C78 C 0.47267 0.73774 0.40139 0.0
C79 C 0.5381 0.78616 0.38892 0.0
O80 O 0.51248 0.73372 0.37325 0.0
O81 O 0.52809 0.74699 0.34398 0.0
O82 O 0.48248 0.78509 0.39287 0.0
O83 O 0.49459 0.77573 0.36174 0.0
Co84 Co 0.51225 0.25547 0.62894 0.0
O85 O 0.54034 0.26669 0.63187 0.0
O86 O 0.52739 0.2514 0.60275 0.0
C87 C 0.49615 0.28401 0.64327 0.0
O88 O 0.48419 0.24298 0.61912 0.0
Co89 Co 0.48356 0.24692 0.66722 0.0
O90 O 0.46098 0.24523 0.64559 0.0
C91 C 0.51686 0.21629 0.65665 0.0
C92 C 0.54296 0.26111 0.61214 0.0
C93 C 0.46539 0.24166 0.62619 0.0
O94 O 0.52158 0.22696 0.63997 0.0
O95 O 0.50294 0.22221 0.66994 0.0
O96 O 0.5018 0.28388 0.62349 0.0
O97 O 0.50175 0.26772 0.65415 0.0
Co98 Co 0.99755 0.25804 0.88677 0.0
O99 O 0.9701 0.24541 0.88489 0.0
O100 O 0.99068 0.24361 0.91308 0.0
C101 C 0.98793 0.28959 0.87322 0.0
O102 O 0.02651 0.27012 0.89459 0.0
Co103 Co 0.01999 0.27223 0.84546 0.0
O104 O 0.03958 0.28631 0.86581 0.0
C105 C 0.01721 0.22677 0.85583 0.0
C106 C 0.97269 0.23919 0.90425 0.0
C107 C 0.04048 0.28175 0.88547 0.0
O108 O 0.01047 0.23139 0.87456 0.0
O109 O 0.01986 0.24058 0.84131 0.0
O110 O 0.98508 0.28565 0.8932 0.0
O111 O 0.99484 0.27395 0.862 0.0
Co112 Co 0.37628 1.0002 0.26425 0.0
O113 O 0.37147 0.97371 0.27834 0.0
O114 O 0.4002 0.98192 0.26076 0.0
C115 C 0.3654 0.02075 0.2917 0.0
O116 O 0.38742 0.0263 0.24875 0.0
Co117 Co 0.33974 0.0305 0.25463 0.0
O118 O 0.36223 0.05081 0.24723 0.0
C119 C 0.34529 0.99196 0.22805 0.0
C120 C 0.3901 0.96844 0.27248 0.0
C121 C 0.38101 0.04505 0.24423 0.0
O122 O 0.36293 0.98842 0.23723 0.0
O123 O 0.33311 0.00689 0.23394 0.0
O124 O 0.38426 0.01341 0.2914 0.0
O125 O 0.35335 0.01421 0.2764 0.0
Co126 Co 0.25174 0.13001 0.50245 0.0
O127 O 0.22375 0.12594 0.49153 0.0
O128 O 0.23523 0.15501 0.50807 0.0
C129 C 0.26811 0.11801 0.47302 0.0
O130 O 0.27952 0.14073 0.51492 0.0
Co131 Co 0.28196 0.09257 0.50876 0.0
O132 O 0.30355 0.11533 0.51063 0.0
C133 C 0.24843 0.09996 0.54008 0.0
C134 C 0.22008 0.14518 0.49807 0.0
C135 C 0.29857 0.13435 0.51529 0.0
O136 O 0.24343 0.1172 0.53055 0.0
O137 O 0.26247 0.08735 0.53311 0.0
O138 O 0.26136 0.13735 0.47409 0.0
O139 O 0.26333 0.10609 0.48888 0.0
Co140 Co 0.12994 0.00817 0.7656 0.0
O141 O 0.12506 0.99119 0.79043 0.0
O142 O 0.15464 0.9921 0.7725 0.0
C143 C 0.11626 0.03818 0.77943 0.0
O144 O 0.14134 0.02413 0.73987 0.0
Co145 Co 0.09392 0.02858 0.74014 0.0
O146 O 0.11647 0.04498 0.72634 0.0
C147 C 0.10258 0.98274 0.73462 0.0
C148 C 0.14419 0.98486 0.78857 0.0
C149 C 0.13529 0.0387 0.72705 0.0
O150 O 0.11878 0.98439 0.74676 0.0
O151 O 0.09025 0.99815 0.73092 0.0
O152 O 0.13539 0.03304 0.78378 0.0
O153 O 0.10572 0.02454 0.76812 0.0
Co154 Co 0.25716 0.87299 0.99721 0.0
O155 O 0.28437 0.87692 0.98498 0.0
O156 O 0.27405 0.84805 0.00179 0.0
C157 C 0.23942 0.88492 0.96853 0.0
O158 O 0.23014 0.86249 0.01096 0.0
Co159 Co 0.22766 0.91076 0.00518 0.0
O160 O 0.20669 0.88875 0.01252 0.0
C161 C 0.26317 0.90396 0.03446 0.0
C162 C 0.28859 0.85789 0.99128 0.0
C163 C 0.21177 0.86947 0.01526 0.0
O164 O 0.26723 0.8862 0.02503 0.0
O165 O 0.24911 0.91663 0.02788 0.0
O166 O 0.24572 0.8654 0.96921 0.0
O167 O 0.24514 0.89686 0.9844 0.0
Co168 Co 0.26745 0.37544 0.00419 0.0
O169 O 0.29308 0.37985 0.01997 0.0
O170 O 0.27469 0.34995 0.01957 0.0
C171 C 0.27958 0.38934 0.9736 0.0
O172 O 0.2407 0.36461 0.98929 0.0
Co173 Co 0.24292 0.41329 0.98545 0.0
O174 O 0.22778 0.39076 0.96925 0.0
C175 C 0.24012 0.4041 0.03142 0.0
C176 C 0.29128 0.3603 0.02602 0.0
C177 C 0.22782 0.3715 0.97519 0.0
O178 O 0.25075 0.38697 0.02892 0.0
O179 O 0.23665 0.41715 0.01639 0.0
O180 O 0.28345 0.36977 0.97839 0.0
O181 O 0.26989 0.40017 0.98792 0.0
Co182 Co 0.75067 0.12529 0.01073 0.0
O183 O 0.72354 0.12017 0.02272 0.0
O184 O 0.74248 0.1492 0.02859 0.0
C185 C 0.74113 0.11531 0.97741 0.0
O186 O 0.77903 0.13648 1.00025 0.0
Co187 Co 0.77534 0.08806 0.99045 0.0
O188 O 0.79603 0.11025 0.98309 0.0
C189 C 0.77274 0.09211 0.03718 0.0
C190 C 0.72505 0.13884 0.03152 0.0
C191 C 0.79476 0.1294 0.98966 0.0
O192 O 0.76439 0.11058 0.03556 0.0
O193 O 0.77629 0.08005 0.0211 0.0
O194 O 0.73754 0.13442 0.98432 0.0
O195 O 0.74899 0.10259 0.99114 0.0
Co196 Co 0.13546 0.50872 0.25803 0.0
O197 O 0.13871 0.5336 0.24079 0.0
O198 O 0.11017 0.51357 0.24174 0.0
C199 C 0.14831 0.52403 0.28806 0.0
O200 O 0.12601 0.48239 0.27447 0.0
Co201 Co 0.17391 0.48725 0.27867 0.0
O202 O 0.1527 0.47088 0.29445 0.0
C203 C 0.1651 0.48057 0.23287 0.0
C204 C 0.11962 0.53037 0.2345 0.0
C205 C 0.1336 0.47001 0.2887 0.0
O206 O 0.14765 0.49046 0.23457 0.0
O207 O 0.17818 0.47894 0.24821 0.0
O208 O 0.12895 0.52668 0.28261 0.0
O209 O 0.15953 0.51368 0.27457 0.0
Co210 Co 0.76744 0.87396 0.50593 0.0
O211 O 0.79299 0.8787 0.52173 0.0
O212 O 0.77478 0.8487 0.52169 0.0
C213 C 0.77971 0.88754 0.47526 0.0
O214 O 0.74074 0.86288 0.49106 0.0
Co215 Co 0.743 0.91154 0.48634 0.0
O216 O 0.72804 0.88871 0.47046 0.0
C217 C 0.73965 0.90279 0.53241 0.0
C218 C 0.79133 0.85922 0.52801 0.0
C219 C 0.72795 0.86956 0.47677 0.0
O220 O 0.75058 0.88579 0.53043 0.0
O221 O 0.73619 0.91553 0.51711 0.0
O222 O 0.7836 0.86803 0.48026 0.0
O223 O 0.76988 0.89846 0.4894 0.0
Co224 Co 0.88707 0.99279 0.26178 0.0
O225 O 0.89171 0.97986 0.28885 0.0
O226 O 0.8632 0.9973 0.28 0.0
C227 C 0.89757 0.96433 0.24249 0.0
O228 O 0.8761 0.00721 0.23507 0.0
Co229 Co 0.92335 1.00068 0.23051 0.0
O230 O 0.90048 0.00462 0.20968 0.0
C231 C 0.91828 0.02932 0.26776 0.0
C232 C 0.87313 0.98607 0.29394 0.0
C233 C 0.88203 0.00899 0.21565 0.0
O234 O 0.9008 0.02014 0.27225 0.0
O235 O 0.93011 0.02291 0.25269 0.0
O236 O 0.87871 0.96517 0.24987 0.0
O237 O 0.90982 0.97984 0.24819 0.0
Co238 Co 0.25011 0.6257 0.5103 0.0
O239 O 0.22329 0.62023 0.52287 0.0
O240 O 0.24204 0.64942 0.52853 0.0
C241 C 0.24003 0.61594 0.47706 0.0
O242 O 0.27819 0.63715 0.49928 0.0
Co243 Co 0.27456 0.58869 0.48922 0.0
O244 O 0.29485 0.61111 0.48144 0.0
C245 C 0.27313 0.59255 0.53603 0.0
C246 C 0.2248 0.63882 0.53181 0.0
C247 C 0.29366 0.6302 0.48819 0.0
O248 O 0.26448 0.6109 0.53472 0.0
O249 O 0.27647 0.58062 0.51981 0.0
O250 O 0.23638 0.63495 0.48425 0.0
O251 O 0.2482 0.60315 0.49054 0.0
Co252 Co 0.38879 0.49414 0.76047 0.0
O253 O 0.39278 0.48109 0.78761 0.0
O254 O 0.36433 0.49822 0.77802 0.0
C255 C 0.40037 0.46585 0.74149 0.0
O256 O 0.37835 0.50859 0.73357 0.0
Co257 Co 0.42556 0.50244 0.72994 0.0
O258 O 0.40313 0.50623 0.70859 0.0
C259 C 0.41945 0.53098 0.76718 0.0
C260 C 0.37399 0.48704 0.79219 0.0
C261 C 0.38455 0.51046 0.71425 0.0
O262 O 0.40198 0.52161 0.77146 0.0
O263 O 0.43153 0.5247 0.75229 0.0
O264 O 0.38119 0.46645 0.74803 0.0
O265 O 0.41212 0.48158 0.74762 0.0
Co266 Co 0.63491 0.00958 0.75858 0.0
O267 O 0.63857 0.03486 0.74198 0.0
O268 O 0.6099 0.01498 0.74206 0.0
C269 C 0.6475 0.02389 0.78918 0.0
O270 O 0.62506 0.98292 0.7742 0.0
Co271 Co 0.67327 0.98734 0.77877 0.0
O272 O 0.65215 0.9684 0.79159 0.0
C273 C 0.66492 0.9824 0.73278 0.0
C274 C 0.61957 0.03185 0.73528 0.0
C275 C 0.63288 0.96885 0.78657 0.0
O276 O 0.64723 0.9918 0.73482 0.0
O277 O 0.67807 0.98071 0.74803 0.0
O278 O 0.62825 0.02694 0.78354 0.0
O279 O 0.6588 0.01387 0.77553 0.0
Co280 Co 0.7518 0.62932 0.0045 0.0
O281 O 0.72356 0.62709 0.99372 0.0
O282 O 0.73709 0.6555 0.00986 0.0
C283 C 0.76746 0.61601 0.97519 0.0
O284 O 0.78026 0.63828 0.01673 0.0
Co285 Co 0.77937 0.58985 0.01105 0.0
O286 O 0.80236 0.61086 0.01502 0.0
C287 C 0.74612 0.59948 0.042 0.0
C288 C 0.72126 0.6466 1.00011 0.0
C289 C 0.79867 0.63042 0.01859 0.0
O290 O 0.74256 0.61723 0.03269 0.0
O291 O 0.75916 0.58586 0.03494 0.0
O292 O 0.76201 0.6358 0.97615 0.0
O293 O 0.76173 0.60453 0.99106 0.0
Co294 Co 0.87752 0.49909 0.76609 0.0
O295 O 0.87423 0.47183 0.77911 0.0
O296 O 0.90249 0.48244 0.76201 0.0
C297 C 0.86538 0.51775 0.79432 0.0
O298 O 0.88721 0.52638 0.75169 0.0
Co299 Co 0.83973 0.52811 0.75774 0.0
O300 O 0.86151 0.55028 0.75388 0.0
C301 C 0.84785 0.49187 0.72853 0.0
C302 C 0.89319 0.46795 0.7732 0.0
C303 C 0.88031 0.54541 0.7497 0.0
O304 O 0.86493 0.48775 0.73854 0.0
O305 O 0.83524 0.50637 0.73455 0.0
O306 O 0.88468 0.51171 0.79373 0.0
O307 O 0.85378 0.51116 0.77868 0.0
Co308 Co 0.76053 0.37162 0.49828 0.0
O309 O 0.78853 0.3745 0.48748 0.0
O310 O 0.77608 0.34607 0.50363 0.0
C311 C 0.74463 0.38417 0.46882 0.0
O312 O 0.73264 0.36203 0.51082 0.0
Co313 Co 0.73115 0.40977 0.50469 0.0
O314 O 0.70893 0.38776 0.50725 0.0
C315 C 0.76607 0.40296 0.53499 0.0
C316 C 0.79154 0.35527 0.49397 0.0
C317 C 0.71375 0.36877 0.51174 0.0
O318 O 0.76977 0.38471 0.52638 0.0
O319 O 0.75242 0.41572 0.52766 0.0
O320 O 0.75022 0.36443 0.46972 0.0
O321 O 0.74984 0.39584 0.48505 0.0
Co322 Co 0.62937 0.50733 0.26811 0.0
O323 O 0.62626 0.49177 0.294 0.0
O324 O 0.65464 0.49161 0.27419 0.0
C325 C 0.61645 0.53795 0.28135 0.0
O326 O 0.63853 0.52204 0.24083 0.0
Co327 Co 0.59072 0.52547 0.24499 0.0
O328 O 0.61175 0.54056 0.22753 0.0
C329 C 0.59864 0.47942 0.2437 0.0
C330 C 0.64516 0.48519 0.29123 0.0
C331 C 0.63089 0.53524 0.22742 0.0
O332 O 0.6171 0.48259 0.25138 0.0
O333 O 0.5851 0.49412 0.24198 0.0
O334 O 0.63595 0.53329 0.28432 0.0
O335 O 0.60527 0.52354 0.27184 0.0
C336 C 0.09873 0.45146 0.29375 0.0
C337 C 0.12031 0.45298 0.29797 0.0
C338 C 0.08684 0.43453 0.30179 0.0
C339 C 0.09254 0.37947 0.31936 0.0
H340 H 0.03998 0.38721 0.34856 0.0
C341 C 0.04038 0.30872 0.34435 0.0
C342 C 0.03238 0.30948 0.36507 0.0
C343 C 0.05026 0.32651 0.33569 0.0
C344 C 0.05466 0.38483 0.34047 0.0
H345 H 0.14608 0.43794 0.31439 0.0
H346 H 0.12549 0.40869 0.32805 0.0
H347 H 0.05851 0.4181 0.33418 0.0
H348 H 0.02838 0.32955 0.39295 0.0
H349 H 0.04562 0.36069 0.37778 0.0
H350 H 0.0889 0.34633 0.3257 0.0
C351 C 0.11777 0.42046 0.31846 0.0
C352 C 0.06515 0.40247 0.33208 0.0
C353 C 0.12955 0.43738 0.31069 0.0
C354 C 0.03444 0.32845 0.37695 0.0
C355 C 0.04415 0.34633 0.36821 0.0
C356 C 0.08198 0.36186 0.3275 0.0
C357 C 0.09635 0.41868 0.31395 0.0
C358 C 0.08434 0.39999 0.32168 0.0
C359 C 0.05221 0.34554 0.34749 0.0
C360 C 0.06302 0.36433 0.33833 0.0
H361 H 0.09109 0.46318 0.28406 0.0
H362 H 0.07033 0.43353 0.29805 0.0
H363 H 0.10722 0.37704 0.31127 0.0
H364 H 0.03898 0.29437 0.33476 0.0
H365 H 0.05617 0.32544 0.31963 0.0
C366 C 0.95087 0.80826 0.62092 0.0
C367 C 0.9581 0.7874 0.61832 0.0
C368 C 0.93286 0.81494 0.61046 0.0
C369 C 0.89416 0.80066 0.56774 0.0
H370 H 0.85972 0.83979 0.59977 0.0
C371 C 0.8112 0.82723 0.54017 0.0
C372 C 0.80842 0.84936 0.54033 0.0
C373 C 0.8288 0.81833 0.54988 0.0
C374 C 0.86918 0.82891 0.5906 0.0
H375 H 0.95242 0.75737 0.60209 0.0
H376 H 0.9205 0.76883 0.58414 0.0
H377 H 0.89189 0.82687 0.61538 0.0
H378 H 0.82156 0.87941 0.55136 0.0
H379 H 0.8518 0.86391 0.56875 0.0
H380 H 0.87092 0.80255 0.5431 0.0
C381 C 0.92899 0.7802 0.59401 0.0
C382 C 0.88778 0.82158 0.59946 0.0
C383 C 0.94732 0.77359 0.60428 0.0
C384 C 0.82321 0.86231 0.55098 0.0
C385 C 0.84054 0.85342 0.56099 0.0
C386 C 0.87533 0.80781 0.55896 0.0
C387 C 0.92122 0.80085 0.59738 0.0
C388 C 0.90081 0.80767 0.58804 0.0
C389 C 0.84372 0.83137 0.56031 0.0
C390 C 0.86281 0.82229 0.57017 0.0
H391 H 0.95896 0.81937 0.63144 0.0
H392 H 0.92791 0.83117 0.61295 0.0
H393 H 0.90374 0.79009 0.55835 0.0
H394 H 0.80016 0.81685 0.53194 0.0
H395 H 0.83077 0.80127 0.54922 0.0
C396 C 0.44471 0.56085 0.77426 0.0
C397 C 0.4261 0.55017 0.77964 0.0
C398 C 0.45139 0.57884 0.78558 0.0
C399 C 0.43408 0.62258 0.82023 0.0
H400 H 0.49365 0.62865 0.8303 0.0
C401 C 0.47436 0.69643 0.86198 0.0
C402 C 0.4919 0.70433 0.85109 0.0
C403 C 0.46488 0.67711 0.85571 0.0
C404 C 0.47697 0.62722 0.8276 0.0
H405 H 0.39981 0.55042 0.80122 0.0
H406 H 0.41169 0.58207 0.82121 0.0
H407 H 0.47971 0.59557 0.81543 0.0
H408 H 0.51293 0.69807 0.82482 0.0
H409 H 0.49657 0.66471 0.81415 0.0
H410 H 0.43157 0.65456 0.83226 0.0
C411 C 0.42099 0.57636 0.80806 0.0
C412 C 0.46897 0.60827 0.81904 0.0
C413 C 0.41424 0.55819 0.79666 0.0
C414 C 0.49954 0.69256 0.8337 0.0
C415 C 0.49023 0.6733 0.82762 0.0
C416 C 0.44213 0.64162 0.82894 0.0
C417 C 0.43977 0.58677 0.80272 0.0
C418 C 0.44753 0.60592 0.81461 0.0
C419 C 0.47293 0.66522 0.83863 0.0
C420 C 0.46376 0.64433 0.83211 0.0
H421 H 0.45424 0.55539 0.76117 0.0
H422 H 0.46566 0.58671 0.78068 0.0
H423 H 0.41749 0.62129 0.81698 0.0
H424 H 0.46801 0.7051 0.87539 0.0
H425 H 0.45156 0.67125 0.86449 0.0
C426 C 0.57387 0.21427 0.12399 0.0
C427 C 0.55694 0.21996 0.11102 0.0
C428 C 0.59174 0.20527 0.11523 0.0
C429 C 0.61244 0.17809 0.06742 0.0
H430 H 0.66577 0.19673 0.09095 0.0
C431 C 0.68894 0.1357 0.04608 0.0
C432 C 0.7069 0.1482 0.04263 0.0
C433 C 0.67087 0.14467 0.05447 0.0
C434 C 0.65105 0.19147 0.08405 0.0
H435 H 0.54531 0.22009 0.07866 0.0
H436 H 0.57672 0.20441 0.06322 0.0
H437 H 0.63361 0.21186 0.1046 0.0
H438 H 0.72006 0.17993 0.04576 0.0
H439 H 0.6884 0.19572 0.06038 0.0
H440 H 0.62993 0.158 0.04658 0.0
C441 C 0.57606 0.2068 0.08026 0.0
C442 C 0.63255 0.19996 0.09206 0.0
C443 C 0.55805 0.21579 0.08908 0.0
C444 C 0.70654 0.16984 0.04835 0.0
C445 C 0.68837 0.17887 0.05673 0.0
C446 C 0.63096 0.1696 0.05939 0.0
C447 C 0.59329 0.20178 0.09322 0.0
C448 C 0.61297 0.19324 0.08401 0.0
C449 C 0.67019 0.16644 0.05961 0.0
C450 C 0.65051 0.17603 0.06773 0.0
H451 H 0.5735 0.21708 0.14099 0.0
H452 H 0.60443 0.20114 0.12579 0.0
H453 H 0.59768 0.17247 0.06088 0.0
H454 H 0.68869 0.11894 0.04196 0.0
H455 H 0.65738 0.1345 0.0569 0.0
C456 C 0.08698 0.54811 0.22195 0.0
C457 C 0.1088 0.54634 0.22146 0.0
C458 C 0.07711 0.56524 0.21225 0.0
C459 C 0.08903 0.62007 0.19353 0.0
H460 H 0.0322 0.61667 0.17221 0.0
C461 C 0.04658 0.69152 0.15542 0.0
C462 C 0.02686 0.6958 0.16411 0.0
C463 C 0.05687 0.6726 0.16018 0.0
C464 C 0.04809 0.61783 0.17811 0.0
H465 H 0.13729 0.56033 0.20929 0.0
H466 H 0.12013 0.58953 0.19152 0.0
H467 H 0.04959 0.58442 0.18362 0.0
H468 H 1.00228 0.68323 0.18413 0.0
H469 H 0.02007 0.65022 0.19204 0.0
H470 H 0.08747 0.65351 0.18773 0.0
C471 C 0.11058 0.57828 0.20009 0.0
C472 C 0.05805 0.59937 0.18479 0.0
C473 C 0.12044 0.56138 0.2101 0.0
C474 C 0.01751 0.68054 0.17726 0.0
C475 C 0.02761 0.66153 0.18168 0.0
C476 C 0.07916 0.63846 0.18655 0.0
C477 C 0.08881 0.58085 0.20152 0.0
C478 C 0.07859 0.60024 0.19291 0.0
C479 C 0.04747 0.6574 0.17335 0.0
C480 C 0.05849 0.63759 0.17907 0.0
H481 H 0.0776 0.53685 0.23074 0.0
H482 H 0.06038 0.56668 0.21398 0.0
H483 H 0.10465 0.62162 0.20006 0.0
H484 H 0.05421 0.70294 0.14526 0.0
H485 H 0.07215 0.6698 0.15348 0.0
C486 C 0.56271 0.78225 0.42026 0.0
C487 C 0.5562 0.7934 0.40218 0.0
C488 C 0.58176 0.78744 0.43039 0.0
C489 C 0.63274 0.81073 0.41731 0.0
H490 H 0.64094 0.82153 0.47753 0.0
C491 C 0.70154 0.86028 0.4488 0.0
C492 C 0.71118 0.85535 0.46821 0.0
C493 C 0.68393 0.84902 0.44168 0.0
C494 C 0.63901 0.81815 0.46073 0.0
H495 H 0.56398 0.81977 0.38163 0.0
H496 H 0.59679 0.82862 0.39913 0.0
H497 H 0.60666 0.80939 0.46429 0.0
H498 H 0.71013 0.83421 0.49509 0.0
H499 H 0.67912 0.81434 0.48252 0.0
H500 H 0.66476 0.8197 0.41351 0.0
C501 C 0.58748 0.81562 0.40525 0.0
C502 C 0.61936 0.81127 0.45317 0.0
C503 C 0.56857 0.81056 0.39528 0.0
C504 C 0.70315 0.8383 0.48 0.0
C505 C 0.68528 0.82708 0.47291 0.0
C506 C 0.65228 0.81745 0.42483 0.0
C507 C 0.59463 0.80377 0.4225 0.0
C508 C 0.61588 0.80818 0.43128 0.0
C509 C 0.67533 0.8325 0.45376 0.0
C510 C 0.65552 0.82194 0.44653 0.0
H511 H 0.55359 0.76894 0.42599 0.0
H512 H 0.58686 0.77812 0.44375 0.0
H513 H 0.63066 0.80801 0.40041 0.0
H514 H 0.70729 0.87328 0.43929 0.0
H515 H 0.67658 0.85387 0.42702 0.0
C516 C 0.48068 0.30268 0.67473 0.0
C517 C 0.48418 0.30171 0.65273 0.0
C518 C 0.47033 0.31997 0.68383 0.0
C519 C 0.43499 0.36426 0.672 0.0
H520 H 0.46016 0.39038 0.72217 0.0
C521 C 0.39572 0.43079 0.72248 0.0
C522 C 0.40877 0.44768 0.72922 0.0
C523 C 0.4041 0.41295 0.71225 0.0
C524 C 0.45298 0.38331 0.70812 0.0
H525 H 0.47905 0.31781 0.62295 0.0
H526 H 0.46085 0.34794 0.63884 0.0
H527 H 0.47594 0.35892 0.70629 0.0
H528 H 0.44075 0.45937 0.73 0.0
H529 H 0.45532 0.42828 0.71229 0.0
H530 H 0.41206 0.38881 0.67385 0.0
C531 C 0.46611 0.33532 0.64904 0.0
C532 C 0.4619 0.36517 0.69915 0.0
C533 C 0.47664 0.31812 0.63996 0.0
C534 C 0.43027 0.4466 0.72508 0.0
C535 C 0.43865 0.42873 0.71505 0.0
C536 C 0.42592 0.38232 0.68113 0.0
C537 C 0.46308 0.33657 0.67111 0.0
C538 C 0.45309 0.35549 0.68093 0.0
C539 C 0.42571 0.41158 0.70876 0.0
C540 C 0.43493 0.39214 0.69919 0.0
H541 H 0.48625 0.29025 0.68499 0.0
H542 H 0.46803 0.32036 0.70086 0.0
H543 H 0.42777 0.35707 0.65804 0.0
H544 H 0.37908 0.43118 0.72544 0.0
H545 H 0.39375 0.39995 0.70766 0.0
C546 C 0.95874 0.21646 0.93384 0.0
C547 C 0.95528 0.22876 0.91571 0.0
C548 C 0.9419 0.20662 0.94418 0.0
C549 C 0.88566 0.21047 0.95335 0.0
H550 H 0.88592 0.14939 0.95974 0.0
C551 C 0.81069 0.1629 0.9753 0.0
C552 C 0.81291 0.1434 0.98554 0.0
C553 C 0.82842 0.1744 0.96883 0.0
C554 C 0.88562 0.16652 0.95863 0.0
H555 H 0.93144 0.24082 0.89456 0.0
H556 H 0.90222 0.22421 0.91291 0.0
H557 H 0.91651 0.16739 0.94561 0.0
H558 H 0.83514 0.1212 0.99823 0.0
H559 H 0.86586 0.1417 0.98841 0.0
H560 H 0.85506 0.20988 0.96677 0.0
C561 C 0.91789 0.22197 0.91899 0.0
C562 C 0.90322 0.17679 0.95037 0.0
C563 C 0.93467 0.23134 0.90841 0.0
C564 C 0.83304 0.13614 0.99018 0.0
C565 C 0.85068 0.14783 0.98426 0.0
C566 C 0.86819 0.20027 0.96205 0.0
C567 C 0.9213 0.20941 0.9369 0.0
C568 C 0.90333 0.19882 0.94739 0.0
C569 C 0.84873 0.16683 0.97289 0.0
C570 C 0.86776 0.17806 0.96461 0.0
H571 H 0.97443 0.21419 0.93982 0.0
H572 H 0.94493 0.197 0.95797 0.0
H573 H 0.88539 0.22752 0.9513 0.0
H574 H 0.79531 0.1687 0.97137 0.0
H575 H 0.82608 0.18877 0.95992 0.0
C576 C 0.27839 0.12013 0.43487 0.0
C577 C 0.28001 0.11003 0.45458 0.0
C578 C 0.28868 0.11198 0.41706 0.0
C579 C 0.33306 0.08214 0.39915 0.0
H580 H 0.29865 0.06364 0.35144 0.0
C581 C 0.36694 0.03271 0.32966 0.0
C582 C 0.35755 0.03383 0.30953 0.0
C583 C 0.35834 0.04343 0.34708 0.0
C584 C 0.30866 0.06913 0.36432 0.0
H585 H 0.29417 0.08394 0.4713 0.0
H586 H 0.31281 0.07012 0.44021 0.0
H587 H 0.28247 0.08014 0.38229 0.0
H588 H 0.33249 0.04785 0.29149 0.0
H589 H 0.31817 0.06761 0.32144 0.0
H590 H 0.35938 0.07201 0.38113 0.0
C591 C 0.3033 0.08414 0.43858 0.0
C592 C 0.29928 0.07842 0.38209 0.0
C593 C 0.29259 0.09199 0.45629 0.0
C594 C 0.33991 0.04655 0.30691 0.0
C595 C 0.33159 0.05771 0.3242 0.0
C596 C 0.34255 0.07331 0.38116 0.0
C597 C 0.30118 0.0939 0.41876 0.0
C598 C 0.31136 0.0848 0.39972 0.0
C599 C 0.34039 0.05595 0.34468 0.0
C600 C 0.33047 0.06644 0.36352 0.0
H601 H 0.26875 0.13403 0.43308 0.0
H602 H 0.28687 0.11977 0.40193 0.0
H603 H 0.34269 0.08713 0.41254 0.0
H604 H 0.38047 0.02286 0.33216 0.0
H605 H 0.36545 0.04125 0.36251 0.0
C606 C 0.14457 0.06511 0.69907 0.0
C607 C 0.15002 0.04725 0.71103 0.0
C608 C 0.157 0.07179 0.6822 0.0
C609 C 0.19435 0.05096 0.64336 0.0
H610 H 0.20335 0.11039 0.63037 0.0
C611 C 0.24462 0.07706 0.57225 0.0
C612 C 0.23784 0.09446 0.5603 0.0
C613 C 0.23495 0.07186 0.59136 0.0
C614 C 0.20078 0.09372 0.63362 0.0
H615 H 0.17339 0.02293 0.71506 0.0
H616 H 0.19516 0.03468 0.68557 0.0
H617 H 0.18554 0.1007 0.66307 0.0
H618 H 0.21538 0.11998 0.55926 0.0
H619 H 0.19825 0.11065 0.59243 0.0
H620 H 0.20918 0.04393 0.61379 0.0
C621 C 0.18109 0.04336 0.68919 0.0
C622 C 0.19064 0.08817 0.65243 0.0
C623 C 0.1687 0.03674 0.70621 0.0
C624 C 0.22108 0.10652 0.56803 0.0
C625 C 0.21134 0.10124 0.58715 0.0
C626 C 0.20441 0.05651 0.62453 0.0
C627 C 0.17518 0.06075 0.67675 0.0
C628 C 0.18719 0.06672 0.65747 0.0
C629 C 0.21814 0.08381 0.59907 0.0
C630 C 0.20767 0.07797 0.61934 0.0
H631 H 0.13034 0.07367 0.70236 0.0
H632 H 0.15187 0.08513 0.67289 0.0
H633 H 0.19162 0.0343 0.64654 0.0
H634 H 0.25757 0.06747 0.56696 0.0
H635 H 0.24086 0.05856 0.60023 0.0
C636 C 0.17558 0.96817 0.80533 0.0
C637 C 0.15389 0.97127 0.80487 0.0
C638 C 0.18487 0.95707 0.82199 0.0
C639 C 0.17394 0.91961 0.86556 0.0
H640 H 0.22264 0.94591 0.89215 0.0
C641 C 0.22188 0.88019 0.93298 0.0
C642 C 0.22814 0.89352 0.94998 0.0
C643 C 0.21249 0.88865 0.91485 0.0
C644 C 0.20901 0.9384 0.88495 0.0
H645 H 0.12485 0.96446 0.82112 0.0
H646 H 0.14102 0.94501 0.85003 0.0
H647 H 0.20721 0.96189 0.86073 0.0
H648 H 0.22907 0.92614 0.96145 0.0
H649 H 0.21277 0.94087 0.92987 0.0
H650 H 0.17563 0.89625 0.89 0.0
C651 C 0.15087 0.95113 0.83753 0.0
C652 C 0.20031 0.94742 0.8668 0.0
C653 C 0.14161 0.96237 0.82101 0.0
C654 C 0.22447 0.91543 0.94862 0.0
C655 C 0.21526 0.9239 0.93046 0.0
C656 C 0.18277 0.91046 0.88363 0.0
C657 C 0.17264 0.94866 0.83843 0.0
C658 C 0.18256 0.93826 0.85699 0.0
C659 C 0.20935 0.91065 0.91327 0.0
C660 C 0.20028 0.91989 0.89366 0.0
H661 H 0.18547 0.97482 0.79314 0.0
H662 H 0.20166 0.95524 0.8221 0.0
H663 H 0.16035 0.91209 0.85829 0.0
H664 H 0.22451 0.86324 0.93354 0.0
H665 H 0.2082 0.87804 0.90184 0.0
C666 C 0.29207 0.89884 0.06148 0.0
C667 C 0.27431 0.90984 0.05451 0.0
C668 C 0.30178 0.90432 0.08089 0.0
C669 C 0.2898 0.92838 0.13251 0.0
H670 H 0.34826 0.94444 0.13734 0.0
C671 C 0.31908 0.98211 0.19991 0.0
C672 C 0.33868 0.97873 0.2094 0.0
C673 C 0.31273 0.97043 0.18203 0.0
C674 C 0.33201 0.9396 0.13637 0.0
H675 H 0.25307 0.93537 0.06255 0.0
H676 H 0.26973 0.94454 0.09612 0.0
H677 H 0.33465 0.92967 0.10369 0.0
H678 H 0.36696 0.96016 0.20734 0.0
H679 H 0.35568 0.93954 0.17592 0.0
H680 H 0.28687 0.93847 0.16485 0.0
C681 C 0.27614 0.93171 0.08666 0.0
C682 C 0.32423 0.93119 0.11711 0.0
C683 C 0.26668 0.92649 0.06729 0.0
C684 C 0.35174 0.96316 0.20049 0.0
C685 C 0.34534 0.95143 0.18243 0.0
C686 C 0.29755 0.93658 0.1517 0.0
C687 C 0.29365 0.9206 0.09379 0.0
C688 C 0.30289 0.92618 0.11483 0.0
C689 C 0.3257 0.95492 0.17304 0.0
C690 C 0.31856 0.94302 0.15367 0.0
H691 H 0.29841 0.88599 0.05201 0.0
H692 H 0.31531 0.89554 0.08604 0.0
H693 H 0.27336 0.92429 0.13131 0.0
H694 H 0.30857 0.99397 0.20615 0.0
H695 H 0.2977 0.97391 0.175 0.0
C696 C 0.31098 0.32806 0.03774 0.0
C697 C 0.3082 0.35019 0.03837 0.0
C698 C 0.32835 0.31893 0.04762 0.0
C699 C 0.36738 0.32803 0.08973 0.0
H700 H 0.40344 0.2911 0.05699 0.0
C701 C 0.44814 0.30654 0.12201 0.0
C702 C 0.4559 0.28604 0.11836 0.0
C703 C 0.43034 0.31351 0.1114 0.0
C704 C 0.39343 0.3011 0.06652 0.0
H705 H 0.3211 0.37998 0.05037 0.0
H706 H 0.35094 0.36402 0.06813 0.0
H707 H 0.37106 0.304 0.04117 0.0
H708 H 0.45135 0.25694 0.10017 0.0
H709 H 0.41973 0.26885 0.08196 0.0
H710 H 0.38915 0.32491 0.11523 0.0
C711 C 0.33986 0.35374 0.05983 0.0
C712 C 0.37487 0.30852 0.0574 0.0
C713 C 0.32277 0.36289 0.04962 0.0
C714 C 0.44582 0.27289 0.1032 0.0
C715 C 0.42768 0.27976 0.09278 0.0
C716 C 0.38569 0.32038 0.09894 0.0
C717 C 0.34303 0.33171 0.0587 0.0
C718 C 0.36183 0.32235 0.06881 0.0
C719 C 0.41941 0.30005 0.0971 0.0
C720 C 0.39926 0.30714 0.08737 0.0
H721 H 0.30009 0.31788 0.02906 0.0
H722 H 0.33034 0.30188 0.04661 0.0
H723 H 0.3575 0.33841 0.09902 0.0
H724 H 0.45571 0.31716 0.13341 0.0
H725 H 0.42505 0.32949 0.11467 0.0
C726 C 0.9838 0.82138 0.1439 0.0
C727 C 0.98249 0.8013 0.15326 0.0
C728 C 0.97317 0.83865 0.15264 0.0
C729 C 0.9464 0.85619 0.2025 0.0
H730 H 0.92876 0.9026 0.16691 0.0
C731 C 0.89504 0.92607 0.23162 0.0
C732 C 0.90508 0.94594 0.23002 0.0
C733 C 0.9032 0.90818 0.22136 0.0
C734 C 0.93362 0.88971 0.17698 0.0
H735 H 0.96847 0.78331 0.17864 0.0
H736 H 0.94895 0.81305 0.19326 0.0
H737 H 0.94452 0.87131 0.15067 0.0
H738 H 0.931 0.96289 0.21583 0.0
H739 H 0.94481 0.93165 0.19719 0.0
H740 H 0.93464 0.87453 0.22868 0.0
C741 C 0.95886 0.81585 0.17969 0.0
C742 C 0.94284 0.87181 0.16775 0.0
C743 C 0.96991 0.79868 0.17122 0.0
C744 C 0.92298 0.94775 0.21735 0.0
C745 C 0.93084 0.92995 0.20667 0.0
C746 C 0.93673 0.87387 0.21163 0.0
C747 C 0.96053 0.8362 0.17072 0.0
C748 C 0.94964 0.85486 0.1804 0.0
C749 C 0.92121 0.90997 0.2089 0.0
C750 C 0.93049 0.89086 0.19898 0.0
H751 H 0.99354 0.8239 0.13013 0.0
H752 H 0.97535 0.85403 0.14544 0.0
H753 H 0.95175 0.84383 0.21294 0.0
H754 H 0.88127 0.9242 0.24136 0.0
H755 H 0.89551 0.89292 0.22325 0.0
C756 C 0.20525 0.66973 0.54754 0.0
C757 C 0.20683 0.6478 0.54355 0.0
C758 C 0.18701 0.67816 0.55641 0.0
C759 C 0.13996 0.66355 0.58716 0.0
H760 H 0.11575 0.71356 0.56197 0.0
C761 C 0.07224 0.70969 0.62573 0.0
C762 C 0.05634 0.71741 0.61253 0.0
C763 C 0.08996 0.70022 0.61709 0.0
C764 C 0.12223 0.69948 0.56906 0.0
H765 H 0.19078 0.61746 0.54637 0.0
H766 H 0.15928 0.63206 0.562 0.0
H767 H 0.14863 0.69966 0.54823 0.0
H768 H 0.04639 0.72085 0.57983 0.0
H769 H 0.07755 0.70428 0.56462 0.0
H770 H 0.1136 0.6633 0.60794 0.0
C771 C 0.17203 0.6428 0.5583 0.0
C772 C 0.14121 0.69169 0.56138 0.0
C773 C 0.1901 0.63444 0.54926 0.0
C774 C 0.05832 0.71495 0.59042 0.0
C775 C 0.07624 0.70566 0.58172 0.0
C776 C 0.12111 0.67144 0.59495 0.0
C777 C 0.1701 0.66479 0.56171 0.0
C778 C 0.15029 0.6736 0.57032 0.0
C779 C 0.09238 0.69839 0.59498 0.0
C780 C 0.11199 0.6895 0.58601 0.0
H781 H 0.21782 0.68045 0.54321 0.0
H782 H 0.18609 0.69516 0.55904 0.0
H783 H 0.14657 0.64966 0.59449 0.0
H784 H 0.07123 0.71136 0.64283 0.0
H785 H 0.10212 0.69499 0.62777 0.0
C786 C 0.98682 0.68643 0.66553 0.0
C787 C 0.98025 0.70585 0.67443 0.0
C788 C 0.97768 0.66719 0.67195 0.0
C789 C 0.929 0.64625 0.69331 0.0
H790 H 0.96065 0.59999 0.71708 0.0
C791 C 0.88861 0.58368 0.74356 0.0
C792 C 0.89417 0.56226 0.74118 0.0
C793 C 0.90045 0.59969 0.73421 0.0
C794 C 0.9516 0.61261 0.71017 0.0
H795 H 0.95889 0.72016 0.69703 0.0
H796 H 0.94293 0.68693 0.70776 0.0
H797 H 0.97906 0.63054 0.70178 0.0
H798 H 0.91705 0.54096 0.72762 0.0
H799 H 0.93767 0.56909 0.71089 0.0
H800 H 0.9016 0.6287 0.70152 0.0
C801 C 0.95516 0.68652 0.69594 0.0
C802 C 0.96215 0.63006 0.70143 0.0
C803 C 0.96443 0.70557 0.68984 0.0
C804 C 0.91234 0.55731 0.72975 0.0
C805 C 0.92417 0.57343 0.7202 0.0
C806 C 0.91851 0.62884 0.70181 0.0
C807 C 0.96157 0.66716 0.68702 0.0
C808 C 0.95089 0.64728 0.69347 0.0
C809 C 0.9181 0.59479 0.72199 0.0
C810 C 0.92963 0.61208 0.71095 0.0
H811 H 0.99902 0.6861 0.6537 0.0
H812 H 0.98286 0.65242 0.66485 0.0
H813 H 0.91995 0.65918 0.68696 0.0
H814 H 0.87492 0.58813 0.75254 0.0
H815 H 0.89565 0.616 0.7365 0.0
C816 C 0.19785 0.17774 0.4968 0.0
C817 C 0.2004 0.15599 0.49242 0.0
C818 C 0.18046 0.18851 0.48899 0.0
C819 C 0.12759 0.18084 0.46507 0.0
H820 H 0.1398 0.23453 0.43805 0.0
C821 C 0.08963 0.23801 0.39752 0.0
C822 C 0.06869 0.23885 0.40409 0.0
C823 C 0.10492 0.22918 0.41053 0.0
C824 C 0.13612 0.21955 0.44551 0.0
H825 H 0.18618 0.12828 0.47721 0.0
H826 H 0.15595 0.14702 0.46358 0.0
H827 H 0.16733 0.21629 0.4572 0.0
H828 H 0.04757 0.23124 0.42981 0.0
H829 H 0.07435 0.21583 0.45253 0.0
H830 H 0.0965 0.18384 0.45276 0.0
C831 C 0.16729 0.15579 0.47314 0.0
C832 C 0.15185 0.2092 0.45672 0.0
C833 C 0.1847 0.14504 0.48089 0.0
C834 C 0.06353 0.2309 0.42421 0.0
C835 C 0.07884 0.22193 0.43719 0.0
C836 C 0.1118 0.19126 0.45394 0.0
C837 C 0.16518 0.17776 0.47668 0.0
C838 C 0.14788 0.18956 0.46639 0.0
C839 C 0.09971 0.22086 0.43045 0.0
C840 C 0.11597 0.21059 0.44374 0.0
H841 H 0.20963 0.18663 0.50568 0.0
H842 H 0.17916 0.20537 0.49229 0.0
H843 H 0.12394 0.16583 0.47248 0.0
H844 H 0.09424 0.24394 0.38215 0.0
H845 H 0.12078 0.22837 0.40471 0.0
C846 C 0.57191 0.45095 0.23733 0.0
C847 C 0.59272 0.45802 0.23578 0.0
C848 C 0.56575 0.43138 0.22857 0.0
C849 C 0.5741 0.39685 0.18489 0.0
H850 H 0.55 0.35171 0.21847 0.0
C851 C 0.54834 0.31655 0.14689 0.0
C852 C 0.53163 0.30548 0.15607 0.0
C853 C 0.55645 0.33497 0.15664 0.0
C854 C 0.55631 0.36426 0.20874 0.0
H855 H 0.62345 0.4502 0.224 0.0
H856 H 0.61239 0.41611 0.20787 0.0
H857 H 0.56331 0.38386 0.23604 0.0
H858 H 0.5096 0.30537 0.18202 0.0
H859 H 0.52277 0.33811 0.19836 0.0
H860 H 0.56617 0.37809 0.15747 0.0
C861 C 0.60105 0.42566 0.21624 0.0
C862 C 0.56416 0.38254 0.2189 0.0
C863 C 0.60735 0.44503 0.22552 0.0
C864 C 0.52262 0.31354 0.1747 0.0
C865 C 0.53038 0.3322 0.18419 0.0
C866 C 0.56582 0.37879 0.17465 0.0
C867 C 0.58018 0.41879 0.21764 0.0
C868 C 0.57308 0.39895 0.20704 0.0
C869 C 0.5477 0.34298 0.17556 0.0
C870 C 0.55673 0.36223 0.18642 0.0
H871 H 0.56034 0.46063 0.24523 0.0
H872 H 0.54957 0.42637 0.22975 0.0
H873 H 0.58071 0.4095 0.17545 0.0
H874 H 0.55571 0.31054 0.13263 0.0
H875 H 0.56996 0.34251 0.14961 0.0
C876 C 0.32171 0.85742 0.97065 0.0
C877 C 0.30852 0.84768 0.98546 0.0
C878 C 0.33994 0.84752 0.96393 0.0
C879 C 0.36572 0.79489 0.96109 0.0
H880 H 0.41307 0.82976 0.94463 0.0
C881 C 0.44764 0.76436 0.93245 0.0
C882 C 0.4538 0.77294 0.9129 0.0
C883 C 0.42978 0.77186 0.94279 0.0
C884 C 0.39995 0.81984 0.94919 0.0
H885 H 0.30435 0.82003 0.00519 0.0
H886 H 0.33669 0.80294 0.99397 0.0
H887 H 0.38306 0.84633 0.9613 0.0
H888 H 0.44581 0.79575 0.8887 0.0
H889 H 0.41507 0.80907 0.90697 0.0
H890 H 0.38318 0.76833 0.94921 0.0
C891 C 0.33266 0.81806 0.98716 0.0
C892 C 0.38266 0.82932 0.95862 0.0
C893 C 0.3142 0.82792 0.99372 0.0
C894 C 0.4415 0.78876 0.9037 0.0
C895 C 0.42395 0.79649 0.91419 0.0
C896 C 0.38326 0.78534 0.95196 0.0
C897 C 0.34573 0.82769 0.97204 0.0
C898 C 0.36503 0.81709 0.96418 0.0
C899 C 0.41808 0.78833 0.93394 0.0
C900 C 0.4003 0.79783 0.94548 0.0
H901 H 0.31772 0.87254 0.96379 0.0
H902 H 0.34922 0.85527 0.95191 0.0
H903 H 0.35243 0.78494 0.96497 0.0
H904 H 0.45682 0.75216 0.93991 0.0
H905 H 0.42553 0.76534 0.95803 0.0
C906 C 0.8957 0.43751 0.79795 0.0
C907 C 0.9042 0.44903 0.78102 0.0
C908 C 0.90683 0.42106 0.80718 0.0
C909 C 0.94537 0.38082 0.79864 0.0
H910 H 0.95474 0.38489 0.85948 0.0
C911 C 0.98928 0.31517 0.84322 0.0
C912 C 0.98194 0.30985 0.86345 0.0
C913 C 0.98217 0.33338 0.83309 0.0
C914 C 0.95206 0.38329 0.84254 0.0
H915 H 0.93073 0.4518 0.75997 0.0
H916 H 0.94998 0.4223 0.77578 0.0
H917 H 0.9371 0.41353 0.84119 0.0
H918 H 0.96167 0.31951 0.88914 0.0
H919 H 0.94857 0.35073 0.87127 0.0
H920 H 0.95922 0.35014 0.79996 0.0
C921 C 0.93479 0.42637 0.782 0.0
C922 C 0.94209 0.39981 0.83207 0.0
C923 C 0.92379 0.44319 0.77298 0.0
C924 C 0.96772 0.32332 0.8736 0.0
C925 C 0.96031 0.34133 0.86333 0.0
C926 C 0.955 0.36407 0.80917 0.0
C927 C 0.92655 0.41549 0.79946 0.0
C928 C 0.93847 0.39862 0.81009 0.0
C929 C 0.96724 0.34651 0.84281 0.0
C930 C 0.95828 0.36495 0.83133 0.0
H931 H 0.88069 0.44163 0.80459 0.0
H932 H 0.90008 0.41275 0.8205 0.0
H933 H 0.94261 0.37951 0.78168 0.0
H934 H 1.00039 0.30514 0.83508 0.0
H935 H 0.98829 0.33704 0.81755 0.0
C936 C 0.3111 0.16572 0.53706 0.0
C937 C 0.31535 0.14903 0.52276 0.0
C938 C 0.32742 0.17797 0.54592 0.0
C939 C 0.38467 0.17515 0.55586 0.0
H940 H 0.37841 0.23403 0.57318 0.0
C941 C 0.45293 0.224 0.59236 0.0
C942 C 0.44837 0.23438 0.61165 0.0
C943 C 0.43686 0.21551 0.5796 0.0
C944 C 0.38034 0.21758 0.56843 0.0
H945 H 0.33986 0.13302 0.50543 0.0
H946 H 0.36812 0.15485 0.52004 0.0
H947 H 0.35008 0.21589 0.55386 0.0
H948 H 0.42325 0.24487 0.63213 0.0
H949 H 0.39527 0.23025 0.60971 0.0
H950 H 0.41498 0.17693 0.57029 0.0
C951 C 0.35235 0.15801 0.5252 0.0
C952 C 0.36408 0.20712 0.55745 0.0
C953 C 0.33611 0.14556 0.51667 0.0
C954 C 0.42733 0.23684 0.61744 0.0
C955 C 0.41127 0.2286 0.60454 0.0
C956 C 0.40098 0.18567 0.56656 0.0
C957 C 0.34833 0.17401 0.5404 0.0
C958 C 0.36594 0.18568 0.55116 0.0
C959 C 0.41588 0.21749 0.58569 0.0
C960 C 0.39894 0.20693 0.57313 0.0
H961 H 0.29526 0.16871 0.54214 0.0
H962 H 0.32365 0.18997 0.5577 0.0
H963 H 0.3866 0.15853 0.55181 0.0
H964 H 0.46894 0.22184 0.5874 0.0
H965 H 0.44086 0.20718 0.56505 0.0
C966 C 0.5538 0.7108 0.34325 0.0
C967 C 0.53354 0.71107 0.35159 0.0
C968 C 0.56293 0.69174 0.33706 0.0
C969 C 0.55724 0.63273 0.33987 0.0
H970 H 0.5937 0.63512 0.29091 0.0
C971 C 0.58546 0.55914 0.29203 0.0
C972 C 0.60718 0.55782 0.28939 0.0
C973 C 0.57655 0.57754 0.30043 0.0
C974 C 0.58366 0.63428 0.30468 0.0
H975 H 0.50701 0.69163 0.36047 0.0
H976 H 0.52254 0.65815 0.34864 0.0
H977 H 0.57743 0.66743 0.30395 0.0
H978 H 0.63661 0.57478 0.29314 0.0
H979 H 0.62088 0.60738 0.30718 0.0
H980 H 0.56294 0.59919 0.33971 0.0
C981 C 0.53168 0.67264 0.34741 0.0
C982 C 0.5744 0.65281 0.31231 0.0
C983 C 0.52269 0.6918 0.35411 0.0
C984 C 0.61983 0.57538 0.29502 0.0
C985 C 0.61086 0.59399 0.30301 0.0
C986 C 0.56621 0.6141 0.33193 0.0
C987 C 0.55184 0.67242 0.33849 0.0
C988 C 0.56122 0.65238 0.33016 0.0
C989 C 0.58916 0.59514 0.30593 0.0
C990 C 0.57962 0.61477 0.31437 0.0
H991 H 0.56266 0.72542 0.3415 0.0
H992 H 0.57872 0.69226 0.33102 0.0
H993 H 0.54745 0.63173 0.35378 0.0
H994 H 0.57533 0.5458 0.2879 0.0
H995 H 0.55977 0.57814 0.30238 0.0
C996 C 0.07673 0.78172 0.1163 0.0
C997 C 0.06319 0.76711 0.10609 0.0
C998 C 0.0945 0.78941 0.10603 0.0
C999 C 0.11627 0.79656 0.05209 0.0
H1000 H 0.16568 0.81405 0.08395 0.0
C1001 C 0.19788 0.83271 0.02288 0.0
C1002 C 0.19604 0.85492 0.02468 0.0
C1003 C 0.18293 0.81925 0.03205 0.0
C1004 C 0.15205 0.80899 0.07487 0.0
H1005 H 0.05813 0.74849 0.07732 0.0
H1006 H 0.08956 0.76141 0.05955 0.0
H1007 H 0.13772 0.79454 0.10175 0.0
H1008 H 0.1772 0.88032 0.03784 0.0
H1009 H 0.15143 0.85676 0.05398 0.0
H1010 H 0.13082 0.81131 0.02528 0.0
C1011 C 0.08616 0.76736 0.07535 0.0
C1012 C 0.13593 0.79802 0.08505 0.0
C1013 C 0.06821 0.75981 0.08558 0.0
C1014 C 0.17902 0.86332 0.03594 0.0
C1015 C 0.16428 0.84989 0.04524 0.0
C1016 C 0.1325 0.8074 0.04191 0.0
C1017 C 0.09939 0.78253 0.08532 0.0
C1018 C 0.11758 0.79206 0.07393 0.0
C1019 C 0.1661 0.82781 0.04333 0.0
C1020 C 0.15032 0.81397 0.05332 0.0
H1021 H 0.07326 0.78782 0.13204 0.0
H1022 H 0.10398 0.80136 0.11414 0.0
H1023 H 0.10235 0.79253 0.04302 0.0
H1024 H 0.21076 0.82574 0.01428 0.0
H1025 H 0.18453 0.8022 0.03042 0.0
C1026 C 0.71316 0.92211 0.5539 0.0
C1027 C 0.73021 0.90824 0.55318 0.0
C1028 C 0.70472 0.92855 0.57325 0.0
C1029 C 0.703 0.91646 0.6307 0.0
H1030 H 0.68725 0.97567 0.63541 0.0
C1031 C 0.68748 0.9587 0.71075 0.0
C1032 C 0.67052 0.97269 0.71203 0.0
C1033 C 0.69331 0.94973 0.69134 0.0
C1034 C 0.6913 0.95903 0.63427 0.0
H1035 H 0.75142 0.88978 0.57228 0.0
H1036 H 0.73695 0.90148 0.60634 0.0
H1037 H 0.70072 0.96195 0.60196 0.0
H1038 H 0.64624 0.98799 0.6938 0.0
H1039 H 0.6566 0.97235 0.65971 0.0
H1040 H 0.694 0.91381 0.66329 0.0
C1041 C 0.72993 0.90712 0.59182 0.0
C1042 C 0.69903 0.95113 0.61508 0.0
C1043 C 0.73828 0.90046 0.57233 0.0
C1044 C 0.65938 0.97731 0.69338 0.0
C1045 C 0.66536 0.96843 0.67386 0.0
C1046 C 0.69539 0.92442 0.64996 0.0
C1047 C 0.71323 0.92151 0.59248 0.0
C1048 C 0.70498 0.92974 0.61303 0.0
C1049 C 0.68245 0.9546 0.67266 0.0
C1050 C 0.6895 0.94581 0.65195 0.0
H1051 H 0.70629 0.92812 0.53944 0.0
H1052 H 0.69153 0.93915 0.5731 0.0
H1053 H 0.70715 0.89985 0.62961 0.0
H1054 H 0.69639 0.95467 0.72477 0.0
H1055 H 0.70668 0.93935 0.69091 0.0
C1056 C 0.87252 0.96232 0.3253 0.0
C1057 C 0.86311 0.97855 0.31362 0.0
C1058 C 0.86221 0.95318 0.34243 0.0
C1059 C 0.82311 0.96124 0.38303 0.0
H1060 H 0.81781 0.8998 0.38174 0.0
C1061 C 0.7786 0.91652 0.44855 0.0
C1062 C 0.78679 0.89709 0.45521 0.0
C1063 C 0.78631 0.92642 0.43041 0.0
C1064 C 0.81938 0.91693 0.38257 0.0
H1065 H 0.83587 0.99854 0.31129 0.0
H1066 H 0.81802 0.98284 0.34184 0.0
H1067 H 0.83494 0.91796 0.35257 0.0
H1068 H 0.8093 0.87265 0.44807 0.0
H1069 H 0.82334 0.89019 0.41691 0.0
H1070 H 0.8084 0.96031 0.41338 0.0
C1071 C 0.8333 0.97711 0.33744 0.0
C1072 C 0.82909 0.92732 0.36576 0.0
C1073 C 0.8435 0.98607 0.32 0.0
C1074 C 0.80258 0.88755 0.4432 0.0
C1075 C 0.81054 0.89761 0.42525 0.0
C1076 C 0.81369 0.95083 0.40005 0.0
C1077 C 0.84241 0.96027 0.34848 0.0
C1078 C 0.83118 0.94954 0.36591 0.0
C1079 C 0.80264 0.91729 0.41869 0.0
C1080 C 0.81182 0.92849 0.40013 0.0
H1081 H 0.88759 0.95613 0.3208 0.0
H1082 H 0.86966 0.94039 0.35085 0.0
H1083 H 0.82467 0.97839 0.38355 0.0
H1084 H 0.76629 0.92419 0.45742 0.0
H1085 H 0.77946 0.94128 0.42565 0.0
C1086 C 0.79207 0.06609 0.0593 0.0
C1087 C 0.78003 0.08464 0.05823 0.0
C1088 C 0.80078 0.05971 0.07845 0.0
C1089 C 0.79802 0.05889 0.13488 0.0
H1090 H 0.85833 0.05467 0.13228 0.0
C1091 C 0.85037 0.03007 0.20532 0.0
C1092 C 0.86745 0.01743 0.19953 0.0
C1093 C 0.83808 0.03967 0.18968 0.0
C1094 C 0.84148 0.05556 0.13327 0.0
H1095 H 0.76694 0.11041 0.0769 0.0
H1096 H 0.78211 0.0988 0.11079 0.0
H1097 H 0.8392 0.06913 0.10239 0.0
H1098 H 0.88414 0.00381 0.17285 0.0
H1099 H 0.86257 0.01988 0.14584 0.0
H1100 H 0.80026 0.04435 0.16547 0.0
C1101 C 0.78478 0.08949 0.0965 0.0
C1102 C 0.83059 0.06404 0.11622 0.0
C1103 C 0.7762 0.09612 0.07713 0.0
C1104 C 0.87136 0.01378 0.17788 0.0
C1105 C 0.85904 0.02313 0.16236 0.0
C1106 C 0.80897 0.05013 0.15199 0.0
C1107 C 0.79753 0.07149 0.09713 0.0
C1108 C 0.80876 0.06535 0.11665 0.0
C1109 C 0.84259 0.03666 0.168 0.0
C1110 C 0.83081 0.04784 0.1511 0.0
H1111 H 0.79536 0.05671 0.04521 0.0
H1112 H 0.81043 0.04568 0.07861 0.0
H1113 H 0.78115 0.0597 0.13547 0.0
H1114 H 0.84696 0.03318 0.22189 0.0
H1115 H 0.82552 0.04998 0.19458 0.0
C1116 C 0.64629 0.04876 0.82041 0.0
C1117 C 0.65636 0.03239 0.80926 0.0
C1118 C 0.65559 0.05797 0.8385 0.0
C1119 C 0.69265 0.04832 0.8813 0.0
H1120 H 0.70034 0.10949 0.8833 0.0
C1121 C 0.74093 0.08819 0.94817 0.0
C1122 C 0.73383 0.10759 0.95641 0.0
C1123 C 0.73229 0.07962 0.92949 0.0
C1124 C 0.69808 0.09242 0.8832 0.0
H1125 H 0.68364 0.01232 0.80859 0.0
H1126 H 0.69959 0.02802 0.84054 0.0
H1127 H 0.68237 0.09284 0.85304 0.0
H1128 H 0.7125 0.13355 0.95139 0.0
H1129 H 0.69687 0.11833 0.91925 0.0
H1130 H 0.70765 0.04774 0.91163 0.0
C1131 C 0.68465 0.03386 0.83515 0.0
C1132 C 0.68783 0.08292 0.86581 0.0
C1133 C 0.67555 0.02494 0.81686 0.0
C1134 C 0.71838 0.11861 0.9453 0.0
C1135 C 0.70947 0.10988 0.9268 0.0
C1136 C 0.70259 0.05782 0.89884 0.0
C1137 C 0.6749 0.05066 0.84595 0.0
C1138 C 0.68513 0.06078 0.86467 0.0
C1139 C 0.71606 0.09008 0.91882 0.0
C1140 C 0.70557 0.08001 0.89999 0.0
H1141 H 0.63151 0.05485 0.81485 0.0
H1142 H 0.64771 0.0708 0.84666 0.0
H1143 H 0.69058 0.03122 0.88086 0.0
H1144 H 0.75295 0.07943 0.95634 0.0
H1145 H 0.7382 0.06464 0.92356 0.0
C1146 C 0.5884 0.74991 0.90942 0.0
C1147 C 0.56811 0.74131 0.90963 0.0
C1148 C 0.60412 0.74143 0.92215 0.0
C1149 C 0.61391 0.7025 0.96603 0.0
H1150 H 0.66983 0.70392 0.94277 0.0
C1151 C 0.68361 0.64788 0.9892 0.0
C1152 C 0.70229 0.65863 0.99463 0.0
C1153 C 0.66639 0.65909 0.98164 0.0
C1154 C 0.65431 0.70357 0.94953 0.0
H1155 H 0.54821 0.71727 0.9235 0.0
H1156 H 0.57578 0.70161 0.94484 0.0
H1157 H 0.64161 0.721 0.92383 0.0
H1158 H 0.71743 0.68954 0.99682 0.0
H1159 H 0.68751 0.709 0.98288 0.0
H1160 H 0.62686 0.68373 0.99108 0.0
C1161 C 0.57958 0.71543 0.93551 0.0
C1162 C 0.63806 0.71353 0.93878 0.0
C1163 C 0.5637 0.72433 0.92319 0.0
C1164 C 0.70321 0.68085 0.99289 0.0
C1165 C 0.68616 0.69197 0.98485 0.0
C1166 C 0.63015 0.69207 0.97651 0.0
C1167 C 0.60015 0.72364 0.93496 0.0
C1168 C 0.61756 0.71326 0.94686 0.0
C1169 C 0.6677 0.68116 0.97891 0.0
C1170 C 0.65049 0.6926 0.96837 0.0
H1171 H 0.59217 0.76316 0.89927 0.0
H1172 H 0.61945 0.74878 0.9217 0.0
H1173 H 0.59854 0.70215 0.97307 0.0
H1174 H 0.68247 0.63076 0.99037 0.0
H1175 H 0.65235 0.6504 0.97705 0.0
C1176 C 0.08847 0.06558 0.77834 0.0
C1177 C 0.10655 0.05764 0.78792 0.0
C1178 C 0.07832 0.0831 0.78713 0.0
C1179 C 0.08505 0.12753 0.82659 0.0
H1180 H 0.02485 0.13029 0.82036 0.0
C1181 C 0.03433 0.19283 0.86617 0.0
C1182 C 0.02374 0.20485 0.85094 0.0
C1183 C 0.04341 0.17347 0.8604 0.0
C1184 C 0.04165 0.12962 0.82229 0.0
H1185 H 0.1283 0.06175 0.81414 0.0
H1186 H 0.11015 0.09178 0.83007 0.0
H1187 H 0.04333 0.09946 0.80659 0.0
H1188 H 0.01332 0.20562 0.81816 0.0
H1189 H 0.02842 0.17141 0.80835 0.0
H1190 H 0.08302 0.15762 0.84278 0.0
C1191 C 0.10406 0.08497 0.8154 0.0
C1192 C 0.05233 0.1121 0.81419 0.0
C1193 C 0.11447 0.06769 0.80633 0.0
C1194 C 0.02141 0.19666 0.8302 0.0
C1195 C 0.03 0.17711 0.8246 0.0
C1196 C 0.07427 0.14486 0.83506 0.0
C1197 C 0.08572 0.09283 0.80602 0.0
C1198 C 0.07425 0.11098 0.81583 0.0
C1199 C 0.04151 0.16561 0.83949 0.0
C1200 C 0.05254 0.1462 0.83266 0.0
H1201 H 0.08213 0.05824 0.76402 0.0
H1202 H 0.06465 0.08899 0.77902 0.0
H1203 H 0.1019 0.12749 0.82795 0.0
H1204 H 0.03651 0.1989 0.88221 0.0
H1205 H 0.0522 0.16481 0.87214 0.0
C1206 C 0.9541 0.26938 0.43654 0.0
C1207 C 0.95484 0.2699 0.41424 0.0
C1208 C 0.93629 0.27617 0.44735 0.0
C1209 C 0.88006 0.28572 0.44157 0.0
H1210 H 0.88849 0.32931 0.48496 0.0
C1211 C 0.81186 0.3217 0.48967 0.0
C1212 C 0.81113 0.34399 0.48913 0.0
C1213 C 0.82968 0.31097 0.48281 0.0
C1214 C 0.88593 0.31706 0.47297 0.0
H1215 H 0.93723 0.27709 0.38578 0.0
H1216 H 0.90598 0.28848 0.40466 0.0
H1217 H 0.91873 0.31271 0.4682 0.0
H1218 H 0.82877 0.37254 0.48188 0.0
H1219 H 0.86003 0.35381 0.47038 0.0
H1220 H 0.84726 0.29026 0.44615 0.0
C1221 C 0.91921 0.28296 0.41376 0.0
C1222 C 0.9032 0.30747 0.46348 0.0
C1223 C 0.93713 0.27652 0.40296 0.0
C1224 C 0.82886 0.35536 0.48245 0.0
C1225 C 0.84678 0.34465 0.47594 0.0
C1226 C 0.86279 0.29506 0.4513 0.0
C1227 C 0.91875 0.28324 0.43607 0.0
C1228 C 0.90043 0.29196 0.44744 0.0
C1229 C 0.84723 0.32234 0.47567 0.0
C1230 C 0.86555 0.31108 0.46684 0.0
H1231 H 0.96754 0.26443 0.44567 0.0
H1232 H 0.9363 0.27611 0.46456 0.0
H1233 H 0.87749 0.27374 0.42931 0.0
H1234 H 0.79841 0.31251 0.49468 0.0
H1235 H 0.82967 0.29376 0.48288 0.0
C1236 C 0.60044 0.95521 0.80443 0.0
C1237 C 0.61957 0.95138 0.79443 0.0
C1238 C 0.58929 0.93845 0.81377 0.0
C1239 C 0.59723 0.88246 0.83193 0.0
H1240 H 0.53689 0.88175 0.83626 0.0
C1241 C 0.54728 0.80792 0.85114 0.0
C1242 C 0.53437 0.80998 0.869 0.0
C1243 C 0.55752 0.82567 0.84285 0.0
C1244 C 0.55377 0.88187 0.83522 0.0
H1245 H 0.64148 0.92712 0.78511 0.0
H1246 H 0.62164 0.89788 0.79991 0.0
H1247 H 0.55447 0.91164 0.81918 0.0
H1248 H 0.52187 0.83223 0.89205 0.0
H1249 H 0.53934 0.86349 0.87703 0.0
H1250 H 0.59628 0.85215 0.84707 0.0
C1251 C 0.61556 0.91376 0.80178 0.0
C1252 C 0.5639 0.89904 0.82554 0.0
C1253 C 0.62688 0.93051 0.79302 0.0
C1254 C 0.53184 0.83017 0.87836 0.0
C1255 C 0.54169 0.84804 0.86972 0.0
C1256 C 0.58707 0.86514 0.84111 0.0
C1257 C 0.59688 0.91748 0.81284 0.0
C1258 C 0.58582 0.89953 0.82361 0.0
C1259 C 0.55464 0.84591 0.85192 0.0
C1260 C 0.56527 0.86466 0.84279 0.0
H1261 H 0.59457 0.97124 0.8058 0.0
H1262 H 0.5751 0.9421 0.82224 0.0
H1263 H 0.61412 0.8824 0.83148 0.0
H1264 H 0.5495 0.79256 0.8436 0.0
H1265 H 0.56743 0.82367 0.82909 0.0
C1266 C 0.99806 0.19124 0.3327 0.0
C1267 C 0.99063 0.2032 0.35006 0.0
C1268 C 0.98886 0.1718 0.3271 0.0
C1269 C 0.94115 0.13998 0.32914 0.0
H1270 H 0.97888 0.09387 0.31621 0.0
C1271 C 0.91325 0.05665 0.29707 0.0
C1272 C 0.92518 0.04841 0.2802 0.0
C1273 C 0.92007 0.07478 0.30845 0.0
C1274 C 0.9681 0.10658 0.31965 0.0
H1275 H 0.96725 0.20409 0.37486 0.0
H1276 H 0.95092 0.1699 0.36475 0.0
H1277 H 0.99269 0.12711 0.33089 0.0
H1278 H 0.95358 0.05314 0.26205 0.0
H1279 H 0.96516 0.08446 0.28155 0.0
H1280 H 0.91662 0.11957 0.31712 0.0
C1281 C 0.96403 0.17576 0.35565 0.0
C1282 C 0.97602 0.1256 0.32813 0.0
C1283 C 0.97343 0.19527 0.36146 0.0
C1284 C 0.94399 0.0588 0.27501 0.0
C1285 C 0.95076 0.07678 0.28633 0.0
C1286 C 0.93318 0.12088 0.32049 0.0
C1287 C 0.97187 0.16373 0.33856 0.0
C1288 C 0.96275 0.14272 0.33241 0.0
C1289 C 0.939 0.08496 0.30327 0.0
C1290 C 0.94669 0.10419 0.31507 0.0
H1291 H 0.01121 0.19675 0.32346 0.0
H1292 H 0.99504 0.16307 0.31364 0.0
H1293 H 0.93057 0.15294 0.33226 0.0
H1294 H 0.89867 0.0491 0.3015 0.0
H1295 H 0.91067 0.08066 0.32146 0.0
C1296 C 0.58731 0.04947 0.72157 0.0
C1297 C 0.60916 0.04794 0.72205 0.0
C1298 C 0.57768 0.06647 0.71137 0.0
C1299 C 0.58971 0.12131 0.6927 0.0
H1300 H 0.53391 0.11682 0.66883 0.0
C1301 C 0.54768 0.192 0.65268 0.0
C1302 C 0.52768 0.19601 0.66082 0.0
C1303 C 0.55805 0.17318 0.65767 0.0
C1304 C 0.54952 0.11828 0.67543 0.0
H1305 H 0.63801 0.06227 0.71116 0.0
H1306 H 0.62132 0.09124 0.69257 0.0
H1307 H 0.55126 0.08496 0.68131 0.0
H1308 H 0.50264 0.18303 0.67997 0.0
H1309 H 0.52054 0.15018 0.68824 0.0
H1310 H 0.58791 0.15466 0.68653 0.0
C1311 C 0.61152 0.0799 0.70074 0.0
C1312 C 0.55945 0.10004 0.68273 0.0
C1313 C 0.62113 0.06313 0.71124 0.0
C1314 C 0.51809 0.18054 0.67354 0.0
C1315 C 0.52826 0.16162 0.67817 0.0
C1316 C 0.57989 0.13947 0.68509 0.0
C1317 C 0.58968 0.08217 0.70111 0.0
C1318 C 0.57959 0.10131 0.69181 0.0
C1319 C 0.54844 0.15781 0.6705 0.0
C1320 C 0.55957 0.13822 0.67669 0.0
H1321 H 0.57768 0.03809 0.72991 0.0
H1322 H 0.56087 0.06769 0.71232 0.0
H1323 H 0.605 0.12316 0.69993 0.0
H1324 H 0.5555 0.20361 0.64287 0.0
H1325 H 0.57358 0.17061 0.65149 0.0
C1326 C 0.20188 0.36207 0.94678 0.0
C1327 C 0.21122 0.35725 0.96636 0.0
C1328 C 0.18465 0.35046 0.93924 0.0
C1329 C 0.13972 0.31922 0.95699 0.0
H1330 H 0.13445 0.30585 0.89692 0.0
C1331 C 0.06489 0.28074 0.91725 0.0
C1332 C 0.0592 0.2894 0.89757 0.0
C1333 C 0.08381 0.28675 0.92719 0.0
C1334 C 0.13559 0.30957 0.91374 0.0
H1335 H 0.20994 0.33609 0.99322 0.0
H1336 H 0.17947 0.31576 0.98001 0.0
H1337 H 0.16754 0.31934 0.911 0.0
H1338 H 0.06849 0.31209 0.8736 0.0
H1339 H 0.10091 0.32258 0.89086 0.0
H1340 H 0.10746 0.30992 0.95951 0.0
C1341 C 0.18565 0.32859 0.97054 0.0
C1342 C 0.1546 0.31724 0.92181 0.0
C1343 C 0.20319 0.3401 0.978 0.0
C1344 C 0.07243 0.30478 0.88856 0.0
C1345 C 0.09117 0.31074 0.89841 0.0
C1346 C 0.12058 0.31154 0.94886 0.0
C1347 C 0.17609 0.3338 0.95114 0.0
C1348 C 0.15677 0.32272 0.94341 0.0
C1349 C 0.09738 0.30149 0.91759 0.0
C1350 C 0.11814 0.30722 0.92701 0.0
H1351 H 0.20766 0.37516 0.93739 0.0
H1352 H 0.17755 0.35507 0.92436 0.0
H1353 H 0.14086 0.32339 0.9737 0.0
H1354 H 0.05509 0.26885 0.92465 0.0
H1355 H 0.08812 0.27937 0.942 0.0
C1356 C 0.45806 0.71506 0.4307 0.0
C1357 C 0.45511 0.72657 0.41195 0.0
C1358 C 0.44102 0.70527 0.44072 0.0
C1359 C 0.38459 0.70915 0.44782 0.0
H1360 H 0.38503 0.64875 0.4586 0.0
C1361 C 0.30953 0.66284 0.47202 0.0
C1362 C 0.31171 0.64423 0.48377 0.0
C1363 C 0.32728 0.67396 0.465 0.0
C1364 C 0.38467 0.66574 0.45624 0.0
H1365 H 0.43193 0.73702 0.3892 0.0
H1366 H 0.40232 0.72046 0.40698 0.0
H1367 H 0.41579 0.66588 0.44376 0.0
H1368 H 0.33387 0.6232 0.49843 0.0
H1369 H 0.36464 0.64315 0.4876 0.0
H1370 H 0.35377 0.70934 0.46073 0.0
C1371 C 0.41778 0.71882 0.41379 0.0
C1372 C 0.40236 0.67549 0.44756 0.0
C1373 C 0.4348 0.72816 0.40354 0.0
C1374 C 0.33181 0.63751 0.4893 0.0
C1375 C 0.34947 0.64883 0.48278 0.0
C1376 C 0.36702 0.69951 0.45692 0.0
C1377 C 0.42067 0.70728 0.43247 0.0
C1378 C 0.40243 0.69724 0.44304 0.0
C1379 C 0.34758 0.66688 0.46995 0.0
C1380 C 0.36667 0.67757 0.46109 0.0
H1381 H 0.47351 0.71359 0.43756 0.0
H1382 H 0.44366 0.69644 0.45513 0.0
H1383 H 0.38429 0.72601 0.44461 0.0
H1384 H 0.29416 0.66815 0.46733 0.0
H1385 H 0.32499 0.68758 0.45498 0.0
C1386 C 0.83573 0.53591 0.8125 0.0
C1387 C 0.85691 0.53039 0.81221 0.0
C1388 C 0.82735 0.54666 0.82999 0.0
C1389 C 0.83656 0.55643 0.88724 0.0
H1390 H 0.79422 0.59933 0.87999 0.0
C1391 C 0.78465 0.58563 0.95634 0.0
C1392 C 0.77949 0.60725 0.95715 0.0
C1393 C 0.79534 0.57722 0.93889 0.0
C1394 C 0.80618 0.58754 0.88233 0.0
H1395 H 0.88608 0.53228 0.8298 0.0
H1396 H 0.87151 0.55126 0.86027 0.0
H1397 H 0.81086 0.58374 0.84887 0.0
H1398 H 0.78188 0.63711 0.94052 0.0
H1399 H 0.80073 0.62251 0.91021 0.0
H1400 H 0.83202 0.56039 0.92071 0.0
C1401 C 0.86129 0.54701 0.84711 0.0
C1402 C 0.81555 0.57842 0.86445 0.0
C1403 C 0.86967 0.53626 0.82958 0.0
C1404 C 0.78554 0.62036 0.94032 0.0
C1405 C 0.79624 0.61196 0.92288 0.0
C1406 C 0.82717 0.56555 0.90512 0.0
C1407 C 0.83997 0.55215 0.84762 0.0
C1408 C 0.83074 0.56262 0.86667 0.0
C1409 C 0.80113 0.59024 0.92186 0.0
C1410 C 0.81175 0.58111 0.90289 0.0
H1411 H 0.82548 0.53158 0.79937 0.0
H1412 H 0.81083 0.55013 0.82993 0.0
H1413 H 0.84804 0.54417 0.88955 0.0
H1414 H 0.78018 0.57511 0.96906 0.0
H1415 H 0.79863 0.56038 0.93854 0.0
C1416 C 0.63738 0.56043 0.19749 0.0
C1417 C 0.64443 0.5438 0.21033 0.0
C1418 C 0.64928 0.56756 0.18039 0.0
C1419 C 0.68921 0.54945 0.14289 0.0
H1420 H 0.69484 0.6092 0.12956 0.0
C1421 C 0.74172 0.57749 0.07462 0.0
C1422 C 0.73493 0.59437 0.06198 0.0
C1423 C 0.73122 0.57217 0.09322 0.0
C1424 C 0.69321 0.59243 0.13288 0.0
H1425 H 0.66991 0.522 0.21544 0.0
H1426 H 0.69067 0.53442 0.18551 0.0
H1427 H 0.67606 0.59856 0.16142 0.0
H1428 H 0.71171 0.619 0.05922 0.0
H1429 H 0.69303 0.60939 0.09152 0.0
H1430 H 0.70588 0.54318 0.11423 0.0
C1431 C 0.67581 0.54184 0.18867 0.0
C1432 C 0.68251 0.58634 0.15121 0.0
C1433 C 0.66397 0.53482 0.20591 0.0
C1434 C 0.71741 0.60595 0.06859 0.0
C1435 C 0.70676 0.60049 0.08719 0.0
C1436 C 0.69976 0.55551 0.12451 0.0
C1437 C 0.66849 0.55814 0.17556 0.0
C1438 C 0.6804 0.56477 0.15644 0.0
C1439 C 0.71347 0.58342 0.09969 0.0
C1440 C 0.70197 0.57709 0.11925 0.0
H1441 H 0.62245 0.5678 0.20042 0.0
H1442 H 0.6431 0.58001 0.17054 0.0
H1443 H 0.68753 0.53268 0.14622 0.0
H1444 H 0.7553 0.56835 0.07024 0.0
H1445 H 0.73718 0.55926 0.10262 0.0
C1446 C 0.7293 0.38053 0.43208 0.0
C1447 C 0.73372 0.39311 0.45019 0.0
C1448 C 0.71976 0.3894 0.41422 0.0
C1449 C 0.68805 0.43535 0.39789 0.0
H1450 H 0.70651 0.42055 0.34109 0.0
C1451 C 0.64364 0.46411 0.3245 0.0
C1452 C 0.65541 0.47193 0.30747 0.0
C1453 C 0.65321 0.45318 0.34098 0.0
C1454 C 0.70126 0.42493 0.35685 0.0
H1455 H 0.73155 0.42482 0.46377 0.0
H1456 H 0.7151 0.44026 0.43274 0.0
H1457 H 0.72319 0.40435 0.37186 0.0
H1458 H 0.68645 0.47379 0.29407 0.0
H1459 H 0.70333 0.45479 0.32311 0.0
H1460 H 0.66649 0.45625 0.38307 0.0
C1461 C 0.71874 0.4235 0.43233 0.0
C1462 C 0.71065 0.41547 0.37448 0.0
C1463 C 0.72827 0.41466 0.45012 0.0
C1464 C 0.67695 0.46794 0.30696 0.0
C1465 C 0.6866 0.457 0.32357 0.0
C1466 C 0.67867 0.44475 0.38032 0.0
C1467 C 0.71438 0.41102 0.41412 0.0
C1468 C 0.70419 0.42062 0.39523 0.0
C1469 C 0.67487 0.44983 0.34099 0.0
C1470 C 0.6851 0.43967 0.35956 0.0
H1471 H 0.73333 0.36387 0.43164 0.0
H1472 H 0.71642 0.37928 0.40057 0.0
H1473 H 0.6825 0.43954 0.41359 0.0
H1474 H 0.62697 0.46671 0.32531 0.0
H1475 H 0.64361 0.44748 0.35387 0.0
C1476 C 0.85269 0.46114 0.70277 0.0
C1477 C 0.84271 0.48018 0.70849 0.0
C1478 C 0.84771 0.4507 0.68351 0.0
C1479 C 0.82678 0.46144 0.63039 0.0
H1480 H 0.80824 0.40263 0.62806 0.0
C1481 C 0.77486 0.43028 0.56294 0.0
C1482 C 0.77796 0.40986 0.5543 0.0
C1483 C 0.78581 0.43718 0.58098 0.0
C1484 C 0.81375 0.41895 0.62836 0.0
H1485 H 0.81974 0.50312 0.69829 0.0
H1486 H 0.81142 0.48519 0.66498 0.0
H1487 H 0.82233 0.41767 0.66138 0.0
H1488 H 0.79514 0.38062 0.55814 0.0
H1489 H 0.81438 0.39281 0.58989 0.0
H1490 H 0.81797 0.46303 0.59768 0.0
C1491 C 0.82303 0.47829 0.67531 0.0
C1492 C 0.8218 0.42754 0.64743 0.0
C1493 C 0.82773 0.48848 0.69454 0.0
C1494 C 0.79235 0.39646 0.56433 0.0
C1495 C 0.80332 0.40339 0.58256 0.0
C1496 C 0.81889 0.45288 0.61141 0.0
C1497 C 0.833 0.45937 0.6695 0.0
C1498 C 0.82773 0.44908 0.64877 0.0
C1499 C 0.80025 0.42392 0.59099 0.0
C1500 C 0.81159 0.43175 0.61032 0.0
H1501 H 0.86426 0.45429 0.71317 0.0
H1502 H 0.85561 0.43611 0.67939 0.0
H1503 H 0.83161 0.47799 0.63086 0.0
H1504 H 0.7639 0.4411 0.55581 0.0
H1505 H 0.78271 0.45292 0.58726 0.0
C1506 C 0.38818 0.08049 0.2282 0.0
C1507 C 0.39571 0.06076 0.23494 0.0
C1508 C 0.40173 0.09588 0.2203 0.0
C1509 C 0.43603 0.12929 0.22214 0.0
H1510 H 0.47285 0.12195 0.17396 0.0
C1511 C 0.48776 0.19809 0.196 0.0
C1512 C 0.48733 0.20272 0.17424 0.0
C1513 C 0.48038 0.1786 0.20328 0.0
C1514 C 0.46267 0.12418 0.18746 0.0
H1515 H 0.42351 0.04157 0.23787 0.0
H1516 H 0.44735 0.06879 0.22385 0.0
H1517 H 0.45222 0.09157 0.18682 0.0
H1518 H 0.47986 0.1901 0.14291 0.0
H1519 H 0.46628 0.15608 0.15574 0.0
H1520 H 0.44571 0.16177 0.22269 0.0
C1521 C 0.43082 0.0721 0.22481 0.0
C1522 C 0.45104 0.10679 0.1949 0.0
C1523 C 0.41719 0.0566 0.2329 0.0
C1524 C 0.48036 0.18696 0.15978 0.0
C1525 C 0.47268 0.16746 0.16713 0.0
C1526 C 0.44768 0.14651 0.21489 0.0
C1527 C 0.42319 0.092 0.21881 0.0
C1528 C 0.43734 0.10937 0.21206 0.0
C1529 C 0.47205 0.16334 0.18904 0.0
C1530 C 0.46096 0.14429 0.19732 0.0
H1531 H 0.37175 0.08424 0.22921 0.0
H1532 H 0.39543 0.11099 0.2155 0.0
H1533 H 0.42564 0.13165 0.23547 0.0
H1534 H 0.49344 0.20974 0.20751 0.0
H1535 H 0.48063 0.17574 0.22021 0.0
C1536 C 0.0382 0.8079 0.67756 0.0
C1537 C 0.03488 0.80478 0.65566 0.0
C1538 C 0.0466 0.82705 0.68533 0.0
C1539 C 0.05016 0.88303 0.67562 0.0
H1540 H 0.1009 0.88276 0.70951 0.0
C1541 C 0.088 0.96144 0.70429 0.0
C1542 C 0.09758 0.96207 0.72439 0.0
C1543 C 0.08182 0.94211 0.69502 0.0
C1544 C 0.08655 0.88316 0.70038 0.0
H1545 H 0.03725 0.81933 0.62475 0.0
H1546 H 0.05125 0.85327 0.63852 0.0
H1547 H 0.08648 0.84938 0.69544 0.0
H1548 H 0.10851 0.94303 0.75049 0.0
H1549 H 0.09678 0.90927 0.7349 0.0
H1550 H 0.04935 0.91646 0.68128 0.0
C1551 C 0.04765 0.84069 0.64954 0.0
C1552 C 0.07841 0.86403 0.69221 0.0
C1553 C 0.03968 0.82133 0.6417 0.0
C1554 C 0.10126 0.94295 0.73491 0.0
C1555 C 0.09461 0.92359 0.72586 0.0
C1556 C 0.058 0.9021 0.68416 0.0
C1557 C 0.05139 0.84358 0.67139 0.0
C1558 C 0.06019 0.86384 0.67973 0.0
C1559 C 0.08456 0.92292 0.70587 0.0
C1560 C 0.07637 0.90249 0.69662 0.0
H1561 H 0.03472 0.79538 0.68868 0.0
H1562 H 0.04922 0.82901 0.70226 0.0
H1563 H 0.03594 0.88319 0.66623 0.0
H1564 H 0.08525 0.97595 0.69569 0.0
H1565 H 0.07479 0.94231 0.67936 0.0
C1566 C 0.46235 0.82164 0.37375 0.0
C1567 C 0.47833 0.81008 0.36392 0.0
C1568 C 0.45356 0.83907 0.3636 0.0
C1569 C 0.46229 0.87961 0.32351 0.0
H1570 H 0.40215 0.87783 0.31626 0.0
C1571 C 0.41933 0.9421 0.27316 0.0
C1572 C 0.39988 0.94895 0.28063 0.0
C1573 C 0.42911 0.92462 0.28233 0.0
C1574 C 0.41892 0.87883 0.31838 0.0
H1575 H 0.49834 0.80824 0.33631 0.0
H1576 H 0.48335 0.83909 0.31888 0.0
H1577 H 0.41942 0.84974 0.33566 0.0
H1578 H 0.37539 0.94281 0.30347 0.0
H1579 H 0.39259 0.91307 0.31983 0.0
H1580 H 0.46186 0.90901 0.30688 0.0
C1581 C 0.47748 0.8345 0.33428 0.0
C1582 C 0.42879 0.86266 0.32946 0.0
C1583 C 0.486 0.81684 0.34423 0.0
C1584 C 0.39029 0.93781 0.29719 0.0
C1585 C 0.40015 0.92061 0.30653 0.0
C1586 C 0.45238 0.89602 0.31272 0.0
C1587 C 0.46088 0.84548 0.34365 0.0
C1588 C 0.45054 0.86291 0.33217 0.0
C1589 C 0.41977 0.9138 0.29935 0.0
C1590 C 0.43052 0.8959 0.31006 0.0
H1591 H 0.45609 0.81674 0.38889 0.0
H1592 H 0.44086 0.8474 0.37121 0.0
H1593 H 0.4791 0.88017 0.32544 0.0
H1594 H 0.42708 0.95035 0.26039 0.0
H1595 H 0.44402 0.91965 0.2761 0.0
C1596 C 0.81402 0.66647 0.02764 0.0
C1597 C 0.81625 0.64432 0.02594 0.0
C1598 C 0.83052 0.67931 0.03523 0.0
C1599 C 0.88784 0.67868 0.04729 0.0
H1600 H 0.87411 0.72444 0.08629 0.0
C1601 C 0.92817 0.72878 0.12071 0.0
C1602 C 0.94837 0.73245 0.11279 0.0
C1603 C 0.91232 0.72061 0.1076 0.0
C1604 C 0.87826 0.71167 0.07549 0.0
H1605 H 0.83777 0.61839 0.03077 0.0
H1606 H 0.86608 0.64052 0.04447 0.0
H1607 H 0.84624 0.7048 0.06825 0.0
H1608 H 0.96747 0.7309 0.08449 0.0
H1609 H 0.93958 0.7169 0.0614 0.0
H1610 H 0.91983 0.68477 0.0555 0.0
C1611 C 0.85184 0.64816 0.03947 0.0
C1612 C 0.86223 0.70056 0.06487 0.0
C1613 C 0.83546 0.63539 0.03175 0.0
C1614 C 0.95214 0.72818 0.09117 0.0
C1615 C 0.93617 0.72005 0.07796 0.0
C1616 C 0.90388 0.68967 0.05805 0.0
C1617 C 0.8496 0.67029 0.04145 0.0
C1618 C 0.86676 0.6836 0.05097 0.0
C1619 C 0.91608 0.71598 0.08608 0.0
C1620 C 0.89928 0.706 0.07267 0.0
H1621 H 0.79951 0.67392 0.02316 0.0
H1622 H 0.82828 0.69631 0.03623 0.0
H1623 H 0.89199 0.66601 0.03637 0.0
H1624 H 0.92458 0.73179 0.13726 0.0
H1625 H 0.89724 0.71733 0.11459 0.0
C1626 C 0.5805 0.27278 0.61145 0.0
C1627 C 0.56197 0.26745 0.60045 0.0
C1628 C 0.59775 0.28099 0.60058 0.0
C1629 C 0.61047 0.31538 0.55856 0.0
H1630 H 0.6651 0.28972 0.55529 0.0
C1631 C 0.6765 0.35644 0.51229 0.0
C1632 C 0.6971 0.35446 0.51964 0.0
C1633 C 0.66044 0.34397 0.52073 0.0
C1634 C 0.65008 0.29736 0.5563 0.0
H1635 H 0.54709 0.26621 0.56944 0.0
H1636 H 0.57706 0.2813 0.55062 0.0
H1637 H 0.6367 0.27119 0.57335 0.0
H1638 H 0.71711 0.33781 0.54151 0.0
H1639 H 0.68907 0.31692 0.55714 0.0
H1640 H 0.62367 0.34208 0.54284 0.0
C1641 C 0.57827 0.27872 0.56755 0.0
C1642 C 0.63379 0.28658 0.56651 0.0
C1643 C 0.5612 0.27002 0.57832 0.0
C1644 C 0.70138 0.33954 0.53541 0.0
C1645 C 0.68523 0.32745 0.54428 0.0
C1646 C 0.62681 0.3264 0.54884 0.0
C1647 C 0.59659 0.28447 0.57864 0.0
C1648 C 0.61385 0.29549 0.56761 0.0
C1649 C 0.66442 0.32961 0.53723 0.0
C1650 C 0.64691 0.31756 0.54744 0.0
H1651 H 0.58151 0.27098 0.62851 0.0
H1652 H 0.61171 0.28543 0.60945 0.0
H1653 H 0.59524 0.32267 0.55947 0.0
H1654 H 0.67278 0.36767 0.49996 0.0
H1655 H 0.64487 0.34575 0.51429 0.0
C1656 C 0.23784 0.39897 0.07101 0.0
C1657 C 0.23111 0.40922 0.05252 0.0
C1658 C 0.22965 0.40467 0.09085 0.0
C1659 C 0.18485 0.43123 0.11634 0.0
H1660 H 0.22376 0.44271 0.16251 0.0
C1661 C 0.16122 0.47645 0.19319 0.0
C1662 C 0.17065 0.47037 0.21234 0.0
C1663 C 0.16764 0.46749 0.17384 0.0
C1664 C 0.21259 0.43925 0.14993 0.0
H1665 H 0.21004 0.4331 0.04041 0.0
H1666 H 0.1959 0.44288 0.0748 0.0
H1667 H 0.23663 0.42889 0.12883 0.0
H1668 H 0.19349 0.44935 0.22626 0.0
H1669 H 0.20417 0.43346 0.19283 0.0
H1670 H 0.16079 0.44159 0.13741 0.0
C1671 C 0.20743 0.43044 0.07401 0.0
C1672 C 0.22001 0.43133 0.13061 0.0
C1673 C 0.21571 0.42492 0.05429 0.0
C1674 C 0.18611 0.45468 0.21178 0.0
C1675 C 0.19234 0.44561 0.19255 0.0
C1676 C 0.17739 0.43902 0.13573 0.0
C1677 C 0.2144 0.42053 0.09254 0.0
C1678 C 0.20627 0.42742 0.11353 0.0
C1679 C 0.18347 0.45212 0.17328 0.0
C1680 C 0.19119 0.44329 0.15274 0.0
H1681 H 0.24965 0.38681 0.07021 0.0
H1682 H 0.23522 0.39667 0.10488 0.0
H1683 H 0.17385 0.42816 0.10351 0.0
H1684 H 0.14931 0.48853 0.19308 0.0
H1685 H 0.16058 0.47305 0.15929 0.0
C1686 C 0.34396 0.48714 0.81782 0.0
C1687 C 0.36356 0.47944 0.81163 0.0
C1688 C 0.33351 0.47831 0.83517 0.0
C1689 C 0.32848 0.42869 0.86369 0.0
H1690 H 0.30858 0.4621 0.91139 0.0
C1691 C 0.30219 0.38931 0.94134 0.0
C1692 C 0.28666 0.39902 0.95359 0.0
C1693 C 0.31009 0.39931 0.92334 0.0
C1694 C 0.31363 0.4525 0.89803 0.0
H1695 H 0.38771 0.45671 0.81902 0.0
H1696 H 0.36932 0.44116 0.8489 0.0
H1697 H 0.32491 0.47986 0.88139 0.0
H1698 H 0.26662 0.42643 0.95618 0.0
H1699 H 0.27968 0.44347 0.9243 0.0
H1700 H 0.31693 0.40138 0.87981 0.0
C1701 C 0.36209 0.45403 0.8404 0.0
C1702 C 0.32309 0.46273 0.88091 0.0
C1703 C 0.37265 0.46306 0.82337 0.0
C1704 C 0.27871 0.41862 0.94712 0.0
C1705 C 0.28636 0.42848 0.92892 0.0
C1706 C 0.31873 0.41848 0.88059 0.0
C1707 C 0.34233 0.46138 0.84632 0.0
C1708 C 0.33092 0.45087 0.86377 0.0
C1709 C 0.30239 0.41913 0.91692 0.0
C1710 C 0.31148 0.43019 0.89821 0.0
H1711 H 0.33656 0.49973 0.80906 0.0
H1712 H 0.31827 0.48424 0.83947 0.0
H1713 H 0.33414 0.41921 0.85049 0.0
H1714 H 0.30873 0.37428 0.94605 0.0
H1715 H 0.32267 0.39172 0.91483 0.0
C1716 C 0.27693 0.59606 0.576 0.0
C1717 C 0.28102 0.58508 0.55686 0.0
C1718 C 0.28591 0.58939 0.59518 0.0
C1719 C 0.33258 0.56454 0.61425 0.0
H1720 H 0.30268 0.54464 0.66368 0.0
C1721 C 0.37434 0.51535 0.67633 0.0
C1722 C 0.37011 0.51881 0.69795 0.0
C1723 C 0.36196 0.52446 0.6607 0.0
C1724 C 0.31128 0.55047 0.65015 0.0
H1725 H 0.29732 0.55806 0.54319 0.0
H1726 H 0.31304 0.54696 0.57626 0.0
H1727 H 0.28329 0.55976 0.63378 0.0
H1728 H 0.34905 0.53405 0.7201 0.0
H1729 H 0.32756 0.55046 0.69264 0.0
H1730 H 0.3605 0.55554 0.63022 0.0
C1731 C 0.3029 0.56063 0.57645 0.0
C1732 C 0.30016 0.5591 0.63309 0.0
C1733 C 0.29379 0.56703 0.55749 0.0
C1734 C 0.35272 0.53108 0.70357 0.0
C1735 C 0.34038 0.54045 0.68783 0.0
C1736 C 0.34365 0.55621 0.63128 0.0
C1737 C 0.29932 0.57188 0.59539 0.0
C1738 C 0.31074 0.56567 0.61479 0.0
C1739 C 0.34514 0.53758 0.66619 0.0
C1740 C 0.33315 0.54844 0.64919 0.0
H1741 H 0.26711 0.60995 0.57611 0.0
H1742 H 0.28296 0.59829 0.60966 0.0
H1743 H 0.34109 0.56974 0.60039 0.0
H1744 H 0.38739 0.50568 0.67142 0.0
H1745 H 0.36572 0.5213 0.64422 0.0
C1746 C 0.17658 0.52599 0.31549 0.0
C1747 C 0.15728 0.53308 0.30786 0.0
C1748 C 0.18569 0.53533 0.33357 0.0
C1749 C 0.17409 0.57064 0.37997 0.0
H1750 H 0.23444 0.57622 0.38227 0.0
C1751 C 0.21755 0.61987 0.44482 0.0
C1752 C 0.23281 0.60854 0.45592 0.0
C1753 C 0.20889 0.61157 0.42601 0.0
C1754 C 0.21757 0.57471 0.38182 0.0
H1755 H 0.13232 0.55545 0.31309 0.0
H1756 H 0.14852 0.57235 0.34415 0.0
H1757 H 0.21777 0.55984 0.35116 0.0
H1758 H 0.25168 0.58016 0.45563 0.0
H1759 H 0.23692 0.56594 0.4224 0.0
H1760 H 0.17405 0.5861 0.41049 0.0
C1761 C 0.15643 0.55917 0.33663 0.0
C1762 C 0.20798 0.56518 0.36408 0.0
C1763 C 0.14715 0.54955 0.31875 0.0
C1764 C 0.23991 0.58922 0.4474 0.0
C1765 C 0.23153 0.58111 0.4284 0.0
C1766 C 0.18368 0.58049 0.39753 0.0
C1767 C 0.17591 0.55228 0.34422 0.0
C1768 C 0.1861 0.56283 0.36298 0.0
C1769 C 0.21564 0.592 0.41778 0.0
C1770 C 0.20551 0.58247 0.39868 0.0
H1771 H 0.18467 0.51319 0.3075 0.0
H1772 H 0.20042 0.52919 0.33918 0.0
H1773 H 0.15726 0.56881 0.37994 0.0
H1774 H 0.21173 0.63477 0.45106 0.0
H1775 H 0.19676 0.62033 0.41801 0.0
loop_
_geom_bond_atom_site_label_1
_geom_bond_atom_site_label_2
_geom_bond_distance
_geom_bond_site_symmetry_2
_ccdc_geom_bond_type
Co0 O1 2.216 1_455 S
Co0 O2 2.091 1_455 S
Co0 O4 2.004 . S
Co0 O10 2.021 1_455 S
Co0 O12 2.137 . S
Co0 O13 2.244 . S
O1 Co0 2.216 1_655 S
O1 C8 1.247 . S
O2 Co0 2.091 1_655 S
O2 C8 1.261 . S
C3 O12 1.247 . S
C3 O13 1.272 . S
O4 Co0 2.004 . S
O4 C9 1.259 . S
Co5 O6 2.061 . S
Co5 O11 2.052 . S
Co5 O13 2.135 . S
O6 Co5 2.061 . S
O6 C9 1.235 . S
C7 O10 1.238 . S
C7 O11 1.241 1_655 S
C8 O1 1.247 . S
C8 O2 1.261 . S
C9 O4 1.259 . S
C9 O6 1.235 . S
O10 Co0 2.021 1_655 S
O10 C7 1.238 . S
O11 Co5 2.052 . S
O11 C7 1.241 1_455 S
O12 Co0 2.137 . S
O12 C3 1.247 . S
O13 Co0 2.244 . S
O13 C3 1.272 . S
O13 Co5 2.135 . S
Co14 O15 2.216 . S
Co14 O16 2.091 . S
Co14 O18 2.004 1_455 S
Co14 O24 2.021 1_455 S
Co14 O26 2.137 . S
Co14 O27 2.244 . S
O15 Co14 2.216 . S
O15 C22 1.247 . S
O16 Co14 2.091 . S
O16 C22 1.261 . S
C17 O26 1.247 . S
C17 O27 1.272 . S
O18 Co14 2.004 1_655 S
O18 C23 1.259 . S
Co19 O20 2.061 . S
Co19 O25 2.052 . S
Co19 O27 2.135 1_655 S
O20 Co19 2.061 . S
O20 C23 1.235 . S
C21 O24 1.238 . S
C21 O25 1.241 . S
C22 O15 1.247 . S
C22 O16 1.261 . S
C23 O18 1.259 . S
C23 O20 1.235 . S
O24 Co14 2.021 1_655 S
O24 C21 1.238 . S
O25 Co19 2.052 . S
O25 C21 1.241 . S
O26 Co14 2.137 . S
O26 C17 1.247 . S
O27 Co14 2.244 . S
O27 C17 1.272 . S
O27 Co19 2.135 1_455 S
Co28 O29 2.216 . S
Co28 O30 2.091 . S
Co28 O32 2.004 . S
Co28 O38 2.021 . S
Co28 O40 2.137 . S
Co28 O41 2.244 . S
O29 Co28 2.216 . S
O29 C36 1.247 . S
O30 Co28 2.091 . S
O30 C36 1.261 . S
C31 O40 1.247 . S
C31 O41 1.272 . S
O32 Co28 2.004 . S
O32 C37 1.259 . S
Co33 O34 2.061 . S
Co33 O39 2.052 . S
Co33 O41 2.135 . S
O34 Co33 2.061 . S
O34 C37 1.235 . S
C35 O38 1.238 . S
C35 O39 1.241 . S
C36 O29 1.247 . S
C36 O30 1.261 . S
C37 O32 1.259 . S
C37 O34 1.235 . S
O38 Co28 2.021 . S
O38 C35 1.238 . S
O39 Co33 2.052 . S
O39 C35 1.241 . S
O40 Co28 2.137 . S
O40 C31 1.247 . S
O41 Co28 2.244 . S
O41 C31 1.272 . S
O41 Co33 2.135 . S
Co42 O43 2.216 . S
Co42 O44 2.091 . S
Co42 O46 2.004 . S
Co42 O52 2.021 . S
Co42 O54 2.137 . S
Co42 O55 2.244 . S
O43 Co42 2.216 . S
O43 C50 1.247 . S
O44 Co42 2.091 . S
O44 C50 1.261 . S
C45 O54 1.247 . S
C45 O55 1.272 . S
O46 Co42 2.004 . S
O46 C51 1.259 . S
Co47 O48 2.061 . S
Co47 O53 2.052 . S
Co47 O55 2.135 . S
O48 Co47 2.061 . S
O48 C51 1.235 . S
C49 O52 1.238 . S
C49 O53 1.241 . S
C50 O43 1.247 . S
C50 O44 1.261 . S
C51 O46 1.259 . S
C51 O48 1.235 . S
O52 Co42 2.021 . S
O52 C49 1.238 . S
O53 Co47 2.052 . S
O53 C49 1.241 . S
O54 Co42 2.137 . S
O54 C45 1.247 . S
O55 Co42 2.244 . S
O55 C45 1.272 . S
O55 Co47 2.135 . S
Co56 O57 2.216 . S
Co56 O58 2.091 . S
Co56 O60 2.004 1_455 S
Co56 O66 2.021 . S
Co56 O68 2.137 1_455 S
Co56 O69 2.244 1_455 S
O57 Co56 2.216 . S
O57 C64 1.247 . S
O58 Co56 2.091 . S
O58 C64 1.261 . S
C59 O68 1.247 . S
C59 O69 1.272 . S
O60 Co56 2.004 1_655 S
O60 C65 1.259 . S
Co61 O62 2.061 . S
Co61 O67 2.052 1_655 S
Co61 O69 2.135 . S
O62 Co61 2.061 . S
O62 C65 1.235 . S
C63 O66 1.238 . S
C63 O67 1.241 . S
C64 O57 1.247 . S
C64 O58 1.261 . S
C65 O60 1.259 . S
C65 O62 1.235 . S
O66 Co56 2.021 . S
O66 C63 1.238 . S
O67 Co61 2.052 1_455 S
O67 C63 1.241 . S
O68 Co56 2.137 1_655 S
O68 C59 1.247 . S
O69 Co56 2.244 1_655 S
O69 C59 1.272 . S
O69 Co61 2.135 . S
Co70 O71 2.216 . S
Co70 O72 2.091 . S
Co70 O74 2.004 . S
Co70 O80 2.021 . S
Co70 O82 2.137 . S
Co70 O83 2.244 . S
O71 Co70 2.216 . S
O71 C78 1.247 . S
O72 Co70 2.091 . S
O72 C78 1.261 . S
C73 O82 1.247 . S
C73 O83 1.272 . S
O74 Co70 2.004 . S
O74 C79 1.259 . S
Co75 O76 2.061 . S
Co75 O81 2.052 . S
Co75 O83 2.135 . S
O76 Co75 2.061 . S
O76 C79 1.235 . S
C77 O80 1.238 . S
C77 O81 1.241 . S
C78 O71 1.247 . S
C78 O72 1.261 . S
C79 O74 1.259 . S
C79 O76 1.235 . S
O80 Co70 2.021 . S
O80 C77 1.238 . S
O81 Co75 2.052 . S
O81 C77 1.241 . S
O82 Co70 2.137 . S
O82 C73 1.247 . S
O83 Co70 2.244 . S
O83 C73 1.272 . S
O83 Co75 2.135 . S
Co84 O85 2.216 . S
Co84 O86 2.091 . S
Co84 O88 2.004 . S
Co84 O94 2.021 . S
Co84 O96 2.137 . S
Co84 O97 2.244 . S
O85 Co84 2.216 . S
O85 C92 1.247 . S
O86 Co84 2.091 . S
O86 C92 1.261 . S
C87 O96 1.247 . S
C87 O97 1.272 . S
O88 Co84 2.004 . S
O88 C93 1.259 . S
Co89 O90 2.061 . S
Co89 O95 2.052 . S
Co89 O97 2.135 . S
O90 Co89 2.061 . S
O90 C93 1.235 . S
C91 O94 1.238 . S
C91 O95 1.241 . S
C92 O85 1.247 . S
C92 O86 1.261 . S
C93 O88 1.259 . S
C93 O90 1.235 . S
O94 Co84 2.021 . S
O94 C91 1.238 . S
O95 Co89 2.052 . S
O95 C91 1.241 . S
O96 Co84 2.137 . S
O96 C87 1.247 . S
O97 Co84 2.244 . S
O97 C87 1.272 . S
O97 Co89 2.135 . S
Co98 O99 2.256 . S
Co98 O100 2.116 . S
Co98 O102 1.969 1_655 S
Co98 O108 1.998 1_655 S
Co98 O110 2.162 . S
Co98 O111 2.241 1_655 S
O99 Co98 2.256 . S
O99 C106 1.247 . S
O100 Co98 2.116 . S
O100 C106 1.261 . S
C101 O110 1.247 . S
C101 O111 1.272 1_655 S
O102 Co98 1.969 1_455 S
O102 C107 1.259 . S
Co103 O104 2.061 . S
Co103 O109 2.052 . S
Co103 O111 2.135 . S
O104 Co103 2.061 . S
O104 C107 1.235 . S
C105 O108 1.238 . S
C105 O109 1.241 . S
C106 O99 1.247 . S
C106 O100 1.261 . S
C107 O102 1.259 . S
C107 O104 1.235 . S
O108 Co98 1.998 1_455 S
O108 C105 1.238 . S
O109 Co103 2.052 . S
O109 C105 1.241 . S
O110 Co98 2.162 . S
O110 C101 1.247 . S
O111 Co98 2.241 1_455 S
O111 C101 1.272 1_455 S
O111 Co103 2.135 . S
Co112 O113 2.249 . S
Co112 O114 2.114 . S
Co112 O116 1.976 1_565 S
Co112 O122 2.034 . S
Co112 O124 2.124 1_565 S
Co112 O125 2.228 1_565 S
O113 Co112 2.249 . S
O113 C120 1.247 . S
O114 Co112 2.114 . S
O114 C120 1.261 . S
C115 O124 1.247 . S
C115 O125 1.272 . S
O116 Co112 1.976 1_545 S
O116 C121 1.259 . S
Co117 O118 2.061 . S
Co117 O123 2.052 . S
Co117 O125 2.135 . S
O118 Co117 2.061 . S
O118 C121 1.235 . S
C119 O122 1.238 . S
C119 O123 1.241 1_565 S
C120 O113 1.247 . S
C120 O114 1.261 . S
C121 O116 1.259 . S
C121 O118 1.235 . S
O122 Co112 2.034 . S
O122 C119 1.238 . S
O123 Co117 2.052 . S
O123 C119 1.241 1_545 S
O124 Co112 2.124 1_545 S
O124 C115 1.247 . S
O125 Co112 2.228 1_545 S
O125 C115 1.272 . S
O125 Co117 2.135 . S
Co126 O127 2.216 . S
Co126 O128 2.091 . S
Co126 O130 2.004 . S
Co126 O136 2.021 . S
Co126 O138 2.137 . S
Co126 O139 2.244 . S
O127 Co126 2.216 . S
O127 C134 1.247 . S
O128 Co126 2.091 . S
O128 C134 1.261 . S
C129 O138 1.247 . S
C129 O139 1.272 . S
O130 Co126 2.004 . S
O130 C135 1.259 . S
Co131 O132 2.061 . S
Co131 O137 2.052 . S
Co131 O139 2.135 . S
O132 Co131 2.061 . S
O132 C135 1.235 . S
C133 O136 1.238 . S
C133 O137 1.241 . S
C134 O127 1.247 . S
C134 O128 1.261 . S
C135 O130 1.259 . S
C135 O132 1.235 . S
O136 Co126 2.021 . S
O136 C133 1.238 . S
O137 Co131 2.052 . S
O137 C133 1.241 . S
O138 Co126 2.137 . S
O138 C129 1.247 . S
O139 Co126 2.244 . S
O139 C129 1.272 . S
O139 Co131 2.135 . S
Co140 O141 2.216 1_545 S
Co140 O142 2.091 1_545 S
Co140 O144 2.004 . S
Co140 O150 2.021 1_545 S
Co140 O152 2.137 . S
Co140 O153 2.244 . S
O141 Co140 2.216 1_565 S
O141 C148 1.247 . S
O142 Co140 2.091 1_565 S
O142 C148 1.261 . S
C143 O152 1.247 . S
C143 O153 1.272 . S
O144 Co140 2.004 . S
O144 C149 1.259 . S
Co145 O146 2.061 . S
Co145 O151 2.052 1_545 S
Co145 O153 2.135 . S
O146 Co145 2.061 . S
O146 C149 1.235 . S
C147 O150 1.238 . S
C147 O151 1.241 . S
C148 O141 1.247 . S
C148 O142 1.261 . S
C149 O144 1.259 . S
C149 O146 1.235 . S
O150 Co140 2.021 1_565 S
O150 C147 1.238 . S
O151 Co145 2.052 1_565 S
O151 C147 1.241 . S
O152 Co140 2.137 . S
O152 C143 1.247 . S
O153 Co140 2.244 . S
O153 C143 1.272 . S
O153 Co145 2.135 . S
Co154 O155 2.216 1_554 S
Co154 O156 2.091 1_554 S
Co154 O158 2.004 . S
Co154 O164 2.021 . S
Co154 O166 2.137 1_554 S
Co154 O167 2.244 1_554 S
O155 Co154 2.216 1_556 S
O155 C162 1.247 . S
O156 Co154 2.091 1_556 S
O156 C162 1.261 . S
C157 O166 1.247 . S
C157 O167 1.272 . S
O158 Co154 2.004 . S
O158 C163 1.259 . S
Co159 O160 2.061 . S
Co159 O165 2.052 . S
Co159 O167 2.135 1_554 S
O160 Co159 2.061 . S
O160 C163 1.235 . S
C161 O164 1.238 . S
C161 O165 1.241 . S
C162 O155 1.247 . S
C162 O156 1.261 . S
C163 O158 1.259 . S
C163 O160 1.235 . S
O164 Co154 2.021 . S
O164 C161 1.238 . S
O165 Co159 2.052 . S
O165 C161 1.241 . S
O166 Co154 2.137 1_556 S
O166 C157 1.247 . S
O167 Co154 2.244 1_556 S
O167 C157 1.272 . S
O167 Co159 2.135 1_556 S
Co168 O169 2.216 . S
Co168 O170 2.091 . S
Co168 O172 2.004 1_554 S
Co168 O178 2.021 . S
Co168 O180 2.137 1_554 S
Co168 O181 2.244 1_554 S
O169 Co168 2.216 . S
O169 C176 1.247 . S
O170 Co168 2.091 . S
O170 C176 1.261 . S
C171 O180 1.247 . S
C171 O181 1.272 . S
O172 Co168 2.004 1_556 S
O172 C177 1.259 . S
Co173 O174 2.061 . S
Co173 O179 2.052 1_556 S
Co173 O181 2.135 . S
O174 Co173 2.061 . S
O174 C177 1.235 . S
C175 O178 1.238 . S
C175 O179 1.241 . S
C176 O169 1.247 . S
C176 O170 1.261 . S
C177 O172 1.259 . S
C177 O174 1.235 . S
O178 Co168 2.021 . S
O178 C175 1.238 . S
O179 Co173 2.052 1_554 S
O179 C175 1.241 . S
O180 Co168 2.137 1_556 S
O180 C171 1.247 . S
O181 Co168 2.244 1_556 S
O181 C171 1.272 . S
O181 Co173 2.135 . S
Co182 O183 2.216 . S
Co182 O184 2.091 . S
Co182 O186 2.004 1_554 S
Co182 O192 2.021 . S
Co182 O194 2.137 1_554 S
Co182 O195 2.244 1_554 S
O183 Co182 2.216 . S
O183 C190 1.247 . S
O184 Co182 2.091 . S
O184 C190 1.261 . S
C185 O194 1.247 . S
C185 O195 1.272 . S
O186 Co182 2.004 1_556 S
O186 C191 1.259 . S
Co187 O188 2.061 . S
Co187 O193 2.052 1_556 S
Co187 O195 2.135 . S
O188 Co187 2.061 . S
O188 C191 1.235 . S
C189 O192 1.238 . S
C189 O193 1.241 . S
C190 O183 1.247 . S
C190 O184 1.261 . S
C191 O186 1.259 . S
C191 O188 1.235 . S
O192 Co182 2.021 . S
O192 C189 1.238 . S
O193 Co187 2.052 1_554 S
O193 C189 1.241 . S
O194 Co182 2.137 1_556 S
O194 C185 1.247 . S
O195 Co182 2.244 1_556 S
O195 C185 1.272 . S
O195 Co187 2.135 . S
Co196 O197 2.216 . S
Co196 O198 2.091 . S
Co196 O200 2.004 . S
Co196 O206 2.021 . S
Co196 O208 2.137 . S
Co196 O209 2.244 . S
O197 Co196 2.216 . S
O197 C204 1.247 . S
O198 Co196 2.091 . S
O198 C204 1.261 . S
C199 O208 1.247 . S
C199 O209 1.272 . S
O200 Co196 2.004 . S
O200 C205 1.259 . S
Co201 O202 2.061 . S
Co201 O207 2.052 . S
Co201 O209 2.135 . S
O202 Co201 2.061 . S
O202 C205 1.235 . S
C203 O206 1.238 . S
C203 O207 1.241 . S
C204 O197 1.247 . S
C204 O198 1.261 . S
C205 O200 1.259 . S
C205 O202 1.235 . S
O206 Co196 2.021 . S
O206 C203 1.238 . S
O207 Co201 2.052 . S
O207 C203 1.241 . S
O208 Co196 2.137 . S
O208 C199 1.247 . S
O209 Co196 2.244 . S
O209 C199 1.272 . S
O209 Co201 2.135 . S
Co210 O211 2.216 . S
Co210 O212 2.091 . S
Co210 O214 2.004 . S
Co210 O220 2.021 . S
Co210 O222 2.137 . S
Co210 O223 2.244 . S
O211 Co210 2.216 . S
O211 C218 1.247 . S
O212 Co210 2.091 . S
O212 C218 1.261 . S
C213 O222 1.247 . S
C213 O223 1.272 . S
O214 Co210 2.004 . S
O214 C219 1.259 . S
Co215 O216 2.061 . S
Co215 O221 2.052 . S
Co215 O223 2.135 . S
O216 Co215 2.061 . S
O216 C219 1.235 . S
C217 O220 1.238 . S
C217 O221 1.241 . S
C218 O211 1.247 . S
C218 O212 1.261 . S
C219 O214 1.259 . S
C219 O216 1.235 . S
O220 Co210 2.021 . S
O220 C217 1.238 . S
O221 Co215 2.052 . S
O221 C217 1.241 . S
O222 Co210 2.137 . S
O222 C213 1.247 . S
O223 Co210 2.244 . S
O223 C213 1.272 . S
O223 Co215 2.135 . S
Co224 O225 2.216 . S
Co224 O226 2.091 . S
Co224 O228 2.004 1_565 S
Co224 O234 2.021 1_565 S
Co224 O236 2.137 . S
Co224 O237 2.244 . S
O225 Co224 2.216 . S
O225 C232 1.247 . S
O226 Co224 2.091 . S
O226 C232 1.261 . S
C227 O236 1.247 . S
C227 O237 1.272 . S
O228 Co224 2.004 1_545 S
O228 C233 1.259 . S
Co229 O230 2.061 . S
Co229 O235 2.052 . S
Co229 O237 2.135 1_545 S
O230 Co229 2.061 . S
O230 C233 1.235 . S
C231 O234 1.238 . S
C231 O235 1.241 . S
C232 O225 1.247 . S
C232 O226 1.261 . S
C233 O228 1.259 . S
C233 O230 1.235 . S
O234 Co224 2.021 1_545 S
O234 C231 1.238 . S
O235 Co229 2.052 . S
O235 C231 1.241 . S
O236 Co224 2.137 . S
O236 C227 1.247 . S
O237 Co224 2.244 . S
O237 C227 1.272 . S
O237 Co229 2.135 1_565 S
Co238 O239 2.216 . S
Co238 O240 2.091 . S
Co238 O242 2.004 . S
Co238 O248 2.021 . S
Co238 O250 2.137 . S
Co238 O251 2.244 . S
O239 Co238 2.216 . S
O239 C246 1.247 . S
O240 Co238 2.091 . S
O240 C246 1.261 . S
C241 O250 1.247 . S
C241 O251 1.272 . S
O242 Co238 2.004 . S
O242 C247 1.259 . S
Co243 O244 2.061 . S
Co243 O249 2.052 . S
Co243 O251 2.135 . S
O244 Co243 2.061 . S
O244 C247 1.235 . S
C245 O248 1.238 . S
C245 O249 1.241 . S
C246 O239 1.247 . S
C246 O240 1.261 . S
C247 O242 1.259 . S
C247 O244 1.235 . S
O248 Co238 2.021 . S
O248 C245 1.238 . S
O249 Co243 2.052 . S
O249 C245 1.241 . S
O250 Co238 2.137 . S
O250 C241 1.247 . S
O251 Co238 2.244 . S
O251 C241 1.272 . S
O251 Co243 2.135 . S
Co252 O253 2.216 . S
Co252 O254 2.091 . S
Co252 O256 2.004 . S
Co252 O262 2.021 . S
Co252 O264 2.137 . S
Co252 O265 2.244 . S
O253 Co252 2.216 . S
O253 C260 1.247 . S
O254 Co252 2.091 . S
O254 C260 1.261 . S
C255 O264 1.247 . S
C255 O265 1.272 . S
O256 Co252 2.004 . S
O256 C261 1.259 . S
Co257 O258 2.061 . S
Co257 O263 2.052 . S
Co257 O265 2.135 . S
O258 Co257 2.061 . S
O258 C261 1.235 . S
C259 O262 1.238 . S
C259 O263 1.241 . S
C260 O253 1.247 . S
C260 O254 1.261 . S
C261 O256 1.259 . S
C261 O258 1.235 . S
O262 Co252 2.021 . S
O262 C259 1.238 . S
O263 Co257 2.052 . S
O263 C259 1.241 . S
O264 Co252 2.137 . S
O264 C255 1.247 . S
O265 Co252 2.244 . S
O265 C255 1.272 . S
O265 Co257 2.135 . S
Co266 O267 2.216 . S
Co266 O268 2.091 . S
Co266 O270 2.004 1_545 S
Co266 O276 2.021 1_545 S
Co266 O278 2.137 . S
Co266 O279 2.244 . S
O267 Co266 2.216 . S
O267 C274 1.247 . S
O268 Co266 2.091 . S
O268 C274 1.261 . S
C269 O278 1.247 . S
C269 O279 1.272 . S
O270 Co266 2.004 1_565 S
O270 C275 1.259 . S
Co271 O272 2.061 . S
Co271 O277 2.052 . S
Co271 O279 2.135 1_565 S
O272 Co271 2.061 . S
O272 C275 1.235 . S
C273 O276 1.238 . S
C273 O277 1.241 . S
C274 O267 1.247 . S
C274 O268 1.261 . S
C275 O270 1.259 . S
C275 O272 1.235 . S
O276 Co266 2.021 1_565 S
O276 C273 1.238 . S
O277 Co271 2.052 . S
O277 C273 1.241 . S
O278 Co266 2.137 . S
O278 C269 1.247 . S
O279 Co266 2.244 . S
O279 C269 1.272 . S
O279 Co271 2.135 1_545 S
Co280 O281 2.213 1_554 S
Co280 O282 2.089 1_554 S
Co280 O284 2.007 . S
Co280 O290 2.028 . S
Co280 O292 2.130 1_554 S
Co280 O293 2.242 1_554 S
O281 Co280 2.213 1_556 S
O281 C288 1.247 . S
O282 Co280 2.089 1_556 S
O282 C288 1.261 . S
C283 O292 1.247 . S
C283 O293 1.272 . S
O284 Co280 2.007 . S
O284 C289 1.259 . S
Co285 O286 2.061 . S
Co285 O291 2.052 . S
Co285 O293 2.135 1_554 S
O286 Co285 2.061 . S
O286 C289 1.235 . S
C287 O290 1.238 . S
C287 O291 1.241 . S
C288 O281 1.247 . S
C288 O282 1.261 . S
C289 O284 1.259 . S
C289 O286 1.235 . S
O290 Co280 2.028 . S
O290 C287 1.238 . S
O291 Co285 2.052 . S
O291 C287 1.241 . S
O292 Co280 2.130 1_556 S
O292 C283 1.247 . S
O293 Co280 2.242 1_556 S
O293 C283 1.272 . S
O293 Co285 2.135 1_556 S
Co294 O295 2.216 . S
Co294 O296 2.091 . S
Co294 O298 2.004 . S
Co294 O304 2.021 . S
Co294 O306 2.137 . S
Co294 O307 2.244 . S
O295 Co294 2.216 . S
O295 C302 1.247 . S
O296 Co294 2.091 . S
O296 C302 1.261 . S
C297 O306 1.247 . S
C297 O307 1.272 . S
O298 Co294 2.004 . S
O298 C303 1.259 . S
Co299 O300 2.061 . S
Co299 O305 2.052 . S
Co299 O307 2.135 . S
O300 Co299 2.061 . S
O300 C303 1.235 . S
C301 O304 1.238 . S
C301 O305 1.241 . S
C302 O295 1.247 . S
C302 O296 1.261 . S
C303 O298 1.259 . S
C303 O300 1.235 . S
O304 Co294 2.021 . S
O304 C301 1.238 . S
O305 Co299 2.052 . S
O305 C301 1.241 . S
O306 Co294 2.137 . S
O306 C297 1.247 . S
O307 Co294 2.244 . S
O307 C297 1.272 . S
O307 Co299 2.135 . S
Co308 O309 2.216 . S
Co308 O310 2.091 . S
Co308 O312 2.004 . S
Co308 O318 2.021 . S
Co308 O320 2.137 . S
Co308 O321 2.244 . S
O309 Co308 2.216 . S
O309 C316 1.247 . S
O310 Co308 2.091 . S
O310 C316 1.261 . S
C311 O320 1.247 . S
C311 O321 1.272 . S
O312 Co308 2.004 . S
O312 C317 1.259 . S
Co313 O314 2.061 . S
Co313 O319 2.052 . S
Co313 O321 2.135 . S
O314 Co313 2.061 . S
O314 C317 1.235 . S
C315 O318 1.238 . S
C315 O319 1.241 . S
C316 O309 1.247 . S
C316 O310 1.261 . S
C317 O312 1.259 . S
C317 O314 1.235 . S
O318 Co308 2.021 . S
O318 C315 1.238 . S
O319 Co313 2.052 . S
O319 C315 1.241 . S
O320 Co308 2.137 . S
O320 C311 1.247 . S
O321 Co308 2.244 . S
O321 C311 1.272 . S
O321 Co313 2.135 . S
Co322 O323 2.216 . S
Co322 O324 2.091 . S
Co322 O326 2.004 . S
Co322 O332 2.021 . S
Co322 O334 2.137 . S
Co322 O335 2.244 . S
O323 Co322 2.216 . S
O323 C330 1.247 . S
O324 Co322 2.091 . S
O324 C330 1.261 . S
C325 O334 1.247 . S
C325 O335 1.272 . S
O326 Co322 2.004 . S
O326 C331 1.259 . S
Co327 O328 2.061 . S
Co327 O333 2.052 . S
Co327 O335 2.135 . S
O328 Co327 2.061 . S
O328 C331 1.235 . S
C329 O332 1.238 . S
C329 O333 1.241 . S
C330 O323 1.247 . S
C330 O324 1.261 . S
C331 O326 1.259 . S
C331 O328 1.235 . S
O332 Co322 2.021 . S
O332 C329 1.238 . S
O333 Co327 2.052 . S
O333 C329 1.241 . S
O334 Co322 2.137 . S
O334 C325 1.247 . S
O335 Co322 2.244 . S
O335 C325 1.272 . S
O335 Co327 2.135 . S
C336 C337 1.349 . S
C336 C338 1.327 . S
C336 H361 0.950 . S
C337 C336 1.349 . S
C337 C353 1.349 . S
C338 C336 1.327 . S
C338 C357 1.429 . S
C338 H362 0.950 . S
C339 C356 1.574 . S
C339 C358 1.368 . S
C339 H363 0.949 . S
H340 C344 0.949 . S
C341 C342 1.349 . S
C341 C343 1.327 . S
C341 H364 0.950 . S
C342 C341 1.349 . S
C342 C354 1.349 . S
C343 C341 1.327 . S
C343 C359 1.429 . S
C343 H365 0.950 . S
C344 H340 0.949 . S
C344 C352 1.574 . S
C344 C360 1.368 . S
H345 C353 0.950 . S
H346 C351 0.950 . S
H347 C352 0.949 . S
H348 C354 0.950 . S
H349 C355 0.950 . S
H350 C356 0.949 . S
C351 H346 0.950 . S
C351 C353 1.327 . S
C351 C357 1.429 . S
C352 C344 1.574 . S
C352 H347 0.949 . S
C352 C358 1.368 . S
C353 C337 1.349 . S
C353 H345 0.950 . S
C353 C351 1.327 . S
C354 C342 1.349 . S
C354 H348 0.950 . S
C354 C355 1.327 . S
C355 H349 0.950 . S
C355 C354 1.327 . S
C355 C359 1.429 . S
C356 C339 1.574 . S
C356 H350 0.949 . S
C356 C360 1.368 . S
C357 C338 1.429 . S
C357 C351 1.429 . S
C357 C358 1.523 . S
C358 C339 1.368 . S
C358 C352 1.368 . S
C358 C357 1.523 . S
C359 C343 1.429 . S
C359 C355 1.429 . S
C359 C360 1.523 . S
C360 C344 1.368 . S
C360 C356 1.368 . S
C360 C359 1.523 . S
H361 C336 0.950 . S
H362 C338 0.950 . S
H363 C339 0.949 . S
H364 C341 0.950 . S
H365 C343 0.950 . S
C366 C367 1.349 . S
C366 C368 1.327 . S
C366 H391 0.950 . S
C367 C366 1.349 . S
C367 C383 1.349 . S
C368 C366 1.327 . S
C368 C387 1.429 . S
C368 H392 0.950 . S
C369 C386 1.574 . S
C369 C388 1.368 . S
C369 H393 0.949 . S
H370 C374 0.949 . S
C371 C372 1.349 . S
C371 C373 1.327 . S
C371 H394 0.950 . S
C372 C371 1.349 . S
C372 C384 1.349 . S
C373 C371 1.327 . S
C373 C389 1.429 . S
C373 H395 0.950 . S
C374 H370 0.949 . S
C374 C382 1.574 . S
C374 C390 1.368 . S
H375 C383 0.950 . S
H376 C381 0.950 . S
H377 C382 0.949 . S
H378 C384 0.950 . S
H379 C385 0.950 . S
H380 C386 0.949 . S
C381 H376 0.950 . S
C381 C383 1.327 . S
C381 C387 1.429 . S
C382 C374 1.574 . S
C382 H377 0.949 . S
C382 C388 1.368 . S
C383 C367 1.349 . S
C383 H375 0.950 . S
C383 C381 1.327 . S
C384 C372 1.349 . S
C384 H378 0.950 . S
C384 C385 1.327 . S
C385 H379 0.950 . S
C385 C384 1.327 . S
C385 C389 1.429 . S
C386 C369 1.574 . S
C386 H380 0.949 . S
C386 C390 1.368 . S
C387 C368 1.429 . S
C387 C381 1.429 . S
C387 C388 1.523 . S
C388 C369 1.368 . S
C388 C382 1.368 . S
C388 C387 1.523 . S
C389 C373 1.429 . S
C389 C385 1.429 . S
C389 C390 1.523 . S
C390 C374 1.368 . S
C390 C386 1.368 . S
C390 C389 1.523 . S
H391 C366 0.950 . S
H392 C368 0.950 . S
H393 C369 0.949 . S
H394 C371 0.950 . S
H395 C373 0.950 . S
C396 C397 1.349 . S
C396 C398 1.327 . S
C396 H421 0.950 . S
C397 C396 1.349 . S
C397 C413 1.349 . S
C398 C396 1.327 . S
C398 C417 1.429 . S
C398 H422 0.950 . S
C399 C416 1.574 . S
C399 C418 1.368 . S
C399 H423 0.949 . S
H400 C404 0.949 . S
C401 C402 1.349 . S
C401 C403 1.327 . S
C401 H424 0.950 . S
C402 C401 1.349 . S
C402 C414 1.349 . S
C403 C401 1.327 . S
C403 C419 1.429 . S
C403 H425 0.950 . S
C404 H400 0.949 . S
C404 C412 1.574 . S
C404 C420 1.368 . S
H405 C413 0.950 . S
H406 C411 0.950 . S
H407 C412 0.949 . S
H408 C414 0.950 . S
H409 C415 0.950 . S
H410 C416 0.949 . S
C411 H406 0.950 . S
C411 C413 1.327 . S
C411 C417 1.429 . S
C412 C404 1.574 . S
C412 H407 0.949 . S
C412 C418 1.368 . S
C413 C397 1.349 . S
C413 H405 0.950 . S
C413 C411 1.327 . S
C414 C402 1.349 . S
C414 H408 0.950 . S
C414 C415 1.327 . S
C415 H409 0.950 . S
C415 C414 1.327 . S
C415 C419 1.429 . S
C416 C399 1.574 . S
C416 H410 0.949 . S
C416 C420 1.368 . S
C417 C398 1.429 . S
C417 C411 1.429 . S
C417 C418 1.523 . S
C418 C399 1.368 . S
C418 C412 1.368 . S
C418 C417 1.523 . S
C419 C403 1.429 . S
C419 C415 1.429 . S
C419 C420 1.523 . S
C420 C404 1.368 . S
C420 C416 1.368 . S
C420 C419 1.523 . S
H421 C396 0.950 . S
H422 C398 0.950 . S
H423 C399 0.949 . S
H424 C401 0.950 . S
H425 C403 0.950 . S
C426 C427 1.349 . S
C426 C428 1.327 . S
C426 H451 0.950 . S
C427 C426 1.349 . S
C427 C443 1.349 . S
C428 C426 1.327 . S
C428 C447 1.429 . S
C428 H452 0.950 . S
C429 C446 1.574 . S
C429 C448 1.368 . S
C429 H453 0.949 . S
H430 C434 0.949 . S
C431 C432 1.349 . S
C431 C433 1.327 . S
C431 H454 0.950 . S
C432 C431 1.349 . S
C432 C444 1.349 . S
C433 C431 1.327 . S
C433 C449 1.429 . S
C433 H455 0.950 . S
C434 H430 0.949 . S
C434 C442 1.574 . S
C434 C450 1.368 . S
H435 C443 0.950 . S
H436 C441 0.950 . S
H437 C442 0.949 . S
H438 C444 0.950 . S
H439 C445 0.950 . S
H440 C446 0.949 . S
C441 H436 0.950 . S
C441 C443 1.327 . S
C441 C447 1.429 . S
C442 C434 1.574 . S
C442 H437 0.949 . S
C442 C448 1.368 . S
C443 C427 1.349 . S
C443 H435 0.950 . S
C443 C441 1.327 . S
C444 C432 1.349 . S
C444 H438 0.950 . S
C444 C445 1.327 . S
C445 H439 0.950 . S
C445 C444 1.327 . S
C445 C449 1.429 . S
C446 C429 1.574 . S
C446 H440 0.949 . S
C446 C450 1.368 . S
C447 C428 1.429 . S
C447 C441 1.429 . S
C447 C448 1.523 . S
C448 C429 1.368 . S
C448 C442 1.368 . S
C448 C447 1.523 . S
C449 C433 1.429 . S
C449 C445 1.429 . S
C449 C450 1.523 . S
C450 C434 1.368 . S
C450 C446 1.368 . S
C450 C449 1.523 . S
H451 C426 0.950 . S
H452 C428 0.950 . S
H453 C429 0.949 . S
H454 C431 0.950 . S
H455 C433 0.950 . S
C456 C457 1.349 . S
C456 C458 1.327 . S
C456 H481 0.950 . S
C457 C456 1.349 . S
C457 C473 1.349 . S
C458 C456 1.327 . S
C458 C477 1.429 . S
C458 H482 0.950 . S
C459 C476 1.574 . S
C459 C478 1.368 . S
C459 H483 0.949 . S
H460 C464 0.949 . S
C461 C462 1.349 . S
C461 C463 1.327 . S
C461 H484 0.950 . S
C462 C461 1.349 . S
C462 C474 1.349 . S
C463 C461 1.327 . S
C463 C479 1.429 . S
C463 H485 0.950 . S
C464 H460 0.949 . S
C464 C472 1.574 . S
C464 C480 1.368 . S
H465 C473 0.950 . S
H466 C471 0.950 . S
H467 C472 0.949 . S
H468 C474 0.950 . S
H469 C475 0.950 . S
H470 C476 0.949 . S
C471 H466 0.950 . S
C471 C473 1.327 . S
C471 C477 1.429 . S
C472 C464 1.574 . S
C472 H467 0.949 . S
C472 C478 1.368 . S
C473 C457 1.349 . S
C473 H465 0.950 . S
C473 C471 1.327 . S
C474 C462 1.349 . S
C474 H468 0.950 . S
C474 C475 1.327 . S
C475 H469 0.950 . S
C475 C474 1.327 . S
C475 C479 1.429 . S
C476 C459 1.574 . S
C476 H470 0.949 . S
C476 C480 1.368 . S
C477 C458 1.429 . S
C477 C471 1.429 . S
C477 C478 1.523 . S
C478 C459 1.368 . S
C478 C472 1.368 . S
C478 C477 1.523 . S
C479 C463 1.429 . S
C479 C475 1.429 . S
C479 C480 1.523 . S
C480 C464 1.368 . S
C480 C476 1.368 . S
C480 C479 1.523 . S
H481 C456 0.950 . S
H482 C458 0.950 . S
H483 C459 0.949 . S
H484 C461 0.950 . S
H485 C463 0.950 . S
C486 C487 1.349 . S
C486 C488 1.327 . S
C486 H511 0.950 . S
C487 C486 1.349 . S
C487 C503 1.349 . S
C488 C486 1.327 . S
C488 C507 1.429 . S
C488 H512 0.950 . S
C489 C506 1.574 . S
C489 C508 1.368 . S
C489 H513 0.949 . S
H490 C494 0.949 . S
C491 C492 1.349 . S
C491 C493 1.327 . S
C491 H514 0.950 . S
C492 C491 1.349 . S
C492 C504 1.349 . S
C493 C491 1.327 . S
C493 C509 1.429 . S
C493 H515 0.950 . S
C494 H490 0.949 . S
C494 C502 1.574 . S
C494 C510 1.368 . S
H495 C503 0.950 . S
H496 C501 0.950 . S
H497 C502 0.949 . S
H498 C504 0.950 . S
H499 C505 0.950 . S
H500 C506 0.949 . S
C501 H496 0.950 . S
C501 C503 1.327 . S
C501 C507 1.429 . S
C502 C494 1.574 . S
C502 H497 0.949 . S
C502 C508 1.368 . S
C503 C487 1.349 . S
C503 H495 0.950 . S
C503 C501 1.327 . S
C504 C492 1.349 . S
C504 H498 0.950 . S
C504 C505 1.327 . S
C505 H499 0.950 . S
C505 C504 1.327 . S
C505 C509 1.429 . S
C506 C489 1.574 . S
C506 H500 0.949 . S
C506 C510 1.368 . S
C507 C488 1.429 . S
C507 C501 1.429 . S
C507 C508 1.523 . S
C508 C489 1.368 . S
C508 C502 1.368 . S
C508 C507 1.523 . S
C509 C493 1.429 . S
C509 C505 1.429 . S
C509 C510 1.523 . S
C510 C494 1.368 . S
C510 C506 1.368 . S
C510 C509 1.523 . S
H511 C486 0.950 . S
H512 C488 0.950 . S
H513 C489 0.949 . S
H514 C491 0.950 . S
H515 C493 0.950 . S
C516 C517 1.349 . S
C516 C518 1.327 . S
C516 H541 0.950 . S
C517 C516 1.349 . S
C517 C533 1.349 . S
C518 C516 1.327 . S
C518 C537 1.429 . S
C518 H542 0.950 . S
C519 C536 1.574 . S
C519 C538 1.368 . S
C519 H543 0.949 . S
H520 C524 0.949 . S
C521 C522 1.349 . S
C521 C523 1.327 . S
C521 H544 0.950 . S
C522 C521 1.349 . S
C522 C534 1.349 . S
C523 C521 1.327 . S
C523 C539 1.429 . S
C523 H545 0.950 . S
C524 H520 0.949 . S
C524 C532 1.574 . S
C524 C540 1.368 . S
H525 C533 0.950 . S
H526 C531 0.950 . S
H527 C532 0.949 . S
H528 C534 0.950 . S
H529 C535 0.950 . S
H530 C536 0.949 . S
C531 H526 0.950 . S
C531 C533 1.327 . S
C531 C537 1.429 . S
C532 C524 1.574 . S
C532 H527 0.949 . S
C532 C538 1.368 . S
C533 C517 1.349 . S
C533 H525 0.950 . S
C533 C531 1.327 . S
C534 C522 1.349 . S
C534 H528 0.950 . S
C534 C535 1.327 . S
C535 H529 0.950 . S
C535 C534 1.327 . S
C535 C539 1.429 . S
C536 C519 1.574 . S
C536 H530 0.949 . S
C536 C540 1.368 . S
C537 C518 1.429 . S
C537 C531 1.429 . S
C537 C538 1.523 . S
C538 C519 1.368 . S
C538 C532 1.368 . S
C538 C537 1.523 . S
C539 C523 1.429 . S
C539 C535 1.429 . S
C539 C540 1.523 . S
C540 C524 1.368 . S
C540 C536 1.368 . S
C540 C539 1.523 . S
H541 C516 0.950 . S
H542 C518 0.950 . S
H543 C519 0.949 . S
H544 C521 0.950 . S
H545 C523 0.950 . S
C546 C547 1.349 . S
C546 C548 1.327 . S
C546 H571 0.950 . S
C547 C546 1.349 . S
C547 C563 1.349 . S
C548 C546 1.327 . S
C548 C567 1.429 . S
C548 H572 0.950 . S
C549 C566 1.574 . S
C549 C568 1.368 . S
C549 H573 0.949 . S
H550 C554 0.949 . S
C551 C552 1.349 . S
C551 C553 1.327 . S
C551 H574 0.950 . S
C552 C551 1.349 . S
C552 C564 1.349 . S
C553 C551 1.327 . S
C553 C569 1.429 . S
C553 H575 0.950 . S
C554 H550 0.949 . S
C554 C562 1.574 . S
C554 C570 1.368 . S
H555 C563 0.950 . S
H556 C561 0.950 . S
H557 C562 0.949 . S
H558 C564 0.950 . S
H559 C565 0.950 . S
H560 C566 0.949 . S
C561 H556 0.950 . S
C561 C563 1.327 . S
C561 C567 1.429 . S
C562 C554 1.574 . S
C562 H557 0.949 . S
C562 C568 1.368 . S
C563 C547 1.349 . S
C563 H555 0.950 . S
C563 C561 1.327 . S
C564 C552 1.349 . S
C564 H558 0.950 . S
C564 C565 1.327 . S
C565 H559 0.950 . S
C565 C564 1.327 . S
C565 C569 1.429 . S
C566 C549 1.574 . S
C566 H560 0.949 . S
C566 C570 1.368 . S
C567 C548 1.429 . S
C567 C561 1.429 . S
C567 C568 1.523 . S
C568 C549 1.368 . S
C568 C562 1.368 . S
C568 C567 1.523 . S
C569 C553 1.429 . S
C569 C565 1.429 . S
C569 C570 1.523 . S
C570 C554 1.368 . S
C570 C566 1.368 . S
C570 C569 1.523 . S
H571 C546 0.950 . S
H572 C548 0.950 . S
H573 C549 0.949 . S
H574 C551 0.950 . S
H575 C553 0.950 . S
C576 C577 1.349 . S
C576 C578 1.327 . S
C576 H601 0.950 . S
C577 C576 1.349 . S
C577 C593 1.349 . S
C578 C576 1.327 . S
C578 C597 1.429 . S
C578 H602 0.950 . S
C579 C596 1.574 . S
C579 C598 1.368 . S
C579 H603 0.949 . S
H580 C584 0.949 . S
C581 C582 1.349 . S
C581 C583 1.327 . S
C581 H604 0.950 . S
C582 C581 1.349 . S
C582 C594 1.349 . S
C583 C581 1.327 . S
C583 C599 1.429 . S
C583 H605 0.950 . S
C584 H580 0.949 . S
C584 C592 1.574 . S
C584 C600 1.368 . S
H585 C593 0.950 . S
H586 C591 0.950 . S
H587 C592 0.949 . S
H588 C594 0.950 . S
H589 C595 0.950 . S
H590 C596 0.949 . S
C591 H586 0.950 . S
C591 C593 1.327 . S
C591 C597 1.429 . S
C592 C584 1.574 . S
C592 H587 0.949 . S
C592 C598 1.368 . S
C593 C577 1.349 . S
C593 H585 0.950 . S
C593 C591 1.327 . S
C594 C582 1.349 . S
C594 H588 0.950 . S
C594 C595 1.327 . S
C595 H589 0.950 . S
C595 C594 1.327 . S
C595 C599 1.429 . S
C596 C579 1.574 . S
C596 H590 0.949 . S
C596 C600 1.368 . S
C597 C578 1.429 . S
C597 C591 1.429 . S
C597 C598 1.523 . S
C598 C579 1.368 . S
C598 C592 1.368 . S
C598 C597 1.523 . S
C599 C583 1.429 . S
C599 C595 1.429 . S
C599 C600 1.523 . S
C600 C584 1.368 . S
C600 C596 1.368 . S
C600 C599 1.523 . S
H601 C576 0.950 . S
H602 C578 0.950 . S
H603 C579 0.949 . S
H604 C581 0.950 . S
H605 C583 0.950 . S
C606 C607 1.349 . S
C606 C608 1.327 . S
C606 H631 0.950 . S
C607 C606 1.349 . S
C607 C623 1.349 . S
C608 C606 1.327 . S
C608 C627 1.429 . S
C608 H632 0.950 . S
C609 C626 1.574 . S
C609 C628 1.368 . S
C609 H633 0.949 . S
H610 C614 0.949 . S
C611 C612 1.349 . S
C611 C613 1.327 . S
C611 H634 0.950 . S
C612 C611 1.349 . S
C612 C624 1.349 . S
C613 C611 1.327 . S
C613 C629 1.429 . S
C613 H635 0.950 . S
C614 H610 0.949 . S
C614 C622 1.574 . S
C614 C630 1.368 . S
H615 C623 0.950 . S
H616 C621 0.950 . S
H617 C622 0.949 . S
H618 C624 0.950 . S
H619 C625 0.950 . S
H620 C626 0.949 . S
C621 H616 0.950 . S
C621 C623 1.327 . S
C621 C627 1.429 . S
C622 C614 1.574 . S
C622 H617 0.949 . S
C622 C628 1.368 . S
C623 C607 1.349 . S
C623 H615 0.950 . S
C623 C621 1.327 . S
C624 C612 1.349 . S
C624 H618 0.950 . S
C624 C625 1.327 . S
C625 H619 0.950 . S
C625 C624 1.327 . S
C625 C629 1.429 . S
C626 C609 1.574 . S
C626 H620 0.949 . S
C626 C630 1.368 . S
C627 C608 1.429 . S
C627 C621 1.429 . S
C627 C628 1.523 . S
C628 C609 1.368 . S
C628 C622 1.368 . S
C628 C627 1.523 . S
C629 C613 1.429 . S
C629 C625 1.429 . S
C629 C630 1.523 . S
C630 C614 1.368 . S
C630 C626 1.368 . S
C630 C629 1.523 . S
H631 C606 0.950 . S
H632 C608 0.950 . S
H633 C609 0.949 . S
H634 C611 0.950 . S
H635 C613 0.950 . S
C636 C637 1.349 . S
C636 C638 1.327 . S
C636 H661 0.925 1_565 S
C637 C636 1.349 . S
C637 C653 1.349 . S
C638 C636 1.327 . S
C638 C657 1.429 . S
C638 H662 0.950 . S
C639 C656 1.574 . S
C639 C658 1.368 . S
C639 H663 0.949 . S
H640 C644 0.949 . S
C641 C642 1.349 . S
C641 C643 1.327 . S
C641 H664 0.950 . S
C642 C641 1.349 . S
C642 C654 1.349 . S
C643 C641 1.327 . S
C643 C659 1.429 . S
C643 H665 0.950 . S
C644 H640 0.949 . S
C644 C652 1.574 . S
C644 C660 1.368 . S
H645 C653 0.950 . S
H646 C651 0.950 . S
H647 C652 0.949 . S
H648 C654 0.950 . S
H649 C655 0.950 . S
H650 C656 0.949 . S
C651 H646 0.950 . S
C651 C653 1.327 . S
C651 C657 1.429 . S
C652 C644 1.574 . S
C652 H647 0.949 . S
C652 C658 1.368 . S
C653 C637 1.349 . S
C653 H645 0.950 . S
C653 C651 1.327 . S
C654 C642 1.349 . S
C654 H648 0.950 . S
C654 C655 1.327 . S
C655 H649 0.950 . S
C655 C654 1.327 . S
C655 C659 1.429 . S
C656 C639 1.574 . S
C656 H650 0.949 . S
C656 C660 1.368 . S
C657 C638 1.429 . S
C657 C651 1.429 . S
C657 C658 1.523 . S
C658 C639 1.368 . S
C658 C652 1.368 . S
C658 C657 1.523 . S
C659 C643 1.429 . S
C659 C655 1.429 . S
C659 C660 1.523 . S
C660 C644 1.368 . S
C660 C656 1.368 . S
C660 C659 1.523 . S
H661 C636 0.925 1_545 S
H662 C638 0.950 . S
H663 C639 0.949 . S
H664 C641 0.950 . S
H665 C643 0.950 . S
C666 C667 1.349 . S
C666 C668 1.327 . S
C666 H691 0.950 . S
C667 C666 1.349 . S
C667 C683 1.349 . S
C668 C666 1.327 . S
C668 C687 1.429 . S
C668 H692 0.950 . S
C669 C686 1.574 . S
C669 C688 1.368 . S
C669 H693 0.949 . S
H670 C674 0.949 . S
C671 C672 1.349 . S
C671 C673 1.327 . S
C671 H694 0.950 1_565 S
C672 C671 1.349 . S
C672 C684 1.349 . S
C673 C671 1.327 . S
C673 C689 1.429 . S
C673 H695 0.950 . S
C674 H670 0.949 . S
C674 C682 1.574 . S
C674 C690 1.368 . S
H675 C683 0.950 . S
H676 C681 0.950 . S
H677 C682 0.949 . S
H678 C684 0.950 . S
H679 C685 0.950 . S
H680 C686 0.949 . S
C681 H676 0.950 . S
C681 C683 1.327 . S
C681 C687 1.429 . S
C682 C674 1.574 . S
C682 H677 0.949 . S
C682 C688 1.368 . S
C683 C667 1.349 . S
C683 H675 0.950 . S
C683 C681 1.327 . S
C684 C672 1.349 . S
C684 H678 0.950 . S
C684 C685 1.327 . S
C685 H679 0.950 . S
C685 C684 1.327 . S
C685 C689 1.429 . S
C686 C669 1.574 . S
C686 H680 0.949 . S
C686 C690 1.368 . S
C687 C668 1.429 . S
C687 C681 1.429 . S
C687 C688 1.523 . S
C688 C669 1.368 . S
C688 C682 1.368 . S
C688 C687 1.523 . S
C689 C673 1.429 . S
C689 C685 1.429 . S
C689 C690 1.523 . S
C690 C674 1.368 . S
C690 C686 1.368 . S
C690 C689 1.523 . S
H691 C666 0.950 . S
H692 C668 0.950 . S
H693 C669 0.949 . S
H694 C671 0.950 1_545 S
H695 C673 0.950 . S
C696 C697 1.349 . S
C696 C698 1.327 . S
C696 H721 0.950 . S
C697 C696 1.349 . S
C697 C713 1.349 . S
C698 C696 1.327 . S
C698 C717 1.429 . S
C698 H722 0.950 . S
C699 C716 1.574 . S
C699 C718 1.368 . S
C699 H723 0.949 . S
H700 C704 0.949 . S
C701 C702 1.349 . S
C701 C703 1.327 . S
C701 H724 0.950 . S
C702 C701 1.349 . S
C702 C714 1.349 . S
C703 C701 1.327 . S
C703 C719 1.429 . S
C703 H725 0.950 . S
C704 H700 0.949 . S
C704 C712 1.574 . S
C704 C720 1.368 . S
H705 C713 0.950 . S
H706 C711 0.950 . S
H707 C712 0.949 . S
H708 C714 0.950 . S
H709 C715 0.950 . S
H710 C716 0.949 . S
C711 H706 0.950 . S
C711 C713 1.327 . S
C711 C717 1.429 . S
C712 C704 1.574 . S
C712 H707 0.949 . S
C712 C718 1.368 . S
C713 C697 1.349 . S
C713 H705 0.950 . S
C713 C711 1.327 . S
C714 C702 1.349 . S
C714 H708 0.950 . S
C714 C715 1.327 . S
C715 H709 0.950 . S
C715 C714 1.327 . S
C715 C719 1.429 . S
C716 C699 1.574 . S
C716 H710 0.949 . S
C716 C720 1.368 . S
C717 C698 1.429 . S
C717 C711 1.429 . S
C717 C718 1.523 . S
C718 C699 1.368 . S
C718 C712 1.368 . S
C718 C717 1.523 . S
C719 C703 1.429 . S
C719 C715 1.429 . S
C719 C720 1.523 . S
C720 C704 1.368 . S
C720 C716 1.368 . S
C720 C719 1.523 . S
H721 C696 0.950 . S
H722 C698 0.950 . S
H723 C699 0.949 . S
H724 C701 0.950 . S
H725 C703 0.950 . S
C726 C727 1.349 . S
C726 C728 1.327 . S
C726 H751 0.950 . S
C727 C726 1.349 . S
C727 C743 1.349 . S
C728 C726 1.327 . S
C728 C747 1.429 . S
C728 H752 0.950 . S
C729 C746 1.574 . S
C729 C748 1.368 . S
C729 H753 0.949 . S
H730 C734 0.949 . S
C731 C732 1.349 . S
C731 C733 1.327 . S
C731 H754 0.950 . S
C732 C731 1.349 . S
C732 C744 1.349 . S
C733 C731 1.327 . S
C733 C749 1.429 . S
C733 H755 0.950 . S
C734 H730 0.949 . S
C734 C742 1.574 . S
C734 C750 1.368 . S
H735 C743 0.950 . S
H736 C741 0.950 . S
H737 C742 0.949 . S
H738 C744 0.950 . S
H739 C745 0.950 . S
H740 C746 0.949 . S
C741 H736 0.950 . S
C741 C743 1.327 . S
C741 C747 1.429 . S
C742 C734 1.574 . S
C742 H737 0.949 . S
C742 C748 1.368 . S
C743 C727 1.349 . S
C743 H735 0.950 . S
C743 C741 1.327 . S
C744 C732 1.349 . S
C744 H738 0.950 . S
C744 C745 1.327 . S
C745 H739 0.950 . S
C745 C744 1.327 . S
C745 C749 1.429 . S
C746 C729 1.574 . S
C746 H740 0.949 . S
C746 C750 1.368 . S
C747 C728 1.429 . S
C747 C741 1.429 . S
C747 C748 1.523 . S
C748 C729 1.368 . S
C748 C742 1.368 . S
C748 C747 1.523 . S
C749 C733 1.429 . S
C749 C745 1.429 . S
C749 C750 1.523 . S
C750 C734 1.368 . S
C750 C746 1.368 . S
C750 C749 1.523 . S
H751 C726 0.950 . S
H752 C728 0.950 . S
H753 C729 0.949 . S
H754 C731 0.950 . S
H755 C733 0.950 . S
C756 C757 1.349 . S
C756 C758 1.327 . S
C756 H781 0.950 . S
C757 C756 1.349 . S
C757 C773 1.349 . S
C758 C756 1.327 . S
C758 C777 1.429 . S
C758 H782 0.950 . S
C759 C776 1.574 . S
C759 C778 1.368 . S
C759 H783 0.949 . S
H760 C764 0.949 . S
C761 C762 1.349 . S
C761 C763 1.327 . S
C761 H784 0.950 . S
C762 C761 1.349 . S
C762 C774 1.349 . S
C763 C761 1.327 . S
C763 C779 1.429 . S
C763 H785 0.950 . S
C764 H760 0.949 . S
C764 C772 1.574 . S
C764 C780 1.368 . S
H765 C773 0.950 . S
H766 C771 0.950 . S
H767 C772 0.949 . S
H768 C774 0.950 . S
H769 C775 0.950 . S
H770 C776 0.949 . S
C771 H766 0.950 . S
C771 C773 1.327 . S
C771 C777 1.429 . S
C772 C764 1.574 . S
C772 H767 0.949 . S
C772 C778 1.368 . S
C773 C757 1.349 . S
C773 H765 0.950 . S
C773 C771 1.327 . S
C774 C762 1.349 . S
C774 H768 0.950 . S
C774 C775 1.327 . S
C775 H769 0.950 . S
C775 C774 1.327 . S
C775 C779 1.429 . S
C776 C759 1.574 . S
C776 H770 0.949 . S
C776 C780 1.368 . S
C777 C758 1.429 . S
C777 C771 1.429 . S
C777 C778 1.523 . S
C778 C759 1.368 . S
C778 C772 1.368 . S
C778 C777 1.523 . S
C779 C763 1.429 . S
C779 C775 1.429 . S
C779 C780 1.523 . S
C780 C764 1.368 . S
C780 C776 1.368 . S
C780 C779 1.523 . S
H781 C756 0.950 . S
H782 C758 0.950 . S
H783 C759 0.949 . S
H784 C761 0.950 . S
H785 C763 0.950 . S
C786 C787 1.349 . S
C786 C788 1.327 . S
C786 H811 0.950 . S
C787 C786 1.349 . S
C787 C803 1.349 . S
C788 C786 1.327 . S
C788 C807 1.429 . S
C788 H812 0.950 . S
C789 C806 1.574 . S
C789 C808 1.368 . S
C789 H813 0.949 . S
H790 C794 0.949 . S
C791 C792 1.349 . S
C791 C793 1.327 . S
C791 H814 0.950 . S
C792 C791 1.349 . S
C792 C804 1.349 . S
C793 C791 1.327 . S
C793 C809 1.429 . S
C793 H815 0.950 . S
C794 H790 0.949 . S
C794 C802 1.574 . S
C794 C810 1.368 . S
H795 C803 0.950 . S
H796 C801 0.950 . S
H797 C802 0.949 . S
H798 C804 0.950 . S
H799 C805 0.950 . S
H800 C806 0.949 . S
C801 H796 0.950 . S
C801 C803 1.327 . S
C801 C807 1.429 . S
C802 C794 1.574 . S
C802 H797 0.949 . S
C802 C808 1.368 . S
C803 C787 1.349 . S
C803 H795 0.950 . S
C803 C801 1.327 . S
C804 C792 1.349 . S
C804 H798 0.950 . S
C804 C805 1.327 . S
C805 H799 0.950 . S
C805 C804 1.327 . S
C805 C809 1.429 . S
C806 C789 1.574 . S
C806 H800 0.949 . S
C806 C810 1.368 . S
C807 C788 1.429 . S
C807 C801 1.429 . S
C807 C808 1.523 . S
C808 C789 1.368 . S
C808 C802 1.368 . S
C808 C807 1.523 . S
C809 C793 1.429 . S
C809 C805 1.429 . S
C809 C810 1.523 . S
C810 C794 1.368 . S
C810 C806 1.368 . S
C810 C809 1.523 . S
H811 C786 0.950 . S
H812 C788 0.950 . S
H813 C789 0.949 . S
H814 C791 0.950 . S
H815 C793 0.950 . S
C816 C817 1.349 . S
C816 C818 1.327 . S
C816 H841 0.950 . S
C817 C816 1.349 . S
C817 C833 1.349 . S
C818 C816 1.327 . S
C818 C837 1.429 . S
C818 H842 0.950 . S
C819 C836 1.574 . S
C819 C838 1.368 . S
C819 H843 0.949 . S
H820 C824 0.949 . S
C821 C822 1.349 . S
C821 C823 1.327 . S
C821 H844 0.950 . S
C822 C821 1.349 . S
C822 C834 1.349 . S
C823 C821 1.327 . S
C823 C839 1.429 . S
C823 H845 0.950 . S
C824 H820 0.949 . S
C824 C832 1.574 . S
C824 C840 1.368 . S
H825 C833 0.950 . S
H826 C831 0.950 . S
H827 C832 0.949 . S
H828 C834 0.950 . S
H829 C835 0.950 . S
H830 C836 0.949 . S
C831 H826 0.950 . S
C831 C833 1.327 . S
C831 C837 1.429 . S
C832 C824 1.574 . S
C832 H827 0.949 . S
C832 C838 1.368 . S
C833 C817 1.349 . S
C833 H825 0.950 . S
C833 C831 1.327 . S
C834 C822 1.349 . S
C834 H828 0.950 . S
C834 C835 1.327 . S
C835 H829 0.950 . S
C835 C834 1.327 . S
C835 C839 1.429 . S
C836 C819 1.574 . S
C836 H830 0.949 . S
C836 C840 1.368 . S
C837 C818 1.429 . S
C837 C831 1.429 . S
C837 C838 1.523 . S
C838 C819 1.368 . S
C838 C832 1.368 . S
C838 C837 1.523 . S
C839 C823 1.429 . S
C839 C835 1.429 . S
C839 C840 1.523 . S
C840 C824 1.368 . S
C840 C836 1.368 . S
C840 C839 1.523 . S
H841 C816 0.950 . S
H842 C818 0.950 . S
H843 C819 0.949 . S
H844 C821 0.950 . S
H845 C823 0.950 . S
C846 C847 1.349 . S
C846 C848 1.327 . S
C846 H871 0.950 . S
C847 C846 1.349 . S
C847 C863 1.349 . S
C848 C846 1.327 . S
C848 C867 1.429 . S
C848 H872 0.950 . S
C849 C866 1.574 . S
C849 C868 1.368 . S
C849 H873 0.949 . S
H850 C854 0.949 . S
C851 C852 1.349 . S
C851 C853 1.327 . S
C851 H874 0.950 . S
C852 C851 1.349 . S
C852 C864 1.349 . S
C853 C851 1.327 . S
C853 C869 1.429 . S
C853 H875 0.950 . S
C854 H850 0.949 . S
C854 C862 1.574 . S
C854 C870 1.368 . S
H855 C863 0.950 . S
H856 C861 0.950 . S
H857 C862 0.949 . S
H858 C864 0.950 . S
H859 C865 0.950 . S
H860 C866 0.949 . S
C861 H856 0.950 . S
C861 C863 1.327 . S
C861 C867 1.429 . S
C862 C854 1.574 . S
C862 H857 0.949 . S
C862 C868 1.368 . S
C863 C847 1.349 . S
C863 H855 0.950 . S
C863 C861 1.327 . S
C864 C852 1.349 . S
C864 H858 0.950 . S
C864 C865 1.327 . S
C865 H859 0.950 . S
C865 C864 1.327 . S
C865 C869 1.429 . S
C866 C849 1.574 . S
C866 H860 0.949 . S
C866 C870 1.368 . S
C867 C848 1.429 . S
C867 C861 1.429 . S
C867 C868 1.523 . S
C868 C849 1.368 . S
C868 C862 1.368 . S
C868 C867 1.523 . S
C869 C853 1.429 . S
C869 C865 1.429 . S
C869 C870 1.523 . S
C870 C854 1.368 . S
C870 C866 1.368 . S
C870 C869 1.523 . S
H871 C846 0.950 . S
H872 C848 0.950 . S
H873 C849 0.949 . S
H874 C851 0.950 . S
H875 C853 0.950 . S
C876 C877 1.349 . S
C876 C878 1.327 . S
C876 H901 0.950 . S
C877 C876 1.349 . S
C877 C893 1.349 . S
C878 C876 1.327 . S
C878 C897 1.429 . S
C878 H902 0.950 . S
C879 C896 1.574 . S
C879 C898 1.368 . S
C879 H903 0.949 . S
H880 C884 0.949 . S
C881 C882 1.349 . S
C881 C883 1.327 . S
C881 H904 0.950 . S
C882 C881 1.349 . S
C882 C894 1.349 . S
C883 C881 1.327 . S
C883 C899 1.429 . S
C883 H905 0.950 . S
C884 H880 0.949 . S
C884 C892 1.574 . S
C884 C900 1.368 . S
H885 C893 0.950 . S
H886 C891 0.950 . S
H887 C892 0.949 . S
H888 C894 0.950 . S
H889 C895 0.950 . S
H890 C896 0.949 . S
C891 H886 0.950 . S
C891 C893 1.327 . S
C891 C897 1.429 . S
C892 C884 1.574 . S
C892 H887 0.949 . S
C892 C898 1.368 . S
C893 C877 1.349 . S
C893 H885 0.950 . S
C893 C891 1.327 . S
C894 C882 1.349 . S
C894 H888 0.950 . S
C894 C895 1.327 . S
C895 H889 0.950 . S
C895 C894 1.327 . S
C895 C899 1.429 . S
C896 C879 1.574 . S
C896 H890 0.949 . S
C896 C900 1.368 . S
C897 C878 1.429 . S
C897 C891 1.429 . S
C897 C898 1.523 . S
C898 C879 1.368 . S
C898 C892 1.368 . S
C898 C897 1.523 . S
C899 C883 1.429 . S
C899 C895 1.429 . S
C899 C900 1.523 . S
C900 C884 1.368 . S
C900 C896 1.368 . S
C900 C899 1.523 . S
H901 C876 0.950 . S
H902 C878 0.950 . S
H903 C879 0.949 . S
H904 C881 0.950 . S
H905 C883 0.950 . S
C906 C907 1.349 . S
C906 C908 1.327 . S
C906 H931 0.950 . S
C907 C906 1.349 . S
C907 C923 1.349 . S
C908 C906 1.327 . S
C908 C927 1.429 . S
C908 H932 0.950 . S
C909 C926 1.574 . S
C909 C928 1.368 . S
C909 H933 0.949 . S
H910 C914 0.949 . S
C911 C912 1.349 . S
C911 C913 1.327 . S
C911 H934 0.950 . S
C912 C911 1.349 . S
C912 C924 1.349 . S
C913 C911 1.327 . S
C913 C929 1.429 . S
C913 H935 0.950 . S
C914 H910 0.949 . S
C914 C922 1.574 . S
C914 C930 1.368 . S
H915 C923 0.950 . S
H916 C921 0.950 . S
H917 C922 0.949 . S
H918 C924 0.950 . S
H919 C925 0.950 . S
H920 C926 0.949 . S
C921 H916 0.950 . S
C921 C923 1.327 . S
C921 C927 1.429 . S
C922 C914 1.574 . S
C922 H917 0.949 . S
C922 C928 1.368 . S
C923 C907 1.349 . S
C923 H915 0.950 . S
C923 C921 1.327 . S
C924 C912 1.349 . S
C924 H918 0.950 . S
C924 C925 1.327 . S
C925 H919 0.950 . S
C925 C924 1.327 . S
C925 C929 1.429 . S
C926 C909 1.574 . S
C926 H920 0.949 . S
C926 C930 1.368 . S
C927 C908 1.429 . S
C927 C921 1.429 . S
C927 C928 1.523 . S
C928 C909 1.368 . S
C928 C922 1.368 . S
C928 C927 1.523 . S
C929 C913 1.429 . S
C929 C925 1.429 . S
C929 C930 1.523 . S
C930 C914 1.368 . S
C930 C926 1.368 . S
C930 C929 1.523 . S
H931 C906 0.950 . S
H932 C908 0.950 . S
H933 C909 0.949 . S
H934 C911 0.950 . S
H935 C913 0.950 . S
C936 C937 1.349 . S
C936 C938 1.327 . S
C936 H961 0.950 . S
C937 C936 1.349 . S
C937 C953 1.349 . S
C938 C936 1.327 . S
C938 C957 1.429 . S
C938 H962 0.950 . S
C939 C956 1.574 . S
C939 C958 1.368 . S
C939 H963 0.949 . S
H940 C944 0.949 . S
C941 C942 1.349 . S
C941 C943 1.327 . S
C941 H964 0.950 . S
C942 C941 1.349 . S
C942 C954 1.349 . S
C943 C941 1.327 . S
C943 C959 1.429 . S
C943 H965 0.950 . S
C944 H940 0.949 . S
C944 C952 1.574 . S
C944 C960 1.368 . S
H945 C953 0.950 . S
H946 C951 0.950 . S
H947 C952 0.949 . S
H948 C954 0.950 . S
H949 C955 0.950 . S
H950 C956 0.949 . S
C951 H946 0.950 . S
C951 C953 1.327 . S
C951 C957 1.429 . S
C952 C944 1.574 . S
C952 H947 0.949 . S
C952 C958 1.368 . S
C953 C937 1.349 . S
C953 H945 0.950 . S
C953 C951 1.327 . S
C954 C942 1.349 . S
C954 H948 0.950 . S
C954 C955 1.327 . S
C955 H949 0.950 . S
C955 C954 1.327 . S
C955 C959 1.429 . S
C956 C939 1.574 . S
C956 H950 0.949 . S
C956 C960 1.368 . S
C957 C938 1.429 . S
C957 C951 1.429 . S
C957 C958 1.523 . S
C958 C939 1.368 . S
C958 C952 1.368 . S
C958 C957 1.523 . S
C959 C943 1.429 . S
C959 C955 1.429 . S
C959 C960 1.523 . S
C960 C944 1.368 . S
C960 C956 1.368 . S
C960 C959 1.523 . S
H961 C936 0.950 . S
H962 C938 0.950 . S
H963 C939 0.949 . S
H964 C941 0.950 . S
H965 C943 0.950 . S
C966 C967 1.349 . S
C966 C968 1.327 . S
C966 H991 0.950 . S
C967 C966 1.349 . S
C967 C983 1.349 . S
C968 C966 1.327 . S
C968 C987 1.429 . S
C968 H992 0.950 . S
C969 C986 1.574 . S
C969 C988 1.368 . S
C969 H993 0.949 . S
H970 C974 0.949 . S
C971 C972 1.349 . S
C971 C973 1.327 . S
C971 H994 0.950 . S
C972 C971 1.349 . S
C972 C984 1.349 . S
C973 C971 1.327 . S
C973 C989 1.429 . S
C973 H995 0.950 . S
C974 H970 0.949 . S
C974 C982 1.574 . S
C974 C990 1.368 . S
H975 C983 0.950 . S
H976 C981 0.950 . S
H977 C982 0.949 . S
H978 C984 0.950 . S
H979 C985 0.950 . S
H980 C986 0.949 . S
C981 H976 0.950 . S
C981 C983 1.327 . S
C981 C987 1.429 . S
C982 C974 1.574 . S
C982 H977 0.949 . S
C982 C988 1.368 . S
C983 C967 1.349 . S
C983 H975 0.950 . S
C983 C981 1.327 . S
C984 C972 1.349 . S
C984 H978 0.950 . S
C984 C985 1.327 . S
C985 H979 0.950 . S
C985 C984 1.327 . S
C985 C989 1.429 . S
C986 C969 1.574 . S
C986 H980 0.949 . S
C986 C990 1.368 . S
C987 C968 1.429 . S
C987 C981 1.429 . S
C987 C988 1.523 . S
C988 C969 1.368 . S
C988 C982 1.368 . S
C988 C987 1.523 . S
C989 C973 1.429 . S
C989 C985 1.429 . S
C989 C990 1.523 . S
C990 C974 1.368 . S
C990 C986 1.368 . S
C990 C989 1.523 . S
H991 C966 0.950 . S
H992 C968 0.950 . S
H993 C969 0.949 . S
H994 C971 0.950 . S
H995 C973 0.950 . S
C996 C997 1.349 . S
C996 C998 1.327 . S
C996 H1021 0.950 . S
C997 C996 1.349 . S
C997 C1013 1.349 . S
C998 C996 1.327 . S
C998 C1017 1.429 . S
C998 H1022 0.950 . S
C999 C1016 1.574 . S
C999 C1018 1.368 . S
C999 H1023 0.949 . S
H1000 C1004 0.949 . S
C1001 C1002 1.349 . S
C1001 C1003 1.327 . S
C1001 H1024 0.950 . S
C1002 C1001 1.349 . S
C1002 C1014 1.349 . S
C1003 C1001 1.327 . S
C1003 C1019 1.429 . S
C1003 H1025 0.950 . S
C1004 H1000 0.949 . S
C1004 C1012 1.574 . S
C1004 C1020 1.368 . S
H1005 C1013 0.950 . S
H1006 C1011 0.950 . S
H1007 C1012 0.949 . S
H1008 C1014 0.950 . S
H1009 C1015 0.950 . S
H1010 C1016 0.949 . S
C1011 H1006 0.950 . S
C1011 C1013 1.327 . S
C1011 C1017 1.429 . S
C1012 C1004 1.574 . S
C1012 H1007 0.949 . S
C1012 C1018 1.368 . S
C1013 C997 1.349 . S
C1013 H1005 0.950 . S
C1013 C1011 1.327 . S
C1014 C1002 1.349 . S
C1014 H1008 0.950 . S
C1014 C1015 1.327 . S
C1015 H1009 0.950 . S
C1015 C1014 1.327 . S
C1015 C1019 1.429 . S
C1016 C999 1.574 . S
C1016 H1010 0.949 . S
C1016 C1020 1.368 . S
C1017 C998 1.429 . S
C1017 C1011 1.429 . S
C1017 C1018 1.523 . S
C1018 C999 1.368 . S
C1018 C1012 1.368 . S
C1018 C1017 1.523 . S
C1019 C1003 1.429 . S
C1019 C1015 1.429 . S
C1019 C1020 1.523 . S
C1020 C1004 1.368 . S
C1020 C1016 1.368 . S
C1020 C1019 1.523 . S
H1021 C996 0.950 . S
H1022 C998 0.950 . S
H1023 C999 0.949 . S
H1024 C1001 0.950 . S
H1025 C1003 0.950 . S
C1026 C1027 1.349 . S
C1026 C1028 1.327 . S
C1026 H1051 0.950 . S
C1027 C1026 1.349 . S
C1027 C1043 1.349 . S
C1028 C1026 1.327 . S
C1028 C1047 1.429 . S
C1028 H1052 0.950 . S
C1029 C1046 1.574 . S
C1029 C1048 1.368 . S
C1029 H1053 0.949 . S
H1030 C1034 0.949 . S
C1031 C1032 1.349 . S
C1031 C1033 1.327 . S
C1031 H1054 0.950 . S
C1032 C1031 1.349 . S
C1032 C1044 1.349 . S
C1033 C1031 1.327 . S
C1033 C1049 1.429 . S
C1033 H1055 0.950 . S
C1034 H1030 0.949 . S
C1034 C1042 1.574 . S
C1034 C1050 1.368 . S
H1035 C1043 0.950 . S
H1036 C1041 0.950 . S
H1037 C1042 0.949 . S
H1038 C1044 0.950 . S
H1039 C1045 0.950 . S
H1040 C1046 0.949 . S
C1041 H1036 0.950 . S
C1041 C1043 1.327 . S
C1041 C1047 1.429 . S
C1042 C1034 1.574 . S
C1042 H1037 0.949 . S
C1042 C1048 1.368 . S
C1043 C1027 1.349 . S
C1043 H1035 0.950 . S
C1043 C1041 1.327 . S
C1044 C1032 1.349 . S
C1044 H1038 0.950 . S
C1044 C1045 1.327 . S
C1045 H1039 0.950 . S
C1045 C1044 1.327 . S
C1045 C1049 1.429 . S
C1046 C1029 1.574 . S
C1046 H1040 0.949 . S
C1046 C1050 1.368 . S
C1047 C1028 1.429 . S
C1047 C1041 1.429 . S
C1047 C1048 1.523 . S
C1048 C1029 1.368 . S
C1048 C1042 1.368 . S
C1048 C1047 1.523 . S
C1049 C1033 1.429 . S
C1049 C1045 1.429 . S
C1049 C1050 1.523 . S
C1050 C1034 1.368 . S
C1050 C1046 1.368 . S
C1050 C1049 1.523 . S
H1051 C1026 0.950 . S
H1052 C1028 0.950 . S
H1053 C1029 0.949 . S
H1054 C1031 0.950 . S
H1055 C1033 0.950 . S
C1056 C1057 1.349 . S
C1056 C1058 1.327 . S
C1056 H1081 0.950 . S
C1057 C1056 1.349 . S
C1057 C1073 1.349 . S
C1058 C1056 1.327 . S
C1058 C1077 1.429 . S
C1058 H1082 0.950 . S
C1059 C1076 1.574 . S
C1059 C1078 1.368 . S
C1059 H1083 0.949 . S
H1060 C1064 0.949 . S
C1061 C1062 1.349 . S
C1061 C1063 1.327 . S
C1061 H1084 0.950 . S
C1062 C1061 1.349 . S
C1062 C1074 1.349 . S
C1063 C1061 1.327 . S
C1063 C1079 1.429 . S
C1063 H1085 0.950 . S
C1064 H1060 0.949 . S
C1064 C1072 1.574 . S
C1064 C1080 1.368 . S
H1065 C1073 0.950 . S
H1066 C1071 0.950 . S
H1067 C1072 0.949 . S
H1068 C1074 0.950 . S
H1069 C1075 0.950 . S
H1070 C1076 0.949 . S
C1071 H1066 0.950 . S
C1071 C1073 1.327 . S
C1071 C1077 1.429 . S
C1072 C1064 1.574 . S
C1072 H1067 0.949 . S
C1072 C1078 1.368 . S
C1073 C1057 1.349 . S
C1073 H1065 0.950 . S
C1073 C1071 1.327 . S
C1074 C1062 1.349 . S
C1074 H1068 0.950 . S
C1074 C1075 1.327 . S
C1075 H1069 0.950 . S
C1075 C1074 1.327 . S
C1075 C1079 1.429 . S
C1076 C1059 1.574 . S
C1076 H1070 0.949 . S
C1076 C1080 1.368 . S
C1077 C1058 1.429 . S
C1077 C1071 1.429 . S
C1077 C1078 1.523 . S
C1078 C1059 1.368 . S
C1078 C1072 1.368 . S
C1078 C1077 1.523 . S
C1079 C1063 1.429 . S
C1079 C1075 1.429 . S
C1079 C1080 1.523 . S
C1080 C1064 1.368 . S
C1080 C1076 1.368 . S
C1080 C1079 1.523 . S
H1081 C1056 0.950 . S
H1082 C1058 0.950 . S
H1083 C1059 0.949 . S
H1084 C1061 0.950 . S
H1085 C1063 0.950 . S
C1086 C1087 1.349 . S
C1086 C1088 1.327 . S
C1086 H1111 0.950 . S
C1087 C1086 1.349 . S
C1087 C1103 1.349 . S
C1088 C1086 1.327 . S
C1088 C1107 1.429 . S
C1088 H1112 0.950 . S
C1089 C1106 1.574 . S
C1089 C1108 1.368 . S
C1089 H1113 0.949 . S
H1090 C1094 0.949 . S
C1091 C1092 1.349 . S
C1091 C1093 1.327 . S
C1091 H1114 0.950 . S
C1092 C1091 1.349 . S
C1092 C1104 1.349 . S
C1093 C1091 1.327 . S
C1093 C1109 1.429 . S
C1093 H1115 0.950 . S
C1094 H1090 0.949 . S
C1094 C1102 1.574 . S
C1094 C1110 1.368 . S
H1095 C1103 0.950 . S
H1096 C1101 0.950 . S
H1097 C1102 0.949 . S
H1098 C1104 0.950 . S
H1099 C1105 0.950 . S
H1100 C1106 0.949 . S
C1101 H1096 0.950 . S
C1101 C1103 1.327 . S
C1101 C1107 1.429 . S
C1102 C1094 1.574 . S
C1102 H1097 0.949 . S
C1102 C1108 1.368 . S
C1103 C1087 1.349 . S
C1103 H1095 0.950 . S
C1103 C1101 1.327 . S
C1104 C1092 1.349 . S
C1104 H1098 0.950 . S
C1104 C1105 1.327 . S
C1105 H1099 0.950 . S
C1105 C1104 1.327 . S
C1105 C1109 1.429 . S
C1106 C1089 1.574 . S
C1106 H1100 0.949 . S
C1106 C1110 1.368 . S
C1107 C1088 1.429 . S
C1107 C1101 1.429 . S
C1107 C1108 1.523 . S
C1108 C1089 1.368 . S
C1108 C1102 1.368 . S
C1108 C1107 1.523 . S
C1109 C1093 1.429 . S
C1109 C1105 1.429 . S
C1109 C1110 1.523 . S
C1110 C1094 1.368 . S
C1110 C1106 1.368 . S
C1110 C1109 1.523 . S
H1111 C1086 0.950 . S
H1112 C1088 0.950 . S
H1113 C1089 0.949 . S
H1114 C1091 0.950 . S
H1115 C1093 0.950 . S
C1116 C1117 1.349 . S
C1116 C1118 1.327 . S
C1116 H1141 0.950 . S
C1117 C1116 1.349 . S
C1117 C1133 1.349 . S
C1118 C1116 1.327 . S
C1118 C1137 1.429 . S
C1118 H1142 0.950 . S
C1119 C1136 1.574 . S
C1119 C1138 1.368 . S
C1119 H1143 0.949 . S
H1120 C1124 0.949 . S
C1121 C1122 1.349 . S
C1121 C1123 1.327 . S
C1121 H1144 0.950 . S
C1122 C1121 1.349 . S
C1122 C1134 1.349 . S
C1123 C1121 1.327 . S
C1123 C1139 1.429 . S
C1123 H1145 0.950 . S
C1124 H1120 0.949 . S
C1124 C1132 1.574 . S
C1124 C1140 1.368 . S
H1125 C1133 0.950 . S
H1126 C1131 0.950 . S
H1127 C1132 0.949 . S
H1128 C1134 0.950 . S
H1129 C1135 0.950 . S
H1130 C1136 0.949 . S
C1131 H1126 0.950 . S
C1131 C1133 1.327 . S
C1131 C1137 1.429 . S
C1132 C1124 1.574 . S
C1132 H1127 0.949 . S
C1132 C1138 1.368 . S
C1133 C1117 1.349 . S
C1133 H1125 0.950 . S
C1133 C1131 1.327 . S
C1134 C1122 1.349 . S
C1134 H1128 0.950 . S
C1134 C1135 1.327 . S
C1135 H1129 0.950 . S
C1135 C1134 1.327 . S
C1135 C1139 1.429 . S
C1136 C1119 1.574 . S
C1136 H1130 0.949 . S
C1136 C1140 1.368 . S
C1137 C1118 1.429 . S
C1137 C1131 1.429 . S
C1137 C1138 1.523 . S
C1138 C1119 1.368 . S
C1138 C1132 1.368 . S
C1138 C1137 1.523 . S
C1139 C1123 1.429 . S
C1139 C1135 1.429 . S
C1139 C1140 1.523 . S
C1140 C1124 1.368 . S
C1140 C1136 1.368 . S
C1140 C1139 1.523 . S
H1141 C1116 0.950 . S
H1142 C1118 0.950 . S
H1143 C1119 0.949 . S
H1144 C1121 0.950 . S
H1145 C1123 0.950 . S
C1146 C1147 1.349 . S
C1146 C1148 1.327 . S
C1146 H1171 0.950 . S
C1147 C1146 1.349 . S
C1147 C1163 1.349 . S
C1148 C1146 1.327 . S
C1148 C1167 1.429 . S
C1148 H1172 0.950 . S
C1149 C1166 1.574 . S
C1149 C1168 1.368 . S
C1149 H1173 0.949 . S
H1150 C1154 0.949 . S
C1151 C1152 1.349 . S
C1151 C1153 1.327 . S
C1151 H1174 0.950 . S
C1152 C1151 1.349 . S
C1152 C1164 1.349 . S
C1153 C1151 1.327 . S
C1153 C1169 1.429 . S
C1153 H1175 0.950 . S
C1154 H1150 0.949 . S
C1154 C1162 1.574 . S
C1154 C1170 1.368 . S
H1155 C1163 0.950 . S
H1156 C1161 0.950 . S
H1157 C1162 0.949 . S
H1158 C1164 0.950 . S
H1159 C1165 0.950 . S
H1160 C1166 0.949 . S
C1161 H1156 0.950 . S
C1161 C1163 1.327 . S
C1161 C1167 1.429 . S
C1162 C1154 1.574 . S
C1162 H1157 0.949 . S
C1162 C1168 1.368 . S
C1163 C1147 1.349 . S
C1163 H1155 0.950 . S
C1163 C1161 1.327 . S
C1164 C1152 1.349 . S
C1164 H1158 0.950 . S
C1164 C1165 1.327 . S
C1165 H1159 0.950 . S
C1165 C1164 1.327 . S
C1165 C1169 1.429 . S
C1166 C1149 1.574 . S
C1166 H1160 0.949 . S
C1166 C1170 1.368 . S
C1167 C1148 1.429 . S
C1167 C1161 1.429 . S
C1167 C1168 1.523 . S
C1168 C1149 1.368 . S
C1168 C1162 1.368 . S
C1168 C1167 1.523 . S
C1169 C1153 1.429 . S
C1169 C1165 1.429 . S
C1169 C1170 1.523 . S
C1170 C1154 1.368 . S
C1170 C1166 1.368 . S
C1170 C1169 1.523 . S
H1171 C1146 0.950 . S
H1172 C1148 0.950 . S
H1173 C1149 0.949 . S
H1174 C1151 0.950 . S
H1175 C1153 0.950 . S
C1176 C1177 1.349 . S
C1176 C1178 1.327 . S
C1176 H1201 0.950 . S
C1177 C1176 1.349 . S
C1177 C1193 1.349 . S
C1178 C1176 1.327 . S
C1178 C1197 1.429 . S
C1178 H1202 0.950 . S
C1179 C1196 1.574 . S
C1179 C1198 1.368 . S
C1179 H1203 0.949 . S
H1180 C1184 0.949 . S
C1181 C1182 1.349 . S
C1181 C1183 1.327 . S
C1181 H1204 0.950 . S
C1182 C1181 1.349 . S
C1182 C1194 1.349 . S
C1183 C1181 1.327 . S
C1183 C1199 1.429 . S
C1183 H1205 0.950 . S
C1184 H1180 0.949 . S
C1184 C1192 1.574 . S
C1184 C1200 1.368 . S
H1185 C1193 0.950 . S
H1186 C1191 0.950 . S
H1187 C1192 0.949 . S
H1188 C1194 0.950 . S
H1189 C1195 0.950 . S
H1190 C1196 0.949 . S
C1191 H1186 0.950 . S
C1191 C1193 1.327 . S
C1191 C1197 1.429 . S
C1192 C1184 1.574 . S
C1192 H1187 0.949 . S
C1192 C1198 1.368 . S
C1193 C1177 1.349 . S
C1193 H1185 0.950 . S
C1193 C1191 1.327 . S
C1194 C1182 1.349 . S
C1194 H1188 0.950 . S
C1194 C1195 1.327 . S
C1195 H1189 0.950 . S
C1195 C1194 1.327 . S
C1195 C1199 1.429 . S
C1196 C1179 1.574 . S
C1196 H1190 0.949 . S
C1196 C1200 1.368 . S
C1197 C1178 1.429 . S
C1197 C1191 1.429 . S
C1197 C1198 1.523 . S
C1198 C1179 1.368 . S
C1198 C1192 1.368 . S
C1198 C1197 1.523 . S
C1199 C1183 1.429 . S
C1199 C1195 1.429 . S
C1199 C1200 1.523 . S
C1200 C1184 1.368 . S
C1200 C1196 1.368 . S
C1200 C1199 1.523 . S
H1201 C1176 0.950 . S
H1202 C1178 0.950 . S
H1203 C1179 0.949 . S
H1204 C1181 0.950 . S
H1205 C1183 0.950 . S
C1206 C1207 1.349 . S
C1206 C1208 1.327 . S
C1206 H1231 0.950 . S
C1207 C1206 1.349 . S
C1207 C1223 1.349 . S
C1208 C1206 1.327 . S
C1208 C1227 1.429 . S
C1208 H1232 0.950 . S
C1209 C1226 1.574 . S
C1209 C1228 1.368 . S
C1209 H1233 0.949 . S
H1210 C1214 0.949 . S
C1211 C1212 1.349 . S
C1211 C1213 1.327 . S
C1211 H1234 0.950 . S
C1212 C1211 1.349 . S
C1212 C1224 1.349 . S
C1213 C1211 1.327 . S
C1213 C1229 1.429 . S
C1213 H1235 0.950 . S
C1214 H1210 0.949 . S
C1214 C1222 1.574 . S
C1214 C1230 1.368 . S
H1215 C1223 0.950 . S
H1216 C1221 0.950 . S
H1217 C1222 0.949 . S
H1218 C1224 0.950 . S
H1219 C1225 0.950 . S
H1220 C1226 0.949 . S
C1221 H1216 0.950 . S
C1221 C1223 1.327 . S
C1221 C1227 1.429 . S
C1222 C1214 1.574 . S
C1222 H1217 0.949 . S
C1222 C1228 1.368 . S
C1223 C1207 1.349 . S
C1223 H1215 0.950 . S
C1223 C1221 1.327 . S
C1224 C1212 1.349 . S
C1224 H1218 0.950 . S
C1224 C1225 1.327 . S
C1225 H1219 0.950 . S
C1225 C1224 1.327 . S
C1225 C1229 1.429 . S
C1226 C1209 1.574 . S
C1226 H1220 0.949 . S
C1226 C1230 1.368 . S
C1227 C1208 1.429 . S
C1227 C1221 1.429 . S
C1227 C1228 1.523 . S
C1228 C1209 1.368 . S
C1228 C1222 1.368 . S
C1228 C1227 1.523 . S
C1229 C1213 1.429 . S
C1229 C1225 1.429 . S
C1229 C1230 1.523 . S
C1230 C1214 1.368 . S
C1230 C1226 1.368 . S
C1230 C1229 1.523 . S
H1231 C1206 0.950 . S
H1232 C1208 0.950 . S
H1233 C1209 0.949 . S
H1234 C1211 0.950 . S
H1235 C1213 0.950 . S
C1236 C1237 1.349 . S
C1236 C1238 1.327 . S
C1236 H1261 0.950 . S
C1237 C1236 1.349 . S
C1237 C1253 1.349 . S
C1238 C1236 1.327 . S
C1238 C1257 1.429 . S
C1238 H1262 0.950 . S
C1239 C1256 1.574 . S
C1239 C1258 1.368 . S
C1239 H1263 0.949 . S
H1240 C1244 0.949 . S
C1241 C1242 1.349 . S
C1241 C1243 1.327 . S
C1241 H1264 0.950 . S
C1242 C1241 1.349 . S
C1242 C1254 1.349 . S
C1243 C1241 1.327 . S
C1243 C1259 1.429 . S
C1243 H1265 0.950 . S
C1244 H1240 0.949 . S
C1244 C1252 1.574 . S
C1244 C1260 1.368 . S
H1245 C1253 0.950 . S
H1246 C1251 0.950 . S
H1247 C1252 0.949 . S
H1248 C1254 0.950 . S
H1249 C1255 0.950 . S
H1250 C1256 0.949 . S
C1251 H1246 0.950 . S
C1251 C1253 1.327 . S
C1251 C1257 1.429 . S
C1252 C1244 1.574 . S
C1252 H1247 0.949 . S
C1252 C1258 1.368 . S
C1253 C1237 1.349 . S
C1253 H1245 0.950 . S
C1253 C1251 1.327 . S
C1254 C1242 1.349 . S
C1254 H1248 0.950 . S
C1254 C1255 1.327 . S
C1255 H1249 0.950 . S
C1255 C1254 1.327 . S
C1255 C1259 1.429 . S
C1256 C1239 1.574 . S
C1256 H1250 0.949 . S
C1256 C1260 1.368 . S
C1257 C1238 1.429 . S
C1257 C1251 1.429 . S
C1257 C1258 1.523 . S
C1258 C1239 1.368 . S
C1258 C1252 1.368 . S
C1258 C1257 1.523 . S
C1259 C1243 1.429 . S
C1259 C1255 1.429 . S
C1259 C1260 1.523 . S
C1260 C1244 1.368 . S
C1260 C1256 1.368 . S
C1260 C1259 1.523 . S
H1261 C1236 0.950 . S
H1262 C1238 0.950 . S
H1263 C1239 0.949 . S
H1264 C1241 0.950 . S
H1265 C1243 0.950 . S
C1266 C1267 1.349 . S
C1266 C1268 1.327 . S
C1266 H1291 0.950 . S
C1267 C1266 1.349 . S
C1267 C1283 1.349 . S
C1268 C1266 1.327 . S
C1268 C1287 1.429 . S
C1268 H1292 0.950 . S
C1269 C1286 1.574 . S
C1269 C1288 1.368 . S
C1269 H1293 0.949 . S
H1270 C1274 0.949 . S
C1271 C1272 1.349 . S
C1271 C1273 1.327 . S
C1271 H1294 0.950 . S
C1272 C1271 1.349 . S
C1272 C1284 1.349 . S
C1273 C1271 1.327 . S
C1273 C1289 1.429 . S
C1273 H1295 0.950 . S
C1274 H1270 0.949 . S
C1274 C1282 1.574 . S
C1274 C1290 1.368 . S
H1275 C1283 0.950 . S
H1276 C1281 0.950 . S
H1277 C1282 0.949 . S
H1278 C1284 0.950 . S
H1279 C1285 0.950 . S
H1280 C1286 0.949 . S
C1281 H1276 0.950 . S
C1281 C1283 1.327 . S
C1281 C1287 1.429 . S
C1282 C1274 1.574 . S
C1282 H1277 0.949 . S
C1282 C1288 1.368 . S
C1283 C1267 1.349 . S
C1283 H1275 0.950 . S
C1283 C1281 1.327 . S
C1284 C1272 1.349 . S
C1284 H1278 0.950 . S
C1284 C1285 1.327 . S
C1285 H1279 0.950 . S
C1285 C1284 1.327 . S
C1285 C1289 1.429 . S
C1286 C1269 1.574 . S
C1286 H1280 0.949 . S
C1286 C1290 1.368 . S
C1287 C1268 1.429 . S
C1287 C1281 1.429 . S
C1287 C1288 1.523 . S
C1288 C1269 1.368 . S
C1288 C1282 1.368 . S
C1288 C1287 1.523 . S
C1289 C1273 1.429 . S
C1289 C1285 1.429 . S
C1289 C1290 1.523 . S
C1290 C1274 1.368 . S
C1290 C1286 1.368 . S
C1290 C1289 1.523 . S
H1291 C1266 0.950 . S
H1292 C1268 0.950 . S
H1293 C1269 0.949 . S
H1294 C1271 0.950 . S
H1295 C1273 0.950 . S
C1296 C1297 1.349 . S
C1296 C1298 1.327 . S
C1296 H1321 0.950 . S
C1297 C1296 1.349 . S
C1297 C1313 1.349 . S
C1298 C1296 1.327 . S
C1298 C1317 1.429 . S
C1298 H1322 0.950 . S
C1299 C1316 1.574 . S
C1299 C1318 1.368 . S
C1299 H1323 0.949 . S
H1300 C1304 0.949 . S
C1301 C1302 1.349 . S
C1301 C1303 1.327 . S
C1301 H1324 0.950 . S
C1302 C1301 1.349 . S
C1302 C1314 1.349 . S
C1303 C1301 1.327 . S
C1303 C1319 1.429 . S
C1303 H1325 0.950 . S
C1304 H1300 0.949 . S
C1304 C1312 1.574 . S
C1304 C1320 1.368 . S
H1305 C1313 0.950 . S
H1306 C1311 0.950 . S
H1307 C1312 0.949 . S
H1308 C1314 0.950 . S
H1309 C1315 0.950 . S
H1310 C1316 0.949 . S
C1311 H1306 0.950 . S
C1311 C1313 1.327 . S
C1311 C1317 1.429 . S
C1312 C1304 1.574 . S
C1312 H1307 0.949 . S
C1312 C1318 1.368 . S
C1313 C1297 1.349 . S
C1313 H1305 0.950 . S
C1313 C1311 1.327 . S
C1314 C1302 1.349 . S
C1314 H1308 0.950 . S
C1314 C1315 1.327 . S
C1315 H1309 0.950 . S
C1315 C1314 1.327 . S
C1315 C1319 1.429 . S
C1316 C1299 1.574 . S
C1316 H1310 0.949 . S
C1316 C1320 1.368 . S
C1317 C1298 1.429 . S
C1317 C1311 1.429 . S
C1317 C1318 1.523 . S
C1318 C1299 1.368 . S
C1318 C1312 1.368 . S
C1318 C1317 1.523 . S
C1319 C1303 1.429 . S
C1319 C1315 1.429 . S
C1319 C1320 1.523 . S
C1320 C1304 1.368 . S
C1320 C1316 1.368 . S
C1320 C1319 1.523 . S
H1321 C1296 0.950 . S
H1322 C1298 0.950 . S
H1323 C1299 0.949 . S
H1324 C1301 0.950 . S
H1325 C1303 0.950 . S
C1326 C1327 1.349 . S
C1326 C1328 1.327 . S
C1326 H1351 0.950 . S
C1327 C1326 1.349 . S
C1327 C1343 1.349 . S
C1328 C1326 1.327 . S
C1328 C1347 1.429 . S
C1328 H1352 0.950 . S
C1329 C1346 1.574 . S
C1329 C1348 1.368 . S
C1329 H1353 0.949 . S
H1330 C1334 0.949 . S
C1331 C1332 1.349 . S
C1331 C1333 1.327 . S
C1331 H1354 0.950 . S
C1332 C1331 1.349 . S
C1332 C1344 1.349 . S
C1333 C1331 1.327 . S
C1333 C1349 1.429 . S
C1333 H1355 0.950 . S
C1334 H1330 0.949 . S
C1334 C1342 1.574 . S
C1334 C1350 1.368 . S
H1335 C1343 0.950 . S
H1336 C1341 0.950 . S
H1337 C1342 0.949 . S
H1338 C1344 0.950 . S
H1339 C1345 0.950 . S
H1340 C1346 0.949 . S
C1341 H1336 0.950 . S
C1341 C1343 1.327 . S
C1341 C1347 1.429 . S
C1342 C1334 1.574 . S
C1342 H1337 0.949 . S
C1342 C1348 1.368 . S
C1343 C1327 1.349 . S
C1343 H1335 0.950 . S
C1343 C1341 1.327 . S
C1344 C1332 1.349 . S
C1344 H1338 0.950 . S
C1344 C1345 1.327 . S
C1345 H1339 0.950 . S
C1345 C1344 1.327 . S
C1345 C1349 1.429 . S
C1346 C1329 1.574 . S
C1346 H1340 0.949 . S
C1346 C1350 1.368 . S
C1347 C1328 1.429 . S
C1347 C1341 1.429 . S
C1347 C1348 1.523 . S
C1348 C1329 1.368 . S
C1348 C1342 1.368 . S
C1348 C1347 1.523 . S
C1349 C1333 1.429 . S
C1349 C1345 1.429 . S
C1349 C1350 1.523 . S
C1350 C1334 1.368 . S
C1350 C1346 1.368 . S
C1350 C1349 1.523 . S
H1351 C1326 0.950 . S
H1352 C1328 0.950 . S
H1353 C1329 0.949 . S
H1354 C1331 0.950 . S
H1355 C1333 0.950 . S
C1356 C1357 1.349 . S
C1356 C1358 1.327 . S
C1356 H1381 0.950 . S
C1357 C1356 1.349 . S
C1357 C1373 1.349 . S
C1358 C1356 1.327 . S
C1358 C1377 1.429 . S
C1358 H1382 0.950 . S
C1359 C1376 1.574 . S
C1359 C1378 1.368 . S
C1359 H1383 0.949 . S
H1360 C1364 0.949 . S
C1361 C1362 1.349 . S
C1361 C1363 1.327 . S
C1361 H1384 0.950 . S
C1362 C1361 1.349 . S
C1362 C1374 1.349 . S
C1363 C1361 1.327 . S
C1363 C1379 1.429 . S
C1363 H1385 0.950 . S
C1364 H1360 0.949 . S
C1364 C1372 1.574 . S
C1364 C1380 1.368 . S
H1365 C1373 0.950 . S
H1366 C1371 0.950 . S
H1367 C1372 0.949 . S
H1368 C1374 0.950 . S
H1369 C1375 0.950 . S
H1370 C1376 0.949 . S
C1371 H1366 0.950 . S
C1371 C1373 1.327 . S
C1371 C1377 1.429 . S
C1372 C1364 1.574 . S
C1372 H1367 0.949 . S
C1372 C1378 1.368 . S
C1373 C1357 1.349 . S
C1373 H1365 0.950 . S
C1373 C1371 1.327 . S
C1374 C1362 1.349 . S
C1374 H1368 0.950 . S
C1374 C1375 1.327 . S
C1375 H1369 0.950 . S
C1375 C1374 1.327 . S
C1375 C1379 1.429 . S
C1376 C1359 1.574 . S
C1376 H1370 0.949 . S
C1376 C1380 1.368 . S
C1377 C1358 1.429 . S
C1377 C1371 1.429 . S
C1377 C1378 1.523 . S
C1378 C1359 1.368 . S
C1378 C1372 1.368 . S
C1378 C1377 1.523 . S
C1379 C1363 1.429 . S
C1379 C1375 1.429 . S
C1379 C1380 1.523 . S
C1380 C1364 1.368 . S
C1380 C1376 1.368 . S
C1380 C1379 1.523 . S
H1381 C1356 0.950 . S
H1382 C1358 0.950 . S
H1383 C1359 0.949 . S
H1384 C1361 0.950 . S
H1385 C1363 0.950 . S
C1386 C1387 1.349 . S
C1386 C1388 1.327 . S
C1386 H1411 0.950 . S
C1387 C1386 1.349 . S
C1387 C1403 1.349 . S
C1388 C1386 1.327 . S
C1388 C1407 1.429 . S
C1388 H1412 0.950 . S
C1389 C1406 1.574 . S
C1389 C1408 1.368 . S
C1389 H1413 0.949 . S
H1390 C1394 0.949 . S
C1391 C1392 1.349 . S
C1391 C1393 1.327 . S
C1391 H1414 0.950 . S
C1392 C1391 1.349 . S
C1392 C1404 1.349 . S
C1393 C1391 1.327 . S
C1393 C1409 1.429 . S
C1393 H1415 0.950 . S
C1394 H1390 0.949 . S
C1394 C1402 1.574 . S
C1394 C1410 1.368 . S
H1395 C1403 0.950 . S
H1396 C1401 0.950 . S
H1397 C1402 0.949 . S
H1398 C1404 0.950 . S
H1399 C1405 0.950 . S
H1400 C1406 0.949 . S
C1401 H1396 0.950 . S
C1401 C1403 1.327 . S
C1401 C1407 1.429 . S
C1402 C1394 1.574 . S
C1402 H1397 0.949 . S
C1402 C1408 1.368 . S
C1403 C1387 1.349 . S
C1403 H1395 0.950 . S
C1403 C1401 1.327 . S
C1404 C1392 1.349 . S
C1404 H1398 0.950 . S
C1404 C1405 1.327 . S
C1405 H1399 0.950 . S
C1405 C1404 1.327 . S
C1405 C1409 1.429 . S
C1406 C1389 1.574 . S
C1406 H1400 0.949 . S
C1406 C1410 1.368 . S
C1407 C1388 1.429 . S
C1407 C1401 1.429 . S
C1407 C1408 1.523 . S
C1408 C1389 1.368 . S
C1408 C1402 1.368 . S
C1408 C1407 1.523 . S
C1409 C1393 1.429 . S
C1409 C1405 1.429 . S
C1409 C1410 1.523 . S
C1410 C1394 1.368 . S
C1410 C1406 1.368 . S
C1410 C1409 1.523 . S
H1411 C1386 0.950 . S
H1412 C1388 0.950 . S
H1413 C1389 0.949 . S
H1414 C1391 0.950 . S
H1415 C1393 0.950 . S
C1416 C1417 1.349 . S
C1416 C1418 1.327 . S
C1416 H1441 0.950 . S
C1417 C1416 1.349 . S
C1417 C1433 1.349 . S
C1418 C1416 1.327 . S
C1418 C1437 1.429 . S
C1418 H1442 0.950 . S
C1419 C1436 1.574 . S
C1419 C1438 1.368 . S
C1419 H1443 0.949 . S
H1420 C1424 0.949 . S
C1421 C1422 1.349 . S
C1421 C1423 1.327 . S
C1421 H1444 0.950 . S
C1422 C1421 1.349 . S
C1422 C1434 1.349 . S
C1423 C1421 1.327 . S
C1423 C1439 1.429 . S
C1423 H1445 0.950 . S
C1424 H1420 0.949 . S
C1424 C1432 1.574 . S
C1424 C1440 1.368 . S
H1425 C1433 0.950 . S
H1426 C1431 0.950 . S
H1427 C1432 0.949 . S
H1428 C1434 0.950 . S
H1429 C1435 0.950 . S
H1430 C1436 0.949 . S
C1431 H1426 0.950 . S
C1431 C1433 1.327 . S
C1431 C1437 1.429 . S
C1432 C1424 1.574 . S
C1432 H1427 0.949 . S
C1432 C1438 1.368 . S
C1433 C1417 1.349 . S
C1433 H1425 0.950 . S
C1433 C1431 1.327 . S
C1434 C1422 1.349 . S
C1434 H1428 0.950 . S
C1434 C1435 1.327 . S
C1435 H1429 0.950 . S
C1435 C1434 1.327 . S
C1435 C1439 1.429 . S
C1436 C1419 1.574 . S
C1436 H1430 0.949 . S
C1436 C1440 1.368 . S
C1437 C1418 1.429 . S
C1437 C1431 1.429 . S
C1437 C1438 1.523 . S
C1438 C1419 1.368 . S
C1438 C1432 1.368 . S
C1438 C1437 1.523 . S
C1439 C1423 1.429 . S
C1439 C1435 1.429 . S
C1439 C1440 1.523 . S
C1440 C1424 1.368 . S
C1440 C1436 1.368 . S
C1440 C1439 1.523 . S
H1441 C1416 0.950 . S
H1442 C1418 0.950 . S
H1443 C1419 0.949 . S
H1444 C1421 0.950 . S
H1445 C1423 0.950 . S
C1446 C1447 1.349 . S
C1446 C1448 1.327 . S
C1446 H1471 0.950 . S
C1447 C1446 1.349 . S
C1447 C1463 1.349 . S
C1448 C1446 1.327 . S
C1448 C1467 1.429 . S
C1448 H1472 0.950 . S
C1449 C1466 1.574 . S
C1449 C1468 1.368 . S
C1449 H1473 0.949 . S
H1450 C1454 0.949 . S
C1451 C1452 1.349 . S
C1451 C1453 1.327 . S
C1451 H1474 0.950 . S
C1452 C1451 1.349 . S
C1452 C1464 1.349 . S
C1453 C1451 1.327 . S
C1453 C1469 1.429 . S
C1453 H1475 0.950 . S
C1454 H1450 0.949 . S
C1454 C1462 1.574 . S
C1454 C1470 1.368 . S
H1455 C1463 0.950 . S
H1456 C1461 0.950 . S
H1457 C1462 0.949 . S
H1458 C1464 0.950 . S
H1459 C1465 0.950 . S
H1460 C1466 0.949 . S
C1461 H1456 0.950 . S
C1461 C1463 1.327 . S
C1461 C1467 1.429 . S
C1462 C1454 1.574 . S
C1462 H1457 0.949 . S
C1462 C1468 1.368 . S
C1463 C1447 1.349 . S
C1463 H1455 0.950 . S
C1463 C1461 1.327 . S
C1464 C1452 1.349 . S
C1464 H1458 0.950 . S
C1464 C1465 1.327 . S
C1465 H1459 0.950 . S
C1465 C1464 1.327 . S
C1465 C1469 1.429 . S
C1466 C1449 1.574 . S
C1466 H1460 0.949 . S
C1466 C1470 1.368 . S
C1467 C1448 1.429 . S
C1467 C1461 1.429 . S
C1467 C1468 1.523 . S
C1468 C1449 1.368 . S
C1468 C1462 1.368 . S
C1468 C1467 1.523 . S
C1469 C1453 1.429 . S
C1469 C1465 1.429 . S
C1469 C1470 1.523 . S
C1470 C1454 1.368 . S
C1470 C1466 1.368 . S
C1470 C1469 1.523 . S
H1471 C1446 0.950 . S
H1472 C1448 0.950 . S
H1473 C1449 0.949 . S
H1474 C1451 0.950 . S
H1475 C1453 0.950 . S
C1476 C1477 1.349 . S
C1476 C1478 1.327 . S
C1476 H1501 0.950 . S
C1477 C1476 1.349 . S
C1477 C1493 1.349 . S
C1478 C1476 1.327 . S
C1478 C1497 1.429 . S
C1478 H1502 0.950 . S
C1479 C1496 1.574 . S
C1479 C1498 1.368 . S
C1479 H1503 0.949 . S
H1480 C1484 0.949 . S
C1481 C1482 1.349 . S
C1481 C1483 1.327 . S
C1481 H1504 0.950 . S
C1482 C1481 1.349 . S
C1482 C1494 1.349 . S
C1483 C1481 1.327 . S
C1483 C1499 1.429 . S
C1483 H1505 0.950 . S
C1484 H1480 0.949 . S
C1484 C1492 1.574 . S
C1484 C1500 1.368 . S
H1485 C1493 0.950 . S
H1486 C1491 0.950 . S
H1487 C1492 0.949 . S
H1488 C1494 0.950 . S
H1489 C1495 0.950 . S
H1490 C1496 0.949 . S
C1491 H1486 0.950 . S
C1491 C1493 1.327 . S
C1491 C1497 1.429 . S
C1492 C1484 1.574 . S
C1492 H1487 0.949 . S
C1492 C1498 1.368 . S
C1493 C1477 1.349 . S
C1493 H1485 0.950 . S
C1493 C1491 1.327 . S
C1494 C1482 1.349 . S
C1494 H1488 0.950 . S
C1494 C1495 1.327 . S
C1495 H1489 0.950 . S
C1495 C1494 1.327 . S
C1495 C1499 1.429 . S
C1496 C1479 1.574 . S
C1496 H1490 0.949 . S
C1496 C1500 1.368 . S
C1497 C1478 1.429 . S
C1497 C1491 1.429 . S
C1497 C1498 1.523 . S
C1498 C1479 1.368 . S
C1498 C1492 1.368 . S
C1498 C1497 1.523 . S
C1499 C1483 1.429 . S
C1499 C1495 1.429 . S
C1499 C1500 1.523 . S
C1500 C1484 1.368 . S
C1500 C1496 1.368 . S
C1500 C1499 1.523 . S
H1501 C1476 0.950 . S
H1502 C1478 0.950 . S
H1503 C1479 0.949 . S
H1504 C1481 0.950 . S
H1505 C1483 0.950 . S
C1506 C1507 1.349 . S
C1506 C1508 1.327 . S
C1506 H1531 0.950 . S
C1507 C1506 1.349 . S
C1507 C1523 1.349 . S
C1508 C1506 1.327 . S
C1508 C1527 1.429 . S
C1508 H1532 0.950 . S
C1509 C1526 1.574 . S
C1509 C1528 1.368 . S
C1509 H1533 0.949 . S
H1510 C1514 0.949 . S
C1511 C1512 1.349 . S
C1511 C1513 1.327 . S
C1511 H1534 0.950 . S
C1512 C1511 1.349 . S
C1512 C1524 1.349 . S
C1513 C1511 1.327 . S
C1513 C1529 1.429 . S
C1513 H1535 0.950 . S
C1514 H1510 0.949 . S
C1514 C1522 1.574 . S
C1514 C1530 1.368 . S
H1515 C1523 0.950 . S
H1516 C1521 0.950 . S
H1517 C1522 0.949 . S
H1518 C1524 0.950 . S
H1519 C1525 0.950 . S
H1520 C1526 0.949 . S
C1521 H1516 0.950 . S
C1521 C1523 1.327 . S
C1521 C1527 1.429 . S
C1522 C1514 1.574 . S
C1522 H1517 0.949 . S
C1522 C1528 1.368 . S
C1523 C1507 1.349 . S
C1523 H1515 0.950 . S
C1523 C1521 1.327 . S
C1524 C1512 1.349 . S
C1524 H1518 0.950 . S
C1524 C1525 1.327 . S
C1525 H1519 0.950 . S
C1525 C1524 1.327 . S
C1525 C1529 1.429 . S
C1526 C1509 1.574 . S
C1526 H1520 0.949 . S
C1526 C1530 1.368 . S
C1527 C1508 1.429 . S
C1527 C1521 1.429 . S
C1527 C1528 1.523 . S
C1528 C1509 1.368 . S
C1528 C1522 1.368 . S
C1528 C1527 1.523 . S
C1529 C1513 1.429 . S
C1529 C1525 1.429 . S
C1529 C1530 1.523 . S
C1530 C1514 1.368 . S
C1530 C1526 1.368 . S
C1530 C1529 1.523 . S
H1531 C1506 0.950 . S
H1532 C1508 0.950 . S
H1533 C1509 0.949 . S
H1534 C1511 0.950 . S
H1535 C1513 0.950 . S
C1536 C1537 1.349 . S
C1536 C1538 1.327 . S
C1536 H1561 0.950 . S
C1537 C1536 1.349 . S
C1537 C1553 1.349 . S
C1538 C1536 1.327 . S
C1538 C1557 1.429 . S
C1538 H1562 0.950 . S
C1539 C1556 1.574 . S
C1539 C1558 1.368 . S
C1539 H1563 0.949 . S
H1540 C1544 0.949 . S
C1541 C1542 1.349 . S
C1541 C1543 1.327 . S
C1541 H1564 0.950 . S
C1542 C1541 1.349 . S
C1542 C1554 1.349 . S
C1543 C1541 1.327 . S
C1543 C1559 1.429 . S
C1543 H1565 0.950 . S
C1544 H1540 0.949 . S
C1544 C1552 1.574 . S
C1544 C1560 1.368 . S
H1545 C1553 0.950 . S
H1546 C1551 0.950 . S
H1547 C1552 0.949 . S
H1548 C1554 0.950 . S
H1549 C1555 0.950 . S
H1550 C1556 0.949 . S
C1551 H1546 0.950 . S
C1551 C1553 1.327 . S
C1551 C1557 1.429 . S
C1552 C1544 1.574 . S
C1552 H1547 0.949 . S
C1552 C1558 1.368 . S
C1553 C1537 1.349 . S
C1553 H1545 0.950 . S
C1553 C1551 1.327 . S
C1554 C1542 1.349 . S
C1554 H1548 0.950 . S
C1554 C1555 1.327 . S
C1555 H1549 0.950 . S
C1555 C1554 1.327 . S
C1555 C1559 1.429 . S
C1556 C1539 1.574 . S
C1556 H1550 0.949 . S
C1556 C1560 1.368 . S
C1557 C1538 1.429 . S
C1557 C1551 1.429 . S
C1557 C1558 1.523 . S
C1558 C1539 1.368 . S
C1558 C1552 1.368 . S
C1558 C1557 1.523 . S
C1559 C1543 1.429 . S
C1559 C1555 1.429 . S
C1559 C1560 1.523 . S
C1560 C1544 1.368 . S
C1560 C1556 1.368 . S
C1560 C1559 1.523 . S
H1561 C1536 0.950 . S
H1562 C1538 0.950 . S
H1563 C1539 0.949 . S
H1564 C1541 0.950 . S
H1565 C1543 0.950 . S
C1566 C1567 1.349 . S
C1566 C1568 1.327 . S
C1566 H1591 0.950 . S
C1567 C1566 1.349 . S
C1567 C1583 1.349 . S
C1568 C1566 1.327 . S
C1568 C1587 1.429 . S
C1568 H1592 0.950 . S
C1569 C1586 1.574 . S
C1569 C1588 1.368 . S
C1569 H1593 0.949 . S
H1570 C1574 0.949 . S
C1571 C1572 1.349 . S
C1571 C1573 1.327 . S
C1571 H1594 0.950 . S
C1572 C1571 1.349 . S
C1572 C1584 1.349 . S
C1573 C1571 1.327 . S
C1573 C1589 1.429 . S
C1573 H1595 0.950 . S
C1574 H1570 0.949 . S
C1574 C1582 1.574 . S
C1574 C1590 1.368 . S
H1575 C1583 0.950 . S
H1576 C1581 0.950 . S
H1577 C1582 0.949 . S
H1578 C1584 0.950 . S
H1579 C1585 0.950 . S
H1580 C1586 0.949 . S
C1581 H1576 0.950 . S
C1581 C1583 1.327 . S
C1581 C1587 1.429 . S
C1582 C1574 1.574 . S
C1582 H1577 0.949 . S
C1582 C1588 1.368 . S
C1583 C1567 1.349 . S
C1583 H1575 0.950 . S
C1583 C1581 1.327 . S
C1584 C1572 1.349 . S
C1584 H1578 0.950 . S
C1584 C1585 1.327 . S
C1585 H1579 0.950 . S
C1585 C1584 1.327 . S
C1585 C1589 1.429 . S
C1586 C1569 1.574 . S
C1586 H1580 0.949 . S
C1586 C1590 1.368 . S
C1587 C1568 1.429 . S
C1587 C1581 1.429 . S
C1587 C1588 1.523 . S
C1588 C1569 1.368 . S
C1588 C1582 1.368 . S
C1588 C1587 1.523 . S
C1589 C1573 1.429 . S
C1589 C1585 1.429 . S
C1589 C1590 1.523 . S
C1590 C1574 1.368 . S
C1590 C1586 1.368 . S
C1590 C1589 1.523 . S
H1591 C1566 0.950 . S
H1592 C1568 0.950 . S
H1593 C1569 0.949 . S
H1594 C1571 0.950 . S
H1595 C1573 0.950 . S
C1596 C1597 1.349 . S
C1596 C1598 1.327 . S
C1596 H1621 0.950 . S
C1597 C1596 1.349 . S
C1597 C1613 1.349 . S
C1598 C1596 1.327 . S
C1598 C1617 1.429 . S
C1598 H1622 0.950 . S
C1599 C1616 1.574 . S
C1599 C1618 1.368 . S
C1599 H1623 0.949 . S
H1600 C1604 0.949 . S
C1601 C1602 1.349 . S
C1601 C1603 1.327 . S
C1601 H1624 0.950 . S
C1602 C1601 1.349 . S
C1602 C1614 1.349 . S
C1603 C1601 1.327 . S
C1603 C1619 1.429 . S
C1603 H1625 0.950 . S
C1604 H1600 0.949 . S
C1604 C1612 1.574 . S
C1604 C1620 1.368 . S
H1605 C1613 0.950 . S
H1606 C1611 0.950 . S
H1607 C1612 0.949 . S
H1608 C1614 0.950 . S
H1609 C1615 0.950 . S
H1610 C1616 0.949 . S
C1611 H1606 0.950 . S
C1611 C1613 1.327 . S
C1611 C1617 1.429 . S
C1612 C1604 1.574 . S
C1612 H1607 0.949 . S
C1612 C1618 1.368 . S
C1613 C1597 1.349 . S
C1613 H1605 0.950 . S
C1613 C1611 1.327 . S
C1614 C1602 1.349 . S
C1614 H1608 0.950 . S
C1614 C1615 1.327 . S
C1615 H1609 0.950 . S
C1615 C1614 1.327 . S
C1615 C1619 1.429 . S
C1616 C1599 1.574 . S
C1616 H1610 0.949 . S
C1616 C1620 1.368 . S
C1617 C1598 1.429 . S
C1617 C1611 1.429 . S
C1617 C1618 1.523 . S
C1618 C1599 1.368 . S
C1618 C1612 1.368 . S
C1618 C1617 1.523 . S
C1619 C1603 1.429 . S
C1619 C1615 1.429 . S
C1619 C1620 1.523 . S
C1620 C1604 1.368 . S
C1620 C1616 1.368 . S
C1620 C1619 1.523 . S
H1621 C1596 0.950 . S
H1622 C1598 0.950 . S
H1623 C1599 0.949 . S
H1624 C1601 0.950 . S
H1625 C1603 0.950 . S
C1626 C1627 1.349 . S
C1626 C1628 1.327 . S
C1626 H1651 0.950 . S
C1627 C1626 1.349 . S
C1627 C1643 1.349 . S
C1628 C1626 1.327 . S
C1628 C1647 1.429 . S
C1628 H1652 0.950 . S
C1629 C1646 1.574 . S
C1629 C1648 1.368 . S
C1629 H1653 0.949 . S
H1630 C1634 0.949 . S
C1631 C1632 1.349 . S
C1631 C1633 1.327 . S
C1631 H1654 0.950 . S
C1632 C1631 1.349 . S
C1632 C1644 1.349 . S
C1633 C1631 1.327 . S
C1633 C1649 1.429 . S
C1633 H1655 0.950 . S
C1634 H1630 0.949 . S
C1634 C1642 1.574 . S
C1634 C1650 1.368 . S
H1635 C1643 0.950 . S
H1636 C1641 0.950 . S
H1637 C1642 0.949 . S
H1638 C1644 0.950 . S
H1639 C1645 0.950 . S
H1640 C1646 0.949 . S
C1641 H1636 0.950 . S
C1641 C1643 1.327 . S
C1641 C1647 1.429 . S
C1642 C1634 1.574 . S
C1642 H1637 0.949 . S
C1642 C1648 1.368 . S
C1643 C1627 1.349 . S
C1643 H1635 0.950 . S
C1643 C1641 1.327 . S
C1644 C1632 1.349 . S
C1644 H1638 0.950 . S
C1644 C1645 1.327 . S
C1645 H1639 0.950 . S
C1645 C1644 1.327 . S
C1645 C1649 1.429 . S
C1646 C1629 1.574 . S
C1646 H1640 0.949 . S
C1646 C1650 1.368 . S
C1647 C1628 1.429 . S
C1647 C1641 1.429 . S
C1647 C1648 1.523 . S
C1648 C1629 1.368 . S
C1648 C1642 1.368 . S
C1648 C1647 1.523 . S
C1649 C1633 1.429 . S
C1649 C1645 1.429 . S
C1649 C1650 1.523 . S
C1650 C1634 1.368 . S
C1650 C1646 1.368 . S
C1650 C1649 1.523 . S
H1651 C1626 0.950 . S
H1652 C1628 0.950 . S
H1653 C1629 0.949 . S
H1654 C1631 0.950 . S
H1655 C1633 0.950 . S
C1656 C1657 1.349 . S
C1656 C1658 1.327 . S
C1656 H1681 0.950 . S
C1657 C1656 1.349 . S
C1657 C1673 1.349 . S
C1658 C1656 1.327 . S
C1658 C1677 1.429 . S
C1658 H1682 0.950 . S
C1659 C1676 1.574 . S
C1659 C1678 1.368 . S
C1659 H1683 0.949 . S
H1660 C1664 0.949 . S
C1661 C1662 1.349 . S
C1661 C1663 1.327 . S
C1661 H1684 0.950 . S
C1662 C1661 1.349 . S
C1662 C1674 1.349 . S
C1663 C1661 1.327 . S
C1663 C1679 1.429 . S
C1663 H1685 0.950 . S
C1664 H1660 0.949 . S
C1664 C1672 1.574 . S
C1664 C1680 1.368 . S
H1665 C1673 0.950 . S
H1666 C1671 0.950 . S
H1667 C1672 0.949 . S
H1668 C1674 0.950 . S
H1669 C1675 0.950 . S
H1670 C1676 0.949 . S
C1671 H1666 0.950 . S
C1671 C1673 1.327 . S
C1671 C1677 1.429 . S
C1672 C1664 1.574 . S
C1672 H1667 0.949 . S
C1672 C1678 1.368 . S
C1673 C1657 1.349 . S
C1673 H1665 0.950 . S
C1673 C1671 1.327 . S
C1674 C1662 1.349 . S
C1674 H1668 0.950 . S
C1674 C1675 1.327 . S
C1675 H1669 0.950 . S
C1675 C1674 1.327 . S
C1675 C1679 1.429 . S
C1676 C1659 1.574 . S
C1676 H1670 0.949 . S
C1676 C1680 1.368 . S
C1677 C1658 1.429 . S
C1677 C1671 1.429 . S
C1677 C1678 1.523 . S
C1678 C1659 1.368 . S
C1678 C1672 1.368 . S
C1678 C1677 1.523 . S
C1679 C1663 1.429 . S
C1679 C1675 1.429 . S
C1679 C1680 1.523 . S
C1680 C1664 1.368 . S
C1680 C1676 1.368 . S
C1680 C1679 1.523 . S
H1681 C1656 0.950 . S
H1682 C1658 0.950 . S
H1683 C1659 0.949 . S
H1684 C1661 0.950 . S
H1685 C1663 0.950 . S
C1686 C1687 1.349 . S
C1686 C1688 1.327 . S
C1686 H1711 0.950 . S
C1687 C1686 1.349 . S
C1687 C1703 1.349 . S
C1688 C1686 1.327 . S
C1688 C1707 1.429 . S
C1688 H1712 0.950 . S
C1689 C1706 1.574 . S
C1689 C1708 1.368 . S
C1689 H1713 0.949 . S
H1690 C1694 0.949 . S
C1691 C1692 1.349 . S
C1691 C1693 1.327 . S
C1691 H1714 0.950 . S
C1692 C1691 1.349 . S
C1692 C1704 1.349 . S
C1693 C1691 1.327 . S
C1693 C1709 1.429 . S
C1693 H1715 0.950 . S
C1694 H1690 0.949 . S
C1694 C1702 1.574 . S
C1694 C1710 1.368 . S
H1695 C1703 0.950 . S
H1696 C1701 0.950 . S
H1697 C1702 0.949 . S
H1698 C1704 0.950 . S
H1699 C1705 0.950 . S
H1700 C1706 0.949 . S
C1701 H1696 0.950 . S
C1701 C1703 1.327 . S
C1701 C1707 1.429 . S
C1702 C1694 1.574 . S
C1702 H1697 0.949 . S
C1702 C1708 1.368 . S
C1703 C1687 1.349 . S
C1703 H1695 0.950 . S
C1703 C1701 1.327 . S
C1704 C1692 1.349 . S
C1704 H1698 0.950 . S
C1704 C1705 1.327 . S
C1705 H1699 0.950 . S
C1705 C1704 1.327 . S
C1705 C1709 1.429 . S
C1706 C1689 1.574 . S
C1706 H1700 0.949 . S
C1706 C1710 1.368 . S
C1707 C1688 1.429 . S
C1707 C1701 1.429 . S
C1707 C1708 1.523 . S
C1708 C1689 1.368 . S
C1708 C1702 1.368 . S
C1708 C1707 1.523 . S
C1709 C1693 1.429 . S
C1709 C1705 1.429 . S
C1709 C1710 1.523 . S
C1710 C1694 1.368 . S
C1710 C1706 1.368 . S
C1710 C1709 1.523 . S
H1711 C1686 0.950 . S
H1712 C1688 0.950 . S
H1713 C1689 0.949 . S
H1714 C1691 0.950 . S
H1715 C1693 0.950 . S
C1716 C1717 1.349 . S
C1716 C1718 1.327 . S
C1716 H1741 0.950 . S
C1717 C1716 1.349 . S
C1717 C1733 1.349 . S
C1718 C1716 1.327 . S
C1718 C1737 1.429 . S
C1718 H1742 0.950 . S
C1719 C1736 1.574 . S
C1719 C1738 1.368 . S
C1719 H1743 0.949 . S
H1720 C1724 0.949 . S
C1721 C1722 1.349 . S
C1721 C1723 1.327 . S
C1721 H1744 0.950 . S
C1722 C1721 1.349 . S
C1722 C1734 1.349 . S
C1723 C1721 1.327 . S
C1723 C1739 1.429 . S
C1723 H1745 0.950 . S
C1724 H1720 0.949 . S
C1724 C1732 1.574 . S
C1724 C1740 1.368 . S
H1725 C1733 0.950 . S
H1726 C1731 0.950 . S
H1727 C1732 0.949 . S
H1728 C1734 0.950 . S
H1729 C1735 0.950 . S
H1730 C1736 0.949 . S
C1731 H1726 0.950 . S
C1731 C1733 1.327 . S
C1731 C1737 1.429 . S
C1732 C1724 1.574 . S
C1732 H1727 0.949 . S
C1732 C1738 1.368 . S
C1733 C1717 1.349 . S
C1733 H1725 0.950 . S
C1733 C1731 1.327 . S
C1734 C1722 1.349 . S
C1734 H1728 0.950 . S
C1734 C1735 1.327 . S
C1735 H1729 0.950 . S
C1735 C1734 1.327 . S
C1735 C1739 1.429 . S
C1736 C1719 1.574 . S
C1736 H1730 0.949 . S
C1736 C1740 1.368 . S
C1737 C1718 1.429 . S
C1737 C1731 1.429 . S
C1737 C1738 1.523 . S
C1738 C1719 1.368 . S
C1738 C1732 1.368 . S
C1738 C1737 1.523 . S
C1739 C1723 1.429 . S
C1739 C1735 1.429 . S
C1739 C1740 1.523 . S
C1740 C1724 1.368 . S
C1740 C1736 1.368 . S
C1740 C1739 1.523 . S
H1741 C1716 0.950 . S
H1742 C1718 0.950 . S
H1743 C1719 0.949 . S
H1744 C1721 0.950 . S
H1745 C1723 0.950 . S
C1746 C1747 1.349 . S
C1746 C1748 1.327 . S
C1746 H1771 0.950 . S
C1747 C1746 1.349 . S
C1747 C1763 1.349 . S
C1748 C1746 1.327 . S
C1748 C1767 1.429 . S
C1748 H1772 0.950 . S
C1749 C1766 1.574 . S
C1749 C1768 1.368 . S
C1749 H1773 0.949 . S
H1750 C1754 0.949 . S
C1751 C1752 1.349 . S
C1751 C1753 1.327 . S
C1751 H1774 0.950 . S
C1752 C1751 1.349 . S
C1752 C1764 1.349 . S
C1753 C1751 1.327 . S
C1753 C1769 1.429 . S
C1753 H1775 0.950 . S
C1754 H1750 0.949 . S
C1754 C1762 1.574 . S
C1754 C1770 1.368 . S
H1755 C1763 0.950 . S
H1756 C1761 0.950 . S
H1757 C1762 0.949 . S
H1758 C1764 0.950 . S
H1759 C1765 0.950 . S
H1760 C1766 0.949 . S
C1761 H1756 0.950 . S
C1761 C1763 1.327 . S
C1761 C1767 1.429 . S
C1762 C1754 1.574 . S
C1762 H1757 0.949 . S
C1762 C1768 1.368 . S
C1763 C1747 1.349 . S
C1763 H1755 0.950 . S
C1763 C1761 1.327 . S
C1764 C1752 1.349 . S
C1764 H1758 0.950 . S
C1764 C1765 1.327 . S
C1765 H1759 0.950 . S
C1765 C1764 1.327 . S
C1765 C1769 1.429 . S
C1766 C1749 1.574 . S
C1766 H1760 0.949 . S
C1766 C1770 1.368 . S
C1767 C1748 1.429 . S
C1767 C1761 1.429 . S
C1767 C1768 1.523 . S
C1768 C1749 1.368 . S
C1768 C1762 1.368 . S
C1768 C1767 1.523 . S
C1769 C1753 1.429 . S
C1769 C1765 1.429 . S
C1769 C1770 1.523 . S
C1770 C1754 1.368 . S
C1770 C1766 1.368 . S
C1770 C1769 1.523 . S
H1771 C1746 0.950 . S
H1772 C1748 0.950 . S
H1773 C1749 0.949 . S
H1774 C1751 0.950 . S
H1775 C1753 0.950 . S
C337 C205 1.535 . S
C342 C3 1.543 . S
C367 C23 1.514 . S
C372 C218 1.525 . S
C397 C259 1.517 . S
C402 C35 1.521 . S
C427 C50 1.527 . S
C432 C190 1.526 . S
C457 C204 1.585 . S
C462 C63 1.563 . S
C487 C79 1.533 . S
C492 C219 1.532 . S
C517 C87 1.539 . S
C522 C255 1.540 . S
C547 C106 1.523 . S
C552 C191 1.513 . S
C577 C129 1.544 . S
C582 C115 1.545 . S
C607 C149 1.601 . S
C612 C133 1.588 . S
C637 C148 1.520 . S
C642 C157 1.517 . S
C667 C161 1.515 . S
C672 C119 1.511 . S
C697 C176 1.525 . S
C702 C51 1.514 . S
C727 C59 1.539 . S
C732 C227 1.545 . S
C757 C246 1.526 . S
C762 C22 1.527 . S
C787 C21 1.435 . S
C792 C303 1.444 . S
C817 C134 1.417 . S
C822 C9 1.407 . S
C847 C329 1.412 . S
C852 C45 1.430 . S
C877 C162 1.401 . S
C882 C36 1.400 . S
C907 C302 1.453 . S
C912 C101 1.449 . S
C937 C135 1.429 . S
C942 C93 1.429 . S
C967 C77 1.403 . S
C972 C325 1.424 . S
C997 C64 1.405 . S
C1002 C163 1.393 . S
C1027 C217 1.411 . S
C1032 C273 1.411 . S
C1057 C232 1.454 . S
C1062 C213 1.453 . S
C1087 C189 1.435 . S
C1092 C233 1.442 . S
C1117 C269 1.424 . S
C1122 C185 1.421 . S
C1147 C37 1.407 . S
C1152 C288 1.417 . S
C1177 C143 1.424 . S
C1182 C105 1.403 . S
C1207 C8 1.400 . S
C1212 C316 1.400 . S
C1237 C275 1.535 . S
C1242 C31 1.543 . S
C1267 C7 1.521 . S
C1272 C231 1.512 . S
C1297 C274 1.585 . S
C1302 C91 1.563 . S
C1327 C177 1.532 . S
C1332 C107 1.533 . S
C1357 C78 1.523 . S
C1362 C247 1.513 . S
C1387 C297 1.545 . S
C1392 C283 1.544 . S
C1417 C331 1.601 . S
C1422 C287 1.588 . S
C1447 C311 1.517 . S
C1452 C330 1.520 . S
C1477 C301 1.511 . S
C1482 C315 1.515 . S
C1507 C121 1.444 . S
C1512 C49 1.435 . S
C1537 C17 1.430 . S
C1542 C147 1.413 . S
C1567 C73 1.449 . S
C1572 C120 1.453 . S
C1597 C289 1.430 . S
C1602 C65 1.429 . S
C1627 C92 1.405 . S
C1632 C317 1.393 . S
C1657 C175 1.411 . S
C1662 C203 1.411 . S
C1687 C260 1.454 . S
C1692 C171 1.450 . S
C1717 C245 1.435 . S
C1722 C261 1.444 . S
C1747 C199 1.424 . S
C1752 C241 1.421 . S
