# Generated by pormake.
# Topology fob, (5)-cn, num edge types: 1
# Building blocks:
#     Node 0, Type 0, BuildingBlock: BEQFEK_clean_sbu_0, # of connection points: 5
#     Node 1, Type 0, BuildingBlock: BEQFEK_clean_sbu_0, # of connection points: 5
#     Node 2, Type 0, BuildingBlock: BEQFEK_clean_sbu_0, # of connection points: 5
#     Node 3, Type 0, BuildingBlock: BEQFEK_clean_sbu_0, # of connection points: 5
#     Node 4, Type 0, BuildingBlock: BEQFEK_clean_sbu_0, # of connection points: 5
#     Node 5, Type 0, BuildingBlock: BEQFEK_clean_sbu_0, # of connection points: 5
#     Node 6, Type 0, BuildingBlock: BEQFEK_clean_sbu_0, # of connection points: 5
#     Node 7, Type 0, BuildingBlock: BEQFEK_clean_sbu_0, # of connection points: 5
#     Node 8, Type 0, BuildingBlock: BEQFEK_clean_sbu_0, # of connection points: 5
#     Node 9, Type 0, BuildingBlock: BEQFEK_clean_sbu_0, # of connection points: 5
#     Node 10, Type 0, BuildingBlock: BEQFEK_clean_sbu_0, # of connection points: 5
#     Node 11, Type 0, BuildingBlock: BEQFEK_clean_sbu_0, # of connection points: 5
#     Node 12, Type 0, BuildingBlock: BEQFEK_clean_sbu_0, # of connection points: 5
#     Node 13, Type 0, BuildingBlock: BEQFEK_clean_sbu_0, # of connection points: 5
#     Node 14, Type 0, BuildingBlock: BEQFEK_clean_sbu_0, # of connection points: 5
#     Node 15, Type 0, BuildingBlock: BEQFEK_clean_sbu_0, # of connection points: 5
#     Edge 16, Type (0, 0), BuildingBlock: ZUJKAS_clean_linker_0, # of connection points: 2
#     Edge 17, Type (0, 0), BuildingBlock: ZUJKAS_clean_linker_0, # of connection points: 2
#     Edge 18, Type (0, 0), BuildingBlock: ZUJKAS_clean_linker_0, # of connection points: 2
#     Edge 19, Type (0, 0), BuildingBlock: ZUJKAS_clean_linker_0, # of connection points: 2
#     Edge 20, Type (0, 0), BuildingBlock: ZUJKAS_clean_linker_0, # of connection points: 2
#     Edge 21, Type (0, 0), BuildingBlock: ZUJKAS_clean_linker_0, # of connection points: 2
#     Edge 22, Type (0, 0), BuildingBlock: ZUJKAS_clean_linker_0, # of connection points: 2
#     Edge 23, Type (0, 0), BuildingBlock: ZUJKAS_clean_linker_0, # of connection points: 2
#     Edge 24, Type (0, 0), BuildingBlock: ZUJKAS_clean_linker_0, # of connection points: 2
#     Edge 25, Type (0, 0), BuildingBlock: ZUJKAS_clean_linker_0, # of connection points: 2
#     Edge 26, Type (0, 0), BuildingBlock: ZUJKAS_clean_linker_0, # of connection points: 2
#     Edge 27, Type (0, 0), BuildingBlock: ZUJKAS_clean_linker_0, # of connection points: 2
#     Edge 28, Type (0, 0), BuildingBlock: ZUJKAS_clean_linker_0, # of connection points: 2
#     Edge 29, Type (0, 0), BuildingBlock: ZUJKAS_clean_linker_0, # of connection points: 2
#     Edge 30, Type (0, 0), BuildingBlock: ZUJKAS_clean_linker_0, # of connection points: 2
#     Edge 31, Type (0, 0), BuildingBlock: ZUJKAS_clean_linker_0, # of connection points: 2
#     Edge 32, Type (0, 0), BuildingBlock: ZUJKAS_clean_linker_0, # of connection points: 2
#     Edge 33, Type (0, 0), BuildingBlock: ZUJKAS_clean_linker_0, # of connection points: 2
#     Edge 34, Type (0, 0), BuildingBlock: ZUJKAS_clean_linker_0, # of connection points: 2
#     Edge 35, Type (0, 0), BuildingBlock: ZUJKAS_clean_linker_0, # of connection points: 2
#     Edge 36, Type (0, 0), BuildingBlock: ZUJKAS_clean_linker_0, # of connection points: 2
#     Edge 37, Type (0, 0), BuildingBlock: ZUJKAS_clean_linker_0, # of connection points: 2
#     Edge 38, Type (0, 0), BuildingBlock: ZUJKAS_clean_linker_0, # of connection points: 2
#     Edge 39, Type (0, 0), BuildingBlock: ZUJKAS_clean_linker_0, # of connection points: 2
#     Edge 40, Type (0, 0), BuildingBlock: ZUJKAS_clean_linker_0, # of connection points: 2
#     Edge 41, Type (0, 0), BuildingBlock: ZUJKAS_clean_linker_0, # of connection points: 2
#     Edge 42, Type (0, 0), BuildingBlock: ZUJKAS_clean_linker_0, # of connection points: 2
#     Edge 43, Type (0, 0), BuildingBlock: ZUJKAS_clean_linker_0, # of connection points: 2
#     Edge 44, Type (0, 0), BuildingBlock: ZUJKAS_clean_linker_0, # of connection points: 2
#     Edge 45, Type (0, 0), BuildingBlock: ZUJKAS_clean_linker_0, # of connection points: 2
#     Edge 46, Type (0, 0), BuildingBlock: ZUJKAS_clean_linker_0, # of connection points: 2
#     Edge 47, Type (0, 0), BuildingBlock: ZUJKAS_clean_linker_0, # of connection points: 2
#     Edge 48, Type (0, 0), BuildingBlock: ZUJKAS_clean_linker_0, # of connection points: 2
#     Edge 49, Type (0, 0), BuildingBlock: ZUJKAS_clean_linker_0, # of connection points: 2
#     Edge 50, Type (0, 0), BuildingBlock: ZUJKAS_clean_linker_0, # of connection points: 2
#     Edge 51, Type (0, 0), BuildingBlock: ZUJKAS_clean_linker_0, # of connection points: 2
#     Edge 52, Type (0, 0), BuildingBlock: ZUJKAS_clean_linker_0, # of connection points: 2
#     Edge 53, Type (0, 0), BuildingBlock: ZUJKAS_clean_linker_0, # of connection points: 2
#     Edge 54, Type (0, 0), BuildingBlock: ZUJKAS_clean_linker_0, # of connection points: 2
#     Edge 55, Type (0, 0), BuildingBlock: ZUJKAS_clean_linker_0, # of connection points: 2
# Relax obj value: 0.097
# Max RMSD: 0.164
# Mean RMSD: 0.164
data_MOF--net-fob--node1-BEQFEK_clean_sbu_0--edge1-ZUJKAS_clean_linker_0
_symmetry_space_group_name_H-M    P1
_symmetry_Int_Tables_number       1
_symmetry_cell_setting            triclinic
loop_
_symmetry_equiv_pos_as_xyz
'x, y, z'
_cell_length_a     25.413207
_cell_length_b     91.611824
_cell_length_c     70.292923
_cell_angle_alpha  90.066379
_cell_angle_beta   90.88257
_cell_angle_gamma 89.91679
loop_
_atom_site_label
_atom_site_type_symbol
_atom_site_fract_x
_atom_site_fract_y
_atom_site_fract_z
_atom_type_partial_charge
Co0 Co 0.12695 0.09878 0.47444 0.0
Co1 Co 0.13092 0.1333 0.47463 0.0
C2 C 0.19645 0.11569 0.44798 0.0
O3 O 0.17885 0.10363 0.45442 0.0
O4 O 0.18192 0.12798 0.45473 0.0
C5 C 0.1005 0.06918 0.46676 0.0
O6 O 0.08634 0.0748 0.45026 0.0
C7 C 0.16546 0.16431 0.4785 0.0
C8 C 0.09166 0.1742 0.48869 0.0
C9 C 0.14341 0.17745 0.4845 0.0
N10 N 0.12831 0.15387 0.47931 0.0
N11 N 0.08426 0.15992 0.48521 0.0
C12 C 0.22158 0.16134 0.47365 0.0
H13 H 0.23093 0.1496 0.47563 0.0
H14 H 0.24848 0.16808 0.48261 0.0
H15 H 0.22781 0.16417 0.45851 0.0
C16 C 0.15393 0.10364 0.51497 0.0
N17 N 0.14339 0.10867 0.49733 0.0
N18 N 0.14576 0.12303 0.49743 0.0
C19 C 0.15833 0.12759 0.51514 0.0
C20 C 0.16377 0.11547 0.52682 0.0
C21 C 0.15103 0.08788 0.52042 0.0
H22 H 0.11243 0.08338 0.51574 0.0
H23 H 0.18216 0.08173 0.51294 0.0
H24 H 0.15573 0.08628 0.53599 0.0
O25 O 0.05672 0.10437 0.46483 0.0
O26 O 0.06023 0.1285 0.46465 0.0
H27 H 0.12931 0.14922 0.51961 0.0
H28 H 0.18384 0.14431 0.53515 0.0
C29 C 0.16717 0.14321 0.52055 0.0
H30 H 0.19491 0.14823 0.5105 0.0
H31 H 0.04932 0.15421 0.48728 0.0
O32 O 0.12247 0.07739 0.47913 0.0
C33 C 0.03559 0.11668 0.46141 0.0
Co34 Co 0.12514 0.102 0.77842 0.0
Co35 Co 0.11277 0.13632 0.77784 0.0
C36 C 0.02254 0.11649 0.7872 0.0
O37 O 0.05003 0.10492 0.78505 0.0
O38 O 0.04179 0.12916 0.7844 0.0
C39 C 0.11559 0.07002 0.77236 0.0
O40 O 0.06421 0.0714 0.77314 0.0
C41 C 0.07781 0.16615 0.7671 0.0
C42 C 0.14858 0.17883 0.77531 0.0
C43 C 0.09881 0.18018 0.7672 0.0
N44 N 0.11382 0.15701 0.77472 0.0
N45 N 0.15575 0.1647 0.77975 0.0
C46 C 0.02638 0.16125 0.75871 0.0
H47 H 0.02842 0.14954 0.7547 0.0
H48 H 0.01565 0.16792 0.74606 0.0
H49 H 0.99526 0.16258 0.76947 0.0
C50 C 0.15864 0.10784 0.73915 0.0
N51 N 0.14248 0.11252 0.75626 0.0
N52 N 0.13845 0.12684 0.75601 0.0
C53 C 0.15257 0.13175 0.73877 0.0
C54 C 0.16578 0.11988 0.72754 0.0
C55 C 0.16219 0.09208 0.73363 0.0
H56 H 0.19573 0.08695 0.74139 0.0
H57 H 0.12565 0.0864 0.73778 0.0
H58 H 0.16754 0.09064 0.71812 0.0
O59 O 0.16795 0.10846 0.80056 0.0
O60 O 0.15846 0.1325 0.79998 0.0
H61 H 0.17572 0.15381 0.74436 0.0
H62 H 0.17413 0.14914 0.71949 0.0
C63 C 0.15423 0.14752 0.73326 0.0
H64 H 0.1135 0.15182 0.73214 0.0
H65 H 0.18978 0.16023 0.78588 0.0
O66 O 0.14459 0.08121 0.77448 0.0
C67 C 0.17702 0.12101 0.80762 0.0
Co68 Co 0.85688 0.90093 0.51618 0.0
Co69 Co 0.84679 0.86653 0.51811 0.0
C70 C 0.78746 0.88588 0.54453 0.0
O71 O 0.8066 0.89741 0.53712 0.0
O72 O 0.79902 0.87316 0.5384 0.0
C73 C 0.88692 0.9304 0.52235 0.0
O74 O 0.90063 0.92506 0.53905 0.0
C75 C 0.80757 0.83579 0.51638 0.0
C76 C 0.87841 0.82495 0.50515 0.0
C77 C 0.82699 0.82234 0.5104 0.0
N78 N 0.84585 0.84582 0.5145 0.0
N79 N 0.88817 0.83919 0.50803 0.0
C80 C 0.75264 0.83939 0.52214 0.0
H81 H 0.74459 0.8512 0.52014 0.0
H82 H 0.72376 0.83285 0.51375 0.0
H83 H 0.74803 0.83672 0.53741 0.0
C84 C 0.82291 0.89513 0.47655 0.0
N85 N 0.83572 0.89052 0.49419 0.0
N86 N 0.83064 0.87624 0.495 0.0
C87 C 0.81398 0.8713 0.47789 0.0
C88 C 0.80858 0.8831 0.46567 0.0
C89 C 0.82755 0.91064 0.47015 0.0
H90 H 0.86715 0.91485 0.4741 0.0
H91 H 0.79804 0.91739 0.47763 0.0
H92 H 0.82157 0.91176 0.45456 0.0
O93 O 0.92721 0.89476 0.52503 0.0
O94 O 0.91933 0.87075 0.52665 0.0
H95 H 0.83774 0.8491 0.47416 0.0
H96 H 0.78194 0.85438 0.45944 0.0
C97 C 0.80112 0.85569 0.47361 0.0
H98 H 0.77409 0.85149 0.48452 0.0
H99 H 0.92342 0.84449 0.50508 0.0
O100 O 0.86395 0.92209 0.51034 0.0
C101 C 0.94647 0.88228 0.52881 0.0
Co102 Co 0.87564 0.90597 0.21997 0.0
Co103 Co 0.89216 0.87161 0.21732 0.0
C104 C 0.97918 0.89303 0.20926 0.0
O105 O 0.95075 0.90424 0.2126 0.0
O106 O 0.96133 0.88009 0.21107 0.0
C107 C 0.87513 0.93838 0.22133 0.0
O108 O 0.91819 0.93818 0.21122 0.0
C109 C 0.93091 0.84137 0.2257 0.0
C110 C 0.86558 0.82856 0.21307 0.0
C111 C 0.91343 0.82711 0.22259 0.0
N112 N 0.89467 0.85067 0.21844 0.0
N113 N 0.85586 0.84288 0.21092 0.0
C114 C 0.98193 0.84616 0.23455 0.0
H115 H 0.99154 0.85746 0.23021 0.0
H116 H 0.97851 0.84599 0.25026 0.0
H117 H 0.01419 0.83866 0.23047 0.0
C118 C 0.84044 0.89739 0.25811 0.0
N119 N 0.86006 0.89393 0.24102 0.0
N120 N 0.86536 0.87966 0.23987 0.0
C121 C 0.84848 0.87357 0.2561 0.0
C122 C 0.83204 0.88462 0.26815 0.0
C123 C 0.83257 0.91271 0.26496 0.0
H124 H 0.79698 0.91736 0.25791 0.0
H125 H 0.86689 0.91949 0.26108 0.0
H126 H 0.82776 0.91319 0.28061 0.0
O127 O 0.83287 0.90022 0.19748 0.0
O128 O 0.84504 0.87626 0.19582 0.0
H129 H 0.82623 0.85212 0.247 0.0
H130 H 0.82211 0.85489 0.27231 0.0
C131 C 0.84517 0.85747 0.25947 0.0
H132 H 0.88546 0.85297 0.26124 0.0
H133 H 0.82259 0.84737 0.20429 0.0
O134 O 0.85391 0.92639 0.22607 0.0
C135 C 0.82487 0.88798 0.18935 0.0
Co136 Co 0.11944 0.60821 0.96136 0.0
Co137 Co 0.14038 0.64231 0.9625 0.0
C138 C 0.22266 0.62139 0.94935 0.0
O139 O 0.19276 0.61041 0.95214 0.0
O140 O 0.20794 0.63439 0.95324 0.0
C141 C 0.12802 0.57696 0.9709 0.0
O142 O 0.17732 0.57947 0.97573 0.0
C143 C 0.17867 0.67279 0.97046 0.0
C144 C 0.10254 0.68443 0.96854 0.0
C145 C 0.15571 0.68657 0.97206 0.0
N146 N 0.14041 0.66303 0.96641 0.0
N147 N 0.0952 0.67014 0.96524 0.0
C148 C 0.23585 0.669 0.97199 0.0
H149 H 0.24446 0.65906 0.96363 0.0
H150 H 0.24625 0.66679 0.98711 0.0
H151 H 0.26045 0.67816 0.96691 0.0
C152 C 0.09489 0.61411 0.00171 0.0
N153 N 0.10928 0.61858 0.9843 0.0
N154 N 0.11929 0.63267 0.9849 0.0
C155 C 0.11242 0.63756 0.00277 0.0
C156 C 0.09651 0.62597 0.01397 0.0
C157 C 0.0789 0.59884 0.00642 0.0
H158 H 0.05212 0.59456 -0.00486 0.0
H159 H 0.11445 0.59181 0.00711 0.0
H160 H 0.05863 0.59832 0.02027 0.0
O161 O 0.07258 0.61561 0.94109 0.0
O162 O 0.08858 0.63937 0.94171 0.0
H163 H 0.09535 0.66039 0.00377 0.0
H164 H 0.12761 0.65353 0.02502 0.0
C165 C 0.12565 0.6527 0.00929 0.0
H166 H 0.16424 0.65593 0.00353 0.0
H167 H 0.05907 0.66517 0.96225 0.0
O168 O 0.09965 0.58737 0.96459 0.0
C169 C 0.0651 0.62838 0.93454 0.0
Co170 Co 0.11976 0.60485 0.26771 0.0
Co171 Co 0.12723 0.63931 0.27075 0.0
C172 C 0.05881 0.62121 0.2966 0.0
O173 O 0.07111 0.60913 0.28875 0.0
O174 O 0.07725 0.63334 0.2908 0.0
C175 C 0.14417 0.57476 0.27183 0.0
O176 O 0.16309 0.57953 0.28819 0.0
C177 C 0.0909 0.67008 0.267 0.0
C178 C 0.16662 0.68179 0.2697 0.0
C179 C 0.11307 0.68398 0.2671 0.0
N180 N 0.1298 0.66021 0.2693 0.0
N181 N 0.17486 0.66732 0.27092 0.0
C182 C 0.03373 0.66624 0.266 0.0
H183 H 0.02723 0.65508 0.27158 0.0
H184 H 0.01983 0.66653 0.25098 0.0
H185 H 0.01034 0.67428 0.27415 0.0
C186 C 0.09234 0.61244 0.22817 0.0
N187 N 0.10381 0.61642 0.24616 0.0
N188 N 0.10923 0.6307 0.24697 0.0
C189 C 0.10271 0.63623 0.22932 0.0
C190 C 0.09142 0.62483 0.21687 0.0
C191 C 0.08312 0.59699 0.22202 0.0
H192 H 0.05865 0.59132 0.23264 0.0
H193 H 0.0631 0.59647 0.2079 0.0
H194 H 0.12148 0.59123 0.22128 0.0
O195 O 0.19203 0.60883 0.27682 0.0
O196 O 0.19795 0.6329 0.27899 0.0
H197 H 0.14651 0.6561 0.23304 0.0
H198 H 0.12487 0.65269 0.2089 0.0
C199 C 0.11394 0.65174 0.22407 0.0
H200 H 0.07829 0.65844 0.22639 0.0
H201 H 0.21139 0.66228 0.27291 0.0
O202 O 0.12029 0.58369 0.26086 0.0
C203 C 0.2182 0.62028 0.28079 0.0
Co204 Co 0.88363 0.40831 0.01944 0.0
Co205 Co 0.85818 0.37451 0.01757 0.0
C206 C 0.77516 0.39566 0.02737 0.0
O207 O 0.8076 0.40629 0.02616 0.0
O208 O 0.78876 0.38255 0.02368 0.0
C209 C 0.87708 0.43943 0.00959 0.0
O210 O 0.82847 0.43684 0.00394 0.0
C211 C 0.82058 0.34409 0.0098 0.0
C212 C 0.89745 0.33282 0.00854 0.0
C213 C 0.84381 0.33054 0.00661 0.0
N214 N 0.85905 0.35387 0.01335 0.0
N215 N 0.90473 0.34699 0.01272 0.0
C216 C 0.76355 0.34798 0.00796 0.0
H217 H 0.75899 0.35952 0.00347 0.0
H218 H 0.74321 0.34074 -0.00245 0.0
H219 H 0.74482 0.34668 0.02201 0.0
C220 C 0.91559 0.40231 0.97999 0.0
N221 N 0.89877 0.39786 -0.00291 0.0
N222 N 0.88555 0.38401 -0.00397 0.0
C223 C 0.89149 0.37934 0.97803 0.0
C224 C 0.91116 0.39076 0.96729 0.0
C225 C 0.9347 0.4174 0.97586 0.0
H226 H 0.9596 0.4214 0.98786 0.0
H227 H 0.90041 0.42482 0.97417 0.0
H228 H 0.95793 0.41765 0.96262 0.0
O229 O 0.92522 0.40078 0.04093 0.0
O230 O 0.90214 0.37741 0.04066 0.0
H231 H 0.90012 0.35634 0.97391 0.0
H232 H 0.86293 0.36529 0.95522 0.0
C233 C 0.87085 0.36504 0.97076 0.0
H234 H 0.83369 0.36232 0.97797 0.0
H235 H 0.94109 0.35208 0.01477 0.0
O236 O 0.90462 0.42909 0.01655 0.0
C237 C 0.92661 0.38809 0.04817 0.0
Co238 Co 0.86118 0.40064 0.71218 0.0
Co239 Co 0.87892 0.36645 0.71269 0.0
C240 C 0.96272 0.3868 0.69964 0.0
O241 O 0.93427 0.39806 0.70274 0.0
O242 O 0.94643 0.37391 0.70318 0.0
C243 C 0.87047 0.43277 0.71695 0.0
O244 O 0.92104 0.43167 0.7136 0.0
C245 C 0.91694 0.33598 0.71932 0.0
C246 C 0.84047 0.32452 0.71961 0.0
C247 C 0.89419 0.32225 0.72153 0.0
N248 N 0.87815 0.34578 0.7163 0.0
N249 N 0.83271 0.33881 0.71638 0.0
C250 C 0.97378 0.34001 0.72135 0.0
H251 H 0.97793 0.35173 0.7251 0.0
H252 H 0.99346 0.33322 0.73243 0.0
H253 H 0.99352 0.33813 0.70759 0.0
C254 C 0.84469 0.39503 0.75279 0.0
N255 N 0.85205 0.39018 0.73497 0.0
N256 N 0.86133 0.37606 0.73545 0.0
C257 C 0.86142 0.37151 0.75367 0.0
C258 C 0.851 0.38342 0.76527 0.0
C259 C 0.8337 0.41063 0.75776 0.0
H260 H 0.80146 0.41484 0.74847 0.0
H261 H 0.8694 0.41727 0.75524 0.0
H262 H 0.82189 0.41183 0.77281 0.0
O263 O 0.81327 0.3938 0.69198 0.0
O264 O 0.82627 0.3699 0.69238 0.0
H265 H 0.84872 0.3485 0.75534 0.0
H266 H 0.88512 0.35584 0.77542 0.0
C267 C 0.87883 0.3566 0.75983 0.0
H268 H 0.91617 0.3538 0.75277 0.0
H269 H 0.79621 0.34387 0.71446 0.0
O270 O 0.84195 0.42139 0.71659 0.0
C271 C 0.80402 0.38114 0.68538 0.0
Co272 Co 0.61857 0.10749 0.97348 0.0
Co273 Co 0.62346 0.14185 0.97011 0.0
C274 C 0.68068 0.12261 0.94301 0.0
O275 O 0.66412 0.11114 0.9513 0.0
O276 O 0.66891 0.13537 0.94894 0.0
C277 C 0.59294 0.07784 0.96821 0.0
O278 O 0.5751 0.08311 0.95197 0.0
C279 C 0.65906 0.17291 0.97126 0.0
C280 C 0.58522 0.18344 0.9803 0.0
C281 C 0.63728 0.18637 0.97618 0.0
N282 N 0.6215 0.16263 0.97271 0.0
N283 N 0.57741 0.16907 0.97787 0.0
C284 C 0.71517 0.16954 0.96683 0.0
H285 H 0.72326 0.15772 0.96872 0.0
H286 H 0.7421 0.17602 0.9761 0.0
H287 H 0.72268 0.17244 0.95179 0.0
C288 C 0.65487 0.11446 0.01247 0.0
N289 N 0.64147 0.11855 -0.00533 0.0
N290 N 0.64415 0.13286 -0.00665 0.0
C291 C 0.65957 0.13835 0.01032 0.0
C292 C 0.66688 0.12687 0.02297 0.0
C293 C 0.65141 0.09908 0.0195 0.0
H294 H 0.6121 0.09456 0.01577 0.0
H295 H 0.68132 0.09232 0.01224 0.0
H296 H 0.65762 0.09834 0.03512 0.0
O297 O 0.5458 0.11258 0.96634 0.0
O298 O 0.55029 0.1366 0.96349 0.0
H299 H 0.62965 0.16011 0.01258 0.0
H300 H 0.68381 0.15621 0.02881 0.0
C301 C 0.66763 0.15425 0.0143 0.0
H302 H 0.69563 0.15874 0.00394 0.0
H303 H 0.54221 0.16357 0.98025 0.0
O304 O 0.61667 0.08637 0.97975 0.0
C305 C 0.52425 0.12478 0.96262 0.0
Co306 Co 0.62886 0.10703 0.27264 0.0
Co307 Co 0.62008 0.1415 0.27688 0.0
C308 C 0.53205 0.12093 0.28774 0.0
O309 O 0.55683 0.10944 0.28273 0.0
O310 O 0.5519 0.13365 0.28581 0.0
C311 C 0.62613 0.07462 0.27106 0.0
O312 O 0.58595 0.07502 0.28259 0.0
C313 C 0.58356 0.17196 0.26892 0.0
C314 C 0.65139 0.18441 0.28036 0.0
C315 C 0.60292 0.18611 0.27133 0.0
N316 N 0.61941 0.16248 0.27602 0.0
N317 N 0.65965 0.17005 0.28288 0.0
C318 C 0.53117 0.16746 0.2609 0.0
H319 H 0.52036 0.15645 0.26606 0.0
H320 H 0.53315 0.16701 0.24516 0.0
H321 H 0.5004 0.17548 0.26485 0.0
C322 C 0.65329 0.11566 0.23351 0.0
N323 N 0.64009 0.11917 0.2514 0.0
N324 N 0.63846 0.13347 0.25309 0.0
C325 C 0.65163 0.13952 0.23635 0.0
C326 C 0.66142 0.12842 0.22344 0.0
C327 C 0.65548 0.10035 0.22608 0.0
H328 H 0.6923 0.09508 0.23128 0.0
H329 H 0.62166 0.09403 0.23147 0.0
H330 H 0.65445 0.10005 0.2103 0.0
O331 O 0.67805 0.11202 0.29357 0.0
O332 O 0.67296 0.13611 0.29641 0.0
H333 H 0.67931 0.16053 0.24543 0.0
H334 H 0.6806 0.15778 0.22003 0.0
C335 C 0.65821 0.15556 0.23314 0.0
H336 H 0.61891 0.16073 0.23176 0.0
H337 H 0.6931 0.16538 0.28918 0.0
O338 O 0.64674 0.08651 0.2656 0.0
C339 C 0.69168 0.12386 0.30171 0.0
Co340 Co 0.38117 0.90768 0.02236 0.0
Co341 Co 0.37652 0.8732 0.02405 0.0
C342 C 0.31532 0.8921 0.05089 0.0
O343 O 0.33182 0.90389 0.04338 0.0
O344 O 0.32912 0.8796 0.04465 0.0
C345 C 0.40907 0.93723 0.02832 0.0
O346 O 0.42622 0.9318 0.04457 0.0
C347 C 0.33704 0.84251 0.02133 0.0
C348 C 0.41206 0.83096 0.01646 0.0
C349 C 0.35852 0.82873 0.01827 0.0
N350 N 0.37627 0.8524 0.0211 0.0
N351 N 0.4209 0.84535 0.01827 0.0
C352 C 0.2808 0.84619 0.02519 0.0
H353 H 0.278 0.85661 0.03313 0.0
H354 H 0.25899 0.84746 0.01151 0.0
H355 H 0.26201 0.83729 0.03336 0.0
C356 C 0.3525 0.9016 0.98233 0.0
N357 N 0.36174 0.89709 0.00028 0.0
N358 N 0.36006 0.88273 0.00083 0.0
C359 C 0.35004 0.87764 0.98316 0.0
C360 C 0.34484 0.88942 0.97091 0.0
C361 C 0.35656 0.91718 0.97611 0.0
H362 H 0.39611 0.92143 0.98005 0.0
H363 H 0.32703 0.92381 0.98375 0.0
H364 H 0.35032 0.91841 0.96055 0.0
O365 O 0.45263 0.90213 0.03092 0.0
O366 O 0.44896 0.87799 0.03197 0.0
H367 H 0.38483 0.85641 0.98143 0.0
H368 H 0.33645 0.8601 0.96286 0.0
C369 C 0.34667 0.86179 0.9781 0.0
H370 H 0.31602 0.85657 0.98676 0.0
H371 H 0.45757 0.8504 0.01745 0.0
O372 O 0.38513 0.92887 0.01663 0.0
C373 C 0.47424 0.88985 0.03415 0.0
Co374 Co 0.34648 0.90135 0.71552 0.0
Co375 Co 0.35906 0.86701 0.71503 0.0
C376 C 0.44506 0.88701 0.7019 0.0
O377 O 0.4185 0.89852 0.70553 0.0
O378 O 0.42706 0.87426 0.70522 0.0
C379 C 0.35727 0.93336 0.72147 0.0
O380 O 0.40821 0.93207 0.71902 0.0
C381 C 0.3965 0.83678 0.72293 0.0
C382 C 0.32157 0.82475 0.71956 0.0
C383 C 0.37436 0.82293 0.72412 0.0
N384 N 0.35824 0.84629 0.71801 0.0
N385 N 0.31376 0.83898 0.71585 0.0
C386 C 0.45181 0.84117 0.72767 0.0
H387 H 0.4532 0.85281 0.73206 0.0
H388 H 0.46843 0.83419 0.73918 0.0
H389 H 0.47627 0.83984 0.71485 0.0
C390 C 0.32935 0.89526 0.75612 0.0
N391 N 0.33772 0.89067 0.73822 0.0
N392 N 0.34233 0.87637 0.73813 0.0
C393 C 0.33662 0.87137 0.756 0.0
C394 C 0.32824 0.88317 0.76796 0.0
C395 C 0.32791 0.91099 0.76189 0.0
H396 H 0.36251 0.91668 0.75601 0.0
H397 H 0.3284 0.91237 0.77756 0.0
H398 H 0.29189 0.91616 0.75583 0.0
O399 O 0.29652 0.89502 0.69543 0.0
O400 O 0.3056 0.87098 0.69528 0.0
H401 H 0.32725 0.85388 0.77646 0.0
H402 H 0.37942 0.85143 0.75954 0.0
C403 C 0.33886 0.85559 0.76148 0.0
H404 H 0.31191 0.84924 0.75213 0.0
H405 H 0.27773 0.84377 0.71221 0.0
O406 O 0.32816 0.92211 0.72034 0.0
C407 C 0.28469 0.88255 0.68869 0.0
Co408 Co 0.62929 0.60002 0.46707 0.0
Co409 Co 0.62519 0.63453 0.46458 0.0
C410 C 0.72295 0.6174 0.45545 0.0
O411 O 0.70154 0.60512 0.45902 0.0
O412 O 0.69806 0.6294 0.45751 0.0
C413 C 0.60666 0.56949 0.46102 0.0
O414 O 0.59892 0.57359 0.4433 0.0
C415 C 0.65018 0.66516 0.47429 0.0
C416 C 0.57899 0.67647 0.46345 0.0
C417 C 0.62669 0.67887 0.47276 0.0
N418 N 0.61764 0.65524 0.46631 0.0
N419 N 0.57538 0.6621 0.45975 0.0
C420 C 0.70055 0.6612 0.48431 0.0
H421 H 0.70004 0.64954 0.48861 0.0
H422 H 0.70691 0.66822 0.49702 0.0
H423 H 0.73375 0.66281 0.47447 0.0
C424 C 0.59328 0.60667 0.50579 0.0
N425 N 0.60853 0.61103 0.48845 0.0
N426 N 0.60558 0.62536 0.48745 0.0
C427 C 0.58778 0.63056 0.5041 0.0
C428 C 0.57941 0.61889 0.51622 0.0
C429 C 0.59488 0.59116 0.51244 0.0
H430 H 0.56309 0.58493 0.50511 0.0
H431 H 0.63309 0.58617 0.50862 0.0
H432 H 0.5899 0.59031 0.52804 0.0
O433 O 0.58181 0.60397 0.44516 0.0
O434 O 0.5791 0.62815 0.44344 0.0
H435 H 0.55469 0.65116 0.49583 0.0
H436 H 0.55283 0.64769 0.52105 0.0
C437 C 0.57651 0.64631 0.50804 0.0
H438 H 0.61418 0.65225 0.50996 0.0
H439 H 0.54364 0.65693 0.453 0.0
O440 O 0.6226 0.57884 0.4732 0.0
C441 C 0.56578 0.61564 0.43716 0.0
Co442 Co 0.64384 0.60296 0.76636 0.0
Co443 Co 0.62588 0.63707 0.76467 0.0
C444 C 0.57049 0.6182 0.79301 0.0
O445 O 0.59247 0.60656 0.78695 0.0
O446 O 0.57931 0.63066 0.78552 0.0
C447 C 0.63426 0.57048 0.76641 0.0
O448 O 0.58879 0.57161 0.77493 0.0
C449 C 0.57934 0.66684 0.75955 0.0
C450 C 0.65065 0.67875 0.7509 0.0
C451 C 0.5974 0.68057 0.75409 0.0
N452 N 0.62027 0.65748 0.75945 0.0
N453 N 0.66267 0.66474 0.75437 0.0
C454 C 0.52414 0.66232 0.76362 0.0
H455 H 0.51966 0.65034 0.76179 0.0
H456 H 0.49593 0.66814 0.75409 0.0
H457 H 0.51502 0.66511 0.77857 0.0
C458 C 0.60642 0.60561 0.72654 0.0
N459 N 0.61984 0.6116 0.74341 0.0
N460 N 0.6125 0.62582 0.74255 0.0
C461 C 0.59427 0.62933 0.72505 0.0
C462 C 0.58961 0.61664 0.7144 0.0
C463 C 0.60706 0.58956 0.72259 0.0
H464 H 0.64822 0.58552 0.72338 0.0
H465 H 0.58435 0.58383 0.73366 0.0
H466 H 0.58977 0.58693 0.70842 0.0
O467 O 0.71228 0.61097 0.77459 0.0
O468 O 0.69907 0.6348 0.77347 0.0
H469 H 0.61797 0.65162 0.72209 0.0
H470 H 0.57663 0.64513 0.70285 0.0
C471 C 0.58379 0.64461 0.71844 0.0
H472 H 0.54887 0.64896 0.72583 0.0
H473 H 0.69988 0.66005 0.75303 0.0
O474 O 0.65949 0.58196 0.76213 0.0
C475 C 0.72877 0.62394 0.77686 0.0
Co476 Co 0.37675 0.40109 0.51519 0.0
Co477 Co 0.3675 0.36664 0.51643 0.0
C478 C 0.30772 0.38557 0.54319 0.0
O479 O 0.32661 0.39718 0.53595 0.0
O480 O 0.31948 0.37292 0.53687 0.0
C481 C 0.40583 0.43066 0.52157 0.0
O482 O 0.422 0.42524 0.53795 0.0
C483 C 0.32918 0.33591 0.51326 0.0
C484 C 0.40264 0.32513 0.50428 0.0
C485 C 0.35011 0.32247 0.50788 0.0
N486 N 0.36772 0.34596 0.51263 0.0
N487 N 0.41154 0.33937 0.50748 0.0
C488 C 0.27302 0.33949 0.51729 0.0
H489 H 0.26554 0.35132 0.51511 0.0
H490 H 0.2462 0.33298 0.50801 0.0
H491 H 0.26477 0.33681 0.53234 0.0
C492 C 0.35036 0.3955 0.47494 0.0
N493 N 0.357 0.39083 0.49295 0.0
N494 N 0.35216 0.37653 0.49343 0.0
C495 C 0.34188 0.37165 0.4757 0.0
C496 C 0.34062 0.38347 0.46343 0.0
C497 C 0.35985 0.4109 0.46878 0.0
H498 H 0.39935 0.41443 0.4739 0.0
H499 H 0.33029 0.41814 0.47541 0.0
H500 H 0.35758 0.41213 0.4531 0.0
O501 O 0.44743 0.39508 0.52384 0.0
O502 O 0.43984 0.37102 0.52483 0.0
H503 H 0.37326 0.35014 0.47249 0.0
H504 H 0.32164 0.35459 0.45548 0.0
C505 C 0.33522 0.35591 0.47046 0.0
H506 H 0.30585 0.35086 0.47986 0.0
H507 H 0.44737 0.3447 0.50566 0.0
O508 O 0.3821 0.42234 0.50977 0.0
C509 C 0.46693 0.38254 0.52712 0.0
Co510 Co 0.36002 0.40503 0.21053 0.0
Co511 Co 0.37747 0.37078 0.20745 0.0
C512 C 0.43236 0.3919 0.18183 0.0
O513 O 0.40995 0.40289 0.18939 0.0
O514 O 0.42442 0.37893 0.18777 0.0
C515 C 0.32061 0.43409 0.20643 0.0
O516 O 0.30156 0.42867 0.19044 0.0
C517 C 0.4265 0.34125 0.21284 0.0
C518 C 0.35633 0.32738 0.20832 0.0
C519 C 0.40965 0.32676 0.21254 0.0
N520 N 0.3847 0.34992 0.2091 0.0
N521 N 0.34308 0.3415 0.20638 0.0
C522 C 0.48155 0.34673 0.21541 0.0
H523 H 0.48495 0.35801 0.20981 0.0
H524 H 0.49222 0.34687 0.23075 0.0
H525 H 0.50954 0.33938 0.2081 0.0
C526 C 0.38683 0.39886 0.25027 0.0
N527 N 0.38323 0.39446 0.23208 0.0
N528 N 0.38753 0.38013 0.23134 0.0
C529 C 0.39226 0.37493 0.24922 0.0
C530 C 0.39216 0.38666 0.26175 0.0
C531 C 0.3817 0.41442 0.25651 0.0
H532 H 0.4059 0.4215 0.24732 0.0
H533 H 0.39467 0.41587 0.27154 0.0
H534 H 0.34 0.41789 0.25495 0.0
O535 O 0.29018 0.39773 0.20236 0.0
O536 O 0.30472 0.374 0.19878 0.0
H537 H 0.35877 0.35368 0.2447 0.0
H538 H 0.37445 0.3577 0.26923 0.0
C539 C 0.38744 0.35913 0.25436 0.0
H540 H 0.42624 0.35377 0.25287 0.0
H541 H 0.30532 0.34538 0.20326 0.0
O542 O 0.34927 0.42603 0.21707 0.0
C543 C 0.27438 0.38501 0.19787 0.0
H544 H 0.22044 0.19078 0.46339 0.0
H545 H 0.25644 0.21536 0.46793 0.0
H546 H 0.15446 0.22197 0.51564 0.0
H547 H 0.11958 0.19735 0.51159 0.0
H548 H 0.19984 0.2417 0.46665 0.0
H549 H 0.2979 0.23446 0.53709 0.0
H550 H 0.27777 0.21923 0.52237 0.0
H551 H 0.23027 0.22881 0.53641 0.0
C552 C 0.20678 0.19729 0.47517 0.0
C553 C 0.16794 0.19198 0.48738 0.0
C554 C 0.22695 0.2114 0.47762 0.0
C555 C 0.20877 0.22039 0.49234 0.0
C556 C 0.16993 0.21512 0.50447 0.0
H557 H 0.27025 0.31001 0.52847 0.0
H558 H 0.23233 0.2856 0.52406 0.0
C559 C 0.14976 0.20107 0.50203 0.0
C560 C 0.22833 0.23555 0.49452 0.0
H561 H 0.28889 0.25883 0.52589 0.0
C562 C 0.21961 0.24543 0.47955 0.0
C563 C 0.25373 0.24041 0.51142 0.0
C564 C 0.26596 0.23016 0.52769 0.0
C565 C 0.23498 0.26011 0.48113 0.0
C566 C 0.2604 0.26496 0.49802 0.0
C567 C 0.26901 0.25509 0.51301 0.0
C568 C 0.28079 0.28004 0.50006 0.0
C569 C 0.2231 0.27036 0.46483 0.0
C570 C 0.32062 0.28495 0.48809 0.0
C571 C 0.34199 0.29885 0.4905 0.0
C572 C 0.32398 0.30818 0.50492 0.0
C573 C 0.28392 0.30328 0.51689 0.0
C574 C 0.26262 0.28928 0.51452 0.0
H575 H 0.19129 0.26607 0.45536 0.0
H576 H 0.2113 0.28129 0.47012 0.0
H577 H 0.25896 0.27168 0.45619 0.0
H578 H 0.33599 0.27789 0.47711 0.0
H579 H 0.37303 0.30227 0.4811 0.0
H580 H 0.8806 0.9432 0.48713 0.0
H581 H 0.91803 0.96662 0.4775 0.0
H582 H 0.96938 0.97465 0.53531 0.0
H583 H 0.93304 0.95117 0.545 0.0
H584 H 0.89914 0.99501 0.48933 0.0
H585 H 0.10543 0.97907 0.50605 0.0
H586 H 0.05243 0.96599 0.50491 0.0
H587 H 0.06173 0.9772 0.52571 0.0
C588 C 0.89954 0.94999 0.49783 0.0
C589 C 0.90424 0.94524 0.51682 0.0
C590 C 0.921 0.96336 0.49229 0.0
C591 C 0.9476 0.97223 0.5056 0.0
C592 C 0.95031 0.96781 0.5247 0.0
H593 H 0.10752 0.05575 0.50155 0.0
H594 H 0.07098 0.03207 0.51045 0.0
C595 C 0.92911 0.95442 0.53024 0.0
C596 C 0.97267 0.98606 0.49949 0.0
H597 H 0.09055 1.00392 0.49807 0.0
C598 C 0.94102 0.99694 0.49114 0.0
C599 C 0.02737 0.98855 0.50187 0.0
C600 C 0.06387 0.97704 0.50996 0.0
C601 C 0.96233 0.01037 0.48549 0.0
C602 C 0.01701 0.01288 0.48792 0.0
C603 C 0.04868 1.00198 0.49622 0.0
C604 C 0.04192 0.02683 0.48217 0.0
C605 C 0.9258 0.02188 0.47742 0.0
C606 C 0.03928 0.03154 0.46318 0.0
C607 C 0.05996 0.0451 0.45806 0.0
C608 C 0.08423 0.05414 0.47178 0.0
C609 C 0.08902 0.04908 0.49062 0.0
C610 C 0.06807 0.03555 0.49575 0.0
H611 H 0.88418 0.01978 0.48116 0.0
H612 H 0.93692 0.03292 0.48265 0.0
H613 H 0.92837 0.02186 0.46168 0.0
H614 H 0.02057 0.02482 0.45236 0.0
H615 H 0.05598 0.04859 0.44339 0.0
H616 H 0.22007 0.06426 0.76774 0.0
H617 H 0.26106 0.04113 0.75917 0.0
H618 H 0.10895 0.02035 0.75778 0.0
H619 H 0.06727 0.04353 0.76653 0.0
H620 H 0.18949 0.00442 0.77768 0.0
H621 H 0.25418 0.02196 0.70616 0.0
H622 H 0.27399 0.03387 0.72528 0.0
H623 H 0.2053 0.03183 0.71943 0.0
C624 C 0.19514 0.05479 0.76564 0.0
C625 C 0.14024 0.05578 0.76776 0.0
C626 C 0.21872 0.04159 0.76062 0.0
C627 C 0.18798 0.02909 0.75753 0.0
C628 C 0.13332 0.02992 0.75998 0.0
H629 H 0.25364 0.93917 0.72783 0.0
H630 H 0.21382 0.96236 0.73675 0.0
C631 C 0.10958 0.04316 0.76498 0.0
C632 C 0.2132 0.01514 0.75198 0.0
H633 H 0.28619 0.99912 0.71726 0.0
C634 C 0.2104 1.00322 0.76444 0.0
C635 C 0.24075 0.01366 0.73474 0.0
C636 C 0.24349 0.02595 0.72053 0.0
C637 C 0.23512 0.9899 0.76024 0.0
C638 C 0.26246 0.98839 0.74295 0.0
C639 C 0.26536 1.00032 0.73052 0.0
C640 C 0.28704 0.97437 0.73727 0.0
C641 C 0.23263 0.97766 0.77455 0.0
C642 C 0.34136 0.9735 0.734 0.0
C643 C 0.36439 0.96022 0.72873 0.0
C644 C 0.33339 0.9476 0.72652 0.0
C645 C 0.27884 0.94863 0.72949 0.0
C646 C 0.25595 0.96187 0.73473 0.0
H647 H 0.22348 0.98178 0.789 0.0
H648 H 0.20105 0.96994 0.77021 0.0
H649 H 0.27038 0.97155 0.77528 0.0
H650 H 0.366 0.98306 0.73574 0.0
H651 H 0.40645 0.95982 0.72651 0.0
H652 H 0.85154 0.30005 0.74151 0.0
H653 H 0.88819 0.27582 0.74758 0.0
H654 H 0.02785 0.28739 0.71705 0.0
H655 H 0.99093 0.31158 0.71044 0.0
H656 H 0.92309 0.25503 0.71858 0.0
H657 H 0.08077 0.2714 0.77014 0.0
H658 H 0.02451 0.28286 0.76491 0.0
H659 H 0.07673 0.28138 0.74813 0.0
C660 C 0.89019 0.2975 0.73613 0.0
C661 C 0.91876 0.30791 0.72583 0.0
C662 C 0.91101 0.28364 0.73962 0.0
C663 C 0.96089 0.2799 0.73295 0.0
C664 C 0.98964 0.29019 0.72261 0.0
H665 H 0.15037 0.20194 0.74933 0.0
H666 H 0.11595 0.22571 0.73943 0.0
C667 C 0.96867 0.30408 0.71902 0.0
C668 C 0.98203 0.26509 0.73655 0.0
H669 H 0.07597 0.24652 0.76188 0.0
C670 C 0.95659 0.25312 0.72801 0.0
C671 C 0.02572 0.26272 0.74882 0.0
C672 C 0.05352 0.27522 0.75868 0.0
C673 C 0.974 0.23878 0.73131 0.0
C674 C 0.01719 0.23636 0.74387 0.0
C675 C 0.04285 0.24838 0.75227 0.0
C676 C 0.03652 0.22149 0.74861 0.0
C677 C 0.94658 0.2264 0.72105 0.0
C678 C 0.00327 0.21116 0.75701 0.0
C679 C 0.02281 0.19749 0.76253 0.0
C680 C 0.07604 0.19399 0.75992 0.0
C681 C 0.10911 0.20432 0.75146 0.0
C682 C 0.08952 0.21791 0.7458 0.0
H683 H 0.92548 0.23026 0.70803 0.0
H684 H 0.97493 0.21776 0.71695 0.0
H685 H 0.91708 0.22149 0.73059 0.0
H686 H 0.96261 0.21383 0.75983 0.0
H687 H -0.00322 0.18994 0.76954 0.0
H688 H 0.75279 0.80965 0.53342 0.0
H689 H 0.71241 0.78547 0.52944 0.0
H690 H 0.80157 0.77861 0.4785 0.0
H691 H 0.84129 0.8027 0.48219 0.0
H692 H 0.69025 0.77152 0.47569 0.0
H693 H 0.79376 0.74581 0.53755 0.0
H694 H 0.75961 0.76272 0.54171 0.0
H695 H 0.81638 0.76254 0.52687 0.0
C696 C 0.76302 0.8031 0.52121 0.0
C697 C 0.79981 0.80814 0.50801 0.0
C698 C 0.74044 0.78922 0.51908 0.0
C699 C 0.75436 0.78024 0.50375 0.0
C700 C 0.7904 0.78537 0.49045 0.0
H701 H 0.72848 0.6893 0.47497 0.0
H702 H 0.75684 0.71382 0.48426 0.0
C703 C 0.81313 0.79912 0.49262 0.0
C704 C 0.73195 0.76542 0.50135 0.0
H705 H 0.73731 0.73078 0.51923 0.0
C706 C 0.70003 0.76263 0.4853 0.0
C707 C 0.74549 0.75385 0.51379 0.0
C708 C 0.78095 0.75625 0.53091 0.0
C709 C 0.68162 0.74851 0.48125 0.0
C710 C 0.69522 0.73692 0.49367 0.0
C711 C 0.72681 0.73972 0.50981 0.0
C712 C 0.67828 0.72175 0.48969 0.0
C713 C 0.64909 0.74601 0.4634 0.0
C714 C 0.62485 0.71801 0.49005 0.0
C715 C 0.60858 0.70397 0.48496 0.0
C716 C 0.64546 0.69332 0.47956 0.0
C717 C 0.69914 0.69702 0.4796 0.0
C718 C 0.71541 0.7111 0.48474 0.0
H719 H 0.65076 0.75545 0.45352 0.0
H720 H 0.66271 0.73609 0.45581 0.0
H721 H 0.6074 0.74429 0.46729 0.0
H722 H 0.59564 0.72604 0.494 0.0
H723 H 0.56694 0.70147 0.48511 0.0
H724 H 0.90976 0.96623 0.21439 0.0
H725 H 0.86705 0.98925 0.22307 0.0
H726 H 0.74074 0.96533 0.24881 0.0
H727 H 0.78329 0.94236 0.24048 0.0
H728 H 0.76737 0.9994 0.21237 0.0
H729 H 0.78285 0.99383 0.29085 0.0
H730 H 0.82024 0.98258 0.27484 0.0
H731 H 0.75222 0.97856 0.27914 0.0
C732 C 0.87307 0.96587 0.22201 0.0
C733 C 0.85017 0.95242 0.22681 0.0
C734 C 0.84867 0.97904 0.22694 0.0
C735 C 0.80109 0.97903 0.23685 0.0
C736 C 0.77801 0.96563 0.24155 0.0
H737 H 0.59091 0.04691 0.2786 0.0
H738 H 0.63165 0.02372 0.26948 0.0
C739 C 0.80235 0.95248 0.23667 0.0
C740 C 0.77466 0.99301 0.24175 0.0
H741 H 0.72939 0.01317 0.27905 0.0
C742 C 0.7593 1.00246 0.22695 0.0
C743 C 0.76382 0.99694 0.26078 0.0
C744 C 0.78103 0.98752 0.27734 0.0
C745 C 0.73271 0.01561 0.23063 0.0
C746 C 0.72209 0.01958 0.24967 0.0
C747 C 0.73735 0.01011 0.26446 0.0
C748 C 0.69634 0.03366 0.25461 0.0
C749 C 0.71522 0.02495 0.21402 0.0
C750 C 0.71925 0.04697 0.2494 0.0
C751 C 0.69592 0.06022 0.25447 0.0
C752 C 0.64942 0.06048 0.26511 0.0
C753 C 0.6266 0.04713 0.27038 0.0
C754 C 0.6499 0.03385 0.26521 0.0
H755 H 0.71203 0.01848 0.20067 0.0
H756 H 0.6766 0.03018 0.21672 0.0
H757 H 0.74469 0.03368 0.21178 0.0
H758 H 0.75575 0.04714 0.24166 0.0
H759 H 0.71491 0.07027 0.2503 0.0
H760 H 0.97785 0.82006 0.25345 0.0
H761 H 0.01454 0.79611 0.26142 0.0
H762 H 0.9368 0.77757 0.2121 0.0
H763 H 0.90226 0.80153 0.20353 0.0
H764 H 0.96309 0.77105 0.26989 0.0
H765 H 0.08364 0.76191 0.20603 0.0
H766 H 0.05672 0.77956 0.21188 0.0
H767 H 0.01645 0.76607 0.20004 0.0
C768 C 0.97002 0.81104 0.24392 0.0
C769 C 0.93828 0.81287 0.22751 0.0
C770 C 0.99043 0.79727 0.24866 0.0
C771 C 0.9794 0.78508 0.23714 0.0
C772 C 0.94717 0.78686 0.22093 0.0
H773 H 0.03233 0.6916 0.24258 0.0
H774 H -0.00244 0.71616 0.23654 0.0
C775 C 0.92706 0.80058 0.21614 0.0
C776 C -0.0006 0.77034 0.24241 0.0
H777 H 0.0668 0.74095 0.22523 0.0
C778 C 0.9862 0.76453 0.2602 0.0
C779 C 0.0296 0.76182 0.22977 0.0
C780 C 0.0479 0.76771 0.21095 0.0
C781 C 0.00121 0.7503 0.26546 0.0
C782 C 0.03024 0.7417 0.25262 0.0
C783 C 0.04395 0.74754 0.23494 0.0
C784 C 0.04804 0.72672 0.25742 0.0
C785 C 0.98514 0.74441 0.28453 0.0
C786 C 0.08774 0.72455 0.27119 0.0
C787 C 0.10759 0.71056 0.27467 0.0
C788 C 0.08775 0.69844 0.26458 0.0
C789 C 0.04731 0.70061 0.25101 0.0
C790 C 0.0278 0.71466 0.2474 0.0
H791 H 0.95494 0.75138 0.29134 0.0
H792 H 0.96942 0.73316 0.28302 0.0
H793 H 0.02017 0.74392 0.29413 0.0
H794 H 0.1044 0.73375 0.27888 0.0
H795 H 0.13906 0.70923 0.2851 0.0
H796 H 0.39533 0.8025 0.03038 0.0
H797 H 0.35878 0.77832 0.02352 0.0
H798 H 0.22751 0.79823 -0.00616 0.0
H799 H 0.26426 0.82245 0.00036 0.0
H800 H 0.25456 0.76603 0.03146 0.0
H801 H 0.29866 0.77044 0.9544 0.0
H802 H 0.32858 0.78223 0.97209 0.0
H803 H 0.26172 0.78524 0.96445 0.0
C804 C 0.35831 0.80173 0.0226 0.0
C805 C 0.33235 0.81439 0.01612 0.0
C806 C 0.33749 0.78793 0.01872 0.0
C807 C 0.29075 0.78652 0.00805 0.0
C808 C 0.26383 0.79912 0.00202 0.0
H809 H 0.12396 0.71307 0.95919 0.0
H810 H 0.15723 0.73707 0.96846 0.0
C811 C 0.2845 0.81297 0.00599 0.0
C812 C 0.27161 0.77183 0.00256 0.0
H813 H 0.25421 0.74925 0.96432 0.0
C814 C 0.25445 0.76232 0.0168 0.0
C815 C 0.27178 0.76706 0.98342 0.0
C816 C 0.29151 0.77669 0.96766 0.0
C817 C 0.23636 0.74822 0.01235 0.0
C818 C 0.23676 0.74341 0.9932 0.0
C819 C 0.25409 0.75294 0.97899 0.0
C820 C 0.21783 0.72871 0.98747 0.0
C821 C 0.21572 0.73876 0.02813 0.0
C822 C 0.24139 0.71599 -0.00516 0.0
C823 C 0.22221 0.70221 0.98964 0.0
C824 C 0.17966 0.70091 0.97672 0.0
C825 C 0.15689 0.71368 0.96914 0.0
C826 C 0.17589 0.72742 0.97439 0.0
H827 H 0.20523 0.74532 0.04083 0.0
H828 H 0.18047 0.73254 0.02331 0.0
H829 H 0.2466 0.73082 0.03252 0.0
H830 H 0.27434 0.71672 0.00475 0.0
H831 H 0.23971 0.69267 -0.00379 0.0
H832 H 0.97792 0.44772 0.01826 0.0
H833 H 0.01975 0.47116 0.01196 0.0
H834 H 0.87482 0.48727 0.98711 0.0
H835 H 0.83227 0.46386 -0.00645 0.0
H836 H 0.03271 0.48461 0.97668 0.0
H837 H 0.91594 0.51949 0.02506 0.0
H838 H 0.9166 0.49982 0.02672 0.0
H839 H 0.87737 0.50872 0.00867 0.0
C840 C 0.95466 0.45627 0.01161 0.0
C841 C 0.90157 0.45391 0.00649 0.0
C842 C 0.97876 0.46966 0.00797 0.0
C843 C 0.95029 0.48102 -0.00074 0.0
C844 C 0.89727 0.47875 -0.00583 0.0
H845 H 0.027 0.56858 0.96278 0.0
H846 H 0.98576 0.54509 0.96921 0.0
C847 C 0.87306 0.46533 -0.00221 0.0
C848 C 0.97678 0.49504 -0.00503 0.0
H849 H 0.97371 0.53164 0.0042 0.0
C850 C 0.01999 0.49489 0.98275 0.0
C851 C 0.96007 0.50843 0.0029 0.0
C852 C 0.91526 0.50918 0.0167 0.0
C853 C 0.04637 0.50782 0.97797 0.0
C854 C 0.02964 0.52122 0.9859 0.0
C855 C 0.98646 0.52136 -0.00187 0.0
C856 C 0.05585 0.53527 0.9815 0.0
C857 C 0.09108 0.50706 0.96413 0.0
C858 C 0.10904 0.53758 0.98631 0.0
C859 C 0.13293 0.55103 0.98259 0.0
C860 C 0.1039 0.56244 0.9741 0.0
C861 C 0.05064 0.56004 0.96928 0.0
C862 C 0.02689 0.54662 0.97298 0.0
H863 H 0.09025 0.49677 0.95574 0.0
H864 H 0.08976 0.51644 0.95413 0.0
H865 H 0.12902 0.50748 0.97213 0.0
H866 H 0.13189 0.52907 0.99323 0.0
H867 H 0.17387 0.55254 0.98661 0.0
H868 H 0.19838 0.55363 0.29133 0.0
H869 H 0.22643 0.52977 0.27969 0.0
H870 H 0.14604 0.53779 0.22624 0.0
H871 H 0.11841 0.56184 0.23767 0.0
H872 H 0.17014 0.50579 0.26666 0.0
H873 H 0.29555 0.5282 0.20969 0.0
H874 H 0.26953 0.53942 0.22846 0.0
H875 H 0.22823 0.53417 0.20863 0.0
C876 C 0.18633 0.55032 0.27713 0.0
C877 C 0.15643 0.55972 0.26539 0.0
C878 C 0.20246 0.53666 0.2705 0.0
C879 C 0.18925 0.53211 0.25197 0.0
C880 C 0.15772 0.54121 0.24044 0.0
H881 H 0.26072 0.45404 0.18688 0.0
H882 H 0.22922 0.47773 0.19808 0.0
C883 C 0.14159 0.55491 0.24706 0.0
C884 C 0.20905 0.5179 0.24475 0.0
H885 H 0.28585 0.50251 0.2106 0.0
C886 C 0.19552 0.50507 0.25443 0.0
C887 C 0.24231 0.51698 0.22881 0.0
C888 C 0.26024 0.53042 0.21836 0.0
C889 C 0.21369 0.49134 0.24844 0.0
C890 C 0.24699 0.49043 0.23253 0.0
C891 C 0.26035 0.50324 0.2228 0.0
C892 C 0.26791 0.47626 0.22564 0.0
C893 C 0.19626 0.47789 0.25898 0.0
C894 C 0.30118 0.46771 0.23725 0.0
C895 C 0.31941 0.45416 0.23087 0.0
C896 C 0.3048 0.44892 0.21272 0.0
C897 C 0.27263 0.45771 0.20095 0.0
C898 C 0.25455 0.47126 0.20733 0.0
H899 H 0.16107 0.48006 0.26774 0.0
H900 H 0.18704 0.46886 0.24892 0.0
H901 H 0.22856 0.47421 0.26864 0.0
H902 H 0.31284 0.4715 0.25129 0.0
H903 H 0.34424 0.4477 0.24029 0.0
H904 H 0.71985 0.19862 0.95645 0.0
H905 H 0.75816 0.22291 0.96119 0.0
H906 H 0.6464 0.23167 0.00531 0.0
H907 H 0.60955 0.20735 0.00128 0.0
H908 H 0.7099 0.24986 0.9574 0.0
H909 H 0.78408 0.24268 0.0313 0.0
H910 H 0.76435 0.22748 0.01649 0.0
H911 H 0.71573 0.23813 0.02868 0.0
C912 C 0.70443 0.20553 0.96752 0.0
C913 C 0.66242 0.20086 0.97879 0.0
C914 C 0.72595 0.21949 0.97005 0.0
C915 C 0.70586 0.22899 0.98389 0.0
C916 C 0.66348 0.22441 -0.0051 0.0
H917 H 0.75273 0.31856 0.02024 0.0
H918 H 0.71764 0.29413 0.01344 0.0
C919 C 0.64214 0.21052 0.99244 0.0
C920 C 0.72747 0.24391 0.98645 0.0
H921 H 0.77832 0.26721 0.01993 0.0
C922 C 0.72536 0.25362 0.97101 0.0
C923 C 0.74756 0.2488 0.00423 0.0
C924 C 0.7536 0.23868 0.02107 0.0
C925 C 0.74147 0.26821 0.97305 0.0
C926 C 0.7604 0.27315 0.99093 0.0
C927 C 0.76314 0.26341 0.00629 0.0
C928 C 0.77919 0.28828 -0.00609 0.0
C929 C 0.7371 0.27834 0.95619 0.0
C930 C 0.8253 0.29302 0.98518 0.0
C931 C 0.84529 0.30692 0.98901 0.0
C932 C 0.81937 0.31638 0.00156 0.0
C933 C 0.77278 0.31168 0.01013 0.0
C934 C 0.75298 0.29769 0.00639 0.0
H935 H 0.71173 0.27374 0.94466 0.0
H936 H 0.7209 0.28909 0.96054 0.0
H937 H 0.77688 0.28021 0.95038 0.0
H938 H 0.84655 0.28583 0.97575 0.0
H939 H 0.88146 0.31022 0.98229 0.0
H940 H 0.73063 0.56482 0.75148 0.0
H941 H 0.76854 0.54117 0.74344 0.0
H942 H 0.62788 0.51966 0.76223 0.0
H943 H 0.58926 0.54339 0.7704 0.0
H944 H 0.78482 0.51652 0.76888 0.0
H945 H 0.65297 0.50393 0.7071 0.0
H946 H 0.66075 0.52219 0.71644 0.0
H947 H 0.62146 0.50914 0.72884 0.0
C948 C 0.70752 0.55509 0.7539 0.0
C949 C 0.65675 0.55602 0.76157 0.0
C950 C 0.72939 0.54158 0.74931 0.0
C951 C 0.70087 0.5287 0.75208 0.0
C952 C 0.65026 0.52951 0.75977 0.0
H953 H 0.76935 0.43793 0.72772 0.0
H954 H 0.72962 0.46113 0.73667 0.0
C955 C 0.62836 0.54307 0.7645 0.0
C956 C 0.72478 0.51446 0.74712 0.0
H957 H 0.71491 0.4859 0.71603 0.0
C958 C 0.76961 0.5098 0.75733 0.0
C959 C 0.70475 0.50575 0.73207 0.0
C960 C 0.65756 0.51049 0.72033 0.0
C961 C 0.79466 0.49654 0.75304 0.0
C962 C 0.77507 0.4879 0.7378 0.0
C963 C 0.73002 0.49256 0.72766 0.0
C964 C 0.80004 0.47386 0.73235 0.0
C965 C 0.84109 0.49177 0.76516 0.0
C966 C 0.85283 0.4733 0.72671 0.0
C967 C 0.87592 0.45997 0.72166 0.0
C968 C 0.84643 0.447 0.72196 0.0
C969 C 0.79334 0.44768 0.72733 0.0
C970 C 0.77045 0.46096 0.73245 0.0
H971 H 0.84196 0.49742 0.77915 0.0
H972 H 0.84038 0.4798 0.76765 0.0
H973 H 0.87801 0.49448 0.75772 0.0
H974 H 0.87611 0.48317 0.72609 0.0
H975 H 0.91676 0.45986 0.71748 0.0
H976 H 0.61365 0.06437 0.00234 0.0
H977 H 0.58412 0.0402 0.01249 0.0
H978 H 0.51129 0.03321 0.95743 0.0
H979 H 0.54104 0.05721 0.94708 0.0
H980 H 0.47922 0.03093 0.0141 0.0
H981 H 0.59419 0.99543 0.96601 0.0
H982 H 0.6104 0.01437 0.97011 0.0
H983 H 0.55765 0.00955 0.95397 0.0
C984 C 0.59207 0.0576 0.99228 0.0
C985 C 0.57981 0.06271 0.97388 0.0
C986 C 0.57508 0.04381 -0.00186 0.0
C987 C 0.54596 0.03485 0.98566 0.0
C988 C 0.53453 0.03982 0.96718 0.0
H989 H 0.38929 0.95098 -0.00567 0.0
H990 H 0.41993 0.9751 0.98447 0.0
C991 C 0.55142 0.05359 0.96132 0.0
C992 C 0.52493 0.02067 0.99227 0.0
H993 H 0.52545 0.98406 0.9831 0.0
C994 C 0.48958 0.02066 0.00742 0.0
C995 C 0.53828 0.00731 0.98344 0.0
C996 C 0.57757 0.00659 0.96759 0.0
C997 C 0.46647 0.00767 0.01378 0.0
C998 C 0.47972 0.99431 0.00493 0.0
C999 C 0.51514 0.99432 0.98979 0.0
C1000 C 0.45819 0.98015 0.01138 0.0
C1001 C 0.42717 0.00838 0.02963 0.0
C1002 C 0.46933 0.97503 0.02981 0.0
C1003 C 0.45181 0.96128 0.03551 0.0
C1004 C 0.42306 0.95233 0.02284 0.0
C1005 C 0.41114 0.95761 0.00448 0.0
C1006 C 0.42876 0.97136 -0.00122 0.0
H1007 H 0.41093 0.01957 0.03136 0.0
H1008 H 0.39407 1.0007 0.027 0.0
H1009 H 0.44694 0.00526 0.04321 0.0
H1010 H 0.49278 0.98151 0.03964 0.0
H1011 H 0.46194 0.95754 0.04971 0.0
H1012 H 0.48652 0.3217 0.2398 0.0
H1013 H 0.52443 0.29805 0.2489 0.0
H1014 H 0.43305 0.27702 0.20458 0.0
H1015 H 0.39568 0.30059 0.19526 0.0
H1016 H 0.46177 0.27379 0.26087 0.0
H1017 H 0.58179 0.25959 0.19816 0.0
H1018 H 0.56117 0.27805 0.20323 0.0
H1019 H 0.51567 0.26533 0.19262 0.0
C1020 C 0.47592 0.31214 0.23157 0.0
C1021 C 0.43879 0.31306 0.21658 0.0
C1022 C 0.49716 0.29859 0.23692 0.0
C1023 C 0.48204 0.2858 0.22727 0.0
C1024 C 0.44605 0.28677 0.212 0.0
H1025 H 0.53966 0.1927 0.24008 0.0
H1026 H 0.50778 0.21676 0.23025 0.0
C1027 C 0.42457 0.30024 0.20675 0.0
C1028 C 0.5003 0.27127 0.23402 0.0
H1029 H 0.5662 0.24057 0.22033 0.0
C1030 C 0.48502 0.26656 0.2521 0.0
C1031 C 0.53 0.26181 0.22243 0.0
C1032 C 0.54857 0.26645 0.20308 0.0
C1033 C 0.49776 0.25252 0.25878 0.0
C1034 C 0.52769 0.24305 0.24723 0.0
C1035 C 0.54312 0.2478 0.22916 0.0
C1036 C 0.54447 0.22831 0.2538 0.0
C1037 C 0.47772 0.24784 0.27792 0.0
C1038 C 0.57578 0.22677 0.27029 0.0
C1039 C 0.59324 0.21299 0.27613 0.0
C1040 C 0.58006 0.20042 0.26558 0.0
C1041 C 0.54893 0.20199 0.24899 0.0
C1042 C 0.53129 0.21581 0.24317 0.0
H1043 H 0.44312 0.25441 0.28224 0.0
H1044 H 0.46649 0.23613 0.27785 0.0
H1045 H 0.50921 0.24944 0.28883 0.0
H1046 H 0.58765 0.23627 0.27847 0.0
H1047 H 0.61768 0.21222 0.28885 0.0
H1048 H 0.47155 0.81231 0.71439 0.0
H1049 H 0.50703 0.78791 0.72105 0.0
H1050 H 0.36741 0.77732 0.75228 0.0
H1051 H 0.33153 0.80154 0.74543 0.0
H1052 H 0.52973 0.77327 0.75418 0.0
H1053 H 0.37154 0.7445 0.71389 0.0
H1054 H 0.3808 0.76399 0.71248 0.0
H1055 H 0.34734 0.75612 0.73237 0.0
C1056 C 0.44888 0.80487 0.72295 0.0
C1057 C 0.39888 0.80884 0.72947 0.0
C1058 C 0.46899 0.7909 0.72663 0.0
C1059 C 0.43937 0.78069 0.73683 0.0
C1060 C 0.39033 0.78486 0.74394 0.0
H1061 H 0.51073 0.69125 0.77319 0.0
H1062 H 0.46995 0.71536 0.76947 0.0
C1063 C 0.37005 0.79873 0.74012 0.0
C1064 C 0.45945 0.76564 0.73987 0.0
H1065 H 0.43081 0.72968 0.73178 0.0
C1066 C 0.50812 0.76375 0.74927 0.0
C1067 C 0.4312 0.7532 0.73341 0.0
C1068 C 0.38008 0.75452 0.72232 0.0
C1069 C 0.52914 0.74977 0.75246 0.0
C1070 C 0.50085 0.7374 0.74604 0.0
C1071 C 0.45202 0.73923 0.73683 0.0
C1072 C 0.52317 0.72253 0.74768 0.0
C1073 C 0.58151 0.74828 0.76268 0.0
C1074 C 0.56562 0.71854 0.73634 0.0
C1075 C 0.58832 0.70474 0.73817 0.0
C1076 C 0.56901 0.6946 0.75137 0.0
C1077 C 0.52572 0.69856 0.76251 0.0
C1078 C 0.50274 0.71241 0.76057 0.0
H1079 H 0.59342 0.75857 0.76994 0.0
H1080 H 0.58013 0.73938 0.77336 0.0
H1081 H 0.61216 0.74543 0.75222 0.0
H1082 H 0.58153 0.72617 0.72617 0.0
H1083 H 0.6215 0.70206 0.72932 0.0
H1084 H 0.61373 0.55765 0.4968 0.0
H1085 H 0.58089 0.53391 0.50721 0.0
H1086 H 0.52928 0.5243 0.44984 0.0
H1087 H 0.56277 0.54783 0.43923 0.0
H1088 H 0.47889 0.5241 0.5054 0.0
H1089 H 0.60759 0.48726 0.46415 0.0
H1090 H 0.62153 0.50644 0.46718 0.0
H1091 H 0.57381 0.5005 0.44966 0.0
C1092 C 0.59611 0.5504 0.48633 0.0
C1093 C 0.5911 0.55464 0.46715 0.0
C1094 C 0.5772 0.53685 0.49233 0.0
C1095 C 0.55318 0.52724 0.47927 0.0
C1096 C 0.54869 0.53138 0.4601 0.0
H1097 H 0.39219 0.44392 0.4869 0.0
H1098 H 0.42529 0.4678 0.4771 0.0
C1099 C 0.56769 0.54489 0.45407 0.0
C1100 C 0.53039 0.51324 0.48585 0.0
H1101 H 0.53349 0.47634 0.47879 0.0
C1102 C 0.49109 0.51365 0.49969 0.0
C1103 C 0.54622 0.49961 0.47834 0.0
C1104 C 0.58995 0.49837 0.46415 0.0
C1105 C 0.46652 0.50083 0.50594 0.0
C1106 C 0.48205 0.48723 0.4983 0.0
C1107 C 0.52141 0.4868 0.48452 0.0
C1108 C 0.45877 0.47326 0.50467 0.0
C1109 C 0.42339 0.50195 0.52038 0.0
C1110 C 0.46635 0.46845 0.52346 0.0
C1111 C 0.44756 0.45482 0.52911 0.0
C1112 C 0.42091 0.44569 0.51606 0.0
C1113 C 0.41234 0.45069 0.49734 0.0
C1114 C 0.43137 0.46431 0.49169 0.0
H1115 H 0.40748 0.51322 0.52136 0.0
H1116 H 0.39059 0.49438 0.51679 0.0
H1117 H 0.43942 0.49887 0.5346 0.0
H1118 H 0.48809 0.47509 0.53363 0.0
H1119 H 0.45503 0.45129 0.54361 0.0
H1120 H 0.23909 0.13908 0.42962 0.0
H1121 H 0.28981 0.13889 0.40042 0.0
H1122 H 0.284 0.09185 0.39921 0.0
H1123 H 0.2324 0.0919 0.42829 0.0
H1124 H 0.38582 0.12611 0.39305 0.0
H1125 H 0.22926 0.10286 0.34609 0.0
H1126 H 0.21609 0.10992 0.36953 0.0
H1127 H 0.24489 0.09212 0.36679 0.0
C1128 C 0.24866 0.12867 0.42322 0.0
C1129 C 0.23132 0.1155 0.43127 0.0
C1130 C 0.27759 0.12859 0.40649 0.0
C1131 C 0.28965 0.11538 0.39744 0.0
C1132 C 0.27394 0.10219 0.40572 0.0
H1133 H 0.48794 0.09585 0.30155 0.0
H1134 H 0.42331 0.09422 0.32689 0.0
C1135 C 0.24488 0.10224 0.42245 0.0
C1136 C 0.31965 0.11548 0.37954 0.0
H1137 H 0.31346 0.10602 0.33248 0.0
C1138 C 0.36993 0.12177 0.3798 0.0
C1139 C 0.29877 0.10977 0.36228 0.0
C1140 C 0.24411 0.10339 0.36102 0.0
C1141 C 0.40013 0.12241 0.36332 0.0
C1142 C 0.37917 0.11679 0.34606 0.0
C1143 C 0.32914 0.11036 0.34576 0.0
C1144 C 0.40949 0.11748 0.32831 0.0
C1145 C 0.45461 0.12893 0.36452 0.0
C1146 C 0.42073 0.13103 0.32008 0.0
C1147 C 0.45752 0.13202 0.3056 0.0
C1148 C 0.48376 0.11946 0.29913 0.0
C1149 C 0.46871 0.10575 0.30624 0.0
C1150 C 0.43185 0.10478 0.32076 0.0
H1151 H 0.46889 0.13004 0.37947 0.0
H1152 H 0.48307 0.12213 0.35657 0.0
H1153 H 0.45391 0.13995 0.35799 0.0
H1154 H 0.40318 0.14092 0.32559 0.0
H1155 H 0.46768 0.14275 0.30032 0.0
H1156 H 0.7343 0.09959 0.31844 0.0
H1157 H 0.78422 0.0983 0.34832 0.0
H1158 H 0.77742 0.14518 0.35352 0.0
H1159 H 0.72673 0.14662 0.32375 0.0
H1160 H 0.88009 0.1112 0.3576 0.0
H1161 H 0.72169 0.13091 0.40484 0.0
H1162 H 0.70906 0.12493 0.38071 0.0
H1163 H 0.73586 0.14276 0.38524 0.0
C1164 C 0.74355 0.10965 0.32587 0.0
C1165 C 0.72625 0.12321 0.31876 0.0
C1166 C 0.7719 0.10888 0.34296 0.0
C1167 C 0.78333 0.12161 0.35327 0.0
C1168 C 0.76771 0.1352 0.34597 0.0
H1169 H 0.9821 0.1409 0.44909 0.0
H1170 H 0.91289 0.14154 0.42464 0.0
C1171 C 0.73924 0.13601 0.32887 0.0
C1172 C 0.81311 0.12064 0.37139 0.0
H1173 H 0.80689 0.12806 0.41892 0.0
C1174 C 0.864 0.11477 0.37103 0.0
C1175 C 0.79175 0.12535 0.38883 0.0
C1176 C 0.73641 0.13123 0.39004 0.0
C1177 C 0.89475 0.11374 0.38765 0.0
C1178 C 0.87354 0.11849 0.40508 0.0
C1179 C 0.82261 0.12434 0.4055 0.0
C1180 C 0.90541 0.11808 0.42273 0.0
C1181 C 0.95023 0.10793 0.38636 0.0
C1182 C 0.92162 0.10467 0.43041 0.0
C1183 C 0.96128 0.10423 0.44433 0.0
C1184 C 0.9852 0.11722 0.4507 0.0
C1185 C 0.96496 0.13069 0.44432 0.0
C1186 C 0.92533 0.1311 0.43038 0.0
H1187 H 0.96379 0.10735 0.37142 0.0
H1188 H 0.97801 0.11488 0.39467 0.0
H1189 H 0.95186 0.09676 0.39243 0.0
H1190 H 0.90597 0.09453 0.42477 0.0
H1191 H 0.9755 0.09368 0.44911 0.0
H1192 H 0.19588 0.14575 0.82827 0.0
H1193 H 0.24113 0.14776 0.859 0.0
H1194 H 0.27011 0.10137 0.85898 0.0
H1195 H 0.22403 0.09913 0.82829 0.0
H1196 H 0.23249 0.11302 0.89438 0.0
H1197 H 0.40173 0.14404 0.86562 0.0
H1198 H 0.33791 0.15162 0.8604 0.0
H1199 H 0.35585 0.13426 0.85049 0.0
C1200 C 0.21206 0.13595 0.83471 0.0
C1201 C 0.20673 0.12228 0.82575 0.0
C1202 C 0.23781 0.13714 0.85228 0.0
C1203 C 0.25913 0.12473 0.8611 0.0
C1204 C 0.25372 0.11105 0.85233 0.0
H1205 H 0.46463 0.1016 0.95083 0.0
H1206 H 0.38798 0.10264 0.92968 0.0
C1207 C 0.22775 0.10983 0.83476 0.0
C1208 C 0.28852 0.12606 0.87924 0.0
H1209 H 0.40123 0.14005 0.89858 0.0
C1210 C 0.26926 0.11899 0.8954 0.0
C1211 C 0.3362 0.13393 0.88042 0.0
C1212 C 0.35953 0.14131 0.86331 0.0
C1213 C 0.29704 0.11944 0.91279 0.0
C1214 C 0.34539 0.127 0.91383 0.0
C1215 C 0.36377 0.13439 0.89777 0.0
C1216 C 0.38101 0.12618 0.93057 0.0
C1217 C 0.27463 0.11178 0.92982 0.0
C1218 C 0.40142 0.13905 0.93858 0.0
C1219 C 0.4458 0.13852 0.95047 0.0
C1220 C 0.47044 0.12509 0.95446 0.0
C1221 C 0.44672 0.11212 0.94796 0.0
C1222 C 0.40253 0.11268 0.93597 0.0
H1223 H 0.23109 0.11089 0.92864 0.0
H1224 H 0.29091 0.10054 0.93061 0.0
H1225 H 0.28508 0.11756 0.94324 0.0
H1226 H 0.38529 0.14958 0.93455 0.0
H1227 H 0.46277 0.14869 0.95546 0.0
H1228 H 0.97263 0.09183 0.79961 0.0
H1229 H 0.90056 0.09088 0.82215 0.0
H1230 H 0.88487 0.13771 0.81923 0.0
H1231 H 0.95586 0.13877 0.79645 0.0
H1232 H 0.91427 0.1039 0.85644 0.0
H1233 H 0.73267 0.12546 0.8223 0.0
H1234 H 0.78816 0.1192 0.80874 0.0
H1235 H 0.788 0.13725 0.81891 0.0
C1236 C 0.95266 0.10189 0.80322 0.0
C1237 C 0.97066 0.1154 0.79643 0.0
C1238 C 0.9115 0.10132 0.81616 0.0
C1239 C 0.88736 0.11422 0.8224 0.0
C1240 C 0.90226 0.12759 0.81441 0.0
H1241 H 0.72081 0.14424 0.92054 0.0
H1242 H 0.76923 0.14135 0.89094 0.0
C1243 C 0.94325 0.12817 0.80144 0.0
C1244 C 0.85336 0.11403 0.83934 0.0
H1245 H 0.73634 0.12621 0.85659 0.0
C1246 C 0.87497 0.10855 0.8564 0.0
C1247 C 0.80238 0.12024 0.8393 0.0
C1248 C 0.77624 0.12574 0.82127 0.0
C1249 C 0.84782 0.10957 0.87355 0.0
C1250 C 0.79739 0.11607 0.87359 0.0
C1251 C 0.77519 0.1213 0.85649 0.0
C1252 C 0.76755 0.11774 0.89136 0.0
C1253 C 0.87416 0.10417 0.89162 0.0
C1254 C 0.75058 0.10542 0.90132 0.0
C1255 C 0.72318 0.10701 0.91826 0.0
C1256 C 0.71197 0.12098 0.92552 0.0
C1257 C 0.72897 0.13332 0.91543 0.0
C1258 C 0.75638 0.1317 0.89846 0.0
H1259 H 0.91711 0.10247 0.88984 0.0
H1260 H 0.86814 0.112 0.90347 0.0
H1261 H 0.85652 0.09358 0.89571 0.0
H1262 H 0.75828 0.09455 0.89592 0.0
H1263 H 0.71038 0.09726 0.92555 0.0
H1264 H 0.50813 0.86502 0.68899 0.0
H1265 H 0.57628 0.86695 0.66516 0.0
H1266 H 0.56147 0.91385 0.6658 0.0
H1267 H 0.49232 0.91205 0.68944 0.0
H1268 H 0.54775 0.90236 0.63044 0.0
H1269 H 0.72873 0.87937 0.6634 0.0
H1270 H 0.67319 0.86751 0.66591 0.0
H1271 H 0.67315 0.88513 0.67726 0.0
C1272 C 0.52022 0.87579 0.68448 0.0
C1273 C 0.49423 0.88837 0.69099 0.0
C1274 C 0.55954 0.87687 0.6709 0.0
C1275 C 0.57415 0.89055 0.66377 0.0
C1276 C 0.5508 0.90319 0.67115 0.0
H1277 H 0.75674 0.91094 0.56258 0.0
H1278 H 0.70604 0.91301 0.59174 0.0
C1279 C 0.51133 0.90213 0.68471 0.0
C1280 C 0.60825 0.89146 0.64691 0.0
H1281 H 0.72564 0.88007 0.62916 0.0
C1282 C 0.58702 0.89771 0.63023 0.0
C1283 C 0.65928 0.88531 0.64666 0.0
C1284 C 0.68514 0.87908 0.66433 0.0
C1285 C 0.61461 0.89745 0.61312 0.0
C1286 C 0.66497 0.89092 0.61275 0.0
C1287 C 0.68682 0.88499 0.6295 0.0
C1288 C 0.69495 0.88974 0.59496 0.0
C1289 C 0.58888 0.90365 0.59539 0.0
C1290 C 0.70565 0.87596 0.58722 0.0
C1291 C 0.73456 0.87472 0.57056 0.0
C1292 C 0.75364 0.88725 0.56141 0.0
C1293 C 0.74243 0.90106 0.56918 0.0
C1294 C 0.71343 0.90228 0.58583 0.0
H1295 H 0.54609 0.90559 0.59724 0.0
H1296 H 0.60759 0.91423 0.59191 0.0
H1297 H 0.59428 0.89619 0.58311 0.0
H1298 H 0.69163 0.86616 0.5941 0.0
H1299 H 0.74252 0.86391 0.56502 0.0
H1300 H 0.23868 0.90493 0.66875 0.0
H1301 H 0.1893 0.90324 0.63871 0.0
H1302 H 0.20492 0.85637 0.63968 0.0
H1303 H 0.25371 0.85786 0.66979 0.0
H1304 H 0.22686 0.89036 0.60415 0.0
H1305 H 0.04619 0.86347 0.63078 0.0
H1306 H 0.09288 0.8725 0.6464 0.0
H1307 H 0.10719 0.85467 0.63715 0.0
C1308 C 0.231 0.89424 0.66273 0.0
C1309 C 0.25006 0.88153 0.67169 0.0
C1310 C 0.20309 0.89332 0.64553 0.0
C1311 C 0.19352 0.87969 0.6371 0.0
C1312 C 0.21153 0.86697 0.64613 0.0
H1313 H 0.00077 0.85761 0.5388 0.0
H1314 H 0.07235 0.85599 0.56225 0.0
C1315 C 0.2394 0.86787 0.66333 0.0
C1316 C 0.16549 0.87882 0.61863 0.0
H1317 H 0.05188 0.86682 0.59769 0.0
C1318 C 0.18865 0.88518 0.60265 0.0
C1319 C 0.11597 0.87195 0.61683 0.0
C1320 C 0.08874 0.86535 0.6337 0.0
C1321 C 0.16316 0.88496 0.58482 0.0
C1322 C 0.1131 0.87837 0.58312 0.0
C1323 C 0.09057 0.87173 0.59903 0.0
C1324 C 0.08063 0.87936 0.56558 0.0
C1325 C 0.18991 0.89176 0.56801 0.0
C1326 C 0.06339 0.89305 0.5591 0.0
C1327 C 0.02259 0.89403 0.54566 0.0
C1328 C -0.00205 0.88131 0.53874 0.0
C1329 C 0.01854 0.86761 0.54401 0.0
C1330 C 0.05948 0.86666 0.55739 0.0
H1331 H 0.23334 0.892 0.57009 0.0
H1332 H 0.18043 0.88577 0.55466 0.0
H1333 H 0.17611 0.90319 0.56637 0.0
H1334 H 0.07861 0.90298 0.56547 0.0
H1335 H 0.00781 0.90475 0.54186 0.0
H1336 H 0.77567 0.91056 0.17077 0.0
H1337 H 0.72793 0.90955 0.14031 0.0
H1338 H 0.7589 0.86336 0.13646 0.0
H1339 H 0.80593 0.86414 0.16695 0.0
H1340 H 0.76478 0.8996 0.10384 0.0
H1341 H 0.59762 0.86689 0.13107 0.0
H1342 H 0.64365 0.87617 0.14667 0.0
H1343 H 0.66194 0.85933 0.13543 0.0
C1344 C 0.77206 0.90016 0.16351 0.0
C1345 C 0.79421 0.88741 0.17137 0.0
C1346 C 0.74511 0.89964 0.14608 0.0
C1347 C 0.7398 0.88637 0.1363 0.0
C1348 C 0.76216 0.87366 0.14397 0.0
H1349 H 0.53586 0.86584 0.04048 0.0
H1350 H 0.61242 0.86436 0.06178 0.0
C1351 C 0.78895 0.87414 0.1614 0.0
C1352 C 0.70967 0.88578 0.11826 0.0
H1353 H 0.5966 0.87239 0.09845 0.0
C1354 C 0.72813 0.8936 0.10256 0.0
C1355 C 0.66215 0.87787 0.11673 0.0
C1356 C 0.63978 0.86967 0.13338 0.0
C1357 C 0.69972 0.89384 0.08529 0.0
C1358 C 0.65153 0.88622 0.08393 0.0
C1359 C 0.63391 0.8781 0.09951 0.0
C1360 C 0.61557 0.88757 0.06735 0.0
C1361 C 0.72135 0.90226 0.06874 0.0
C1362 C 0.59357 0.9012 0.06283 0.0
C1363 C 0.54991 0.90211 0.05062 0.0
C1364 C 0.52719 0.88935 0.04302 0.0
C1365 C 0.55209 0.87585 0.04631 0.0
C1366 C 0.59593 0.87497 0.05842 0.0
H1367 H 0.76485 0.90327 0.06985 0.0
H1368 H 0.71085 0.89697 0.05498 0.0
H1369 H 0.70448 0.91343 0.06874 0.0
H1370 H 0.60752 0.91102 0.06984 0.0
H1371 H 0.53175 0.91268 0.04833 0.0
H1372 H 0.05219 0.87202 0.20155 0.0
H1373 H 0.1202 0.87342 0.17752 0.0
H1374 H 0.0885 0.91931 0.1701 0.0
H1375 H 0.02017 0.91807 0.19414 0.0
H1376 H 0.0811 0.88304 0.1401 0.0
H1377 H 0.25343 0.91512 0.16632 0.0
H1378 H 0.21049 0.90541 0.1822 0.0
H1379 H 0.18891 0.92215 0.1714 0.0
C1380 C 0.06077 0.88254 0.1953 0.0
C1381 C 0.03002 0.89488 0.19953 0.0
C1382 C 0.09971 0.88331 0.18157 0.0
C1383 C 0.10906 0.89644 0.17201 0.0
C1384 C 0.08212 0.9091 0.17747 0.0
H1385 H 0.27549 0.91658 0.06799 0.0
H1386 H 0.22463 0.91786 0.09722 0.0
C1387 C 0.04301 0.90836 0.19122 0.0
C1388 C 0.13965 0.89626 0.1543 0.0
H1389 H 0.25163 0.90869 0.13368 0.0
C1390 C 0.11855 0.88858 0.1387 0.0
C1391 C 0.18785 0.90372 0.15251 0.0
C1392 C 0.21194 0.91203 0.16899 0.0
C1393 C 0.14436 0.88815 0.12125 0.0
C1394 C 0.19333 0.8953 0.11952 0.0
C1395 C 0.21419 0.90316 0.13508 0.0
C1396 C 0.22375 0.89451 0.10175 0.0
C1397 C 0.11834 0.8803 0.10473 0.0
C1398 C 0.24016 0.88096 0.09465 0.0
C1399 C 0.26872 0.88016 0.07788 0.0
C1400 C 0.28207 0.89293 0.06799 0.0
C1401 C 0.2657 0.90652 0.07519 0.0
C1402 C 0.23686 0.90729 0.09194 0.0
H1403 H 0.0752 0.87925 0.10667 0.0
H1404 H 0.12531 0.88606 0.09111 0.0
H1405 H 0.13498 0.86913 0.10364 0.0
H1406 H 0.23136 0.87098 0.10221 0.0
H1407 H 0.28108 0.86952 0.07287 0.0
H1408 H 0.29565 0.64202 0.93984 0.0
H1409 H 0.36299 0.63974 0.91556 0.0
H1410 H 0.32687 0.59405 0.90915 0.0
H1411 H 0.25948 0.59611 0.93345 0.0
H1412 H 0.45375 0.61292 0.90912 0.0
H1413 H 0.28781 0.62217 0.8576 0.0
H1414 H 0.28691 0.62987 0.88125 0.0
H1415 H 0.27848 0.61062 0.87803 0.0
C1416 C 0.30292 0.63138 0.9337 0.0
C1417 C 0.27154 0.6193 0.93843 0.0
C1418 C 0.34148 0.63011 0.91984 0.0
C1419 C 0.34933 0.61677 0.91055 0.0
C1420 C 0.32117 0.60443 0.91623 0.0
H1421 H 0.55304 0.59462 0.81603 0.0
H1422 H 0.50035 0.59381 0.84485 0.0
C1423 C 0.2827 0.60565 0.93014 0.0
C1424 C 0.38161 0.61622 0.8933 0.0
H1425 H 0.37232 0.61947 0.84502 0.0
C1426 C 0.43615 0.61426 0.89507 0.0
C1427 C 0.3582 0.6181 0.87511 0.0
C1428 C 0.29964 0.62034 0.87269 0.0
C1429 C 0.46814 0.6142 0.87894 0.0
C1430 C 0.44465 0.61605 0.86071 0.0
C1431 C 0.39006 0.618 0.85902 0.0
C1432 C 0.47615 0.61643 0.84321 0.0
C1433 C 0.52687 0.6125 0.88149 0.0
C1434 C 0.47874 0.62931 0.83251 0.0
C1435 C 0.50864 0.62982 0.81602 0.0
C1436 C 0.53618 0.61739 0.80983 0.0
C1437 C 0.53241 0.60439 0.82038 0.0
C1438 C 0.50267 0.60393 0.83693 0.0
H1439 H 0.53964 0.61401 0.89655 0.0
H1440 H 0.53862 0.60137 0.87693 0.0
H1441 H 0.54801 0.62048 0.87251 0.0
H1442 H 0.45812 0.63903 0.83707 0.0
H1443 H 0.51048 0.63999 0.80822 0.0
H1444 H 0.77729 0.65008 0.78376 0.0
H1445 H 0.85104 0.65441 0.8057 0.0
H1446 H 0.86922 0.60797 0.8136 0.0
H1447 H 0.79647 0.60351 0.79149 0.0
H1448 H 0.83956 0.64631 0.84214 0.0
H1449 H 0.02058 0.62108 0.81463 0.0
H1450 H 0.9646 0.62531 0.79944 0.0
H1451 H 0.96624 0.60866 0.81307 0.0
C1452 C 0.79807 0.64077 0.78969 0.0
C1453 C 0.78044 0.62645 0.78616 0.0
C1454 C 0.84027 0.64327 0.80219 0.0
C1455 C 0.86563 0.63152 0.81123 0.0
C1456 C 0.85091 0.6172 0.8065 0.0
H1457 H 0.014 0.6073 0.91393 0.0
H1458 H 0.96824 0.61017 0.88337 0.0
C1459 C 0.8089 0.61467 0.79395 0.0
C1460 C 0.9001 0.63409 0.82799 0.0
H1461 H 0.01482 0.62288 0.84909 0.0
C1462 C 0.87849 0.64152 0.84352 0.0
C1463 C 0.95068 0.62777 0.82974 0.0
C1464 C 0.97704 0.62039 0.81323 0.0
C1465 C 0.90466 0.64196 0.86118 0.0
C1466 C 0.95381 0.63491 0.86321 0.0
C1467 C 0.97677 0.62815 0.84744 0.0
C1468 C 0.98021 0.63351 0.8819 0.0
C1469 C 0.87828 0.64921 0.87782 0.0
C1470 C 0.00126 0.64576 0.89119 0.0
C1471 C 0.0272 0.64419 0.90872 0.0
C1472 C 0.03265 0.63032 0.91713 0.0
C1473 C 0.01043 0.61813 0.90788 0.0
C1474 C 0.98458 0.61972 0.89038 0.0
H1475 H 0.83682 0.65226 0.8745 0.0
H1476 H 0.8789 0.64186 0.89038 0.0
H1477 H 0.90013 0.65927 0.88175 0.0
H1478 H -0.00158 0.65647 0.88474 0.0
H1479 H 0.04404 0.65379 0.91542 0.0
H1480 H 0.27497 0.59521 0.28639 0.0
H1481 H 0.34903 0.59194 0.30855 0.0
H1482 H 0.35202 0.63829 0.31925 0.0
H1483 H 0.27866 0.64176 0.29693 0.0
H1484 H 0.4539 0.62427 0.3197 0.0
H1485 H 0.30586 0.59656 0.36483 0.0
H1486 H 0.31557 0.58895 0.34157 0.0
H1487 H 0.2874 0.60684 0.3439 0.0
C1488 C 0.29222 0.60477 0.29307 0.0
C1489 C 0.27013 0.61871 0.29027 0.0
C1490 C 0.33446 0.60286 0.30574 0.0
C1491 C 0.35486 0.61483 0.31581 0.0
C1492 C 0.33639 0.62891 0.31166 0.0
H1493 H 0.5268 0.63812 0.41565 0.0
H1494 H 0.48035 0.63651 0.38509 0.0
C1495 C 0.29436 0.63086 0.29893 0.0
C1496 C 0.38994 0.61263 0.33245 0.0
H1497 H 0.38959 0.60034 0.37823 0.0
C1498 C 0.44024 0.61889 0.33244 0.0
C1499 C 0.37164 0.60564 0.34902 0.0
C1500 C 0.31707 0.59919 0.35001 0.0
C1501 C 0.47255 0.61856 0.34878 0.0
C1502 C 0.45339 0.61205 0.36554 0.0
C1503 C 0.40395 0.60532 0.36531 0.0
C1504 C 0.48238 0.61292 0.38383 0.0
C1505 C 0.52661 0.62529 0.34804 0.0
C1506 C 0.49695 0.60014 0.39353 0.0
C1507 C 0.52296 0.601 0.41112 0.0
C1508 C 0.53455 0.61466 0.41932 0.0
C1509 C 0.51872 0.62743 0.40971 0.0
C1510 C 0.49271 0.62655 0.39215 0.0
H1511 H 0.54117 0.62578 0.33323 0.0
H1512 H 0.52478 0.63662 0.35359 0.0
H1513 H 0.55533 0.61906 0.35692 0.0
H1514 H 0.48855 0.58952 0.38741 0.0
H1515 H 0.53454 0.59096 0.41815 0.0
H1516 H 0.77797 0.59424 0.44112 0.0
H1517 H 0.84632 0.59539 0.41721 0.0
H1518 H 0.85061 0.64227 0.42244 0.0
H1519 H 0.78175 0.64129 0.44622 0.0
H1520 H 0.82589 0.63259 0.38618 0.0
H1521 H 0.00353 0.60395 0.41382 0.0
H1522 H 0.94371 0.59382 0.4166 0.0
H1523 H 0.95268 0.61075 0.42919 0.0
C1524 C 0.79464 0.60477 0.43771 0.0
C1525 C 0.77374 0.61769 0.44539 0.0
C1526 C 0.83394 0.60539 0.42404 0.0
C1527 C 0.85347 0.61892 0.41803 0.0
C1528 C 0.83595 0.63173 0.42687 0.0
H1529 H 0.02741 0.64461 0.31783 0.0
H1530 H 0.97845 0.64428 0.34742 0.0
C1531 C 0.7966 0.63113 0.44049 0.0
C1532 C 0.88547 0.61984 0.40065 0.0
H1533 H -0.00144 0.60785 0.38019 0.0
C1534 C 0.86398 0.62734 0.38494 0.0
C1535 C 0.93473 0.61281 0.39902 0.0
C1536 C 0.96031 0.60498 0.41561 0.0
C1537 C 0.88984 0.62774 0.36749 0.0
C1538 C 0.939 0.62066 0.36581 0.0
C1539 C 0.96077 0.61324 0.38154 0.0
C1540 C 0.96833 0.62084 0.34778 0.0
C1541 C 0.86353 0.63536 0.35084 0.0
C1542 C 0.97937 0.60774 0.33829 0.0
C1543 C 0.00755 0.60786 0.32137 0.0
C1544 C 0.02547 0.62111 0.3137 0.0
C1545 C 0.01395 0.63422 0.32323 0.0
C1546 C 0.98587 0.63407 0.34015 0.0
H1547 H 0.8207 0.63691 0.35308 0.0
H1548 H 0.88147 0.6463 0.34904 0.0
H1549 H 0.86898 0.62911 0.33747 0.0
H1550 H 0.96616 0.59741 0.34399 0.0
H1551 H 0.01592 0.59756 0.31448 0.0
H1552 H 0.47718 0.3711 0.15923 0.0
H1553 H 0.52615 0.37493 0.12999 0.0
H1554 H 0.51028 0.42151 0.13655 0.0
H1555 H 0.46128 0.41786 0.16584 0.0
H1556 H 0.48749 0.39189 0.09617 0.0
H1557 H 0.67194 0.41325 0.12979 0.0
H1558 H 0.62496 0.4026 0.14287 0.0
H1559 H 0.61074 0.42126 0.13705 0.0
C1560 C 0.48444 0.38217 0.15459 0.0
C1561 C 0.46538 0.39418 0.16493 0.0
C1562 C 0.51216 0.38432 0.13782 0.0
C1563 C 0.52172 0.39848 0.1312 0.0
C1564 C 0.50346 0.4105 0.14155 0.0
H1565 H 0.73447 0.42152 0.04031 0.0
H1566 H 0.66256 0.4243 0.0627 0.0
C1567 C 0.47552 0.40837 0.15828 0.0
C1568 C 0.55079 0.40062 0.1134 0.0
H1569 H 0.6697 0.41121 0.09654 0.0
C1570 C 0.5272 0.39622 0.09616 0.0
C1571 C 0.6022 0.40642 0.11351 0.0
C1572 C 0.62935 0.4111 0.13176 0.0
C1573 C 0.5543 0.3972 0.07896 0.0
C1574 C 0.60667 0.40241 0.07916 0.0
C1575 C 0.62945 0.40729 0.09637 0.0
C1576 C 0.64085 0.40147 0.06232 0.0
C1577 C 0.52665 0.39259 0.06079 0.0
C1578 C 0.65098 0.38783 0.05404 0.0
C1579 C 0.69174 0.38621 0.04113 0.0
C1580 C 0.72382 0.39817 0.03652 0.0
C1581 C 0.7108 0.41206 0.04363 0.0
C1582 C 0.66975 0.41368 0.05647 0.0
H1583 H 0.48341 0.39415 0.06177 0.0
H1584 H 0.54107 0.3988 0.04837 0.0
H1585 H 0.53399 0.3808 0.05831 0.0
H1586 H 0.62997 0.3782 0.05857 0.0
H1587 H 0.70047 0.37536 0.03591 0.0
H1588 H 0.89022 0.37237 0.07779 0.0
H1589 H 0.9262 0.37172 0.11028 0.0
H1590 H 0.05706 0.39826 0.09264 0.0
H1591 H 0.01891 0.39983 0.06059 0.0
H1592 H 0.00668 0.36164 0.1261 0.0
H1593 H 0.0176 0.4207 0.13777 0.0
H1594 H 0.98367 0.41311 0.11733 0.0
H1595 H 0.05344 0.41686 0.11666 0.0
C1596 C 0.92676 0.37802 0.08094 0.0
C1597 C 0.95191 0.3862 0.06686 0.0
C1598 C 0.94709 0.37772 0.09948 0.0
C1599 C 0.99339 0.38537 0.10409 0.0
C1600 C 0.01996 0.39286 0.08968 0.0
H1601 H 0.24366 0.36484 0.17195 0.0
H1602 H 0.16127 0.36408 0.15424 0.0
C1603 C -0.00125 0.39356 0.07131 0.0
C1604 C 0.01571 0.385 0.12366 0.0
H1605 H 0.08484 0.40618 0.15489 0.0
C1606 C 0.02261 0.37144 0.13265 0.0
C1607 C 0.03404 0.39779 0.1329 0.0
C1608 C 0.02105 0.41291 0.12572 0.0
C1609 C 0.05251 0.3702 0.14948 0.0
C1610 C 0.07852 0.38269 0.15681 0.0
C1611 C 0.06648 0.39644 0.14905 0.0
C1612 C 0.12427 0.38158 0.17006 0.0
C1613 C 0.05691 0.35543 0.15884 0.0
C1614 C 0.13193 0.39186 0.18472 0.0
C1615 C 0.18037 0.39274 0.19432 0.0
C1616 C 0.2213 0.38313 0.1897 0.0
C1617 C 0.21252 0.37229 0.17593 0.0
C1618 C 0.1649 0.3717 0.16596 0.0
H1619 H 0.0185 0.34966 0.15804 0.0
H1620 H 0.08569 0.34863 0.15106 0.0
H1621 H 0.06945 0.35626 0.174 0.0
H1622 H 0.10133 0.39963 0.18812 0.0
H1623 H 0.18626 0.40115 0.20499 0.0
H1624 H 0.77872 0.35601 0.66631 0.0
H1625 H 0.73459 0.35392 0.63528 0.0
H1626 H 0.71295 0.4006 0.6337 0.0
H1627 H 0.75726 0.40288 0.6646 0.0
H1628 H 0.63248 0.36333 0.62487 0.0
H1629 H 0.78516 0.39122 0.58278 0.0
H1630 H 0.79766 0.38423 0.60645 0.0
H1631 H 0.76443 0.40141 0.6032 0.0
C1632 C 0.76429 0.36583 0.65944 0.0
C1633 C 0.77178 0.37963 0.66787 0.0
C1634 C 0.73942 0.36461 0.64168 0.0
C1635 C 0.72201 0.37715 0.63208 0.0
C1636 C 0.72757 0.39086 0.64073 0.0
H1637 H 0.52522 0.40443 0.54323 0.0
H1638 H 0.59812 0.40138 0.56584 0.0
C1639 C 0.75232 0.3921 0.65848 0.0
C1640 C 0.69578 0.37592 0.61334 0.0
H1641 H 0.70043 0.38839 0.5677 0.0
C1642 C 0.64764 0.36855 0.61224 0.0
C1643 C 0.71611 0.38275 0.59701 0.0
C1644 C 0.76895 0.39024 0.59731 0.0
C1645 C 0.61745 0.36857 0.59544 0.0
C1646 C 0.63678 0.37589 0.57926 0.0
C1647 C 0.68603 0.38274 0.58013 0.0
C1648 C 0.60327 0.37796 0.5622 0.0
C1649 C 0.56374 0.36152 0.59552 0.0
C1650 C 0.58461 0.36591 0.55186 0.0
C1651 C 0.54253 0.36758 0.53908 0.0
C1652 C 0.51911 0.38136 0.5364 0.0
C1653 C 0.54205 0.39365 0.54515 0.0
C1654 C 0.5838 0.39194 0.55804 0.0
H1655 H 0.55113 0.35868 0.61012 0.0
H1656 H 0.53372 0.36887 0.58902 0.0
H1657 H 0.56474 0.35131 0.58702 0.0
H1658 H 0.60009 0.35508 0.55465 0.0
H1659 H 0.52628 0.35794 0.53226 0.0
H1660 H 0.0083 0.41214 0.68727 0.0
H1661 H 0.07741 0.41426 0.66362 0.0
H1662 H 0.09648 0.36748 0.66351 0.0
H1663 H 0.02858 0.36522 0.68742 0.0
H1664 H 0.19115 0.38243 0.65923 0.0
H1665 H 0.0357 0.4027 0.60922 0.0
H1666 H 0.04499 0.41338 0.63044 0.0
H1667 H 0.02065 0.39502 0.6321 0.0
C1668 C 0.02804 0.40232 0.68257 0.0
C1669 C 0.01207 0.38848 0.68895 0.0
C1670 C 0.06729 0.40355 0.66896 0.0
C1671 C 0.09081 0.39099 0.66143 0.0
C1672 C 0.07835 0.3773 0.66901 0.0
H1673 H 0.26877 0.36344 0.56502 0.0
H1674 H 0.21873 0.36567 0.5943 0.0
C1675 C 0.03941 0.37604 0.68268 0.0
C1676 C 0.12443 0.39184 0.64448 0.0
H1677 H 0.12083 0.40003 0.59709 0.0
C1678 C 0.17598 0.38638 0.64567 0.0
C1679 C 0.10425 0.39689 0.62678 0.0
C1680 C 0.04826 0.40222 0.62441 0.0
C1681 C 0.20787 0.38576 0.62956 0.0
C1682 C 0.18731 0.39058 0.61185 0.0
C1683 C 0.1363 0.39636 0.61075 0.0
C1684 C 0.21744 0.38928 0.59413 0.0
C1685 C 0.26324 0.37995 0.63159 0.0
C1686 C 0.23171 0.40182 0.58406 0.0
C1687 C 0.2601 0.40061 0.56728 0.0
C1688 C 0.27429 0.38681 0.56018 0.0
C1689 C 0.25863 0.37424 0.57009 0.0
C1690 C 0.23044 0.37548 0.58691 0.0
H1691 H 0.27725 0.38009 0.64664 0.0
H1692 H 0.26427 0.36849 0.62647 0.0
H1693 H 0.29085 0.38642 0.62288 0.0
H1694 H 0.22146 0.41256 0.58934 0.0
H1695 H 0.27139 0.41052 0.56001 0.0
H1696 H 0.10977 0.13261 0.69898 0.0
H1697 H 0.12722 0.1315 0.66485 0.0
H1698 H 0.26649 0.10575 0.67613 0.0
H1699 H 0.24929 0.10697 0.71044 0.0
H1700 H 0.22238 0.14006 0.64459 0.0
H1701 H 0.17311 0.0809 0.63862 0.0
H1702 H 0.15349 0.09179 0.65873 0.0
H1703 H 0.22088 0.08632 0.65642 0.0
C1704 C 0.14448 0.12691 0.69415 0.0
C1705 C 0.17826 0.11987 0.70716 0.0
C1706 C 0.15432 0.12624 0.67473 0.0
C1707 C 0.19785 0.11845 0.66807 0.0
C1708 C 0.2324 0.11167 0.68107 0.0
H1709 H 0.24066 0.10064 0.54617 0.0
H1710 H 0.25854 0.10116 0.58068 0.0
C1711 C 0.22261 0.11238 0.70055 0.0
C1712 C 0.20547 0.11715 0.64741 0.0
H1713 H 0.18887 0.09354 0.61026 0.0
C1714 C 0.21586 0.12986 0.63706 0.0
C1715 C 0.19726 0.10378 0.63776 0.0
C1716 C 0.18528 0.08988 0.64835 0.0
C1717 C 0.21618 0.12968 0.61715 0.0
C1718 C 0.20482 0.1165 0.60746 0.0
C1719 C 0.19736 0.10362 0.61781 0.0
C1720 C 0.19518 0.1162 0.58673 0.0
C1721 C 0.22743 0.14365 0.60664 0.0
C1722 C 0.15301 0.1242 0.57894 0.0
C1723 C 0.14264 0.12382 0.55944 0.0
C1724 C 0.17418 0.1154 0.54746 0.0
C1725 C 0.21586 0.10718 0.55525 0.0
C1726 C 0.22619 0.10753 0.57484 0.0
H1727 H 0.25095 0.15132 0.61558 0.0
H1728 H 0.24893 0.14148 0.59329 0.0
H1729 H 0.18966 0.14911 0.60288 0.0
H1730 H 0.12782 0.13065 0.58798 0.0
H1731 H 0.10985 0.13008 0.5537 0.0
H1732 H 0.73169 0.89861 0.44728 0.0
H1733 H 0.71034 0.8982 0.41302 0.0
H1734 H 0.83319 0.86639 0.40444 0.0
H1735 H 0.85444 0.86682 0.43846 0.0
H1736 H 0.77853 0.90544 0.38441 0.0
H1737 H 0.70991 0.84871 0.37476 0.0
H1738 H 0.71354 0.85744 0.39781 0.0
H1739 H 0.77134 0.84936 0.38763 0.0
C1740 C 0.75372 0.8915 0.43798 0.0
C1741 C 0.79446 0.8827 0.44531 0.0
C1742 C 0.74136 0.8912 0.41855 0.0
C1743 C 0.76938 0.88201 0.40633 0.0
C1744 C 0.81002 0.87321 0.41373 0.0
H1745 H 0.87723 0.8698 0.29746 0.0
H1746 H 0.84827 0.86906 0.33051 0.0
C1747 C 0.82238 0.87353 0.43308 0.0
C1748 C 0.7603 0.88252 0.38557 0.0
H1749 H 0.74667 0.86033 0.34685 0.0
C1750 C 0.77009 0.8957 0.37614 0.0
C1751 C 0.74898 0.86978 0.37492 0.0
C1752 C 0.73479 0.85557 0.38433 0.0
C1753 C 0.77339 0.89619 0.35628 0.0
C1754 C 0.76609 0.88319 0.34573 0.0
C1755 C 0.75257 0.87024 0.35507 0.0
C1756 C 0.77921 0.88244 0.32543 0.0
C1757 C 0.78838 0.91034 0.34682 0.0
C1758 C 0.74918 0.88996 0.31171 0.0
C1759 C 0.76562 0.89035 0.29286 0.0
C1760 C 0.81215 0.88322 0.2876 0.0
C1761 C 0.84104 0.87528 0.30122 0.0
C1762 C 0.82458 0.87486 0.32003 0.0
H1763 H 0.79851 0.91901 0.3573 0.0
H1764 H 0.82254 0.90862 0.3374 0.0
H1765 H 0.75497 0.91426 0.33784 0.0
H1766 H 0.71379 0.89574 0.31567 0.0
H1767 H 0.74256 0.8964 0.28245 0.0
H1768 H 0.14396 0.60827 0.0399 0.0
H1769 H 0.1356 0.60907 0.07456 0.0
H1770 H 0.02543 0.64476 0.06926 0.0
H1771 H 0.03309 0.64382 0.03446 0.0
H1772 H 0.15883 0.63477 0.09708 0.0
H1773 H 0.95339 0.61496 0.10552 0.0
H1774 H 0.9906 0.61157 0.08426 0.0
H1775 H 0.96347 0.62934 0.08855 0.0
C1776 C 0.1173 0.6161 0.04616 0.0
C1777 C 0.08897 0.62596 0.03468 0.0
C1778 C 0.11275 0.61659 0.06588 0.0
C1779 C 0.07959 0.62688 0.07436 0.0
C1780 C 0.05063 0.63662 0.0629 0.0
H1781 H 0.02864 0.64273 0.19552 0.0
H1782 H 0.0243 0.64439 0.16061 0.0
C1783 C 0.05526 0.63614 0.04314 0.0
C1784 C 0.07792 0.6279 0.09526 0.0
H1785 H -0.00032 0.62188 0.13346 0.0
C1786 C 0.12403 0.632 0.10506 0.0
C1787 C 0.03222 0.62441 0.1055 0.0
C1788 C 0.98207 0.61972 0.09551 0.0
C1789 C 0.12594 0.63252 0.12496 0.0
C1790 C 0.08081 0.62856 0.13524 0.0
C1791 C 0.03418 0.62486 0.12545 0.0
C1792 C 0.08231 0.62746 0.15616 0.0
C1793 C 0.17623 0.6373 0.13481 0.0
C1794 C 0.11573 0.61726 0.16503 0.0
C1795 C 0.11834 0.61635 0.1848 0.0
C1796 C 0.08718 0.62553 0.19597 0.0
C1797 C 0.05312 0.6356 0.18711 0.0
C1798 C 0.05051 0.63651 0.16728 0.0
H1799 H 0.20145 0.64377 0.12519 0.0
H1800 H 0.16785 0.64394 0.14764 0.0
H1801 H 0.19884 0.62751 0.13937 0.0
H1802 H 0.14 0.61005 0.15664 0.0
H1803 H 0.14536 0.60864 0.19136 0.0
H1804 H 0.95821 0.37095 0.94419 0.0
H1805 H 0.95251 0.36992 0.90941 0.0
H1806 H 0.86849 0.41092 0.90878 0.0
H1807 H 0.87083 0.41141 0.94347 0.0
H1808 H 0.8184 0.39131 0.88831 0.0
H1809 H 0.0283 0.39086 0.86818 0.0
H1810 H 0.01268 0.37647 0.88441 0.0
H1811 H 0.00748 0.3952 0.89195 0.0
C1812 C 0.93911 0.3798 0.93654 0.0
C1813 C 0.91513 0.39127 0.94641 0.0
C1814 C 0.93635 0.37929 0.91671 0.0
C1815 C 0.91069 0.39045 0.90651 0.0
C1816 C 0.88868 0.40223 0.91639 0.0
H1817 H 0.91374 0.40212 0.785 0.0
H1818 H 0.92594 0.40375 0.81945 0.0
C1819 C 0.89059 0.40259 0.93619 0.0
C1820 C 0.90252 0.38927 0.88572 0.0
H1821 H 0.96594 0.38461 0.84378 0.0
C1822 C 0.85071 0.38996 0.87855 0.0
C1823 C 0.94473 0.38758 0.87305 0.0
C1824 C 0.00143 0.38763 0.87977 0.0
C1825 C 0.83986 0.38905 0.85901 0.0
C1826 C 0.88191 0.38684 0.84639 0.0
C1827 C 0.93374 0.38614 0.85355 0.0
C1828 C 0.87332 0.38586 0.82561 0.0
C1829 C 0.78368 0.39088 0.8521 0.0
C1830 C 0.83978 0.37522 0.81767 0.0
C1831 C 0.83166 0.37455 0.798 0.0
C1832 C 0.85786 0.3843 0.78606 0.0
C1833 C 0.89221 0.3947 0.79399 0.0
C1834 C 0.89964 0.39554 0.81362 0.0
H1835 H 0.75931 0.39661 0.86277 0.0
H1836 H 0.78168 0.3971 0.83857 0.0
H1837 H 0.76607 0.37995 0.84959 0.0
H1838 H 0.82014 0.36741 0.82666 0.0
H1839 H 0.80523 0.36639 0.7921 0.0
H1840 H 0.61112 0.14433 0.19621 0.0
H1841 H 0.62966 0.14476 0.16209 0.0
H1842 H 0.76209 0.11598 0.17145 0.0
H1843 H 0.74339 0.11548 0.20561 0.0
H1844 H 0.72176 0.15234 0.14157 0.0
H1845 H 0.66687 0.09378 0.13328 0.0
H1846 H 0.65165 0.10414 0.15434 0.0
H1847 H 0.71757 0.0978 0.1506 0.0
C1848 C 0.64458 0.13829 0.19096 0.0
C1849 C 0.67563 0.12977 0.20332 0.0
C1850 C 0.65511 0.13852 0.17156 0.0
C1851 C 0.69674 0.13024 0.16431 0.0
C1852 C 0.72925 0.12224 0.17679 0.0
H1853 H 0.74466 0.11295 0.04291 0.0
H1854 H 0.76176 0.11415 0.07743 0.0
C1855 C 0.71862 0.12197 0.1962 0.0
C1856 C 0.70395 0.12942 0.14357 0.0
H1857 H 0.68895 0.10652 0.10559 0.0
C1858 C 0.7152 0.1423 0.13368 0.0
C1859 C 0.69553 0.11627 0.13342 0.0
C1860 C 0.68185 0.10221 0.14337 0.0
C1861 C 0.71677 0.14247 0.11377 0.0
C1862 C 0.70605 0.12947 0.10361 0.0
C1863 C 0.69719 0.11645 0.11351 0.0
C1864 C 0.69855 0.1294 0.08278 0.0
C1865 C 0.72898 0.15659 0.10376 0.0
C1866 C 0.65701 0.13741 0.07457 0.0
C1867 C 0.64706 0.13664 0.05506 0.0
C1868 C 0.67848 0.12784 0.04349 0.0
C1869 C 0.72006 0.11981 0.05167 0.0
C1870 C 0.72993 0.12053 0.07125 0.0
H1871 H 0.75161 0.16415 0.11316 0.0
H1872 H 0.75175 0.1546 0.09065 0.0
H1873 H 0.69155 0.16208 0.09965 0.0
H1874 H 0.63149 0.14399 0.08333 0.0
H1875 H 0.61423 0.14272 0.04903 0.0
H1876 H 0.3972 0.871 0.79314 0.0
H1877 H 0.39346 0.87169 0.82795 0.0
H1878 H 0.24858 0.89622 0.8244 0.0
H1879 H 0.25213 0.89546 0.78949 0.0
H1880 H 0.32784 0.90814 0.84919 0.0
H1881 H 0.29225 0.84933 0.86301 0.0
H1882 H 0.3465 0.85297 0.84764 0.0
H1883 H 0.28077 0.85759 0.83999 0.0
C1884 C 0.3642 0.87632 0.79985 0.0
C1885 C 0.32472 0.88309 0.78882 0.0
C1886 C 0.36207 0.87671 0.81965 0.0
C1887 C 0.32036 0.88383 0.82864 0.0
C1888 C 0.28086 0.8906 0.81764 0.0
H1889 H 0.26836 0.90199 0.94902 0.0
H1890 H 0.25941 0.90103 0.91417 0.0
C1891 C 0.28293 0.89018 0.79781 0.0
C1892 C 0.31946 0.88476 0.84956 0.0
H1893 H 0.31625 0.86399 0.88973 0.0
C1894 C 0.32475 0.89853 0.85811 0.0
C1895 C 0.31557 0.87216 0.86102 0.0
C1896 C 0.30798 0.85718 0.85249 0.0
C1897 C 0.32804 0.9 0.87794 0.0
C1898 C 0.32492 0.88737 0.8894 0.0
C1899 C 0.31867 0.87363 0.88084 0.0
C1900 C 0.32986 0.8881 0.91031 0.0
C1901 C 0.33669 0.91496 0.88643 0.0
C1902 C 0.37182 0.88094 0.91955 0.0
C1903 C 0.37671 0.88143 0.93931 0.0
C1904 C 0.33954 0.88901 0.95007 0.0
C1905 C 0.29751 0.89616 0.94087 0.0
C1906 C 0.29254 0.89565 0.92107 0.0
H1907 H 0.35018 0.92294 0.87566 0.0
H1908 H 0.29912 0.91903 0.8923 0.0
H1909 H 0.36621 0.91453 0.89823 0.0
H1910 H 0.40095 0.87506 0.91144 0.0
H1911 H 0.40963 0.87595 0.94621 0.0
H1912 H 0.49839 0.60427 0.53237 0.0
H1913 H 0.4755 0.6039 0.5662 0.0
H1914 H 0.60245 0.6339 0.57851 0.0
H1915 H 0.62455 0.63444 0.5448 0.0
H1916 H 0.5363 0.59432 0.59469 0.0
H1917 H 0.48598 0.65183 0.60872 0.0
H1918 H 0.48984 0.64456 0.58489 0.0
H1919 H 0.54839 0.6507 0.59729 0.0
C1920 C 0.52072 0.61092 0.54237 0.0
C1921 C 0.56302 0.61941 0.53618 0.0
C1922 C 0.50761 0.61074 0.56159 0.0
C1923 C 0.53662 0.61909 0.5748 0.0
C1924 C 0.57848 0.62773 0.56849 0.0
H1925 H 0.64445 0.60467 0.68564 0.0
H1926 H 0.61949 0.60389 0.65192 0.0
C1927 C 0.59134 0.62797 0.5493 0.0
C1928 C 0.52719 0.61772 0.59541 0.0
H1929 H 0.5197 0.638 0.63592 0.0
C1930 C 0.53142 0.60383 0.6037 0.0
C1931 C 0.51953 0.63007 0.60712 0.0
C1932 C 0.51006 0.64509 0.59899 0.0
C1933 C 0.53257 0.60212 0.6235 0.0
C1934 C 0.53078 0.61467 0.63521 0.0
C1935 C 0.5221 0.62841 0.62692 0.0
C1936 C 0.54323 0.614 0.65579 0.0
C1937 C 0.5371 0.58693 0.63164 0.0
C1938 C 0.50917 0.62023 0.66908 0.0
C1939 C 0.5238 0.62085 0.6883 0.0
C1940 C 0.57264 0.61527 0.69439 0.0
C1941 C 0.60631 0.60886 0.68119 0.0
C1942 C 0.59189 0.60832 0.662 0.0
H1943 H 0.51848 0.57878 0.62196 0.0
H1944 H 0.57932 0.584 0.63324 0.0
H1945 H 0.51846 0.58618 0.64579 0.0
H1946 H 0.4717 0.6248 0.66453 0.0
H1947 H 0.49734 0.62582 0.69836 0.0
H1948 H 0.31359 0.39877 0.28208 0.0
H1949 H 0.30223 0.39794 0.31656 0.0
H1950 H 0.44315 0.3719 0.32237 0.0
H1951 H 0.45495 0.37283 0.28771 0.0
H1952 H 0.34983 0.36155 0.34233 0.0
H1953 H 0.39662 0.41994 0.35631 0.0
H1954 H 0.34865 0.41655 0.33777 0.0
H1955 H 0.41545 0.4107 0.33474 0.0
C1956 C 0.34252 0.39306 0.29078 0.0
C1957 C 0.3857 0.38609 0.28247 0.0
C1958 C 0.3359 0.39256 0.31038 0.0
C1959 C 0.37233 0.38506 0.32189 0.0
C1960 C 0.41495 0.37782 0.31361 0.0
H1961 H 0.40816 0.36839 0.44154 0.0
H1962 H 0.41211 0.36819 0.40678 0.0
C1963 C 0.42166 0.37836 0.29395 0.0
C1964 C 0.36533 0.38464 0.3426 0.0
H1965 H 0.36509 0.40616 0.38216 0.0
C1966 C 0.35329 0.37126 0.3511 0.0
C1967 C 0.3695 0.39741 0.3538 0.0
C1968 C 0.38365 0.41197 0.34528 0.0
C1969 C 0.34486 0.37031 0.3707 0.0
C1970 C 0.34965 0.38305 0.38196 0.0
C1971 C 0.36128 0.39645 0.3734 0.0
C1972 C 0.34527 0.38261 0.4028 0.0
C1973 C 0.33024 0.35576 0.37914 0.0
C1974 C 0.307 0.39102 0.41197 0.0
C1975 C 0.30487 0.39117 0.4318 0.0
C1976 C 0.34112 0.38298 0.44257 0.0
C1977 C 0.37932 0.37459 0.43339 0.0
C1978 C 0.38149 0.37444 0.41362 0.0
H1979 H 0.31364 0.34824 0.36819 0.0
H1980 H 0.36602 0.35056 0.38535 0.0
H1981 H 0.30112 0.35711 0.39063 0.0
H1982 H 0.27906 0.39749 0.40378 0.0
H1983 H 0.27526 0.39773 0.43873 0.0
loop_
_geom_bond_atom_site_label_1
_geom_bond_atom_site_label_2
_geom_bond_distance
_geom_bond_site_symmetry_2
_ccdc_geom_bond_type
Co0 O3 1.970 . S
Co0 N17 1.989 . S
Co0 O25 1.967 . S
Co0 O32 1.920 . S
Co1 O4 1.966 . S
Co1 N10 2.022 . S
Co1 N18 1.993 . S
Co1 O26 1.941 . S
C2 O3 1.258 . S
C2 O4 1.263 . S
O3 Co0 1.970 . S
O3 C2 1.258 . S
O4 Co1 1.966 . S
O4 C2 1.263 . S
C5 O6 1.235 . S
C5 O32 1.289 . S
O6 C5 1.235 . S
C7 C9 1.400 . S
C7 N10 1.351 . S
C7 C12 1.501 . S
C8 C9 1.387 . S
C8 N11 1.341 . S
C9 C7 1.400 . S
C9 C8 1.387 . S
N10 Co1 2.022 . S
N10 C7 1.351 . S
N10 N11 1.365 . S
N11 C8 1.341 . S
N11 N10 1.365 . S
N11 H31 0.862 . S
C12 C7 1.501 . S
C12 H13 0.961 . S
C12 H14 0.961 . S
C12 H15 0.960 . S
H13 C12 0.961 . S
H14 C12 0.961 . S
H15 C12 0.960 . S
C16 N17 1.342 . S
C16 C20 1.401 . S
C16 C21 1.499 . S
N17 Co0 1.989 . S
N17 C16 1.342 . S
N17 N18 1.388 . S
N18 Co1 1.993 . S
N18 N17 1.388 . S
N18 C19 1.346 . S
C19 N18 1.346 . S
C19 C20 1.396 . S
C19 C29 1.510 . S
C20 C16 1.401 . S
C20 C19 1.396 . S
C21 C16 1.499 . S
C21 H22 0.959 . S
C21 H23 0.960 . S
C21 H24 0.961 . S
H22 C21 0.959 . S
H23 C21 0.960 . S
H24 C21 0.961 . S
O25 Co0 1.967 . S
O25 C33 1.258 . S
O26 Co1 1.941 . S
O26 C33 1.266 . S
H27 C29 0.959 . S
H28 C29 0.961 . S
C29 C19 1.510 . S
C29 H27 0.959 . S
C29 H28 0.961 . S
C29 H30 0.960 . S
H30 C29 0.960 . S
H31 N11 0.862 . S
O32 Co0 1.920 . S
O32 C5 1.289 . S
C33 O25 1.258 . S
C33 O26 1.266 . S
Co34 O37 1.970 . S
Co34 N51 1.989 . S
Co34 O59 1.967 . S
Co34 O66 1.920 . S
Co35 O38 1.966 . S
Co35 N44 2.022 . S
Co35 N52 1.993 . S
Co35 O60 1.941 . S
C36 O37 1.258 . S
C36 O38 1.263 . S
O37 Co34 1.970 . S
O37 C36 1.258 . S
O38 Co35 1.966 . S
O38 C36 1.263 . S
C39 O40 1.235 . S
C39 O66 1.289 . S
O40 C39 1.235 . S
C41 C43 1.400 . S
C41 N44 1.351 . S
C41 C46 1.501 . S
C42 C43 1.387 . S
C42 N45 1.341 . S
C43 C41 1.400 . S
C43 C42 1.387 . S
N44 Co35 2.022 . S
N44 C41 1.351 . S
N44 N45 1.365 . S
N45 C42 1.341 . S
N45 N44 1.365 . S
N45 H65 0.862 . S
C46 C41 1.501 . S
C46 H47 0.961 . S
C46 H48 0.961 1_455 S
C46 H49 0.960 1_455 S
H47 C46 0.961 . S
H48 C46 0.961 1_655 S
H49 C46 0.960 1_655 S
C50 N51 1.342 . S
C50 C54 1.401 . S
C50 C55 1.499 . S
N51 Co34 1.989 . S
N51 C50 1.342 . S
N51 N52 1.388 . S
N52 Co35 1.993 . S
N52 N51 1.388 . S
N52 C53 1.346 . S
C53 N52 1.346 . S
C53 C54 1.396 . S
C53 C63 1.510 . S
C54 C50 1.401 . S
C54 C53 1.396 . S
C55 C50 1.499 . S
C55 H56 0.959 . S
C55 H57 0.960 . S
C55 H58 0.961 . S
H56 C55 0.959 . S
H57 C55 0.960 . S
H58 C55 0.961 . S
O59 Co34 1.967 . S
O59 C67 1.258 . S
O60 Co35 1.941 . S
O60 C67 1.266 . S
H61 C63 0.959 . S
H62 C63 0.961 . S
C63 C53 1.510 . S
C63 H61 0.959 . S
C63 H62 0.961 . S
C63 H64 0.960 . S
H64 C63 0.960 . S
H65 N45 0.862 . S
O66 Co34 1.920 . S
O66 C39 1.289 . S
C67 O59 1.258 . S
C67 O60 1.266 . S
Co68 O71 1.970 . S
Co68 N85 1.989 . S
Co68 O93 1.967 . S
Co68 O100 1.920 . S
Co69 O72 1.966 . S
Co69 N78 2.022 . S
Co69 N86 1.993 . S
Co69 O94 1.941 . S
C70 O71 1.258 . S
C70 O72 1.263 . S
O71 Co68 1.970 . S
O71 C70 1.258 . S
O72 Co69 1.966 . S
O72 C70 1.263 . S
C73 O74 1.235 . S
C73 O100 1.289 . S
O74 C73 1.235 . S
C75 C77 1.400 . S
C75 N78 1.351 . S
C75 C80 1.501 . S
C76 C77 1.387 . S
C76 N79 1.341 . S
C77 C75 1.400 . S
C77 C76 1.387 . S
N78 Co69 2.022 . S
N78 C75 1.351 . S
N78 N79 1.365 . S
N79 C76 1.341 . S
N79 N78 1.365 . S
N79 H99 0.862 . S
C80 C75 1.501 . S
C80 H81 0.961 . S
C80 H82 0.961 . S
C80 H83 0.960 . S
H81 C80 0.961 . S
H82 C80 0.961 . S
H83 C80 0.960 . S
C84 N85 1.342 . S
C84 C88 1.401 . S
C84 C89 1.499 . S
N85 Co68 1.989 . S
N85 C84 1.342 . S
N85 N86 1.388 . S
N86 Co69 1.993 . S
N86 N85 1.388 . S
N86 C87 1.346 . S
C87 N86 1.346 . S
C87 C88 1.396 . S
C87 C97 1.510 . S
C88 C84 1.401 . S
C88 C87 1.396 . S
C89 C84 1.499 . S
C89 H90 0.959 . S
C89 H91 0.960 . S
C89 H92 0.961 . S
H90 C89 0.959 . S
H91 C89 0.960 . S
H92 C89 0.961 . S
O93 Co68 1.967 . S
O93 C101 1.258 . S
O94 Co69 1.941 . S
O94 C101 1.266 . S
H95 C97 0.959 . S
H96 C97 0.961 . S
C97 C87 1.510 . S
C97 H95 0.959 . S
C97 H96 0.961 . S
C97 H98 0.960 . S
H98 C97 0.960 . S
H99 N79 0.862 . S
O100 Co68 1.920 . S
O100 C73 1.289 . S
C101 O93 1.258 . S
C101 O94 1.266 . S
Co102 O105 1.970 . S
Co102 N119 1.989 . S
Co102 O127 1.967 . S
Co102 O134 1.920 . S
Co103 O106 1.966 . S
Co103 N112 2.022 . S
Co103 N120 1.993 . S
Co103 O128 1.941 . S
C104 O105 1.258 . S
C104 O106 1.263 . S
O105 Co102 1.970 . S
O105 C104 1.258 . S
O106 Co103 1.966 . S
O106 C104 1.263 . S
C107 O108 1.235 . S
C107 O134 1.289 . S
O108 C107 1.235 . S
C109 C111 1.400 . S
C109 N112 1.351 . S
C109 C114 1.501 . S
C110 C111 1.387 . S
C110 N113 1.341 . S
C111 C109 1.400 . S
C111 C110 1.387 . S
N112 Co103 2.022 . S
N112 C109 1.351 . S
N112 N113 1.365 . S
N113 C110 1.341 . S
N113 N112 1.365 . S
N113 H133 0.862 . S
C114 C109 1.501 . S
C114 H115 0.961 . S
C114 H116 0.961 1_655 S
C114 H117 0.960 1_655 S
H115 C114 0.961 . S
H116 C114 0.961 1_455 S
H117 C114 0.960 1_455 S
C118 N119 1.342 . S
C118 C122 1.401 . S
C118 C123 1.499 . S
N119 Co102 1.989 . S
N119 C118 1.342 . S
N119 N120 1.388 . S
N120 Co103 1.993 . S
N120 N119 1.388 . S
N120 C121 1.346 . S
C121 N120 1.346 . S
C121 C122 1.396 . S
C121 C131 1.510 . S
C122 C118 1.401 . S
C122 C121 1.396 . S
C123 C118 1.499 . S
C123 H124 0.959 . S
C123 H125 0.960 . S
C123 H126 0.961 . S
H124 C123 0.959 . S
H125 C123 0.960 . S
H126 C123 0.961 . S
O127 Co102 1.967 . S
O127 C135 1.258 . S
O128 Co103 1.941 . S
O128 C135 1.266 . S
H129 C131 0.959 . S
H130 C131 0.961 . S
C131 C121 1.510 . S
C131 H129 0.959 . S
C131 H130 0.961 . S
C131 H132 0.960 . S
H132 C131 0.960 . S
H133 N113 0.862 . S
O134 Co102 1.920 . S
O134 C107 1.289 . S
C135 O127 1.258 . S
C135 O128 1.266 . S
Co136 O139 1.970 . S
Co136 N153 2.037 . S
Co136 O161 1.967 . S
Co136 O168 1.920 . S
Co137 O140 1.966 . S
Co137 N146 2.022 . S
Co137 N154 1.993 . S
Co137 O162 1.941 . S
C138 O139 1.258 . S
C138 O140 1.263 . S
O139 Co136 1.970 . S
O139 C138 1.258 . S
O140 Co137 1.966 . S
O140 C138 1.263 . S
C141 O142 1.235 . S
C141 O168 1.289 . S
O142 C141 1.235 . S
C143 C145 1.400 . S
C143 N146 1.351 . S
C143 C148 1.501 . S
C144 C145 1.387 . S
C144 N147 1.341 . S
C145 C143 1.400 . S
C145 C144 1.387 . S
N146 Co137 2.022 . S
N146 C143 1.351 . S
N146 N147 1.365 . S
N147 C144 1.341 . S
N147 N146 1.365 . S
N147 H167 0.862 . S
C148 C143 1.501 . S
C148 H149 0.961 . S
C148 H150 0.961 . S
C148 H151 0.960 . S
H149 C148 0.961 . S
H150 C148 0.961 . S
H151 C148 0.960 . S
C152 N153 1.291 1_554 S
C152 C156 1.401 . S
C152 C157 1.499 . S
N153 Co136 2.037 . S
N153 C152 1.291 1_556 S
N153 N154 1.390 . S
N154 Co137 1.993 . S
N154 N153 1.390 . S
N154 C155 1.346 1_556 S
C155 N154 1.346 1_554 S
C155 C156 1.396 . S
C155 C165 1.510 . S
C156 C152 1.401 . S
C156 C155 1.396 . S
C157 C152 1.499 . S
C157 H158 0.959 . S
C157 H159 0.960 . S
C157 H160 0.961 . S
H158 C157 0.959 . S
H159 C157 0.960 . S
H160 C157 0.961 . S
O161 Co136 1.967 . S
O161 C169 1.258 . S
O162 Co137 1.941 . S
O162 C169 1.266 . S
H163 C165 0.959 . S
H164 C165 0.961 . S
C165 C155 1.510 . S
C165 H163 0.959 . S
C165 H164 0.961 . S
C165 H166 0.960 . S
H166 C165 0.960 . S
H167 N147 0.862 . S
O168 Co136 1.920 . S
O168 C141 1.289 . S
C169 O161 1.258 . S
C169 O162 1.266 . S
Co170 O173 1.970 . S
Co170 N187 1.989 . S
Co170 O195 1.967 . S
Co170 O202 1.920 . S
Co171 O174 1.966 . S
Co171 N180 2.022 . S
Co171 N188 1.993 . S
Co171 O196 1.941 . S
C172 O173 1.258 . S
C172 O174 1.263 . S
O173 Co170 1.970 . S
O173 C172 1.258 . S
O174 Co171 1.966 . S
O174 C172 1.263 . S
C175 O176 1.235 . S
C175 O202 1.289 . S
O176 C175 1.235 . S
C177 C179 1.400 . S
C177 N180 1.351 . S
C177 C182 1.501 . S
C178 C179 1.387 . S
C178 N181 1.341 . S
C179 C177 1.400 . S
C179 C178 1.387 . S
N180 Co171 2.022 . S
N180 C177 1.351 . S
N180 N181 1.365 . S
N181 C178 1.341 . S
N181 N180 1.365 . S
N181 H201 0.862 . S
C182 C177 1.501 . S
C182 H183 0.961 . S
C182 H184 0.961 1_455 S
C182 H185 0.960 1_455 S
H183 C182 0.961 . S
H184 C182 0.961 1_655 S
H185 C182 0.960 1_655 S
C186 N187 1.342 . S
C186 C190 1.401 . S
C186 C191 1.499 . S
N187 Co170 1.989 . S
N187 C186 1.342 . S
N187 N188 1.388 . S
N188 Co171 1.993 . S
N188 N187 1.388 . S
N188 C189 1.346 . S
C189 N188 1.346 . S
C189 C190 1.396 . S
C189 C199 1.510 . S
C190 C186 1.401 . S
C190 C189 1.396 . S
C191 C186 1.499 . S
C191 H192 0.959 . S
C191 H193 0.960 . S
C191 H194 0.961 . S
H192 C191 0.959 . S
H193 C191 0.960 . S
H194 C191 0.961 . S
O195 Co170 1.967 . S
O195 C203 1.258 . S
O196 Co171 1.941 . S
O196 C203 1.266 . S
H197 C199 0.959 . S
H198 C199 0.961 . S
C199 C189 1.510 . S
C199 H197 0.959 . S
C199 H198 0.961 . S
C199 H200 0.960 . S
H200 C199 0.960 . S
H201 N181 0.862 . S
O202 Co170 1.920 . S
O202 C175 1.289 . S
C203 O195 1.258 . S
C203 O196 1.266 . S
Co204 O207 1.970 . S
Co204 N221 2.037 . S
Co204 O229 1.967 . S
Co204 O236 1.920 . S
Co205 O208 1.966 . S
Co205 N214 2.022 . S
Co205 N222 1.993 . S
Co205 O230 1.941 . S
C206 O207 1.258 . S
C206 O208 1.263 . S
O207 Co204 1.970 . S
O207 C206 1.258 . S
O208 Co205 1.966 . S
O208 C206 1.263 . S
C209 O210 1.235 . S
C209 O236 1.289 . S
O210 C209 1.235 . S
C211 C213 1.400 . S
C211 N214 1.351 . S
C211 C216 1.501 . S
C212 C213 1.387 . S
C212 N215 1.341 . S
C213 C211 1.400 . S
C213 C212 1.387 . S
N214 Co205 2.022 . S
N214 C211 1.351 . S
N214 N215 1.365 . S
N215 C212 1.341 . S
N215 N214 1.365 . S
N215 H235 0.862 . S
C216 C211 1.501 . S
C216 H217 0.961 . S
C216 H218 0.961 . S
C216 H219 0.960 . S
H217 C216 0.961 . S
H218 C216 0.961 . S
H219 C216 0.960 . S
C220 N221 1.291 1_556 S
C220 C224 1.401 . S
C220 C225 1.499 . S
N221 Co204 2.037 . S
N221 C220 1.291 1_554 S
N221 N222 1.390 . S
N222 Co205 1.993 . S
N222 N221 1.390 . S
N222 C223 1.346 1_554 S
C223 N222 1.346 1_556 S
C223 C224 1.396 . S
C223 C233 1.510 . S
C224 C220 1.401 . S
C224 C223 1.396 . S
C225 C220 1.499 . S
C225 H226 0.959 . S
C225 H227 0.960 . S
C225 H228 0.961 . S
H226 C225 0.959 . S
H227 C225 0.960 . S
H228 C225 0.961 . S
O229 Co204 1.967 . S
O229 C237 1.258 . S
O230 Co205 1.941 . S
O230 C237 1.266 . S
H231 C233 0.959 . S
H232 C233 0.961 . S
C233 C223 1.510 . S
C233 H231 0.959 . S
C233 H232 0.961 . S
C233 H234 0.960 . S
H234 C233 0.960 . S
H235 N215 0.862 . S
O236 Co204 1.920 . S
O236 C209 1.289 . S
C237 O229 1.258 . S
C237 O230 1.266 . S
Co238 O241 1.970 . S
Co238 N255 1.989 . S
Co238 O263 1.967 . S
Co238 O270 1.920 . S
Co239 O242 1.966 . S
Co239 N248 2.022 . S
Co239 N256 1.993 . S
Co239 O264 1.941 . S
C240 O241 1.258 . S
C240 O242 1.263 . S
O241 Co238 1.970 . S
O241 C240 1.258 . S
O242 Co239 1.966 . S
O242 C240 1.263 . S
C243 O244 1.235 . S
C243 O270 1.289 . S
O244 C243 1.235 . S
C245 C247 1.400 . S
C245 N248 1.351 . S
C245 C250 1.501 . S
C246 C247 1.387 . S
C246 N249 1.341 . S
C247 C245 1.400 . S
C247 C246 1.387 . S
N248 Co239 2.022 . S
N248 C245 1.351 . S
N248 N249 1.365 . S
N249 C246 1.341 . S
N249 N248 1.365 . S
N249 H269 0.862 . S
C250 C245 1.501 . S
C250 H251 0.961 . S
C250 H252 0.961 1_655 S
C250 H253 0.960 1_655 S
H251 C250 0.961 . S
H252 C250 0.961 1_455 S
H253 C250 0.960 1_455 S
C254 N255 1.342 . S
C254 C258 1.401 . S
C254 C259 1.499 . S
N255 Co238 1.989 . S
N255 C254 1.342 . S
N255 N256 1.388 . S
N256 Co239 1.993 . S
N256 N255 1.388 . S
N256 C257 1.346 . S
C257 N256 1.346 . S
C257 C258 1.396 . S
C257 C267 1.510 . S
C258 C254 1.401 . S
C258 C257 1.396 . S
C259 C254 1.499 . S
C259 H260 0.959 . S
C259 H261 0.960 . S
C259 H262 0.961 . S
H260 C259 0.959 . S
H261 C259 0.960 . S
H262 C259 0.961 . S
O263 Co238 1.967 . S
O263 C271 1.258 . S
O264 Co239 1.941 . S
O264 C271 1.266 . S
H265 C267 0.959 . S
H266 C267 0.961 . S
C267 C257 1.510 . S
C267 H265 0.959 . S
C267 H266 0.961 . S
C267 H268 0.960 . S
H268 C267 0.960 . S
H269 N249 0.862 . S
O270 Co238 1.920 . S
O270 C243 1.289 . S
C271 O263 1.258 . S
C271 O264 1.266 . S
Co272 O275 1.970 . S
Co272 N289 2.037 . S
Co272 O297 1.967 . S
Co272 O304 1.920 . S
Co273 O276 1.966 . S
Co273 N282 2.022 . S
Co273 N290 1.993 . S
Co273 O298 1.941 . S
C274 O275 1.258 . S
C274 O276 1.263 . S
O275 Co272 1.970 . S
O275 C274 1.258 . S
O276 Co273 1.966 . S
O276 C274 1.263 . S
C277 O278 1.235 . S
C277 O304 1.289 . S
O278 C277 1.235 . S
C279 C281 1.400 . S
C279 N282 1.351 . S
C279 C284 1.501 . S
C280 C281 1.387 . S
C280 N283 1.341 . S
C281 C279 1.400 . S
C281 C280 1.387 . S
N282 Co273 2.022 . S
N282 C279 1.351 . S
N282 N283 1.365 . S
N283 C280 1.341 . S
N283 N282 1.365 . S
N283 H303 0.862 . S
C284 C279 1.501 . S
C284 H285 0.961 . S
C284 H286 0.961 . S
C284 H287 0.960 . S
H285 C284 0.961 . S
H286 C284 0.961 . S
H287 C284 0.960 . S
C288 N289 1.291 1_554 S
C288 C292 1.401 . S
C288 C293 1.499 . S
N289 Co272 2.037 . S
N289 C288 1.291 1_556 S
N289 N290 1.390 . S
N290 Co273 1.993 . S
N290 N289 1.390 . S
N290 C291 1.346 1_556 S
C291 N290 1.346 1_554 S
C291 C292 1.396 . S
C291 C301 1.510 . S
C292 C288 1.401 . S
C292 C291 1.396 . S
C293 C288 1.499 . S
C293 H294 0.959 . S
C293 H295 0.960 . S
C293 H296 0.961 . S
H294 C293 0.959 . S
H295 C293 0.960 . S
H296 C293 0.961 . S
O297 Co272 1.967 . S
O297 C305 1.258 . S
O298 Co273 1.941 . S
O298 C305 1.266 . S
H299 C301 0.959 . S
H300 C301 0.961 . S
C301 C291 1.510 . S
C301 H299 0.959 . S
C301 H300 0.961 . S
C301 H302 0.960 . S
H302 C301 0.960 . S
H303 N283 0.862 . S
O304 Co272 1.920 . S
O304 C277 1.289 . S
C305 O297 1.258 . S
C305 O298 1.266 . S
Co306 O309 1.970 . S
Co306 N323 1.989 . S
Co306 O331 1.967 . S
Co306 O338 1.920 . S
Co307 O310 1.966 . S
Co307 N316 2.022 . S
Co307 N324 1.993 . S
Co307 O332 1.941 . S
C308 O309 1.258 . S
C308 O310 1.263 . S
O309 Co306 1.970 . S
O309 C308 1.258 . S
O310 Co307 1.966 . S
O310 C308 1.263 . S
C311 O312 1.235 . S
C311 O338 1.289 . S
O312 C311 1.235 . S
C313 C315 1.400 . S
C313 N316 1.351 . S
C313 C318 1.501 . S
C314 C315 1.387 . S
C314 N317 1.341 . S
C315 C313 1.400 . S
C315 C314 1.387 . S
N316 Co307 2.022 . S
N316 C313 1.351 . S
N316 N317 1.365 . S
N317 C314 1.341 . S
N317 N316 1.365 . S
N317 H337 0.862 . S
C318 C313 1.501 . S
C318 H319 0.961 . S
C318 H320 0.961 . S
C318 H321 0.960 . S
H319 C318 0.961 . S
H320 C318 0.961 . S
H321 C318 0.960 . S
C322 N323 1.342 . S
C322 C326 1.401 . S
C322 C327 1.499 . S
N323 Co306 1.989 . S
N323 C322 1.342 . S
N323 N324 1.388 . S
N324 Co307 1.993 . S
N324 N323 1.388 . S
N324 C325 1.346 . S
C325 N324 1.346 . S
C325 C326 1.396 . S
C325 C335 1.510 . S
C326 C322 1.401 . S
C326 C325 1.396 . S
C327 C322 1.499 . S
C327 H328 0.959 . S
C327 H329 0.960 . S
C327 H330 0.961 . S
H328 C327 0.959 . S
H329 C327 0.960 . S
H330 C327 0.961 . S
O331 Co306 1.967 . S
O331 C339 1.258 . S
O332 Co307 1.941 . S
O332 C339 1.266 . S
H333 C335 0.959 . S
H334 C335 0.961 . S
C335 C325 1.510 . S
C335 H333 0.959 . S
C335 H334 0.961 . S
C335 H336 0.960 . S
H336 C335 0.960 . S
H337 N317 0.862 . S
O338 Co306 1.920 . S
O338 C311 1.289 . S
C339 O331 1.258 . S
C339 O332 1.266 . S
Co340 O343 1.970 . S
Co340 N357 2.037 . S
Co340 O365 1.967 . S
Co340 O372 1.920 . S
Co341 O344 1.966 . S
Co341 N350 2.022 . S
Co341 N358 1.993 . S
Co341 O366 1.941 . S
C342 O343 1.258 . S
C342 O344 1.263 . S
O343 Co340 1.970 . S
O343 C342 1.258 . S
O344 Co341 1.966 . S
O344 C342 1.263 . S
C345 O346 1.235 . S
C345 O372 1.289 . S
O346 C345 1.235 . S
C347 C349 1.400 . S
C347 N350 1.351 . S
C347 C352 1.501 . S
C348 C349 1.387 . S
C348 N351 1.341 . S
C349 C347 1.400 . S
C349 C348 1.387 . S
N350 Co341 2.022 . S
N350 C347 1.351 . S
N350 N351 1.365 . S
N351 C348 1.341 . S
N351 N350 1.365 . S
N351 H371 0.862 . S
C352 C347 1.501 . S
C352 H353 0.961 . S
C352 H354 0.961 . S
C352 H355 0.960 . S
H353 C352 0.961 . S
H354 C352 0.961 . S
H355 C352 0.960 . S
C356 N357 1.291 1_556 S
C356 C360 1.401 . S
C356 C361 1.499 . S
N357 Co340 2.037 . S
N357 C356 1.291 1_554 S
N357 N358 1.390 . S
N358 Co341 1.993 . S
N358 N357 1.390 . S
N358 C359 1.346 1_554 S
C359 N358 1.346 1_556 S
C359 C360 1.396 . S
C359 C369 1.510 . S
C360 C356 1.401 . S
C360 C359 1.396 . S
C361 C356 1.499 . S
C361 H362 0.959 . S
C361 H363 0.960 . S
C361 H364 0.961 . S
H362 C361 0.959 . S
H363 C361 0.960 . S
H364 C361 0.961 . S
O365 Co340 1.967 . S
O365 C373 1.258 . S
O366 Co341 1.941 . S
O366 C373 1.266 . S
H367 C369 0.959 . S
H368 C369 0.961 . S
C369 C359 1.510 . S
C369 H367 0.959 . S
C369 H368 0.961 . S
C369 H370 0.960 . S
H370 C369 0.960 . S
H371 N351 0.862 . S
O372 Co340 1.920 . S
O372 C345 1.289 . S
C373 O365 1.258 . S
C373 O366 1.266 . S
Co374 O377 1.970 . S
Co374 N391 1.989 . S
Co374 O399 1.967 . S
Co374 O406 1.920 . S
Co375 O378 1.966 . S
Co375 N384 2.022 . S
Co375 N392 1.993 . S
Co375 O400 1.941 . S
C376 O377 1.258 . S
C376 O378 1.263 . S
O377 Co374 1.970 . S
O377 C376 1.258 . S
O378 Co375 1.966 . S
O378 C376 1.263 . S
C379 O380 1.235 . S
C379 O406 1.289 . S
O380 C379 1.235 . S
C381 C383 1.400 . S
C381 N384 1.351 . S
C381 C386 1.501 . S
C382 C383 1.387 . S
C382 N385 1.341 . S
C383 C381 1.400 . S
C383 C382 1.387 . S
N384 Co375 2.022 . S
N384 C381 1.351 . S
N384 N385 1.365 . S
N385 C382 1.341 . S
N385 N384 1.365 . S
N385 H405 0.862 . S
C386 C381 1.501 . S
C386 H387 0.961 . S
C386 H388 0.961 . S
C386 H389 0.960 . S
H387 C386 0.961 . S
H388 C386 0.961 . S
H389 C386 0.960 . S
C390 N391 1.342 . S
C390 C394 1.401 . S
C390 C395 1.499 . S
N391 Co374 1.989 . S
N391 C390 1.342 . S
N391 N392 1.388 . S
N392 Co375 1.993 . S
N392 N391 1.388 . S
N392 C393 1.346 . S
C393 N392 1.346 . S
C393 C394 1.396 . S
C393 C403 1.510 . S
C394 C390 1.401 . S
C394 C393 1.396 . S
C395 C390 1.499 . S
C395 H396 0.959 . S
C395 H397 0.960 . S
C395 H398 0.961 . S
H396 C395 0.959 . S
H397 C395 0.960 . S
H398 C395 0.961 . S
O399 Co374 1.967 . S
O399 C407 1.258 . S
O400 Co375 1.941 . S
O400 C407 1.266 . S
H401 C403 0.959 . S
H402 C403 0.961 . S
C403 C393 1.510 . S
C403 H401 0.959 . S
C403 H402 0.961 . S
C403 H404 0.960 . S
H404 C403 0.960 . S
H405 N385 0.862 . S
O406 Co374 1.920 . S
O406 C379 1.289 . S
C407 O399 1.258 . S
C407 O400 1.266 . S
Co408 O411 1.970 . S
Co408 N425 1.989 . S
Co408 O433 1.967 . S
Co408 O440 1.920 . S
Co409 O412 1.966 . S
Co409 N418 2.022 . S
Co409 N426 1.993 . S
Co409 O434 1.941 . S
C410 O411 1.258 . S
C410 O412 1.263 . S
O411 Co408 1.970 . S
O411 C410 1.258 . S
O412 Co409 1.966 . S
O412 C410 1.263 . S
C413 O414 1.235 . S
C413 O440 1.289 . S
O414 C413 1.235 . S
C415 C417 1.400 . S
C415 N418 1.351 . S
C415 C420 1.501 . S
C416 C417 1.387 . S
C416 N419 1.341 . S
C417 C415 1.400 . S
C417 C416 1.387 . S
N418 Co409 2.022 . S
N418 C415 1.351 . S
N418 N419 1.365 . S
N419 C416 1.341 . S
N419 N418 1.365 . S
N419 H439 0.862 . S
C420 C415 1.501 . S
C420 H421 0.961 . S
C420 H422 0.961 . S
C420 H423 0.960 . S
H421 C420 0.961 . S
H422 C420 0.961 . S
H423 C420 0.960 . S
C424 N425 1.342 . S
C424 C428 1.401 . S
C424 C429 1.499 . S
N425 Co408 1.989 . S
N425 C424 1.342 . S
N425 N426 1.388 . S
N426 Co409 1.993 . S
N426 N425 1.388 . S
N426 C427 1.346 . S
C427 N426 1.346 . S
C427 C428 1.396 . S
C427 C437 1.510 . S
C428 C424 1.401 . S
C428 C427 1.396 . S
C429 C424 1.499 . S
C429 H430 0.959 . S
C429 H431 0.960 . S
C429 H432 0.961 . S
H430 C429 0.959 . S
H431 C429 0.960 . S
H432 C429 0.961 . S
O433 Co408 1.967 . S
O433 C441 1.258 . S
O434 Co409 1.941 . S
O434 C441 1.266 . S
H435 C437 0.959 . S
H436 C437 0.961 . S
C437 C427 1.510 . S
C437 H435 0.959 . S
C437 H436 0.961 . S
C437 H438 0.960 . S
H438 C437 0.960 . S
H439 N419 0.862 . S
O440 Co408 1.920 . S
O440 C413 1.289 . S
C441 O433 1.258 . S
C441 O434 1.266 . S
Co442 O445 1.970 . S
Co442 N459 1.989 . S
Co442 O467 1.967 . S
Co442 O474 1.920 . S
Co443 O446 1.966 . S
Co443 N452 2.022 . S
Co443 N460 1.993 . S
Co443 O468 1.941 . S
C444 O445 1.258 . S
C444 O446 1.263 . S
O445 Co442 1.970 . S
O445 C444 1.258 . S
O446 Co443 1.966 . S
O446 C444 1.263 . S
C447 O448 1.235 . S
C447 O474 1.289 . S
O448 C447 1.235 . S
C449 C451 1.400 . S
C449 N452 1.351 . S
C449 C454 1.501 . S
C450 C451 1.387 . S
C450 N453 1.341 . S
C451 C449 1.400 . S
C451 C450 1.387 . S
N452 Co443 2.022 . S
N452 C449 1.351 . S
N452 N453 1.365 . S
N453 C450 1.341 . S
N453 N452 1.365 . S
N453 H473 0.862 . S
C454 C449 1.501 . S
C454 H455 0.961 . S
C454 H456 0.961 . S
C454 H457 0.960 . S
H455 C454 0.961 . S
H456 C454 0.961 . S
H457 C454 0.960 . S
C458 N459 1.342 . S
C458 C462 1.401 . S
C458 C463 1.499 . S
N459 Co442 1.989 . S
N459 C458 1.342 . S
N459 N460 1.388 . S
N460 Co443 1.993 . S
N460 N459 1.388 . S
N460 C461 1.346 . S
C461 N460 1.346 . S
C461 C462 1.396 . S
C461 C471 1.510 . S
C462 C458 1.401 . S
C462 C461 1.396 . S
C463 C458 1.499 . S
C463 H464 0.959 . S
C463 H465 0.960 . S
C463 H466 0.961 . S
H464 C463 0.959 . S
H465 C463 0.960 . S
H466 C463 0.961 . S
O467 Co442 1.967 . S
O467 C475 1.258 . S
O468 Co443 1.941 . S
O468 C475 1.266 . S
H469 C471 0.959 . S
H470 C471 0.961 . S
C471 C461 1.510 . S
C471 H469 0.959 . S
C471 H470 0.961 . S
C471 H472 0.960 . S
H472 C471 0.960 . S
H473 N453 0.862 . S
O474 Co442 1.920 . S
O474 C447 1.289 . S
C475 O467 1.258 . S
C475 O468 1.266 . S
Co476 O479 1.970 . S
Co476 N493 1.989 . S
Co476 O501 1.967 . S
Co476 O508 1.920 . S
Co477 O480 1.966 . S
Co477 N486 2.022 . S
Co477 N494 1.993 . S
Co477 O502 1.941 . S
C478 O479 1.258 . S
C478 O480 1.263 . S
O479 Co476 1.970 . S
O479 C478 1.258 . S
O480 Co477 1.966 . S
O480 C478 1.263 . S
C481 O482 1.235 . S
C481 O508 1.289 . S
O482 C481 1.235 . S
C483 C485 1.400 . S
C483 N486 1.351 . S
C483 C488 1.501 . S
C484 C485 1.387 . S
C484 N487 1.341 . S
C485 C483 1.400 . S
C485 C484 1.387 . S
N486 Co477 2.022 . S
N486 C483 1.351 . S
N486 N487 1.365 . S
N487 C484 1.341 . S
N487 N486 1.365 . S
N487 H507 0.862 . S
C488 C483 1.501 . S
C488 H489 0.961 . S
C488 H490 0.961 . S
C488 H491 0.960 . S
H489 C488 0.961 . S
H490 C488 0.961 . S
H491 C488 0.960 . S
C492 N493 1.342 . S
C492 C496 1.401 . S
C492 C497 1.499 . S
N493 Co476 1.989 . S
N493 C492 1.342 . S
N493 N494 1.388 . S
N494 Co477 1.993 . S
N494 N493 1.388 . S
N494 C495 1.346 . S
C495 N494 1.346 . S
C495 C496 1.396 . S
C495 C505 1.510 . S
C496 C492 1.401 . S
C496 C495 1.396 . S
C497 C492 1.499 . S
C497 H498 0.959 . S
C497 H499 0.960 . S
C497 H500 0.961 . S
H498 C497 0.959 . S
H499 C497 0.960 . S
H500 C497 0.961 . S
O501 Co476 1.967 . S
O501 C509 1.258 . S
O502 Co477 1.941 . S
O502 C509 1.266 . S
H503 C505 0.959 . S
H504 C505 0.961 . S
C505 C495 1.510 . S
C505 H503 0.959 . S
C505 H504 0.961 . S
C505 H506 0.960 . S
H506 C505 0.960 . S
H507 N487 0.862 . S
O508 Co476 1.920 . S
O508 C481 1.289 . S
C509 O501 1.258 . S
C509 O502 1.266 . S
Co510 O513 1.970 . S
Co510 N527 1.989 . S
Co510 O535 1.967 . S
Co510 O542 1.920 . S
Co511 O514 1.966 . S
Co511 N520 2.022 . S
Co511 N528 1.993 . S
Co511 O536 1.941 . S
C512 O513 1.258 . S
C512 O514 1.263 . S
O513 Co510 1.970 . S
O513 C512 1.258 . S
O514 Co511 1.966 . S
O514 C512 1.263 . S
C515 O516 1.235 . S
C515 O542 1.289 . S
O516 C515 1.235 . S
C517 C519 1.400 . S
C517 N520 1.351 . S
C517 C522 1.501 . S
C518 C519 1.387 . S
C518 N521 1.341 . S
C519 C517 1.400 . S
C519 C518 1.387 . S
N520 Co511 2.022 . S
N520 C517 1.351 . S
N520 N521 1.365 . S
N521 C518 1.341 . S
N521 N520 1.365 . S
N521 H541 0.862 . S
C522 C517 1.501 . S
C522 H523 0.961 . S
C522 H524 0.961 . S
C522 H525 0.960 . S
H523 C522 0.961 . S
H524 C522 0.961 . S
H525 C522 0.960 . S
C526 N527 1.342 . S
C526 C530 1.401 . S
C526 C531 1.499 . S
N527 Co510 1.989 . S
N527 C526 1.342 . S
N527 N528 1.388 . S
N528 Co511 1.993 . S
N528 N527 1.388 . S
N528 C529 1.346 . S
C529 N528 1.346 . S
C529 C530 1.396 . S
C529 C539 1.510 . S
C530 C526 1.401 . S
C530 C529 1.396 . S
C531 C526 1.499 . S
C531 H532 0.959 . S
C531 H533 0.960 . S
C531 H534 0.961 . S
H532 C531 0.959 . S
H533 C531 0.960 . S
H534 C531 0.961 . S
O535 Co510 1.967 . S
O535 C543 1.258 . S
O536 Co511 1.941 . S
O536 C543 1.266 . S
H537 C539 0.959 . S
H538 C539 0.961 . S
C539 C529 1.510 . S
C539 H537 0.959 . S
C539 H538 0.961 . S
C539 H540 0.960 . S
H540 C539 0.960 . S
H541 N521 0.862 . S
O542 Co510 1.920 . S
O542 C515 1.289 . S
C543 O535 1.258 . S
C543 O536 1.266 . S
H544 C552 0.929 . S
H545 C554 0.930 . S
H546 C556 0.930 . S
H547 C559 0.929 . S
H548 C562 0.930 . S
H549 C564 0.960 . S
H550 C564 0.960 . S
H551 C564 0.960 . S
C552 H544 0.929 . S
C552 C553 1.377 . S
C552 C554 1.384 . S
C553 C552 1.377 . S
C553 C559 1.390 . S
C554 H545 0.930 . S
C554 C552 1.384 . S
C554 C555 1.372 . S
C555 C554 1.372 . S
C555 C556 1.400 . S
C555 C560 1.490 . S
C556 H546 0.930 . S
C556 C555 1.400 . S
C556 C559 1.386 . S
H557 C573 0.930 . S
H558 C574 0.931 . S
C559 H547 0.929 . S
C559 C553 1.390 . S
C559 C556 1.386 . S
C560 C555 1.490 . S
C560 C562 1.395 . S
C560 C563 1.403 . S
H561 C567 0.930 . S
C562 H548 0.930 . S
C562 C560 1.395 . S
C562 C565 1.403 . S
C563 C560 1.403 . S
C563 C564 1.524 . S
C563 C567 1.400 . S
C564 H549 0.960 . S
C564 H550 0.960 . S
C564 H551 0.960 . S
C564 C563 1.524 . S
C565 C562 1.403 . S
C565 C566 1.392 . S
C565 C569 1.495 . S
C566 C565 1.392 . S
C566 C567 1.385 . S
C566 C568 1.478 . S
C567 H561 0.930 . S
C567 C563 1.400 . S
C567 C566 1.385 . S
C568 C566 1.478 . S
C568 C570 1.381 . S
C568 C574 1.383 . S
C569 C565 1.495 . S
C569 H575 0.959 . S
C569 H576 0.961 . S
C569 H577 0.960 . S
C570 C568 1.381 . S
C570 C571 1.394 . S
C570 H578 0.930 . S
C571 C570 1.394 . S
C571 C572 1.383 . S
C571 H579 0.929 . S
C572 C571 1.383 . S
C572 C573 1.377 . S
C573 H557 0.930 . S
C573 C572 1.377 . S
C573 C574 1.379 . S
C574 H558 0.931 . S
C574 C568 1.383 . S
C574 C573 1.379 . S
H575 C569 0.959 . S
H576 C569 0.961 . S
H577 C569 0.960 . S
H578 C570 0.930 . S
H579 C571 0.929 . S
H580 C588 0.929 . S
H581 C590 0.930 1_455 S
H582 C592 0.930 . S
H583 C595 0.929 . S
H584 C598 0.930 . S
H585 C600 0.928 1_545 S
H586 C600 0.983 . S
H587 C600 0.969 . S
C588 H580 0.929 . S
C588 C589 1.377 . S
C588 C590 1.384 . S
C589 C588 1.377 . S
C589 C595 1.390 . S
C590 H581 0.930 1_655 S
C590 C588 1.384 . S
C590 C591 1.372 . S
C591 C590 1.372 . S
C591 C592 1.400 . S
C591 C596 1.490 . S
C592 H582 0.930 . S
C592 C591 1.400 . S
C592 C595 1.386 . S
H593 C609 0.930 . S
H594 C610 0.931 1_655 S
C595 H583 0.929 . S
C595 C589 1.390 . S
C595 C592 1.386 . S
C596 C591 1.490 . S
C596 C598 1.395 1_655 S
C596 C599 1.467 . S
H597 C603 0.930 1_655 S
C598 H584 0.930 . S
C598 C596 1.395 1_455 S
C598 C601 1.446 . S
C599 C596 1.467 . S
C599 C600 1.523 . S
C599 C603 1.336 1_665 S
C600 H585 0.928 1_565 S
C600 H586 0.983 . S
C600 H587 0.969 . S
C600 C599 1.523 . S
C601 C598 1.446 . S
C601 C602 1.350 1_565 S
C601 C605 1.497 . S
C602 C601 1.350 1_545 S
C602 C603 1.387 . S
C602 C604 1.478 . S
C603 H597 0.930 1_455 S
C603 C599 1.336 1_445 S
C603 C602 1.387 . S
C604 C602 1.478 . S
C604 C606 1.381 . S
C604 C610 1.383 . S
C605 C601 1.497 . S
C605 H611 0.959 . S
C605 H612 0.961 1_565 S
C605 H613 0.960 1_565 S
C606 C604 1.381 . S
C606 C607 1.394 . S
C606 H614 0.930 . S
C607 C606 1.394 . S
C607 C608 1.383 . S
C607 H615 0.929 . S
C608 C607 1.383 . S
C608 C609 1.377 . S
C609 H593 0.930 . S
C609 C608 1.377 . S
C609 C610 1.379 . S
C610 H594 0.931 1_455 S
C610 C604 1.383 . S
C610 C609 1.379 . S
H611 C605 0.959 . S
H612 C605 0.961 1_545 S
H613 C605 0.960 1_545 S
H614 C606 0.930 . S
H615 C607 0.929 . S
H616 C624 0.929 . S
H617 C626 0.930 . S
H618 C628 0.930 . S
H619 C631 0.929 . S
H620 C634 0.929 1_545 S
H621 C636 0.960 . S
H622 C636 0.960 . S
H623 C636 0.960 . S
C624 H616 0.929 . S
C624 C625 1.377 . S
C624 C626 1.384 . S
C625 C624 1.377 . S
C625 C631 1.390 . S
C626 H617 0.930 . S
C626 C624 1.384 . S
C626 C627 1.372 . S
C627 C626 1.372 . S
C627 C628 1.400 . S
C627 C632 1.490 . S
C628 H618 0.930 . S
C628 C627 1.400 . S
C628 C631 1.386 . S
H629 C645 0.930 . S
H630 C646 0.931 . S
C631 H619 0.929 . S
C631 C625 1.390 . S
C631 C628 1.386 . S
C632 C627 1.490 . S
C632 C634 1.377 1_545 S
C632 C635 1.403 . S
H633 C639 0.930 . S
C634 H620 0.929 1_565 S
C634 C632 1.377 1_565 S
C634 C637 1.423 . S
C635 C632 1.403 . S
C635 C636 1.524 . S
C635 C639 1.400 1_545 S
C636 H621 0.960 . S
C636 H622 0.960 . S
C636 H623 0.960 . S
C636 C635 1.524 . S
C637 C634 1.423 . S
C637 C638 1.392 . S
C637 C641 1.495 . S
C638 C637 1.392 . S
C638 C639 1.385 . S
C638 C640 1.478 . S
C639 H633 0.930 . S
C639 C635 1.400 1_565 S
C639 C638 1.385 . S
C640 C638 1.478 . S
C640 C642 1.381 . S
C640 C646 1.383 . S
C641 C637 1.495 . S
C641 H647 0.959 . S
C641 H648 0.961 . S
C641 H649 0.960 . S
C642 C640 1.381 . S
C642 C643 1.394 . S
C642 H650 0.930 . S
C643 C642 1.394 . S
C643 C644 1.383 . S
C643 H651 0.929 . S
C644 C643 1.383 . S
C644 C645 1.377 . S
C645 H629 0.930 . S
C645 C644 1.377 . S
C645 C646 1.379 . S
C646 H630 0.931 . S
C646 C640 1.383 . S
C646 C645 1.379 . S
H647 C641 0.959 . S
H648 C641 0.961 . S
H649 C641 0.960 . S
H650 C642 0.930 . S
H651 C643 0.929 . S
H652 C660 0.929 . S
H653 C662 0.930 . S
H654 C664 0.930 . S
H655 C667 0.929 . S
H656 C670 0.930 . S
H657 C672 0.960 . S
H658 C672 0.960 . S
H659 C672 0.960 . S
C660 H652 0.929 . S
C660 C661 1.377 . S
C660 C662 1.384 . S
C661 C660 1.377 . S
C661 C667 1.390 1_655 S
C662 H653 0.930 . S
C662 C660 1.384 . S
C662 C663 1.372 . S
C663 C662 1.372 . S
C663 C664 1.400 1_655 S
C663 C668 1.490 . S
C664 H654 0.930 . S
C664 C663 1.400 1_455 S
C664 C667 1.386 . S
H665 C681 0.930 . S
H666 C682 0.931 . S
C667 H655 0.929 . S
C667 C661 1.390 1_455 S
C667 C664 1.386 . S
C668 C663 1.490 . S
C668 C670 1.395 . S
C668 C671 1.403 1_655 S
H669 C675 0.930 . S
C670 H656 0.930 . S
C670 C668 1.395 . S
C670 C673 1.403 . S
C671 C668 1.403 1_455 S
C671 C672 1.524 . S
C671 C675 1.400 . S
C672 H657 0.960 . S
C672 H658 0.960 . S
C672 H659 0.960 . S
C672 C671 1.524 . S
C673 C670 1.403 . S
C673 C674 1.398 . S
C673 C677 1.495 . S
C674 C673 1.398 . S
C674 C675 1.380 1_655 S
C674 C676 1.476 1_655 S
C675 H669 0.930 . S
C675 C671 1.400 . S
C675 C674 1.380 1_455 S
C676 C674 1.476 1_455 S
C676 C678 1.381 1_455 S
C676 C682 1.383 . S
C677 C673 1.495 . S
C677 H683 0.959 . S
C677 H684 0.961 . S
C677 H685 0.960 . S
C678 C676 1.381 1_655 S
C678 C679 1.394 . S
C678 H686 0.930 . S
C679 C678 1.394 . S
C679 C680 1.383 1_655 S
C679 H687 0.929 . S
C680 C679 1.383 1_455 S
C680 C681 1.377 . S
C681 H665 0.930 . S
C681 C680 1.377 . S
C681 C682 1.379 . S
C682 H666 0.931 . S
C682 C676 1.383 . S
C682 C681 1.379 . S
H683 C677 0.959 . S
H684 C677 0.961 . S
H685 C677 0.960 . S
H686 C678 0.930 . S
H687 C679 0.929 . S
H688 C696 0.929 . S
H689 C698 0.930 . S
H690 C700 0.930 . S
H691 C703 0.929 . S
H692 C706 0.930 . S
H693 C708 0.960 . S
H694 C708 0.960 . S
H695 C708 0.960 . S
C696 H688 0.929 . S
C696 C697 1.377 . S
C696 C698 1.384 . S
C697 C696 1.377 . S
C697 C703 1.390 . S
C698 H689 0.930 . S
C698 C696 1.384 . S
C698 C699 1.372 . S
C699 C698 1.372 . S
C699 C700 1.400 . S
C699 C704 1.490 . S
C700 H690 0.930 . S
C700 C699 1.400 . S
C700 C703 1.386 . S
H701 C717 0.930 . S
H702 C718 0.931 . S
C703 H691 0.929 . S
C703 C697 1.390 . S
C703 C700 1.386 . S
C704 C699 1.490 . S
C704 C706 1.395 . S
C704 C707 1.403 . S
H705 C711 0.930 . S
C706 H692 0.930 . S
C706 C704 1.395 . S
C706 C709 1.403 . S
C707 C704 1.403 . S
C707 C708 1.524 . S
C707 C711 1.400 . S
C708 H693 0.960 . S
C708 H694 0.960 . S
C708 H695 0.960 . S
C708 C707 1.524 . S
C709 C706 1.403 . S
C709 C710 1.392 . S
C709 C713 1.495 . S
C710 C709 1.392 . S
C710 C711 1.385 . S
C710 C712 1.478 . S
C711 H705 0.930 . S
C711 C707 1.400 . S
C711 C710 1.385 . S
C712 C710 1.478 . S
C712 C714 1.381 . S
C712 C718 1.383 . S
C713 C709 1.495 . S
C713 H719 0.959 . S
C713 H720 0.961 . S
C713 H721 0.960 . S
C714 C712 1.381 . S
C714 C715 1.394 . S
C714 H722 0.930 . S
C715 C714 1.394 . S
C715 C716 1.383 . S
C715 H723 0.929 . S
C716 C715 1.383 . S
C716 C717 1.377 . S
C717 H701 0.930 . S
C717 C716 1.377 . S
C717 C718 1.379 . S
C718 H702 0.931 . S
C718 C712 1.383 . S
C718 C717 1.379 . S
H719 C713 0.959 . S
H720 C713 0.961 . S
H721 C713 0.960 . S
H722 C714 0.930 . S
H723 C715 0.929 . S
H724 C732 0.929 . S
H725 C734 0.930 . S
H726 C736 0.930 . S
H727 C739 0.929 . S
H728 C742 0.930 . S
H729 C744 0.960 . S
H730 C744 0.960 . S
H731 C744 0.960 . S
C732 H724 0.929 . S
C732 C733 1.377 . S
C732 C734 1.384 . S
C733 C732 1.377 . S
C733 C739 1.390 . S
C734 H725 0.930 . S
C734 C732 1.384 . S
C734 C735 1.372 . S
C735 C734 1.372 . S
C735 C736 1.400 . S
C735 C740 1.490 . S
C736 H726 0.930 . S
C736 C735 1.400 . S
C736 C739 1.386 . S
H737 C753 0.930 . S
H738 C754 0.931 . S
C739 H727 0.929 . S
C739 C733 1.390 . S
C739 C736 1.386 . S
C740 C735 1.490 . S
C740 C742 1.395 . S
C740 C743 1.403 . S
H741 C747 0.930 . S
C742 H728 0.930 . S
C742 C740 1.395 . S
C742 C745 1.403 1_565 S
C743 C740 1.403 . S
C743 C744 1.524 . S
C743 C747 1.400 1_565 S
C744 H729 0.960 . S
C744 H730 0.960 . S
C744 H731 0.960 . S
C744 C743 1.524 . S
C745 C742 1.403 1_545 S
C745 C746 1.392 . S
C745 C749 1.495 . S
C746 C745 1.392 . S
C746 C747 1.385 . S
C746 C748 1.478 . S
C747 H741 0.930 . S
C747 C743 1.400 1_545 S
C747 C746 1.385 . S
C748 C746 1.478 . S
C748 C750 1.381 . S
C748 C754 1.383 . S
C749 C745 1.495 . S
C749 H755 0.959 . S
C749 H756 0.961 . S
C749 H757 0.960 . S
C750 C748 1.381 . S
C750 C751 1.394 . S
C750 H758 0.930 . S
C751 C750 1.394 . S
C751 C752 1.383 . S
C751 H759 0.929 . S
C752 C751 1.383 . S
C752 C753 1.377 . S
C753 H737 0.930 . S
C753 C752 1.377 . S
C753 C754 1.379 . S
C754 H738 0.931 . S
C754 C748 1.383 . S
C754 C753 1.379 . S
H755 C749 0.959 . S
H756 C749 0.961 . S
H757 C749 0.960 . S
H758 C750 0.930 . S
H759 C751 0.929 . S
H760 C768 0.929 . S
H761 C770 0.930 . S
H762 C772 0.930 . S
H763 C775 0.929 . S
H764 C778 0.930 . S
H765 C780 0.960 . S
H766 C780 0.949 1_455 S
H767 C780 0.960 . S
C768 H760 0.929 . S
C768 C769 1.377 1_455 S
C768 C770 1.384 . S
C769 C768 1.377 1_655 S
C769 C775 1.390 . S
C770 H761 0.930 . S
C770 C768 1.384 . S
C770 C771 1.372 1_455 S
C771 C770 1.372 1_655 S
C771 C772 1.400 . S
C771 C776 1.490 . S
C772 H762 0.930 . S
C772 C771 1.400 . S
C772 C775 1.386 . S
H773 C789 0.930 . S
H774 C790 0.931 . S
C775 H763 0.929 . S
C775 C769 1.390 . S
C775 C772 1.386 . S
C776 C771 1.490 . S
C776 C778 1.395 1_655 S
C776 C779 1.403 . S
H777 C783 0.930 . S
C778 H764 0.930 . S
C778 C776 1.395 1_455 S
C778 C781 1.403 . S
C779 C776 1.403 . S
C779 C780 1.524 . S
C779 C783 1.400 . S
C780 H765 0.960 . S
C780 H766 0.949 1_655 S
C780 H767 0.960 . S
C780 C779 1.524 . S
C781 C778 1.403 . S
C781 C782 1.392 . S
C781 C785 1.495 . S
C782 C781 1.392 . S
C782 C783 1.385 1_455 S
C782 C784 1.478 . S
C783 H777 0.930 . S
C783 C779 1.400 . S
C783 C782 1.385 1_655 S
C784 C782 1.478 . S
C784 C786 1.381 . S
C784 C790 1.383 1_455 S
C785 C781 1.495 . S
C785 H791 0.959 . S
C785 H792 0.961 . S
C785 H793 0.960 . S
C786 C784 1.381 . S
C786 C787 1.394 . S
C786 H794 0.930 . S
C787 C786 1.394 . S
C787 C788 1.383 . S
C787 H795 0.929 . S
C788 C787 1.383 . S
C788 C789 1.377 1_455 S
C789 H773 0.930 . S
C789 C788 1.377 1_655 S
C789 C790 1.379 . S
C790 H774 0.931 . S
C790 C784 1.383 1_655 S
C790 C789 1.379 . S
H791 C785 0.959 . S
H792 C785 0.961 . S
H793 C785 0.960 . S
H794 C786 0.930 . S
H795 C787 0.929 . S
H796 C804 0.929 . S
H797 C806 0.930 . S
H798 C808 0.920 1_556 S
H799 C811 0.929 1_556 S
H800 C814 0.930 . S
H801 C816 0.960 . S
H802 C816 0.960 . S
H803 C816 0.960 . S
C804 H796 0.929 . S
C804 C805 1.377 . S
C804 C806 1.384 . S
C805 C804 1.377 . S
C805 C811 1.390 . S
C806 H797 0.930 . S
C806 C804 1.384 . S
C806 C807 1.372 . S
C807 C806 1.372 . S
C807 C808 1.407 . S
C807 C812 1.490 . S
C808 H798 0.920 1_554 S
C808 C807 1.407 . S
C808 C811 1.389 . S
H809 C825 0.930 . S
H810 C826 0.931 . S
C811 H799 0.929 1_554 S
C811 C805 1.390 . S
C811 C808 1.389 . S
C812 C807 1.490 . S
C812 C814 1.395 . S
C812 C815 1.403 1_554 S
H813 C819 0.930 . S
C814 H800 0.930 . S
C814 C812 1.395 . S
C814 C817 1.403 . S
C815 C812 1.403 1_556 S
C815 C816 1.524 . S
C815 C819 1.400 . S
C816 H801 0.960 . S
C816 H802 0.960 . S
C816 H803 0.960 . S
C816 C815 1.524 . S
C817 C814 1.403 . S
C817 C818 1.392 . S
C817 C821 1.495 . S
C818 C817 1.392 . S
C818 C819 1.385 1_554 S
C818 C820 1.478 1_554 S
C819 H813 0.930 . S
C819 C815 1.400 . S
C819 C818 1.385 1_556 S
C820 C818 1.478 1_556 S
C820 C822 1.378 1_556 S
C820 C826 1.383 . S
C821 C817 1.495 . S
C821 H827 0.959 . S
C821 H828 0.961 . S
C821 H829 0.960 . S
C822 C820 1.378 1_554 S
C822 C823 1.386 1_554 S
C822 H830 0.944 . S
C823 C822 1.386 1_556 S
C823 C824 1.383 . S
C823 H831 0.929 . S
C824 C823 1.383 . S
C824 C825 1.377 . S
C825 H809 0.930 . S
C825 C824 1.377 . S
C825 C826 1.379 . S
C826 H810 0.931 . S
C826 C820 1.383 . S
C826 C825 1.379 . S
H827 C821 0.959 . S
H828 C821 0.961 . S
H829 C821 0.960 . S
H830 C822 0.944 . S
H831 C823 0.929 . S
H832 C840 0.929 . S
H833 C842 0.930 . S
H834 C844 0.930 . S
H835 C847 0.929 . S
H836 C850 0.930 . S
H837 C852 0.960 . S
H838 C852 0.960 1_554 S
H839 C852 0.960 . S
C840 H832 0.929 . S
C840 C841 1.377 . S
C840 C842 1.384 . S
C841 C840 1.377 . S
C841 C847 1.390 1_554 S
C842 H833 0.930 . S
C842 C840 1.384 . S
C842 C843 1.372 . S
C843 C842 1.372 . S
C843 C844 1.400 1_554 S
C843 C848 1.490 . S
C844 H834 0.930 . S
C844 C843 1.400 1_556 S
C844 C847 1.386 . S
H845 C861 0.930 . S
H846 C862 0.931 . S
C847 H835 0.929 . S
C847 C841 1.390 1_556 S
C847 C844 1.386 . S
C848 C843 1.490 . S
C848 C850 1.395 1_655 S
C848 C851 1.390 1_554 S
H849 C855 0.930 . S
C850 H836 0.930 . S
C850 C848 1.395 1_455 S
C850 C853 1.403 . S
C851 C848 1.390 1_556 S
C851 C852 1.527 . S
C851 C855 1.411 . S
C852 H837 0.960 . S
C852 H838 0.960 1_556 S
C852 H839 0.960 . S
C852 C851 1.527 . S
C853 C850 1.403 . S
C853 C854 1.392 1_554 S
C853 C857 1.495 . S
C854 C853 1.392 1_556 S
C854 C855 1.385 1_455 S
C854 C856 1.478 . S
C855 H849 0.930 . S
C855 C851 1.411 . S
C855 C854 1.385 1_655 S
C856 C854 1.478 . S
C856 C858 1.381 1_556 S
C856 C862 1.383 . S
C857 C853 1.495 . S
C857 H863 0.959 . S
C857 H864 0.961 1_554 S
C857 H865 0.960 . S
C858 C856 1.381 1_554 S
C858 C859 1.394 . S
C858 H866 0.930 . S
C859 C858 1.394 . S
C859 C860 1.383 1_554 S
C859 H867 0.929 . S
C860 C859 1.383 1_556 S
C860 C861 1.377 . S
C861 H845 0.930 . S
C861 C860 1.377 . S
C861 C862 1.379 . S
C862 H846 0.931 . S
C862 C856 1.383 . S
C862 C861 1.379 . S
H863 C857 0.959 . S
H864 C857 0.961 1_556 S
H865 C857 0.960 . S
H866 C858 0.930 . S
H867 C859 0.929 . S
H868 C876 0.929 . S
H869 C878 0.930 . S
H870 C880 0.930 . S
H871 C883 0.929 . S
H872 C886 0.930 . S
H873 C888 0.960 . S
H874 C888 0.960 . S
H875 C888 0.960 . S
C876 H868 0.929 . S
C876 C877 1.377 . S
C876 C878 1.384 . S
C877 C876 1.377 . S
C877 C883 1.390 . S
C878 H869 0.930 . S
C878 C876 1.384 . S
C878 C879 1.372 . S
C879 C878 1.372 . S
C879 C880 1.400 . S
C879 C884 1.490 . S
C880 H870 0.930 . S
C880 C879 1.400 . S
C880 C883 1.386 . S
H881 C897 0.930 . S
H882 C898 0.931 . S
C883 H871 0.929 . S
C883 C877 1.390 . S
C883 C880 1.386 . S
C884 C879 1.490 . S
C884 C886 1.395 . S
C884 C887 1.403 . S
H885 C891 0.930 . S
C886 H872 0.930 . S
C886 C884 1.395 . S
C886 C889 1.403 . S
C887 C884 1.403 . S
C887 C888 1.524 . S
C887 C891 1.400 . S
C888 H873 0.960 . S
C888 H874 0.960 . S
C888 H875 0.960 . S
C888 C887 1.524 . S
C889 C886 1.403 . S
C889 C890 1.392 . S
C889 C893 1.495 . S
C890 C889 1.392 . S
C890 C891 1.385 . S
C890 C892 1.478 . S
C891 H885 0.930 . S
C891 C887 1.400 . S
C891 C890 1.385 . S
C892 C890 1.478 . S
C892 C894 1.381 . S
C892 C898 1.383 . S
C893 C889 1.495 . S
C893 H899 0.959 . S
C893 H900 0.961 . S
C893 H901 0.960 . S
C894 C892 1.381 . S
C894 C895 1.394 . S
C894 H902 0.930 . S
C895 C894 1.394 . S
C895 C896 1.383 . S
C895 H903 0.929 . S
C896 C895 1.383 . S
C896 C897 1.377 . S
C897 H881 0.930 . S
C897 C896 1.377 . S
C897 C898 1.379 . S
C898 H882 0.931 . S
C898 C892 1.383 . S
C898 C897 1.379 . S
H899 C893 0.959 . S
H900 C893 0.961 . S
H901 C893 0.960 . S
H902 C894 0.930 . S
H903 C895 0.929 . S
H904 C912 0.929 . S
H905 C914 0.930 . S
H906 C916 0.930 . S
H907 C919 0.929 . S
H908 C922 0.930 . S
H909 C924 0.960 . S
H910 C924 0.960 . S
H911 C924 0.960 . S
C912 H904 0.929 . S
C912 C913 1.377 . S
C912 C914 1.384 . S
C913 C912 1.377 . S
C913 C919 1.390 1_556 S
C914 H905 0.930 . S
C914 C912 1.384 . S
C914 C915 1.372 . S
C915 C914 1.372 . S
C915 C916 1.400 1_556 S
C915 C920 1.490 . S
C916 H906 0.930 . S
C916 C915 1.400 1_554 S
C916 C919 1.386 . S
H917 C933 0.930 . S
H918 C934 0.931 . S
C919 H907 0.929 . S
C919 C913 1.390 1_554 S
C919 C916 1.386 . S
C920 C915 1.490 . S
C920 C922 1.395 . S
C920 C923 1.403 1_556 S
H921 C927 0.930 . S
C922 H908 0.930 . S
C922 C920 1.395 . S
C922 C925 1.403 . S
C923 C920 1.403 1_554 S
C923 C924 1.524 . S
C923 C927 1.400 . S
C924 H909 0.960 . S
C924 H910 0.960 . S
C924 H911 0.960 . S
C924 C923 1.524 . S
C925 C922 1.403 . S
C925 C926 1.420 . S
C925 C929 1.495 . S
C926 C925 1.420 . S
C926 C927 1.362 1_556 S
C926 C928 1.473 1_556 S
C927 H921 0.930 . S
C927 C923 1.400 . S
C927 C926 1.362 1_554 S
C928 C926 1.473 1_554 S
C928 C930 1.381 1_554 S
C928 C934 1.383 . S
C929 C925 1.495 . S
C929 H935 0.959 . S
C929 H936 0.961 . S
C929 H937 0.960 . S
C930 C928 1.381 1_556 S
C930 C931 1.394 . S
C930 H938 0.930 . S
C931 C930 1.394 . S
C931 C932 1.383 1_556 S
C931 H939 0.929 . S
C932 C931 1.383 1_554 S
C932 C933 1.377 . S
C933 H917 0.930 . S
C933 C932 1.377 . S
C933 C934 1.379 . S
C934 H918 0.931 . S
C934 C928 1.383 . S
C934 C933 1.379 . S
H935 C929 0.959 . S
H936 C929 0.961 . S
H937 C929 0.960 . S
H938 C930 0.930 . S
H939 C931 0.929 . S
H940 C948 0.929 . S
H941 C950 0.930 . S
H942 C952 0.930 . S
H943 C955 0.929 . S
H944 C958 0.930 . S
H945 C960 0.960 . S
H946 C960 0.960 . S
H947 C960 0.960 . S
C948 H940 0.929 . S
C948 C949 1.377 . S
C948 C950 1.384 . S
C949 C948 1.377 . S
C949 C955 1.390 . S
C950 H941 0.930 . S
C950 C948 1.384 . S
C950 C951 1.372 . S
C951 C950 1.372 . S
C951 C952 1.400 . S
C951 C956 1.490 . S
C952 H942 0.930 . S
C952 C951 1.400 . S
C952 C955 1.386 . S
H953 C969 0.930 . S
H954 C970 0.931 . S
C955 H943 0.929 . S
C955 C949 1.390 . S
C955 C952 1.386 . S
C956 C951 1.490 . S
C956 C958 1.395 . S
C956 C959 1.403 . S
H957 C963 0.930 . S
C958 H944 0.930 . S
C958 C956 1.395 . S
C958 C961 1.403 . S
C959 C956 1.403 . S
C959 C960 1.524 . S
C959 C963 1.400 . S
C960 H945 0.960 . S
C960 H946 0.960 . S
C960 H947 0.960 . S
C960 C959 1.524 . S
C961 C958 1.403 . S
C961 C962 1.392 . S
C961 C965 1.495 . S
C962 C961 1.392 . S
C962 C963 1.385 . S
C962 C964 1.478 . S
C963 H957 0.930 . S
C963 C959 1.400 . S
C963 C962 1.385 . S
C964 C962 1.478 . S
C964 C966 1.381 . S
C964 C970 1.383 . S
C965 C961 1.495 . S
C965 H971 0.959 . S
C965 H972 0.961 . S
C965 H973 0.960 . S
C966 C964 1.381 . S
C966 C967 1.394 . S
C966 H974 0.930 . S
C967 C966 1.394 . S
C967 C968 1.383 . S
C967 H975 0.929 . S
C968 C967 1.383 . S
C968 C969 1.377 . S
C969 H953 0.930 . S
C969 C968 1.377 . S
C969 C970 1.379 . S
C970 H954 0.931 . S
C970 C964 1.383 . S
C970 C969 1.379 . S
H971 C965 0.959 . S
H972 C965 0.961 . S
H973 C965 0.960 . S
H974 C966 0.930 . S
H975 C967 0.929 . S
H976 C984 0.929 . S
H977 C986 0.930 . S
H978 C988 0.930 . S
H979 C991 0.929 . S
H980 C994 0.930 . S
H981 C996 0.954 . S
H982 C996 0.960 . S
H983 C996 0.960 . S
C984 H976 0.929 . S
C984 C985 1.377 . S
C984 C986 1.384 . S
C985 C984 1.377 . S
C985 C991 1.390 . S
C986 H977 0.930 . S
C986 C984 1.384 . S
C986 C987 1.372 . S
C987 C986 1.372 . S
C987 C988 1.400 . S
C987 C992 1.490 . S
C988 H978 0.930 . S
C988 C987 1.400 . S
C988 C991 1.386 . S
H989 C1005 0.930 . S
H990 C1006 0.931 1_556 S
C991 H979 0.929 . S
C991 C985 1.390 . S
C991 C988 1.386 . S
C992 C987 1.490 . S
C992 C994 1.395 . S
C992 C995 1.403 1_556 S
H993 C999 0.930 . S
C994 H980 0.930 . S
C994 C992 1.395 . S
C994 C997 1.403 1_545 S
C995 C992 1.403 1_554 S
C995 C996 1.524 . S
C995 C999 1.400 1_545 S
C996 H981 0.954 . S
C996 H982 0.960 . S
C996 H983 0.960 . S
C996 C995 1.524 . S
C997 C994 1.403 1_565 S
C997 C998 1.392 1_556 S
C997 C1001 1.495 . S
C998 C997 1.392 1_554 S
C998 C999 1.385 . S
C998 C1000 1.478 . S
C999 H993 0.930 . S
C999 C995 1.400 1_565 S
C999 C998 1.385 . S
C1000 C998 1.478 . S
C1000 C1002 1.381 . S
C1000 C1006 1.383 . S
C1001 C997 1.495 . S
C1001 H1007 0.903 1_565 S
C1001 H1008 0.961 . S
C1001 H1009 0.960 . S
C1002 C1000 1.381 . S
C1002 C1003 1.394 . S
C1002 H1010 0.930 . S
C1003 C1002 1.394 . S
C1003 C1004 1.383 . S
C1003 H1011 0.929 . S
C1004 C1003 1.383 . S
C1004 C1005 1.377 . S
C1005 H989 0.930 . S
C1005 C1004 1.377 . S
C1005 C1006 1.379 . S
C1006 H990 0.931 1_554 S
C1006 C1000 1.383 . S
C1006 C1005 1.379 . S
H1007 C1001 0.903 1_545 S
H1008 C1001 0.961 . S
H1009 C1001 0.960 . S
H1010 C1002 0.930 . S
H1011 C1003 0.929 . S
H1012 C1020 0.929 . S
H1013 C1022 0.930 . S
H1014 C1024 0.930 . S
H1015 C1027 0.929 . S
H1016 C1030 0.930 . S
H1017 C1032 0.960 . S
H1018 C1032 0.960 . S
H1019 C1032 0.960 . S
C1020 H1012 0.929 . S
C1020 C1021 1.377 . S
C1020 C1022 1.384 . S
C1021 C1020 1.377 . S
C1021 C1027 1.390 . S
C1022 H1013 0.930 . S
C1022 C1020 1.384 . S
C1022 C1023 1.372 . S
C1023 C1022 1.372 . S
C1023 C1024 1.400 . S
C1023 C1028 1.490 . S
C1024 H1014 0.930 . S
C1024 C1023 1.400 . S
C1024 C1027 1.386 . S
H1025 C1041 0.930 . S
H1026 C1042 0.931 . S
C1027 H1015 0.929 . S
C1027 C1021 1.390 . S
C1027 C1024 1.386 . S
C1028 C1023 1.490 . S
C1028 C1030 1.395 . S
C1028 C1031 1.403 . S
H1029 C1035 0.930 . S
C1030 H1016 0.930 . S
C1030 C1028 1.395 . S
C1030 C1033 1.403 . S
C1031 C1028 1.403 . S
C1031 C1032 1.524 . S
C1031 C1035 1.400 . S
C1032 H1017 0.960 . S
C1032 H1018 0.960 . S
C1032 H1019 0.960 . S
C1032 C1031 1.524 . S
C1033 C1030 1.403 . S
C1033 C1034 1.392 . S
C1033 C1037 1.495 . S
C1034 C1033 1.392 . S
C1034 C1035 1.385 . S
C1034 C1036 1.478 . S
C1035 H1029 0.930 . S
C1035 C1031 1.400 . S
C1035 C1034 1.385 . S
C1036 C1034 1.478 . S
C1036 C1038 1.381 . S
C1036 C1042 1.383 . S
C1037 C1033 1.495 . S
C1037 H1043 0.959 . S
C1037 H1044 0.961 . S
C1037 H1045 0.960 . S
C1038 C1036 1.381 . S
C1038 C1039 1.394 . S
C1038 H1046 0.930 . S
C1039 C1038 1.394 . S
C1039 C1040 1.383 . S
C1039 H1047 0.929 . S
C1040 C1039 1.383 . S
C1040 C1041 1.377 . S
C1041 H1025 0.930 . S
C1041 C1040 1.377 . S
C1041 C1042 1.379 . S
C1042 H1026 0.931 . S
C1042 C1036 1.383 . S
C1042 C1041 1.379 . S
H1043 C1037 0.959 . S
H1044 C1037 0.961 . S
H1045 C1037 0.960 . S
H1046 C1038 0.930 . S
H1047 C1039 0.929 . S
H1048 C1056 0.929 . S
H1049 C1058 0.930 . S
H1050 C1060 0.930 . S
H1051 C1063 0.929 . S
H1052 C1066 0.930 . S
H1053 C1068 0.960 . S
H1054 C1068 0.960 . S
H1055 C1068 0.960 . S
C1056 H1048 0.929 . S
C1056 C1057 1.377 . S
C1056 C1058 1.384 . S
C1057 C1056 1.377 . S
C1057 C1063 1.390 . S
C1058 H1049 0.930 . S
C1058 C1056 1.384 . S
C1058 C1059 1.372 . S
C1059 C1058 1.372 . S
C1059 C1060 1.400 . S
C1059 C1064 1.490 . S
C1060 H1050 0.930 . S
C1060 C1059 1.400 . S
C1060 C1063 1.386 . S
H1061 C1077 0.930 . S
H1062 C1078 0.931 . S
C1063 H1051 0.929 . S
C1063 C1057 1.390 . S
C1063 C1060 1.386 . S
C1064 C1059 1.490 . S
C1064 C1066 1.395 . S
C1064 C1067 1.403 . S
H1065 C1071 0.930 . S
C1066 H1052 0.930 . S
C1066 C1064 1.395 . S
C1066 C1069 1.403 . S
C1067 C1064 1.403 . S
C1067 C1068 1.524 . S
C1067 C1071 1.400 . S
C1068 H1053 0.960 . S
C1068 H1054 0.960 . S
C1068 H1055 0.960 . S
C1068 C1067 1.524 . S
C1069 C1066 1.403 . S
C1069 C1070 1.392 . S
C1069 C1073 1.495 . S
C1070 C1069 1.392 . S
C1070 C1071 1.385 . S
C1070 C1072 1.478 . S
C1071 H1065 0.930 . S
C1071 C1067 1.400 . S
C1071 C1070 1.385 . S
C1072 C1070 1.478 . S
C1072 C1074 1.381 . S
C1072 C1078 1.383 . S
C1073 C1069 1.495 . S
C1073 H1079 0.959 . S
C1073 H1080 0.961 . S
C1073 H1081 0.960 . S
C1074 C1072 1.381 . S
C1074 C1075 1.394 . S
C1074 H1082 0.930 . S
C1075 C1074 1.394 . S
C1075 C1076 1.383 . S
C1075 H1083 0.929 . S
C1076 C1075 1.383 . S
C1076 C1077 1.377 . S
C1077 H1061 0.930 . S
C1077 C1076 1.377 . S
C1077 C1078 1.379 . S
C1078 H1062 0.931 . S
C1078 C1072 1.383 . S
C1078 C1077 1.379 . S
H1079 C1073 0.959 . S
H1080 C1073 0.961 . S
H1081 C1073 0.960 . S
H1082 C1074 0.930 . S
H1083 C1075 0.929 . S
H1084 C1092 0.929 . S
H1085 C1094 0.930 . S
H1086 C1096 0.930 . S
H1087 C1099 0.929 . S
H1088 C1102 0.930 . S
H1089 C1104 0.960 . S
H1090 C1104 0.960 . S
H1091 C1104 0.960 . S
C1092 H1084 0.929 . S
C1092 C1093 1.377 . S
C1092 C1094 1.384 . S
C1093 C1092 1.377 . S
C1093 C1099 1.390 . S
C1094 H1085 0.930 . S
C1094 C1092 1.384 . S
C1094 C1095 1.372 . S
C1095 C1094 1.372 . S
C1095 C1096 1.400 . S
C1095 C1100 1.490 . S
C1096 H1086 0.930 . S
C1096 C1095 1.400 . S
C1096 C1099 1.386 . S
H1097 C1113 0.930 . S
H1098 C1114 0.931 . S
C1099 H1087 0.929 . S
C1099 C1093 1.390 . S
C1099 C1096 1.386 . S
C1100 C1095 1.490 . S
C1100 C1102 1.395 . S
C1100 C1103 1.403 . S
H1101 C1107 0.930 . S
C1102 H1088 0.930 . S
C1102 C1100 1.395 . S
C1102 C1105 1.403 . S
C1103 C1100 1.403 . S
C1103 C1104 1.524 . S
C1103 C1107 1.400 . S
C1104 H1089 0.960 . S
C1104 H1090 0.960 . S
C1104 H1091 0.960 . S
C1104 C1103 1.524 . S
C1105 C1102 1.403 . S
C1105 C1106 1.392 . S
C1105 C1109 1.495 . S
C1106 C1105 1.392 . S
C1106 C1107 1.385 . S
C1106 C1108 1.478 . S
C1107 H1101 0.930 . S
C1107 C1103 1.400 . S
C1107 C1106 1.385 . S
C1108 C1106 1.478 . S
C1108 C1110 1.381 . S
C1108 C1114 1.383 . S
C1109 C1105 1.495 . S
C1109 H1115 0.959 . S
C1109 H1116 0.961 . S
C1109 H1117 0.960 . S
C1110 C1108 1.381 . S
C1110 C1111 1.394 . S
C1110 H1118 0.930 . S
C1111 C1110 1.394 . S
C1111 C1112 1.383 . S
C1111 H1119 0.929 . S
C1112 C1111 1.383 . S
C1112 C1113 1.377 . S
C1113 H1097 0.930 . S
C1113 C1112 1.377 . S
C1113 C1114 1.379 . S
C1114 H1098 0.931 . S
C1114 C1108 1.383 . S
C1114 C1113 1.379 . S
H1115 C1109 0.959 . S
H1116 C1109 0.961 . S
H1117 C1109 0.960 . S
H1118 C1110 0.930 . S
H1119 C1111 0.929 . S
H1120 C1128 0.929 . S
H1121 C1130 0.930 . S
H1122 C1132 0.930 . S
H1123 C1135 0.929 . S
H1124 C1138 0.930 . S
H1125 C1140 0.960 . S
H1126 C1140 0.960 . S
H1127 C1140 0.960 . S
C1128 H1120 0.929 . S
C1128 C1129 1.377 . S
C1128 C1130 1.384 . S
C1129 C1128 1.377 . S
C1129 C1135 1.390 . S
C1130 H1121 0.930 . S
C1130 C1128 1.384 . S
C1130 C1131 1.372 . S
C1131 C1130 1.372 . S
C1131 C1132 1.400 . S
C1131 C1136 1.490 . S
C1132 H1122 0.930 . S
C1132 C1131 1.400 . S
C1132 C1135 1.386 . S
H1133 C1149 0.930 . S
H1134 C1150 0.931 . S
C1135 H1123 0.929 . S
C1135 C1129 1.390 . S
C1135 C1132 1.386 . S
C1136 C1131 1.490 . S
C1136 C1138 1.395 . S
C1136 C1139 1.403 . S
H1137 C1143 0.930 . S
C1138 H1124 0.930 . S
C1138 C1136 1.395 . S
C1138 C1141 1.403 . S
C1139 C1136 1.403 . S
C1139 C1140 1.524 . S
C1139 C1143 1.400 . S
C1140 H1125 0.960 . S
C1140 H1126 0.960 . S
C1140 H1127 0.960 . S
C1140 C1139 1.524 . S
C1141 C1138 1.403 . S
C1141 C1142 1.392 . S
C1141 C1145 1.495 . S
C1142 C1141 1.392 . S
C1142 C1143 1.385 . S
C1142 C1144 1.478 . S
C1143 H1137 0.930 . S
C1143 C1139 1.400 . S
C1143 C1142 1.385 . S
C1144 C1142 1.478 . S
C1144 C1146 1.381 . S
C1144 C1150 1.383 . S
C1145 C1141 1.495 . S
C1145 H1151 0.959 . S
C1145 H1152 0.961 . S
C1145 H1153 0.960 . S
C1146 C1144 1.381 . S
C1146 C1147 1.394 . S
C1146 H1154 0.930 . S
C1147 C1146 1.394 . S
C1147 C1148 1.383 . S
C1147 H1155 0.929 . S
C1148 C1147 1.383 . S
C1148 C1149 1.377 . S
C1149 H1133 0.930 . S
C1149 C1148 1.377 . S
C1149 C1150 1.379 . S
C1150 H1134 0.931 . S
C1150 C1144 1.383 . S
C1150 C1149 1.379 . S
H1151 C1145 0.959 . S
H1152 C1145 0.961 . S
H1153 C1145 0.960 . S
H1154 C1146 0.930 . S
H1155 C1147 0.929 . S
H1156 C1164 0.929 . S
H1157 C1166 0.930 . S
H1158 C1168 0.930 . S
H1159 C1171 0.929 . S
H1160 C1174 0.930 . S
H1161 C1176 0.960 . S
H1162 C1176 0.960 . S
H1163 C1176 0.960 . S
C1164 H1156 0.929 . S
C1164 C1165 1.377 . S
C1164 C1166 1.384 . S
C1165 C1164 1.377 . S
C1165 C1171 1.390 . S
C1166 H1157 0.930 . S
C1166 C1164 1.384 . S
C1166 C1167 1.372 . S
C1167 C1166 1.372 . S
C1167 C1168 1.400 . S
C1167 C1172 1.490 . S
C1168 H1158 0.930 . S
C1168 C1167 1.400 . S
C1168 C1171 1.386 . S
H1169 C1185 0.930 . S
H1170 C1186 0.931 . S
C1171 H1159 0.929 . S
C1171 C1165 1.390 . S
C1171 C1168 1.386 . S
C1172 C1167 1.490 . S
C1172 C1174 1.395 . S
C1172 C1175 1.403 . S
H1173 C1179 0.930 . S
C1174 H1160 0.930 . S
C1174 C1172 1.395 . S
C1174 C1177 1.403 . S
C1175 C1172 1.403 . S
C1175 C1176 1.524 . S
C1175 C1179 1.400 . S
C1176 H1161 0.960 . S
C1176 H1162 0.960 . S
C1176 H1163 0.960 . S
C1176 C1175 1.524 . S
C1177 C1174 1.403 . S
C1177 C1178 1.392 . S
C1177 C1181 1.495 . S
C1178 C1177 1.392 . S
C1178 C1179 1.385 . S
C1178 C1180 1.478 . S
C1179 H1173 0.930 . S
C1179 C1175 1.400 . S
C1179 C1178 1.385 . S
C1180 C1178 1.478 . S
C1180 C1182 1.381 . S
C1180 C1186 1.383 . S
C1181 C1177 1.495 . S
C1181 H1187 0.959 . S
C1181 H1188 0.961 1_655 S
C1181 H1189 0.960 1_655 S
C1182 C1180 1.381 . S
C1182 C1183 1.394 1_655 S
C1182 H1190 0.930 . S
C1183 C1182 1.394 1_455 S
C1183 C1184 1.383 . S
C1183 H1191 0.929 . S
C1184 C1183 1.383 . S
C1184 C1185 1.377 1_455 S
C1185 H1169 0.930 . S
C1185 C1184 1.377 1_655 S
C1185 C1186 1.379 . S
C1186 H1170 0.931 . S
C1186 C1180 1.383 . S
C1186 C1185 1.379 . S
H1187 C1181 0.959 . S
H1188 C1181 0.961 1_455 S
H1189 C1181 0.960 1_455 S
H1190 C1182 0.930 . S
H1191 C1183 0.929 . S
H1192 C1200 0.929 . S
H1193 C1202 0.930 . S
H1194 C1204 0.930 . S
H1195 C1207 0.929 . S
H1196 C1210 0.930 . S
H1197 C1212 0.960 . S
H1198 C1212 0.960 . S
H1199 C1212 0.960 . S
C1200 H1192 0.929 . S
C1200 C1201 1.377 . S
C1200 C1202 1.384 . S
C1201 C1200 1.377 . S
C1201 C1207 1.390 . S
C1202 H1193 0.930 . S
C1202 C1200 1.384 . S
C1202 C1203 1.372 . S
C1203 C1202 1.372 . S
C1203 C1204 1.400 . S
C1203 C1208 1.490 . S
C1204 H1194 0.930 . S
C1204 C1203 1.400 . S
C1204 C1207 1.386 . S
H1205 C1221 0.930 . S
H1206 C1222 0.931 . S
C1207 H1195 0.929 . S
C1207 C1201 1.390 . S
C1207 C1204 1.386 . S
C1208 C1203 1.490 . S
C1208 C1210 1.395 . S
C1208 C1211 1.403 . S
H1209 C1215 0.930 . S
C1210 H1196 0.930 . S
C1210 C1208 1.395 . S
C1210 C1213 1.403 . S
C1211 C1208 1.403 . S
C1211 C1212 1.524 . S
C1211 C1215 1.400 . S
C1212 H1197 0.960 . S
C1212 H1198 0.960 . S
C1212 H1199 0.960 . S
C1212 C1211 1.524 . S
C1213 C1210 1.403 . S
C1213 C1214 1.392 . S
C1213 C1217 1.495 . S
C1214 C1213 1.392 . S
C1214 C1215 1.385 . S
C1214 C1216 1.478 . S
C1215 H1209 0.930 . S
C1215 C1211 1.400 . S
C1215 C1214 1.385 . S
C1216 C1214 1.478 . S
C1216 C1218 1.381 . S
C1216 C1222 1.383 . S
C1217 C1213 1.495 . S
C1217 H1223 0.959 . S
C1217 H1224 0.961 . S
C1217 H1225 0.960 . S
C1218 C1216 1.381 . S
C1218 C1219 1.394 . S
C1218 H1226 0.930 . S
C1219 C1218 1.394 . S
C1219 C1220 1.383 . S
C1219 H1227 0.929 . S
C1220 C1219 1.383 . S
C1220 C1221 1.377 . S
C1221 H1205 0.930 . S
C1221 C1220 1.377 . S
C1221 C1222 1.379 . S
C1222 H1206 0.931 . S
C1222 C1216 1.383 . S
C1222 C1221 1.379 . S
H1223 C1217 0.959 . S
H1224 C1217 0.961 . S
H1225 C1217 0.960 . S
H1226 C1218 0.930 . S
H1227 C1219 0.929 . S
H1228 C1236 0.929 . S
H1229 C1238 0.930 . S
H1230 C1240 0.930 1_455 S
H1231 C1243 0.929 . S
H1232 C1246 0.930 . S
H1233 C1248 0.960 . S
H1234 C1248 0.960 . S
H1235 C1248 0.960 . S
C1236 H1228 0.929 . S
C1236 C1237 1.377 1_655 S
C1236 C1238 1.384 . S
C1237 C1236 1.377 1_455 S
C1237 C1243 1.390 . S
C1238 H1229 0.930 . S
C1238 C1236 1.384 . S
C1238 C1239 1.372 . S
C1239 C1238 1.372 . S
C1239 C1240 1.400 . S
C1239 C1244 1.490 . S
C1240 H1230 0.930 1_655 S
C1240 C1239 1.400 . S
C1240 C1243 1.386 1_655 S
H1241 C1257 0.930 . S
H1242 C1258 0.931 . S
C1243 H1231 0.929 . S
C1243 C1237 1.390 . S
C1243 C1240 1.386 1_455 S
C1244 C1239 1.490 . S
C1244 C1246 1.395 . S
C1244 C1247 1.403 . S
H1245 C1251 0.930 . S
C1246 H1232 0.930 . S
C1246 C1244 1.395 . S
C1246 C1249 1.403 . S
C1247 C1244 1.403 . S
C1247 C1248 1.524 . S
C1247 C1251 1.400 . S
C1248 H1233 0.960 . S
C1248 H1234 0.960 . S
C1248 H1235 0.960 . S
C1248 C1247 1.524 . S
C1249 C1246 1.403 . S
C1249 C1250 1.392 . S
C1249 C1253 1.495 . S
C1250 C1249 1.392 . S
C1250 C1251 1.385 . S
C1250 C1252 1.478 . S
C1251 H1245 0.930 . S
C1251 C1247 1.400 . S
C1251 C1250 1.385 . S
C1252 C1250 1.478 . S
C1252 C1254 1.381 . S
C1252 C1258 1.383 . S
C1253 C1249 1.495 . S
C1253 H1259 0.959 . S
C1253 H1260 0.961 . S
C1253 H1261 0.960 . S
C1254 C1252 1.381 . S
C1254 C1255 1.394 . S
C1254 H1262 0.930 . S
C1255 C1254 1.394 . S
C1255 C1256 1.383 . S
C1255 H1263 0.929 . S
C1256 C1255 1.383 . S
C1256 C1257 1.377 . S
C1257 H1241 0.930 . S
C1257 C1256 1.377 . S
C1257 C1258 1.379 . S
C1258 H1242 0.931 . S
C1258 C1252 1.383 . S
C1258 C1257 1.379 . S
H1259 C1253 0.959 . S
H1260 C1253 0.961 . S
H1261 C1253 0.960 . S
H1262 C1254 0.930 . S
H1263 C1255 0.929 . S
H1264 C1272 0.929 . S
H1265 C1274 0.930 . S
H1266 C1276 0.930 . S
H1267 C1279 0.929 . S
H1268 C1282 0.930 . S
H1269 C1284 0.960 . S
H1270 C1284 0.960 . S
H1271 C1284 0.960 . S
C1272 H1264 0.929 . S
C1272 C1273 1.377 . S
C1272 C1274 1.384 . S
C1273 C1272 1.377 . S
C1273 C1279 1.390 . S
C1274 H1265 0.930 . S
C1274 C1272 1.384 . S
C1274 C1275 1.372 . S
C1275 C1274 1.372 . S
C1275 C1276 1.400 . S
C1275 C1280 1.490 . S
C1276 H1266 0.930 . S
C1276 C1275 1.400 . S
C1276 C1279 1.386 . S
H1277 C1293 0.930 . S
H1278 C1294 0.931 . S
C1279 H1267 0.929 . S
C1279 C1273 1.390 . S
C1279 C1276 1.386 . S
C1280 C1275 1.490 . S
C1280 C1282 1.395 . S
C1280 C1283 1.403 . S
H1281 C1287 0.930 . S
C1282 H1268 0.930 . S
C1282 C1280 1.395 . S
C1282 C1285 1.403 . S
C1283 C1280 1.403 . S
C1283 C1284 1.524 . S
C1283 C1287 1.400 . S
C1284 H1269 0.960 . S
C1284 H1270 0.960 . S
C1284 H1271 0.960 . S
C1284 C1283 1.524 . S
C1285 C1282 1.403 . S
C1285 C1286 1.392 . S
C1285 C1289 1.495 . S
C1286 C1285 1.392 . S
C1286 C1287 1.385 . S
C1286 C1288 1.478 . S
C1287 H1281 0.930 . S
C1287 C1283 1.400 . S
C1287 C1286 1.385 . S
C1288 C1286 1.478 . S
C1288 C1290 1.381 . S
C1288 C1294 1.383 . S
C1289 C1285 1.495 . S
C1289 H1295 0.959 . S
C1289 H1296 0.961 . S
C1289 H1297 0.960 . S
C1290 C1288 1.381 . S
C1290 C1291 1.394 . S
C1290 H1298 0.930 . S
C1291 C1290 1.394 . S
C1291 C1292 1.383 . S
C1291 H1299 0.929 . S
C1292 C1291 1.383 . S
C1292 C1293 1.377 . S
C1293 H1277 0.930 . S
C1293 C1292 1.377 . S
C1293 C1294 1.379 . S
C1294 H1278 0.931 . S
C1294 C1288 1.383 . S
C1294 C1293 1.379 . S
H1295 C1289 0.959 . S
H1296 C1289 0.961 . S
H1297 C1289 0.960 . S
H1298 C1290 0.930 . S
H1299 C1291 0.929 . S
H1300 C1308 0.929 . S
H1301 C1310 0.930 . S
H1302 C1312 0.930 . S
H1303 C1315 0.929 . S
H1304 C1318 0.930 . S
H1305 C1320 0.960 . S
H1306 C1320 0.960 . S
H1307 C1320 0.960 . S
C1308 H1300 0.929 . S
C1308 C1309 1.377 . S
C1308 C1310 1.384 . S
C1309 C1308 1.377 . S
C1309 C1315 1.390 . S
C1310 H1301 0.930 . S
C1310 C1308 1.384 . S
C1310 C1311 1.372 . S
C1311 C1310 1.372 . S
C1311 C1312 1.400 . S
C1311 C1316 1.490 . S
C1312 H1302 0.930 . S
C1312 C1311 1.400 . S
C1312 C1315 1.386 . S
H1313 C1329 0.930 . S
H1314 C1330 0.931 . S
C1315 H1303 0.929 . S
C1315 C1309 1.390 . S
C1315 C1312 1.386 . S
C1316 C1311 1.490 . S
C1316 C1318 1.395 . S
C1316 C1319 1.403 . S
H1317 C1323 0.930 . S
C1318 H1304 0.930 . S
C1318 C1316 1.395 . S
C1318 C1321 1.403 . S
C1319 C1316 1.403 . S
C1319 C1320 1.524 . S
C1319 C1323 1.400 . S
C1320 H1305 0.960 . S
C1320 H1306 0.960 . S
C1320 H1307 0.960 . S
C1320 C1319 1.524 . S
C1321 C1318 1.403 . S
C1321 C1322 1.392 . S
C1321 C1325 1.495 . S
C1322 C1321 1.392 . S
C1322 C1323 1.385 . S
C1322 C1324 1.478 . S
C1323 H1317 0.930 . S
C1323 C1319 1.400 . S
C1323 C1322 1.385 . S
C1324 C1322 1.478 . S
C1324 C1326 1.381 . S
C1324 C1330 1.383 . S
C1325 C1321 1.495 . S
C1325 H1331 0.959 . S
C1325 H1332 0.961 . S
C1325 H1333 0.960 . S
C1326 C1324 1.381 . S
C1326 C1327 1.394 1_455 S
C1326 H1334 0.930 . S
C1327 C1326 1.394 1_655 S
C1327 C1328 1.383 . S
C1327 H1335 0.929 . S
C1328 C1327 1.383 . S
C1328 C1329 1.377 1_655 S
C1329 H1313 0.930 . S
C1329 C1328 1.377 1_455 S
C1329 C1330 1.379 . S
C1330 H1314 0.931 . S
C1330 C1324 1.383 . S
C1330 C1329 1.379 . S
H1331 C1325 0.959 . S
H1332 C1325 0.961 . S
H1333 C1325 0.960 . S
H1334 C1326 0.930 . S
H1335 C1327 0.929 . S
H1336 C1344 0.929 . S
H1337 C1346 0.930 . S
H1338 C1348 0.930 . S
H1339 C1351 0.929 . S
H1340 C1354 0.930 . S
H1341 C1356 0.960 . S
H1342 C1356 0.960 . S
H1343 C1356 0.960 . S
C1344 H1336 0.929 . S
C1344 C1345 1.377 . S
C1344 C1346 1.384 . S
C1345 C1344 1.377 . S
C1345 C1351 1.390 . S
C1346 H1337 0.930 . S
C1346 C1344 1.384 . S
C1346 C1347 1.372 . S
C1347 C1346 1.372 . S
C1347 C1348 1.400 . S
C1347 C1352 1.490 . S
C1348 H1338 0.930 . S
C1348 C1347 1.400 . S
C1348 C1351 1.386 . S
H1349 C1365 0.930 . S
H1350 C1366 0.931 . S
C1351 H1339 0.929 . S
C1351 C1345 1.390 . S
C1351 C1348 1.386 . S
C1352 C1347 1.490 . S
C1352 C1354 1.395 . S
C1352 C1355 1.403 . S
H1353 C1359 0.930 . S
C1354 H1340 0.930 . S
C1354 C1352 1.395 . S
C1354 C1357 1.403 . S
C1355 C1352 1.403 . S
C1355 C1356 1.524 . S
C1355 C1359 1.400 . S
C1356 H1341 0.960 . S
C1356 H1342 0.960 . S
C1356 H1343 0.960 . S
C1356 C1355 1.524 . S
C1357 C1354 1.403 . S
C1357 C1358 1.392 . S
C1357 C1361 1.495 . S
C1358 C1357 1.392 . S
C1358 C1359 1.385 . S
C1358 C1360 1.478 . S
C1359 H1353 0.930 . S
C1359 C1355 1.400 . S
C1359 C1358 1.385 . S
C1360 C1358 1.478 . S
C1360 C1362 1.381 . S
C1360 C1366 1.383 . S
C1361 C1357 1.495 . S
C1361 H1367 0.959 . S
C1361 H1368 0.961 . S
C1361 H1369 0.960 . S
C1362 C1360 1.381 . S
C1362 C1363 1.394 . S
C1362 H1370 0.930 . S
C1363 C1362 1.394 . S
C1363 C1364 1.383 . S
C1363 H1371 0.929 . S
C1364 C1363 1.383 . S
C1364 C1365 1.377 . S
C1365 H1349 0.930 . S
C1365 C1364 1.377 . S
C1365 C1366 1.379 . S
C1366 H1350 0.931 . S
C1366 C1360 1.383 . S
C1366 C1365 1.379 . S
H1367 C1361 0.959 . S
H1368 C1361 0.961 . S
H1369 C1361 0.960 . S
H1370 C1362 0.930 . S
H1371 C1363 0.929 . S
H1372 C1380 0.929 . S
H1373 C1382 0.930 . S
H1374 C1384 0.930 . S
H1375 C1387 0.929 . S
H1376 C1390 0.930 . S
H1377 C1392 0.960 . S
H1378 C1392 0.960 . S
H1379 C1392 0.960 . S
C1380 H1372 0.929 . S
C1380 C1381 1.377 1_455 S
C1380 C1382 1.384 . S
C1381 C1380 1.377 1_655 S
C1381 C1387 1.390 . S
C1382 H1373 0.930 . S
C1382 C1380 1.384 . S
C1382 C1383 1.372 . S
C1383 C1382 1.372 . S
C1383 C1384 1.400 . S
C1383 C1388 1.490 . S
C1384 H1374 0.930 . S
C1384 C1383 1.400 . S
C1384 C1387 1.386 1_455 S
H1385 C1401 0.930 . S
H1386 C1402 0.931 . S
C1387 H1375 0.929 . S
C1387 C1381 1.390 . S
C1387 C1384 1.386 1_655 S
C1388 C1383 1.490 . S
C1388 C1390 1.395 . S
C1388 C1391 1.403 . S
H1389 C1395 0.930 . S
C1390 H1376 0.930 . S
C1390 C1388 1.395 . S
C1390 C1393 1.403 . S
C1391 C1388 1.403 . S
C1391 C1392 1.524 . S
C1391 C1395 1.400 . S
C1392 H1377 0.960 . S
C1392 H1378 0.960 . S
C1392 H1379 0.960 . S
C1392 C1391 1.524 . S
C1393 C1390 1.403 . S
C1393 C1394 1.392 . S
C1393 C1397 1.495 . S
C1394 C1393 1.392 . S
C1394 C1395 1.385 . S
C1394 C1396 1.478 . S
C1395 H1389 0.930 . S
C1395 C1391 1.400 . S
C1395 C1394 1.385 . S
C1396 C1394 1.478 . S
C1396 C1398 1.381 . S
C1396 C1402 1.383 . S
C1397 C1393 1.495 . S
C1397 H1403 0.959 . S
C1397 H1404 0.961 . S
C1397 H1405 0.960 . S
C1398 C1396 1.381 . S
C1398 C1399 1.394 . S
C1398 H1406 0.930 . S
C1399 C1398 1.394 . S
C1399 C1400 1.383 . S
C1399 H1407 0.929 . S
C1400 C1399 1.383 . S
C1400 C1401 1.377 . S
C1401 H1385 0.930 . S
C1401 C1400 1.377 . S
C1401 C1402 1.379 . S
C1402 H1386 0.931 . S
C1402 C1396 1.383 . S
C1402 C1401 1.379 . S
H1403 C1397 0.959 . S
H1404 C1397 0.961 . S
H1405 C1397 0.960 . S
H1406 C1398 0.930 . S
H1407 C1399 0.929 . S
H1408 C1416 0.929 . S
H1409 C1418 0.930 . S
H1410 C1420 0.930 . S
H1411 C1423 0.929 . S
H1412 C1426 0.930 . S
H1413 C1428 0.960 . S
H1414 C1428 0.960 . S
H1415 C1428 0.960 . S
C1416 H1408 0.929 . S
C1416 C1417 1.377 . S
C1416 C1418 1.384 . S
C1417 C1416 1.377 . S
C1417 C1423 1.390 . S
C1418 H1409 0.930 . S
C1418 C1416 1.384 . S
C1418 C1419 1.372 . S
C1419 C1418 1.372 . S
C1419 C1420 1.400 . S
C1419 C1424 1.490 . S
C1420 H1410 0.930 . S
C1420 C1419 1.400 . S
C1420 C1423 1.386 . S
H1421 C1437 0.930 . S
H1422 C1438 0.931 . S
C1423 H1411 0.929 . S
C1423 C1417 1.390 . S
C1423 C1420 1.386 . S
C1424 C1419 1.490 . S
C1424 C1426 1.395 . S
C1424 C1427 1.403 . S
H1425 C1431 0.930 . S
C1426 H1412 0.930 . S
C1426 C1424 1.395 . S
C1426 C1429 1.403 . S
C1427 C1424 1.403 . S
C1427 C1428 1.524 . S
C1427 C1431 1.400 . S
C1428 H1413 0.960 . S
C1428 H1414 0.960 . S
C1428 H1415 0.960 . S
C1428 C1427 1.524 . S
C1429 C1426 1.403 . S
C1429 C1430 1.392 . S
C1429 C1433 1.495 . S
C1430 C1429 1.392 . S
C1430 C1431 1.385 . S
C1430 C1432 1.478 . S
C1431 H1425 0.930 . S
C1431 C1427 1.400 . S
C1431 C1430 1.385 . S
C1432 C1430 1.478 . S
C1432 C1434 1.381 . S
C1432 C1438 1.383 . S
C1433 C1429 1.495 . S
C1433 H1439 0.959 . S
C1433 H1440 0.961 . S
C1433 H1441 0.960 . S
C1434 C1432 1.381 . S
C1434 C1435 1.394 . S
C1434 H1442 0.930 . S
C1435 C1434 1.394 . S
C1435 C1436 1.383 . S
C1435 H1443 0.929 . S
C1436 C1435 1.383 . S
C1436 C1437 1.377 . S
C1437 H1421 0.930 . S
C1437 C1436 1.377 . S
C1437 C1438 1.379 . S
C1438 H1422 0.931 . S
C1438 C1432 1.383 . S
C1438 C1437 1.379 . S
H1439 C1433 0.959 . S
H1440 C1433 0.961 . S
H1441 C1433 0.960 . S
H1442 C1434 0.930 . S
H1443 C1435 0.929 . S
H1444 C1452 0.929 . S
H1445 C1454 0.930 . S
H1446 C1456 0.930 . S
H1447 C1459 0.929 . S
H1448 C1462 0.930 . S
H1449 C1464 0.960 . S
H1450 C1464 0.960 . S
H1451 C1464 0.960 . S
C1452 H1444 0.929 . S
C1452 C1453 1.377 . S
C1452 C1454 1.384 . S
C1453 C1452 1.377 . S
C1453 C1459 1.390 . S
C1454 H1445 0.930 . S
C1454 C1452 1.384 . S
C1454 C1455 1.372 . S
C1455 C1454 1.372 . S
C1455 C1456 1.400 . S
C1455 C1460 1.490 . S
C1456 H1446 0.930 . S
C1456 C1455 1.400 . S
C1456 C1459 1.386 . S
H1457 C1473 0.930 . S
H1458 C1474 0.931 . S
C1459 H1447 0.929 . S
C1459 C1453 1.390 . S
C1459 C1456 1.386 . S
C1460 C1455 1.490 . S
C1460 C1462 1.395 . S
C1460 C1463 1.403 . S
H1461 C1467 0.930 . S
C1462 H1448 0.930 . S
C1462 C1460 1.395 . S
C1462 C1465 1.403 . S
C1463 C1460 1.403 . S
C1463 C1464 1.524 . S
C1463 C1467 1.400 . S
C1464 H1449 0.960 . S
C1464 H1450 0.960 . S
C1464 H1451 0.960 . S
C1464 C1463 1.524 . S
C1465 C1462 1.403 . S
C1465 C1466 1.392 . S
C1465 C1469 1.495 . S
C1466 C1465 1.392 . S
C1466 C1467 1.385 . S
C1466 C1468 1.478 . S
C1467 H1461 0.930 . S
C1467 C1463 1.400 . S
C1467 C1466 1.385 . S
C1468 C1466 1.478 . S
C1468 C1470 1.381 . S
C1468 C1474 1.383 . S
C1469 C1465 1.495 . S
C1469 H1475 0.959 . S
C1469 H1476 0.961 . S
C1469 H1477 0.960 . S
C1470 C1468 1.381 . S
C1470 C1471 1.394 . S
C1470 H1478 0.930 . S
C1471 C1470 1.394 . S
C1471 C1472 1.383 1_655 S
C1471 H1479 0.929 . S
C1472 C1471 1.383 1_455 S
C1472 C1473 1.377 . S
C1473 H1457 0.930 . S
C1473 C1472 1.377 . S
C1473 C1474 1.379 1_455 S
C1474 H1458 0.931 . S
C1474 C1468 1.383 . S
C1474 C1473 1.379 1_655 S
H1475 C1469 0.959 . S
H1476 C1469 0.961 . S
H1477 C1469 0.960 . S
H1478 C1470 0.930 . S
H1479 C1471 0.929 . S
H1480 C1488 0.929 . S
H1481 C1490 0.930 . S
H1482 C1492 0.930 . S
H1483 C1495 0.929 . S
H1484 C1498 0.930 . S
H1485 C1500 0.960 . S
H1486 C1500 0.960 . S
H1487 C1500 0.960 . S
C1488 H1480 0.929 . S
C1488 C1489 1.377 . S
C1488 C1490 1.384 . S
C1489 C1488 1.377 . S
C1489 C1495 1.390 . S
C1490 H1481 0.930 . S
C1490 C1488 1.384 . S
C1490 C1491 1.372 . S
C1491 C1490 1.372 . S
C1491 C1492 1.400 . S
C1491 C1496 1.490 . S
C1492 H1482 0.930 . S
C1492 C1491 1.400 . S
C1492 C1495 1.386 . S
H1493 C1509 0.930 . S
H1494 C1510 0.931 . S
C1495 H1483 0.929 . S
C1495 C1489 1.390 . S
C1495 C1492 1.386 . S
C1496 C1491 1.490 . S
C1496 C1498 1.395 . S
C1496 C1499 1.403 . S
H1497 C1503 0.930 . S
C1498 H1484 0.930 . S
C1498 C1496 1.395 . S
C1498 C1501 1.403 . S
C1499 C1496 1.403 . S
C1499 C1500 1.524 . S
C1499 C1503 1.400 . S
C1500 H1485 0.960 . S
C1500 H1486 0.960 . S
C1500 H1487 0.960 . S
C1500 C1499 1.524 . S
C1501 C1498 1.403 . S
C1501 C1502 1.392 . S
C1501 C1505 1.495 . S
C1502 C1501 1.392 . S
C1502 C1503 1.385 . S
C1502 C1504 1.478 . S
C1503 H1497 0.930 . S
C1503 C1499 1.400 . S
C1503 C1502 1.385 . S
C1504 C1502 1.478 . S
C1504 C1506 1.381 . S
C1504 C1510 1.383 . S
C1505 C1501 1.495 . S
C1505 H1511 0.959 . S
C1505 H1512 0.961 . S
C1505 H1513 0.960 . S
C1506 C1504 1.381 . S
C1506 C1507 1.394 . S
C1506 H1514 0.930 . S
C1507 C1506 1.394 . S
C1507 C1508 1.383 . S
C1507 H1515 0.929 . S
C1508 C1507 1.383 . S
C1508 C1509 1.377 . S
C1509 H1493 0.930 . S
C1509 C1508 1.377 . S
C1509 C1510 1.379 . S
C1510 H1494 0.931 . S
C1510 C1504 1.383 . S
C1510 C1509 1.379 . S
H1511 C1505 0.959 . S
H1512 C1505 0.961 . S
H1513 C1505 0.960 . S
H1514 C1506 0.930 . S
H1515 C1507 0.929 . S
H1516 C1524 0.929 . S
H1517 C1526 0.930 . S
H1518 C1528 0.930 . S
H1519 C1531 0.929 . S
H1520 C1534 0.930 . S
H1521 C1536 0.960 . S
H1522 C1536 0.960 . S
H1523 C1536 0.960 . S
C1524 H1516 0.929 . S
C1524 C1525 1.377 . S
C1524 C1526 1.384 . S
C1525 C1524 1.377 . S
C1525 C1531 1.390 . S
C1526 H1517 0.930 . S
C1526 C1524 1.384 . S
C1526 C1527 1.372 . S
C1527 C1526 1.372 . S
C1527 C1528 1.400 . S
C1527 C1532 1.490 . S
C1528 H1518 0.930 . S
C1528 C1527 1.400 . S
C1528 C1531 1.386 . S
H1529 C1545 0.930 . S
H1530 C1546 0.931 . S
C1531 H1519 0.929 . S
C1531 C1525 1.390 . S
C1531 C1528 1.386 . S
C1532 C1527 1.490 . S
C1532 C1534 1.395 . S
C1532 C1535 1.403 . S
H1533 C1539 0.930 . S
C1534 H1520 0.930 . S
C1534 C1532 1.395 . S
C1534 C1537 1.403 . S
C1535 C1532 1.403 . S
C1535 C1536 1.524 . S
C1535 C1539 1.400 . S
C1536 H1521 0.960 . S
C1536 H1522 0.960 . S
C1536 H1523 0.960 . S
C1536 C1535 1.524 . S
C1537 C1534 1.403 . S
C1537 C1538 1.392 . S
C1537 C1541 1.495 . S
C1538 C1537 1.392 . S
C1538 C1539 1.385 . S
C1538 C1540 1.478 . S
C1539 H1533 0.930 . S
C1539 C1535 1.400 . S
C1539 C1538 1.385 . S
C1540 C1538 1.478 . S
C1540 C1542 1.381 . S
C1540 C1546 1.383 . S
C1541 C1537 1.495 . S
C1541 H1547 0.959 . S
C1541 H1548 0.961 . S
C1541 H1549 0.960 . S
C1542 C1540 1.381 . S
C1542 C1543 1.394 . S
C1542 H1550 0.930 . S
C1543 C1542 1.394 . S
C1543 C1544 1.383 1_655 S
C1543 H1551 0.929 . S
C1544 C1543 1.383 1_455 S
C1544 C1545 1.377 . S
C1545 H1529 0.930 . S
C1545 C1544 1.377 . S
C1545 C1546 1.379 1_455 S
C1546 H1530 0.931 . S
C1546 C1540 1.383 . S
C1546 C1545 1.379 1_655 S
H1547 C1541 0.959 . S
H1548 C1541 0.961 . S
H1549 C1541 0.960 . S
H1550 C1542 0.930 . S
H1551 C1543 0.929 . S
H1552 C1560 0.929 . S
H1553 C1562 0.930 . S
H1554 C1564 0.930 . S
H1555 C1567 0.929 . S
H1556 C1570 0.930 . S
H1557 C1572 0.960 . S
H1558 C1572 0.960 . S
H1559 C1572 0.960 . S
C1560 H1552 0.929 . S
C1560 C1561 1.377 . S
C1560 C1562 1.384 . S
C1561 C1560 1.377 . S
C1561 C1567 1.390 . S
C1562 H1553 0.930 . S
C1562 C1560 1.384 . S
C1562 C1563 1.372 . S
C1563 C1562 1.372 . S
C1563 C1564 1.400 . S
C1563 C1568 1.490 . S
C1564 H1554 0.930 . S
C1564 C1563 1.400 . S
C1564 C1567 1.386 . S
H1565 C1581 0.930 . S
H1566 C1582 0.931 . S
C1567 H1555 0.929 . S
C1567 C1561 1.390 . S
C1567 C1564 1.386 . S
C1568 C1563 1.490 . S
C1568 C1570 1.395 . S
C1568 C1571 1.403 . S
H1569 C1575 0.930 . S
C1570 H1556 0.930 . S
C1570 C1568 1.395 . S
C1570 C1573 1.403 . S
C1571 C1568 1.403 . S
C1571 C1572 1.524 . S
C1571 C1575 1.400 . S
C1572 H1557 0.960 . S
C1572 H1558 0.960 . S
C1572 H1559 0.960 . S
C1572 C1571 1.524 . S
C1573 C1570 1.403 . S
C1573 C1574 1.392 . S
C1573 C1577 1.495 . S
C1574 C1573 1.392 . S
C1574 C1575 1.385 . S
C1574 C1576 1.478 . S
C1575 H1569 0.930 . S
C1575 C1571 1.400 . S
C1575 C1574 1.385 . S
C1576 C1574 1.478 . S
C1576 C1578 1.381 . S
C1576 C1582 1.383 . S
C1577 C1573 1.495 . S
C1577 H1583 0.959 . S
C1577 H1584 0.961 . S
C1577 H1585 0.960 . S
C1578 C1576 1.381 . S
C1578 C1579 1.394 . S
C1578 H1586 0.930 . S
C1579 C1578 1.394 . S
C1579 C1580 1.383 . S
C1579 H1587 0.929 . S
C1580 C1579 1.383 . S
C1580 C1581 1.377 . S
C1581 H1565 0.930 . S
C1581 C1580 1.377 . S
C1581 C1582 1.379 . S
C1582 H1566 0.931 . S
C1582 C1576 1.383 . S
C1582 C1581 1.379 . S
H1583 C1577 0.959 . S
H1584 C1577 0.961 . S
H1585 C1577 0.960 . S
H1586 C1578 0.930 . S
H1587 C1579 0.929 . S
H1588 C1596 0.929 . S
H1589 C1598 0.930 . S
H1590 C1600 0.930 . S
H1591 C1603 0.929 . S
H1592 C1606 0.930 . S
H1593 C1608 0.960 . S
H1594 C1608 0.960 . S
H1595 C1608 0.960 . S
C1596 H1588 0.929 . S
C1596 C1597 1.377 . S
C1596 C1598 1.384 . S
C1597 C1596 1.377 . S
C1597 C1603 1.390 1_655 S
C1598 H1589 0.930 . S
C1598 C1596 1.384 . S
C1598 C1599 1.372 1_655 S
C1599 C1598 1.372 1_455 S
C1599 C1600 1.400 . S
C1599 C1604 1.490 . S
C1600 H1590 0.930 . S
C1600 C1599 1.400 . S
C1600 C1603 1.386 . S
H1601 C1617 0.930 . S
H1602 C1618 0.931 . S
C1603 H1591 0.929 . S
C1603 C1597 1.390 1_455 S
C1603 C1600 1.386 . S
C1604 C1599 1.490 . S
C1604 C1606 1.395 . S
C1604 C1607 1.403 . S
H1605 C1611 0.930 . S
C1606 H1592 0.930 . S
C1606 C1604 1.395 . S
C1606 C1609 1.403 . S
C1607 C1604 1.403 . S
C1607 C1608 1.524 . S
C1607 C1611 1.400 . S
C1608 H1593 0.960 . S
C1608 H1594 0.960 . S
C1608 H1595 0.960 . S
C1608 C1607 1.524 . S
C1609 C1606 1.403 . S
C1609 C1610 1.392 . S
C1609 C1613 1.495 . S
C1610 C1609 1.392 . S
C1610 C1611 1.385 . S
C1610 C1612 1.478 . S
C1611 H1605 0.930 . S
C1611 C1607 1.400 . S
C1611 C1610 1.385 . S
C1612 C1610 1.478 . S
C1612 C1614 1.381 . S
C1612 C1618 1.383 . S
C1613 C1609 1.495 . S
C1613 H1619 0.959 . S
C1613 H1620 0.961 . S
C1613 H1621 0.960 . S
C1614 C1612 1.381 . S
C1614 C1615 1.394 . S
C1614 H1622 0.930 . S
C1615 C1614 1.394 . S
C1615 C1616 1.383 . S
C1615 H1623 0.929 . S
C1616 C1615 1.383 . S
C1616 C1617 1.377 . S
C1617 H1601 0.930 . S
C1617 C1616 1.377 . S
C1617 C1618 1.379 . S
C1618 H1602 0.931 . S
C1618 C1612 1.383 . S
C1618 C1617 1.379 . S
H1619 C1613 0.959 . S
H1620 C1613 0.961 . S
H1621 C1613 0.960 . S
H1622 C1614 0.930 . S
H1623 C1615 0.929 . S
H1624 C1632 0.929 . S
H1625 C1634 0.930 . S
H1626 C1636 0.930 . S
H1627 C1639 0.929 . S
H1628 C1642 0.930 . S
H1629 C1644 0.960 . S
H1630 C1644 0.960 . S
H1631 C1644 0.960 . S
C1632 H1624 0.929 . S
C1632 C1633 1.377 . S
C1632 C1634 1.384 . S
C1633 C1632 1.377 . S
C1633 C1639 1.390 . S
C1634 H1625 0.930 . S
C1634 C1632 1.384 . S
C1634 C1635 1.372 . S
C1635 C1634 1.372 . S
C1635 C1636 1.400 . S
C1635 C1640 1.490 . S
C1636 H1626 0.930 . S
C1636 C1635 1.400 . S
C1636 C1639 1.386 . S
H1637 C1653 0.930 . S
H1638 C1654 0.931 . S
C1639 H1627 0.929 . S
C1639 C1633 1.390 . S
C1639 C1636 1.386 . S
C1640 C1635 1.490 . S
C1640 C1642 1.395 . S
C1640 C1643 1.403 . S
H1641 C1647 0.930 . S
C1642 H1628 0.930 . S
C1642 C1640 1.395 . S
C1642 C1645 1.403 . S
C1643 C1640 1.403 . S
C1643 C1644 1.524 . S
C1643 C1647 1.400 . S
C1644 H1629 0.960 . S
C1644 H1630 0.960 . S
C1644 H1631 0.960 . S
C1644 C1643 1.524 . S
C1645 C1642 1.403 . S
C1645 C1646 1.392 . S
C1645 C1649 1.495 . S
C1646 C1645 1.392 . S
C1646 C1647 1.385 . S
C1646 C1648 1.478 . S
C1647 H1641 0.930 . S
C1647 C1643 1.400 . S
C1647 C1646 1.385 . S
C1648 C1646 1.478 . S
C1648 C1650 1.381 . S
C1648 C1654 1.383 . S
C1649 C1645 1.495 . S
C1649 H1655 0.959 . S
C1649 H1656 0.961 . S
C1649 H1657 0.960 . S
C1650 C1648 1.381 . S
C1650 C1651 1.394 . S
C1650 H1658 0.930 . S
C1651 C1650 1.394 . S
C1651 C1652 1.383 . S
C1651 H1659 0.929 . S
C1652 C1651 1.383 . S
C1652 C1653 1.377 . S
C1653 H1637 0.930 . S
C1653 C1652 1.377 . S
C1653 C1654 1.379 . S
C1654 H1638 0.931 . S
C1654 C1648 1.383 . S
C1654 C1653 1.379 . S
H1655 C1649 0.959 . S
H1656 C1649 0.961 . S
H1657 C1649 0.960 . S
H1658 C1650 0.930 . S
H1659 C1651 0.929 . S
H1660 C1668 0.929 . S
H1661 C1670 0.930 . S
H1662 C1672 0.930 . S
H1663 C1675 0.929 . S
H1664 C1678 0.930 . S
H1665 C1680 0.960 . S
H1666 C1680 0.960 . S
H1667 C1680 0.960 1_655 S
C1668 H1660 0.929 . S
C1668 C1669 1.377 1_455 S
C1668 C1670 1.384 . S
C1669 C1668 1.377 1_655 S
C1669 C1675 1.390 . S
C1670 H1661 0.930 . S
C1670 C1668 1.384 . S
C1670 C1671 1.372 . S
C1671 C1670 1.372 . S
C1671 C1672 1.400 . S
C1671 C1676 1.490 . S
C1672 H1662 0.930 . S
C1672 C1671 1.400 . S
C1672 C1675 1.386 1_455 S
H1673 C1689 0.930 . S
H1674 C1690 0.931 . S
C1675 H1663 0.929 . S
C1675 C1669 1.390 . S
C1675 C1672 1.386 1_655 S
C1676 C1671 1.490 . S
C1676 C1678 1.395 . S
C1676 C1679 1.403 . S
H1677 C1683 0.930 . S
C1678 H1664 0.930 . S
C1678 C1676 1.395 . S
C1678 C1681 1.403 . S
C1679 C1676 1.403 . S
C1679 C1680 1.524 . S
C1679 C1683 1.400 . S
C1680 H1665 0.960 . S
C1680 H1666 0.960 . S
C1680 H1667 0.960 1_455 S
C1680 C1679 1.524 . S
C1681 C1678 1.403 . S
C1681 C1682 1.392 . S
C1681 C1685 1.495 . S
C1682 C1681 1.392 . S
C1682 C1683 1.385 . S
C1682 C1684 1.478 . S
C1683 H1677 0.930 . S
C1683 C1679 1.400 . S
C1683 C1682 1.385 . S
C1684 C1682 1.478 . S
C1684 C1686 1.381 . S
C1684 C1690 1.383 . S
C1685 C1681 1.495 . S
C1685 H1691 0.959 . S
C1685 H1692 0.961 . S
C1685 H1693 0.960 . S
C1686 C1684 1.381 . S
C1686 C1687 1.394 . S
C1686 H1694 0.930 . S
C1687 C1686 1.394 . S
C1687 C1688 1.383 . S
C1687 H1695 0.929 . S
C1688 C1687 1.383 . S
C1688 C1689 1.377 . S
C1689 H1673 0.930 . S
C1689 C1688 1.377 . S
C1689 C1690 1.379 . S
C1690 H1674 0.931 . S
C1690 C1684 1.383 . S
C1690 C1689 1.379 . S
H1691 C1685 0.959 . S
H1692 C1685 0.961 . S
H1693 C1685 0.960 . S
H1694 C1686 0.930 . S
H1695 C1687 0.929 . S
H1696 C1704 0.929 . S
H1697 C1706 0.930 . S
H1698 C1708 0.930 . S
H1699 C1711 0.929 . S
H1700 C1714 0.930 . S
H1701 C1716 0.960 . S
H1702 C1716 0.960 . S
H1703 C1716 0.960 . S
C1704 H1696 0.929 . S
C1704 C1705 1.377 . S
C1704 C1706 1.384 . S
C1705 C1704 1.377 . S
C1705 C1711 1.390 . S
C1706 H1697 0.930 . S
C1706 C1704 1.384 . S
C1706 C1707 1.372 . S
C1707 C1706 1.372 . S
C1707 C1708 1.400 . S
C1707 C1712 1.490 . S
C1708 H1698 0.930 . S
C1708 C1707 1.400 . S
C1708 C1711 1.386 . S
H1709 C1725 0.930 . S
H1710 C1726 0.931 . S
C1711 H1699 0.929 . S
C1711 C1705 1.390 . S
C1711 C1708 1.386 . S
C1712 C1707 1.490 . S
C1712 C1714 1.395 . S
C1712 C1715 1.403 . S
H1713 C1719 0.930 . S
C1714 H1700 0.930 . S
C1714 C1712 1.395 . S
C1714 C1717 1.403 . S
C1715 C1712 1.403 . S
C1715 C1716 1.524 . S
C1715 C1719 1.400 . S
C1716 H1701 0.960 . S
C1716 H1702 0.960 . S
C1716 H1703 0.960 . S
C1716 C1715 1.524 . S
C1717 C1714 1.403 . S
C1717 C1718 1.392 . S
C1717 C1721 1.495 . S
C1718 C1717 1.392 . S
C1718 C1719 1.385 . S
C1718 C1720 1.478 . S
C1719 H1713 0.930 . S
C1719 C1715 1.400 . S
C1719 C1718 1.385 . S
C1720 C1718 1.478 . S
C1720 C1722 1.381 . S
C1720 C1726 1.383 . S
C1721 C1717 1.495 . S
C1721 H1727 0.959 . S
C1721 H1728 0.961 . S
C1721 H1729 0.960 . S
C1722 C1720 1.381 . S
C1722 C1723 1.394 . S
C1722 H1730 0.930 . S
C1723 C1722 1.394 . S
C1723 C1724 1.383 . S
C1723 H1731 0.929 . S
C1724 C1723 1.383 . S
C1724 C1725 1.377 . S
C1725 H1709 0.930 . S
C1725 C1724 1.377 . S
C1725 C1726 1.379 . S
C1726 H1710 0.931 . S
C1726 C1720 1.383 . S
C1726 C1725 1.379 . S
H1727 C1721 0.959 . S
H1728 C1721 0.961 . S
H1729 C1721 0.960 . S
H1730 C1722 0.930 . S
H1731 C1723 0.929 . S
H1732 C1740 0.929 . S
H1733 C1742 0.930 . S
H1734 C1744 0.930 . S
H1735 C1747 0.929 . S
H1736 C1750 0.930 . S
H1737 C1752 0.960 . S
H1738 C1752 0.960 . S
H1739 C1752 0.960 . S
C1740 H1732 0.929 . S
C1740 C1741 1.377 . S
C1740 C1742 1.384 . S
C1741 C1740 1.377 . S
C1741 C1747 1.390 . S
C1742 H1733 0.930 . S
C1742 C1740 1.384 . S
C1742 C1743 1.372 . S
C1743 C1742 1.372 . S
C1743 C1744 1.400 . S
C1743 C1748 1.490 . S
C1744 H1734 0.930 . S
C1744 C1743 1.400 . S
C1744 C1747 1.386 . S
H1745 C1761 0.930 . S
H1746 C1762 0.931 . S
C1747 H1735 0.929 . S
C1747 C1741 1.390 . S
C1747 C1744 1.386 . S
C1748 C1743 1.490 . S
C1748 C1750 1.395 . S
C1748 C1751 1.403 . S
H1749 C1755 0.930 . S
C1750 H1736 0.930 . S
C1750 C1748 1.395 . S
C1750 C1753 1.403 . S
C1751 C1748 1.403 . S
C1751 C1752 1.524 . S
C1751 C1755 1.400 . S
C1752 H1737 0.960 . S
C1752 H1738 0.960 . S
C1752 H1739 0.960 . S
C1752 C1751 1.524 . S
C1753 C1750 1.403 . S
C1753 C1754 1.392 . S
C1753 C1757 1.495 . S
C1754 C1753 1.392 . S
C1754 C1755 1.385 . S
C1754 C1756 1.478 . S
C1755 H1749 0.930 . S
C1755 C1751 1.400 . S
C1755 C1754 1.385 . S
C1756 C1754 1.478 . S
C1756 C1758 1.381 . S
C1756 C1762 1.383 . S
C1757 C1753 1.495 . S
C1757 H1763 0.959 . S
C1757 H1764 0.961 . S
C1757 H1765 0.960 . S
C1758 C1756 1.381 . S
C1758 C1759 1.394 . S
C1758 H1766 0.930 . S
C1759 C1758 1.394 . S
C1759 C1760 1.383 . S
C1759 H1767 0.929 . S
C1760 C1759 1.383 . S
C1760 C1761 1.377 . S
C1761 H1745 0.930 . S
C1761 C1760 1.377 . S
C1761 C1762 1.379 . S
C1762 H1746 0.931 . S
C1762 C1756 1.383 . S
C1762 C1761 1.379 . S
H1763 C1757 0.959 . S
H1764 C1757 0.961 . S
H1765 C1757 0.960 . S
H1766 C1758 0.930 . S
H1767 C1759 0.929 . S
H1768 C1776 0.929 . S
H1769 C1778 0.930 . S
H1770 C1780 0.930 . S
H1771 C1783 0.929 . S
H1772 C1786 0.930 . S
H1773 C1788 0.960 . S
H1774 C1788 0.960 . S
H1775 C1788 0.960 . S
C1776 H1768 0.929 . S
C1776 C1777 1.377 . S
C1776 C1778 1.384 . S
C1777 C1776 1.377 . S
C1777 C1783 1.390 . S
C1778 H1769 0.930 . S
C1778 C1776 1.384 . S
C1778 C1779 1.372 . S
C1779 C1778 1.372 . S
C1779 C1780 1.400 . S
C1779 C1784 1.490 . S
C1780 H1770 0.930 . S
C1780 C1779 1.400 . S
C1780 C1783 1.386 . S
H1781 C1797 0.930 . S
H1782 C1798 0.931 . S
C1783 H1771 0.929 . S
C1783 C1777 1.390 . S
C1783 C1780 1.386 . S
C1784 C1779 1.490 . S
C1784 C1786 1.395 . S
C1784 C1787 1.403 . S
H1785 C1791 0.930 . S
C1786 H1772 0.930 . S
C1786 C1784 1.395 . S
C1786 C1789 1.403 . S
C1787 C1784 1.403 . S
C1787 C1788 1.524 . S
C1787 C1791 1.400 . S
C1788 H1773 0.960 . S
C1788 H1774 0.960 . S
C1788 H1775 0.960 . S
C1788 C1787 1.524 . S
C1789 C1786 1.403 . S
C1789 C1790 1.392 . S
C1789 C1793 1.495 . S
C1790 C1789 1.392 . S
C1790 C1791 1.385 . S
C1790 C1792 1.478 . S
C1791 H1785 0.930 . S
C1791 C1787 1.400 . S
C1791 C1790 1.385 . S
C1792 C1790 1.478 . S
C1792 C1794 1.381 . S
C1792 C1798 1.383 . S
C1793 C1789 1.495 . S
C1793 H1799 0.959 . S
C1793 H1800 0.961 . S
C1793 H1801 0.960 . S
C1794 C1792 1.381 . S
C1794 C1795 1.394 . S
C1794 H1802 0.930 . S
C1795 C1794 1.394 . S
C1795 C1796 1.383 . S
C1795 H1803 0.929 . S
C1796 C1795 1.383 . S
C1796 C1797 1.377 . S
C1797 H1781 0.930 . S
C1797 C1796 1.377 . S
C1797 C1798 1.379 . S
C1798 H1782 0.931 . S
C1798 C1792 1.383 . S
C1798 C1797 1.379 . S
H1799 C1793 0.959 . S
H1800 C1793 0.961 . S
H1801 C1793 0.960 . S
H1802 C1794 0.930 . S
H1803 C1795 0.929 . S
H1804 C1812 0.929 . S
H1805 C1814 0.930 . S
H1806 C1816 0.930 . S
H1807 C1819 0.929 . S
H1808 C1822 0.930 . S
H1809 C1824 0.960 . S
H1810 C1824 0.960 . S
H1811 C1824 0.960 . S
C1812 H1804 0.929 . S
C1812 C1813 1.377 . S
C1812 C1814 1.384 . S
C1813 C1812 1.377 . S
C1813 C1819 1.390 . S
C1814 H1805 0.930 . S
C1814 C1812 1.384 . S
C1814 C1815 1.372 . S
C1815 C1814 1.372 . S
C1815 C1816 1.400 . S
C1815 C1820 1.490 . S
C1816 H1806 0.930 . S
C1816 C1815 1.400 . S
C1816 C1819 1.386 . S
H1817 C1833 0.930 . S
H1818 C1834 0.931 . S
C1819 H1807 0.929 . S
C1819 C1813 1.390 . S
C1819 C1816 1.386 . S
C1820 C1815 1.490 . S
C1820 C1822 1.395 . S
C1820 C1823 1.403 . S
H1821 C1827 0.930 . S
C1822 H1808 0.930 . S
C1822 C1820 1.395 . S
C1822 C1825 1.403 . S
C1823 C1820 1.403 . S
C1823 C1824 1.524 . S
C1823 C1827 1.400 . S
C1824 H1809 0.960 . S
C1824 H1810 0.960 . S
C1824 H1811 0.960 . S
C1824 C1823 1.524 . S
C1825 C1822 1.403 . S
C1825 C1826 1.392 . S
C1825 C1829 1.495 . S
C1826 C1825 1.392 . S
C1826 C1827 1.385 . S
C1826 C1828 1.478 . S
C1827 H1821 0.930 . S
C1827 C1823 1.400 . S
C1827 C1826 1.385 . S
C1828 C1826 1.478 . S
C1828 C1830 1.381 . S
C1828 C1834 1.383 . S
C1829 C1825 1.495 . S
C1829 H1835 0.959 . S
C1829 H1836 0.961 . S
C1829 H1837 0.960 . S
C1830 C1828 1.381 . S
C1830 C1831 1.394 . S
C1830 H1838 0.930 . S
C1831 C1830 1.394 . S
C1831 C1832 1.383 . S
C1831 H1839 0.929 . S
C1832 C1831 1.383 . S
C1832 C1833 1.377 . S
C1833 H1817 0.930 . S
C1833 C1832 1.377 . S
C1833 C1834 1.379 . S
C1834 H1818 0.931 . S
C1834 C1828 1.383 . S
C1834 C1833 1.379 . S
H1835 C1829 0.959 . S
H1836 C1829 0.961 . S
H1837 C1829 0.960 . S
H1838 C1830 0.930 . S
H1839 C1831 0.929 . S
H1840 C1848 0.929 . S
H1841 C1850 0.930 . S
H1842 C1852 0.930 . S
H1843 C1855 0.929 . S
H1844 C1858 0.930 . S
H1845 C1860 0.960 . S
H1846 C1860 0.960 . S
H1847 C1860 0.960 . S
C1848 H1840 0.929 . S
C1848 C1849 1.377 . S
C1848 C1850 1.384 . S
C1849 C1848 1.377 . S
C1849 C1855 1.390 . S
C1850 H1841 0.930 . S
C1850 C1848 1.384 . S
C1850 C1851 1.372 . S
C1851 C1850 1.372 . S
C1851 C1852 1.400 . S
C1851 C1856 1.490 . S
C1852 H1842 0.930 . S
C1852 C1851 1.400 . S
C1852 C1855 1.386 . S
H1853 C1869 0.930 . S
H1854 C1870 0.931 . S
C1855 H1843 0.929 . S
C1855 C1849 1.390 . S
C1855 C1852 1.386 . S
C1856 C1851 1.490 . S
C1856 C1858 1.395 . S
C1856 C1859 1.403 . S
H1857 C1863 0.930 . S
C1858 H1844 0.930 . S
C1858 C1856 1.395 . S
C1858 C1861 1.403 . S
C1859 C1856 1.403 . S
C1859 C1860 1.524 . S
C1859 C1863 1.400 . S
C1860 H1845 0.960 . S
C1860 H1846 0.960 . S
C1860 H1847 0.960 . S
C1860 C1859 1.524 . S
C1861 C1858 1.403 . S
C1861 C1862 1.392 . S
C1861 C1865 1.495 . S
C1862 C1861 1.392 . S
C1862 C1863 1.385 . S
C1862 C1864 1.478 . S
C1863 H1857 0.930 . S
C1863 C1859 1.400 . S
C1863 C1862 1.385 . S
C1864 C1862 1.478 . S
C1864 C1866 1.381 . S
C1864 C1870 1.383 . S
C1865 C1861 1.495 . S
C1865 H1871 0.959 . S
C1865 H1872 0.961 . S
C1865 H1873 0.960 . S
C1866 C1864 1.381 . S
C1866 C1867 1.394 . S
C1866 H1874 0.930 . S
C1867 C1866 1.394 . S
C1867 C1868 1.383 . S
C1867 H1875 0.929 . S
C1868 C1867 1.383 . S
C1868 C1869 1.377 . S
C1869 H1853 0.930 . S
C1869 C1868 1.377 . S
C1869 C1870 1.379 . S
C1870 H1854 0.931 . S
C1870 C1864 1.383 . S
C1870 C1869 1.379 . S
H1871 C1865 0.959 . S
H1872 C1865 0.961 . S
H1873 C1865 0.960 . S
H1874 C1866 0.930 . S
H1875 C1867 0.929 . S
H1876 C1884 0.929 . S
H1877 C1886 0.930 . S
H1878 C1888 0.930 . S
H1879 C1891 0.929 . S
H1880 C1894 0.930 . S
H1881 C1896 0.960 . S
H1882 C1896 0.960 . S
H1883 C1896 0.960 . S
C1884 H1876 0.929 . S
C1884 C1885 1.377 . S
C1884 C1886 1.384 . S
C1885 C1884 1.377 . S
C1885 C1891 1.390 . S
C1886 H1877 0.930 . S
C1886 C1884 1.384 . S
C1886 C1887 1.372 . S
C1887 C1886 1.372 . S
C1887 C1888 1.400 . S
C1887 C1892 1.490 . S
C1888 H1878 0.930 . S
C1888 C1887 1.400 . S
C1888 C1891 1.386 . S
H1889 C1905 0.930 . S
H1890 C1906 0.931 . S
C1891 H1879 0.929 . S
C1891 C1885 1.390 . S
C1891 C1888 1.386 . S
C1892 C1887 1.490 . S
C1892 C1894 1.395 . S
C1892 C1895 1.403 . S
H1893 C1899 0.930 . S
C1894 H1880 0.930 . S
C1894 C1892 1.395 . S
C1894 C1897 1.403 . S
C1895 C1892 1.403 . S
C1895 C1896 1.524 . S
C1895 C1899 1.400 . S
C1896 H1881 0.960 . S
C1896 H1882 0.960 . S
C1896 H1883 0.960 . S
C1896 C1895 1.524 . S
C1897 C1894 1.403 . S
C1897 C1898 1.392 . S
C1897 C1901 1.495 . S
C1898 C1897 1.392 . S
C1898 C1899 1.385 . S
C1898 C1900 1.478 . S
C1899 H1893 0.930 . S
C1899 C1895 1.400 . S
C1899 C1898 1.385 . S
C1900 C1898 1.478 . S
C1900 C1902 1.381 . S
C1900 C1906 1.383 . S
C1901 C1897 1.495 . S
C1901 H1907 0.959 . S
C1901 H1908 0.961 . S
C1901 H1909 0.960 . S
C1902 C1900 1.381 . S
C1902 C1903 1.394 . S
C1902 H1910 0.930 . S
C1903 C1902 1.394 . S
C1903 C1904 1.383 . S
C1903 H1911 0.929 . S
C1904 C1903 1.383 . S
C1904 C1905 1.377 . S
C1905 H1889 0.930 . S
C1905 C1904 1.377 . S
C1905 C1906 1.379 . S
C1906 H1890 0.931 . S
C1906 C1900 1.383 . S
C1906 C1905 1.379 . S
H1907 C1901 0.959 . S
H1908 C1901 0.961 . S
H1909 C1901 0.960 . S
H1910 C1902 0.930 . S
H1911 C1903 0.929 . S
H1912 C1920 0.929 . S
H1913 C1922 0.930 . S
H1914 C1924 0.930 . S
H1915 C1927 0.929 . S
H1916 C1930 0.930 . S
H1917 C1932 0.960 . S
H1918 C1932 0.960 . S
H1919 C1932 0.960 . S
C1920 H1912 0.929 . S
C1920 C1921 1.377 . S
C1920 C1922 1.384 . S
C1921 C1920 1.377 . S
C1921 C1927 1.390 . S
C1922 H1913 0.930 . S
C1922 C1920 1.384 . S
C1922 C1923 1.372 . S
C1923 C1922 1.372 . S
C1923 C1924 1.400 . S
C1923 C1928 1.490 . S
C1924 H1914 0.930 . S
C1924 C1923 1.400 . S
C1924 C1927 1.386 . S
H1925 C1941 0.930 . S
H1926 C1942 0.931 . S
C1927 H1915 0.929 . S
C1927 C1921 1.390 . S
C1927 C1924 1.386 . S
C1928 C1923 1.490 . S
C1928 C1930 1.395 . S
C1928 C1931 1.403 . S
H1929 C1935 0.930 . S
C1930 H1916 0.930 . S
C1930 C1928 1.395 . S
C1930 C1933 1.403 . S
C1931 C1928 1.403 . S
C1931 C1932 1.524 . S
C1931 C1935 1.400 . S
C1932 H1917 0.960 . S
C1932 H1918 0.960 . S
C1932 H1919 0.960 . S
C1932 C1931 1.524 . S
C1933 C1930 1.403 . S
C1933 C1934 1.392 . S
C1933 C1937 1.495 . S
C1934 C1933 1.392 . S
C1934 C1935 1.385 . S
C1934 C1936 1.478 . S
C1935 H1929 0.930 . S
C1935 C1931 1.400 . S
C1935 C1934 1.385 . S
C1936 C1934 1.478 . S
C1936 C1938 1.381 . S
C1936 C1942 1.383 . S
C1937 C1933 1.495 . S
C1937 H1943 0.959 . S
C1937 H1944 0.961 . S
C1937 H1945 0.960 . S
C1938 C1936 1.381 . S
C1938 C1939 1.394 . S
C1938 H1946 0.930 . S
C1939 C1938 1.394 . S
C1939 C1940 1.383 . S
C1939 H1947 0.929 . S
C1940 C1939 1.383 . S
C1940 C1941 1.377 . S
C1941 H1925 0.930 . S
C1941 C1940 1.377 . S
C1941 C1942 1.379 . S
C1942 H1926 0.931 . S
C1942 C1936 1.383 . S
C1942 C1941 1.379 . S
H1943 C1937 0.959 . S
H1944 C1937 0.961 . S
H1945 C1937 0.960 . S
H1946 C1938 0.930 . S
H1947 C1939 0.929 . S
H1948 C1956 0.929 . S
H1949 C1958 0.930 . S
H1950 C1960 0.930 . S
H1951 C1963 0.929 . S
H1952 C1966 0.930 . S
H1953 C1968 0.960 . S
H1954 C1968 0.960 . S
H1955 C1968 0.960 . S
C1956 H1948 0.929 . S
C1956 C1957 1.377 . S
C1956 C1958 1.384 . S
C1957 C1956 1.377 . S
C1957 C1963 1.390 . S
C1958 H1949 0.930 . S
C1958 C1956 1.384 . S
C1958 C1959 1.372 . S
C1959 C1958 1.372 . S
C1959 C1960 1.400 . S
C1959 C1964 1.490 . S
C1960 H1950 0.930 . S
C1960 C1959 1.400 . S
C1960 C1963 1.386 . S
H1961 C1977 0.930 . S
H1962 C1978 0.931 . S
C1963 H1951 0.929 . S
C1963 C1957 1.390 . S
C1963 C1960 1.386 . S
C1964 C1959 1.490 . S
C1964 C1966 1.395 . S
C1964 C1967 1.403 . S
H1965 C1971 0.930 . S
C1966 H1952 0.930 . S
C1966 C1964 1.395 . S
C1966 C1969 1.403 . S
C1967 C1964 1.403 . S
C1967 C1968 1.524 . S
C1967 C1971 1.400 . S
C1968 H1953 0.960 . S
C1968 H1954 0.960 . S
C1968 H1955 0.960 . S
C1968 C1967 1.524 . S
C1969 C1966 1.403 . S
C1969 C1970 1.392 . S
C1969 C1973 1.495 . S
C1970 C1969 1.392 . S
C1970 C1971 1.385 . S
C1970 C1972 1.478 . S
C1971 H1965 0.930 . S
C1971 C1967 1.400 . S
C1971 C1970 1.385 . S
C1972 C1970 1.478 . S
C1972 C1974 1.381 . S
C1972 C1978 1.383 . S
C1973 C1969 1.495 . S
C1973 H1979 0.959 . S
C1973 H1980 0.961 . S
C1973 H1981 0.960 . S
C1974 C1972 1.381 . S
C1974 C1975 1.394 . S
C1974 H1982 0.930 . S
C1975 C1974 1.394 . S
C1975 C1976 1.383 . S
C1975 H1983 0.929 . S
C1976 C1975 1.383 . S
C1976 C1977 1.377 . S
C1977 H1961 0.930 . S
C1977 C1976 1.377 . S
C1977 C1978 1.379 . S
C1978 H1962 0.931 . S
C1978 C1972 1.383 . S
C1978 C1977 1.379 . S
H1979 C1973 0.959 . S
H1980 C1973 0.961 . S
H1981 C1973 0.960 . S
H1982 C1974 0.930 . S
H1983 C1975 0.929 . S
C553 C9 1.458 . S
C572 C485 1.473 . S
C589 C73 1.788 . S
C608 C5 1.795 . S
C625 C39 1.787 . S
C644 C379 1.773 . S
C661 C247 1.448 . S
C680 C43 1.470 . S
C697 C77 1.447 . S
C716 C417 1.413 . S
C733 C107 1.784 . S
C752 C311 1.779 . S
C769 C111 1.456 . S
C788 C179 1.439 . S
C805 C349 1.445 . S
C824 C145 1.454 . S
C841 C209 1.789 . S
C860 C141 1.788 . S
C877 C175 1.788 . S
C896 C515 1.776 . S
C913 C281 1.457 . S
C932 C213 1.475 . S
C949 C447 1.785 . S
C968 C243 1.772 . S
C985 C277 1.784 . S
C1004 C345 1.778 . S
C1021 C519 1.458 . S
C1040 C315 1.472 . S
C1057 C383 1.451 . S
C1076 C451 1.418 . S
C1093 C413 1.785 . S
C1112 C481 1.788 . S
C1129 C2 1.268 . S
C1148 C308 1.260 . S
C1165 C339 1.221 . S
C1184 C33 1.203 . S
C1201 C67 1.222 . S
C1220 C305 1.232 . S
C1237 C36 1.270 . S
C1256 C274 1.270 . S
C1273 C376 1.268 . S
C1292 C70 1.274 . S
C1309 C407 1.226 . S
C1328 C101 1.235 . S
C1345 C135 1.222 . S
C1364 C373 1.233 . S
C1381 C104 1.271 . S
C1400 C342 1.269 . S
C1417 C138 1.268 . S
C1436 C444 1.259 . S
C1453 C475 1.223 . S
C1472 C169 1.236 . S
C1489 C203 1.223 . S
C1508 C441 1.205 . S
C1525 C410 1.270 . S
C1544 C172 1.273 . S
C1561 C512 1.269 . S
C1580 C206 1.275 . S
C1597 C237 1.220 . S
C1616 C543 1.224 . S
C1633 C271 1.220 . S
C1652 C509 1.205 . S
C1669 C240 1.270 . S
C1688 C478 1.258 . S
C1705 C54 0.975 . S
C1724 C20 0.982 . S
C1741 C88 0.976 . S
C1760 C122 0.969 . S
C1777 C156 0.979 . S
C1796 C190 0.998 . S
C1813 C224 0.984 . S
C1832 C258 0.998 . S
C1849 C326 0.975 . S
C1868 C292 0.983 . S
C1885 C394 0.982 . S
C1904 C360 0.995 . S
C1921 C428 0.983 . S
C1940 C462 0.964 . S
C1957 C530 0.980 . S
C1976 C496 0.969 . S
