# Generated by pormake.
# Topology vby, (6)-cn, num edge types: 1
# Building blocks:
#     Node 0, Type 0, BuildingBlock: BETDEL_clean_sbu_0, # of connection points: 6
#     Node 1, Type 0, BuildingBlock: BETDEL_clean_sbu_0, # of connection points: 6
#     Node 2, Type 0, BuildingBlock: BETDEL_clean_sbu_0, # of connection points: 6
#     Node 3, Type 0, BuildingBlock: BETDEL_clean_sbu_0, # of connection points: 6
#     Node 4, Type 0, BuildingBlock: BETDEL_clean_sbu_0, # of connection points: 6
#     Node 5, Type 0, BuildingBlock: BETDEL_clean_sbu_0, # of connection points: 6
#     Node 6, Type 0, BuildingBlock: BETDEL_clean_sbu_0, # of connection points: 6
#     Node 7, Type 0, BuildingBlock: BETDEL_clean_sbu_0, # of connection points: 6
#     Edge 8, Type (0, 0), BuildingBlock: AJUNOK_clean_linker_0, # of connection points: 2
#     Edge 9, Type (0, 0), BuildingBlock: AJUNOK_clean_linker_0, # of connection points: 2
#     Edge 10, Type (0, 0), BuildingBlock: AJUNOK_clean_linker_0, # of connection points: 2
#     Edge 11, Type (0, 0), BuildingBlock: AJUNOK_clean_linker_0, # of connection points: 2
#     Edge 12, Type (0, 0), BuildingBlock: AJUNOK_clean_linker_0, # of connection points: 2
#     Edge 13, Type (0, 0), BuildingBlock: AJUNOK_clean_linker_0, # of connection points: 2
#     Edge 14, Type (0, 0), BuildingBlock: AJUNOK_clean_linker_0, # of connection points: 2
#     Edge 15, Type (0, 0), BuildingBlock: AJUNOK_clean_linker_0, # of connection points: 2
#     Edge 16, Type (0, 0), BuildingBlock: AJUNOK_clean_linker_0, # of connection points: 2
#     Edge 17, Type (0, 0), BuildingBlock: AJUNOK_clean_linker_0, # of connection points: 2
#     Edge 18, Type (0, 0), BuildingBlock: AJUNOK_clean_linker_0, # of connection points: 2
#     Edge 19, Type (0, 0), BuildingBlock: AJUNOK_clean_linker_0, # of connection points: 2
#     Edge 20, Type (0, 0), BuildingBlock: AJUNOK_clean_linker_0, # of connection points: 2
#     Edge 21, Type (0, 0), BuildingBlock: AJUNOK_clean_linker_0, # of connection points: 2
#     Edge 22, Type (0, 0), BuildingBlock: AJUNOK_clean_linker_0, # of connection points: 2
#     Edge 23, Type (0, 0), BuildingBlock: AJUNOK_clean_linker_0, # of connection points: 2
#     Edge 24, Type (0, 0), BuildingBlock: AJUNOK_clean_linker_0, # of connection points: 2
#     Edge 25, Type (0, 0), BuildingBlock: AJUNOK_clean_linker_0, # of connection points: 2
#     Edge 26, Type (0, 0), BuildingBlock: AJUNOK_clean_linker_0, # of connection points: 2
#     Edge 27, Type (0, 0), BuildingBlock: AJUNOK_clean_linker_0, # of connection points: 2
#     Edge 28, Type (0, 0), BuildingBlock: AJUNOK_clean_linker_0, # of connection points: 2
#     Edge 29, Type (0, 0), BuildingBlock: AJUNOK_clean_linker_0, # of connection points: 2
#     Edge 30, Type (0, 0), BuildingBlock: AJUNOK_clean_linker_0, # of connection points: 2
#     Edge 31, Type (0, 0), BuildingBlock: AJUNOK_clean_linker_0, # of connection points: 2
# Relax obj value: 0.130
# Max RMSD: 0.166
# Mean RMSD: 0.166
data_MOF--net-vby--node1-BETDEL_clean_sbu_0--edge1-AJUNOK_clean_linker_0
_symmetry_space_group_name_H-M    P1
_symmetry_Int_Tables_number       1
_symmetry_cell_setting            triclinic
loop_
_symmetry_equiv_pos_as_xyz
'x, y, z'
_cell_length_a     11.439426
_cell_length_b     55.067043
_cell_length_c     20.837287
_cell_angle_alpha  90.247825
_cell_angle_beta   86.965659
_cell_angle_gamma 90.235701
loop_
_atom_site_label
_atom_site_type_symbol
_atom_site_fract_x
_atom_site_fract_y
_atom_site_fract_z
_atom_type_partial_charge
Dy0 Dy 0.07043 0.42687 0.02923 0.0
C1 C 0.12465 0.32208 0.03368 0.0
C2 C 0.0348 0.47599 0.03063 0.0
Dy3 Dy 0.07295 0.36975 1.01359 0.0
O4 O 0.99409 0.46085 0.07387 0.0
O5 O 0.09449 0.46421 0.98562 0.0
O6 O 0.1352 0.42121 0.12759 0.0
O7 O 0.02257 0.39556 0.09033 0.0
C8 C 0.08093 0.40074 0.13817 0.0
C9 C 0.09022 0.39123 0.89751 0.0
O10 O 0.88065 0.37597 0.02797 0.0
O11 O 0.88448 0.4177 1.00703 0.0
O12 O 0.05477 0.3299 0.991 0.0
O13 O 0.15859 0.34022 0.06838 0.0
O14 O 0.08717 0.3679 0.90525 0.0
O15 O 0.08547 0.40107 0.95198 0.0
O16 O 0.26262 0.42114 1.00862 0.0
O17 O 0.25871 0.37972 0.02888 0.0
C18 C 0.82693 0.39682 1.01658 0.0
C19 C 0.31638 0.40031 0.01878 0.0
Dy20 Dy 0.95596 0.6842 0.0439 0.0
C21 C 0.98537 0.58122 0.0407 0.0
C22 C 0.8762 0.73095 0.04393 0.0
Dy23 Dy 0.95516 0.6306 0.03607 0.0
O24 O 0.95305 0.72211 1.0016 0.0
O25 O 0.84973 0.71469 0.08699 0.0
O26 O 0.04948 0.68439 0.13373 0.0
O27 O 0.93 0.65569 0.11785 0.0
C28 C 1.0075 0.66375 0.15414 0.0
C29 C 0.93122 0.65274 0.92164 0.0
O30 O 0.76344 0.63587 0.0571 0.0
O31 O 0.77354 0.67489 0.01987 0.0
O32 O 0.02568 0.59536 0.99516 0.0
O33 O 0.92942 0.59413 0.08462 0.0
O34 O 0.87572 0.63318 0.94008 0.0
O35 O 0.99761 0.65915 0.96491 0.0
O36 O 0.14667 0.67961 0.01952 0.0
O37 O 0.14452 0.63915 0.05003 0.0
C38 C 0.71149 0.65583 0.03865 0.0
C39 C 0.20232 0.65934 0.03365 0.0
Dy40 Dy 0.08124 0.68084 0.52931 0.0
C41 C 0.04013 0.57509 0.52531 0.0
C42 C 0.11912 0.72982 0.53754 0.0
Dy43 Dy 0.07069 0.62391 0.53869 0.0
O44 O 0.08269 0.71849 0.48744 0.0
O45 O 0.12469 0.71459 0.58479 0.0
O46 O 0.16944 0.67526 0.43189 0.0
O47 O 0.0417 0.65059 0.46351 0.0
C48 C 0.11266 0.65575 0.4173 0.0
C49 C 0.06729 0.64382 0.65752 0.0
O50 O 0.26463 0.63091 0.52253 0.0
O51 O 0.26016 0.6711 0.55586 0.0
O52 O 0.97518 0.58942 0.56123 0.0
O53 O 0.12232 0.58758 0.49449 0.0
O54 O 0.06429 0.62068 0.6468 0.0
O55 O 0.07678 0.65419 0.60403 0.0
O56 O 0.88738 0.67553 0.54526 0.0
O57 O 0.88474 0.63397 0.52256 0.0
C58 C 0.31859 0.65128 0.53905 0.0
C59 C 0.8301 0.65486 0.53506 0.0
Dy60 Dy 0.958 0.42086 0.51828 0.0
C61 C 0.88804 0.31984 0.53325 0.0
C62 C 0.98949 0.47008 0.52392 0.0
Dy63 Dy 0.9579 0.36744 0.5303 0.0
O64 O 0.03377 0.45598 0.47911 0.0
O65 O 0.9288 0.45725 0.56591 0.0
O66 O 0.88028 0.41711 0.42214 0.0
O67 O 1.00068 0.39146 0.44958 0.0
C68 C 0.93535 0.39734 0.40549 0.0
C69 C 1.00576 0.39014 0.63883 0.0
O70 O 0.15013 0.37217 0.50696 0.0
O71 O 0.14502 0.41287 0.53524 0.0
O72 O 0.87496 0.33528 0.58003 0.0
O73 O 0.94582 0.33008 0.48491 0.0
O74 O 0.0513 0.36956 0.62041 0.0
O75 O 0.92853 0.39693 0.60127 0.0
O76 O 0.76794 0.41624 0.54019 0.0
O77 O 0.77117 0.376 0.51111 0.0
C78 C 0.20431 0.3929 0.51995 0.0
C79 C 0.71289 0.39604 0.52595 0.0
Dy80 Dy 0.56393 0.92354 0.04091 0.0
C81 C 0.63229 0.82299 0.02363 0.0
C82 C 0.53364 0.97291 0.04233 0.0
Dy83 Dy 0.56148 0.87044 0.02563 0.0
O84 O 0.57722 0.96029 0.08741 0.0
O85 O 0.50829 0.95858 0.99531 0.0
O86 O 0.63361 0.91869 0.1385 0.0
O87 O 0.51186 0.89389 0.10674 0.0
C88 C 0.57451 0.89917 0.15257 0.0
C89 C 0.52268 0.8941 0.91781 0.0
O90 O 0.36946 0.8742 0.04575 0.0
O91 O 0.37152 0.91596 0.03188 0.0
O92 O 0.55773 0.83235 0.06617 0.0
O93 O 0.6631 0.83928 0.98135 0.0
O94 O 0.4744 0.87351 0.93383 0.0
O95 O 0.59896 0.90021 0.95689 0.0
O96 O 0.75286 0.91813 1.01273 0.0
O97 O 0.74247 0.87965 0.05326 0.0
C98 C 0.31393 0.89506 0.03894 0.0
C99 C 0.80513 0.89839 0.03235 0.0
Dy100 Dy 0.44282 0.18296 0.03227 0.0
C101 C 0.44523 0.07668 0.04862 0.0
C102 C 0.37849 0.23065 0.02762 0.0
Dy103 Dy 0.4394 0.1254 0.02729 0.0
O104 O 0.38818 0.21811 0.07959 0.0
O105 O 0.41068 0.21748 0.97765 0.0
O106 O 0.53138 0.18047 0.12421 0.0
O107 O 0.40847 0.15328 0.102 0.0
C108 C 0.48344 0.15992 0.14136 0.0
C109 C 0.47063 0.14426 0.908 0.0
O110 O 0.24678 0.13245 0.03876 0.0
O111 O 0.25439 0.17406 0.02088 0.0
O112 O 0.38205 0.08734 1.00723 0.0
O113 O 0.50285 0.09281 0.08046 0.0
O114 O 0.47283 0.1212 0.91982 0.0
O115 O 0.45156 0.15497 0.9607 0.0
O116 O 0.63007 0.1758 1.00302 0.0
O117 O 0.62895 0.13533 0.03696 0.0
C118 C 0.19523 0.15351 0.02835 0.0
C119 C 0.68544 0.15553 0.01815 0.0
Dy120 Dy 0.56791 0.18034 0.51926 0.0
C121 C 0.53419 0.07783 0.53125 0.0
C122 C 0.63556 0.22808 0.52018 0.0
Dy123 Dy 0.56962 0.12714 0.53108 0.0
O124 O 0.65288 0.21307 0.47265 0.0
O125 O 0.57513 0.21732 0.56661 0.0
O126 O 0.47417 0.17804 0.42905 0.0
O127 O 0.59847 0.15104 0.44774 0.0
C128 C 0.52138 0.15771 0.40989 0.0
C129 C 0.59828 0.15078 0.64325 0.0
O130 O 0.76105 0.13191 0.50887 0.0
O131 O 0.75333 0.17204 0.53864 0.0
O132 O 0.50109 0.09269 0.5769 0.0
O133 O 0.58675 0.08995 0.48467 0.0
O134 O 0.65375 0.13121 0.62518 0.0
O135 O 0.52889 0.15645 0.60081 0.0
O136 O 0.37813 0.17589 0.5444 0.0
O137 O 0.37996 0.13514 0.5168 0.0
C138 C 0.81401 0.15242 0.52329 0.0
C139 C 0.32232 0.15542 0.53178 0.0
Dy140 Dy 0.44062 0.92351 0.53177 0.0
C141 C 0.37797 0.82125 0.53664 0.0
C142 C 0.47323 0.97283 0.53592 0.0
Dy143 Dy 0.44154 0.86924 0.54331 0.0
O144 O 0.5063 0.95874 0.48848 0.0
O145 O 0.42287 0.95992 0.5816 0.0
O146 O 0.36842 0.91898 0.43439 0.0
O147 O 0.48876 0.89392 0.46521 0.0
C148 C 0.42644 0.89937 0.41956 0.0
C149 C 0.48008 0.89238 0.65235 0.0
O150 O 0.63363 0.87462 0.52167 0.0
O151 O 0.62671 0.91531 0.55081 0.0
O152 O 0.39168 0.83349 0.58903 0.0
O153 O 0.40655 0.83489 0.48739 0.0
O154 O 0.52726 0.87172 0.63589 0.0
O155 O 0.40577 0.89881 0.6127 0.0
O156 O 0.25032 0.91903 0.55166 0.0
O157 O 0.25235 0.87794 0.53041 0.0
C158 C 0.68669 0.89532 0.53633 0.0
C159 C 0.1951 0.89844 0.54152 0.0
C160 C 0.51579 0.41843 0.99353 0.0
C161 C 0.4463 0.39942 0.01972 0.0
C162 C 0.63859 0.41736 0.99231 0.0
C163 C 0.69691 0.39724 0.01722 0.0
H164 H 0.47529 0.43416 0.97307 0.0
H165 H 0.68801 0.43241 0.97119 0.0
S166 S 0.55556 0.34332 0.09531 0.0
N167 N 0.44566 0.36027 0.07412 0.0
N168 N 0.675 0.35832 0.07144 0.0
C169 C 0.62841 0.37825 0.04432 0.0
C170 C 0.50366 0.37934 0.04573 0.0
C171 C 0.38978 0.63803 0.05399 0.0
C172 C 0.33215 0.65899 0.03341 0.0
C173 C 0.51204 0.63709 0.05534 0.0
C174 C 0.58203 0.65706 0.03618 0.0
H175 H 0.34032 0.62213 0.06965 0.0
H176 H 0.55167 0.62057 0.07182 0.0
S177 S 0.47484 0.71637 0.97761 0.0
N178 N 0.35505 0.70018 0.99287 0.0
N179 N 0.58405 0.6986 0.99553 0.0
C180 C 0.52556 0.67818 1.01523 0.0
C181 C 0.401 0.67909 1.01383 0.0
C182 C 0.63914 0.63245 0.52967 0.0
C183 C 0.69979 0.65467 0.5359 0.0
C184 C 0.51645 0.63145 0.5307 0.0
C185 C 0.44878 0.65259 0.53819 0.0
H186 H 0.68649 0.61552 0.52415 0.0
H187 H 0.47456 0.6139 0.52591 0.0
S188 S 0.56405 0.71563 0.55391 0.0
N189 N 0.68193 0.69845 0.54826 0.0
N190 N 0.45244 0.69673 0.55002 0.0
C191 C 0.5083 0.67502 0.54395 0.0
C192 C 0.63326 0.676 0.54286 0.0
C193 C 0.52339 0.37364 0.5166 0.0
C194 C 0.58345 0.39579 0.52422 0.0
C195 C 0.40109 0.37281 0.51461 0.0
C196 C 0.33394 0.3941 0.52013 0.0
H197 H 0.5709 0.35669 0.51253 0.0
H198 H 0.3591 0.3553 0.50929 0.0
S199 S 0.44907 0.457 0.53819 0.0
N200 N 0.56633 0.43964 0.53561 0.0
N201 N 0.33761 0.43824 0.5316 0.0
C202 C 0.39315 0.41646 0.52704 0.0
C203 C 0.51749 0.41725 0.5292 0.0
C204 C 1.00369 0.91791 0.02198 0.0
C205 C 0.93459 0.89709 0.03368 0.0
C206 C 0.1259 0.91707 0.02423 0.0
C207 C 0.18418 0.89534 0.03808 0.0
H208 H 0.96331 0.93509 1.01134 0.0
H209 H 0.1748 0.93366 1.01469 0.0
S210 S 0.04373 0.83536 0.07044 0.0
N211 N 0.93401 0.85381 0.05822 0.0
N212 N 0.16275 0.85233 0.06271 0.0
C213 C 0.11614 0.8743 0.04939 0.0
C214 C 0.99173 0.87515 0.04714 0.0
C215 C 0.99668 0.13388 0.03979 0.0
C216 C 0.06569 0.15443 0.02427 0.0
C217 C 0.87455 0.13439 0.03679 0.0
C218 C 0.81569 0.15545 0.01793 0.0
H219 H 0.03691 0.11724 0.05499 0.0
H220 H 0.82614 0.11807 0.05 0.0
S221 S 0.95578 0.21411 0.97009 0.0
N222 N 0.06566 0.19647 0.98763 0.0
N223 N 0.83695 0.19733 0.98214 0.0
C224 C 0.88369 0.17608 1.00147 0.0
C225 C 1.0082 0.1756 1.00463 0.0
C226 C 0.13377 0.13365 0.51476 0.0
C227 C 0.1927 0.15516 0.53127 0.0
C228 C 0.01167 0.1329 0.51216 0.0
C229 C 0.94334 0.1536 0.52592 0.0
H230 H 0.18206 0.11719 0.50339 0.0
H231 H 0.97084 0.11591 0.49915 0.0
S232 S 0.05448 0.21455 0.57224 0.0
N233 N 0.17282 0.19767 0.56216 0.0
N234 N 0.94423 0.19641 0.557 0.0
C235 C 1.00115 0.17527 0.54272 0.0
C236 C 0.12545 0.17599 0.54549 0.0
C237 C 0.88417 0.87584 0.52347 0.0
C238 C 0.81606 0.89652 0.53781 0.0
C239 C 1.00641 0.87662 0.52507 0.0
C240 C 0.06557 0.89817 0.54097 0.0
H241 H 0.84307 0.85883 0.51087 0.0
H242 H 0.0546 0.86017 0.51348 0.0
S243 S 0.92813 0.95758 0.58247 0.0
N244 N 0.81753 0.93938 0.56846 0.0
N245 N 0.04631 0.94074 0.57141 0.0
C246 C 0.99857 0.91901 0.55536 0.0
C247 C 0.87419 0.91825 0.5538 0.0
C248 C 0.06062 0.54295 0.98874 0.0
C249 C 0.99733 0.55442 0.04009 0.0
C250 C 0.07168 0.51759 0.9858 0.0
C251 C 0.01974 0.50271 0.03405 0.0
H252 H 0.10198 0.55365 0.95032 0.0
H253 H 0.12158 0.50961 0.94544 0.0
S254 S 0.84395 0.52368 0.17861 0.0
N255 N 0.88161 0.54892 0.14019 0.0
N256 N 0.90205 0.50131 0.13478 0.0
C257 C 0.95598 0.51393 0.08566 0.0
C258 C 0.94492 0.53977 0.08866 0.0
C259 C 0.08 0.50853 0.48073 0.0
C260 C 1.00234 0.49677 0.52528 0.0
C261 C 0.09216 0.53393 0.48068 0.0
C262 C 0.026 0.54839 0.52474 0.0
H263 H 0.13214 0.49803 0.44574 0.0
H264 H 0.15329 0.54226 0.44586 0.0
S265 S 0.81051 0.52638 0.65133 0.0
N266 N 0.85908 0.50148 0.61474 0.0
N267 N 0.88037 0.54904 0.61438 0.0
C268 C 0.94786 0.5368 0.56941 0.0
C269 C 0.93643 0.51102 0.56981 0.0
C270 C 0.45588 1.01084 0.99557 0.0
C271 C 0.51073 0.99931 0.04581 0.0
C272 C 0.43203 0.03578 0.99801 0.0
C273 C 0.46324 0.05015 0.05052 0.0
H274 H 0.4313 1.00056 0.95387 0.0
H275 H 0.39107 0.04393 0.95772 0.0
S276 S 0.60386 0.02859 0.19582 0.0
N277 N 0.59166 1.00401 0.15095 0.0
N278 N 0.54846 0.05099 0.15476 0.0
C279 C 0.51694 0.03885 0.1014 0.0
C280 C 0.5403 1.01339 0.09927 0.0
C281 C 0.5611 0.03649 0.48229 0.0
C282 C 0.51694 0.05116 0.53331 0.0
C283 C 0.54691 1.01116 0.48378 0.0
C284 C 0.48816 0.99956 0.53631 0.0
H285 H 0.60715 0.04461 0.44096 0.0
H286 H 0.58235 1.0006 0.44332 0.0
S287 S 0.35508 0.02975 0.68177 0.0
N288 N 0.4112 0.05222 0.63775 0.0
N289 N 0.38487 1.0047 0.64038 0.0
C290 C 0.44346 1.01401 0.58758 0.0
C291 C 0.45777 0.03979 0.58607 0.0
C292 C 0.24952 0.29099 0.08368 0.0
C293 C 0.1818 0.29793 0.03245 0.0
C294 C 0.31459 0.2694 0.08113 0.0
C295 C 0.31712 0.25426 0.0265 0.0
H296 H 0.25276 0.30238 0.12609 0.0
H297 H 0.36387 0.26459 0.12215 0.0
S298 S 0.15467 0.26401 0.87949 0.0
N299 N 0.1199 0.28761 0.92573 0.0
N300 N 0.24468 0.24743 0.9204 0.0
C301 C 0.25027 0.26098 0.97483 0.0
C302 C 0.18182 0.28269 0.97797 0.0
C303 C 0.79347 0.79428 0.9905 0.0
C304 C 0.68945 0.799 0.02776 0.0
C305 C 0.85431 0.77234 0.99617 0.0
C306 C 0.81356 0.75436 0.0395 0.0
H307 H 0.82941 0.8078 0.9573 0.0
H308 H 0.93403 0.76952 0.96674 0.0
S309 S 0.54096 0.7571 0.1447 0.0
N310 N 0.54577 0.78346 0.1072 0.0
N311 N 0.65901 0.74227 0.11802 0.0
C312 C 0.70854 0.75872 0.07629 0.0
C313 C 0.64673 0.78103 0.0704 0.0
C314 C 0.21643 0.76415 0.59315 0.0
C315 C 0.17749 0.75398 0.53599 0.0
C316 C 0.2835 0.78557 0.59251 0.0
C317 C 0.31562 0.79756 0.53467 0.0
H318 H 0.19589 0.75537 0.63878 0.0
H319 H 0.31012 0.79281 0.63796 0.0
S320 S 0.23818 0.77821 0.37146 0.0
N321 N 0.17709 0.75748 0.41963 0.0
N322 N 0.30375 0.79759 0.41856 0.0
C323 C 0.27777 0.78756 0.47707 0.0
C324 C 0.20841 0.76585 0.47776 0.0
C325 C 0.8354 0.28143 0.47652 0.0
C326 C 0.82683 0.29606 0.53196 0.0
C327 C 0.77092 0.25976 0.47277 0.0
C328 C 0.69512 0.25194 0.52415 0.0
H329 H 0.89154 0.28682 0.43556 0.0
H330 H 0.78138 0.24896 0.42924 0.0
S331 S 0.64071 0.28373 0.67999 0.0
N332 N 0.73608 0.30119 0.63955 0.0
N333 N 0.61531 0.26055 0.63211 0.0
C334 C 0.68562 0.2664 0.57982 0.0
C335 C 0.75152 0.28841 0.58378 0.0
C336 C 0.12405 0.39278 0.25178 0.0
C337 C 0.04163 0.39421 0.2044 0.0
C338 C 0.08828 0.39169 0.31714 0.0
C339 C 0.9689 0.39278 0.33722 0.0
H340 H 0.2168 0.39355 0.23837 0.0
H341 H 0.15493 0.39169 0.35223 0.0
S342 S 0.71839 0.39501 0.23194 0.0
N343 N 0.83507 0.39483 0.18172 0.0
N344 N 0.76844 0.39389 0.30482 0.0
C345 C 0.88558 0.39312 0.29028 0.0
C346 C 0.92181 0.39354 0.22368 0.0
C347 C 0.15043 0.65918 0.23753 0.0
C348 C 0.03713 0.65436 0.21749 0.0
C349 C 0.17685 0.65722 0.30203 0.0
C350 C 0.09089 0.65042 0.34917 0.0
H351 H 0.21756 0.66608 0.20363 0.0
H352 H 0.2632 0.66273 0.31569 0.0
S353 S 0.78499 0.63228 0.32008 0.0
N354 N 0.84181 0.6397 0.2482 0.0
N355 N 0.89109 0.63588 0.37015 0.0
C356 C 0.98005 0.64323 0.32893 0.0
C357 C 0.95317 0.64524 0.26274 0.0
C358 C 0.87803 0.6492 0.80797 0.0
C359 C 0.95706 0.65761 0.85248 0.0
C360 C 0.91104 0.64753 0.74246 0.0
C361 C 0.02392 0.6543 0.71912 0.0
H362 H 0.79293 0.64225 0.8244 0.0
H363 H 0.85084 0.63909 0.71053 0.0
S364 S 0.25848 0.68048 0.81387 0.0
N365 N 0.14914 0.67548 0.86727 0.0
N366 N 0.21092 0.67188 0.74374 0.0
C367 C 0.10029 0.66473 0.76185 0.0
C368 C 0.0667 0.66657 0.8288 0.0
C369 C 0.14403 0.39858 0.72263 0.0
C370 C 0.02926 0.40049 0.70217 0.0
C371 C 0.16669 0.3995 0.78791 0.0
C372 C 0.07542 0.40249 0.8348 0.0
H373 H 0.21539 0.39404 0.68841 0.0
H374 H 0.25414 0.39526 0.80201 0.0
S375 S 0.76229 0.41208 0.80576 0.0
N376 N 0.82552 0.40865 0.73309 0.0
N377 N 0.86832 0.41029 0.8564 0.0
C378 C 0.96236 0.40717 0.81466 0.0
C379 C 0.9391 0.40625 0.74789 0.0
C380 C 0.41785 0.89486 0.23914 0.0
C381 C 0.53746 0.89405 0.21968 0.0
C382 C 0.3817 0.8953 0.30448 0.0
C383 C 0.46382 0.89425 0.35212 0.0
H384 H 0.35226 0.89677 0.20383 0.0
H385 H 0.28948 0.89742 0.31782 0.0
S386 S 0.78662 0.88955 0.32512 0.0
N387 N 0.73707 0.89082 0.25218 0.0
N388 N 0.66973 0.89054 0.37508 0.0
C389 C 0.5832 0.89175 0.33296 0.0
C390 C 0.61992 0.89196 0.26656 0.0
C391 C 0.39237 0.15009 0.24905 0.0
C392 C 0.49242 0.15076 0.20714 0.0
C393 C 0.40286 0.14994 0.31587 0.0
C394 C 0.51341 0.14983 0.34258 0.0
H395 H 0.30624 0.15212 0.23048 0.0
H396 H 0.32421 0.15168 0.34688 0.0
S397 S 0.80092 0.14765 0.25243 0.0
N398 N 0.70449 0.1487 0.19621 0.0
N399 N 0.72395 0.14748 0.32183 0.0
C400 C 0.61342 0.14792 0.301 0.0
C401 C 0.60286 0.14866 0.23307 0.0
C402 C 0.62551 0.14624 0.82183 0.0
C403 C 0.5161 0.15447 0.84658 0.0
C404 C 0.65615 0.1474 0.756 0.0
C405 C 0.57777 0.15657 0.71246 0.0
H406 H 0.68406 0.13705 0.8529 0.0
H407 H 0.7381 0.13932 0.73861 0.0
S408 S 0.28743 0.18385 0.75502 0.0
N409 N 0.33502 0.17476 0.82446 0.0
N410 N 0.39207 0.17712 0.70016 0.0
C411 C 0.47285 0.16715 0.73753 0.0
C412 C 0.44193 0.16599 0.80491 0.0
C413 C 0.60199 0.90206 0.74334 0.0
C414 C 0.49071 0.9021 0.71751 0.0
C415 C 0.61396 0.90291 0.80993 0.0
C416 C 0.51457 0.90329 0.85226 0.0
H417 H 0.67969 0.89934 0.7121 0.0
H418 H 0.70015 0.9006 0.82821 0.0
S419 S 0.20541 0.90723 0.80867 0.0
N420 N 0.28094 0.90591 0.7389 0.0
N421 N 0.30299 0.90669 0.86434 0.0
C422 C 0.40384 0.90572 0.8269 0.0
C423 C 0.39186 0.90536 0.75916 0.0
loop_
_geom_bond_atom_site_label_1
_geom_bond_atom_site_label_2
_geom_bond_distance
_geom_bond_site_symmetry_2
_ccdc_geom_bond_type
Dy0 O4 2.398 1_455 S
Dy0 O5 2.491 1_454 S
Dy0 O6 2.403 . S
Dy0 O7 2.664 . S
Dy0 O11 2.326 1_455 S
Dy0 O15 2.310 1_554 S
Dy0 O16 2.351 . S
C1 O12 1.185 1_554 S
C1 O13 1.355 . S
C2 O4 1.185 . S
C2 O5 1.355 1_554 S
Dy3 O7 2.310 . S
Dy3 O10 2.351 1_455 S
Dy3 O12 2.398 1_554 S
Dy3 O13 2.491 . S
Dy3 O14 2.403 1_554 S
Dy3 O15 2.664 1_554 S
Dy3 O17 2.326 1_554 S
O4 Dy0 2.398 1_655 S
O4 C2 1.185 . S
O5 Dy0 2.491 1_656 S
O5 C2 1.355 1_556 S
O6 Dy0 2.403 . S
O6 C8 1.254 . S
O7 Dy0 2.664 . S
O7 Dy3 2.310 . S
O7 C8 1.268 . S
C8 O6 1.254 . S
C8 O7 1.268 . S
C9 O14 1.254 . S
C9 O15 1.268 . S
O10 Dy3 2.351 1_655 S
O10 C18 1.249 . S
O11 Dy0 2.326 1_655 S
O11 C18 1.267 . S
O12 C1 1.185 1_556 S
O12 Dy3 2.398 1_556 S
O13 C1 1.355 . S
O13 Dy3 2.491 . S
O14 Dy3 2.403 1_556 S
O14 C9 1.254 . S
O15 Dy0 2.310 1_556 S
O15 Dy3 2.664 1_556 S
O15 C9 1.268 . S
O16 Dy0 2.351 . S
O16 C19 1.249 . S
O17 Dy3 2.326 1_556 S
O17 C19 1.267 1_556 S
C18 O10 1.249 . S
C18 O11 1.267 . S
C19 O16 1.249 . S
C19 O17 1.267 1_554 S
Dy20 O24 2.398 . S
Dy20 O25 2.491 1_554 S
Dy20 O26 2.403 . S
Dy20 O27 2.664 . S
Dy20 O31 2.326 . S
Dy20 O35 2.310 1_554 S
Dy20 O36 2.351 1_655 S
C21 O32 1.185 1_554 S
C21 O33 1.355 . S
C22 O24 1.185 . S
C22 O25 1.355 1_554 S
Dy23 O27 2.310 . S
Dy23 O30 2.351 . S
Dy23 O32 2.398 1_654 S
Dy23 O33 2.491 1_655 S
Dy23 O34 2.403 1_554 S
Dy23 O35 2.664 1_554 S
Dy23 O37 2.326 1_654 S
O24 Dy20 2.398 . S
O24 C22 1.185 . S
O25 Dy20 2.491 1_556 S
O25 C22 1.355 1_556 S
O26 Dy20 2.403 . S
O26 C28 1.254 . S
O27 Dy20 2.664 . S
O27 Dy23 2.310 . S
O27 C28 1.268 . S
C28 O26 1.254 . S
C28 O27 1.268 . S
C29 O34 1.254 . S
C29 O35 1.268 . S
O30 Dy23 2.351 . S
O30 C38 1.249 . S
O31 Dy20 2.326 . S
O31 C38 1.267 . S
O32 C21 1.185 1_556 S
O32 Dy23 2.398 1_456 S
O33 C21 1.355 . S
O33 Dy23 2.491 1_455 S
O34 Dy23 2.403 1_556 S
O34 C29 1.254 . S
O35 Dy20 2.310 1_556 S
O35 Dy23 2.664 1_556 S
O35 C29 1.268 . S
O36 Dy20 2.351 1_455 S
O36 C39 1.249 . S
O37 Dy23 2.326 1_456 S
O37 C39 1.267 1_556 S
C38 O30 1.249 . S
C38 O31 1.267 . S
C39 O36 1.249 . S
C39 O37 1.267 1_554 S
Dy40 O44 2.398 . S
Dy40 O45 2.491 . S
Dy40 O46 2.403 . S
Dy40 O47 2.664 . S
Dy40 O51 2.326 . S
Dy40 O55 2.310 . S
Dy40 O56 2.351 1_455 S
C41 O52 1.185 . S
C41 O53 1.355 . S
C42 O44 1.185 . S
C42 O45 1.355 . S
Dy43 O47 2.310 . S
Dy43 O50 2.351 . S
Dy43 O52 2.398 1_455 S
Dy43 O53 2.491 1_455 S
Dy43 O54 2.403 . S
Dy43 O55 2.664 . S
Dy43 O57 2.326 1_455 S
O44 Dy40 2.398 . S
O44 C42 1.185 . S
O45 Dy40 2.491 . S
O45 C42 1.355 . S
O46 Dy40 2.403 . S
O46 C48 1.254 . S
O47 Dy40 2.664 . S
O47 Dy43 2.310 . S
O47 C48 1.268 . S
C48 O46 1.254 . S
C48 O47 1.268 . S
C49 O54 1.254 . S
C49 O55 1.268 . S
O50 Dy43 2.351 . S
O50 C58 1.249 . S
O51 Dy40 2.326 . S
O51 C58 1.267 . S
O52 C41 1.185 . S
O52 Dy43 2.398 1_655 S
O53 C41 1.355 . S
O53 Dy43 2.491 1_655 S
O54 Dy43 2.403 . S
O54 C49 1.254 . S
O55 Dy40 2.310 . S
O55 Dy43 2.664 . S
O55 C49 1.268 . S
O56 Dy40 2.351 1_655 S
O56 C59 1.249 . S
O57 Dy43 2.326 1_655 S
O57 C59 1.267 . S
C58 O50 1.249 . S
C58 O51 1.267 . S
C59 O56 1.249 . S
C59 O57 1.267 . S
Dy60 O64 2.398 1_655 S
Dy60 O65 2.491 1_655 S
Dy60 O66 2.403 . S
Dy60 O67 2.664 . S
Dy60 O71 2.326 1_655 S
Dy60 O75 2.310 . S
Dy60 O76 2.351 . S
C61 O72 1.185 . S
C61 O73 1.355 . S
C62 O64 1.185 . S
C62 O65 1.355 . S
Dy63 O67 2.310 . S
Dy63 O70 2.351 1_655 S
Dy63 O72 2.398 . S
Dy63 O73 2.491 . S
Dy63 O74 2.403 . S
Dy63 O75 2.664 . S
Dy63 O77 2.326 . S
O64 Dy60 2.398 1_455 S
O64 C62 1.185 . S
O65 Dy60 2.491 1_455 S
O65 C62 1.355 . S
O66 Dy60 2.403 . S
O66 C68 1.254 . S
O67 Dy60 2.664 . S
O67 Dy63 2.310 . S
O67 C68 1.268 . S
C68 O66 1.254 . S
C68 O67 1.268 . S
C69 O74 1.254 . S
C69 O75 1.268 . S
O70 Dy63 2.351 1_455 S
O70 C78 1.249 . S
O71 Dy60 2.326 1_455 S
O71 C78 1.267 . S
O72 C61 1.185 . S
O72 Dy63 2.398 . S
O73 C61 1.355 . S
O73 Dy63 2.491 . S
O74 Dy63 2.403 . S
O74 C69 1.254 . S
O75 Dy60 2.310 . S
O75 Dy63 2.664 . S
O75 C69 1.268 . S
O76 Dy60 2.351 . S
O76 C79 1.249 . S
O77 Dy63 2.326 . S
O77 C79 1.267 . S
C78 O70 1.249 . S
C78 O71 1.267 . S
C79 O76 1.249 . S
C79 O77 1.267 . S
Dy80 O84 2.398 . S
Dy80 O85 2.491 1_554 S
Dy80 O86 2.403 . S
Dy80 O87 2.664 . S
Dy80 O91 2.326 . S
Dy80 O95 2.310 1_554 S
Dy80 O96 2.351 . S
C81 O92 1.185 1_554 S
C81 O93 1.355 . S
C82 O84 1.185 . S
C82 O85 1.355 1_554 S
Dy83 O87 2.310 . S
Dy83 O90 2.351 . S
Dy83 O92 2.398 1_554 S
Dy83 O93 2.491 . S
Dy83 O94 2.403 1_554 S
Dy83 O95 2.664 1_554 S
Dy83 O97 2.326 1_554 S
O84 Dy80 2.398 . S
O84 C82 1.185 . S
O85 Dy80 2.491 1_556 S
O85 C82 1.355 1_556 S
O86 Dy80 2.403 . S
O86 C88 1.254 . S
O87 Dy80 2.664 . S
O87 Dy83 2.310 . S
O87 C88 1.268 . S
C88 O86 1.254 . S
C88 O87 1.268 . S
C89 O94 1.254 . S
C89 O95 1.268 . S
O90 Dy83 2.351 . S
O90 C98 1.249 . S
O91 Dy80 2.326 . S
O91 C98 1.267 . S
O92 C81 1.185 1_556 S
O92 Dy83 2.398 1_556 S
O93 C81 1.355 . S
O93 Dy83 2.491 . S
O94 Dy83 2.403 1_556 S
O94 C89 1.254 . S
O95 Dy80 2.310 1_556 S
O95 Dy83 2.664 1_556 S
O95 C89 1.268 . S
O96 Dy80 2.351 . S
O96 C99 1.249 . S
O97 Dy83 2.326 1_556 S
O97 C99 1.267 1_556 S
C98 O90 1.249 . S
C98 O91 1.267 . S
C99 O96 1.249 . S
C99 O97 1.267 1_554 S
Dy100 O104 2.398 . S
Dy100 O105 2.491 1_554 S
Dy100 O106 2.403 . S
Dy100 O107 2.664 . S
Dy100 O111 2.326 . S
Dy100 O115 2.310 1_554 S
Dy100 O116 2.351 . S
C101 O112 1.185 1_554 S
C101 O113 1.355 . S
C102 O104 1.185 . S
C102 O105 1.355 1_554 S
Dy103 O107 2.310 . S
Dy103 O110 2.351 . S
Dy103 O112 2.398 1_554 S
Dy103 O113 2.491 . S
Dy103 O114 2.403 1_554 S
Dy103 O115 2.664 1_554 S
Dy103 O117 2.326 1_554 S
O104 Dy100 2.398 . S
O104 C102 1.185 . S
O105 Dy100 2.491 1_556 S
O105 C102 1.355 1_556 S
O106 Dy100 2.403 . S
O106 C108 1.254 . S
O107 Dy100 2.664 . S
O107 Dy103 2.310 . S
O107 C108 1.268 . S
C108 O106 1.254 . S
C108 O107 1.268 . S
C109 O114 1.254 . S
C109 O115 1.268 . S
O110 Dy103 2.351 . S
O110 C118 1.249 . S
O111 Dy100 2.326 . S
O111 C118 1.267 . S
O112 C101 1.185 1_556 S
O112 Dy103 2.398 1_556 S
O113 C101 1.355 . S
O113 Dy103 2.491 . S
O114 Dy103 2.403 1_556 S
O114 C109 1.254 . S
O115 Dy100 2.310 1_556 S
O115 Dy103 2.664 1_556 S
O115 C109 1.268 . S
O116 Dy100 2.351 . S
O116 C119 1.249 . S
O117 Dy103 2.326 1_556 S
O117 C119 1.267 1_556 S
C118 O110 1.249 . S
C118 O111 1.267 . S
C119 O116 1.249 . S
C119 O117 1.267 1_554 S
Dy120 O124 2.398 . S
Dy120 O125 2.491 . S
Dy120 O126 2.403 . S
Dy120 O127 2.664 . S
Dy120 O131 2.326 . S
Dy120 O135 2.310 . S
Dy120 O136 2.351 . S
C121 O132 1.185 . S
C121 O133 1.355 . S
C122 O124 1.185 . S
C122 O125 1.355 . S
Dy123 O127 2.310 . S
Dy123 O130 2.351 . S
Dy123 O132 2.398 . S
Dy123 O133 2.491 . S
Dy123 O134 2.403 . S
Dy123 O135 2.664 . S
Dy123 O137 2.326 . S
O124 Dy120 2.398 . S
O124 C122 1.185 . S
O125 Dy120 2.491 . S
O125 C122 1.355 . S
O126 Dy120 2.403 . S
O126 C128 1.254 . S
O127 Dy120 2.664 . S
O127 Dy123 2.310 . S
O127 C128 1.268 . S
C128 O126 1.254 . S
C128 O127 1.268 . S
C129 O134 1.254 . S
C129 O135 1.268 . S
O130 Dy123 2.351 . S
O130 C138 1.249 . S
O131 Dy120 2.326 . S
O131 C138 1.267 . S
O132 C121 1.185 . S
O132 Dy123 2.398 . S
O133 C121 1.355 . S
O133 Dy123 2.491 . S
O134 Dy123 2.403 . S
O134 C129 1.254 . S
O135 Dy120 2.310 . S
O135 Dy123 2.664 . S
O135 C129 1.268 . S
O136 Dy120 2.351 . S
O136 C139 1.249 . S
O137 Dy123 2.326 . S
O137 C139 1.267 . S
C138 O130 1.249 . S
C138 O131 1.267 . S
C139 O136 1.249 . S
C139 O137 1.267 . S
Dy140 O144 2.398 . S
Dy140 O145 2.491 . S
Dy140 O146 2.403 . S
Dy140 O147 2.664 . S
Dy140 O151 2.326 . S
Dy140 O155 2.310 . S
Dy140 O156 2.351 . S
C141 O152 1.185 . S
C141 O153 1.355 . S
C142 O144 1.185 . S
C142 O145 1.355 . S
Dy143 O147 2.310 . S
Dy143 O150 2.351 . S
Dy143 O152 2.398 . S
Dy143 O153 2.491 . S
Dy143 O154 2.403 . S
Dy143 O155 2.664 . S
Dy143 O157 2.326 . S
O144 Dy140 2.398 . S
O144 C142 1.185 . S
O145 Dy140 2.491 . S
O145 C142 1.355 . S
O146 Dy140 2.403 . S
O146 C148 1.254 . S
O147 Dy140 2.664 . S
O147 Dy143 2.310 . S
O147 C148 1.268 . S
C148 O146 1.254 . S
C148 O147 1.268 . S
C149 O154 1.254 . S
C149 O155 1.268 . S
O150 Dy143 2.351 . S
O150 C158 1.249 . S
O151 Dy140 2.326 . S
O151 C158 1.267 . S
O152 C141 1.185 . S
O152 Dy143 2.398 . S
O153 C141 1.355 . S
O153 Dy143 2.491 . S
O154 Dy143 2.403 . S
O154 C149 1.254 . S
O155 Dy140 2.310 . S
O155 Dy143 2.664 . S
O155 C149 1.268 . S
O156 Dy140 2.351 . S
O156 C159 1.249 . S
O157 Dy143 2.326 . S
O157 C159 1.267 . S
C158 O150 1.249 . S
C158 O151 1.267 . S
C159 O156 1.249 . S
C159 O157 1.267 . S
C160 C161 1.369 1_556 S
C160 C162 1.419 . S
C160 H164 0.930 . S
C161 C160 1.369 1_554 S
C161 C170 1.429 . S
C162 C160 1.419 . S
C162 C163 1.363 1_556 S
C162 H165 0.929 . S
C163 C162 1.363 1_554 S
C163 C169 1.428 . S
H164 C160 0.930 . S
H165 C162 0.929 . S
S166 N167 1.613 . S
S166 N168 1.610 . S
N167 S166 1.613 . S
N167 C170 1.350 . S
N168 S166 1.610 . S
N168 C169 1.351 . S
C169 C163 1.428 . S
C169 N168 1.351 . S
C169 C170 1.434 . S
C170 C161 1.429 . S
C170 N167 1.350 . S
C170 C169 1.434 . S
C171 C172 1.369 . S
C171 C173 1.419 . S
C171 H175 0.930 . S
C172 C171 1.369 . S
C172 C181 1.429 . S
C173 C171 1.419 . S
C173 C174 1.363 . S
C173 H176 0.929 . S
C174 C173 1.363 . S
C174 C180 1.428 . S
H175 C171 0.930 . S
H176 C173 0.929 . S
S177 N178 1.613 . S
S177 N179 1.610 . S
N178 S177 1.613 . S
N178 C181 1.350 . S
N179 S177 1.610 . S
N179 C180 1.351 . S
C180 C174 1.428 . S
C180 N179 1.351 . S
C180 C181 1.434 . S
C181 C172 1.429 . S
C181 N178 1.350 . S
C181 C180 1.434 . S
C182 C183 1.369 . S
C182 C184 1.419 . S
C182 H186 0.930 . S
C183 C182 1.369 . S
C183 C192 1.429 . S
C184 C182 1.419 . S
C184 C185 1.363 . S
C184 H187 0.929 . S
C185 C184 1.363 . S
C185 C191 1.428 . S
H186 C182 0.930 . S
H187 C184 0.929 . S
S188 N189 1.613 . S
S188 N190 1.610 . S
N189 S188 1.613 . S
N189 C192 1.350 . S
N190 S188 1.610 . S
N190 C191 1.351 . S
C191 C185 1.428 . S
C191 N190 1.351 . S
C191 C192 1.434 . S
C192 C183 1.429 . S
C192 N189 1.350 . S
C192 C191 1.434 . S
C193 C194 1.369 . S
C193 C195 1.419 . S
C193 H197 0.930 . S
C194 C193 1.369 . S
C194 C203 1.429 . S
C195 C193 1.419 . S
C195 C196 1.363 . S
C195 H198 0.929 . S
C196 C195 1.363 . S
C196 C202 1.428 . S
H197 C193 0.930 . S
H198 C195 0.929 . S
S199 N200 1.613 . S
S199 N201 1.610 . S
N200 S199 1.613 . S
N200 C203 1.350 . S
N201 S199 1.610 . S
N201 C202 1.351 . S
C202 C196 1.428 . S
C202 N201 1.351 . S
C202 C203 1.434 . S
C203 C194 1.429 . S
C203 N200 1.350 . S
C203 C202 1.434 . S
C204 C205 1.369 1_556 S
C204 C206 1.418 1_656 S
C204 H208 0.930 . S
C205 C204 1.369 1_554 S
C205 C214 1.429 1_655 S
C206 C204 1.418 1_454 S
C206 C207 1.365 . S
C206 H209 0.928 1_554 S
C207 C206 1.365 . S
C207 C213 1.428 . S
H208 C204 0.930 . S
H209 C206 0.928 1_556 S
S210 N211 1.613 1_455 S
S210 N212 1.610 . S
N211 S210 1.613 1_655 S
N211 C214 1.350 1_655 S
N212 S210 1.610 . S
N212 C213 1.351 . S
C213 C207 1.428 . S
C213 N212 1.351 . S
C213 C214 1.434 . S
C214 C205 1.429 1_455 S
C214 N211 1.350 1_455 S
C214 C213 1.434 . S
C215 C216 1.369 . S
C215 C217 1.419 1_455 S
C215 H219 0.930 . S
C216 C215 1.369 . S
C216 C225 1.429 1_454 S
C217 C215 1.419 1_655 S
C217 C218 1.363 . S
C217 H220 0.929 . S
C218 C217 1.363 . S
C218 C224 1.428 1_554 S
H219 C215 0.930 . S
H220 C217 0.929 . S
S221 N222 1.613 1_655 S
S221 N223 1.610 . S
N222 S221 1.613 1_455 S
N222 C225 1.350 1_455 S
N223 S221 1.610 . S
N223 C224 1.351 . S
C224 C218 1.428 1_556 S
C224 N223 1.351 . S
C224 C225 1.434 . S
C225 C216 1.429 1_656 S
C225 N222 1.350 1_655 S
C225 C224 1.434 . S
C226 C227 1.369 . S
C226 C228 1.419 1_455 S
C226 H230 0.930 . S
C227 C226 1.369 . S
C227 C236 1.429 . S
C228 C226 1.419 1_655 S
C228 C229 1.363 . S
C228 H231 0.929 . S
C229 C228 1.363 . S
C229 C235 1.428 1_655 S
H230 C226 0.930 . S
H231 C228 0.929 . S
S232 N233 1.613 . S
S232 N234 1.610 1_455 S
N233 S232 1.613 . S
N233 C236 1.350 . S
N234 S232 1.610 1_655 S
N234 C235 1.351 1_655 S
C235 C229 1.428 1_455 S
C235 N234 1.351 1_455 S
C235 C236 1.434 . S
C236 C227 1.429 . S
C236 N233 1.350 . S
C236 C235 1.434 . S
C237 C238 1.369 . S
C237 C239 1.419 . S
C237 H241 0.930 . S
C238 C237 1.369 . S
C238 C247 1.429 . S
C239 C237 1.419 . S
C239 C240 1.363 1_655 S
C239 H242 0.929 1_655 S
C240 C239 1.363 1_455 S
C240 C246 1.428 . S
H241 C237 0.930 . S
H242 C239 0.929 1_455 S
S243 N244 1.613 . S
S243 N245 1.610 1_655 S
N244 S243 1.613 . S
N244 C247 1.350 . S
N245 S243 1.610 1_455 S
N245 C246 1.351 . S
C246 C240 1.428 . S
C246 N245 1.351 . S
C246 C247 1.434 1_455 S
C247 C238 1.429 . S
C247 N244 1.350 . S
C247 C246 1.434 1_655 S
C248 C249 1.369 1_556 S
C248 C250 1.419 . S
C248 H252 0.930 . S
C249 C248 1.369 1_554 S
C249 C258 1.429 1_455 S
C250 C248 1.419 . S
C250 C251 1.363 1_456 S
C250 H253 0.929 . S
C251 C250 1.363 1_654 S
C251 C257 1.428 . S
H252 C248 0.930 . S
H253 C250 0.929 . S
S254 N255 1.613 . S
S254 N256 1.610 . S
N255 S254 1.613 . S
N255 C258 1.350 . S
N256 S254 1.610 . S
N256 C257 1.351 . S
C257 C251 1.428 . S
C257 N256 1.351 . S
C257 C258 1.434 . S
C258 C249 1.429 1_655 S
C258 N255 1.350 . S
C258 C257 1.434 . S
C259 C260 1.369 1_655 S
C259 C261 1.419 . S
C259 H263 0.930 . S
C260 C259 1.369 1_455 S
C260 C269 1.429 . S
C261 C259 1.419 . S
C261 C262 1.363 . S
C261 H264 0.929 . S
C262 C261 1.363 . S
C262 C268 1.428 1_655 S
H263 C259 0.930 . S
H264 C261 0.929 . S
S265 N266 1.613 . S
S265 N267 1.610 . S
N266 S265 1.613 . S
N266 C269 1.350 . S
N267 S265 1.610 . S
N267 C268 1.351 . S
C268 C262 1.428 1_455 S
C268 N267 1.351 . S
C268 C269 1.434 . S
C269 C260 1.429 . S
C269 N266 1.350 . S
C269 C268 1.434 . S
C270 C271 1.369 1_556 S
C270 C272 1.419 1_565 S
C270 H274 0.930 . S
C271 C270 1.369 1_554 S
C271 C280 1.429 . S
C272 C270 1.419 1_545 S
C272 C273 1.363 1_556 S
C272 H275 0.929 . S
C273 C272 1.363 1_554 S
C273 C279 1.428 . S
H274 C270 0.930 . S
H275 C272 0.929 . S
S276 N277 1.613 . S
S276 N278 1.610 1_565 S
N277 S276 1.613 . S
N277 C280 1.350 . S
N278 S276 1.610 1_545 S
N278 C279 1.351 . S
C279 C273 1.428 . S
C279 N278 1.351 . S
C279 C280 1.434 1_545 S
C280 C271 1.429 . S
C280 N277 1.350 . S
C280 C279 1.434 1_565 S
C281 C282 1.369 . S
C281 C283 1.419 1_545 S
C281 H285 0.930 . S
C282 C281 1.369 . S
C282 C291 1.429 . S
C283 C281 1.419 1_565 S
C283 C284 1.363 . S
C283 H286 0.929 . S
C284 C283 1.363 . S
C284 C290 1.428 . S
H285 C281 0.930 . S
H286 C283 0.929 . S
S287 N288 1.613 1_565 S
S287 N289 1.610 . S
N288 S287 1.613 1_545 S
N288 C291 1.350 . S
N289 S287 1.610 . S
N289 C290 1.351 . S
C290 C284 1.428 . S
C290 N289 1.351 . S
C290 C291 1.434 1_565 S
C291 C282 1.429 . S
C291 N288 1.350 . S
C291 C290 1.434 1_545 S
C292 C293 1.369 . S
C292 C294 1.419 . S
C292 H296 0.930 . S
C293 C292 1.369 . S
C293 C302 1.429 1_554 S
C294 C292 1.419 . S
C294 C295 1.363 . S
C294 H297 0.929 . S
C295 C294 1.363 . S
C295 C301 1.428 1_554 S
H296 C292 0.930 . S
H297 C294 0.929 . S
S298 N299 1.613 . S
S298 N300 1.610 . S
N299 S298 1.613 . S
N299 C302 1.350 . S
N300 S298 1.610 . S
N300 C301 1.351 . S
C301 C295 1.428 1_556 S
C301 N300 1.351 . S
C301 C302 1.434 . S
C302 C293 1.429 1_556 S
C302 N299 1.350 . S
C302 C301 1.434 . S
C303 C304 1.371 . S
C303 C305 1.418 1_554 S
C303 H307 0.929 1_554 S
C304 C303 1.371 . S
C304 C313 1.429 . S
C305 C303 1.418 1_556 S
C305 C306 1.363 1_556 S
C305 H308 0.929 . S
C306 C305 1.363 1_554 S
C306 C312 1.428 . S
H307 C303 0.929 1_556 S
H308 C305 0.929 . S
S309 N310 1.613 . S
S309 N311 1.610 . S
N310 S309 1.613 . S
N310 C313 1.350 . S
N311 S309 1.610 . S
N311 C312 1.351 . S
C312 C306 1.428 . S
C312 N311 1.351 . S
C312 C313 1.434 . S
C313 C304 1.429 . S
C313 N310 1.350 . S
C313 C312 1.434 . S
C314 C315 1.369 . S
C314 C316 1.419 . S
C314 H318 0.930 . S
C315 C314 1.369 . S
C315 C324 1.429 . S
C316 C314 1.419 . S
C316 C317 1.363 . S
C316 H319 0.929 . S
C317 C316 1.363 . S
C317 C323 1.428 . S
H318 C314 0.930 . S
H319 C316 0.929 . S
S320 N321 1.613 . S
S320 N322 1.610 . S
N321 S320 1.613 . S
N321 C324 1.350 . S
N322 S320 1.610 . S
N322 C323 1.351 . S
C323 C317 1.428 . S
C323 N322 1.351 . S
C323 C324 1.434 . S
C324 C315 1.429 . S
C324 N321 1.350 . S
C324 C323 1.434 . S
C325 C326 1.369 . S
C325 C327 1.419 . S
C325 H329 0.930 . S
C326 C325 1.369 . S
C326 C335 1.429 . S
C327 C325 1.419 . S
C327 C328 1.363 . S
C327 H330 0.929 . S
C328 C327 1.363 . S
C328 C334 1.428 . S
H329 C325 0.930 . S
H330 C327 0.929 . S
S331 N332 1.613 . S
S331 N333 1.610 . S
N332 S331 1.613 . S
N332 C335 1.350 . S
N333 S331 1.610 . S
N333 C334 1.351 . S
C334 C328 1.428 . S
C334 N333 1.351 . S
C334 C335 1.434 . S
C335 C326 1.429 . S
C335 N332 1.350 . S
C335 C334 1.434 . S
C336 C337 1.369 . S
C336 C338 1.419 . S
C336 H340 0.930 . S
C337 C336 1.369 . S
C337 C346 1.429 1_455 S
C338 C336 1.419 . S
C338 C339 1.363 1_455 S
C338 H341 0.929 . S
C339 C338 1.363 1_655 S
C339 C345 1.428 . S
H340 C336 0.930 . S
H341 C338 0.929 . S
S342 N343 1.613 . S
S342 N344 1.610 . S
N343 S342 1.613 . S
N343 C346 1.350 . S
N344 S342 1.610 . S
N344 C345 1.351 . S
C345 C339 1.428 . S
C345 N344 1.351 . S
C345 C346 1.434 . S
C346 C337 1.429 1_655 S
C346 N343 1.350 . S
C346 C345 1.434 . S
C347 C348 1.369 1_455 S
C347 C349 1.419 . S
C347 H351 0.930 . S
C348 C347 1.369 1_655 S
C348 C357 1.429 . S
C349 C347 1.419 . S
C349 C350 1.363 . S
C349 H352 0.929 . S
C350 C349 1.363 . S
C350 C356 1.428 1_455 S
H351 C347 0.930 . S
H352 C349 0.929 . S
S353 N354 1.613 . S
S353 N355 1.610 . S
N354 S353 1.613 . S
N354 C357 1.350 . S
N355 S353 1.610 . S
N355 C356 1.351 . S
C356 C350 1.428 1_655 S
C356 N355 1.351 . S
C356 C357 1.434 . S
C357 C348 1.429 . S
C357 N354 1.350 . S
C357 C356 1.434 . S
C358 C359 1.369 . S
C358 C360 1.419 . S
C358 H362 0.930 . S
C359 C358 1.369 . S
C359 C368 1.429 1_655 S
C360 C358 1.419 . S
C360 C361 1.363 1_655 S
C360 H363 0.929 . S
C361 C360 1.363 1_455 S
C361 C367 1.428 . S
H362 C358 0.930 . S
H363 C360 0.929 . S
S364 N365 1.613 . S
S364 N366 1.610 . S
N365 S364 1.613 . S
N365 C368 1.350 . S
N366 S364 1.610 . S
N366 C367 1.351 . S
C367 C361 1.428 . S
C367 N366 1.351 . S
C367 C368 1.434 . S
C368 C359 1.429 1_455 S
C368 N365 1.350 . S
C368 C367 1.434 . S
C369 C370 1.369 1_455 S
C369 C371 1.419 . S
C369 H373 0.930 . S
C370 C369 1.369 1_655 S
C370 C379 1.429 . S
C371 C369 1.419 . S
C371 C372 1.363 . S
C371 H374 0.929 . S
C372 C371 1.363 . S
C372 C378 1.428 1_455 S
H373 C369 0.930 . S
H374 C371 0.929 . S
S375 N376 1.613 . S
S375 N377 1.610 . S
N376 S375 1.613 . S
N376 C379 1.350 . S
N377 S375 1.610 . S
N377 C378 1.351 . S
C378 C372 1.428 1_655 S
C378 N377 1.351 . S
C378 C379 1.434 . S
C379 C370 1.429 . S
C379 N376 1.350 . S
C379 C378 1.434 . S
C380 C381 1.369 . S
C380 C382 1.419 . S
C380 H384 0.930 . S
C381 C380 1.369 . S
C381 C390 1.429 . S
C382 C380 1.419 . S
C382 C383 1.363 . S
C382 H385 0.929 . S
C383 C382 1.363 . S
C383 C389 1.428 . S
H384 C380 0.930 . S
H385 C382 0.929 . S
S386 N387 1.613 . S
S386 N388 1.610 . S
N387 S386 1.613 . S
N387 C390 1.350 . S
N388 S386 1.610 . S
N388 C389 1.351 . S
C389 C383 1.428 . S
C389 N388 1.351 . S
C389 C390 1.434 . S
C390 C381 1.429 . S
C390 N387 1.350 . S
C390 C389 1.434 . S
C391 C392 1.369 . S
C391 C393 1.419 . S
C391 H395 0.930 . S
C392 C391 1.369 . S
C392 C401 1.429 . S
C393 C391 1.419 . S
C393 C394 1.363 . S
C393 H396 0.929 . S
C394 C393 1.363 . S
C394 C400 1.428 . S
H395 C391 0.930 . S
H396 C393 0.929 . S
S397 N398 1.613 . S
S397 N399 1.610 . S
N398 S397 1.613 . S
N398 C401 1.350 . S
N399 S397 1.610 . S
N399 C400 1.351 . S
C400 C394 1.428 . S
C400 N399 1.351 . S
C400 C401 1.434 . S
C401 C392 1.429 . S
C401 N398 1.350 . S
C401 C400 1.434 . S
C402 C403 1.369 . S
C402 C404 1.419 . S
C402 H406 0.930 . S
C403 C402 1.369 . S
C403 C412 1.429 . S
C404 C402 1.419 . S
C404 C405 1.363 . S
C404 H407 0.929 . S
C405 C404 1.363 . S
C405 C411 1.428 . S
H406 C402 0.930 . S
H407 C404 0.929 . S
S408 N409 1.613 . S
S408 N410 1.610 . S
N409 S408 1.613 . S
N409 C412 1.350 . S
N410 S408 1.610 . S
N410 C411 1.351 . S
C411 C405 1.428 . S
C411 N410 1.351 . S
C411 C412 1.434 . S
C412 C403 1.429 . S
C412 N409 1.350 . S
C412 C411 1.434 . S
C413 C414 1.369 . S
C413 C415 1.419 . S
C413 H417 0.930 . S
C414 C413 1.369 . S
C414 C423 1.429 . S
C415 C413 1.419 . S
C415 C416 1.363 . S
C415 H418 0.929 . S
C416 C415 1.363 . S
C416 C422 1.428 . S
H417 C413 0.930 . S
H418 C415 0.929 . S
S419 N420 1.613 . S
S419 N421 1.610 . S
N420 S419 1.613 . S
N420 C423 1.350 . S
N421 S419 1.610 . S
N421 C422 1.351 . S
C422 C416 1.428 . S
C422 N421 1.351 . S
C422 C423 1.434 . S
C423 C414 1.429 . S
C423 N420 1.350 . S
C423 C422 1.434 . S
C161 C19 1.780 . S
C163 C18 1.778 . S
C172 C39 1.776 . S
C174 C38 1.782 . S
C183 C59 1.776 . S
C185 C58 1.782 . S
C194 C79 1.776 . S
C196 C78 1.782 . S
C205 C99 1.783 . S
C207 C98 1.777 . S
C216 C118 1.783 . S
C218 C119 1.777 . S
C227 C139 1.776 . S
C229 C138 1.782 . S
C238 C158 1.782 . S
C240 C159 1.777 . S
C249 C21 1.798 . S
C251 C2 1.800 . S
C260 C62 1.801 . S
C262 C41 1.796 . S
C271 C82 1.796 . S
C273 C101 1.801 . S
C282 C121 1.802 . S
C284 C142 1.796 . S
C293 C1 1.507 . S
C295 C102 1.514 . S
C304 C81 1.509 . S
C306 C22 1.513 . S
C315 C42 1.513 . S
C317 C141 1.510 . S
C326 C61 1.511 . S
C328 C122 1.511 . S
C337 C8 1.502 . S
C339 C68 1.505 . S
C348 C28 1.546 . S
C350 C48 1.548 . S
C359 C29 1.507 . S
C361 C49 1.508 . S
C370 C69 1.554 . S
C372 C9 1.554 . S
C381 C88 1.510 . S
C383 C148 1.507 . S
C392 C108 1.555 . S
C394 C128 1.554 . S
C403 C109 1.502 . S
C405 C129 1.503 . S
C414 C149 1.556 . S
C416 C89 1.550 . S
