# Generated by pormake.
# Topology uki, (4)-cn, num edge types: 1
# Building blocks:
#     Node 0, Type 0, BuildingBlock: QUQFOY_clean_sbu_1, # of connection points: 4
#     Node 1, Type 0, BuildingBlock: QUQFOY_clean_sbu_1, # of connection points: 4
#     Node 2, Type 0, BuildingBlock: QUQFOY_clean_sbu_1, # of connection points: 4
#     Node 3, Type 0, BuildingBlock: QUQFOY_clean_sbu_1, # of connection points: 4
#     Node 4, Type 0, BuildingBlock: QUQFOY_clean_sbu_1, # of connection points: 4
#     Node 5, Type 0, BuildingBlock: QUQFOY_clean_sbu_1, # of connection points: 4
#     Node 6, Type 0, BuildingBlock: QUQFOY_clean_sbu_1, # of connection points: 4
#     Node 7, Type 0, BuildingBlock: QUQFOY_clean_sbu_1, # of connection points: 4
#     Node 8, Type 0, BuildingBlock: QUQFOY_clean_sbu_1, # of connection points: 4
#     Node 9, Type 0, BuildingBlock: QUQFOY_clean_sbu_1, # of connection points: 4
#     Node 10, Type 0, BuildingBlock: QUQFOY_clean_sbu_1, # of connection points: 4
#     Node 11, Type 0, BuildingBlock: QUQFOY_clean_sbu_1, # of connection points: 4
#     Node 12, Type 0, BuildingBlock: QUQFOY_clean_sbu_1, # of connection points: 4
#     Node 13, Type 0, BuildingBlock: QUQFOY_clean_sbu_1, # of connection points: 4
#     Node 14, Type 0, BuildingBlock: QUQFOY_clean_sbu_1, # of connection points: 4
#     Node 15, Type 0, BuildingBlock: QUQFOY_clean_sbu_1, # of connection points: 4
#     Edge 16, Type (0, 0), BuildingBlock: XIVTED_clean_linker_0, # of connection points: 2
#     Edge 17, Type (0, 0), BuildingBlock: XIVTED_clean_linker_0, # of connection points: 2
#     Edge 18, Type (0, 0), BuildingBlock: XIVTED_clean_linker_0, # of connection points: 2
#     Edge 19, Type (0, 0), BuildingBlock: XIVTED_clean_linker_0, # of connection points: 2
#     Edge 20, Type (0, 0), BuildingBlock: XIVTED_clean_linker_0, # of connection points: 2
#     Edge 21, Type (0, 0), BuildingBlock: XIVTED_clean_linker_0, # of connection points: 2
#     Edge 22, Type (0, 0), BuildingBlock: XIVTED_clean_linker_0, # of connection points: 2
#     Edge 23, Type (0, 0), BuildingBlock: XIVTED_clean_linker_0, # of connection points: 2
#     Edge 24, Type (0, 0), BuildingBlock: XIVTED_clean_linker_0, # of connection points: 2
#     Edge 25, Type (0, 0), BuildingBlock: XIVTED_clean_linker_0, # of connection points: 2
#     Edge 26, Type (0, 0), BuildingBlock: XIVTED_clean_linker_0, # of connection points: 2
#     Edge 27, Type (0, 0), BuildingBlock: XIVTED_clean_linker_0, # of connection points: 2
#     Edge 28, Type (0, 0), BuildingBlock: XIVTED_clean_linker_0, # of connection points: 2
#     Edge 29, Type (0, 0), BuildingBlock: XIVTED_clean_linker_0, # of connection points: 2
#     Edge 30, Type (0, 0), BuildingBlock: XIVTED_clean_linker_0, # of connection points: 2
#     Edge 31, Type (0, 0), BuildingBlock: XIVTED_clean_linker_0, # of connection points: 2
#     Edge 32, Type (0, 0), BuildingBlock: XIVTED_clean_linker_0, # of connection points: 2
#     Edge 33, Type (0, 0), BuildingBlock: XIVTED_clean_linker_0, # of connection points: 2
#     Edge 34, Type (0, 0), BuildingBlock: XIVTED_clean_linker_0, # of connection points: 2
#     Edge 35, Type (0, 0), BuildingBlock: XIVTED_clean_linker_0, # of connection points: 2
#     Edge 36, Type (0, 0), BuildingBlock: XIVTED_clean_linker_0, # of connection points: 2
#     Edge 37, Type (0, 0), BuildingBlock: XIVTED_clean_linker_0, # of connection points: 2
#     Edge 38, Type (0, 0), BuildingBlock: XIVTED_clean_linker_0, # of connection points: 2
#     Edge 39, Type (0, 0), BuildingBlock: XIVTED_clean_linker_0, # of connection points: 2
#     Edge 40, Type (0, 0), BuildingBlock: XIVTED_clean_linker_0, # of connection points: 2
#     Edge 41, Type (0, 0), BuildingBlock: XIVTED_clean_linker_0, # of connection points: 2
#     Edge 42, Type (0, 0), BuildingBlock: XIVTED_clean_linker_0, # of connection points: 2
#     Edge 43, Type (0, 0), BuildingBlock: XIVTED_clean_linker_0, # of connection points: 2
#     Edge 44, Type (0, 0), BuildingBlock: XIVTED_clean_linker_0, # of connection points: 2
#     Edge 45, Type (0, 0), BuildingBlock: XIVTED_clean_linker_0, # of connection points: 2
#     Edge 46, Type (0, 0), BuildingBlock: XIVTED_clean_linker_0, # of connection points: 2
#     Edge 47, Type (0, 0), BuildingBlock: XIVTED_clean_linker_0, # of connection points: 2
# Relax obj value: 0.032
# Max RMSD: 0.129
# Mean RMSD: 0.129
data_MOF--net-uki--node1-QUQFOY_clean_sbu_1--edge1-XIVTED_clean_linker_0
_symmetry_space_group_name_H-M    P1
_symmetry_Int_Tables_number       1
_symmetry_cell_setting            triclinic
loop_
_symmetry_equiv_pos_as_xyz
'x, y, z'
_cell_length_a     32.928137
_cell_length_b     32.846041
_cell_length_c     73.042239
_cell_angle_alpha  89.933525
_cell_angle_beta   90.015995
_cell_angle_gamma 89.911954
loop_
_atom_site_label
_atom_site_type_symbol
_atom_site_fract_x
_atom_site_fract_y
_atom_site_fract_z
_atom_type_partial_charge
O0 O 0.13007 0.28658 0.29332 0.0
Cd1 Cd 0.09825 0.26179 0.31498 0.0
Cd2 Cd 0.08172 0.20641 0.28758 0.0
O3 O 0.12394 0.23826 0.27245 0.0
O4 O 0.12256 0.28919 0.33674 0.0
O5 O 0.12924 0.22325 0.33153 0.0
C6 C 0.13851 0.25473 0.34128 0.0
C7 C 0.07214 0.13642 0.28598 0.0
C8 C 0.1382 0.27231 0.27757 0.0
C9 C 0.01237 0.25674 0.30304 0.0
O10 O 0.02653 0.23345 0.29077 0.0
O11 O 0.03545 0.27105 0.31544 0.0
O12 O 0.0663 0.15954 0.27197 0.0
O13 O 0.0876 0.15255 0.30052 0.0
O14 O 0.28146 0.87853 0.73006 0.0
Cd15 Cd 0.25994 0.90909 0.70737 0.0
Cd16 Cd 0.2078 0.93831 0.7346 0.0
O17 O 0.23867 0.89845 0.7516 0.0
O18 O 0.28809 0.88017 0.68699 0.0
O19 O 0.22153 0.87889 0.69047 0.0
C20 C 0.25334 0.86649 0.68174 0.0
C21 C 0.13827 0.95013 0.73621 0.0
C22 C 0.26919 0.87759 0.74655 0.0
C23 C 0.26294 0.99834 0.71534 0.0
O24 O 0.2373 0.99071 0.72781 0.0
O25 O 0.27607 0.9702 0.70493 0.0
O26 O 0.16216 0.95979 0.74947 0.0
O27 O 0.15343 0.93032 0.72254 0.0
O28 O 0.86714 0.72144 0.29118 0.0
Cd29 Cd 0.89917 0.74675 0.31264 0.0
Cd30 Cd 0.91227 0.80318 0.28559 0.0
O31 O 0.86994 0.77104 0.27073 0.0
O32 O 0.87652 0.7186 0.33459 0.0
O33 O 0.86801 0.78439 0.32946 0.0
C34 C 0.85991 0.75263 0.33927 0.0
C35 C 0.92053 0.87339 0.28457 0.0
C36 C 0.85746 0.73617 0.27568 0.0
C37 C 0.98383 0.75383 0.29946 0.0
O38 O 0.96809 0.77699 0.28751 0.0
O39 O 0.96218 0.73905 0.31228 0.0
O40 O 0.92543 0.85119 0.27022 0.0
O41 O 0.90667 0.85617 0.2992 0.0
O42 O 0.70719 0.112 0.73011 0.0
Cd43 Cd 0.73864 0.09002 0.70782 0.0
Cd44 Cd 0.79547 0.08646 0.73271 0.0
O45 O 0.76059 0.1288 0.74662 0.0
O46 O 0.71313 0.11444 0.68563 0.0
O47 O 0.77615 0.12799 0.69431 0.0
C48 C 0.74626 0.13476 0.68321 0.0
C49 C 0.86602 0.08438 0.73366 0.0
C50 C 0.72242 0.12917 0.74409 0.0
C51 C 0.75527 0.00828 0.72008 0.0
O52 O 0.77412 0.02767 0.73247 0.0
O53 O 0.74072 0.02721 0.70637 0.0
O54 O 0.8445 0.07946 0.7482 0.0
O55 O 0.84756 0.0946 0.71874 0.0
O56 O 0.1289 0.21551 0.97958 0.0
Cd57 Cd 0.0957 0.24166 0.95862 0.0
Cd58 Cd 0.08334 0.29671 0.986 0.0
O59 O 0.12665 0.26442 1.00031 0.0
O60 O 0.11734 0.21469 0.9362 0.0
O61 O 0.12595 0.2802 0.9419 0.0
C62 C 0.13357 0.24898 0.93168 0.0
C63 C 0.07522 0.36689 0.98696 0.0
C64 C 0.13926 0.2298 0.99506 0.0
C65 C 0.01134 0.24843 0.97229 0.0
O66 O 0.02736 0.27082 0.98442 0.0
O67 O 0.03272 0.23421 0.95926 0.0
O68 O 0.07084 0.34476 1.00139 0.0
O69 O 0.0886 0.3496 0.97227 0.0
O70 O 0.21513 0.87534 0.04826 0.0
Cd71 Cd 0.24818 0.90632 0.06781 0.0
Cd72 Cd 0.29752 0.91622 0.03932 0.0
O73 O 0.26178 0.87348 0.02649 0.0
O74 O 0.23305 0.88388 0.09236 0.0
O75 O 0.29278 0.873 0.07922 0.0
C76 C 0.26794 0.86588 0.09254 0.0
C77 C 0.36757 0.92179 0.03777 0.0
C78 C 0.22701 0.8635 0.03256 0.0
C79 C 0.25493 0.99041 0.05379 0.0
O80 O 0.27363 0.97319 0.04075 0.0
O81 O 0.24353 0.96984 0.06764 0.0
O82 O 0.34528 0.92597 0.02338 0.0
O83 O 0.35036 0.90963 0.0527 0.0
O84 O 0.86789 0.78089 0.98304 0.0
Cd85 Cd 0.89989 0.7552 0.96166 0.0
Cd86 Cd 0.91303 0.69934 0.98844 0.0
O87 O 0.87026 0.73094 1.00331 0.0
O88 O 0.87659 0.78228 0.93958 0.0
O89 O 0.86893 0.71661 0.94528 0.0
C90 C 0.86026 0.74792 0.93526 0.0
C91 C 0.92186 0.62919 0.98907 0.0
C92 C 0.85793 0.76598 0.99846 0.0
C93 C 0.98441 0.74883 0.97484 0.0
O94 O 0.96865 0.72587 0.98685 0.0
O95 O 0.96282 0.76318 0.96189 0.0
O96 O 0.92634 0.65099 1.00357 0.0
O97 O 0.90805 0.64675 0.97449 0.0
O98 O 0.78091 0.12611 0.04404 0.0
Cd99 Cd 0.75336 0.09538 0.06535 0.0
Cd100 Cd 0.69973 0.08105 0.03744 0.0
O101 O 0.73341 0.12248 0.02271 0.0
O102 O 0.77976 0.11886 0.08752 0.0
O103 O 0.71473 0.12791 0.08116 0.0
C104 C 0.74563 0.13609 0.09144 0.0
C105 C 0.62978 0.07357 0.03574 0.0
C106 C 0.76777 0.13511 0.02817 0.0
C107 C 0.74621 0.00966 0.05331 0.0
O108 O 0.72472 0.02482 0.04061 0.0
O109 O 0.76008 0.03213 0.06604 0.0
O110 O 0.65262 0.06758 0.02168 0.0
O111 O 0.64628 0.08829 0.05036 0.0
O112 O 0.62812 0.78796 0.79509 0.0
Cd113 Cd 0.59475 0.764 0.81641 0.0
Cd114 Cd 0.57763 0.70915 0.78928 0.0
O115 O 0.62133 0.73949 0.77438 0.0
O116 O 0.61921 0.79032 0.83837 0.0
O117 O 0.62417 0.72431 0.83296 0.0
C118 C 0.63416 0.75537 0.84283 0.0
C119 C 0.56862 0.63905 0.78833 0.0
C120 C 0.63654 0.77312 0.77948 0.0
C121 C 0.50896 0.76129 0.80399 0.0
O122 O 0.52265 0.73723 0.7919 0.0
O123 O 0.53225 0.77517 0.81642 0.0
O124 O 0.56285 0.66144 0.77408 0.0
O125 O 0.5831 0.65609 0.80287 0.0
O126 O 0.78154 0.37503 0.23052 0.0
Cd127 Cd 0.75469 0.40553 0.20894 0.0
Cd128 Cd 0.70105 0.42236 0.23676 0.0
O129 O 0.73459 0.38148 0.25196 0.0
O130 O 0.78043 0.3803 0.18698 0.0
O131 O 0.71518 0.37357 0.19338 0.0
C132 C 0.74583 0.364 0.18319 0.0
C133 C 0.63113 0.43058 0.23872 0.0
C134 C 0.7685 0.36751 0.24655 0.0
C135 C 0.74878 0.49203 0.22007 0.0
O136 O 0.72653 0.47803 0.23275 0.0
O137 O 0.76286 0.46855 0.20774 0.0
O138 O 0.6544 0.43741 0.25255 0.0
O139 O 0.64718 0.41482 0.22422 0.0
O140 O 0.38897 0.21112 0.79289 0.0
Cd141 Cd 0.40846 0.23974 0.81633 0.0
Cd142 Cd 0.42589 0.29663 0.79141 0.0
O143 O 0.38651 0.2646 0.77463 0.0
O144 O 0.37823 0.21309 0.83672 0.0
O145 O 0.37124 0.27834 0.82983 0.0
C146 C 0.36039 0.24747 0.83968 0.0
C147 C 0.43348 0.367 0.7897 0.0
C148 C 0.37977 0.2271 0.7776 0.0
C149 C 0.49464 0.24785 0.80872 0.0
O150 O 0.48182 0.27041 0.79583 0.0
O151 O 0.47013 0.23383 0.82059 0.0
O152 O 0.44219 0.34376 0.77609 0.0
O153 O 0.4169 0.3506 0.80393 0.0
O154 O 0.21369 0.62704 0.22643 0.0
Cd155 Cd 0.24603 0.59665 0.20642 0.0
Cd156 Cd 0.29616 0.58425 0.23466 0.0
O157 O 0.26038 0.62601 0.2482 0.0
O158 O 0.23079 0.62047 0.18214 0.0
O159 O 0.29093 0.62969 0.19515 0.0
C160 C 0.26598 0.63775 0.18196 0.0
C161 C 0.36626 0.57867 0.23656 0.0
C162 C 0.22577 0.6372 0.24233 0.0
C163 C 0.25269 0.51146 0.21922 0.0
O164 O 0.27241 0.52741 0.23227 0.0
O165 O 0.24047 0.53325 0.20588 0.0
O166 O 0.34354 0.5732 0.25071 0.0
O167 O 0.34941 0.59189 0.22171 0.0
O168 O 0.60049 0.7055 0.47497 0.0
Cd169 Cd 0.58108 0.73802 0.45246 0.0
Cd170 Cd 0.57236 0.79342 0.47833 0.0
O171 O 0.61212 0.75741 0.49334 0.0
O172 O 0.609 0.71379 0.43082 0.0
O173 O 0.61986 0.77693 0.4402 0.0
C174 C 0.62876 0.74752 0.42913 0.0
C175 C 0.56816 0.86407 0.48005 0.0
C176 C 0.6142 0.7195 0.48995 0.0
C177 C 0.49743 0.75266 0.46231 0.0
O178 O 0.51438 0.77147 0.47543 0.0
O179 O 0.51866 0.73857 0.44923 0.0
O180 O 0.56116 0.8414 0.49409 0.0
O181 O 0.58205 0.84683 0.46544 0.0
O182 O 0.71869 0.36601 0.54068 0.0
Cd183 Cd 0.73692 0.39942 0.56307 0.0
Cd184 Cd 0.79217 0.42673 0.53679 0.0
O185 O 0.76387 0.38493 0.52001 0.0
O186 O 0.70773 0.37187 0.58355 0.0
O187 O 0.77458 0.37199 0.58126 0.0
C188 C 0.74236 0.35953 0.58965 0.0
C189 C 0.86179 0.43785 0.53521 0.0
C190 C 0.73324 0.36383 0.5246 0.0
C191 C 0.73372 0.48793 0.55319 0.0
O192 O 0.76159 0.47969 0.5418 0.0
O193 O 0.71934 0.46044 0.56363 0.0
O194 O 0.83814 0.44652 0.52172 0.0
O195 O 0.84623 0.42019 0.54937 0.0
O196 O 0.39901 0.29448 0.47635 0.0
Cd197 Cd 0.4188 0.26245 0.45381 0.0
Cd198 Cd 0.42678 0.20643 0.47944 0.0
O199 O 0.38616 0.24188 0.4942 0.0
O200 O 0.39148 0.28747 0.43218 0.0
O201 O 0.37993 0.22418 0.44125 0.0
C202 C 0.37141 0.25398 0.43029 0.0
C203 C 0.43113 0.13576 0.48099 0.0
C204 C 0.38445 0.27994 0.49107 0.0
C205 C 0.50211 0.24757 0.46408 0.0
O206 O 0.48478 0.22869 0.47708 0.0
O207 O 0.48126 0.26168 0.45085 0.0
O208 O 0.4374 0.15816 0.49516 0.0
O209 O 0.41793 0.15325 0.46629 0.0
O210 O 0.28047 0.63566 0.53885 0.0
Cd211 Cd 0.26201 0.60272 0.56138 0.0
Cd212 Cd 0.20747 0.57465 0.53534 0.0
O213 O 0.23544 0.61611 0.51825 0.0
O214 O 0.29083 0.63061 0.58184 0.0
O215 O 0.22403 0.63058 0.57927 0.0
C216 C 0.25612 0.64307 0.58775 0.0
C217 C 0.13779 0.5638 0.53458 0.0
C218 C 0.26599 0.63741 0.52274 0.0
C219 C 0.26587 0.514 0.55203 0.0
O220 O 0.23819 0.52183 0.54048 0.0
O221 O 0.27982 0.5418 0.5624 0.0
O222 O 0.16065 0.55467 0.52089 0.0
O223 O 0.15417 0.58185 0.54844 0.0
H224 H 0.20745 0.31275 0.28544 0.0
H225 H 0.18498 0.47072 0.2065 0.0
H226 H 0.12303 0.28992 0.24156 0.0
H227 H 0.29671 0.45336 0.23637 0.0
H228 H 0.16218 0.40322 0.21701 0.0
H229 H 0.24147 0.36337 0.26644 0.0
C230 C 0.19662 0.318 0.27163 0.0
C231 C 0.1626 0.29728 0.26499 0.0
C232 C 0.19211 0.41387 0.22083 0.0
C233 C 0.20043 0.35604 0.24331 0.0
C234 C 0.20515 0.45224 0.21478 0.0
C235 C 0.24239 0.46787 0.2209 0.0
C236 C 0.21648 0.39158 0.23311 0.0
C237 C 0.26737 0.4428 0.23166 0.0
C238 C 0.216 0.34682 0.26075 0.0
C239 C 0.14946 0.30522 0.24705 0.0
N240 N 0.25368 0.40631 0.23769 0.0
N241 N 0.16789 0.33473 0.2369 0.0
H242 H 0.47287 0.83344 0.8148 0.0
H243 H 0.2999 0.80175 0.74237 0.0
H244 H 0.44746 0.71816 0.78902 0.0
H245 H 0.29498 0.90163 0.7805 0.0
H246 H 0.35111 0.76887 0.76143 0.0
H247 H 0.40544 0.85791 0.80512 0.0
C248 C 0.45274 0.81298 0.80755 0.0
C249 C 0.46602 0.77405 0.80236 0.0
C250 C 0.33839 0.79759 0.76591 0.0
C251 C 0.38957 0.80175 0.79115 0.0
C252 C 0.30911 0.81628 0.75502 0.0
C253 C 0.29333 0.85429 0.75992 0.0
C254 C 0.35306 0.81767 0.78156 0.0
C255 C 0.30635 0.87208 0.77638 0.0
C256 C 0.41437 0.82695 0.80198 0.0
C257 C 0.4388 0.74874 0.79296 0.0
N258 N 0.33623 0.85403 0.78646 0.0
N259 N 0.40226 0.76322 0.78742 0.0
H260 H 0.81885 0.53069 0.20863 0.0
H261 H 0.7875 0.69642 0.28297 0.0
H262 H 0.70273 0.55243 0.23417 0.0
H263 H 0.8757 0.71624 0.24034 0.0
H264 H 0.75549 0.64401 0.26423 0.0
H265 H 0.84051 0.5993 0.21808 0.0
C266 C 0.79757 0.55029 0.21571 0.0
C267 C 0.75931 0.53566 0.22098 0.0
C268 C 0.78133 0.66034 0.25873 0.0
C269 C 0.78386 0.61321 0.232 0.0
C270 C 0.79951 0.6902 0.26945 0.0
C271 C 0.83394 0.7106 0.26307 0.0
C272 C 0.79861 0.64976 0.24179 0.0
C273 C 0.84881 0.70127 0.24556 0.0
C274 C 0.80994 0.58931 0.22115 0.0
C275 C 0.73287 0.5622 0.2302 0.0
N276 N 0.83158 0.67075 0.23563 0.0
N277 N 0.74589 0.5993 0.23571 0.0
H278 H 0.56134 0.28979 0.79745 0.0
H279 H 0.65146 0.09662 0.75532 0.0
H280 H 0.52273 0.17144 0.81611 0.0
H281 H 0.73109 0.19852 0.76486 0.0
H282 H 0.60348 0.12467 0.77744 0.0
H283 H 0.62478 0.25958 0.78637 0.0
C284 C 0.56688 0.25766 0.79976 0.0
C285 C 0.53676 0.23293 0.80757 0.0
C286 C 0.63169 0.14065 0.77492 0.0
C287 C 0.60828 0.19817 0.79439 0.0
C288 C 0.65882 0.12493 0.76215 0.0
C289 C 0.69492 0.14564 0.75815 0.0
C290 C 0.64009 0.17801 0.78336 0.0
C291 C 0.70338 0.18186 0.76755 0.0
C292 C 0.603 0.24048 0.79341 0.0
C293 C 0.54523 0.19152 0.81018 0.0
N294 N 0.67563 0.19749 0.77948 0.0
N295 N 0.57978 0.17516 0.80311 0.0
H296 H 0.18922 0.03347 0.06725 0.0
H297 H 0.20548 0.18565 0.98577 0.0
H298 H 0.29781 0.04623 0.03472 0.0
H299 H 0.12835 0.21475 0.0316 0.0
H300 H 0.24015 0.13478 1.00447 0.0
H301 H 0.16653 0.10075 0.05628 0.0
C302 C 0.20876 0.05089 0.05826 0.0
C303 C 0.24499 0.034 0.05157 0.0
C304 C 0.21616 0.15274 1.01062 0.0
C305 C 0.21918 0.11 0.03886 0.0
C306 C 0.19639 0.18169 0.99992 0.0
C307 C 0.16423 0.20427 1.00722 0.0
C308 C 0.2028 0.14532 0.02859 0.0
C309 C 0.15333 0.19798 0.02559 0.0
C310 C 0.19578 0.08913 0.05196 0.0
C311 C 0.26919 0.05774 0.0399 0.0
N312 N 0.17205 0.16836 0.0356 0.0
N313 N 0.25553 0.0941 0.03367 0.0
H314 H 0.17765 0.80216 0.04333 0.0
H315 H 0.02535 0.81705 0.9624 0.0
H316 H 0.21153 0.87285 0.99598 0.0
H317 H 0.04141 0.70636 0.99351 0.0
H318 H 0.09204 0.84059 0.97351 0.0
H319 H 0.12479 0.76903 0.02524 0.0
C320 C 0.17419 0.81025 0.02902 0.0
C321 C 0.19886 0.84001 0.02106 0.0
C322 C 0.08116 0.81077 0.9775 0.0
C323 C 0.1379 0.80321 1.00042 0.0
C324 C 0.04327 0.79733 0.97114 0.0
C325 C 0.02748 0.76014 0.97738 0.0
C326 C 0.10271 0.78693 0.99023 0.0
C327 C 0.05194 0.73571 0.9887 0.0
C328 C 0.14417 0.79134 0.01869 0.0
C329 C 0.19316 0.84967 1.0025 0.0
N330 N 0.08788 0.74986 0.99504 0.0
N331 N 0.16261 0.83186 0.99282 0.0
H332 H 0.87393 0.78239 0.03442 0.0
H333 H 0.69985 0.95124 0.03788 0.0
H334 H 0.78987 0.80893 0.99075 0.0
H335 H 0.81451 0.96847 0.06539 0.0
H336 H 0.72145 0.88334 0.02874 0.0
H337 H 0.84163 0.83603 0.05307 0.0
C338 C 0.84792 0.79869 0.02901 0.0
C339 C 0.83433 0.79149 0.0111 0.0
C340 C 0.74161 0.90164 0.03707 0.0
C341 C 0.79748 0.85189 0.03219 0.0
C342 C 0.72935 0.94038 0.04232 0.0
C343 C 0.75586 0.96583 0.05205 0.0
C344 C 0.78074 0.88812 0.04151 0.0
C345 C 0.79336 0.94988 0.05774 0.0
C346 C 0.82983 0.82933 0.03956 0.0
C347 C 0.80113 0.81371 1.00451 0.0
N348 N 0.80513 0.9121 0.05207 0.0
N349 N 0.78385 0.84293 0.01505 0.0
H350 H 0.78423 0.12071 0.992 0.0
H351 H 0.95448 0.29311 0.9899 0.0
H352 H 0.81283 0.2012 0.03674 0.0
H353 H 0.96936 0.18069 0.9601 0.0
H354 H 0.88751 0.27088 0.99971 0.0
H355 H 0.83823 0.15315 0.97367 0.0
C356 C 0.80116 0.1459 0.99775 0.0
C357 C 0.79437 0.15842 0.01586 0.0
C358 C 0.90512 0.25131 0.99079 0.0
C359 C 0.85515 0.19549 0.99512 0.0
C360 C 0.94336 0.26393 0.98516 0.0
C361 C 0.96791 0.23824 0.97451 0.0
C362 C 0.89113 0.21265 0.98581 0.0
C363 C 0.95151 0.20119 0.96846 0.0
C364 C 0.83199 0.16408 0.98737 0.0
C365 C 0.81733 0.19067 0.02284 0.0
N366 N 0.91421 0.18907 0.97447 0.0
N367 N 0.84669 0.20808 0.01246 0.0
H368 H 0.62793 0.78388 0.74246 0.0
H369 H 0.79826 0.95651 0.74161 0.0
H370 H 0.70287 0.81749 0.78842 0.0
H371 H 0.69396 0.96063 0.70586 0.0
H372 H 0.77667 0.88992 0.75254 0.0
H373 H 0.66432 0.83402 0.72345 0.0
C374 C 0.65273 0.80105 0.74838 0.0
C375 C 0.66236 0.79698 0.76702 0.0
C376 C 0.75885 0.90504 0.74208 0.0
C377 C 0.70395 0.85349 0.7455 0.0
C378 C 0.77116 0.94303 0.73579 0.0
C379 C 0.74732 0.96453 0.72311 0.0
C380 C 0.7223 0.88838 0.73574 0.0
C381 C 0.71295 0.94522 0.71579 0.0
C382 C 0.67322 0.82969 0.7376 0.0
C383 C 0.69436 0.82007 0.77414 0.0
N384 N 0.70095 0.9084 0.72248 0.0
N385 N 0.7139 0.84742 0.7634 0.0
H386 H 0.97402 0.32749 0.31418 0.0
H387 H 0.8086 0.29752 0.23925 0.0
H388 H 0.95227 0.21178 0.28809 0.0
H389 H 0.78947 0.38633 0.28178 0.0
H390 H 0.86122 0.26549 0.2579 0.0
H391 H 0.90604 0.35011 0.3043 0.0
C392 C 0.95457 0.30653 0.30685 0.0
C393 C 0.96904 0.26808 0.30159 0.0
C394 C 0.84506 0.29151 0.26338 0.0
C395 C 0.89218 0.29371 0.29012 0.0
C396 C 0.8151 0.30974 0.25272 0.0
C397 C 0.79479 0.34435 0.25908 0.0
C398 C 0.85581 0.30885 0.28028 0.0
C399 C 0.80439 0.35935 0.27654 0.0
C400 C 0.91591 0.31944 0.30118 0.0
C401 C 0.94268 0.24205 0.29207 0.0
N402 N 0.83496 0.34201 0.28644 0.0
N403 N 0.90593 0.25559 0.28636 0.0
H404 H 0.22407 0.07027 0.72084 0.0
H405 H 0.4143 0.15641 0.76745 0.0
H406 H 0.34249 0.01916 0.7105 0.0
H407 H 0.31496 0.23674 0.75413 0.0
H408 H 0.38929 0.10755 0.74501 0.0
H409 H 0.25603 0.13398 0.73035 0.0
C410 C 0.25681 0.07302 0.71999 0.0
C411 C 0.2808 0.03941 0.71508 0.0
C412 C 0.37326 0.13611 0.7467 0.0
C413 C 0.31748 0.11151 0.7265 0.0
C414 C 0.3873 0.1638 0.75962 0.0
C415 C 0.36624 0.20022 0.76273 0.0
C416 C 0.33713 0.1443 0.7372 0.0
C417 C 0.33179 0.20876 0.75213 0.0
C418 C 0.27502 0.10934 0.72545 0.0
C419 C 0.32299 0.0444 0.71422 0.0
N420 N 0.31764 0.18046 0.74008 0.0
N421 N 0.34011 0.07944 0.7204 0.0
H422 H 0.04094 0.79758 0.28157 0.0
H423 H 0.21152 0.62571 0.27888 0.0
H424 H 0.02508 0.68516 0.31137 0.0
H425 H 0.17615 0.69959 0.23271 0.0
H426 H 0.15775 0.65838 0.29729 0.0
H427 H 0.10676 0.77363 0.27092 0.0
C428 C 0.05164 0.76808 0.28617 0.0
C429 C 0.02705 0.74287 0.29703 0.0
C430 C 0.16237 0.66772 0.28322 0.0
C431 C 0.10255 0.71545 0.28484 0.0
C432 C 0.19303 0.64942 0.27278 0.0
C433 C 0.19799 0.66008 0.25429 0.0
C434 C 0.13762 0.69754 0.27515 0.0
C435 C 0.1731 0.69048 0.2469 0.0
C436 C 0.0892 0.75449 0.28005 0.0
C437 C 0.04295 0.70534 0.30287 0.0
N438 N 0.14405 0.70823 0.25736 0.0
N439 N 0.07963 0.69235 0.29643 0.0
H440 H 0.77174 0.56006 0.54692 0.0
H441 H 0.58302 0.64543 0.49756 0.0
H442 H 0.65333 0.50781 0.55577 0.0
H443 H 0.67805 0.72776 0.51409 0.0
H444 H 0.60879 0.59487 0.51914 0.0
H445 H 0.73951 0.62295 0.53623 0.0
C446 C 0.73891 0.56234 0.54713 0.0
C447 C 0.71507 0.52869 0.5521 0.0
C448 C 0.62373 0.62417 0.51827 0.0
C449 C 0.67819 0.59983 0.53934 0.0
C450 C 0.60932 0.65286 0.50583 0.0
C451 C 0.62883 0.69053 0.50391 0.0
C452 C 0.65867 0.63266 0.52854 0.0
C453 C 0.66237 0.69891 0.51513 0.0
C454 C 0.72058 0.59819 0.54101 0.0
C455 C 0.67274 0.53309 0.55208 0.0
N456 N 0.67686 0.66977 0.52673 0.0
N457 N 0.65559 0.56767 0.5453 0.0
H458 H 0.7192 0.38143 0.48848 0.0
H459 H 0.55795 0.20121 0.48162 0.0
H460 H 0.69687 0.29079 0.53001 0.0
H461 H 0.54565 0.31329 0.45127 0.0
H462 H 0.62489 0.22285 0.49192 0.0
H463 H 0.67087 0.34631 0.4682 0.0
C464 C 0.70502 0.3535 0.4931 0.0
C465 C 0.71159 0.33904 0.51095 0.0
C466 C 0.60795 0.24241 0.48271 0.0
C467 C 0.65699 0.29894 0.48797 0.0
C468 C 0.56979 0.23005 0.47678 0.0
C469 C 0.54594 0.25592 0.4659 0.0
C470 C 0.6223 0.28113 0.4779 0.0
C471 C 0.56301 0.29263 0.45979 0.0
C472 C 0.67737 0.33371 0.4816 0.0
C473 C 0.69229 0.30306 0.51639 0.0
N474 N 0.59996 0.30463 0.46621 0.0
N475 N 0.6657 0.28439 0.50499 0.0
H476 H 0.34611 0.49441 0.55597 0.0
H477 H 0.31877 0.27095 0.51406 0.0
H478 H 0.22857 0.44163 0.54545 0.0
H479 H 0.41555 0.35342 0.49982 0.0
H480 H 0.29146 0.32288 0.53517 0.0
H481 H 0.37805 0.43075 0.54578 0.0
C482 C 0.32704 0.46894 0.55215 0.0
C483 C 0.28475 0.47329 0.55131 0.0
C484 C 0.31903 0.32913 0.52759 0.0
C485 C 0.32085 0.40093 0.53964 0.0
C486 C 0.33451 0.29968 0.5156 0.0
C487 C 0.36894 0.30838 0.50502 0.0
C488 C 0.33895 0.36678 0.5293 0.0
C489 C 0.38845 0.3459 0.50751 0.0
C490 C 0.34523 0.43284 0.54619 0.0
C491 C 0.26137 0.43951 0.54608 0.0
N492 N 0.37318 0.37373 0.51937 0.0
N493 N 0.27973 0.40482 0.54023 0.0
H494 H 0.44101 0.79953 0.47911 0.0
H495 H 0.28051 0.61881 0.48679 0.0
H496 H 0.45439 0.68648 0.44972 0.0
H497 H 0.3019 0.71081 0.52771 0.0
H498 H 0.32889 0.65355 0.46638 0.0
H499 H 0.37392 0.77799 0.48927 0.0
C500 C 0.42936 0.7705 0.47444 0.0
C501 C 0.45355 0.74434 0.46388 0.0
C502 C 0.32217 0.66653 0.47966 0.0
C503 C 0.37705 0.71924 0.47573 0.0
C504 C 0.29448 0.64695 0.49124 0.0
C505 C 0.28764 0.66192 0.50897 0.0
C506 C 0.3423 0.70159 0.48583 0.0
C507 C 0.3067 0.69815 0.5142 0.0
C508 C 0.39113 0.7582 0.48029 0.0
C509 C 0.43675 0.70738 0.45798 0.0
N510 N 0.33331 0.71661 0.50273 0.0
N511 N 0.39971 0.69543 0.46433 0.0
H512 H 0.32723 0.18645 0.41995 0.0
H513 H 0.16899 0.31767 0.36132 0.0
H514 H 0.3381 0.31559 0.4102 0.0
H515 H 0.17939 0.18751 0.35469 0.0
H516 H 0.22519 0.31596 0.38298 0.0
H517 H 0.26862 0.18479 0.39906 0.0
C518 C 0.3175 0.21436 0.41336 0.0
C519 C 0.33775 0.25121 0.41681 0.0
C520 C 0.21514 0.28769 0.37687 0.0
C521 C 0.27039 0.2496 0.39324 0.0
C522 C 0.18277 0.28858 0.36456 0.0
C523 C 0.16942 0.25268 0.35607 0.0
C524 C 0.23438 0.2506 0.38093 0.0
C525 C 0.18869 0.21594 0.36088 0.0
C526 C 0.28404 0.21337 0.40147 0.0
C527 C 0.32367 0.28645 0.40793 0.0
N528 N 0.22027 0.21582 0.37297 0.0
N529 N 0.29082 0.28479 0.3967 0.0
H530 H 0.31911 0.67452 0.60734 0.0
H531 H 0.18558 0.82814 0.66765 0.0
H532 H 0.18866 0.68128 0.6023 0.0
H533 H 0.31612 0.83275 0.66275 0.0
H534 H 0.18451 0.77226 0.64527 0.0
H535 H 0.317 0.72895 0.62984 0.0
C536 C 0.28989 0.68721 0.61107 0.0
C537 C 0.25401 0.67327 0.60283 0.0
C538 C 0.21329 0.78573 0.64906 0.0
C539 C 0.2514 0.73636 0.62867 0.0
C540 C 0.21393 0.8177 0.66178 0.0
C541 C 0.251 0.83524 0.66711 0.0
C542 C 0.25001 0.77104 0.64177 0.0
C543 C 0.2868 0.8203 0.6591 0.0
C544 C 0.28873 0.71857 0.62389 0.0
C545 C 0.21708 0.69105 0.6083 0.0
N546 N 0.28538 0.78908 0.64696 0.0
N547 N 0.21671 0.72178 0.62085 0.0
H548 H 0.67168 0.81596 0.41888 0.0
H549 H 0.83147 0.68879 0.35943 0.0
H550 H 0.66327 0.68674 0.409 0.0
H551 H 0.81805 0.81878 0.35305 0.0
H552 H 0.77586 0.68903 0.38141 0.0
H553 H 0.73001 0.81904 0.39788 0.0
C554 C 0.68192 0.78832 0.41225 0.0
C555 C 0.66241 0.75104 0.41568 0.0
C556 C 0.78513 0.71758 0.37528 0.0
C557 C 0.72944 0.75427 0.39197 0.0
C558 C 0.81716 0.71754 0.36279 0.0
C559 C 0.82947 0.75382 0.35428 0.0
C560 C 0.7652 0.75419 0.3795 0.0
C561 C 0.80956 0.79008 0.35925 0.0
C562 C 0.7152 0.79011 0.40029 0.0
C563 C 0.67712 0.71619 0.40674 0.0
N564 N 0.77833 0.78936 0.37152 0.0
N565 N 0.70978 0.71863 0.39544 0.0
H566 H 0.81225 0.18094 0.67277 0.0
H567 H 0.67889 0.32462 0.60772 0.0
H568 H 0.68502 0.16246 0.6613 0.0
H569 H 0.80991 0.3248 0.60583 0.0
H570 H 0.68125 0.27012 0.63029 0.0
H571 H 0.81284 0.23727 0.65057 0.0
C572 C 0.78455 0.18849 0.66552 0.0
C573 C 0.74853 0.16684 0.66891 0.0
C574 C 0.70956 0.28207 0.625 0.0
C575 C 0.74888 0.23158 0.64379 0.0
C576 C 0.70826 0.31348 0.61217 0.0
C577 C 0.74427 0.32935 0.60478 0.0
C578 C 0.74716 0.2663 0.63069 0.0
C579 C 0.78138 0.31348 0.61114 0.0
C580 C 0.78491 0.22068 0.65289 0.0
C581 C 0.71353 0.17811 0.65915 0.0
N582 N 0.78189 0.28276 0.62372 0.0
N583 N 0.71456 0.20974 0.64716 0.0
H584 H 0.15893 0.18677 0.90976 0.0
H585 H 0.32078 0.31605 0.85231 0.0
H586 H 0.17625 0.31542 0.91881 0.0
H587 H 0.32315 0.18522 0.85776 0.0
H588 H 0.26322 0.31844 0.87376 0.0
H589 H 0.21314 0.18792 0.88711 0.0
C590 C 0.17381 0.21544 0.90686 0.0
C591 C 0.16303 0.25103 0.91631 0.0
C592 C 0.27651 0.28929 0.87026 0.0
C593 C 0.22574 0.25245 0.89033 0.0
C594 C 0.30935 0.28789 0.85805 0.0
C595 C 0.32696 0.25037 0.85326 0.0
C596 C 0.26085 0.25288 0.8775 0.0
C597 C 0.31078 0.21486 0.86108 0.0
C598 C 0.20503 0.216 0.89397 0.0
C599 C 0.18357 0.28723 0.91188 0.0
N600 N 0.27864 0.217 0.87269 0.0
N601 N 0.21406 0.28702 0.89923 0.0
H602 H 0.24731 0.63708 0.14548 0.0
H603 H 0.24913 0.8672 0.12902 0.0
H604 H 0.30407 0.71041 0.18714 0.0
H605 H 0.30521 0.79264 0.08756 0.0
H606 H 0.2564 0.81067 0.15097 0.0
H607 H 0.2556 0.69358 0.12361 0.0
C608 C 0.262 0.66486 0.14992 0.0
C609 C 0.2754 0.66907 0.16805 0.0
C610 C 0.26761 0.80707 0.13712 0.0
C611 C 0.2834 0.73387 0.14345 0.0
C612 C 0.26348 0.83915 0.12464 0.0
C613 C 0.27696 0.8346 0.10654 0.0
C614 C 0.28379 0.76979 0.13122 0.0
C615 C 0.29494 0.79748 0.10147 0.0
C616 C 0.26671 0.69692 0.13748 0.0
C617 C 0.29384 0.70585 0.17321 0.0
N618 N 0.29703 0.7661 0.11364 0.0
N619 N 0.29652 0.73725 0.16107 0.0
H620 H 0.81916 0.68082 0.9221 0.0
H621 H 0.66544 0.81706 0.86339 0.0
H622 H 0.83008 0.81081 0.91497 0.0
H623 H 0.6738 0.687 0.85583 0.0
H624 H 0.72114 0.81363 0.88523 0.0
H625 H 0.76289 0.68075 0.89994 0.0
C626 C 0.81008 0.70923 0.91575 0.0
C627 C 0.82945 0.74589 0.92043 0.0
C628 C 0.7108 0.78575 0.87887 0.0
C629 C 0.76468 0.74608 0.89543 0.0
C630 C 0.67869 0.78763 0.86645 0.0
C631 C 0.66485 0.75226 0.85769 0.0
C632 C 0.72932 0.74818 0.88275 0.0
C633 C 0.68346 0.71504 0.86226 0.0
C634 C 0.77789 0.70916 0.90317 0.0
C635 C 0.81621 0.78179 0.91183 0.0
N636 N 0.7148 0.71395 0.87448 0.0
N637 N 0.78456 0.781 0.89991 0.0
H638 H 0.8078 0.16445 0.1125 0.0
H639 H 0.67753 0.3245 0.17035 0.0
H640 H 0.67895 0.1792 0.1038 0.0
H641 H 0.8075 0.33079 0.16325 0.0
H642 H 0.67548 0.26774 0.14841 0.0
H643 H 0.8062 0.22033 0.13435 0.0
C644 C 0.779 0.17915 0.11531 0.0
C645 C 0.74345 0.16707 0.10622 0.0
C646 C 0.70433 0.28182 0.15161 0.0
C647 C 0.74151 0.23169 0.13129 0.0
C648 C 0.70553 0.31426 0.16408 0.0
C649 C 0.74275 0.33253 0.16866 0.0
C650 C 0.74066 0.26722 0.14392 0.0
C651 C 0.77808 0.31783 0.16016 0.0
C652 C 0.77819 0.21134 0.12773 0.0
C653 C 0.70709 0.1875 0.11047 0.0
N654 N 0.77617 0.28597 0.14836 0.0
N655 N 0.70703 0.21886 0.12271 0.0
H656 H 0.94059 0.92058 0.25525 0.0
H657 H 0.05811 0.08646 0.31545 0.0
H658 H 0.93939 0.92058 0.31433 0.0
H659 H 0.04634 0.09224 0.25665 0.0
H660 H 0.01823 0.0235 0.31544 0.0
H661 H 0.97996 0.98331 0.25567 0.0
C662 C 0.94801 0.9342 0.26833 0.0
C663 C 0.93667 0.91532 0.28478 0.0
C664 C 0.02467 0.03842 0.30254 0.0
C665 C 0.98275 0.98676 0.28538 0.0
C666 C 0.04787 0.07406 0.30251 0.0
C667 C 0.05553 0.09465 0.28602 0.0
C668 C 0.00922 0.02328 0.28596 0.0
C669 C 0.0411 0.07746 0.26969 0.0
C670 C 0.9708 0.96989 0.26856 0.0
C671 C 0.94727 0.93428 0.30132 0.0
N672 N 0.01852 0.04295 0.27009 0.0
N673 N 0.9701 0.96879 0.30121 0.0
H674 H 0.91549 0.07478 0.76326 0.0
H675 H 0.08572 0.95407 0.70709 0.0
H676 H 0.91388 0.06382 0.7044 0.0
H677 H 0.09603 0.98422 0.7644 0.0
H678 H 0.02082 0.99065 0.70597 0.0
H679 H 0.98142 0.04093 0.7639 0.0
C680 C 0.92939 0.0659 0.75042 0.0
C681 C 0.90917 0.07212 0.73375 0.0
C682 C 0.03724 0.98906 0.7188 0.0
C683 C 0.98426 0.0323 0.73441 0.0
C684 C 0.07403 0.96778 0.7195 0.0
C685 C 0.0963 0.96608 0.73587 0.0
C686 C 0.0226 0.00852 0.73461 0.0
C687 C 0.07992 0.98479 0.75148 0.0
C688 C 0.96693 0.0463 0.7508 0.0
C689 C 0.92855 0.05986 0.71754 0.0
N690 N 0.04416 0.00527 0.75045 0.0
N691 N 0.96485 0.04007 0.71829 0.0
H692 H 0.05819 0.4152 0.95722 0.0
H693 H 0.94288 0.58171 0.01815 0.0
H694 H 0.05302 0.41308 0.01626 0.0
H695 H 0.94079 0.5826 0.95908 0.0
H696 H 0.983 0.51941 0.01744 0.0
H697 H 0.01805 0.47812 0.95734 0.0
C698 C 0.04938 0.42841 0.97021 0.0
C699 C 0.0589 0.40882 0.98676 0.0
C700 C 0.97353 0.53294 1.0046 0.0
C701 C 0.01226 0.4801 0.98697 0.0
C702 C 0.95028 0.56838 1.00501 0.0
C703 C 0.93847 0.5874 0.98865 0.0
C704 C 0.98541 0.5164 0.98771 0.0
C705 C 0.94905 0.56879 0.97202 0.0
C706 C 0.02604 0.46403 0.97026 0.0
C707 C 0.04629 0.42704 1.00317 0.0
N708 N 0.97227 0.53447 0.97196 0.0
N709 N 0.02345 0.46145 1.00285 0.0
H710 H 0.41646 0.93801 0.06726 0.0
H711 H 0.58424 0.05074 1.00634 0.0
H712 H 0.41333 0.94372 1.00823 0.0
H713 H 0.58121 0.05728 0.06533 0.0
H714 H 0.52192 0.01081 1.00688 0.0
H715 H 0.47926 0.97782 0.06696 0.0
C716 C 0.42943 0.94685 0.05422 0.0
C717 C 0.40957 0.93758 0.03774 0.0
C718 C 0.53459 0.02127 0.01972 0.0
C719 C 0.4808 0.98391 0.03733 0.0
C720 C 0.57003 0.0444 0.01941 0.0
C721 C 0.58796 0.05738 0.03581 0.0
C722 C 0.51704 0.01066 0.03658 0.0
C723 C 0.56828 0.04812 0.05234 0.0
C724 C 0.46499 0.97004 0.05408 0.0
C725 C 0.42754 0.95023 0.02127 0.0
N726 N 0.53406 0.02495 0.05232 0.0
N727 N 0.46195 0.97293 0.0215 0.0
H728 H 0.44267 0.4184 0.819 0.0
H729 H 0.54891 0.59211 0.75894 0.0
H730 H 0.45804 0.41195 0.7604 0.0
H731 H 0.55254 0.59042 0.818 0.0
H732 H 0.51325 0.52717 0.75932 0.0
H733 H 0.47786 0.48416 0.81897 0.0
C734 C 0.45272 0.43118 0.8061 0.0
C735 C 0.44748 0.40968 0.78968 0.0
C736 C 0.52211 0.54075 0.77222 0.0
C737 C 0.48832 0.48428 0.78959 0.0
C738 C 0.54272 0.57774 0.772 0.0
C739 C 0.55376 0.59667 0.78847 0.0
C740 C 0.51201 0.52263 0.78902 0.0
C741 C 0.54483 0.57671 0.80498 0.0
C742 C 0.47323 0.46844 0.80612 0.0
C743 C 0.46152 0.42741 0.77339 0.0
N744 N 0.52412 0.54089 0.80486 0.0
N745 N 0.4814 0.46355 0.77377 0.0
H746 H 0.58626 0.45455 0.26816 0.0
H747 H 0.41599 0.56391 0.2072 0.0
H748 H 0.58165 0.44539 0.20926 0.0
H749 H 0.41177 0.55659 0.26618 0.0
H750 H 0.47964 0.52524 0.20758 0.0
H751 H 0.52328 0.49367 0.26762 0.0
C752 C 0.57159 0.46017 0.25512 0.0
C753 C 0.58921 0.44664 0.23873 0.0
C754 C 0.46493 0.53242 0.22043 0.0
C755 C 0.51754 0.49241 0.23796 0.0
C756 C 0.42888 0.55496 0.22025 0.0
C757 C 0.4085 0.56344 0.23669 0.0
C758 C 0.48072 0.51847 0.23718 0.0
C759 C 0.42638 0.55067 0.25317 0.0
C760 C 0.53577 0.4828 0.2548 0.0
C761 C 0.56895 0.45498 0.22223 0.0
N762 N 0.46131 0.52867 0.25299 0.0
N763 N 0.53436 0.4777 0.22225 0.0
H764 H 0.45006 0.08852 0.51052 0.0
H765 H 0.55686 0.91473 0.45057 0.0
H766 H 0.44651 0.08653 0.45147 0.0
H767 H 0.54537 0.91005 0.5094 0.0
H768 H 0.52067 0.97998 0.45055 0.0
H769 H 0.48613 0.02365 0.51027 0.0
C770 C 0.45625 0.07406 0.49749 0.0
C771 C 0.4452 0.09298 0.48099 0.0
C772 C 0.52638 0.9648 0.46347 0.0
C773 C 0.48754 0.01903 0.48058 0.0
C774 C 0.54751 0.92781 0.46351 0.0
C775 C 0.55414 0.90688 0.48002 0.0
C776 C 0.51197 0.98098 0.48005 0.0
C777 C 0.54088 0.92505 0.49634 0.0
C778 C 0.47716 0.03713 0.49735 0.0
C779 C 0.45419 0.07289 0.46452 0.0
N780 N 0.5203 0.96089 0.49593 0.0
N781 N 0.47521 0.03717 0.46472 0.0
H782 H 0.90628 0.46024 0.5055 0.0
H783 H 0.08724 0.55584 0.56422 0.0
H784 H 0.91325 0.44907 0.56429 0.0
H785 H 0.09217 0.53848 0.5057 0.0
H786 H 0.0204 0.52292 0.56465 0.0
H787 H 0.97264 0.49299 0.50543 0.0
C788 C 0.92205 0.46424 0.51839 0.0
C789 C 0.9043 0.45188 0.53493 0.0
C790 C 0.03611 0.52655 0.55173 0.0
C791 C 0.97997 0.49017 0.53499 0.0
C792 C 0.07398 0.54571 0.55145 0.0
C793 C 0.09523 0.54985 0.5349 0.0
C794 C 0.01937 0.51184 0.53532 0.0
C795 C 0.07689 0.53582 0.51877 0.0
C796 C 0.95988 0.4831 0.51835 0.0
C797 C 0.92604 0.4579 0.55123 0.0
N798 N 0.04008 0.51741 0.51939 0.0
N799 N 0.96267 0.47701 0.55088 0.0
loop_
_geom_bond_atom_site_label_1
_geom_bond_atom_site_label_2
_geom_bond_distance
_geom_bond_site_symmetry_2
_ccdc_geom_bond_type
O0 Cd1 2.223 . S
O0 C8 1.315 . S
Cd1 O0 2.223 . S
Cd1 O4 2.297 . S
Cd1 O5 2.439 . S
Cd1 O11 2.240 . S
Cd2 O3 2.240 . S
Cd2 O10 2.223 . S
Cd2 O12 2.297 . S
Cd2 O13 2.439 . S
O3 Cd2 2.240 . S
O3 C8 1.279 . S
O4 Cd1 2.297 . S
O4 C6 1.247 . S
O5 Cd1 2.439 . S
O5 C6 1.208 . S
C6 O4 1.247 . S
C6 O5 1.208 . S
C7 O12 1.247 . S
C7 O13 1.208 . S
C8 O0 1.315 . S
C8 O3 1.279 . S
C9 O10 1.315 . S
C9 O11 1.279 . S
O10 Cd2 2.223 . S
O10 C9 1.315 . S
O11 Cd1 2.240 . S
O11 C9 1.279 . S
O12 Cd2 2.297 . S
O12 C7 1.247 . S
O13 Cd2 2.439 . S
O13 C7 1.208 . S
O14 Cd15 2.223 . S
O14 C22 1.315 . S
Cd15 O14 2.223 . S
Cd15 O18 2.297 . S
Cd15 O19 2.439 . S
Cd15 O25 2.240 . S
Cd16 O17 2.240 . S
Cd16 O24 2.223 . S
Cd16 O26 2.297 . S
Cd16 O27 2.439 . S
O17 Cd16 2.240 . S
O17 C22 1.279 . S
O18 Cd15 2.297 . S
O18 C20 1.247 . S
O19 Cd15 2.439 . S
O19 C20 1.208 . S
C20 O18 1.247 . S
C20 O19 1.208 . S
C21 O26 1.247 . S
C21 O27 1.208 . S
C22 O14 1.315 . S
C22 O17 1.279 . S
C23 O24 1.315 . S
C23 O25 1.279 . S
O24 Cd16 2.223 . S
O24 C23 1.315 . S
O25 Cd15 2.240 . S
O25 C23 1.279 . S
O26 Cd16 2.297 . S
O26 C21 1.247 . S
O27 Cd16 2.439 . S
O27 C21 1.208 . S
O28 Cd29 2.223 . S
O28 C36 1.315 . S
Cd29 O28 2.223 . S
Cd29 O32 2.297 . S
Cd29 O33 2.439 . S
Cd29 O39 2.240 . S
Cd30 O31 2.240 . S
Cd30 O38 2.223 . S
Cd30 O40 2.297 . S
Cd30 O41 2.439 . S
O31 Cd30 2.240 . S
O31 C36 1.279 . S
O32 Cd29 2.297 . S
O32 C34 1.247 . S
O33 Cd29 2.439 . S
O33 C34 1.208 . S
C34 O32 1.247 . S
C34 O33 1.208 . S
C35 O40 1.247 . S
C35 O41 1.208 . S
C36 O28 1.315 . S
C36 O31 1.279 . S
C37 O38 1.315 . S
C37 O39 1.279 . S
O38 Cd30 2.223 . S
O38 C37 1.315 . S
O39 Cd29 2.240 . S
O39 C37 1.279 . S
O40 Cd30 2.297 . S
O40 C35 1.247 . S
O41 Cd30 2.439 . S
O41 C35 1.208 . S
O42 Cd43 2.223 . S
O42 C50 1.315 . S
Cd43 O42 2.223 . S
Cd43 O46 2.297 . S
Cd43 O47 2.439 . S
Cd43 O53 2.240 . S
Cd44 O45 2.240 . S
Cd44 O52 2.223 . S
Cd44 O54 2.297 . S
Cd44 O55 2.439 . S
O45 Cd44 2.240 . S
O45 C50 1.279 . S
O46 Cd43 2.297 . S
O46 C48 1.247 . S
O47 Cd43 2.439 . S
O47 C48 1.208 . S
C48 O46 1.247 . S
C48 O47 1.208 . S
C49 O54 1.247 . S
C49 O55 1.208 . S
C50 O42 1.315 . S
C50 O45 1.279 . S
C51 O52 1.315 . S
C51 O53 1.279 . S
O52 Cd44 2.223 . S
O52 C51 1.315 . S
O53 Cd43 2.240 . S
O53 C51 1.279 . S
O54 Cd44 2.297 . S
O54 C49 1.247 . S
O55 Cd44 2.439 . S
O55 C49 1.208 . S
O56 Cd57 2.223 . S
O56 C64 1.315 . S
Cd57 O56 2.223 . S
Cd57 O60 2.297 . S
Cd57 O61 2.439 . S
Cd57 O67 2.240 . S
Cd58 O59 2.240 . S
Cd58 O66 2.223 . S
Cd58 O68 2.297 . S
Cd58 O69 2.439 . S
O59 Cd58 2.240 . S
O59 C64 1.279 . S
O60 Cd57 2.297 . S
O60 C62 1.247 . S
O61 Cd57 2.439 . S
O61 C62 1.208 . S
C62 O60 1.247 . S
C62 O61 1.208 . S
C63 O68 1.247 . S
C63 O69 1.208 . S
C64 O56 1.315 . S
C64 O59 1.279 . S
C65 O66 1.315 . S
C65 O67 1.279 . S
O66 Cd58 2.223 . S
O66 C65 1.315 . S
O67 Cd57 2.240 . S
O67 C65 1.279 . S
O68 Cd58 2.297 . S
O68 C63 1.247 . S
O69 Cd58 2.439 . S
O69 C63 1.208 . S
O70 Cd71 2.223 . S
O70 C78 1.315 . S
Cd71 O70 2.223 . S
Cd71 O74 2.297 . S
Cd71 O75 2.439 . S
Cd71 O81 2.240 . S
Cd72 O73 2.240 . S
Cd72 O80 2.223 . S
Cd72 O82 2.297 . S
Cd72 O83 2.439 . S
O73 Cd72 2.240 . S
O73 C78 1.279 . S
O74 Cd71 2.297 . S
O74 C76 1.247 . S
O75 Cd71 2.439 . S
O75 C76 1.208 . S
C76 O74 1.247 . S
C76 O75 1.208 . S
C77 O82 1.247 . S
C77 O83 1.208 . S
C78 O70 1.315 . S
C78 O73 1.279 . S
C79 O80 1.315 . S
C79 O81 1.279 . S
O80 Cd72 2.223 . S
O80 C79 1.315 . S
O81 Cd71 2.240 . S
O81 C79 1.279 . S
O82 Cd72 2.297 . S
O82 C77 1.247 . S
O83 Cd72 2.439 . S
O83 C77 1.208 . S
O84 Cd85 2.223 . S
O84 C92 1.315 . S
Cd85 O84 2.223 . S
Cd85 O88 2.297 . S
Cd85 O89 2.439 . S
Cd85 O95 2.240 . S
Cd86 O87 2.240 . S
Cd86 O94 2.223 . S
Cd86 O96 2.297 . S
Cd86 O97 2.439 . S
O87 Cd86 2.240 . S
O87 C92 1.279 . S
O88 Cd85 2.297 . S
O88 C90 1.247 . S
O89 Cd85 2.439 . S
O89 C90 1.208 . S
C90 O88 1.247 . S
C90 O89 1.208 . S
C91 O96 1.247 . S
C91 O97 1.208 . S
C92 O84 1.315 . S
C92 O87 1.279 . S
C93 O94 1.315 . S
C93 O95 1.279 . S
O94 Cd86 2.223 . S
O94 C93 1.315 . S
O95 Cd85 2.240 . S
O95 C93 1.279 . S
O96 Cd86 2.297 . S
O96 C91 1.247 . S
O97 Cd86 2.439 . S
O97 C91 1.208 . S
O98 Cd99 2.223 . S
O98 C106 1.315 . S
Cd99 O98 2.223 . S
Cd99 O102 2.297 . S
Cd99 O103 2.439 . S
Cd99 O109 2.240 . S
Cd100 O101 2.240 . S
Cd100 O108 2.223 . S
Cd100 O110 2.297 . S
Cd100 O111 2.439 . S
O101 Cd100 2.240 . S
O101 C106 1.279 . S
O102 Cd99 2.297 . S
O102 C104 1.247 . S
O103 Cd99 2.439 . S
O103 C104 1.208 . S
C104 O102 1.247 . S
C104 O103 1.208 . S
C105 O110 1.247 . S
C105 O111 1.208 . S
C106 O98 1.315 . S
C106 O101 1.279 . S
C107 O108 1.315 . S
C107 O109 1.279 . S
O108 Cd100 2.223 . S
O108 C107 1.315 . S
O109 Cd99 2.240 . S
O109 C107 1.279 . S
O110 Cd100 2.297 . S
O110 C105 1.247 . S
O111 Cd100 2.439 . S
O111 C105 1.208 . S
O112 Cd113 2.223 . S
O112 C120 1.315 . S
Cd113 O112 2.223 . S
Cd113 O116 2.297 . S
Cd113 O117 2.439 . S
Cd113 O123 2.240 . S
Cd114 O115 2.240 . S
Cd114 O122 2.223 . S
Cd114 O124 2.297 . S
Cd114 O125 2.439 . S
O115 Cd114 2.240 . S
O115 C120 1.279 . S
O116 Cd113 2.297 . S
O116 C118 1.247 . S
O117 Cd113 2.439 . S
O117 C118 1.208 . S
C118 O116 1.247 . S
C118 O117 1.208 . S
C119 O124 1.247 . S
C119 O125 1.208 . S
C120 O112 1.315 . S
C120 O115 1.279 . S
C121 O122 1.315 . S
C121 O123 1.279 . S
O122 Cd114 2.223 . S
O122 C121 1.315 . S
O123 Cd113 2.240 . S
O123 C121 1.279 . S
O124 Cd114 2.297 . S
O124 C119 1.247 . S
O125 Cd114 2.439 . S
O125 C119 1.208 . S
O126 Cd127 2.223 . S
O126 C134 1.315 . S
Cd127 O126 2.223 . S
Cd127 O130 2.297 . S
Cd127 O131 2.439 . S
Cd127 O137 2.240 . S
Cd128 O129 2.240 . S
Cd128 O136 2.223 . S
Cd128 O138 2.297 . S
Cd128 O139 2.439 . S
O129 Cd128 2.240 . S
O129 C134 1.279 . S
O130 Cd127 2.297 . S
O130 C132 1.247 . S
O131 Cd127 2.439 . S
O131 C132 1.208 . S
C132 O130 1.247 . S
C132 O131 1.208 . S
C133 O138 1.247 . S
C133 O139 1.208 . S
C134 O126 1.315 . S
C134 O129 1.279 . S
C135 O136 1.315 . S
C135 O137 1.279 . S
O136 Cd128 2.223 . S
O136 C135 1.315 . S
O137 Cd127 2.240 . S
O137 C135 1.279 . S
O138 Cd128 2.297 . S
O138 C133 1.247 . S
O139 Cd128 2.439 . S
O139 C133 1.208 . S
O140 Cd141 2.223 . S
O140 C148 1.315 . S
Cd141 O140 2.223 . S
Cd141 O144 2.297 . S
Cd141 O145 2.439 . S
Cd141 O151 2.240 . S
Cd142 O143 2.240 . S
Cd142 O150 2.223 . S
Cd142 O152 2.297 . S
Cd142 O153 2.439 . S
O143 Cd142 2.240 . S
O143 C148 1.279 . S
O144 Cd141 2.297 . S
O144 C146 1.247 . S
O145 Cd141 2.439 . S
O145 C146 1.208 . S
C146 O144 1.247 . S
C146 O145 1.208 . S
C147 O152 1.247 . S
C147 O153 1.208 . S
C148 O140 1.315 . S
C148 O143 1.279 . S
C149 O150 1.315 . S
C149 O151 1.279 . S
O150 Cd142 2.223 . S
O150 C149 1.315 . S
O151 Cd141 2.240 . S
O151 C149 1.279 . S
O152 Cd142 2.297 . S
O152 C147 1.247 . S
O153 Cd142 2.439 . S
O153 C147 1.208 . S
O154 Cd155 2.223 . S
O154 C162 1.315 . S
Cd155 O154 2.223 . S
Cd155 O158 2.297 . S
Cd155 O159 2.439 . S
Cd155 O165 2.240 . S
Cd156 O157 2.240 . S
Cd156 O164 2.223 . S
Cd156 O166 2.297 . S
Cd156 O167 2.439 . S
O157 Cd156 2.240 . S
O157 C162 1.279 . S
O158 Cd155 2.297 . S
O158 C160 1.247 . S
O159 Cd155 2.439 . S
O159 C160 1.208 . S
C160 O158 1.247 . S
C160 O159 1.208 . S
C161 O166 1.247 . S
C161 O167 1.208 . S
C162 O154 1.315 . S
C162 O157 1.279 . S
C163 O164 1.315 . S
C163 O165 1.279 . S
O164 Cd156 2.223 . S
O164 C163 1.315 . S
O165 Cd155 2.240 . S
O165 C163 1.279 . S
O166 Cd156 2.297 . S
O166 C161 1.247 . S
O167 Cd156 2.439 . S
O167 C161 1.208 . S
O168 Cd169 2.223 . S
O168 C176 1.315 . S
Cd169 O168 2.223 . S
Cd169 O172 2.297 . S
Cd169 O173 2.439 . S
Cd169 O179 2.240 . S
Cd170 O171 2.240 . S
Cd170 O178 2.223 . S
Cd170 O180 2.297 . S
Cd170 O181 2.439 . S
O171 Cd170 2.240 . S
O171 C176 1.279 . S
O172 Cd169 2.297 . S
O172 C174 1.247 . S
O173 Cd169 2.439 . S
O173 C174 1.208 . S
C174 O172 1.247 . S
C174 O173 1.208 . S
C175 O180 1.247 . S
C175 O181 1.208 . S
C176 O168 1.315 . S
C176 O171 1.279 . S
C177 O178 1.315 . S
C177 O179 1.279 . S
O178 Cd170 2.223 . S
O178 C177 1.315 . S
O179 Cd169 2.240 . S
O179 C177 1.279 . S
O180 Cd170 2.297 . S
O180 C175 1.247 . S
O181 Cd170 2.439 . S
O181 C175 1.208 . S
O182 Cd183 2.223 . S
O182 C190 1.315 . S
Cd183 O182 2.223 . S
Cd183 O186 2.297 . S
Cd183 O187 2.439 . S
Cd183 O193 2.240 . S
Cd184 O185 2.240 . S
Cd184 O192 2.223 . S
Cd184 O194 2.297 . S
Cd184 O195 2.439 . S
O185 Cd184 2.240 . S
O185 C190 1.279 . S
O186 Cd183 2.297 . S
O186 C188 1.247 . S
O187 Cd183 2.439 . S
O187 C188 1.208 . S
C188 O186 1.247 . S
C188 O187 1.208 . S
C189 O194 1.247 . S
C189 O195 1.208 . S
C190 O182 1.315 . S
C190 O185 1.279 . S
C191 O192 1.315 . S
C191 O193 1.279 . S
O192 Cd184 2.223 . S
O192 C191 1.315 . S
O193 Cd183 2.240 . S
O193 C191 1.279 . S
O194 Cd184 2.297 . S
O194 C189 1.247 . S
O195 Cd184 2.439 . S
O195 C189 1.208 . S
O196 Cd197 2.223 . S
O196 C204 1.315 . S
Cd197 O196 2.223 . S
Cd197 O200 2.297 . S
Cd197 O201 2.439 . S
Cd197 O207 2.240 . S
Cd198 O199 2.240 . S
Cd198 O206 2.223 . S
Cd198 O208 2.297 . S
Cd198 O209 2.439 . S
O199 Cd198 2.240 . S
O199 C204 1.279 . S
O200 Cd197 2.297 . S
O200 C202 1.247 . S
O201 Cd197 2.439 . S
O201 C202 1.208 . S
C202 O200 1.247 . S
C202 O201 1.208 . S
C203 O208 1.247 . S
C203 O209 1.208 . S
C204 O196 1.315 . S
C204 O199 1.279 . S
C205 O206 1.315 . S
C205 O207 1.279 . S
O206 Cd198 2.223 . S
O206 C205 1.315 . S
O207 Cd197 2.240 . S
O207 C205 1.279 . S
O208 Cd198 2.297 . S
O208 C203 1.247 . S
O209 Cd198 2.439 . S
O209 C203 1.208 . S
O210 Cd211 2.223 . S
O210 C218 1.315 . S
Cd211 O210 2.223 . S
Cd211 O214 2.297 . S
Cd211 O215 2.439 . S
Cd211 O221 2.240 . S
Cd212 O213 2.240 . S
Cd212 O220 2.223 . S
Cd212 O222 2.297 . S
Cd212 O223 2.439 . S
O213 Cd212 2.240 . S
O213 C218 1.279 . S
O214 Cd211 2.297 . S
O214 C216 1.247 . S
O215 Cd211 2.439 . S
O215 C216 1.208 . S
C216 O214 1.247 . S
C216 O215 1.208 . S
C217 O222 1.247 . S
C217 O223 1.208 . S
C218 O210 1.315 . S
C218 O213 1.279 . S
C219 O220 1.315 . S
C219 O221 1.279 . S
O220 Cd212 2.223 . S
O220 C219 1.315 . S
O221 Cd211 2.240 . S
O221 C219 1.279 . S
O222 Cd212 2.297 . S
O222 C217 1.247 . S
O223 Cd212 2.439 . S
O223 C217 1.208 . S
H224 C230 0.930 . S
H225 C234 0.930 . S
H226 C239 0.929 . S
H227 C237 0.929 . S
H228 C232 0.929 . S
H229 C238 0.929 . S
C230 H224 0.930 . S
C230 C231 1.367 . S
C230 C238 1.378 . S
C231 C230 1.367 . S
C231 C239 1.433 . S
C232 H228 0.929 . S
C232 C234 1.378 . S
C232 C236 1.350 . S
C233 C236 1.463 . S
C233 C238 1.350 . S
C233 N241 1.427 . S
C234 H225 0.930 . S
C234 C232 1.378 . S
C234 C235 1.367 . S
C235 C234 1.367 . S
C235 C237 1.433 . S
C236 C232 1.350 . S
C236 C233 1.463 . S
C236 N240 1.427 . S
C237 H227 0.929 . S
C237 C235 1.433 . S
C237 N240 1.384 . S
C238 H229 0.929 . S
C238 C230 1.378 . S
C238 C233 1.350 . S
C239 H226 0.929 . S
C239 C231 1.433 . S
C239 N241 1.384 . S
N240 C236 1.427 . S
N240 C237 1.384 . S
N241 C233 1.427 . S
N241 C239 1.384 . S
H242 C248 0.930 . S
H243 C252 0.930 . S
H244 C257 0.929 . S
H245 C255 0.929 . S
H246 C250 0.929 . S
H247 C256 0.929 . S
C248 H242 0.930 . S
C248 C249 1.367 . S
C248 C256 1.378 . S
C249 C248 1.367 . S
C249 C257 1.433 . S
C250 H246 0.929 . S
C250 C252 1.378 . S
C250 C254 1.350 . S
C251 C254 1.463 . S
C251 C256 1.350 . S
C251 N259 1.427 . S
C252 H243 0.930 . S
C252 C250 1.378 . S
C252 C253 1.367 . S
C253 C252 1.367 . S
C253 C255 1.433 . S
C254 C250 1.350 . S
C254 C251 1.463 . S
C254 N258 1.427 . S
C255 H245 0.929 . S
C255 C253 1.433 . S
C255 N258 1.384 . S
C256 H247 0.929 . S
C256 C248 1.378 . S
C256 C251 1.350 . S
C257 H244 0.929 . S
C257 C249 1.433 . S
C257 N259 1.384 . S
N258 C254 1.427 . S
N258 C255 1.384 . S
N259 C251 1.427 . S
N259 C257 1.384 . S
H260 C266 0.930 . S
H261 C270 0.930 . S
H262 C275 0.929 . S
H263 C273 0.929 . S
H264 C268 0.929 . S
H265 C274 0.929 . S
C266 H260 0.930 . S
C266 C267 1.367 . S
C266 C274 1.378 . S
C267 C266 1.367 . S
C267 C275 1.433 . S
C268 H264 0.929 . S
C268 C270 1.378 . S
C268 C272 1.350 . S
C269 C272 1.463 . S
C269 C274 1.350 . S
C269 N277 1.427 . S
C270 H261 0.930 . S
C270 C268 1.378 . S
C270 C271 1.367 . S
C271 C270 1.367 . S
C271 C273 1.433 . S
C272 C268 1.350 . S
C272 C269 1.463 . S
C272 N276 1.427 . S
C273 H263 0.929 . S
C273 C271 1.433 . S
C273 N276 1.384 . S
C274 H265 0.929 . S
C274 C266 1.378 . S
C274 C269 1.350 . S
C275 H262 0.929 . S
C275 C267 1.433 . S
C275 N277 1.384 . S
N276 C272 1.427 . S
N276 C273 1.384 . S
N277 C269 1.427 . S
N277 C275 1.384 . S
H278 C284 0.930 . S
H279 C288 0.930 . S
H280 C293 0.929 . S
H281 C291 0.929 . S
H282 C286 0.929 . S
H283 C292 0.929 . S
C284 H278 0.930 . S
C284 C285 1.367 . S
C284 C292 1.378 . S
C285 C284 1.367 . S
C285 C293 1.433 . S
C286 H282 0.929 . S
C286 C288 1.378 . S
C286 C290 1.350 . S
C287 C290 1.463 . S
C287 C292 1.350 . S
C287 N295 1.427 . S
C288 H279 0.930 . S
C288 C286 1.378 . S
C288 C289 1.367 . S
C289 C288 1.367 . S
C289 C291 1.433 . S
C290 C286 1.350 . S
C290 C287 1.463 . S
C290 N294 1.427 . S
C291 H281 0.929 . S
C291 C289 1.433 . S
C291 N294 1.384 . S
C292 H283 0.929 . S
C292 C284 1.378 . S
C292 C287 1.350 . S
C293 H280 0.929 . S
C293 C285 1.433 . S
C293 N295 1.384 . S
N294 C290 1.427 . S
N294 C291 1.384 . S
N295 C287 1.427 . S
N295 C293 1.384 . S
H296 C302 0.930 . S
H297 C306 0.930 . S
H298 C311 0.929 1_566 S
H299 C309 0.929 . S
H300 C304 0.929 . S
H301 C310 0.929 . S
C302 H296 0.930 . S
C302 C303 1.367 . S
C302 C310 1.378 . S
C303 C302 1.367 . S
C303 C311 1.433 . S
C304 H300 0.929 . S
C304 C306 1.378 . S
C304 C308 1.348 1_556 S
C305 C308 1.463 . S
C305 C310 1.350 . S
C305 N313 1.427 1_554 S
C306 H297 0.930 . S
C306 C304 1.378 . S
C306 C307 1.367 . S
C307 C306 1.367 . S
C307 C309 1.433 1_556 S
C308 C304 1.348 1_554 S
C308 C305 1.463 . S
C308 N312 1.429 . S
C309 H299 0.929 . S
C309 C307 1.433 1_554 S
C309 N312 1.384 . S
C310 H301 0.929 . S
C310 C302 1.378 . S
C310 C305 1.350 . S
C311 H298 0.929 1_544 S
C311 C303 1.433 . S
C311 N313 1.384 1_554 S
N312 C308 1.429 . S
N312 C309 1.384 . S
N313 C305 1.427 1_556 S
N313 C311 1.384 1_556 S
H314 C320 0.930 . S
H315 C324 0.930 . S
H316 C329 0.929 . S
H317 C327 0.929 1_654 S
H318 C322 0.929 . S
H319 C328 0.929 . S
C320 H314 0.930 . S
C320 C321 1.367 . S
C320 C328 1.378 . S
C321 C320 1.367 . S
C321 C329 1.433 1_554 S
C322 H318 0.929 . S
C322 C324 1.378 . S
C322 C326 1.350 . S
C323 C326 1.463 . S
C323 C328 1.349 1_556 S
C323 N331 1.428 . S
C324 H315 0.930 . S
C324 C322 1.378 . S
C324 C325 1.367 . S
C325 C324 1.367 . S
C325 C327 1.433 . S
C326 C322 1.350 . S
C326 C323 1.463 . S
C326 N330 1.427 1_556 S
C327 H317 0.929 1_456 S
C327 C325 1.433 . S
C327 N330 1.384 1_556 S
C328 H319 0.929 . S
C328 C320 1.378 . S
C328 C323 1.349 1_554 S
C329 H316 0.929 . S
C329 C321 1.433 1_556 S
C329 N331 1.384 . S
N330 C326 1.427 1_554 S
N330 C327 1.384 1_554 S
N331 C323 1.428 . S
N331 C329 1.384 . S
H332 C338 0.930 . S
H333 C342 0.930 1_556 S
H334 C347 0.929 . S
H335 C345 0.929 . S
H336 C340 0.929 . S
H337 C346 0.929 . S
C338 H332 0.930 . S
C338 C339 1.367 1_554 S
C338 C346 1.378 . S
C339 C338 1.367 1_556 S
C339 C347 1.433 . S
C340 H336 0.929 . S
C340 C342 1.378 1_556 S
C340 C344 1.350 1_556 S
C341 C344 1.463 . S
C341 C346 1.350 . S
C341 N349 1.427 1_554 S
C342 H333 0.930 1_554 S
C342 C340 1.378 1_554 S
C342 C343 1.367 . S
C343 C342 1.367 . S
C343 C345 1.433 . S
C344 C340 1.350 1_554 S
C344 C341 1.463 . S
C344 N348 1.427 . S
C345 H335 0.929 . S
C345 C343 1.433 . S
C345 N348 1.384 . S
C346 H337 0.929 . S
C346 C338 1.378 . S
C346 C341 1.350 . S
C347 H334 0.929 . S
C347 C339 1.433 . S
C347 N349 1.384 . S
N348 C344 1.427 . S
N348 C345 1.384 . S
N349 C341 1.427 1_556 S
N349 C347 1.384 . S
H350 C356 0.930 . S
H351 C360 0.930 1_454 S
H352 C365 0.929 . S
H353 C363 0.929 . S
H354 C358 0.929 . S
H355 C364 0.929 . S
C356 H350 0.930 . S
C356 C357 1.367 1_556 S
C356 C364 1.378 . S
C357 C356 1.367 1_554 S
C357 C365 1.433 . S
C358 H354 0.929 . S
C358 C360 1.378 1_554 S
C358 C362 1.350 1_554 S
C359 C362 1.463 . S
C359 C364 1.350 . S
C359 N367 1.427 1_556 S
C360 H351 0.930 1_656 S
C360 C358 1.378 1_556 S
C360 C361 1.367 . S
C361 C360 1.367 . S
C361 C363 1.433 . S
C362 C358 1.350 1_556 S
C362 C359 1.463 . S
C362 N366 1.427 . S
C363 H353 0.929 . S
C363 C361 1.433 . S
C363 N366 1.384 . S
C364 H355 0.929 . S
C364 C356 1.378 . S
C364 C359 1.350 . S
C365 H352 0.929 . S
C365 C357 1.433 . S
C365 N367 1.384 . S
N366 C362 1.427 . S
N366 C363 1.384 . S
N367 C359 1.427 1_554 S
N367 C365 1.384 . S
H368 C374 0.930 . S
H369 C378 0.930 . S
H370 C383 0.929 . S
H371 C381 0.926 1_545 S
H372 C376 0.929 . S
H373 C382 0.929 . S
C374 H368 0.930 . S
C374 C375 1.367 . S
C374 C382 1.378 . S
C375 C374 1.367 . S
C375 C383 1.433 . S
C376 H372 0.929 . S
C376 C378 1.378 . S
C376 C380 1.350 . S
C377 C380 1.463 . S
C377 C382 1.350 . S
C377 N385 1.427 . S
C378 H369 0.930 . S
C378 C376 1.378 . S
C378 C379 1.367 . S
C379 C378 1.367 . S
C379 C381 1.433 . S
C380 C376 1.350 . S
C380 C377 1.463 . S
C380 N384 1.427 . S
C381 H371 0.926 1_565 S
C381 C379 1.433 . S
C381 N384 1.384 . S
C382 H373 0.929 . S
C382 C374 1.378 . S
C382 C377 1.350 . S
C383 H370 0.929 . S
C383 C375 1.433 . S
C383 N385 1.384 . S
N384 C380 1.427 . S
N384 C381 1.384 . S
N385 C377 1.427 . S
N385 C383 1.384 . S
H386 C392 0.930 . S
H387 C396 0.930 . S
H388 C401 0.929 . S
H389 C399 0.929 . S
H390 C394 0.929 . S
H391 C400 0.929 . S
C392 H386 0.930 . S
C392 C393 1.367 . S
C392 C400 1.378 . S
C393 C392 1.367 . S
C393 C401 1.433 . S
C394 H390 0.929 . S
C394 C396 1.378 . S
C394 C398 1.350 . S
C395 C398 1.463 . S
C395 C400 1.350 . S
C395 N403 1.427 . S
C396 H387 0.930 . S
C396 C394 1.378 . S
C396 C397 1.367 . S
C397 C396 1.367 . S
C397 C399 1.433 . S
C398 C394 1.350 . S
C398 C395 1.463 . S
C398 N402 1.427 . S
C399 H389 0.929 . S
C399 C397 1.433 . S
C399 N402 1.384 . S
C400 H391 0.929 . S
C400 C392 1.378 . S
C400 C395 1.350 . S
C401 H388 0.929 . S
C401 C393 1.433 . S
C401 N403 1.384 . S
N402 C398 1.427 . S
N402 C399 1.384 . S
N403 C395 1.427 . S
N403 C401 1.384 . S
H404 C410 0.930 . S
H405 C414 0.930 . S
H406 C419 0.929 1_565 S
H407 C417 0.929 . S
H408 C412 0.929 . S
H409 C418 0.929 . S
C410 H404 0.930 . S
C410 C411 1.367 . S
C410 C418 1.378 . S
C411 C410 1.367 . S
C411 C419 1.433 . S
C412 H408 0.929 . S
C412 C414 1.378 . S
C412 C416 1.350 . S
C413 C416 1.463 . S
C413 C418 1.350 . S
C413 N421 1.427 . S
C414 H405 0.930 . S
C414 C412 1.378 . S
C414 C415 1.367 . S
C415 C414 1.367 . S
C415 C417 1.433 . S
C416 C412 1.350 . S
C416 C413 1.463 . S
C416 N420 1.427 . S
C417 H407 0.929 . S
C417 C415 1.433 . S
C417 N420 1.384 . S
C418 H409 0.929 . S
C418 C410 1.378 . S
C418 C413 1.350 . S
C419 H406 0.929 1_545 S
C419 C411 1.433 . S
C419 N421 1.384 . S
N420 C416 1.427 . S
N420 C417 1.384 . S
N421 C413 1.427 . S
N421 C419 1.384 . S
H422 C428 0.930 . S
H423 C432 0.930 . S
H424 C437 0.929 . S
H425 C435 0.929 . S
H426 C430 0.929 . S
H427 C436 0.929 . S
C428 H422 0.930 . S
C428 C429 1.367 . S
C428 C436 1.378 . S
C429 C428 1.367 . S
C429 C437 1.433 . S
C430 H426 0.929 . S
C430 C432 1.378 . S
C430 C434 1.350 . S
C431 C434 1.463 . S
C431 C436 1.350 . S
C431 N439 1.427 . S
C432 H423 0.930 . S
C432 C430 1.378 . S
C432 C433 1.367 . S
C433 C432 1.367 . S
C433 C435 1.433 . S
C434 C430 1.350 . S
C434 C431 1.463 . S
C434 N438 1.427 . S
C435 H425 0.929 . S
C435 C433 1.433 . S
C435 N438 1.384 . S
C436 H427 0.929 . S
C436 C428 1.378 . S
C436 C431 1.350 . S
C437 H424 0.929 . S
C437 C429 1.433 . S
C437 N439 1.384 . S
N438 C434 1.427 . S
N438 C435 1.384 . S
N439 C431 1.427 . S
N439 C437 1.384 . S
H440 C446 0.930 . S
H441 C450 0.930 . S
H442 C455 0.929 . S
H443 C453 0.929 . S
H444 C448 0.929 . S
H445 C454 0.929 . S
C446 H440 0.930 . S
C446 C447 1.367 . S
C446 C454 1.378 . S
C447 C446 1.367 . S
C447 C455 1.433 . S
C448 H444 0.929 . S
C448 C450 1.378 . S
C448 C452 1.350 . S
C449 C452 1.463 . S
C449 C454 1.350 . S
C449 N457 1.427 . S
C450 H441 0.930 . S
C450 C448 1.378 . S
C450 C451 1.367 . S
C451 C450 1.367 . S
C451 C453 1.433 . S
C452 C448 1.350 . S
C452 C449 1.463 . S
C452 N456 1.427 . S
C453 H443 0.929 . S
C453 C451 1.433 . S
C453 N456 1.384 . S
C454 H445 0.929 . S
C454 C446 1.378 . S
C454 C449 1.350 . S
C455 H442 0.929 . S
C455 C447 1.433 . S
C455 N457 1.384 . S
N456 C452 1.427 . S
N456 C453 1.384 . S
N457 C449 1.427 . S
N457 C455 1.384 . S
H458 C464 0.930 . S
H459 C468 0.930 . S
H460 C473 0.929 . S
H461 C471 0.929 . S
H462 C466 0.929 . S
H463 C472 0.929 . S
C464 H458 0.930 . S
C464 C465 1.367 . S
C464 C472 1.378 . S
C465 C464 1.367 . S
C465 C473 1.433 . S
C466 H462 0.929 . S
C466 C468 1.378 . S
C466 C470 1.350 . S
C467 C470 1.463 . S
C467 C472 1.350 . S
C467 N475 1.427 . S
C468 H459 0.930 . S
C468 C466 1.378 . S
C468 C469 1.367 . S
C469 C468 1.367 . S
C469 C471 1.433 . S
C470 C466 1.350 . S
C470 C467 1.463 . S
C470 N474 1.427 . S
C471 H461 0.929 . S
C471 C469 1.433 . S
C471 N474 1.384 . S
C472 H463 0.929 . S
C472 C464 1.378 . S
C472 C467 1.350 . S
C473 H460 0.929 . S
C473 C465 1.433 . S
C473 N475 1.384 . S
N474 C470 1.427 . S
N474 C471 1.384 . S
N475 C467 1.427 . S
N475 C473 1.384 . S
H476 C482 0.930 . S
H477 C486 0.930 . S
H478 C491 0.929 . S
H479 C489 0.929 . S
H480 C484 0.929 . S
H481 C490 0.929 . S
C482 H476 0.930 . S
C482 C483 1.367 . S
C482 C490 1.378 . S
C483 C482 1.367 . S
C483 C491 1.433 . S
C484 H480 0.929 . S
C484 C486 1.378 . S
C484 C488 1.350 . S
C485 C488 1.463 . S
C485 C490 1.350 . S
C485 N493 1.427 . S
C486 H477 0.930 . S
C486 C484 1.378 . S
C486 C487 1.367 . S
C487 C486 1.367 . S
C487 C489 1.433 . S
C488 C484 1.350 . S
C488 C485 1.463 . S
C488 N492 1.427 . S
C489 H479 0.929 . S
C489 C487 1.433 . S
C489 N492 1.384 . S
C490 H481 0.929 . S
C490 C482 1.378 . S
C490 C485 1.350 . S
C491 H478 0.929 . S
C491 C483 1.433 . S
C491 N493 1.384 . S
N492 C488 1.427 . S
N492 C489 1.384 . S
N493 C485 1.427 . S
N493 C491 1.384 . S
H494 C500 0.930 . S
H495 C504 0.930 . S
H496 C509 0.929 . S
H497 C507 0.929 . S
H498 C502 0.929 . S
H499 C508 0.929 . S
C500 H494 0.930 . S
C500 C501 1.367 . S
C500 C508 1.378 . S
C501 C500 1.367 . S
C501 C509 1.433 . S
C502 H498 0.929 . S
C502 C504 1.378 . S
C502 C506 1.350 . S
C503 C506 1.463 . S
C503 C508 1.350 . S
C503 N511 1.427 . S
C504 H495 0.930 . S
C504 C502 1.378 . S
C504 C505 1.367 . S
C505 C504 1.367 . S
C505 C507 1.433 . S
C506 C502 1.350 . S
C506 C503 1.463 . S
C506 N510 1.427 . S
C507 H497 0.929 . S
C507 C505 1.433 . S
C507 N510 1.384 . S
C508 H499 0.929 . S
C508 C500 1.378 . S
C508 C503 1.350 . S
C509 H496 0.929 . S
C509 C501 1.433 . S
C509 N511 1.384 . S
N510 C506 1.427 . S
N510 C507 1.384 . S
N511 C503 1.427 . S
N511 C509 1.384 . S
H512 C518 0.930 . S
H513 C522 0.930 . S
H514 C527 0.929 . S
H515 C525 0.929 . S
H516 C520 0.929 . S
H517 C526 0.929 . S
C518 H512 0.930 . S
C518 C519 1.367 . S
C518 C526 1.378 . S
C519 C518 1.367 . S
C519 C527 1.433 . S
C520 H516 0.929 . S
C520 C522 1.378 . S
C520 C524 1.350 . S
C521 C524 1.463 . S
C521 C526 1.350 . S
C521 N529 1.427 . S
C522 H513 0.930 . S
C522 C520 1.378 . S
C522 C523 1.367 . S
C523 C522 1.367 . S
C523 C525 1.433 . S
C524 C520 1.350 . S
C524 C521 1.463 . S
C524 N528 1.427 . S
C525 H515 0.929 . S
C525 C523 1.433 . S
C525 N528 1.384 . S
C526 H517 0.929 . S
C526 C518 1.378 . S
C526 C521 1.350 . S
C527 H514 0.929 . S
C527 C519 1.433 . S
C527 N529 1.384 . S
N528 C524 1.427 . S
N528 C525 1.384 . S
N529 C521 1.427 . S
N529 C527 1.384 . S
H530 C536 0.930 . S
H531 C540 0.930 . S
H532 C545 0.929 . S
H533 C543 0.929 . S
H534 C538 0.929 . S
H535 C544 0.929 . S
C536 H530 0.930 . S
C536 C537 1.367 . S
C536 C544 1.378 . S
C537 C536 1.367 . S
C537 C545 1.433 . S
C538 H534 0.929 . S
C538 C540 1.378 . S
C538 C542 1.350 . S
C539 C542 1.463 . S
C539 C544 1.350 . S
C539 N547 1.427 . S
C540 H531 0.930 . S
C540 C538 1.378 . S
C540 C541 1.367 . S
C541 C540 1.367 . S
C541 C543 1.433 . S
C542 C538 1.350 . S
C542 C539 1.463 . S
C542 N546 1.427 . S
C543 H533 0.929 . S
C543 C541 1.433 . S
C543 N546 1.384 . S
C544 H535 0.929 . S
C544 C536 1.378 . S
C544 C539 1.350 . S
C545 H532 0.929 . S
C545 C537 1.433 . S
C545 N547 1.384 . S
N546 C542 1.427 . S
N546 C543 1.384 . S
N547 C539 1.427 . S
N547 C545 1.384 . S
H548 C554 0.930 . S
H549 C558 0.930 . S
H550 C563 0.929 . S
H551 C561 0.929 . S
H552 C556 0.929 . S
H553 C562 0.929 . S
C554 H548 0.930 . S
C554 C555 1.367 . S
C554 C562 1.378 . S
C555 C554 1.367 . S
C555 C563 1.433 . S
C556 H552 0.929 . S
C556 C558 1.378 . S
C556 C560 1.350 . S
C557 C560 1.463 . S
C557 C562 1.350 . S
C557 N565 1.427 . S
C558 H549 0.930 . S
C558 C556 1.378 . S
C558 C559 1.367 . S
C559 C558 1.367 . S
C559 C561 1.433 . S
C560 C556 1.350 . S
C560 C557 1.463 . S
C560 N564 1.427 . S
C561 H551 0.929 . S
C561 C559 1.433 . S
C561 N564 1.384 . S
C562 H553 0.929 . S
C562 C554 1.378 . S
C562 C557 1.350 . S
C563 H550 0.929 . S
C563 C555 1.433 . S
C563 N565 1.384 . S
N564 C560 1.427 . S
N564 C561 1.384 . S
N565 C557 1.427 . S
N565 C563 1.384 . S
H566 C572 0.930 . S
H567 C576 0.930 . S
H568 C581 0.929 . S
H569 C579 0.929 . S
H570 C574 0.929 . S
H571 C580 0.929 . S
C572 H566 0.930 . S
C572 C573 1.367 . S
C572 C580 1.378 . S
C573 C572 1.367 . S
C573 C581 1.433 . S
C574 H570 0.929 . S
C574 C576 1.378 . S
C574 C578 1.350 . S
C575 C578 1.463 . S
C575 C580 1.350 . S
C575 N583 1.427 . S
C576 H567 0.930 . S
C576 C574 1.378 . S
C576 C577 1.367 . S
C577 C576 1.367 . S
C577 C579 1.433 . S
C578 C574 1.350 . S
C578 C575 1.463 . S
C578 N582 1.427 . S
C579 H569 0.929 . S
C579 C577 1.433 . S
C579 N582 1.384 . S
C580 H571 0.929 . S
C580 C572 1.378 . S
C580 C575 1.350 . S
C581 H568 0.929 . S
C581 C573 1.433 . S
C581 N583 1.384 . S
N582 C578 1.427 . S
N582 C579 1.384 . S
N583 C575 1.427 . S
N583 C581 1.384 . S
H584 C590 0.930 . S
H585 C594 0.930 . S
H586 C599 0.929 . S
H587 C597 0.929 . S
H588 C592 0.929 . S
H589 C598 0.929 . S
C590 H584 0.930 . S
C590 C591 1.367 . S
C590 C598 1.378 . S
C591 C590 1.367 . S
C591 C599 1.433 . S
C592 H588 0.929 . S
C592 C594 1.378 . S
C592 C596 1.350 . S
C593 C596 1.463 . S
C593 C598 1.350 . S
C593 N601 1.427 . S
C594 H585 0.930 . S
C594 C592 1.378 . S
C594 C595 1.367 . S
C595 C594 1.367 . S
C595 C597 1.433 . S
C596 C592 1.350 . S
C596 C593 1.463 . S
C596 N600 1.427 . S
C597 H587 0.929 . S
C597 C595 1.433 . S
C597 N600 1.384 . S
C598 H589 0.929 . S
C598 C590 1.378 . S
C598 C593 1.350 . S
C599 H586 0.929 . S
C599 C591 1.433 . S
C599 N601 1.384 . S
N600 C596 1.427 . S
N600 C597 1.384 . S
N601 C593 1.427 . S
N601 C599 1.384 . S
H602 C608 0.930 . S
H603 C612 0.930 . S
H604 C617 0.929 . S
H605 C615 0.929 . S
H606 C610 0.929 . S
H607 C616 0.929 . S
C608 H602 0.930 . S
C608 C609 1.367 . S
C608 C616 1.378 . S
C609 C608 1.367 . S
C609 C617 1.433 . S
C610 H606 0.929 . S
C610 C612 1.378 . S
C610 C614 1.350 . S
C611 C614 1.463 . S
C611 C616 1.350 . S
C611 N619 1.427 . S
C612 H603 0.930 . S
C612 C610 1.378 . S
C612 C613 1.367 . S
C613 C612 1.367 . S
C613 C615 1.433 . S
C614 C610 1.350 . S
C614 C611 1.463 . S
C614 N618 1.427 . S
C615 H605 0.929 . S
C615 C613 1.433 . S
C615 N618 1.384 . S
C616 H607 0.929 . S
C616 C608 1.378 . S
C616 C611 1.350 . S
C617 H604 0.929 . S
C617 C609 1.433 . S
C617 N619 1.384 . S
N618 C614 1.427 . S
N618 C615 1.384 . S
N619 C611 1.427 . S
N619 C617 1.384 . S
H620 C626 0.930 . S
H621 C630 0.930 . S
H622 C635 0.929 . S
H623 C633 0.929 . S
H624 C628 0.929 . S
H625 C634 0.929 . S
C626 H620 0.930 . S
C626 C627 1.367 . S
C626 C634 1.378 . S
C627 C626 1.367 . S
C627 C635 1.433 . S
C628 H624 0.929 . S
C628 C630 1.378 . S
C628 C632 1.350 . S
C629 C632 1.463 . S
C629 C634 1.350 . S
C629 N637 1.427 . S
C630 H621 0.930 . S
C630 C628 1.378 . S
C630 C631 1.367 . S
C631 C630 1.367 . S
C631 C633 1.433 . S
C632 C628 1.350 . S
C632 C629 1.463 . S
C632 N636 1.427 . S
C633 H623 0.929 . S
C633 C631 1.433 . S
C633 N636 1.384 . S
C634 H625 0.929 . S
C634 C626 1.378 . S
C634 C629 1.350 . S
C635 H622 0.929 . S
C635 C627 1.433 . S
C635 N637 1.384 . S
N636 C632 1.427 . S
N636 C633 1.384 . S
N637 C629 1.427 . S
N637 C635 1.384 . S
H638 C644 0.930 . S
H639 C648 0.930 . S
H640 C653 0.929 . S
H641 C651 0.929 . S
H642 C646 0.929 . S
H643 C652 0.929 . S
C644 H638 0.930 . S
C644 C645 1.367 . S
C644 C652 1.378 . S
C645 C644 1.367 . S
C645 C653 1.433 . S
C646 H642 0.929 . S
C646 C648 1.378 . S
C646 C650 1.350 . S
C647 C650 1.463 . S
C647 C652 1.350 . S
C647 N655 1.427 . S
C648 H639 0.930 . S
C648 C646 1.378 . S
C648 C649 1.367 . S
C649 C648 1.367 . S
C649 C651 1.433 . S
C650 C646 1.350 . S
C650 C647 1.463 . S
C650 N654 1.427 . S
C651 H641 0.929 . S
C651 C649 1.433 . S
C651 N654 1.384 . S
C652 H643 0.929 . S
C652 C644 1.378 . S
C652 C647 1.350 . S
C653 H640 0.929 . S
C653 C645 1.433 . S
C653 N655 1.384 . S
N654 C650 1.427 . S
N654 C651 1.384 . S
N655 C647 1.427 . S
N655 C653 1.384 . S
H656 C662 0.930 . S
H657 C666 0.930 . S
H658 C671 0.929 . S
H659 C669 0.929 . S
H660 C664 0.929 . S
H661 C670 0.929 . S
C662 H656 0.930 . S
C662 C663 1.367 . S
C662 C670 1.378 . S
C663 C662 1.367 . S
C663 C671 1.433 . S
C664 H660 0.929 . S
C664 C666 1.378 . S
C664 C668 1.350 . S
C665 C668 1.463 1_665 S
C665 C670 1.350 . S
C665 N673 1.427 . S
C666 H657 0.930 . S
C666 C664 1.378 . S
C666 C667 1.367 . S
C667 C666 1.367 . S
C667 C669 1.433 . S
C668 C664 1.350 . S
C668 C665 1.463 1_445 S
C668 N672 1.427 . S
C669 H659 0.929 . S
C669 C667 1.433 . S
C669 N672 1.384 . S
C670 H661 0.929 . S
C670 C662 1.378 . S
C670 C665 1.350 . S
C671 H658 0.929 . S
C671 C663 1.433 . S
C671 N673 1.384 . S
N672 C668 1.427 . S
N672 C669 1.384 . S
N673 C665 1.427 . S
N673 C671 1.384 . S
H674 C680 0.930 . S
H675 C684 0.930 . S
H676 C689 0.929 . S
H677 C687 0.929 . S
H678 C682 0.929 . S
H679 C688 0.929 . S
C680 H674 0.930 . S
C680 C681 1.367 . S
C680 C688 1.378 . S
C681 C680 1.367 . S
C681 C689 1.433 . S
C682 H678 0.929 . S
C682 C684 1.378 . S
C682 C686 1.350 . S
C683 C686 1.463 1_645 S
C683 C688 1.350 . S
C683 N691 1.427 . S
C684 H675 0.930 . S
C684 C682 1.378 . S
C684 C685 1.367 . S
C685 C684 1.367 . S
C685 C687 1.433 . S
C686 C682 1.350 . S
C686 C683 1.463 1_465 S
C686 N690 1.427 . S
C687 H677 0.929 . S
C687 C685 1.433 . S
C687 N690 1.384 . S
C688 H679 0.929 . S
C688 C680 1.378 . S
C688 C683 1.350 . S
C689 H676 0.929 . S
C689 C681 1.433 . S
C689 N691 1.384 . S
N690 C686 1.427 . S
N690 C687 1.384 . S
N691 C683 1.427 . S
N691 C689 1.384 . S
H692 C698 0.930 1_655 S
H693 C702 0.930 1_455 S
H694 C707 0.929 . S
H695 C705 0.929 . S
H696 C700 0.929 . S
H697 C706 0.929 . S
C698 H692 0.930 1_455 S
C698 C699 1.367 . S
C698 C706 1.378 1_455 S
C699 C698 1.367 . S
C699 C707 1.433 . S
C700 H696 0.929 . S
C700 C702 1.378 1_455 S
C700 C704 1.350 1_455 S
C701 C704 1.463 1_455 S
C701 C706 1.350 1_455 S
C701 N709 1.427 . S
C702 H693 0.930 1_655 S
C702 C700 1.378 1_655 S
C702 C703 1.367 . S
C703 C702 1.367 . S
C703 C705 1.433 . S
C704 C700 1.350 1_655 S
C704 C701 1.463 1_655 S
C704 N708 1.427 . S
C705 H695 0.929 . S
C705 C703 1.433 . S
C705 N708 1.384 . S
C706 H697 0.929 . S
C706 C698 1.378 1_655 S
C706 C701 1.350 1_655 S
C707 H694 0.929 . S
C707 C699 1.433 . S
C707 N709 1.384 . S
N708 C704 1.427 . S
N708 C705 1.384 . S
N709 C701 1.427 . S
N709 C707 1.384 . S
H710 C716 0.930 . S
H711 C720 0.930 . S
H712 C725 0.929 . S
H713 C723 0.929 . S
H714 C718 0.929 . S
H715 C724 0.929 . S
C716 H710 0.930 . S
C716 C717 1.367 . S
C716 C724 1.378 1_565 S
C717 C716 1.367 . S
C717 C725 1.433 . S
C718 H714 0.929 . S
C718 C720 1.378 1_565 S
C718 C722 1.350 1_565 S
C719 C722 1.463 1_565 S
C719 C724 1.350 1_565 S
C719 N727 1.427 . S
C720 H711 0.930 . S
C720 C718 1.378 1_545 S
C720 C721 1.367 . S
C721 C720 1.367 . S
C721 C723 1.433 . S
C722 C718 1.350 1_545 S
C722 C719 1.463 1_545 S
C722 N726 1.427 . S
C723 H713 0.929 . S
C723 C721 1.433 . S
C723 N726 1.384 . S
C724 H715 0.929 . S
C724 C716 1.378 1_545 S
C724 C719 1.350 1_545 S
C725 H712 0.929 . S
C725 C717 1.433 . S
C725 N727 1.384 . S
N726 C722 1.427 . S
N726 C723 1.384 . S
N727 C719 1.427 . S
N727 C725 1.384 . S
H728 C734 0.930 . S
H729 C738 0.930 . S
H730 C743 0.929 . S
H731 C741 0.929 . S
H732 C736 0.929 . S
H733 C742 0.929 . S
C734 H728 0.930 . S
C734 C735 1.367 . S
C734 C742 1.378 . S
C735 C734 1.367 . S
C735 C743 1.433 . S
C736 H732 0.929 . S
C736 C738 1.378 . S
C736 C740 1.350 . S
C737 C740 1.463 . S
C737 C742 1.350 . S
C737 N745 1.427 . S
C738 H729 0.930 . S
C738 C736 1.378 . S
C738 C739 1.367 . S
C739 C738 1.367 . S
C739 C741 1.433 . S
C740 C736 1.350 . S
C740 C737 1.463 . S
C740 N744 1.427 . S
C741 H731 0.929 . S
C741 C739 1.433 . S
C741 N744 1.384 . S
C742 H733 0.929 . S
C742 C734 1.378 . S
C742 C737 1.350 . S
C743 H730 0.929 . S
C743 C735 1.433 . S
C743 N745 1.384 . S
N744 C740 1.427 . S
N744 C741 1.384 . S
N745 C737 1.427 . S
N745 C743 1.384 . S
H746 C752 0.930 . S
H747 C756 0.930 . S
H748 C761 0.929 . S
H749 C759 0.929 . S
H750 C754 0.929 . S
H751 C760 0.929 . S
C752 H746 0.930 . S
C752 C753 1.367 . S
C752 C760 1.378 . S
C753 C752 1.367 . S
C753 C761 1.433 . S
C754 H750 0.929 . S
C754 C756 1.378 . S
C754 C758 1.350 . S
C755 C758 1.463 . S
C755 C760 1.350 . S
C755 N763 1.427 . S
C756 H747 0.930 . S
C756 C754 1.378 . S
C756 C757 1.367 . S
C757 C756 1.367 . S
C757 C759 1.433 . S
C758 C754 1.350 . S
C758 C755 1.463 . S
C758 N762 1.427 . S
C759 H749 0.929 . S
C759 C757 1.433 . S
C759 N762 1.384 . S
C760 H751 0.929 . S
C760 C752 1.378 . S
C760 C755 1.350 . S
C761 H748 0.929 . S
C761 C753 1.433 . S
C761 N763 1.384 . S
N762 C758 1.427 . S
N762 C759 1.384 . S
N763 C755 1.427 . S
N763 C761 1.384 . S
H764 C770 0.930 . S
H765 C774 0.930 . S
H766 C779 0.929 . S
H767 C777 0.929 . S
H768 C772 0.929 . S
H769 C778 0.929 . S
C770 H764 0.930 . S
C770 C771 1.367 . S
C770 C778 1.378 . S
C771 C770 1.367 . S
C771 C779 1.433 . S
C772 H768 0.929 . S
C772 C774 1.378 . S
C772 C776 1.350 . S
C773 C776 1.463 1_545 S
C773 C778 1.350 . S
C773 N781 1.427 . S
C774 H765 0.930 . S
C774 C772 1.378 . S
C774 C775 1.367 . S
C775 C774 1.367 . S
C775 C777 1.433 . S
C776 C772 1.350 . S
C776 C773 1.463 1_565 S
C776 N780 1.427 . S
C777 H767 0.929 . S
C777 C775 1.433 . S
C777 N780 1.384 . S
C778 H769 0.929 . S
C778 C770 1.378 . S
C778 C773 1.350 . S
C779 H766 0.929 . S
C779 C771 1.433 . S
C779 N781 1.384 . S
N780 C776 1.427 . S
N780 C777 1.384 . S
N781 C773 1.427 . S
N781 C779 1.384 . S
H782 C788 0.930 . S
H783 C792 0.930 . S
H784 C797 0.929 . S
H785 C795 0.929 . S
H786 C790 0.929 . S
H787 C796 0.929 . S
C788 H782 0.930 . S
C788 C789 1.367 . S
C788 C796 1.378 . S
C789 C788 1.367 . S
C789 C797 1.433 . S
C790 H786 0.929 . S
C790 C792 1.378 . S
C790 C794 1.350 . S
C791 C794 1.463 1_655 S
C791 C796 1.350 . S
C791 N799 1.427 . S
C792 H783 0.930 . S
C792 C790 1.378 . S
C792 C793 1.367 . S
C793 C792 1.367 . S
C793 C795 1.433 . S
C794 C790 1.350 . S
C794 C791 1.463 1_455 S
C794 N798 1.427 . S
C795 H785 0.929 . S
C795 C793 1.433 . S
C795 N798 1.384 . S
C796 H787 0.929 . S
C796 C788 1.378 . S
C796 C791 1.350 . S
C797 H784 0.929 . S
C797 C789 1.433 . S
C797 N799 1.384 . S
N798 C794 1.427 . S
N798 C795 1.384 . S
N799 C791 1.427 . S
N799 C797 1.384 . S
C231 C8 1.275 . S
C235 C163 1.320 . S
C249 C121 1.324 . S
C253 C22 1.277 . S
C267 C135 1.324 . S
C271 C36 1.279 . S
C285 C149 1.313 . S
C289 C50 1.281 . S
C303 C79 1.321 1_545 S
C307 C64 1.275 . S
C321 C78 1.277 . S
C325 C93 1.323 1_455 S
C339 C92 1.289 . S
C343 C107 1.311 1_565 S
C357 C106 1.292 . S
C361 C65 1.312 1_655 S
C375 C120 1.286 . S
C379 C51 1.311 1_565 S
C393 C9 1.324 1_655 S
C397 C134 1.278 . S
C411 C23 1.313 1_545 S
C415 C148 1.281 . S
C429 C37 1.311 1_455 S
C433 C162 1.288 . S
C447 C191 1.316 . S
C451 C176 1.277 . S
C465 C190 1.293 . S
C469 C205 1.313 . S
C483 C219 1.317 . S
C487 C204 1.294 . S
C501 C177 1.311 . S
C505 C218 1.287 . S
C519 C202 1.481 . S
C523 C6 1.474 . S
C537 C216 1.477 . S
C541 C20 1.480 . S
C555 C174 1.480 . S
C559 C34 1.477 . S
C573 C48 1.480 . S
C577 C188 1.478 . S
C591 C62 1.476 . S
C595 C146 1.481 . S
C609 C160 1.475 . S
C613 C76 1.475 . S
C627 C90 1.480 . S
C631 C118 1.477 . S
C645 C104 1.474 . S
C649 C132 1.476 . S
C663 C35 1.401 . S
C667 C7 1.406 . S
C681 C49 1.400 . S
C685 C21 1.406 . S
C699 C63 1.402 . S
C703 C91 1.399 . S
C717 C77 1.403 . S
C721 C105 1.399 . S
C735 C147 1.404 . S
C739 C119 1.399 . S
C753 C133 1.399 . S
C757 C161 1.404 . S
C771 C203 1.399 . S
C775 C175 1.404 . S
C789 C189 1.399 . S
C793 C217 1.406 . S
