# Generated by pormake.
# Topology uol, (4)-cn, num edge types: 1
# Building blocks:
#     Node 0, Type 0, BuildingBlock: CEKHIL_clean_sbu_0, # of connection points: 4
#     Node 1, Type 0, BuildingBlock: CEKHIL_clean_sbu_0, # of connection points: 4
#     Node 2, Type 0, BuildingBlock: CEKHIL_clean_sbu_0, # of connection points: 4
#     Node 3, Type 0, BuildingBlock: CEKHIL_clean_sbu_0, # of connection points: 4
#     Node 4, Type 0, BuildingBlock: CEKHIL_clean_sbu_0, # of connection points: 4
#     Node 5, Type 0, BuildingBlock: CEKHIL_clean_sbu_0, # of connection points: 4
#     Node 6, Type 0, BuildingBlock: CEKHIL_clean_sbu_0, # of connection points: 4
#     Node 7, Type 0, BuildingBlock: CEKHIL_clean_sbu_0, # of connection points: 4
#     Node 8, Type 0, BuildingBlock: CEKHIL_clean_sbu_0, # of connection points: 4
#     Node 9, Type 0, BuildingBlock: CEKHIL_clean_sbu_0, # of connection points: 4
#     Node 10, Type 0, BuildingBlock: CEKHIL_clean_sbu_0, # of connection points: 4
#     Node 11, Type 0, BuildingBlock: CEKHIL_clean_sbu_0, # of connection points: 4
#     Edge 12, Type (0, 0), BuildingBlock: XUDNAN_clean_linker_2, # of connection points: 2
#     Edge 13, Type (0, 0), BuildingBlock: XUDNAN_clean_linker_2, # of connection points: 2
#     Edge 14, Type (0, 0), BuildingBlock: XUDNAN_clean_linker_2, # of connection points: 2
#     Edge 15, Type (0, 0), BuildingBlock: XUDNAN_clean_linker_2, # of connection points: 2
#     Edge 16, Type (0, 0), BuildingBlock: XUDNAN_clean_linker_2, # of connection points: 2
#     Edge 17, Type (0, 0), BuildingBlock: XUDNAN_clean_linker_2, # of connection points: 2
#     Edge 18, Type (0, 0), BuildingBlock: XUDNAN_clean_linker_2, # of connection points: 2
#     Edge 19, Type (0, 0), BuildingBlock: XUDNAN_clean_linker_2, # of connection points: 2
#     Edge 20, Type (0, 0), BuildingBlock: XUDNAN_clean_linker_2, # of connection points: 2
#     Edge 21, Type (0, 0), BuildingBlock: XUDNAN_clean_linker_2, # of connection points: 2
#     Edge 22, Type (0, 0), BuildingBlock: XUDNAN_clean_linker_2, # of connection points: 2
#     Edge 23, Type (0, 0), BuildingBlock: XUDNAN_clean_linker_2, # of connection points: 2
#     Edge 24, Type (0, 0), BuildingBlock: XUDNAN_clean_linker_2, # of connection points: 2
#     Edge 25, Type (0, 0), BuildingBlock: XUDNAN_clean_linker_2, # of connection points: 2
#     Edge 26, Type (0, 0), BuildingBlock: XUDNAN_clean_linker_2, # of connection points: 2
#     Edge 27, Type (0, 0), BuildingBlock: XUDNAN_clean_linker_2, # of connection points: 2
#     Edge 28, Type (0, 0), BuildingBlock: XUDNAN_clean_linker_2, # of connection points: 2
#     Edge 29, Type (0, 0), BuildingBlock: XUDNAN_clean_linker_2, # of connection points: 2
#     Edge 30, Type (0, 0), BuildingBlock: XUDNAN_clean_linker_2, # of connection points: 2
#     Edge 31, Type (0, 0), BuildingBlock: XUDNAN_clean_linker_2, # of connection points: 2
#     Edge 32, Type (0, 0), BuildingBlock: XUDNAN_clean_linker_2, # of connection points: 2
#     Edge 33, Type (0, 0), BuildingBlock: XUDNAN_clean_linker_2, # of connection points: 2
#     Edge 34, Type (0, 0), BuildingBlock: XUDNAN_clean_linker_2, # of connection points: 2
#     Edge 35, Type (0, 0), BuildingBlock: XUDNAN_clean_linker_2, # of connection points: 2
# Relax obj value: 0.131
# Max RMSD: 0.171
# Mean RMSD: 0.171
data_MOF--net-uol--node1-CEKHIL_clean_sbu_0--edge1-XUDNAN_clean_linker_2
_symmetry_space_group_name_H-M    P1
_symmetry_Int_Tables_number       1
_symmetry_cell_setting            triclinic
loop_
_symmetry_equiv_pos_as_xyz
'x, y, z'
_cell_length_a     32.581195
_cell_length_b     32.581842
_cell_length_c     64.542007
_cell_angle_alpha  89.975162
_cell_angle_beta   90.061412
_cell_angle_gamma 120.05073
loop_
_atom_site_label
_atom_site_type_symbol
_atom_site_fract_x
_atom_site_fract_y
_atom_site_fract_z
_atom_type_partial_charge
Co0 Co 0.16002 0.36607 0.09625 0.0
O1 O 0.13794 0.40367 0.08171 0.0
O2 O 0.18415 0.42666 0.10948 0.0
C3 C 0.18099 0.33941 0.068 0.0
O4 O 0.19153 0.34022 0.11539 0.0
Co5 Co 0.11377 0.25712 0.09169 0.0
O6 O 0.16821 0.26421 0.10832 0.0
C7 C 0.06926 0.29618 0.11925 0.0
C8 C 0.1612 0.43611 0.0956 0.0
C9 C 0.19379 0.30235 0.11837 0.0
O10 O 0.10285 0.33862 0.11522 0.0
O11 O 0.06598 0.25929 0.11059 0.0
O12 O 0.20922 0.38178 0.07512 0.0
O13 O 0.14001 0.31675 0.07686 0.0
Co14 Co 0.78994 0.14914 0.26085 0.0
O15 O 0.7349 0.12237 0.24338 0.0
O16 O 0.74018 0.15779 0.27327 0.0
C17 C 0.84206 0.18773 0.23487 0.0
O18 O 0.84254 0.18253 0.28239 0.0
Co19 Co 0.86674 0.12111 0.25375 0.0
O20 O 0.90499 0.17567 0.27238 0.0
C21 C 0.77924 0.05563 0.27635 0.0
C22 C 0.71555 0.13716 0.25671 0.0
C23 C 0.88613 0.19287 0.28427 0.0
O24 O 0.7661 0.08689 0.27602 0.0
O25 O 0.81607 0.06084 0.26685 0.0
O26 O 0.81945 0.20626 0.24376 0.0
O27 O 0.82959 0.14507 0.24068 0.0
Co28 Co 0.65939 0.78924 0.42118 0.0
O29 O 0.63554 0.73182 0.40525 0.0
O30 O 0.60181 0.73866 0.4337 0.0
C31 C 0.67118 0.83544 0.39293 0.0
O32 O 0.67228 0.84267 0.44141 0.0
Co33 Co 0.7599 0.87483 0.4148 0.0
O34 O 0.73788 0.91001 0.43224 0.0
C35 C 0.74642 0.79293 0.44044 0.0
C36 C 0.60035 0.71259 0.41813 0.0
C37 C 0.70145 0.88739 0.44366 0.0
O38 O 0.70091 0.77252 0.43859 0.0
O39 O 0.77495 0.8314 0.43097 0.0
O40 O 0.62971 0.81254 0.40153 0.0
O41 O 0.70335 0.82819 0.40083 0.0
Co42 Co 0.86043 0.65 0.5906 0.0
O43 O 0.88437 0.61648 0.57476 0.0
O44 O 0.83424 0.58565 0.60099 0.0
C45 C 0.84397 0.6805 0.56225 0.0
O46 O 0.82589 0.67252 0.60989 0.0
Co47 Co 0.90679 0.7589 0.58887 0.0
O48 O 0.84834 0.74842 0.60298 0.0
C49 C 0.94963 0.71574 0.61533 0.0
C50 C 0.85812 0.57993 0.58624 0.0
C51 C 0.82171 0.70953 0.61234 0.0
O52 O 0.91555 0.67385 0.61076 0.0
O53 O 0.95368 0.75352 0.60723 0.0
O54 O 0.81393 0.63807 0.56869 0.0
O55 O 0.88342 0.70197 0.57239 0.0
Co56 Co 0.22032 0.86118 0.75897 0.0
O57 O 0.28259 0.88863 0.74654 0.0
O58 O 0.26294 0.85282 0.77706 0.0
C59 C 0.17949 0.82335 0.72994 0.0
O60 O 0.16036 0.82662 0.77649 0.0
Co61 Co 0.14335 0.88355 0.74339 0.0
O62 O 0.09973 0.82651 0.75975 0.0
C63 C 0.21894 0.95054 0.77206 0.0
C64 C 0.29498 0.874 0.76282 0.0
C65 C 0.11594 0.81232 0.77433 0.0
O66 O 0.23669 0.92298 0.77332 0.0
O67 O 0.18423 0.94215 0.76006 0.0
O68 O 0.19829 0.80452 0.74155 0.0
O69 O 0.18898 0.86535 0.73529 0.0
Co70 Co 0.3461 0.21204 0.92059 0.0
O71 O 0.38045 0.27266 0.90733 0.0
O72 O 0.40899 0.24933 0.93299 0.0
C73 C 0.3218 0.17079 0.89032 0.0
O74 O 0.32036 0.15074 0.93738 0.0
Co75 Co 0.23708 0.15145 0.91295 0.0
O76 O 0.24378 0.10278 0.92857 0.0
C77 C 0.27421 0.22471 0.94606 0.0
C78 C 0.41589 0.28141 0.91922 0.0
C79 C 0.28074 0.11131 0.93881 0.0
O80 O 0.31749 0.23666 0.94182 0.0
O81 O 0.23848 0.19408 0.93563 0.0
O82 O 0.36324 0.1831 0.89792 0.0
O83 O 0.29833 0.18675 0.90022 0.0
Co84 Co 0.66202 0.86863 0.74671 0.0
O85 O 0.63613 0.90001 0.76273 0.0
O86 O 0.60169 0.85659 0.73498 0.0
C87 C 0.67946 0.8386 0.77501 0.0
O88 O 0.67744 0.82929 0.72682 0.0
Co89 Co 0.76631 0.89397 0.75205 0.0
O90 O 0.74565 0.83378 0.73697 0.0
C91 C 0.74364 0.95622 0.7267 0.0
C92 C 0.59993 0.88148 0.75039 0.0
C93 C 0.70838 0.81576 0.72585 0.0
O94 O 0.69878 0.92687 0.72856 0.0
O95 O 0.77526 0.95077 0.7361 0.0
O96 O 0.63727 0.81668 0.76699 0.0
O97 O 0.70868 0.87864 0.76655 0.0
Co98 Co 0.79509 0.64276 0.909 0.0
O99 O 0.73309 0.60475 0.92145 0.0
O100 O 0.75697 0.58716 0.8924 0.0
C101 C 0.83593 0.65517 0.93898 0.0
O102 O 0.85507 0.66969 0.89156 0.0
Co103 Co 0.86533 0.74639 0.92037 0.0
O104 O 0.91201 0.74076 0.90263 0.0
C105 C 0.78335 0.72429 0.89317 0.0
C106 C 0.72383 0.57548 0.90615 0.0
C107 C 0.89746 0.70528 0.89054 0.0
O108 O 0.77225 0.68038 0.8923 0.0
O109 O 0.81656 0.75468 0.90481 0.0
O110 O 0.82183 0.61629 0.92855 0.0
O111 O 0.82319 0.68403 0.93173 0.0
Co112 Co 0.13718 0.794 0.07852 0.0
O113 O 0.115 0.73719 0.09454 0.0
O114 O 0.15961 0.75371 0.06655 0.0
C115 C 0.16056 0.84205 0.1069 0.0
O116 O 0.16841 0.85041 0.05863 0.0
Co117 Co 0.09098 0.85622 0.08457 0.0
O118 O 0.14024 0.89977 0.06496 0.0
C119 C 0.04067 0.7676 0.06035 0.0
C120 C 0.13809 0.72515 0.08198 0.0
C121 C 0.16732 0.88881 0.05515 0.0
O122 O 0.07774 0.76293 0.06064 0.0
O123 O 0.03769 0.79952 0.0707 0.0
O124 O 0.18851 0.82886 0.09873 0.0
O125 O 0.11923 0.82405 0.09847 0.0
Co126 Co 0.34332 0.13339 0.24967 0.0
O127 O 0.38111 0.10789 0.26083 0.0
O128 O 0.39921 0.15331 0.23292 0.0
C129 C 0.33011 0.15707 0.28078 0.0
O130 O 0.3162 0.16844 0.23379 0.0
Co131 Co 0.23922 0.09809 0.26192 0.0
O132 O 0.24921 0.15746 0.24867 0.0
C133 C 0.26152 0.04343 0.23139 0.0
C134 C 0.41055 0.12995 0.24582 0.0
C135 C 0.28281 0.17827 0.23568 0.0
O136 O 0.30586 0.07542 0.23147 0.0
O137 O 0.23096 0.04497 0.24338 0.0
O138 O 0.3692 0.18382 0.27076 0.0
O139 O 0.30176 0.11673 0.27233 0.0
Co140 Co 0.21621 0.35776 0.41099 0.0
O141 O 0.27843 0.39364 0.42332 0.0
O142 O 0.25764 0.40989 0.39308 0.0
C143 C 0.17459 0.35206 0.44002 0.0
O144 O 0.15523 0.33085 0.39389 0.0
Co145 Co 0.14391 0.25625 0.42595 0.0
O146 O 0.09777 0.2693 0.41149 0.0
C147 C 0.22158 0.27043 0.39766 0.0
C148 C 0.29016 0.42084 0.40714 0.0
C149 C 0.11128 0.30003 0.39705 0.0
O150 O 0.23502 0.31484 0.3961 0.0
O151 O 0.18816 0.24217 0.40979 0.0
O152 O 0.19274 0.39026 0.42877 0.0
O153 O 0.18598 0.32095 0.43453 0.0
Co154 Co 0.84637 0.20455 0.57476 0.0
O155 O 0.86724 0.26621 0.58686 0.0
O156 O 0.81813 0.23611 0.56021 0.0
C157 C 0.83115 0.16549 0.60533 0.0
O158 O 0.81473 0.14265 0.55838 0.0
Co159 Co 0.89666 0.14726 0.58212 0.0
O160 O 0.83724 0.09295 0.57119 0.0
C161 C 0.93692 0.22582 0.5517 0.0
C162 C 0.84118 0.27121 0.57298 0.0
C163 C 0.81054 0.10133 0.55969 0.0
O164 O 0.90181 0.23276 0.55486 0.0
O165 O 0.94236 0.19485 0.56166 0.0
O166 O 0.79984 0.17407 0.59704 0.0
O167 O 0.87113 0.18282 0.59566 0.0
H168 H 0.14258 0.66045 0.05523 0.0
H169 H 0.14473 0.69617 0.12015 0.0
H170 H 0.15248 0.62753 0.13015 0.0
H171 H 0.07067 0.53352 0.063 0.0
H172 H 0.10057 0.5183 0.0436 0.0
H173 H 0.09791 0.57199 0.04106 0.0
H174 H 0.18948 0.6209 0.03859 0.0
H175 H 0.19241 0.56734 0.04112 0.0
H176 H 0.22489 0.61587 0.05883 0.0
H177 H 0.16241 0.55783 0.13355 0.0
H178 H 0.16682 0.48483 0.13034 0.0
H179 H 0.15118 0.48726 0.06363 0.0
C180 C 0.14508 0.65383 0.07149 0.0
C181 C 0.14341 0.68376 0.08694 0.0
C182 C 0.14589 0.67364 0.10809 0.0
C183 C 0.15047 0.63484 0.11394 0.0
C184 C 0.15171 0.6058 0.09848 0.0
C185 C 0.1485 0.61418 0.0777 0.0
C186 C 0.14827 0.57542 0.06447 0.0
C187 C 0.10157 0.5482 0.05232 0.0
C188 C 0.19133 0.59613 0.04989 0.0
C189 C 0.15215 0.54443 0.08111 0.0
C190 C 0.15474 0.56326 0.10056 0.0
C191 C 0.1601 0.54246 0.11843 0.0
C192 C 0.16274 0.50111 0.11644 0.0
C193 C 0.15917 0.48037 0.09678 0.0
C194 C 0.15357 0.50221 0.07887 0.0
H195 H 0.64849 0.13625 0.28358 0.0
H196 H 0.67921 0.13141 0.21848 0.0
H197 H 0.60484 0.12866 0.20886 0.0
H198 H 0.52143 0.05348 0.27885 0.0
H199 H 0.50511 0.08384 0.29756 0.0
H200 H 0.56152 0.08644 0.29963 0.0
H201 H 0.60442 0.17822 0.29924 0.0
H202 H 0.54815 0.17589 0.29715 0.0
H203 H 0.59374 0.20802 0.27816 0.0
H204 H 0.53032 0.13155 0.20585 0.0
H205 H 0.45505 0.13189 0.20995 0.0
H206 H 0.46717 0.12739 0.27673 0.0
C207 C 0.6394 0.13458 0.26734 0.0
C208 C 0.66973 0.13419 0.25178 0.0
C209 C 0.65647 0.13153 0.23068 0.0
C210 C 0.61434 0.13013 0.22502 0.0
C211 C 0.58521 0.13059 0.24063 0.0
C212 C 0.59662 0.13204 0.26137 0.0
C213 C 0.5579 0.13068 0.27494 0.0
C214 C 0.53515 0.08594 0.28855 0.0
C215 C 0.57722 0.1759 0.28815 0.0
C216 C 0.52348 0.12881 0.25855 0.0
C217 C 0.54036 0.12938 0.23887 0.0
C218 C 0.51633 0.13044 0.22117 0.0
C219 C 0.47375 0.13076 0.22363 0.0
C220 C 0.45519 0.12907 0.24359 0.0
C221 C 0.48026 0.12781 0.26127 0.0
H222 H 0.52821 0.65208 0.44456 0.0
H223 H 0.5769 0.66775 0.38093 0.0
H224 H 0.50375 0.59447 0.3714 0.0
H225 H 0.47285 0.52156 0.44543 0.0
H226 H 0.42446 0.51372 0.46166 0.0
H227 H 0.48142 0.56698 0.46373 0.0
H228 H 0.44171 0.61755 0.45703 0.0
H229 H 0.38473 0.56448 0.45477 0.0
H230 H 0.4065 0.60716 0.43398 0.0
H231 H 0.42194 0.5245 0.3678 0.0
H232 H 0.34086 0.45568 0.37153 0.0
H233 H 0.34738 0.47988 0.43781 0.0
C234 C 0.52365 0.63969 0.4287 0.0
C235 C 0.5583 0.66576 0.41349 0.0
C236 C 0.55106 0.64834 0.3929 0.0
C237 C 0.50947 0.60679 0.38728 0.0
C238 C 0.47566 0.58234 0.4025 0.0
C239 C 0.48262 0.59746 0.42288 0.0
C240 C 0.44066 0.56394 0.43618 0.0
C241 C 0.45576 0.54013 0.45273 0.0
C242 C 0.41701 0.58984 0.44607 0.0
C243 C 0.40875 0.52843 0.41999 0.0
C244 C 0.42947 0.54006 0.40061 0.0
C245 C 0.40566 0.51449 0.38295 0.0
C246 C 0.35961 0.47568 0.38517 0.0
C247 C 0.33828 0.4623 0.40494 0.0
C248 C 0.36331 0.48894 0.42255 0.0
H249 H 0.86056 0.51398 0.61231 0.0
H250 H 0.8432 0.5415 0.54811 0.0
H251 H 0.83327 0.46389 0.53805 0.0
H252 H 0.93175 0.46068 0.60068 0.0
H253 H 0.90776 0.41781 0.62135 0.0
H254 H 0.90974 0.47382 0.62388 0.0
H255 H 0.81929 0.42982 0.63084 0.0
H256 H 0.81704 0.37366 0.6283 0.0
H257 H 0.77945 0.38665 0.61239 0.0
H258 H 0.82324 0.38295 0.53497 0.0
H259 H 0.82301 0.30728 0.53839 0.0
H260 H 0.85496 0.33484 0.60389 0.0
C261 C 0.85418 0.50322 0.59621 0.0
C262 C 0.85203 0.53319 0.58096 0.0
C263 C 0.84479 0.51877 0.55997 0.0
C264 C 0.83894 0.47476 0.55413 0.0
C265 C 0.84143 0.44597 0.56944 0.0
C266 C 0.84966 0.4598 0.59 0.0
C267 C 0.85418 0.42346 0.60302 0.0
C268 C 0.90381 0.44525 0.61281 0.0
C269 C 0.81516 0.40214 0.61962 0.0
C270 C 0.84688 0.38707 0.58659 0.0
C271 C 0.8388 0.40047 0.5674 0.0
C272 C 0.82985 0.37219 0.54988 0.0
C273 C 0.82962 0.32923 0.55198 0.0
C274 C 0.83923 0.31544 0.57134 0.0
C275 C 0.84792 0.34478 0.58886 0.0
H276 H 0.52818 0.87246 0.72411 0.0
H277 H 0.57531 0.898 0.78815 0.0
H278 H 0.5036 0.9003 0.79804 0.0
H279 H 0.47879 0.952 0.72498 0.0
H280 H 0.42973 0.91478 0.70824 0.0
H281 H 0.48494 0.91498 0.70594 0.0
H282 H 0.44056 0.82393 0.71118 0.0
H283 H 0.38526 0.82348 0.71354 0.0
H284 H 0.40418 0.7987 0.73386 0.0
H285 H 0.42431 0.89358 0.80175 0.0
H286 H 0.34531 0.88634 0.79826 0.0
H287 H 0.35153 0.87267 0.73167 0.0
C288 C 0.52338 0.87874 0.74017 0.0
C289 C 0.55734 0.88494 0.75537 0.0
C290 C 0.54998 0.8934 0.7762 0.0
C291 C 0.50923 0.89462 0.78202 0.0
C292 C 0.47634 0.88821 0.76678 0.0
C293 C 0.48317 0.88121 0.74622 0.0
C294 C 0.44245 0.87643 0.73296 0.0
C295 C 0.46004 0.91697 0.71709 0.0
C296 C 0.41659 0.82774 0.72226 0.0
C297 C 0.41145 0.88087 0.74936 0.0
C298 C 0.43156 0.88719 0.76879 0.0
C299 C 0.40849 0.8894 0.78659 0.0
C300 C 0.36364 0.88512 0.78449 0.0
C301 C 0.34277 0.87964 0.76472 0.0
C302 C 0.36719 0.87781 0.74694 0.0
H303 H 0.48307 0.34836 0.94598 0.0
H304 H 0.45404 0.30687 0.8814 0.0
H305 H 0.53013 0.37622 0.87136 0.0
H306 H 0.53394 0.47311 0.93622 0.0
H307 H 0.57845 0.49185 0.95621 0.0
H308 H 0.52335 0.4368 0.9589 0.0
H309 H 0.56943 0.39172 0.96357 0.0
H310 H 0.62468 0.4467 0.96101 0.0
H311 H 0.61183 0.39752 0.94419 0.0
H312 H 0.60836 0.4489 0.86793 0.0
H313 H 0.68368 0.5246 0.87117 0.0
H314 H 0.66135 0.52455 0.93746 0.0
C315 C 0.49329 0.35376 0.92982 0.0
C316 C 0.46306 0.32218 0.91443 0.0
C317 C 0.47686 0.33072 0.89337 0.0
C318 C 0.52002 0.36991 0.88752 0.0
C319 C 0.54884 0.40085 0.90288 0.0
C320 C 0.53614 0.39368 0.92358 0.0
C321 C 0.57286 0.43433 0.93667 0.0
C322 C 0.55082 0.46057 0.94764 0.0
C323 C 0.59607 0.41649 0.95228 0.0
C324 C 0.60786 0.46513 0.92006 0.0
C325 C 0.59341 0.44466 0.90074 0.0
C326 C 0.62004 0.46548 0.88296 0.0
C327 C 0.66277 0.50844 0.88494 0.0
C328 C 0.67813 0.53057 0.9045 0.0
C329 C 0.65014 0.50867 0.92227 0.0
H330 H 0.28266 0.17078 0.1939 0.0
H331 H 0.27344 0.2556 0.24334 0.0
H332 H 0.26244 0.30549 0.21738 0.0
H333 H 0.33871 0.2649 0.15378 0.0
H334 H 0.30266 0.2255 0.13338 0.0
H335 H 0.31869 0.20242 0.15541 0.0
H336 H 0.22993 0.14281 0.16239 0.0
H337 H 0.21369 0.16553 0.14041 0.0
H338 H 0.18921 0.16462 0.16555 0.0
H339 H 0.24744 0.34249 0.18622 0.0
H340 H 0.21762 0.35644 0.15338 0.0
H341 H 0.22885 0.24215 0.12457 0.0
C342 C 0.2797 0.20079 0.19914 0.0
C343 C 0.28 0.21038 0.22046 0.0
C344 C 0.27398 0.24843 0.22699 0.0
C345 C 0.268 0.27696 0.21236 0.0
C346 C 0.26732 0.2663 0.19137 0.0
C347 C 0.27234 0.22866 0.18479 0.0
C348 C 0.26351 0.22038 0.16171 0.0
C349 C 0.30859 0.22882 0.15041 0.0
C350 C 0.22159 0.17039 0.15727 0.0
C351 C 0.25151 0.25843 0.15638 0.0
C352 C 0.25538 0.28547 0.17357 0.0
C353 C 0.2446 0.32176 0.17264 0.0
C354 C 0.2279 0.32957 0.15385 0.0
C355 C 0.22098 0.30043 0.13638 0.0
C356 C 0.23406 0.26517 0.13761 0.0
H357 H 0.98267 0.23903 0.28851 0.0
H358 H 0.85406 0.20977 0.32081 0.0
H359 H 0.90071 0.24496 0.35268 0.0
H360 H 0.03164 0.20704 0.32739 0.0
H361 H 0.09231 0.2525 0.32303 0.0
H362 H 0.05056 0.23274 0.302 0.0
H363 H 0.06942 0.31894 0.29554 0.0
H364 H 0.11166 0.33914 0.31652 0.0
H365 H 0.06428 0.35254 0.31655 0.0
H366 H 0.95832 0.26871 0.38228 0.0
H367 H 0.02366 0.28545 0.40659 0.0
H368 H 0.11584 0.30385 0.35482 0.0
C369 C 0.96445 0.24123 0.30212 0.0
C370 C 0.91465 0.22165 0.30215 0.0
C371 C 0.89217 0.22492 0.32033 0.0
C372 C 0.91841 0.24478 0.33853 0.0
C373 C 0.9672 0.2621 0.33817 0.0
C374 C 0.99015 0.26138 0.3203 0.0
C375 C 0.04218 0.2788 0.32434 0.0
C376 C 0.05487 0.24048 0.31887 0.0
C377 C 0.07375 0.32512 0.31254 0.0
C378 C 0.04451 0.28734 0.34748 0.0
C379 C 0.00094 0.27775 0.35516 0.0
C380 C 0.99291 0.27768 0.37638 0.0
C381 C 0.03009 0.28704 0.39007 0.0
C382 C 0.07486 0.29688 0.38249 0.0
C383 C 0.08238 0.29802 0.36093 0.0
H384 H 0.80232 0.10903 0.5182 0.0
H385 H 0.74867 0.00858 0.5689 0.0
H386 H 0.70165 0.94362 0.54408 0.0
H387 H 0.69621 0.04945 0.48304 0.0
H388 H 0.73311 0.06276 0.4604 0.0
H389 H 0.75361 0.10249 0.48229 0.0
H390 H 0.82952 0.0958 0.48417 0.0
H391 H 0.80935 0.05629 0.46235 0.0
H392 H 0.82392 0.03803 0.4863 0.0
H393 H 0.66745 0.88883 0.51358 0.0
H394 H 0.6576 0.84746 0.48035 0.0
H395 H 0.73924 0.98304 0.44938 0.0
C396 C 0.77921 0.07359 0.52407 0.0
C397 C 0.77795 0.06371 0.54542 0.0
C398 C 0.7493 0.01672 0.55258 0.0
C399 C 0.72236 0.97977 0.53862 0.0
C400 C 0.7251 0.99041 0.51753 0.0
C401 C 0.75322 0.03618 0.51028 0.0
C402 C 0.75613 0.0372 0.48683 0.0
C403 C 0.7334 0.0646 0.4776 0.0
C404 C 0.80778 0.05803 0.4795 0.0
C405 C 0.72674 0.98473 0.48205 0.0
C406 C 0.70785 0.95848 0.4999 0.0
C407 C 0.68159 0.90907 0.49948 0.0
C408 C 0.67599 0.88585 0.48048 0.0
C409 C 0.69757 0.912 0.46224 0.0
C410 C 0.72202 0.96211 0.46302 0.0
H411 H 0.79486 0.77606 0.61854 0.0
H412 H 0.77523 0.64312 0.64278 0.0
H413 H 0.73138 0.64968 0.67257 0.0
H414 H 0.82003 0.835 0.66448 0.0
H415 H 0.78961 0.86731 0.65923 0.0
H416 H 0.81178 0.848 0.63816 0.0
H417 H 0.72777 0.80359 0.6219 0.0
H418 H 0.70529 0.82294 0.64299 0.0
H419 H 0.67852 0.76065 0.63711 0.0
H420 H 0.70401 0.67856 0.7028 0.0
H421 H 0.69148 0.72539 0.72975 0.0
H422 H 0.72445 0.83681 0.68515 0.0
C423 C 0.78021 0.74758 0.62979 0.0
C424 C 0.78855 0.70904 0.62826 0.0
C425 C 0.76909 0.67283 0.64347 0.0
C426 C 0.74408 0.67625 0.66048 0.0
C427 C 0.738 0.71561 0.66188 0.0
C428 C 0.75487 0.75026 0.64674 0.0
C429 C 0.74748 0.79107 0.65271 0.0
C430 C 0.79504 0.83809 0.65371 0.0
C431 C 0.71268 0.79476 0.63779 0.0
C432 C 0.72587 0.77511 0.67403 0.0
C433 C 0.72026 0.73126 0.679 0.0
C434 C 0.70665 0.71207 0.69884 0.0
C435 C 0.69951 0.73874 0.71403 0.0
C436 C 0.70534 0.78364 0.70918 0.0
C437 C 0.7177 0.80153 0.68887 0.0
H438 H 0.99144 0.77161 0.88359 0.0
H439 H 0.87306 0.64387 0.85786 0.0
H440 H 0.92001 0.65268 0.82663 0.0
H441 H 0.02598 0.83651 0.83831 0.0
H442 H 0.08895 0.86501 0.84288 0.0
H443 H 0.04859 0.84563 0.86442 0.0
H444 H 0.08426 0.79542 0.87814 0.0
H445 H 0.12501 0.81488 0.85664 0.0
H446 H 0.08664 0.75243 0.86137 0.0
H447 H 0.97398 0.68238 0.79597 0.0
H448 H 0.03486 0.72761 0.76932 0.0
H449 H 0.12075 0.83238 0.8154 0.0
C450 C 0.97576 0.74482 0.87163 0.0
C451 C 0.92843 0.70705 0.87327 0.0
C452 C 0.90923 0.67304 0.85711 0.0
C453 C 0.93565 0.67771 0.83924 0.0
C454 C 0.9816 0.71607 0.83786 0.0
C455 C 0.00188 0.74861 0.85375 0.0
C456 C 0.05098 0.78809 0.84784 0.0
C457 C 0.05375 0.83666 0.84839 0.0
C458 C 0.08897 0.78766 0.86183 0.0
C459 C 0.05433 0.7736 0.82587 0.0
C460 C 0.01391 0.7319 0.82041 0.0
C461 C 0.00642 0.71426 0.80022 0.0
C462 C 0.04098 0.74009 0.7852 0.0
C463 C 0.08272 0.7825 0.79056 0.0
C464 C 0.08979 0.79904 0.81119 0.0
H465 H 0.13569 0.92873 0.02763 0.0
H466 H 0.25924 0.91762 0.04294 0.0
H467 H 0.30352 0.97276 0.01398 0.0
H468 H 0.14992 0.92952 0.97212 0.0
H469 H 0.12784 0.96974 0.968 0.0
H470 H 0.10743 0.93002 0.98984 0.0
H471 H 0.13361 0.00152 0.01468 0.0
H472 H 0.15409 0.04141 0.99294 0.0
H473 H 0.19404 0.04978 0.01394 0.0
H474 H 0.33527 0.03591 0.98432 0.0
H475 H 0.34794 0.09232 0.95569 0.0
H476 H 0.19994 0.05343 0.95941 0.0
C477 C 0.17213 0.93792 0.02492 0.0
C478 C 0.19441 0.91963 0.03762 0.0
C479 C 0.24173 0.93156 0.03336 0.0
C480 C 0.26704 0.96285 0.017 0.0
C481 C 0.24396 0.98075 0.00486 0.0
C482 C 0.1972 0.96786 0.00853 0.0
C483 C 0.17944 0.99049 0.99326 0.0
C484 C 0.13876 0.95269 0.98002 0.0
C485 C 0.16444 0.02271 0.00437 0.0
C486 C 0.22364 0.019 0.98053 0.0
C487 C 0.26087 0.01364 0.98742 0.0
C488 C 0.30602 0.03955 0.97861 0.0
C489 C 0.31296 0.07152 0.9624 0.0
C490 C 0.27471 0.07647 0.95501 0.0
C491 C 0.22966 0.04953 0.96424 0.0
H492 H 0.24617 0.38061 0.03607 0.0
H493 H 0.14779 0.24519 0.06406 0.0
H494 H 0.1676 0.20397 0.03762 0.0
H495 H 0.21615 0.34013 0.98402 0.0
H496 H 0.27529 0.37483 0.97377 0.0
H497 H 0.25789 0.39532 0.9962 0.0
H498 H 0.32851 0.40051 0.01683 0.0
H499 H 0.34615 0.38001 0.99444 0.0
H500 H 0.33519 0.34895 0.01874 0.0
H501 H 0.19265 0.17619 0.00789 0.0
H502 H 0.21989 0.1621 0.97459 0.0
H503 H 0.30206 0.31373 0.96353 0.0
C504 C 0.22955 0.34236 0.03676 0.0
C505 C 0.19568 0.31613 0.0523 0.0
C506 C 0.17381 0.2661 0.05243 0.0
C507 C 0.18501 0.24228 0.03749 0.0
C508 C 0.21788 0.26884 0.02227 0.0
C509 C 0.23979 0.31769 0.02159 0.0
C510 C 0.27102 0.33674 1.00239 0.0
C511 C 0.25406 0.36332 0.98826 0.0
C512 C 0.32333 0.36843 0.00847 0.0
C513 C 0.26258 0.29081 0.99239 0.0
C514 C 0.23207 0.25234 0.0044 0.0
C515 C 0.21677 0.20594 0.99839 0.0
C516 C 0.23231 0.19833 0.97941 0.0
C517 C 0.26292 0.23677 0.96654 0.0
C518 C 0.27905 0.28381 0.97322 0.0
H519 H 0.88295 0.15177 0.20882 0.0
H520 H 0.88132 0.28078 0.22373 0.0
H521 H 0.93832 0.32265 0.19546 0.0
H522 H 0.00724 0.20738 0.1955 0.0
H523 H 0.99744 0.16682 0.17458 0.0
H524 H 0.95761 0.14769 0.19637 0.0
H525 H 0.88667 0.12334 0.17144 0.0
H526 H 0.92634 0.14276 0.14959 0.0
H527 H 0.88754 0.16653 0.1537 0.0
H528 H 0.99631 0.35069 0.16553 0.0
H529 H 0.05019 0.36226 0.13632 0.0
H530 H 0.01111 0.21401 0.14025 0.0
C531 C 0.89485 0.18891 0.20623 0.0
C532 C 0.87784 0.21308 0.21852 0.0
C533 C 0.89394 0.26157 0.21452 0.0
C534 C 0.92628 0.28565 0.19848 0.0
C535 C 0.94199 0.26069 0.18648 0.0
C536 C 0.92679 0.21338 0.19015 0.0
C537 C 0.94848 0.19452 0.17482 0.0
C538 C 0.97954 0.17815 0.18599 0.0
C539 C 0.90995 0.15442 0.16161 0.0
C540 C 0.97824 0.23857 0.16196 0.0
C541 C 0.97425 0.27646 0.16897 0.0
C542 C 0.99952 0.32118 0.15984 0.0
C543 C 0.03001 0.32742 0.14324 0.0
C544 C 0.03464 0.28902 0.1358 0.0
C545 C 0.00795 0.244 0.14528 0.0
H546 H 0.74141 0.05075 0.31481 0.0
H547 H 0.76164 0.96609 0.26852 0.0
H548 H 0.72821 0.89791 0.29256 0.0
H549 H 0.77941 0.00946 0.35654 0.0
H550 H 0.73863 0.00995 0.37524 0.0
H551 H 0.7573 0.04996 0.35353 0.0
H552 H 0.6697 0.01737 0.34288 0.0
H553 H 0.6507 0.9774 0.36467 0.0
H554 H 0.6317 0.95455 0.33886 0.0
H555 H 0.70121 0.84223 0.32243 0.0
H556 H 0.68184 0.80203 0.35648 0.0
H557 H 0.67966 0.92202 0.38413 0.0
C558 C 0.7373 0.01733 0.30954 0.0
C559 C 0.75326 0.01329 0.28967 0.0
C560 C 0.74915 0.96967 0.28359 0.0
C561 C 0.73017 0.93079 0.29713 0.0
C562 C 0.71588 0.93622 0.3168 0.0
C563 C 0.71917 0.97834 0.32305 0.0
C564 C 0.70572 0.97615 0.34573 0.0
C565 C 0.74777 0.0136 0.3585 0.0
C566 C 0.66183 0.98169 0.34817 0.0
C567 C 0.69465 0.92636 0.35126 0.0
C568 C 0.7006 0.90397 0.33427 0.0
C569 C 0.69569 0.85906 0.33574 0.0
C570 C 0.6848 0.83655 0.35509 0.0
C571 C 0.67862 0.85876 0.37265 0.0
C572 C 0.68316 0.90402 0.37073 0.0
H573 H 0.7597 0.65754 0.5424 0.0
H574 H 0.91232 0.74965 0.53866 0.0
H575 H 0.90307 0.78227 0.50573 0.0
H576 H 0.73706 0.63425 0.48714 0.0
H577 H 0.68323 0.63713 0.48734 0.0
H578 H 0.70112 0.61828 0.5102 0.0
H579 H 0.69818 0.68387 0.5317 0.0
H580 H 0.67982 0.70255 0.50896 0.0
H581 H 0.73162 0.74465 0.52317 0.0
H582 H 0.87878 0.80421 0.47341 0.0
H583 H 0.84047 0.82351 0.44545 0.0
H584 H 0.70197 0.72194 0.47018 0.0
C585 C 0.79105 0.68447 0.53456 0.0
C586 C 0.83681 0.70087 0.54302 0.0
C587 C 0.87698 0.73659 0.5325 0.0
C588 C 0.87212 0.75511 0.5137 0.0
C589 C 0.82677 0.73804 0.50567 0.0
C590 C 0.78678 0.70418 0.51585 0.0
C591 C 0.74212 0.69469 0.5043 0.0
C592 C 0.71424 0.64301 0.4968 0.0
C593 C 0.71111 0.7072 0.51784 0.0
C594 C 0.76346 0.72877 0.48616 0.0
C595 C 0.81238 0.7526 0.48719 0.0
C596 C 0.84048 0.786 0.47246 0.0
C597 C 0.81817 0.79665 0.45657 0.0
C598 C 0.76798 0.77457 0.45554 0.0
C599 C 0.7403 0.73933 0.47038 0.0
H600 H 0.14412 0.85959 0.70162 0.0
H601 H 0.13924 0.72892 0.71954 0.0
H602 H 0.08132 0.68642 0.69139 0.0
H603 H 0.02204 0.80963 0.68956 0.0
H604 H 0.03228 0.8485 0.66789 0.0
H605 H 0.07387 0.86796 0.68904 0.0
H606 H 0.14188 0.88553 0.66336 0.0
H607 H 0.10047 0.86605 0.64211 0.0
H608 H 0.13656 0.83923 0.64634 0.0
H609 H 0.02018 0.65792 0.66173 0.0
H610 H 0.96447 0.64706 0.63325 0.0
H611 H 0.01311 0.7978 0.63489 0.0
C612 C 0.13108 0.82205 0.69961 0.0
C613 C 0.14613 0.79752 0.71279 0.0
C614 C 0.12825 0.74844 0.70958 0.0
C615 C 0.09533 0.72403 0.69365 0.0
C616 C 0.08102 0.74935 0.68097 0.0
C617 C 0.09869 0.7974 0.68376 0.0
C618 C 0.07775 0.81672 0.6683 0.0
C619 C 0.04982 0.83687 0.67936 0.0
C620 C 0.11648 0.85409 0.65419 0.0
C621 C 0.04512 0.77205 0.65642 0.0
C622 C 0.04723 0.73341 0.66389 0.0
C623 C 0.01865 0.68809 0.65567 0.0
C624 C 0.98707 0.68224 0.63949 0.0
C625 C 0.98453 0.72156 0.63162 0.0
C626 C 0.0144 0.76696 0.64024 0.0
H627 H 0.3465 0.10875 0.87291 0.0
H628 H 0.25512 0.16887 0.86452 0.0
H629 H 0.22471 0.12403 0.83197 0.0
H630 H 0.37358 0.10419 0.81842 0.0
H631 H 0.37052 0.04756 0.82056 0.0
H632 H 0.38799 0.08668 0.84262 0.0
H633 H 0.32096 0.02034 0.86449 0.0
H634 H 0.30358 0.98096 0.84256 0.0
H635 H 0.26074 0.99212 0.85512 0.0
H636 H 0.20451 0.07408 0.80059 0.0
H637 H 0.18716 0.01369 0.77411 0.0
H638 H 0.2872 0.98004 0.8032 0.0
C639 C 0.32034 0.11262 0.8641 0.0
C640 C 0.30341 0.14261 0.87111 0.0
C641 C 0.26857 0.14616 0.85942 0.0
C642 C 0.25131 0.12106 0.84084 0.0
C643 C 0.26876 0.09199 0.83428 0.0
C644 C 0.30191 0.08693 0.84564 0.0
C645 C 0.31199 0.05061 0.83567 0.0
C646 C 0.36413 0.07365 0.82892 0.0
C647 C 0.2985 0.00851 0.85033 0.0
C648 C 0.2791 0.03596 0.81702 0.0
C649 C 0.25527 0.06106 0.81643 0.0
C650 C 0.22281 0.05405 0.8009 0.0
C651 C 0.21331 0.01954 0.78585 0.0
C652 C 0.23559 0.99162 0.78647 0.0
C653 C 0.26965 0.00074 0.80215 0.0
H654 H 0.67545 0.7546 0.78601 0.0
H655 H 0.70948 0.893 0.80913 0.0
H656 H 0.73049 0.87398 0.84314 0.0
H657 H 0.62946 0.68765 0.83486 0.0
H658 H 0.65716 0.6523 0.83085 0.0
H659 H 0.63928 0.67396 0.80891 0.0
H660 H 0.72478 0.71386 0.79439 0.0
H661 H 0.7428 0.6921 0.81619 0.0
H662 H 0.77352 0.75466 0.81048 0.0
H663 H 0.75106 0.84274 0.87371 0.0
H664 H 0.77838 0.80444 0.89855 0.0
H665 H 0.73612 0.68663 0.85603 0.0
C666 C 0.68658 0.78034 0.79843 0.0
C667 C 0.69035 0.82505 0.79519 0.0
C668 C 0.70623 0.85856 0.81146 0.0
C669 C 0.71795 0.84795 0.83082 0.0
C670 C 0.71425 0.80383 0.83361 0.0
C671 C 0.69957 0.77067 0.81786 0.0
C672 C 0.70341 0.72792 0.82455 0.0
C673 C 0.6544 0.68278 0.82481 0.0
C674 C 0.7382 0.7218 0.81057 0.0
C675 C 0.72299 0.74263 0.84639 0.0
C676 C 0.72812 0.78624 0.85129 0.0
C677 C 0.74708 0.80849 0.87011 0.0
C678 C 0.76258 0.78638 0.88414 0.0
C679 C 0.75948 0.74245 0.87932 0.0
C680 C 0.73836 0.71981 0.86032 0.0
H681 H 0.92082 0.66208 0.95045 0.0
H682 H 0.7989 0.66689 0.97412 0.0
H683 H 0.83419 0.68455 0.00914 0.0
H684 H 0.94722 0.61395 0.99806 0.0
H685 H 0.01045 0.65146 0.99525 0.0
H686 H 0.9729 0.6319 0.97262 0.0
H687 H 0.00697 0.71916 0.96106 0.0
H688 H 0.0447 0.73888 0.98355 0.0
H689 H 0.00472 0.76093 0.97866 0.0
H690 H 0.88392 0.70774 0.04045 0.0
H691 H 0.94861 0.74285 0.06596 0.0
H692 H 0.04199 0.72763 0.02266 0.0
C693 C 0.90129 0.6657 0.9632 0.0
C694 C 0.85682 0.66232 0.95984 0.0
C695 C 0.83277 0.66889 0.97657 0.0
C696 C 0.85242 0.67867 0.99649 0.0
C697 C 0.89651 0.68234 0.99939 0.0
C698 C 0.92102 0.67653 0.98324 0.0
C699 C 0.97018 0.68785 0.99026 0.0
C700 C 0.97549 0.64364 0.98897 0.0
C701 C 0.00892 0.72916 0.97764 0.0
C702 C 0.96978 0.70208 0.01267 0.0
C703 C 0.92644 0.69757 0.01761 0.0
C704 C 0.91786 0.71098 0.03686 0.0
C705 C 0.95492 0.73096 0.05126 0.0
C706 C 1.00033 0.73779 0.04639 0.0
C707 C 0.00741 0.72191 0.027 0.0
H708 H 0.24481 0.91696 0.12189 0.0
H709 H 0.09748 0.82118 0.1377 0.0
H710 H 0.11069 0.85772 0.17223 0.0
H711 H 0.29595 0.92534 0.17337 0.0
H712 H 0.33749 0.98803 0.17155 0.0
H713 H 0.31845 0.95216 0.14843 0.0
H714 H 0.29082 0.00727 0.1325 0.0
H715 H 0.31015 0.04347 0.15547 0.0
H716 H 0.2498 0.01854 0.14665 0.0
H717 H 0.13811 0.90321 0.20452 0.0
H718 H 0.1753 0.96281 0.23189 0.0
H719 H 0.30474 0.03536 0.19556 0.0
C720 C 0.21562 0.90365 0.13276 0.0
C721 C 0.17015 0.86603 0.12723 0.0
C722 C 0.13249 0.85 0.14162 0.0
C723 C 0.13973 0.87028 0.16133 0.0
C724 C 0.18473 0.90722 0.16638 0.0
C725 C 0.22196 0.92452 0.15248 0.0
C726 C 0.26552 0.9674 0.16151 0.0
C727 C 0.3068 0.95763 0.16385 0.0
C728 C 0.27991 0.0118 0.14824 0.0
C729 C 0.24669 0.97132 0.18256 0.0
C730 C 0.20023 0.93556 0.18502 0.0
C731 C 0.17444 0.93152 0.20279 0.0
C732 C 0.19604 0.96574 0.21829 0.0
C733 C 0.243 0.00419 0.21595 0.0
C734 C 0.26899 0.00632 0.19795 0.0
H735 H 0.34279 0.2436 0.29399 0.0
H736 H 0.28942 0.09786 0.31296 0.0
H737 H 0.26392 0.11425 0.34636 0.0
H738 H 0.38144 0.29927 0.34589 0.0
H739 H 0.36096 0.34071 0.34151 0.0
H740 H 0.38085 0.31984 0.32001 0.0
H741 H 0.30057 0.29138 0.30141 0.0
H742 H 0.28053 0.31221 0.3228 0.0
H743 H 0.24622 0.25129 0.31458 0.0
H744 H 0.23982 0.14367 0.37646 0.0
H745 H 0.21309 0.18299 0.40101 0.0
H746 H 0.27777 0.30987 0.3628 0.0
C747 C 0.32675 0.21565 0.30544 0.0
C748 C 0.31866 0.16962 0.30111 0.0
C749 C 0.29616 0.13338 0.31609 0.0
C750 C 0.28174 0.1424 0.33513 0.0
C751 C 0.28949 0.1878 0.33892 0.0
C752 C 0.3111 0.22386 0.32451 0.0
C753 C 0.31075 0.26803 0.33188 0.0
C754 C 0.36153 0.30942 0.33501 0.0
C755 C 0.28285 0.2815 0.31677 0.0
C756 C 0.28505 0.25077 0.35248 0.0
C757 C 0.27385 0.20458 0.35627 0.0
C758 C 0.2486 0.17996 0.37376 0.0
C759 C 0.23348 0.20269 0.38763 0.0
C760 C 0.24322 0.24965 0.38395 0.0
C761 C 0.27017 0.27421 0.36625 0.0
H762 H 0.13605 0.27734 0.46712 0.0
H763 H 0.1334 0.40492 0.45029 0.0
H764 H 0.07294 0.38742 0.4773 0.0
H765 H 0.01191 0.20464 0.47717 0.0
H766 H 0.01995 0.17433 0.49879 0.0
H767 H 0.06318 0.19733 0.47829 0.0
H768 H 0.12943 0.24559 0.50509 0.0
H769 H 0.0864 0.22273 0.52568 0.0
H770 H 0.12344 0.28586 0.52229 0.0
H771 H 0.01019 0.35387 0.50557 0.0
H772 H 0.9531 0.30899 0.53347 0.0
H773 H 0.99933 0.20506 0.53236 0.0
C774 C 0.12289 0.30172 0.46915 0.0
C775 C 0.13945 0.34253 0.4566 0.0
C776 C 0.12133 0.37351 0.45977 0.0
C777 C 0.08693 0.36382 0.47505 0.0
C778 C 0.07123 0.32315 0.48713 0.0
C779 C 0.08887 0.29277 0.48441 0.0
C780 C 0.06626 0.2515 0.4994 0.0
C781 C 0.03869 0.20416 0.48771 0.0
C782 C 0.10361 0.25145 0.51398 0.0
C783 C 0.03307 0.2633 0.51098 0.0
C784 C 0.03618 0.30459 0.50362 0.0
C785 C 0.00775 0.32168 0.51154 0.0
C786 C 0.97536 0.29589 0.52738 0.0
C787 C 0.97191 0.25367 0.53528 0.0
C788 C 0.00144 0.23751 0.52692 0.0
H789 H 0.69626 0.96937 0.69375 0.0
H790 H 0.83132 0.03488 0.7262 0.0
H791 H 0.86588 0.09682 0.69959 0.0
H792 H 0.74284 0.98792 0.64344 0.0
H793 H 0.70105 0.00177 0.63166 0.0
H794 H 0.68429 0.96435 0.65424 0.0
H795 H 0.66257 0.02057 0.67349 0.0
H796 H 0.67875 0.05794 0.65087 0.0
H797 H 0.70589 0.08275 0.67552 0.0
H798 H 0.88941 0.14529 0.66791 0.0
H799 H 0.89846 0.18395 0.63408 0.0
H800 H 0.74831 0.09237 0.62195 0.0
C801 C 0.73272 0.99745 0.69552 0.0
C802 C 0.76101 0.99699 0.71214 0.0
C803 C 0.80885 0.03407 0.71365 0.0
C804 C 0.82892 0.0696 0.69859 0.0
C805 C 0.80075 0.06815 0.6821 0.0
C806 C 0.7535 0.03366 0.68055 0.0
C807 C 0.73209 0.03983 0.66063 0.0
C808 C 0.71401 0.99585 0.64667 0.0
C809 C 0.69247 0.05094 0.66542 0.0
C810 C 0.77501 0.08245 0.65115 0.0
C811 C 0.81418 0.09787 0.66385 0.0
C812 C 0.85884 0.13423 0.65799 0.0
C813 C 0.86369 0.15577 0.63869 0.0
C814 C 0.82405 0.14149 0.62555 0.0
C815 C 0.779 0.10451 0.63191 0.0
loop_
_geom_bond_atom_site_label_1
_geom_bond_atom_site_label_2
_geom_bond_distance
_geom_bond_site_symmetry_2
_ccdc_geom_bond_type
Co0 O1 2.216 . S
Co0 O2 2.091 . S
Co0 O4 2.004 . S
Co0 O10 2.021 . S
Co0 O12 2.137 . S
Co0 O13 2.244 . S
O1 Co0 2.216 . S
O1 C8 1.247 . S
O2 Co0 2.091 . S
O2 C8 1.261 . S
C3 O12 1.247 . S
C3 O13 1.272 . S
O4 Co0 2.004 . S
O4 C9 1.259 . S
Co5 O6 2.061 . S
Co5 O11 2.052 . S
Co5 O13 2.135 . S
O6 Co5 2.061 . S
O6 C9 1.235 . S
C7 O10 1.238 . S
C7 O11 1.241 . S
C8 O1 1.247 . S
C8 O2 1.261 . S
C9 O4 1.259 . S
C9 O6 1.235 . S
O10 Co0 2.021 . S
O10 C7 1.238 . S
O11 Co5 2.052 . S
O11 C7 1.241 . S
O12 Co0 2.137 . S
O12 C3 1.247 . S
O13 Co0 2.244 . S
O13 C3 1.272 . S
O13 Co5 2.135 . S
Co14 O15 2.216 . S
Co14 O16 2.091 . S
Co14 O18 2.004 . S
Co14 O24 2.021 . S
Co14 O26 2.137 . S
Co14 O27 2.244 . S
O15 Co14 2.216 . S
O15 C22 1.247 . S
O16 Co14 2.091 . S
O16 C22 1.261 . S
C17 O26 1.247 . S
C17 O27 1.272 . S
O18 Co14 2.004 . S
O18 C23 1.259 . S
Co19 O20 2.061 . S
Co19 O25 2.052 . S
Co19 O27 2.135 . S
O20 Co19 2.061 . S
O20 C23 1.235 . S
C21 O24 1.238 . S
C21 O25 1.241 . S
C22 O15 1.247 . S
C22 O16 1.261 . S
C23 O18 1.259 . S
C23 O20 1.235 . S
O24 Co14 2.021 . S
O24 C21 1.238 . S
O25 Co19 2.052 . S
O25 C21 1.241 . S
O26 Co14 2.137 . S
O26 C17 1.247 . S
O27 Co14 2.244 . S
O27 C17 1.272 . S
O27 Co19 2.135 . S
Co28 O29 2.216 . S
Co28 O30 2.091 . S
Co28 O32 2.004 . S
Co28 O38 2.021 . S
Co28 O40 2.137 . S
Co28 O41 2.244 . S
O29 Co28 2.216 . S
O29 C36 1.247 . S
O30 Co28 2.091 . S
O30 C36 1.261 . S
C31 O40 1.247 . S
C31 O41 1.272 . S
O32 Co28 2.004 . S
O32 C37 1.259 . S
Co33 O34 2.061 . S
Co33 O39 2.052 . S
Co33 O41 2.135 . S
O34 Co33 2.061 . S
O34 C37 1.235 . S
C35 O38 1.238 . S
C35 O39 1.241 . S
C36 O29 1.247 . S
C36 O30 1.261 . S
C37 O32 1.259 . S
C37 O34 1.235 . S
O38 Co28 2.021 . S
O38 C35 1.238 . S
O39 Co33 2.052 . S
O39 C35 1.241 . S
O40 Co28 2.137 . S
O40 C31 1.247 . S
O41 Co28 2.244 . S
O41 C31 1.272 . S
O41 Co33 2.135 . S
Co42 O43 2.216 . S
Co42 O44 2.091 . S
Co42 O46 2.004 . S
Co42 O52 2.021 . S
Co42 O54 2.137 . S
Co42 O55 2.244 . S
O43 Co42 2.216 . S
O43 C50 1.247 . S
O44 Co42 2.091 . S
O44 C50 1.261 . S
C45 O54 1.247 . S
C45 O55 1.272 . S
O46 Co42 2.004 . S
O46 C51 1.259 . S
Co47 O48 2.061 . S
Co47 O53 2.052 . S
Co47 O55 2.135 . S
O48 Co47 2.061 . S
O48 C51 1.235 . S
C49 O52 1.238 . S
C49 O53 1.241 . S
C50 O43 1.247 . S
C50 O44 1.261 . S
C51 O46 1.259 . S
C51 O48 1.235 . S
O52 Co42 2.021 . S
O52 C49 1.238 . S
O53 Co47 2.052 . S
O53 C49 1.241 . S
O54 Co42 2.137 . S
O54 C45 1.247 . S
O55 Co42 2.244 . S
O55 C45 1.272 . S
O55 Co47 2.135 . S
Co56 O57 2.216 . S
Co56 O58 2.091 . S
Co56 O60 2.004 . S
Co56 O66 2.021 . S
Co56 O68 2.137 . S
Co56 O69 2.244 . S
O57 Co56 2.216 . S
O57 C64 1.247 . S
O58 Co56 2.091 . S
O58 C64 1.261 . S
C59 O68 1.247 . S
C59 O69 1.272 . S
O60 Co56 2.004 . S
O60 C65 1.259 . S
Co61 O62 2.061 . S
Co61 O67 2.052 . S
Co61 O69 2.135 . S
O62 Co61 2.061 . S
O62 C65 1.235 . S
C63 O66 1.238 . S
C63 O67 1.241 . S
C64 O57 1.247 . S
C64 O58 1.261 . S
C65 O60 1.259 . S
C65 O62 1.235 . S
O66 Co56 2.021 . S
O66 C63 1.238 . S
O67 Co61 2.052 . S
O67 C63 1.241 . S
O68 Co56 2.137 . S
O68 C59 1.247 . S
O69 Co56 2.244 . S
O69 C59 1.272 . S
O69 Co61 2.135 . S
Co70 O71 2.216 . S
Co70 O72 2.091 . S
Co70 O74 2.004 . S
Co70 O80 2.021 . S
Co70 O82 2.137 . S
Co70 O83 2.244 . S
O71 Co70 2.216 . S
O71 C78 1.247 . S
O72 Co70 2.091 . S
O72 C78 1.261 . S
C73 O82 1.247 . S
C73 O83 1.272 . S
O74 Co70 2.004 . S
O74 C79 1.259 . S
Co75 O76 2.061 . S
Co75 O81 2.052 . S
Co75 O83 2.135 . S
O76 Co75 2.061 . S
O76 C79 1.235 . S
C77 O80 1.238 . S
C77 O81 1.241 . S
C78 O71 1.247 . S
C78 O72 1.261 . S
C79 O74 1.259 . S
C79 O76 1.235 . S
O80 Co70 2.021 . S
O80 C77 1.238 . S
O81 Co75 2.052 . S
O81 C77 1.241 . S
O82 Co70 2.137 . S
O82 C73 1.247 . S
O83 Co70 2.244 . S
O83 C73 1.272 . S
O83 Co75 2.135 . S
Co84 O85 2.216 . S
Co84 O86 2.091 . S
Co84 O88 2.004 . S
Co84 O94 2.021 . S
Co84 O96 2.137 . S
Co84 O97 2.244 . S
O85 Co84 2.216 . S
O85 C92 1.247 . S
O86 Co84 2.091 . S
O86 C92 1.261 . S
C87 O96 1.247 . S
C87 O97 1.272 . S
O88 Co84 2.004 . S
O88 C93 1.259 . S
Co89 O90 2.061 . S
Co89 O95 2.052 . S
Co89 O97 2.135 . S
O90 Co89 2.061 . S
O90 C93 1.235 . S
C91 O94 1.238 . S
C91 O95 1.241 . S
C92 O85 1.247 . S
C92 O86 1.261 . S
C93 O88 1.259 . S
C93 O90 1.235 . S
O94 Co84 2.021 . S
O94 C91 1.238 . S
O95 Co89 2.052 . S
O95 C91 1.241 . S
O96 Co84 2.137 . S
O96 C87 1.247 . S
O97 Co84 2.244 . S
O97 C87 1.272 . S
O97 Co89 2.135 . S
Co98 O99 2.216 . S
Co98 O100 2.091 . S
Co98 O102 2.004 . S
Co98 O108 2.021 . S
Co98 O110 2.137 . S
Co98 O111 2.244 . S
O99 Co98 2.216 . S
O99 C106 1.247 . S
O100 Co98 2.091 . S
O100 C106 1.261 . S
C101 O110 1.247 . S
C101 O111 1.272 . S
O102 Co98 2.004 . S
O102 C107 1.259 . S
Co103 O104 2.061 . S
Co103 O109 2.052 . S
Co103 O111 2.135 . S
O104 Co103 2.061 . S
O104 C107 1.235 . S
C105 O108 1.238 . S
C105 O109 1.241 . S
C106 O99 1.247 . S
C106 O100 1.261 . S
C107 O102 1.259 . S
C107 O104 1.235 . S
O108 Co98 2.021 . S
O108 C105 1.238 . S
O109 Co103 2.052 . S
O109 C105 1.241 . S
O110 Co98 2.137 . S
O110 C101 1.247 . S
O111 Co98 2.244 . S
O111 C101 1.272 . S
O111 Co103 2.135 . S
Co112 O113 2.216 . S
Co112 O114 2.091 . S
Co112 O116 2.004 . S
Co112 O122 2.021 . S
Co112 O124 2.137 . S
Co112 O125 2.244 . S
O113 Co112 2.216 . S
O113 C120 1.247 . S
O114 Co112 2.091 . S
O114 C120 1.261 . S
C115 O124 1.247 . S
C115 O125 1.272 . S
O116 Co112 2.004 . S
O116 C121 1.259 . S
Co117 O118 2.061 . S
Co117 O123 2.052 . S
Co117 O125 2.135 . S
O118 Co117 2.061 . S
O118 C121 1.235 . S
C119 O122 1.238 . S
C119 O123 1.241 . S
C120 O113 1.247 . S
C120 O114 1.261 . S
C121 O116 1.259 . S
C121 O118 1.235 . S
O122 Co112 2.021 . S
O122 C119 1.238 . S
O123 Co117 2.052 . S
O123 C119 1.241 . S
O124 Co112 2.137 . S
O124 C115 1.247 . S
O125 Co112 2.244 . S
O125 C115 1.272 . S
O125 Co117 2.135 . S
Co126 O127 2.216 . S
Co126 O128 2.091 . S
Co126 O130 2.004 . S
Co126 O136 2.021 . S
Co126 O138 2.137 . S
Co126 O139 2.244 . S
O127 Co126 2.216 . S
O127 C134 1.247 . S
O128 Co126 2.091 . S
O128 C134 1.261 . S
C129 O138 1.247 . S
C129 O139 1.272 . S
O130 Co126 2.004 . S
O130 C135 1.259 . S
Co131 O132 2.061 . S
Co131 O137 2.052 . S
Co131 O139 2.135 . S
O132 Co131 2.061 . S
O132 C135 1.235 . S
C133 O136 1.238 . S
C133 O137 1.241 . S
C134 O127 1.247 . S
C134 O128 1.261 . S
C135 O130 1.259 . S
C135 O132 1.235 . S
O136 Co126 2.021 . S
O136 C133 1.238 . S
O137 Co131 2.052 . S
O137 C133 1.241 . S
O138 Co126 2.137 . S
O138 C129 1.247 . S
O139 Co126 2.244 . S
O139 C129 1.272 . S
O139 Co131 2.135 . S
Co140 O141 2.216 . S
Co140 O142 2.091 . S
Co140 O144 2.004 . S
Co140 O150 2.021 . S
Co140 O152 2.137 . S
Co140 O153 2.244 . S
O141 Co140 2.216 . S
O141 C148 1.247 . S
O142 Co140 2.091 . S
O142 C148 1.261 . S
C143 O152 1.247 . S
C143 O153 1.272 . S
O144 Co140 2.004 . S
O144 C149 1.259 . S
Co145 O146 2.061 . S
Co145 O151 2.052 . S
Co145 O153 2.135 . S
O146 Co145 2.061 . S
O146 C149 1.235 . S
C147 O150 1.238 . S
C147 O151 1.241 . S
C148 O141 1.247 . S
C148 O142 1.261 . S
C149 O144 1.259 . S
C149 O146 1.235 . S
O150 Co140 2.021 . S
O150 C147 1.238 . S
O151 Co145 2.052 . S
O151 C147 1.241 . S
O152 Co140 2.137 . S
O152 C143 1.247 . S
O153 Co140 2.244 . S
O153 C143 1.272 . S
O153 Co145 2.135 . S
Co154 O155 2.216 . S
Co154 O156 2.091 . S
Co154 O158 2.004 . S
Co154 O164 2.021 . S
Co154 O166 2.137 . S
Co154 O167 2.244 . S
O155 Co154 2.216 . S
O155 C162 1.247 . S
O156 Co154 2.091 . S
O156 C162 1.261 . S
C157 O166 1.247 . S
C157 O167 1.272 . S
O158 Co154 2.004 . S
O158 C163 1.259 . S
Co159 O160 2.061 . S
Co159 O165 2.052 . S
Co159 O167 2.135 . S
O160 Co159 2.061 . S
O160 C163 1.235 . S
C161 O164 1.238 . S
C161 O165 1.241 . S
C162 O155 1.247 . S
C162 O156 1.261 . S
C163 O158 1.259 . S
C163 O160 1.235 . S
O164 Co154 2.021 . S
O164 C161 1.238 . S
O165 Co159 2.052 . S
O165 C161 1.241 . S
O166 Co154 2.137 . S
O166 C157 1.247 . S
O167 Co154 2.244 . S
O167 C157 1.272 . S
O167 Co159 2.135 . S
H168 C180 0.930 . S
H169 C182 0.930 . S
H170 C183 0.930 . S
H171 C187 0.959 . S
H172 C187 0.959 . S
H173 C187 0.961 . S
H174 C188 0.960 . S
H175 C188 0.961 . S
H176 C188 0.959 . S
H177 C191 0.929 . S
H178 C192 0.931 . S
H179 C194 0.930 . S
C180 H168 0.930 . S
C180 C181 1.399 . S
C180 C185 1.399 . S
C181 C180 1.399 . S
C181 C182 1.376 . S
C182 H169 0.930 . S
C182 C181 1.376 . S
C182 C183 1.388 . S
C183 H170 0.930 . S
C183 C182 1.388 . S
C183 C184 1.390 . S
C184 C183 1.390 . S
C184 C185 1.394 . S
C184 C190 1.465 . S
C185 C180 1.399 . S
C185 C184 1.394 . S
C185 C186 1.516 . S
C186 C185 1.516 . S
C186 C187 1.502 . S
C186 C188 1.561 . S
C186 C189 1.526 . S
C187 H171 0.959 . S
C187 H172 0.959 . S
C187 H173 0.961 . S
C187 C186 1.502 . S
C188 H174 0.960 . S
C188 H175 0.961 . S
C188 H176 0.959 . S
C188 C186 1.561 . S
C189 C186 1.526 . S
C189 C190 1.396 . S
C189 C194 1.390 . S
C190 C184 1.465 . S
C190 C189 1.396 . S
C190 C191 1.399 . S
C191 H177 0.929 . S
C191 C190 1.399 . S
C191 C192 1.385 . S
C192 H178 0.931 . S
C192 C191 1.385 . S
C192 C193 1.389 . S
C193 C192 1.389 . S
C193 C194 1.387 . S
C194 H179 0.930 . S
C194 C189 1.390 . S
C194 C193 1.387 . S
H195 C207 0.930 . S
H196 C209 0.930 . S
H197 C210 0.930 . S
H198 C214 0.959 . S
H199 C214 0.959 . S
H200 C214 0.961 . S
H201 C215 0.960 . S
H202 C215 0.961 . S
H203 C215 0.959 . S
H204 C218 0.929 . S
H205 C219 0.931 . S
H206 C221 0.930 . S
C207 H195 0.930 . S
C207 C208 1.399 . S
C207 C212 1.399 . S
C208 C207 1.399 . S
C208 C209 1.376 . S
C209 H196 0.930 . S
C209 C208 1.376 . S
C209 C210 1.388 . S
C210 H197 0.930 . S
C210 C209 1.388 . S
C210 C211 1.390 . S
C211 C210 1.390 . S
C211 C212 1.394 . S
C211 C217 1.465 . S
C212 C207 1.399 . S
C212 C211 1.394 . S
C212 C213 1.516 . S
C213 C212 1.516 . S
C213 C214 1.502 . S
C213 C215 1.561 . S
C213 C216 1.526 . S
C214 H198 0.959 . S
C214 H199 0.959 . S
C214 H200 0.961 . S
C214 C213 1.502 . S
C215 H201 0.960 . S
C215 H202 0.961 . S
C215 H203 0.959 . S
C215 C213 1.561 . S
C216 C213 1.526 . S
C216 C217 1.396 . S
C216 C221 1.390 . S
C217 C211 1.465 . S
C217 C216 1.396 . S
C217 C218 1.399 . S
C218 H204 0.929 . S
C218 C217 1.399 . S
C218 C219 1.385 . S
C219 H205 0.931 . S
C219 C218 1.385 . S
C219 C220 1.389 . S
C220 C219 1.389 . S
C220 C221 1.387 . S
C221 H206 0.930 . S
C221 C216 1.390 . S
C221 C220 1.387 . S
H222 C234 0.930 . S
H223 C236 0.930 . S
H224 C237 0.930 . S
H225 C241 0.959 . S
H226 C241 0.959 . S
H227 C241 0.961 . S
H228 C242 0.960 . S
H229 C242 0.961 . S
H230 C242 0.959 . S
H231 C245 0.929 . S
H232 C246 0.931 . S
H233 C248 0.930 . S
C234 H222 0.930 . S
C234 C235 1.399 . S
C234 C239 1.399 . S
C235 C234 1.399 . S
C235 C236 1.376 . S
C236 H223 0.930 . S
C236 C235 1.376 . S
C236 C237 1.388 . S
C237 H224 0.930 . S
C237 C236 1.388 . S
C237 C238 1.390 . S
C238 C237 1.390 . S
C238 C239 1.394 . S
C238 C244 1.465 . S
C239 C234 1.399 . S
C239 C238 1.394 . S
C239 C240 1.516 . S
C240 C239 1.516 . S
C240 C241 1.502 . S
C240 C242 1.561 . S
C240 C243 1.526 . S
C241 H225 0.959 . S
C241 H226 0.959 . S
C241 H227 0.961 . S
C241 C240 1.502 . S
C242 H228 0.960 . S
C242 H229 0.961 . S
C242 H230 0.959 . S
C242 C240 1.561 . S
C243 C240 1.526 . S
C243 C244 1.396 . S
C243 C248 1.390 . S
C244 C238 1.465 . S
C244 C243 1.396 . S
C244 C245 1.399 . S
C245 H231 0.929 . S
C245 C244 1.399 . S
C245 C246 1.385 . S
C246 H232 0.931 . S
C246 C245 1.385 . S
C246 C247 1.389 . S
C247 C246 1.389 . S
C247 C248 1.387 . S
C248 H233 0.930 . S
C248 C243 1.390 . S
C248 C247 1.387 . S
H249 C261 0.930 . S
H250 C263 0.930 . S
H251 C264 0.930 . S
H252 C268 0.959 . S
H253 C268 0.959 . S
H254 C268 0.961 . S
H255 C269 0.960 . S
H256 C269 0.961 . S
H257 C269 0.959 . S
H258 C272 0.929 . S
H259 C273 0.931 . S
H260 C275 0.930 . S
C261 H249 0.930 . S
C261 C262 1.399 . S
C261 C266 1.399 . S
C262 C261 1.399 . S
C262 C263 1.376 . S
C263 H250 0.930 . S
C263 C262 1.376 . S
C263 C264 1.388 . S
C264 H251 0.930 . S
C264 C263 1.388 . S
C264 C265 1.390 . S
C265 C264 1.390 . S
C265 C266 1.394 . S
C265 C271 1.465 . S
C266 C261 1.399 . S
C266 C265 1.394 . S
C266 C267 1.516 . S
C267 C266 1.516 . S
C267 C268 1.502 . S
C267 C269 1.561 . S
C267 C270 1.526 . S
C268 H252 0.959 . S
C268 H253 0.959 . S
C268 H254 0.961 . S
C268 C267 1.502 . S
C269 H255 0.960 . S
C269 H256 0.961 . S
C269 H257 0.959 . S
C269 C267 1.561 . S
C270 C267 1.526 . S
C270 C271 1.396 . S
C270 C275 1.390 . S
C271 C265 1.465 . S
C271 C270 1.396 . S
C271 C272 1.399 . S
C272 H258 0.929 . S
C272 C271 1.399 . S
C272 C273 1.385 . S
C273 H259 0.931 . S
C273 C272 1.385 . S
C273 C274 1.389 . S
C274 C273 1.389 . S
C274 C275 1.387 . S
C275 H260 0.930 . S
C275 C270 1.390 . S
C275 C274 1.387 . S
H276 C288 0.930 . S
H277 C290 0.930 . S
H278 C291 0.930 . S
H279 C295 0.959 . S
H280 C295 0.959 . S
H281 C295 0.961 . S
H282 C296 0.960 . S
H283 C296 0.961 . S
H284 C296 0.959 . S
H285 C299 0.929 . S
H286 C300 0.931 . S
H287 C302 0.930 . S
C288 H276 0.930 . S
C288 C289 1.399 . S
C288 C293 1.399 . S
C289 C288 1.399 . S
C289 C290 1.376 . S
C290 H277 0.930 . S
C290 C289 1.376 . S
C290 C291 1.388 . S
C291 H278 0.930 . S
C291 C290 1.388 . S
C291 C292 1.390 . S
C292 C291 1.390 . S
C292 C293 1.394 . S
C292 C298 1.465 . S
C293 C288 1.399 . S
C293 C292 1.394 . S
C293 C294 1.516 . S
C294 C293 1.516 . S
C294 C295 1.502 . S
C294 C296 1.561 . S
C294 C297 1.526 . S
C295 H279 0.959 . S
C295 H280 0.959 . S
C295 H281 0.961 . S
C295 C294 1.502 . S
C296 H282 0.960 . S
C296 H283 0.961 . S
C296 H284 0.959 . S
C296 C294 1.561 . S
C297 C294 1.526 . S
C297 C298 1.396 . S
C297 C302 1.390 . S
C298 C292 1.465 . S
C298 C297 1.396 . S
C298 C299 1.399 . S
C299 H285 0.929 . S
C299 C298 1.399 . S
C299 C300 1.385 . S
C300 H286 0.931 . S
C300 C299 1.385 . S
C300 C301 1.389 . S
C301 C300 1.389 . S
C301 C302 1.387 . S
C302 H287 0.930 . S
C302 C297 1.390 . S
C302 C301 1.387 . S
H303 C315 0.930 . S
H304 C317 0.930 . S
H305 C318 0.930 . S
H306 C322 0.959 . S
H307 C322 0.959 . S
H308 C322 0.961 . S
H309 C323 0.960 . S
H310 C323 0.961 . S
H311 C323 0.959 . S
H312 C326 0.929 . S
H313 C327 0.931 . S
H314 C329 0.930 . S
C315 H303 0.930 . S
C315 C316 1.399 . S
C315 C320 1.399 . S
C316 C315 1.399 . S
C316 C317 1.376 . S
C317 H304 0.930 . S
C317 C316 1.376 . S
C317 C318 1.388 . S
C318 H305 0.930 . S
C318 C317 1.388 . S
C318 C319 1.390 . S
C319 C318 1.390 . S
C319 C320 1.394 . S
C319 C325 1.465 . S
C320 C315 1.399 . S
C320 C319 1.394 . S
C320 C321 1.516 . S
C321 C320 1.516 . S
C321 C322 1.502 . S
C321 C323 1.561 . S
C321 C324 1.526 . S
C322 H306 0.959 . S
C322 H307 0.959 . S
C322 H308 0.961 . S
C322 C321 1.502 . S
C323 H309 0.960 . S
C323 H310 0.961 . S
C323 H311 0.959 . S
C323 C321 1.561 . S
C324 C321 1.526 . S
C324 C325 1.396 . S
C324 C329 1.390 . S
C325 C319 1.465 . S
C325 C324 1.396 . S
C325 C326 1.399 . S
C326 H312 0.929 . S
C326 C325 1.399 . S
C326 C327 1.385 . S
C327 H313 0.931 . S
C327 C326 1.385 . S
C327 C328 1.389 . S
C328 C327 1.389 . S
C328 C329 1.387 . S
C329 H314 0.930 . S
C329 C324 1.390 . S
C329 C328 1.387 . S
H330 C342 0.930 . S
H331 C344 0.930 . S
H332 C345 0.930 . S
H333 C349 0.959 . S
H334 C349 0.959 . S
H335 C349 0.961 . S
H336 C350 0.960 . S
H337 C350 0.961 . S
H338 C350 0.959 . S
H339 C353 0.929 . S
H340 C354 0.931 . S
H341 C356 0.930 . S
C342 H330 0.930 . S
C342 C343 1.399 . S
C342 C347 1.399 . S
C343 C342 1.399 . S
C343 C344 1.376 . S
C344 H331 0.930 . S
C344 C343 1.376 . S
C344 C345 1.388 . S
C345 H332 0.930 . S
C345 C344 1.388 . S
C345 C346 1.390 . S
C346 C345 1.390 . S
C346 C347 1.394 . S
C346 C352 1.465 . S
C347 C342 1.399 . S
C347 C346 1.394 . S
C347 C348 1.516 . S
C348 C347 1.516 . S
C348 C349 1.502 . S
C348 C350 1.561 . S
C348 C351 1.526 . S
C349 H333 0.959 . S
C349 H334 0.959 . S
C349 H335 0.961 . S
C349 C348 1.502 . S
C350 H336 0.960 . S
C350 H337 0.961 . S
C350 H338 0.959 . S
C350 C348 1.561 . S
C351 C348 1.526 . S
C351 C352 1.396 . S
C351 C356 1.390 . S
C352 C346 1.465 . S
C352 C351 1.396 . S
C352 C353 1.399 . S
C353 H339 0.929 . S
C353 C352 1.399 . S
C353 C354 1.385 . S
C354 H340 0.931 . S
C354 C353 1.385 . S
C354 C355 1.389 . S
C355 C354 1.389 . S
C355 C356 1.387 . S
C356 H341 0.930 . S
C356 C351 1.390 . S
C356 C355 1.387 . S
H357 C369 0.930 . S
H358 C371 0.930 . S
H359 C372 0.930 . S
H360 C376 0.959 . S
H361 C376 0.959 . S
H362 C376 0.961 . S
H363 C377 0.960 . S
H364 C377 0.961 . S
H365 C377 0.959 . S
H366 C380 0.929 1_655 S
H367 C381 0.931 . S
H368 C383 0.930 . S
C369 H357 0.930 . S
C369 C370 1.399 . S
C369 C374 1.399 . S
C370 C369 1.399 . S
C370 C371 1.376 . S
C371 H358 0.930 . S
C371 C370 1.376 . S
C371 C372 1.388 . S
C372 H359 0.930 . S
C372 C371 1.388 . S
C372 C373 1.390 . S
C373 C372 1.390 . S
C373 C374 1.394 . S
C373 C379 1.465 1_655 S
C374 C369 1.399 . S
C374 C373 1.394 . S
C374 C375 1.516 1_655 S
C375 C374 1.516 1_455 S
C375 C376 1.502 . S
C375 C377 1.561 . S
C375 C378 1.526 . S
C376 H360 0.959 . S
C376 H361 0.959 . S
C376 H362 0.961 . S
C376 C375 1.502 . S
C377 H363 0.960 . S
C377 H364 0.961 . S
C377 H365 0.959 . S
C377 C375 1.561 . S
C378 C375 1.526 . S
C378 C379 1.396 . S
C378 C383 1.390 . S
C379 C373 1.465 1_455 S
C379 C378 1.396 . S
C379 C380 1.399 . S
C380 H366 0.929 1_455 S
C380 C379 1.399 . S
C380 C381 1.385 . S
C381 H367 0.931 . S
C381 C380 1.385 . S
C381 C382 1.389 . S
C382 C381 1.389 . S
C382 C383 1.387 . S
C383 H368 0.930 . S
C383 C378 1.390 . S
C383 C382 1.387 . S
H384 C396 0.930 . S
H385 C398 0.930 . S
H386 C399 0.930 1_565 S
H387 C403 0.959 . S
H388 C403 0.959 . S
H389 C403 0.961 . S
H390 C404 0.960 . S
H391 C404 0.961 . S
H392 C404 0.959 . S
H393 C407 0.929 . S
H394 C408 0.931 . S
H395 C410 0.930 . S
C396 H384 0.930 . S
C396 C397 1.399 . S
C396 C401 1.399 . S
C397 C396 1.399 . S
C397 C398 1.376 . S
C398 H385 0.930 . S
C398 C397 1.376 . S
C398 C399 1.388 . S
C399 H386 0.930 1_545 S
C399 C398 1.388 . S
C399 C400 1.390 . S
C400 C399 1.390 . S
C400 C401 1.394 . S
C400 C406 1.465 1_545 S
C401 C396 1.399 . S
C401 C400 1.394 . S
C401 C402 1.516 . S
C402 C401 1.516 . S
C402 C403 1.502 . S
C402 C404 1.561 . S
C402 C405 1.526 1_545 S
C403 H387 0.959 . S
C403 H388 0.959 . S
C403 H389 0.961 . S
C403 C402 1.502 . S
C404 H390 0.960 . S
C404 H391 0.961 . S
C404 H392 0.959 . S
C404 C402 1.561 . S
C405 C402 1.526 1_565 S
C405 C406 1.396 . S
C405 C410 1.390 . S
C406 C400 1.465 1_565 S
C406 C405 1.396 . S
C406 C407 1.399 . S
C407 H393 0.929 . S
C407 C406 1.399 . S
C407 C408 1.385 . S
C408 H394 0.931 . S
C408 C407 1.385 . S
C408 C409 1.389 . S
C409 C408 1.389 . S
C409 C410 1.387 . S
C410 H395 0.930 . S
C410 C405 1.390 . S
C410 C409 1.387 . S
H411 C423 0.930 . S
H412 C425 0.930 . S
H413 C426 0.930 . S
H414 C430 0.959 . S
H415 C430 0.959 . S
H416 C430 0.961 . S
H417 C431 0.960 . S
H418 C431 0.961 . S
H419 C431 0.959 . S
H420 C434 0.929 . S
H421 C435 0.931 . S
H422 C437 0.930 . S
C423 H411 0.930 . S
C423 C424 1.399 . S
C423 C428 1.399 . S
C424 C423 1.399 . S
C424 C425 1.376 . S
C425 H412 0.930 . S
C425 C424 1.376 . S
C425 C426 1.388 . S
C426 H413 0.930 . S
C426 C425 1.388 . S
C426 C427 1.390 . S
C427 C426 1.390 . S
C427 C428 1.394 . S
C427 C433 1.465 . S
C428 C423 1.399 . S
C428 C427 1.394 . S
C428 C429 1.516 . S
C429 C428 1.516 . S
C429 C430 1.502 . S
C429 C431 1.561 . S
C429 C432 1.526 . S
C430 H414 0.959 . S
C430 H415 0.959 . S
C430 H416 0.961 . S
C430 C429 1.502 . S
C431 H417 0.960 . S
C431 H418 0.961 . S
C431 H419 0.959 . S
C431 C429 1.561 . S
C432 C429 1.526 . S
C432 C433 1.396 . S
C432 C437 1.390 . S
C433 C427 1.465 . S
C433 C432 1.396 . S
C433 C434 1.399 . S
C434 H420 0.929 . S
C434 C433 1.399 . S
C434 C435 1.385 . S
C435 H421 0.931 . S
C435 C434 1.385 . S
C435 C436 1.389 . S
C436 C435 1.389 . S
C436 C437 1.387 . S
C437 H422 0.930 . S
C437 C432 1.390 . S
C437 C436 1.387 . S
H438 C450 0.930 . S
H439 C452 0.930 . S
H440 C453 0.930 . S
H441 C457 0.959 . S
H442 C457 0.959 . S
H443 C457 0.961 . S
H444 C458 0.960 . S
H445 C458 0.961 . S
H446 C458 0.959 . S
H447 C461 0.929 . S
H448 C462 0.931 . S
H449 C464 0.930 . S
C450 H438 0.930 . S
C450 C451 1.399 . S
C450 C455 1.399 . S
C451 C450 1.399 . S
C451 C452 1.376 . S
C452 H439 0.930 . S
C452 C451 1.376 . S
C452 C453 1.388 . S
C453 H440 0.930 . S
C453 C452 1.388 . S
C453 C454 1.390 . S
C454 C453 1.390 . S
C454 C455 1.394 . S
C454 C460 1.465 1_655 S
C455 C450 1.399 . S
C455 C454 1.394 . S
C455 C456 1.516 1_655 S
C456 C455 1.516 1_455 S
C456 C457 1.502 . S
C456 C458 1.561 . S
C456 C459 1.526 . S
C457 H441 0.959 . S
C457 H442 0.959 . S
C457 H443 0.961 . S
C457 C456 1.502 . S
C458 H444 0.960 . S
C458 H445 0.961 . S
C458 H446 0.959 . S
C458 C456 1.561 . S
C459 C456 1.526 . S
C459 C460 1.396 . S
C459 C464 1.390 . S
C460 C454 1.465 1_455 S
C460 C459 1.396 . S
C460 C461 1.399 . S
C461 H447 0.929 . S
C461 C460 1.399 . S
C461 C462 1.385 . S
C462 H448 0.931 . S
C462 C461 1.385 . S
C462 C463 1.389 . S
C463 C462 1.389 . S
C463 C464 1.387 . S
C464 H449 0.930 . S
C464 C459 1.390 . S
C464 C463 1.387 . S
H465 C477 0.930 . S
H466 C479 0.930 . S
H467 C480 0.930 . S
H468 C484 0.959 . S
H469 C484 0.959 . S
H470 C484 0.961 . S
H471 C485 0.956 1_565 S
H472 C485 0.961 . S
H473 C485 0.959 . S
H474 C488 0.929 . S
H475 C489 0.931 . S
H476 C491 0.930 . S
C477 H465 0.930 . S
C477 C478 1.399 . S
C477 C482 1.399 . S
C478 C477 1.399 . S
C478 C479 1.376 . S
C479 H466 0.930 . S
C479 C478 1.376 . S
C479 C480 1.388 . S
C480 H467 0.930 . S
C480 C479 1.388 . S
C480 C481 1.390 . S
C481 C480 1.390 . S
C481 C482 1.394 . S
C481 C487 1.465 1_564 S
C482 C477 1.399 . S
C482 C481 1.394 . S
C482 C483 1.516 1_554 S
C483 C482 1.516 1_556 S
C483 C484 1.502 . S
C483 C485 1.561 1_566 S
C483 C486 1.526 1_565 S
C484 H468 0.959 . S
C484 H469 0.959 . S
C484 H470 0.961 . S
C484 C483 1.502 . S
C485 H471 0.956 1_545 S
C485 H472 0.961 . S
C485 H473 0.959 . S
C485 C483 1.561 1_544 S
C486 C483 1.526 1_545 S
C486 C487 1.396 . S
C486 C491 1.390 . S
C487 C481 1.465 1_546 S
C487 C486 1.396 . S
C487 C488 1.399 . S
C488 H474 0.929 . S
C488 C487 1.399 . S
C488 C489 1.385 . S
C489 H475 0.931 . S
C489 C488 1.385 . S
C489 C490 1.389 . S
C490 C489 1.389 . S
C490 C491 1.387 . S
C491 H476 0.930 . S
C491 C486 1.390 . S
C491 C490 1.387 . S
H492 C504 0.930 . S
H493 C506 0.930 . S
H494 C507 0.930 . S
H495 C511 0.959 . S
H496 C511 0.959 . S
H497 C511 0.961 . S
H498 C512 0.960 . S
H499 C512 0.988 . S
H500 C512 0.959 . S
H501 C515 0.929 . S
H502 C516 0.931 . S
H503 C518 0.930 . S
C504 H492 0.930 . S
C504 C505 1.399 . S
C504 C509 1.399 . S
C505 C504 1.399 . S
C505 C506 1.376 . S
C506 H493 0.930 . S
C506 C505 1.376 . S
C506 C507 1.388 . S
C507 H494 0.930 . S
C507 C506 1.388 . S
C507 C508 1.390 . S
C508 C507 1.390 . S
C508 C509 1.394 . S
C508 C514 1.465 . S
C509 C504 1.399 . S
C509 C508 1.394 . S
C509 C510 1.516 . S
C510 C509 1.516 . S
C510 C511 1.502 1_554 S
C510 C512 1.561 . S
C510 C513 1.526 1_554 S
C511 H495 0.959 . S
C511 H496 0.959 . S
C511 H497 0.961 . S
C511 C510 1.502 1_556 S
C512 H498 0.960 . S
C512 H499 0.988 . S
C512 H500 0.959 . S
C512 C510 1.561 . S
C513 C510 1.526 1_556 S
C513 C514 1.396 1_556 S
C513 C518 1.390 . S
C514 C508 1.465 . S
C514 C513 1.396 1_554 S
C514 C515 1.399 . S
C515 H501 0.929 . S
C515 C514 1.399 . S
C515 C516 1.385 1_554 S
C516 H502 0.931 . S
C516 C515 1.385 1_556 S
C516 C517 1.389 . S
C517 C516 1.389 . S
C517 C518 1.387 . S
C518 H503 0.930 . S
C518 C513 1.390 . S
C518 C517 1.387 . S
H519 C531 0.930 . S
H520 C533 0.930 . S
H521 C534 0.930 . S
H522 C538 0.959 . S
H523 C538 0.959 . S
H524 C538 0.961 . S
H525 C539 0.960 . S
H526 C539 0.961 1_455 S
H527 C539 0.959 . S
H528 C542 0.929 . S
H529 C543 0.931 . S
H530 C545 0.930 . S
C531 H519 0.930 . S
C531 C532 1.399 . S
C531 C536 1.399 . S
C532 C531 1.399 . S
C532 C533 1.376 . S
C533 H520 0.930 . S
C533 C532 1.376 . S
C533 C534 1.388 . S
C534 H521 0.930 . S
C534 C533 1.388 . S
C534 C535 1.390 . S
C535 C534 1.390 . S
C535 C536 1.394 . S
C535 C541 1.465 . S
C536 C531 1.399 . S
C536 C535 1.394 . S
C536 C537 1.516 . S
C537 C536 1.516 . S
C537 C538 1.502 1_655 S
C537 C539 1.561 . S
C537 C540 1.526 . S
C538 H522 0.959 . S
C538 H523 0.959 . S
C538 H524 0.961 . S
C538 C537 1.502 1_455 S
C539 H525 0.960 . S
C539 H526 0.961 1_655 S
C539 H527 0.959 . S
C539 C537 1.561 . S
C540 C537 1.526 . S
C540 C541 1.396 . S
C540 C545 1.390 1_655 S
C541 C535 1.465 . S
C541 C540 1.396 . S
C541 C542 1.399 . S
C542 H528 0.929 . S
C542 C541 1.399 . S
C542 C543 1.385 . S
C543 H529 0.931 . S
C543 C542 1.385 . S
C543 C544 1.389 1_655 S
C544 C543 1.389 1_455 S
C544 C545 1.387 . S
C545 H530 0.930 . S
C545 C540 1.390 1_455 S
C545 C544 1.387 . S
H546 C558 0.930 . S
H547 C560 0.930 . S
H548 C561 0.930 . S
H549 C565 0.959 . S
H550 C565 0.959 . S
H551 C565 0.961 . S
H552 C566 0.960 1_545 S
H553 C566 0.961 . S
H554 C566 0.959 . S
H555 C569 0.929 . S
H556 C570 0.931 . S
H557 C572 0.930 . S
C558 H546 0.930 . S
C558 C559 1.399 . S
C558 C563 1.399 1_545 S
C559 C558 1.399 . S
C559 C560 1.376 1_545 S
C560 H547 0.930 . S
C560 C559 1.376 1_565 S
C560 C561 1.388 . S
C561 H548 0.930 . S
C561 C560 1.388 . S
C561 C562 1.390 . S
C562 C561 1.390 . S
C562 C563 1.394 . S
C562 C568 1.465 . S
C563 C558 1.399 1_565 S
C563 C562 1.394 . S
C563 C564 1.516 . S
C564 C563 1.516 . S
C564 C565 1.502 1_565 S
C564 C566 1.561 . S
C564 C567 1.526 . S
C565 H549 0.959 . S
C565 H550 0.959 . S
C565 H551 0.961 . S
C565 C564 1.502 1_545 S
C566 H552 0.960 1_565 S
C566 H553 0.961 . S
C566 H554 0.959 . S
C566 C564 1.561 . S
C567 C564 1.526 . S
C567 C568 1.396 . S
C567 C572 1.390 . S
C568 C562 1.465 . S
C568 C567 1.396 . S
C568 C569 1.399 . S
C569 H555 0.929 . S
C569 C568 1.399 . S
C569 C570 1.385 . S
C570 H556 0.931 . S
C570 C569 1.385 . S
C570 C571 1.389 . S
C571 C570 1.389 . S
C571 C572 1.387 . S
C572 H557 0.930 . S
C572 C567 1.390 . S
C572 C571 1.387 . S
H573 C585 0.930 . S
H574 C587 0.930 . S
H575 C588 0.930 . S
H576 C592 0.959 . S
H577 C592 0.959 . S
H578 C592 0.961 . S
H579 C593 0.960 . S
H580 C593 0.961 . S
H581 C593 0.959 . S
H582 C596 0.929 . S
H583 C597 0.931 . S
H584 C599 0.930 . S
C585 H573 0.930 . S
C585 C586 1.399 . S
C585 C590 1.399 . S
C586 C585 1.399 . S
C586 C587 1.376 . S
C587 H574 0.930 . S
C587 C586 1.376 . S
C587 C588 1.388 . S
C588 H575 0.930 . S
C588 C587 1.388 . S
C588 C589 1.390 . S
C589 C588 1.390 . S
C589 C590 1.394 . S
C589 C595 1.465 . S
C590 C585 1.399 . S
C590 C589 1.394 . S
C590 C591 1.516 . S
C591 C590 1.516 . S
C591 C592 1.502 . S
C591 C593 1.561 . S
C591 C594 1.526 . S
C592 H576 0.959 . S
C592 H577 0.959 . S
C592 H578 0.961 . S
C592 C591 1.502 . S
C593 H579 0.960 . S
C593 H580 0.961 . S
C593 H581 0.959 . S
C593 C591 1.561 . S
C594 C591 1.526 . S
C594 C595 1.396 . S
C594 C599 1.390 . S
C595 C589 1.465 . S
C595 C594 1.396 . S
C595 C596 1.399 . S
C596 H582 0.929 . S
C596 C595 1.399 . S
C596 C597 1.385 . S
C597 H583 0.931 . S
C597 C596 1.385 . S
C597 C598 1.389 . S
C598 C597 1.389 . S
C598 C599 1.387 . S
C599 H584 0.930 . S
C599 C594 1.390 . S
C599 C598 1.387 . S
H600 C612 0.930 . S
H601 C614 0.930 . S
H602 C615 0.930 . S
H603 C619 0.959 . S
H604 C619 0.959 . S
H605 C619 0.961 . S
H606 C620 0.960 . S
H607 C620 0.961 . S
H608 C620 0.959 . S
H609 C623 0.929 . S
H610 C624 0.931 . S
H611 C626 0.930 1_655 S
C612 H600 0.930 . S
C612 C613 1.399 . S
C612 C617 1.399 . S
C613 C612 1.399 . S
C613 C614 1.376 . S
C614 H601 0.930 . S
C614 C613 1.376 . S
C614 C615 1.388 . S
C615 H602 0.930 . S
C615 C614 1.388 . S
C615 C616 1.390 . S
C616 C615 1.390 . S
C616 C617 1.394 . S
C616 C622 1.465 . S
C617 C612 1.399 . S
C617 C616 1.394 . S
C617 C618 1.516 . S
C618 C617 1.516 . S
C618 C619 1.502 . S
C618 C620 1.561 . S
C618 C621 1.526 . S
C619 H603 0.959 . S
C619 H604 0.959 . S
C619 H605 0.961 . S
C619 C618 1.502 . S
C620 H606 0.960 . S
C620 H607 0.961 . S
C620 H608 0.959 . S
C620 C618 1.561 . S
C621 C618 1.526 . S
C621 C622 1.396 . S
C621 C626 1.390 . S
C622 C616 1.465 . S
C622 C621 1.396 . S
C622 C623 1.399 . S
C623 H609 0.929 . S
C623 C622 1.399 . S
C623 C624 1.385 1_455 S
C624 H610 0.931 . S
C624 C623 1.385 1_655 S
C624 C625 1.389 . S
C625 C624 1.389 . S
C625 C626 1.387 1_655 S
C626 H611 0.930 1_455 S
C626 C621 1.390 . S
C626 C625 1.387 1_455 S
H627 C639 0.930 . S
H628 C641 0.930 . S
H629 C642 0.930 . S
H630 C646 0.959 . S
H631 C646 0.959 . S
H632 C646 0.961 . S
H633 C647 0.960 . S
H634 C647 0.961 . S
H635 C647 0.959 . S
H636 C650 0.929 . S
H637 C651 0.931 . S
H638 C653 0.930 . S
C639 H627 0.930 . S
C639 C640 1.399 . S
C639 C644 1.399 . S
C640 C639 1.399 . S
C640 C641 1.376 . S
C641 H628 0.930 . S
C641 C640 1.376 . S
C641 C642 1.388 . S
C642 H629 0.930 . S
C642 C641 1.388 . S
C642 C643 1.390 . S
C643 C642 1.390 . S
C643 C644 1.394 . S
C643 C649 1.465 . S
C644 C639 1.399 . S
C644 C643 1.394 . S
C644 C645 1.516 . S
C645 C644 1.516 . S
C645 C646 1.502 . S
C645 C647 1.561 . S
C645 C648 1.526 . S
C646 H630 0.959 . S
C646 H631 0.959 . S
C646 H632 0.961 . S
C646 C645 1.502 . S
C647 H633 0.960 . S
C647 H634 0.961 . S
C647 H635 0.959 . S
C647 C645 1.561 . S
C648 C645 1.526 . S
C648 C649 1.396 . S
C648 C653 1.390 . S
C649 C643 1.465 . S
C649 C648 1.396 . S
C649 C650 1.399 1_545 S
C650 H636 0.929 . S
C650 C649 1.399 1_565 S
C650 C651 1.385 . S
C651 H637 0.931 . S
C651 C650 1.385 . S
C651 C652 1.389 . S
C652 C651 1.389 . S
C652 C653 1.387 1_565 S
C653 H638 0.930 . S
C653 C648 1.390 . S
C653 C652 1.387 1_545 S
H654 C666 0.930 . S
H655 C668 0.930 . S
H656 C669 0.930 . S
H657 C673 0.959 . S
H658 C673 0.959 . S
H659 C673 0.961 . S
H660 C674 0.960 . S
H661 C674 0.961 . S
H662 C674 0.959 . S
H663 C677 0.929 . S
H664 C678 0.931 . S
H665 C680 0.930 . S
C666 H654 0.930 . S
C666 C667 1.399 . S
C666 C671 1.399 . S
C667 C666 1.399 . S
C667 C668 1.376 . S
C668 H655 0.930 . S
C668 C667 1.376 . S
C668 C669 1.388 . S
C669 H656 0.930 . S
C669 C668 1.388 . S
C669 C670 1.390 . S
C670 C669 1.390 . S
C670 C671 1.394 . S
C670 C676 1.465 . S
C671 C666 1.399 . S
C671 C670 1.394 . S
C671 C672 1.516 . S
C672 C671 1.516 . S
C672 C673 1.502 . S
C672 C674 1.561 . S
C672 C675 1.526 . S
C673 H657 0.959 . S
C673 H658 0.959 . S
C673 H659 0.961 . S
C673 C672 1.502 . S
C674 H660 0.960 . S
C674 H661 0.961 . S
C674 H662 0.959 . S
C674 C672 1.561 . S
C675 C672 1.526 . S
C675 C676 1.396 . S
C675 C680 1.390 . S
C676 C670 1.465 . S
C676 C675 1.396 . S
C676 C677 1.399 . S
C677 H663 0.929 . S
C677 C676 1.399 . S
C677 C678 1.385 . S
C678 H664 0.931 . S
C678 C677 1.385 . S
C678 C679 1.389 . S
C679 C678 1.389 . S
C679 C680 1.387 . S
C680 H665 0.930 . S
C680 C675 1.390 . S
C680 C679 1.387 . S
H681 C693 0.930 . S
H682 C695 0.930 . S
H683 C696 0.930 . S
H684 C700 0.959 . S
H685 C700 0.959 . S
H686 C700 0.961 . S
H687 C701 0.958 1_655 S
H688 C701 0.961 . S
H689 C701 0.959 . S
H690 C704 0.929 . S
H691 C705 0.931 . S
H692 C707 0.930 . S
C693 H681 0.930 . S
C693 C694 1.399 . S
C693 C698 1.399 . S
C694 C693 1.399 . S
C694 C695 1.376 . S
C695 H682 0.930 . S
C695 C694 1.376 . S
C695 C696 1.388 . S
C696 H683 0.930 . S
C696 C695 1.388 . S
C696 C697 1.390 . S
C697 C696 1.390 . S
C697 C698 1.394 . S
C697 C703 1.470 1_556 S
C698 C693 1.399 . S
C698 C697 1.394 . S
C698 C699 1.516 . S
C699 C698 1.516 . S
C699 C700 1.502 . S
C699 C701 1.561 1_655 S
C699 C702 1.526 . S
C700 H684 0.959 . S
C700 H685 0.959 . S
C700 H686 0.961 . S
C700 C699 1.502 . S
C701 H687 0.958 1_455 S
C701 H688 0.961 . S
C701 H689 0.959 . S
C701 C699 1.561 1_455 S
C702 C699 1.526 . S
C702 C703 1.397 1_556 S
C702 C707 1.390 1_656 S
C703 C697 1.470 1_554 S
C703 C702 1.397 1_554 S
C703 C704 1.393 . S
C704 H690 0.929 . S
C704 C703 1.393 . S
C704 C705 1.385 . S
C705 H691 0.931 . S
C705 C704 1.385 . S
C705 C706 1.389 1_655 S
C706 C705 1.389 1_455 S
C706 C707 1.387 . S
C707 H692 0.930 . S
C707 C702 1.390 1_454 S
C707 C706 1.387 . S
H708 C720 0.930 . S
H709 C722 0.930 . S
H710 C723 0.930 . S
H711 C727 0.959 . S
H712 C727 0.959 1_545 S
H713 C727 0.961 . S
H714 C728 0.960 . S
H715 C728 0.961 . S
H716 C728 0.959 . S
H717 C731 0.929 . S
H718 C732 0.931 . S
H719 C734 0.930 . S
C720 H708 0.930 . S
C720 C721 1.399 . S
C720 C725 1.399 . S
C721 C720 1.399 . S
C721 C722 1.376 . S
C722 H709 0.930 . S
C722 C721 1.376 . S
C722 C723 1.388 . S
C723 H710 0.930 . S
C723 C722 1.388 . S
C723 C724 1.390 . S
C724 C723 1.390 . S
C724 C725 1.394 . S
C724 C730 1.465 . S
C725 C720 1.399 . S
C725 C724 1.394 . S
C725 C726 1.516 . S
C726 C725 1.516 . S
C726 C727 1.502 . S
C726 C728 1.561 1_565 S
C726 C729 1.526 . S
C727 H711 0.959 . S
C727 H712 0.959 1_565 S
C727 H713 0.961 . S
C727 C726 1.502 . S
C728 H714 0.960 . S
C728 H715 0.961 . S
C728 H716 0.959 . S
C728 C726 1.561 1_545 S
C729 C726 1.526 . S
C729 C730 1.396 . S
C729 C734 1.390 1_565 S
C730 C724 1.465 . S
C730 C729 1.396 . S
C730 C731 1.399 . S
C731 H717 0.929 . S
C731 C730 1.399 . S
C731 C732 1.385 . S
C732 H718 0.931 . S
C732 C731 1.385 . S
C732 C733 1.389 1_565 S
C733 C732 1.389 1_545 S
C733 C734 1.387 . S
C734 H719 0.930 . S
C734 C729 1.390 1_545 S
C734 C733 1.387 . S
H735 C747 0.930 . S
H736 C749 0.930 . S
H737 C750 0.930 . S
H738 C754 0.959 . S
H739 C754 0.959 . S
H740 C754 0.961 . S
H741 C755 0.960 . S
H742 C755 0.961 . S
H743 C755 0.959 . S
H744 C758 0.929 . S
H745 C759 0.931 . S
H746 C761 0.930 . S
C747 H735 0.930 . S
C747 C748 1.399 . S
C747 C752 1.399 . S
C748 C747 1.399 . S
C748 C749 1.376 . S
C749 H736 0.930 . S
C749 C748 1.376 . S
C749 C750 1.388 . S
C750 H737 0.930 . S
C750 C749 1.388 . S
C750 C751 1.390 . S
C751 C750 1.390 . S
C751 C752 1.394 . S
C751 C757 1.465 . S
C752 C747 1.399 . S
C752 C751 1.394 . S
C752 C753 1.516 . S
C753 C752 1.516 . S
C753 C754 1.502 . S
C753 C755 1.561 . S
C753 C756 1.526 . S
C754 H738 0.959 . S
C754 H739 0.959 . S
C754 H740 0.961 . S
C754 C753 1.502 . S
C755 H741 0.960 . S
C755 H742 0.961 . S
C755 H743 0.959 . S
C755 C753 1.561 . S
C756 C753 1.526 . S
C756 C757 1.396 . S
C756 C761 1.390 . S
C757 C751 1.465 . S
C757 C756 1.396 . S
C757 C758 1.399 . S
C758 H744 0.929 . S
C758 C757 1.399 . S
C758 C759 1.385 . S
C759 H745 0.931 . S
C759 C758 1.385 . S
C759 C760 1.389 . S
C760 C759 1.389 . S
C760 C761 1.387 . S
C761 H746 0.930 . S
C761 C756 1.390 . S
C761 C760 1.387 . S
H762 C774 0.930 . S
H763 C776 0.930 . S
H764 C777 0.930 . S
H765 C781 0.959 . S
H766 C781 0.959 . S
H767 C781 0.961 . S
H768 C782 0.960 . S
H769 C782 0.961 . S
H770 C782 0.959 . S
H771 C785 0.929 . S
H772 C786 0.931 . S
H773 C788 0.930 . S
C774 H762 0.930 . S
C774 C775 1.399 . S
C774 C779 1.399 . S
C775 C774 1.399 . S
C775 C776 1.376 . S
C776 H763 0.930 . S
C776 C775 1.376 . S
C776 C777 1.388 . S
C777 H764 0.930 . S
C777 C776 1.388 . S
C777 C778 1.390 . S
C778 C777 1.390 . S
C778 C779 1.394 . S
C778 C784 1.465 . S
C779 C774 1.399 . S
C779 C778 1.394 . S
C779 C780 1.516 . S
C780 C779 1.516 . S
C780 C781 1.502 1_455 S
C780 C782 1.561 . S
C780 C783 1.526 . S
C781 H765 0.959 . S
C781 H766 0.959 . S
C781 H767 0.961 . S
C781 C780 1.502 1_655 S
C782 H768 0.960 . S
C782 H769 0.961 . S
C782 H770 0.959 . S
C782 C780 1.561 . S
C783 C780 1.526 . S
C783 C784 1.396 . S
C783 C788 1.390 1_455 S
C784 C778 1.465 . S
C784 C783 1.396 . S
C784 C785 1.399 . S
C785 H771 0.929 . S
C785 C784 1.399 . S
C785 C786 1.385 . S
C786 H772 0.931 . S
C786 C785 1.385 . S
C786 C787 1.389 1_455 S
C787 C786 1.389 1_655 S
C787 C788 1.387 . S
C788 H773 0.930 . S
C788 C783 1.390 1_655 S
C788 C787 1.387 . S
H789 C801 0.930 . S
H790 C803 0.930 . S
H791 C804 0.930 . S
H792 C808 0.959 . S
H793 C808 0.959 . S
H794 C808 0.961 . S
H795 C809 0.960 1_565 S
H796 C809 0.961 . S
H797 C809 0.959 . S
H798 C812 0.929 . S
H799 C813 0.931 . S
H800 C815 0.930 . S
C801 H789 0.930 . S
C801 C802 1.399 . S
C801 C806 1.399 1_565 S
C802 C801 1.399 . S
C802 C803 1.376 1_565 S
C803 H790 0.930 . S
C803 C802 1.376 1_545 S
C803 C804 1.388 . S
C804 H791 0.930 . S
C804 C803 1.388 . S
C804 C805 1.390 . S
C805 C804 1.390 . S
C805 C806 1.394 . S
C805 C811 1.465 . S
C806 C801 1.399 1_545 S
C806 C805 1.394 . S
C806 C807 1.516 . S
C807 C806 1.516 . S
C807 C808 1.502 1_545 S
C807 C809 1.561 . S
C807 C810 1.526 . S
C808 H792 0.959 . S
C808 H793 0.959 . S
C808 H794 0.961 . S
C808 C807 1.502 1_565 S
C809 H795 0.960 1_545 S
C809 H796 0.961 . S
C809 H797 0.959 . S
C809 C807 1.561 . S
C810 C807 1.526 . S
C810 C811 1.396 . S
C810 C815 1.390 . S
C811 C805 1.465 . S
C811 C810 1.396 . S
C811 C812 1.399 . S
C812 H798 0.929 . S
C812 C811 1.399 . S
C812 C813 1.385 . S
C813 H799 0.931 . S
C813 C812 1.385 . S
C813 C814 1.389 . S
C814 C813 1.389 . S
C814 C815 1.387 . S
C815 H800 0.930 . S
C815 C810 1.390 . S
C815 C814 1.387 . S
C181 C120 1.293 . S
C193 C8 1.289 . S
C208 C22 1.295 . S
C220 C134 1.291 . S
C235 C36 1.292 . S
C247 C148 1.289 . S
C262 C50 1.291 . S
C274 C162 1.288 . S
C289 C92 1.291 . S
C301 C64 1.288 . S
C316 C78 1.294 . S
C328 C106 1.290 . S
C343 C135 0.908 . S
C355 C9 0.948 . S
C370 C23 1.007 . S
C382 C149 0.967 . S
C397 C163 0.912 . S
C409 C37 0.959 . S
C424 C51 1.005 . S
C436 C93 0.997 . S
C451 C107 1.009 . S
C463 C65 0.983 . S
C478 C121 0.986 . S
C490 C79 1.008 . S
C505 C3 1.423 . S
C517 C77 1.354 . S
C532 C17 1.446 . S
C544 C7 1.424 . S
C559 C21 1.428 . S
C571 C31 1.442 . S
C586 C45 1.431 . S
C598 C35 1.350 . S
C613 C59 1.415 . S
C625 C49 1.434 . S
C640 C73 1.422 . S
C652 C63 1.354 . S
C667 C87 1.456 . S
C679 C105 1.403 . S
C694 C101 1.457 . S
C706 C119 1.369 . S
C721 C115 1.459 . S
C733 C133 1.379 . S
C748 C129 1.459 . S
C760 C147 1.389 . S
C775 C143 1.435 . S
C787 C161 1.433 . S
C802 C91 1.428 . S
C814 C157 1.442 . S
