# Generated by pormake.
# Topology ths, (3)-cn, num edge types: 1
# Building blocks:
#     Node 0, Type 0, BuildingBlock: WUSLED_clean_sbu_0, # of connection points: 3
#     Node 1, Type 0, BuildingBlock: WUSLED_clean_sbu_0, # of connection points: 3
#     Node 2, Type 0, BuildingBlock: WUSLED_clean_sbu_0, # of connection points: 3
#     Node 3, Type 0, BuildingBlock: WUSLED_clean_sbu_0, # of connection points: 3
#     Node 4, Type 0, BuildingBlock: WUSLED_clean_sbu_0, # of connection points: 3
#     Node 5, Type 0, BuildingBlock: WUSLED_clean_sbu_0, # of connection points: 3
#     Node 6, Type 0, BuildingBlock: WUSLED_clean_sbu_0, # of connection points: 3
#     Node 7, Type 0, BuildingBlock: WUSLED_clean_sbu_0, # of connection points: 3
#     Edge 8, Type (0, 0), BuildingBlock: OJICUG_clean_linker_0, # of connection points: 2
#     Edge 9, Type (0, 0), BuildingBlock: OJICUG_clean_linker_0, # of connection points: 2
#     Edge 10, Type (0, 0), BuildingBlock: OJICUG_clean_linker_0, # of connection points: 2
#     Edge 11, Type (0, 0), BuildingBlock: OJICUG_clean_linker_0, # of connection points: 2
#     Edge 12, Type (0, 0), BuildingBlock: OJICUG_clean_linker_0, # of connection points: 2
#     Edge 13, Type (0, 0), BuildingBlock: OJICUG_clean_linker_0, # of connection points: 2
#     Edge 14, Type (0, 0), BuildingBlock: OJICUG_clean_linker_0, # of connection points: 2
#     Edge 15, Type (0, 0), BuildingBlock: OJICUG_clean_linker_0, # of connection points: 2
#     Edge 16, Type (0, 0), BuildingBlock: OJICUG_clean_linker_0, # of connection points: 2
#     Edge 17, Type (0, 0), BuildingBlock: OJICUG_clean_linker_0, # of connection points: 2
#     Edge 18, Type (0, 0), BuildingBlock: OJICUG_clean_linker_0, # of connection points: 2
#     Edge 19, Type (0, 0), BuildingBlock: OJICUG_clean_linker_0, # of connection points: 2
# Relax obj value: 0.000
# Max RMSD: 0.002
# Mean RMSD: 0.002
data_MOF--net-ths--node1-WUSLED_clean_sbu_0--edge1-OJICUG_clean_linker_0
_symmetry_space_group_name_H-M    P1
_symmetry_Int_Tables_number       1
_symmetry_cell_setting            triclinic
loop_
_symmetry_equiv_pos_as_xyz
'x, y, z'
_cell_length_a     32.745336
_cell_length_b     32.697302
_cell_length_c     110.56638
_cell_angle_alpha  88.786371
_cell_angle_beta   90.76995
_cell_angle_gamma 90.300497
loop_
_atom_site_label
_atom_site_type_symbol
_atom_site_fract_x
_atom_site_fract_y
_atom_site_fract_z
_atom_type_partial_charge
C0 C 0.08375 0.86094 0.0434 0.0
C1 C 0.0827 0.89207 0.05193 0.0
C2 C 0.08426 0.94399 0.03575 0.0
C3 C 0.08292 0.93322 0.04814 0.0
C4 C 0.08529 0.91252 1.02726 0.0
C5 C 0.08503 0.87142 0.03106 0.0
U6 U 0.08381 0.77785 0.06817 0.0
O7 O 0.05066 0.71921 0.06927 0.0
O8 O 0.11765 0.71987 0.06953 0.0
C9 C 0.08427 0.69742 0.06911 0.0
C10 C 0.08373 0.81755 0.04725 0.0
C11 C 0.08447 0.66372 0.06048 0.0
C12 C 0.07918 0.63833 0.03999 0.0
C13 C 0.07921 0.671 0.048 0.0
C14 C 0.08993 0.59091 0.05685 0.0
C15 C 0.08454 0.59782 0.04432 0.0
C16 C 0.08987 0.62354 0.06483 0.0
C17 C 0.08409 0.81134 0.10135 0.0
C18 C 0.08332 0.76433 0.11869 0.0
C19 C 0.08716 0.8374 0.12175 0.0
C20 C 0.08636 0.84426 0.10923 0.0
C21 C 0.08568 0.79736 0.12666 0.0
C22 C 0.08251 0.77128 0.10613 0.0
C23 C 0.08378 0.81965 0.08822 0.0
O24 O 0.11722 0.8048 0.05278 0.0
O25 O 0.05027 0.80441 0.05253 0.0
O26 O 0.05028 0.80921 0.08235 0.0
O27 O 0.11727 0.81001 0.08254 0.0
H28 H 0.08185 0.88451 0.06152 0.0
H29 H 0.08262 0.95659 0.05494 0.0
H30 H 0.08577 0.91962 1.01765 0.0
H31 H 0.08576 0.84777 1.02435 0.0
H32 H 0.07544 0.64485 0.0304 0.0
H33 H 0.07514 0.7019 0.04447 0.0
H34 H 0.09357 0.56016 0.06053 0.0
H35 H 0.09388 0.61734 0.07444 0.0
H36 H 0.08176 0.73314 0.12215 0.0
H37 H 0.08971 0.86352 0.12758 0.0
H38 H 0.08779 0.87539 0.10569 0.0
H39 H 0.08071 0.74546 0.10016 0.0
C40 C 0.49932 0.77946 0.29334 0.0
C41 C 0.4681 0.77669 0.30189 0.0
C42 C 0.41654 0.77852 0.28573 0.0
C43 C 0.42708 0.7762 0.29813 0.0
C44 C 0.44811 0.78137 0.27723 0.0
C45 C 0.48907 0.78181 0.28101 0.0
U46 U 0.58223 0.7773 0.31798 0.0
O47 O 0.64035 0.7439 0.31894 0.0
O48 O 0.64057 0.81097 0.31918 0.0
C49 C 0.66254 0.77752 0.31872 0.0
C50 C 0.5426 0.77965 0.29714 0.0
C51 C 0.6963 0.77849 0.31004 0.0
C52 C 0.72215 0.77263 0.28963 0.0
C53 C 0.68934 0.77257 0.29765 0.0
C54 C 0.76905 0.78499 0.3063 0.0
C55 C 0.76248 0.77875 0.29386 0.0
C56 C 0.73628 0.78484 0.31429 0.0
C57 C 0.54875 0.77141 0.35131 0.0
C58 C 0.59017 0.78621 0.36915 0.0
C59 C 0.52654 0.74879 0.37125 0.0
C60 C 0.52023 0.75147 0.35873 0.0
C61 C 0.56158 0.76609 0.37663 0.0
C62 C 0.5839 0.78871 0.35658 0.0
C63 C 0.54072 0.77387 0.33816 0.0
O64 O 0.55515 0.8126 0.30273 0.0
O65 O 0.5558 0.7456 0.30233 0.0
O66 O 0.55038 0.74131 0.33207 0.0
O67 O 0.55069 0.80838 0.3326 0.0
H68 H 0.47548 0.77494 0.31147 0.0
H69 H 0.40362 0.7745 0.30493 0.0
H70 H 0.44121 0.78263 0.26762 0.0
H71 H 0.51279 0.78382 0.27428 0.0
H72 H 0.71589 0.76823 0.2801 0.0
H73 H 0.6586 0.76775 0.2942 0.0
H74 H 0.79964 0.78925 0.30991 0.0
H75 H 0.74224 0.78935 0.32383 0.0
H76 H 0.61766 0.7995 0.37299 0.0
H77 H 0.50365 0.73357 0.37673 0.0
H78 H 0.49287 0.73804 0.35484 0.0
H79 H 0.60644 0.80408 0.351 0.0
C80 C 0.58105 0.35837 0.54335 0.0
C81 C 0.57991 0.38945 0.5519 0.0
C82 C 0.58172 0.44147 0.53574 0.0
C83 C 0.58021 0.43062 0.54813 0.0
C84 C 0.58279 0.41005 0.52724 0.0
C85 C 0.58246 0.36892 0.53102 0.0
U86 U 0.58042 0.27533 0.56811 0.0
O87 O 0.54756 0.21652 0.56911 0.0
O88 O 0.61454 0.21753 0.56963 0.0
C89 C 0.5813 0.19491 0.56908 0.0
C90 C 0.58106 0.31495 0.54718 0.0
C91 C 0.58202 0.16123 0.56044 0.0
C92 C 0.57803 0.13593 0.53993 0.0
C93 C 0.57773 0.16858 0.54794 0.0
C94 C 0.58719 0.08837 0.55683 0.0
C95 C 0.58275 0.09536 0.54427 0.0
C96 C 0.58682 0.12098 0.56481 0.0
C97 C 0.57891 0.31025 0.60129 0.0
C98 C 0.59556 0.26917 0.61928 0.0
C99 C 0.56671 0.33671 0.62128 0.0
C100 C 0.56495 0.34133 0.60869 0.0
C101 C 0.58258 0.30084 0.62676 0.0
C102 C 0.59376 0.27385 0.60665 0.0
C103 C 0.57908 0.31743 0.58809 0.0
O104 O 0.61438 0.30236 0.55284 0.0
O105 O 0.54743 0.30164 0.55233 0.0
O106 O 0.54587 0.30654 0.58216 0.0
O107 O 0.61289 0.30793 0.58255 0.0
H108 H 0.57896 0.38183 0.56148 0.0
H109 H 0.57987 0.45394 0.55494 0.0
H110 H 0.58339 0.41721 0.51763 0.0
H111 H 0.58326 0.34532 0.52429 0.0
H112 H 0.57503 0.14252 0.53032 0.0
H113 H 0.57413 0.19952 0.5444 0.0
H114 H 0.59032 0.05759 0.56052 0.0
H115 H 0.59006 0.11473 0.57444 0.0
H116 H 0.60821 0.24128 0.62319 0.0
H117 H 0.55576 0.36139 0.62674 0.0
H118 H 0.5532 0.36956 0.60472 0.0
H119 H 0.60464 0.24943 0.60107 0.0
C120 C 1.00125 0.27835 0.79346 0.0
C121 C 0.96996 0.27584 0.80199 0.0
C122 C 0.91853 0.27735 0.7858 0.0
C123 C 0.92897 0.27531 0.7982 0.0
C124 C 0.95016 0.27995 0.77731 0.0
C125 C 0.9911 0.28042 0.78111 0.0
U126 U 0.08363 0.27913 0.81821 0.0
O127 O 0.14172 0.24579 0.8197 0.0
O128 O 0.14193 0.31289 0.81916 0.0
C129 C 0.16392 0.27937 0.81915 0.0
C130 C 0.04449 0.27873 0.7973 0.0
C131 C 0.19791 0.27926 0.81056 0.0
C132 C 0.22409 0.27281 0.79021 0.0
C133 C 0.19112 0.27329 0.79817 0.0
C134 C 0.27083 0.28454 0.80696 0.0
C135 C 0.26441 0.27841 0.79451 0.0
C136 C 0.23791 0.28494 0.81488 0.0
C137 C 0.04953 0.27894 0.8514 0.0
C138 C 0.09619 0.28054 0.86868 0.0
C139 C 1.02325 0.27541 0.87183 0.0
C140 C 1.01658 0.27611 0.85932 0.0
C141 C 0.06314 0.27758 0.8767 0.0
C142 C 0.08943 0.28123 0.85613 0.0
C143 C 0.04144 0.27907 0.83827 0.0
O144 O 0.05718 0.31239 0.80248 0.0
O145 O 0.05737 0.24533 0.80293 0.0
O146 O 0.05142 0.24554 0.83269 0.0
O147 O 0.05174 0.31264 0.83229 0.0
H148 H 0.97725 0.27435 0.81158 0.0
H149 H 0.90546 0.27381 0.80499 0.0
H150 H 0.94332 0.28103 0.7677 0.0
H151 H 1.01488 0.28226 0.7744 0.0
H152 H 0.21795 0.26851 0.78067 0.0
H153 H 0.16038 0.26899 0.79466 0.0
H154 H 0.30141 0.28839 0.81062 0.0
H155 H 0.24373 0.28948 0.82443 0.0
H156 H 0.12725 0.28264 0.8721 0.0
H157 H 0.99714 0.27239 0.87769 0.0
H158 H 0.98558 0.27413 0.85581 0.0
H159 H 0.11526 0.28348 0.85012 0.0
C160 C 0.08568 0.19793 1.01219 0.0
C161 C 0.08681 0.16683 1.00365 0.0
C162 C 0.08534 0.11486 1.01982 0.0
C163 C 0.08668 0.12567 1.00743 0.0
C164 C 0.08426 0.14631 0.02832 0.0
C165 C 0.08444 0.18742 1.02452 0.0
U166 U 0.08542 0.2812 0.98746 0.0
O167 O 0.05115 0.33894 0.98611 0.0
O168 O 0.11813 0.34009 0.98644 0.0
C169 C 0.08436 0.36163 0.98658 0.0
C170 C 0.08548 0.24134 1.00835 0.0
C171 C 0.08382 0.39525 0.99524 0.0
C172 C 0.08885 0.42052 1.01574 0.0
C173 C 0.08901 0.38791 1.00771 0.0
C174 C 0.07803 0.46801 0.9989 0.0
C175 C 0.08338 0.46104 1.01143 0.0
C176 C 0.07826 0.43544 0.9909 0.0
C177 C 0.0859 0.24809 0.95424 0.0
C178 C 0.07604 0.29402 0.93687 0.0
C179 C 0.09189 0.2227 0.93385 0.0
C180 C 0.09331 0.21601 0.94638 0.0
C181 C 0.08299 0.26173 0.92892 0.0
C182 C 0.07755 0.28726 0.94943 0.0
C183 C 0.08616 0.23964 0.96737 0.0
O184 O 0.11893 0.25472 1.00312 0.0
O185 O 0.05198 0.25389 1.00279 0.0
O186 O 0.05252 0.24885 0.97304 0.0
O187 O 0.11951 0.25031 0.97327 0.0
H188 H 0.08763 0.17442 0.99406 0.0
H189 H 0.08702 0.10232 1.00063 0.0
H190 H 0.08379 0.13919 0.03792 0.0
H191 H 0.08364 0.21105 0.03124 0.0
H192 H 0.09256 0.41395 1.02533 0.0
H193 H 0.09319 0.35701 1.01122 0.0
H194 H 0.0743 0.49876 0.99524 0.0
H195 H 0.07432 0.44168 0.9813 0.0
H196 H 0.06954 0.32453 0.93339 0.0
H197 H 0.09678 0.197 0.92804 0.0
H198 H 0.0997 0.18554 0.94994 0.0
H199 H 0.07189 0.31246 0.95538 0.0
C200 C 0.16363 0.77456 0.26213 0.0
C201 C 0.19491 0.77711 0.25359 0.0
C202 C 0.24637 0.77549 0.26978 0.0
C203 C 0.2359 0.77761 0.25738 0.0
C204 C 0.21475 0.77282 0.27827 0.0
C205 C 0.17381 0.77238 0.27447 0.0
U206 U 0.08109 0.77409 0.23742 0.0
O207 O 1.02261 0.74063 0.23651 0.0
O208 O 1.02316 0.80773 0.23595 0.0
C209 C 1.00079 0.77426 0.23652 0.0
C210 C 0.12038 0.77434 0.2583 0.0
C211 C 0.96683 0.77453 0.24512 0.0
C212 C 0.94067 0.78141 0.26546 0.0
C213 C 0.97362 0.78084 0.2575 0.0
C214 C 0.89393 0.76908 0.24875 0.0
C215 C 0.90036 0.77553 0.26118 0.0
C216 C 0.92684 0.7686 0.24082 0.0
C217 C 0.1148 0.77404 0.20419 0.0
C218 C 0.06897 0.78328 0.18687 0.0
C219 C 0.1405 0.76876 0.18378 0.0
C220 C 0.14706 0.76731 0.1963 0.0
C221 C 0.10143 0.77702 0.17888 0.0
C222 C 0.07559 0.78174 0.19942 0.0
C223 C 0.12306 0.77381 0.21731 0.0
O224 O 0.10761 0.80778 0.25267 0.0
O225 O 0.10752 0.74072 0.25313 0.0
O226 O 0.11261 0.74029 0.22329 0.0
O227 O 0.11344 0.80739 0.22292 0.0
H228 H 0.1876 0.77869 0.24401 0.0
H229 H 0.25941 0.77917 0.25059 0.0
H230 H 0.2216 0.77168 0.28788 0.0
H231 H 0.15004 0.77051 0.28119 0.0
H232 H 0.94681 0.78596 0.27498 0.0
H233 H 1.00436 0.78533 0.26099 0.0
H234 H 0.86336 0.76501 0.2451 0.0
H235 H 0.92101 0.76379 0.23128 0.0
H236 H 0.03843 0.78926 0.18342 0.0
H237 H 0.16632 0.76441 0.17793 0.0
H238 H 0.17755 0.76143 0.19983 0.0
H239 H 0.05026 0.78687 0.2054 0.0
C240 C 0.58409 0.69556 0.5123 0.0
C241 C 0.58522 0.66448 0.50376 0.0
C242 C 0.58343 0.61246 0.51991 0.0
C243 C 0.58493 0.62331 0.50752 0.0
C244 C 0.58236 0.64388 0.52842 0.0
C245 C 0.58269 0.68501 0.52464 0.0
U246 U 0.58464 0.77859 0.48754 0.0
O247 O 0.55052 0.83638 0.48603 0.0
O248 O 0.6175 0.8374 0.48653 0.0
C249 C 0.58376 0.85901 0.48657 0.0
C250 C 0.58407 0.73897 0.50847 0.0
C251 C 0.58306 0.89269 0.4952 0.0
C252 C 0.58708 0.91799 0.51572 0.0
C253 C 0.58737 0.88534 0.5077 0.0
C254 C 0.57792 0.96555 0.49882 0.0
C255 C 0.58236 0.95856 0.51137 0.0
C256 C 0.57828 0.93294 0.49083 0.0
C257 C 0.58602 0.74364 0.45436 0.0
C258 C 0.56956 0.78483 0.43638 0.0
C259 C 0.59788 0.71707 0.43436 0.0
C260 C 0.59969 0.71244 0.44695 0.0
C261 C 0.58225 0.75307 0.4289 0.0
C262 C 0.57141 0.78014 0.44902 0.0
C263 C 0.58591 0.73647 0.46756 0.0
O264 O 0.61768 0.75228 0.50331 0.0
O265 O 0.55074 0.75157 0.50282 0.0
O266 O 0.55211 0.74598 0.47311 0.0
O267 O 0.61914 0.74737 0.47348 0.0
H268 H 0.58617 0.67209 0.49418 0.0
H269 H 0.58527 0.59998 0.50072 0.0
H270 H 0.58176 0.63673 0.53802 0.0
H271 H 0.58189 0.70862 0.53136 0.0
H272 H 0.59008 0.91141 0.52533 0.0
H273 H 0.59096 0.8544 0.51125 0.0
H274 H 0.5748 0.99633 0.49513 0.0
H275 H 0.57503 0.93919 0.4812 0.0
H276 H 0.55709 0.81282 0.43248 0.0
H277 H 0.6086 0.69231 0.4289 0.0
H278 H 0.61127 0.68413 0.45092 0.0
H279 H 0.56075 0.80464 0.4546 0.0
C280 C 0.6655 0.27404 0.7623 0.0
C281 C 0.69669 0.27666 0.75373 0.0
C282 C 0.74832 0.2747 0.76988 0.0
C283 C 0.73773 0.27701 0.75749 0.0
C284 C 0.71678 0.272 0.77839 0.0
C285 C 0.6758 0.27169 0.77463 0.0
U286 U 0.58252 0.27656 0.73769 0.0
O287 O 0.5241 0.24305 0.73648 0.0
O288 O 0.52449 0.31011 0.73676 0.0
C289 C 0.50221 0.27655 0.73696 0.0
C290 C 0.62221 0.27399 0.75851 0.0
C291 C 0.46846 0.27561 0.74564 0.0
C292 C 0.44266 0.28115 0.76607 0.0
C293 C 0.47546 0.28122 0.75805 0.0
C294 C 0.39568 0.26943 0.74938 0.0
C295 C 0.4023 0.27534 0.76182 0.0
C296 C 0.42844 0.26959 0.74138 0.0
C297 C 0.61591 0.28252 0.70435 0.0
C298 C 0.57464 0.2675 0.6865 0.0
C299 C 0.63797 0.30545 0.68443 0.0
C300 C 0.64428 0.30274 0.69694 0.0
C301 C 0.60308 0.28789 0.67903 0.0
C302 C 0.58091 0.26498 0.69906 0.0
C303 C 0.62398 0.27999 0.7175 0.0
O304 O 0.60909 0.30811 0.75335 0.0
O305 O 0.60954 0.24111 0.75291 0.0
O306 O 0.61396 0.24548 0.72305 0.0
O307 O 0.61442 0.31254 0.72361 0.0
H308 H 0.68928 0.27841 0.74416 0.0
H309 H 0.76116 0.2786 0.75067 0.0
H310 H 0.72372 0.27075 0.788 0.0
H311 H 0.6521 0.26979 0.78137 0.0
H312 H 0.44895 0.28529 0.7756 0.0
H313 H 0.50623 0.28578 0.76151 0.0
H314 H 0.36506 0.26543 0.74575 0.0
H315 H 0.42245 0.26533 0.73183 0.0
H316 H 0.54727 0.25402 0.68264 0.0
H317 H 0.66076 0.32087 0.67895 0.0
H318 H 0.67154 0.31636 0.70084 0.0
H319 H 0.55848 0.24939 0.70463 0.0
C320 C 0.05605 0.52862 1.01822 0.0
C321 C 0.08349 0.49595 1.01991 0.0
H322 H 1.03447 0.58589 1.0246 0.0
C323 C 0.11135 0.49717 0.02969 0.0
H324 H 1.03374 0.52844 1.0109 0.0
C325 C 0.11179 0.53019 0.03755 0.0
C326 C 0.08435 0.56286 0.03586 0.0
H327 H 0.13338 0.47292 0.03117 0.0
H328 H 0.1341 0.53037 0.04487 0.0
C329 C 0.05648 0.56164 1.02608 0.0
C330 C 0.86363 0.80499 0.27887 0.0
C331 C 0.8651 0.7763 0.26959 0.0
H332 H 0.83 0.82884 0.2936 0.0
C333 C 0.83237 0.74857 0.26832 0.0
H334 H 0.88793 0.82724 0.27999 0.0
C335 C 0.79908 0.74952 0.27612 0.0
C336 C 0.79763 0.77819 0.28541 0.0
H337 H 0.83272 0.72564 0.2614 0.0
H338 H 0.77481 0.72724 0.27501 0.0
C339 C 0.83034 0.80594 0.28667 0.0
C340 C 0.5577 0.51424 0.53738 0.0
C341 C 0.58219 0.48531 0.5317 0.0
H342 H 0.53831 0.57659 0.53802 0.0
C343 C 0.60708 0.4986 0.5221 0.0
H344 H 0.53766 0.50502 0.54467 0.0
C345 C 0.60746 0.53969 0.51828 0.0
C346 C 0.58296 0.56862 0.52396 0.0
H347 H 0.62684 0.47735 0.51764 0.0
H348 H 0.62749 0.54891 0.51099 0.0
C349 C 0.55807 0.55533 0.53356 0.0
C350 C 0.84641 0.25074 0.78747 0.0
C351 C 0.8749 0.27669 0.78172 0.0
H352 H 0.7846 0.22919 0.78814 0.0
C353 C 0.86139 0.30188 0.77201 0.0
H354 H 0.85582 0.23044 0.79484 0.0
C355 C 0.82049 0.30117 0.76816 0.0
C356 C 0.79199 0.27524 0.77392 0.0
H357 H 0.88231 0.32271 0.76749 0.0
H358 H 0.81108 0.32149 0.76079 0.0
C359 C 0.80552 0.25002 0.78362 0.0
C360 C 0.36584 0.3043 0.77963 0.0
C361 C 0.36715 0.27586 0.77028 0.0
H362 H 0.3323 0.32797 0.79441 0.0
C363 C 0.33431 0.2483 0.76896 0.0
H364 H 0.39022 0.32643 0.7808 0.0
C365 C 0.30102 0.24921 0.77676 0.0
C366 C 0.29968 0.27768 0.78611 0.0
H367 H 0.33454 0.22556 0.76198 0.0
H368 H 0.27662 0.22711 0.77559 0.0
C369 C 0.33255 0.30521 0.78744 0.0
C370 C 0.31844 0.80225 0.26812 0.0
C371 C 0.29 0.77621 0.27385 0.0
H372 H 0.38018 0.82398 0.26747 0.0
C373 C 0.30355 0.751 0.28355 0.0
H374 H 0.30898 0.82256 0.26075 0.0
C375 C 0.34444 0.75181 0.28741 0.0
C376 C 0.37288 0.77784 0.28168 0.0
H377 H 0.28268 0.7301 0.28806 0.0
H378 H 0.35389 0.73148 0.29478 0.0
C379 C 0.35932 0.80307 0.27198 0.0
C380 C 0.60949 0.9944 0.5298 0.0
C381 C 0.58232 0.9935 0.51985 0.0
H382 H 0.63153 1.02733 0.54512 0.0
C383 C 0.55537 1.02651 0.51798 0.0
H384 H 0.63113 0.96989 0.53141 0.0
C385 C 0.55562 0.05952 0.52584 0.0
C386 C 0.5828 0.06042 0.5358 0.0
H387 H 0.53359 1.02659 0.51053 0.0
H388 H 0.53398 0.08403 0.52423 0.0
C389 C 0.60974 1.02741 0.53766 0.0
C390 C 0.06004 1.01668 0.03736 0.0
C391 C 0.08458 0.9878 0.03168 0.0
H392 H 0.04046 0.07897 0.03797 0.0
C393 C 0.10935 1.0011 1.02205 0.0
H394 H 0.0401 1.00745 0.04467 0.0
C395 C 0.10955 0.04216 1.0182 0.0
C396 C 0.08502 0.07105 1.02388 0.0
H397 H 0.12912 0.97987 1.01758 0.0
H398 H 0.12949 0.0514 1.01089 0.0
C399 C 0.06025 0.05774 0.03351 0.0
C400 C 0.11506 0.75369 0.15774 0.0
C401 C 0.09513 0.78041 0.16551 0.0
H402 H 0.12794 0.73812 0.13947 0.0
C403 C 0.07049 0.8115 0.16038 0.0
H404 H 0.13386 0.72908 0.16137 0.0
C405 C 0.06675 0.81641 0.14782 0.0
C406 C 0.08753 0.79037 0.14004 0.0
H407 H 0.05496 0.83284 0.16608 0.0
H408 H 0.04772 0.84086 0.14419 0.0
C409 C 0.11128 0.75858 0.14516 0.0
C410 C 0.56401 0.72296 0.4088 0.0
C411 C 0.57786 0.75659 0.41547 0.0
H412 H 0.54859 0.69942 0.39142 0.0
C413 C 0.58701 0.79336 0.40922 0.0
H414 H 0.55621 0.69431 0.41332 0.0
C415 C 0.58232 0.79638 0.39661 0.0
C416 C 0.56808 0.76279 0.38998 0.0
H417 H 0.59804 0.81975 0.41406 0.0
H418 H 0.58914 0.82525 0.39208 0.0
C419 C 0.55919 0.72602 0.39624 0.0
C420 C 0.60044 0.33107 0.64686 0.0
C421 C 0.5869 0.29734 0.64018 0.0
H422 H 0.61559 0.3547 0.66425 0.0
C423 C 0.57802 0.26048 0.64643 0.0
H424 H 0.60804 0.35979 0.64236 0.0
C425 C 0.58267 0.25748 0.65904 0.0
C426 C 0.59661 0.29117 0.66568 0.0
H427 H 0.56722 0.23401 0.64158 0.0
H428 H 0.57606 0.22855 0.66357 0.0
C429 C 0.60523 0.32802 0.65942 0.0
C430 C 0.10684 0.24874 0.90777 0.0
C431 C 0.07968 0.26812 0.91554 0.0
H432 H 0.12288 0.23627 0.8895 0.0
C433 C 0.04827 0.29227 0.91041 0.0
H434 H 0.13171 0.23033 0.9114 0.0
C435 C 0.04348 0.29604 0.89784 0.0
C436 C 0.06997 0.27577 0.89006 0.0
H437 H 1.0266 0.30738 0.9161 0.0
H438 H 1.01877 0.31467 0.89421 0.0
C439 C 0.10206 0.25253 0.89519 0.0
loop_
_geom_bond_atom_site_label_1
_geom_bond_atom_site_label_2
_geom_bond_distance
_geom_bond_site_symmetry_2
_ccdc_geom_bond_type
C0 C1 1.264 . S
C0 C5 1.479 . S
C0 C10 1.465 . S
C1 C0 1.264 . S
C1 C3 1.339 . S
C1 H28 0.931 . S
C2 C3 1.395 . S
C2 C4 1.320 . S
C3 C1 1.339 . S
C3 C2 1.395 . S
C3 H29 0.929 . S
C4 C2 1.320 . S
C4 C5 1.405 . S
C4 H30 0.930 1_554 S
C5 C0 1.479 . S
C5 C4 1.405 . S
C5 H31 0.931 . S
U6 O7 2.454 . S
U6 O8 2.458 . S
U6 C9 2.984 . S
U6 C10 2.847 . S
U6 C23 2.882 . S
U6 O24 2.441 . S
U6 O25 2.420 . S
U6 O26 2.455 . S
U6 O27 2.449 . S
O7 U6 2.454 . S
O7 C9 1.353 . S
O8 U6 2.458 . S
O8 C9 1.286 . S
C9 U6 2.984 . S
C9 O7 1.353 . S
C9 O8 1.286 . S
C9 C11 1.363 . S
C10 C0 1.465 . S
C10 U6 2.847 . S
C10 O24 1.249 . S
C10 O25 1.202 . S
C11 C9 1.363 . S
C11 C13 1.408 . S
C11 C16 1.342 . S
C12 C13 1.310 . S
C12 C15 1.461 . S
C12 H32 0.932 1_554 S
C13 C11 1.408 . S
C13 C12 1.310 . S
C13 H33 0.930 . S
C14 C15 1.474 . S
C14 C16 1.285 . S
C14 H34 0.929 . S
C15 C12 1.461 . S
C15 C14 1.474 . S
C16 C11 1.342 . S
C16 C14 1.285 . S
C16 H35 0.930 . S
C17 C20 1.424 . S
C17 C22 1.245 . S
C17 C23 1.428 . S
C18 C21 1.260 . S
C18 C22 1.477 . S
C18 H36 0.932 . S
C19 C20 1.384 . S
C19 C21 1.479 . S
C19 H37 0.929 . S
C20 C17 1.424 . S
C20 C19 1.384 . S
C20 H38 0.928 . S
C21 C18 1.260 . S
C21 C19 1.479 . S
C22 C17 1.245 . S
C22 C18 1.477 . S
C22 H39 0.932 . S
C23 U6 2.882 . S
C23 C17 1.428 . S
C23 O26 1.301 . S
C23 O27 1.282 . S
O24 U6 2.441 . S
O24 C10 1.249 . S
O25 U6 2.420 . S
O25 C10 1.202 . S
O26 U6 2.455 . S
O26 C23 1.301 . S
O27 U6 2.449 . S
O27 C23 1.282 . S
H28 C1 0.931 . S
H29 C3 0.929 . S
H30 C4 0.930 1_556 S
H31 C5 0.931 . S
H32 C12 0.932 1_556 S
H33 C13 0.930 . S
H34 C14 0.929 . S
H35 C16 0.930 . S
H36 C18 0.932 . S
H37 C19 0.929 . S
H38 C20 0.928 . S
H39 C22 0.932 . S
C40 C41 1.264 . S
C40 C45 1.479 . S
C40 C50 1.465 . S
C41 C40 1.264 . S
C41 C43 1.339 . S
C41 H68 0.931 . S
C42 C43 1.395 . S
C42 C44 1.320 . S
C43 C41 1.339 . S
C43 C42 1.395 . S
C43 H69 0.929 . S
C44 C42 1.320 . S
C44 C45 1.405 . S
C44 H70 0.930 . S
C45 C40 1.479 . S
C45 C44 1.405 . S
C45 H71 0.931 . S
U46 O47 2.454 . S
U46 O48 2.458 . S
U46 C49 2.984 . S
U46 C50 2.847 . S
U46 C63 2.882 . S
U46 O64 2.441 . S
U46 O65 2.420 . S
U46 O66 2.455 . S
U46 O67 2.449 . S
O47 U46 2.454 . S
O47 C49 1.353 . S
O48 U46 2.458 . S
O48 C49 1.286 . S
C49 U46 2.984 . S
C49 O47 1.353 . S
C49 O48 1.286 . S
C49 C51 1.363 . S
C50 C40 1.465 . S
C50 U46 2.847 . S
C50 O64 1.249 . S
C50 O65 1.202 . S
C51 C49 1.363 . S
C51 C53 1.408 . S
C51 C56 1.342 . S
C52 C53 1.310 . S
C52 C55 1.461 . S
C52 H72 0.932 . S
C53 C51 1.408 . S
C53 C52 1.310 . S
C53 H73 0.930 . S
C54 C55 1.474 . S
C54 C56 1.285 . S
C54 H74 0.929 . S
C55 C52 1.461 . S
C55 C54 1.474 . S
C56 C51 1.342 . S
C56 C54 1.285 . S
C56 H75 0.930 . S
C57 C60 1.424 . S
C57 C62 1.245 . S
C57 C63 1.428 . S
C58 C61 1.260 . S
C58 C62 1.477 . S
C58 H76 0.932 . S
C59 C60 1.384 . S
C59 C61 1.479 . S
C59 H77 0.929 . S
C60 C57 1.424 . S
C60 C59 1.384 . S
C60 H78 0.928 . S
C61 C58 1.260 . S
C61 C59 1.479 . S
C62 C57 1.245 . S
C62 C58 1.477 . S
C62 H79 0.932 . S
C63 U46 2.882 . S
C63 C57 1.428 . S
C63 O66 1.301 . S
C63 O67 1.282 . S
O64 U46 2.441 . S
O64 C50 1.249 . S
O65 U46 2.420 . S
O65 C50 1.202 . S
O66 U46 2.455 . S
O66 C63 1.301 . S
O67 U46 2.449 . S
O67 C63 1.282 . S
H68 C41 0.931 . S
H69 C43 0.929 . S
H70 C44 0.930 . S
H71 C45 0.931 . S
H72 C52 0.932 . S
H73 C53 0.930 . S
H74 C54 0.929 . S
H75 C56 0.930 . S
H76 C58 0.932 . S
H77 C59 0.929 . S
H78 C60 0.928 . S
H79 C62 0.932 . S
C80 C81 1.264 . S
C80 C85 1.479 . S
C80 C90 1.465 . S
C81 C80 1.264 . S
C81 C83 1.339 . S
C81 H108 0.931 . S
C82 C83 1.395 . S
C82 C84 1.320 . S
C83 C81 1.339 . S
C83 C82 1.395 . S
C83 H109 0.929 . S
C84 C82 1.320 . S
C84 C85 1.405 . S
C84 H110 0.930 . S
C85 C80 1.479 . S
C85 C84 1.405 . S
C85 H111 0.931 . S
U86 O87 2.454 . S
U86 O88 2.458 . S
U86 C89 2.984 . S
U86 C90 2.847 . S
U86 C103 2.882 . S
U86 O104 2.441 . S
U86 O105 2.420 . S
U86 O106 2.455 . S
U86 O107 2.449 . S
O87 U86 2.454 . S
O87 C89 1.353 . S
O88 U86 2.458 . S
O88 C89 1.286 . S
C89 U86 2.984 . S
C89 O87 1.353 . S
C89 O88 1.286 . S
C89 C91 1.363 . S
C90 C80 1.465 . S
C90 U86 2.847 . S
C90 O104 1.249 . S
C90 O105 1.202 . S
C91 C89 1.363 . S
C91 C93 1.408 . S
C91 C96 1.342 . S
C92 C93 1.310 . S
C92 C95 1.461 . S
C92 H112 0.932 . S
C93 C91 1.408 . S
C93 C92 1.310 . S
C93 H113 0.930 . S
C94 C95 1.474 . S
C94 C96 1.285 . S
C94 H114 0.929 . S
C95 C92 1.461 . S
C95 C94 1.474 . S
C96 C91 1.342 . S
C96 C94 1.285 . S
C96 H115 0.930 . S
C97 C100 1.424 . S
C97 C102 1.245 . S
C97 C103 1.428 . S
C98 C101 1.260 . S
C98 C102 1.477 . S
C98 H116 0.932 . S
C99 C100 1.384 . S
C99 C101 1.479 . S
C99 H117 0.929 . S
C100 C97 1.424 . S
C100 C99 1.384 . S
C100 H118 0.928 . S
C101 C98 1.260 . S
C101 C99 1.479 . S
C102 C97 1.245 . S
C102 C98 1.477 . S
C102 H119 0.932 . S
C103 U86 2.882 . S
C103 C97 1.428 . S
C103 O106 1.301 . S
C103 O107 1.282 . S
O104 U86 2.441 . S
O104 C90 1.249 . S
O105 U86 2.420 . S
O105 C90 1.202 . S
O106 U86 2.455 . S
O106 C103 1.301 . S
O107 U86 2.449 . S
O107 C103 1.282 . S
H108 C81 0.931 . S
H109 C83 0.929 . S
H110 C84 0.930 . S
H111 C85 0.931 . S
H112 C92 0.932 . S
H113 C93 0.930 . S
H114 C94 0.929 . S
H115 C96 0.930 . S
H116 C98 0.932 . S
H117 C99 0.929 . S
H118 C100 0.928 . S
H119 C102 0.932 . S
C120 C121 1.264 . S
C120 C125 1.479 . S
C120 C130 1.465 . S
C121 C120 1.264 . S
C121 C123 1.339 . S
C121 H148 0.931 . S
C122 C123 1.395 . S
C122 C124 1.320 . S
C123 C121 1.339 . S
C123 C122 1.395 . S
C123 H149 0.929 . S
C124 C122 1.320 . S
C124 C125 1.405 . S
C124 H150 0.930 . S
C125 C120 1.479 . S
C125 C124 1.405 . S
C125 H151 0.931 . S
U126 O127 2.454 . S
U126 O128 2.458 . S
U126 C129 2.984 . S
U126 C130 2.847 1_455 S
U126 C143 2.882 . S
U126 O144 2.441 . S
U126 O145 2.420 1_455 S
U126 O146 2.455 . S
U126 O147 2.449 . S
O127 U126 2.454 . S
O127 C129 1.353 . S
O128 U126 2.458 . S
O128 C129 1.286 . S
C129 U126 2.984 . S
C129 O127 1.353 . S
C129 O128 1.286 . S
C129 C131 1.363 . S
C130 C120 1.465 . S
C130 U126 2.847 1_655 S
C130 O144 1.249 1_655 S
C130 O145 1.202 . S
C131 C129 1.363 . S
C131 C133 1.408 . S
C131 C136 1.342 . S
C132 C133 1.310 . S
C132 C135 1.461 . S
C132 H152 0.932 . S
C133 C131 1.408 . S
C133 C132 1.310 . S
C133 H153 0.930 . S
C134 C135 1.474 . S
C134 C136 1.285 . S
C134 H154 0.929 . S
C135 C132 1.461 . S
C135 C134 1.474 . S
C136 C131 1.342 . S
C136 C134 1.285 . S
C136 H155 0.930 . S
C137 C140 1.424 . S
C137 C142 1.245 . S
C137 C143 1.428 . S
C138 C141 1.260 . S
C138 C142 1.477 . S
C138 H156 0.932 . S
C139 C140 1.384 . S
C139 C141 1.479 . S
C139 H157 0.929 1_455 S
C140 C137 1.424 . S
C140 C139 1.384 . S
C140 H158 0.928 . S
C141 C138 1.260 . S
C141 C139 1.479 . S
C142 C137 1.245 . S
C142 C138 1.477 . S
C142 H159 0.932 . S
C143 U126 2.882 . S
C143 C137 1.428 . S
C143 O146 1.301 . S
C143 O147 1.282 . S
O144 U126 2.441 . S
O144 C130 1.249 1_455 S
O145 U126 2.420 1_655 S
O145 C130 1.202 . S
O146 U126 2.455 . S
O146 C143 1.301 . S
O147 U126 2.449 . S
O147 C143 1.282 . S
H148 C121 0.931 . S
H149 C123 0.929 . S
H150 C124 0.930 . S
H151 C125 0.931 . S
H152 C132 0.932 . S
H153 C133 0.930 . S
H154 C134 0.929 . S
H155 C136 0.930 . S
H156 C138 0.932 . S
H157 C139 0.929 1_655 S
H158 C140 0.928 . S
H159 C142 0.932 . S
C160 C161 1.264 . S
C160 C165 1.479 . S
C160 C170 1.465 . S
C161 C160 1.264 . S
C161 C163 1.339 . S
C161 H188 0.931 . S
C162 C163 1.395 . S
C162 C164 1.320 . S
C163 C161 1.339 . S
C163 C162 1.395 . S
C163 H189 0.929 . S
C164 C162 1.320 . S
C164 C165 1.405 . S
C164 H190 0.930 1_556 S
C165 C160 1.479 . S
C165 C164 1.405 . S
C165 H191 0.931 . S
U166 O167 2.454 . S
U166 O168 2.458 . S
U166 C169 2.984 . S
U166 C170 2.847 . S
U166 C183 2.882 . S
U166 O184 2.441 . S
U166 O185 2.420 . S
U166 O186 2.455 . S
U166 O187 2.449 . S
O167 U166 2.454 . S
O167 C169 1.353 . S
O168 U166 2.458 . S
O168 C169 1.286 . S
C169 U166 2.984 . S
C169 O167 1.353 . S
C169 O168 1.286 . S
C169 C171 1.363 . S
C170 C160 1.465 . S
C170 U166 2.847 . S
C170 O184 1.249 . S
C170 O185 1.202 . S
C171 C169 1.363 . S
C171 C173 1.408 . S
C171 C176 1.342 . S
C172 C173 1.310 . S
C172 C175 1.461 . S
C172 H192 0.932 1_556 S
C173 C171 1.408 . S
C173 C172 1.310 . S
C173 H193 0.930 . S
C174 C175 1.474 . S
C174 C176 1.285 . S
C174 H194 0.929 . S
C175 C172 1.461 . S
C175 C174 1.474 . S
C176 C171 1.342 . S
C176 C174 1.285 . S
C176 H195 0.930 . S
C177 C180 1.424 . S
C177 C182 1.245 . S
C177 C183 1.428 . S
C178 C181 1.260 . S
C178 C182 1.477 . S
C178 H196 0.932 . S
C179 C180 1.384 . S
C179 C181 1.479 . S
C179 H197 0.929 . S
C180 C177 1.424 . S
C180 C179 1.384 . S
C180 H198 0.928 . S
C181 C178 1.260 . S
C181 C179 1.479 . S
C182 C177 1.245 . S
C182 C178 1.477 . S
C182 H199 0.932 . S
C183 U166 2.882 . S
C183 C177 1.428 . S
C183 O186 1.301 . S
C183 O187 1.282 . S
O184 U166 2.441 . S
O184 C170 1.249 . S
O185 U166 2.420 . S
O185 C170 1.202 . S
O186 U166 2.455 . S
O186 C183 1.301 . S
O187 U166 2.449 . S
O187 C183 1.282 . S
H188 C161 0.931 . S
H189 C163 0.929 . S
H190 C164 0.930 1_554 S
H191 C165 0.931 . S
H192 C172 0.932 1_554 S
H193 C173 0.930 . S
H194 C174 0.929 . S
H195 C176 0.930 . S
H196 C178 0.932 . S
H197 C179 0.929 . S
H198 C180 0.928 . S
H199 C182 0.932 . S
C200 C201 1.264 . S
C200 C205 1.479 . S
C200 C210 1.465 . S
C201 C200 1.264 . S
C201 C203 1.339 . S
C201 H228 0.931 . S
C202 C203 1.395 . S
C202 C204 1.320 . S
C203 C201 1.339 . S
C203 C202 1.395 . S
C203 H229 0.929 . S
C204 C202 1.320 . S
C204 C205 1.405 . S
C204 H230 0.930 . S
C205 C200 1.479 . S
C205 C204 1.405 . S
C205 H231 0.931 . S
U206 O207 2.454 . S
U206 O208 2.458 1_455 S
U206 C209 2.984 1_455 S
U206 C210 2.847 . S
U206 C223 2.882 . S
U206 O224 2.441 . S
U206 O225 2.420 . S
U206 O226 2.455 . S
U206 O227 2.449 . S
O207 U206 2.454 . S
O207 C209 1.353 1_455 S
O208 U206 2.458 1_655 S
O208 C209 1.286 . S
C209 U206 2.984 1_655 S
C209 O207 1.353 1_655 S
C209 O208 1.286 . S
C209 C211 1.363 . S
C210 C200 1.465 . S
C210 U206 2.847 . S
C210 O224 1.249 . S
C210 O225 1.202 . S
C211 C209 1.363 . S
C211 C213 1.408 . S
C211 C216 1.342 . S
C212 C213 1.310 . S
C212 C215 1.461 . S
C212 H232 0.932 . S
C213 C211 1.408 . S
C213 C212 1.310 . S
C213 H233 0.930 . S
C214 C215 1.474 . S
C214 C216 1.285 . S
C214 H234 0.929 . S
C215 C212 1.461 . S
C215 C214 1.474 . S
C216 C211 1.342 . S
C216 C214 1.285 . S
C216 H235 0.930 . S
C217 C220 1.424 . S
C217 C222 1.245 . S
C217 C223 1.428 . S
C218 C221 1.260 . S
C218 C222 1.477 . S
C218 H236 0.932 1_455 S
C219 C220 1.384 . S
C219 C221 1.479 . S
C219 H237 0.929 . S
C220 C217 1.424 . S
C220 C219 1.384 . S
C220 H238 0.928 . S
C221 C218 1.260 . S
C221 C219 1.479 . S
C222 C217 1.245 . S
C222 C218 1.477 . S
C222 H239 0.932 1_455 S
C223 U206 2.882 . S
C223 C217 1.428 . S
C223 O226 1.301 . S
C223 O227 1.282 . S
O224 U206 2.441 . S
O224 C210 1.249 . S
O225 U206 2.420 . S
O225 C210 1.202 . S
O226 U206 2.455 . S
O226 C223 1.301 . S
O227 U206 2.449 . S
O227 C223 1.282 . S
H228 C201 0.931 . S
H229 C203 0.929 . S
H230 C204 0.930 . S
H231 C205 0.931 . S
H232 C212 0.932 . S
H233 C213 0.930 . S
H234 C214 0.929 . S
H235 C216 0.930 . S
H236 C218 0.932 1_655 S
H237 C219 0.929 . S
H238 C220 0.928 . S
H239 C222 0.932 1_655 S
C240 C241 1.264 . S
C240 C245 1.479 . S
C240 C250 1.465 . S
C241 C240 1.264 . S
C241 C243 1.339 . S
C241 H268 0.931 . S
C242 C243 1.395 . S
C242 C244 1.320 . S
C243 C241 1.339 . S
C243 C242 1.395 . S
C243 H269 0.929 . S
C244 C242 1.320 . S
C244 C245 1.405 . S
C244 H270 0.930 . S
C245 C240 1.479 . S
C245 C244 1.405 . S
C245 H271 0.931 . S
U246 O247 2.454 . S
U246 O248 2.458 . S
U246 C249 2.984 . S
U246 C250 2.847 . S
U246 C263 2.882 . S
U246 O264 2.441 . S
U246 O265 2.420 . S
U246 O266 2.455 . S
U246 O267 2.449 . S
O247 U246 2.454 . S
O247 C249 1.353 . S
O248 U246 2.458 . S
O248 C249 1.286 . S
C249 U246 2.984 . S
C249 O247 1.353 . S
C249 O248 1.286 . S
C249 C251 1.363 . S
C250 C240 1.465 . S
C250 U246 2.847 . S
C250 O264 1.249 . S
C250 O265 1.202 . S
C251 C249 1.363 . S
C251 C253 1.408 . S
C251 C256 1.342 . S
C252 C253 1.310 . S
C252 C255 1.461 . S
C252 H272 0.932 . S
C253 C251 1.408 . S
C253 C252 1.310 . S
C253 H273 0.930 . S
C254 C255 1.474 . S
C254 C256 1.285 . S
C254 H274 0.929 . S
C255 C252 1.461 . S
C255 C254 1.474 . S
C256 C251 1.342 . S
C256 C254 1.285 . S
C256 H275 0.930 . S
C257 C260 1.424 . S
C257 C262 1.245 . S
C257 C263 1.428 . S
C258 C261 1.260 . S
C258 C262 1.477 . S
C258 H276 0.932 . S
C259 C260 1.384 . S
C259 C261 1.479 . S
C259 H277 0.929 . S
C260 C257 1.424 . S
C260 C259 1.384 . S
C260 H278 0.928 . S
C261 C258 1.260 . S
C261 C259 1.479 . S
C262 C257 1.245 . S
C262 C258 1.477 . S
C262 H279 0.932 . S
C263 U246 2.882 . S
C263 C257 1.428 . S
C263 O266 1.301 . S
C263 O267 1.282 . S
O264 U246 2.441 . S
O264 C250 1.249 . S
O265 U246 2.420 . S
O265 C250 1.202 . S
O266 U246 2.455 . S
O266 C263 1.301 . S
O267 U246 2.449 . S
O267 C263 1.282 . S
H268 C241 0.931 . S
H269 C243 0.929 . S
H270 C244 0.930 . S
H271 C245 0.931 . S
H272 C252 0.932 . S
H273 C253 0.930 . S
H274 C254 0.929 . S
H275 C256 0.930 . S
H276 C258 0.932 . S
H277 C259 0.929 . S
H278 C260 0.928 . S
H279 C262 0.932 . S
C280 C281 1.264 . S
C280 C285 1.479 . S
C280 C290 1.465 . S
C281 C280 1.264 . S
C281 C283 1.339 . S
C281 H308 0.931 . S
C282 C283 1.395 . S
C282 C284 1.320 . S
C283 C281 1.339 . S
C283 C282 1.395 . S
C283 H309 0.929 . S
C284 C282 1.320 . S
C284 C285 1.405 . S
C284 H310 0.930 . S
C285 C280 1.479 . S
C285 C284 1.405 . S
C285 H311 0.931 . S
U286 O287 2.454 . S
U286 O288 2.458 . S
U286 C289 2.984 . S
U286 C290 2.847 . S
U286 C303 2.882 . S
U286 O304 2.441 . S
U286 O305 2.420 . S
U286 O306 2.455 . S
U286 O307 2.449 . S
O287 U286 2.454 . S
O287 C289 1.353 . S
O288 U286 2.458 . S
O288 C289 1.286 . S
C289 U286 2.984 . S
C289 O287 1.353 . S
C289 O288 1.286 . S
C289 C291 1.363 . S
C290 C280 1.465 . S
C290 U286 2.847 . S
C290 O304 1.249 . S
C290 O305 1.202 . S
C291 C289 1.363 . S
C291 C293 1.408 . S
C291 C296 1.342 . S
C292 C293 1.310 . S
C292 C295 1.461 . S
C292 H312 0.932 . S
C293 C291 1.408 . S
C293 C292 1.310 . S
C293 H313 0.930 . S
C294 C295 1.474 . S
C294 C296 1.285 . S
C294 H314 0.929 . S
C295 C292 1.461 . S
C295 C294 1.474 . S
C296 C291 1.342 . S
C296 C294 1.285 . S
C296 H315 0.930 . S
C297 C300 1.424 . S
C297 C302 1.245 . S
C297 C303 1.428 . S
C298 C301 1.260 . S
C298 C302 1.477 . S
C298 H316 0.932 . S
C299 C300 1.384 . S
C299 C301 1.479 . S
C299 H317 0.929 . S
C300 C297 1.424 . S
C300 C299 1.384 . S
C300 H318 0.928 . S
C301 C298 1.260 . S
C301 C299 1.479 . S
C302 C297 1.245 . S
C302 C298 1.477 . S
C302 H319 0.932 . S
C303 U286 2.882 . S
C303 C297 1.428 . S
C303 O306 1.301 . S
C303 O307 1.282 . S
O304 U286 2.441 . S
O304 C290 1.249 . S
O305 U286 2.420 . S
O305 C290 1.202 . S
O306 U286 2.455 . S
O306 C303 1.301 . S
O307 U286 2.449 . S
O307 C303 1.282 . S
H308 C281 0.931 . S
H309 C283 0.929 . S
H310 C284 0.930 . S
H311 C285 0.931 . S
H312 C292 0.932 . S
H313 C293 0.930 . S
H314 C294 0.929 . S
H315 C296 0.930 . S
H316 C298 0.932 . S
H317 C299 0.929 . S
H318 C300 0.928 . S
H319 C302 0.932 . S
C320 C321 1.387 . S
C320 H324 0.950 1_455 S
C320 C329 1.390 1_556 S
C321 C320 1.387 . S
C321 C323 1.387 . S
H322 C329 0.950 1_655 S
C323 C321 1.387 . S
C323 C325 1.390 1_556 S
C323 H327 0.950 . S
H324 C320 0.950 1_655 S
C325 C323 1.390 1_554 S
C325 C326 1.387 . S
C325 H328 0.950 . S
C326 C325 1.387 . S
C326 C329 1.387 . S
H327 C323 0.950 . S
H328 C325 0.950 . S
C329 C320 1.390 1_554 S
C329 H322 0.950 1_455 S
C329 C326 1.387 . S
C330 C331 1.387 . S
C330 H334 0.950 . S
C330 C339 1.390 . S
C331 C330 1.387 . S
C331 C333 1.387 . S
H332 C339 0.950 . S
C333 C331 1.387 . S
C333 C335 1.390 . S
C333 H337 0.950 . S
H334 C330 0.950 . S
C335 C333 1.390 . S
C335 C336 1.387 . S
C335 H338 0.950 . S
C336 C335 1.387 . S
C336 C339 1.387 . S
H337 C333 0.950 . S
H338 C335 0.950 . S
C339 C330 1.390 . S
C339 H332 0.950 . S
C339 C336 1.387 . S
C340 C341 1.387 . S
C340 H344 0.950 . S
C340 C349 1.390 . S
C341 C340 1.387 . S
C341 C343 1.387 . S
H342 C349 0.950 . S
C343 C341 1.387 . S
C343 C345 1.390 . S
C343 H347 0.950 . S
H344 C340 0.950 . S
C345 C343 1.390 . S
C345 C346 1.387 . S
C345 H348 0.950 . S
C346 C345 1.387 . S
C346 C349 1.387 . S
H347 C343 0.950 . S
H348 C345 0.950 . S
C349 C340 1.390 . S
C349 H342 0.950 . S
C349 C346 1.387 . S
C350 C351 1.387 . S
C350 H354 0.950 . S
C350 C359 1.390 . S
C351 C350 1.387 . S
C351 C353 1.387 . S
H352 C359 0.950 . S
C353 C351 1.387 . S
C353 C355 1.390 . S
C353 H357 0.950 . S
H354 C350 0.950 . S
C355 C353 1.390 . S
C355 C356 1.387 . S
C355 H358 0.950 . S
C356 C355 1.387 . S
C356 C359 1.387 . S
H357 C353 0.950 . S
H358 C355 0.950 . S
C359 C350 1.390 . S
C359 H352 0.950 . S
C359 C356 1.387 . S
C360 C361 1.387 . S
C360 H364 0.950 . S
C360 C369 1.390 . S
C361 C360 1.387 . S
C361 C363 1.387 . S
H362 C369 0.950 . S
C363 C361 1.387 . S
C363 C365 1.390 . S
C363 H367 0.950 . S
H364 C360 0.950 . S
C365 C363 1.390 . S
C365 C366 1.387 . S
C365 H368 0.950 . S
C366 C365 1.387 . S
C366 C369 1.387 . S
H367 C363 0.950 . S
H368 C365 0.950 . S
C369 C360 1.390 . S
C369 H362 0.950 . S
C369 C366 1.387 . S
C370 C371 1.387 . S
C370 H374 0.950 . S
C370 C379 1.390 . S
C371 C370 1.387 . S
C371 C373 1.387 . S
H372 C379 0.950 . S
C373 C371 1.387 . S
C373 C375 1.390 . S
C373 H377 0.950 . S
H374 C370 0.950 . S
C375 C373 1.390 . S
C375 C376 1.387 . S
C375 H378 0.950 . S
C376 C375 1.387 . S
C376 C379 1.387 . S
H377 C373 0.950 . S
H378 C375 0.950 . S
C379 C370 1.390 . S
C379 H372 0.950 . S
C379 C376 1.387 . S
C380 C381 1.387 . S
C380 H384 0.950 . S
C380 C389 1.411 . S
C381 C380 1.387 . S
C381 C383 1.387 . S
H382 C389 0.949 1_545 S
C383 C381 1.387 . S
C383 C385 1.390 1_565 S
C383 H387 0.950 . S
H384 C380 0.950 . S
C385 C383 1.390 1_545 S
C385 C386 1.387 . S
C385 H388 0.950 . S
C386 C385 1.387 . S
C386 C389 1.368 1_545 S
H387 C383 0.950 . S
H388 C385 0.950 . S
C389 C380 1.411 . S
C389 H382 0.949 1_565 S
C389 C386 1.368 1_565 S
C390 C391 1.387 . S
C390 H394 0.950 1_455 S
C390 C399 1.390 1_564 S
C391 C390 1.387 . S
C391 C393 1.387 . S
H392 C399 0.950 1_655 S
C393 C391 1.387 . S
C393 C395 1.390 1_564 S
C393 H397 0.950 . S
H394 C390 0.950 1_655 S
C395 C393 1.390 1_546 S
C395 C396 1.387 . S
C395 H398 0.950 . S
C396 C395 1.387 . S
C396 C399 1.387 . S
H397 C393 0.950 . S
H398 C395 0.950 . S
C399 C390 1.390 1_546 S
C399 H392 0.950 1_455 S
C399 C396 1.387 . S
C400 C401 1.387 . S
C400 H404 0.950 . S
C400 C409 1.390 . S
C401 C400 1.387 . S
C401 C403 1.387 . S
H402 C409 0.950 . S
C403 C401 1.387 . S
C403 C405 1.390 . S
C403 H407 0.950 . S
H404 C400 0.950 . S
C405 C403 1.390 . S
C405 C406 1.387 . S
C405 H408 0.950 . S
C406 C405 1.387 . S
C406 C409 1.387 . S
H407 C403 0.950 . S
H408 C405 0.950 . S
C409 C400 1.390 . S
C409 H402 0.950 . S
C409 C406 1.387 . S
C410 C411 1.387 . S
C410 H414 0.950 . S
C410 C419 1.390 . S
C411 C410 1.387 . S
C411 C413 1.387 . S
H412 C419 0.950 . S
C413 C411 1.387 . S
C413 C415 1.390 . S
C413 H417 0.950 . S
H414 C410 0.950 . S
C415 C413 1.390 . S
C415 C416 1.387 . S
C415 H418 0.950 . S
C416 C415 1.387 . S
C416 C419 1.387 . S
H417 C413 0.950 . S
H418 C415 0.950 . S
C419 C410 1.390 . S
C419 H412 0.950 . S
C419 C416 1.387 . S
C420 C421 1.387 . S
C420 H424 0.950 . S
C420 C429 1.390 . S
C421 C420 1.387 . S
C421 C423 1.387 . S
H422 C429 0.950 . S
C423 C421 1.387 . S
C423 C425 1.390 . S
C423 H427 0.950 . S
H424 C420 0.950 . S
C425 C423 1.390 . S
C425 C426 1.387 . S
C425 H428 0.950 . S
C426 C425 1.387 . S
C426 C429 1.387 . S
H427 C423 0.950 . S
H428 C425 0.950 . S
C429 C420 1.390 . S
C429 H422 0.950 . S
C429 C426 1.387 . S
C430 C431 1.387 . S
C430 H434 0.950 . S
C430 C439 1.390 . S
C431 C430 1.387 . S
C431 C433 1.387 . S
H432 C439 0.950 . S
C433 C431 1.387 . S
C433 C435 1.390 . S
C433 H437 0.950 1_455 S
H434 C430 0.950 . S
C435 C433 1.390 . S
C435 C436 1.387 . S
C435 H438 0.950 1_455 S
C436 C435 1.387 . S
C436 C439 1.387 . S
H437 C433 0.950 1_655 S
H438 C435 0.950 1_655 S
C439 C430 1.390 . S
C439 H432 0.950 . S
C439 C436 1.387 . S
C321 C175 1.500 . S
C326 C15 1.500 . S
C331 C215 1.502 . S
C336 C55 1.501 . S
C341 C82 1.486 . S
C346 C242 1.504 . S
C351 C122 1.485 . S
C356 C282 1.501 . S
C361 C295 1.507 . S
C366 C135 1.506 . S
C371 C202 1.493 . S
C376 C42 1.485 . S
C381 C255 1.510 . S
C386 C95 1.508 . S
C391 C2 1.486 . S
C396 C162 1.487 . S
C401 C221 1.492 . S
C406 C21 1.488 . S
C411 C261 1.498 . S
C416 C61 1.489 . S
C421 C101 1.489 . S
C426 C301 1.498 . S
C431 C181 1.492 . S
C436 C141 1.485 . S
