# Generated by pormake.
# Topology lvt-a, (3)-cn, num edge types: 1
# Building blocks:
#     Node 0, Type 0, BuildingBlock: OLANEW_clean_sbu_2, # of connection points: 3
#     Node 1, Type 0, BuildingBlock: OLANEW_clean_sbu_2, # of connection points: 3
#     Node 2, Type 0, BuildingBlock: OLANEW_clean_sbu_2, # of connection points: 3
#     Node 3, Type 0, BuildingBlock: OLANEW_clean_sbu_2, # of connection points: 3
#     Node 4, Type 0, BuildingBlock: OLANEW_clean_sbu_2, # of connection points: 3
#     Node 5, Type 0, BuildingBlock: OLANEW_clean_sbu_2, # of connection points: 3
#     Node 6, Type 0, BuildingBlock: OLANEW_clean_sbu_2, # of connection points: 3
#     Node 7, Type 0, BuildingBlock: OLANEW_clean_sbu_2, # of connection points: 3
#     Node 8, Type 0, BuildingBlock: OLANEW_clean_sbu_2, # of connection points: 3
#     Node 9, Type 0, BuildingBlock: OLANEW_clean_sbu_2, # of connection points: 3
#     Node 10, Type 0, BuildingBlock: OLANEW_clean_sbu_2, # of connection points: 3
#     Node 11, Type 0, BuildingBlock: OLANEW_clean_sbu_2, # of connection points: 3
#     Node 12, Type 0, BuildingBlock: OLANEW_clean_sbu_2, # of connection points: 3
#     Node 13, Type 0, BuildingBlock: OLANEW_clean_sbu_2, # of connection points: 3
#     Node 14, Type 0, BuildingBlock: OLANEW_clean_sbu_2, # of connection points: 3
#     Node 15, Type 0, BuildingBlock: OLANEW_clean_sbu_2, # of connection points: 3
#     Node 16, Type 0, BuildingBlock: OLANEW_clean_sbu_2, # of connection points: 3
#     Node 17, Type 0, BuildingBlock: OLANEW_clean_sbu_2, # of connection points: 3
#     Node 18, Type 0, BuildingBlock: OLANEW_clean_sbu_2, # of connection points: 3
#     Node 19, Type 0, BuildingBlock: OLANEW_clean_sbu_2, # of connection points: 3
#     Node 20, Type 0, BuildingBlock: OLANEW_clean_sbu_2, # of connection points: 3
#     Node 21, Type 0, BuildingBlock: OLANEW_clean_sbu_2, # of connection points: 3
#     Node 22, Type 0, BuildingBlock: OLANEW_clean_sbu_2, # of connection points: 3
#     Node 23, Type 0, BuildingBlock: OLANEW_clean_sbu_2, # of connection points: 3
#     Node 24, Type 0, BuildingBlock: OLANEW_clean_sbu_2, # of connection points: 3
#     Node 25, Type 0, BuildingBlock: OLANEW_clean_sbu_2, # of connection points: 3
#     Node 26, Type 0, BuildingBlock: OLANEW_clean_sbu_2, # of connection points: 3
#     Node 27, Type 0, BuildingBlock: OLANEW_clean_sbu_2, # of connection points: 3
#     Node 28, Type 0, BuildingBlock: OLANEW_clean_sbu_2, # of connection points: 3
#     Node 29, Type 0, BuildingBlock: OLANEW_clean_sbu_2, # of connection points: 3
#     Node 30, Type 0, BuildingBlock: OLANEW_clean_sbu_2, # of connection points: 3
#     Node 31, Type 0, BuildingBlock: OLANEW_clean_sbu_2, # of connection points: 3
#     Edge 32, Type (0, 0), BuildingBlock: ZUJKAS_clean_linker_0, # of connection points: 2
#     Edge 33, Type (0, 0), BuildingBlock: ZUJKAS_clean_linker_0, # of connection points: 2
#     Edge 34, Type (0, 0), BuildingBlock: ZUJKAS_clean_linker_0, # of connection points: 2
#     Edge 35, Type (0, 0), BuildingBlock: ZUJKAS_clean_linker_0, # of connection points: 2
#     Edge 36, Type (0, 0), BuildingBlock: ZUJKAS_clean_linker_0, # of connection points: 2
#     Edge 37, Type (0, 0), BuildingBlock: ZUJKAS_clean_linker_0, # of connection points: 2
#     Edge 38, Type (0, 0), BuildingBlock: ZUJKAS_clean_linker_0, # of connection points: 2
#     Edge 39, Type (0, 0), BuildingBlock: ZUJKAS_clean_linker_0, # of connection points: 2
#     Edge 40, Type (0, 0), BuildingBlock: ZUJKAS_clean_linker_0, # of connection points: 2
#     Edge 41, Type (0, 0), BuildingBlock: ZUJKAS_clean_linker_0, # of connection points: 2
#     Edge 42, Type (0, 0), BuildingBlock: ZUJKAS_clean_linker_0, # of connection points: 2
#     Edge 43, Type (0, 0), BuildingBlock: ZUJKAS_clean_linker_0, # of connection points: 2
#     Edge 44, Type (0, 0), BuildingBlock: ZUJKAS_clean_linker_0, # of connection points: 2
#     Edge 45, Type (0, 0), BuildingBlock: ZUJKAS_clean_linker_0, # of connection points: 2
#     Edge 46, Type (0, 0), BuildingBlock: ZUJKAS_clean_linker_0, # of connection points: 2
#     Edge 47, Type (0, 0), BuildingBlock: ZUJKAS_clean_linker_0, # of connection points: 2
#     Edge 48, Type (0, 0), BuildingBlock: ZUJKAS_clean_linker_0, # of connection points: 2
#     Edge 49, Type (0, 0), BuildingBlock: ZUJKAS_clean_linker_0, # of connection points: 2
#     Edge 50, Type (0, 0), BuildingBlock: ZUJKAS_clean_linker_0, # of connection points: 2
#     Edge 51, Type (0, 0), BuildingBlock: ZUJKAS_clean_linker_0, # of connection points: 2
#     Edge 52, Type (0, 0), BuildingBlock: ZUJKAS_clean_linker_0, # of connection points: 2
#     Edge 53, Type (0, 0), BuildingBlock: ZUJKAS_clean_linker_0, # of connection points: 2
#     Edge 54, Type (0, 0), BuildingBlock: ZUJKAS_clean_linker_0, # of connection points: 2
#     Edge 55, Type (0, 0), BuildingBlock: ZUJKAS_clean_linker_0, # of connection points: 2
#     Edge 56, Type (0, 0), BuildingBlock: ZUJKAS_clean_linker_0, # of connection points: 2
#     Edge 57, Type (0, 0), BuildingBlock: ZUJKAS_clean_linker_0, # of connection points: 2
#     Edge 58, Type (0, 0), BuildingBlock: ZUJKAS_clean_linker_0, # of connection points: 2
#     Edge 59, Type (0, 0), BuildingBlock: ZUJKAS_clean_linker_0, # of connection points: 2
#     Edge 60, Type (0, 0), BuildingBlock: ZUJKAS_clean_linker_0, # of connection points: 2
#     Edge 61, Type (0, 0), BuildingBlock: ZUJKAS_clean_linker_0, # of connection points: 2
#     Edge 62, Type (0, 0), BuildingBlock: ZUJKAS_clean_linker_0, # of connection points: 2
#     Edge 63, Type (0, 0), BuildingBlock: ZUJKAS_clean_linker_0, # of connection points: 2
#     Edge 64, Type (0, 0), BuildingBlock: ZUJKAS_clean_linker_0, # of connection points: 2
#     Edge 65, Type (0, 0), BuildingBlock: ZUJKAS_clean_linker_0, # of connection points: 2
#     Edge 66, Type (0, 0), BuildingBlock: ZUJKAS_clean_linker_0, # of connection points: 2
#     Edge 67, Type (0, 0), BuildingBlock: ZUJKAS_clean_linker_0, # of connection points: 2
#     Edge 68, Type (0, 0), BuildingBlock: ZUJKAS_clean_linker_0, # of connection points: 2
#     Edge 69, Type (0, 0), BuildingBlock: ZUJKAS_clean_linker_0, # of connection points: 2
#     Edge 70, Type (0, 0), BuildingBlock: ZUJKAS_clean_linker_0, # of connection points: 2
#     Edge 71, Type (0, 0), BuildingBlock: ZUJKAS_clean_linker_0, # of connection points: 2
#     Edge 72, Type (0, 0), BuildingBlock: ZUJKAS_clean_linker_0, # of connection points: 2
#     Edge 73, Type (0, 0), BuildingBlock: ZUJKAS_clean_linker_0, # of connection points: 2
#     Edge 74, Type (0, 0), BuildingBlock: ZUJKAS_clean_linker_0, # of connection points: 2
#     Edge 75, Type (0, 0), BuildingBlock: ZUJKAS_clean_linker_0, # of connection points: 2
#     Edge 76, Type (0, 0), BuildingBlock: ZUJKAS_clean_linker_0, # of connection points: 2
#     Edge 77, Type (0, 0), BuildingBlock: ZUJKAS_clean_linker_0, # of connection points: 2
#     Edge 78, Type (0, 0), BuildingBlock: ZUJKAS_clean_linker_0, # of connection points: 2
#     Edge 79, Type (0, 0), BuildingBlock: ZUJKAS_clean_linker_0, # of connection points: 2
# Relax obj value: 0.007
# Max RMSD: 0.035
# Mean RMSD: 0.035
data_MOF--net-lvt-a--node1-OLANEW_clean_sbu_2--edge1-ZUJKAS_clean_linker_0
_symmetry_space_group_name_H-M    P1
_symmetry_Int_Tables_number       1
_symmetry_cell_setting            triclinic
loop_
_symmetry_equiv_pos_as_xyz
'x, y, z'
_cell_length_a     119.43391
_cell_length_b     119.43038
_cell_length_c     99.786306
_cell_angle_alpha  90.01924
_cell_angle_beta   89.979342
_cell_angle_gamma 90.02385
loop_
_atom_site_label
_atom_site_type_symbol
_atom_site_fract_x
_atom_site_fract_y
_atom_site_fract_z
_atom_type_partial_charge
O0 O 0.05442 0.607 0.04426 0.0
Cd1 Cd 0.07482 0.60866 0.04368 0.0
O2 O 0.05653 0.58892 0.04177 0.0
Cd3 Cd 0.0512 0.57163 0.03827 0.0
O4 O 0.05001 0.55403 0.03244 0.0
C5 C 0.05434 0.55115 0.02132 0.0
O6 O 0.05906 0.55886 0.01381 0.0
C7 C 0.0501 0.59732 0.04324 0.0
C8 C 0.08336 0.61778 0.0673 0.0
O9 O 0.08107 0.62403 0.05722 0.0
O10 O 0.08161 0.60723 0.0662 0.0
O11 O 0.63754 0.81246 0.29011 0.0
Cd12 Cd 0.63465 0.83266 0.28844 0.0
O13 O 0.6545 0.81435 0.28208 0.0
Cd14 Cd 0.6715 0.80913 0.27663 0.0
O15 O 0.68885 0.80621 0.27056 0.0
C16 C 0.69345 0.81319 0.26266 0.0
O17 O 0.68757 0.82177 0.25839 0.0
C18 C 0.64677 0.80806 0.28659 0.0
C19 C 0.62798 0.84136 0.31311 0.0
O20 O 0.62076 0.83779 0.30462 0.0
O21 O 0.63836 0.84092 0.30988 0.0
O22 O 0.45209 0.41879 0.53755 0.0
Cd23 Cd 0.4318 0.42102 0.53526 0.0
O24 O 0.4535 0.43098 0.55398 0.0
Cd25 Cd 0.43672 0.43751 0.55033 0.0
O26 O 0.42578 0.4495 0.5403 0.0
C27 C 0.4299 0.45348 0.52956 0.0
O28 O 0.43968 0.44974 0.52549 0.0
C29 C 0.45797 0.42364 0.54645 0.0
C30 C 0.42092 0.40881 0.55527 0.0
O31 O 0.42349 0.40427 0.54404 0.0
O32 O 0.42333 0.41917 0.55694 0.0
O33 O 0.86882 0.18649 0.78858 0.0
Cd34 Cd 0.87231 0.16641 0.78666 0.0
O35 O 0.85113 0.1836 0.78397 0.0
Cd36 Cd 0.83341 0.18784 0.78158 0.0
O37 O 0.81542 0.1895 0.77811 0.0
C38 C 0.81182 0.19174 0.76643 0.0
O39 O 0.81907 0.19327 0.7567 0.0
C40 C 0.85903 0.19036 0.78679 0.0
C41 C 0.87726 0.15721 0.81162 0.0
O42 O 0.885 0.1612 0.80411 0.0
O43 O 0.86717 0.15749 0.80727 0.0
O44 O 0.07254 0.38269 0.94889 0.0
Cd45 Cd 0.0929 0.38176 0.95092 0.0
O46 O 0.07369 0.40017 0.95533 0.0
Cd47 Cd 0.06738 0.4165 0.96191 0.0
O48 O 0.063 0.43331 0.96879 0.0
C49 C 0.0658 0.43633 0.98054 0.0
O50 O 0.07108 0.42917 0.98827 0.0
C51 C 0.06773 0.39191 0.95158 0.0
C52 C 0.10311 0.37582 0.92681 0.0
O53 O 0.10028 0.36836 0.93541 0.0
O54 O 0.1011 0.3861 0.92962 0.0
O55 O 0.86802 0.8214 0.22154 0.0
Cd56 Cd 0.87307 0.84119 0.22054 0.0
O57 O 0.85032 0.82616 0.22072 0.0
Cd58 Cd 0.83231 0.82283 0.2217 0.0
O59 O 0.81432 0.82056 0.22448 0.0
C60 C 0.81043 0.81173 0.22985 0.0
O61 O 0.81739 0.80378 0.23353 0.0
C62 C 0.85777 0.81857 0.22118 0.0
C63 C 0.87752 0.8474 0.19414 0.0
O64 O 0.88531 0.84374 0.20179 0.0
O65 O 0.86763 0.84825 0.19903 0.0
O66 O 0.43246 0.59459 0.45741 0.0
Cd67 Cd 0.41258 0.58982 0.45899 0.0
O68 O 0.43529 0.58191 0.44179 0.0
Cd69 Cd 0.41993 0.57283 0.44651 0.0
O70 O 0.41178 0.55902 0.45699 0.0
C71 C 0.41603 0.55676 0.46834 0.0
O72 O 0.42417 0.56313 0.47286 0.0
C73 C 0.43882 0.59015 0.44867 0.0
C74 C 0.40192 0.59855 0.43642 0.0
O75 O 0.40257 0.60424 0.44729 0.0
O76 O 0.40601 0.58864 0.43637 0.0
O77 O 0.63781 0.17565 0.71515 0.0
Cd78 Cd 0.63684 0.15535 0.71246 0.0
O79 O 0.65554 0.17367 0.72019 0.0
Cd80 Cd 0.67262 0.17944 0.72425 0.0
O81 O 0.69015 0.18353 0.72814 0.0
C82 C 0.69384 0.18353 0.74008 0.0
O83 O 0.68693 0.18124 0.74995 0.0
C84 C 0.64713 0.18002 0.71837 0.0
C85 C 0.62975 0.14966 0.68674 0.0
O86 O 0.62273 0.15055 0.69641 0.0
O87 O 0.64012 0.1514 0.68927 0.0
O88 O 0.94587 0.41497 0.93279 0.0
Cd89 Cd 0.92706 0.42299 0.93135 0.0
O90 O 0.94385 0.41013 0.95391 0.0
Cd91 Cd 0.92874 0.42018 0.95619 0.0
O92 O 0.92257 0.43671 0.96182 0.0
C93 C 0.92795 0.44495 0.95697 0.0
O94 O 0.9361 0.44295 0.94845 0.0
C95 C 0.94965 0.41016 0.94322 0.0
C96 C 0.91304 0.41015 0.91506 0.0
O97 O 0.91862 0.4184 0.91026 0.0
O98 O 0.91408 0.40799 0.92758 0.0
O99 O 0.33206 0.1901 0.68595 0.0
Cd100 Cd 0.32919 0.16991 0.6884 0.0
O101 O 0.31863 0.19405 0.70031 0.0
Cd102 Cd 0.31254 0.17699 0.70343 0.0
O103 O 0.30004 0.16519 0.71098 0.0
C104 C 0.29951 0.16354 0.72355 0.0
O105 O 0.307 0.16832 0.73132 0.0
C106 C 0.32645 0.19728 0.69257 0.0
C107 C 0.34098 0.15726 0.66955 0.0
O108 O 0.33065 0.15973 0.66772 0.0
O109 O 0.34576 0.16083 0.68023 0.0
O110 O 0.56073 0.58551 0.43697 0.0
Cd111 Cd 0.57993 0.57837 0.43759 0.0
O112 O 0.56197 0.59364 0.45669 0.0
Cd113 Cd 0.57693 0.58399 0.46147 0.0
O114 O 0.58172 0.56728 0.46826 0.0
C115 C 0.57444 0.55978 0.46582 0.0
O116 O 0.56535 0.56262 0.45923 0.0
C117 C 0.5565 0.59174 0.44599 0.0
C118 C 0.59386 0.59066 0.4206 0.0
O119 O 0.58893 0.58177 0.41649 0.0
O120 O 0.59225 0.59371 0.43277 0.0
O121 O 0.1555 0.82213 0.17956 0.0
Cd122 Cd 0.15819 0.84228 0.17661 0.0
O123 O 0.16767 0.82408 0.19572 0.0
Cd124 Cd 0.17978 0.81899 0.21096 0.0
O125 O 0.19472 0.81905 0.22357 0.0
C126 C 0.20219 0.82624 0.22065 0.0
O127 O 0.20047 0.83297 0.21045 0.0
C128 C 0.16131 0.81776 0.18886 0.0
C129 C 0.14358 0.8525 0.15862 0.0
O130 O 0.15274 0.84804 0.15459 0.0
O131 O 0.14122 0.85191 0.17113 0.0
O132 O 0.92572 0.60022 0.06179 0.0
Cd133 Cd 0.90526 0.60097 0.06157 0.0
O134 O 0.92378 0.5877 0.04596 0.0
Cd135 Cd 0.92904 0.57458 0.03204 0.0
O136 O 0.9299 0.55937 0.01992 0.0
C137 C 0.92266 0.55182 0.02225 0.0
O138 O 0.9152 0.55353 0.03171 0.0
C139 C 0.93015 0.5935 0.05346 0.0
C140 C 0.89565 0.61209 0.08329 0.0
O141 O 0.89765 0.60155 0.08379 0.0
O142 O 0.8984 0.61739 0.07262 0.0
O143 O 0.15142 0.17381 0.79645 0.0
Cd144 Cd 0.15264 0.15369 0.79227 0.0
O145 O 0.16943 0.17551 0.80063 0.0
Cd146 Cd 0.17441 0.15854 0.79509 0.0
O147 O 0.18814 0.14959 0.78536 0.0
C148 C 0.19763 0.15009 0.79108 0.0
O149 O 0.19833 0.15499 0.80285 0.0
C150 C 0.15972 0.17983 0.79985 0.0
C151 C 0.1436 0.14159 0.81358 0.0
O152 O 0.15415 0.14346 0.81288 0.0
O153 O 0.13736 0.14538 0.80417 0.0
O154 O 0.58035 0.39528 0.55388 0.0
Cd155 Cd 0.60039 0.39133 0.55267 0.0
O156 O 0.58365 0.4104 0.54218 0.0
Cd157 Cd 0.58016 0.42652 0.53263 0.0
O158 O 0.58061 0.44291 0.52292 0.0
C159 C 0.57323 0.45033 0.52521 0.0
O160 O 0.56498 0.44802 0.53348 0.0
C161 C 0.57671 0.40405 0.54816 0.0
C162 C 0.60883 0.38286 0.57665 0.0
O163 O 0.60839 0.39344 0.57453 0.0
O164 O 0.60523 0.3763 0.56744 0.0
O165 O 0.33369 0.80741 0.32853 0.0
Cd166 Cd 0.3246 0.82565 0.33109 0.0
O167 O 0.33777 0.81024 0.30731 0.0
Cd168 Cd 0.32703 0.82493 0.30577 0.0
O169 O 0.31093 0.83042 0.29782 0.0
C170 C 0.30933 0.82847 0.28544 0.0
O171 O 0.31757 0.82419 0.27837 0.0
C172 C 0.33836 0.80416 0.31775 0.0
C173 C 0.33796 0.84079 0.34521 0.0
O174 O 0.33106 0.83433 0.35132 0.0
O175 O 0.33855 0.84007 0.33241 0.0
O176 O 0.55972 0.11359 0.53283 0.0
Cd177 Cd 0.57993 0.116 0.53056 0.0
O178 O 0.56273 0.09551 0.53307 0.0
Cd179 Cd 0.55808 0.07778 0.53253 0.0
O180 O 0.55632 0.05978 0.5292 0.0
C181 C 0.55426 0.05627 0.51743 0.0
O182 O 0.55296 0.06361 0.50774 0.0
C183 C 0.55591 0.10368 0.5337 0.0
C184 C 0.58956 0.12157 0.55511 0.0
O185 O 0.5866 0.12919 0.54679 0.0
O186 O 0.58804 0.11132 0.55176 0.0
O187 O 0.16393 0.30445 0.79109 0.0
Cd188 Cd 0.16956 0.32403 0.78867 0.0
O189 O 0.17639 0.30153 0.80692 0.0
Cd190 Cd 0.1861 0.31639 0.80175 0.0
O191 O 0.2009 0.32229 0.79102 0.0
C192 C 0.20231 0.31819 0.77939 0.0
O193 O 0.19457 0.3115 0.77452 0.0
C194 C 0.16807 0.29814 0.80007 0.0
C195 C 0.15964 0.33637 0.80924 0.0
O196 O 0.1548 0.33528 0.79785 0.0
O197 O 0.16928 0.33185 0.81078 0.0
O198 O 0.92842 0.88114 0.02918 0.0
Cd199 Cd 0.90881 0.87537 0.02966 0.0
O200 O 0.92301 0.89867 0.02875 0.0
Cd201 Cd 0.92585 0.91671 0.02697 0.0
O202 O 0.92816 0.93464 0.0237 0.0
C203 C 0.9357 0.93816 0.01575 0.0
O204 O 0.9422 0.93087 0.0097 0.0
C205 C 0.93087 0.89149 0.02908 0.0
C206 C 0.90226 0.87104 0.05597 0.0
O207 O 0.90635 0.86328 0.04856 0.0
O208 O 0.90114 0.88082 0.05088 0.0
O209 O 0.36846 0.68367 0.29336 0.0
Cd210 Cd 0.36938 0.66364 0.28861 0.0
O211 O 0.35097 0.68313 0.28686 0.0
Cd212 Cd 0.33392 0.68936 0.28377 0.0
O213 O 0.3166 0.6936 0.2789 0.0
C214 C 0.31313 0.6919 0.26703 0.0
O215 O 0.32012 0.68781 0.25811 0.0
C216 C 0.35924 0.6887 0.29138 0.0
C217 C 0.37327 0.65169 0.31211 0.0
O218 O 0.3814 0.65482 0.30459 0.0
O219 O 0.36329 0.65412 0.30844 0.0
O220 O 0.55922 0.88097 0.46653 0.0
Cd221 Cd 0.5791 0.87658 0.46891 0.0
O222 O 0.56283 0.89841 0.47176 0.0
Cd223 Cd 0.55872 0.91579 0.47682 0.0
O224 O 0.55579 0.93339 0.48168 0.0
C225 C 0.56343 0.93889 0.48762 0.0
O226 O 0.57283 0.9338 0.49073 0.0
C227 C 0.55579 0.89092 0.4684 0.0
C228 C 0.5887 0.87176 0.4441 0.0
O229 O 0.58425 0.86403 0.45126 0.0
O230 O 0.58867 0.88177 0.44873 0.0
O231 O 0.36553 0.31642 0.68802 0.0
Cd232 Cd 0.37239 0.33553 0.69109 0.0
O233 O 0.34959 0.32181 0.69664 0.0
Cd234 Cd 0.33215 0.32084 0.70333 0.0
O235 O 0.31533 0.32247 0.71171 0.0
C236 C 0.30978 0.31391 0.71532 0.0
O237 O 0.31424 0.30393 0.71381 0.0
C238 C 0.35566 0.31403 0.69182 0.0
C239 C 0.37908 0.3458 0.66731 0.0
O240 O 0.3859 0.33979 0.67413 0.0
O241 O 0.36904 0.34685 0.67167 0.0
O242 O 0.93641 0.11362 0.96839 0.0
Cd243 Cd 0.91615 0.11623 0.96931 0.0
O244 O 0.93397 0.09552 0.96994 0.0
Cd245 Cd 0.93794 0.07761 0.97037 0.0
O246 O 0.94014 0.05972 0.97422 0.0
C247 C 0.93467 0.05542 0.98386 0.0
O248 O 0.92801 0.06186 0.99096 0.0
C249 C 0.94058 0.10384 0.96889 0.0
C250 C 0.90782 0.12199 0.94415 0.0
O251 O 0.91116 0.12951 0.95239 0.0
O252 O 0.90833 0.11173 0.94786 0.0
O253 O 0.14124 0.6949 0.20892 0.0
Cd254 Cd 0.13911 0.6746 0.2108 0.0
O255 O 0.15931 0.69239 0.21092 0.0
Cd256 Cd 0.17679 0.69749 0.21344 0.0
O257 O 0.19455 0.69939 0.21812 0.0
C258 C 0.1975 0.70247 0.22979 0.0
O259 O 0.18973 0.70477 0.2387 0.0
C260 C 0.15106 0.69898 0.20934 0.0
C261 C 0.12988 0.66518 0.18772 0.0
O262 O 0.12366 0.66807 0.1976 0.0
O263 O 0.14046 0.66676 0.18875 0.0
O264 O 0.43771 0.92529 0.43847 0.0
Cd265 Cd 0.41928 0.93341 0.43413 0.0
O266 O 0.4338 0.92099 0.45939 0.0
Cd267 Cd 0.41827 0.93062 0.45938 0.0
O268 O 0.40957 0.94611 0.46452 0.0
C269 C 0.41507 0.95503 0.46227 0.0
O270 O 0.42492 0.95422 0.45648 0.0
C271 C 0.44053 0.92076 0.44951 0.0
C272 C 0.40588 0.91857 0.41963 0.0
O273 O 0.41223 0.92564 0.41365 0.0
O274 O 0.40582 0.91857 0.43247 0.0
O275 O 0.82324 0.69842 0.20541 0.0
Cd276 Cd 0.81682 0.67911 0.20263 0.0
O277 O 0.83414 0.69466 0.22259 0.0
Cd278 Cd 0.82651 0.67816 0.2248 0.0
O279 O 0.81142 0.66885 0.23017 0.0
C280 C 0.80261 0.67482 0.23004 0.0
O281 O 0.80346 0.68538 0.2265 0.0
C282 C 0.83046 0.70159 0.21398 0.0
C283 C 0.83011 0.66783 0.18403 0.0
O284 O 0.82127 0.6731 0.18038 0.0
O285 O 0.83262 0.66783 0.19652 0.0
O286 O 0.0632 0.07952 0.94899 0.0
Cd287 Cd 0.08306 0.07463 0.94764 0.0
O288 O 0.06513 0.08699 0.96902 0.0
Cd289 Cd 0.0812 0.07867 0.97213 0.0
O290 O 0.09022 0.06352 0.978 0.0
C291 C 0.08768 0.05458 0.97179 0.0
O292 O 0.08041 0.05512 0.96193 0.0
C293 C 0.05912 0.08502 0.95876 0.0
C294 C 0.09354 0.0849 0.9259 0.0
O295 O 0.08979 0.07487 0.925 0.0
O296 O 0.09234 0.09006 0.93707 0.0
O297 O 0.6633 0.30519 0.71718 0.0
Cd298 Cd 0.66889 0.32488 0.71651 0.0
O299 O 0.67273 0.30178 0.73566 0.0
Cd300 Cd 0.67988 0.31852 0.73762 0.0
O301 O 0.6931 0.33014 0.74348 0.0
C302 C 0.69947 0.33471 0.73485 0.0
O303 O 0.69751 0.333 0.72205 0.0
C304 C 0.66635 0.29841 0.72629 0.0
C305 C 0.65924 0.33568 0.6946 0.0
O306 O 0.66873 0.33073 0.69356 0.0
O307 O 0.65436 0.33559 0.70605 0.0
O308 O 0.43331 0.08053 0.55612 0.0
Cd309 Cd 0.41339 0.07572 0.55682 0.0
O310 O 0.43145 0.08988 0.53725 0.0
Cd311 Cd 0.41505 0.08249 0.53341 0.0
O312 O 0.40676 0.06739 0.52606 0.0
C313 C 0.41194 0.05837 0.52874 0.0
O314 O 0.42109 0.05895 0.53602 0.0
C315 C 0.43749 0.08679 0.54708 0.0
C316 C 0.40167 0.08892 0.57517 0.0
O317 O 0.40515 0.07913 0.57838 0.0
O318 O 0.40373 0.09246 0.5633 0.0
O319 O 0.6712 0.68649 0.31247 0.0
Cd320 Cd 0.67782 0.66723 0.31511 0.0
O321 O 0.66563 0.68381 0.29171 0.0
Cd322 Cd 0.67386 0.66753 0.2904 0.0
O323 O 0.68917 0.65862 0.28503 0.0
C324 C 0.69189 0.65854 0.27272 0.0
O325 O 0.68493 0.6629 0.26395 0.0
C326 C 0.66648 0.69014 0.30191 0.0
C327 C 0.66415 0.65486 0.3323 0.0
O328 O 0.67276 0.66009 0.33674 0.0
O329 O 0.662 0.65549 0.31974 0.0
O330 O 0.04862 0.93104 0.05126 0.0
Cd331 Cd 0.06742 0.93836 0.05547 0.0
O332 O 0.0537 0.92007 0.03462 0.0
Cd333 Cd 0.07018 0.92791 0.03377 0.0
O334 O 0.08137 0.94183 0.02909 0.0
C335 C 0.0825 0.94437 0.0168 0.0
O336 O 0.07759 0.93808 0.00774 0.0
C337 C 0.04617 0.92362 0.04258 0.0
C338 C 0.07963 0.92374 0.07167 0.0
O339 O 0.0734 0.93135 0.07681 0.0
O340 O 0.08015 0.9231 0.05887 0.0
O341 O 0.83539 0.31308 0.80819 0.0
Cd342 Cd 0.8297 0.3327 0.80996 0.0
O343 O 0.83826 0.31425 0.78646 0.0
Cd344 Cd 0.83066 0.33081 0.78468 0.0
O345 O 0.81641 0.34099 0.77846 0.0
C346 C 0.80761 0.3407 0.78561 0.0
O347 O 0.80781 0.33506 0.79692 0.0
C348 C 0.83858 0.30861 0.79726 0.0
C349 C 0.84322 0.3447 0.82769 0.0
O350 O 0.83414 0.34003 0.8317 0.0
O351 O 0.84589 0.34367 0.81531 0.0
H352 H 0.07137 0.44555 0.00471 0.0
H353 H 0.06831 0.46481 0.01218 0.0
H354 H 0.05232 0.47254 0.97458 0.0
H355 H 0.05524 0.45327 0.96704 0.0
H356 H 0.07651 0.48414 -0.0 0.0
H357 H 0.03008 0.48466 0.00248 0.0
H358 H 0.03807 0.47184 0.00168 0.0
H359 H 0.03566 0.4799 0.98676 0.0
C360 C 0.06711 0.45131 0.99805 0.0
C361 C 0.06354 0.44787 0.98527 0.0
C362 C 0.06538 0.46231 0.00235 0.0
C363 C 0.05997 0.47006 0.994 0.0
C364 C 0.05632 0.46664 0.98128 0.0
H365 H 0.06339 0.54234 0.99849 0.0
H366 H 0.0645 0.52264 0.99203 0.0
C367 C 0.05806 0.45564 0.97696 0.0
C368 C 0.05868 0.48185 0.99835 0.0
H369 H 0.03932 0.50224 0.00459 0.0
C370 C 0.06838 0.48809 0.00106 0.0
C371 C 0.04806 0.48693 0.99985 0.0
C372 C 0.03736 0.48048 0.99767 0.0
C373 C 0.06776 0.49935 0.00498 0.0
C374 C 0.05716 0.50454 0.00606 0.0
C375 C 0.04744 0.49825 0.00362 0.0
C376 C 0.05602 0.5165 0.00972 0.0
C377 C 0.07846 0.50556 0.0081 0.0
C378 C 0.05058 0.51959 0.02162 0.0
C379 C 0.04989 0.53087 0.02534 0.0
C380 C 0.05458 0.53924 0.01716 0.0
C381 C 0.05976 0.53611 0.00507 0.0
C382 C 0.06045 0.52485 0.00138 0.0
H383 H 0.08552 0.49974 0.01004 0.0
H384 H 0.08074 0.51088 0.9994 0.0
H385 H 0.07738 0.51108 0.01696 0.0
H386 H 0.04706 0.51326 0.02816 0.0
H387 H 0.04581 0.533 0.03469 0.0
H388 H 0.79385 0.82648 0.22318 0.0
H389 H 0.77389 0.82509 0.22836 0.0
H390 H 0.77943 0.79318 0.24742 0.0
H391 H 0.79945 0.79451 0.24237 0.0
H392 H 0.75819 0.80794 0.22119 0.0
H393 H 0.76336 0.81217 0.27637 0.0
H394 H 0.77432 0.8158 0.26469 0.0
H395 H 0.77153 0.80138 0.26849 0.0
C396 C 0.79084 0.81915 0.22846 0.0
C397 C 0.79827 0.81064 0.23245 0.0
C398 C 0.77942 0.81837 0.23138 0.0
C399 C 0.77522 0.80911 0.23842 0.0
C400 C 0.78255 0.80048 0.24217 0.0
H401 H 0.70801 0.79643 0.26962 0.0
H402 H 0.72771 0.79457 0.26315 0.0
C403 C 0.79398 0.80124 0.23922 0.0
C404 C 0.76318 0.8086 0.2419 0.0
H405 H 0.74503 0.80933 0.26832 0.0
C406 C 0.7553 0.80821 0.23149 0.0
C407 C 0.75946 0.80892 0.25535 0.0
C408 C 0.76757 0.80968 0.2669 0.0
C409 C 0.74376 0.80815 0.23417 0.0
C410 C 0.74002 0.80872 0.24761 0.0
C411 C 0.74791 0.80889 0.25803 0.0
C412 C 0.72798 0.80961 0.25108 0.0
C413 C 0.73567 0.80737 0.22259 0.0
C414 C 0.72164 0.81873 0.24653 0.0
C415 C 0.7104 0.81982 0.25018 0.0
C416 C 0.70529 0.81184 0.25856 0.0
C417 C 0.71168 0.80271 0.26313 0.0
C418 C 0.72293 0.80163 0.25946 0.0
H419 H 0.7397 0.80368 0.21357 0.0
H420 H 0.72824 0.80224 0.22525 0.0
H421 H 0.73276 0.81591 0.21992 0.0
H422 H 0.72543 0.82513 0.24032 0.0
H423 H 0.70575 0.82698 0.24654 0.0
H424 H 0.40933 0.46294 0.53452 0.0
H425 H 0.40115 0.47938 0.52351 0.0
H426 H 0.43021 0.48182 0.49797 0.0
H427 H 0.43819 0.46533 0.50851 0.0
H428 H 0.40873 0.49996 0.52344 0.0
H429 H 0.40624 0.48645 0.47086 0.0
H430 H 0.40849 0.47663 0.48434 0.0
H431 H 0.42013 0.48398 0.47689 0.0
C432 C 0.41386 0.46687 0.52638 0.0
C433 C 0.4244 0.46281 0.52237 0.0
C434 C 0.40918 0.47626 0.5201 0.0
C435 C 0.41495 0.48172 0.50971 0.0
C436 C 0.4254 0.47756 0.50563 0.0
H437 H 0.42575 0.54836 0.49085 0.0
H438 H 0.42232 0.53035 0.50139 0.0
C439 C 0.43002 0.46817 0.51179 0.0
C440 C 0.41075 0.49239 0.50396 0.0
H441 H 0.40912 0.50657 0.47438 0.0
C442 C 0.40854 0.50134 0.5127 0.0
C443 C 0.41014 0.49419 0.48996 0.0
C444 C 0.41125 0.48474 0.48001 0.0
C445 C 0.40676 0.51222 0.50782 0.0
C446 C 0.40758 0.51424 0.49387 0.0
C447 C 0.40874 0.50511 0.4851 0.0
C448 C 0.4086 0.52573 0.4883 0.0
C449 C 0.40431 0.52145 0.51771 0.0
C450 C 0.40218 0.52912 0.47724 0.0
C451 C 0.40428 0.53941 0.47097 0.0
C452 C 0.41287 0.54645 0.47567 0.0
C453 C 0.41903 0.54318 0.48701 0.0
C454 C 0.41699 0.5329 0.49316 0.0
H455 H 0.39951 0.51819 0.52641 0.0
H456 H 0.41232 0.52485 0.5216 0.0
H457 H 0.39948 0.52837 0.51304 0.0
H458 H 0.39572 0.5237 0.47324 0.0
H459 H 0.39939 0.54169 0.46226 0.0
H460 H 0.79461 0.18857 0.78418 0.0
H461 H 0.77454 0.18818 0.77934 0.0
H462 H 0.78132 0.19534 0.73777 0.0
H463 H 0.80142 0.19564 0.74247 0.0
H464 H 0.76052 0.20495 0.76793 0.0
H465 H 0.76231 0.16655 0.73651 0.0
H466 H 0.77365 0.17073 0.74738 0.0
H467 H 0.77168 0.17755 0.73152 0.0
C468 C 0.79185 0.19008 0.77401 0.0
C469 C 0.79963 0.19205 0.76369 0.0
C470 C 0.78037 0.18987 0.77127 0.0
C471 C 0.77647 0.19156 0.75817 0.0
C472 C 0.78418 0.19381 0.74791 0.0
H473 H 0.71035 0.18848 0.72197 0.0
H474 H 0.7303 0.19124 0.72642 0.0
C475 C 0.79566 0.19403 0.75063 0.0
C476 C 0.76433 0.19088 0.75523 0.0
H477 H 0.74489 0.17588 0.73771 0.0
C478 C 0.75709 0.19859 0.76134 0.0
C479 C 0.7599 0.18258 0.74662 0.0
C480 C 0.76725 0.17381 0.7402 0.0
C481 C 0.7455 0.19831 0.75892 0.0
C482 C 0.74106 0.18997 0.75038 0.0
C483 C 0.74833 0.18229 0.74422 0.0
C484 C 0.72888 0.18888 0.74785 0.0
C485 C 0.73815 0.20707 0.76536 0.0
C486 C 0.72147 0.18659 0.75842 0.0
C487 C 0.71006 0.18504 0.75593 0.0
C488 C 0.70586 0.18564 0.74278 0.0
C489 C 0.7133 0.18798 0.73222 0.0
C490 C 0.72471 0.18955 0.73473 0.0
H491 H 0.74305 0.21454 0.76847 0.0
H492 H 0.73141 0.20979 0.75842 0.0
H493 H 0.73418 0.20348 0.77444 0.0
H494 H 0.72455 0.1858 0.76859 0.0
H495 H 0.70458 0.18319 0.76428 0.0
H496 H 0.93643 0.54581 0.00148 0.0
H497 H 0.93635 0.5282 0.98893 0.0
H498 H 0.90893 0.51621 0.01314 0.0
H499 H 0.90882 0.53382 0.02558 0.0
H500 H 0.93976 0.50691 0.99882 0.0
H501 H 0.8978 0.50995 0.9753 0.0
H502 H 0.90468 0.52182 0.98293 0.0
H503 H 0.89761 0.51165 0.99318 0.0
C504 C 0.93033 0.53946 0.00408 0.0
C505 C 0.92261 0.54124 0.0145 0.0
C506 C 0.93029 0.52941 0.99689 0.0
C507 C 0.92251 0.52098 0.99995 0.0
C508 C 0.91483 0.52271 0.01039 0.0
H509 H 0.91308 0.45189 0.97621 0.0
H510 H 0.9115 0.47064 0.98601 0.0
C511 C 0.91484 0.53276 0.01756 0.0
C512 C 0.92279 0.51015 0.99269 0.0
H513 H 0.90693 0.49224 0.9739 0.0
C514 C 0.93262 0.50375 0.99327 0.0
C515 C 0.91343 0.50603 0.98551 0.0
C516 C 0.90281 0.51276 0.98406 0.0
C517 C 0.93328 0.49321 0.98711 0.0
C518 C 0.92391 0.48906 0.98001 0.0
C519 C 0.91408 0.49547 0.97937 0.0
C520 C 0.92418 0.47801 0.97329 0.0
C521 C 0.94391 0.48648 0.98852 0.0
C522 C 0.93159 0.47607 0.96264 0.0
C523 C 0.93251 0.4654 0.95702 0.0
C524 C 0.92602 0.45648 0.96194 0.0
C525 C 0.91824 0.45857 0.97223 0.0
C526 C 0.91732 0.46927 0.97784 0.0
H527 H 0.9493 0.48969 0.99674 0.0
H528 H 0.94199 0.47753 0.99048 0.0
H529 H 0.94874 0.48698 0.97904 0.0
H530 H 0.93681 0.48278 0.95884 0.0
H531 H 0.93853 0.46411 0.94905 0.0
H532 H 0.21919 0.15146 0.80001 0.0
H533 H 0.23628 0.14922 0.78687 0.0
H534 H 0.21672 0.13928 0.75256 0.0
H535 H 0.1995 0.14167 0.76558 0.0
H536 H 0.24602 0.13154 0.77169 0.0
H537 H 0.23316 0.16765 0.73993 0.0
H538 H 0.22618 0.16428 0.75544 0.0
H539 H 0.22351 0.15613 0.74065 0.0
C540 C 0.2185 0.14864 0.78972 0.0
C541 C 0.20796 0.14692 0.78378 0.0
C542 C 0.2283 0.14734 0.78224 0.0
C543 C 0.22775 0.14429 0.76868 0.0
C544 C 0.2173 0.14183 0.76295 0.0
H545 H 0.28167 0.15406 0.7105 0.0
H546 H 0.26441 0.14689 0.72055 0.0
C547 C 0.20748 0.14316 0.77043 0.0
C548 C 0.23804 0.14466 0.7604 0.0
H549 H 0.25078 0.15983 0.73574 0.0
C550 C 0.24704 0.13763 0.76372 0.0
C551 C 0.23933 0.15262 0.75001 0.0
C552 C 0.23009 0.16067 0.74631 0.0
C553 C 0.25739 0.1385 0.75709 0.0
C554 C 0.2588 0.14675 0.74706 0.0
C555 C 0.24967 0.15348 0.7434 0.0
C556 C 0.26986 0.14932 0.74102 0.0
C557 C 0.26672 0.13065 0.76097 0.0
C558 C 0.27873 0.1529 0.74919 0.0
C559 C 0.28861 0.15699 0.74349 0.0
C560 C 0.28976 0.15769 0.72949 0.0
C561 C 0.28105 0.15365 0.72132 0.0
C562 C 0.27118 0.14955 0.72704 0.0
H563 H 0.26338 0.1227 0.76516 0.0
H564 H 0.27216 0.12866 0.75225 0.0
H565 H 0.27194 0.13466 0.76881 0.0
H566 H 0.27783 0.15306 0.75999 0.0
H567 H 0.29513 0.16004 0.75008 0.0
H568 H 0.59164 0.55112 0.48084 0.0
H569 H 0.59302 0.53221 0.49024 0.0
H570 H 0.56135 0.52359 0.47224 0.0
H571 H 0.55998 0.54231 0.46267 0.0
H572 H 0.5784 0.52208 0.50797 0.0
H573 H 0.58114 0.49749 0.46102 0.0
H574 H 0.58335 0.51244 0.46149 0.0
H575 H 0.56937 0.50682 0.4613 0.0
C576 C 0.58504 0.54515 0.47876 0.0
C577 C 0.57572 0.54822 0.47097 0.0
C578 C 0.58583 0.53436 0.48415 0.0
C579 C 0.57736 0.52645 0.48178 0.0
C580 C 0.5681 0.52948 0.47395 0.0
H581 H 0.55886 0.46806 0.52774 0.0
H582 H 0.56046 0.48655 0.51738 0.0
C583 C 0.5673 0.54023 0.46855 0.0
C584 C 0.57786 0.5152 0.48803 0.0
H585 H 0.57667 0.48726 0.48093 0.0
C586 C 0.57813 0.51446 0.50207 0.0
C587 C 0.57764 0.50527 0.4803 0.0
C588 C 0.57797 0.50551 0.46519 0.0
C589 C 0.57782 0.50405 0.5086 0.0
C590 C 0.57702 0.49414 0.50087 0.0
C591 C 0.57713 0.49487 0.48683 0.0
C592 C 0.57604 0.48294 0.50716 0.0
C593 C 0.57841 0.50376 0.5237 0.0
C594 C 0.58409 0.47468 0.50455 0.0
C595 C 0.58316 0.46407 0.51037 0.0
C596 C 0.5741 0.46151 0.51887 0.0
C597 C 0.56597 0.46977 0.52132 0.0
C598 C 0.56691 0.48037 0.51548 0.0
H599 H 0.5821 0.51158 0.52782 0.0
H600 H 0.56982 0.5029 0.52781 0.0
H601 H 0.58345 0.49653 0.52722 0.0
H602 H 0.59116 0.47646 0.49809 0.0
H603 H 0.58956 0.45791 0.50824 0.0
H604 H 0.28972 0.83442 0.29789 0.0
H605 H 0.2709 0.83455 0.28814 0.0
H606 H 0.28469 0.82563 0.24965 0.0
H607 H 0.30347 0.82534 0.25929 0.0
H608 H 0.26158 0.84659 0.26666 0.0
H609 H 0.26157 0.8009 0.25673 0.0
H610 H 0.27176 0.80755 0.26747 0.0
H611 H 0.27335 0.80808 0.24955 0.0
C612 C 0.28876 0.83257 0.28733 0.0
C613 C 0.29809 0.82975 0.2794 0.0
C614 C 0.278 0.83264 0.28178 0.0
C615 C 0.2764 0.82987 0.26825 0.0
C616 C 0.28573 0.82754 0.26019 0.0
H617 H 0.22001 0.84003 0.21609 0.0
H618 H 0.2375 0.84109 0.22865 0.0
C619 C 0.29647 0.82744 0.26571 0.0
C620 C 0.26497 0.82922 0.26255 0.0
H621 H 0.24693 0.81148 0.24663 0.0
C622 C 0.25833 0.8389 0.26236 0.0
C623 C 0.26068 0.81912 0.25718 0.0
C624 C 0.26715 0.80829 0.25784 0.0
C625 C 0.24764 0.83886 0.2565 0.0
C626 C 0.2436 0.82891 0.2505 0.0
C627 C 0.25009 0.81913 0.25112 0.0
C628 C 0.2328 0.8285 0.24319 0.0
C629 C 0.24076 0.84945 0.25685 0.0
C630 C 0.22445 0.82085 0.24699 0.0
C631 C 0.21446 0.82014 0.23973 0.0
C632 C 0.21267 0.82702 0.2285 0.0
C633 C 0.22108 0.83465 0.22473 0.0
C634 C 0.23106 0.83534 0.23196 0.0
H635 H 0.24347 0.85509 0.26509 0.0
H636 H 0.24186 0.85401 0.24725 0.0
H637 H 0.23172 0.84755 0.25813 0.0
H638 H 0.22567 0.81543 0.25557 0.0
H639 H 0.20816 0.81416 0.24289 0.0
H640 H 0.55061 0.04614 0.49326 0.0
H641 H 0.55099 0.02611 0.48822 0.0
H642 H 0.55784 0.01887 0.52975 0.0
H643 H 0.55735 0.03888 0.53493 0.0
H644 H 0.56895 0.01168 0.49187 0.0
H645 H 0.53196 0.99753 0.52097 0.0
H646 H 0.53444 0.01206 0.51696 0.0
H647 H 0.54187 0.00554 0.53053 0.0
C648 C 0.55209 0.04029 0.50136 0.0
C649 C 0.55394 0.04412 0.51451 0.0
C650 C 0.55231 0.02885 0.49845 0.0
C651 C 0.55431 0.021 0.50863 0.0
C652 C 0.55607 0.02477 0.52179 0.0
H653 H 0.57827 0.95302 0.49984 0.0
H654 H 0.57584 0.97291 0.50476 0.0
C655 C 0.55585 0.03622 0.52471 0.0
C656 C 0.55514 0.00893 0.50535 0.0
H657 H 0.54393 0.98328 0.51238 0.0
C658 C 0.56345 0.00547 0.4963 0.0
C659 C 0.54787 0.00087 0.51104 0.0
C660 C 0.53846 0.00417 0.52032 0.0
C661 C 0.56484 0.99414 0.49299 0.0
C662 C 0.55783 0.98604 0.49904 0.0
C663 C 0.54936 0.98951 0.50787 0.0
C664 C 0.55918 0.97392 0.49632 0.0
C665 C 0.57373 0.99094 0.48294 0.0
C666 C 0.55051 0.96783 0.49026 0.0
C667 C 0.55185 0.95643 0.48748 0.0
C668 C 0.56188 0.95091 0.49079 0.0
C669 C 0.57047 0.95702 0.49708 0.0
C670 C 0.56912 0.96841 0.49985 0.0
H671 H 0.57637 0.99822 0.47676 0.0
H672 H 0.5812 0.98777 0.48834 0.0
H673 H 0.5707 0.98421 0.47617 0.0
H674 H 0.54275 0.97194 0.48753 0.0
H675 H 0.54505 0.95197 0.48267 0.0
H676 H 0.29568 0.29738 0.72399 0.0
H677 H 0.27724 0.29955 0.73434 0.0
H678 H 0.28009 0.33544 0.73108 0.0
H679 H 0.29846 0.33337 0.72056 0.0
H680 H 0.2719 0.31079 0.75789 0.0
H681 H 0.2494 0.32909 0.7144 0.0
H682 H 0.26282 0.32228 0.7128 0.0
H683 H 0.26197 0.33636 0.71909 0.0
C684 C 0.29236 0.30574 0.7254 0.0
C685 C 0.29853 0.3152 0.7214 0.0
C686 C 0.28183 0.30696 0.73133 0.0
C687 C 0.27724 0.31765 0.73332 0.0
C688 C 0.28338 0.32711 0.7294 0.0
H689 H 0.22076 0.33021 0.78726 0.0
H690 H 0.23897 0.33115 0.77602 0.0
C691 C 0.29391 0.3259 0.72345 0.0
C692 C 0.26617 0.31886 0.73988 0.0
H693 H 0.23951 0.32837 0.73498 0.0
C694 C 0.26482 0.31465 0.7529 0.0
C695 C 0.25693 0.32382 0.73329 0.0
C696 C 0.25777 0.32807 0.71908 0.0
C697 C 0.25447 0.31524 0.75953 0.0
C698 C 0.24528 0.32035 0.75302 0.0
C699 C 0.24662 0.32457 0.73999 0.0
C700 C 0.23402 0.32074 0.75927 0.0
C701 C 0.25339 0.31007 0.77327 0.0
C702 C 0.22509 0.31499 0.7533 0.0
C703 C 0.21467 0.3145 0.75963 0.0
C704 C 0.21298 0.31979 0.77206 0.0
C705 C 0.22181 0.32598 0.77774 0.0
C706 C 0.23224 0.32647 0.77138 0.0
H707 H 0.26045 0.30433 0.77555 0.0
H708 H 0.25337 0.31681 0.78093 0.0
H709 H 0.24542 0.30534 0.7742 0.0
H710 H 0.22628 0.31056 0.74392 0.0
H711 H 0.20805 0.30971 0.75493 0.0
H712 H 0.94972 0.94835 0.99778 0.0
H713 H 0.95095 0.96834 0.99253 0.0
H714 H 0.92534 0.97535 0.02182 0.0
H715 H 0.92407 0.95542 0.02718 0.0
H716 H 0.93314 0.98213 0.98318 0.0
H717 H 0.95057 0.9976 0.03129 0.0
H718 H 0.9511 0.98304 0.02644 0.0
H719 H 0.93838 0.9889 0.03303 0.0
C720 C 0.94441 0.95415 0.00319 0.0
C721 C 0.9368 0.95029 0.01292 0.0
C722 C 0.94512 0.96556 0.00016 0.0
C723 C 0.93833 0.97332 0.0069 0.0
C724 C 0.93079 0.96951 0.01667 0.0
H725 H 0.92357 0.04371 0.00326 0.0
H726 H 0.925 0.02375 0.00833 0.0
C727 C 0.93004 0.95811 0.01967 0.0
C728 C 0.93873 0.98535 0.00331 0.0
H729 H 0.94363 0.01137 0.0162 0.0
C730 C 0.93553 0.98853 0.99034 0.0
C731 C 0.94184 0.99365 0.0127 0.0
C732 C 0.94577 0.99065 0.02662 0.0
C733 C 0.935 0.99986 0.98662 0.0
C734 C 0.93796 0.00818 0.99607 0.0
C735 C 0.94134 0.00497 0.00898 0.0
C736 C 0.93726 0.02029 0.99292 0.0
C737 C 0.93089 0.00283 0.97277 0.0
C738 C 0.94379 0.02499 0.98266 0.0
C739 C 0.94297 0.03641 0.97969 0.0
C740 C 0.93566 0.04334 0.987 0.0
C741 C 0.92926 0.03861 0.9974 0.0
C742 C 0.93007 0.02721 0.00033 0.0
H743 H 0.92644 0.99572 0.96795 0.0
H744 H 0.92516 0.01014 0.97312 0.0
H745 H 0.93815 0.00506 0.96637 0.0
H746 H 0.94956 0.01984 0.97699 0.0
H747 H 0.94807 0.0398 0.97168 0.0
H748 H 0.20657 0.70835 0.25397 0.0
H749 H 0.22632 0.70807 0.26042 0.0
H750 H 0.2353 0.69692 0.22074 0.0
H751 H 0.2156 0.69731 0.21413 0.0
H752 H 0.24038 0.68956 0.26034 0.0
H753 H 0.25701 0.72283 0.22704 0.0
H754 H 0.24223 0.72113 0.23032 0.0
H755 H 0.24917 0.71222 0.21839 0.0
C756 C 0.21275 0.70595 0.24656 0.0
C757 C 0.2095 0.70287 0.23352 0.0
C758 C 0.22403 0.70579 0.25028 0.0
C759 C 0.23228 0.70262 0.24101 0.0
C760 C 0.22909 0.69962 0.22797 0.0
H761 H 0.30305 0.68855 0.24278 0.0
H762 H 0.28339 0.69154 0.23698 0.0
C763 C 0.21781 0.69979 0.22423 0.0
C764 C 0.24416 0.70184 0.24521 0.0
H765 H 0.27047 0.71127 0.23797 0.0
C766 C 0.24695 0.69438 0.25555 0.0
C767 C 0.25271 0.70812 0.2389 0.0
C768 C 0.25015 0.71661 0.22813 0.0
C769 C 0.25812 0.6928 0.2595 0.0
C770 C 0.26668 0.69899 0.25309 0.0
C771 C 0.26388 0.70654 0.24285 0.0
C772 C 0.27864 0.69752 0.25664 0.0
C773 C 0.26068 0.68426 0.27022 0.0
C774 C 0.28251 0.70007 0.26956 0.0
C775 C 0.29374 0.69835 0.27293 0.0
C776 C 0.30131 0.6941 0.26339 0.0
C777 C 0.29744 0.6918 0.25037 0.0
C778 C 0.28621 0.69351 0.24703 0.0
H779 H 0.25357 0.67841 0.27184 0.0
H780 H 0.26823 0.67931 0.26757 0.0
H781 H 0.26236 0.68865 0.27981 0.0
H782 H 0.27683 0.70337 0.27705 0.0
H783 H 0.29646 0.70028 0.28302 0.0
H784 H 0.39545 0.95977 0.4755 0.0
H785 H 0.39 0.97765 0.48567 0.0
H786 H 0.42052 0.9927 0.47117 0.0
H787 H 0.42587 0.97508 0.46076 0.0
H788 H 0.40065 0.98836 0.50525 0.0
H789 H 0.39839 0.01663 0.4617 0.0
H790 H 0.39868 0.00159 0.4599 0.0
H791 H 0.41151 0.00938 0.46179 0.0
C792 C 0.40089 0.96696 0.47426 0.0
C793 C 0.4111 0.966 0.46731 0.0
C794 C 0.39776 0.97716 0.48008 0.0
C795 C 0.40475 0.98658 0.479 0.0
C796 C 0.41482 0.98567 0.47183 0.0
H797 H 0.42205 0.03811 0.5318 0.0
H798 H 0.41772 0.02068 0.52032 0.0
C799 C 0.41792 0.97552 0.46597 0.0
C800 C 0.4022 0.99705 0.48641 0.0
H801 H 0.40259 0.02549 0.4831 0.0
C802 C 0.40082 0.99647 0.50037 0.0
C803 C 0.40217 0.00765 0.48006 0.0
C804 C 0.40264 0.00884 0.46502 0.0
C805 C 0.40028 0.00621 0.50822 0.0
C806 C 0.40142 0.01678 0.50198 0.0
C807 C 0.40192 0.01738 0.48794 0.0
C808 C 0.40326 0.02719 0.50982 0.0
C809 C 0.39874 0.00503 0.52316 0.0
C810 C 0.39669 0.03676 0.50759 0.0
C811 C 0.39925 0.04685 0.51406 0.0
C812 C 0.40847 0.04755 0.5228 0.0
C813 C 0.41486 0.03787 0.5252 0.0
C814 C 0.41233 0.02784 0.51872 0.0
H815 H 0.39394 0.99734 0.52563 0.0
H816 H 0.40707 0.00431 0.52801 0.0
H817 H 0.39432 0.01237 0.52748 0.0
H818 H 0.38971 0.03647 0.50067 0.0
H819 H 0.39417 0.05416 0.51197 0.0
H820 H 0.70089 0.65949 0.2476 0.0
H821 H 0.72053 0.65754 0.24147 0.0
H822 H 0.72862 0.6485 0.28218 0.0
H823 H 0.70895 0.65068 0.2885 0.0
H824 H 0.74096 0.66568 0.27371 0.0
H825 H 0.74255 0.63258 0.23513 0.0
H826 H 0.73208 0.64281 0.23117 0.0
H827 H 0.73063 0.63441 0.24606 0.0
C828 C 0.70679 0.65683 0.25521 0.0
C829 C 0.70336 0.65535 0.26857 0.0
C830 C 0.71803 0.65562 0.25164 0.0
C831 C 0.72605 0.65275 0.26132 0.0
C832 C 0.72256 0.65066 0.27453 0.0
H833 H 0.79775 0.65358 0.23903 0.0
H834 H 0.77969 0.64672 0.24751 0.0
C835 C 0.71131 0.65192 0.27812 0.0
C836 C 0.73814 0.65356 0.25804 0.0
H837 H 0.7576 0.64631 0.23448 0.0
C838 C 0.74465 0.66125 0.26531 0.0
C839 C 0.74303 0.64772 0.24717 0.0
C840 C 0.73673 0.63883 0.23954 0.0
C841 C 0.75565 0.66377 0.26149 0.0
C842 C 0.76021 0.6586 0.24997 0.0
C843 C 0.75401 0.65038 0.2432 0.0
C844 C 0.771 0.66237 0.24426 0.0
C845 C 0.76221 0.67219 0.26958 0.0
C846 C 0.77197 0.67332 0.23935 0.0
C847 C 0.7822 0.67724 0.23452 0.0
C848 C 0.79168 0.67027 0.23445 0.0
C849 C 0.79061 0.65917 0.23901 0.0
C850 C 0.78032 0.65524 0.24384 0.0
H851 H 0.75889 0.67294 0.27995 0.0
H852 H 0.7712 0.66987 0.27008 0.0
H853 H 0.76155 0.68053 0.26474 0.0
H854 H 0.76481 0.67889 0.23939 0.0
H855 H 0.78268 0.68581 0.231 0.0
H856 H 0.08467 0.0343 0.95979 0.0
H857 H 0.08891 0.01586 0.96901 0.0
H858 H 0.10395 0.03128 0.00369 0.0
H859 H 0.09967 0.04985 0.99457 0.0
H860 H 0.10963 0.00539 0.97869 0.0
H861 H 0.07736 0.01209 0.01828 0.0
H862 H 0.07817 0.02083 0.00356 0.0
H863 H 0.08826 0.02242 0.01675 0.0
C864 C 0.08901 0.0338 0.9693 0.0
C865 C 0.0917 0.04354 0.97653 0.0
C866 C 0.09147 0.02325 0.97452 0.0
C867 C 0.09661 0.02223 0.98709 0.0
C868 C 0.09987 0.03192 0.99403 0.0
H869 H 0.09256 0.95994 0.03304 0.0
H870 H 0.09892 0.9787 0.02672 0.0
C871 C 0.09744 0.04251 0.98878 0.0
C872 C 0.0976 0.01102 0.99328 0.0
H873 H 0.08532 0.99428 0.01675 0.0
C874 C 0.10446 0.00298 0.98715 0.0
C875 C 0.09087 0.00793 0.00434 0.0
C876 C 0.08318 0.01621 0.01113 0.0
C877 C 0.1045 0.9918 0.99154 0.0
C878 C 0.09728 0.98857 0.0021 0.0
C879 C 0.09086 0.99676 0.00865 0.0
C880 C 0.09527 0.97667 0.00562 0.0
C881 C 0.11215 0.98355 0.98468 0.0
C882 C 0.09128 0.96923 0.99583 0.0
C883 C 0.08768 0.95851 0.99939 0.0
C884 C 0.08786 0.95506 0.01286 0.0
C885 C 0.09229 0.96235 0.02258 0.0
C886 C 0.09594 0.97307 0.01899 0.0
H887 H 0.11974 0.98778 0.98068 0.0
H888 H 0.11481 0.97678 0.9916 0.0
H889 H 0.10768 0.97972 0.97608 0.0
H890 H 0.09039 0.97189 0.98551 0.0
H891 H 0.08429 0.95313 0.99165 0.0
H892 H 0.78708 0.34003 0.79765 0.0
H893 H 0.76898 0.34417 0.78742 0.0
H894 H 0.78558 0.35532 0.75145 0.0
H895 H 0.80378 0.35106 0.76152 0.0
H896 H 0.75897 0.36352 0.77496 0.0
H897 H 0.76641 0.32832 0.73938 0.0
H898 H 0.77494 0.33044 0.75407 0.0
H899 H 0.77677 0.33923 0.73965 0.0
C900 C 0.78692 0.34353 0.78764 0.0
C901 C 0.79687 0.34503 0.78032 0.0
C902 C 0.77656 0.34593 0.78183 0.0
C903 C 0.77595 0.34986 0.76861 0.0
C904 C 0.78588 0.35212 0.7616 0.0
H905 H 0.71583 0.34402 0.71916 0.0
H906 H 0.73427 0.35061 0.72639 0.0
C907 C 0.79627 0.34971 0.76739 0.0
C908 C 0.76493 0.35049 0.76186 0.0
H909 H 0.74891 0.33703 0.7386 0.0
C910 C 0.75678 0.35784 0.76688 0.0
C911 C 0.76214 0.34308 0.75132 0.0
C912 C 0.77047 0.33475 0.7458 0.0
C913 C 0.7458 0.35779 0.76183 0.0
C914 C 0.74288 0.35001 0.75172 0.0
C915 C 0.75117 0.34301 0.74632 0.0
C916 C 0.73112 0.34807 0.74753 0.0
C917 C 0.73742 0.36596 0.76749 0.0
C918 C 0.72315 0.34466 0.75702 0.0
C919 C 0.71261 0.34092 0.75293 0.0
C920 C 0.70988 0.34037 0.73924 0.0
C921 C 0.71768 0.3443 0.72978 0.0
C922 C 0.72822 0.34808 0.73389 0.0
H923 H 0.74162 0.37365 0.77124 0.0
H924 H 0.73108 0.36839 0.75989 0.0
H925 H 0.73303 0.36202 0.77609 0.0
H926 H 0.72527 0.3443 0.76756 0.0
H927 H 0.70681 0.33795 0.76049 0.0
H928 H 0.94289 0.58979 0.03117 0.0
H929 H 0.96331 0.58922 0.02969 0.0
H930 H 0.96563 0.59469 0.07235 0.0
H931 H 0.94518 0.59555 0.07379 0.0
H932 H 0.97939 0.60799 0.05968 0.0
H933 H 0.98522 0.56528 0.03937 0.0
H934 H 0.97621 0.57357 0.02898 0.0
H935 H 0.97195 0.5701 0.04579 0.0
C936 C 0.94775 0.59059 0.04027 0.0
C937 C 0.94246 0.5925 0.05264 0.0
C938 C 0.95943 0.59027 0.03942 0.0
C939 C 0.96603 0.59165 0.05095 0.0
C940 C 0.96073 0.59352 0.06332 0.0
H941 H 0.03811 0.58012 0.05424 0.0
H942 H 0.01773 0.5786 0.05617 0.0
C943 C 0.94906 0.594 0.06414 0.0
C944 C 0.97845 0.59189 0.05001 0.0
H945 H 0.00112 0.57747 0.03825 0.0
C946 C 0.98414 0.60127 0.05509 0.0
C947 C 0.98469 0.58305 0.04419 0.0
C948 C 0.97921 0.57238 0.03941 0.0
C949 C 0.99583 0.60216 0.05431 0.0
C950 C 0.00201 0.5936 0.04785 0.0
C951 C 0.99637 0.58411 0.04302 0.0
C952 C 0.01434 0.59431 0.04613 0.0
C953 C 0.00143 0.61217 0.06066 0.0
C954 C 0.01922 0.60351 0.0396 0.0
C955 C 0.03085 0.60442 0.03857 0.0
C956 C 0.03782 0.59599 0.04373 0.0
C957 C 0.03294 0.58661 0.0499 0.0
C958 C 0.0213 0.58578 0.05109 0.0
H959 H 0.99611 0.61594 0.0686 0.0
H960 H 0.00963 0.60988 0.06513 0.0
H961 H 0.00287 0.61867 0.0529 0.0
H962 H 0.01403 0.61005 0.03536 0.0
H963 H 0.0344 0.61171 0.03369 0.0
H964 H 0.65945 0.79397 0.27108 0.0
H965 H 0.66207 0.77379 0.274 0.0
H966 H 0.63993 0.77432 0.30815 0.0
H967 H 0.6374 0.79453 0.30539 0.0
H968 H 0.6704 0.76222 0.29633 0.0
H969 H 0.6268 0.74945 0.28454 0.0
H970 H 0.63221 0.7632 0.28065 0.0
H971 H 0.62791 0.75987 0.29745 0.0
C972 C 0.65534 0.78984 0.27938 0.0
C973 C 0.64842 0.79587 0.28819 0.0
C974 C 0.65673 0.77829 0.28093 0.0
C975 C 0.65111 0.77256 0.29122 0.0
C976 C 0.64419 0.77855 0.30001 0.0
H977 H 0.6679 0.7063 0.32134 0.0
H978 H 0.66369 0.72625 0.31908 0.0
C979 C 0.64279 0.79009 0.29846 0.0
C980 C 0.6527 0.76034 0.29292 0.0
H981 H 0.63882 0.73533 0.29313 0.0
C982 C 0.66351 0.75633 0.29561 0.0
C983 C 0.6437 0.75268 0.29183 0.0
C984 C 0.63202 0.75648 0.28834 0.0
C985 C 0.66555 0.74486 0.29742 0.0
C986 C 0.65649 0.73723 0.29671 0.0
C987 C 0.64571 0.74122 0.29383 0.0
C988 C 0.65816 0.72503 0.29849 0.0
C989 C 0.6774 0.74098 0.29981 0.0
C990 C 0.656 0.71768 0.28783 0.0
C991 C 0.65833 0.70626 0.2891 0.0
C992 C 0.66283 0.70198 0.30109 0.0
C993 C 0.66451 0.70932 0.31194 0.0
C994 C 0.66218 0.72073 0.31065 0.0
H995 H 0.68362 0.74746 0.29691 0.0
H996 H 0.67854 0.73915 0.31062 0.0
H997 H 0.6792 0.7332 0.29409 0.0
H998 H 0.65283 0.72083 0.27839 0.0
H999 H 0.65689 0.70086 0.28056 0.0
H1000 H 0.56402 0.41485 0.5293 0.0
H1001 H 0.5439 0.41856 0.53005 0.0
H1002 H 0.54188 0.40251 0.5687 0.0
H1003 H 0.56201 0.39875 0.56797 0.0
H1004 H 0.52577 0.3952 0.55187 0.0
H1005 H 0.52671 0.44161 0.55162 0.0
H1006 H 0.53426 0.43547 0.53791 0.0
H1007 H 0.53902 0.43326 0.55481 0.0
C1008 C 0.55936 0.4124 0.53812 0.0
C1009 C 0.56464 0.40675 0.54872 0.0
C1010 C 0.54784 0.41448 0.53851 0.0
C1011 C 0.54142 0.41102 0.54956 0.0
C1012 C 0.54668 0.40533 0.56012 0.0
H1013 H 0.47274 0.43168 0.5651 0.0
H1014 H 0.49288 0.42816 0.56644 0.0
C1015 C 0.55818 0.40319 0.55969 0.0
C1016 C 0.52914 0.41284 0.54983 0.0
H1017 H 0.50897 0.43302 0.54787 0.0
C1018 C 0.52209 0.40347 0.55107 0.0
C1019 C 0.52436 0.42365 0.54897 0.0
C1020 C 0.53147 0.43408 0.54839 0.0
C1021 C 0.5104 0.40461 0.55122 0.0
C1022 C 0.50561 0.41537 0.54981 0.0
C1023 C 0.51265 0.42476 0.54883 0.0
C1024 C 0.49333 0.4171 0.54927 0.0
C1025 C 0.50329 0.39427 0.55308 0.0
C1026 C 0.4869 0.41206 0.53915 0.0
C1027 C 0.47537 0.41399 0.53841 0.0
C1028 C 0.47007 0.42111 0.54768 0.0
C1029 C 0.47654 0.42613 0.55781 0.0
C1030 C 0.48806 0.42416 0.55858 0.0
H1031 H 0.5081 0.38738 0.55784 0.0
H1032 H 0.49582 0.39609 0.55934 0.0
H1033 H 0.50038 0.39129 0.54315 0.0
H1034 H 0.49082 0.40679 0.53168 0.0
H1035 H 0.47067 0.41006 0.53041 0.0
H1036 H 0.8438 0.2034 0.7734 0.0
H1037 H 0.84079 0.22356 0.77587 0.0
H1038 H 0.86705 0.22502 0.80548 0.0
H1039 H 0.87001 0.20484 0.80317 0.0
H1040 H 0.83509 0.23604 0.79874 0.0
H1041 H 0.87633 0.24892 0.77816 0.0
H1042 H 0.87085 0.23492 0.77624 0.0
H1043 H 0.87714 0.23915 0.7918 0.0
C1044 C 0.84875 0.20796 0.78066 0.0
C1045 C 0.85699 0.2025 0.78829 0.0
C1046 C 0.84712 0.2195 0.78194 0.0
C1047 C 0.85377 0.22579 0.79076 0.0
C1048 C 0.86195 0.22035 0.79845 0.0
H1049 H 0.83929 0.29367 0.81811 0.0
H1050 H 0.84335 0.27361 0.81697 0.0
C1051 C 0.8636 0.20883 0.79715 0.0
C1052 C 0.85209 0.23804 0.79197 0.0
H1053 H 0.86514 0.26324 0.78775 0.0
C1054 C 0.84165 0.242 0.79634 0.0
C1055 C 0.86064 0.24578 0.78869 0.0
C1056 C 0.87184 0.24202 0.78334 0.0
C1057 C 0.83954 0.25351 0.79762 0.0
C1058 C 0.84818 0.26124 0.79466 0.0
C1059 C 0.85859 0.25729 0.79017 0.0
C1060 C 0.84641 0.2735 0.7956 0.0
C1061 C 0.82802 0.25731 0.80185 0.0
C1062 C 0.8472 0.28014 0.78405 0.0
C1063 C 0.84497 0.29161 0.78468 0.0
C1064 C 0.84193 0.29667 0.79689 0.0
C1065 C 0.84154 0.29004 0.80854 0.0
C1066 C 0.84378 0.27856 0.80789 0.0
H1067 H 0.8217 0.25056 0.80068 0.0
H1068 H 0.82822 0.25978 0.81257 0.0
H1069 H 0.8253 0.26468 0.79591 0.0
H1070 H 0.84928 0.2764 0.77448 0.0
H1071 H 0.84539 0.29645 0.77552 0.0
H1072 H 0.96511 0.41048 0.92295 0.0
H1073 H 0.98485 0.40524 0.92429 0.0
H1074 H 0.9801 0.39432 0.96509 0.0
H1075 H 0.96038 0.39966 0.96392 0.0
H1076 H 0.99744 0.40931 0.96222 0.0
H1077 H 0.00115 0.37515 0.92483 0.0
H1078 H 0.99456 0.38755 0.9184 0.0
H1079 H 0.98784 0.37969 0.93151 0.0
C1080 C 0.9682 0.40677 0.93213 0.0
C1081 C 0.96116 0.40554 0.94335 0.0
C1082 C 0.97949 0.40372 0.93285 0.0
C1083 C 0.98392 0.39931 0.94475 0.0
C1084 C 0.97683 0.39769 0.9558 0.0
H1085 H 0.05239 0.37539 0.95565 0.0
H1086 H 0.03194 0.37684 0.9543 0.0
C1087 C 0.96555 0.40073 0.95509 0.0
C1088 C 0.99612 0.39738 0.9461 0.0
H1089 H 0.01827 0.38331 0.93252 0.0
C1090 C 0.00198 0.40355 0.9558 0.0
C1091 C 0.002 0.38981 0.93779 0.0
C1092 C 0.99606 0.38258 0.92763 0.0
C1093 C 0.01362 0.40257 0.9572 0.0
C1094 C 0.01957 0.39535 0.94852 0.0
C1095 C 0.01368 0.38893 0.93906 0.0
C1096 C 0.03192 0.39442 0.94908 0.0
C1097 C 0.01944 0.40923 0.968 0.0
C1098 C 0.03866 0.40377 0.94632 0.0
C1099 C 0.05031 0.40296 0.94708 0.0
C1100 C 0.05542 0.3928 0.95065 0.0
C1101 C 0.04866 0.38337 0.95302 0.0
C1102 C 0.037 0.38417 0.95225 0.0
H1103 H 0.0135 0.41203 0.97589 0.0
H1104 H 0.02619 0.40424 0.97278 0.0
H1105 H 0.0233 0.41679 0.96347 0.0
H1106 H 0.0349 0.41167 0.94347 0.0
H1107 H 0.0553 0.41022 0.94457 0.0
H1108 H 0.82252 0.71898 0.19892 0.0
H1109 H 0.82761 0.73876 0.20055 0.0
H1110 H 0.85148 0.73096 0.23157 0.0
H1111 H 0.84645 0.71112 0.23005 0.0
H1112 H 0.82622 0.75213 0.22516 0.0
H1113 H 0.86912 0.75021 0.20348 0.0
H1114 H 0.85879 0.73943 0.20059 0.0
H1115 H 0.86592 0.74019 0.21639 0.0
C1116 C 0.82893 0.72143 0.20601 0.0
C1117 C 0.83409 0.71345 0.21435 0.0
C1118 C 0.8318 0.73274 0.20694 0.0
C1119 C 0.83996 0.73628 0.21611 0.0
C1120 C 0.84525 0.72835 0.22432 0.0
H1121 H 0.8685 0.80159 0.23402 0.0
H1122 H 0.86384 0.78161 0.23357 0.0
C1123 C 0.84234 0.71703 0.22346 0.0
C1124 C 0.84261 0.74832 0.21741 0.0
H1125 H 0.86324 0.7676 0.21225 0.0
C1126 C 0.8343 0.75555 0.22233 0.0
C1127 C 0.85318 0.75268 0.21379 0.0
C1128 C 0.86227 0.74528 0.20817 0.0
C1129 C 0.83633 0.76705 0.22384 0.0
C1130 C 0.84686 0.77147 0.22002 0.0
C1131 C 0.85518 0.7642 0.21518 0.0
C1132 C 0.84937 0.78361 0.22073 0.0
C1133 C 0.82725 0.77433 0.22977 0.0
C1134 C 0.84286 0.79134 0.21356 0.0
C1135 C 0.84547 0.80274 0.21388 0.0
C1136 C 0.85468 0.8066 0.22131 0.0
C1137 C 0.86129 0.79884 0.22832 0.0
C1138 C 0.85864 0.78745 0.22807 0.0
H1139 H 0.82121 0.76932 0.23576 0.0
H1140 H 0.83084 0.78096 0.23628 0.0
H1141 H 0.82253 0.77843 0.22155 0.0
H1142 H 0.8359 0.78853 0.20746 0.0
H1143 H 0.84052 0.80846 0.20792 0.0
H1144 H 0.45032 0.60516 0.46425 0.0
H1145 H 0.47024 0.60991 0.46287 0.0
H1146 H 0.47372 0.58854 0.42828 0.0
H1147 H 0.45388 0.58377 0.42953 0.0
H1148 H 0.48708 0.59359 0.465 0.0
H1149 H 0.49097 0.61691 0.41724 0.0
H1150 H 0.47777 0.61519 0.42587 0.0
H1151 H 0.48329 0.60404 0.41571 0.0
C1152 C 0.45527 0.60163 0.4562 0.0
C1153 C 0.45052 0.59404 0.44704 0.0
C1154 C 0.46665 0.60436 0.45542 0.0
C1155 C 0.47341 0.59969 0.44538 0.0
C1156 C 0.4686 0.59242 0.43595 0.0
H1157 H 0.54123 0.58611 0.42674 0.0
H1158 H 0.52119 0.59013 0.42678 0.0
C1159 C 0.45727 0.58963 0.43675 0.0
C1160 C 0.4857 0.60131 0.4456 0.0
H1161 H 0.50792 0.60917 0.42623 0.0
C1162 C 0.49165 0.59719 0.45665 0.0
C1163 C 0.4916 0.60595 0.43464 0.0
C1164 C 0.48558 0.61087 0.42274 0.0
C1165 C 0.50339 0.59701 0.45675 0.0
C1166 C 0.50933 0.60136 0.44562 0.0
C1167 C 0.50336 0.60587 0.43476 0.0
C1168 C 0.52168 0.60041 0.44463 0.0
C1169 C 0.5093 0.59158 0.46845 0.0
C1170 C 0.52867 0.60524 0.45434 0.0
C1171 C 0.54013 0.60286 0.45444 0.0
C1172 C 0.54481 0.59574 0.4447 0.0
C1173 C 0.5379 0.59159 0.43443 0.0
C1174 C 0.52643 0.59389 0.43442 0.0
H1175 H 0.5035 0.58647 0.47465 0.0
H1176 H 0.51622 0.58612 0.46494 0.0
H1177 H 0.51292 0.59818 0.47496 0.0
H1178 H 0.5252 0.61052 0.46213 0.0
H1179 H 0.54525 0.6063 0.4624 0.0
H1180 H 0.67296 0.28147 0.74288 0.0
H1181 H 0.66832 0.26163 0.74122 0.0
H1182 H 0.64723 0.26843 0.7071 0.0
H1183 H 0.65202 0.28833 0.7085 0.0
H1184 H 0.64814 0.25062 0.74257 0.0
H1185 H 0.66802 0.24425 0.69279 0.0
H1186 H 0.67023 0.25674 0.70262 0.0
H1187 H 0.65753 0.25501 0.69318 0.0
C1188 C 0.66731 0.27878 0.73503 0.0
C1189 C 0.66293 0.28649 0.72575 0.0
C1190 C 0.66466 0.26742 0.7341 0.0
C1191 C 0.65759 0.26353 0.7239 0.0
C1192 C 0.65292 0.27123 0.71487 0.0
H1193 H 0.63605 0.19575 0.70382 0.0
H1194 H 0.63787 0.21616 0.70534 0.0
C1195 C 0.65561 0.28261 0.71573 0.0
C1196 C 0.65523 0.25138 0.72274 0.0
H1197 H 0.65842 0.22879 0.70209 0.0
C1198 C 0.65038 0.24585 0.73372 0.0
C1199 C 0.65817 0.24517 0.71117 0.0
C1200 C 0.66387 0.25055 0.69931 0.0
C1201 C 0.64838 0.23427 0.73344 0.0
C1202 C 0.65142 0.22807 0.72194 0.0
C1203 C 0.65609 0.2336 0.71088 0.0
C1204 C 0.6501 0.21576 0.72131 0.0
C1205 C 0.64298 0.22875 0.74541 0.0
C1206 C 0.65641 0.20882 0.72976 0.0
C1207 C 0.65541 0.19718 0.72888 0.0
C1208 C 0.64815 0.19231 0.71947 0.0
C1209 C 0.64174 0.19929 0.71113 0.0
C1210 C 0.64278 0.21093 0.71197 0.0
H1211 H 0.63877 0.23496 0.75201 0.0
H1212 H 0.63673 0.22241 0.74219 0.0
H1213 H 0.6495 0.22442 0.75138 0.0
H1214 H 0.66216 0.2124 0.73698 0.0
H1215 H 0.66019 0.19202 0.73572 0.0
H1216 H 0.34215 0.20755 0.6766 0.0
H1217 H 0.34672 0.22756 0.6757 0.0
H1218 H 0.32129 0.23437 0.70526 0.0
H1219 H 0.31668 0.21448 0.7063 0.0
H1220 H 0.33182 0.24645 0.66996 0.0
H1221 H 0.35047 0.2482 0.72094 0.0
H1222 H 0.34843 0.23521 0.712 0.0
H1223 H 0.33679 0.24197 0.72003 0.0
C1224 C 0.33752 0.2133 0.6829 0.0
C1225 C 0.32909 0.20939 0.69158 0.0
C1226 C 0.34013 0.22472 0.68236 0.0
C1227 C 0.33443 0.23239 0.69054 0.0
C1228 C 0.3259 0.22855 0.69902 0.0
H1229 H 0.34024 0.30328 0.70766 0.0
H1230 H 0.33433 0.28373 0.70633 0.0
C1231 C 0.32326 0.21717 0.69955 0.0
C1232 C 0.3374 0.24443 0.69032 0.0
H1233 H 0.34776 0.26549 0.70983 0.0
C1234 C 0.33536 0.25063 0.67864 0.0
C1235 C 0.34196 0.24983 0.70169 0.0
C1236 C 0.34464 0.24347 0.71436 0.0
C1237 C 0.33756 0.26218 0.67811 0.0
C1238 C 0.34213 0.26759 0.68949 0.0
C1239 C 0.34421 0.26135 0.70114 0.0
C1240 C 0.34502 0.27967 0.6895 0.0
C1241 C 0.33472 0.26853 0.66549 0.0
C1242 C 0.353 0.28389 0.68049 0.0
C1243 C 0.35623 0.29513 0.68108 0.0
C1244 C 0.35157 0.30236 0.69071 0.0
C1245 C 0.34362 0.2981 0.69975 0.0
C1246 C 0.34036 0.28686 0.69913 0.0
H1247 H 0.32846 0.26397 0.65931 0.0
H1248 H 0.33138 0.27698 0.66785 0.0
H1249 H 0.34241 0.26956 0.65937 0.0
H1250 H 0.35693 0.27844 0.67322 0.0
H1251 H 0.36248 0.29814 0.67408 0.0
H1252 H 0.16349 0.80664 0.21266 0.0
H1253 H 0.1624 0.78643 0.21646 0.0
H1254 H 0.15682 0.78116 0.17421 0.0
H1255 H 0.15768 0.80138 0.17043 0.0
H1256 H 0.14261 0.76925 0.18855 0.0
H1257 H 0.18523 0.76261 0.20891 0.0
H1258 H 0.17744 0.77283 0.21822 0.0
H1259 H 0.18108 0.77554 0.20101 0.0
C1260 C 0.16227 0.80115 0.20416 0.0
C1261 C 0.16089 0.80556 0.19121 0.0
C1262 C 0.16164 0.7896 0.20634 0.0
C1263 C 0.15979 0.78224 0.19558 0.0
C1264 C 0.15833 0.78666 0.18266 0.0
H1265 H 0.16828 0.70995 0.197 0.0
H1266 H 0.17042 0.73017 0.1939 0.0
C1267 C 0.15882 0.79821 0.1805 0.0
C1268 C 0.15887 0.76997 0.19783 0.0
H1269 H 0.17245 0.74738 0.21107 0.0
C1270 C 0.14916 0.76446 0.19342 0.0
C1271 C 0.16749 0.76369 0.20401 0.0
C1272 C 0.17844 0.76894 0.20818 0.0
C1273 C 0.14777 0.75288 0.19514 0.0
C1274 C 0.15617 0.74668 0.20184 0.0
C1275 C 0.16595 0.75216 0.2061 0.0
C1276 C 0.15508 0.73447 0.20426 0.0
C1277 C 0.13742 0.7474 0.18945 0.0
C1278 C 0.14587 0.73017 0.21135 0.0
C1279 C 0.14462 0.71862 0.21308 0.0
C1280 C 0.15271 0.71118 0.20805 0.0
C1281 C 0.16207 0.7155 0.20128 0.0
C1282 C 0.16325 0.72704 0.19941 0.0
H1283 H 0.13363 0.75252 0.18135 0.0
H1284 H 0.13933 0.73896 0.18538 0.0
H1285 H 0.13108 0.74648 0.19751 0.0
H1286 H 0.13961 0.73573 0.21549 0.0
H1287 H 0.13735 0.7155 0.21839 0.0
H1288 H 0.17598 0.19508 0.80585 0.0
H1289 H 0.17415 0.21539 0.80723 0.0
H1290 H 0.13867 0.2127 0.80008 0.0
H1291 H 0.14038 0.19226 0.79862 0.0
H1292 H 0.16391 0.22838 0.7842 0.0
H1293 H 0.14363 0.23465 0.83397 0.0
H1294 H 0.15202 0.22242 0.83035 0.0
H1295 H 0.13842 0.22383 0.82298 0.0
C1296 C 0.16774 0.19875 0.80473 0.0
C1297 C 0.15833 0.19203 0.80205 0.0
C1298 C 0.16673 0.21036 0.80553 0.0
C1299 C 0.15628 0.21549 0.80379 0.0
C1300 C 0.14678 0.20885 0.80155 0.0
H1301 H 0.15214 0.28716 0.78528 0.0
H1302 H 0.14724 0.26727 0.78642 0.0
C1303 C 0.14779 0.19719 0.80069 0.0
C1304 C 0.15562 0.22783 0.80333 0.0
H1305 H 0.14847 0.25084 0.82174 0.0
C1306 C 0.16041 0.23332 0.79231 0.0
C1307 C 0.15109 0.23416 0.81398 0.0
C1308 C 0.14601 0.22854 0.82606 0.0
C1309 C 0.16107 0.24502 0.7918 0.0
C1310 C 0.15671 0.25139 0.80256 0.0
C1311 C 0.1517 0.24591 0.81347 0.0
C1312 C 0.15824 0.26367 0.80309 0.0
C1313 C 0.16685 0.25048 0.78004 0.0
C1314 C 0.1657 0.26828 0.81242 0.0
C1315 C 0.16852 0.27962 0.81181 0.0
C1316 C 0.1639 0.28656 0.80185 0.0
C1317 C 0.15591 0.28204 0.79301 0.0
C1318 C 0.15311 0.27068 0.79362 0.0
H1319 H 0.17139 0.2443 0.77372 0.0
H1320 H 0.16053 0.25472 0.77368 0.0
H1321 H 0.1729 0.2569 0.78353 0.0
H1322 H 0.16973 0.263 0.81981 0.0
H1323 H 0.17463 0.28284 0.81884 0.0
H1324 H 0.37044 0.70008 0.31083 0.0
H1325 H 0.36844 0.71985 0.31699 0.0
H1326 H 0.344 0.72421 0.28563 0.0
H1327 H 0.34612 0.70455 0.27926 0.0
H1328 H 0.37164 0.73931 0.30123 0.0
H1329 H 0.32793 0.73568 0.31964 0.0
H1330 H 0.33681 0.72365 0.31699 0.0
H1331 H 0.33003 0.73031 0.30302 0.0
C1332 C 0.36463 0.70526 0.30526 0.0
C1333 C 0.35816 0.70068 0.29484 0.0
C1334 C 0.3635 0.71653 0.3088 0.0
C1335 C 0.35589 0.7234 0.30196 0.0
C1336 C 0.34968 0.71895 0.29128 0.0
H1337 H 0.34861 0.79451 0.29613 0.0
H1338 H 0.35424 0.77499 0.29363 0.0
C1339 C 0.35081 0.70768 0.28774 0.0
C1340 C 0.3545 0.73527 0.3059 0.0
H1341 H 0.33507 0.75412 0.31677 0.0
C1342 C 0.36368 0.74255 0.30473 0.0
C1343 C 0.34416 0.73942 0.31067 0.0
C1344 C 0.33419 0.73185 0.31279 0.0
C1345 C 0.36265 0.754 0.30775 0.0
C1346 C 0.35216 0.75824 0.3119 0.0
C1347 C 0.3431 0.75086 0.31352 0.0
C1348 C 0.35016 0.77035 0.31401 0.0
C1349 C 0.3728 0.76144 0.30646 0.0
C1350 C 0.34604 0.77425 0.32633 0.0
C1351 C 0.34274 0.78541 0.32779 0.0
C1352 C 0.34342 0.79286 0.3169 0.0
C1353 C 0.34799 0.78902 0.30473 0.0
C1354 C 0.35128 0.77787 0.3033 0.0
H1355 H 0.38069 0.75654 0.30712 0.0
H1356 H 0.37264 0.76565 0.29655 0.0
H1357 H 0.37287 0.76799 0.31436 0.0
H1358 H 0.34506 0.76856 0.33471 0.0
H1359 H 0.33926 0.78808 0.33729 0.0
H1360 H 0.45375 0.0782 0.56343 0.0
H1361 H 0.47394 0.08164 0.56225 0.0
H1362 H 0.46873 0.10528 0.53022 0.0
H1363 H 0.44854 0.10186 0.53123 0.0
H1364 H 0.48688 0.07855 0.5365 0.0
H1365 H 0.48994 0.12119 0.5587 0.0
H1366 H 0.47845 0.11181 0.56233 0.0
H1367 H 0.47908 0.1189 0.5465 0.0
C1368 C 0.45687 0.08426 0.55626 0.0
C1369 C 0.44953 0.08975 0.5474 0.0
C1370 C 0.46841 0.08618 0.55559 0.0
C1371 C 0.47277 0.09374 0.5462 0.0
C1372 C 0.46548 0.09949 0.53762 0.0
H1373 H 0.53899 0.11634 0.52356 0.0
H1374 H 0.51882 0.11355 0.52651 0.0
C1375 C 0.45395 0.0975 0.5382 0.0
C1376 C 0.48502 0.09509 0.54474 0.0
H1377 H 0.50637 0.11372 0.54899 0.0
C1378 C 0.49119 0.0862 0.53929 0.0
C1379 C 0.49052 0.10512 0.54829 0.0
C1380 C 0.48421 0.11481 0.55437 0.0
C1381 C 0.50275 0.08716 0.53703 0.0
C1382 C 0.50831 0.09718 0.54068 0.0
C1383 C 0.50211 0.10605 0.54621 0.0
C1384 C 0.52054 0.09869 0.53874 0.0
C1385 C 0.50881 0.07756 0.53036 0.0
C1386 C 0.52821 0.09133 0.54476 0.0
C1387 C 0.53972 0.09284 0.54296 0.0
C1388 C 0.54376 0.10181 0.53524 0.0
C1389 C 0.53609 0.1093 0.52947 0.0
C1390 C 0.52458 0.10772 0.53116 0.0
H1391 H 0.50295 0.07206 0.52475 0.0
H1392 H 0.51532 0.08064 0.52333 0.0
H1393 H 0.51295 0.07238 0.53815 0.0
H1394 H 0.52531 0.08452 0.55103 0.0
H1395 H 0.54544 0.0872 0.54797 0.0
H1396 H 0.02771 0.93118 0.05603 0.0
H1397 H 0.00828 0.92523 0.0531 0.0
H1398 H 0.01864 0.90113 0.02342 0.0
H1399 H 0.03814 0.90701 0.02624 0.0
H1400 H 0.99614 0.92547 0.02738 0.0
H1401 H 0.9988 0.88329 0.05088 0.0
H1402 H 0.00892 0.89419 0.0542 0.0
H1403 H 0.00934 0.88668 0.03864 0.0
C1404 C 0.0259 0.92454 0.04895 0.0
C1405 C 0.0345 0.91956 0.04137 0.0
C1406 C 0.01478 0.92119 0.04727 0.0
C1407 C 0.01207 0.91272 0.03811 0.0
C1408 C 0.02061 0.90761 0.03065 0.0
H1409 H 0.94869 0.881 0.01762 0.0
H1410 H 0.96846 0.88644 0.0189 0.0
C1411 C 0.03174 0.911 0.03225 0.0
C1412 C 0.00024 0.9095 0.03607 0.0
H1413 H 0.9816 0.88823 0.04091 0.0
C1414 C 0.99293 0.91733 0.03033 0.0
C1415 C 0.99615 0.89886 0.03986 0.0
C1416 C 0.00365 0.89026 0.04633 0.0
C1417 C 0.9816 0.91478 0.02818 0.0
C1418 C 0.97744 0.9042 0.03221 0.0
C1419 C 0.9848 0.89633 0.03783 0.0
C1420 C 0.96544 0.90121 0.03095 0.0
C1421 C 0.97425 0.92337 0.02142 0.0
C1422 C 0.95721 0.90763 0.03742 0.0
C1423 C 0.94594 0.90458 0.03662 0.0
C1424 C 0.9427 0.89502 0.02941 0.0
C1425 C 0.95096 0.88849 0.02312 0.0
C1426 C 0.96223 0.89158 0.02385 0.0
H1427 H 0.97927 0.92939 0.01542 0.0
H1428 H 0.96802 0.91932 0.01473 0.0
H1429 H 0.96966 0.9282 0.02916 0.0
H1430 H 0.95953 0.91487 0.04334 0.0
H1431 H 0.93983 0.90949 0.04206 0.0
H1432 H 0.54635 0.91038 0.45936 0.0
H1433 H 0.52642 0.91454 0.45676 0.0
H1434 H 0.51816 0.88123 0.47018 0.0
H1435 H 0.53812 0.87708 0.47304 0.0
H1436 H 0.50678 0.88789 0.44681 0.0
H1437 H 0.50348 0.91994 0.48694 0.0
H1438 H 0.51446 0.92249 0.47501 0.0
H1439 H 0.51517 0.91041 0.48571 0.0
C1440 C 0.54029 0.90407 0.46216 0.0
C1441 C 0.54377 0.89354 0.46684 0.0
C1442 C 0.52891 0.90641 0.46054 0.0
C1443 C 0.52082 0.89827 0.46354 0.0
C1444 C 0.52428 0.88766 0.46792 0.0
H1445 H 0.44957 0.91129 0.47201 0.0
H1446 H 0.46879 0.90483 0.47524 0.0
C1447 C 0.53566 0.88531 0.46955 0.0
C1448 C 0.50876 0.90073 0.46179 0.0
H1449 H 0.48786 0.91808 0.47238 0.0
C1450 C 0.50261 0.89445 0.45244 0.0
C1451 C 0.50334 0.9092 0.46927 0.0
C1452 C 0.5094 0.91584 0.47989 0.0
C1453 C 0.49122 0.8966 0.45014 0.0
C1454 C 0.48589 0.90533 0.45729 0.0
C1455 C 0.49198 0.91143 0.46685 0.0
C1456 C 0.47404 0.9084 0.45494 0.0
C1457 C 0.48494 0.88945 0.44019 0.0
C1458 C 0.4706 0.91248 0.44241 0.0
C1459 C 0.45961 0.91617 0.44051 0.0
C1460 C 0.45187 0.91591 0.45114 0.0
C1461 C 0.4553 0.9116 0.4636 0.0
C1462 C 0.46629 0.90792 0.46548 0.0
H1463 H 0.48932 0.8814 0.43826 0.0
H1464 H 0.47633 0.88763 0.44378 0.0
H1465 H 0.48429 0.89402 0.43054 0.0
H1466 H 0.47651 0.91311 0.43421 0.0
H1467 H 0.45727 0.91948 0.43081 0.0
H1468 H 0.0423 0.07671 0.94314 0.0
H1469 H 0.02237 0.08107 0.94448 0.0
H1470 H 0.02911 0.10562 0.97519 0.0
H1471 H 0.04902 0.10091 0.97432 0.0
H1472 H 0.01241 0.09313 0.98246 0.0
H1473 H 0.00453 0.1065 0.9303 0.0
H1474 H 0.01043 0.09272 0.93083 0.0
H1475 H 0.01849 0.10449 0.93675 0.0
C1476 C 0.03956 0.08315 0.95005 0.0
C1477 C 0.04723 0.08848 0.95861 0.0
C1478 C 0.02815 0.08569 0.95074 0.0
C1479 C 0.02423 0.09383 0.95977 0.0
C1480 C 0.03193 0.09933 0.96812 0.0
H1481 H 0.95553 0.11831 0.9578 0.0
H1482 H 0.97583 0.11634 0.95622 0.0
C1483 C 0.04331 0.09665 0.9676 0.0
C1484 C 0.01204 0.09604 0.96115 0.0
H1485 H 0.98832 0.10189 0.94339 0.0
C1486 C 0.00717 0.09516 0.97392 0.0
C1487 C 0.00519 0.09886 0.95007 0.0
C1488 C 0.00996 0.10082 0.93626 0.0
C1489 C 0.99565 0.09679 0.97589 0.0
C1490 C 0.98871 0.09894 0.96468 0.0
C1491 C 0.99361 0.10007 0.95195 0.0
C1492 C 0.97637 0.10015 0.96593 0.0
C1493 C 0.99112 0.09639 0.99001 0.0
C1494 C 0.96988 0.0917 0.97189 0.0
C1495 C 0.95828 0.09291 0.97305 0.0
C1496 C 0.95288 0.10242 0.96788 0.0
C1497 C 0.9594 0.11084 0.96185 0.0
C1498 C 0.97102 0.10971 0.96088 0.0
H1499 H 0.99772 0.0984 0.99748 0.0
H1500 H 0.98408 0.10236 0.99138 0.0
H1501 H 0.98805 0.08781 0.99217 0.0
H1502 H 0.97378 0.08415 0.97567 0.0
H1503 H 0.95364 0.0865 0.97828 0.0
H1504 H 0.10835 0.6581 0.18385 0.0
H1505 H 0.10038 0.64958 0.16371 0.0
H1506 H 0.13223 0.65273 0.14366 0.0
H1507 H 0.14035 0.66095 0.16388 0.0
H1508 H 0.09791 0.65784 0.1389 0.0
H1509 H 0.12504 0.62026 0.1369 0.0
H1510 H 0.12447 0.62932 0.15136 0.0
H1511 H 0.13288 0.63307 0.13707 0.0
C1512 C 0.11368 0.65693 0.17518 0.0
C1513 C 0.125 0.66013 0.17549 0.0
C1514 C 0.1091 0.65206 0.16367 0.0
C1515 C 0.11575 0.65033 0.15225 0.0
C1516 C 0.12701 0.6537 0.15246 0.0
H1517 H 0.09078 0.63915 0.07155 0.0
H1518 H 0.09847 0.64701 0.09221 0.0
C1519 C 0.13162 0.65847 0.16401 0.0
C1520 C 0.11081 0.64528 0.14001 0.0
H1521 H 0.11397 0.62395 0.11753 0.0
C1522 C 0.10138 0.65039 0.13427 0.0
C1523 C 0.11524 0.63546 0.13408 0.0
C1524 C 0.12489 0.62913 0.14024 0.0
C1525 C 0.09638 0.64608 0.12263 0.0
C1526 C 0.10112 0.63656 0.11637 0.0
C1527 C 0.11042 0.63133 0.12225 0.0
C1528 C 0.09649 0.6318 0.10379 0.0
C1529 C 0.08594 0.65166 0.11733 0.0
C1530 C 0.09315 0.62054 0.10328 0.0
C1531 C 0.08891 0.61598 0.09142 0.0
C1532 C 0.0879 0.6226 0.07984 0.0
C1533 C 0.09133 0.63386 0.08034 0.0
C1534 C 0.09567 0.63839 0.09217 0.0
H1535 H 0.08159 0.65652 0.12526 0.0
H1536 H 0.08828 0.65757 0.10922 0.0
H1537 H 0.08 0.64541 0.11315 0.0
H1538 H 0.09376 0.61529 0.1121 0.0
H1539 H 0.08635 0.60727 0.09136 0.0
H1540 H 0.60678 0.84214 0.32339 0.0
H1541 H 0.60104 0.8485 0.34562 0.0
H1542 H 0.63531 0.85669 0.35507 0.0
H1543 H 0.64118 0.85015 0.33291 0.0
H1544 H 0.62514 0.84468 0.37495 0.0
H1545 H 0.59824 0.88027 0.35982 0.0
H1546 H 0.59442 0.86738 0.35178 0.0
H1547 H 0.60786 0.87357 0.34841 0.0
C1548 C 0.61309 0.84537 0.33015 0.0
C1549 C 0.62443 0.84566 0.32637 0.0
C1550 C 0.60978 0.84908 0.34283 0.0
C1551 C 0.61772 0.85324 0.35192 0.0
C1552 C 0.62905 0.85357 0.34817 0.0
H1553 H 0.59936 0.88614 0.42698 0.0
H1554 H 0.60722 0.88189 0.4049 0.0
C1555 C 0.63237 0.84983 0.3355 0.0
C1556 C 0.61427 0.85674 0.36556 0.0
H1557 H 0.59645 0.87404 0.3825 0.0
C1558 C 0.61894 0.85117 0.37661 0.0
C1559 C 0.6063 0.86531 0.36772 0.0
C1560 C 0.60149 0.87206 0.35631 0.0
C1561 C 0.61559 0.8537 0.38975 0.0
C1562 C 0.6072 0.86186 0.39186 0.0
C1563 C 0.60279 0.86769 0.38084 0.0
C1564 C 0.60271 0.86434 0.40539 0.0
C1565 C 0.62113 0.84764 0.40124 0.0
C1566 C 0.59749 0.85591 0.41293 0.0
C1567 C 0.59303 0.8583 0.42556 0.0
C1568 C 0.59362 0.8692 0.43083 0.0
C1569 C 0.5988 0.87765 0.42322 0.0
C1570 C 0.60328 0.87525 0.4106 0.0
H1571 H 0.62945 0.84426 0.39832 0.0
H1572 H 0.62224 0.85326 0.41001 0.0
H1573 H 0.6158 0.84049 0.40434 0.0
H1574 H 0.59673 0.8475 0.40897 0.0
H1575 H 0.58903 0.85161 0.43112 0.0
H1576 H 0.41316 0.41642 0.57938 0.0
H1577 H 0.40537 0.40537 0.59778 0.0
H1578 H 0.4092 0.37527 0.57434 0.0
H1579 H 0.41678 0.38628 0.55576 0.0
H1580 H 0.38899 0.37607 0.5876 0.0
H1581 H 0.42399 0.38558 0.62232 0.0
H1582 H 0.41719 0.39784 0.61586 0.0
H1583 H 0.42462 0.38868 0.60465 0.0
C1584 C 0.41232 0.40745 0.57812 0.0
C1585 C 0.41567 0.40222 0.56615 0.0
C1586 C 0.40792 0.40114 0.58867 0.0
C1587 C 0.40692 0.38947 0.58752 0.0
C1588 C 0.40996 0.38426 0.57546 0.0
H1589 H 0.39922 0.34383 0.65453 0.0
H1590 H 0.40559 0.35389 0.63461 0.0
C1591 C 0.4143 0.39057 0.56486 0.0
C1592 C 0.40282 0.38268 0.59896 0.0
H1593 H 0.40826 0.37622 0.63163 0.0
C1594 C 0.39321 0.37607 0.59722 0.0
C1595 C 0.40845 0.38255 0.61143 0.0
C1596 C 0.4192 0.38895 0.61368 0.0
C1597 C 0.38897 0.36947 0.60771 0.0
C1598 C 0.39437 0.36967 0.62032 0.0
C1599 C 0.40407 0.37615 0.62198 0.0
C1600 C 0.39019 0.36316 0.63196 0.0
C1601 C 0.37887 0.36219 0.60509 0.0
C1602 C 0.37941 0.36504 0.6371 0.0
C1603 C 0.37571 0.35924 0.64844 0.0
C1604 C 0.38278 0.35156 0.65495 0.0
C1605 C 0.39356 0.34968 0.64976 0.0
C1606 C 0.39723 0.35543 0.63837 0.0
H1607 H 0.37773 0.36054 0.59421 0.0
H1608 H 0.37957 0.35405 0.6104 0.0
H1609 H 0.37125 0.36653 0.60877 0.0
H1610 H 0.37393 0.37116 0.63251 0.0
H1611 H 0.36739 0.36094 0.65225 0.0
H1612 H 0.90719 0.14279 0.93279 0.0
H1613 H 0.9009 0.14776 0.91028 0.0
H1614 H 0.8927 0.11319 0.90248 0.0
H1615 H 0.89919 0.1081 0.92493 0.0
H1616 H 0.90457 0.12263 0.88206 0.0
H1617 H 0.86915 0.15015 0.89615 0.0
H1618 H 0.88207 0.15425 0.90388 0.0
H1619 H 0.8759 0.14094 0.90798 0.0
C1620 C 0.90397 0.13625 0.92633 0.0
C1621 C 0.90365 0.12505 0.93067 0.0
C1622 C 0.90032 0.13912 0.91349 0.0
C1623 C 0.89615 0.13088 0.90479 0.0
C1624 C 0.89582 0.11969 0.90908 0.0
H1625 H 0.8629 0.14722 0.82934 0.0
H1626 H 0.86725 0.13993 0.85166 0.0
C1627 C 0.89952 0.1168 0.92191 0.0
C1628 C 0.89261 0.13387 0.89101 0.0
H1629 H 0.87531 0.15119 0.87338 0.0
C1630 C 0.8981 0.1288 0.88015 0.0
C1631 C 0.88405 0.1418 0.88854 0.0
C1632 C 0.87737 0.14701 0.89975 0.0
C1633 C 0.89552 0.1317 0.86688 0.0
C1634 C 0.88739 0.14007 0.86444 0.0
C1635 C 0.88164 0.14487 0.87528 0.0
C1636 C 0.88486 0.14412 0.85073 0.0
C1637 C 0.90147 0.12573 0.85562 0.0
C1638 C 0.8933 0.14897 0.84285 0.0
C1639 C 0.89086 0.1531 0.83008 0.0
C1640 C 0.87989 0.15256 0.82501 0.0
C1641 C 0.87144 0.14774 0.83295 0.0
C1642 C 0.8739 0.14358 0.8457 0.0
H1643 H 0.90476 0.11747 0.85891 0.0
H1644 H 0.89582 0.12441 0.84693 0.0
H1645 H 0.90868 0.13087 0.85227 0.0
H1646 H 0.90176 0.14972 0.84665 0.0
H1647 H 0.89755 0.15683 0.82427 0.0
H1648 H 0.10905 0.38952 0.90601 0.0
H1649 H 0.11808 0.38418 0.88493 0.0
H1650 H 0.11884 0.34973 0.89784 0.0
H1651 H 0.10964 0.35494 0.9188 0.0
H1652 H 0.1385 0.37437 0.8807 0.0
H1653 H 0.10466 0.34728 0.86096 0.0
H1654 H 0.10259 0.35669 0.87489 0.0
H1655 H 0.1091 0.34328 0.87745 0.0
C1656 C 0.11108 0.38079 0.90433 0.0
C1657 C 0.10857 0.37264 0.91405 0.0
C1658 C 0.11625 0.37776 0.89229 0.0
C1659 C 0.11896 0.36653 0.88973 0.0
C1660 C 0.11658 0.3584 0.89947 0.0
H1661 H 0.16692 0.33829 0.83509 0.0
H1662 H 0.15704 0.34669 0.85401 0.0
C1663 C 0.11138 0.36141 0.91149 0.0
C1664 C 0.12457 0.36333 0.87704 0.0
H1665 H 0.12248 0.34575 0.8502 0.0
C1666 C 0.13496 0.36819 0.87396 0.0
C1667 C 0.11984 0.35542 0.86814 0.0
C1668 C 0.10838 0.35045 0.87043 0.0
C1669 C 0.14095 0.36503 0.86245 0.0
C1670 C 0.13651 0.35665 0.85396 0.0
C1671 C 0.12594 0.35209 0.85679 0.0
C1672 C 0.14281 0.3522 0.8423 0.0
C1673 C 0.15194 0.37076 0.85948 0.0
C1674 C 0.13803 0.35234 0.82946 0.0
C1675 C 0.14361 0.34742 0.81863 0.0
C1676 C 0.15407 0.34225 0.82047 0.0
C1677 C 0.15892 0.34228 0.83331 0.0
C1678 C 0.15331 0.34715 0.84413 0.0
H1679 H 0.1524 0.37913 0.86432 0.0
H1680 H 0.15889 0.3656 0.86351 0.0
H1681 H 0.15322 0.37179 0.84853 0.0
H1682 H 0.12991 0.35615 0.82784 0.0
H1683 H 0.13964 0.34753 0.80887 0.0
H1684 H 0.86283 0.8556 0.17552 0.0
H1685 H 0.86663 0.86003 0.15202 0.0
H1686 H 0.9011 0.85024 0.15722 0.0
H1687 H 0.89744 0.84594 0.18078 0.0
H1688 H 0.89857 0.87033 0.14335 0.0
H1689 H 0.87144 0.83698 0.12211 0.0
H1690 H 0.8645 0.84621 0.13365 0.0
H1691 H 0.87554 0.83725 0.13952 0.0
C1692 C 0.87123 0.85439 0.17167 0.0
C1693 C 0.87983 0.85036 0.18 0.0
C1694 C 0.87336 0.85687 0.15822 0.0
C1695 C 0.8841 0.85529 0.15284 0.0
C1696 C 0.89274 0.85146 0.16118 0.0
H1697 H 0.90423 0.85136 0.06975 0.0
H1698 H 0.89971 0.84787 0.09328 0.0
C1699 C 0.89063 0.849 0.17463 0.0
C1700 C 0.88638 0.85768 0.13853 0.0
H1701 H 0.87934 0.84985 0.10671 0.0
C1702 C 0.89437 0.86586 0.13533 0.0
C1703 C 0.88098 0.85173 0.12811 0.0
C1704 C 0.87271 0.84247 0.13097 0.0
C1705 C 0.89706 0.86833 0.12196 0.0
C1706 C 0.89147 0.86257 0.11153 0.0
C1707 C 0.88354 0.85432 0.11474 0.0
C1708 C 0.89398 0.86474 0.09723 0.0
C1709 C 0.90605 0.8769 0.11911 0.0
C1710 C 0.89208 0.87533 0.0916 0.0
C1711 C 0.89468 0.87737 0.07816 0.0
C1712 C 0.89915 0.86881 0.07008 0.0
C1713 C 0.90083 0.85814 0.0757 0.0
C1714 C 0.89824 0.85613 0.08914 0.0
H1715 H 0.91136 0.8785 0.12805 0.0
H1716 H 0.9115 0.87414 0.11072 0.0
H1717 H 0.90205 0.88492 0.1162 0.0
H1718 H 0.88859 0.88203 0.09761 0.0
H1719 H 0.89323 0.88566 0.07412 0.0
H1720 H 0.39322 0.64359 0.32133 0.0
H1721 H 0.39681 0.634 0.34252 0.0
H1722 H 0.36187 0.63682 0.35297 0.0
H1723 H 0.35816 0.6462 0.33164 0.0
H1724 H 0.39389 0.64188 0.36772 0.0
H1725 H 0.36783 0.60395 0.36005 0.0
H1726 H 0.37132 0.6134 0.34658 0.0
H1727 H 0.36027 0.61683 0.35812 0.0
C1728 C 0.38628 0.64209 0.32808 0.0
C1729 C 0.37539 0.64562 0.32478 0.0
C1730 C 0.38834 0.63662 0.34019 0.0
C1731 C 0.37958 0.63456 0.34925 0.0
C1732 C 0.36871 0.63809 0.346 0.0
H1733 H 0.39153 0.61884 0.43353 0.0
H1734 H 0.38523 0.62758 0.41268 0.0
C1735 C 0.36662 0.64351 0.33384 0.0
C1736 C 0.38197 0.62913 0.36229 0.0
H1737 H 0.37544 0.60657 0.38182 0.0
C1738 C 0.38986 0.63415 0.3708 0.0
C1739 C 0.37678 0.619 0.36623 0.0
C1740 C 0.36866 0.61291 0.35722 0.0
C1741 C 0.39273 0.62933 0.38314 0.0
C1742 C 0.38734 0.61934 0.38724 0.0
C1743 C 0.37946 0.6143 0.37872 0.0
C1744 C 0.39019 0.61373 0.40003 0.0
C1745 C 0.40174 0.6348 0.39149 0.0
C1746 C 0.39459 0.60284 0.39989 0.0
C1747 C 0.39807 0.59777 0.41179 0.0
C1748 C 0.39721 0.6035 0.42405 0.0
C1749 C 0.3924 0.61424 0.42423 0.0
C1750 C 0.38885 0.61928 0.41232 0.0
H1751 H 0.40695 0.64063 0.38546 0.0
H1752 H 0.39778 0.6397 0.39967 0.0
H1753 H 0.40731 0.62843 0.3961 0.0
H1754 H 0.39564 0.59838 0.39051 0.0
H1755 H 0.40172 0.58947 0.4113 0.0
H1756 H 0.59654 0.14216 0.56368 0.0
H1757 H 0.60432 0.14705 0.58558 0.0
H1758 H 0.60094 0.11271 0.59834 0.0
H1759 H 0.59347 0.10769 0.57635 0.0
H1760 H 0.5949 0.14579 0.60977 0.0
H1761 H 0.63278 0.11909 0.60898 0.0
H1762 H 0.62446 0.12163 0.59421 0.0
H1763 H 0.6202 0.11122 0.60622 0.0
C1764 C 0.59754 0.13563 0.57111 0.0
C1765 C 0.59444 0.12452 0.56826 0.0
C1766 C 0.60198 0.13844 0.58363 0.0
C1767 C 0.60339 0.13022 0.59353 0.0
C1768 C 0.60022 0.11914 0.59074 0.0
H1769 H 0.60898 0.14262 0.6789 0.0
H1770 H 0.60275 0.13804 0.65623 0.0
C1771 C 0.59588 0.1163 0.57819 0.0
C1772 C 0.60772 0.13333 0.60696 0.0
H1773 H 0.6277 0.12689 0.63018 0.0
C1774 C 0.60212 0.14171 0.6142 0.0
C1775 C 0.61724 0.12812 0.61265 0.0
C1776 C 0.62409 0.1196 0.60506 0.0
C1777 C 0.60563 0.14487 0.62707 0.0
C1778 C 0.61481 0.13928 0.63302 0.0
C1779 C 0.62057 0.13107 0.62568 0.0
C1780 C 0.61863 0.14187 0.64682 0.0
C1781 C 0.59957 0.15431 0.63405 0.0
C1782 C 0.62975 0.14516 0.64915 0.0
C1783 C 0.63339 0.14761 0.66214 0.0
C1784 C 0.62597 0.14683 0.67304 0.0
C1785 C 0.61488 0.1434 0.6707 0.0
C1786 C 0.61127 0.14086 0.65773 0.0
H1787 H 0.59518 0.15982 0.62677 0.0
H1788 H 0.59318 0.15076 0.6409 0.0
H1789 H 0.60544 0.15951 0.64004 0.0
H1790 H 0.63559 0.14594 0.64089 0.0
H1791 H 0.64199 0.15022 0.6636 0.0
H1792 H 0.86389 0.35367 0.82286 0.0
H1793 H 0.87562 0.36441 0.83834 0.0
H1794 H 0.85049 0.3611 0.86911 0.0
H1795 H 0.83869 0.35032 0.85372 0.0
H1796 H 0.85929 0.38375 0.86445 0.0
H1797 H 0.8924 0.35166 0.87207 0.0
H1798 H 0.8887 0.35454 0.85494 0.0
H1799 H 0.8786 0.34821 0.86591 0.0
C1800 C 0.86087 0.35519 0.83293 0.0
C1801 C 0.85037 0.35111 0.83707 0.0
C1802 C 0.8676 0.36128 0.84177 0.0
C1803 C 0.86395 0.36343 0.85488 0.0
C1804 C 0.85346 0.35947 0.85903 0.0
H1805 H 0.90197 0.39085 0.92162 0.0
H1806 H 0.88978 0.37956 0.90722 0.0
C1807 C 0.84674 0.3533 0.85023 0.0
C1808 C 0.87099 0.37005 0.86416 0.0
H1809 H 0.89581 0.36969 0.88113 0.0
C1810 C 0.86726 0.38068 0.86814 0.0
C1811 C 0.88132 0.36595 0.86902 0.0
C1812 C 0.8855 0.35443 0.86538 0.0
C1813 C 0.87372 0.38744 0.87666 0.0
C1814 C 0.88419 0.38346 0.88125 0.0
C1815 C 0.88781 0.37273 0.8775 0.0
C1816 C 0.89151 0.39034 0.88993 0.0
C1817 C 0.86931 0.39876 0.88079 0.0
C1818 C 0.89658 0.40006 0.8849 0.0
C1819 C 0.90359 0.4065 0.89306 0.0
C1820 C 0.90563 0.40333 0.90641 0.0
C1821 C 0.90054 0.39355 0.9114 0.0
C1822 C 0.8936 0.38708 0.90319 0.0
H1823 H 0.86022 0.39964 0.87864 0.0
H1824 H 0.87073 0.40022 0.89165 0.0
H1825 H 0.87385 0.40537 0.87517 0.0
H1826 H 0.89517 0.40263 0.87463 0.0
H1827 H 0.90739 0.41397 0.88891 0.0
H1828 H 0.33231 0.14348 0.65034 0.0
H1829 H 0.34256 0.13153 0.63466 0.0
H1830 H 0.37385 0.14394 0.6504 0.0
H1831 H 0.36364 0.15548 0.66653 0.0
H1832 H 0.35604 0.13587 0.61499 0.0
H1833 H 0.37978 0.11129 0.65237 0.0
H1834 H 0.36857 0.1206 0.65707 0.0
H1835 H 0.38243 0.12599 0.65401 0.0
C1836 C 0.34138 0.14362 0.65049 0.0
C1837 C 0.34718 0.15034 0.65974 0.0
C1838 C 0.34724 0.13679 0.64152 0.0
C1839 C 0.359 0.13663 0.64151 0.0
C1840 C 0.36479 0.14361 0.65049 0.0
H1841 H 0.39845 0.11154 0.57442 0.0
H1842 H 0.38819 0.12309 0.59049 0.0
C1843 C 0.35894 0.15027 0.65964 0.0
C1844 C 0.36517 0.12937 0.6319 0.0
H1845 H 0.3858 0.10967 0.62965 0.0
C1846 C 0.36249 0.13008 0.61822 0.0
C1847 C 0.37346 0.12165 0.6361 0.0
C1848 C 0.37614 0.11974 0.6507 0.0
C1849 C 0.36796 0.12343 0.60862 0.0
C1850 C 0.37667 0.11616 0.61274 0.0
C1851 C 0.37924 0.11534 0.62644 0.0
C1852 C 0.38312 0.10921 0.60307 0.0
C1853 C 0.3641 0.12409 0.59424 0.0
C1854 C 0.38414 0.09761 0.60507 0.0
C1855 C 0.39026 0.09103 0.59609 0.0
C1856 C 0.39539 0.09591 0.58484 0.0
C1857 C 0.39446 0.10752 0.5829 0.0
C1858 C 0.38851 0.11413 0.59202 0.0
H1859 H 0.35529 0.12704 0.59355 0.0
H1860 H 0.3694 0.13018 0.58875 0.0
H1861 H 0.36472 0.11584 0.58918 0.0
H1862 H 0.38011 0.09361 0.61355 0.0
H1863 H 0.39084 0.0821 0.59785 0.0
H1864 H 0.66761 0.65025 0.35883 0.0
H1865 H 0.65568 0.63921 0.37379 0.0
H1866 H 0.63243 0.63354 0.34146 0.0
H1867 H 0.6443 0.64456 0.32639 0.0
H1868 H 0.62275 0.64091 0.36702 0.0
H1869 H 0.65132 0.60435 0.37179 0.0
H1870 H 0.65749 0.61788 0.37465 0.0
H1871 H 0.65241 0.61434 0.35826 0.0
C1872 C 0.65997 0.64665 0.35489 0.0
C1873 C 0.65692 0.64825 0.34141 0.0
C1874 C 0.65319 0.64031 0.36344 0.0
C1875 C 0.64325 0.63549 0.35867 0.0
C1876 C 0.64011 0.63717 0.34529 0.0
H1877 H 0.60047 0.58533 0.39515 0.0
H1878 H 0.61237 0.59635 0.38013 0.0
C1879 C 0.64691 0.64345 0.3367 0.0
C1880 C 0.63606 0.62878 0.3677 0.0
H1881 H 0.63514 0.60439 0.38552 0.0
C1882 C 0.62543 0.63292 0.37107 0.0
C1883 C 0.63959 0.61834 0.37284 0.0
C1884 C 0.65079 0.61337 0.36916 0.0
C1885 C 0.61828 0.62694 0.37964 0.0
C1886 C 0.62189 0.61659 0.38498 0.0
C1887 C 0.63245 0.61237 0.38146 0.0
C1888 C 0.61476 0.60995 0.39415 0.0
C1889 C 0.60686 0.63164 0.3828 0.0
C1890 C 0.61229 0.61392 0.40705 0.0
C1891 C 0.60554 0.60762 0.41568 0.0
C1892 C 0.60114 0.59726 0.41154 0.0
C1893 C 0.6037 0.59329 0.39863 0.0
C1894 C 0.6105 0.59956 0.39004 0.0
H1895 H 0.6045 0.63851 0.37585 0.0
H1896 H 0.60039 0.62497 0.38225 0.0
H1897 H 0.60686 0.63502 0.39316 0.0
H1898 H 0.61561 0.62186 0.41045 0.0
H1899 H 0.60375 0.61091 0.42557 0.0
H1900 H 0.07891 0.92188 0.09897 0.0
H1901 H 0.08949 0.90892 0.11313 0.0
H1902 H 0.10524 0.8949 0.07806 0.0
H1903 H 0.09471 0.90782 0.0638 0.0
H1904 H 0.08989 0.8843 0.11126 0.0
H1905 H 0.13152 0.90423 0.10355 0.0
H1906 H 0.11854 0.91145 0.10017 0.0
H1907 H 0.12363 0.90107 0.08867 0.0
C1908 C 0.08464 0.91606 0.09426 0.0
C1909 C 0.08601 0.91591 0.08026 0.0
C1910 C 0.09065 0.90865 0.10237 0.0
C1911 C 0.0982 0.90105 0.09663 0.0
C1912 C 0.09954 0.90081 0.08267 0.0
H1913 H 0.1456 0.85407 0.13138 0.0
H1914 H 0.13402 0.86505 0.11603 0.0
C1915 C 0.09349 0.90817 0.07455 0.0
C1916 C 0.10466 0.89334 0.10527 0.0
H1917 H 0.1311 0.88757 0.1162 0.0
C1918 C 0.0989 0.88499 0.11237 0.0
C1919 C 0.1164 0.89426 0.10661 0.0
C1920 C 0.12293 0.90327 0.09944 0.0
C1921 C 0.10461 0.87744 0.12071 0.0
C1922 C 0.11635 0.87847 0.12222 0.0
C1923 C 0.1221 0.88678 0.11502 0.0
C1924 C 0.12284 0.87121 0.13143 0.0
C1925 C 0.09804 0.86833 0.12763 0.0
C1926 C 0.12039 0.87101 0.14519 0.0
C1927 C 0.12695 0.86469 0.15398 0.0
C1928 C 0.13617 0.85856 0.14919 0.0
C1929 C 0.13855 0.8587 0.13539 0.0
C1930 C 0.13195 0.86497 0.1266 0.0
H1931 H 0.09002 0.86658 0.12238 0.0
H1932 H 0.10294 0.86044 0.12822 0.0
H1933 H 0.096 0.87105 0.13798 0.0
H1934 H 0.11358 0.87597 0.1492 0.0
H1935 H 0.12495 0.86483 0.16456 0.0
H1936 H 0.88827 0.60303 0.10688 0.0
H1937 H 0.8778 0.6124 0.12473 0.0
H1938 H 0.87949 0.6435 0.10289 0.0
H1939 H 0.89006 0.63424 0.08505 0.0
H1940 H 0.88402 0.6456 0.13068 0.0
H1941 H 0.84477 0.62198 0.12082 0.0
H1942 H 0.85693 0.61346 0.12369 0.0
H1943 H 0.85629 0.62227 0.10912 0.0
C1944 C 0.88647 0.61188 0.1059 0.0
C1945 C 0.88993 0.61787 0.09449 0.0
C1946 C 0.88044 0.6172 0.11608 0.0
C1947 C 0.87772 0.62859 0.11501 0.0
C1948 C 0.88146 0.63469 0.10386 0.0
H1949 H 0.82681 0.66617 0.157 0.0
H1950 H 0.83871 0.65672 0.14056 0.0
C1951 C 0.88748 0.62937 0.09367 0.0
C1952 C 0.87082 0.63414 0.1254 0.0
H1953 H 0.84482 0.63403 0.13964 0.0
C1954 C 0.87545 0.64307 0.13267 0.0
C1955 C 0.8596 0.6309 0.12783 0.0
C1956 C 0.85404 0.62169 0.11989 0.0
C1957 C 0.86919 0.6488 0.14241 0.0
C1958 C 0.85805 0.64541 0.14502 0.0
C1959 C 0.85339 0.63654 0.13768 0.0
C1960 C 0.85096 0.65116 0.15507 0.0
C1961 C 0.87445 0.65859 0.14961 0.0
C1962 C 0.85385 0.65106 0.1687 0.0
C1963 C 0.84707 0.65645 0.17813 0.0
C1964 C 0.83724 0.662 0.1741 0.0
C1965 C 0.83433 0.66199 0.16044 0.0
C1966 C 0.84111 0.65659 0.15103 0.0
H1967 H 0.882 0.66173 0.1443 0.0
H1968 H 0.86839 0.66558 0.15067 0.0
H1969 H 0.87702 0.65592 0.15981 0.0
H1970 H 0.86131 0.64674 0.17205 0.0
H1971 H 0.84953 0.65626 0.18857 0.0
H1972 H 0.10176 0.07501 0.90325 0.0
H1973 H 0.1111 0.08409 0.88433 0.0
H1974 H 0.10665 0.11627 0.90328 0.0
H1975 H 0.09773 0.10719 0.92246 0.0
H1976 H 0.10387 0.09867 0.86681 0.0
H1977 H 0.13914 0.11794 0.89435 0.0
H1978 H 0.12997 0.10776 0.90195 0.0
H1979 H 0.12589 0.12226 0.90102 0.0
C1980 C 0.10284 0.08401 0.90342 0.0
C1981 C 0.09909 0.09038 0.91439 0.0
C1982 C 0.10818 0.0892 0.8926 0.0
C1983 C 0.1098 0.10085 0.89248 0.0
C1984 C 0.10584 0.10724 0.90331 0.0
H1985 H 0.12166 0.1406 0.82116 0.0
H1986 H 0.11366 0.13049 0.84015 0.0
C1987 C 0.10066 0.10204 0.91423 0.0
C1988 C 0.11526 0.10634 0.88083 0.0
H1989 H 0.13596 0.12467 0.87211 0.0
C1990 C 0.11095 0.10429 0.86796 0.0
C1991 C 0.12462 0.11351 0.88227 0.0
C1992 C 0.13025 0.1154 0.89563 0.0
C1993 C 0.11558 0.10938 0.85656 0.0
C1994 C 0.12453 0.11706 0.8581 0.0
C1995 C 0.129 0.11891 0.87093 0.0
C1996 C 0.12939 0.12325 0.84657 0.0
C1997 C 0.11095 0.10629 0.84298 0.0
C1998 C 0.14097 0.12293 0.84413 0.0
C1999 C 0.14561 0.12892 0.83345 0.0
C2000 C 0.13873 0.13529 0.82494 0.0
C2001 C 0.12716 0.13566 0.82743 0.0
C2002 C 0.12256 0.12981 0.83824 0.0
H2003 H 0.10695 0.09789 0.84314 0.0
H2004 H 0.10445 0.11246 0.84007 0.0
H2005 H 0.1176 0.10629 0.8352 0.0
H2006 H 0.14643 0.11799 0.85047 0.0
H2007 H 0.15456 0.12848 0.83179 0.0
H2008 H 0.6667 0.33582 0.6687 0.0
H2009 H 0.6578 0.34454 0.64928 0.0
H2010 H 0.63116 0.35679 0.67452 0.0
H2011 H 0.63988 0.3479 0.69397 0.0
H2012 H 0.6233 0.34715 0.65159 0.0
H2013 H 0.65692 0.3775 0.6395 0.0
H2014 H 0.66182 0.36332 0.64037 0.0
H2015 H 0.65642 0.37 0.65519 0.0
C2016 C 0.65898 0.34043 0.67014 0.0
C2017 C 0.65402 0.3412 0.68289 0.0
C2018 C 0.65394 0.34546 0.65904 0.0
C2019 C 0.64392 0.35148 0.66049 0.0
C2020 C 0.63892 0.35224 0.67319 0.0
H2021 H 0.61585 0.39461 0.59864 0.0
H2022 H 0.62375 0.38714 0.6194 0.0
C2023 C 0.64393 0.34716 0.6843 0.0
C2024 C 0.63844 0.35664 0.64868 0.0
H2025 H 0.64278 0.37492 0.6229 0.0
C2026 C 0.62752 0.35328 0.64536 0.0
C2027 C 0.64391 0.36475 0.64068 0.0
C2028 C 0.65537 0.3692 0.64417 0.0
C2029 C 0.62202 0.35761 0.63407 0.0
C2030 C 0.62769 0.36534 0.62573 0.0
C2031 C 0.6385 0.36891 0.62923 0.0
C2032 C 0.62259 0.36979 0.61328 0.0
C2033 C 0.61015 0.35397 0.63129 0.0
C2034 C 0.61939 0.36252 0.60291 0.0
C2035 C 0.61481 0.36676 0.59106 0.0
C2036 C 0.61347 0.37836 0.58931 0.0
C2037 C 0.61675 0.38563 0.59968 0.0
C2038 C 0.62128 0.38138 0.61155 0.0
H2039 H 0.60599 0.35075 0.64048 0.0
H2040 H 0.60509 0.36098 0.62722 0.0
H2041 H 0.61023 0.34712 0.62378 0.0
H2042 H 0.62056 0.35357 0.6039 0.0
H2043 H 0.61245 0.36094 0.58323 0.0
H2044 H 0.33889 0.84391 0.37234 0.0
H2045 H 0.35045 0.8573 0.38471 0.0
H2046 H 0.36462 0.86914 0.34758 0.0
H2047 H 0.35303 0.85585 0.3351 0.0
H2048 H 0.3741 0.85917 0.38484 0.0
H2049 H 0.3538 0.89799 0.36614 0.0
H2050 H 0.34742 0.88435 0.36449 0.0
H2051 H 0.35847 0.88852 0.35332 0.0
C2052 C 0.34443 0.84938 0.36679 0.0
C2053 C 0.345 0.84884 0.35272 0.0
C2054 C 0.35104 0.85702 0.37388 0.0
C2055 C 0.35827 0.86431 0.36705 0.0
C2056 C 0.35894 0.86373 0.35303 0.0
H2057 H 0.40466 0.91616 0.3924 0.0
H2058 H 0.39331 0.90278 0.37973 0.0
C2059 C 0.35235 0.85608 0.34592 0.0
C2060 C 0.36527 0.87236 0.37464 0.0
H2061 H 0.37016 0.90026 0.37928 0.0
C2062 C 0.37322 0.86816 0.38368 0.0
C2063 C 0.36411 0.88407 0.37304 0.0
C2064 C 0.35543 0.88904 0.36381 0.0
C2065 C 0.38018 0.87537 0.39104 0.0
C2066 C 0.37899 0.88708 0.38951 0.0
C2067 C 0.37105 0.89128 0.38043 0.0
C2068 C 0.38587 0.89514 0.39726 0.0
C2069 C 0.38891 0.87036 0.40018 0.0
C2070 C 0.38532 0.89538 0.4113 0.0
C2071 C 0.39182 0.903 0.41858 0.0
C2072 C 0.39891 0.91058 0.41192 0.0
C2073 C 0.39931 0.91042 0.39784 0.0
C2074 C 0.39283 0.90279 0.39058 0.0
H2075 H 0.39076 0.86152 0.39753 0.0
H2076 H 0.39683 0.87523 0.39978 0.0
H2077 H 0.38577 0.87053 0.41065 0.0
H2078 H 0.37982 0.88972 0.41665 0.0
H2079 H 0.39125 0.90295 0.42941 0.0
loop_
_geom_bond_atom_site_label_1
_geom_bond_atom_site_label_2
_geom_bond_distance
_geom_bond_site_symmetry_2
_ccdc_geom_bond_type
O0 Cd1 2.300 . S
O0 C7 1.275 . S
Cd1 O0 2.300 . S
Cd1 O9 2.381 . S
Cd1 O10 2.378 . S
O2 Cd3 2.385 . S
O2 C7 1.255 . S
Cd3 O2 2.385 . S
Cd3 O4 2.317 . S
O4 Cd3 2.317 . S
O4 C5 1.232 . S
C5 O4 1.232 . S
C5 O6 1.218 . S
O6 C5 1.218 . S
C7 O0 1.275 . S
C7 O2 1.255 . S
C8 O9 1.258 . S
C8 O10 1.256 . S
O9 Cd1 2.381 . S
O9 C8 1.258 . S
O10 Cd1 2.378 . S
O10 C8 1.256 . S
O11 Cd12 2.300 . S
O11 C18 1.275 . S
Cd12 O11 2.300 . S
Cd12 O20 2.381 . S
Cd12 O21 2.378 . S
O13 Cd14 2.385 . S
O13 C18 1.255 . S
Cd14 O13 2.385 . S
Cd14 O15 2.317 . S
O15 Cd14 2.317 . S
O15 C16 1.232 . S
C16 O15 1.232 . S
C16 O17 1.218 . S
O17 C16 1.218 . S
C18 O11 1.275 . S
C18 O13 1.255 . S
C19 O20 1.258 . S
C19 O21 1.256 . S
O20 Cd12 2.381 . S
O20 C19 1.258 . S
O21 Cd12 2.378 . S
O21 C19 1.256 . S
O22 Cd23 2.300 . S
O22 C29 1.275 . S
Cd23 O22 2.300 . S
Cd23 O31 2.381 . S
Cd23 O32 2.378 . S
O24 Cd25 2.385 . S
O24 C29 1.255 . S
Cd25 O24 2.385 . S
Cd25 O26 2.317 . S
O26 Cd25 2.317 . S
O26 C27 1.232 . S
C27 O26 1.232 . S
C27 O28 1.218 . S
O28 C27 1.218 . S
C29 O22 1.275 . S
C29 O24 1.255 . S
C30 O31 1.258 . S
C30 O32 1.256 . S
O31 Cd23 2.381 . S
O31 C30 1.258 . S
O32 Cd23 2.378 . S
O32 C30 1.256 . S
O33 Cd34 2.300 . S
O33 C40 1.275 . S
Cd34 O33 2.300 . S
Cd34 O42 2.381 . S
Cd34 O43 2.378 . S
O35 Cd36 2.385 . S
O35 C40 1.255 . S
Cd36 O35 2.385 . S
Cd36 O37 2.317 . S
O37 Cd36 2.317 . S
O37 C38 1.232 . S
C38 O37 1.232 . S
C38 O39 1.218 . S
O39 C38 1.218 . S
C40 O33 1.275 . S
C40 O35 1.255 . S
C41 O42 1.258 . S
C41 O43 1.256 . S
O42 Cd34 2.381 . S
O42 C41 1.258 . S
O43 Cd34 2.378 . S
O43 C41 1.256 . S
O44 Cd45 2.300 . S
O44 C51 1.275 . S
Cd45 O44 2.300 . S
Cd45 O53 2.381 . S
Cd45 O54 2.378 . S
O46 Cd47 2.385 . S
O46 C51 1.255 . S
Cd47 O46 2.385 . S
Cd47 O48 2.317 . S
O48 Cd47 2.317 . S
O48 C49 1.232 . S
C49 O48 1.232 . S
C49 O50 1.218 . S
O50 C49 1.218 . S
C51 O44 1.275 . S
C51 O46 1.255 . S
C52 O53 1.258 . S
C52 O54 1.256 . S
O53 Cd45 2.381 . S
O53 C52 1.258 . S
O54 Cd45 2.378 . S
O54 C52 1.256 . S
O55 Cd56 2.300 . S
O55 C62 1.275 . S
Cd56 O55 2.300 . S
Cd56 O64 2.381 . S
Cd56 O65 2.378 . S
O57 Cd58 2.385 . S
O57 C62 1.255 . S
Cd58 O57 2.385 . S
Cd58 O59 2.317 . S
O59 Cd58 2.317 . S
O59 C60 1.232 . S
C60 O59 1.232 . S
C60 O61 1.218 . S
O61 C60 1.218 . S
C62 O55 1.275 . S
C62 O57 1.255 . S
C63 O64 1.258 . S
C63 O65 1.256 . S
O64 Cd56 2.381 . S
O64 C63 1.258 . S
O65 Cd56 2.378 . S
O65 C63 1.256 . S
O66 Cd67 2.300 . S
O66 C73 1.275 . S
Cd67 O66 2.300 . S
Cd67 O75 2.381 . S
Cd67 O76 2.378 . S
O68 Cd69 2.385 . S
O68 C73 1.255 . S
Cd69 O68 2.385 . S
Cd69 O70 2.317 . S
O70 Cd69 2.317 . S
O70 C71 1.232 . S
C71 O70 1.232 . S
C71 O72 1.218 . S
O72 C71 1.218 . S
C73 O66 1.275 . S
C73 O68 1.255 . S
C74 O75 1.258 . S
C74 O76 1.256 . S
O75 Cd67 2.381 . S
O75 C74 1.258 . S
O76 Cd67 2.378 . S
O76 C74 1.256 . S
O77 Cd78 2.300 . S
O77 C84 1.275 . S
Cd78 O77 2.300 . S
Cd78 O86 2.381 . S
Cd78 O87 2.378 . S
O79 Cd80 2.385 . S
O79 C84 1.255 . S
Cd80 O79 2.385 . S
Cd80 O81 2.317 . S
O81 Cd80 2.317 . S
O81 C82 1.232 . S
C82 O81 1.232 . S
C82 O83 1.218 . S
O83 C82 1.218 . S
C84 O77 1.275 . S
C84 O79 1.255 . S
C85 O86 1.258 . S
C85 O87 1.256 . S
O86 Cd78 2.381 . S
O86 C85 1.258 . S
O87 Cd78 2.378 . S
O87 C85 1.256 . S
O88 Cd89 2.300 . S
O88 C95 1.275 . S
Cd89 O88 2.300 . S
Cd89 O97 2.381 . S
Cd89 O98 2.378 . S
O90 Cd91 2.385 . S
O90 C95 1.255 . S
Cd91 O90 2.385 . S
Cd91 O92 2.317 . S
O92 Cd91 2.317 . S
O92 C93 1.232 . S
C93 O92 1.232 . S
C93 O94 1.218 . S
O94 C93 1.218 . S
C95 O88 1.275 . S
C95 O90 1.255 . S
C96 O97 1.258 . S
C96 O98 1.256 . S
O97 Cd89 2.381 . S
O97 C96 1.258 . S
O98 Cd89 2.378 . S
O98 C96 1.256 . S
O99 Cd100 2.300 . S
O99 C106 1.275 . S
Cd100 O99 2.300 . S
Cd100 O108 2.381 . S
Cd100 O109 2.378 . S
O101 Cd102 2.385 . S
O101 C106 1.255 . S
Cd102 O101 2.385 . S
Cd102 O103 2.317 . S
O103 Cd102 2.317 . S
O103 C104 1.232 . S
C104 O103 1.232 . S
C104 O105 1.218 . S
O105 C104 1.218 . S
C106 O99 1.275 . S
C106 O101 1.255 . S
C107 O108 1.258 . S
C107 O109 1.256 . S
O108 Cd100 2.381 . S
O108 C107 1.258 . S
O109 Cd100 2.378 . S
O109 C107 1.256 . S
O110 Cd111 2.300 . S
O110 C117 1.275 . S
Cd111 O110 2.300 . S
Cd111 O119 2.381 . S
Cd111 O120 2.378 . S
O112 Cd113 2.385 . S
O112 C117 1.255 . S
Cd113 O112 2.385 . S
Cd113 O114 2.317 . S
O114 Cd113 2.317 . S
O114 C115 1.232 . S
C115 O114 1.232 . S
C115 O116 1.218 . S
O116 C115 1.218 . S
C117 O110 1.275 . S
C117 O112 1.255 . S
C118 O119 1.258 . S
C118 O120 1.256 . S
O119 Cd111 2.381 . S
O119 C118 1.258 . S
O120 Cd111 2.378 . S
O120 C118 1.256 . S
O121 Cd122 2.300 . S
O121 C128 1.275 . S
Cd122 O121 2.300 . S
Cd122 O130 2.381 . S
Cd122 O131 2.378 . S
O123 Cd124 2.385 . S
O123 C128 1.255 . S
Cd124 O123 2.385 . S
Cd124 O125 2.317 . S
O125 Cd124 2.317 . S
O125 C126 1.232 . S
C126 O125 1.232 . S
C126 O127 1.218 . S
O127 C126 1.218 . S
C128 O121 1.275 . S
C128 O123 1.255 . S
C129 O130 1.258 . S
C129 O131 1.256 . S
O130 Cd122 2.381 . S
O130 C129 1.258 . S
O131 Cd122 2.378 . S
O131 C129 1.256 . S
O132 Cd133 2.300 . S
O132 C139 1.275 . S
Cd133 O132 2.300 . S
Cd133 O141 2.381 . S
Cd133 O142 2.378 . S
O134 Cd135 2.385 . S
O134 C139 1.255 . S
Cd135 O134 2.385 . S
Cd135 O136 2.317 . S
O136 Cd135 2.317 . S
O136 C137 1.232 . S
C137 O136 1.232 . S
C137 O138 1.218 . S
O138 C137 1.218 . S
C139 O132 1.275 . S
C139 O134 1.255 . S
C140 O141 1.258 . S
C140 O142 1.256 . S
O141 Cd133 2.381 . S
O141 C140 1.258 . S
O142 Cd133 2.378 . S
O142 C140 1.256 . S
O143 Cd144 2.300 . S
O143 C150 1.275 . S
Cd144 O143 2.300 . S
Cd144 O152 2.381 . S
Cd144 O153 2.378 . S
O145 Cd146 2.385 . S
O145 C150 1.255 . S
Cd146 O145 2.385 . S
Cd146 O147 2.317 . S
O147 Cd146 2.317 . S
O147 C148 1.232 . S
C148 O147 1.232 . S
C148 O149 1.218 . S
O149 C148 1.218 . S
C150 O143 1.275 . S
C150 O145 1.255 . S
C151 O152 1.258 . S
C151 O153 1.256 . S
O152 Cd144 2.381 . S
O152 C151 1.258 . S
O153 Cd144 2.378 . S
O153 C151 1.256 . S
O154 Cd155 2.300 . S
O154 C161 1.275 . S
Cd155 O154 2.300 . S
Cd155 O163 2.381 . S
Cd155 O164 2.378 . S
O156 Cd157 2.385 . S
O156 C161 1.255 . S
Cd157 O156 2.385 . S
Cd157 O158 2.317 . S
O158 Cd157 2.317 . S
O158 C159 1.232 . S
C159 O158 1.232 . S
C159 O160 1.218 . S
O160 C159 1.218 . S
C161 O154 1.275 . S
C161 O156 1.255 . S
C162 O163 1.258 . S
C162 O164 1.256 . S
O163 Cd155 2.381 . S
O163 C162 1.258 . S
O164 Cd155 2.378 . S
O164 C162 1.256 . S
O165 Cd166 2.300 . S
O165 C172 1.275 . S
Cd166 O165 2.300 . S
Cd166 O174 2.381 . S
Cd166 O175 2.378 . S
O167 Cd168 2.385 . S
O167 C172 1.255 . S
Cd168 O167 2.385 . S
Cd168 O169 2.317 . S
O169 Cd168 2.317 . S
O169 C170 1.232 . S
C170 O169 1.232 . S
C170 O171 1.218 . S
O171 C170 1.218 . S
C172 O165 1.275 . S
C172 O167 1.255 . S
C173 O174 1.258 . S
C173 O175 1.256 . S
O174 Cd166 2.381 . S
O174 C173 1.258 . S
O175 Cd166 2.378 . S
O175 C173 1.256 . S
O176 Cd177 2.300 . S
O176 C183 1.275 . S
Cd177 O176 2.300 . S
Cd177 O185 2.381 . S
Cd177 O186 2.378 . S
O178 Cd179 2.385 . S
O178 C183 1.255 . S
Cd179 O178 2.385 . S
Cd179 O180 2.317 . S
O180 Cd179 2.317 . S
O180 C181 1.232 . S
C181 O180 1.232 . S
C181 O182 1.218 . S
O182 C181 1.218 . S
C183 O176 1.275 . S
C183 O178 1.255 . S
C184 O185 1.258 . S
C184 O186 1.256 . S
O185 Cd177 2.381 . S
O185 C184 1.258 . S
O186 Cd177 2.378 . S
O186 C184 1.256 . S
O187 Cd188 2.300 . S
O187 C194 1.275 . S
Cd188 O187 2.300 . S
Cd188 O196 2.381 . S
Cd188 O197 2.378 . S
O189 Cd190 2.385 . S
O189 C194 1.255 . S
Cd190 O189 2.385 . S
Cd190 O191 2.317 . S
O191 Cd190 2.317 . S
O191 C192 1.232 . S
C192 O191 1.232 . S
C192 O193 1.218 . S
O193 C192 1.218 . S
C194 O187 1.275 . S
C194 O189 1.255 . S
C195 O196 1.258 . S
C195 O197 1.256 . S
O196 Cd188 2.381 . S
O196 C195 1.258 . S
O197 Cd188 2.378 . S
O197 C195 1.256 . S
O198 Cd199 2.300 . S
O198 C205 1.275 . S
Cd199 O198 2.300 . S
Cd199 O207 2.381 . S
Cd199 O208 2.378 . S
O200 Cd201 2.385 . S
O200 C205 1.255 . S
Cd201 O200 2.385 . S
Cd201 O202 2.317 . S
O202 Cd201 2.317 . S
O202 C203 1.232 . S
C203 O202 1.232 . S
C203 O204 1.218 . S
O204 C203 1.218 . S
C205 O198 1.275 . S
C205 O200 1.255 . S
C206 O207 1.258 . S
C206 O208 1.256 . S
O207 Cd199 2.381 . S
O207 C206 1.258 . S
O208 Cd199 2.378 . S
O208 C206 1.256 . S
O209 Cd210 2.300 . S
O209 C216 1.275 . S
Cd210 O209 2.300 . S
Cd210 O218 2.381 . S
Cd210 O219 2.378 . S
O211 Cd212 2.385 . S
O211 C216 1.255 . S
Cd212 O211 2.385 . S
Cd212 O213 2.317 . S
O213 Cd212 2.317 . S
O213 C214 1.232 . S
C214 O213 1.232 . S
C214 O215 1.218 . S
O215 C214 1.218 . S
C216 O209 1.275 . S
C216 O211 1.255 . S
C217 O218 1.258 . S
C217 O219 1.256 . S
O218 Cd210 2.381 . S
O218 C217 1.258 . S
O219 Cd210 2.378 . S
O219 C217 1.256 . S
O220 Cd221 2.300 . S
O220 C227 1.275 . S
Cd221 O220 2.300 . S
Cd221 O229 2.381 . S
Cd221 O230 2.378 . S
O222 Cd223 2.385 . S
O222 C227 1.255 . S
Cd223 O222 2.385 . S
Cd223 O224 2.317 . S
O224 Cd223 2.317 . S
O224 C225 1.232 . S
C225 O224 1.232 . S
C225 O226 1.218 . S
O226 C225 1.218 . S
C227 O220 1.275 . S
C227 O222 1.255 . S
C228 O229 1.258 . S
C228 O230 1.256 . S
O229 Cd221 2.381 . S
O229 C228 1.258 . S
O230 Cd221 2.378 . S
O230 C228 1.256 . S
O231 Cd232 2.300 . S
O231 C238 1.275 . S
Cd232 O231 2.300 . S
Cd232 O240 2.381 . S
Cd232 O241 2.378 . S
O233 Cd234 2.385 . S
O233 C238 1.255 . S
Cd234 O233 2.385 . S
Cd234 O235 2.317 . S
O235 Cd234 2.317 . S
O235 C236 1.232 . S
C236 O235 1.232 . S
C236 O237 1.218 . S
O237 C236 1.218 . S
C238 O231 1.275 . S
C238 O233 1.255 . S
C239 O240 1.258 . S
C239 O241 1.256 . S
O240 Cd232 2.381 . S
O240 C239 1.258 . S
O241 Cd232 2.378 . S
O241 C239 1.256 . S
O242 Cd243 2.300 . S
O242 C249 1.275 . S
Cd243 O242 2.300 . S
Cd243 O251 2.381 . S
Cd243 O252 2.378 . S
O244 Cd245 2.385 . S
O244 C249 1.255 . S
Cd245 O244 2.385 . S
Cd245 O246 2.317 . S
O246 Cd245 2.317 . S
O246 C247 1.232 . S
C247 O246 1.232 . S
C247 O248 1.218 . S
O248 C247 1.218 . S
C249 O242 1.275 . S
C249 O244 1.255 . S
C250 O251 1.258 . S
C250 O252 1.256 . S
O251 Cd243 2.381 . S
O251 C250 1.258 . S
O252 Cd243 2.378 . S
O252 C250 1.256 . S
O253 Cd254 2.300 . S
O253 C260 1.275 . S
Cd254 O253 2.300 . S
Cd254 O262 2.381 . S
Cd254 O263 2.378 . S
O255 Cd256 2.385 . S
O255 C260 1.255 . S
Cd256 O255 2.385 . S
Cd256 O257 2.317 . S
O257 Cd256 2.317 . S
O257 C258 1.232 . S
C258 O257 1.232 . S
C258 O259 1.218 . S
O259 C258 1.218 . S
C260 O253 1.275 . S
C260 O255 1.255 . S
C261 O262 1.258 . S
C261 O263 1.256 . S
O262 Cd254 2.381 . S
O262 C261 1.258 . S
O263 Cd254 2.378 . S
O263 C261 1.256 . S
O264 Cd265 2.300 . S
O264 C271 1.275 . S
Cd265 O264 2.300 . S
Cd265 O273 2.381 . S
Cd265 O274 2.378 . S
O266 Cd267 2.385 . S
O266 C271 1.255 . S
Cd267 O266 2.385 . S
Cd267 O268 2.317 . S
O268 Cd267 2.317 . S
O268 C269 1.232 . S
C269 O268 1.232 . S
C269 O270 1.218 . S
O270 C269 1.218 . S
C271 O264 1.275 . S
C271 O266 1.255 . S
C272 O273 1.258 . S
C272 O274 1.256 . S
O273 Cd265 2.381 . S
O273 C272 1.258 . S
O274 Cd265 2.378 . S
O274 C272 1.256 . S
O275 Cd276 2.300 . S
O275 C282 1.275 . S
Cd276 O275 2.300 . S
Cd276 O284 2.381 . S
Cd276 O285 2.378 . S
O277 Cd278 2.385 . S
O277 C282 1.255 . S
Cd278 O277 2.385 . S
Cd278 O279 2.317 . S
O279 Cd278 2.317 . S
O279 C280 1.232 . S
C280 O279 1.232 . S
C280 O281 1.218 . S
O281 C280 1.218 . S
C282 O275 1.275 . S
C282 O277 1.255 . S
C283 O284 1.258 . S
C283 O285 1.256 . S
O284 Cd276 2.381 . S
O284 C283 1.258 . S
O285 Cd276 2.378 . S
O285 C283 1.256 . S
O286 Cd287 2.300 . S
O286 C293 1.275 . S
Cd287 O286 2.300 . S
Cd287 O295 2.381 . S
Cd287 O296 2.378 . S
O288 Cd289 2.385 . S
O288 C293 1.255 . S
Cd289 O288 2.385 . S
Cd289 O290 2.317 . S
O290 Cd289 2.317 . S
O290 C291 1.232 . S
C291 O290 1.232 . S
C291 O292 1.218 . S
O292 C291 1.218 . S
C293 O286 1.275 . S
C293 O288 1.255 . S
C294 O295 1.258 . S
C294 O296 1.256 . S
O295 Cd287 2.381 . S
O295 C294 1.258 . S
O296 Cd287 2.378 . S
O296 C294 1.256 . S
O297 Cd298 2.300 . S
O297 C304 1.275 . S
Cd298 O297 2.300 . S
Cd298 O306 2.381 . S
Cd298 O307 2.378 . S
O299 Cd300 2.385 . S
O299 C304 1.255 . S
Cd300 O299 2.385 . S
Cd300 O301 2.317 . S
O301 Cd300 2.317 . S
O301 C302 1.232 . S
C302 O301 1.232 . S
C302 O303 1.218 . S
O303 C302 1.218 . S
C304 O297 1.275 . S
C304 O299 1.255 . S
C305 O306 1.258 . S
C305 O307 1.256 . S
O306 Cd298 2.381 . S
O306 C305 1.258 . S
O307 Cd298 2.378 . S
O307 C305 1.256 . S
O308 Cd309 2.300 . S
O308 C315 1.275 . S
Cd309 O308 2.300 . S
Cd309 O317 2.381 . S
Cd309 O318 2.378 . S
O310 Cd311 2.385 . S
O310 C315 1.255 . S
Cd311 O310 2.385 . S
Cd311 O312 2.317 . S
O312 Cd311 2.317 . S
O312 C313 1.232 . S
C313 O312 1.232 . S
C313 O314 1.218 . S
O314 C313 1.218 . S
C315 O308 1.275 . S
C315 O310 1.255 . S
C316 O317 1.258 . S
C316 O318 1.256 . S
O317 Cd309 2.381 . S
O317 C316 1.258 . S
O318 Cd309 2.378 . S
O318 C316 1.256 . S
O319 Cd320 2.300 . S
O319 C326 1.275 . S
Cd320 O319 2.300 . S
Cd320 O328 2.381 . S
Cd320 O329 2.378 . S
O321 Cd322 2.385 . S
O321 C326 1.255 . S
Cd322 O321 2.385 . S
Cd322 O323 2.317 . S
O323 Cd322 2.317 . S
O323 C324 1.232 . S
C324 O323 1.232 . S
C324 O325 1.218 . S
O325 C324 1.218 . S
C326 O319 1.275 . S
C326 O321 1.255 . S
C327 O328 1.258 . S
C327 O329 1.256 . S
O328 Cd320 2.381 . S
O328 C327 1.258 . S
O329 Cd320 2.378 . S
O329 C327 1.256 . S
O330 Cd331 2.300 . S
O330 C337 1.275 . S
Cd331 O330 2.300 . S
Cd331 O339 2.381 . S
Cd331 O340 2.378 . S
O332 Cd333 2.385 . S
O332 C337 1.255 . S
Cd333 O332 2.385 . S
Cd333 O334 2.317 . S
O334 Cd333 2.317 . S
O334 C335 1.232 . S
C335 O334 1.232 . S
C335 O336 1.218 . S
O336 C335 1.218 . S
C337 O330 1.275 . S
C337 O332 1.255 . S
C338 O339 1.258 . S
C338 O340 1.256 . S
O339 Cd331 2.381 . S
O339 C338 1.258 . S
O340 Cd331 2.378 . S
O340 C338 1.256 . S
O341 Cd342 2.300 . S
O341 C348 1.275 . S
Cd342 O341 2.300 . S
Cd342 O350 2.381 . S
Cd342 O351 2.378 . S
O343 Cd344 2.385 . S
O343 C348 1.255 . S
Cd344 O343 2.385 . S
Cd344 O345 2.317 . S
O345 Cd344 2.317 . S
O345 C346 1.232 . S
C346 O345 1.232 . S
C346 O347 1.218 . S
O347 C346 1.218 . S
C348 O341 1.275 . S
C348 O343 1.255 . S
C349 O350 1.258 . S
C349 O351 1.256 . S
O350 Cd342 2.381 . S
O350 C349 1.258 . S
O351 Cd342 2.378 . S
O351 C349 1.256 . S
H352 C360 0.929 . S
H353 C362 0.930 1_554 S
H354 C364 0.930 . S
H355 C367 0.929 . S
H356 C370 0.930 . S
H357 C372 0.960 1_554 S
H358 C372 0.960 1_554 S
H359 C372 0.960 . S
C360 H352 0.929 . S
C360 C361 1.377 . S
C360 C362 1.384 . S
C361 C360 1.377 . S
C361 C367 1.390 . S
C362 H353 0.930 1_556 S
C362 C360 1.384 . S
C362 C363 1.372 . S
C363 C362 1.372 . S
C363 C364 1.400 . S
C363 C368 1.490 . S
C364 H354 0.930 . S
C364 C363 1.400 . S
C364 C367 1.386 . S
H365 C381 0.930 . S
H366 C382 0.931 1_556 S
C367 H355 0.929 . S
C367 C361 1.390 . S
C367 C364 1.386 . S
C368 C363 1.490 . S
C368 C370 1.395 . S
C368 C371 1.425 . S
H369 C375 0.930 . S
C370 H356 0.930 . S
C370 C368 1.395 . S
C370 C373 1.403 1_556 S
C371 C368 1.425 . S
C371 C372 1.528 . S
C371 C375 1.375 1_556 S
C372 H357 0.960 1_556 S
C372 H358 0.960 1_556 S
C372 H359 0.960 . S
C372 C371 1.528 . S
C373 C370 1.403 1_554 S
C373 C374 1.392 . S
C373 C377 1.495 . S
C374 C373 1.392 . S
C374 C375 1.385 . S
C374 C376 1.478 . S
C375 H369 0.930 . S
C375 C371 1.375 1_554 S
C375 C374 1.385 . S
C376 C374 1.478 . S
C376 C378 1.381 . S
C376 C382 1.383 . S
C377 C373 1.495 . S
C377 H383 0.954 1_554 S
C377 H384 0.961 1_554 S
C377 H385 0.960 . S
C378 C376 1.381 . S
C378 C379 1.394 . S
C378 H386 0.930 . S
C379 C378 1.394 . S
C379 C380 1.383 . S
C379 H387 0.929 . S
C380 C379 1.383 . S
C380 C381 1.377 . S
C381 H365 0.930 . S
C381 C380 1.377 . S
C381 C382 1.379 . S
C382 H366 0.931 1_554 S
C382 C376 1.383 . S
C382 C381 1.379 . S
H383 C377 0.954 1_556 S
H384 C377 0.961 1_556 S
H385 C377 0.960 . S
H386 C378 0.930 . S
H387 C379 0.929 . S
H388 C396 0.929 . S
H389 C398 0.930 . S
H390 C400 0.930 . S
H391 C403 0.929 . S
H392 C406 0.930 . S
H393 C408 0.960 . S
H394 C408 0.960 . S
H395 C408 0.960 . S
C396 H388 0.929 . S
C396 C397 1.377 . S
C396 C398 1.384 . S
C397 C396 1.377 . S
C397 C403 1.390 . S
C398 H389 0.930 . S
C398 C396 1.384 . S
C398 C399 1.372 . S
C399 C398 1.372 . S
C399 C400 1.400 . S
C399 C404 1.490 . S
C400 H390 0.930 . S
C400 C399 1.400 . S
C400 C403 1.386 . S
H401 C417 0.930 . S
H402 C418 0.931 . S
C403 H391 0.929 . S
C403 C397 1.390 . S
C403 C400 1.386 . S
C404 C399 1.490 . S
C404 C406 1.395 . S
C404 C407 1.403 . S
H405 C411 0.930 . S
C406 H392 0.930 . S
C406 C404 1.395 . S
C406 C409 1.403 . S
C407 C404 1.403 . S
C407 C408 1.524 . S
C407 C411 1.400 . S
C408 H393 0.960 . S
C408 H394 0.960 . S
C408 H395 0.960 . S
C408 C407 1.524 . S
C409 C406 1.403 . S
C409 C410 1.392 . S
C409 C413 1.495 . S
C410 C409 1.392 . S
C410 C411 1.385 . S
C410 C412 1.478 . S
C411 H405 0.930 . S
C411 C407 1.400 . S
C411 C410 1.385 . S
C412 C410 1.478 . S
C412 C414 1.381 . S
C412 C418 1.383 . S
C413 C409 1.495 . S
C413 H419 0.959 . S
C413 H420 0.961 . S
C413 H421 0.960 . S
C414 C412 1.381 . S
C414 C415 1.394 . S
C414 H422 0.930 . S
C415 C414 1.394 . S
C415 C416 1.383 . S
C415 H423 0.929 . S
C416 C415 1.383 . S
C416 C417 1.377 . S
C417 H401 0.930 . S
C417 C416 1.377 . S
C417 C418 1.379 . S
C418 H402 0.931 . S
C418 C412 1.383 . S
C418 C417 1.379 . S
H419 C413 0.959 . S
H420 C413 0.961 . S
H421 C413 0.960 . S
H422 C414 0.930 . S
H423 C415 0.929 . S
H424 C432 0.929 . S
H425 C434 0.930 . S
H426 C436 0.930 . S
H427 C439 0.929 . S
H428 C442 0.930 . S
H429 C444 0.960 . S
H430 C444 0.960 . S
H431 C444 0.960 . S
C432 H424 0.929 . S
C432 C433 1.377 . S
C432 C434 1.384 . S
C433 C432 1.377 . S
C433 C439 1.390 . S
C434 H425 0.930 . S
C434 C432 1.384 . S
C434 C435 1.372 . S
C435 C434 1.372 . S
C435 C436 1.400 . S
C435 C440 1.490 . S
C436 H426 0.930 . S
C436 C435 1.400 . S
C436 C439 1.386 . S
H437 C453 0.930 . S
H438 C454 0.931 . S
C439 H427 0.929 . S
C439 C433 1.390 . S
C439 C436 1.386 . S
C440 C435 1.490 . S
C440 C442 1.395 . S
C440 C443 1.403 . S
H441 C447 0.930 . S
C442 H428 0.930 . S
C442 C440 1.395 . S
C442 C445 1.403 . S
C443 C440 1.403 . S
C443 C444 1.524 . S
C443 C447 1.400 . S
C444 H429 0.960 . S
C444 H430 0.960 . S
C444 H431 0.960 . S
C444 C443 1.524 . S
C445 C442 1.403 . S
C445 C446 1.392 . S
C445 C449 1.495 . S
C446 C445 1.392 . S
C446 C447 1.385 . S
C446 C448 1.478 . S
C447 H441 0.930 . S
C447 C443 1.400 . S
C447 C446 1.385 . S
C448 C446 1.478 . S
C448 C450 1.381 . S
C448 C454 1.383 . S
C449 C445 1.495 . S
C449 H455 0.959 . S
C449 H456 0.961 . S
C449 H457 0.960 . S
C450 C448 1.381 . S
C450 C451 1.394 . S
C450 H458 0.930 . S
C451 C450 1.394 . S
C451 C452 1.383 . S
C451 H459 0.929 . S
C452 C451 1.383 . S
C452 C453 1.377 . S
C453 H437 0.930 . S
C453 C452 1.377 . S
C453 C454 1.379 . S
C454 H438 0.931 . S
C454 C448 1.383 . S
C454 C453 1.379 . S
H455 C449 0.959 . S
H456 C449 0.961 . S
H457 C449 0.960 . S
H458 C450 0.930 . S
H459 C451 0.929 . S
H460 C468 0.929 . S
H461 C470 0.930 . S
H462 C472 0.930 . S
H463 C475 0.929 . S
H464 C478 0.930 . S
H465 C480 0.960 . S
H466 C480 0.960 . S
H467 C480 0.960 . S
C468 H460 0.929 . S
C468 C469 1.377 . S
C468 C470 1.384 . S
C469 C468 1.377 . S
C469 C475 1.390 . S
C470 H461 0.930 . S
C470 C468 1.384 . S
C470 C471 1.372 . S
C471 C470 1.372 . S
C471 C472 1.400 . S
C471 C476 1.490 . S
C472 H462 0.930 . S
C472 C471 1.400 . S
C472 C475 1.386 . S
H473 C489 0.930 . S
H474 C490 0.931 . S
C475 H463 0.929 . S
C475 C469 1.390 . S
C475 C472 1.386 . S
C476 C471 1.490 . S
C476 C478 1.395 . S
C476 C479 1.403 . S
H477 C483 0.930 . S
C478 H464 0.930 . S
C478 C476 1.395 . S
C478 C481 1.403 . S
C479 C476 1.403 . S
C479 C480 1.524 . S
C479 C483 1.400 . S
C480 H465 0.960 . S
C480 H466 0.960 . S
C480 H467 0.960 . S
C480 C479 1.524 . S
C481 C478 1.403 . S
C481 C482 1.392 . S
C481 C485 1.495 . S
C482 C481 1.392 . S
C482 C483 1.385 . S
C482 C484 1.478 . S
C483 H477 0.930 . S
C483 C479 1.400 . S
C483 C482 1.385 . S
C484 C482 1.478 . S
C484 C486 1.381 . S
C484 C490 1.383 . S
C485 C481 1.495 . S
C485 H491 0.959 . S
C485 H492 0.961 . S
C485 H493 0.960 . S
C486 C484 1.381 . S
C486 C487 1.394 . S
C486 H494 0.930 . S
C487 C486 1.394 . S
C487 C488 1.383 . S
C487 H495 0.929 . S
C488 C487 1.383 . S
C488 C489 1.377 . S
C489 H473 0.930 . S
C489 C488 1.377 . S
C489 C490 1.379 . S
C490 H474 0.931 . S
C490 C484 1.383 . S
C490 C489 1.379 . S
H491 C485 0.959 . S
H492 C485 0.961 . S
H493 C485 0.960 . S
H494 C486 0.930 . S
H495 C487 0.929 . S
H496 C504 0.929 . S
H497 C506 0.930 1_556 S
H498 C508 0.930 . S
H499 C511 0.929 . S
H500 C514 0.930 . S
H501 C516 0.960 . S
H502 C516 0.960 . S
H503 C516 0.960 . S
C504 H496 0.929 . S
C504 C505 1.377 . S
C504 C506 1.384 . S
C505 C504 1.377 . S
C505 C511 1.390 . S
C506 H497 0.930 1_554 S
C506 C504 1.384 . S
C506 C507 1.372 . S
C507 C506 1.372 . S
C507 C508 1.400 . S
C507 C512 1.490 . S
C508 H498 0.930 . S
C508 C507 1.400 . S
C508 C511 1.386 . S
H509 C525 0.930 . S
H510 C526 0.931 1_554 S
C511 H499 0.929 . S
C511 C505 1.390 . S
C511 C508 1.386 . S
C512 C507 1.490 . S
C512 C514 1.395 1_554 S
C512 C515 1.403 . S
H513 C519 0.943 . S
C514 H500 0.930 . S
C514 C512 1.395 1_556 S
C514 C517 1.403 . S
C515 C512 1.403 . S
C515 C516 1.524 . S
C515 C519 1.429 . S
C516 H501 0.960 . S
C516 H502 0.960 . S
C516 H503 0.960 . S
C516 C515 1.524 . S
C517 C514 1.403 . S
C517 C518 1.392 . S
C517 C521 1.495 . S
C518 C517 1.392 . S
C518 C519 1.348 1_556 S
C518 C520 1.478 . S
C519 H513 0.943 . S
C519 C515 1.429 . S
C519 C518 1.348 1_554 S
C520 C518 1.478 . S
C520 C522 1.381 . S
C520 C526 1.383 . S
C521 C517 1.495 . S
C521 H527 0.959 . S
C521 H528 0.961 . S
C521 H529 0.960 . S
C522 C520 1.381 . S
C522 C523 1.394 . S
C522 H530 0.930 . S
C523 C522 1.394 . S
C523 C524 1.383 . S
C523 H531 0.929 . S
C524 C523 1.383 . S
C524 C525 1.377 . S
C525 H509 0.930 . S
C525 C524 1.377 . S
C525 C526 1.379 . S
C526 H510 0.931 1_556 S
C526 C520 1.383 . S
C526 C525 1.379 . S
H527 C521 0.959 . S
H528 C521 0.961 . S
H529 C521 0.960 . S
H530 C522 0.930 . S
H531 C523 0.929 . S
H532 C540 0.929 . S
H533 C542 0.930 . S
H534 C544 0.930 . S
H535 C547 0.929 . S
H536 C550 0.930 . S
H537 C552 0.960 . S
H538 C552 0.960 . S
H539 C552 0.960 . S
C540 H532 0.929 . S
C540 C541 1.377 . S
C540 C542 1.384 . S
C541 C540 1.377 . S
C541 C547 1.390 . S
C542 H533 0.930 . S
C542 C540 1.384 . S
C542 C543 1.372 . S
C543 C542 1.372 . S
C543 C544 1.400 . S
C543 C548 1.490 . S
C544 H534 0.930 . S
C544 C543 1.400 . S
C544 C547 1.386 . S
H545 C561 0.930 . S
H546 C562 0.931 . S
C547 H535 0.929 . S
C547 C541 1.390 . S
C547 C544 1.386 . S
C548 C543 1.490 . S
C548 C550 1.395 . S
C548 C551 1.403 . S
H549 C555 0.930 . S
C550 H536 0.930 . S
C550 C548 1.395 . S
C550 C553 1.403 . S
C551 C548 1.403 . S
C551 C552 1.524 . S
C551 C555 1.400 . S
C552 H537 0.960 . S
C552 H538 0.960 . S
C552 H539 0.960 . S
C552 C551 1.524 . S
C553 C550 1.403 . S
C553 C554 1.392 . S
C553 C557 1.495 . S
C554 C553 1.392 . S
C554 C555 1.385 . S
C554 C556 1.478 . S
C555 H549 0.930 . S
C555 C551 1.400 . S
C555 C554 1.385 . S
C556 C554 1.478 . S
C556 C558 1.381 . S
C556 C562 1.383 . S
C557 C553 1.495 . S
C557 H563 0.959 . S
C557 H564 0.961 . S
C557 H565 0.960 . S
C558 C556 1.381 . S
C558 C559 1.394 . S
C558 H566 0.930 . S
C559 C558 1.394 . S
C559 C560 1.383 . S
C559 H567 0.929 . S
C560 C559 1.383 . S
C560 C561 1.377 . S
C561 H545 0.930 . S
C561 C560 1.377 . S
C561 C562 1.379 . S
C562 H546 0.931 . S
C562 C556 1.383 . S
C562 C561 1.379 . S
H563 C557 0.959 . S
H564 C557 0.961 . S
H565 C557 0.960 . S
H566 C558 0.930 . S
H567 C559 0.929 . S
H568 C576 0.929 . S
H569 C578 0.930 . S
H570 C580 0.930 . S
H571 C583 0.929 . S
H572 C586 0.930 . S
H573 C588 0.960 . S
H574 C588 0.960 . S
H575 C588 0.960 . S
C576 H568 0.929 . S
C576 C577 1.377 . S
C576 C578 1.384 . S
C577 C576 1.377 . S
C577 C583 1.390 . S
C578 H569 0.930 . S
C578 C576 1.384 . S
C578 C579 1.372 . S
C579 C578 1.372 . S
C579 C580 1.400 . S
C579 C584 1.490 . S
C580 H570 0.930 . S
C580 C579 1.400 . S
C580 C583 1.386 . S
H581 C597 0.930 . S
H582 C598 0.931 . S
C583 H571 0.929 . S
C583 C577 1.390 . S
C583 C580 1.386 . S
C584 C579 1.490 . S
C584 C586 1.395 . S
C584 C587 1.403 . S
H585 C591 0.930 . S
C586 H572 0.930 . S
C586 C584 1.395 . S
C586 C589 1.403 . S
C587 C584 1.403 . S
C587 C588 1.524 . S
C587 C591 1.400 . S
C588 H573 0.960 . S
C588 H574 0.960 . S
C588 H575 0.960 . S
C588 C587 1.524 . S
C589 C586 1.403 . S
C589 C590 1.392 . S
C589 C593 1.495 . S
C590 C589 1.392 . S
C590 C591 1.385 . S
C590 C592 1.478 . S
C591 H585 0.930 . S
C591 C587 1.400 . S
C591 C590 1.385 . S
C592 C590 1.478 . S
C592 C594 1.381 . S
C592 C598 1.383 . S
C593 C589 1.495 . S
C593 H599 0.959 . S
C593 H600 0.961 . S
C593 H601 0.960 . S
C594 C592 1.381 . S
C594 C595 1.394 . S
C594 H602 0.930 . S
C595 C594 1.394 . S
C595 C596 1.383 . S
C595 H603 0.929 . S
C596 C595 1.383 . S
C596 C597 1.377 . S
C597 H581 0.930 . S
C597 C596 1.377 . S
C597 C598 1.379 . S
C598 H582 0.931 . S
C598 C592 1.383 . S
C598 C597 1.379 . S
H599 C593 0.959 . S
H600 C593 0.961 . S
H601 C593 0.960 . S
H602 C594 0.930 . S
H603 C595 0.929 . S
H604 C612 0.929 . S
H605 C614 0.930 . S
H606 C616 0.930 . S
H607 C619 0.929 . S
H608 C622 0.930 . S
H609 C624 0.960 . S
H610 C624 0.960 . S
H611 C624 0.960 . S
C612 H604 0.929 . S
C612 C613 1.377 . S
C612 C614 1.384 . S
C613 C612 1.377 . S
C613 C619 1.390 . S
C614 H605 0.930 . S
C614 C612 1.384 . S
C614 C615 1.372 . S
C615 C614 1.372 . S
C615 C616 1.400 . S
C615 C620 1.490 . S
C616 H606 0.930 . S
C616 C615 1.400 . S
C616 C619 1.386 . S
H617 C633 0.930 . S
H618 C634 0.931 . S
C619 H607 0.929 . S
C619 C613 1.390 . S
C619 C616 1.386 . S
C620 C615 1.490 . S
C620 C622 1.395 . S
C620 C623 1.403 . S
H621 C627 0.930 . S
C622 H608 0.930 . S
C622 C620 1.395 . S
C622 C625 1.403 . S
C623 C620 1.403 . S
C623 C624 1.524 . S
C623 C627 1.400 . S
C624 H609 0.960 . S
C624 H610 0.960 . S
C624 H611 0.960 . S
C624 C623 1.524 . S
C625 C622 1.403 . S
C625 C626 1.392 . S
C625 C629 1.495 . S
C626 C625 1.392 . S
C626 C627 1.385 . S
C626 C628 1.478 . S
C627 H621 0.930 . S
C627 C623 1.400 . S
C627 C626 1.385 . S
C628 C626 1.478 . S
C628 C630 1.381 . S
C628 C634 1.383 . S
C629 C625 1.495 . S
C629 H635 0.959 . S
C629 H636 0.961 . S
C629 H637 0.960 . S
C630 C628 1.381 . S
C630 C631 1.394 . S
C630 H638 0.930 . S
C631 C630 1.394 . S
C631 C632 1.383 . S
C631 H639 0.929 . S
C632 C631 1.383 . S
C632 C633 1.377 . S
C633 H617 0.930 . S
C633 C632 1.377 . S
C633 C634 1.379 . S
C634 H618 0.931 . S
C634 C628 1.383 . S
C634 C633 1.379 . S
H635 C629 0.959 . S
H636 C629 0.961 . S
H637 C629 0.960 . S
H638 C630 0.930 . S
H639 C631 0.929 . S
H640 C648 0.929 . S
H641 C650 0.930 . S
H642 C652 0.930 . S
H643 C655 0.929 . S
H644 C658 0.930 . S
H645 C660 0.960 1_565 S
H646 C660 0.960 . S
H647 C660 0.960 . S
C648 H640 0.929 . S
C648 C649 1.377 . S
C648 C650 1.384 . S
C649 C648 1.377 . S
C649 C655 1.390 . S
C650 H641 0.930 . S
C650 C648 1.384 . S
C650 C651 1.372 . S
C651 C650 1.372 . S
C651 C652 1.400 . S
C651 C656 1.490 . S
C652 H642 0.930 . S
C652 C651 1.400 . S
C652 C655 1.386 . S
H653 C669 0.930 . S
H654 C670 0.931 . S
C655 H643 0.929 . S
C655 C649 1.390 . S
C655 C652 1.386 . S
C656 C651 1.490 . S
C656 C658 1.395 . S
C656 C659 1.403 . S
H657 C663 0.930 . S
C658 H644 0.930 . S
C658 C656 1.395 . S
C658 C661 1.403 1_545 S
C659 C656 1.403 . S
C659 C660 1.524 . S
C659 C663 1.400 1_545 S
C660 H645 0.960 1_545 S
C660 H646 0.960 . S
C660 H647 0.960 . S
C660 C659 1.524 . S
C661 C658 1.403 1_565 S
C661 C662 1.392 . S
C661 C665 1.495 . S
C662 C661 1.392 . S
C662 C663 1.385 . S
C662 C664 1.478 . S
C663 H657 0.930 . S
C663 C659 1.400 1_565 S
C663 C662 1.385 . S
C664 C662 1.478 . S
C664 C666 1.381 . S
C664 C670 1.383 . S
C665 C661 1.495 . S
C665 H671 0.959 1_565 S
C665 H672 0.961 . S
C665 H673 0.960 . S
C666 C664 1.381 . S
C666 C667 1.394 . S
C666 H674 0.930 . S
C667 C666 1.394 . S
C667 C668 1.383 . S
C667 H675 0.929 . S
C668 C667 1.383 . S
C668 C669 1.377 . S
C669 H653 0.930 . S
C669 C668 1.377 . S
C669 C670 1.379 . S
C670 H654 0.931 . S
C670 C664 1.383 . S
C670 C669 1.379 . S
H671 C665 0.959 1_545 S
H672 C665 0.961 . S
H673 C665 0.960 . S
H674 C666 0.930 . S
H675 C667 0.929 . S
H676 C684 0.929 . S
H677 C686 0.930 . S
H678 C688 0.930 . S
H679 C691 0.929 . S
H680 C694 0.930 . S
H681 C696 0.960 . S
H682 C696 0.960 . S
H683 C696 0.960 . S
C684 H676 0.929 . S
C684 C685 1.377 . S
C684 C686 1.384 . S
C685 C684 1.377 . S
C685 C691 1.390 . S
C686 H677 0.930 . S
C686 C684 1.384 . S
C686 C687 1.372 . S
C687 C686 1.372 . S
C687 C688 1.400 . S
C687 C692 1.490 . S
C688 H678 0.930 . S
C688 C687 1.400 . S
C688 C691 1.386 . S
H689 C705 0.930 . S
H690 C706 0.931 . S
C691 H679 0.929 . S
C691 C685 1.390 . S
C691 C688 1.386 . S
C692 C687 1.490 . S
C692 C694 1.395 . S
C692 C695 1.403 . S
H693 C699 0.930 . S
C694 H680 0.930 . S
C694 C692 1.395 . S
C694 C697 1.403 . S
C695 C692 1.403 . S
C695 C696 1.524 . S
C695 C699 1.400 . S
C696 H681 0.960 . S
C696 H682 0.960 . S
C696 H683 0.960 . S
C696 C695 1.524 . S
C697 C694 1.403 . S
C697 C698 1.392 . S
C697 C701 1.495 . S
C698 C697 1.392 . S
C698 C699 1.385 . S
C698 C700 1.478 . S
C699 H693 0.930 . S
C699 C695 1.400 . S
C699 C698 1.385 . S
C700 C698 1.478 . S
C700 C702 1.381 . S
C700 C706 1.383 . S
C701 C697 1.495 . S
C701 H707 0.959 . S
C701 H708 0.961 . S
C701 H709 0.960 . S
C702 C700 1.381 . S
C702 C703 1.394 . S
C702 H710 0.930 . S
C703 C702 1.394 . S
C703 C704 1.383 . S
C703 H711 0.929 . S
C704 C703 1.383 . S
C704 C705 1.377 . S
C705 H689 0.930 . S
C705 C704 1.377 . S
C705 C706 1.379 . S
C706 H690 0.931 . S
C706 C700 1.383 . S
C706 C705 1.379 . S
H707 C701 0.959 . S
H708 C701 0.961 . S
H709 C701 0.960 . S
H710 C702 0.930 . S
H711 C703 0.929 . S
H712 C720 0.929 . S
H713 C722 0.930 1_556 S
H714 C724 0.930 . S
H715 C727 0.929 . S
H716 C730 0.930 . S
H717 C732 0.960 1_545 S
H718 C732 0.960 . S
H719 C732 0.960 . S
C720 H712 0.929 . S
C720 C721 1.377 . S
C720 C722 1.384 . S
C721 C720 1.377 . S
C721 C727 1.390 . S
C722 H713 0.930 1_554 S
C722 C720 1.384 . S
C722 C723 1.372 . S
C723 C722 1.372 . S
C723 C724 1.400 . S
C723 C728 1.490 . S
C724 H714 0.930 . S
C724 C723 1.400 . S
C724 C727 1.386 . S
H725 C741 0.930 . S
H726 C742 0.931 1_554 S
C727 H715 0.929 . S
C727 C721 1.390 . S
C727 C724 1.386 . S
C728 C723 1.490 . S
C728 C730 1.395 1_554 S
C728 C731 1.403 . S
H729 C735 0.930 . S
C730 H716 0.930 . S
C730 C728 1.395 1_556 S
C730 C733 1.403 1_565 S
C731 C728 1.403 . S
C731 C732 1.524 . S
C731 C735 1.400 1_565 S
C732 H717 0.960 1_565 S
C732 H718 0.960 . S
C732 H719 0.960 . S
C732 C731 1.524 . S
C733 C730 1.403 1_545 S
C733 C734 1.392 . S
C733 C737 1.495 . S
C734 C733 1.392 . S
C734 C735 1.385 1_556 S
C734 C736 1.478 . S
C735 H729 0.930 . S
C735 C731 1.400 1_545 S
C735 C734 1.385 1_554 S
C736 C734 1.478 . S
C736 C738 1.381 . S
C736 C742 1.383 . S
C737 C733 1.495 . S
C737 H743 0.959 1_545 S
C737 H744 0.961 . S
C737 H745 0.960 . S
C738 C736 1.381 . S
C738 C739 1.394 . S
C738 H746 0.930 . S
C739 C738 1.394 . S
C739 C740 1.383 . S
C739 H747 0.929 . S
C740 C739 1.383 . S
C740 C741 1.377 . S
C741 H725 0.930 . S
C741 C740 1.377 . S
C741 C742 1.379 . S
C742 H726 0.931 1_556 S
C742 C736 1.383 . S
C742 C741 1.379 . S
H743 C737 0.959 1_565 S
H744 C737 0.961 . S
H745 C737 0.960 . S
H746 C738 0.930 . S
H747 C739 0.929 . S
H748 C756 0.929 . S
H749 C758 0.930 . S
H750 C760 0.930 . S
H751 C763 0.929 . S
H752 C766 0.930 . S
H753 C768 0.960 . S
H754 C768 0.960 . S
H755 C768 0.960 . S
C756 H748 0.929 . S
C756 C757 1.377 . S
C756 C758 1.384 . S
C757 C756 1.377 . S
C757 C763 1.390 . S
C758 H749 0.930 . S
C758 C756 1.384 . S
C758 C759 1.372 . S
C759 C758 1.372 . S
C759 C760 1.400 . S
C759 C764 1.490 . S
C760 H750 0.930 . S
C760 C759 1.400 . S
C760 C763 1.386 . S
H761 C777 0.930 . S
H762 C778 0.931 . S
C763 H751 0.929 . S
C763 C757 1.390 . S
C763 C760 1.386 . S
C764 C759 1.490 . S
C764 C766 1.395 . S
C764 C767 1.403 . S
H765 C771 0.930 . S
C766 H752 0.930 . S
C766 C764 1.395 . S
C766 C769 1.403 . S
C767 C764 1.403 . S
C767 C768 1.524 . S
C767 C771 1.400 . S
C768 H753 0.960 . S
C768 H754 0.960 . S
C768 H755 0.960 . S
C768 C767 1.524 . S
C769 C766 1.403 . S
C769 C770 1.392 . S
C769 C773 1.495 . S
C770 C769 1.392 . S
C770 C771 1.385 . S
C770 C772 1.478 . S
C771 H765 0.930 . S
C771 C767 1.400 . S
C771 C770 1.385 . S
C772 C770 1.478 . S
C772 C774 1.381 . S
C772 C778 1.383 . S
C773 C769 1.495 . S
C773 H779 0.959 . S
C773 H780 0.961 . S
C773 H781 0.960 . S
C774 C772 1.381 . S
C774 C775 1.394 . S
C774 H782 0.930 . S
C775 C774 1.394 . S
C775 C776 1.383 . S
C775 H783 0.929 . S
C776 C775 1.383 . S
C776 C777 1.377 . S
C777 H761 0.930 . S
C777 C776 1.377 . S
C777 C778 1.379 . S
C778 H762 0.931 . S
C778 C772 1.383 . S
C778 C777 1.379 . S
H779 C773 0.959 . S
H780 C773 0.961 . S
H781 C773 0.960 . S
H782 C774 0.930 . S
H783 C775 0.929 . S
H784 C792 0.929 . S
H785 C794 0.930 . S
H786 C796 0.930 . S
H787 C799 0.929 . S
H788 C802 0.930 . S
H789 C804 0.960 1_545 S
H790 C804 0.960 . S
H791 C804 0.960 . S
C792 H784 0.929 . S
C792 C793 1.377 . S
C792 C794 1.384 . S
C793 C792 1.377 . S
C793 C799 1.390 . S
C794 H785 0.930 . S
C794 C792 1.384 . S
C794 C795 1.372 . S
C795 C794 1.372 . S
C795 C796 1.400 . S
C795 C800 1.490 . S
C796 H786 0.930 . S
C796 C795 1.400 . S
C796 C799 1.386 . S
H797 C813 0.930 . S
H798 C814 0.931 . S
C799 H787 0.929 . S
C799 C793 1.390 . S
C799 C796 1.386 . S
C800 C795 1.490 . S
C800 C802 1.395 . S
C800 C803 1.403 . S
H801 C807 0.930 . S
C802 H788 0.930 . S
C802 C800 1.395 . S
C802 C805 1.403 1_565 S
C803 C800 1.403 . S
C803 C804 1.524 . S
C803 C807 1.400 1_565 S
C804 H789 0.960 1_565 S
C804 H790 0.960 . S
C804 H791 0.960 . S
C804 C803 1.524 . S
C805 C802 1.403 1_545 S
C805 C806 1.392 . S
C805 C809 1.495 . S
C806 C805 1.392 . S
C806 C807 1.385 . S
C806 C808 1.478 . S
C807 H801 0.930 . S
C807 C803 1.400 1_545 S
C807 C806 1.385 . S
C808 C806 1.478 . S
C808 C810 1.381 . S
C808 C814 1.383 . S
C809 C805 1.495 . S
C809 H815 0.959 1_545 S
C809 H816 0.961 . S
C809 H817 0.960 . S
C810 C808 1.381 . S
C810 C811 1.394 . S
C810 H818 0.930 . S
C811 C810 1.394 . S
C811 C812 1.383 . S
C811 H819 0.929 . S
C812 C811 1.383 . S
C812 C813 1.377 . S
C813 H797 0.930 . S
C813 C812 1.377 . S
C813 C814 1.379 . S
C814 H798 0.931 . S
C814 C808 1.383 . S
C814 C813 1.379 . S
H815 C809 0.959 1_565 S
H816 C809 0.961 . S
H817 C809 0.960 . S
H818 C810 0.930 . S
H819 C811 0.929 . S
H820 C828 0.929 . S
H821 C830 0.930 . S
H822 C832 0.930 . S
H823 C835 0.929 . S
H824 C838 0.930 . S
H825 C840 0.960 . S
H826 C840 0.960 . S
H827 C840 0.960 . S
C828 H820 0.929 . S
C828 C829 1.377 . S
C828 C830 1.384 . S
C829 C828 1.377 . S
C829 C835 1.390 . S
C830 H821 0.930 . S
C830 C828 1.384 . S
C830 C831 1.372 . S
C831 C830 1.372 . S
C831 C832 1.400 . S
C831 C836 1.490 . S
C832 H822 0.930 . S
C832 C831 1.400 . S
C832 C835 1.386 . S
H833 C849 0.930 . S
H834 C850 0.931 . S
C835 H823 0.929 . S
C835 C829 1.390 . S
C835 C832 1.386 . S
C836 C831 1.490 . S
C836 C838 1.395 . S
C836 C839 1.403 . S
H837 C843 0.930 . S
C838 H824 0.930 . S
C838 C836 1.395 . S
C838 C841 1.403 . S
C839 C836 1.403 . S
C839 C840 1.524 . S
C839 C843 1.400 . S
C840 H825 0.960 . S
C840 H826 0.960 . S
C840 H827 0.960 . S
C840 C839 1.524 . S
C841 C838 1.403 . S
C841 C842 1.392 . S
C841 C845 1.495 . S
C842 C841 1.392 . S
C842 C843 1.385 . S
C842 C844 1.478 . S
C843 H837 0.930 . S
C843 C839 1.400 . S
C843 C842 1.385 . S
C844 C842 1.478 . S
C844 C846 1.381 . S
C844 C850 1.383 . S
C845 C841 1.495 . S
C845 H851 0.959 . S
C845 H852 0.961 . S
C845 H853 0.960 . S
C846 C844 1.381 . S
C846 C847 1.394 . S
C846 H854 0.930 . S
C847 C846 1.394 . S
C847 C848 1.383 . S
C847 H855 0.929 . S
C848 C847 1.383 . S
C848 C849 1.377 . S
C849 H833 0.930 . S
C849 C848 1.377 . S
C849 C850 1.379 . S
C850 H834 0.931 . S
C850 C844 1.383 . S
C850 C849 1.379 . S
H851 C845 0.959 . S
H852 C845 0.961 . S
H853 C845 0.960 . S
H854 C846 0.930 . S
H855 C847 0.929 . S
H856 C864 0.929 . S
H857 C866 0.930 . S
H858 C868 0.991 . S
H859 C871 0.929 . S
H860 C874 0.930 . S
H861 C876 0.960 . S
H862 C876 0.960 . S
H863 C876 0.960 . S
C864 H856 0.929 . S
C864 C865 1.377 . S
C864 C866 1.384 . S
C865 C864 1.377 . S
C865 C871 1.390 . S
C866 H857 0.930 . S
C866 C864 1.384 . S
C866 C867 1.372 . S
C867 C866 1.372 . S
C867 C868 1.400 . S
C867 C872 1.490 . S
C868 H858 0.991 . S
C868 C867 1.400 . S
C868 C871 1.386 . S
H869 C885 0.930 . S
H870 C886 0.931 . S
C871 H859 0.929 . S
C871 C865 1.390 . S
C871 C868 1.386 . S
C872 C867 1.490 . S
C872 C874 1.395 . S
C872 C875 1.403 1_556 S
H873 C879 0.930 . S
C874 H860 0.930 . S
C874 C872 1.395 . S
C874 C877 1.403 1_545 S
C875 C872 1.403 1_554 S
C875 C876 1.524 . S
C875 C879 1.400 1_545 S
C876 H861 0.960 . S
C876 H862 0.960 . S
C876 H863 0.960 . S
C876 C875 1.524 . S
C877 C874 1.403 1_565 S
C877 C878 1.392 1_556 S
C877 C881 1.495 . S
C878 C877 1.392 1_554 S
C878 C879 1.385 . S
C878 C880 1.478 . S
C879 H873 0.930 . S
C879 C875 1.400 1_565 S
C879 C878 1.385 . S
C880 C878 1.478 . S
C880 C882 1.381 . S
C880 C886 1.383 . S
C881 C877 1.495 . S
C881 H887 0.959 . S
C881 H888 0.961 . S
C881 H889 0.960 . S
C882 C880 1.381 . S
C882 C883 1.394 . S
C882 H890 0.961 . S
C883 C882 1.394 . S
C883 C884 1.383 . S
C883 H891 0.929 . S
C884 C883 1.383 . S
C884 C885 1.377 . S
C885 H869 0.930 . S
C885 C884 1.377 . S
C885 C886 1.379 . S
C886 H870 0.931 . S
C886 C880 1.383 . S
C886 C885 1.379 . S
H887 C881 0.959 . S
H888 C881 0.961 . S
H889 C881 0.960 . S
H890 C882 0.961 . S
H891 C883 0.929 . S
H892 C900 0.929 . S
H893 C902 0.930 . S
H894 C904 0.930 . S
H895 C907 0.929 . S
H896 C910 0.930 . S
H897 C912 0.960 . S
H898 C912 0.960 . S
H899 C912 0.960 . S
C900 H892 0.929 . S
C900 C901 1.377 . S
C900 C902 1.384 . S
C901 C900 1.377 . S
C901 C907 1.390 . S
C902 H893 0.930 . S
C902 C900 1.384 . S
C902 C903 1.372 . S
C903 C902 1.372 . S
C903 C904 1.400 . S
C903 C908 1.490 . S
C904 H894 0.930 . S
C904 C903 1.400 . S
C904 C907 1.386 . S
H905 C921 0.930 . S
H906 C922 0.931 . S
C907 H895 0.929 . S
C907 C901 1.390 . S
C907 C904 1.386 . S
C908 C903 1.490 . S
C908 C910 1.395 . S
C908 C911 1.403 . S
H909 C915 0.930 . S
C910 H896 0.930 . S
C910 C908 1.395 . S
C910 C913 1.403 . S
C911 C908 1.403 . S
C911 C912 1.524 . S
C911 C915 1.400 . S
C912 H897 0.960 . S
C912 H898 0.960 . S
C912 H899 0.960 . S
C912 C911 1.524 . S
C913 C910 1.403 . S
C913 C914 1.392 . S
C913 C917 1.495 . S
C914 C913 1.392 . S
C914 C915 1.385 . S
C914 C916 1.478 . S
C915 H909 0.930 . S
C915 C911 1.400 . S
C915 C914 1.385 . S
C916 C914 1.478 . S
C916 C918 1.381 . S
C916 C922 1.383 . S
C917 C913 1.495 . S
C917 H923 0.959 . S
C917 H924 0.961 . S
C917 H925 0.960 . S
C918 C916 1.381 . S
C918 C919 1.394 . S
C918 H926 0.930 . S
C919 C918 1.394 . S
C919 C920 1.383 . S
C919 H927 0.929 . S
C920 C919 1.383 . S
C920 C921 1.377 . S
C921 H905 0.930 . S
C921 C920 1.377 . S
C921 C922 1.379 . S
C922 H906 0.931 . S
C922 C916 1.383 . S
C922 C921 1.379 . S
H923 C917 0.959 . S
H924 C917 0.961 . S
H925 C917 0.960 . S
H926 C918 0.930 . S
H927 C919 0.929 . S
H928 C936 0.929 . S
H929 C938 0.930 . S
H930 C940 0.930 . S
H931 C943 0.929 . S
H932 C946 0.930 . S
H933 C948 0.960 . S
H934 C948 0.960 . S
H935 C948 0.960 . S
C936 H928 0.929 . S
C936 C937 1.377 . S
C936 C938 1.384 . S
C937 C936 1.377 . S
C937 C943 1.390 . S
C938 H929 0.930 . S
C938 C936 1.384 . S
C938 C939 1.372 . S
C939 C938 1.372 . S
C939 C940 1.400 . S
C939 C944 1.490 . S
C940 H930 0.930 . S
C940 C939 1.400 . S
C940 C943 1.386 . S
H941 C957 0.930 . S
H942 C958 0.931 . S
C943 H931 0.929 . S
C943 C937 1.390 . S
C943 C940 1.386 . S
C944 C939 1.490 . S
C944 C946 1.395 . S
C944 C947 1.403 . S
H945 C951 0.930 . S
C946 H932 0.930 . S
C946 C944 1.395 . S
C946 C949 1.403 1_655 S
C947 C944 1.403 . S
C947 C948 1.524 . S
C947 C951 1.400 1_655 S
C948 H933 0.960 . S
C948 H934 0.960 . S
C948 H935 0.960 . S
C948 C947 1.524 . S
C949 C946 1.403 1_455 S
C949 C950 1.392 . S
C949 C953 1.495 . S
C950 C949 1.392 . S
C950 C951 1.385 . S
C950 C952 1.478 . S
C951 H945 0.930 . S
C951 C947 1.400 1_455 S
C951 C950 1.385 . S
C952 C950 1.478 . S
C952 C954 1.381 . S
C952 C958 1.383 . S
C953 C949 1.495 . S
C953 H959 0.959 . S
C953 H960 0.961 . S
C953 H961 0.960 . S
C954 C952 1.381 . S
C954 C955 1.394 . S
C954 H962 0.930 . S
C955 C954 1.394 . S
C955 C956 1.383 . S
C955 H963 0.929 . S
C956 C955 1.383 . S
C956 C957 1.377 . S
C957 H941 0.930 . S
C957 C956 1.377 . S
C957 C958 1.379 . S
C958 H942 0.931 . S
C958 C952 1.383 . S
C958 C957 1.379 . S
H959 C953 0.959 . S
H960 C953 0.961 . S
H961 C953 0.960 . S
H962 C954 0.930 . S
H963 C955 0.929 . S
H964 C972 0.929 . S
H965 C974 0.930 . S
H966 C976 0.930 . S
H967 C979 0.929 . S
H968 C982 0.930 . S
H969 C984 0.960 . S
H970 C984 0.960 . S
H971 C984 0.960 . S
C972 H964 0.929 . S
C972 C973 1.377 . S
C972 C974 1.384 . S
C973 C972 1.377 . S
C973 C979 1.390 . S
C974 H965 0.930 . S
C974 C972 1.384 . S
C974 C975 1.372 . S
C975 C974 1.372 . S
C975 C976 1.400 . S
C975 C980 1.490 . S
C976 H966 0.930 . S
C976 C975 1.400 . S
C976 C979 1.386 . S
H977 C993 0.930 . S
H978 C994 0.931 . S
C979 H967 0.929 . S
C979 C973 1.390 . S
C979 C976 1.386 . S
C980 C975 1.490 . S
C980 C982 1.395 . S
C980 C983 1.403 . S
H981 C987 0.930 . S
C982 H968 0.930 . S
C982 C980 1.395 . S
C982 C985 1.403 . S
C983 C980 1.403 . S
C983 C984 1.524 . S
C983 C987 1.400 . S
C984 H969 0.960 . S
C984 H970 0.960 . S
C984 H971 0.960 . S
C984 C983 1.524 . S
C985 C982 1.403 . S
C985 C986 1.392 . S
C985 C989 1.495 . S
C986 C985 1.392 . S
C986 C987 1.385 . S
C986 C988 1.478 . S
C987 H981 0.930 . S
C987 C983 1.400 . S
C987 C986 1.385 . S
C988 C986 1.478 . S
C988 C990 1.381 . S
C988 C994 1.383 . S
C989 C985 1.495 . S
C989 H995 0.959 . S
C989 H996 0.961 . S
C989 H997 0.960 . S
C990 C988 1.381 . S
C990 C991 1.394 . S
C990 H998 0.930 . S
C991 C990 1.394 . S
C991 C992 1.383 . S
C991 H999 0.929 . S
C992 C991 1.383 . S
C992 C993 1.377 . S
C993 H977 0.930 . S
C993 C992 1.377 . S
C993 C994 1.379 . S
C994 H978 0.931 . S
C994 C988 1.383 . S
C994 C993 1.379 . S
H995 C989 0.959 . S
H996 C989 0.961 . S
H997 C989 0.960 . S
H998 C990 0.930 . S
H999 C991 0.929 . S
H1000 C1008 0.929 . S
H1001 C1010 0.930 . S
H1002 C1012 0.930 . S
H1003 C1015 0.929 . S
H1004 C1018 0.930 . S
H1005 C1020 0.960 . S
H1006 C1020 0.960 . S
H1007 C1020 0.960 . S
C1008 H1000 0.929 . S
C1008 C1009 1.377 . S
C1008 C1010 1.384 . S
C1009 C1008 1.377 . S
C1009 C1015 1.390 . S
C1010 H1001 0.930 . S
C1010 C1008 1.384 . S
C1010 C1011 1.372 . S
C1011 C1010 1.372 . S
C1011 C1012 1.400 . S
C1011 C1016 1.490 . S
C1012 H1002 0.930 . S
C1012 C1011 1.400 . S
C1012 C1015 1.386 . S
H1013 C1029 0.930 . S
H1014 C1030 0.931 . S
C1015 H1003 0.929 . S
C1015 C1009 1.390 . S
C1015 C1012 1.386 . S
C1016 C1011 1.490 . S
C1016 C1018 1.395 . S
C1016 C1019 1.403 . S
H1017 C1023 0.930 . S
C1018 H1004 0.930 . S
C1018 C1016 1.395 . S
C1018 C1021 1.403 . S
C1019 C1016 1.403 . S
C1019 C1020 1.524 . S
C1019 C1023 1.400 . S
C1020 H1005 0.960 . S
C1020 H1006 0.960 . S
C1020 H1007 0.960 . S
C1020 C1019 1.524 . S
C1021 C1018 1.403 . S
C1021 C1022 1.392 . S
C1021 C1025 1.495 . S
C1022 C1021 1.392 . S
C1022 C1023 1.385 . S
C1022 C1024 1.478 . S
C1023 H1017 0.930 . S
C1023 C1019 1.400 . S
C1023 C1022 1.385 . S
C1024 C1022 1.478 . S
C1024 C1026 1.381 . S
C1024 C1030 1.383 . S
C1025 C1021 1.495 . S
C1025 H1031 0.959 . S
C1025 H1032 0.961 . S
C1025 H1033 0.960 . S
C1026 C1024 1.381 . S
C1026 C1027 1.394 . S
C1026 H1034 0.930 . S
C1027 C1026 1.394 . S
C1027 C1028 1.383 . S
C1027 H1035 0.929 . S
C1028 C1027 1.383 . S
C1028 C1029 1.377 . S
C1029 H1013 0.930 . S
C1029 C1028 1.377 . S
C1029 C1030 1.379 . S
C1030 H1014 0.931 . S
C1030 C1024 1.383 . S
C1030 C1029 1.379 . S
H1031 C1025 0.959 . S
H1032 C1025 0.961 . S
H1033 C1025 0.960 . S
H1034 C1026 0.930 . S
H1035 C1027 0.929 . S
H1036 C1044 0.929 . S
H1037 C1046 0.930 . S
H1038 C1048 0.930 . S
H1039 C1051 0.929 . S
H1040 C1054 0.930 . S
H1041 C1056 0.960 . S
H1042 C1056 0.960 . S
H1043 C1056 0.960 . S
C1044 H1036 0.929 . S
C1044 C1045 1.377 . S
C1044 C1046 1.384 . S
C1045 C1044 1.377 . S
C1045 C1051 1.390 . S
C1046 H1037 0.930 . S
C1046 C1044 1.384 . S
C1046 C1047 1.372 . S
C1047 C1046 1.372 . S
C1047 C1048 1.400 . S
C1047 C1052 1.490 . S
C1048 H1038 0.930 . S
C1048 C1047 1.400 . S
C1048 C1051 1.386 . S
H1049 C1065 0.930 . S
H1050 C1066 0.931 . S
C1051 H1039 0.929 . S
C1051 C1045 1.390 . S
C1051 C1048 1.386 . S
C1052 C1047 1.490 . S
C1052 C1054 1.395 . S
C1052 C1055 1.403 . S
H1053 C1059 0.930 . S
C1054 H1040 0.930 . S
C1054 C1052 1.395 . S
C1054 C1057 1.403 . S
C1055 C1052 1.403 . S
C1055 C1056 1.524 . S
C1055 C1059 1.400 . S
C1056 H1041 0.960 . S
C1056 H1042 0.960 . S
C1056 H1043 0.960 . S
C1056 C1055 1.524 . S
C1057 C1054 1.403 . S
C1057 C1058 1.392 . S
C1057 C1061 1.495 . S
C1058 C1057 1.392 . S
C1058 C1059 1.385 . S
C1058 C1060 1.478 . S
C1059 H1053 0.930 . S
C1059 C1055 1.400 . S
C1059 C1058 1.385 . S
C1060 C1058 1.478 . S
C1060 C1062 1.381 . S
C1060 C1066 1.383 . S
C1061 C1057 1.495 . S
C1061 H1067 0.959 . S
C1061 H1068 0.961 . S
C1061 H1069 0.960 . S
C1062 C1060 1.381 . S
C1062 C1063 1.394 . S
C1062 H1070 0.930 . S
C1063 C1062 1.394 . S
C1063 C1064 1.383 . S
C1063 H1071 0.929 . S
C1064 C1063 1.383 . S
C1064 C1065 1.377 . S
C1065 H1049 0.930 . S
C1065 C1064 1.377 . S
C1065 C1066 1.379 . S
C1066 H1050 0.931 . S
C1066 C1060 1.383 . S
C1066 C1065 1.379 . S
H1067 C1061 0.959 . S
H1068 C1061 0.961 . S
H1069 C1061 0.960 . S
H1070 C1062 0.930 . S
H1071 C1063 0.929 . S
H1072 C1080 0.929 . S
H1073 C1082 0.930 . S
H1074 C1084 0.930 . S
H1075 C1087 0.929 . S
H1076 C1090 0.930 . S
H1077 C1092 0.960 . S
H1078 C1092 0.960 . S
H1079 C1092 0.960 . S
C1080 H1072 0.929 . S
C1080 C1081 1.377 . S
C1080 C1082 1.384 . S
C1081 C1080 1.377 . S
C1081 C1087 1.390 . S
C1082 H1073 0.930 . S
C1082 C1080 1.384 . S
C1082 C1083 1.372 . S
C1083 C1082 1.372 . S
C1083 C1084 1.400 . S
C1083 C1088 1.490 . S
C1084 H1074 0.930 . S
C1084 C1083 1.400 . S
C1084 C1087 1.386 . S
H1085 C1101 0.930 . S
H1086 C1102 0.931 . S
C1087 H1075 0.929 . S
C1087 C1081 1.390 . S
C1087 C1084 1.386 . S
C1088 C1083 1.490 . S
C1088 C1090 1.395 . S
C1088 C1091 1.403 . S
H1089 C1095 0.930 . S
C1090 H1076 0.930 . S
C1090 C1088 1.395 . S
C1090 C1093 1.403 1_655 S
C1091 C1088 1.403 . S
C1091 C1092 1.524 . S
C1091 C1095 1.400 1_655 S
C1092 H1077 0.960 . S
C1092 H1078 0.960 . S
C1092 H1079 0.960 . S
C1092 C1091 1.524 . S
C1093 C1090 1.403 1_455 S
C1093 C1094 1.392 . S
C1093 C1097 1.495 . S
C1094 C1093 1.392 . S
C1094 C1095 1.385 . S
C1094 C1096 1.478 . S
C1095 H1089 0.930 . S
C1095 C1091 1.400 1_455 S
C1095 C1094 1.385 . S
C1096 C1094 1.478 . S
C1096 C1098 1.381 . S
C1096 C1102 1.383 . S
C1097 C1093 1.495 . S
C1097 H1103 0.959 . S
C1097 H1104 0.961 . S
C1097 H1105 0.960 . S
C1098 C1096 1.381 . S
C1098 C1099 1.394 . S
C1098 H1106 0.930 . S
C1099 C1098 1.394 . S
C1099 C1100 1.383 . S
C1099 H1107 0.929 . S
C1100 C1099 1.383 . S
C1100 C1101 1.377 . S
C1101 H1085 0.930 . S
C1101 C1100 1.377 . S
C1101 C1102 1.379 . S
C1102 H1086 0.931 . S
C1102 C1096 1.383 . S
C1102 C1101 1.379 . S
H1103 C1097 0.959 . S
H1104 C1097 0.961 . S
H1105 C1097 0.960 . S
H1106 C1098 0.930 . S
H1107 C1099 0.929 . S
H1108 C1116 0.929 . S
H1109 C1118 0.930 . S
H1110 C1120 0.930 . S
H1111 C1123 0.929 . S
H1112 C1126 0.930 . S
H1113 C1128 0.960 . S
H1114 C1128 0.960 . S
H1115 C1128 0.960 . S
C1116 H1108 0.929 . S
C1116 C1117 1.377 . S
C1116 C1118 1.384 . S
C1117 C1116 1.377 . S
C1117 C1123 1.390 . S
C1118 H1109 0.930 . S
C1118 C1116 1.384 . S
C1118 C1119 1.372 . S
C1119 C1118 1.372 . S
C1119 C1120 1.400 . S
C1119 C1124 1.490 . S
C1120 H1110 0.930 . S
C1120 C1119 1.400 . S
C1120 C1123 1.386 . S
H1121 C1137 0.930 . S
H1122 C1138 0.931 . S
C1123 H1111 0.929 . S
C1123 C1117 1.390 . S
C1123 C1120 1.386 . S
C1124 C1119 1.490 . S
C1124 C1126 1.395 . S
C1124 C1127 1.403 . S
H1125 C1131 0.930 . S
C1126 H1112 0.930 . S
C1126 C1124 1.395 . S
C1126 C1129 1.403 . S
C1127 C1124 1.403 . S
C1127 C1128 1.524 . S
C1127 C1131 1.400 . S
C1128 H1113 0.960 . S
C1128 H1114 0.960 . S
C1128 H1115 0.960 . S
C1128 C1127 1.524 . S
C1129 C1126 1.403 . S
C1129 C1130 1.392 . S
C1129 C1133 1.495 . S
C1130 C1129 1.392 . S
C1130 C1131 1.385 . S
C1130 C1132 1.478 . S
C1131 H1125 0.930 . S
C1131 C1127 1.400 . S
C1131 C1130 1.385 . S
C1132 C1130 1.478 . S
C1132 C1134 1.381 . S
C1132 C1138 1.383 . S
C1133 C1129 1.495 . S
C1133 H1139 0.959 . S
C1133 H1140 0.961 . S
C1133 H1141 0.960 . S
C1134 C1132 1.381 . S
C1134 C1135 1.394 . S
C1134 H1142 0.930 . S
C1135 C1134 1.394 . S
C1135 C1136 1.383 . S
C1135 H1143 0.929 . S
C1136 C1135 1.383 . S
C1136 C1137 1.377 . S
C1137 H1121 0.930 . S
C1137 C1136 1.377 . S
C1137 C1138 1.379 . S
C1138 H1122 0.931 . S
C1138 C1132 1.383 . S
C1138 C1137 1.379 . S
H1139 C1133 0.959 . S
H1140 C1133 0.961 . S
H1141 C1133 0.960 . S
H1142 C1134 0.930 . S
H1143 C1135 0.929 . S
H1144 C1152 0.929 . S
H1145 C1154 0.930 . S
H1146 C1156 0.930 . S
H1147 C1159 0.929 . S
H1148 C1162 0.930 . S
H1149 C1164 0.960 . S
H1150 C1164 0.960 . S
H1151 C1164 0.960 . S
C1152 H1144 0.929 . S
C1152 C1153 1.377 . S
C1152 C1154 1.384 . S
C1153 C1152 1.377 . S
C1153 C1159 1.390 . S
C1154 H1145 0.930 . S
C1154 C1152 1.384 . S
C1154 C1155 1.372 . S
C1155 C1154 1.372 . S
C1155 C1156 1.400 . S
C1155 C1160 1.490 . S
C1156 H1146 0.930 . S
C1156 C1155 1.400 . S
C1156 C1159 1.386 . S
H1157 C1173 0.930 . S
H1158 C1174 0.931 . S
C1159 H1147 0.929 . S
C1159 C1153 1.390 . S
C1159 C1156 1.386 . S
C1160 C1155 1.490 . S
C1160 C1162 1.395 . S
C1160 C1163 1.403 . S
H1161 C1167 0.930 . S
C1162 H1148 0.930 . S
C1162 C1160 1.395 . S
C1162 C1165 1.403 . S
C1163 C1160 1.403 . S
C1163 C1164 1.524 . S
C1163 C1167 1.400 . S
C1164 H1149 0.960 . S
C1164 H1150 0.960 . S
C1164 H1151 0.960 . S
C1164 C1163 1.524 . S
C1165 C1162 1.403 . S
C1165 C1166 1.392 . S
C1165 C1169 1.495 . S
C1166 C1165 1.392 . S
C1166 C1167 1.385 . S
C1166 C1168 1.478 . S
C1167 H1161 0.930 . S
C1167 C1163 1.400 . S
C1167 C1166 1.385 . S
C1168 C1166 1.478 . S
C1168 C1170 1.381 . S
C1168 C1174 1.383 . S
C1169 C1165 1.495 . S
C1169 H1175 0.959 . S
C1169 H1176 0.961 . S
C1169 H1177 0.960 . S
C1170 C1168 1.381 . S
C1170 C1171 1.394 . S
C1170 H1178 0.930 . S
C1171 C1170 1.394 . S
C1171 C1172 1.383 . S
C1171 H1179 0.929 . S
C1172 C1171 1.383 . S
C1172 C1173 1.377 . S
C1173 H1157 0.930 . S
C1173 C1172 1.377 . S
C1173 C1174 1.379 . S
C1174 H1158 0.931 . S
C1174 C1168 1.383 . S
C1174 C1173 1.379 . S
H1175 C1169 0.959 . S
H1176 C1169 0.961 . S
H1177 C1169 0.960 . S
H1178 C1170 0.930 . S
H1179 C1171 0.929 . S
H1180 C1188 0.929 . S
H1181 C1190 0.930 . S
H1182 C1192 0.930 . S
H1183 C1195 0.929 . S
H1184 C1198 0.930 . S
H1185 C1200 0.960 . S
H1186 C1200 0.960 . S
H1187 C1200 0.960 . S
C1188 H1180 0.929 . S
C1188 C1189 1.377 . S
C1188 C1190 1.384 . S
C1189 C1188 1.377 . S
C1189 C1195 1.390 . S
C1190 H1181 0.930 . S
C1190 C1188 1.384 . S
C1190 C1191 1.372 . S
C1191 C1190 1.372 . S
C1191 C1192 1.400 . S
C1191 C1196 1.490 . S
C1192 H1182 0.930 . S
C1192 C1191 1.400 . S
C1192 C1195 1.386 . S
H1193 C1209 0.930 . S
H1194 C1210 0.931 . S
C1195 H1183 0.929 . S
C1195 C1189 1.390 . S
C1195 C1192 1.386 . S
C1196 C1191 1.490 . S
C1196 C1198 1.395 . S
C1196 C1199 1.403 . S
H1197 C1203 0.930 . S
C1198 H1184 0.930 . S
C1198 C1196 1.395 . S
C1198 C1201 1.403 . S
C1199 C1196 1.403 . S
C1199 C1200 1.524 . S
C1199 C1203 1.400 . S
C1200 H1185 0.960 . S
C1200 H1186 0.960 . S
C1200 H1187 0.960 . S
C1200 C1199 1.524 . S
C1201 C1198 1.403 . S
C1201 C1202 1.392 . S
C1201 C1205 1.495 . S
C1202 C1201 1.392 . S
C1202 C1203 1.385 . S
C1202 C1204 1.478 . S
C1203 H1197 0.930 . S
C1203 C1199 1.400 . S
C1203 C1202 1.385 . S
C1204 C1202 1.478 . S
C1204 C1206 1.381 . S
C1204 C1210 1.383 . S
C1205 C1201 1.495 . S
C1205 H1211 0.959 . S
C1205 H1212 0.961 . S
C1205 H1213 0.960 . S
C1206 C1204 1.381 . S
C1206 C1207 1.394 . S
C1206 H1214 0.930 . S
C1207 C1206 1.394 . S
C1207 C1208 1.383 . S
C1207 H1215 0.929 . S
C1208 C1207 1.383 . S
C1208 C1209 1.377 . S
C1209 H1193 0.930 . S
C1209 C1208 1.377 . S
C1209 C1210 1.379 . S
C1210 H1194 0.931 . S
C1210 C1204 1.383 . S
C1210 C1209 1.379 . S
H1211 C1205 0.959 . S
H1212 C1205 0.961 . S
H1213 C1205 0.960 . S
H1214 C1206 0.930 . S
H1215 C1207 0.929 . S
H1216 C1224 0.929 . S
H1217 C1226 0.930 . S
H1218 C1228 0.930 . S
H1219 C1231 0.929 . S
H1220 C1234 0.930 . S
H1221 C1236 0.960 . S
H1222 C1236 0.960 . S
H1223 C1236 0.960 . S
C1224 H1216 0.929 . S
C1224 C1225 1.377 . S
C1224 C1226 1.384 . S
C1225 C1224 1.377 . S
C1225 C1231 1.390 . S
C1226 H1217 0.930 . S
C1226 C1224 1.384 . S
C1226 C1227 1.372 . S
C1227 C1226 1.372 . S
C1227 C1228 1.400 . S
C1227 C1232 1.490 . S
C1228 H1218 0.930 . S
C1228 C1227 1.400 . S
C1228 C1231 1.386 . S
H1229 C1245 0.930 . S
H1230 C1246 0.931 . S
C1231 H1219 0.929 . S
C1231 C1225 1.390 . S
C1231 C1228 1.386 . S
C1232 C1227 1.490 . S
C1232 C1234 1.395 . S
C1232 C1235 1.403 . S
H1233 C1239 0.930 . S
C1234 H1220 0.930 . S
C1234 C1232 1.395 . S
C1234 C1237 1.403 . S
C1235 C1232 1.403 . S
C1235 C1236 1.524 . S
C1235 C1239 1.400 . S
C1236 H1221 0.960 . S
C1236 H1222 0.960 . S
C1236 H1223 0.960 . S
C1236 C1235 1.524 . S
C1237 C1234 1.403 . S
C1237 C1238 1.392 . S
C1237 C1241 1.495 . S
C1238 C1237 1.392 . S
C1238 C1239 1.385 . S
C1238 C1240 1.478 . S
C1239 H1233 0.930 . S
C1239 C1235 1.400 . S
C1239 C1238 1.385 . S
C1240 C1238 1.478 . S
C1240 C1242 1.381 . S
C1240 C1246 1.383 . S
C1241 C1237 1.495 . S
C1241 H1247 0.959 . S
C1241 H1248 0.961 . S
C1241 H1249 0.960 . S
C1242 C1240 1.381 . S
C1242 C1243 1.394 . S
C1242 H1250 0.930 . S
C1243 C1242 1.394 . S
C1243 C1244 1.383 . S
C1243 H1251 0.929 . S
C1244 C1243 1.383 . S
C1244 C1245 1.377 . S
C1245 H1229 0.930 . S
C1245 C1244 1.377 . S
C1245 C1246 1.379 . S
C1246 H1230 0.931 . S
C1246 C1240 1.383 . S
C1246 C1245 1.379 . S
H1247 C1241 0.959 . S
H1248 C1241 0.961 . S
H1249 C1241 0.960 . S
H1250 C1242 0.930 . S
H1251 C1243 0.929 . S
H1252 C1260 0.929 . S
H1253 C1262 0.930 . S
H1254 C1264 0.930 . S
H1255 C1267 0.929 . S
H1256 C1270 0.930 . S
H1257 C1272 0.960 . S
H1258 C1272 0.960 . S
H1259 C1272 0.960 . S
C1260 H1252 0.929 . S
C1260 C1261 1.377 . S
C1260 C1262 1.384 . S
C1261 C1260 1.377 . S
C1261 C1267 1.390 . S
C1262 H1253 0.930 . S
C1262 C1260 1.384 . S
C1262 C1263 1.372 . S
C1263 C1262 1.372 . S
C1263 C1264 1.400 . S
C1263 C1268 1.490 . S
C1264 H1254 0.930 . S
C1264 C1263 1.400 . S
C1264 C1267 1.386 . S
H1265 C1281 0.930 . S
H1266 C1282 0.931 . S
C1267 H1255 0.929 . S
C1267 C1261 1.390 . S
C1267 C1264 1.386 . S
C1268 C1263 1.490 . S
C1268 C1270 1.395 . S
C1268 C1271 1.403 . S
H1269 C1275 0.930 . S
C1270 H1256 0.930 . S
C1270 C1268 1.395 . S
C1270 C1273 1.403 . S
C1271 C1268 1.403 . S
C1271 C1272 1.524 . S
C1271 C1275 1.400 . S
C1272 H1257 0.960 . S
C1272 H1258 0.960 . S
C1272 H1259 0.960 . S
C1272 C1271 1.524 . S
C1273 C1270 1.403 . S
C1273 C1274 1.392 . S
C1273 C1277 1.495 . S
C1274 C1273 1.392 . S
C1274 C1275 1.385 . S
C1274 C1276 1.478 . S
C1275 H1269 0.930 . S
C1275 C1271 1.400 . S
C1275 C1274 1.385 . S
C1276 C1274 1.478 . S
C1276 C1278 1.381 . S
C1276 C1282 1.383 . S
C1277 C1273 1.495 . S
C1277 H1283 0.959 . S
C1277 H1284 0.961 . S
C1277 H1285 0.960 . S
C1278 C1276 1.381 . S
C1278 C1279 1.394 . S
C1278 H1286 0.930 . S
C1279 C1278 1.394 . S
C1279 C1280 1.383 . S
C1279 H1287 0.929 . S
C1280 C1279 1.383 . S
C1280 C1281 1.377 . S
C1281 H1265 0.930 . S
C1281 C1280 1.377 . S
C1281 C1282 1.379 . S
C1282 H1266 0.931 . S
C1282 C1276 1.383 . S
C1282 C1281 1.379 . S
H1283 C1277 0.959 . S
H1284 C1277 0.961 . S
H1285 C1277 0.960 . S
H1286 C1278 0.930 . S
H1287 C1279 0.929 . S
H1288 C1296 0.929 . S
H1289 C1298 0.930 . S
H1290 C1300 0.930 . S
H1291 C1303 0.929 . S
H1292 C1306 0.930 . S
H1293 C1308 0.960 . S
H1294 C1308 0.960 . S
H1295 C1308 0.960 . S
C1296 H1288 0.929 . S
C1296 C1297 1.377 . S
C1296 C1298 1.384 . S
C1297 C1296 1.377 . S
C1297 C1303 1.390 . S
C1298 H1289 0.930 . S
C1298 C1296 1.384 . S
C1298 C1299 1.372 . S
C1299 C1298 1.372 . S
C1299 C1300 1.400 . S
C1299 C1304 1.490 . S
C1300 H1290 0.930 . S
C1300 C1299 1.400 . S
C1300 C1303 1.386 . S
H1301 C1317 0.930 . S
H1302 C1318 0.931 . S
C1303 H1291 0.929 . S
C1303 C1297 1.390 . S
C1303 C1300 1.386 . S
C1304 C1299 1.490 . S
C1304 C1306 1.395 . S
C1304 C1307 1.403 . S
H1305 C1311 0.930 . S
C1306 H1292 0.930 . S
C1306 C1304 1.395 . S
C1306 C1309 1.403 . S
C1307 C1304 1.403 . S
C1307 C1308 1.524 . S
C1307 C1311 1.400 . S
C1308 H1293 0.960 . S
C1308 H1294 0.960 . S
C1308 H1295 0.960 . S
C1308 C1307 1.524 . S
C1309 C1306 1.403 . S
C1309 C1310 1.392 . S
C1309 C1313 1.495 . S
C1310 C1309 1.392 . S
C1310 C1311 1.385 . S
C1310 C1312 1.478 . S
C1311 H1305 0.930 . S
C1311 C1307 1.400 . S
C1311 C1310 1.385 . S
C1312 C1310 1.478 . S
C1312 C1314 1.381 . S
C1312 C1318 1.383 . S
C1313 C1309 1.495 . S
C1313 H1319 0.959 . S
C1313 H1320 0.961 . S
C1313 H1321 0.960 . S
C1314 C1312 1.381 . S
C1314 C1315 1.394 . S
C1314 H1322 0.930 . S
C1315 C1314 1.394 . S
C1315 C1316 1.383 . S
C1315 H1323 0.929 . S
C1316 C1315 1.383 . S
C1316 C1317 1.377 . S
C1317 H1301 0.930 . S
C1317 C1316 1.377 . S
C1317 C1318 1.379 . S
C1318 H1302 0.931 . S
C1318 C1312 1.383 . S
C1318 C1317 1.379 . S
H1319 C1313 0.959 . S
H1320 C1313 0.961 . S
H1321 C1313 0.960 . S
H1322 C1314 0.930 . S
H1323 C1315 0.929 . S
H1324 C1332 0.929 . S
H1325 C1334 0.930 . S
H1326 C1336 0.930 . S
H1327 C1339 0.929 . S
H1328 C1342 0.930 . S
H1329 C1344 0.960 . S
H1330 C1344 0.960 . S
H1331 C1344 0.960 . S
C1332 H1324 0.929 . S
C1332 C1333 1.377 . S
C1332 C1334 1.384 . S
C1333 C1332 1.377 . S
C1333 C1339 1.390 . S
C1334 H1325 0.930 . S
C1334 C1332 1.384 . S
C1334 C1335 1.372 . S
C1335 C1334 1.372 . S
C1335 C1336 1.400 . S
C1335 C1340 1.490 . S
C1336 H1326 0.930 . S
C1336 C1335 1.400 . S
C1336 C1339 1.386 . S
H1337 C1353 0.930 . S
H1338 C1354 0.931 . S
C1339 H1327 0.929 . S
C1339 C1333 1.390 . S
C1339 C1336 1.386 . S
C1340 C1335 1.490 . S
C1340 C1342 1.395 . S
C1340 C1343 1.403 . S
H1341 C1347 0.930 . S
C1342 H1328 0.930 . S
C1342 C1340 1.395 . S
C1342 C1345 1.403 . S
C1343 C1340 1.403 . S
C1343 C1344 1.524 . S
C1343 C1347 1.400 . S
C1344 H1329 0.960 . S
C1344 H1330 0.960 . S
C1344 H1331 0.960 . S
C1344 C1343 1.524 . S
C1345 C1342 1.403 . S
C1345 C1346 1.392 . S
C1345 C1349 1.495 . S
C1346 C1345 1.392 . S
C1346 C1347 1.385 . S
C1346 C1348 1.478 . S
C1347 H1341 0.930 . S
C1347 C1343 1.400 . S
C1347 C1346 1.385 . S
C1348 C1346 1.478 . S
C1348 C1350 1.381 . S
C1348 C1354 1.383 . S
C1349 C1345 1.495 . S
C1349 H1355 0.959 . S
C1349 H1356 0.961 . S
C1349 H1357 0.960 . S
C1350 C1348 1.381 . S
C1350 C1351 1.394 . S
C1350 H1358 0.930 . S
C1351 C1350 1.394 . S
C1351 C1352 1.383 . S
C1351 H1359 0.929 . S
C1352 C1351 1.383 . S
C1352 C1353 1.377 . S
C1353 H1337 0.930 . S
C1353 C1352 1.377 . S
C1353 C1354 1.379 . S
C1354 H1338 0.931 . S
C1354 C1348 1.383 . S
C1354 C1353 1.379 . S
H1355 C1349 0.959 . S
H1356 C1349 0.961 . S
H1357 C1349 0.960 . S
H1358 C1350 0.930 . S
H1359 C1351 0.929 . S
H1360 C1368 0.929 . S
H1361 C1370 0.930 . S
H1362 C1372 0.930 . S
H1363 C1375 0.929 . S
H1364 C1378 0.930 . S
H1365 C1380 0.960 . S
H1366 C1380 0.960 . S
H1367 C1380 0.960 . S
C1368 H1360 0.929 . S
C1368 C1369 1.377 . S
C1368 C1370 1.384 . S
C1369 C1368 1.377 . S
C1369 C1375 1.390 . S
C1370 H1361 0.930 . S
C1370 C1368 1.384 . S
C1370 C1371 1.372 . S
C1371 C1370 1.372 . S
C1371 C1372 1.400 . S
C1371 C1376 1.490 . S
C1372 H1362 0.930 . S
C1372 C1371 1.400 . S
C1372 C1375 1.386 . S
H1373 C1389 0.930 . S
H1374 C1390 0.931 . S
C1375 H1363 0.929 . S
C1375 C1369 1.390 . S
C1375 C1372 1.386 . S
C1376 C1371 1.490 . S
C1376 C1378 1.395 . S
C1376 C1379 1.403 . S
H1377 C1383 0.930 . S
C1378 H1364 0.930 . S
C1378 C1376 1.395 . S
C1378 C1381 1.403 . S
C1379 C1376 1.403 . S
C1379 C1380 1.524 . S
C1379 C1383 1.400 . S
C1380 H1365 0.960 . S
C1380 H1366 0.960 . S
C1380 H1367 0.960 . S
C1380 C1379 1.524 . S
C1381 C1378 1.403 . S
C1381 C1382 1.392 . S
C1381 C1385 1.495 . S
C1382 C1381 1.392 . S
C1382 C1383 1.385 . S
C1382 C1384 1.478 . S
C1383 H1377 0.930 . S
C1383 C1379 1.400 . S
C1383 C1382 1.385 . S
C1384 C1382 1.478 . S
C1384 C1386 1.381 . S
C1384 C1390 1.383 . S
C1385 C1381 1.495 . S
C1385 H1391 0.959 . S
C1385 H1392 0.961 . S
C1385 H1393 0.960 . S
C1386 C1384 1.381 . S
C1386 C1387 1.394 . S
C1386 H1394 0.930 . S
C1387 C1386 1.394 . S
C1387 C1388 1.383 . S
C1387 H1395 0.929 . S
C1388 C1387 1.383 . S
C1388 C1389 1.377 . S
C1389 H1373 0.930 . S
C1389 C1388 1.377 . S
C1389 C1390 1.379 . S
C1390 H1374 0.931 . S
C1390 C1384 1.383 . S
C1390 C1389 1.379 . S
H1391 C1385 0.959 . S
H1392 C1385 0.961 . S
H1393 C1385 0.960 . S
H1394 C1386 0.930 . S
H1395 C1387 0.929 . S
H1396 C1404 0.929 . S
H1397 C1406 0.930 . S
H1398 C1408 0.930 . S
H1399 C1411 0.929 . S
H1400 C1414 0.930 . S
H1401 C1416 0.960 . S
H1402 C1416 0.960 . S
H1403 C1416 0.960 . S
C1404 H1396 0.929 . S
C1404 C1405 1.377 . S
C1404 C1406 1.384 . S
C1405 C1404 1.377 . S
C1405 C1411 1.390 . S
C1406 H1397 0.930 . S
C1406 C1404 1.384 . S
C1406 C1407 1.372 . S
C1407 C1406 1.372 . S
C1407 C1408 1.400 . S
C1407 C1412 1.490 . S
C1408 H1398 0.930 . S
C1408 C1407 1.400 . S
C1408 C1411 1.386 . S
H1409 C1425 0.930 . S
H1410 C1426 0.931 . S
C1411 H1399 0.929 . S
C1411 C1405 1.390 . S
C1411 C1408 1.386 . S
C1412 C1407 1.490 . S
C1412 C1414 1.395 . S
C1412 C1415 1.403 . S
H1413 C1419 0.930 . S
C1414 H1400 0.930 . S
C1414 C1412 1.395 . S
C1414 C1417 1.403 1_455 S
C1415 C1412 1.403 . S
C1415 C1416 1.524 . S
C1415 C1419 1.400 1_455 S
C1416 H1401 0.960 . S
C1416 H1402 0.960 . S
C1416 H1403 0.960 . S
C1416 C1415 1.524 . S
C1417 C1414 1.403 1_655 S
C1417 C1418 1.392 . S
C1417 C1421 1.495 . S
C1418 C1417 1.392 . S
C1418 C1419 1.385 . S
C1418 C1420 1.478 . S
C1419 H1413 0.930 . S
C1419 C1415 1.400 1_655 S
C1419 C1418 1.385 . S
C1420 C1418 1.478 . S
C1420 C1422 1.381 . S
C1420 C1426 1.383 . S
C1421 C1417 1.495 . S
C1421 H1427 0.959 . S
C1421 H1428 0.961 . S
C1421 H1429 0.960 . S
C1422 C1420 1.381 . S
C1422 C1423 1.394 . S
C1422 H1430 0.930 . S
C1423 C1422 1.394 . S
C1423 C1424 1.383 . S
C1423 H1431 0.929 . S
C1424 C1423 1.383 . S
C1424 C1425 1.377 . S
C1425 H1409 0.930 . S
C1425 C1424 1.377 . S
C1425 C1426 1.379 . S
C1426 H1410 0.931 . S
C1426 C1420 1.383 . S
C1426 C1425 1.379 . S
H1427 C1421 0.959 . S
H1428 C1421 0.961 . S
H1429 C1421 0.960 . S
H1430 C1422 0.930 . S
H1431 C1423 0.929 . S
H1432 C1440 0.929 . S
H1433 C1442 0.930 . S
H1434 C1444 0.930 . S
H1435 C1447 0.929 . S
H1436 C1450 0.930 . S
H1437 C1452 0.960 . S
H1438 C1452 0.960 . S
H1439 C1452 0.960 . S
C1440 H1432 0.929 . S
C1440 C1441 1.377 . S
C1440 C1442 1.384 . S
C1441 C1440 1.377 . S
C1441 C1447 1.390 . S
C1442 H1433 0.930 . S
C1442 C1440 1.384 . S
C1442 C1443 1.372 . S
C1443 C1442 1.372 . S
C1443 C1444 1.400 . S
C1443 C1448 1.490 . S
C1444 H1434 0.930 . S
C1444 C1443 1.400 . S
C1444 C1447 1.386 . S
H1445 C1461 0.930 . S
H1446 C1462 0.931 . S
C1447 H1435 0.929 . S
C1447 C1441 1.390 . S
C1447 C1444 1.386 . S
C1448 C1443 1.490 . S
C1448 C1450 1.395 . S
C1448 C1451 1.403 . S
H1449 C1455 0.930 . S
C1450 H1436 0.930 . S
C1450 C1448 1.395 . S
C1450 C1453 1.403 . S
C1451 C1448 1.403 . S
C1451 C1452 1.524 . S
C1451 C1455 1.400 . S
C1452 H1437 0.960 . S
C1452 H1438 0.960 . S
C1452 H1439 0.960 . S
C1452 C1451 1.524 . S
C1453 C1450 1.403 . S
C1453 C1454 1.392 . S
C1453 C1457 1.495 . S
C1454 C1453 1.392 . S
C1454 C1455 1.385 . S
C1454 C1456 1.478 . S
C1455 H1449 0.930 . S
C1455 C1451 1.400 . S
C1455 C1454 1.385 . S
C1456 C1454 1.478 . S
C1456 C1458 1.381 . S
C1456 C1462 1.383 . S
C1457 C1453 1.495 . S
C1457 H1463 0.959 . S
C1457 H1464 0.961 . S
C1457 H1465 0.960 . S
C1458 C1456 1.381 . S
C1458 C1459 1.394 . S
C1458 H1466 0.930 . S
C1459 C1458 1.394 . S
C1459 C1460 1.383 . S
C1459 H1467 0.929 . S
C1460 C1459 1.383 . S
C1460 C1461 1.377 . S
C1461 H1445 0.930 . S
C1461 C1460 1.377 . S
C1461 C1462 1.379 . S
C1462 H1446 0.931 . S
C1462 C1456 1.383 . S
C1462 C1461 1.379 . S
H1463 C1457 0.959 . S
H1464 C1457 0.961 . S
H1465 C1457 0.960 . S
H1466 C1458 0.930 . S
H1467 C1459 0.929 . S
H1468 C1476 0.929 . S
H1469 C1478 0.930 . S
H1470 C1480 0.930 . S
H1471 C1483 0.929 . S
H1472 C1486 0.930 . S
H1473 C1488 0.960 . S
H1474 C1488 0.960 . S
H1475 C1488 0.960 . S
C1476 H1468 0.929 . S
C1476 C1477 1.377 . S
C1476 C1478 1.384 . S
C1477 C1476 1.377 . S
C1477 C1483 1.390 . S
C1478 H1469 0.930 . S
C1478 C1476 1.384 . S
C1478 C1479 1.372 . S
C1479 C1478 1.372 . S
C1479 C1480 1.400 . S
C1479 C1484 1.490 . S
C1480 H1470 0.930 . S
C1480 C1479 1.400 . S
C1480 C1483 1.386 . S
H1481 C1497 0.930 . S
H1482 C1498 0.931 . S
C1483 H1471 0.929 . S
C1483 C1477 1.390 . S
C1483 C1480 1.386 . S
C1484 C1479 1.490 . S
C1484 C1486 1.395 . S
C1484 C1487 1.403 . S
H1485 C1491 0.930 . S
C1486 H1472 0.930 . S
C1486 C1484 1.395 . S
C1486 C1489 1.403 1_455 S
C1487 C1484 1.403 . S
C1487 C1488 1.524 . S
C1487 C1491 1.400 1_455 S
C1488 H1473 0.960 . S
C1488 H1474 0.960 . S
C1488 H1475 0.960 . S
C1488 C1487 1.524 . S
C1489 C1486 1.403 1_655 S
C1489 C1490 1.392 . S
C1489 C1493 1.495 . S
C1490 C1489 1.392 . S
C1490 C1491 1.385 . S
C1490 C1492 1.478 . S
C1491 H1485 0.930 . S
C1491 C1487 1.400 1_655 S
C1491 C1490 1.385 . S
C1492 C1490 1.478 . S
C1492 C1494 1.381 . S
C1492 C1498 1.383 . S
C1493 C1489 1.495 . S
C1493 H1499 0.959 . S
C1493 H1500 0.961 . S
C1493 H1501 0.960 . S
C1494 C1492 1.381 . S
C1494 C1495 1.394 . S
C1494 H1502 0.930 . S
C1495 C1494 1.394 . S
C1495 C1496 1.383 . S
C1495 H1503 0.929 . S
C1496 C1495 1.383 . S
C1496 C1497 1.377 . S
C1497 H1481 0.930 . S
C1497 C1496 1.377 . S
C1497 C1498 1.379 . S
C1498 H1482 0.931 . S
C1498 C1492 1.383 . S
C1498 C1497 1.379 . S
H1499 C1493 0.959 . S
H1500 C1493 0.961 . S
H1501 C1493 0.960 . S
H1502 C1494 0.930 . S
H1503 C1495 0.929 . S
H1504 C1512 0.929 . S
H1505 C1514 0.930 . S
H1506 C1516 0.930 . S
H1507 C1519 0.929 . S
H1508 C1522 0.930 . S
H1509 C1524 0.960 . S
H1510 C1524 0.960 . S
H1511 C1524 0.960 . S
C1512 H1504 0.929 . S
C1512 C1513 1.377 . S
C1512 C1514 1.384 . S
C1513 C1512 1.377 . S
C1513 C1519 1.390 . S
C1514 H1505 0.930 . S
C1514 C1512 1.384 . S
C1514 C1515 1.372 . S
C1515 C1514 1.372 . S
C1515 C1516 1.400 . S
C1515 C1520 1.490 . S
C1516 H1506 0.930 . S
C1516 C1515 1.400 . S
C1516 C1519 1.386 . S
H1517 C1533 0.930 . S
H1518 C1534 0.931 . S
C1519 H1507 0.929 . S
C1519 C1513 1.390 . S
C1519 C1516 1.386 . S
C1520 C1515 1.490 . S
C1520 C1522 1.395 . S
C1520 C1523 1.403 . S
H1521 C1527 0.930 . S
C1522 H1508 0.930 . S
C1522 C1520 1.395 . S
C1522 C1525 1.403 . S
C1523 C1520 1.403 . S
C1523 C1524 1.524 . S
C1523 C1527 1.400 . S
C1524 H1509 0.960 . S
C1524 H1510 0.960 . S
C1524 H1511 0.960 . S
C1524 C1523 1.524 . S
C1525 C1522 1.403 . S
C1525 C1526 1.392 . S
C1525 C1529 1.495 . S
C1526 C1525 1.392 . S
C1526 C1527 1.385 . S
C1526 C1528 1.478 . S
C1527 H1521 0.930 . S
C1527 C1523 1.400 . S
C1527 C1526 1.385 . S
C1528 C1526 1.478 . S
C1528 C1530 1.381 . S
C1528 C1534 1.383 . S
C1529 C1525 1.495 . S
C1529 H1535 0.959 . S
C1529 H1536 0.961 . S
C1529 H1537 0.960 . S
C1530 C1528 1.381 . S
C1530 C1531 1.394 . S
C1530 H1538 0.930 . S
C1531 C1530 1.394 . S
C1531 C1532 1.383 . S
C1531 H1539 0.929 . S
C1532 C1531 1.383 . S
C1532 C1533 1.377 . S
C1533 H1517 0.930 . S
C1533 C1532 1.377 . S
C1533 C1534 1.379 . S
C1534 H1518 0.931 . S
C1534 C1528 1.383 . S
C1534 C1533 1.379 . S
H1535 C1529 0.959 . S
H1536 C1529 0.961 . S
H1537 C1529 0.960 . S
H1538 C1530 0.930 . S
H1539 C1531 0.929 . S
H1540 C1548 0.929 . S
H1541 C1550 0.930 . S
H1542 C1552 0.930 . S
H1543 C1555 0.929 . S
H1544 C1558 0.930 . S
H1545 C1560 0.960 . S
H1546 C1560 0.960 . S
H1547 C1560 0.960 . S
C1548 H1540 0.929 . S
C1548 C1549 1.377 . S
C1548 C1550 1.384 . S
C1549 C1548 1.377 . S
C1549 C1555 1.390 . S
C1550 H1541 0.930 . S
C1550 C1548 1.384 . S
C1550 C1551 1.372 . S
C1551 C1550 1.372 . S
C1551 C1552 1.400 . S
C1551 C1556 1.490 . S
C1552 H1542 0.930 . S
C1552 C1551 1.400 . S
C1552 C1555 1.386 . S
H1553 C1569 0.930 . S
H1554 C1570 0.931 . S
C1555 H1543 0.929 . S
C1555 C1549 1.390 . S
C1555 C1552 1.386 . S
C1556 C1551 1.490 . S
C1556 C1558 1.395 . S
C1556 C1559 1.403 . S
H1557 C1563 0.930 . S
C1558 H1544 0.930 . S
C1558 C1556 1.395 . S
C1558 C1561 1.403 . S
C1559 C1556 1.403 . S
C1559 C1560 1.524 . S
C1559 C1563 1.400 . S
C1560 H1545 0.960 . S
C1560 H1546 0.960 . S
C1560 H1547 0.960 . S
C1560 C1559 1.524 . S
C1561 C1558 1.403 . S
C1561 C1562 1.392 . S
C1561 C1565 1.495 . S
C1562 C1561 1.392 . S
C1562 C1563 1.385 . S
C1562 C1564 1.478 . S
C1563 H1557 0.930 . S
C1563 C1559 1.400 . S
C1563 C1562 1.385 . S
C1564 C1562 1.478 . S
C1564 C1566 1.381 . S
C1564 C1570 1.383 . S
C1565 C1561 1.495 . S
C1565 H1571 0.959 . S
C1565 H1572 0.961 . S
C1565 H1573 0.960 . S
C1566 C1564 1.381 . S
C1566 C1567 1.394 . S
C1566 H1574 0.930 . S
C1567 C1566 1.394 . S
C1567 C1568 1.383 . S
C1567 H1575 0.929 . S
C1568 C1567 1.383 . S
C1568 C1569 1.377 . S
C1569 H1553 0.930 . S
C1569 C1568 1.377 . S
C1569 C1570 1.379 . S
C1570 H1554 0.931 . S
C1570 C1564 1.383 . S
C1570 C1569 1.379 . S
H1571 C1565 0.959 . S
H1572 C1565 0.961 . S
H1573 C1565 0.960 . S
H1574 C1566 0.930 . S
H1575 C1567 0.929 . S
H1576 C1584 0.929 . S
H1577 C1586 0.930 . S
H1578 C1588 0.930 . S
H1579 C1591 0.929 . S
H1580 C1594 0.930 . S
H1581 C1596 0.960 . S
H1582 C1596 0.960 . S
H1583 C1596 0.960 . S
C1584 H1576 0.929 . S
C1584 C1585 1.377 . S
C1584 C1586 1.384 . S
C1585 C1584 1.377 . S
C1585 C1591 1.390 . S
C1586 H1577 0.930 . S
C1586 C1584 1.384 . S
C1586 C1587 1.372 . S
C1587 C1586 1.372 . S
C1587 C1588 1.400 . S
C1587 C1592 1.490 . S
C1588 H1578 0.930 . S
C1588 C1587 1.400 . S
C1588 C1591 1.386 . S
H1589 C1605 0.930 . S
H1590 C1606 0.931 . S
C1591 H1579 0.929 . S
C1591 C1585 1.390 . S
C1591 C1588 1.386 . S
C1592 C1587 1.490 . S
C1592 C1594 1.395 . S
C1592 C1595 1.403 . S
H1593 C1599 0.930 . S
C1594 H1580 0.930 . S
C1594 C1592 1.395 . S
C1594 C1597 1.403 . S
C1595 C1592 1.403 . S
C1595 C1596 1.524 . S
C1595 C1599 1.400 . S
C1596 H1581 0.960 . S
C1596 H1582 0.960 . S
C1596 H1583 0.960 . S
C1596 C1595 1.524 . S
C1597 C1594 1.403 . S
C1597 C1598 1.392 . S
C1597 C1601 1.495 . S
C1598 C1597 1.392 . S
C1598 C1599 1.385 . S
C1598 C1600 1.478 . S
C1599 H1593 0.930 . S
C1599 C1595 1.400 . S
C1599 C1598 1.385 . S
C1600 C1598 1.478 . S
C1600 C1602 1.381 . S
C1600 C1606 1.383 . S
C1601 C1597 1.495 . S
C1601 H1607 0.959 . S
C1601 H1608 0.961 . S
C1601 H1609 0.960 . S
C1602 C1600 1.381 . S
C1602 C1603 1.394 . S
C1602 H1610 0.930 . S
C1603 C1602 1.394 . S
C1603 C1604 1.383 . S
C1603 H1611 0.929 . S
C1604 C1603 1.383 . S
C1604 C1605 1.377 . S
C1605 H1589 0.930 . S
C1605 C1604 1.377 . S
C1605 C1606 1.379 . S
C1606 H1590 0.931 . S
C1606 C1600 1.383 . S
C1606 C1605 1.379 . S
H1607 C1601 0.959 . S
H1608 C1601 0.961 . S
H1609 C1601 0.960 . S
H1610 C1602 0.930 . S
H1611 C1603 0.929 . S
H1612 C1620 0.929 . S
H1613 C1622 0.930 . S
H1614 C1624 0.930 . S
H1615 C1627 0.929 . S
H1616 C1630 0.930 . S
H1617 C1632 0.960 . S
H1618 C1632 0.960 . S
H1619 C1632 0.960 . S
C1620 H1612 0.929 . S
C1620 C1621 1.377 . S
C1620 C1622 1.384 . S
C1621 C1620 1.377 . S
C1621 C1627 1.390 . S
C1622 H1613 0.930 . S
C1622 C1620 1.384 . S
C1622 C1623 1.372 . S
C1623 C1622 1.372 . S
C1623 C1624 1.400 . S
C1623 C1628 1.490 . S
C1624 H1614 0.930 . S
C1624 C1623 1.400 . S
C1624 C1627 1.386 . S
H1625 C1641 0.930 . S
H1626 C1642 0.931 . S
C1627 H1615 0.929 . S
C1627 C1621 1.390 . S
C1627 C1624 1.386 . S
C1628 C1623 1.490 . S
C1628 C1630 1.395 . S
C1628 C1631 1.403 . S
H1629 C1635 0.930 . S
C1630 H1616 0.930 . S
C1630 C1628 1.395 . S
C1630 C1633 1.403 . S
C1631 C1628 1.403 . S
C1631 C1632 1.524 . S
C1631 C1635 1.400 . S
C1632 H1617 0.960 . S
C1632 H1618 0.960 . S
C1632 H1619 0.960 . S
C1632 C1631 1.524 . S
C1633 C1630 1.403 . S
C1633 C1634 1.392 . S
C1633 C1637 1.495 . S
C1634 C1633 1.392 . S
C1634 C1635 1.385 . S
C1634 C1636 1.478 . S
C1635 H1629 0.930 . S
C1635 C1631 1.400 . S
C1635 C1634 1.385 . S
C1636 C1634 1.478 . S
C1636 C1638 1.381 . S
C1636 C1642 1.383 . S
C1637 C1633 1.495 . S
C1637 H1643 0.959 . S
C1637 H1644 0.961 . S
C1637 H1645 0.960 . S
C1638 C1636 1.381 . S
C1638 C1639 1.394 . S
C1638 H1646 0.930 . S
C1639 C1638 1.394 . S
C1639 C1640 1.383 . S
C1639 H1647 0.929 . S
C1640 C1639 1.383 . S
C1640 C1641 1.377 . S
C1641 H1625 0.930 . S
C1641 C1640 1.377 . S
C1641 C1642 1.379 . S
C1642 H1626 0.931 . S
C1642 C1636 1.383 . S
C1642 C1641 1.379 . S
H1643 C1637 0.959 . S
H1644 C1637 0.961 . S
H1645 C1637 0.960 . S
H1646 C1638 0.930 . S
H1647 C1639 0.929 . S
H1648 C1656 0.929 . S
H1649 C1658 0.930 . S
H1650 C1660 0.930 . S
H1651 C1663 0.929 . S
H1652 C1666 0.930 . S
H1653 C1668 0.960 . S
H1654 C1668 0.960 . S
H1655 C1668 0.960 . S
C1656 H1648 0.929 . S
C1656 C1657 1.377 . S
C1656 C1658 1.384 . S
C1657 C1656 1.377 . S
C1657 C1663 1.390 . S
C1658 H1649 0.930 . S
C1658 C1656 1.384 . S
C1658 C1659 1.372 . S
C1659 C1658 1.372 . S
C1659 C1660 1.400 . S
C1659 C1664 1.490 . S
C1660 H1650 0.930 . S
C1660 C1659 1.400 . S
C1660 C1663 1.386 . S
H1661 C1677 0.930 . S
H1662 C1678 0.931 . S
C1663 H1651 0.929 . S
C1663 C1657 1.390 . S
C1663 C1660 1.386 . S
C1664 C1659 1.490 . S
C1664 C1666 1.395 . S
C1664 C1667 1.403 . S
H1665 C1671 0.930 . S
C1666 H1652 0.930 . S
C1666 C1664 1.395 . S
C1666 C1669 1.403 . S
C1667 C1664 1.403 . S
C1667 C1668 1.524 . S
C1667 C1671 1.400 . S
C1668 H1653 0.960 . S
C1668 H1654 0.960 . S
C1668 H1655 0.960 . S
C1668 C1667 1.524 . S
C1669 C1666 1.403 . S
C1669 C1670 1.392 . S
C1669 C1673 1.495 . S
C1670 C1669 1.392 . S
C1670 C1671 1.385 . S
C1670 C1672 1.478 . S
C1671 H1665 0.930 . S
C1671 C1667 1.400 . S
C1671 C1670 1.385 . S
C1672 C1670 1.478 . S
C1672 C1674 1.381 . S
C1672 C1678 1.383 . S
C1673 C1669 1.495 . S
C1673 H1679 0.959 . S
C1673 H1680 0.961 . S
C1673 H1681 0.960 . S
C1674 C1672 1.381 . S
C1674 C1675 1.394 . S
C1674 H1682 0.930 . S
C1675 C1674 1.394 . S
C1675 C1676 1.383 . S
C1675 H1683 0.929 . S
C1676 C1675 1.383 . S
C1676 C1677 1.377 . S
C1677 H1661 0.930 . S
C1677 C1676 1.377 . S
C1677 C1678 1.379 . S
C1678 H1662 0.931 . S
C1678 C1672 1.383 . S
C1678 C1677 1.379 . S
H1679 C1673 0.959 . S
H1680 C1673 0.961 . S
H1681 C1673 0.960 . S
H1682 C1674 0.930 . S
H1683 C1675 0.929 . S
H1684 C1692 0.929 . S
H1685 C1694 0.930 . S
H1686 C1696 0.930 . S
H1687 C1699 0.929 . S
H1688 C1702 0.930 . S
H1689 C1704 0.960 . S
H1690 C1704 0.960 . S
H1691 C1704 0.960 . S
C1692 H1684 0.929 . S
C1692 C1693 1.377 . S
C1692 C1694 1.384 . S
C1693 C1692 1.377 . S
C1693 C1699 1.390 . S
C1694 H1685 0.930 . S
C1694 C1692 1.384 . S
C1694 C1695 1.372 . S
C1695 C1694 1.372 . S
C1695 C1696 1.400 . S
C1695 C1700 1.490 . S
C1696 H1686 0.930 . S
C1696 C1695 1.400 . S
C1696 C1699 1.386 . S
H1697 C1713 0.930 . S
H1698 C1714 0.931 . S
C1699 H1687 0.929 . S
C1699 C1693 1.390 . S
C1699 C1696 1.386 . S
C1700 C1695 1.490 . S
C1700 C1702 1.395 . S
C1700 C1703 1.403 . S
H1701 C1707 0.930 . S
C1702 H1688 0.930 . S
C1702 C1700 1.395 . S
C1702 C1705 1.403 . S
C1703 C1700 1.403 . S
C1703 C1704 1.524 . S
C1703 C1707 1.400 . S
C1704 H1689 0.960 . S
C1704 H1690 0.960 . S
C1704 H1691 0.960 . S
C1704 C1703 1.524 . S
C1705 C1702 1.403 . S
C1705 C1706 1.392 . S
C1705 C1709 1.495 . S
C1706 C1705 1.392 . S
C1706 C1707 1.385 . S
C1706 C1708 1.478 . S
C1707 H1701 0.930 . S
C1707 C1703 1.400 . S
C1707 C1706 1.385 . S
C1708 C1706 1.478 . S
C1708 C1710 1.381 . S
C1708 C1714 1.383 . S
C1709 C1705 1.495 . S
C1709 H1715 0.959 . S
C1709 H1716 0.961 . S
C1709 H1717 0.960 . S
C1710 C1708 1.381 . S
C1710 C1711 1.394 . S
C1710 H1718 0.930 . S
C1711 C1710 1.394 . S
C1711 C1712 1.383 . S
C1711 H1719 0.929 . S
C1712 C1711 1.383 . S
C1712 C1713 1.377 . S
C1713 H1697 0.930 . S
C1713 C1712 1.377 . S
C1713 C1714 1.379 . S
C1714 H1698 0.931 . S
C1714 C1708 1.383 . S
C1714 C1713 1.379 . S
H1715 C1709 0.959 . S
H1716 C1709 0.961 . S
H1717 C1709 0.960 . S
H1718 C1710 0.930 . S
H1719 C1711 0.929 . S
H1720 C1728 0.929 . S
H1721 C1730 0.930 . S
H1722 C1732 0.930 . S
H1723 C1735 0.929 . S
H1724 C1738 0.930 . S
H1725 C1740 0.960 . S
H1726 C1740 0.960 . S
H1727 C1740 0.960 . S
C1728 H1720 0.929 . S
C1728 C1729 1.377 . S
C1728 C1730 1.384 . S
C1729 C1728 1.377 . S
C1729 C1735 1.390 . S
C1730 H1721 0.930 . S
C1730 C1728 1.384 . S
C1730 C1731 1.372 . S
C1731 C1730 1.372 . S
C1731 C1732 1.400 . S
C1731 C1736 1.490 . S
C1732 H1722 0.930 . S
C1732 C1731 1.400 . S
C1732 C1735 1.386 . S
H1733 C1749 0.930 . S
H1734 C1750 0.931 . S
C1735 H1723 0.929 . S
C1735 C1729 1.390 . S
C1735 C1732 1.386 . S
C1736 C1731 1.490 . S
C1736 C1738 1.395 . S
C1736 C1739 1.403 . S
H1737 C1743 0.930 . S
C1738 H1724 0.930 . S
C1738 C1736 1.395 . S
C1738 C1741 1.403 . S
C1739 C1736 1.403 . S
C1739 C1740 1.524 . S
C1739 C1743 1.400 . S
C1740 H1725 0.960 . S
C1740 H1726 0.960 . S
C1740 H1727 0.960 . S
C1740 C1739 1.524 . S
C1741 C1738 1.403 . S
C1741 C1742 1.392 . S
C1741 C1745 1.495 . S
C1742 C1741 1.392 . S
C1742 C1743 1.385 . S
C1742 C1744 1.478 . S
C1743 H1737 0.930 . S
C1743 C1739 1.400 . S
C1743 C1742 1.385 . S
C1744 C1742 1.478 . S
C1744 C1746 1.381 . S
C1744 C1750 1.383 . S
C1745 C1741 1.495 . S
C1745 H1751 0.959 . S
C1745 H1752 0.961 . S
C1745 H1753 0.960 . S
C1746 C1744 1.381 . S
C1746 C1747 1.394 . S
C1746 H1754 0.930 . S
C1747 C1746 1.394 . S
C1747 C1748 1.383 . S
C1747 H1755 0.929 . S
C1748 C1747 1.383 . S
C1748 C1749 1.377 . S
C1749 H1733 0.930 . S
C1749 C1748 1.377 . S
C1749 C1750 1.379 . S
C1750 H1734 0.931 . S
C1750 C1744 1.383 . S
C1750 C1749 1.379 . S
H1751 C1745 0.959 . S
H1752 C1745 0.961 . S
H1753 C1745 0.960 . S
H1754 C1746 0.930 . S
H1755 C1747 0.929 . S
H1756 C1764 0.929 . S
H1757 C1766 0.930 . S
H1758 C1768 0.930 . S
H1759 C1771 0.929 . S
H1760 C1774 0.930 . S
H1761 C1776 0.960 . S
H1762 C1776 0.960 . S
H1763 C1776 0.960 . S
C1764 H1756 0.929 . S
C1764 C1765 1.377 . S
C1764 C1766 1.384 . S
C1765 C1764 1.377 . S
C1765 C1771 1.390 . S
C1766 H1757 0.930 . S
C1766 C1764 1.384 . S
C1766 C1767 1.372 . S
C1767 C1766 1.372 . S
C1767 C1768 1.400 . S
C1767 C1772 1.490 . S
C1768 H1758 0.930 . S
C1768 C1767 1.400 . S
C1768 C1771 1.386 . S
H1769 C1785 0.930 . S
H1770 C1786 0.931 . S
C1771 H1759 0.929 . S
C1771 C1765 1.390 . S
C1771 C1768 1.386 . S
C1772 C1767 1.490 . S
C1772 C1774 1.395 . S
C1772 C1775 1.403 . S
H1773 C1779 0.930 . S
C1774 H1760 0.930 . S
C1774 C1772 1.395 . S
C1774 C1777 1.403 . S
C1775 C1772 1.403 . S
C1775 C1776 1.524 . S
C1775 C1779 1.400 . S
C1776 H1761 0.960 . S
C1776 H1762 0.960 . S
C1776 H1763 0.960 . S
C1776 C1775 1.524 . S
C1777 C1774 1.403 . S
C1777 C1778 1.392 . S
C1777 C1781 1.495 . S
C1778 C1777 1.392 . S
C1778 C1779 1.385 . S
C1778 C1780 1.478 . S
C1779 H1773 0.930 . S
C1779 C1775 1.400 . S
C1779 C1778 1.385 . S
C1780 C1778 1.478 . S
C1780 C1782 1.381 . S
C1780 C1786 1.383 . S
C1781 C1777 1.495 . S
C1781 H1787 0.959 . S
C1781 H1788 0.961 . S
C1781 H1789 0.960 . S
C1782 C1780 1.381 . S
C1782 C1783 1.394 . S
C1782 H1790 0.930 . S
C1783 C1782 1.394 . S
C1783 C1784 1.383 . S
C1783 H1791 0.929 . S
C1784 C1783 1.383 . S
C1784 C1785 1.377 . S
C1785 H1769 0.930 . S
C1785 C1784 1.377 . S
C1785 C1786 1.379 . S
C1786 H1770 0.931 . S
C1786 C1780 1.383 . S
C1786 C1785 1.379 . S
H1787 C1781 0.959 . S
H1788 C1781 0.961 . S
H1789 C1781 0.960 . S
H1790 C1782 0.930 . S
H1791 C1783 0.929 . S
H1792 C1800 0.929 . S
H1793 C1802 0.930 . S
H1794 C1804 0.930 . S
H1795 C1807 0.929 . S
H1796 C1810 0.930 . S
H1797 C1812 0.960 . S
H1798 C1812 0.960 . S
H1799 C1812 0.960 . S
C1800 H1792 0.929 . S
C1800 C1801 1.377 . S
C1800 C1802 1.384 . S
C1801 C1800 1.377 . S
C1801 C1807 1.390 . S
C1802 H1793 0.930 . S
C1802 C1800 1.384 . S
C1802 C1803 1.372 . S
C1803 C1802 1.372 . S
C1803 C1804 1.400 . S
C1803 C1808 1.490 . S
C1804 H1794 0.930 . S
C1804 C1803 1.400 . S
C1804 C1807 1.386 . S
H1805 C1821 0.930 . S
H1806 C1822 0.931 . S
C1807 H1795 0.929 . S
C1807 C1801 1.390 . S
C1807 C1804 1.386 . S
C1808 C1803 1.490 . S
C1808 C1810 1.395 . S
C1808 C1811 1.403 . S
H1809 C1815 0.930 . S
C1810 H1796 0.930 . S
C1810 C1808 1.395 . S
C1810 C1813 1.403 . S
C1811 C1808 1.403 . S
C1811 C1812 1.524 . S
C1811 C1815 1.400 . S
C1812 H1797 0.960 . S
C1812 H1798 0.960 . S
C1812 H1799 0.960 . S
C1812 C1811 1.524 . S
C1813 C1810 1.403 . S
C1813 C1814 1.392 . S
C1813 C1817 1.495 . S
C1814 C1813 1.392 . S
C1814 C1815 1.385 . S
C1814 C1816 1.478 . S
C1815 H1809 0.930 . S
C1815 C1811 1.400 . S
C1815 C1814 1.385 . S
C1816 C1814 1.478 . S
C1816 C1818 1.381 . S
C1816 C1822 1.383 . S
C1817 C1813 1.495 . S
C1817 H1823 0.959 . S
C1817 H1824 0.961 . S
C1817 H1825 0.960 . S
C1818 C1816 1.381 . S
C1818 C1819 1.394 . S
C1818 H1826 0.930 . S
C1819 C1818 1.394 . S
C1819 C1820 1.383 . S
C1819 H1827 0.929 . S
C1820 C1819 1.383 . S
C1820 C1821 1.377 . S
C1821 H1805 0.930 . S
C1821 C1820 1.377 . S
C1821 C1822 1.379 . S
C1822 H1806 0.931 . S
C1822 C1816 1.383 . S
C1822 C1821 1.379 . S
H1823 C1817 0.959 . S
H1824 C1817 0.961 . S
H1825 C1817 0.960 . S
H1826 C1818 0.930 . S
H1827 C1819 0.929 . S
H1828 C1836 0.929 . S
H1829 C1838 0.930 . S
H1830 C1840 0.930 . S
H1831 C1843 0.929 . S
H1832 C1846 0.930 . S
H1833 C1848 0.960 . S
H1834 C1848 0.960 . S
H1835 C1848 0.960 . S
C1836 H1828 0.929 . S
C1836 C1837 1.377 . S
C1836 C1838 1.384 . S
C1837 C1836 1.377 . S
C1837 C1843 1.390 . S
C1838 H1829 0.930 . S
C1838 C1836 1.384 . S
C1838 C1839 1.372 . S
C1839 C1838 1.372 . S
C1839 C1840 1.400 . S
C1839 C1844 1.490 . S
C1840 H1830 0.930 . S
C1840 C1839 1.400 . S
C1840 C1843 1.386 . S
H1841 C1857 0.930 . S
H1842 C1858 0.931 . S
C1843 H1831 0.929 . S
C1843 C1837 1.390 . S
C1843 C1840 1.386 . S
C1844 C1839 1.490 . S
C1844 C1846 1.395 . S
C1844 C1847 1.403 . S
H1845 C1851 0.930 . S
C1846 H1832 0.930 . S
C1846 C1844 1.395 . S
C1846 C1849 1.403 . S
C1847 C1844 1.403 . S
C1847 C1848 1.524 . S
C1847 C1851 1.400 . S
C1848 H1833 0.960 . S
C1848 H1834 0.960 . S
C1848 H1835 0.960 . S
C1848 C1847 1.524 . S
C1849 C1846 1.403 . S
C1849 C1850 1.392 . S
C1849 C1853 1.495 . S
C1850 C1849 1.392 . S
C1850 C1851 1.385 . S
C1850 C1852 1.478 . S
C1851 H1845 0.930 . S
C1851 C1847 1.400 . S
C1851 C1850 1.385 . S
C1852 C1850 1.478 . S
C1852 C1854 1.381 . S
C1852 C1858 1.383 . S
C1853 C1849 1.495 . S
C1853 H1859 0.959 . S
C1853 H1860 0.961 . S
C1853 H1861 0.960 . S
C1854 C1852 1.381 . S
C1854 C1855 1.394 . S
C1854 H1862 0.930 . S
C1855 C1854 1.394 . S
C1855 C1856 1.383 . S
C1855 H1863 0.929 . S
C1856 C1855 1.383 . S
C1856 C1857 1.377 . S
C1857 H1841 0.930 . S
C1857 C1856 1.377 . S
C1857 C1858 1.379 . S
C1858 H1842 0.931 . S
C1858 C1852 1.383 . S
C1858 C1857 1.379 . S
H1859 C1853 0.959 . S
H1860 C1853 0.961 . S
H1861 C1853 0.960 . S
H1862 C1854 0.930 . S
H1863 C1855 0.929 . S
H1864 C1872 0.929 . S
H1865 C1874 0.930 . S
H1866 C1876 0.930 . S
H1867 C1879 0.929 . S
H1868 C1882 0.930 . S
H1869 C1884 0.960 . S
H1870 C1884 0.960 . S
H1871 C1884 0.960 . S
C1872 H1864 0.929 . S
C1872 C1873 1.377 . S
C1872 C1874 1.384 . S
C1873 C1872 1.377 . S
C1873 C1879 1.390 . S
C1874 H1865 0.930 . S
C1874 C1872 1.384 . S
C1874 C1875 1.372 . S
C1875 C1874 1.372 . S
C1875 C1876 1.400 . S
C1875 C1880 1.490 . S
C1876 H1866 0.930 . S
C1876 C1875 1.400 . S
C1876 C1879 1.386 . S
H1877 C1893 0.930 . S
H1878 C1894 0.931 . S
C1879 H1867 0.929 . S
C1879 C1873 1.390 . S
C1879 C1876 1.386 . S
C1880 C1875 1.490 . S
C1880 C1882 1.395 . S
C1880 C1883 1.403 . S
H1881 C1887 0.930 . S
C1882 H1868 0.930 . S
C1882 C1880 1.395 . S
C1882 C1885 1.403 . S
C1883 C1880 1.403 . S
C1883 C1884 1.524 . S
C1883 C1887 1.400 . S
C1884 H1869 0.960 . S
C1884 H1870 0.960 . S
C1884 H1871 0.960 . S
C1884 C1883 1.524 . S
C1885 C1882 1.403 . S
C1885 C1886 1.392 . S
C1885 C1889 1.495 . S
C1886 C1885 1.392 . S
C1886 C1887 1.385 . S
C1886 C1888 1.478 . S
C1887 H1881 0.930 . S
C1887 C1883 1.400 . S
C1887 C1886 1.385 . S
C1888 C1886 1.478 . S
C1888 C1890 1.381 . S
C1888 C1894 1.383 . S
C1889 C1885 1.495 . S
C1889 H1895 0.959 . S
C1889 H1896 0.961 . S
C1889 H1897 0.960 . S
C1890 C1888 1.381 . S
C1890 C1891 1.394 . S
C1890 H1898 0.930 . S
C1891 C1890 1.394 . S
C1891 C1892 1.383 . S
C1891 H1899 0.929 . S
C1892 C1891 1.383 . S
C1892 C1893 1.377 . S
C1893 H1877 0.930 . S
C1893 C1892 1.377 . S
C1893 C1894 1.379 . S
C1894 H1878 0.931 . S
C1894 C1888 1.383 . S
C1894 C1893 1.379 . S
H1895 C1889 0.959 . S
H1896 C1889 0.961 . S
H1897 C1889 0.960 . S
H1898 C1890 0.930 . S
H1899 C1891 0.929 . S
H1900 C1908 0.929 . S
H1901 C1910 0.930 . S
H1902 C1912 0.930 . S
H1903 C1915 0.929 . S
H1904 C1918 0.930 . S
H1905 C1920 0.960 . S
H1906 C1920 0.960 . S
H1907 C1920 0.960 . S
C1908 H1900 0.929 . S
C1908 C1909 1.377 . S
C1908 C1910 1.384 . S
C1909 C1908 1.377 . S
C1909 C1915 1.390 . S
C1910 H1901 0.930 . S
C1910 C1908 1.384 . S
C1910 C1911 1.372 . S
C1911 C1910 1.372 . S
C1911 C1912 1.400 . S
C1911 C1916 1.490 . S
C1912 H1902 0.930 . S
C1912 C1911 1.400 . S
C1912 C1915 1.386 . S
H1913 C1929 0.930 . S
H1914 C1930 0.931 . S
C1915 H1903 0.929 . S
C1915 C1909 1.390 . S
C1915 C1912 1.386 . S
C1916 C1911 1.490 . S
C1916 C1918 1.395 . S
C1916 C1919 1.403 . S
H1917 C1923 0.930 . S
C1918 H1904 0.930 . S
C1918 C1916 1.395 . S
C1918 C1921 1.403 . S
C1919 C1916 1.403 . S
C1919 C1920 1.524 . S
C1919 C1923 1.400 . S
C1920 H1905 0.960 . S
C1920 H1906 0.960 . S
C1920 H1907 0.960 . S
C1920 C1919 1.524 . S
C1921 C1918 1.403 . S
C1921 C1922 1.392 . S
C1921 C1925 1.495 . S
C1922 C1921 1.392 . S
C1922 C1923 1.385 . S
C1922 C1924 1.478 . S
C1923 H1917 0.930 . S
C1923 C1919 1.400 . S
C1923 C1922 1.385 . S
C1924 C1922 1.478 . S
C1924 C1926 1.381 . S
C1924 C1930 1.383 . S
C1925 C1921 1.495 . S
C1925 H1931 0.959 . S
C1925 H1932 0.961 . S
C1925 H1933 0.960 . S
C1926 C1924 1.381 . S
C1926 C1927 1.394 . S
C1926 H1934 0.930 . S
C1927 C1926 1.394 . S
C1927 C1928 1.383 . S
C1927 H1935 0.929 . S
C1928 C1927 1.383 . S
C1928 C1929 1.377 . S
C1929 H1913 0.930 . S
C1929 C1928 1.377 . S
C1929 C1930 1.379 . S
C1930 H1914 0.931 . S
C1930 C1924 1.383 . S
C1930 C1929 1.379 . S
H1931 C1925 0.959 . S
H1932 C1925 0.961 . S
H1933 C1925 0.960 . S
H1934 C1926 0.930 . S
H1935 C1927 0.929 . S
H1936 C1944 0.929 . S
H1937 C1946 0.930 . S
H1938 C1948 0.930 . S
H1939 C1951 0.929 . S
H1940 C1954 0.930 . S
H1941 C1956 0.960 . S
H1942 C1956 0.960 . S
H1943 C1956 0.960 . S
C1944 H1936 0.929 . S
C1944 C1945 1.377 . S
C1944 C1946 1.384 . S
C1945 C1944 1.377 . S
C1945 C1951 1.390 . S
C1946 H1937 0.930 . S
C1946 C1944 1.384 . S
C1946 C1947 1.372 . S
C1947 C1946 1.372 . S
C1947 C1948 1.400 . S
C1947 C1952 1.490 . S
C1948 H1938 0.930 . S
C1948 C1947 1.400 . S
C1948 C1951 1.386 . S
H1949 C1965 0.930 . S
H1950 C1966 0.931 . S
C1951 H1939 0.929 . S
C1951 C1945 1.390 . S
C1951 C1948 1.386 . S
C1952 C1947 1.490 . S
C1952 C1954 1.395 . S
C1952 C1955 1.403 . S
H1953 C1959 0.930 . S
C1954 H1940 0.930 . S
C1954 C1952 1.395 . S
C1954 C1957 1.403 . S
C1955 C1952 1.403 . S
C1955 C1956 1.524 . S
C1955 C1959 1.400 . S
C1956 H1941 0.960 . S
C1956 H1942 0.960 . S
C1956 H1943 0.960 . S
C1956 C1955 1.524 . S
C1957 C1954 1.403 . S
C1957 C1958 1.392 . S
C1957 C1961 1.495 . S
C1958 C1957 1.392 . S
C1958 C1959 1.385 . S
C1958 C1960 1.478 . S
C1959 H1953 0.930 . S
C1959 C1955 1.400 . S
C1959 C1958 1.385 . S
C1960 C1958 1.478 . S
C1960 C1962 1.381 . S
C1960 C1966 1.383 . S
C1961 C1957 1.495 . S
C1961 H1967 0.959 . S
C1961 H1968 0.961 . S
C1961 H1969 0.960 . S
C1962 C1960 1.381 . S
C1962 C1963 1.394 . S
C1962 H1970 0.930 . S
C1963 C1962 1.394 . S
C1963 C1964 1.383 . S
C1963 H1971 0.929 . S
C1964 C1963 1.383 . S
C1964 C1965 1.377 . S
C1965 H1949 0.930 . S
C1965 C1964 1.377 . S
C1965 C1966 1.379 . S
C1966 H1950 0.931 . S
C1966 C1960 1.383 . S
C1966 C1965 1.379 . S
H1967 C1961 0.959 . S
H1968 C1961 0.961 . S
H1969 C1961 0.960 . S
H1970 C1962 0.930 . S
H1971 C1963 0.929 . S
H1972 C1980 0.929 . S
H1973 C1982 0.930 . S
H1974 C1984 0.930 . S
H1975 C1987 0.929 . S
H1976 C1990 0.930 . S
H1977 C1992 0.960 . S
H1978 C1992 0.960 . S
H1979 C1992 0.960 . S
C1980 H1972 0.929 . S
C1980 C1981 1.377 . S
C1980 C1982 1.384 . S
C1981 C1980 1.377 . S
C1981 C1987 1.390 . S
C1982 H1973 0.930 . S
C1982 C1980 1.384 . S
C1982 C1983 1.372 . S
C1983 C1982 1.372 . S
C1983 C1984 1.400 . S
C1983 C1988 1.490 . S
C1984 H1974 0.930 . S
C1984 C1983 1.400 . S
C1984 C1987 1.386 . S
H1985 C2001 0.930 . S
H1986 C2002 0.931 . S
C1987 H1975 0.929 . S
C1987 C1981 1.390 . S
C1987 C1984 1.386 . S
C1988 C1983 1.490 . S
C1988 C1990 1.395 . S
C1988 C1991 1.403 . S
H1989 C1995 0.930 . S
C1990 H1976 0.930 . S
C1990 C1988 1.395 . S
C1990 C1993 1.403 . S
C1991 C1988 1.403 . S
C1991 C1992 1.524 . S
C1991 C1995 1.400 . S
C1992 H1977 0.960 . S
C1992 H1978 0.960 . S
C1992 H1979 0.960 . S
C1992 C1991 1.524 . S
C1993 C1990 1.403 . S
C1993 C1994 1.392 . S
C1993 C1997 1.495 . S
C1994 C1993 1.392 . S
C1994 C1995 1.385 . S
C1994 C1996 1.478 . S
C1995 H1989 0.930 . S
C1995 C1991 1.400 . S
C1995 C1994 1.385 . S
C1996 C1994 1.478 . S
C1996 C1998 1.381 . S
C1996 C2002 1.383 . S
C1997 C1993 1.495 . S
C1997 H2003 0.959 . S
C1997 H2004 0.961 . S
C1997 H2005 0.960 . S
C1998 C1996 1.381 . S
C1998 C1999 1.394 . S
C1998 H2006 0.930 . S
C1999 C1998 1.394 . S
C1999 C2000 1.383 . S
C1999 H2007 0.929 . S
C2000 C1999 1.383 . S
C2000 C2001 1.377 . S
C2001 H1985 0.930 . S
C2001 C2000 1.377 . S
C2001 C2002 1.379 . S
C2002 H1986 0.931 . S
C2002 C1996 1.383 . S
C2002 C2001 1.379 . S
H2003 C1997 0.959 . S
H2004 C1997 0.961 . S
H2005 C1997 0.960 . S
H2006 C1998 0.930 . S
H2007 C1999 0.929 . S
H2008 C2016 0.929 . S
H2009 C2018 0.930 . S
H2010 C2020 0.930 . S
H2011 C2023 0.929 . S
H2012 C2026 0.930 . S
H2013 C2028 0.960 . S
H2014 C2028 0.960 . S
H2015 C2028 0.960 . S
C2016 H2008 0.929 . S
C2016 C2017 1.377 . S
C2016 C2018 1.384 . S
C2017 C2016 1.377 . S
C2017 C2023 1.390 . S
C2018 H2009 0.930 . S
C2018 C2016 1.384 . S
C2018 C2019 1.372 . S
C2019 C2018 1.372 . S
C2019 C2020 1.400 . S
C2019 C2024 1.490 . S
C2020 H2010 0.930 . S
C2020 C2019 1.400 . S
C2020 C2023 1.386 . S
H2021 C2037 0.930 . S
H2022 C2038 0.931 . S
C2023 H2011 0.929 . S
C2023 C2017 1.390 . S
C2023 C2020 1.386 . S
C2024 C2019 1.490 . S
C2024 C2026 1.395 . S
C2024 C2027 1.403 . S
H2025 C2031 0.930 . S
C2026 H2012 0.930 . S
C2026 C2024 1.395 . S
C2026 C2029 1.403 . S
C2027 C2024 1.403 . S
C2027 C2028 1.524 . S
C2027 C2031 1.400 . S
C2028 H2013 0.960 . S
C2028 H2014 0.960 . S
C2028 H2015 0.960 . S
C2028 C2027 1.524 . S
C2029 C2026 1.403 . S
C2029 C2030 1.392 . S
C2029 C2033 1.495 . S
C2030 C2029 1.392 . S
C2030 C2031 1.385 . S
C2030 C2032 1.478 . S
C2031 H2025 0.930 . S
C2031 C2027 1.400 . S
C2031 C2030 1.385 . S
C2032 C2030 1.478 . S
C2032 C2034 1.381 . S
C2032 C2038 1.383 . S
C2033 C2029 1.495 . S
C2033 H2039 0.959 . S
C2033 H2040 0.961 . S
C2033 H2041 0.960 . S
C2034 C2032 1.381 . S
C2034 C2035 1.394 . S
C2034 H2042 0.930 . S
C2035 C2034 1.394 . S
C2035 C2036 1.383 . S
C2035 H2043 0.929 . S
C2036 C2035 1.383 . S
C2036 C2037 1.377 . S
C2037 H2021 0.930 . S
C2037 C2036 1.377 . S
C2037 C2038 1.379 . S
C2038 H2022 0.931 . S
C2038 C2032 1.383 . S
C2038 C2037 1.379 . S
H2039 C2033 0.959 . S
H2040 C2033 0.961 . S
H2041 C2033 0.960 . S
H2042 C2034 0.930 . S
H2043 C2035 0.929 . S
H2044 C2052 0.929 . S
H2045 C2054 0.930 . S
H2046 C2056 0.930 . S
H2047 C2059 0.929 . S
H2048 C2062 0.930 . S
H2049 C2064 0.960 . S
H2050 C2064 0.960 . S
H2051 C2064 0.960 . S
C2052 H2044 0.929 . S
C2052 C2053 1.377 . S
C2052 C2054 1.384 . S
C2053 C2052 1.377 . S
C2053 C2059 1.390 . S
C2054 H2045 0.930 . S
C2054 C2052 1.384 . S
C2054 C2055 1.372 . S
C2055 C2054 1.372 . S
C2055 C2056 1.400 . S
C2055 C2060 1.490 . S
C2056 H2046 0.930 . S
C2056 C2055 1.400 . S
C2056 C2059 1.386 . S
H2057 C2073 0.930 . S
H2058 C2074 0.931 . S
C2059 H2047 0.929 . S
C2059 C2053 1.390 . S
C2059 C2056 1.386 . S
C2060 C2055 1.490 . S
C2060 C2062 1.395 . S
C2060 C2063 1.403 . S
H2061 C2067 0.930 . S
C2062 H2048 0.930 . S
C2062 C2060 1.395 . S
C2062 C2065 1.403 . S
C2063 C2060 1.403 . S
C2063 C2064 1.524 . S
C2063 C2067 1.400 . S
C2064 H2049 0.960 . S
C2064 H2050 0.960 . S
C2064 H2051 0.960 . S
C2064 C2063 1.524 . S
C2065 C2062 1.403 . S
C2065 C2066 1.392 . S
C2065 C2069 1.495 . S
C2066 C2065 1.392 . S
C2066 C2067 1.385 . S
C2066 C2068 1.478 . S
C2067 H2061 0.930 . S
C2067 C2063 1.400 . S
C2067 C2066 1.385 . S
C2068 C2066 1.478 . S
C2068 C2070 1.381 . S
C2068 C2074 1.383 . S
C2069 C2065 1.495 . S
C2069 H2075 0.959 . S
C2069 H2076 0.961 . S
C2069 H2077 0.960 . S
C2070 C2068 1.381 . S
C2070 C2071 1.394 . S
C2070 H2078 0.930 . S
C2071 C2070 1.394 . S
C2071 C2072 1.383 . S
C2071 H2079 0.929 . S
C2072 C2071 1.383 . S
C2072 C2073 1.377 . S
C2073 H2057 0.930 . S
C2073 C2072 1.377 . S
C2073 C2074 1.379 . S
C2074 H2058 0.931 . S
C2074 C2068 1.383 . S
C2074 C2073 1.379 . S
H2075 C2069 0.959 . S
H2076 C2069 0.961 . S
H2077 C2069 0.960 . S
H2078 C2070 0.930 . S
H2079 C2071 0.929 . S
C361 C49 1.269 . S
C380 C5 1.297 . S
C397 C60 1.269 . S
C416 C16 1.299 . S
C433 C27 1.273 . S
C452 C71 1.315 . S
C469 C38 1.263 . S
C488 C82 1.273 . S
C505 C137 1.427 . S
C524 C93 1.433 . S
C541 C148 1.429 . S
C560 C104 1.404 . S
C577 C115 1.437 . S
C596 C159 1.467 . S
C613 C170 1.438 . S
C632 C126 1.463 . S
C649 C181 1.261 . S
C668 C225 1.256 . S
C685 C236 1.251 . S
C704 C192 1.208 . S
C721 C203 1.259 . S
C740 C247 1.247 . S
C757 C258 1.255 . S
C776 C214 1.230 . S
C793 C269 1.438 . S
C812 C313 1.465 . S
C829 C324 1.422 . S
C848 C280 1.392 . S
C865 C291 1.426 . S
C884 C335 1.393 . S
C901 C346 1.432 . S
C920 C302 1.416 . S
C937 C139 1.523 . S
C956 C7 1.470 . S
C973 C18 1.485 . S
C992 C326 1.528 . S
C1009 C161 1.524 . S
C1028 C29 1.488 . S
C1045 C40 1.485 . S
C1064 C348 1.530 . S
C1081 C95 1.519 . S
C1100 C51 1.457 . S
C1117 C282 1.519 . S
C1136 C62 1.456 . S
C1153 C73 1.484 . S
C1172 C117 1.534 . S
C1189 C304 1.525 . S
C1208 C84 1.504 . S
C1225 C106 1.520 . S
C1244 C238 1.450 . S
C1261 C128 1.522 . S
C1280 C260 1.468 . S
C1297 C150 1.525 . S
C1316 C194 1.504 . S
C1333 C216 1.476 . S
C1352 C172 1.513 . S
C1369 C315 1.519 . S
C1388 C183 1.458 . S
C1405 C337 1.522 . S
C1424 C205 1.487 . S
C1441 C227 1.477 . S
C1460 C271 1.507 . S
C1477 C293 1.524 . S
C1496 C249 1.500 . S
C1513 C261 1.535 . S
C1532 C8 1.524 . S
C1549 C19 1.537 . S
C1568 C228 1.545 . S
C1585 C30 1.531 . S
C1604 C239 1.508 . S
C1621 C250 1.536 . S
C1640 C41 1.550 . S
C1657 C52 1.528 . S
C1676 C195 1.519 . S
C1693 C63 1.531 . S
C1712 C206 1.508 . S
C1729 C217 1.537 . S
C1748 C74 1.538 . S
C1765 C184 1.537 . S
C1784 C85 1.532 . S
C1801 C349 1.571 . S
C1820 C96 1.573 . S
C1837 C107 1.572 . S
C1856 C316 1.571 . S
C1873 C327 1.570 . S
C1892 C118 1.561 . S
C1909 C338 1.571 . S
C1928 C129 1.563 . S
C1945 C140 1.571 . S
C1964 C283 1.565 . S
C1981 C294 1.571 . S
C2000 C151 1.573 . S
C2017 C305 1.572 . S
C2036 C162 1.569 . S
C2053 C173 1.572 . S
C2072 C272 1.569 . S
