# Generated by pormake.
# Topology unb, (4)-cn, num edge types: 1
# Building blocks:
#     Node 0, Type 0, BuildingBlock: KUFVIS_clean_sbu_0, # of connection points: 4
#     Node 1, Type 0, BuildingBlock: KUFVIS_clean_sbu_0, # of connection points: 4
#     Node 2, Type 0, BuildingBlock: KUFVIS_clean_sbu_0, # of connection points: 4
#     Node 3, Type 0, BuildingBlock: KUFVIS_clean_sbu_0, # of connection points: 4
#     Node 4, Type 0, BuildingBlock: KUFVIS_clean_sbu_0, # of connection points: 4
#     Node 5, Type 0, BuildingBlock: KUFVIS_clean_sbu_0, # of connection points: 4
#     Node 6, Type 0, BuildingBlock: KUFVIS_clean_sbu_0, # of connection points: 4
#     Node 7, Type 0, BuildingBlock: KUFVIS_clean_sbu_0, # of connection points: 4
#     Node 8, Type 0, BuildingBlock: KUFVIS_clean_sbu_0, # of connection points: 4
#     Node 9, Type 0, BuildingBlock: KUFVIS_clean_sbu_0, # of connection points: 4
#     Node 10, Type 0, BuildingBlock: KUFVIS_clean_sbu_0, # of connection points: 4
#     Node 11, Type 0, BuildingBlock: KUFVIS_clean_sbu_0, # of connection points: 4
#     Node 12, Type 0, BuildingBlock: KUFVIS_clean_sbu_0, # of connection points: 4
#     Node 13, Type 0, BuildingBlock: KUFVIS_clean_sbu_0, # of connection points: 4
#     Node 14, Type 0, BuildingBlock: KUFVIS_clean_sbu_0, # of connection points: 4
#     Node 15, Type 0, BuildingBlock: KUFVIS_clean_sbu_0, # of connection points: 4
#     Node 16, Type 0, BuildingBlock: KUFVIS_clean_sbu_0, # of connection points: 4
#     Node 17, Type 0, BuildingBlock: KUFVIS_clean_sbu_0, # of connection points: 4
#     Edge 18, Type (0, 0), BuildingBlock: UVAHIK_clean_linker_0, # of connection points: 2
#     Edge 19, Type (0, 0), BuildingBlock: UVAHIK_clean_linker_0, # of connection points: 2
#     Edge 20, Type (0, 0), BuildingBlock: UVAHIK_clean_linker_0, # of connection points: 2
#     Edge 21, Type (0, 0), BuildingBlock: UVAHIK_clean_linker_0, # of connection points: 2
#     Edge 22, Type (0, 0), BuildingBlock: UVAHIK_clean_linker_0, # of connection points: 2
#     Edge 23, Type (0, 0), BuildingBlock: UVAHIK_clean_linker_0, # of connection points: 2
#     Edge 24, Type (0, 0), BuildingBlock: UVAHIK_clean_linker_0, # of connection points: 2
#     Edge 25, Type (0, 0), BuildingBlock: UVAHIK_clean_linker_0, # of connection points: 2
#     Edge 26, Type (0, 0), BuildingBlock: UVAHIK_clean_linker_0, # of connection points: 2
#     Edge 27, Type (0, 0), BuildingBlock: UVAHIK_clean_linker_0, # of connection points: 2
#     Edge 28, Type (0, 0), BuildingBlock: UVAHIK_clean_linker_0, # of connection points: 2
#     Edge 29, Type (0, 0), BuildingBlock: UVAHIK_clean_linker_0, # of connection points: 2
#     Edge 30, Type (0, 0), BuildingBlock: UVAHIK_clean_linker_0, # of connection points: 2
#     Edge 31, Type (0, 0), BuildingBlock: UVAHIK_clean_linker_0, # of connection points: 2
#     Edge 32, Type (0, 0), BuildingBlock: UVAHIK_clean_linker_0, # of connection points: 2
#     Edge 33, Type (0, 0), BuildingBlock: UVAHIK_clean_linker_0, # of connection points: 2
#     Edge 34, Type (0, 0), BuildingBlock: UVAHIK_clean_linker_0, # of connection points: 2
#     Edge 35, Type (0, 0), BuildingBlock: UVAHIK_clean_linker_0, # of connection points: 2
#     Edge 36, Type (0, 0), BuildingBlock: UVAHIK_clean_linker_0, # of connection points: 2
#     Edge 37, Type (0, 0), BuildingBlock: UVAHIK_clean_linker_0, # of connection points: 2
#     Edge 38, Type (0, 0), BuildingBlock: UVAHIK_clean_linker_0, # of connection points: 2
#     Edge 39, Type (0, 0), BuildingBlock: UVAHIK_clean_linker_0, # of connection points: 2
#     Edge 40, Type (0, 0), BuildingBlock: UVAHIK_clean_linker_0, # of connection points: 2
#     Edge 41, Type (0, 0), BuildingBlock: UVAHIK_clean_linker_0, # of connection points: 2
#     Edge 42, Type (0, 0), BuildingBlock: UVAHIK_clean_linker_0, # of connection points: 2
#     Edge 43, Type (0, 0), BuildingBlock: UVAHIK_clean_linker_0, # of connection points: 2
#     Edge 44, Type (0, 0), BuildingBlock: UVAHIK_clean_linker_0, # of connection points: 2
#     Edge 45, Type (0, 0), BuildingBlock: UVAHIK_clean_linker_0, # of connection points: 2
#     Edge 46, Type (0, 0), BuildingBlock: UVAHIK_clean_linker_0, # of connection points: 2
#     Edge 47, Type (0, 0), BuildingBlock: UVAHIK_clean_linker_0, # of connection points: 2
#     Edge 48, Type (0, 0), BuildingBlock: UVAHIK_clean_linker_0, # of connection points: 2
#     Edge 49, Type (0, 0), BuildingBlock: UVAHIK_clean_linker_0, # of connection points: 2
#     Edge 50, Type (0, 0), BuildingBlock: UVAHIK_clean_linker_0, # of connection points: 2
#     Edge 51, Type (0, 0), BuildingBlock: UVAHIK_clean_linker_0, # of connection points: 2
#     Edge 52, Type (0, 0), BuildingBlock: UVAHIK_clean_linker_0, # of connection points: 2
#     Edge 53, Type (0, 0), BuildingBlock: UVAHIK_clean_linker_0, # of connection points: 2
# Relax obj value: 0.083
# Max RMSD: 0.076
# Mean RMSD: 0.076
data_MOF--net-unb--node1-KUFVIS_clean_sbu_0--edge1-UVAHIK_clean_linker_0
_symmetry_space_group_name_H-M    P1
_symmetry_Int_Tables_number       1
_symmetry_cell_setting            triclinic
loop_
_symmetry_equiv_pos_as_xyz
'x, y, z'
_cell_length_a     83.109015
_cell_length_b     83.083159
_cell_length_c     32.271561
_cell_angle_alpha  90.003907
_cell_angle_beta   89.990672
_cell_angle_gamma 120.00797
loop_
_atom_site_label
_atom_site_type_symbol
_atom_site_fract_x
_atom_site_fract_y
_atom_site_fract_z
_atom_type_partial_charge
Mn0 Mn 0.14564 0.26724 0.07288 0.0
Mn1 Mn 0.13948 0.3045 0.06999 0.0
C2 C 0.14846 0.28264 0.01135 0.0
C3 C 0.16416 0.25346 0.0773 0.0
C4 C 0.10748 0.26484 0.07228 0.0
O5 O 0.14879 0.2751 0.13399 0.0
O6 O 0.14393 0.2994 0.12753 0.0
C7 C 0.17766 0.33298 0.09444 0.0
N8 N 0.16329 0.32656 0.06704 0.0
C9 C 0.18044 0.353 0.02247 0.0
C10 C 0.19538 0.35994 0.05033 0.0
C11 C 0.194 0.34986 0.0864 0.0
C12 C 0.16455 0.33607 0.03204 0.0
H13 H 0.17668 0.32529 0.12219 0.0
C14 C 0.14752 0.28866 0.14914 0.0
O15 O 0.14644 0.2441 0.08474 0.0
O16 O 0.17133 0.27114 0.07064 0.0
N17 N 0.13524 0.31132 0.01615 0.0
C18 C 0.11966 0.30262 0.99225 0.0
C19 C 0.11867 0.31104 0.95537 0.0
C20 C 0.13363 0.32837 0.94361 0.0
C21 C 0.1495 0.33706 0.96869 0.0
C22 C 0.14959 0.32813 0.00541 0.0
H23 H 0.10803 0.28939 1.00126 0.0
O24 O 0.14457 0.26546 0.01104 0.0
O25 O 0.15047 0.29028 0.04745 0.0
O26 O 0.11742 0.25712 0.07472 0.0
O27 O 0.11437 0.28245 0.07126 0.0
C28 C 0.16525 0.35423 0.95868 0.0
C29 C 0.18076 0.36214 0.98542 0.0
H30 H 0.208 0.37296 0.04425 0.0
H31 H 0.20549 0.35509 0.10797 0.0
H32 H 0.10637 0.30424 0.93615 0.0
H33 H 0.13273 0.33489 0.91535 0.0
H34 H 0.16564 0.3614 0.93031 0.0
H35 H 0.19286 0.37525 0.97719 0.0
Mn36 Mn 0.75324 0.88196 0.07366 0.0
Mn37 Mn 0.71593 0.83859 0.06972 0.0
C38 C 0.73815 0.86957 0.01171 0.0
C39 C 0.76707 0.91428 0.07827 0.0
C40 C 0.75551 0.8461 0.07278 0.0
O41 O 0.74508 0.87711 0.13465 0.0
O42 O 0.72083 0.84797 0.12735 0.0
C43 C 0.68745 0.84835 0.09382 0.0
N44 N 0.69393 0.84043 0.06647 0.0
C45 C 0.66763 0.83127 0.02156 0.0
C46 C 0.66064 0.83924 0.04935 0.0
C47 C 0.67063 0.84787 0.08557 0.0
C48 C 0.68452 0.83225 0.03134 0.0
H49 H 0.69507 0.855 0.1217 0.0
C50 C 0.73145 0.8622 0.14936 0.0
O51 O 0.77636 0.90588 0.08599 0.0
O52 O 0.74942 0.9038 0.07133 0.0
N53 N 0.70927 0.82766 0.01573 0.0
C54 C 0.71799 0.82076 0.99194 0.0
C55 C 0.70965 0.81141 0.95495 0.0
C56 C 0.69238 0.8091 0.94297 0.0
C57 C 0.68366 0.81628 0.96794 0.0
C58 C 0.6925 0.82525 0.00478 0.0
H59 H 0.73117 0.82231 1.00114 0.0
O60 O 0.75533 0.88283 0.01186 0.0
O61 O 0.73031 0.86385 0.04761 0.0
O62 O 0.76328 0.86377 0.07564 0.0
O63 O 0.73791 0.83544 0.07128 0.0
C64 C 0.66653 0.81492 0.95772 0.0
C65 C 0.65859 0.82251 0.98438 0.0
H66 H 0.64766 0.83889 0.04312 0.0
H67 H 0.66535 0.85411 0.10711 0.0
H68 H 0.71648 0.8059 0.93582 0.0
H69 H 0.68592 0.80172 0.91463 0.0
H70 H 0.65944 0.8082 0.92926 0.0
H71 H 0.64551 0.82154 0.97599 0.0
Mn72 Mn 0.13811 0.87526 0.07448 0.0
Mn73 Mn 0.18155 0.88153 0.07194 0.0
C74 C 0.15083 0.87255 0.01305 0.0
C75 C 0.10581 0.85666 0.07867 0.0
C76 C 0.17382 0.91347 0.07489 0.0
O77 O 0.14272 0.87202 0.13561 0.0
O78 O 0.17185 0.87674 0.12936 0.0
C79 C 0.17195 0.84325 0.09531 0.0
N80 N 0.1799 0.85778 0.06829 0.0
C81 C 0.18936 0.84095 0.02315 0.0
C82 C 0.18135 0.82585 0.05061 0.0
C83 C 0.17256 0.827 0.08677 0.0
C84 C 0.18824 0.85675 0.03321 0.0
H85 H 0.16516 0.84405 0.12313 0.0
C86 C 0.15748 0.87315 0.15083 0.0
O87 O 0.11412 0.87437 0.08621 0.0
O88 O 0.11635 0.84953 0.07199 0.0
N89 N 0.19272 0.88611 0.01818 0.0
C90 C 0.19957 0.90181 0.99467 0.0
C91 C 0.20904 0.90303 0.95773 0.0
C92 C 0.2115 0.88819 0.94551 0.0
C93 C 0.20435 0.87218 0.97018 0.0
C94 C 0.19526 0.87186 0.00697 0.0
H95 H 0.1979 0.91335 0.00406 0.0
O96 O 0.13752 0.87641 0.0126 0.0
O97 O 0.1564 0.87055 0.04921 0.0
O98 O 0.15614 0.90349 0.07666 0.0
O99 O 0.18456 0.90662 0.074 0.0
C100 C 0.20587 0.85653 0.95971 0.0
C101 C 0.19827 0.84088 0.98604 0.0
H102 H 0.1818 0.81329 0.04415 0.0
H103 H 0.16629 0.81538 0.10803 0.0
H104 H 0.21451 0.91543 0.93883 0.0
H105 H 0.21897 0.88928 0.91721 0.0
H106 H 0.21271 0.85633 0.9313 0.0
H107 H 0.19935 0.82885 0.97744 0.0
Mn108 Mn 0.27143 0.14106 0.92918 0.0
Mn109 Mn 0.30872 0.13502 0.93315 0.0
C110 C 0.28743 0.14525 0.99038 0.0
C111 C 0.25743 0.15933 0.92316 0.0
C112 C 0.26911 0.10296 0.93365 0.0
O113 O 0.27886 0.14316 0.86796 0.0
O114 O 0.30311 0.13824 0.87508 0.0
C115 C 0.33717 0.17247 0.90429 0.0
N116 N 0.33089 0.15879 0.93344 0.0
C117 C 0.35803 0.17659 0.97561 0.0
C118 C 0.36484 0.19082 0.94594 0.0
C119 C 0.35432 0.18878 0.91021 0.0
C120 C 0.34081 0.1607 0.96813 0.0
H121 H 0.32918 0.17096 0.87672 0.0
C122 C 0.29227 0.14154 0.85307 0.0
O123 O 0.24812 0.14149 0.91719 0.0
O124 O 0.27518 0.16672 0.92908 0.0
N125 N 0.31597 0.13201 0.98761 0.0
C126 C 0.30719 0.11725 0.01386 0.0
C127 C 0.31572 0.11729 0.05145 0.0
C128 C 0.33329 0.13235 0.06139 0.0
C129 C 0.34218 0.14723 0.03359 0.0
C130 C 0.33299 0.14645 0.99663 0.0
H131 H 0.29374 0.10558 0.00633 0.0
O132 O 0.27019 0.14116 0.99102 0.0
O133 O 0.29475 0.14654 0.95417 0.0
O134 O 0.26135 0.11281 0.9299 0.0
O135 O 0.28671 0.10992 0.93451 0.0
C136 C 0.35975 0.16285 0.04122 0.0
C137 C 0.36762 0.17759 0.01241 0.0
H138 H 0.37807 0.20341 0.95036 0.0
H139 H 0.35945 0.19973 0.88723 0.0
H140 H 0.30878 0.10573 0.0727 0.0
H141 H 0.33979 0.13236 0.09048 0.0
H142 H 0.36723 0.1638 0.06944 0.0
H143 H 0.38101 0.18967 0.01896 0.0
Mn144 Mn 0.87968 0.13399 0.92919 0.0
Mn145 Mn 0.88622 0.17753 0.93371 0.0
C146 C 0.87622 0.14604 0.99088 0.0
C147 C 0.86107 0.10171 0.92359 0.0
C148 C 0.91799 0.16957 0.93186 0.0
O149 O 0.87705 0.13927 0.86813 0.0
O150 O 0.88225 0.16853 0.87576 0.0
C151 C 0.8486 0.1689 0.90722 0.0
N152 N 0.8626 0.17621 0.93561 0.0
C153 C 0.84559 0.18607 0.97906 0.0
C154 C 0.83103 0.17871 0.95021 0.0
C155 C 0.83251 0.17003 0.91422 0.0
C156 C 0.86123 0.18443 0.97055 0.0
H157 H 0.84969 0.16227 0.87944 0.0
C158 C 0.87865 0.15435 0.85356 0.0
O159 O 0.87884 0.11007 0.91678 0.0
O160 O 0.85391 0.11224 0.93015 0.0
N161 N 0.88996 0.18793 0.98818 0.0
C162 C 0.905 0.19383 0.01352 0.0
C163 C 0.90553 0.20251 0.05124 0.0
C164 C 0.89075 0.20531 0.06221 0.0
C165 C 0.87558 0.1994 0.03532 0.0
C166 C 0.87579 0.19078 0.99821 0.0
H167 H 0.91647 0.19184 0.00515 0.0
O168 O 0.88014 0.13277 0.99105 0.0
O169 O 0.8747 0.15206 0.95485 0.0
O170 O 0.90797 0.15193 0.92861 0.0
O171 O 0.91119 0.18034 0.93334 0.0
C172 C 0.86022 0.20166 0.04398 0.0
C173 C 0.84517 0.19488 0.01602 0.0
H174 H 0.81861 0.17959 0.95544 0.0
H175 H 0.82131 0.16427 0.89186 0.0
H176 H 0.91731 0.20707 0.07177 0.0
H177 H 0.89118 0.21196 0.09138 0.0
H178 H 0.85971 0.20836 0.07235 0.0
H179 H 0.8333 0.19643 0.02337 0.0
Mn180 Mn 0.886 0.74924 0.93005 0.0
Mn181 Mn 0.84261 0.71199 0.93372 0.0
C182 C 0.87358 0.73402 0.99186 0.0
C183 C 0.91829 0.76298 0.92527 0.0
C184 C 0.85025 0.75163 0.93033 0.0
O185 O 0.88113 0.74115 0.86907 0.0
O186 O 0.85206 0.7167 0.87609 0.0
C187 C 0.8522 0.68329 0.91049 0.0
N188 N 0.84434 0.68993 0.93757 0.0
C189 C 0.83512 0.66382 0.98313 0.0
C190 C 0.84303 0.65665 0.95562 0.0
C191 C 0.85165 0.66647 0.91921 0.0
C192 C 0.83616 0.68069 0.97288 0.0
H193 H 0.85885 0.69078 0.88248 0.0
C194 C 0.86632 0.72742 0.85424 0.0
O195 O 0.90993 0.77233 0.91774 0.0
O196 O 0.90778 0.74532 0.93221 0.0
N197 N 0.8317 0.70559 0.98775 0.0
C198 C 0.82493 0.7145 0.01129 0.0
C199 C 0.81563 0.70638 0.04846 0.0
C200 C 0.81324 0.68912 0.06088 0.0
C201 C 0.82031 0.6802 0.03619 0.0
C202 C 0.82924 0.68885 0.99916 0.0
H203 H 0.82655 0.72768 1.00176 0.0
O204 O 0.88686 0.7512 0.9919 0.0
O205 O 0.86786 0.7263 0.95587 0.0
O206 O 0.86792 0.75937 0.92814 0.0
O207 O 0.83955 0.73403 0.93151 0.0
C208 C 0.81887 0.66308 0.04685 0.0
C209 C 0.82638 0.65496 0.02048 0.0
H210 H 0.84264 0.64368 0.96222 0.0
H211 H 0.85785 0.66106 0.8979 0.0
H212 H 0.81022 0.71335 0.06738 0.0
H213 H 0.80588 0.68283 0.08936 0.0
H214 H 0.81215 0.65613 0.07544 0.0
H215 H 0.82536 0.64189 0.02922 0.0
Mn216 Mn 0.81216 0.60006 0.40749 0.0
Mn217 Mn 0.80604 0.63734 0.40469 0.0
C218 C 0.81507 0.61556 0.34603 0.0
C219 C 0.83069 0.58625 0.41172 0.0
C220 C 0.77401 0.5977 0.4071 0.0
O221 O 0.81531 0.60789 0.4687 0.0
O222 O 0.81055 0.63226 0.46214 0.0
C223 C 0.84424 0.66585 0.42895 0.0
N224 N 0.82984 0.6594 0.40161 0.0
C225 C 0.84691 0.68586 0.35704 0.0
C226 C 0.86188 0.69282 0.38482 0.0
C227 C 0.86055 0.68274 0.42086 0.0
C228 C 0.83105 0.66891 0.36664 0.0
H229 H 0.84329 0.65816 0.45669 0.0
C230 C 0.81407 0.62149 0.48379 0.0
O231 O 0.81296 0.57689 0.41916 0.0
O232 O 0.83786 0.60394 0.40523 0.0
N233 N 0.80174 0.64412 0.35088 0.0
C234 C 0.78613 0.63541 0.32707 0.0
C235 C 0.78507 0.64383 0.29026 0.0
C236 C 0.79999 0.66117 0.27847 0.0
C237 C 0.81591 0.66988 0.30343 0.0
C238 C 0.81606 0.66094 0.34008 0.0
H239 H 0.77452 0.62217 0.33615 0.0
O240 O 0.81115 0.59838 0.34559 0.0
O241 O 0.81702 0.62313 0.38218 0.0
O242 O 0.78393 0.58995 0.40932 0.0
O243 O 0.78093 0.61531 0.40614 0.0
C244 C 0.83162 0.68708 0.29339 0.0
C245 C 0.84716 0.695 0.32004 0.0
H246 H 0.87448 0.70585 0.37871 0.0
H247 H 0.87206 0.688 0.44239 0.0
H248 H 0.77274 0.63703 0.27114 0.0
H249 H 0.79902 0.66771 0.25029 0.0
H250 H 0.83195 0.69425 0.26509 0.0
H251 H 0.85923 0.70813 0.31179 0.0
Mn252 Mn 0.42048 0.2165 0.40903 0.0
Mn253 Mn 0.38325 0.17311 0.40457 0.0
C254 C 0.4046 0.20475 0.34765 0.0
C255 C 0.43447 0.24879 0.4151 0.0
C256 C 0.42288 0.18076 0.40415 0.0
O257 O 0.41295 0.21109 0.47024 0.0
O258 O 0.38888 0.18184 0.46266 0.0
C259 C 0.35478 0.182 0.43382 0.0
N260 N 0.36107 0.17468 0.40451 0.0
C261 C 0.33383 0.16523 0.36262 0.0
C262 C 0.32703 0.1726 0.39244 0.0
C263 C 0.33759 0.18109 0.42811 0.0
C264 C 0.35111 0.16666 0.36987 0.0
H265 H 0.3628 0.18848 0.46136 0.0
C266 C 0.39961 0.19595 0.4849 0.0
O267 O 0.44377 0.24027 0.4212 0.0
O268 O 0.41672 0.23841 0.40911 0.0
N269 N 0.37597 0.16291 0.35007 0.0
C270 C 0.38471 0.15694 0.32372 0.0
C271 C 0.37612 0.1484 0.28621 0.0
C272 C 0.35852 0.14583 0.27646 0.0
C273 C 0.34965 0.1518 0.30438 0.0
C274 C 0.35892 0.16027 0.34123 0.0
H275 H 0.39819 0.15875 0.33113 0.0
O276 O 0.42183 0.21791 0.34721 0.0
O277 O 0.3972 0.19865 0.38378 0.0
O278 O 0.4306 0.19837 0.40832 0.0
O279 O 0.40529 0.1701 0.40296 0.0
C280 C 0.33203 0.14975 0.29698 0.0
C281 C 0.32418 0.1566 0.32592 0.0
H282 H 0.31376 0.17188 0.3882 0.0
H283 H 0.33246 0.18685 0.45121 0.0
H284 H 0.38304 0.14379 0.26488 0.0
H285 H 0.35196 0.13929 0.24744 0.0
H286 H 0.32449 0.14316 0.26886 0.0
H287 H 0.31075 0.1552 0.31955 0.0
Mn288 Mn 0.80451 0.20805 0.40892 0.0
Mn289 Mn 0.84806 0.21457 0.40715 0.0
C290 C 0.81712 0.20448 0.34826 0.0
C291 C 0.77219 0.18956 0.41318 0.0
C292 C 0.84011 0.24636 0.40694 0.0
O293 O 0.8092 0.20553 0.47036 0.0
O294 O 0.83855 0.2108 0.46471 0.0
C295 C 0.83911 0.177 0.43497 0.0
N296 N 0.84672 0.19092 0.4064 0.0
C297 C 0.85682 0.17368 0.36444 0.0
C298 C 0.84918 0.15921 0.39351 0.0
C299 C 0.84023 0.16085 0.42884 0.0
C300 C 0.85521 0.1894 0.3721 0.0
H301 H 0.83226 0.1782 0.46223 0.0
C302 C 0.82412 0.20721 0.48598 0.0
O303 O 0.78056 0.20735 0.41981 0.0
O304 O 0.7827 0.18231 0.40757 0.0
N305 N 0.85895 0.21812 0.35326 0.0
C306 C 0.86508 0.23306 0.32753 0.0
C307 C 0.87405 0.23343 0.29036 0.0
C308 C 0.87687 0.21858 0.28031 0.0
C309 C 0.87071 0.2035 0.30759 0.0
C310 C 0.86183 0.20388 0.34414 0.0
H311 H 0.86307 0.24459 0.33518 0.0
O312 O 0.80388 0.20843 0.34703 0.0
O313 O 0.82279 0.20298 0.38474 0.0
O314 O 0.82247 0.23632 0.40956 0.0
O315 O 0.8509 0.23957 0.4064 0.0
C316 C 0.87294 0.18804 0.2998 0.0
C317 C 0.86588 0.17309 0.32805 0.0
H318 H 0.85003 0.14674 0.38893 0.0
H319 H 0.83424 0.14971 0.45136 0.0
H320 H 0.87879 0.24514 0.26952 0.0
H321 H 0.88372 0.21887 0.25154 0.0
H322 H 0.87984 0.18741 0.27188 0.0
H323 H 0.86742 0.16115 0.32137 0.0
Mn324 Mn 0.93797 0.47401 0.26151 0.0
Mn325 Mn 0.97507 0.46763 0.2657 0.0
C326 C 0.95362 0.47762 0.32304 0.0
C327 C 0.92415 0.49247 0.25601 0.0
C328 C 0.93538 0.43576 0.26502 0.0
O329 O 0.9457 0.47651 0.20034 0.0
O330 O 0.96969 0.47121 0.20775 0.0
C331 C 1.00373 0.50519 0.23789 0.0
N332 N 0.9973 0.49135 0.26666 0.0
C333 C 0.02438 0.50877 0.30923 0.0
C334 C 0.03133 0.52318 0.27997 0.0
C335 C 0.02092 0.5214 0.24422 0.0
C336 C 1.00711 0.493 0.30138 0.0
H337 H 0.99582 0.50388 0.21029 0.0
C338 C 0.95906 0.47477 0.18562 0.0
O339 O 0.91479 0.47468 0.24935 0.0
O340 O 0.94186 0.49973 0.26229 0.0
N341 N 0.98214 0.46426 0.32005 0.0
C342 C 0.97329 0.44931 0.34575 0.0
C343 C 0.98175 0.44903 0.38321 0.0
C344 C 0.99932 0.46397 0.39355 0.0
C345 C 1.00829 0.47905 0.36628 0.0
C346 C 0.99917 0.47858 0.32945 0.0
H347 H 0.95984 0.43771 0.33787 0.0
O348 O 0.93643 0.47365 0.32335 0.0
O349 O 0.96113 0.47915 0.28695 0.0
O350 O 0.92773 0.44572 0.26127 0.0
O351 O 0.95296 0.44261 0.26637 0.0
C352 C 0.02591 0.49455 0.37429 0.0
C353 C 0.03388 0.50948 0.34595 0.0
H354 H 0.04461 0.53568 0.28469 0.0
H355 H 0.02616 0.53248 0.22155 0.0
H356 H 0.97475 0.43731 0.40403 0.0
H357 H 1.00578 0.46374 0.42253 0.0
H358 H 0.03334 0.49526 0.40243 0.0
H359 H 0.04731 0.52145 0.35279 0.0
Mn360 Mn 0.54666 0.4683 0.26355 0.0
Mn361 Mn 0.55287 0.51174 0.26634 0.0
C362 C 0.54383 0.48091 0.32503 0.0
C363 C 0.52809 0.43598 0.25923 0.0
C364 C 0.58485 0.50407 0.26419 0.0
O365 O 0.54355 0.47301 0.2024 0.0
O366 O 0.5484 0.50218 0.20881 0.0
C367 C 0.5147 0.50208 0.24191 0.0
N368 N 0.52908 0.51002 0.2693 0.0
C369 C 0.51195 0.51932 0.3139 0.0
C370 C 0.49701 0.51133 0.28605 0.0
C371 C 0.49838 0.50262 0.24997 0.0
C372 C 0.52783 0.51827 0.3043 0.0
H373 H 0.51567 0.49535 0.21415 0.0
C374 C 0.54481 0.48784 0.18722 0.0
O375 O 0.54582 0.44432 0.25181 0.0
O376 O 0.52095 0.44652 0.26577 0.0
N377 N 0.55713 0.52282 0.32017 0.0
C378 C 0.57271 0.52969 0.34407 0.0
C379 C 0.57372 0.53911 0.38096 0.0
C380 C 0.55878 0.54149 0.39273 0.0
C381 C 0.5429 0.53431 0.36766 0.0
C382 C 0.5428 0.52529 0.33094 0.0
H383 H 0.58433 0.52808 0.33505 0.0
O384 O 0.54769 0.46761 0.3254 0.0
O385 O 0.54185 0.48654 0.2889 0.0
O386 O 0.5749 0.48639 0.2618 0.0
O387 O 0.57797 0.51479 0.26508 0.0
C388 C 0.52716 0.53575 0.37769 0.0
C389 C 0.51165 0.52815 0.35095 0.0
H390 H 0.48439 0.51173 0.29214 0.0
H391 H 0.48688 0.49637 0.2284 0.0
H392 H 0.58602 0.5446 0.40016 0.0
H393 H 0.55969 0.54892 0.42099 0.0
H394 H 0.52678 0.54252 0.40606 0.0
H395 H 0.49956 0.52917 0.3592 0.0
Mn396 Mn 0.55292 0.08329 0.26188 0.0
Mn397 Mn 0.50929 0.04646 0.26661 0.0
C398 C 0.54047 0.06856 0.32415 0.0
C399 C 0.58516 0.09656 0.25697 0.0
C400 C 0.51748 0.08626 0.26182 0.0
O401 O 0.54784 0.07481 0.20112 0.0
O402 O 0.51863 0.05073 0.20895 0.0
C403 C 0.51828 0.01725 0.24432 0.0
N404 N 0.51065 0.02423 0.27116 0.0
C405 C 0.50115 0.99829 0.31743 0.0
C406 C 0.50882 0.99079 0.29018 0.0
C407 C 0.51747 1.00034 0.25353 0.0
C408 C 0.50245 0.01523 0.30669 0.0
H409 H 0.52494 0.02453 0.21612 0.0
C410 C 0.53287 0.06113 0.18674 0.0
O411 O 0.57702 0.10609 0.24899 0.0
O412 O 0.57445 0.07898 0.26442 0.0
N413 N 0.49846 0.04049 0.32077 0.0
C414 C 0.49194 0.04971 0.34398 0.0
C415 C 0.48266 0.04189 0.38135 0.0
C416 C 0.48004 0.02461 0.3943 0.0
C417 C 0.48685 0.01536 0.3699 0.0
C418 C 0.49577 0.02372 0.33267 0.0
H419 H 0.49373 0.06291 0.33403 0.0
O420 O 0.55392 0.08566 0.32368 0.0
O421 O 0.5346 0.06063 0.28841 0.0
O422 O 0.53513 0.09377 0.25942 0.0
O423 O 0.5066 0.0687 0.26365 0.0
C424 C 0.48515 0.99818 0.38108 0.0
C425 C 0.49241 0.98971 0.35499 0.0
H426 H 0.50822 0.97774 0.29716 0.0
H427 H 0.52347 0.99466 0.23241 0.0
H428 H 0.47745 0.04911 0.40003 0.0
H429 H 0.47272 0.01855 0.42294 0.0
H430 H 0.47844 0.99144 0.40984 0.0
H431 H 0.49119 0.97661 0.36412 0.0
Mn432 Mn 0.47888 0.93455 0.73917 0.0
Mn433 Mn 0.47105 0.97074 0.73826 0.0
C434 C 0.48085 0.95004 0.67827 0.0
C435 C 0.49879 0.92231 0.74203 0.0
C436 C 0.44004 0.93057 0.74031 0.0
O437 O 0.48205 0.94213 0.80047 0.0
O438 O 0.47617 0.96582 0.79539 0.0
C439 C 0.50894 1.00018 0.76191 0.0
N440 N 0.49441 0.99332 0.73491 0.0
C441 C 0.51063 0.01986 0.69013 0.0
C442 C 0.52573 0.02725 0.71758 0.0
C443 C 0.5249 0.01734 0.75356 0.0
C444 C 0.49513 1.00268 0.70002 0.0
H445 H 0.50839 0.99261 0.78957 0.0
C446 C 0.48035 0.95533 0.8163 0.0
O447 O 0.48118 0.91208 0.75008 0.0
O448 O 0.50498 0.93985 0.73573 0.0
N449 N 0.46613 0.9773 0.68479 0.0
C450 C 0.4505 0.96812 0.66119 0.0
C451 C 0.44902 0.97626 0.62432 0.0
C452 C 0.46355 0.99378 0.61225 0.0
C453 C 0.47948 1.00299 0.63706 0.0
C454 C 0.48006 0.9943 0.67376 0.0
H455 H 0.43921 0.95471 0.6704 0.0
O456 O 0.47762 0.93308 0.67725 0.0
O457 O 0.48264 0.95734 0.71468 0.0
O458 O 0.45046 0.92333 0.74179 0.0
O459 O 0.4464 0.9481 0.73996 0.0
C460 C 0.49481 0.02041 0.62677 0.0
C461 C 0.51043 0.02879 0.65316 0.0
H462 H 0.53807 0.04048 0.71124 0.0
H463 H 0.53653 0.02292 0.77481 0.0
H464 H 0.43669 0.96906 0.60532 0.0
H465 H 0.46229 1.00004 0.58392 0.0
H466 H 0.49481 0.02741 0.59845 0.0
H467 H 0.52222 0.04209 0.64469 0.0
Mn468 Mn 0.08713 0.54906 0.74136 0.0
Mn469 Mn 0.05146 0.5047 0.73908 0.0
C470 C 0.07123 0.53615 0.68061 0.0
C471 C 0.09992 0.58124 0.74635 0.0
C472 C 0.09174 0.51457 0.7389 0.0
O473 O 0.0799 0.54386 0.80276 0.0
O474 O 0.05659 0.51411 0.79677 0.0
C475 C 0.02151 0.51178 0.76638 0.0
N476 N 0.02853 0.50485 0.73786 0.0
C477 C 1.00138 0.49402 0.69492 0.0
C478 C 0.99382 0.50097 0.72393 0.0
C479 C 1.00397 0.50994 0.75974 0.0
C480 C 0.01895 0.49632 0.70313 0.0
H481 H 0.02923 0.51867 0.79398 0.0
C482 C 0.06695 0.52866 0.8182 0.0
O483 O 0.1098 0.57336 0.75278 0.0
O484 O 0.08223 0.57028 0.74057 0.0
N485 N 0.04478 0.49395 0.68493 0.0
C486 C 0.05429 0.4886 0.65929 0.0
C487 C 0.04621 0.47973 0.62168 0.0
C488 C 0.02836 0.47625 0.61106 0.0
C489 C 0.01873 0.48163 0.63821 0.0
C490 C 0.02749 0.49041 0.67527 0.0
H491 H 0.06798 0.49116 0.66733 0.0
O492 O 0.08815 0.54996 0.67949 0.0
O493 O 0.06418 0.53012 0.71705 0.0
O494 O 0.09854 0.53212 0.74116 0.0
O495 O 0.07432 0.50301 0.73886 0.0
C496 C 1.00086 0.47876 0.6298 0.0
C497 C 0.99223 0.48505 0.658 0.0
H498 H 0.9803 0.49958 0.71893 0.0
H499 H 0.99826 0.5154 0.78221 0.0
H500 H 0.05372 0.4756 0.60092 0.0
H501 H 0.0222 0.46949 0.58193 0.0
H502 H 0.99373 0.47196 0.60144 0.0
H503 H 0.9786 0.48302 0.65086 0.0
Mn504 Mn 0.47156 0.542 0.74129 0.0
Mn505 Mn 0.51605 0.5512 0.73815 0.0
C506 C 0.48465 0.53996 0.67981 0.0
C507 C 0.43945 0.52213 0.74619 0.0
C508 C 0.50575 0.58131 0.74053 0.0
O509 O 0.47681 0.53942 0.80245 0.0
O510 O 0.50656 0.54603 0.7957 0.0
C511 C 0.50902 0.51378 0.76203 0.0
N512 N 0.51603 0.52821 0.73468 0.0
C513 C 0.52664 0.51245 0.68928 0.0
C514 C 0.51962 0.49747 0.71706 0.0
C515 C 0.51073 0.49813 0.75353 0.0
C516 C 0.52447 0.52765 0.69934 0.0
H517 H 0.50216 0.5142 0.79007 0.0
C518 C 0.49203 0.54157 0.81744 0.0
O519 O 0.44706 0.53981 0.75345 0.0
O520 O 0.45063 0.51574 0.73948 0.0
N521 N 0.52698 0.55619 0.68409 0.0
C522 C 0.53276 0.57167 0.66025 0.0
C523 C 0.54211 0.5733 0.62289 0.0
C524 C 0.54555 0.55909 0.61057 0.0
C525 C 0.53952 0.54332 0.63564 0.0
C526 C 0.53048 0.54257 0.67281 0.0
H527 H 0.53031 0.58273 0.66968 0.0
O528 O 0.47063 0.54274 0.67941 0.0
O529 O 0.4907 0.53863 0.71596 0.0
O530 O 0.48822 0.57038 0.74241 0.0
O531 O 0.51746 0.57564 0.74005 0.0
C532 C 0.5421 0.52829 0.62517 0.0
C533 C 0.53556 0.51282 0.65184 0.0
H534 H 0.52091 0.48537 0.71062 0.0
H535 H 0.50522 0.48659 0.77505 0.0
H536 H 0.54672 0.58551 0.6037 0.0
H537 H 0.55288 0.56048 0.58187 0.0
H538 H 0.54895 0.52843 0.5965 0.0
H539 H 0.53744 0.50126 0.64324 0.0
Mn540 Mn 0.60462 0.8083 0.59641 0.0
Mn541 Mn 0.63946 0.79844 0.59719 0.0
C542 C 0.61982 0.80956 0.65723 0.0
C543 C 0.59318 0.82887 0.59357 0.0
C544 C 0.59887 0.76876 0.59486 0.0
O545 O 0.61226 0.8113 0.53514 0.0
O546 O 0.63504 0.80409 0.54009 0.0
C547 C 0.67009 0.83582 0.57396 0.0
N548 N 0.6626 0.82124 0.60088 0.0
C549 C 0.68905 0.83656 0.64621 0.0
C550 C 0.69709 0.85169 0.61884 0.0
C551 C 0.68754 0.85133 0.58262 0.0
C552 C 0.67161 0.8215 0.63598 0.0
H553 H 0.66281 0.83565 0.54612 0.0
C554 C 0.62508 0.80899 0.51926 0.0
O555 O 0.58265 0.81133 0.5853 0.0
O556 O 0.61065 0.83468 0.60006 0.0
N557 N 0.64545 0.79299 0.65074 0.0
C558 C 0.63563 0.77744 0.67431 0.0
C559 C 0.64328 0.77558 0.71155 0.0
C560 C 0.66098 0.78964 0.72402 0.0
C561 C 0.67087 0.80546 0.69917 0.0
C562 C 0.66262 0.80645 0.66214 0.0
H563 H 0.62206 0.76652 0.6648 0.0
O564 O 0.60311 0.80702 0.65831 0.0
O565 O 0.627 0.81104 0.62079 0.0
O566 O 0.59245 0.77987 0.59384 0.0
O567 O 0.61621 0.77421 0.595 0.0
C568 C 0.68854 0.82033 0.70978 0.0
C569 C 0.69757 0.83591 0.68344 0.0
H570 H 0.71053 0.86368 0.62544 0.0
H571 H 0.69362 0.86298 0.56143 0.0
H572 H 0.63557 0.76333 0.73056 0.0
H573 H 0.66683 0.78812 0.75272 0.0
H574 H 0.69523 0.82 0.73832 0.0
H575 H 0.71106 0.84735 0.69217 0.0
Mn576 Mn 0.21266 0.8008 0.59691 0.0
Mn577 Mn 0.21957 0.84448 0.60083 0.0
C578 C 0.21005 0.81333 0.65877 0.0
C579 C 0.19365 0.76856 0.59197 0.0
C580 C 0.25113 0.83619 0.59756 0.0
O581 O 0.2096 0.80583 0.53591 0.0
O582 O 0.21481 0.8351 0.54319 0.0
C583 C 0.18153 0.83556 0.57717 0.0
N584 N 0.19597 0.84318 0.60442 0.0
C585 C 0.17932 0.85276 0.64978 0.0
C586 C 0.1643 0.84509 0.62209 0.0
C587 C 0.1654 0.83641 0.58569 0.0
C588 C 0.19499 0.85141 0.63972 0.0
H589 H 0.1823 0.82886 0.54916 0.0
C590 C 0.21102 0.82081 0.5212 0.0
O591 O 0.21136 0.77666 0.58454 0.0
O592 O 0.18678 0.7793 0.59894 0.0
N593 N 0.22412 0.85536 0.6549 0.0
C594 C 0.23973 0.86188 0.6786 0.0
C595 C 0.24099 0.87122 0.71577 0.0
C596 C 0.22628 0.87388 0.72804 0.0
C597 C 0.21036 0.86706 0.70317 0.0
C598 C 0.21 0.85809 0.66616 0.0
H599 H 0.25118 0.86006 0.66918 0.0
O600 O 0.21366 0.79985 0.65878 0.0
O601 O 0.20823 0.81918 0.6228 0.0
O602 O 0.24096 0.81854 0.59513 0.0
O603 O 0.24448 0.84711 0.59887 0.0
C604 C 0.19485 0.8688 0.71366 0.0
C605 C 0.17928 0.86154 0.68711 0.0
H606 H 0.15184 0.84572 0.62854 0.0
H607 H 0.15385 0.8304 0.56424 0.0
H608 H 0.25332 0.87644 0.73482 0.0
H609 H 0.22741 0.88126 0.75652 0.0
H610 H 0.19468 0.87556 0.74224 0.0
H611 H 0.16736 0.86279 0.69572 0.0
Mn612 Mn 0.22032 0.41605 0.59512 0.0
Mn613 Mn 0.17593 0.3805 0.5977 0.0
C614 C 0.20712 0.40082 0.65644 0.0
C615 C 0.25246 0.42849 0.5908 0.0
C616 C 0.18593 0.42083 0.59522 0.0
O617 O 0.21528 0.40828 0.5339 0.0
O618 O 0.18558 0.38494 0.54029 0.0
C619 C 0.1833 0.35032 0.57407 0.0
N620 N 0.17614 0.35763 0.60128 0.0
C621 C 0.1656 0.33126 0.64666 0.0
C622 C 0.17279 0.32341 0.61902 0.0
C623 C 0.18171 0.33301 0.58263 0.0
C624 C 0.16765 0.34857 0.63654 0.0
H625 H 0.1902 0.35764 0.54608 0.0
C626 C 0.20014 0.39512 0.51874 0.0
O627 O 0.24479 0.43849 0.58334 0.0
O628 O 0.24134 0.41089 0.5973 0.0
N629 N 0.16486 0.37446 0.65162 0.0
C630 C 0.15893 0.38406 0.67534 0.0
C631 C 0.14954 0.37629 0.71263 0.0
C632 C 0.14622 0.35868 0.725 0.0
C633 C 0.15239 0.34903 0.70005 0.0
C634 C 0.16147 0.35738 0.66294 0.0
H635 H 0.16129 0.39754 0.66586 0.0
O636 O 0.22105 0.41767 0.65701 0.0
O637 O 0.20121 0.39345 0.62022 0.0
O638 O 0.20349 0.42758 0.59365 0.0
O639 O 0.17432 0.40341 0.59563 0.0
C640 C 0.14994 0.33148 0.71057 0.0
C641 C 0.15664 0.32265 0.68403 0.0
H642 H 0.1716 0.31007 0.62552 0.0
H643 H 0.18735 0.32707 0.56122 0.0
H644 H 0.14482 0.38382 0.73173 0.0
H645 H 0.13886 0.3527 0.75366 0.0
H646 H 0.14306 0.32473 0.73919 0.0
H647 H 0.15485 0.30926 0.69268 0.0
C648 C 0.21249 0.38535 0.45887 0.0
C649 C 0.19917 0.38935 0.47508 0.0
C650 C 0.20848 0.37423 0.42326 0.0
C651 C 0.16708 0.33724 0.3706 0.0
H652 H 0.20034 0.34296 0.28043 0.0
C653 C 0.14123 0.29985 0.21504 0.0
C654 C 0.15193 0.29391 0.19314 0.0
C655 C 0.14759 0.30945 0.25237 0.0
C656 C 0.191 0.34099 0.30581 0.0
H657 H 0.17204 0.3863 0.46506 0.0
H658 H 0.16536 0.36766 0.4025 0.0
H659 H 0.21134 0.36579 0.33685 0.0
H660 H 0.17742 0.29285 0.1937 0.0
H661 H 0.18864 0.30972 0.25958 0.0
H662 H 0.14668 0.31269 0.33964 0.0
C663 C 0.17863 0.37252 0.41769 0.0
C664 C 0.19728 0.35413 0.338 0.0
C665 C 0.18256 0.38345 0.45318 0.0
C666 C 0.16874 0.29695 0.21042 0.0
C667 C 0.17528 0.30686 0.24772 0.0
C668 C 0.16084 0.32418 0.33863 0.0
C669 C 0.19113 0.36701 0.40343 0.0
C670 C 0.18522 0.35264 0.37024 0.0
C671 C 0.16496 0.31362 0.26857 0.0
C672 C 0.17256 0.32608 0.30533 0.0
H673 H 0.22526 0.38945 0.47559 0.0
H674 H 0.21844 0.37029 0.413 0.0
H675 H 0.15758 0.33533 0.39559 0.0
H676 H 0.12835 0.29791 0.20209 0.0
H677 H 0.13935 0.31459 0.26726 0.0
C678 C 0.63407 0.83093 0.45909 0.0
C679 C 0.63053 0.81379 0.47543 0.0
C680 C 0.64402 0.83762 0.42188 0.0
C681 C 0.66052 0.82322 0.32949 0.0
H682 H 0.703 0.8732 0.33264 0.0
C683 C 0.71949 0.84433 0.21446 0.0
C684 C 0.72575 0.86115 0.19311 0.0
C685 C 0.70863 0.84043 0.25004 0.0
C686 C 0.6911 0.85929 0.33112 0.0
H687 H 0.63369 0.78979 0.4648 0.0
H688 H 0.65047 0.80107 0.39984 0.0
H689 H 0.68027 0.86226 0.38925 0.0
H690 H 0.72655 0.88758 0.19363 0.0
H691 H 0.70751 0.88081 0.25644 0.0
H692 H 0.67135 0.82003 0.27197 0.0
C693 C 0.64569 0.80946 0.41541 0.0
C694 C 0.67802 0.85305 0.36341 0.0
C695 C 0.63603 0.80295 0.45265 0.0
C696 C 0.72217 0.87464 0.20994 0.0
C697 C 0.71113 0.87068 0.24567 0.0
C698 C 0.67354 0.82942 0.29741 0.0
C699 C 0.65033 0.82712 0.40016 0.0
C700 C 0.66279 0.83477 0.3634 0.0
C701 C 0.70355 0.85316 0.26497 0.0
C702 C 0.68924 0.84736 0.29826 0.0
H703 H 0.63029 0.83971 0.47645 0.0
H704 H 0.64725 0.85121 0.41076 0.0
H705 H 0.64879 0.8092 0.32806 0.0
H706 H 0.72201 0.83366 0.20206 0.0
H707 H 0.70348 0.82703 0.2648 0.0
C708 C 0.2169 0.83864 0.45604 0.0
C709 C 0.20633 0.82186 0.47752 0.0
C710 C 0.20993 0.84252 0.42046 0.0
C711 C 0.1733 0.82355 0.33981 0.0
H712 H 0.18158 0.87384 0.34186 0.0
C713 C 0.14452 0.85172 0.21177 0.0
C714 C 0.15822 0.86866 0.19481 0.0
C715 C 0.14785 0.84518 0.24912 0.0
C716 C 0.17915 0.85977 0.34074 0.0
H717 H 0.18064 0.79548 0.47723 0.0
H718 H 0.16834 0.80223 0.41448 0.0
H719 H 0.19333 0.86309 0.39805 0.0
H720 H 0.18561 0.89245 0.20431 0.0
H721 H 0.19121 0.88145 0.26959 0.0
H722 H 0.15931 0.82044 0.28191 0.0
C723 C 0.18211 0.81234 0.42513 0.0
C724 C 0.18599 0.85361 0.37285 0.0
C725 C 0.18921 0.80838 0.46083 0.0
C726 C 0.17472 0.87947 0.21703 0.0
C727 C 0.17792 0.87311 0.25442 0.0
C728 C 0.16643 0.82975 0.3075 0.0
C729 C 0.19207 0.82982 0.40568 0.0
C730 C 0.18358 0.8356 0.37235 0.0
C731 C 0.1648 0.85564 0.27033 0.0
C732 C 0.16965 0.84808 0.30717 0.0
H733 H 0.23012 0.84929 0.46832 0.0
H734 H 0.21821 0.85589 0.40558 0.0
H735 H 0.17116 0.80959 0.33854 0.0
H736 H 0.13184 0.84296 0.19478 0.0
H737 H 0.13741 0.83173 0.26074 0.0
C738 C 0.38832 0.17781 0.54985 0.0
C739 C 0.39413 0.19462 0.52884 0.0
C740 C 0.37739 0.17349 0.58544 0.0
C741 C 0.3584 0.1914 0.66593 0.0
H742 H 0.31751 0.14051 0.66339 0.0
C743 C 0.30033 0.16228 0.79109 0.0
C744 C 0.29749 0.14564 0.80898 0.0
C745 C 0.31042 0.16881 0.75403 0.0
C746 C 0.32884 0.15475 0.66464 0.0
H747 H 0.39405 0.22062 0.52991 0.0
H748 H 0.37486 0.21311 0.59251 0.0
H749 H 0.34045 0.15181 0.60804 0.0
H750 H 0.30196 0.12229 0.80123 0.0
H751 H 0.31894 0.13327 0.73636 0.0
H752 H 0.34672 0.19416 0.72299 0.0
C753 C 0.37891 0.20331 0.58162 0.0
C754 C 0.3421 0.16122 0.63304 0.0
C755 C 0.39005 0.20771 0.546 0.0
C756 C 0.30374 0.13504 0.78779 0.0
C757 C 0.31353 0.14139 0.75065 0.0
C758 C 0.34506 0.1849 0.69767 0.0
C759 C 0.37174 0.18577 0.6006 0.0
C760 C 0.35729 0.17949 0.63369 0.0
C761 C 0.31756 0.15865 0.73401 0.0
C762 C 0.33033 0.16637 0.69778 0.0
H763 H 0.3912 0.16744 0.53714 0.0
H764 H 0.37259 0.1601 0.59995 0.0
H765 H 0.36989 0.20554 0.66736 0.0
H766 H 0.29598 0.1709 0.80725 0.0
H767 H 0.31316 0.18209 0.74178 0.0
C768 C 0.81131 0.18594 0.54708 0.0
C769 C 0.82488 0.20295 0.53011 0.0
C770 C 0.8148 0.17942 0.58425 0.0
C771 C 0.84649 0.1939 0.67525 0.0
H772 H 0.83878 0.14385 0.67126 0.0
C773 C 0.88462 0.17244 0.78876 0.0
C774 C 0.8741 0.15554 0.80984 0.0
C775 C 0.87762 0.17646 0.75343 0.0
C776 C 0.84085 0.15778 0.67304 0.0
H777 H 0.85215 0.22691 0.53954 0.0
H778 H 0.85802 0.21595 0.60457 0.0
H779 H 0.82662 0.15483 0.61557 0.0
H780 H 0.84847 0.1291 0.80905 0.0
H781 H 0.83612 0.1361 0.74677 0.0
H782 H 0.8609 0.19705 0.73215 0.0
C783 C 0.84473 0.20754 0.58952 0.0
C784 C 0.8338 0.16405 0.64127 0.0
C785 C 0.84136 0.21388 0.55229 0.0
C786 C 0.85701 0.14209 0.79294 0.0
C787 C 0.84989 0.14619 0.75752 0.0
C788 C 0.85351 0.18767 0.70683 0.0
C789 C 0.83179 0.18996 0.60528 0.0
C790 C 0.83689 0.18234 0.64159 0.0
C791 C 0.85978 0.16379 0.73855 0.0
C792 C 0.85119 0.1697 0.70568 0.0
H793 H 0.79866 0.17707 0.53012 0.0
H794 H 0.8045 0.16589 0.59578 0.0
H795 H 0.84884 0.20794 0.67686 0.0
H796 H 0.89781 0.18307 0.80122 0.0
H797 H 0.88584 0.18993 0.73891 0.0
C798 C 0.84868 0.71572 0.78869 0.0
C799 C 0.86542 0.722 0.81034 0.0
C800 C 0.8455 0.70609 0.75141 0.0
C801 C 0.85807 0.67517 0.69749 0.0
H802 H 0.82981 0.68029 0.6081 0.0
C803 C 0.83599 0.63118 0.54392 0.0
C804 C 0.81862 0.62693 0.52764 0.0
C805 C 0.84287 0.64218 0.57975 0.0
C806 C 0.83754 0.67852 0.63299 0.0
H807 H 0.89224 0.72364 0.8094 0.0
H808 H 0.88671 0.70672 0.7436 0.0
H809 H 0.84122 0.70284 0.6642 0.0
H810 H 0.79422 0.62945 0.53761 0.0
H811 H 0.80577 0.64785 0.60063 0.0
H812 H 0.85409 0.6506 0.66618 0.0
C813 C 0.87606 0.70933 0.75562 0.0
C814 C 0.84418 0.69154 0.66505 0.0
C815 C 0.87935 0.71926 0.79288 0.0
C816 C 0.80763 0.63247 0.54963 0.0
C817 C 0.81438 0.64327 0.58536 0.0
C818 C 0.8514 0.66207 0.66521 0.0
C819 C 0.8589 0.70225 0.735 0.0
C820 C 0.85418 0.68983 0.6982 0.0
C821 C 0.83244 0.64905 0.59973 0.0
C822 C 0.84065 0.66335 0.6331 0.0
H823 H 0.83761 0.71744 0.80176 0.0
H824 H 0.83206 0.70071 0.73671 0.0
H825 H 0.86559 0.67335 0.72275 0.0
H826 H 0.84488 0.6274 0.52707 0.0
H827 H 0.85681 0.64635 0.59006 0.0
C828 C 0.96856 0.4963 0.1248 0.0
C829 C 0.96467 0.47914 0.14177 0.0
C830 C 0.97974 0.50325 0.08926 0.0
C831 C 0.01709 0.49884 0.03829 0.0
H832 H 1.0118 0.52635 0.94748 0.0
C833 C 0.05579 0.5111 0.88408 0.0
C834 C 0.06163 0.52772 0.8622 0.0
C835 C 0.04593 0.50766 0.92112 0.0
C836 C 0.01365 0.51899 0.97304 0.0
H837 H 0.968 0.45514 0.13319 0.0
H838 H 0.98673 0.46679 0.07064 0.0
H839 H 0.98862 0.51438 0.0031 0.0
H840 H 0.06234 0.55412 0.86267 0.0
H841 H 0.04507 0.54816 0.92801 0.0
H842 H 0.0419 0.50317 0.00828 0.0
C843 C 0.98173 0.47521 0.08519 0.0
C844 C 1.0003 0.51204 0.00477 0.0
C845 C 0.97074 0.46838 0.12065 0.0
C846 C 0.05831 0.54134 0.87935 0.0
C847 C 0.04816 0.53779 0.91633 0.0
C848 C 0.03037 0.50575 0.00674 0.0
C849 C 0.98716 0.49311 0.07024 0.0
C850 C 1.00165 0.5015 0.03729 0.0
C851 C 0.04144 0.52068 0.93704 0.0
C852 C 0.02864 0.51558 0.97325 0.0
H853 H 0.96435 0.50503 0.14095 0.0
H854 H 0.98362 0.51706 0.07849 0.0
H855 H 0.01891 0.49129 0.0635 0.0
H856 H 0.05795 0.50027 0.87126 0.0
H857 H 0.04085 0.49428 0.93592 0.0
C858 C 0.55112 0.50528 0.12126 0.0
C859 C 0.54039 0.48867 0.14322 0.0
C860 C 0.54476 0.50853 0.08393 0.0
C861 C 0.50136 0.49676 0.03056 0.0
H862 H 0.53475 0.52432 0.94059 0.0
C863 C 0.47979 0.51954 0.87753 0.0
C864 C 0.49313 0.53679 0.86107 0.0
C865 C 0.48383 0.51245 0.91313 0.0
C866 C 0.52526 0.51679 0.96563 0.0
H867 H 0.51484 0.46216 0.14277 0.0
H868 H 0.50362 0.46781 0.07691 0.0
H869 H 0.54563 0.51261 0.99662 0.0
H870 H 0.52037 0.5608 0.87066 0.0
H871 H 0.52711 0.54888 0.9332 0.0
H872 H 0.48105 0.50124 0.9995 0.0
C873 C 0.51701 0.4783 0.08871 0.0
C874 C 0.53149 0.50998 0.99766 0.0
C875 C 0.52354 0.47492 0.12601 0.0
C876 C 0.50983 0.54747 0.88272 0.0
C877 C 0.51379 0.5405 0.9182 0.0
C878 C 0.49509 0.5036 0.99833 0.0
C879 C 0.52736 0.49536 0.06779 0.0
C880 C 0.51978 0.50023 0.03102 0.0
C881 C 0.50125 0.52255 0.93273 0.0
C882 C 0.50714 0.51411 0.966 0.0
H883 H 0.56403 0.51621 0.13416 0.0
H884 H 0.55303 0.52189 0.069 0.0
H885 H 0.49203 0.48944 0.05598 0.0
H886 H 0.46694 0.51088 0.86103 0.0
H887 H 0.47384 0.49859 0.92359 0.0
C888 C 0.51487 0.04875 0.12196 0.0
C889 C 0.53173 0.0552 0.14318 0.0
C890 C 0.51101 0.03785 0.08646 0.0
C891 C 0.5301 0.02059 0.00534 0.0
H892 H 0.4801 0.97812 0.00808 0.0
C893 C 0.50203 0.96388 0.87676 0.0
C894 C 0.48497 0.9605 0.86027 0.0
C895 C 0.50862 0.97367 0.91418 0.0
C896 C 0.4941 0.98989 0.00677 0.0
H897 H 0.55829 0.05626 0.14254 0.0
H898 H 0.55158 0.03712 0.07991 0.0
H899 H 0.49082 1.00057 0.06441 0.0
H900 H 0.46101 0.96372 0.87073 0.0
H901 H 0.47211 0.98018 0.93613 0.0
H902 H 0.53316 0.00991 0.94709 0.0
C903 C 0.54138 0.04063 0.09072 0.0
C904 C 0.50023 1.00285 0.03896 0.0
C905 C 0.5453 0.05173 0.12634 0.0
C906 C 0.4741 0.96594 0.88305 0.0
C907 C 0.48051 0.97542 0.92052 0.0
C908 C 0.52393 1.00757 0.97294 0.0
C909 C 0.52383 0.0329 0.07152 0.0
C910 C 0.51813 0.01862 0.0382 0.0
C911 C 0.4981 0.97994 0.93594 0.0
C912 C 0.50569 0.99229 0.97286 0.0
H913 H 0.50415 0.0512 0.13433 0.0
H914 H 0.49758 0.03258 0.07177 0.0
H915 H 0.54397 0.03255 0.00387 0.0
H916 H 0.51083 0.96015 0.85937 0.0
H917 H 0.52216 0.97682 0.92544 0.0
C918 C 0.14405 0.28854 0.93767 0.0
C919 C 0.15502 0.29376 0.97351 0.0
C920 C 0.15035 0.29973 0.90233 0.0
C921 C 0.19212 0.33524 0.84973 0.0
H922 H 0.15975 0.35187 0.80412 0.0
C923 C 0.19686 0.3945 0.73018 0.0
C924 C 0.2023 0.38935 0.69378 0.0
C925 C 0.19183 0.383 0.76505 0.0
C926 C 0.16889 0.34732 0.81656 0.0
H927 H 0.18165 0.31345 1.00004 0.0
H928 H 0.19281 0.33294 0.9381 0.0
H929 H 0.14872 0.32945 0.86084 0.0
H930 H 0.20846 0.36937 0.66565 0.0
H931 H 0.20003 0.34943 0.72691 0.0
H932 H 0.21203 0.35261 0.80412 0.0
C933 C 0.17925 0.3205 0.93742 0.0
C934 C 0.16258 0.33448 0.84888 0.0
C935 C 0.17282 0.3095 0.97286 0.0
C936 C 0.20385 0.3733 0.69331 0.0
C937 C 0.19921 0.36203 0.7283 0.0
C938 C 0.19823 0.34769 0.81655 0.0
C939 C 0.16793 0.31591 0.90214 0.0
C940 C 0.17421 0.3285 0.86606 0.0
C941 C 0.19286 0.36663 0.76418 0.0
C942 C 0.18669 0.35391 0.79995 0.0
H943 H 0.13041 0.27619 0.93753 0.0
H944 H 0.14147 0.29584 0.87526 0.0
H945 H 0.20131 0.33076 0.86242 0.0
H946 H 0.19593 0.40705 0.73115 0.0
H947 H 0.18708 0.38684 0.79261 0.0
C948 C 0.64762 0.83372 0.69331 0.0
C949 C 0.63152 0.81617 0.69421 0.0
C950 C 0.65909 0.84038 0.72797 0.0
C951 C 0.67443 0.82525 0.81564 0.0
H952 H 0.69 0.87391 0.86234 0.0
C953 C 0.73266 0.85942 0.9379 0.0
C954 C 0.72724 0.86508 0.97357 0.0
C955 C 0.72161 0.85451 0.90232 0.0
C956 C 0.6858 0.86033 0.84944 0.0
H957 H 0.61396 0.7922 0.73199 0.0
H958 H 0.63454 0.80363 0.79289 0.0
H959 H 0.66813 0.86254 0.80417 0.0
H960 H 0.70737 0.8719 0.99957 0.0
H961 H 0.68812 0.86351 0.9373 0.0
H962 H 0.69259 0.82329 0.85964 0.0
C963 C 0.63824 0.81214 0.76523 0.0
C964 C 0.67334 0.85386 0.81633 0.0
C965 C 0.62654 0.80563 0.73069 0.0
C966 C 0.71147 0.86708 0.97252 0.0
C967 C 0.70061 0.86248 0.93688 0.0
C968 C 0.68728 0.83193 0.84795 0.0
C969 C 0.65464 0.82952 0.76394 0.0
C970 C 0.66745 0.8362 0.79947 0.0
C971 C 0.70538 0.8558 0.90175 0.0
C972 C 0.69289 0.84941 0.86549 0.0
H973 H 0.65143 0.84221 0.66559 0.0
H974 H 0.67169 0.85378 0.7263 0.0
H975 H 0.67016 0.81166 0.80289 0.0
H976 H 0.74503 0.85818 0.93807 0.0
H977 H 0.72566 0.84959 0.87539 0.0
C978 C 0.16124 0.87663 0.93944 0.0
C979 C 0.15532 0.86578 0.97543 0.0
C980 C 0.16608 0.87011 0.90438 0.0
C981 C 0.15928 0.82808 0.85238 0.0
H982 H 0.20881 0.85957 0.80847 0.0
C983 C 0.18548 0.81569 0.69664 0.0
C984 C 0.20327 0.81771 0.69653 0.0
C985 C 0.17885 0.82014 0.73189 0.0
C986 C 0.19496 0.85067 0.82035 0.0
H987 H 0.14802 0.83915 0.00255 0.0
H988 H 0.15621 0.82758 0.94106 0.0
H989 H 0.19752 0.87095 0.86461 0.0
H990 H 0.22764 0.82459 0.73323 0.0
H991 H 0.21622 0.83302 0.79519 0.0
H992 H 0.15647 0.80806 0.8068 0.0
C993 C 0.15752 0.84122 0.94006 0.0
C994 C 0.18849 0.85719 0.85238 0.0
C995 C 0.15302 0.84788 0.97523 0.0
C996 C 0.21402 0.82331 0.7327 0.0
C997 C 0.20751 0.82811 0.76786 0.0
C998 C 0.16555 0.82176 0.81945 0.0
C999 C 0.16442 0.85241 0.90464 0.0
C1000 C 0.17068 0.84589 0.86892 0.0
C1001 C 0.18995 0.82673 0.76752 0.0
C1002 C 0.18349 0.833 0.80333 0.0
H1003 H 0.16273 0.89035 0.93896 0.0
H1004 H 0.17124 0.87889 0.87719 0.0
H1005 H 0.14547 0.81913 0.86466 0.0
H1006 H 0.17684 0.81094 0.66917 0.0
H1007 H 0.16531 0.81906 0.73081 0.0
C1008 C 0.37729 0.20258 0.31185 0.0
C1009 C 0.39319 0.20083 0.31043 0.0
C1010 C 0.36616 0.19881 0.27684 0.0
C1011 C 0.36534 0.19152 0.16294 0.0
H1012 H 0.31201 0.16497 0.17999 0.0
C1013 C 0.31476 0.17058 0.02574 0.0
C1014 C 0.29893 0.15288 0.02745 0.0
C1015 C 0.32594 0.1781 0.06062 0.0
C1016 C 0.32686 0.17222 0.17462 0.0
H1017 H 0.41083 0.19504 0.27144 0.0
H1018 H 0.39093 0.18747 0.21036 0.0
H1019 H 0.3326 0.1753 0.23933 0.0
H1020 H 0.28146 0.12952 0.0668 0.0
H1021 H 0.30143 0.14218 0.12771 0.0
H1022 H 0.35958 0.18843 0.09821 0.0
C1023 C 0.38708 0.19202 0.23818 0.0
C1024 C 0.33872 0.17832 0.20875 0.0
C1025 C 0.3984 0.19616 0.27311 0.0
C1026 C 0.29383 0.1431 0.0649 0.0
C1027 C 0.30519 0.15046 0.09973 0.0
C1028 C 0.35347 0.18549 0.1288 0.0
C1029 C 0.3707 0.19311 0.23976 0.0
C1030 C 0.35812 0.18773 0.20338 0.0
C1031 C 0.32149 0.16799 0.09787 0.0
C1032 C 0.33408 0.17544 0.1342 0.0
H1033 H 0.37342 0.2068 0.34019 0.0
H1034 H 0.35396 0.20029 0.27898 0.0
H1035 H 0.38018 0.19916 0.15755 0.0
H1036 H 0.31853 0.17858 0.99728 0.0
H1037 H 0.33807 0.19182 0.05828 0.0
C1038 C 0.85123 0.14825 0.02723 0.0
C1039 C 0.8689 0.15004 0.0283 0.0
C1040 C 0.84403 0.15215 0.06232 0.0
C1041 C 0.85088 0.15983 0.17601 0.0
H1042 H 0.82368 0.18596 0.15895 0.0
C1043 C 0.81991 0.17962 0.31274 0.0
C1044 C 0.82153 0.19723 0.3113 0.0
C1045 C 0.82407 0.17245 0.27795 0.0
C1046 C 0.8314 0.17883 0.16433 0.0
H1047 H 0.89253 0.15603 0.06679 0.0
H1048 H 0.88044 0.16381 0.12805 0.0
H1049 H 0.83407 0.17575 0.09963 0.0
H1050 H 0.82752 0.22076 0.27246 0.0
H1051 H 0.83564 0.20869 0.2117 0.0
H1052 H 0.84815 0.16288 0.24076 0.0
C1053 C 0.87193 0.15914 0.10041 0.0
C1054 C 0.83725 0.1728 0.1302 0.0
C1055 C 0.87896 0.15488 0.06538 0.0
C1056 C 0.8265 0.20726 0.27416 0.0
C1057 C 0.83096 0.20024 0.23943 0.0
C1058 C 0.84495 0.16578 0.21016 0.0
C1059 C 0.85444 0.15802 0.09914 0.0
C1060 C 0.84734 0.1635 0.13557 0.0
C1061 C 0.82996 0.1828 0.24105 0.0
C1062 C 0.83541 0.17564 0.20474 0.0
H1063 H 0.84302 0.14392 0.99909 0.0
H1064 H 0.83033 0.15063 0.06043 0.0
H1065 H 0.85819 0.15229 0.18141 0.0
H1066 H 0.81548 0.17143 0.3409 0.0
H1067 H 0.82267 0.1588 0.28006 0.0
C1068 C 0.86354 0.72793 0.06573 0.0
C1069 C 0.86931 0.7229 0.02965 0.0
C1070 C 0.85889 0.71668 0.10096 0.0
C1071 C 0.86583 0.6815 0.1529 0.0
H1072 H 0.81639 0.6635 0.19731 0.0
C1073 C 0.81106 0.62187 0.27237 0.0
C1074 C 0.82187 0.62682 0.30841 0.0
C1075 C 0.81758 0.63326 0.23735 0.0
C1076 C 0.83023 0.66846 0.18533 0.0
H1077 H 0.87654 0.70352 0.00251 0.0
H1078 H 0.86866 0.68396 0.06426 0.0
H1079 H 0.82763 0.68624 0.14134 0.0
H1080 H 0.84844 0.64623 0.33566 0.0
H1081 H 0.85999 0.66604 0.27426 0.0
H1082 H 0.86866 0.6642 0.1982 0.0
C1083 C 0.86734 0.69628 0.06523 0.0
C1084 C 0.83666 0.68148 0.15337 0.0
C1085 C 0.87165 0.70732 0.02991 0.0
C1086 C 0.83974 0.64248 0.30829 0.0
C1087 C 0.84639 0.65367 0.27317 0.0
C1088 C 0.85959 0.66888 0.18578 0.0
C1089 C 0.86058 0.70067 0.10076 0.0
C1090 C 0.85442 0.68795 0.13659 0.0
C1091 C 0.83522 0.64935 0.2377 0.0
C1092 C 0.84169 0.66219 0.20207 0.0
H1093 H 0.86202 0.74014 0.06615 0.0
H1094 H 0.85384 0.72038 0.12821 0.0
H1095 H 0.8796 0.68633 0.14042 0.0
H1096 H 0.79737 0.6096 0.27183 0.0
H1097 H 0.80881 0.6296 0.21013 0.0
C1098 C 0.95965 0.47449 0.39733 0.0
C1099 C 0.96491 0.48476 0.36053 0.0
C1100 C 0.97092 0.48131 0.43244 0.0
C1101 C 0.01924 0.51603 0.46284 0.0
H1102 H 0.99837 0.50383 0.57329 0.0
C1103 C 0.04316 0.53251 0.64561 0.0
C1104 C 0.05947 0.5315 0.64378 0.0
C1105 C 0.03177 0.52823 0.6109 0.0
C1106 C 1.00448 0.50742 0.54271 0.0
H1107 H 0.98471 0.51081 0.33195 0.0
H1108 H 1.00401 0.52317 0.3935 0.0
H1109 H 0.97777 0.49415 0.51393 0.0
H1110 H 0.07749 0.52642 0.6044 0.0
H1111 H 0.0572 0.51804 0.54375 0.0
H1112 H 0.04594 0.52974 0.49167 0.0
C1113 C 0.99185 0.50945 0.39508 0.0
C1114 C 0.99262 0.50168 0.50854 0.0
C1115 C 0.98079 0.50244 0.35986 0.0
C1116 C 0.06476 0.52697 0.60639 0.0
C1117 C 0.05321 0.52235 0.57173 0.0
C1118 C 0.0311 0.52175 0.49699 0.0
C1119 C 0.98729 0.49881 0.43159 0.0
C1120 C 0.99985 0.50569 0.46811 0.0
C1121 C 0.03649 0.52279 0.57368 0.0
C1122 C 0.02387 0.51731 0.53736 0.0
H1123 H 0.94723 0.46091 0.39843 0.0
H1124 H 0.96705 0.47261 0.45977 0.0
H1125 H 0.02539 0.51954 0.43231 0.0
H1126 H 0.03919 0.5366 0.67399 0.0
H1127 H 0.0193 0.5292 0.6133 0.0
C1128 C 0.48809 0.51582 0.64292 0.0
C1129 C 0.48946 0.53334 0.64242 0.0
C1130 C 0.49275 0.50924 0.60788 0.0
C1131 C 0.52291 0.52501 0.51939 0.0
H1132 H 0.49084 0.47587 0.47388 0.0
C1133 C 0.54814 0.49124 0.39869 0.0
C1134 C 0.53721 0.48546 0.3628 0.0
C1135 C 0.54177 0.4961 0.43397 0.0
C1136 C 0.49993 0.48958 0.48648 0.0
H1137 H 0.49555 0.55731 0.60498 0.0
H1138 H 0.50443 0.54603 0.54343 0.0
H1139 H 0.47999 0.48687 0.53218 0.0
H1140 H 0.51059 0.47844 0.33608 0.0
H1141 H 0.49931 0.48669 0.39793 0.0
H1142 H 0.54312 0.52747 0.47504 0.0
C1143 C 0.4998 0.53747 0.57104 0.0
C1144 C 0.49375 0.49585 0.51965 0.0
C1145 C 0.49475 0.5439 0.60596 0.0
C1146 C 0.51939 0.48334 0.36331 0.0
C1147 C 0.51289 0.48787 0.39869 0.0
C1148 C 0.5293 0.51854 0.48709 0.0
C1149 C 0.49894 0.52014 0.57193 0.0
C1150 C 0.50517 0.51367 0.53613 0.0
C1151 C 0.52416 0.49462 0.43403 0.0
C1152 C 0.5178 0.50087 0.47006 0.0
H1153 H 0.4836 0.50731 0.67062 0.0
H1154 H 0.49206 0.49588 0.60929 0.0
H1155 H 0.53196 0.53876 0.53171 0.0
H1156 H 0.56179 0.49259 0.39894 0.0
H1157 H 0.55061 0.50112 0.46109 0.0
C1158 C 0.50538 0.97743 0.64163 0.0
C1159 C 0.48761 0.96163 0.64113 0.0
C1160 C 0.51208 0.98885 0.60689 0.0
C1161 C 0.49663 1.00437 0.51954 0.0
H1162 H 0.54551 0.02067 0.47338 0.0
C1163 C 0.53814 0.04188 0.36305 0.0
C1164 C 0.53613 0.05766 0.3623 0.0
C1165 C 0.53368 0.03101 0.39864 0.0
C1166 C 0.53187 0.01628 0.48618 0.0
H1167 H 0.4633 0.94448 0.60391 0.0
H1168 H 0.47484 0.96495 0.54289 0.0
H1169 H 0.53424 0.99863 0.53127 0.0
H1170 H 0.52932 0.07541 0.3982 0.0
H1171 H 0.52092 0.05596 0.4608 0.0
H1172 H 0.49449 0.02246 0.47565 0.0
C1173 C 0.48348 0.96849 0.5703 0.0
C1174 C 0.52546 1.00371 0.51912 0.0
C1175 C 0.47691 0.95684 0.60491 0.0
C1176 C 0.53058 0.06305 0.39817 0.0
C1177 C 0.52579 0.05197 0.4337 0.0
C1178 C 0.50325 0.01731 0.48743 0.0
C1179 C 0.50106 0.98465 0.57124 0.0
C1180 C 0.50772 0.99756 0.5358 0.0
C1181 C 0.52712 0.03575 0.43399 0.0
C1182 C 0.52082 0.0232 0.47013 0.0
H1183 H 0.51398 0.98106 0.66913 0.0
H1184 H 0.52564 1.00127 0.60835 0.0
H1185 H 0.48295 0.99987 0.53203 0.0
H1186 H 0.54286 0.0378 0.33582 0.0
H1187 H 0.53472 0.01852 0.39802 0.0
C1188 C 0.19406 0.25436 0.06031 0.0
C1189 C 0.17501 0.24399 0.06962 0.0
C1190 C 0.20359 0.24555 0.0458 0.0
C1191 C 0.19972 0.19899 0.0326 0.0
H1192 H 0.23517 0.22391 0.94396 0.0
C1193 C 0.22846 0.16092 0.93495 0.0
C1194 C 0.24789 0.17013 0.93051 0.0
C1195 C 0.21969 0.17038 0.95002 0.0
C1196 C 0.22539 0.21682 0.96884 0.0
H1197 H 0.15121 0.21613 0.07258 0.0
H1198 H 0.16764 0.20083 0.04675 0.0
H1199 H 0.2202 0.23936 0.97725 0.0
H1200 H 0.2732 0.19679 0.93614 0.0
H1201 H 0.25782 0.21335 0.96175 0.0
H1202 H 0.20469 0.17631 0.02351 0.0
C1203 C 0.17539 0.21574 0.05115 0.0
C1204 C 0.21687 0.22572 0.98819 0.0
C1205 C 0.16591 0.22454 0.06598 0.0
C1206 C 0.25821 0.18928 0.93909 0.0
C1207 C 0.2494 0.19878 0.9538 0.0
C1208 C 0.2081 0.19004 0.01299 0.0
C1209 C 0.19427 0.22616 0.0399 0.0
C1210 C 0.20388 0.21693 0.02034 0.0
C1211 C 0.2301 0.1893 0.96063 0.0
C1212 C 0.221 0.19882 0.98081 0.0
H1213 H 0.2015 0.26937 0.06287 0.0
H1214 H 0.21821 0.25402 0.03846 0.0
H1215 H 0.19007 0.19187 0.05767 0.0
H1216 H 0.22008 0.14618 0.9287 0.0
H1217 H 0.20476 0.16276 0.95427 0.0
C1218 C 0.85918 0.07098 0.93493 0.0
C1219 C 0.85014 0.08136 0.93093 0.0
C1220 C 0.84961 0.05268 0.94964 0.0
C1221 C 0.80776 0.02112 0.01163 0.0
H1222 H 0.82026 0.98396 0.97764 0.0
C1223 C 0.76628 0.94333 0.06087 0.0
C1224 C 0.7766 0.93459 0.07036 0.0
C1225 C 0.77513 0.96161 0.04593 0.0
C1226 C 0.81675 0.99426 0.98778 0.0
H1227 H 0.82363 0.08026 0.93691 0.0
H1228 H 0.80675 0.04816 0.96106 0.0
H1229 H 0.83502 0.01414 0.94342 0.0
H1230 H 0.80443 0.93858 0.07342 0.0
H1231 H 0.81983 0.97043 0.04739 0.0
H1232 H 0.7892 1.00097 0.0555 0.0
C1233 C 0.8214 0.05431 0.95411 0.0
C1234 C 0.82522 0.0116 0.96813 0.0
C1235 C 0.83103 0.07267 0.93973 0.0
C1236 C 0.79605 0.94487 0.0665 0.0
C1237 C 0.80487 0.96307 0.05116 0.0
C1238 C 0.79914 1.00369 0.03098 0.0
C1239 C 0.83067 0.04422 0.96041 0.0
C1240 C 0.82095 0.02535 0.97993 0.0
C1241 C 0.79447 0.97149 0.03975 0.0
C1242 C 0.80364 0.9901 0.0195 0.0
H1243 H 0.87392 0.07727 0.92874 0.0
H1244 H 0.85733 0.04551 0.95436 0.0
H1245 H 0.80433 0.03141 0.02223 0.0
H1246 H 0.75127 0.93579 0.06336 0.0
H1247 H 0.76671 0.96768 0.03735 0.0
C1248 C 0.94731 0.76209 0.9422 0.0
C1249 C 0.9386 0.77246 0.93289 0.0
C1250 C 0.96562 0.7709 0.95687 0.0
C1251 C 0.99839 0.81247 0.01483 0.0
H1252 H 0.03548 0.8001 0.97956 0.0
C1253 C 0.07512 0.85482 0.0672 0.0
C1254 C 0.0855 0.84576 0.07101 0.0
C1255 C 0.05684 0.84528 0.05249 0.0
C1256 C 0.02521 0.80351 0.99038 0.0
H1257 H 0.94266 0.80033 0.9298 0.0
H1258 H 0.97457 0.81566 0.95538 0.0
H1259 H 1.00498 0.78499 0.94659 0.0
H1260 H 0.08441 0.81926 0.06466 0.0
H1261 H 0.05231 0.80243 0.04051 0.0
H1262 H 0.01834 0.83068 0.05912 0.0
C1263 C 0.96717 0.8007 0.95168 0.0
C1264 C 1.00775 0.79491 0.97121 0.0
C1265 C 0.94894 0.79192 0.93662 0.0
C1266 C 0.07682 0.82668 0.06196 0.0
C1267 C 0.05846 0.81708 0.0476 0.0
C1268 C 0.01576 0.82092 0.0343 0.0
C1269 C 0.97556 0.79026 0.96294 0.0
C1270 C 0.99419 0.7994 0.98299 0.0
C1271 C 0.04837 0.82636 0.04156 0.0
C1272 C 0.02949 0.81667 0.0222 0.0
H1273 H 0.93972 0.74707 0.93979 0.0
H1274 H 0.97168 0.76246 0.96534 0.0
H1275 H 0.98812 0.81596 0.02519 0.0
H1276 H 0.08142 0.86955 0.07358 0.0
H1277 H 0.04967 0.85302 0.04795 0.0
C1278 C 0.85268 0.78269 0.9441 0.0
C1279 C 0.84166 0.76345 0.93686 0.0
C1280 C 0.84454 0.79316 0.95664 0.0
C1281 C 0.79888 0.79147 0.96468 0.0
H1282 H 0.82278 0.82699 0.05373 0.0
C1283 C 0.75886 0.81815 0.05978 0.0
C1284 C 0.76726 0.83752 0.06515 0.0
C1285 C 0.76908 0.81019 0.04495 0.0
C1286 C 0.81602 0.81723 0.02863 0.0
H1287 H 0.81326 0.74042 0.93557 0.0
H1288 H 0.79924 0.75847 0.95765 0.0
H1289 H 0.83843 0.81159 0.02285 0.0
H1290 H 0.79346 0.8635 0.06151 0.0
H1291 H 0.81136 0.84945 0.03615 0.0
H1292 H 0.77632 0.79676 0.97112 0.0
C1293 C 0.81416 0.7656 0.95329 0.0
C1294 C 0.82502 0.80846 0.01074 0.0
C1295 C 0.82226 0.75518 0.94071 0.0
C1296 C 0.78649 0.84856 0.05781 0.0
C1297 C 0.79677 0.84052 0.04319 0.0
C1298 C 0.78987 0.80009 0.98275 0.0
C1299 C 0.82518 0.78466 0.96218 0.0
C1300 C 0.81644 0.79525 0.97889 0.0
C1301 C 0.78802 0.82131 0.03536 0.0
C1302 C 0.79819 0.81287 0.01534 0.0
H1303 H 0.86767 0.78957 0.94151 0.0
H1304 H 0.85344 0.80786 0.96255 0.0
H1305 H 0.79201 0.78173 0.93963 0.0
H1306 H 0.74414 0.80913 0.06535 0.0
H1307 H 0.76202 0.7953 0.04012 0.0
C1308 C 0.17135 0.94206 0.06111 0.0
C1309 C 0.18238 0.93389 0.06868 0.0
C1310 C 0.17953 0.96074 0.04901 0.0
C1311 C 0.22508 1.0049 0.04322 0.0
H1312 H 0.20199 0.01674 0.95283 0.0
C1313 C 0.26584 0.07188 0.94921 0.0
C1314 C 0.2574 0.08272 0.94249 0.0
C1315 C 0.25556 0.05374 0.96426 0.0
C1316 C 0.20851 0.01368 0.97834 0.0
H1317 H 0.2108 0.93938 0.07103 0.0
H1318 H 0.22488 0.97157 0.04976 0.0
H1319 H 0.18616 0.98555 0.983 0.0
H1320 H 0.23112 0.08238 0.94429 0.0
H1321 H 0.2131 0.05049 0.97015 0.0
H1322 H 0.2476 0.03285 0.03791 0.0
C1323 C 0.20994 0.9637 0.0535 0.0
C1324 C 0.19941 0.99583 0.9958 0.0
C1325 C 0.20181 0.94511 0.0656 0.0
C1326 C 0.23812 0.07449 0.94904 0.0
C1327 C 0.22777 0.05621 0.96391 0.0
C1328 C 0.2342 0.02264 0.0256 0.0
C1329 C 0.19892 0.97171 0.04429 0.0
C1330 C 0.20772 0.99113 0.02809 0.0
C1331 C 0.23651 0.04584 0.9728 0.0
C1332 C 0.22617 0.02717 0.99254 0.0
H1333 H 0.15635 0.93389 0.0631 0.0
H1334 H 0.17062 0.96651 0.04281 0.0
H1335 H 0.23173 1.00196 0.06862 0.0
H1336 H 0.28061 0.07761 0.94432 0.0
H1337 H 0.26263 0.04598 0.96993 0.0
C1338 C 0.94647 0.16695 0.94627 0.0
C1339 C 0.93835 0.17803 0.93879 0.0
C1340 C 0.9651 0.17507 0.95866 0.0
C1341 C 1.00921 0.22066 0.96512 0.0
H1342 H 0.0211 0.19737 0.05499 0.0
C1343 C 0.07615 0.26137 0.05905 0.0
C1344 C 0.08715 0.25303 0.06472 0.0
C1345 C 0.05794 0.25102 0.04447 0.0
C1346 C 0.01802 0.20395 0.02966 0.0
H1347 H 0.94386 0.20649 0.93708 0.0
H1348 H 0.97594 0.22044 0.95886 0.0
H1349 H 0.98994 0.18152 0.02468 0.0
H1350 H 0.08698 0.22683 0.06187 0.0
H1351 H 0.05497 0.20872 0.03695 0.0
H1352 H 0.0371 0.24326 0.97075 0.0
C1353 C 0.96809 0.20551 0.95479 0.0
C1354 C 1.00019 0.19484 0.0121 0.0
C1355 C 0.94955 0.19744 0.94241 0.0
C1356 C 0.07897 0.23376 0.0579 0.0
C1357 C 0.06062 0.22335 0.04355 0.0
C1358 C 0.02692 0.22979 0.98285 0.0
C1359 C 0.97607 0.19445 0.96376 0.0
C1360 C 0.99547 0.20322 0.98 0.0
C1361 C 0.05012 0.23202 0.03545 0.0
C1362 C 0.03146 0.22169 0.01574 0.0
H1363 H 0.93828 0.15196 0.9439 0.0
H1364 H 0.97085 0.16613 0.96472 0.0
H1365 H 1.00627 0.22737 0.93984 0.0
H1366 H 0.08183 0.27611 0.0642 0.0
H1367 H 0.05007 0.25803 0.0394 0.0
C1368 C 0.83243 0.55736 0.39979 0.0
C1369 C 0.84153 0.57679 0.40384 0.0
C1370 C 0.84193 0.54861 0.38481 0.0
C1371 C 0.88364 0.5588 0.32236 0.0
H1372 H 0.87117 0.50916 0.35654 0.0
C1373 C 0.925 0.52239 0.27289 0.0
C1374 C 0.91465 0.5033 0.26369 0.0
C1375 C 0.91618 0.53186 0.2878 0.0
C1376 C 0.87467 0.52296 0.34634 0.0
H1377 H 0.86806 0.60218 0.39761 0.0
H1378 H 0.8848 0.5869 0.37298 0.0
H1379 H 0.85647 0.52462 0.39084 0.0
H1380 H 0.8868 0.47943 0.26104 0.0
H1381 H 0.87148 0.49596 0.28696 0.0
H1382 H 0.90212 0.55715 0.27835 0.0
C1383 C 0.87016 0.57841 0.3801 0.0
C1384 C 0.86623 0.53185 0.36603 0.0
C1385 C 0.86061 0.58718 0.39475 0.0
C1386 C 0.89521 0.49413 0.26776 0.0
C1387 C 0.88643 0.50355 0.28303 0.0
C1388 C 0.89221 0.54996 0.30296 0.0
C1389 C 0.86084 0.55905 0.37383 0.0
C1390 C 0.8705 0.54987 0.35418 0.0
C1391 C 0.89686 0.52241 0.29421 0.0
C1392 C 0.88773 0.53188 0.31451 0.0
H1393 H 0.81771 0.54894 0.40619 0.0
H1394 H 0.83417 0.53371 0.38011 0.0
H1395 H 0.88706 0.5725 0.31173 0.0
H1396 H 0.94 0.52985 0.27025 0.0
H1397 H 0.92462 0.54637 0.29619 0.0
C1398 C 0.49815 0.40702 0.27629 0.0
C1399 C 0.51722 0.41567 0.26705 0.0
C1400 C 0.48859 0.3887 0.29095 0.0
C1401 C 0.49238 0.34599 0.30485 0.0
H1402 H 0.45682 0.33563 0.39314 0.0
C1403 C 0.46346 0.27934 0.40321 0.0
C1404 C 0.44403 0.26913 0.40758 0.0
C1405 C 0.47227 0.29754 0.38793 0.0
C1406 C 0.46663 0.33827 0.36836 0.0
H1407 H 0.54099 0.41157 0.26441 0.0
H1408 H 0.52449 0.37988 0.29051 0.0
H1409 H 0.47186 0.36601 0.35959 0.0
H1410 H 0.41874 0.27047 0.40161 0.0
H1411 H 0.43416 0.30237 0.37566 0.0
H1412 H 0.48736 0.31834 0.31432 0.0
C1413 C 0.51676 0.38704 0.28592 0.0
C1414 C 0.4752 0.35567 0.34886 0.0
C1415 C 0.52628 0.4053 0.27094 0.0
C1416 C 0.43374 0.27795 0.39873 0.0
C1417 C 0.44257 0.29624 0.38381 0.0
C1418 C 0.48395 0.32868 0.32462 0.0
C1419 C 0.49788 0.37862 0.29709 0.0
C1420 C 0.48822 0.3598 0.31682 0.0
C1421 C 0.46188 0.30604 0.37705 0.0
C1422 C 0.47101 0.32462 0.35668 0.0
H1423 H 0.49074 0.4146 0.27354 0.0
H1424 H 0.47396 0.38257 0.29822 0.0
H1425 H 0.50205 0.34847 0.27988 0.0
H1426 H 0.47183 0.27298 0.40965 0.0
H1427 H 0.4872 0.30484 0.38374 0.0
C1428 C 0.61394 0.09523 0.27385 0.0
C1429 C 0.60547 0.1058 0.26443 0.0
C1430 C 0.63229 0.10385 0.28824 0.0
C1431 C 0.67533 0.1502 0.30128 0.0
H1432 H 0.68551 0.12503 0.38996 0.0
C1433 C 0.74167 0.18791 0.40048 0.0
C1434 C 0.75192 0.17873 0.40497 0.0
C1435 C 0.72353 0.17849 0.38487 0.0
C1436 C 0.6829 0.13218 0.36507 0.0
H1437 H 0.60993 0.1338 0.26117 0.0
H1438 H 0.64166 0.14877 0.28684 0.0
H1439 H 0.65511 0.10979 0.35652 0.0
H1440 H 0.75073 0.15217 0.39878 0.0
H1441 H 0.71892 0.13565 0.37228 0.0
H1442 H 0.70303 0.17275 0.31063 0.0
C1443 C 0.63434 0.13385 0.28258 0.0
C1444 C 0.6655 0.1234 0.34562 0.0
C1445 C 0.61606 0.12524 0.26783 0.0
C1446 C 0.74321 0.15964 0.39581 0.0
C1447 C 0.72498 0.15017 0.38058 0.0
C1448 C 0.69263 0.15903 0.32103 0.0
C1449 C 0.64259 0.12325 0.29394 0.0
C1450 C 0.66143 0.1323 0.31348 0.0
C1451 C 0.71514 0.15963 0.37378 0.0
C1452 C 0.69661 0.15017 0.35324 0.0
H1453 H 0.60619 0.08022 0.27147 0.0
H1454 H 0.63827 0.09524 0.29566 0.0
H1455 H 0.67291 0.15739 0.27621 0.0
H1456 H 0.74793 0.20261 0.40716 0.0
H1457 H 0.7162 0.18608 0.38063 0.0
C1458 C 0.48972 0.09029 0.27056 0.0
C1459 C 0.50913 0.09832 0.26774 0.0
C1460 C 0.48174 0.10089 0.2826 0.0
C1461 C 0.49255 0.14349 0.34086 0.0
H1462 H 0.44454 0.13277 0.29854 0.0
C1463 C 0.45392 0.18341 0.38865 0.0
C1464 C 0.43463 0.17231 0.39514 0.0
C1465 C 0.46429 0.17555 0.37354 0.0
C1466 C 0.4579 0.13584 0.31089 0.0
H1467 H 0.53531 0.12417 0.2737 0.0
H1468 H 0.52131 0.14278 0.29391 0.0
H1469 H 0.46032 0.11774 0.26746 0.0
H1470 H 0.41145 0.14396 0.39298 0.0
H1471 H 0.42947 0.13045 0.36692 0.0
H1472 H 0.49001 0.16169 0.38426 0.0
C1473 C 0.51229 0.12814 0.28752 0.0
C1474 C 0.46696 0.12722 0.29306 0.0
C1475 C 0.52031 0.11749 0.27546 0.0
C1476 C 0.42622 0.15304 0.38814 0.0
C1477 C 0.43652 0.14526 0.37284 0.0
C1478 C 0.48351 0.15225 0.35853 0.0
C1479 C 0.49291 0.11988 0.29202 0.0
C1480 C 0.48424 0.13061 0.3083 0.0
C1481 C 0.45556 0.15647 0.36433 0.0
C1482 C 0.4659 0.14822 0.34427 0.0
H1483 H 0.4806 0.07559 0.26499 0.0
H1484 H 0.46679 0.09394 0.28617 0.0
H1485 H 0.50575 0.14631 0.35373 0.0
H1486 H 0.46089 0.19829 0.39362 0.0
H1487 H 0.47895 0.18454 0.36735 0.0
C1488 C 0.86797 0.27794 0.39614 0.0
C1489 C 0.84856 0.2667 0.39973 0.0
C1490 C 0.87601 0.29648 0.38373 0.0
C1491 C 0.86533 0.32857 0.32638 0.0
H1492 H 0.91357 0.36556 0.36833 0.0
C1493 C 0.90427 0.40737 0.28009 0.0
C1494 C 0.92354 0.41549 0.27339 0.0
C1495 C 0.89384 0.38906 0.29476 0.0
C1496 C 0.90015 0.35536 0.35607 0.0
H1497 H 0.82248 0.26659 0.39446 0.0
H1498 H 0.83661 0.29915 0.37357 0.0
H1499 H 0.89772 0.33468 0.39901 0.0
H1500 H 0.9466 0.41015 0.27462 0.0
H1501 H 0.92847 0.37848 0.29992 0.0
H1502 H 0.86789 0.34951 0.2835 0.0
C1503 C 0.84556 0.29343 0.37969 0.0
C1504 C 0.89104 0.33763 0.37367 0.0
C1505 C 0.83747 0.27479 0.39211 0.0
C1506 C 0.93186 0.40451 0.27966 0.0
C1507 C 0.92149 0.38635 0.29452 0.0
C1508 C 0.87442 0.34643 0.30894 0.0
C1509 C 0.86493 0.30443 0.37469 0.0
C1510 C 0.87368 0.32385 0.35856 0.0
C1511 C 0.90248 0.37856 0.30331 0.0
C1512 C 0.89211 0.3599 0.32307 0.0
H1513 H 0.87702 0.27227 0.40155 0.0
H1514 H 0.89095 0.30437 0.37973 0.0
H1515 H 0.85206 0.3183 0.31364 0.0
H1516 H 0.89737 0.41537 0.27569 0.0
H1517 H 0.8792 0.38342 0.30118 0.0
C1518 C 0.61331 0.5015 0.27911 0.0
C1519 C 0.60517 0.51259 0.27193 0.0
C1520 C 0.63163 0.50946 0.29371 0.0
C1521 C 0.66524 0.5497 0.35442 0.0
H1522 H 0.70218 0.53812 0.31384 0.0
C1523 C 0.74253 0.59427 0.39675 0.0
C1524 C 0.75362 0.58593 0.40037 0.0
C1525 C 0.72402 0.58393 0.38408 0.0
C1526 C 0.69194 0.54127 0.32608 0.0
H1527 H 0.61053 0.54101 0.27204 0.0
H1528 H 0.64223 0.55471 0.29727 0.0
H1529 H 0.67114 0.5229 0.28296 0.0
H1530 H 0.75345 0.55981 0.39515 0.0
H1531 H 0.72094 0.54165 0.37394 0.0
H1532 H 0.68576 0.5679 0.39769 0.0
C1533 C 0.63436 0.53983 0.2923 0.0
C1534 C 0.67418 0.5326 0.30819 0.0
C1535 C 0.61618 0.53194 0.27748 0.0
C1536 C 0.74537 0.56673 0.39276 0.0
C1537 C 0.72676 0.55634 0.38012 0.0
C1538 C 0.68287 0.55822 0.37249 0.0
C1539 C 0.64213 0.52864 0.3017 0.0
C1540 C 0.66075 0.537 0.32167 0.0
C1541 C 0.71594 0.5649 0.37485 0.0
C1542 C 0.6966 0.5544 0.35811 0.0
H1543 H 0.6053 0.48656 0.27526 0.0
H1544 H 0.63725 0.50048 0.3006 0.0
H1545 H 0.65506 0.55306 0.36618 0.0
H1546 H 0.74832 0.60901 0.40219 0.0
H1547 H 0.71628 0.59112 0.37992 0.0
C1548 C 0.59476 0.8565 0.62834 0.0
C1549 C 0.58513 0.84089 0.60252 0.0
C1550 C 0.58604 0.86602 0.64328 0.0
C1551 C 0.55022 0.87767 0.62503 0.0
H1552 H 0.54622 0.87925 0.7447 0.0
C1553 C 0.52682 0.92395 0.70937 0.0
C1554 C 0.5106 0.91399 0.73325 0.0
C1555 C 0.53644 0.91531 0.69468 0.0
C1556 C 0.54728 0.8789 0.71128 0.0
H1557 H 0.55913 0.82361 0.57047 0.0
H1558 H 0.54417 0.84088 0.59521 0.0
H1559 H 0.56236 0.86418 0.71384 0.0
H1560 H 0.4923 0.88742 0.76212 0.0
H1561 H 0.50971 0.87252 0.73777 0.0
H1562 H 0.53558 0.89283 0.62249 0.0
C1563 C 0.55835 0.84545 0.60436 0.0
C1564 C 0.55654 0.87039 0.69367 0.0
C1565 C 0.56692 0.83563 0.59016 0.0
C1566 C 0.50478 0.89547 0.74394 0.0
C1567 C 0.51469 0.88694 0.72997 0.0
C1568 C 0.54136 0.88659 0.64266 0.0
C1569 C 0.56768 0.86041 0.63195 0.0
C1570 C 0.55804 0.86964 0.65039 0.0
C1571 C 0.53031 0.89666 0.7043 0.0
C1572 C 0.53975 0.88722 0.68593 0.0
H1573 H 0.60873 0.86081 0.63877 0.0
H1574 H 0.59354 0.8776 0.6643 0.0
H1575 H 0.55121 0.87727 0.59161 0.0
H1576 H 0.53162 0.93819 0.70029 0.0
H1577 H 0.54853 0.92311 0.67517 0.0
C1578 C 0.16337 0.73975 0.60788 0.0
C1579 C 0.18248 0.74823 0.59929 0.0
C1580 C 0.1535 0.72135 0.62197 0.0
C1581 C 0.15677 0.6783 0.63559 0.0
H1582 H 0.12044 0.66759 0.72231 0.0
C1583 C 0.12836 0.61226 0.7353 0.0
C1584 C 0.1089 0.60151 0.73839 0.0
C1585 C 0.13685 0.63039 0.71977 0.0
C1586 C 0.13047 0.67035 0.69796 0.0
H1587 H 0.20603 0.74376 0.59729 0.0
H1588 H 0.18903 0.71197 0.62252 0.0
H1589 H 0.13575 0.6981 0.68923 0.0
H1590 H 0.08319 0.60184 0.72989 0.0
H1591 H 0.0981 0.63372 0.70357 0.0
H1592 H 0.1518 0.65067 0.64525 0.0
C1593 C 0.18148 0.71931 0.61776 0.0
C1594 C 0.13918 0.68781 0.67871 0.0
C1595 C 0.19129 0.73763 0.60329 0.0
C1596 C 0.09821 0.60975 0.72802 0.0
C1597 C 0.10674 0.628 0.71287 0.0
C1598 C 0.14823 0.66096 0.65518 0.0
C1599 C 0.16252 0.71102 0.62822 0.0
C1600 C 0.15254 0.69208 0.64734 0.0
C1601 C 0.12611 0.6383 0.70737 0.0
C1602 C 0.13506 0.65681 0.68673 0.0
H1603 H 0.15615 0.74752 0.60503 0.0
H1604 H 0.13884 0.71536 0.6287 0.0
H1605 H 0.16666 0.68084 0.61107 0.0
H1606 H 0.13704 0.60638 0.74299 0.0
H1607 H 0.15183 0.6381 0.71656 0.0
C1608 C 0.41114 0.4916 0.72876 0.0
C1609 C 0.41917 0.51055 0.73874 0.0
C1610 C 0.39273 0.48151 0.71469 0.0
C1611 C 0.34904 0.4839 0.70358 0.0
H1612 H 0.33884 0.44885 0.61419 0.0
C1613 C 0.28354 0.45673 0.60271 0.0
C1614 C 0.2727 0.4373 0.59902 0.0
C1615 C 0.30161 0.46501 0.61847 0.0
C1616 C 0.34147 0.45852 0.63928 0.0
H1617 H 0.41391 0.53356 0.7432 0.0
H1618 H 0.38221 0.51626 0.71798 0.0
H1619 H 0.36933 0.46404 0.6474 0.0
H1620 H 0.2728 0.41142 0.60665 0.0
H1621 H 0.30462 0.42598 0.63325 0.0
H1622 H 0.32134 0.47876 0.69442 0.0
C1623 C 0.38985 0.50895 0.72165 0.0
C1624 C 0.35891 0.46716 0.65861 0.0
C1625 C 0.40814 0.51895 0.7361 0.0
C1626 C 0.28079 0.42643 0.60901 0.0
C1627 C 0.299 0.43475 0.6243 0.0
C1628 C 0.33174 0.47547 0.68388 0.0
C1629 C 0.38197 0.49018 0.70989 0.0
C1630 C 0.36301 0.48008 0.6909 0.0
C1631 C 0.30938 0.45409 0.63042 0.0
C1632 C 0.3278 0.4628 0.65133 0.0
H1633 H 0.41925 0.4847 0.73049 0.0
H1634 H 0.38708 0.467 0.70687 0.0
H1635 H 0.35142 0.4934 0.72886 0.0
H1636 H 0.27776 0.46554 0.59537 0.0
H1637 H 0.30939 0.47997 0.62223 0.0
C1638 C 0.16021 0.42838 0.59271 0.0
C1639 C 0.17865 0.43362 0.6029 0.0
C1640 C 0.15244 0.43906 0.606 0.0
C1641 C 0.153 0.46635 0.69193 0.0
H1642 H 0.13095 0.48754 0.62018 0.0
C1643 C 0.0993 0.48885 0.74035 0.0
C1644 C 0.10445 0.50729 0.73032 0.0
C1645 C 0.10999 0.48114 0.7267 0.0
C1646 C 0.13711 0.48172 0.64049 0.0
H1647 H 0.20346 0.45438 0.63449 0.0
H1648 H 0.18964 0.47269 0.65862 0.0
H1649 H 0.14641 0.4717 0.5897 0.0
H1650 H 0.125 0.53214 0.6985 0.0
H1651 H 0.14332 0.51842 0.6737 0.0
H1652 H 0.14301 0.47566 0.74272 0.0
C1653 C 0.18138 0.46048 0.63978 0.0
C1654 C 0.14587 0.47265 0.62311 0.0
C1655 C 0.1893 0.45008 0.62564 0.0
C1656 C 0.12078 0.51798 0.70723 0.0
C1657 C 0.13119 0.51012 0.69272 0.0
C1658 C 0.14383 0.475 0.70932 0.0
C1659 C 0.16281 0.45491 0.63059 0.0
C1660 C 0.15394 0.46494 0.64869 0.0
C1661 C 0.12574 0.49157 0.70189 0.0
C1662 C 0.13586 0.4828 0.68373 0.0
H1663 H 0.15163 0.41573 0.57544 0.0
H1664 H 0.13806 0.43448 0.59865 0.0
H1665 H 0.15901 0.46038 0.71225 0.0
H1666 H 0.08675 0.48024 0.7579 0.0
H1667 H 0.10551 0.46678 0.73404 0.0
C1668 C 0.5313 0.61469 0.74195 0.0
C1669 C 0.51283 0.60132 0.73244 0.0
C1670 C 0.53885 0.63306 0.72823 0.0
C1671 C 0.53736 0.65926 0.64207 0.0
H1672 H 0.55985 0.70284 0.7128 0.0
C1673 C 0.59063 0.7353 0.5916 0.0
C1674 C 0.58581 0.74874 0.60252 0.0
C1675 C 0.57988 0.7169 0.60523 0.0
C1676 C 0.55355 0.69076 0.69277 0.0
H1677 H 0.48773 0.59689 0.70159 0.0
H1678 H 0.50115 0.62888 0.67672 0.0
H1679 H 0.54479 0.67169 0.74397 0.0
H1680 H 0.56573 0.7533 0.6357 0.0
H1681 H 0.54729 0.72125 0.6604 0.0
H1682 H 0.54684 0.67833 0.59082 0.0
C1683 C 0.50962 0.62513 0.69536 0.0
C1684 C 0.54503 0.67301 0.71055 0.0
C1685 C 0.50193 0.60688 0.70993 0.0
C1686 C 0.56968 0.74324 0.62626 0.0
C1687 C 0.55921 0.72496 0.64073 0.0
C1688 C 0.5463 0.67701 0.62426 0.0
C1689 C 0.52821 0.63829 0.70387 0.0
C1690 C 0.53682 0.65712 0.68534 0.0
C1691 C 0.5644 0.71173 0.63089 0.0
C1692 C 0.55442 0.6929 0.64947 0.0
H1693 H 0.54008 0.61081 0.75901 0.0
H1694 H 0.55325 0.64299 0.73506 0.0
H1695 H 0.53124 0.64718 0.62203 0.0
H1696 H 0.60303 0.73914 0.57357 0.0
H1697 H 0.58416 0.70692 0.59735 0.0
C1698 C 0.28282 0.86388 0.60837 0.0
C1699 C 0.2715 0.84451 0.60412 0.0
C1700 C 0.30133 0.87174 0.62086 0.0
C1701 C 0.33318 0.86021 0.677 0.0
H1702 H 0.37017 0.90928 0.63913 0.0
C1703 C 0.41208 0.89934 0.72373 0.0
C1704 C 0.41975 0.91837 0.73285 0.0
C1705 C 0.39378 0.88885 0.70899 0.0
C1706 C 0.35996 0.89561 0.6502 0.0
H1707 H 0.27126 0.81831 0.60803 0.0
H1708 H 0.30378 0.83213 0.62886 0.0
H1709 H 0.33952 0.89377 0.60735 0.0
H1710 H 0.41355 0.94084 0.73622 0.0
H1711 H 0.38195 0.92264 0.71059 0.0
H1712 H 0.35395 0.86217 0.71966 0.0
C1713 C 0.29813 0.84119 0.62334 0.0
C1714 C 0.34235 0.8867 0.63201 0.0
C1715 C 0.27951 0.83328 0.61092 0.0
C1716 C 0.40828 0.9263 0.72923 0.0
C1717 C 0.39016 0.9159 0.71422 0.0
C1718 C 0.35094 0.86909 0.69495 0.0
C1719 C 0.30919 0.86052 0.62923 0.0
C1720 C 0.32855 0.86905 0.64572 0.0
C1721 C 0.38288 0.89723 0.70277 0.0
C1722 C 0.36438 0.88705 0.68232 0.0
H1723 H 0.27722 0.87304 0.60359 0.0
H1724 H 0.30923 0.88664 0.62556 0.0
H1725 H 0.32289 0.84671 0.6887 0.0
H1726 H 0.42045 0.89273 0.72606 0.0
H1727 H 0.3885 0.87445 0.70052 0.0
loop_
_geom_bond_atom_site_label_1
_geom_bond_atom_site_label_2
_geom_bond_distance
_geom_bond_site_symmetry_2
_ccdc_geom_bond_type
Mn0 O5 2.095 . S
Mn0 O15 2.162 . S
Mn0 O16 2.297 . S
Mn0 O24 2.385 1_554 S
Mn0 O25 2.209 . S
Mn0 O26 2.094 . S
Mn1 O6 2.121 . S
Mn1 N8 2.257 . S
Mn1 N17 2.282 1_554 S
Mn1 O25 2.215 . S
Mn1 O27 2.117 . S
C2 O24 1.234 . S
C2 O25 1.283 1_556 S
C3 O15 1.281 . S
C3 O16 1.236 . S
C4 O26 1.240 . S
C4 O27 1.264 . S
O5 Mn0 2.095 . S
O5 C14 1.250 . S
O6 Mn1 2.121 . S
O6 C14 1.258 . S
C7 N8 1.326 . S
C7 C11 1.460 . S
C7 H13 0.929 . S
N8 Mn1 2.257 . S
N8 C7 1.326 . S
N8 C12 1.362 . S
C9 C10 1.258 . S
C9 C12 1.431 . S
C9 C29 1.449 1_554 S
C10 C9 1.258 . S
C10 C11 1.477 . S
C10 H30 0.931 . S
C11 C7 1.460 . S
C11 C10 1.477 . S
C11 H31 0.930 . S
C12 N8 1.362 . S
C12 C9 1.431 . S
C12 C22 1.476 1_554 S
H13 C7 0.929 . S
C14 O5 1.250 . S
C14 O6 1.258 . S
O15 Mn0 2.162 . S
O15 C3 1.281 . S
O16 Mn0 2.297 . S
O16 C3 1.236 . S
N17 Mn1 2.282 1_556 S
N17 C18 1.328 . S
N17 C22 1.318 . S
C18 N17 1.328 . S
C18 C19 1.457 . S
C18 H23 0.929 . S
C19 C18 1.457 . S
C19 C20 1.291 . S
C19 H32 0.931 . S
C20 C19 1.291 . S
C20 C21 1.373 . S
C20 H33 0.929 . S
C21 C20 1.373 . S
C21 C22 1.396 . S
C21 C28 1.403 . S
C22 C12 1.476 1_556 S
C22 N17 1.318 . S
C22 C21 1.396 . S
H23 C18 0.929 . S
O24 Mn0 2.385 1_556 S
O24 C2 1.234 . S
O25 Mn0 2.209 . S
O25 Mn1 2.215 . S
O25 C2 1.283 1_554 S
O26 Mn0 2.094 . S
O26 C4 1.240 . S
O27 Mn1 2.117 . S
O27 C4 1.264 . S
C28 C21 1.403 . S
C28 C29 1.399 . S
C28 H34 0.929 . S
C29 C9 1.449 1_556 S
C29 C28 1.399 . S
C29 H35 0.930 . S
H30 C10 0.931 . S
H31 C11 0.930 . S
H32 C19 0.931 . S
H33 C20 0.929 . S
H34 C28 0.929 . S
H35 C29 0.930 . S
Mn36 O41 2.095 . S
Mn36 O51 2.162 . S
Mn36 O52 2.297 . S
Mn36 O60 2.385 1_554 S
Mn36 O61 2.209 . S
Mn36 O62 2.094 . S
Mn37 O42 2.121 . S
Mn37 N44 2.257 . S
Mn37 N53 2.282 1_554 S
Mn37 O61 2.215 . S
Mn37 O63 2.117 . S
C38 O60 1.234 . S
C38 O61 1.283 1_556 S
C39 O51 1.281 . S
C39 O52 1.236 . S
C40 O62 1.240 . S
C40 O63 1.264 . S
O41 Mn36 2.095 . S
O41 C50 1.250 . S
O42 Mn37 2.121 . S
O42 C50 1.258 . S
C43 N44 1.326 . S
C43 C47 1.460 . S
C43 H49 0.929 . S
N44 Mn37 2.257 . S
N44 C43 1.326 . S
N44 C48 1.362 . S
C45 C46 1.258 . S
C45 C48 1.431 . S
C45 C65 1.449 1_554 S
C46 C45 1.258 . S
C46 C47 1.477 . S
C46 H66 0.931 . S
C47 C43 1.460 . S
C47 C46 1.477 . S
C47 H67 0.930 . S
C48 N44 1.362 . S
C48 C45 1.431 . S
C48 C58 1.476 1_554 S
H49 C43 0.929 . S
C50 O41 1.250 . S
C50 O42 1.258 . S
O51 Mn36 2.162 . S
O51 C39 1.281 . S
O52 Mn36 2.297 . S
O52 C39 1.236 . S
N53 Mn37 2.282 1_556 S
N53 C54 1.328 . S
N53 C58 1.318 . S
C54 N53 1.328 . S
C54 C55 1.457 . S
C54 H59 0.929 . S
C55 C54 1.457 . S
C55 C56 1.291 . S
C55 H68 0.931 . S
C56 C55 1.291 . S
C56 C57 1.373 . S
C56 H69 0.929 . S
C57 C56 1.373 . S
C57 C58 1.396 . S
C57 C64 1.403 . S
C58 C48 1.476 1_556 S
C58 N53 1.318 . S
C58 C57 1.396 . S
H59 C54 0.929 . S
O60 Mn36 2.385 1_556 S
O60 C38 1.234 . S
O61 Mn36 2.209 . S
O61 Mn37 2.215 . S
O61 C38 1.283 1_554 S
O62 Mn36 2.094 . S
O62 C40 1.240 . S
O63 Mn37 2.117 . S
O63 C40 1.264 . S
C64 C57 1.403 . S
C64 C65 1.399 . S
C64 H70 0.929 . S
C65 C45 1.449 1_556 S
C65 C64 1.399 . S
C65 H71 0.930 . S
H66 C46 0.931 . S
H67 C47 0.930 . S
H68 C55 0.931 . S
H69 C56 0.929 . S
H70 C64 0.929 . S
H71 C65 0.930 . S
Mn72 O77 2.095 . S
Mn72 O87 2.162 . S
Mn72 O88 2.297 . S
Mn72 O96 2.385 1_554 S
Mn72 O97 2.209 . S
Mn72 O98 2.094 . S
Mn73 O78 2.121 . S
Mn73 N80 2.257 . S
Mn73 N89 2.282 1_554 S
Mn73 O97 2.215 . S
Mn73 O99 2.117 . S
C74 O96 1.234 . S
C74 O97 1.283 1_556 S
C75 O87 1.281 . S
C75 O88 1.236 . S
C76 O98 1.240 . S
C76 O99 1.264 . S
O77 Mn72 2.095 . S
O77 C86 1.250 . S
O78 Mn73 2.121 . S
O78 C86 1.258 . S
C79 N80 1.326 . S
C79 C83 1.460 . S
C79 H85 0.929 . S
N80 Mn73 2.257 . S
N80 C79 1.326 . S
N80 C84 1.362 . S
C81 C82 1.258 . S
C81 C84 1.431 . S
C81 C101 1.449 1_554 S
C82 C81 1.258 . S
C82 C83 1.477 . S
C82 H102 0.931 . S
C83 C79 1.460 . S
C83 C82 1.477 . S
C83 H103 0.930 . S
C84 N80 1.362 . S
C84 C81 1.431 . S
C84 C94 1.476 1_554 S
H85 C79 0.929 . S
C86 O77 1.250 . S
C86 O78 1.258 . S
O87 Mn72 2.162 . S
O87 C75 1.281 . S
O88 Mn72 2.297 . S
O88 C75 1.236 . S
N89 Mn73 2.282 1_556 S
N89 C90 1.328 . S
N89 C94 1.318 . S
C90 N89 1.328 . S
C90 C91 1.457 . S
C90 H95 0.929 . S
C91 C90 1.457 . S
C91 C92 1.291 . S
C91 H104 0.931 . S
C92 C91 1.291 . S
C92 C93 1.373 . S
C92 H105 0.929 . S
C93 C92 1.373 . S
C93 C94 1.396 . S
C93 C100 1.403 . S
C94 C84 1.476 1_556 S
C94 N89 1.318 . S
C94 C93 1.396 . S
H95 C90 0.929 . S
O96 Mn72 2.385 1_556 S
O96 C74 1.234 . S
O97 Mn72 2.209 . S
O97 Mn73 2.215 . S
O97 C74 1.283 1_554 S
O98 Mn72 2.094 . S
O98 C76 1.240 . S
O99 Mn73 2.117 . S
O99 C76 1.264 . S
C100 C93 1.403 . S
C100 C101 1.399 . S
C100 H106 0.929 . S
C101 C81 1.449 1_556 S
C101 C100 1.399 . S
C101 H107 0.930 . S
H102 C82 0.931 . S
H103 C83 0.930 . S
H104 C91 0.931 . S
H105 C92 0.929 . S
H106 C100 0.929 . S
H107 C101 0.930 . S
Mn108 O113 2.095 . S
Mn108 O123 2.162 . S
Mn108 O124 2.297 . S
Mn108 O132 2.385 1_556 S
Mn108 O133 2.209 . S
Mn108 O134 2.094 . S
Mn109 O114 2.121 . S
Mn109 N116 2.257 . S
Mn109 N125 2.282 1_556 S
Mn109 O133 2.215 . S
Mn109 O135 2.117 . S
C110 O132 1.234 . S
C110 O133 1.283 1_554 S
C111 O123 1.281 . S
C111 O124 1.236 . S
C112 O134 1.240 . S
C112 O135 1.264 . S
O113 Mn108 2.095 . S
O113 C122 1.250 . S
O114 Mn109 2.121 . S
O114 C122 1.258 . S
C115 N116 1.326 . S
C115 C119 1.460 . S
C115 H121 0.929 . S
N116 Mn109 2.257 . S
N116 C115 1.326 . S
N116 C120 1.362 . S
C117 C118 1.258 . S
C117 C120 1.431 . S
C117 C137 1.449 1_556 S
C118 C117 1.258 . S
C118 C119 1.477 . S
C118 H138 0.931 . S
C119 C115 1.460 . S
C119 C118 1.477 . S
C119 H139 0.930 . S
C120 N116 1.362 . S
C120 C117 1.431 . S
C120 C130 1.476 1_556 S
H121 C115 0.929 . S
C122 O113 1.250 . S
C122 O114 1.258 . S
O123 Mn108 2.162 . S
O123 C111 1.281 . S
O124 Mn108 2.297 . S
O124 C111 1.236 . S
N125 Mn109 2.282 1_554 S
N125 C126 1.328 . S
N125 C130 1.318 . S
C126 N125 1.328 . S
C126 C127 1.457 . S
C126 H131 0.929 . S
C127 C126 1.457 . S
C127 C128 1.291 . S
C127 H140 0.931 . S
C128 C127 1.291 . S
C128 C129 1.373 . S
C128 H141 0.929 . S
C129 C128 1.373 . S
C129 C130 1.396 . S
C129 C136 1.403 . S
C130 C120 1.476 1_554 S
C130 N125 1.318 . S
C130 C129 1.396 . S
H131 C126 0.929 . S
O132 Mn108 2.385 1_554 S
O132 C110 1.234 . S
O133 Mn108 2.209 . S
O133 Mn109 2.215 . S
O133 C110 1.283 1_556 S
O134 Mn108 2.094 . S
O134 C112 1.240 . S
O135 Mn109 2.117 . S
O135 C112 1.264 . S
C136 C129 1.403 . S
C136 C137 1.399 . S
C136 H142 0.929 . S
C137 C117 1.449 1_554 S
C137 C136 1.399 . S
C137 H143 0.930 . S
H138 C118 0.931 . S
H139 C119 0.930 . S
H140 C127 0.931 . S
H141 C128 0.929 . S
H142 C136 0.929 . S
H143 C137 0.930 . S
Mn144 O149 2.095 . S
Mn144 O159 2.162 . S
Mn144 O160 2.297 . S
Mn144 O168 2.385 1_556 S
Mn144 O169 2.209 . S
Mn144 O170 2.094 . S
Mn145 O150 2.121 . S
Mn145 N152 2.257 . S
Mn145 N161 2.282 1_556 S
Mn145 O169 2.215 . S
Mn145 O171 2.117 . S
C146 O168 1.234 . S
C146 O169 1.283 1_554 S
C147 O159 1.281 . S
C147 O160 1.236 . S
C148 O170 1.240 . S
C148 O171 1.264 . S
O149 Mn144 2.095 . S
O149 C158 1.250 . S
O150 Mn145 2.121 . S
O150 C158 1.258 . S
C151 N152 1.326 . S
C151 C155 1.460 . S
C151 H157 0.929 . S
N152 Mn145 2.257 . S
N152 C151 1.326 . S
N152 C156 1.362 . S
C153 C154 1.258 . S
C153 C156 1.431 . S
C153 C173 1.449 1_556 S
C154 C153 1.258 . S
C154 C155 1.477 . S
C154 H174 0.931 . S
C155 C151 1.460 . S
C155 C154 1.477 . S
C155 H175 0.930 . S
C156 N152 1.362 . S
C156 C153 1.431 . S
C156 C166 1.476 1_556 S
H157 C151 0.929 . S
C158 O149 1.250 . S
C158 O150 1.258 . S
O159 Mn144 2.162 . S
O159 C147 1.281 . S
O160 Mn144 2.297 . S
O160 C147 1.236 . S
N161 Mn145 2.282 1_554 S
N161 C162 1.328 . S
N161 C166 1.318 . S
C162 N161 1.328 . S
C162 C163 1.457 . S
C162 H167 0.929 . S
C163 C162 1.457 . S
C163 C164 1.291 . S
C163 H176 0.931 . S
C164 C163 1.291 . S
C164 C165 1.373 . S
C164 H177 0.929 . S
C165 C164 1.373 . S
C165 C166 1.396 . S
C165 C172 1.403 . S
C166 C156 1.476 1_554 S
C166 N161 1.318 . S
C166 C165 1.396 . S
H167 C162 0.929 . S
O168 Mn144 2.385 1_554 S
O168 C146 1.234 . S
O169 Mn144 2.209 . S
O169 Mn145 2.215 . S
O169 C146 1.283 1_556 S
O170 Mn144 2.094 . S
O170 C148 1.240 . S
O171 Mn145 2.117 . S
O171 C148 1.264 . S
C172 C165 1.403 . S
C172 C173 1.399 . S
C172 H178 0.929 . S
C173 C153 1.449 1_554 S
C173 C172 1.399 . S
C173 H179 0.930 . S
H174 C154 0.931 . S
H175 C155 0.930 . S
H176 C163 0.931 . S
H177 C164 0.929 . S
H178 C172 0.929 . S
H179 C173 0.930 . S
Mn180 O185 2.095 . S
Mn180 O195 2.162 . S
Mn180 O196 2.297 . S
Mn180 O204 2.385 1_556 S
Mn180 O205 2.209 . S
Mn180 O206 2.094 . S
Mn181 O186 2.121 . S
Mn181 N188 2.257 . S
Mn181 N197 2.282 1_556 S
Mn181 O205 2.215 . S
Mn181 O207 2.117 . S
C182 O204 1.234 . S
C182 O205 1.283 1_554 S
C183 O195 1.281 . S
C183 O196 1.236 . S
C184 O206 1.240 . S
C184 O207 1.264 . S
O185 Mn180 2.095 . S
O185 C194 1.250 . S
O186 Mn181 2.121 . S
O186 C194 1.258 . S
C187 N188 1.326 . S
C187 C191 1.460 . S
C187 H193 0.929 . S
N188 Mn181 2.257 . S
N188 C187 1.326 . S
N188 C192 1.362 . S
C189 C190 1.258 . S
C189 C192 1.431 . S
C189 C209 1.449 1_556 S
C190 C189 1.258 . S
C190 C191 1.477 . S
C190 H210 0.931 . S
C191 C187 1.460 . S
C191 C190 1.477 . S
C191 H211 0.930 . S
C192 N188 1.362 . S
C192 C189 1.431 . S
C192 C202 1.476 1_556 S
H193 C187 0.929 . S
C194 O185 1.250 . S
C194 O186 1.258 . S
O195 Mn180 2.162 . S
O195 C183 1.281 . S
O196 Mn180 2.297 . S
O196 C183 1.236 . S
N197 Mn181 2.282 1_554 S
N197 C198 1.328 . S
N197 C202 1.318 . S
C198 N197 1.328 . S
C198 C199 1.457 . S
C198 H203 0.929 . S
C199 C198 1.457 . S
C199 C200 1.291 . S
C199 H212 0.931 . S
C200 C199 1.291 . S
C200 C201 1.373 . S
C200 H213 0.929 . S
C201 C200 1.373 . S
C201 C202 1.396 . S
C201 C208 1.403 . S
C202 C192 1.476 1_554 S
C202 N197 1.318 . S
C202 C201 1.396 . S
H203 C198 0.929 . S
O204 Mn180 2.385 1_554 S
O204 C182 1.234 . S
O205 Mn180 2.209 . S
O205 Mn181 2.215 . S
O205 C182 1.283 1_556 S
O206 Mn180 2.094 . S
O206 C184 1.240 . S
O207 Mn181 2.117 . S
O207 C184 1.264 . S
C208 C201 1.403 . S
C208 C209 1.399 . S
C208 H214 0.929 . S
C209 C189 1.449 1_554 S
C209 C208 1.399 . S
C209 H215 0.930 . S
H210 C190 0.931 . S
H211 C191 0.930 . S
H212 C199 0.931 . S
H213 C200 0.929 . S
H214 C208 0.929 . S
H215 C209 0.930 . S
Mn216 O221 2.095 . S
Mn216 O231 2.162 . S
Mn216 O232 2.297 . S
Mn216 O240 2.385 . S
Mn216 O241 2.209 . S
Mn216 O242 2.094 . S
Mn217 O222 2.121 . S
Mn217 N224 2.257 . S
Mn217 N233 2.282 . S
Mn217 O241 2.215 . S
Mn217 O243 2.117 . S
C218 O240 1.234 . S
C218 O241 1.283 . S
C219 O231 1.281 . S
C219 O232 1.236 . S
C220 O242 1.240 . S
C220 O243 1.264 . S
O221 Mn216 2.095 . S
O221 C230 1.250 . S
O222 Mn217 2.121 . S
O222 C230 1.258 . S
C223 N224 1.326 . S
C223 C227 1.460 . S
C223 H229 0.929 . S
N224 Mn217 2.257 . S
N224 C223 1.326 . S
N224 C228 1.362 . S
C225 C226 1.258 . S
C225 C228 1.431 . S
C225 C245 1.449 . S
C226 C225 1.258 . S
C226 C227 1.477 . S
C226 H246 0.931 . S
C227 C223 1.460 . S
C227 C226 1.477 . S
C227 H247 0.930 . S
C228 N224 1.362 . S
C228 C225 1.431 . S
C228 C238 1.476 . S
H229 C223 0.929 . S
C230 O221 1.250 . S
C230 O222 1.258 . S
O231 Mn216 2.162 . S
O231 C219 1.281 . S
O232 Mn216 2.297 . S
O232 C219 1.236 . S
N233 Mn217 2.282 . S
N233 C234 1.328 . S
N233 C238 1.318 . S
C234 N233 1.328 . S
C234 C235 1.457 . S
C234 H239 0.929 . S
C235 C234 1.457 . S
C235 C236 1.291 . S
C235 H248 0.931 . S
C236 C235 1.291 . S
C236 C237 1.373 . S
C236 H249 0.929 . S
C237 C236 1.373 . S
C237 C238 1.396 . S
C237 C244 1.403 . S
C238 C228 1.476 . S
C238 N233 1.318 . S
C238 C237 1.396 . S
H239 C234 0.929 . S
O240 Mn216 2.385 . S
O240 C218 1.234 . S
O241 Mn216 2.209 . S
O241 Mn217 2.215 . S
O241 C218 1.283 . S
O242 Mn216 2.094 . S
O242 C220 1.240 . S
O243 Mn217 2.117 . S
O243 C220 1.264 . S
C244 C237 1.403 . S
C244 C245 1.399 . S
C244 H250 0.929 . S
C245 C225 1.449 . S
C245 C244 1.399 . S
C245 H251 0.930 . S
H246 C226 0.931 . S
H247 C227 0.930 . S
H248 C235 0.931 . S
H249 C236 0.929 . S
H250 C244 0.929 . S
H251 C245 0.930 . S
Mn252 O257 2.095 . S
Mn252 O267 2.162 . S
Mn252 O268 2.297 . S
Mn252 O276 2.385 . S
Mn252 O277 2.209 . S
Mn252 O278 2.094 . S
Mn253 O258 2.121 . S
Mn253 N260 2.257 . S
Mn253 N269 2.282 . S
Mn253 O277 2.215 . S
Mn253 O279 2.117 . S
C254 O276 1.234 . S
C254 O277 1.283 . S
C255 O267 1.281 . S
C255 O268 1.236 . S
C256 O278 1.240 . S
C256 O279 1.264 . S
O257 Mn252 2.095 . S
O257 C266 1.250 . S
O258 Mn253 2.121 . S
O258 C266 1.258 . S
C259 N260 1.326 . S
C259 C263 1.460 . S
C259 H265 0.929 . S
N260 Mn253 2.257 . S
N260 C259 1.326 . S
N260 C264 1.362 . S
C261 C262 1.258 . S
C261 C264 1.431 . S
C261 C281 1.449 . S
C262 C261 1.258 . S
C262 C263 1.477 . S
C262 H282 0.931 . S
C263 C259 1.460 . S
C263 C262 1.477 . S
C263 H283 0.930 . S
C264 N260 1.362 . S
C264 C261 1.431 . S
C264 C274 1.476 . S
H265 C259 0.929 . S
C266 O257 1.250 . S
C266 O258 1.258 . S
O267 Mn252 2.162 . S
O267 C255 1.281 . S
O268 Mn252 2.297 . S
O268 C255 1.236 . S
N269 Mn253 2.282 . S
N269 C270 1.328 . S
N269 C274 1.318 . S
C270 N269 1.328 . S
C270 C271 1.457 . S
C270 H275 0.929 . S
C271 C270 1.457 . S
C271 C272 1.291 . S
C271 H284 0.931 . S
C272 C271 1.291 . S
C272 C273 1.373 . S
C272 H285 0.929 . S
C273 C272 1.373 . S
C273 C274 1.396 . S
C273 C280 1.403 . S
C274 C264 1.476 . S
C274 N269 1.318 . S
C274 C273 1.396 . S
H275 C270 0.929 . S
O276 Mn252 2.385 . S
O276 C254 1.234 . S
O277 Mn252 2.209 . S
O277 Mn253 2.215 . S
O277 C254 1.283 . S
O278 Mn252 2.094 . S
O278 C256 1.240 . S
O279 Mn253 2.117 . S
O279 C256 1.264 . S
C280 C273 1.403 . S
C280 C281 1.399 . S
C280 H286 0.929 . S
C281 C261 1.449 . S
C281 C280 1.399 . S
C281 H287 0.930 . S
H282 C262 0.931 . S
H283 C263 0.930 . S
H284 C271 0.931 . S
H285 C272 0.929 . S
H286 C280 0.929 . S
H287 C281 0.930 . S
Mn288 O293 2.095 . S
Mn288 O303 2.162 . S
Mn288 O304 2.297 . S
Mn288 O312 2.385 . S
Mn288 O313 2.209 . S
Mn288 O314 2.094 . S
Mn289 O294 2.121 . S
Mn289 N296 2.257 . S
Mn289 N305 2.282 . S
Mn289 O313 2.215 . S
Mn289 O315 2.117 . S
C290 O312 1.234 . S
C290 O313 1.283 . S
C291 O303 1.281 . S
C291 O304 1.236 . S
C292 O314 1.240 . S
C292 O315 1.264 . S
O293 Mn288 2.095 . S
O293 C302 1.250 . S
O294 Mn289 2.121 . S
O294 C302 1.258 . S
C295 N296 1.326 . S
C295 C299 1.460 . S
C295 H301 0.929 . S
N296 Mn289 2.257 . S
N296 C295 1.326 . S
N296 C300 1.362 . S
C297 C298 1.258 . S
C297 C300 1.431 . S
C297 C317 1.449 . S
C298 C297 1.258 . S
C298 C299 1.477 . S
C298 H318 0.931 . S
C299 C295 1.460 . S
C299 C298 1.477 . S
C299 H319 0.930 . S
C300 N296 1.362 . S
C300 C297 1.431 . S
C300 C310 1.476 . S
H301 C295 0.929 . S
C302 O293 1.250 . S
C302 O294 1.258 . S
O303 Mn288 2.162 . S
O303 C291 1.281 . S
O304 Mn288 2.297 . S
O304 C291 1.236 . S
N305 Mn289 2.282 . S
N305 C306 1.328 . S
N305 C310 1.318 . S
C306 N305 1.328 . S
C306 C307 1.457 . S
C306 H311 0.929 . S
C307 C306 1.457 . S
C307 C308 1.291 . S
C307 H320 0.931 . S
C308 C307 1.291 . S
C308 C309 1.373 . S
C308 H321 0.929 . S
C309 C308 1.373 . S
C309 C310 1.396 . S
C309 C316 1.403 . S
C310 C300 1.476 . S
C310 N305 1.318 . S
C310 C309 1.396 . S
H311 C306 0.929 . S
O312 Mn288 2.385 . S
O312 C290 1.234 . S
O313 Mn288 2.209 . S
O313 Mn289 2.215 . S
O313 C290 1.283 . S
O314 Mn288 2.094 . S
O314 C292 1.240 . S
O315 Mn289 2.117 . S
O315 C292 1.264 . S
C316 C309 1.403 . S
C316 C317 1.399 . S
C316 H322 0.929 . S
C317 C297 1.449 . S
C317 C316 1.399 . S
C317 H323 0.930 . S
H318 C298 0.931 . S
H319 C299 0.930 . S
H320 C307 0.931 . S
H321 C308 0.929 . S
H322 C316 0.929 . S
H323 C317 0.930 . S
Mn324 O329 2.095 . S
Mn324 O339 2.162 . S
Mn324 O340 2.297 . S
Mn324 O348 2.385 . S
Mn324 O349 2.209 . S
Mn324 O350 2.094 . S
Mn325 O330 2.121 . S
Mn325 N332 2.258 . S
Mn325 N341 2.282 . S
Mn325 O349 2.215 . S
Mn325 O351 2.117 . S
C326 O348 1.234 . S
C326 O349 1.283 . S
C327 O339 1.281 . S
C327 O340 1.236 . S
C328 O350 1.240 . S
C328 O351 1.264 . S
O329 Mn324 2.095 . S
O329 C338 1.250 . S
O330 Mn325 2.121 . S
O330 C338 1.258 . S
C331 N332 1.326 1_455 S
C331 C335 1.460 . S
C331 H337 0.929 . S
N332 Mn325 2.258 . S
N332 C331 1.326 1_655 S
N332 C336 1.362 1_655 S
C333 C334 1.258 . S
C333 C336 1.431 . S
C333 C353 1.449 . S
C334 C333 1.258 . S
C334 C335 1.477 . S
C334 H354 0.931 . S
C335 C331 1.460 . S
C335 C334 1.477 . S
C335 H355 0.930 . S
C336 N332 1.362 1_455 S
C336 C333 1.431 . S
C336 C346 1.476 1_455 S
H337 C331 0.929 . S
C338 O329 1.250 . S
C338 O330 1.258 . S
O339 Mn324 2.162 . S
O339 C327 1.281 . S
O340 Mn324 2.297 . S
O340 C327 1.236 . S
N341 Mn325 2.282 . S
N341 C342 1.328 . S
N341 C346 1.318 . S
C342 N341 1.328 . S
C342 C343 1.457 . S
C342 H347 0.929 . S
C343 C342 1.457 . S
C343 C344 1.291 . S
C343 H356 0.931 . S
C344 C343 1.291 . S
C344 C345 1.356 1_655 S
C344 H357 0.929 . S
C345 C344 1.356 1_455 S
C345 C346 1.375 1_455 S
C345 C352 1.439 . S
C346 C336 1.476 1_655 S
C346 N341 1.318 . S
C346 C345 1.375 1_655 S
H347 C342 0.929 . S
O348 Mn324 2.385 . S
O348 C326 1.234 . S
O349 Mn324 2.209 . S
O349 Mn325 2.215 . S
O349 C326 1.283 . S
O350 Mn324 2.094 . S
O350 C328 1.240 . S
O351 Mn325 2.117 . S
O351 C328 1.264 . S
C352 C345 1.439 . S
C352 C353 1.399 . S
C352 H358 0.929 . S
C353 C333 1.449 . S
C353 C352 1.399 . S
C353 H359 0.930 . S
H354 C334 0.931 . S
H355 C335 0.930 . S
H356 C343 0.931 . S
H357 C344 0.929 . S
H358 C352 0.929 . S
H359 C353 0.930 . S
Mn360 O365 2.095 . S
Mn360 O375 2.162 . S
Mn360 O376 2.297 . S
Mn360 O384 2.385 . S
Mn360 O385 2.209 . S
Mn360 O386 2.094 . S
Mn361 O366 2.121 . S
Mn361 N368 2.257 . S
Mn361 N377 2.282 . S
Mn361 O385 2.215 . S
Mn361 O387 2.117 . S
C362 O384 1.234 . S
C362 O385 1.283 . S
C363 O375 1.281 . S
C363 O376 1.236 . S
C364 O386 1.240 . S
C364 O387 1.264 . S
O365 Mn360 2.095 . S
O365 C374 1.250 . S
O366 Mn361 2.121 . S
O366 C374 1.258 . S
C367 N368 1.326 . S
C367 C371 1.460 . S
C367 H373 0.929 . S
N368 Mn361 2.257 . S
N368 C367 1.326 . S
N368 C372 1.362 . S
C369 C370 1.258 . S
C369 C372 1.431 . S
C369 C389 1.449 . S
C370 C369 1.258 . S
C370 C371 1.477 . S
C370 H390 0.931 . S
C371 C367 1.460 . S
C371 C370 1.477 . S
C371 H391 0.930 . S
C372 N368 1.362 . S
C372 C369 1.431 . S
C372 C382 1.476 . S
H373 C367 0.929 . S
C374 O365 1.250 . S
C374 O366 1.258 . S
O375 Mn360 2.162 . S
O375 C363 1.281 . S
O376 Mn360 2.297 . S
O376 C363 1.236 . S
N377 Mn361 2.282 . S
N377 C378 1.328 . S
N377 C382 1.318 . S
C378 N377 1.328 . S
C378 C379 1.457 . S
C378 H383 0.929 . S
C379 C378 1.457 . S
C379 C380 1.291 . S
C379 H392 0.931 . S
C380 C379 1.291 . S
C380 C381 1.373 . S
C380 H393 0.929 . S
C381 C380 1.373 . S
C381 C382 1.396 . S
C381 C388 1.403 . S
C382 C372 1.476 . S
C382 N377 1.318 . S
C382 C381 1.396 . S
H383 C378 0.929 . S
O384 Mn360 2.385 . S
O384 C362 1.234 . S
O385 Mn360 2.209 . S
O385 Mn361 2.215 . S
O385 C362 1.283 . S
O386 Mn360 2.094 . S
O386 C364 1.240 . S
O387 Mn361 2.117 . S
O387 C364 1.264 . S
C388 C381 1.403 . S
C388 C389 1.399 . S
C388 H394 0.929 . S
C389 C369 1.449 . S
C389 C388 1.399 . S
C389 H395 0.930 . S
H390 C370 0.931 . S
H391 C371 0.930 . S
H392 C379 0.931 . S
H393 C380 0.929 . S
H394 C388 0.929 . S
H395 C389 0.930 . S
Mn396 O401 2.095 . S
Mn396 O411 2.162 . S
Mn396 O412 2.297 . S
Mn396 O420 2.385 . S
Mn396 O421 2.209 . S
Mn396 O422 2.094 . S
Mn397 O402 2.121 . S
Mn397 N404 2.257 . S
Mn397 N413 2.282 . S
Mn397 O421 2.215 . S
Mn397 O423 2.117 . S
C398 O420 1.234 . S
C398 O421 1.283 . S
C399 O411 1.281 . S
C399 O412 1.236 . S
C400 O422 1.240 . S
C400 O423 1.264 . S
O401 Mn396 2.095 . S
O401 C410 1.250 . S
O402 Mn397 2.121 . S
O402 C410 1.258 . S
C403 N404 1.326 1_565 S
C403 C407 1.460 . S
C403 H409 0.929 . S
N404 Mn397 2.257 . S
N404 C403 1.326 1_545 S
N404 C408 1.362 1_545 S
C405 C406 1.258 . S
C405 C408 1.431 . S
C405 C425 1.449 . S
C406 C405 1.258 . S
C406 C407 1.477 . S
C406 H426 0.931 . S
C407 C403 1.460 . S
C407 C406 1.477 . S
C407 H427 0.930 . S
C408 N404 1.362 1_565 S
C408 C405 1.431 . S
C408 C418 1.476 1_565 S
H409 C403 0.929 . S
C410 O401 1.250 . S
C410 O402 1.258 . S
O411 Mn396 2.162 . S
O411 C399 1.281 . S
O412 Mn396 2.297 . S
O412 C399 1.236 . S
N413 Mn397 2.282 . S
N413 C414 1.328 . S
N413 C418 1.318 . S
C414 N413 1.328 . S
C414 C415 1.457 . S
C414 H419 0.929 . S
C415 C414 1.457 . S
C415 C416 1.291 . S
C415 H428 0.931 . S
C416 C415 1.291 . S
C416 C417 1.338 1_545 S
C416 H429 0.929 . S
C417 C416 1.338 1_565 S
C417 C418 1.391 1_565 S
C417 C424 1.442 . S
C418 C408 1.476 1_545 S
C418 N413 1.318 . S
C418 C417 1.391 1_545 S
H419 C414 0.929 . S
O420 Mn396 2.385 . S
O420 C398 1.234 . S
O421 Mn396 2.209 . S
O421 Mn397 2.215 . S
O421 C398 1.283 . S
O422 Mn396 2.094 . S
O422 C400 1.240 . S
O423 Mn397 2.117 . S
O423 C400 1.264 . S
C424 C417 1.442 . S
C424 C425 1.399 . S
C424 H430 0.929 . S
C425 C405 1.449 . S
C425 C424 1.399 . S
C425 H431 0.930 . S
H426 C406 0.931 . S
H427 C407 0.930 . S
H428 C415 0.931 . S
H429 C416 0.929 . S
H430 C424 0.929 . S
H431 C425 0.930 . S
Mn432 O437 2.095 . S
Mn432 O447 2.162 . S
Mn432 O448 2.297 . S
Mn432 O456 2.385 . S
Mn432 O457 2.209 . S
Mn432 O458 2.094 . S
Mn433 O438 2.121 . S
Mn433 N440 2.258 . S
Mn433 N449 2.282 . S
Mn433 O457 2.215 . S
Mn433 O459 2.117 . S
C434 O456 1.234 . S
C434 O457 1.283 . S
C435 O447 1.281 . S
C435 O448 1.236 . S
C436 O458 1.240 . S
C436 O459 1.264 . S
O437 Mn432 2.095 . S
O437 C446 1.250 . S
O438 Mn433 2.121 . S
O438 C446 1.258 . S
C439 N440 1.326 1_545 S
C439 C443 1.460 . S
C439 H445 0.929 . S
N440 Mn433 2.258 . S
N440 C439 1.326 1_565 S
N440 C444 1.362 1_565 S
C441 C442 1.258 . S
C441 C444 1.431 . S
C441 C461 1.449 . S
C442 C441 1.258 . S
C442 C443 1.477 . S
C442 H462 0.931 . S
C443 C439 1.460 . S
C443 C442 1.477 . S
C443 H463 0.930 . S
C444 N440 1.362 1_545 S
C444 C441 1.431 . S
C444 C454 1.476 1_545 S
H445 C439 0.929 . S
C446 O437 1.250 . S
C446 O438 1.258 . S
O447 Mn432 2.162 . S
O447 C435 1.281 . S
O448 Mn432 2.297 . S
O448 C435 1.236 . S
N449 Mn433 2.282 . S
N449 C450 1.328 . S
N449 C454 1.318 . S
C450 N449 1.328 . S
C450 C451 1.457 . S
C450 H455 0.929 . S
C451 C450 1.457 . S
C451 C452 1.291 . S
C451 H464 0.931 . S
C452 C451 1.291 . S
C452 C453 1.356 1_565 S
C452 H465 0.929 . S
C453 C452 1.356 1_545 S
C453 C454 1.375 1_545 S
C453 C460 1.439 . S
C454 C444 1.476 1_565 S
C454 N449 1.318 . S
C454 C453 1.375 1_565 S
H455 C450 0.929 . S
O456 Mn432 2.385 . S
O456 C434 1.234 . S
O457 Mn432 2.209 . S
O457 Mn433 2.215 . S
O457 C434 1.283 . S
O458 Mn432 2.094 . S
O458 C436 1.240 . S
O459 Mn433 2.117 . S
O459 C436 1.264 . S
C460 C453 1.439 . S
C460 C461 1.399 . S
C460 H466 0.929 . S
C461 C441 1.449 . S
C461 C460 1.399 . S
C461 H467 0.930 . S
H462 C442 0.931 . S
H463 C443 0.930 . S
H464 C451 0.931 . S
H465 C452 0.929 . S
H466 C460 0.929 . S
H467 C461 0.930 . S
Mn468 O473 2.095 . S
Mn468 O483 2.162 . S
Mn468 O484 2.297 . S
Mn468 O492 2.385 . S
Mn468 O493 2.209 . S
Mn468 O494 2.094 . S
Mn469 O474 2.121 . S
Mn469 N476 2.257 . S
Mn469 N485 2.282 . S
Mn469 O493 2.215 . S
Mn469 O495 2.117 . S
C470 O492 1.234 . S
C470 O493 1.283 . S
C471 O483 1.281 . S
C471 O484 1.236 . S
C472 O494 1.240 . S
C472 O495 1.264 . S
O473 Mn468 2.095 . S
O473 C482 1.250 . S
O474 Mn469 2.121 . S
O474 C482 1.258 . S
C475 N476 1.326 1_655 S
C475 C479 1.460 . S
C475 H481 0.929 . S
N476 Mn469 2.257 . S
N476 C475 1.326 1_455 S
N476 C480 1.362 1_455 S
C477 C478 1.258 . S
C477 C480 1.431 . S
C477 C497 1.449 . S
C478 C477 1.258 . S
C478 C479 1.477 . S
C478 H498 0.931 . S
C479 C475 1.460 . S
C479 C478 1.477 . S
C479 H499 0.930 . S
C480 N476 1.362 1_655 S
C480 C477 1.431 . S
C480 C490 1.476 1_655 S
H481 C475 0.929 . S
C482 O473 1.250 . S
C482 O474 1.258 . S
O483 Mn468 2.162 . S
O483 C471 1.281 . S
O484 Mn468 2.297 . S
O484 C471 1.236 . S
N485 Mn469 2.282 . S
N485 C486 1.328 . S
N485 C490 1.318 . S
C486 N485 1.328 . S
C486 C487 1.457 . S
C486 H491 0.929 . S
C487 C486 1.457 . S
C487 C488 1.291 . S
C487 H500 0.931 . S
C488 C487 1.291 . S
C488 C489 1.338 1_455 S
C488 H501 0.929 . S
C489 C488 1.338 1_655 S
C489 C490 1.391 1_655 S
C489 C496 1.442 . S
C490 C480 1.476 1_455 S
C490 N485 1.318 . S
C490 C489 1.391 1_455 S
H491 C486 0.929 . S
O492 Mn468 2.385 . S
O492 C470 1.234 . S
O493 Mn468 2.209 . S
O493 Mn469 2.215 . S
O493 C470 1.283 . S
O494 Mn468 2.094 . S
O494 C472 1.240 . S
O495 Mn469 2.117 . S
O495 C472 1.264 . S
C496 C489 1.442 . S
C496 C497 1.399 . S
C496 H502 0.929 . S
C497 C477 1.449 . S
C497 C496 1.399 . S
C497 H503 0.930 . S
H498 C478 0.931 . S
H499 C479 0.930 . S
H500 C487 0.931 . S
H501 C488 0.929 . S
H502 C496 0.929 . S
H503 C497 0.930 . S
Mn504 O509 2.095 . S
Mn504 O519 2.162 . S
Mn504 O520 2.297 . S
Mn504 O528 2.385 . S
Mn504 O529 2.209 . S
Mn504 O530 2.094 . S
Mn505 O510 2.121 . S
Mn505 N512 2.257 . S
Mn505 N521 2.282 . S
Mn505 O529 2.215 . S
Mn505 O531 2.117 . S
C506 O528 1.234 . S
C506 O529 1.283 . S
C507 O519 1.281 . S
C507 O520 1.236 . S
C508 O530 1.240 . S
C508 O531 1.264 . S
O509 Mn504 2.095 . S
O509 C518 1.250 . S
O510 Mn505 2.121 . S
O510 C518 1.258 . S
C511 N512 1.326 . S
C511 C515 1.460 . S
C511 H517 0.929 . S
N512 Mn505 2.257 . S
N512 C511 1.326 . S
N512 C516 1.362 . S
C513 C514 1.258 . S
C513 C516 1.431 . S
C513 C533 1.449 . S
C514 C513 1.258 . S
C514 C515 1.477 . S
C514 H534 0.931 . S
C515 C511 1.460 . S
C515 C514 1.477 . S
C515 H535 0.930 . S
C516 N512 1.362 . S
C516 C513 1.431 . S
C516 C526 1.476 . S
H517 C511 0.929 . S
C518 O509 1.250 . S
C518 O510 1.258 . S
O519 Mn504 2.162 . S
O519 C507 1.281 . S
O520 Mn504 2.297 . S
O520 C507 1.236 . S
N521 Mn505 2.282 . S
N521 C522 1.328 . S
N521 C526 1.318 . S
C522 N521 1.328 . S
C522 C523 1.457 . S
C522 H527 0.929 . S
C523 C522 1.457 . S
C523 C524 1.291 . S
C523 H536 0.931 . S
C524 C523 1.291 . S
C524 C525 1.373 . S
C524 H537 0.929 . S
C525 C524 1.373 . S
C525 C526 1.396 . S
C525 C532 1.403 . S
C526 C516 1.476 . S
C526 N521 1.318 . S
C526 C525 1.396 . S
H527 C522 0.929 . S
O528 Mn504 2.385 . S
O528 C506 1.234 . S
O529 Mn504 2.209 . S
O529 Mn505 2.215 . S
O529 C506 1.283 . S
O530 Mn504 2.094 . S
O530 C508 1.240 . S
O531 Mn505 2.117 . S
O531 C508 1.264 . S
C532 C525 1.403 . S
C532 C533 1.399 . S
C532 H538 0.929 . S
C533 C513 1.449 . S
C533 C532 1.399 . S
C533 H539 0.930 . S
H534 C514 0.931 . S
H535 C515 0.930 . S
H536 C523 0.931 . S
H537 C524 0.929 . S
H538 C532 0.929 . S
H539 C533 0.930 . S
Mn540 O545 2.095 . S
Mn540 O555 2.162 . S
Mn540 O556 2.297 . S
Mn540 O564 2.385 . S
Mn540 O565 2.209 . S
Mn540 O566 2.094 . S
Mn541 O546 2.121 . S
Mn541 N548 2.257 . S
Mn541 N557 2.282 . S
Mn541 O565 2.215 . S
Mn541 O567 2.117 . S
C542 O564 1.234 . S
C542 O565 1.283 . S
C543 O555 1.281 . S
C543 O556 1.236 . S
C544 O566 1.240 . S
C544 O567 1.264 . S
O545 Mn540 2.095 . S
O545 C554 1.250 . S
O546 Mn541 2.121 . S
O546 C554 1.258 . S
C547 N548 1.326 . S
C547 C551 1.460 . S
C547 H553 0.929 . S
N548 Mn541 2.257 . S
N548 C547 1.326 . S
N548 C552 1.362 . S
C549 C550 1.258 . S
C549 C552 1.431 . S
C549 C569 1.449 . S
C550 C549 1.258 . S
C550 C551 1.477 . S
C550 H570 0.931 . S
C551 C547 1.460 . S
C551 C550 1.477 . S
C551 H571 0.930 . S
C552 N548 1.362 . S
C552 C549 1.431 . S
C552 C562 1.476 . S
H553 C547 0.929 . S
C554 O545 1.250 . S
C554 O546 1.258 . S
O555 Mn540 2.162 . S
O555 C543 1.281 . S
O556 Mn540 2.297 . S
O556 C543 1.236 . S
N557 Mn541 2.282 . S
N557 C558 1.328 . S
N557 C562 1.318 . S
C558 N557 1.328 . S
C558 C559 1.457 . S
C558 H563 0.929 . S
C559 C558 1.457 . S
C559 C560 1.291 . S
C559 H572 0.931 . S
C560 C559 1.291 . S
C560 C561 1.373 . S
C560 H573 0.929 . S
C561 C560 1.373 . S
C561 C562 1.396 . S
C561 C568 1.403 . S
C562 C552 1.476 . S
C562 N557 1.318 . S
C562 C561 1.396 . S
H563 C558 0.929 . S
O564 Mn540 2.385 . S
O564 C542 1.234 . S
O565 Mn540 2.209 . S
O565 Mn541 2.215 . S
O565 C542 1.283 . S
O566 Mn540 2.094 . S
O566 C544 1.240 . S
O567 Mn541 2.117 . S
O567 C544 1.264 . S
C568 C561 1.403 . S
C568 C569 1.399 . S
C568 H574 0.929 . S
C569 C549 1.449 . S
C569 C568 1.399 . S
C569 H575 0.930 . S
H570 C550 0.931 . S
H571 C551 0.930 . S
H572 C559 0.931 . S
H573 C560 0.929 . S
H574 C568 0.929 . S
H575 C569 0.930 . S
Mn576 O581 2.095 . S
Mn576 O591 2.162 . S
Mn576 O592 2.297 . S
Mn576 O600 2.385 . S
Mn576 O601 2.209 . S
Mn576 O602 2.094 . S
Mn577 O582 2.121 . S
Mn577 N584 2.257 . S
Mn577 N593 2.282 . S
Mn577 O601 2.215 . S
Mn577 O603 2.117 . S
C578 O600 1.234 . S
C578 O601 1.283 . S
C579 O591 1.281 . S
C579 O592 1.236 . S
C580 O602 1.240 . S
C580 O603 1.264 . S
O581 Mn576 2.095 . S
O581 C590 1.250 . S
O582 Mn577 2.121 . S
O582 C590 1.258 . S
C583 N584 1.326 . S
C583 C587 1.460 . S
C583 H589 0.929 . S
N584 Mn577 2.257 . S
N584 C583 1.326 . S
N584 C588 1.362 . S
C585 C586 1.258 . S
C585 C588 1.431 . S
C585 C605 1.449 . S
C586 C585 1.258 . S
C586 C587 1.477 . S
C586 H606 0.931 . S
C587 C583 1.460 . S
C587 C586 1.477 . S
C587 H607 0.930 . S
C588 N584 1.362 . S
C588 C585 1.431 . S
C588 C598 1.476 . S
H589 C583 0.929 . S
C590 O581 1.250 . S
C590 O582 1.258 . S
O591 Mn576 2.162 . S
O591 C579 1.281 . S
O592 Mn576 2.297 . S
O592 C579 1.236 . S
N593 Mn577 2.282 . S
N593 C594 1.328 . S
N593 C598 1.318 . S
C594 N593 1.328 . S
C594 C595 1.457 . S
C594 H599 0.929 . S
C595 C594 1.457 . S
C595 C596 1.291 . S
C595 H608 0.931 . S
C596 C595 1.291 . S
C596 C597 1.373 . S
C596 H609 0.929 . S
C597 C596 1.373 . S
C597 C598 1.396 . S
C597 C604 1.403 . S
C598 C588 1.476 . S
C598 N593 1.318 . S
C598 C597 1.396 . S
H599 C594 0.929 . S
O600 Mn576 2.385 . S
O600 C578 1.234 . S
O601 Mn576 2.209 . S
O601 Mn577 2.215 . S
O601 C578 1.283 . S
O602 Mn576 2.094 . S
O602 C580 1.240 . S
O603 Mn577 2.117 . S
O603 C580 1.264 . S
C604 C597 1.403 . S
C604 C605 1.399 . S
C604 H610 0.929 . S
C605 C585 1.449 . S
C605 C604 1.399 . S
C605 H611 0.930 . S
H606 C586 0.931 . S
H607 C587 0.930 . S
H608 C595 0.931 . S
H609 C596 0.929 . S
H610 C604 0.929 . S
H611 C605 0.930 . S
Mn612 O617 2.095 . S
Mn612 O627 2.162 . S
Mn612 O628 2.297 . S
Mn612 O636 2.385 . S
Mn612 O637 2.209 . S
Mn612 O638 2.094 . S
Mn613 O618 2.121 . S
Mn613 N620 2.257 . S
Mn613 N629 2.282 . S
Mn613 O637 2.215 . S
Mn613 O639 2.117 . S
C614 O636 1.234 . S
C614 O637 1.283 . S
C615 O627 1.281 . S
C615 O628 1.236 . S
C616 O638 1.240 . S
C616 O639 1.264 . S
O617 Mn612 2.095 . S
O617 C626 1.250 . S
O618 Mn613 2.121 . S
O618 C626 1.258 . S
C619 N620 1.326 . S
C619 C623 1.460 . S
C619 H625 0.929 . S
N620 Mn613 2.257 . S
N620 C619 1.326 . S
N620 C624 1.362 . S
C621 C622 1.258 . S
C621 C624 1.431 . S
C621 C641 1.449 . S
C622 C621 1.258 . S
C622 C623 1.477 . S
C622 H642 0.931 . S
C623 C619 1.460 . S
C623 C622 1.477 . S
C623 H643 0.930 . S
C624 N620 1.362 . S
C624 C621 1.431 . S
C624 C634 1.476 . S
H625 C619 0.929 . S
C626 O617 1.250 . S
C626 O618 1.258 . S
O627 Mn612 2.162 . S
O627 C615 1.281 . S
O628 Mn612 2.297 . S
O628 C615 1.236 . S
N629 Mn613 2.282 . S
N629 C630 1.328 . S
N629 C634 1.318 . S
C630 N629 1.328 . S
C630 C631 1.457 . S
C630 H635 0.929 . S
C631 C630 1.457 . S
C631 C632 1.291 . S
C631 H644 0.931 . S
C632 C631 1.291 . S
C632 C633 1.373 . S
C632 H645 0.929 . S
C633 C632 1.373 . S
C633 C634 1.396 . S
C633 C640 1.403 . S
C634 C624 1.476 . S
C634 N629 1.318 . S
C634 C633 1.396 . S
H635 C630 0.929 . S
O636 Mn612 2.385 . S
O636 C614 1.234 . S
O637 Mn612 2.209 . S
O637 Mn613 2.215 . S
O637 C614 1.283 . S
O638 Mn612 2.094 . S
O638 C616 1.240 . S
O639 Mn613 2.117 . S
O639 C616 1.264 . S
C640 C633 1.403 . S
C640 C641 1.399 . S
C640 H646 0.929 . S
C641 C621 1.449 . S
C641 C640 1.399 . S
C641 H647 0.930 . S
H642 C622 0.931 . S
H643 C623 0.930 . S
H644 C631 0.931 . S
H645 C632 0.929 . S
H646 C640 0.929 . S
H647 C641 0.930 . S
C648 C649 1.349 . S
C648 C650 1.327 . S
C648 H673 0.950 . S
C649 C648 1.349 . S
C649 C665 1.349 . S
C650 C648 1.327 . S
C650 C669 1.429 . S
C650 H674 0.950 . S
C651 C668 1.574 . S
C651 C670 1.368 . S
C651 H675 0.949 . S
H652 C656 0.949 . S
C653 C654 1.349 . S
C653 C655 1.327 . S
C653 H676 0.950 . S
C654 C653 1.349 . S
C654 C666 1.349 . S
C655 C653 1.327 . S
C655 C671 1.429 . S
C655 H677 0.950 . S
C656 H652 0.949 . S
C656 C664 1.574 . S
C656 C672 1.368 . S
H657 C665 0.950 . S
H658 C663 0.950 . S
H659 C664 0.949 . S
H660 C666 0.950 . S
H661 C667 0.950 . S
H662 C668 0.949 . S
C663 H658 0.950 . S
C663 C665 1.327 . S
C663 C669 1.429 . S
C664 C656 1.574 . S
C664 H659 0.949 . S
C664 C670 1.368 . S
C665 C649 1.349 . S
C665 H657 0.950 . S
C665 C663 1.327 . S
C666 C654 1.349 . S
C666 H660 0.950 . S
C666 C667 1.327 . S
C667 H661 0.950 . S
C667 C666 1.327 . S
C667 C671 1.429 . S
C668 C651 1.574 . S
C668 H662 0.949 . S
C668 C672 1.368 . S
C669 C650 1.429 . S
C669 C663 1.429 . S
C669 C670 1.523 . S
C670 C651 1.368 . S
C670 C664 1.368 . S
C670 C669 1.523 . S
C671 C655 1.429 . S
C671 C667 1.429 . S
C671 C672 1.523 . S
C672 C656 1.368 . S
C672 C668 1.368 . S
C672 C671 1.523 . S
H673 C648 0.950 . S
H674 C650 0.950 . S
H675 C651 0.949 . S
H676 C653 0.950 . S
H677 C655 0.950 . S
C678 C679 1.349 . S
C678 C680 1.327 . S
C678 H703 0.950 . S
C679 C678 1.349 . S
C679 C695 1.349 . S
C680 C678 1.327 . S
C680 C699 1.429 . S
C680 H704 0.950 . S
C681 C698 1.574 . S
C681 C700 1.368 . S
C681 H705 0.949 . S
H682 C686 0.949 . S
C683 C684 1.349 . S
C683 C685 1.327 . S
C683 H706 0.950 . S
C684 C683 1.349 . S
C684 C696 1.349 . S
C685 C683 1.327 . S
C685 C701 1.429 . S
C685 H707 0.950 . S
C686 H682 0.949 . S
C686 C694 1.574 . S
C686 C702 1.368 . S
H687 C695 0.950 . S
H688 C693 0.950 . S
H689 C694 0.949 . S
H690 C696 0.950 . S
H691 C697 0.950 . S
H692 C698 0.949 . S
C693 H688 0.950 . S
C693 C695 1.327 . S
C693 C699 1.429 . S
C694 C686 1.574 . S
C694 H689 0.949 . S
C694 C700 1.368 . S
C695 C679 1.349 . S
C695 H687 0.950 . S
C695 C693 1.327 . S
C696 C684 1.349 . S
C696 H690 0.950 . S
C696 C697 1.327 . S
C697 H691 0.950 . S
C697 C696 1.327 . S
C697 C701 1.429 . S
C698 C681 1.574 . S
C698 H692 0.949 . S
C698 C702 1.368 . S
C699 C680 1.429 . S
C699 C693 1.429 . S
C699 C700 1.523 . S
C700 C681 1.368 . S
C700 C694 1.368 . S
C700 C699 1.523 . S
C701 C685 1.429 . S
C701 C697 1.429 . S
C701 C702 1.523 . S
C702 C686 1.368 . S
C702 C698 1.368 . S
C702 C701 1.523 . S
H703 C678 0.950 . S
H704 C680 0.950 . S
H705 C681 0.949 . S
H706 C683 0.950 . S
H707 C685 0.950 . S
C708 C709 1.349 . S
C708 C710 1.327 . S
C708 H733 0.950 . S
C709 C708 1.349 . S
C709 C725 1.349 . S
C710 C708 1.327 . S
C710 C729 1.429 . S
C710 H734 0.950 . S
C711 C728 1.574 . S
C711 C730 1.368 . S
C711 H735 0.949 . S
H712 C716 0.949 . S
C713 C714 1.349 . S
C713 C715 1.327 . S
C713 H736 0.950 . S
C714 C713 1.349 . S
C714 C726 1.349 . S
C715 C713 1.327 . S
C715 C731 1.429 . S
C715 H737 0.950 . S
C716 H712 0.949 . S
C716 C724 1.574 . S
C716 C732 1.368 . S
H717 C725 0.950 . S
H718 C723 0.950 . S
H719 C724 0.949 . S
H720 C726 0.950 . S
H721 C727 0.950 . S
H722 C728 0.949 . S
C723 H718 0.950 . S
C723 C725 1.327 . S
C723 C729 1.429 . S
C724 C716 1.574 . S
C724 H719 0.949 . S
C724 C730 1.368 . S
C725 C709 1.349 . S
C725 H717 0.950 . S
C725 C723 1.327 . S
C726 C714 1.349 . S
C726 H720 0.950 . S
C726 C727 1.327 . S
C727 H721 0.950 . S
C727 C726 1.327 . S
C727 C731 1.429 . S
C728 C711 1.574 . S
C728 H722 0.949 . S
C728 C732 1.368 . S
C729 C710 1.429 . S
C729 C723 1.429 . S
C729 C730 1.523 . S
C730 C711 1.368 . S
C730 C724 1.368 . S
C730 C729 1.523 . S
C731 C715 1.429 . S
C731 C727 1.429 . S
C731 C732 1.523 . S
C732 C716 1.368 . S
C732 C728 1.368 . S
C732 C731 1.523 . S
H733 C708 0.950 . S
H734 C710 0.950 . S
H735 C711 0.949 . S
H736 C713 0.950 . S
H737 C715 0.950 . S
C738 C739 1.349 . S
C738 C740 1.327 . S
C738 H763 0.950 . S
C739 C738 1.349 . S
C739 C755 1.349 . S
C740 C738 1.327 . S
C740 C759 1.429 . S
C740 H764 0.950 . S
C741 C758 1.574 . S
C741 C760 1.368 . S
C741 H765 0.949 . S
H742 C746 0.949 . S
C743 C744 1.349 . S
C743 C745 1.327 . S
C743 H766 0.950 . S
C744 C743 1.349 . S
C744 C756 1.349 . S
C745 C743 1.327 . S
C745 C761 1.429 . S
C745 H767 0.950 . S
C746 H742 0.949 . S
C746 C754 1.574 . S
C746 C762 1.368 . S
H747 C755 0.950 . S
H748 C753 0.950 . S
H749 C754 0.949 . S
H750 C756 0.950 . S
H751 C757 0.950 . S
H752 C758 0.949 . S
C753 H748 0.950 . S
C753 C755 1.327 . S
C753 C759 1.429 . S
C754 C746 1.574 . S
C754 H749 0.949 . S
C754 C760 1.368 . S
C755 C739 1.349 . S
C755 H747 0.950 . S
C755 C753 1.327 . S
C756 C744 1.349 . S
C756 H750 0.950 . S
C756 C757 1.327 . S
C757 H751 0.950 . S
C757 C756 1.327 . S
C757 C761 1.429 . S
C758 C741 1.574 . S
C758 H752 0.949 . S
C758 C762 1.368 . S
C759 C740 1.429 . S
C759 C753 1.429 . S
C759 C760 1.523 . S
C760 C741 1.368 . S
C760 C754 1.368 . S
C760 C759 1.523 . S
C761 C745 1.429 . S
C761 C757 1.429 . S
C761 C762 1.523 . S
C762 C746 1.368 . S
C762 C758 1.368 . S
C762 C761 1.523 . S
H763 C738 0.950 . S
H764 C740 0.950 . S
H765 C741 0.949 . S
H766 C743 0.950 . S
H767 C745 0.950 . S
C768 C769 1.349 . S
C768 C770 1.327 . S
C768 H793 0.950 . S
C769 C768 1.349 . S
C769 C785 1.349 . S
C770 C768 1.327 . S
C770 C789 1.429 . S
C770 H794 0.950 . S
C771 C788 1.574 . S
C771 C790 1.368 . S
C771 H795 0.949 . S
H772 C776 0.949 . S
C773 C774 1.349 . S
C773 C775 1.327 . S
C773 H796 0.950 . S
C774 C773 1.349 . S
C774 C786 1.349 . S
C775 C773 1.327 . S
C775 C791 1.429 . S
C775 H797 0.950 . S
C776 H772 0.949 . S
C776 C784 1.574 . S
C776 C792 1.368 . S
H777 C785 0.950 . S
H778 C783 0.950 . S
H779 C784 0.949 . S
H780 C786 0.950 . S
H781 C787 0.950 . S
H782 C788 0.949 . S
C783 H778 0.950 . S
C783 C785 1.327 . S
C783 C789 1.429 . S
C784 C776 1.574 . S
C784 H779 0.949 . S
C784 C790 1.368 . S
C785 C769 1.349 . S
C785 H777 0.950 . S
C785 C783 1.327 . S
C786 C774 1.349 . S
C786 H780 0.950 . S
C786 C787 1.327 . S
C787 H781 0.950 . S
C787 C786 1.327 . S
C787 C791 1.429 . S
C788 C771 1.574 . S
C788 H782 0.949 . S
C788 C792 1.368 . S
C789 C770 1.429 . S
C789 C783 1.429 . S
C789 C790 1.523 . S
C790 C771 1.368 . S
C790 C784 1.368 . S
C790 C789 1.523 . S
C791 C775 1.429 . S
C791 C787 1.429 . S
C791 C792 1.523 . S
C792 C776 1.368 . S
C792 C788 1.368 . S
C792 C791 1.523 . S
H793 C768 0.950 . S
H794 C770 0.950 . S
H795 C771 0.949 . S
H796 C773 0.950 . S
H797 C775 0.950 . S
C798 C799 1.349 . S
C798 C800 1.327 . S
C798 H823 0.950 . S
C799 C798 1.349 . S
C799 C815 1.349 . S
C800 C798 1.327 . S
C800 C819 1.429 . S
C800 H824 0.950 . S
C801 C818 1.574 . S
C801 C820 1.368 . S
C801 H825 0.949 . S
H802 C806 0.949 . S
C803 C804 1.349 . S
C803 C805 1.327 . S
C803 H826 0.950 . S
C804 C803 1.349 . S
C804 C816 1.349 . S
C805 C803 1.327 . S
C805 C821 1.429 . S
C805 H827 0.950 . S
C806 H802 0.949 . S
C806 C814 1.574 . S
C806 C822 1.368 . S
H807 C815 0.950 . S
H808 C813 0.950 . S
H809 C814 0.949 . S
H810 C816 0.950 . S
H811 C817 0.950 . S
H812 C818 0.949 . S
C813 H808 0.950 . S
C813 C815 1.327 . S
C813 C819 1.429 . S
C814 C806 1.574 . S
C814 H809 0.949 . S
C814 C820 1.368 . S
C815 C799 1.349 . S
C815 H807 0.950 . S
C815 C813 1.327 . S
C816 C804 1.349 . S
C816 H810 0.950 . S
C816 C817 1.327 . S
C817 H811 0.950 . S
C817 C816 1.327 . S
C817 C821 1.429 . S
C818 C801 1.574 . S
C818 H812 0.949 . S
C818 C822 1.368 . S
C819 C800 1.429 . S
C819 C813 1.429 . S
C819 C820 1.523 . S
C820 C801 1.368 . S
C820 C814 1.368 . S
C820 C819 1.523 . S
C821 C805 1.429 . S
C821 C817 1.429 . S
C821 C822 1.523 . S
C822 C806 1.368 . S
C822 C818 1.368 . S
C822 C821 1.523 . S
H823 C798 0.950 . S
H824 C800 0.950 . S
H825 C801 0.949 . S
H826 C803 0.950 . S
H827 C805 0.950 . S
C828 C829 1.349 . S
C828 C830 1.327 . S
C828 H853 0.950 . S
C829 C828 1.349 . S
C829 C845 1.349 . S
C830 C828 1.327 . S
C830 C849 1.429 . S
C830 H854 0.950 . S
C831 C848 1.574 1_554 S
C831 C850 1.368 . S
C831 H855 0.949 . S
H832 C836 0.949 . S
C833 C834 1.349 . S
C833 C835 1.327 . S
C833 H856 0.950 . S
C834 C833 1.349 . S
C834 C846 1.349 . S
C835 C833 1.327 . S
C835 C851 1.429 . S
C835 H857 0.950 . S
C836 H832 0.949 . S
C836 C844 1.574 1_556 S
C836 C852 1.368 . S
H837 C845 0.950 . S
H838 C843 0.950 . S
H839 C844 0.949 . S
H840 C846 0.950 . S
H841 C847 0.950 . S
H842 C848 0.949 . S
C843 H838 0.950 . S
C843 C845 1.327 . S
C843 C849 1.429 . S
C844 C836 1.574 1_554 S
C844 H839 0.949 . S
C844 C850 1.368 1_455 S
C845 C829 1.349 . S
C845 H837 0.950 . S
C845 C843 1.327 . S
C846 C834 1.349 . S
C846 H840 0.950 . S
C846 C847 1.327 . S
C847 H841 0.950 . S
C847 C846 1.327 . S
C847 C851 1.429 . S
C848 C831 1.574 1_556 S
C848 H842 0.949 . S
C848 C852 1.368 1_655 S
C849 C830 1.429 . S
C849 C843 1.429 . S
C849 C850 1.523 . S
C850 C831 1.368 . S
C850 C844 1.368 1_655 S
C850 C849 1.523 . S
C851 C835 1.429 . S
C851 C847 1.429 . S
C851 C852 1.523 . S
C852 C836 1.368 . S
C852 C848 1.368 1_455 S
C852 C851 1.523 . S
H853 C828 0.950 . S
H854 C830 0.950 . S
H855 C831 0.949 . S
H856 C833 0.950 . S
H857 C835 0.950 . S
C858 C859 1.349 . S
C858 C860 1.327 . S
C858 H883 0.950 . S
C859 C858 1.349 . S
C859 C875 1.349 . S
C860 C858 1.327 . S
C860 C879 1.429 . S
C860 H884 0.950 . S
C861 C878 1.574 1_554 S
C861 C880 1.368 . S
C861 H885 0.949 . S
H862 C866 0.949 . S
C863 C864 1.349 . S
C863 C865 1.327 . S
C863 H886 0.950 . S
C864 C863 1.349 . S
C864 C876 1.349 . S
C865 C863 1.327 . S
C865 C881 1.429 . S
C865 H887 0.950 . S
C866 H862 0.949 . S
C866 C874 1.574 1_556 S
C866 C882 1.368 . S
H867 C875 0.950 . S
H868 C873 0.950 . S
H869 C874 0.949 . S
H870 C876 0.950 . S
H871 C877 0.950 . S
H872 C878 0.949 . S
C873 H868 0.950 . S
C873 C875 1.327 . S
C873 C879 1.429 . S
C874 C866 1.574 1_554 S
C874 H869 0.949 . S
C874 C880 1.368 . S
C875 C859 1.349 . S
C875 H867 0.950 . S
C875 C873 1.327 . S
C876 C864 1.349 . S
C876 H870 0.950 . S
C876 C877 1.327 . S
C877 H871 0.950 . S
C877 C876 1.327 . S
C877 C881 1.429 . S
C878 C861 1.574 1_556 S
C878 H872 0.949 . S
C878 C882 1.368 . S
C879 C860 1.429 . S
C879 C873 1.429 . S
C879 C880 1.523 . S
C880 C861 1.368 . S
C880 C874 1.368 . S
C880 C879 1.523 . S
C881 C865 1.429 . S
C881 C877 1.429 . S
C881 C882 1.523 . S
C882 C866 1.368 . S
C882 C878 1.368 . S
C882 C881 1.523 . S
H883 C858 0.950 . S
H884 C860 0.950 . S
H885 C861 0.949 . S
H886 C863 0.950 . S
H887 C865 0.950 . S
C888 C889 1.349 . S
C888 C890 1.327 . S
C888 H913 0.950 . S
C889 C888 1.349 . S
C889 C905 1.349 . S
C890 C888 1.327 . S
C890 C909 1.429 . S
C890 H914 0.950 1_545 S
C891 C908 1.574 1_554 S
C891 C910 1.368 . S
C891 H915 0.949 . S
H892 C896 0.949 . S
C893 C894 1.349 . S
C893 C895 1.327 . S
C893 H916 0.950 . S
C894 C893 1.349 . S
C894 C906 1.349 . S
C895 C893 1.327 . S
C895 C911 1.429 . S
C895 H917 0.950 1_565 S
C896 H892 0.949 . S
C896 C904 1.574 1_556 S
C896 C912 1.368 . S
H897 C905 0.950 . S
H898 C903 0.950 . S
H899 C904 0.949 . S
H900 C906 0.950 . S
H901 C907 0.950 . S
H902 C908 0.949 . S
C903 H898 0.950 . S
C903 C905 1.327 . S
C903 C909 1.429 . S
C904 C896 1.574 1_554 S
C904 H899 0.949 . S
C904 C910 1.368 1_565 S
C905 C889 1.349 . S
C905 H897 0.950 . S
C905 C903 1.327 . S
C906 C894 1.349 . S
C906 H900 0.950 . S
C906 C907 1.327 . S
C907 H901 0.950 . S
C907 C906 1.327 . S
C907 C911 1.429 . S
C908 C891 1.574 1_556 S
C908 H902 0.949 . S
C908 C912 1.368 1_545 S
C909 C890 1.429 . S
C909 C903 1.429 . S
C909 C910 1.523 . S
C910 C891 1.368 . S
C910 C904 1.368 1_545 S
C910 C909 1.523 . S
C911 C895 1.429 . S
C911 C907 1.429 . S
C911 C912 1.523 . S
C912 C896 1.368 . S
C912 C908 1.368 1_565 S
C912 C911 1.523 . S
H913 C888 0.950 . S
H914 C890 0.950 1_565 S
H915 C891 0.949 . S
H916 C893 0.950 . S
H917 C895 0.950 1_545 S
C918 C919 1.349 . S
C918 C920 1.327 . S
C918 H943 0.950 . S
C919 C918 1.349 . S
C919 C935 1.349 . S
C920 C918 1.327 . S
C920 C939 1.429 . S
C920 H944 0.950 . S
C921 C938 1.574 . S
C921 C940 1.368 . S
C921 H945 0.949 . S
H922 C926 0.949 . S
C923 C924 1.349 . S
C923 C925 1.327 . S
C923 H946 0.950 . S
C924 C923 1.349 . S
C924 C936 1.349 . S
C925 C923 1.327 . S
C925 C941 1.429 . S
C925 H947 0.950 . S
C926 H922 0.949 . S
C926 C934 1.574 . S
C926 C942 1.368 . S
H927 C935 0.950 1_554 S
H928 C933 0.950 . S
H929 C934 0.949 . S
H930 C936 0.950 . S
H931 C937 0.950 . S
H932 C938 0.949 . S
C933 H928 0.950 . S
C933 C935 1.327 . S
C933 C939 1.429 . S
C934 C926 1.574 . S
C934 H929 0.949 . S
C934 C940 1.368 . S
C935 C919 1.349 . S
C935 H927 0.950 1_556 S
C935 C933 1.327 . S
C936 C924 1.349 . S
C936 H930 0.950 . S
C936 C937 1.327 . S
C937 H931 0.950 . S
C937 C936 1.327 . S
C937 C941 1.429 . S
C938 C921 1.574 . S
C938 H932 0.949 . S
C938 C942 1.368 . S
C939 C920 1.429 . S
C939 C933 1.429 . S
C939 C940 1.523 . S
C940 C921 1.368 . S
C940 C934 1.368 . S
C940 C939 1.523 . S
C941 C925 1.429 . S
C941 C937 1.429 . S
C941 C942 1.523 . S
C942 C926 1.368 . S
C942 C938 1.368 . S
C942 C941 1.523 . S
H943 C918 0.950 . S
H944 C920 0.950 . S
H945 C921 0.949 . S
H946 C923 0.950 . S
H947 C925 0.950 . S
C948 C949 1.349 . S
C948 C950 1.327 . S
C948 H973 0.950 . S
C949 C948 1.349 . S
C949 C965 1.349 . S
C950 C948 1.327 . S
C950 C969 1.429 . S
C950 H974 0.950 . S
C951 C968 1.574 . S
C951 C970 1.368 . S
C951 H975 0.949 . S
H952 C956 0.949 . S
C953 C954 1.349 . S
C953 C955 1.327 . S
C953 H976 0.950 . S
C954 C953 1.349 . S
C954 C966 1.349 . S
C955 C953 1.327 . S
C955 C971 1.429 . S
C955 H977 0.950 . S
C956 H952 0.949 . S
C956 C964 1.574 . S
C956 C972 1.368 . S
H957 C965 0.950 . S
H958 C963 0.950 . S
H959 C964 0.949 . S
H960 C966 0.950 . S
H961 C967 0.950 . S
H962 C968 0.949 . S
C963 H958 0.950 . S
C963 C965 1.327 . S
C963 C969 1.429 . S
C964 C956 1.574 . S
C964 H959 0.949 . S
C964 C970 1.368 . S
C965 C949 1.349 . S
C965 H957 0.950 . S
C965 C963 1.327 . S
C966 C954 1.349 . S
C966 H960 0.950 . S
C966 C967 1.327 . S
C967 H961 0.950 . S
C967 C966 1.327 . S
C967 C971 1.429 . S
C968 C951 1.574 . S
C968 H962 0.949 . S
C968 C972 1.368 . S
C969 C950 1.429 . S
C969 C963 1.429 . S
C969 C970 1.523 . S
C970 C951 1.368 . S
C970 C964 1.368 . S
C970 C969 1.523 . S
C971 C955 1.429 . S
C971 C967 1.429 . S
C971 C972 1.523 . S
C972 C956 1.368 . S
C972 C968 1.368 . S
C972 C971 1.523 . S
H973 C948 0.950 . S
H974 C950 0.950 . S
H975 C951 0.949 . S
H976 C953 0.950 . S
H977 C955 0.950 . S
C978 C979 1.349 . S
C978 C980 1.327 . S
C978 H1003 0.950 . S
C979 C978 1.349 . S
C979 C995 1.349 . S
C980 C978 1.327 . S
C980 C999 1.429 . S
C980 H1004 0.950 . S
C981 C998 1.574 . S
C981 C1000 1.368 . S
C981 H1005 0.949 . S
H982 C986 0.949 . S
C983 C984 1.349 . S
C983 C985 1.327 . S
C983 H1006 0.950 . S
C984 C983 1.349 . S
C984 C996 1.349 . S
C985 C983 1.327 . S
C985 C1001 1.429 . S
C985 H1007 0.950 . S
C986 H982 0.949 . S
C986 C994 1.574 . S
C986 C1002 1.368 . S
H987 C995 0.950 . S
H988 C993 0.950 . S
H989 C994 0.949 . S
H990 C996 0.950 . S
H991 C997 0.950 . S
H992 C998 0.949 . S
C993 H988 0.950 . S
C993 C995 1.327 . S
C993 C999 1.429 . S
C994 C986 1.574 . S
C994 H989 0.949 . S
C994 C1000 1.368 . S
C995 C979 1.349 . S
C995 H987 0.950 . S
C995 C993 1.327 . S
C996 C984 1.349 . S
C996 H990 0.950 . S
C996 C997 1.327 . S
C997 H991 0.950 . S
C997 C996 1.327 . S
C997 C1001 1.429 . S
C998 C981 1.574 . S
C998 H992 0.949 . S
C998 C1002 1.368 . S
C999 C980 1.429 . S
C999 C993 1.429 . S
C999 C1000 1.523 . S
C1000 C981 1.368 . S
C1000 C994 1.368 . S
C1000 C999 1.523 . S
C1001 C985 1.429 . S
C1001 C997 1.429 . S
C1001 C1002 1.523 . S
C1002 C986 1.368 . S
C1002 C998 1.368 . S
C1002 C1001 1.523 . S
H1003 C978 0.950 . S
H1004 C980 0.950 . S
H1005 C981 0.949 . S
H1006 C983 0.950 . S
H1007 C985 0.950 . S
C1008 C1009 1.349 . S
C1008 C1010 1.327 . S
C1008 H1033 0.950 . S
C1009 C1008 1.349 . S
C1009 C1025 1.349 . S
C1010 C1008 1.327 . S
C1010 C1029 1.429 . S
C1010 H1034 0.950 . S
C1011 C1028 1.574 . S
C1011 C1030 1.368 . S
C1011 H1035 0.949 . S
H1012 C1016 0.949 . S
C1013 C1014 1.349 . S
C1013 C1015 1.327 . S
C1013 H1036 0.950 1_554 S
C1014 C1013 1.349 . S
C1014 C1026 1.349 . S
C1015 C1013 1.327 . S
C1015 C1031 1.429 . S
C1015 H1037 0.950 . S
C1016 H1012 0.949 . S
C1016 C1024 1.574 . S
C1016 C1032 1.368 . S
H1017 C1025 0.950 . S
H1018 C1023 0.950 . S
H1019 C1024 0.949 . S
H1020 C1026 0.950 . S
H1021 C1027 0.950 . S
H1022 C1028 0.949 . S
C1023 H1018 0.950 . S
C1023 C1025 1.327 . S
C1023 C1029 1.429 . S
C1024 C1016 1.574 . S
C1024 H1019 0.949 . S
C1024 C1030 1.368 . S
C1025 C1009 1.349 . S
C1025 H1017 0.950 . S
C1025 C1023 1.327 . S
C1026 C1014 1.349 . S
C1026 H1020 0.950 . S
C1026 C1027 1.327 . S
C1027 H1021 0.950 . S
C1027 C1026 1.327 . S
C1027 C1031 1.429 . S
C1028 C1011 1.574 . S
C1028 H1022 0.949 . S
C1028 C1032 1.368 . S
C1029 C1010 1.429 . S
C1029 C1023 1.429 . S
C1029 C1030 1.523 . S
C1030 C1011 1.368 . S
C1030 C1024 1.368 . S
C1030 C1029 1.523 . S
C1031 C1015 1.429 . S
C1031 C1027 1.429 . S
C1031 C1032 1.523 . S
C1032 C1016 1.368 . S
C1032 C1028 1.368 . S
C1032 C1031 1.523 . S
H1033 C1008 0.950 . S
H1034 C1010 0.950 . S
H1035 C1011 0.949 . S
H1036 C1013 0.950 1_556 S
H1037 C1015 0.950 . S
C1038 C1039 1.349 . S
C1038 C1040 1.327 . S
C1038 H1063 0.950 1_554 S
C1039 C1038 1.349 . S
C1039 C1055 1.349 . S
C1040 C1038 1.327 . S
C1040 C1059 1.429 . S
C1040 H1064 0.950 . S
C1041 C1058 1.574 . S
C1041 C1060 1.368 . S
C1041 H1065 0.949 . S
H1042 C1046 0.949 . S
C1043 C1044 1.349 . S
C1043 C1045 1.327 . S
C1043 H1066 0.950 . S
C1044 C1043 1.349 . S
C1044 C1056 1.349 . S
C1045 C1043 1.327 . S
C1045 C1061 1.429 . S
C1045 H1067 0.950 . S
C1046 H1042 0.949 . S
C1046 C1054 1.574 . S
C1046 C1062 1.368 . S
H1047 C1055 0.950 . S
H1048 C1053 0.950 . S
H1049 C1054 0.949 . S
H1050 C1056 0.950 . S
H1051 C1057 0.950 . S
H1052 C1058 0.949 . S
C1053 H1048 0.950 . S
C1053 C1055 1.327 . S
C1053 C1059 1.429 . S
C1054 C1046 1.574 . S
C1054 H1049 0.949 . S
C1054 C1060 1.368 . S
C1055 C1039 1.349 . S
C1055 H1047 0.950 . S
C1055 C1053 1.327 . S
C1056 C1044 1.349 . S
C1056 H1050 0.950 . S
C1056 C1057 1.327 . S
C1057 H1051 0.950 . S
C1057 C1056 1.327 . S
C1057 C1061 1.429 . S
C1058 C1041 1.574 . S
C1058 H1052 0.949 . S
C1058 C1062 1.368 . S
C1059 C1040 1.429 . S
C1059 C1053 1.429 . S
C1059 C1060 1.523 . S
C1060 C1041 1.368 . S
C1060 C1054 1.368 . S
C1060 C1059 1.523 . S
C1061 C1045 1.429 . S
C1061 C1057 1.429 . S
C1061 C1062 1.523 . S
C1062 C1046 1.368 . S
C1062 C1058 1.368 . S
C1062 C1061 1.523 . S
H1063 C1038 0.950 1_556 S
H1064 C1040 0.950 . S
H1065 C1041 0.949 . S
H1066 C1043 0.950 . S
H1067 C1045 0.950 . S
C1068 C1069 1.349 . S
C1068 C1070 1.327 . S
C1068 H1093 0.950 . S
C1069 C1068 1.349 . S
C1069 C1085 1.349 . S
C1070 C1068 1.327 . S
C1070 C1089 1.429 . S
C1070 H1094 0.950 . S
C1071 C1088 1.574 . S
C1071 C1090 1.368 . S
C1071 H1095 0.949 . S
H1072 C1076 0.949 . S
C1073 C1074 1.349 . S
C1073 C1075 1.327 . S
C1073 H1096 0.950 . S
C1074 C1073 1.349 . S
C1074 C1086 1.349 . S
C1075 C1073 1.327 . S
C1075 C1091 1.429 . S
C1075 H1097 0.950 . S
C1076 H1072 0.949 . S
C1076 C1084 1.574 . S
C1076 C1092 1.368 . S
H1077 C1085 0.950 1_556 S
H1078 C1083 0.950 . S
H1079 C1084 0.949 . S
H1080 C1086 0.950 . S
H1081 C1087 0.950 . S
H1082 C1088 0.949 . S
C1083 H1078 0.950 . S
C1083 C1085 1.327 . S
C1083 C1089 1.429 . S
C1084 C1076 1.574 . S
C1084 H1079 0.949 . S
C1084 C1090 1.368 . S
C1085 C1069 1.349 . S
C1085 H1077 0.950 1_554 S
C1085 C1083 1.327 . S
C1086 C1074 1.349 . S
C1086 H1080 0.950 . S
C1086 C1087 1.327 . S
C1087 H1081 0.950 . S
C1087 C1086 1.327 . S
C1087 C1091 1.429 . S
C1088 C1071 1.574 . S
C1088 H1082 0.949 . S
C1088 C1092 1.368 . S
C1089 C1070 1.429 . S
C1089 C1083 1.429 . S
C1089 C1090 1.523 . S
C1090 C1071 1.368 . S
C1090 C1084 1.368 . S
C1090 C1089 1.523 . S
C1091 C1075 1.429 . S
C1091 C1087 1.429 . S
C1091 C1092 1.523 . S
C1092 C1076 1.368 . S
C1092 C1088 1.368 . S
C1092 C1091 1.523 . S
H1093 C1068 0.950 . S
H1094 C1070 0.950 . S
H1095 C1071 0.949 . S
H1096 C1073 0.950 . S
H1097 C1075 0.950 . S
C1098 C1099 1.349 . S
C1098 C1100 1.327 . S
C1098 H1123 0.950 . S
C1099 C1098 1.349 . S
C1099 C1115 1.349 . S
C1100 C1098 1.327 . S
C1100 C1119 1.429 . S
C1100 H1124 0.950 . S
C1101 C1118 1.544 1_655 S
C1101 C1120 1.368 . S
C1101 H1125 0.949 . S
H1102 C1106 0.949 . S
C1103 C1104 1.349 . S
C1103 C1105 1.327 . S
C1103 H1126 0.950 . S
C1104 C1103 1.349 . S
C1104 C1116 1.349 . S
C1105 C1103 1.327 . S
C1105 C1121 1.429 . S
C1105 H1127 0.950 . S
C1106 H1102 0.949 . S
C1106 C1114 1.544 1_455 S
C1106 C1122 1.368 . S
H1107 C1115 0.950 . S
H1108 C1113 0.950 . S
H1109 C1114 0.927 . S
H1110 C1116 0.950 . S
H1111 C1117 0.950 . S
H1112 C1118 0.927 . S
C1113 H1108 0.950 . S
C1113 C1115 1.327 . S
C1113 C1119 1.429 . S
C1114 C1106 1.544 1_655 S
C1114 H1109 0.927 . S
C1114 C1120 1.428 . S
C1115 C1099 1.349 . S
C1115 H1107 0.950 . S
C1115 C1113 1.327 . S
C1116 C1104 1.349 . S
C1116 H1110 0.950 . S
C1116 C1117 1.327 . S
C1117 H1111 0.950 . S
C1117 C1116 1.327 . S
C1117 C1121 1.429 . S
C1118 C1101 1.544 1_455 S
C1118 H1112 0.927 . S
C1118 C1122 1.427 . S
C1119 C1100 1.429 . S
C1119 C1113 1.429 . S
C1119 C1120 1.523 . S
C1120 C1101 1.368 . S
C1120 C1114 1.428 . S
C1120 C1119 1.523 . S
C1121 C1105 1.429 . S
C1121 C1117 1.429 . S
C1121 C1122 1.523 . S
C1122 C1106 1.368 . S
C1122 C1118 1.427 . S
C1122 C1121 1.523 . S
H1123 C1098 0.950 . S
H1124 C1100 0.950 . S
H1125 C1101 0.949 . S
H1126 C1103 0.950 . S
H1127 C1105 0.950 . S
C1128 C1129 1.349 . S
C1128 C1130 1.327 . S
C1128 H1153 0.950 . S
C1129 C1128 1.349 . S
C1129 C1145 1.349 . S
C1130 C1128 1.327 . S
C1130 C1149 1.429 . S
C1130 H1154 0.950 . S
C1131 C1148 1.574 . S
C1131 C1150 1.368 . S
C1131 H1155 0.949 . S
H1132 C1136 0.949 . S
C1133 C1134 1.349 . S
C1133 C1135 1.327 . S
C1133 H1156 0.950 . S
C1134 C1133 1.349 . S
C1134 C1146 1.349 . S
C1135 C1133 1.327 . S
C1135 C1151 1.429 . S
C1135 H1157 0.950 . S
C1136 H1132 0.949 . S
C1136 C1144 1.574 . S
C1136 C1152 1.368 . S
H1137 C1145 0.950 . S
H1138 C1143 0.950 . S
H1139 C1144 0.949 . S
H1140 C1146 0.950 . S
H1141 C1147 0.950 . S
H1142 C1148 0.949 . S
C1143 H1138 0.950 . S
C1143 C1145 1.327 . S
C1143 C1149 1.429 . S
C1144 C1136 1.574 . S
C1144 H1139 0.949 . S
C1144 C1150 1.368 . S
C1145 C1129 1.349 . S
C1145 H1137 0.950 . S
C1145 C1143 1.327 . S
C1146 C1134 1.349 . S
C1146 H1140 0.950 . S
C1146 C1147 1.327 . S
C1147 H1141 0.950 . S
C1147 C1146 1.327 . S
C1147 C1151 1.429 . S
C1148 C1131 1.574 . S
C1148 H1142 0.949 . S
C1148 C1152 1.368 . S
C1149 C1130 1.429 . S
C1149 C1143 1.429 . S
C1149 C1150 1.523 . S
C1150 C1131 1.368 . S
C1150 C1144 1.368 . S
C1150 C1149 1.523 . S
C1151 C1135 1.429 . S
C1151 C1147 1.429 . S
C1151 C1152 1.523 . S
C1152 C1136 1.368 . S
C1152 C1148 1.368 . S
C1152 C1151 1.523 . S
H1153 C1128 0.950 . S
H1154 C1130 0.950 . S
H1155 C1131 0.949 . S
H1156 C1133 0.950 . S
H1157 C1135 0.950 . S
C1158 C1159 1.349 . S
C1158 C1160 1.327 . S
C1158 H1183 0.950 . S
C1159 C1158 1.349 . S
C1159 C1175 1.349 . S
C1160 C1158 1.327 . S
C1160 C1179 1.429 . S
C1160 H1184 0.950 . S
C1161 C1178 1.574 . S
C1161 C1180 1.368 . S
C1161 H1185 0.949 . S
H1162 C1166 0.949 . S
C1163 C1164 1.349 . S
C1163 C1165 1.327 . S
C1163 H1186 0.950 . S
C1164 C1163 1.349 . S
C1164 C1176 1.349 . S
C1165 C1163 1.327 . S
C1165 C1181 1.429 . S
C1165 H1187 0.950 . S
C1166 H1162 0.949 . S
C1166 C1174 1.574 . S
C1166 C1182 1.368 . S
H1167 C1175 0.950 . S
H1168 C1173 0.950 . S
H1169 C1174 0.949 . S
H1170 C1176 0.950 . S
H1171 C1177 0.950 . S
H1172 C1178 0.949 . S
C1173 H1168 0.950 . S
C1173 C1175 1.327 . S
C1173 C1179 1.429 . S
C1174 C1166 1.574 . S
C1174 H1169 0.949 . S
C1174 C1180 1.368 1_545 S
C1175 C1159 1.349 . S
C1175 H1167 0.950 . S
C1175 C1173 1.327 . S
C1176 C1164 1.349 . S
C1176 H1170 0.950 . S
C1176 C1177 1.327 . S
C1177 H1171 0.950 . S
C1177 C1176 1.327 . S
C1177 C1181 1.429 . S
C1178 C1161 1.574 . S
C1178 H1172 0.949 . S
C1178 C1182 1.368 1_565 S
C1179 C1160 1.429 . S
C1179 C1173 1.429 . S
C1179 C1180 1.523 . S
C1180 C1161 1.368 . S
C1180 C1174 1.368 1_565 S
C1180 C1179 1.523 . S
C1181 C1165 1.429 . S
C1181 C1177 1.429 . S
C1181 C1182 1.523 . S
C1182 C1166 1.368 . S
C1182 C1178 1.368 1_545 S
C1182 C1181 1.523 . S
H1183 C1158 0.950 . S
H1184 C1160 0.950 . S
H1185 C1161 0.949 . S
H1186 C1163 0.950 . S
H1187 C1165 0.950 . S
C1188 C1189 1.349 . S
C1188 C1190 1.327 . S
C1188 H1213 0.950 . S
C1189 C1188 1.349 . S
C1189 C1205 1.349 . S
C1190 C1188 1.327 . S
C1190 C1209 1.429 . S
C1190 H1214 0.950 . S
C1191 C1208 1.574 . S
C1191 C1210 1.368 . S
C1191 H1215 0.949 . S
H1192 C1196 0.949 . S
C1193 C1194 1.349 . S
C1193 C1195 1.327 . S
C1193 H1216 0.950 . S
C1194 C1193 1.349 . S
C1194 C1206 1.349 . S
C1195 C1193 1.327 . S
C1195 C1211 1.429 . S
C1195 H1217 0.950 . S
C1196 H1192 0.949 . S
C1196 C1204 1.574 . S
C1196 C1212 1.368 . S
H1197 C1205 0.950 . S
H1198 C1203 0.950 . S
H1199 C1204 0.949 . S
H1200 C1206 0.950 . S
H1201 C1207 0.950 . S
H1202 C1208 0.949 . S
C1203 H1198 0.950 . S
C1203 C1205 1.327 . S
C1203 C1209 1.429 . S
C1204 C1196 1.574 . S
C1204 H1199 0.949 . S
C1204 C1210 1.368 1_556 S
C1205 C1189 1.349 . S
C1205 H1197 0.950 . S
C1205 C1203 1.327 . S
C1206 C1194 1.349 . S
C1206 H1200 0.950 . S
C1206 C1207 1.327 . S
C1207 H1201 0.950 . S
C1207 C1206 1.327 . S
C1207 C1211 1.429 . S
C1208 C1191 1.574 . S
C1208 H1202 0.949 . S
C1208 C1212 1.368 1_554 S
C1209 C1190 1.429 . S
C1209 C1203 1.429 . S
C1209 C1210 1.523 . S
C1210 C1191 1.368 . S
C1210 C1204 1.368 1_554 S
C1210 C1209 1.523 . S
C1211 C1195 1.429 . S
C1211 C1207 1.429 . S
C1211 C1212 1.523 . S
C1212 C1196 1.368 . S
C1212 C1208 1.368 1_556 S
C1212 C1211 1.523 . S
H1213 C1188 0.950 . S
H1214 C1190 0.950 . S
H1215 C1191 0.949 . S
H1216 C1193 0.950 . S
H1217 C1195 0.950 . S
C1218 C1219 1.349 . S
C1218 C1220 1.327 . S
C1218 H1243 0.950 . S
C1219 C1218 1.349 . S
C1219 C1235 1.349 . S
C1220 C1218 1.327 . S
C1220 C1239 1.429 . S
C1220 H1244 0.950 . S
C1221 C1238 1.574 1_545 S
C1221 C1240 1.368 1_554 S
C1221 H1245 0.949 . S
H1222 C1226 0.949 . S
C1223 C1224 1.349 . S
C1223 C1225 1.327 . S
C1223 H1246 0.950 . S
C1224 C1223 1.349 . S
C1224 C1236 1.349 . S
C1225 C1223 1.327 . S
C1225 C1241 1.429 . S
C1225 H1247 0.950 . S
C1226 H1222 0.949 . S
C1226 C1234 1.574 1_565 S
C1226 C1242 1.368 1_556 S
H1227 C1235 0.950 1_554 S
H1228 C1233 0.950 . S
H1229 C1234 0.949 . S
H1230 C1236 0.950 1_556 S
H1231 C1237 0.950 . S
H1232 C1238 0.949 . S
C1233 H1228 0.950 . S
C1233 C1235 1.327 1_554 S
C1233 C1239 1.429 1_554 S
C1234 C1226 1.574 1_545 S
C1234 H1229 0.949 . S
C1234 C1240 1.368 . S
C1235 C1219 1.349 . S
C1235 H1227 0.950 1_556 S
C1235 C1233 1.327 1_556 S
C1236 C1224 1.349 . S
C1236 H1230 0.950 1_554 S
C1236 C1237 1.327 1_554 S
C1237 H1231 0.950 . S
C1237 C1236 1.327 1_556 S
C1237 C1241 1.429 1_556 S
C1238 C1221 1.574 1_565 S
C1238 H1232 0.949 . S
C1238 C1242 1.368 . S
C1239 C1220 1.429 . S
C1239 C1233 1.429 1_556 S
C1239 C1240 1.523 . S
C1240 C1221 1.368 1_556 S
C1240 C1234 1.368 . S
C1240 C1239 1.523 . S
C1241 C1225 1.429 . S
C1241 C1237 1.429 1_554 S
C1241 C1242 1.523 . S
C1242 C1226 1.368 1_554 S
C1242 C1238 1.368 . S
C1242 C1241 1.523 . S
H1243 C1218 0.950 . S
H1244 C1220 0.950 . S
H1245 C1221 0.949 . S
H1246 C1223 0.950 . S
H1247 C1225 0.950 . S
C1248 C1249 1.349 . S
C1248 C1250 1.327 . S
C1248 H1273 0.950 . S
C1249 C1248 1.349 . S
C1249 C1265 1.349 . S
C1250 C1248 1.327 . S
C1250 C1269 1.429 . S
C1250 H1274 0.950 . S
C1251 C1268 1.574 1_655 S
C1251 C1270 1.368 1_554 S
C1251 H1275 0.949 . S
H1252 C1256 0.949 . S
C1253 C1254 1.349 . S
C1253 C1255 1.327 . S
C1253 H1276 0.950 . S
C1254 C1253 1.349 . S
C1254 C1266 1.349 . S
C1255 C1253 1.327 . S
C1255 C1271 1.429 . S
C1255 H1277 0.950 . S
C1256 H1252 0.949 . S
C1256 C1264 1.574 1_455 S
C1256 C1272 1.368 1_556 S
H1257 C1265 0.950 . S
H1258 C1263 0.950 1_554 S
H1259 C1264 0.949 . S
H1260 C1266 0.950 . S
H1261 C1267 0.950 1_556 S
H1262 C1268 0.949 . S
C1263 H1258 0.950 1_556 S
C1263 C1265 1.327 . S
C1263 C1269 1.429 . S
C1264 C1256 1.574 1_655 S
C1264 H1259 0.949 . S
C1264 C1270 1.368 . S
C1265 C1249 1.349 . S
C1265 H1257 0.950 . S
C1265 C1263 1.327 . S
C1266 C1254 1.349 . S
C1266 H1260 0.950 . S
C1266 C1267 1.327 . S
C1267 H1261 0.950 1_554 S
C1267 C1266 1.327 . S
C1267 C1271 1.429 . S
C1268 C1251 1.574 1_455 S
C1268 H1262 0.949 . S
C1268 C1272 1.368 . S
C1269 C1250 1.429 . S
C1269 C1263 1.429 . S
C1269 C1270 1.523 . S
C1270 C1251 1.368 1_556 S
C1270 C1264 1.368 . S
C1270 C1269 1.523 . S
C1271 C1255 1.429 . S
C1271 C1267 1.429 . S
C1271 C1272 1.523 . S
C1272 C1256 1.368 1_554 S
C1272 C1268 1.368 . S
C1272 C1271 1.523 . S
H1273 C1248 0.950 . S
H1274 C1250 0.950 . S
H1275 C1251 0.949 . S
H1276 C1253 0.950 . S
H1277 C1255 0.950 . S
C1278 C1279 1.349 . S
C1278 C1280 1.327 1_556 S
C1278 H1303 0.950 1_556 S
C1279 C1278 1.349 . S
C1279 C1295 1.349 . S
C1280 C1278 1.327 1_554 S
C1280 C1299 1.429 1_554 S
C1280 H1304 0.950 . S
C1281 C1298 1.574 . S
C1281 C1300 1.368 . S
C1281 H1305 0.949 . S
H1282 C1286 0.949 . S
C1283 C1284 1.349 . S
C1283 C1285 1.327 1_554 S
C1283 H1306 0.950 1_554 S
C1284 C1283 1.349 . S
C1284 C1296 1.349 . S
C1285 C1283 1.327 1_556 S
C1285 C1301 1.429 1_556 S
C1285 H1307 0.950 . S
C1286 H1282 0.949 . S
C1286 C1294 1.574 . S
C1286 C1302 1.368 . S
H1287 C1295 0.950 . S
H1288 C1293 0.950 . S
H1289 C1294 0.949 . S
H1290 C1296 0.950 . S
H1291 C1297 0.950 . S
H1292 C1298 0.949 . S
C1293 H1288 0.950 . S
C1293 C1295 1.327 . S
C1293 C1299 1.429 . S
C1294 C1286 1.574 . S
C1294 H1289 0.949 . S
C1294 C1300 1.368 1_554 S
C1295 C1279 1.349 . S
C1295 H1287 0.950 . S
C1295 C1293 1.327 . S
C1296 C1284 1.349 . S
C1296 H1290 0.950 . S
C1296 C1297 1.327 . S
C1297 H1291 0.950 . S
C1297 C1296 1.327 . S
C1297 C1301 1.429 . S
C1298 C1281 1.574 . S
C1298 H1292 0.949 . S
C1298 C1302 1.368 1_556 S
C1299 C1280 1.429 1_556 S
C1299 C1293 1.429 . S
C1299 C1300 1.523 . S
C1300 C1281 1.368 . S
C1300 C1294 1.368 1_556 S
C1300 C1299 1.523 . S
C1301 C1285 1.429 1_554 S
C1301 C1297 1.429 . S
C1301 C1302 1.523 . S
C1302 C1286 1.368 . S
C1302 C1298 1.368 1_554 S
C1302 C1301 1.523 . S
H1303 C1278 0.950 1_554 S
H1304 C1280 0.950 . S
H1305 C1281 0.949 . S
H1306 C1283 0.950 1_556 S
H1307 C1285 0.950 . S
C1308 C1309 1.349 . S
C1308 C1310 1.327 1_554 S
C1308 H1333 0.950 1_554 S
C1309 C1308 1.349 . S
C1309 C1325 1.349 . S
C1310 C1308 1.327 1_556 S
C1310 C1329 1.429 1_556 S
C1310 H1334 0.950 . S
C1311 C1328 1.574 1_565 S
C1311 C1330 1.368 . S
C1311 H1335 0.949 . S
H1312 C1316 0.949 . S
C1313 C1314 1.349 . S
C1313 C1315 1.327 1_556 S
C1313 H1336 0.950 1_556 S
C1314 C1313 1.349 . S
C1314 C1326 1.349 . S
C1315 C1313 1.327 1_554 S
C1315 C1331 1.429 1_554 S
C1315 H1337 0.950 . S
C1316 H1312 0.949 . S
C1316 C1324 1.574 1_545 S
C1316 C1332 1.368 . S
H1317 C1325 0.950 . S
H1318 C1323 0.950 . S
H1319 C1324 0.949 . S
H1320 C1326 0.950 . S
H1321 C1327 0.950 . S
H1322 C1328 0.949 . S
C1323 H1318 0.950 . S
C1323 C1325 1.327 . S
C1323 C1329 1.429 . S
C1324 C1316 1.574 1_565 S
C1324 H1319 0.949 . S
C1324 C1330 1.368 1_556 S
C1325 C1309 1.349 . S
C1325 H1317 0.950 . S
C1325 C1323 1.327 . S
C1326 C1314 1.349 . S
C1326 H1320 0.950 . S
C1326 C1327 1.327 . S
C1327 H1321 0.950 . S
C1327 C1326 1.327 . S
C1327 C1331 1.429 . S
C1328 C1311 1.574 1_545 S
C1328 H1322 0.949 . S
C1328 C1332 1.368 1_554 S
C1329 C1310 1.429 1_554 S
C1329 C1323 1.429 . S
C1329 C1330 1.523 . S
C1330 C1311 1.368 . S
C1330 C1324 1.368 1_554 S
C1330 C1329 1.523 . S
C1331 C1315 1.429 1_556 S
C1331 C1327 1.429 . S
C1331 C1332 1.523 . S
C1332 C1316 1.368 . S
C1332 C1328 1.368 1_556 S
C1332 C1331 1.523 . S
H1333 C1308 0.950 1_556 S
H1334 C1310 0.950 . S
H1335 C1311 0.949 . S
H1336 C1313 0.950 1_554 S
H1337 C1315 0.950 . S
C1338 C1339 1.349 . S
C1338 C1340 1.327 . S
C1338 H1363 0.950 1_556 S
C1339 C1338 1.349 . S
C1339 C1355 1.349 . S
C1340 C1338 1.327 . S
C1340 C1359 1.429 . S
C1340 H1364 0.950 1_556 S
C1341 C1358 1.574 1_655 S
C1341 C1360 1.368 . S
C1341 H1365 0.949 . S
H1342 C1346 0.949 . S
C1343 C1344 1.349 . S
C1343 C1345 1.327 . S
C1343 H1366 0.950 1_554 S
C1344 C1343 1.349 . S
C1344 C1356 1.349 . S
C1345 C1343 1.327 . S
C1345 C1361 1.429 . S
C1345 H1367 0.950 1_554 S
C1346 H1342 0.949 . S
C1346 C1354 1.574 1_455 S
C1346 C1362 1.368 . S
H1347 C1355 0.950 . S
H1348 C1353 0.950 . S
H1349 C1354 0.949 . S
H1350 C1356 0.950 . S
H1351 C1357 0.950 . S
H1352 C1358 0.949 . S
C1353 H1348 0.950 . S
C1353 C1355 1.327 . S
C1353 C1359 1.429 . S
C1354 C1346 1.574 1_655 S
C1354 H1349 0.949 . S
C1354 C1360 1.368 1_554 S
C1355 C1339 1.349 . S
C1355 H1347 0.950 . S
C1355 C1353 1.327 . S
C1356 C1344 1.349 . S
C1356 H1350 0.950 . S
C1356 C1357 1.327 . S
C1357 H1351 0.950 . S
C1357 C1356 1.327 . S
C1357 C1361 1.429 . S
C1358 C1341 1.574 1_455 S
C1358 H1352 0.949 . S
C1358 C1362 1.368 1_556 S
C1359 C1340 1.429 . S
C1359 C1353 1.429 . S
C1359 C1360 1.523 . S
C1360 C1341 1.368 . S
C1360 C1354 1.368 1_556 S
C1360 C1359 1.523 . S
C1361 C1345 1.429 . S
C1361 C1357 1.429 . S
C1361 C1362 1.523 . S
C1362 C1346 1.368 . S
C1362 C1358 1.368 1_554 S
C1362 C1361 1.523 . S
H1363 C1338 0.950 1_554 S
H1364 C1340 0.950 1_554 S
H1365 C1341 0.949 . S
H1366 C1343 0.950 1_556 S
H1367 C1345 0.950 1_556 S
C1368 C1369 1.349 . S
C1368 C1370 1.327 . S
C1368 H1393 0.950 . S
C1369 C1368 1.349 . S
C1369 C1385 1.349 . S
C1370 C1368 1.327 . S
C1370 C1389 1.429 . S
C1370 H1394 0.950 . S
C1371 C1388 1.574 . S
C1371 C1390 1.368 . S
C1371 H1395 0.949 . S
H1372 C1376 0.949 . S
C1373 C1374 1.349 . S
C1373 C1375 1.327 . S
C1373 H1396 0.950 . S
C1374 C1373 1.349 . S
C1374 C1386 1.349 . S
C1375 C1373 1.327 . S
C1375 C1391 1.429 . S
C1375 H1397 0.950 . S
C1376 H1372 0.949 . S
C1376 C1384 1.574 . S
C1376 C1392 1.368 . S
H1377 C1385 0.950 . S
H1378 C1383 0.950 . S
H1379 C1384 0.949 . S
H1380 C1386 0.950 . S
H1381 C1387 0.950 . S
H1382 C1388 0.949 . S
C1383 H1378 0.950 . S
C1383 C1385 1.327 . S
C1383 C1389 1.429 . S
C1384 C1376 1.574 . S
C1384 H1379 0.949 . S
C1384 C1390 1.368 . S
C1385 C1369 1.349 . S
C1385 H1377 0.950 . S
C1385 C1383 1.327 . S
C1386 C1374 1.349 . S
C1386 H1380 0.950 . S
C1386 C1387 1.327 . S
C1387 H1381 0.950 . S
C1387 C1386 1.327 . S
C1387 C1391 1.429 . S
C1388 C1371 1.574 . S
C1388 H1382 0.949 . S
C1388 C1392 1.368 . S
C1389 C1370 1.429 . S
C1389 C1383 1.429 . S
C1389 C1390 1.523 . S
C1390 C1371 1.368 . S
C1390 C1384 1.368 . S
C1390 C1389 1.523 . S
C1391 C1375 1.429 . S
C1391 C1387 1.429 . S
C1391 C1392 1.523 . S
C1392 C1376 1.368 . S
C1392 C1388 1.368 . S
C1392 C1391 1.523 . S
H1393 C1368 0.950 . S
H1394 C1370 0.950 . S
H1395 C1371 0.949 . S
H1396 C1373 0.950 . S
H1397 C1375 0.950 . S
C1398 C1399 1.349 . S
C1398 C1400 1.327 . S
C1398 H1423 0.950 . S
C1399 C1398 1.349 . S
C1399 C1415 1.349 . S
C1400 C1398 1.327 . S
C1400 C1419 1.429 . S
C1400 H1424 0.950 . S
C1401 C1418 1.574 . S
C1401 C1420 1.368 . S
C1401 H1425 0.949 . S
H1402 C1406 0.949 . S
C1403 C1404 1.349 . S
C1403 C1405 1.327 . S
C1403 H1426 0.950 . S
C1404 C1403 1.349 . S
C1404 C1416 1.349 . S
C1405 C1403 1.327 . S
C1405 C1421 1.429 . S
C1405 H1427 0.950 . S
C1406 H1402 0.949 . S
C1406 C1414 1.574 . S
C1406 C1422 1.368 . S
H1407 C1415 0.950 . S
H1408 C1413 0.950 . S
H1409 C1414 0.949 . S
H1410 C1416 0.950 . S
H1411 C1417 0.950 . S
H1412 C1418 0.949 . S
C1413 H1408 0.950 . S
C1413 C1415 1.327 . S
C1413 C1419 1.429 . S
C1414 C1406 1.574 . S
C1414 H1409 0.949 . S
C1414 C1420 1.368 . S
C1415 C1399 1.349 . S
C1415 H1407 0.950 . S
C1415 C1413 1.327 . S
C1416 C1404 1.349 . S
C1416 H1410 0.950 . S
C1416 C1417 1.327 . S
C1417 H1411 0.950 . S
C1417 C1416 1.327 . S
C1417 C1421 1.429 . S
C1418 C1401 1.574 . S
C1418 H1412 0.949 . S
C1418 C1422 1.368 . S
C1419 C1400 1.429 . S
C1419 C1413 1.429 . S
C1419 C1420 1.523 . S
C1420 C1401 1.368 . S
C1420 C1414 1.368 . S
C1420 C1419 1.523 . S
C1421 C1405 1.429 . S
C1421 C1417 1.429 . S
C1421 C1422 1.523 . S
C1422 C1406 1.368 . S
C1422 C1418 1.368 . S
C1422 C1421 1.523 . S
H1423 C1398 0.950 . S
H1424 C1400 0.950 . S
H1425 C1401 0.949 . S
H1426 C1403 0.950 . S
H1427 C1405 0.950 . S
C1428 C1429 1.349 . S
C1428 C1430 1.327 . S
C1428 H1453 0.950 . S
C1429 C1428 1.349 . S
C1429 C1445 1.349 . S
C1430 C1428 1.327 . S
C1430 C1449 1.429 . S
C1430 H1454 0.950 . S
C1431 C1448 1.574 . S
C1431 C1450 1.368 . S
C1431 H1455 0.949 . S
H1432 C1436 0.949 . S
C1433 C1434 1.349 . S
C1433 C1435 1.327 . S
C1433 H1456 0.950 . S
C1434 C1433 1.349 . S
C1434 C1446 1.349 . S
C1435 C1433 1.327 . S
C1435 C1451 1.429 . S
C1435 H1457 0.950 . S
C1436 H1432 0.949 . S
C1436 C1444 1.574 . S
C1436 C1452 1.368 . S
H1437 C1445 0.950 . S
H1438 C1443 0.950 . S
H1439 C1444 0.949 . S
H1440 C1446 0.950 . S
H1441 C1447 0.950 . S
H1442 C1448 0.949 . S
C1443 H1438 0.950 . S
C1443 C1445 1.327 . S
C1443 C1449 1.429 . S
C1444 C1436 1.574 . S
C1444 H1439 0.949 . S
C1444 C1450 1.368 . S
C1445 C1429 1.349 . S
C1445 H1437 0.950 . S
C1445 C1443 1.327 . S
C1446 C1434 1.349 . S
C1446 H1440 0.950 . S
C1446 C1447 1.327 . S
C1447 H1441 0.950 . S
C1447 C1446 1.327 . S
C1447 C1451 1.429 . S
C1448 C1431 1.574 . S
C1448 H1442 0.949 . S
C1448 C1452 1.368 . S
C1449 C1430 1.429 . S
C1449 C1443 1.429 . S
C1449 C1450 1.523 . S
C1450 C1431 1.368 . S
C1450 C1444 1.368 . S
C1450 C1449 1.523 . S
C1451 C1435 1.429 . S
C1451 C1447 1.429 . S
C1451 C1452 1.523 . S
C1452 C1436 1.368 . S
C1452 C1448 1.368 . S
C1452 C1451 1.523 . S
H1453 C1428 0.950 . S
H1454 C1430 0.950 . S
H1455 C1431 0.949 . S
H1456 C1433 0.950 . S
H1457 C1435 0.950 . S
C1458 C1459 1.349 . S
C1458 C1460 1.327 . S
C1458 H1483 0.950 . S
C1459 C1458 1.349 . S
C1459 C1475 1.349 . S
C1460 C1458 1.327 . S
C1460 C1479 1.429 . S
C1460 H1484 0.950 . S
C1461 C1478 1.574 . S
C1461 C1480 1.368 . S
C1461 H1485 0.949 . S
H1462 C1466 0.949 . S
C1463 C1464 1.349 . S
C1463 C1465 1.327 . S
C1463 H1486 0.950 . S
C1464 C1463 1.349 . S
C1464 C1476 1.349 . S
C1465 C1463 1.327 . S
C1465 C1481 1.429 . S
C1465 H1487 0.950 . S
C1466 H1462 0.949 . S
C1466 C1474 1.574 . S
C1466 C1482 1.368 . S
H1467 C1475 0.950 . S
H1468 C1473 0.950 . S
H1469 C1474 0.949 . S
H1470 C1476 0.950 . S
H1471 C1477 0.950 . S
H1472 C1478 0.949 . S
C1473 H1468 0.950 . S
C1473 C1475 1.327 . S
C1473 C1479 1.429 . S
C1474 C1466 1.574 . S
C1474 H1469 0.949 . S
C1474 C1480 1.368 . S
C1475 C1459 1.349 . S
C1475 H1467 0.950 . S
C1475 C1473 1.327 . S
C1476 C1464 1.349 . S
C1476 H1470 0.950 . S
C1476 C1477 1.327 . S
C1477 H1471 0.950 . S
C1477 C1476 1.327 . S
C1477 C1481 1.429 . S
C1478 C1461 1.574 . S
C1478 H1472 0.949 . S
C1478 C1482 1.368 . S
C1479 C1460 1.429 . S
C1479 C1473 1.429 . S
C1479 C1480 1.523 . S
C1480 C1461 1.368 . S
C1480 C1474 1.368 . S
C1480 C1479 1.523 . S
C1481 C1465 1.429 . S
C1481 C1477 1.429 . S
C1481 C1482 1.523 . S
C1482 C1466 1.368 . S
C1482 C1478 1.368 . S
C1482 C1481 1.523 . S
H1483 C1458 0.950 . S
H1484 C1460 0.950 . S
H1485 C1461 0.949 . S
H1486 C1463 0.950 . S
H1487 C1465 0.950 . S
C1488 C1489 1.349 . S
C1488 C1490 1.327 . S
C1488 H1513 0.950 . S
C1489 C1488 1.349 . S
C1489 C1505 1.349 . S
C1490 C1488 1.327 . S
C1490 C1509 1.429 . S
C1490 H1514 0.950 . S
C1491 C1508 1.574 . S
C1491 C1510 1.368 . S
C1491 H1515 0.949 . S
H1492 C1496 0.949 . S
C1493 C1494 1.349 . S
C1493 C1495 1.327 . S
C1493 H1516 0.950 . S
C1494 C1493 1.349 . S
C1494 C1506 1.349 . S
C1495 C1493 1.327 . S
C1495 C1511 1.429 . S
C1495 H1517 0.950 . S
C1496 H1492 0.949 . S
C1496 C1504 1.574 . S
C1496 C1512 1.368 . S
H1497 C1505 0.950 . S
H1498 C1503 0.950 . S
H1499 C1504 0.949 . S
H1500 C1506 0.950 . S
H1501 C1507 0.950 . S
H1502 C1508 0.949 . S
C1503 H1498 0.950 . S
C1503 C1505 1.327 . S
C1503 C1509 1.429 . S
C1504 C1496 1.574 . S
C1504 H1499 0.949 . S
C1504 C1510 1.368 . S
C1505 C1489 1.349 . S
C1505 H1497 0.950 . S
C1505 C1503 1.327 . S
C1506 C1494 1.349 . S
C1506 H1500 0.950 . S
C1506 C1507 1.327 . S
C1507 H1501 0.950 . S
C1507 C1506 1.327 . S
C1507 C1511 1.429 . S
C1508 C1491 1.574 . S
C1508 H1502 0.949 . S
C1508 C1512 1.368 . S
C1509 C1490 1.429 . S
C1509 C1503 1.429 . S
C1509 C1510 1.523 . S
C1510 C1491 1.368 . S
C1510 C1504 1.368 . S
C1510 C1509 1.523 . S
C1511 C1495 1.429 . S
C1511 C1507 1.429 . S
C1511 C1512 1.523 . S
C1512 C1496 1.368 . S
C1512 C1508 1.368 . S
C1512 C1511 1.523 . S
H1513 C1488 0.950 . S
H1514 C1490 0.950 . S
H1515 C1491 0.949 . S
H1516 C1493 0.950 . S
H1517 C1495 0.950 . S
C1518 C1519 1.349 . S
C1518 C1520 1.327 . S
C1518 H1543 0.950 . S
C1519 C1518 1.349 . S
C1519 C1535 1.349 . S
C1520 C1518 1.327 . S
C1520 C1539 1.429 . S
C1520 H1544 0.950 . S
C1521 C1538 1.574 . S
C1521 C1540 1.368 . S
C1521 H1545 0.949 . S
H1522 C1526 0.949 . S
C1523 C1524 1.349 . S
C1523 C1525 1.327 . S
C1523 H1546 0.950 . S
C1524 C1523 1.349 . S
C1524 C1536 1.349 . S
C1525 C1523 1.327 . S
C1525 C1541 1.429 . S
C1525 H1547 0.950 . S
C1526 H1522 0.949 . S
C1526 C1534 1.574 . S
C1526 C1542 1.368 . S
H1527 C1535 0.950 . S
H1528 C1533 0.950 . S
H1529 C1534 0.949 . S
H1530 C1536 0.950 . S
H1531 C1537 0.950 . S
H1532 C1538 0.949 . S
C1533 H1528 0.950 . S
C1533 C1535 1.327 . S
C1533 C1539 1.429 . S
C1534 C1526 1.574 . S
C1534 H1529 0.949 . S
C1534 C1540 1.368 . S
C1535 C1519 1.349 . S
C1535 H1527 0.950 . S
C1535 C1533 1.327 . S
C1536 C1524 1.349 . S
C1536 H1530 0.950 . S
C1536 C1537 1.327 . S
C1537 H1531 0.950 . S
C1537 C1536 1.327 . S
C1537 C1541 1.429 . S
C1538 C1521 1.574 . S
C1538 H1532 0.949 . S
C1538 C1542 1.368 . S
C1539 C1520 1.429 . S
C1539 C1533 1.429 . S
C1539 C1540 1.523 . S
C1540 C1521 1.368 . S
C1540 C1534 1.368 . S
C1540 C1539 1.523 . S
C1541 C1525 1.429 . S
C1541 C1537 1.429 . S
C1541 C1542 1.523 . S
C1542 C1526 1.368 . S
C1542 C1538 1.368 . S
C1542 C1541 1.523 . S
H1543 C1518 0.950 . S
H1544 C1520 0.950 . S
H1545 C1521 0.949 . S
H1546 C1523 0.950 . S
H1547 C1525 0.950 . S
C1548 C1549 1.349 . S
C1548 C1550 1.327 . S
C1548 H1573 0.950 . S
C1549 C1548 1.349 . S
C1549 C1565 1.349 . S
C1550 C1548 1.327 . S
C1550 C1569 1.429 . S
C1550 H1574 0.950 . S
C1551 C1568 1.574 . S
C1551 C1570 1.368 . S
C1551 H1575 0.949 . S
H1552 C1556 0.949 . S
C1553 C1554 1.349 . S
C1553 C1555 1.327 . S
C1553 H1576 0.950 . S
C1554 C1553 1.349 . S
C1554 C1566 1.349 . S
C1555 C1553 1.327 . S
C1555 C1571 1.429 . S
C1555 H1577 0.950 . S
C1556 H1552 0.949 . S
C1556 C1564 1.574 . S
C1556 C1572 1.368 . S
H1557 C1565 0.950 . S
H1558 C1563 0.950 . S
H1559 C1564 0.949 . S
H1560 C1566 0.950 . S
H1561 C1567 0.950 . S
H1562 C1568 0.949 . S
C1563 H1558 0.950 . S
C1563 C1565 1.327 . S
C1563 C1569 1.429 . S
C1564 C1556 1.574 . S
C1564 H1559 0.949 . S
C1564 C1570 1.368 . S
C1565 C1549 1.349 . S
C1565 H1557 0.950 . S
C1565 C1563 1.327 . S
C1566 C1554 1.349 . S
C1566 H1560 0.950 . S
C1566 C1567 1.327 . S
C1567 H1561 0.950 . S
C1567 C1566 1.327 . S
C1567 C1571 1.429 . S
C1568 C1551 1.574 . S
C1568 H1562 0.949 . S
C1568 C1572 1.368 . S
C1569 C1550 1.429 . S
C1569 C1563 1.429 . S
C1569 C1570 1.523 . S
C1570 C1551 1.368 . S
C1570 C1564 1.368 . S
C1570 C1569 1.523 . S
C1571 C1555 1.429 . S
C1571 C1567 1.429 . S
C1571 C1572 1.523 . S
C1572 C1556 1.368 . S
C1572 C1568 1.368 . S
C1572 C1571 1.523 . S
H1573 C1548 0.950 . S
H1574 C1550 0.950 . S
H1575 C1551 0.949 . S
H1576 C1553 0.950 . S
H1577 C1555 0.950 . S
C1578 C1579 1.349 . S
C1578 C1580 1.327 . S
C1578 H1603 0.950 . S
C1579 C1578 1.349 . S
C1579 C1595 1.349 . S
C1580 C1578 1.327 . S
C1580 C1599 1.429 . S
C1580 H1604 0.950 . S
C1581 C1598 1.574 . S
C1581 C1600 1.368 . S
C1581 H1605 0.949 . S
H1582 C1586 0.949 . S
C1583 C1584 1.349 . S
C1583 C1585 1.327 . S
C1583 H1606 0.950 . S
C1584 C1583 1.349 . S
C1584 C1596 1.349 . S
C1585 C1583 1.327 . S
C1585 C1601 1.429 . S
C1585 H1607 0.950 . S
C1586 H1582 0.949 . S
C1586 C1594 1.574 . S
C1586 C1602 1.368 . S
H1587 C1595 0.950 . S
H1588 C1593 0.950 . S
H1589 C1594 0.949 . S
H1590 C1596 0.950 . S
H1591 C1597 0.950 . S
H1592 C1598 0.949 . S
C1593 H1588 0.950 . S
C1593 C1595 1.327 . S
C1593 C1599 1.429 . S
C1594 C1586 1.574 . S
C1594 H1589 0.949 . S
C1594 C1600 1.368 . S
C1595 C1579 1.349 . S
C1595 H1587 0.950 . S
C1595 C1593 1.327 . S
C1596 C1584 1.349 . S
C1596 H1590 0.950 . S
C1596 C1597 1.327 . S
C1597 H1591 0.950 . S
C1597 C1596 1.327 . S
C1597 C1601 1.429 . S
C1598 C1581 1.574 . S
C1598 H1592 0.949 . S
C1598 C1602 1.368 . S
C1599 C1580 1.429 . S
C1599 C1593 1.429 . S
C1599 C1600 1.523 . S
C1600 C1581 1.368 . S
C1600 C1594 1.368 . S
C1600 C1599 1.523 . S
C1601 C1585 1.429 . S
C1601 C1597 1.429 . S
C1601 C1602 1.523 . S
C1602 C1586 1.368 . S
C1602 C1598 1.368 . S
C1602 C1601 1.523 . S
H1603 C1578 0.950 . S
H1604 C1580 0.950 . S
H1605 C1581 0.949 . S
H1606 C1583 0.950 . S
H1607 C1585 0.950 . S
C1608 C1609 1.349 . S
C1608 C1610 1.327 . S
C1608 H1633 0.950 . S
C1609 C1608 1.349 . S
C1609 C1625 1.349 . S
C1610 C1608 1.327 . S
C1610 C1629 1.429 . S
C1610 H1634 0.950 . S
C1611 C1628 1.574 . S
C1611 C1630 1.368 . S
C1611 H1635 0.949 . S
H1612 C1616 0.949 . S
C1613 C1614 1.349 . S
C1613 C1615 1.327 . S
C1613 H1636 0.950 . S
C1614 C1613 1.349 . S
C1614 C1626 1.349 . S
C1615 C1613 1.327 . S
C1615 C1631 1.429 . S
C1615 H1637 0.950 . S
C1616 H1612 0.949 . S
C1616 C1624 1.574 . S
C1616 C1632 1.368 . S
H1617 C1625 0.950 . S
H1618 C1623 0.950 . S
H1619 C1624 0.949 . S
H1620 C1626 0.950 . S
H1621 C1627 0.950 . S
H1622 C1628 0.949 . S
C1623 H1618 0.950 . S
C1623 C1625 1.327 . S
C1623 C1629 1.429 . S
C1624 C1616 1.574 . S
C1624 H1619 0.949 . S
C1624 C1630 1.368 . S
C1625 C1609 1.349 . S
C1625 H1617 0.950 . S
C1625 C1623 1.327 . S
C1626 C1614 1.349 . S
C1626 H1620 0.950 . S
C1626 C1627 1.327 . S
C1627 H1621 0.950 . S
C1627 C1626 1.327 . S
C1627 C1631 1.429 . S
C1628 C1611 1.574 . S
C1628 H1622 0.949 . S
C1628 C1632 1.368 . S
C1629 C1610 1.429 . S
C1629 C1623 1.429 . S
C1629 C1630 1.523 . S
C1630 C1611 1.368 . S
C1630 C1624 1.368 . S
C1630 C1629 1.523 . S
C1631 C1615 1.429 . S
C1631 C1627 1.429 . S
C1631 C1632 1.523 . S
C1632 C1616 1.368 . S
C1632 C1628 1.368 . S
C1632 C1631 1.523 . S
H1633 C1608 0.950 . S
H1634 C1610 0.950 . S
H1635 C1611 0.949 . S
H1636 C1613 0.950 . S
H1637 C1615 0.950 . S
C1638 C1639 1.349 . S
C1638 C1640 1.327 . S
C1638 H1663 0.950 . S
C1639 C1638 1.349 . S
C1639 C1655 1.349 . S
C1640 C1638 1.327 . S
C1640 C1659 1.429 . S
C1640 H1664 0.950 . S
C1641 C1658 1.574 . S
C1641 C1660 1.368 . S
C1641 H1665 0.949 . S
H1642 C1646 0.949 . S
C1643 C1644 1.349 . S
C1643 C1645 1.327 . S
C1643 H1666 0.950 . S
C1644 C1643 1.349 . S
C1644 C1656 1.349 . S
C1645 C1643 1.327 . S
C1645 C1661 1.429 . S
C1645 H1667 0.950 . S
C1646 H1642 0.949 . S
C1646 C1654 1.574 . S
C1646 C1662 1.368 . S
H1647 C1655 0.950 . S
H1648 C1653 0.950 . S
H1649 C1654 0.949 . S
H1650 C1656 0.950 . S
H1651 C1657 0.950 . S
H1652 C1658 0.949 . S
C1653 H1648 0.950 . S
C1653 C1655 1.327 . S
C1653 C1659 1.429 . S
C1654 C1646 1.574 . S
C1654 H1649 0.949 . S
C1654 C1660 1.368 . S
C1655 C1639 1.349 . S
C1655 H1647 0.950 . S
C1655 C1653 1.327 . S
C1656 C1644 1.349 . S
C1656 H1650 0.950 . S
C1656 C1657 1.327 . S
C1657 H1651 0.950 . S
C1657 C1656 1.327 . S
C1657 C1661 1.429 . S
C1658 C1641 1.574 . S
C1658 H1652 0.949 . S
C1658 C1662 1.368 . S
C1659 C1640 1.429 . S
C1659 C1653 1.429 . S
C1659 C1660 1.523 . S
C1660 C1641 1.368 . S
C1660 C1654 1.368 . S
C1660 C1659 1.523 . S
C1661 C1645 1.429 . S
C1661 C1657 1.429 . S
C1661 C1662 1.523 . S
C1662 C1646 1.368 . S
C1662 C1658 1.368 . S
C1662 C1661 1.523 . S
H1663 C1638 0.950 . S
H1664 C1640 0.950 . S
H1665 C1641 0.949 . S
H1666 C1643 0.950 . S
H1667 C1645 0.950 . S
C1668 C1669 1.349 . S
C1668 C1670 1.327 . S
C1668 H1693 0.950 . S
C1669 C1668 1.349 . S
C1669 C1685 1.349 . S
C1670 C1668 1.327 . S
C1670 C1689 1.429 . S
C1670 H1694 0.950 . S
C1671 C1688 1.574 . S
C1671 C1690 1.368 . S
C1671 H1695 0.949 . S
H1672 C1676 0.949 . S
C1673 C1674 1.349 . S
C1673 C1675 1.327 . S
C1673 H1696 0.950 . S
C1674 C1673 1.349 . S
C1674 C1686 1.349 . S
C1675 C1673 1.327 . S
C1675 C1691 1.429 . S
C1675 H1697 0.950 . S
C1676 H1672 0.949 . S
C1676 C1684 1.574 . S
C1676 C1692 1.368 . S
H1677 C1685 0.950 . S
H1678 C1683 0.950 . S
H1679 C1684 0.949 . S
H1680 C1686 0.950 . S
H1681 C1687 0.950 . S
H1682 C1688 0.949 . S
C1683 H1678 0.950 . S
C1683 C1685 1.327 . S
C1683 C1689 1.429 . S
C1684 C1676 1.574 . S
C1684 H1679 0.949 . S
C1684 C1690 1.368 . S
C1685 C1669 1.349 . S
C1685 H1677 0.950 . S
C1685 C1683 1.327 . S
C1686 C1674 1.349 . S
C1686 H1680 0.950 . S
C1686 C1687 1.327 . S
C1687 H1681 0.950 . S
C1687 C1686 1.327 . S
C1687 C1691 1.429 . S
C1688 C1671 1.574 . S
C1688 H1682 0.949 . S
C1688 C1692 1.368 . S
C1689 C1670 1.429 . S
C1689 C1683 1.429 . S
C1689 C1690 1.523 . S
C1690 C1671 1.368 . S
C1690 C1684 1.368 . S
C1690 C1689 1.523 . S
C1691 C1675 1.429 . S
C1691 C1687 1.429 . S
C1691 C1692 1.523 . S
C1692 C1676 1.368 . S
C1692 C1688 1.368 . S
C1692 C1691 1.523 . S
H1693 C1668 0.950 . S
H1694 C1670 0.950 . S
H1695 C1671 0.949 . S
H1696 C1673 0.950 . S
H1697 C1675 0.950 . S
C1698 C1699 1.349 . S
C1698 C1700 1.327 . S
C1698 H1723 0.950 . S
C1699 C1698 1.349 . S
C1699 C1715 1.349 . S
C1700 C1698 1.327 . S
C1700 C1719 1.429 . S
C1700 H1724 0.950 . S
C1701 C1718 1.574 . S
C1701 C1720 1.368 . S
C1701 H1725 0.949 . S
H1702 C1706 0.949 . S
C1703 C1704 1.349 . S
C1703 C1705 1.327 . S
C1703 H1726 0.950 . S
C1704 C1703 1.349 . S
C1704 C1716 1.349 . S
C1705 C1703 1.327 . S
C1705 C1721 1.429 . S
C1705 H1727 0.950 . S
C1706 H1702 0.949 . S
C1706 C1714 1.574 . S
C1706 C1722 1.368 . S
H1707 C1715 0.950 . S
H1708 C1713 0.950 . S
H1709 C1714 0.949 . S
H1710 C1716 0.950 . S
H1711 C1717 0.950 . S
H1712 C1718 0.949 . S
C1713 H1708 0.950 . S
C1713 C1715 1.327 . S
C1713 C1719 1.429 . S
C1714 C1706 1.574 . S
C1714 H1709 0.949 . S
C1714 C1720 1.368 . S
C1715 C1699 1.349 . S
C1715 H1707 0.950 . S
C1715 C1713 1.327 . S
C1716 C1704 1.349 . S
C1716 H1710 0.950 . S
C1716 C1717 1.327 . S
C1717 H1711 0.950 . S
C1717 C1716 1.327 . S
C1717 C1721 1.429 . S
C1718 C1701 1.574 . S
C1718 H1712 0.949 . S
C1718 C1722 1.368 . S
C1719 C1700 1.429 . S
C1719 C1713 1.429 . S
C1719 C1720 1.523 . S
C1720 C1701 1.368 . S
C1720 C1714 1.368 . S
C1720 C1719 1.523 . S
C1721 C1705 1.429 . S
C1721 C1717 1.429 . S
C1721 C1722 1.523 . S
C1722 C1706 1.368 . S
C1722 C1718 1.368 . S
C1722 C1721 1.523 . S
H1723 C1698 0.950 . S
H1724 C1700 0.950 . S
H1725 C1701 0.949 . S
H1726 C1703 0.950 . S
H1727 C1705 0.950 . S
C649 C626 1.834 . S
C654 C14 1.834 . S
C679 C554 1.834 . S
C684 C50 1.834 . S
C709 C590 1.834 . S
C714 C86 1.834 . S
C739 C266 1.834 . S
C744 C122 1.834 . S
C769 C302 1.834 . S
C774 C158 1.834 . S
C799 C194 1.834 . S
C804 C230 1.834 . S
C829 C338 1.834 . S
C834 C482 1.834 . S
C859 C374 1.834 . S
C864 C518 1.834 . S
C889 C410 1.834 . S
C894 C446 1.834 . S
C919 C2 0.339 . S
C924 C614 0.339 . S
C949 C542 0.339 . S
C954 C38 0.339 . S
C979 C74 0.339 . S
C984 C578 0.339 . S
C1009 C254 0.339 . S
C1014 C110 0.339 . S
C1039 C146 0.339 . S
C1044 C290 0.339 . S
C1069 C182 0.339 . S
C1074 C218 0.339 . S
C1099 C326 0.339 . S
C1104 C470 0.339 . S
C1129 C506 0.339 . S
C1134 C362 0.339 . S
C1159 C434 0.339 . S
C1164 C398 0.339 . S
C1189 C3 1.698 . S
C1194 C111 1.698 . S
C1219 C147 1.698 . S
C1224 C39 1.698 . S
C1249 C183 1.698 . S
C1254 C75 1.698 . S
C1279 C184 1.705 . S
C1284 C40 1.705 . S
C1309 C76 1.705 . S
C1314 C112 1.705 . S
C1339 C148 1.705 . S
C1344 C4 1.705 . S
C1369 C219 1.698 . S
C1374 C327 1.698 . S
C1399 C363 1.698 . S
C1404 C255 1.698 . S
C1429 C399 1.698 . S
C1434 C291 1.698 . S
C1459 C400 1.706 . S
C1464 C256 1.706 . S
C1489 C292 1.705 . S
C1494 C328 1.705 . S
C1519 C364 1.705 . S
C1524 C220 1.705 . S
C1549 C543 1.698 . S
C1554 C435 1.698 . S
C1579 C579 1.698 . S
C1584 C471 1.698 . S
C1609 C507 1.698 . S
C1614 C615 1.698 . S
C1639 C616 1.706 . S
C1644 C472 1.706 . S
C1669 C508 1.705 . S
C1674 C544 1.705 . S
C1699 C580 1.705 . S
C1704 C436 1.705 . S
