# Generated by pormake.
# Topology crr, (4)-cn, num edge types: 1
# Building blocks:
#     Node 0, Type 0, BuildingBlock: NAWXER_clean_sbu_0, # of connection points: 4
#     Node 1, Type 0, BuildingBlock: NAWXER_clean_sbu_0, # of connection points: 4
#     Node 2, Type 0, BuildingBlock: NAWXER_clean_sbu_0, # of connection points: 4
#     Node 3, Type 0, BuildingBlock: NAWXER_clean_sbu_0, # of connection points: 4
#     Node 4, Type 0, BuildingBlock: NAWXER_clean_sbu_0, # of connection points: 4
#     Node 5, Type 0, BuildingBlock: NAWXER_clean_sbu_0, # of connection points: 4
#     Node 6, Type 0, BuildingBlock: NAWXER_clean_sbu_0, # of connection points: 4
#     Node 7, Type 0, BuildingBlock: NAWXER_clean_sbu_0, # of connection points: 4
#     Node 8, Type 0, BuildingBlock: NAWXER_clean_sbu_0, # of connection points: 4
#     Node 9, Type 0, BuildingBlock: NAWXER_clean_sbu_0, # of connection points: 4
#     Node 10, Type 0, BuildingBlock: NAWXER_clean_sbu_0, # of connection points: 4
#     Node 11, Type 0, BuildingBlock: NAWXER_clean_sbu_0, # of connection points: 4
#     Edge 12, Type (0, 0), BuildingBlock: MIFKUJ_clean_linker_0, # of connection points: 2
#     Edge 13, Type (0, 0), BuildingBlock: MIFKUJ_clean_linker_0, # of connection points: 2
#     Edge 14, Type (0, 0), BuildingBlock: MIFKUJ_clean_linker_0, # of connection points: 2
#     Edge 15, Type (0, 0), BuildingBlock: MIFKUJ_clean_linker_0, # of connection points: 2
#     Edge 16, Type (0, 0), BuildingBlock: MIFKUJ_clean_linker_0, # of connection points: 2
#     Edge 17, Type (0, 0), BuildingBlock: MIFKUJ_clean_linker_0, # of connection points: 2
#     Edge 18, Type (0, 0), BuildingBlock: MIFKUJ_clean_linker_0, # of connection points: 2
#     Edge 19, Type (0, 0), BuildingBlock: MIFKUJ_clean_linker_0, # of connection points: 2
#     Edge 20, Type (0, 0), BuildingBlock: MIFKUJ_clean_linker_0, # of connection points: 2
#     Edge 21, Type (0, 0), BuildingBlock: MIFKUJ_clean_linker_0, # of connection points: 2
#     Edge 22, Type (0, 0), BuildingBlock: MIFKUJ_clean_linker_0, # of connection points: 2
#     Edge 23, Type (0, 0), BuildingBlock: MIFKUJ_clean_linker_0, # of connection points: 2
#     Edge 24, Type (0, 0), BuildingBlock: MIFKUJ_clean_linker_0, # of connection points: 2
#     Edge 25, Type (0, 0), BuildingBlock: MIFKUJ_clean_linker_0, # of connection points: 2
#     Edge 26, Type (0, 0), BuildingBlock: MIFKUJ_clean_linker_0, # of connection points: 2
#     Edge 27, Type (0, 0), BuildingBlock: MIFKUJ_clean_linker_0, # of connection points: 2
#     Edge 28, Type (0, 0), BuildingBlock: MIFKUJ_clean_linker_0, # of connection points: 2
#     Edge 29, Type (0, 0), BuildingBlock: MIFKUJ_clean_linker_0, # of connection points: 2
#     Edge 30, Type (0, 0), BuildingBlock: MIFKUJ_clean_linker_0, # of connection points: 2
#     Edge 31, Type (0, 0), BuildingBlock: MIFKUJ_clean_linker_0, # of connection points: 2
#     Edge 32, Type (0, 0), BuildingBlock: MIFKUJ_clean_linker_0, # of connection points: 2
#     Edge 33, Type (0, 0), BuildingBlock: MIFKUJ_clean_linker_0, # of connection points: 2
#     Edge 34, Type (0, 0), BuildingBlock: MIFKUJ_clean_linker_0, # of connection points: 2
#     Edge 35, Type (0, 0), BuildingBlock: MIFKUJ_clean_linker_0, # of connection points: 2
# Relax obj value: 0.065
# Max RMSD: 0.110
# Mean RMSD: 0.110
data_MOF--net-crr--node1-NAWXER_clean_sbu_0--edge1-MIFKUJ_clean_linker_0
_symmetry_space_group_name_H-M    P1
_symmetry_Int_Tables_number       1
_symmetry_cell_setting            triclinic
loop_
_symmetry_equiv_pos_as_xyz
'x, y, z'
_cell_length_a     52.004859
_cell_length_b     52.017401
_cell_length_c     52.082827
_cell_angle_alpha  90.037356
_cell_angle_beta   90.043951
_cell_angle_gamma 89.954565
loop_
_atom_site_label
_atom_site_type_symbol
_atom_site_fract_x
_atom_site_fract_y
_atom_site_fract_z
_atom_type_partial_charge
C0 C 0.07103 0.33105 0.37465 0.0
C1 C 0.12131 0.33872 0.29635 0.0
O2 O 0.09387 0.33937 0.3723 0.0
Zn3 Zn 0.09663 0.33512 0.33577 0.0
O4 O 0.05874 0.32307 0.35481 0.0
Zn5 Zn 0.06551 0.31894 0.31427 0.0
O6 O 0.06448 0.28176 0.30838 0.0
O7 O 0.09757 0.29455 0.33168 0.0
O8 O 0.09888 0.32928 0.29241 0.0
O9 O 0.12806 0.34492 0.31899 0.0
O10 O 0.06976 0.36229 0.32084 0.0
O11 O 0.03933 0.34136 0.29988 0.0
C12 C 0.08482 0.27648 0.32091 0.0
C13 C 0.04897 0.36248 0.30762 0.0
C14 C 0.34881 0.90843 0.71416 0.0
C15 C 0.32972 0.94907 0.63253 0.0
O16 O 0.33625 0.92906 0.71046 0.0
Zn17 Zn 0.33982 0.92929 0.67356 0.0
O18 O 0.35861 0.89643 0.69501 0.0
Zn19 Zn 0.36045 0.90013 0.65415 0.0
O20 O 0.39665 0.90343 0.64799 0.0
O21 O 0.38018 0.93712 0.66785 0.0
O22 O 0.34327 0.92863 0.62983 0.0
O23 O 0.32341 0.95659 0.65485 0.0
O24 O 0.31772 0.8956 0.66306 0.0
O25 O 0.34405 0.86898 0.64312 0.0
C26 C 0.39958 0.92551 0.65795 0.0
C27 C 0.32177 0.87403 0.65175 0.0
C28 C 0.9284 0.60651 0.33298 0.0
C29 C 0.88552 0.6886 0.34902 0.0
O30 O 0.93658 0.62857 0.32636 0.0
Zn31 Zn 0.90923 0.64836 0.34241 0.0
O32 O 0.90827 0.60461 0.34703 0.0
Zn33 Zn 0.88046 0.62912 0.36462 0.0
O34 O 0.84916 0.6167 0.34913 0.0
O35 O 0.8758 0.63523 0.3217 0.0
O36 O 0.87487 0.66933 0.35996 0.0
O37 O 0.90662 0.68546 0.33704 0.0
O38 O 0.91795 0.64507 0.38238 0.0
O39 O 0.88569 0.62508 0.40117 0.0
C40 C 0.85446 0.62377 0.32634 0.0
C41 C 0.90751 0.63592 0.4027 0.0
C42 C 0.65994 0.12948 0.66514 0.0
C43 C 0.68239 0.08164 0.58884 0.0
O44 O 0.67052 0.10794 0.6711 0.0
Zn45 Zn 0.68562 0.07483 0.65014 0.0
O46 O 0.65644 0.13512 0.6417 0.0
Zn47 Zn 0.67118 0.10491 0.62758 0.0
O48 O 0.64338 0.07614 0.63797 0.0
O49 O 0.66378 0.047 0.66103 0.0
O50 O 0.67228 0.1037 0.59107 0.0
O51 O 0.68819 0.0688 0.60909 0.0
O52 O 0.72112 0.07395 0.66103 0.0
O53 O 0.711 0.10838 0.63849 0.0
C54 C 0.64315 0.05509 0.65077 0.0
C55 C 0.72763 0.09531 0.6512 0.0
C56 C 0.09526 0.65664 0.71946 0.0
C57 C 0.05353 0.65667 0.63576 0.0
O58 O 0.10882 0.64566 0.70203 0.0
Zn59 Zn 0.10592 0.63703 0.66161 0.0
O60 O 0.0733 0.66576 0.71375 0.0
Zn61 Zn 0.07456 0.65662 0.67783 0.0
O62 O 0.07241 0.61505 0.67943 0.0
O63 O 0.10784 0.60032 0.66136 0.0
O64 O 0.04549 0.66589 0.65683 0.0
O65 O 0.07561 0.64568 0.63494 0.0
O66 O 0.13495 0.65481 0.64802 0.0
O67 O 0.10595 0.68089 0.66468 0.0
C68 C 0.08662 0.59605 0.67257 0.0
C69 C 0.12793 0.67742 0.65393 0.0
C70 C 0.61473 0.92719 0.31642 0.0
C71 C 0.69787 0.88494 0.32571 0.0
O72 O 0.61948 0.90473 0.32465 0.0
Zn73 Zn 0.65641 0.90565 0.3205 0.0
O74 O 0.63319 0.94123 0.30814 0.0
Zn75 Zn 0.67404 0.93787 0.30311 0.0
O76 O 0.67837 0.93923 0.26614 0.0
O77 O 0.66201 0.90263 0.28003 0.0
O78 O 0.69987 0.907 0.31476 0.0
O79 O 0.67583 0.8768 0.33243 0.0
O80 O 0.66911 0.93521 0.34642 0.0
O81 O 0.68632 0.96634 0.32326 0.0
C82 C 0.67042 0.9166 0.26163 0.0
C83 C 0.6802 0.95718 0.34503 0.0
C84 C 0.90273 0.33411 0.7025 0.0
C85 C 0.94805 0.32344 0.62157 0.0
O86 O 0.89591 0.34192 0.68038 0.0
Zn87 Zn 0.92476 0.32857 0.66186 0.0
O88 O 0.92379 0.32147 0.7051 0.0
Zn89 Zn 0.95456 0.30761 0.68092 0.0
O90 O 0.98419 0.32575 0.69486 0.0
O91 O 0.95536 0.35123 0.67681 0.0
O92 O 0.95999 0.31293 0.6404 0.0
O93 O 0.92655 0.33436 0.62545 0.0
O94 O 0.91841 0.28848 0.66496 0.0
O95 O 0.95123 0.27032 0.68468 0.0
C96 C 0.97663 0.34823 0.68885 0.0
C97 C 0.92932 0.26835 0.67398 0.0
C98 C 0.36927 0.05209 0.33424 0.0
C99 C 0.28806 0.09945 0.33189 0.0
O100 O 0.36996 0.07299 0.34733 0.0
Zn101 Zn 0.34421 0.10384 0.35724 0.0
O102 O 0.34851 0.04555 0.32311 0.0
Zn103 Zn 0.32828 0.07501 0.33347 0.0
O104 O 0.34739 0.1062 0.31379 0.0
O105 O 0.36129 0.13322 0.34345 0.0
O106 O 0.29316 0.07824 0.32088 0.0
O107 O 0.30526 0.11035 0.34575 0.0
O108 O 0.3417 0.10204 0.3937 0.0
O109 O 0.32378 0.06884 0.37426 0.0
C110 C 0.359 0.12709 0.31997 0.0
C111 C 0.32977 0.08082 0.39499 0.0
C112 C 0.36693 0.38848 0.06961 0.0
C113 C 0.38306 0.31444 0.12426 0.0
O114 O 0.38174 0.38679 0.08891 0.0
Zn115 Zn 0.37555 0.35124 0.09718 0.0
O116 O 0.35443 0.36861 0.06213 0.0
Zn117 Zn 0.35064 0.32926 0.07325 0.0
O118 O 0.31444 0.32641 0.0814 0.0
O119 O 0.33635 0.34976 0.10923 0.0
O120 O 0.36796 0.30927 0.10542 0.0
O121 O 0.39195 0.33705 0.12702 0.0
O122 O 0.39402 0.32997 0.06743 0.0
O123 O 0.36425 0.31048 0.04409 0.0
C124 C 0.31513 0.33956 0.10197 0.0
C125 C 0.38774 0.31526 0.04873 0.0
C126 C 0.2638 0.678 0.92836 0.0
C127 C 0.33894 0.7036 0.97804 0.0
O128 O 0.26383 0.6889 0.95022 0.0
Zn129 Zn 0.30091 0.68992 0.9545 0.0
O130 O 0.28518 0.67163 0.91791 0.0
Zn131 Zn 0.32533 0.67435 0.92568 0.0
O132 O 0.33702 0.63952 0.9277 0.0
O133 O 0.31153 0.65018 0.95984 0.0
O134 O 0.34442 0.69235 0.95687 0.0
O135 O 0.31562 0.70602 0.98494 0.0
O136 O 0.31196 0.71605 0.924 0.0
O137 O 0.33717 0.69444 0.8975 0.0
C138 C 0.32563 0.63348 0.94836 0.0
C139 C 0.32579 0.71519 0.90359 0.0
C140 C 0.6456 0.72166 0.09404 0.0
C141 C 0.64591 0.63625 0.05679 0.0
O142 O 0.63355 0.70548 0.10822 0.0
Zn143 Zn 0.6247 0.66484 0.10719 0.0
O144 O 0.65625 0.71399 0.07349 0.0
Zn145 Zn 0.64618 0.67865 0.07643 0.0
O146 O 0.60457 0.68112 0.07212 0.0
O147 O 0.58818 0.66506 0.10773 0.0
O148 O 0.65621 0.65677 0.04867 0.0
O149 O 0.6338 0.63645 0.07826 0.0
O150 O 0.64026 0.6521 0.13754 0.0
O151 O 0.66872 0.66526 0.10912 0.0
C152 C 0.58492 0.67531 0.08589 0.0
C153 C 0.6635 0.65573 0.13128 0.0
C154 C 0.64147 0.32849 0.85264 0.0
C155 C 0.64718 0.40379 0.90788 0.0
O156 O 0.63289 0.35094 0.84806 0.0
Zn157 Zn 0.64443 0.36634 0.87966 0.0
O158 O 0.65321 0.32398 0.87385 0.0
Zn159 Zn 0.66414 0.34451 0.90814 0.0
O160 O 0.64525 0.32597 0.93411 0.0
O161 O 0.62045 0.34696 0.90677 0.0
O162 O 0.65723 0.38382 0.91825 0.0
O163 O 0.63787 0.40234 0.8854 0.0
O164 O 0.68513 0.36431 0.87516 0.0
O165 O 0.70131 0.34182 0.90722 0.0
C166 C 0.62291 0.33209 0.92625 0.0
C167 C 0.70459 0.35443 0.88658 0.0
H168 H 0.08411 0.23957 0.28307 0.0
H169 H 0.11344 0.20242 0.28035 0.0
H170 H 0.14087 0.21862 0.3568 0.0
H171 H 0.11194 0.25536 0.35961 0.0
H172 H 0.17818 0.22172 0.31542 0.0
H173 H 0.1105 0.16685 0.34945 0.0
H174 H 0.06781 0.14631 0.34822 0.0
H175 H 0.08654 0.11063 0.27625 0.0
H176 H 0.12925 0.13128 0.27688 0.0
H177 H 0.26731 0.13628 0.36233 0.0
H178 H 0.22816 0.16085 0.3553 0.0
H179 H 0.21284 0.11751 0.28632 0.0
H180 H 0.25211 0.0921 0.29368 0.0
H181 H 0.16861 0.12686 0.31324 0.0
H182 H 0.23743 0.17877 0.28061 0.0
H183 H 0.27946 0.2009 0.28044 0.0
H184 H 0.25825 0.24295 0.34806 0.0
H185 H 0.21613 0.22122 0.34867 0.0
C186 C 0.09568 0.23451 0.29962 0.0
C187 C 0.09598 0.25041 0.32147 0.0
C188 C 0.11247 0.2134 0.298 0.0
C189 C 0.12946 0.20804 0.31829 0.0
C190 C 0.128 0.22256 0.3409 0.0
C191 C 0.11143 0.24351 0.34249 0.0
C192 C 0.15141 0.1902 0.31508 0.0
C193 C 0.1761 0.20096 0.31501 0.0
C194 C 0.14858 0.16324 0.3134 0.0
C195 C 0.12292 0.1509 0.31303 0.0
C196 C 0.10541 0.15487 0.33321 0.0
C197 C 0.08123 0.14314 0.33267 0.0
C198 C 0.07442 0.12725 0.31212 0.0
C199 C 0.09181 0.12299 0.29212 0.0
C200 C 0.11601 0.13469 0.29257 0.0
C201 C 0.25559 0.1318 0.34571 0.0
C202 C 0.26296 0.11242 0.3284 0.0
C203 C 0.23324 0.14597 0.34164 0.0
C204 C 0.21791 0.1415 0.31991 0.0
C205 C 0.22453 0.12143 0.30309 0.0
C206 C 0.24692 0.10694 0.30733 0.0
C207 C 0.19543 0.15842 0.31494 0.0
C208 C 0.17071 0.1476 0.3132 0.0
C209 C 0.19812 0.1855 0.31482 0.0
C210 C 0.22367 0.19825 0.31475 0.0
C211 C 0.24181 0.19259 0.29555 0.0
C212 C 0.26562 0.20509 0.29534 0.0
C213 C 0.27154 0.22318 0.31426 0.0
C214 C 0.25365 0.2289 0.33342 0.0
C215 C 0.22978 0.21657 0.33367 0.0
H216 H 0.28997 0.23283 0.31403 0.0
H217 H 0.0557 0.11818 0.31174 0.0
H218 H 0.27275 0.87802 0.67024 0.0
H219 H 0.23901 0.84541 0.66941 0.0
H220 H 0.28976 0.79364 0.62914 0.0
H221 H 0.3236 0.82626 0.62966 0.0
H222 H 0.24247 0.79319 0.60848 0.0
H223 H 0.27856 0.78536 0.69251 0.0
H224 H 0.29321 0.79962 0.73526 0.0
H225 H 0.21664 0.82451 0.75357 0.0
H226 H 0.20157 0.8106 0.71082 0.0
H227 H 0.17514 0.6767 0.63097 0.0
H228 H 0.20661 0.71139 0.62917 0.0
H229 H 0.15346 0.762 0.66779 0.0
H230 H 0.12186 0.72722 0.66998 0.0
H231 H 0.20117 0.76376 0.6891 0.0
H232 H 0.16567 0.76891 0.60386 0.0
H233 H 0.15253 0.75176 0.5617 0.0
H234 H 0.2304 0.72906 0.54625 0.0
H235 H 0.24395 0.74577 0.58848 0.0
C236 C 0.27674 0.85976 0.66109 0.0
C237 C 0.30092 0.85474 0.65006 0.0
C238 C 0.25746 0.84107 0.66077 0.0
C239 C 0.26199 0.81697 0.64952 0.0
C240 C 0.28589 0.81209 0.63799 0.0
C241 C 0.30521 0.83076 0.63833 0.0
C242 C 0.24174 0.79691 0.64966 0.0
C243 C 0.23365 0.78653 0.62613 0.0
C244 C 0.22994 0.78855 0.67268 0.0
C245 C 0.23899 0.79723 0.69832 0.0
C246 C 0.26489 0.79412 0.70554 0.0
C247 C 0.27327 0.80207 0.72981 0.0
C248 C 0.2559 0.81306 0.74707 0.0
C249 C 0.23009 0.81604 0.74015 0.0
C250 C 0.22161 0.8081 0.71592 0.0
C251 C 0.16997 0.69527 0.63882 0.0
C252 C 0.14592 0.6992 0.65054 0.0
C253 C 0.18799 0.71512 0.63773 0.0
C254 C 0.18231 0.73935 0.64815 0.0
C255 C 0.15821 0.74345 0.65958 0.0
C256 C 0.14013 0.7236 0.66067 0.0
C257 C 0.2019 0.76006 0.64792 0.0
C258 C 0.2099 0.77053 0.67145 0.0
C259 C 0.21386 0.76825 0.62494 0.0
C260 C 0.20578 0.75842 0.59942 0.0
C261 C 0.17996 0.76011 0.59155 0.0
C262 C 0.17245 0.75049 0.56762 0.0
C263 C 0.19061 0.73928 0.55133 0.0
C264 C 0.21635 0.73773 0.5589 0.0
C265 C 0.22396 0.74731 0.58281 0.0
H266 H 0.18475 0.73183 0.53282 0.0
H267 H 0.26242 0.81918 0.76585 0.0
H268 H 0.74774 0.89588 0.31272 0.0
H269 H 0.78565 0.86859 0.31867 0.0
H270 H 0.7383 0.81047 0.35396 0.0
H271 H 0.70044 0.83766 0.3484 0.0
H272 H 0.78327 0.81788 0.3801 0.0
H273 H 0.75649 0.80655 0.29066 0.0
H274 H 0.74691 0.8234 0.2474 0.0
H275 H 0.82367 0.85317 0.24167 0.0
H276 H 0.83359 0.83678 0.28504 0.0
H277 H 0.83785 0.69786 0.36792 0.0
H278 H 0.8128 0.73695 0.36538 0.0
H279 H 0.87567 0.77534 0.32741 0.0
H280 H 0.90104 0.73539 0.32916 0.0
H281 H 0.83088 0.78567 0.30404 0.0
H282 H 0.86044 0.79057 0.38984 0.0
H283 H 0.87068 0.77503 0.43337 0.0
H284 H 0.79077 0.75949 0.44698 0.0
H285 H 0.78007 0.77457 0.40339 0.0
C286 C 0.74541 0.87734 0.32186 0.0
C287 C 0.72102 0.8689 0.32999 0.0
C288 C 0.76709 0.86176 0.32519 0.0
C289 C 0.76475 0.83742 0.33657 0.0
C290 C 0.74054 0.82921 0.34516 0.0
C291 C 0.7189 0.84475 0.34187 0.0
C292 C 0.7872 0.81999 0.33904 0.0
C293 C 0.79366 0.81077 0.3635 0.0
C294 C 0.80148 0.81158 0.31747 0.0
C295 C 0.79568 0.82071 0.29116 0.0
C296 C 0.77127 0.81679 0.28021 0.0
C297 C 0.76579 0.82624 0.25568 0.0
C298 C 0.78464 0.83943 0.24187 0.0
C299 C 0.80908 0.84301 0.25244 0.0
C300 C 0.81465 0.83363 0.27697 0.0
C301 C 0.84666 0.7146 0.35926 0.0
C302 C 0.87163 0.71349 0.34892 0.0
C303 C 0.83225 0.73707 0.35794 0.0
C304 C 0.84251 0.75929 0.34674 0.0
C305 C 0.86747 0.75845 0.33637 0.0
C306 C 0.88196 0.73569 0.33747 0.0
C307 C 0.82628 0.78274 0.34506 0.0
C308 C 0.82096 0.79315 0.32077 0.0
C309 C 0.8132 0.79246 0.36685 0.0
C310 C 0.81947 0.78365 0.39327 0.0
C311 C 0.84505 0.78372 0.40206 0.0
C312 C 0.85094 0.775 0.42675 0.0
C313 C 0.83139 0.76626 0.44292 0.0
C314 C 0.8059 0.76628 0.43444 0.0
C315 C 0.7999 0.77497 0.40975 0.0
H316 H 0.83599 0.7595 0.46203 0.0
H317 H 0.78035 0.84688 0.22299 0.0
H318 H 0.94351 0.22067 0.69306 0.0
H319 H 0.91641 0.18177 0.69494 0.0
H320 H 0.85555 0.22239 0.656 0.0
H321 H 0.88206 0.26055 0.65358 0.0
H322 H 0.84266 0.19762 0.70558 0.0
H323 H 0.88499 0.18405 0.62212 0.0
H324 H 0.92326 0.1764 0.59522 0.0
H325 H 0.94088 0.10847 0.63866 0.0
H326 H 0.90285 0.11596 0.66605 0.0
H327 H 0.74478 0.14268 0.63749 0.0
H328 H 0.786 0.16233 0.64757 0.0
H329 H 0.81096 0.09258 0.68464 0.0
H330 H 0.76924 0.07252 0.67483 0.0
H331 H 0.84896 0.12165 0.64821 0.0
H332 H 0.79856 0.13073 0.72434 0.0
H333 H 0.75873 0.13904 0.74863 0.0
H334 H 0.75596 0.21595 0.71887 0.0
H335 H 0.79552 0.20795 0.69402 0.0
C336 C 0.92448 0.22111 0.68463 0.0
C337 C 0.91492 0.24379 0.67334 0.0
C338 C 0.90906 0.19895 0.68578 0.0
C339 C 0.88395 0.19943 0.67584 0.0
C340 C 0.8748 0.22176 0.66397 0.0
C341 C 0.8901 0.24358 0.66257 0.0
C342 C 0.86619 0.17741 0.6782 0.0
C343 C 0.8442 0.18075 0.69341 0.0
C344 C 0.86856 0.15519 0.66276 0.0
C345 C 0.89136 0.15078 0.64635 0.0
C346 C 0.8972 0.16765 0.62611 0.0
C347 C 0.91879 0.16331 0.61073 0.0
C348 C 0.93456 0.14202 0.6153 0.0
C349 C 0.9287 0.12499 0.6352 0.0
C350 C 0.90713 0.12928 0.65065 0.0
C351 C 0.75902 0.1313 0.64756 0.0
C352 C 0.75362 0.10606 0.65551 0.0
C353 C 0.78259 0.1426 0.65329 0.0
C354 C 0.80136 0.12892 0.66695 0.0
C355 C 0.79663 0.10337 0.67407 0.0
C356 C 0.7728 0.09203 0.66852 0.0
C357 C 0.82504 0.1425 0.67481 0.0
C358 C 0.84796 0.13777 0.66141 0.0
C359 C 0.82356 0.16354 0.69194 0.0
C360 C 0.79999 0.16868 0.70723 0.0
C361 C 0.78938 0.14936 0.72284 0.0
C362 C 0.76685 0.15402 0.73673 0.0
C363 C 0.75481 0.178 0.73527 0.0
C364 C 0.76532 0.19738 0.71998 0.0
C365 C 0.78782 0.19281 0.70602 0.0
H366 H 0.73734 0.18156 0.74601 0.0
H367 H 0.95126 0.13868 0.60337 0.0
H368 H 0.39519 0.32032 0.17495 0.0
H369 H 0.398 0.28639 0.20733 0.0
H370 H 0.38698 0.22904 0.14837 0.0
H371 H 0.38307 0.26292 0.11621 0.0
H372 H 0.35554 0.22042 0.18488 0.0
H373 H 0.44566 0.23741 0.18169 0.0
H374 H 0.48501 0.2638 0.18263 0.0
H375 H 0.46785 0.28754 0.25972 0.0
H376 H 0.42819 0.26156 0.25912 0.0
H377 H 0.36717 0.11573 0.2695 0.0
H378 H 0.37877 0.14556 0.23518 0.0
H379 H 0.38294 0.20753 0.29015 0.0
H380 H 0.37216 0.17766 0.32469 0.0
H381 H 0.42022 0.21172 0.25437 0.0
H382 H 0.32827 0.19436 0.25519 0.0
H383 H 0.29045 0.16574 0.25294 0.0
H384 H 0.31281 0.14114 0.17756 0.0
H385 H 0.35119 0.16889 0.17961 0.0
C386 C 0.39385 0.30044 0.1689 0.0
C387 C 0.38872 0.2942 0.14317 0.0
C388 C 0.39557 0.28104 0.18738 0.0
C389 C 0.39281 0.25511 0.18028 0.0
C390 C 0.38901 0.24889 0.15433 0.0
C391 C 0.38682 0.26825 0.13598 0.0
C392 C 0.39142 0.23464 0.20005 0.0
C393 C 0.36999 0.21824 0.19976 0.0
C394 C 0.40995 0.2321 0.21981 0.0
C395 C 0.43383 0.2477 0.22028 0.0
C396 C 0.45017 0.24841 0.19878 0.0
C397 C 0.47255 0.26327 0.19926 0.0
C398 C 0.4789 0.27739 0.2212 0.0
C399 C 0.4629 0.27662 0.24273 0.0
C400 C 0.44048 0.2618 0.24234 0.0
C401 C 0.37085 0.13566 0.27431 0.0
C402 C 0.36844 0.14446 0.29971 0.0
C403 C 0.37746 0.15266 0.2547 0.0
C404 C 0.38119 0.17884 0.26008 0.0
C405 C 0.38005 0.18741 0.28559 0.0
C406 C 0.3738 0.17034 0.30529 0.0
C407 C 0.38444 0.19763 0.23902 0.0
C408 C 0.40604 0.2138 0.23922 0.0
C409 C 0.36621 0.19981 0.21895 0.0
C410 C 0.34277 0.18353 0.21766 0.0
C411 C 0.32523 0.18272 0.2382 0.0
C412 C 0.30369 0.16668 0.23697 0.0
C413 C 0.29923 0.15172 0.21514 0.0
C414 C 0.3163 0.15273 0.19447 0.0
C415 C 0.33798 0.16856 0.19568 0.0
H416 H 0.28253 0.13934 0.21423 0.0
H417 H 0.49623 0.28888 0.22153 0.0
H418 H 0.21636 0.70019 0.93669 0.0
H419 H 0.17982 0.70056 0.90659 0.0
H420 H 0.22132 0.6498 0.85589 0.0
H421 H 0.25742 0.64911 0.88554 0.0
H422 H 0.20479 0.6974 0.83363 0.0
H423 H 0.17316 0.62683 0.88724 0.0
H424 H 0.158 0.60862 0.92823 0.0
H425 H 0.09743 0.66469 0.93119 0.0
H426 H 0.11247 0.68345 0.89035 0.0
H427 H 0.13992 0.63647 0.73746 0.0
H428 H 0.1608 0.64501 0.77832 0.0
H429 H 0.0969 0.69243 0.80164 0.0
H430 H 0.07555 0.68396 0.76032 0.0
H431 H 0.11805 0.65852 0.84159 0.0
H432 H 0.14459 0.72341 0.78344 0.0
H433 H 0.15953 0.74151 0.74233 0.0
H434 H 0.22969 0.69839 0.74833 0.0
H435 H 0.21497 0.67957 0.78918 0.0
C436 C 0.21738 0.68865 0.9194 0.0
C437 C 0.23988 0.67486 0.91333 0.0
C438 C 0.19657 0.68896 0.90224 0.0
C439 C 0.19813 0.67547 0.87894 0.0
C440 C 0.21992 0.66055 0.87367 0.0
C441 C 0.24052 0.66016 0.8907 0.0
C442 C 0.17829 0.67806 0.85878 0.0
C443 C 0.18577 0.689 0.83536 0.0
C444 C 0.15317 0.6681 0.86151 0.0
C445 C 0.14415 0.65675 0.88596 0.0
C446 C 0.15677 0.63543 0.89677 0.0
C447 C 0.14816 0.62498 0.91994 0.0
C448 C 0.12682 0.63555 0.93236 0.0
C449 C 0.11399 0.65656 0.92159 0.0
C450 C 0.12254 0.6671 0.89843 0.0
C451 C 0.13008 0.64855 0.75126 0.0
C452 C 0.10619 0.65979 0.74549 0.0
C453 C 0.14208 0.65341 0.77463 0.0
C454 C 0.13054 0.66965 0.79276 0.0
C455 C 0.1061 0.67993 0.78777 0.0
C456 C 0.09399 0.6751 0.76419 0.0
C457 C 0.14517 0.6766 0.81608 0.0
C458 C 0.13675 0.66761 0.84005 0.0
C459 C 0.16949 0.68857 0.81396 0.0
C460 C 0.17857 0.69995 0.78938 0.0
C461 C 0.16312 0.7176 0.7759 0.0
C462 C 0.17156 0.72801 0.75264 0.0
C463 C 0.19552 0.72108 0.74271 0.0
C464 C 0.21112 0.70374 0.75604 0.0
C465 C 0.20274 0.69321 0.77927 0.0
H466 H 0.20203 0.72916 0.72471 0.0
H467 H 0.12018 0.62743 0.95029 0.0
H468 H 0.62311 0.74421 0.13552 0.0
H469 H 0.62771 0.78831 0.15022 0.0
H470 H 0.67596 0.80537 0.08506 0.0
H471 H 0.67174 0.76082 0.07029 0.0
H472 H 0.69775 0.82114 0.12781 0.0
H473 H 0.61684 0.83426 0.09006 0.0
H474 H 0.57192 0.82481 0.07825 0.0
H475 H 0.54973 0.8288 0.15752 0.0
H476 H 0.59456 0.83786 0.16991 0.0
H477 H 0.66012 0.93962 0.2153 0.0
H478 H 0.65838 0.91816 0.17303 0.0
H479 H 0.68294 0.84719 0.20819 0.0
H480 H 0.68394 0.8681 0.25006 0.0
H481 H 0.62625 0.87332 0.16339 0.0
H482 H 0.72506 0.81882 0.16653 0.0
H483 H 0.77019 0.8283 0.17725 0.0
H484 H 0.75672 0.90877 0.16482 0.0
H485 H 0.71165 0.89976 0.15331 0.0
C486 C 0.63448 0.75733 0.12413 0.0
C487 C 0.64718 0.74894 0.10184 0.0
C488 C 0.63688 0.78269 0.13239 0.0
C489 C 0.65183 0.80029 0.11849 0.0
C490 C 0.66415 0.79216 0.09593 0.0
C491 C 0.66175 0.7667 0.0876 0.0
C492 C 0.65667 0.82615 0.12942 0.0
C493 C 0.68215 0.83285 0.13519 0.0
C494 C 0.63632 0.84196 0.1382 0.0
C495 C 0.60915 0.8368 0.13091 0.0
C496 C 0.60242 0.83303 0.10501 0.0
C497 C 0.57695 0.82773 0.0982 0.0
C498 C 0.55798 0.82624 0.11712 0.0
C499 C 0.56444 0.83003 0.14288 0.0
C500 C 0.58988 0.83532 0.1498 0.0
C501 C 0.66547 0.91954 0.21376 0.0
C502 C 0.67196 0.90536 0.23579 0.0
C503 C 0.66446 0.90737 0.18974 0.0
C504 C 0.67075 0.8812 0.18756 0.0
C505 C 0.6783 0.86747 0.20945 0.0
C506 C 0.6787 0.87936 0.23335 0.0
C507 C 0.66712 0.86687 0.16334 0.0
C508 C 0.64186 0.86223 0.15513 0.0
C509 C 0.68767 0.85306 0.15216 0.0
C510 C 0.71486 0.85858 0.15907 0.0
C511 C 0.73173 0.83853 0.16584 0.0
C512 C 0.75733 0.84383 0.17207 0.0
C513 C 0.76631 0.86913 0.17174 0.0
C514 C 0.74972 0.88919 0.16511 0.0
C515 C 0.72413 0.88399 0.15873 0.0
H516 H 0.78613 0.87318 0.17664 0.0
H517 H 0.53828 0.82218 0.11181 0.0
H518 H 0.71527 0.37488 0.83986 0.0
H519 H 0.75472 0.37066 0.81529 0.0
H520 H 0.79122 0.33242 0.87903 0.0
H521 H 0.75118 0.33595 0.90397 0.0
H522 H 0.82124 0.37502 0.84556 0.0
H523 H 0.77713 0.29449 0.84454 0.0
H524 H 0.74021 0.26508 0.84091 0.0
H525 H 0.72796 0.28938 0.7631 0.0
H526 H 0.76378 0.32004 0.76675 0.0
H527 H 0.91478 0.32682 0.75307 0.0
H528 H 0.88609 0.3309 0.79011 0.0
H529 H 0.82451 0.35482 0.74 0.0
H530 H 0.85301 0.35096 0.70291 0.0
H531 H 0.81208 0.31378 0.773 0.0
H532 H 0.85239 0.39777 0.77629 0.0
H533 H 0.88961 0.42698 0.77912 0.0
H534 H 0.91064 0.39397 0.85171 0.0
H535 H 0.87373 0.36428 0.84912 0.0
C536 C 0.73171 0.3659 0.84898 0.0
C537 C 0.72996 0.35546 0.87382 0.0
C538 C 0.75426 0.36355 0.83485 0.0
C539 C 0.77564 0.35104 0.84532 0.0
C540 C 0.77476 0.34211 0.87071 0.0
C541 C 0.75192 0.3441 0.88486 0.0
C542 C 0.79772 0.34556 0.82845 0.0
C543 C 0.81962 0.3612 0.83003 0.0
C544 C 0.79524 0.32776 0.80807 0.0
C545 C 0.77296 0.30995 0.8061 0.0
C546 C 0.76616 0.29408 0.82687 0.0
C547 C 0.74539 0.27715 0.82481 0.0
C548 C 0.73153 0.27555 0.80189 0.0
C549 C 0.73841 0.2909 0.78099 0.0
C550 C 0.7589 0.30813 0.78308 0.0
C551 C 0.89518 0.33317 0.74996 0.0
C552 C 0.88609 0.33846 0.72505 0.0
C553 C 0.87889 0.33556 0.77115 0.0
C554 C 0.85326 0.34312 0.76771 0.0
C555 C 0.84428 0.3489 0.74297 0.0
C556 C 0.86059 0.34677 0.72182 0.0
C557 C 0.83522 0.34377 0.78959 0.0
C558 C 0.81402 0.3272 0.78885 0.0
C559 C 0.83846 0.36059 0.8107 0.0
C560 C 0.86049 0.37858 0.81236 0.0
C561 C 0.86509 0.39658 0.79274 0.0
C562 C 0.8861 0.41325 0.79433 0.0
C563 C 0.90254 0.41227 0.81553 0.0
C564 C 0.89793 0.39467 0.83526 0.0
C565 C 0.87696 0.37792 0.83375 0.0
H566 H 0.91881 0.42518 0.81671 0.0
H567 H 0.71559 0.26227 0.80026 0.0
H568 H 0.31654 0.91602 0.75511 0.0
H569 H 0.31243 0.88783 0.79268 0.0
H570 H 0.37868 0.84467 0.76763 0.0
H571 H 0.38288 0.8725 0.73028 0.0
H572 H 0.33278 0.81613 0.77173 0.0
H573 H 0.38241 0.87864 0.82064 0.0
H574 H 0.39043 0.92175 0.83863 0.0
H575 H 0.31868 0.91864 0.87926 0.0
H576 H 0.31007 0.87562 0.86122 0.0
H577 H 0.35835 0.72223 0.86318 0.0
H578 H 0.36103 0.75945 0.83488 0.0
H579 H 0.30074 0.79698 0.87773 0.0
H580 H 0.29832 0.75996 0.9066 0.0
H581 H 0.33743 0.83059 0.86577 0.0
H582 H 0.28714 0.76973 0.81986 0.0
H583 H 0.27512 0.72791 0.80102 0.0
H584 H 0.34274 0.72928 0.75378 0.0
H585 H 0.3553 0.77098 0.77253 0.0
C586 C 0.33069 0.90103 0.7581 0.0
C587 C 0.3498 0.89617 0.73963 0.0
C588 C 0.32829 0.88495 0.77951 0.0
C589 C 0.34511 0.86408 0.78266 0.0
C590 C 0.36543 0.86059 0.76536 0.0
C591 C 0.36778 0.87651 0.74405 0.0
C592 C 0.33982 0.84379 0.8017 0.0
C593 C 0.3341 0.81919 0.79231 0.0
C594 C 0.34018 0.84824 0.82845 0.0
C595 C 0.34546 0.87404 0.83935 0.0
C596 C 0.36823 0.88724 0.83321 0.0
C597 C 0.37291 0.91164 0.84347 0.0
C598 C 0.35504 0.92297 0.86002 0.0
C599 C 0.33249 0.90987 0.86641 0.0
C600 C 0.32771 0.88547 0.8562 0.0
C601 C 0.34568 0.7384 0.86664 0.0
C602 C 0.32799 0.73807 0.887 0.0
C603 C 0.34717 0.75963 0.8504 0.0
C604 C 0.33075 0.78077 0.85393 0.0
C605 C 0.3135 0.78081 0.87462 0.0
C606 C 0.31213 0.75962 0.89104 0.0
C607 C 0.33157 0.8026 0.83574 0.0
C608 C 0.33606 0.82751 0.84521 0.0
C609 C 0.32961 0.79861 0.80895 0.0
C610 C 0.32227 0.77338 0.79779 0.0
C611 C 0.29956 0.761 0.80562 0.0
C612 C 0.29262 0.73735 0.79491 0.0
C613 C 0.3082 0.72591 0.77627 0.0
C614 C 0.33071 0.73814 0.76825 0.0
C615 C 0.33773 0.76181 0.77888 0.0
H616 H 0.30278 0.7076 0.768 0.0
H617 H 0.3587 0.94186 0.86793 0.0
H618 H 0.71575 0.6555 0.12344 0.0
H619 H 0.74942 0.64715 0.15543 0.0
H620 H 0.69142 0.63501 0.21329 0.0
H621 H 0.65782 0.64312 0.18167 0.0
H622 H 0.73058 0.6684 0.22881 0.0
H623 H 0.72095 0.58487 0.18892 0.0
H624 H 0.72025 0.55477 0.15234 0.0
H625 H 0.79857 0.57387 0.13463 0.0
H626 H 0.79961 0.60438 0.17092 0.0
H627 H 0.80259 0.61579 0.33025 0.0
H628 H 0.77094 0.61802 0.29544 0.0
H629 H 0.83204 0.62808 0.2404 0.0
H630 H 0.86373 0.62596 0.27499 0.0
H631 H 0.7928 0.59626 0.2223 0.0
H632 H 0.80391 0.67897 0.26022 0.0
H633 H 0.80648 0.71032 0.29567 0.0
H634 H 0.72772 0.69526 0.31516 0.0
H635 H 0.72482 0.66343 0.28011 0.0
C636 C 0.7102 0.65094 0.14295 0.0
C637 C 0.68412 0.64994 0.15 0.0
C638 C 0.72943 0.64613 0.16116 0.0
C639 C 0.72284 0.64042 0.18667 0.0
C640 C 0.69687 0.63942 0.19371 0.0
C641 C 0.6777 0.64396 0.17554 0.0
C642 C 0.74288 0.63585 0.20633 0.0
C643 C 0.74399 0.65245 0.22755 0.0
C644 C 0.76084 0.61552 0.20421 0.0
C645 C 0.76026 0.59712 0.18246 0.0
C646 C 0.73794 0.58283 0.17709 0.0
C647 C 0.7375 0.56565 0.15644 0.0
C648 C 0.75933 0.56247 0.14112 0.0
C649 C 0.78166 0.57639 0.14648 0.0
C650 C 0.78219 0.59361 0.1671 0.0
C651 C 0.80929 0.61795 0.31068 0.0
C652 C 0.83559 0.62096 0.30535 0.0
C653 C 0.79122 0.61933 0.29086 0.0
C654 C 0.79921 0.62354 0.26545 0.0
C655 C 0.82552 0.62489 0.2599 0.0
C656 C 0.84356 0.62379 0.2797 0.0
C657 C 0.78012 0.62851 0.24498 0.0
C658 C 0.77933 0.61215 0.22357 0.0
C659 C 0.76267 0.6493 0.24671 0.0
C660 C 0.76423 0.66858 0.26771 0.0
C661 C 0.7872 0.68215 0.27221 0.0
C662 C 0.78872 0.70004 0.29221 0.0
C663 C 0.7673 0.70473 0.3077 0.0
C664 C 0.74431 0.69157 0.30317 0.0
C665 C 0.74272 0.6736 0.28324 0.0
H666 H 0.76851 0.71859 0.32316 0.0
H667 H 0.75895 0.54916 0.12514 0.0
H668 H 0.67505 0.13008 0.71544 0.0
H669 H 0.66593 0.16321 0.74747 0.0
H670 H 0.61926 0.20403 0.69235 0.0
H671 H 0.6289 0.1714 0.66006 0.0
H672 H 0.6506 0.23584 0.71469 0.0
H673 H 0.59239 0.1716 0.74395 0.0
H674 H 0.57862 0.12835 0.75753 0.0
H675 H 0.63095 0.13128 0.82126 0.0
H676 H 0.64533 0.1744 0.80786 0.0
H677 H 0.61265 0.3283 0.80846 0.0
H678 H 0.60927 0.29355 0.77683 0.0
H679 H 0.66077 0.247 0.82225 0.0
H680 H 0.66381 0.28119 0.85404 0.0
H681 H 0.62147 0.21872 0.80371 0.0
H682 H 0.68051 0.2829 0.77196 0.0
H683 H 0.69332 0.32625 0.75774 0.0
H684 H 0.6371 0.32339 0.6974 0.0
H685 H 0.62364 0.28021 0.71161 0.0
C686 C 0.6626 0.14595 0.71025 0.0
C687 C 0.65274 0.14818 0.68523 0.0
C688 C 0.6573 0.16483 0.72861 0.0
C689 C 0.64169 0.18599 0.72238 0.0
C690 C 0.63137 0.18789 0.69757 0.0
C691 C 0.63688 0.16921 0.67915 0.0
C692 C 0.63742 0.20694 0.74123 0.0
C693 C 0.64372 0.23215 0.734 0.0
C694 C 0.62879 0.20208 0.76653 0.0
C695 C 0.62009 0.17618 0.77477 0.0
C696 C 0.6011 0.16296 0.76076 0.0
C697 C 0.59316 0.13847 0.76844 0.0
C698 C 0.60394 0.12706 0.79021 0.0
C699 C 0.62263 0.14014 0.80439 0.0
C700 C 0.63066 0.16462 0.79677 0.0
C701 C 0.62312 0.3106 0.81174 0.0
C702 C 0.63859 0.30755 0.83368 0.0
C703 C 0.62116 0.29077 0.79369 0.0
C704 C 0.63492 0.26778 0.79714 0.0
C705 C 0.64989 0.26453 0.81929 0.0
C706 C 0.6517 0.28418 0.83738 0.0
C707 C 0.63496 0.24746 0.7772 0.0
C708 C 0.62794 0.22238 0.78425 0.0
C709 C 0.64271 0.25248 0.75165 0.0
C710 C 0.65092 0.27841 0.74303 0.0
C711 C 0.67079 0.29158 0.75577 0.0
C712 C 0.67816 0.31612 0.74771 0.0
C713 C 0.66601 0.32758 0.7267 0.0
C714 C 0.64647 0.31451 0.7137 0.0
C715 C 0.63896 0.29001 0.72177 0.0
H716 H 0.67176 0.34657 0.72046 0.0
H717 H 0.59777 0.1081 0.79612 0.0
H718 H 0.26494 0.32611 0.09177 0.0
H719 H 0.2288 0.32622 0.12224 0.0
H720 H 0.2787 0.35604 0.18129 0.0
H721 H 0.31449 0.35648 0.15125 0.0
H722 H 0.24924 0.31012 0.19446 0.0
H723 H 0.24019 0.39554 0.1572 0.0
H724 H 0.23415 0.42568 0.12117 0.0
H725 H 0.16273 0.38904 0.10187 0.0
H726 H 0.16856 0.35841 0.1376 0.0
H727 H 0.17276 0.34969 0.2981 0.0
H728 H 0.20306 0.34965 0.26219 0.0
H729 H 0.14118 0.33236 0.20976 0.0
H730 H 0.11075 0.33248 0.24544 0.0
H731 H 0.17365 0.36825 0.19006 0.0
H732 H 0.17901 0.28555 0.22754 0.0
H733 H 0.18343 0.25335 0.26198 0.0
H734 H 0.25952 0.2807 0.2785 0.0
H735 H 0.2554 0.31346 0.24446 0.0
C736 C 0.26807 0.33294 0.11117 0.0
C737 C 0.29255 0.34129 0.11908 0.0
C738 C 0.24748 0.33296 0.12849 0.0
C739 C 0.25126 0.34102 0.15395 0.0
C740 C 0.27552 0.34966 0.16173 0.0
C741 C 0.29589 0.35001 0.14444 0.0
C742 C 0.23029 0.33999 0.17297 0.0
C743 C 0.23278 0.32292 0.19366 0.0
C744 C 0.20847 0.35607 0.17127 0.0
C745 C 0.20498 0.37449 0.14984 0.0
C746 C 0.22334 0.39374 0.1451 0.0
C747 C 0.21992 0.41095 0.12478 0.0
C748 C 0.19812 0.40922 0.10918 0.0
C749 C 0.17964 0.39032 0.11393 0.0
C750 C 0.18299 0.37304 0.13422 0.0
C751 C 0.16556 0.34613 0.27891 0.0
C752 C 0.13941 0.34092 0.27464 0.0
C753 C 0.18289 0.34598 0.25844 0.0
C754 C 0.17435 0.34065 0.23341 0.0
C755 C 0.14813 0.33642 0.22895 0.0
C756 C 0.13082 0.33643 0.2494 0.0
C757 C 0.19294 0.33887 0.21202 0.0
C758 C 0.18998 0.35528 0.19084 0.0
C759 C 0.21413 0.32182 0.21304 0.0
C760 C 0.21677 0.30218 0.2336 0.0
C761 C 0.1966 0.2849 0.23867 0.0
C762 C 0.19906 0.26652 0.25809 0.0
C763 C 0.2217 0.26506 0.27245 0.0
C764 C 0.24197 0.28192 0.26738 0.0
C765 C 0.23958 0.3004 0.24802 0.0
H766 H 0.22354 0.25084 0.28746 0.0
H767 H 0.1955 0.42257 0.09346 0.0
H768 H 0.92561 0.33642 0.57574 0.0
H769 H 0.94604 0.3376 0.53335 0.0
H770 H 0.01759 0.3124 0.56685 0.0
H771 H 0.99739 0.31095 0.60915 0.0
H772 H 0.02209 0.35556 0.53391 0.0
H773 H 0.98412 0.27064 0.53481 0.0
H774 H 0.94829 0.23996 0.53945 0.0
H775 H 0.908 0.27686 0.47761 0.0
H776 H 0.94345 0.308 0.47284 0.0
H777 H 0.09368 0.3281 0.42188 0.0
H778 H 0.07229 0.32665 0.46365 0.0
H779 H 0.99846 0.33323 0.42618 0.0
H780 H 0.01974 0.3332 0.3844 0.0
H781 H 0.99409 0.30031 0.46145 0.0
H782 H 0.02975 0.38505 0.45936 0.0
H783 H 0.06346 0.41801 0.45452 0.0
H784 H 0.10525 0.38531 0.51771 0.0
H785 H 0.07194 0.35194 0.52272 0.0
C786 C 0.94567 0.33104 0.57405 0.0
C787 C 0.95988 0.32355 0.59577 0.0
C788 C 0.95727 0.33168 0.54985 0.0
C789 C 0.98327 0.32502 0.54705 0.0
C790 C 0.9975 0.31762 0.56868 0.0
C791 C 0.98587 0.31669 0.59279 0.0
C792 C 0.99585 0.32605 0.52163 0.0
C793 C 0.01622 0.34332 0.51808 0.0
C794 C 0.98755 0.31063 0.50089 0.0
C795 C 0.96632 0.2918 0.50365 0.0
C796 C 0.96752 0.27234 0.52234 0.0
C797 C 0.9473 0.25485 0.52497 0.0
C798 C 0.92585 0.2565 0.50888 0.0
C799 C 0.92461 0.27562 0.49008 0.0
C800 C 0.94477 0.29318 0.4874 0.0
C801 C 0.0729 0.32929 0.42263 0.0
C802 C 0.05835 0.3308 0.39996 0.0
C803 C 0.06067 0.32861 0.44651 0.0
C804 C 0.03373 0.33031 0.44818 0.0
C805 C 0.01924 0.33187 0.42547 0.0
C806 C 0.03142 0.33191 0.40159 0.0
C807 C 0.02055 0.32991 0.47351 0.0
C808 C 1.00002 0.31272 0.47712 0.0
C809 C 0.02841 0.34579 0.4942 0.0
C810 C 0.04847 0.36585 0.49125 0.0
C811 C 0.04622 0.38477 0.4721 0.0
C812 C 0.06524 0.40355 0.46935 0.0
C813 C 0.08652 0.40371 0.48576 0.0
C814 C 0.08878 0.38514 0.505 0.0
C815 C 0.06983 0.3663 0.50782 0.0
H816 H 0.10122 0.41826 0.48359 0.0
H817 H 0.91022 0.24294 0.51094 0.0
H818 H 0.31795 0.03094 0.40582 0.0
H819 H 0.3109 0.01188 0.44801 0.0
H820 H 0.31961 0.08649 0.48332 0.0
H821 H 0.32777 0.10547 0.4412 0.0
H822 H 0.34658 0.05406 0.5083 0.0
H823 H 0.2598 0.05411 0.47949 0.0
H824 H 0.22356 0.0464 0.44994 0.0
H825 H 0.23769 0.96513 0.45312 0.0
H826 H 0.27426 0.97235 0.48241 0.0
H827 H 0.31584 0.99975 0.63022 0.0
H828 H 0.30848 0.0254 0.59138 0.0
H829 H 0.31973 0.95787 0.54462 0.0
H830 H 0.32744 0.93223 0.58317 0.0
H831 H 0.27787 0.99112 0.52855 0.0
H832 H 0.36845 0.99345 0.5526 0.0
H833 H 0.40401 0.00177 0.58284 0.0
H834 H 0.38052 0.08068 0.58929 0.0
H835 H 0.34455 0.07269 0.55937 0.0
C836 C 0.31808 0.04332 0.42255 0.0
C837 C 0.32349 0.06966 0.42024 0.0
C838 C 0.31386 0.03244 0.44667 0.0
C839 C 0.31434 0.0478 0.46887 0.0
C840 C 0.31913 0.07425 0.46649 0.0
C841 C 0.32378 0.08507 0.44242 0.0
C842 C 0.31184 0.03591 0.49464 0.0
C843 C 0.33116 0.04079 0.51286 0.0
C844 C 0.29196 0.01828 0.5006 0.0
C845 C 0.2699 0.01381 0.48304 0.0
C846 C 0.2553 0.0346 0.47376 0.0
C847 C 0.23467 0.03031 0.45707 0.0
C848 C 0.22835 0.00529 0.44962 0.0
C849 C 0.24261 0.9845 0.4589 0.0
C850 C 0.26327 0.98868 0.47558 0.0
C851 C 0.31635 0.99033 0.61167 0.0
C852 C 0.32245 0.96408 0.60965 0.0
C853 C 0.31216 0.00497 0.58957 0.0
C854 C 0.31367 0.99346 0.56525 0.0
C855 C 0.31842 0.96702 0.56327 0.0
C856 C 0.32299 0.95247 0.58528 0.0
C857 C 0.31268 0.00918 0.54169 0.0
C858 C 0.29284 0.00489 0.52398 0.0
C859 C 0.33189 0.02755 0.53624 0.0
C860 C 0.35364 0.0324 0.55402 0.0
C861 C 0.37074 0.01251 0.56065 0.0
C862 C 0.39098 0.01718 0.5777 0.0
C863 C 0.39447 0.04172 0.58805 0.0
C864 C 0.37776 0.06166 0.5813 0.0
C865 C 0.35745 0.05708 0.5643 0.0
H866 H 0.41016 0.0453 0.60124 0.0
H867 H 0.21238 0.00202 0.4367 0.0
H868 H 0.00132 0.66231 0.63303 0.0
H869 H 0.9743 0.66061 0.59444 0.0
H870 H 0.04194 0.65163 0.54746 0.0
H871 H 0.06904 0.65271 0.58593 0.0
H872 H 0.00286 0.68963 0.52982 0.0
H873 H 0.01263 0.60109 0.55814 0.0
H874 H 0.00984 0.56638 0.59024 0.0
H875 H 0.92876 0.57986 0.59821 0.0
H876 H 0.93117 0.61495 0.56642 0.0
H877 H 0.9581 0.64671 0.41061 0.0
H878 H 0.98043 0.65193 0.4514 0.0
H879 H 0.9098 0.63683 0.49212 0.0
H880 H 0.88745 0.6306 0.45113 0.0
H881 H 0.94721 0.61349 0.51534 0.0
H882 H 0.935 0.699 0.48575 0.0
H883 H 0.93601 0.73524 0.45529 0.0
H884 H 0.01836 0.73039 0.45171 0.0
H885 H 0.01783 0.69386 0.48188 0.0
C886 C 0.01044 0.66019 0.61446 0.0
C887 C 0.03728 0.65756 0.61248 0.0
C888 C 0.99499 0.65916 0.59249 0.0
C889 C 0.00618 0.65593 0.5682 0.0
C890 C 0.033 0.65416 0.56608 0.0
C891 C 0.04841 0.65469 0.58805 0.0
C892 C 0.98994 0.65345 0.545 0.0
C893 C 0.99082 0.67293 0.52647 0.0
C894 C 0.97363 0.63206 0.54121 0.0
C895 C 0.97214 0.61083 0.56014 0.0
C896 C 0.99426 0.59681 0.56692 0.0
C897 C 0.99274 0.57704 0.58502 0.0
C898 C 0.96915 0.57097 0.59632 0.0
C899 C 0.94703 0.58462 0.58948 0.0
C900 C 0.94846 0.60444 0.57141 0.0
C901 C 0.94727 0.64449 0.42823 0.0
C902 C 0.92095 0.6384 0.42764 0.0
C903 C 0.96005 0.64764 0.45158 0.0
C904 C 0.9467 0.64538 0.47489 0.0
C905 C 0.92049 0.63882 0.4744 0.0
C906 C 0.90773 0.63528 0.45097 0.0
C907 C 0.96033 0.64954 0.49967 0.0
C908 C 0.95899 0.63038 0.51862 0.0
C909 C 0.97591 0.67149 0.50403 0.0
C910 C 0.97635 0.69354 0.48594 0.0
C911 C 0.95332 0.70554 0.47834 0.0
C912 C 0.9538 0.72616 0.46114 0.0
C913 C 0.97723 0.73508 0.45153 0.0
C914 C 0.00022 0.72344 0.45915 0.0
C915 C 0.99984 0.7028 0.47633 0.0
H916 H 0.97757 0.75104 0.43822 0.0
H917 H 0.96801 0.55566 0.61033 0.0
H918 H 0.69404 0.03188 0.57658 0.0
H919 H 0.69852 0.01337 0.5337 0.0
H920 H 0.68564 0.08809 0.50004 0.0
H921 H 0.68036 0.10656 0.54282 0.0
H922 H 0.65757 0.05424 0.47659 0.0
H923 H 0.74605 0.05884 0.50025 0.0
H924 H 0.78421 0.05236 0.5276 0.0
H925 H 0.77425 0.97056 0.52294 0.0
H926 H 0.73579 0.97654 0.49584 0.0
H927 H 0.68809 0.00893 0.35053 0.0
H928 H 0.69339 0.03275 0.3909 0.0
H929 H 0.68964 0.96169 0.43334 0.0
H930 H 0.68398 0.93786 0.39331 0.0
H931 H 0.72913 0.99692 0.45013 0.0
H932 H 0.63812 0.99362 0.43002 0.0
H933 H 0.60038 0.00052 0.40217 0.0
H934 H 0.61649 0.08144 0.3997 0.0
H935 H 0.65461 0.07493 0.42722 0.0
C936 C 0.69239 0.0444 0.56005 0.0
C937 C 0.68679 0.07065 0.56307 0.0
C938 C 0.6951 0.03383 0.53554 0.0
C939 C 0.69272 0.04941 0.51364 0.0
C940 C 0.68755 0.07571 0.51666 0.0
C941 C 0.68456 0.08623 0.54112 0.0
C942 C 0.69414 0.038 0.48758 0.0
C943 C 0.67351 0.04215 0.47067 0.0
C944 C 0.71471 0.02186 0.47994 0.0
C945 C 0.7379 0.01816 0.49617 0.0
C946 C 0.75188 0.03947 0.50521 0.0
C947 C 0.77359 0.03588 0.52064 0.0
C948 C 0.78162 0.01107 0.52705 0.0
C949 C 0.76799 0.98977 0.51798 0.0
C950 C 0.74625 0.99325 0.50255 0.0
C951 C 0.68867 0.99841 0.36846 0.0
C952 C 0.68542 0.9716 0.36884 0.0
C953 C 0.69167 0.012 0.39143 0.0
C954 C 0.69182 0.9989 0.41499 0.0
C955 C 0.68963 0.97207 0.41531 0.0
C956 C 0.68623 0.95854 0.39245 0.0
C957 C 0.69257 0.01314 0.4395 0.0
C958 C 0.71349 0.0094 0.45606 0.0
C959 C 0.67239 0.0298 0.44679 0.0
C960 C 0.64939 0.03375 0.4304 0.0
C961 C 0.63376 0.01285 0.42334 0.0
C962 C 0.61227 0.01669 0.40765 0.0
C963 C 0.60608 0.04139 0.3991 0.0
C964 C 0.62134 0.06231 0.40629 0.0
C965 C 0.64288 0.05855 0.42193 0.0
H966 H 0.58944 0.04433 0.38696 0.0
H967 H 0.79843 0.00833 0.53901 0.0
H968 H 0.41802 0.06583 0.34741 0.0
H969 H 0.45747 0.04107 0.34197 0.0
H970 H 0.41404 0.97816 0.30999 0.0
H971 H 0.37416 0.00303 0.31511 0.0
H972 H 0.45302 0.96456 0.34897 0.0
H973 H 0.44433 0.0113 0.26962 0.0
H974 H 0.43699 0.05025 0.24366 0.0
H975 H 0.50348 0.08573 0.27736 0.0
H976 H 0.51099 0.04713 0.30382 0.0
H977 H 0.56933 0.90077 0.31306 0.0
H978 H 0.52573 0.91867 0.3134 0.0
H979 H 0.55722 0.99487 0.32311 0.0
H980 H 0.60062 0.9772 0.32116 0.0
H981 H 0.52107 0.99835 0.29148 0.0
H982 H 0.52815 0.95643 0.3738 0.0
H983 H 0.53563 0.9201 0.4033 0.0
H984 H 0.47347 0.87845 0.36844 0.0
H985 H 0.46581 0.91443 0.33852 0.0
C986 C 0.41673 0.04669 0.3393 0.0
C987 C 0.39292 0.03643 0.33162 0.0
C988 C 0.43934 0.0326 0.33617 0.0
C989 C 0.43864 0.00789 0.32544 0.0
C990 C 0.41491 0.99724 0.31828 0.0
C991 C 0.39221 0.0115 0.32113 0.0
C992 C 0.46297 0.99364 0.32139 0.0
C993 C 0.4678 0.97158 0.33607 0.0
C994 C 0.48236 0.0033 0.30504 0.0
C995 C 0.47812 0.02638 0.28883 0.0
C996 C 0.45729 0.02747 0.27162 0.0
C997 C 0.45311 0.04948 0.2568 0.0
C998 C 0.46973 0.07047 0.25889 0.0
C999 C 0.49061 0.06947 0.27576 0.0
C1000 C 0.49486 0.04751 0.29065 0.0
C1001 C 0.56684 0.92133 0.31524 0.0
C1002 C 0.58831 0.93761 0.31705 0.0
C1003 C 0.54192 0.93155 0.3156 0.0
C1004 C 0.53802 0.95815 0.31868 0.0
C1005 C 0.55958 0.97433 0.32059 0.0
C1006 C 0.58442 0.96421 0.31954 0.0
C1007 C 0.51168 0.96943 0.31963 0.0
C1008 C 0.50635 0.991 0.30426 0.0
C1009 C 0.49204 0.9596 0.33577 0.0
C1010 C 0.4966 0.93798 0.35374 0.0
C1011 C 0.5162 0.93944 0.37231 0.0
C1012 C 0.52045 0.91893 0.38912 0.0
C1013 C 0.50509 0.89695 0.38769 0.0
C1014 C 0.48539 0.89546 0.36949 0.0
C1015 C 0.48107 0.91591 0.35262 0.0
H1016 H 0.50841 0.88109 0.40072 0.0
H1017 H 0.46645 0.0875 0.24741 0.0
H1018 H 0.11624 0.55266 0.67179 0.0
H1019 H 0.10282 0.50862 0.68099 0.0
H1020 H 0.02526 0.53503 0.69428 0.0
H1021 H 0.03877 0.57923 0.68602 0.0
H1022 H 0.03705 0.50059 0.72862 0.0
H1023 H 0.04457 0.50612 0.63669 0.0
H1024 H 0.06643 0.51468 0.59558 0.0
H1025 H 0.12341 0.45761 0.61342 0.0
H1026 H 0.10204 0.44894 0.65482 0.0
H1027 H 0.95854 0.39644 0.69545 0.0
H1028 H 0.98311 0.43595 0.69986 0.0
H1029 H 0.05374 0.39238 0.69998 0.0
H1030 H 0.02895 0.35228 0.69555 0.0
H1031 H 0.05227 0.43234 0.66378 0.0
H1032 H 0.03672 0.42244 0.75369 0.0
H1033 H 0.01017 0.41375 0.79191 0.0
H1034 H 0.96321 0.4795 0.77491 0.0
H1035 H 0.98925 0.4884 0.73638 0.0
C1036 C 0.09632 0.54908 0.67668 0.0
C1037 C 0.07851 0.56939 0.67802 0.0
C1038 C 0.08867 0.52388 0.6819 0.0
C1039 C 0.06295 0.51843 0.68801 0.0
C1040 C 0.04522 0.53875 0.68967 0.0
C1041 C 0.05294 0.564 0.68482 0.0
C1042 C 0.05425 0.49155 0.69207 0.0
C1043 C 0.04031 0.48569 0.7144 0.0
C1044 C 0.05902 0.47191 0.67383 0.0
C1045 C 0.07191 0.47712 0.64898 0.0
C1046 C 0.06189 0.49555 0.63194 0.0
C1047 C 0.07416 0.5004 0.60857 0.0
C1048 C 0.09635 0.48677 0.60193 0.0
C1049 C 0.10626 0.4682 0.61862 0.0
C1050 C 0.09407 0.4633 0.64203 0.0
C1051 C 0.97929 0.39516 0.6968 0.0
C1052 C 0.99188 0.37132 0.69502 0.0
C1053 C 0.9933 0.41777 0.6995 0.0
C1054 C 0.02021 0.41708 0.70044 0.0
C1055 C 0.03293 0.39324 0.69944 0.0
C1056 C 0.01881 0.37042 0.69702 0.0
C1057 C 0.03464 0.44159 0.70001 0.0
C1058 C 0.04959 0.44707 0.67831 0.0
C1059 C 0.03031 0.46099 0.71856 0.0
C1060 C 0.01493 0.45603 0.74207 0.0
C1061 C 0.02067 0.43499 0.75803 0.0
C1062 C 0.00571 0.43003 0.77976 0.0
C1063 C 0.985 0.44604 0.78582 0.0
C1064 C 0.97927 0.46712 0.7702 0.0
C1065 C 0.99416 0.47216 0.74845 0.0
H1066 H 0.9734 0.44214 0.80262 0.0
H1067 H 0.10582 0.49053 0.58382 0.0
H1068 H 0.59444 0.07307 0.64413 0.0
H1069 H 0.55417 0.04915 0.64794 0.0
H1070 H 0.59654 0.98041 0.66674 0.0
H1071 H 0.63707 0.00437 0.66343 0.0
H1072 H 0.55695 0.97594 0.62615 0.0
H1073 H 0.56837 0.00578 0.71303 0.0
H1074 H 0.57667 0.03874 0.74605 0.0
H1075 H 0.50924 0.08013 0.72237 0.0
H1076 H 0.50075 0.0476 0.68893 0.0
H1077 H 0.44649 0.9021 0.6554 0.0
H1078 H 0.48879 0.9225 0.65656 0.0
H1079 H 0.45266 0.99712 0.6613 0.0
H1080 H 0.41037 0.97666 0.66147 0.0
H1081 H 0.49103 0.99693 0.69175 0.0
H1082 H 0.48014 0.97154 0.60392 0.0
H1083 H 0.47146 0.94179 0.56806 0.0
H1084 H 0.53659 0.89588 0.58977 0.0
H1085 H 0.54547 0.92519 0.62598 0.0
C1086 C 0.59522 0.05287 0.64913 0.0
C1087 C 0.6189 0.04057 0.65348 0.0
C1088 C 0.5722 0.03928 0.65137 0.0
C1089 C 0.57247 0.0131 0.65769 0.0
C1090 C 0.59604 0.00065 0.66188 0.0
C1091 C 0.6191 0.01436 0.66007 0.0
C1092 C 0.548 0.99875 0.65943 0.0
C1093 C 0.54265 0.98013 0.64074 0.0
C1094 C 0.52918 0.00496 0.67798 0.0
C1095 C 0.53405 0.02436 0.69832 0.0
C1096 C 0.55542 0.02201 0.71473 0.0
C1097 C 0.56014 0.0406 0.73355 0.0
C1098 C 0.54354 0.06155 0.73627 0.0
C1099 C 0.52211 0.0639 0.72023 0.0
C1100 C 0.51731 0.04537 0.70136 0.0
C1101 C 0.44761 0.92286 0.65666 0.0
C1102 C 0.42516 0.93781 0.65824 0.0
C1103 C 0.4718 0.93452 0.65721 0.0
C1104 C 0.474 0.96143 0.65856 0.0
C1105 C 0.45153 0.97635 0.66027 0.0
C1106 C 0.42735 0.96465 0.66029 0.0
C1107 C 0.49965 0.97407 0.65826 0.0
C1108 C 0.50529 0.99248 0.67721 0.0
C1109 C 0.51856 0.96803 0.63959 0.0
C1110 C 0.5133 0.9504 0.61782 0.0
C1111 C 0.4925 0.95499 0.60116 0.0
C1112 C 0.48756 0.93823 0.58076 0.0
C1113 C 0.50342 0.91692 0.57669 0.0
C1114 C 0.5243 0.91237 0.59297 0.0
C1115 C 0.52931 0.92906 0.61342 0.0
H1116 H 0.49957 0.90396 0.56088 0.0
H1117 H 0.54725 0.07594 0.75083 0.0
H1118 H 0.90532 0.56124 0.32256 0.0
H1119 H 0.92551 0.52048 0.31143 0.0
H1120 H 0.00013 0.55671 0.31318 0.0
H1121 H 0.97966 0.59817 0.32321 0.0
H1122 H 0.99883 0.52181 0.27618 0.0
H1123 H 0.9768 0.5223 0.3652 0.0
H1124 H 0.94866 0.52777 0.4029 0.0
H1125 H 0.89919 0.46777 0.37521 0.0
H1126 H 0.92685 0.46219 0.33713 0.0
H1127 H 0.07095 0.40977 0.30881 0.0
H1128 H 0.04963 0.45142 0.30582 0.0
H1129 H 0.97704 0.41359 0.29258 0.0
H1130 H 0.9984 0.37154 0.29545 0.0
H1131 H 0.97667 0.44876 0.33326 0.0
H1132 H 0.00346 0.44681 0.24509 0.0
H1133 H 0.03454 0.44169 0.20973 0.0
H1134 H 0.07901 0.50471 0.23909 0.0
H1135 H 0.0484 0.50999 0.27485 0.0
C1136 C 0.92603 0.56058 0.32037 0.0
C1137 C 0.94102 0.58272 0.32413 0.0
C1138 C 0.93756 0.53726 0.31406 0.0
C1139 C 0.9644 0.53534 0.31218 0.0
C1140 C 0.97939 0.5577 0.31472 0.0
C1141 C 0.96773 0.58133 0.3205 0.0
C1142 C 0.97663 0.50973 0.30892 0.0
C1143 C 0.99419 0.50591 0.28881 0.0
C1144 C 0.97035 0.48883 0.32522 0.0
C1145 C 0.95376 0.49201 0.34819 0.0
C1146 C 0.95982 0.51039 0.36706 0.0
C1147 C 0.94397 0.5135 0.38851 0.0
C1148 C 0.92211 0.49817 0.39141 0.0
C1149 C 0.91611 0.47966 0.37291 0.0
C1150 C 0.93187 0.4765 0.35141 0.0
C1151 C 0.0505 0.41027 0.30488 0.0
C1152 C 0.03629 0.38738 0.30253 0.0
C1153 C 0.03839 0.43411 0.30301 0.0
C1154 C 0.01181 0.43558 0.29886 0.0
C1155 C 0.99763 0.41281 0.29569 0.0
C1156 C 0.00983 0.38885 0.29725 0.0
C1157 C 0.99866 0.46079 0.30043 0.0
C1158 C 0.98106 0.46459 0.32043 0.0
C1159 C 0.00536 0.48169 0.28438 0.0
C1160 C 0.02371 0.47867 0.26278 0.0
C1161 C 0.01997 0.45945 0.24413 0.0
C1162 C 0.03749 0.45655 0.22399 0.0
C1163 C 0.05876 0.47283 0.22219 0.0
C1164 C 0.06253 0.4921 0.24051 0.0
C1165 C 0.04508 0.49508 0.2607 0.0
H1166 H 0.07231 0.47054 0.20659 0.0
H1167 H 0.90986 0.50061 0.40803 0.0
H1168 H 0.39577 0.43227 0.07439 0.0
H1169 H 0.38908 0.47339 0.05261 0.0
H1170 H 0.32316 0.44194 0.01323 0.0
H1171 H 0.33023 0.40064 0.03424 0.0
H1172 H 0.34914 0.46976 0.98134 0.0
H1173 H 0.31705 0.48177 0.06661 0.0
H1174 H 0.31867 0.48147 0.11393 0.0
H1175 H 0.38065 0.53596 0.11266 0.0
H1176 H 0.37961 0.53632 0.06529 0.0
H1177 H 0.29775 0.61122 0.98674 0.0
H1178 H 0.30432 0.56897 0.00611 0.0
H1179 H 0.36893 0.55569 0.95584 0.0
H1180 H 0.362 0.59763 0.93589 0.0
H1181 H 0.34206 0.54994 0.03249 0.0
H1182 H 0.37466 0.49204 0.94286 0.0
H1183 H 0.36714 0.49138 0.89608 0.0
H1184 H 0.29356 0.52728 0.90691 0.0
H1185 H 0.30049 0.52784 0.95375 0.0
C1186 C 0.3799 0.43411 0.06103 0.0
C1187 C 0.36346 0.41324 0.05613 0.0
C1188 C 0.37604 0.45764 0.04866 0.0
C1189 C 0.35539 0.46088 0.03155 0.0
C1190 C 0.33924 0.43992 0.02632 0.0
C1191 C 0.34326 0.41633 0.03842 0.0
C1192 C 0.3503 0.48616 0.01933 0.0
C1193 C 0.34765 0.4873 0.99252 0.0
C1194 C 0.34779 0.50899 0.03393 0.0
C1195 C 0.34842 0.50888 0.06241 0.0
C1196 C 0.33115 0.49355 0.07642 0.0
C1197 C 0.33194 0.49339 0.10325 0.0
C1198 C 0.3498 0.50864 0.11629 0.0
C1199 C 0.36685 0.52413 0.10253 0.0
C1200 C 0.36616 0.52434 0.07569 0.0
C1201 C 0.31325 0.59923 0.97969 0.0
C1202 C 0.32924 0.60767 0.95966 0.0
C1203 C 0.31705 0.57512 0.99084 0.0
C1204 C 0.33696 0.55903 0.98228 0.0
C1205 C 0.35311 0.56753 0.96243 0.0
C1206 C 0.34916 0.59154 0.95107 0.0
C1207 C 0.34107 0.53358 0.99448 0.0
C1208 C 0.34362 0.53242 0.02129 0.0
C1209 C 0.34267 0.51063 0.97994 0.0
C1210 C 0.33824 0.51023 0.95179 0.0
C1211 C 0.35685 0.49972 0.93526 0.0
C1212 C 0.35269 0.49938 0.90873 0.0
C1213 C 0.32992 0.50937 0.89852 0.0
C1214 C 0.31123 0.51965 0.91483 0.0
C1215 C 0.31528 0.52001 0.94136 0.0
H1216 H 0.32675 0.50909 0.87799 0.0
H1217 H 0.35038 0.50849 0.13706 0.0
H1218 H 0.38337 0.72451 0.96198 0.0
H1219 H 0.4236 0.72612 0.98594 0.0
H1220 H 0.38404 0.70169 0.05443 0.0
H1221 H 0.34329 0.70026 0.03038 0.0
H1222 H 0.43084 0.73848 0.06014 0.0
H1223 H 0.40376 0.65627 0.02582 0.0
H1224 H 0.3856 0.6288 0.99171 0.0
H1225 H 0.44777 0.64945 0.9416 0.0
H1226 H 0.466 0.67747 0.97526 0.0
H1227 H 0.54057 0.67458 0.11381 0.0
H1228 H 0.49711 0.68465 0.09901 0.0
H1229 H 0.52623 0.69912 0.02287 0.0
H1230 H 0.56989 0.68924 0.03753 0.0
H1231 H 0.48298 0.66701 0.02404 0.0
H1232 H 0.51069 0.74815 0.05795 0.0
H1233 H 0.52861 0.77713 0.09083 0.0
H1234 H 0.46588 0.75924 0.1413 0.0
H1235 H 0.4478 0.72975 0.10883 0.0
C1236 C 0.38305 0.72042 0.98239 0.0
C1237 C 0.36042 0.71194 0.99434 0.0
C1238 C 0.40601 0.72141 0.99603 0.0
C1239 C 0.40674 0.71364 0.02176 0.0
C1240 C 0.38371 0.70779 0.03455 0.0
C1241 C 0.36052 0.70699 0.02085 0.0
C1242 C 0.43184 0.70709 0.03322 0.0
C1243 C 0.44212 0.7226 0.05268 0.0
C1244 C 0.44658 0.68663 0.023 0.0
C1245 C 0.43612 0.66915 0.00299 0.0
C1246 C 0.41346 0.65509 0.00747 0.0
C1247 C 0.40315 0.63942 0.98822 0.0
C1248 C 0.41549 0.63743 0.96449 0.0
C1249 C 0.43821 0.65103 0.95999 0.0
C1250 C 0.44855 0.6668 0.97915 0.0
C1251 C 0.53775 0.67989 0.09389 0.0
C1252 C 0.55865 0.68109 0.0768 0.0
C1253 C 0.51294 0.68576 0.08554 0.0
C1254 C 0.50857 0.69278 0.05994 0.0
C1255 C 0.52931 0.69378 0.04274 0.0
C1256 C 0.5542 0.68818 0.05114 0.0
C1257 C 0.48224 0.69848 0.05093 0.0
C1258 C 0.47168 0.68273 0.03182 0.0
C1259 C 0.46734 0.71866 0.06157 0.0
C1260 C 0.47804 0.73651 0.08106 0.0
C1261 C 0.50083 0.7502 0.07614 0.0
C1262 C 0.511 0.76677 0.09469 0.0
C1263 C 0.49843 0.76999 0.11817 0.0
C1264 C 0.47562 0.7567 0.12312 0.0
C1265 C 0.4654 0.74006 0.10464 0.0
H1266 H 0.50633 0.78284 0.13251 0.0
H1267 H 0.40747 0.6253 0.94961 0.0
H1268 H 0.64384 0.45266 0.88873 0.0
H1269 H 0.64377 0.49303 0.91323 0.0
H1270 H 0.648 0.45021 0.98395 0.0
H1271 H 0.64875 0.4099 0.9597 0.0
H1272 H 0.60819 0.49225 0.9799 0.0
H1273 H 0.69914 0.4736 0.9685 0.0
H1274 H 0.73747 0.4639 0.94238 0.0
H1275 H 0.72733 0.53445 0.90081 0.0
H1276 H 0.68867 0.54437 0.92645 0.0
H1277 H 0.63567 0.58711 0.0721 0.0
H1278 H 0.6361 0.54822 0.0458 0.0
H1279 H 0.65807 0.59309 0.97968 0.0
H1280 H 0.65867 0.63188 0.00614 0.0
H1281 H 0.6836 0.55067 0.97911 0.0
H1282 H 0.59507 0.57158 0.98929 0.0
H1283 H 0.55525 0.58262 0.01249 0.0
H1284 H 0.55797 0.51033 0.05216 0.0
H1285 H 0.59804 0.499 0.02945 0.0
C1286 C 0.6447 0.45189 0.9095 0.0
C1287 C 0.64638 0.42819 0.92234 0.0
C1288 C 0.64471 0.4749 0.92341 0.0
C1289 C 0.64591 0.47446 0.95032 0.0
C1290 C 0.64705 0.45084 0.96318 0.0
C1291 C 0.64759 0.42789 0.9493 0.0
C1292 C 0.64628 0.49863 0.96518 0.0
C1293 C 0.62473 0.50497 0.98 0.0
C1294 C 0.66756 0.51547 0.96448 0.0
C1295 C 0.69085 0.50957 0.94917 0.0
C1296 C 0.70493 0.48691 0.95361 0.0
C1297 C 0.72675 0.4814 0.93893 0.0
C1298 C 0.73479 0.4985 0.91988 0.0
C1299 C 0.72106 0.52119 0.91553 0.0
C1300 C 0.6992 0.52678 0.93014 0.0
C1301 C 0.64068 0.58866 0.05199 0.0
C1302 C 0.64701 0.61256 0.04116 0.0
C1303 C 0.64078 0.56644 0.03692 0.0
C1304 C 0.64661 0.56778 0.01061 0.0
C1305 C 0.65344 0.59157 -0.0001 0.0
C1306 C 0.65373 0.61373 0.01505 0.0
C1307 C 0.64552 0.54439 0.99427 0.0
C1308 C 0.66694 0.53814 0.97906 0.0
C1309 C 0.62385 0.52788 0.9942 0.0
C1310 C 0.59969 0.53455 0.00784 0.0
C1311 C 0.58728 0.55811 0.0031 0.0
C1312 C 0.56465 0.56442 0.01614 0.0
C1313 C 0.55412 0.54722 0.03384 0.0
C1314 C 0.56617 0.52365 0.03847 0.0
C1315 C 0.58883 0.51727 0.0255 0.0
H1316 H 0.5366 0.55213 0.04392 0.0
H1317 H 0.75169 0.49421 0.90855 0.0
H1318 H 0.42645 0.28662 0.06729 0.0
H1319 H 0.46665 0.27614 0.04534 0.0
H1320 H 0.4367 0.30889 0.9753 0.0
H1321 H 0.39588 0.31839 0.99712 0.0
H1322 H 0.47137 0.26942 0.96578 0.0
H1323 H 0.46673 0.34683 0.01738 0.0
H1324 H 0.45816 0.37077 0.05737 0.0
H1325 H 0.51591 0.32661 0.09653 0.0
H1326 H 0.52453 0.30212 0.05682 0.0
H1327 H 0.57379 0.33558 0.90884 0.0
H1328 H 0.53478 0.32047 0.92955 0.0
H1329 H 0.57959 0.29022 0.9924 0.0
H1330 H 0.61913 0.30552 0.9717 0.0
H1331 H 0.53991 0.32054 0.00825 0.0
H1332 H 0.55004 0.24912 0.95225 0.0
H1333 H 0.55809 0.22695 0.91119 0.0
H1334 H 0.49041 0.26145 0.87885 0.0
H1335 H 0.48214 0.28416 0.91959 0.0
C1336 C 0.42818 0.29066 0.04695 0.0
C1337 C 0.40841 0.30343 0.03379 0.0
C1338 C 0.45109 0.28473 0.03447 0.0
C1339 C 0.45483 0.29232 0.00891 0.0
C1340 C 0.43418 0.30294 0.99506 0.0
C1341 C 0.41094 0.3084 0.00747 0.0
C1342 C 0.48114 0.2932 0.99817 0.0
C1343 C 0.4864 0.28059 0.97497 0.0
C1344 C 0.50083 0.3074 0.01052 0.0
C1345 C 0.49607 0.32248 0.03424 0.0
C1346 C 0.4775 0.34215 0.03456 0.0
C1347 C 0.47263 0.3558 0.05717 0.0
C1348 C 0.48643 0.35016 0.0795 0.0
C1349 C 0.5052 0.33092 0.07923 0.0
C1350 C 0.51009 0.31715 0.05669 0.0
C1351 C 0.57549 0.32558 0.927 0.0
C1352 C 0.59957 0.32189 0.93874 0.0
C1353 C 0.55313 0.3167 0.93867 0.0
C1354 C 0.55434 0.30389 0.9623 0.0
C1355 C 0.57834 0.29989 0.97402 0.0
C1356 C 0.60085 0.30866 0.96223 0.0
C1357 C 0.53019 0.29703 0.9756 0.0
C1358 C 0.5252 0.30875 0.99929 0.0
C1359 C 0.51079 0.28224 0.96352 0.0
C1360 C 0.51555 0.26846 0.93899 0.0
C1361 C 0.53696 0.25213 0.93634 0.0
C1362 C 0.54155 0.23944 0.91312 0.0
C1363 C 0.52479 0.24281 0.89242 0.0
C1364 C 0.50337 0.25885 0.89491 0.0
C1365 C 0.4987 0.2716 0.91808 0.0
H1366 H 0.52838 0.23298 0.87445 0.0
H1367 H 0.48263 0.36075 0.09699 0.0
loop_
_geom_bond_atom_site_label_1
_geom_bond_atom_site_label_2
_geom_bond_distance
_geom_bond_site_symmetry_2
_ccdc_geom_bond_type
C0 O2 1.247 . S
C0 O4 1.258 . S
C1 O8 1.247 . S
C1 O9 1.258 . S
O2 C0 1.247 . S
O2 Zn3 2.028 . S
Zn3 O2 2.028 . S
Zn3 O7 2.035 . S
Zn3 O9 2.035 . S
Zn3 O10 2.028 . S
O4 C0 1.258 . S
O4 Zn5 2.035 . S
Zn5 O4 2.035 . S
Zn5 O6 2.028 . S
Zn5 O8 2.028 . S
Zn5 O11 2.035 . S
O6 Zn5 2.028 . S
O6 C12 1.247 . S
O7 Zn3 2.035 . S
O7 C12 1.258 . S
O8 C1 1.247 . S
O8 Zn5 2.028 . S
O9 C1 1.258 . S
O9 Zn3 2.035 . S
O10 Zn3 2.028 . S
O10 C13 1.247 . S
O11 Zn5 2.035 . S
O11 C13 1.258 . S
C12 O6 1.247 . S
C12 O7 1.258 . S
C13 O10 1.247 . S
C13 O11 1.258 . S
C14 O16 1.247 . S
C14 O18 1.258 . S
C15 O22 1.247 . S
C15 O23 1.258 . S
O16 C14 1.247 . S
O16 Zn17 2.028 . S
Zn17 O16 2.028 . S
Zn17 O21 2.035 . S
Zn17 O23 2.035 . S
Zn17 O24 2.028 . S
O18 C14 1.258 . S
O18 Zn19 2.035 . S
Zn19 O18 2.035 . S
Zn19 O20 2.028 . S
Zn19 O22 2.028 . S
Zn19 O25 2.035 . S
O20 Zn19 2.028 . S
O20 C26 1.247 . S
O21 Zn17 2.035 . S
O21 C26 1.258 . S
O22 C15 1.247 . S
O22 Zn19 2.028 . S
O23 C15 1.258 . S
O23 Zn17 2.035 . S
O24 Zn17 2.028 . S
O24 C27 1.247 . S
O25 Zn19 2.035 . S
O25 C27 1.258 . S
C26 O20 1.247 . S
C26 O21 1.258 . S
C27 O24 1.247 . S
C27 O25 1.258 . S
C28 O30 1.247 . S
C28 O32 1.258 . S
C29 O36 1.247 . S
C29 O37 1.258 . S
O30 C28 1.247 . S
O30 Zn31 2.028 . S
Zn31 O30 2.028 . S
Zn31 O35 2.035 . S
Zn31 O37 2.035 . S
Zn31 O38 2.028 . S
O32 C28 1.258 . S
O32 Zn33 2.035 . S
Zn33 O32 2.035 . S
Zn33 O34 2.028 . S
Zn33 O36 2.028 . S
Zn33 O39 2.035 . S
O34 Zn33 2.028 . S
O34 C40 1.247 . S
O35 Zn31 2.035 . S
O35 C40 1.258 . S
O36 C29 1.247 . S
O36 Zn33 2.028 . S
O37 C29 1.258 . S
O37 Zn31 2.035 . S
O38 Zn31 2.028 . S
O38 C41 1.247 . S
O39 Zn33 2.035 . S
O39 C41 1.258 . S
C40 O34 1.247 . S
C40 O35 1.258 . S
C41 O38 1.247 . S
C41 O39 1.258 . S
C42 O44 1.247 . S
C42 O46 1.258 . S
C43 O50 1.247 . S
C43 O51 1.258 . S
O44 C42 1.247 . S
O44 Zn45 2.028 . S
Zn45 O44 2.028 . S
Zn45 O49 2.035 . S
Zn45 O51 2.035 . S
Zn45 O52 2.028 . S
O46 C42 1.258 . S
O46 Zn47 2.035 . S
Zn47 O46 2.035 . S
Zn47 O48 2.028 . S
Zn47 O50 2.028 . S
Zn47 O53 2.035 . S
O48 Zn47 2.028 . S
O48 C54 1.247 . S
O49 Zn45 2.035 . S
O49 C54 1.258 . S
O50 C43 1.247 . S
O50 Zn47 2.028 . S
O51 C43 1.258 . S
O51 Zn45 2.035 . S
O52 Zn45 2.028 . S
O52 C55 1.247 . S
O53 Zn47 2.035 . S
O53 C55 1.258 . S
C54 O48 1.247 . S
C54 O49 1.258 . S
C55 O52 1.247 . S
C55 O53 1.258 . S
C56 O58 1.247 . S
C56 O60 1.258 . S
C57 O64 1.247 . S
C57 O65 1.258 . S
O58 C56 1.247 . S
O58 Zn59 2.028 . S
Zn59 O58 2.028 . S
Zn59 O63 2.035 . S
Zn59 O65 2.035 . S
Zn59 O66 2.028 . S
O60 C56 1.258 . S
O60 Zn61 2.035 . S
Zn61 O60 2.035 . S
Zn61 O62 2.028 . S
Zn61 O64 2.028 . S
Zn61 O67 2.035 . S
O62 Zn61 2.028 . S
O62 C68 1.247 . S
O63 Zn59 2.035 . S
O63 C68 1.258 . S
O64 C57 1.247 . S
O64 Zn61 2.028 . S
O65 C57 1.258 . S
O65 Zn59 2.035 . S
O66 Zn59 2.028 . S
O66 C69 1.247 . S
O67 Zn61 2.035 . S
O67 C69 1.258 . S
C68 O62 1.247 . S
C68 O63 1.258 . S
C69 O66 1.247 . S
C69 O67 1.258 . S
C70 O72 1.247 . S
C70 O74 1.258 . S
C71 O78 1.247 . S
C71 O79 1.258 . S
O72 C70 1.247 . S
O72 Zn73 2.028 . S
Zn73 O72 2.028 . S
Zn73 O77 2.035 . S
Zn73 O79 2.035 . S
Zn73 O80 2.028 . S
O74 C70 1.258 . S
O74 Zn75 2.035 . S
Zn75 O74 2.035 . S
Zn75 O76 2.028 . S
Zn75 O78 2.028 . S
Zn75 O81 2.035 . S
O76 Zn75 2.028 . S
O76 C82 1.247 . S
O77 Zn73 2.035 . S
O77 C82 1.258 . S
O78 C71 1.247 . S
O78 Zn75 2.028 . S
O79 C71 1.258 . S
O79 Zn73 2.035 . S
O80 Zn73 2.028 . S
O80 C83 1.247 . S
O81 Zn75 2.035 . S
O81 C83 1.258 . S
C82 O76 1.247 . S
C82 O77 1.258 . S
C83 O80 1.247 . S
C83 O81 1.258 . S
C84 O86 1.247 . S
C84 O88 1.258 . S
C85 O92 1.247 . S
C85 O93 1.258 . S
O86 C84 1.247 . S
O86 Zn87 2.028 . S
Zn87 O86 2.028 . S
Zn87 O91 2.035 . S
Zn87 O93 2.035 . S
Zn87 O94 2.028 . S
O88 C84 1.258 . S
O88 Zn89 2.035 . S
Zn89 O88 2.035 . S
Zn89 O90 2.028 . S
Zn89 O92 2.028 . S
Zn89 O95 2.035 . S
O90 Zn89 2.028 . S
O90 C96 1.247 . S
O91 Zn87 2.035 . S
O91 C96 1.258 . S
O92 C85 1.247 . S
O92 Zn89 2.028 . S
O93 C85 1.258 . S
O93 Zn87 2.035 . S
O94 Zn87 2.028 . S
O94 C97 1.247 . S
O95 Zn89 2.035 . S
O95 C97 1.258 . S
C96 O90 1.247 . S
C96 O91 1.258 . S
C97 O94 1.247 . S
C97 O95 1.258 . S
C98 O100 1.247 . S
C98 O102 1.258 . S
C99 O106 1.247 . S
C99 O107 1.258 . S
O100 C98 1.247 . S
O100 Zn101 2.028 . S
Zn101 O100 2.028 . S
Zn101 O105 2.035 . S
Zn101 O107 2.035 . S
Zn101 O108 2.028 . S
O102 C98 1.258 . S
O102 Zn103 2.035 . S
Zn103 O102 2.035 . S
Zn103 O104 2.028 . S
Zn103 O106 2.028 . S
Zn103 O109 2.035 . S
O104 Zn103 2.028 . S
O104 C110 1.247 . S
O105 Zn101 2.035 . S
O105 C110 1.258 . S
O106 C99 1.247 . S
O106 Zn103 2.028 . S
O107 C99 1.258 . S
O107 Zn101 2.035 . S
O108 Zn101 2.028 . S
O108 C111 1.247 . S
O109 Zn103 2.035 . S
O109 C111 1.258 . S
C110 O104 1.247 . S
C110 O105 1.258 . S
C111 O108 1.247 . S
C111 O109 1.258 . S
C112 O114 1.247 . S
C112 O116 1.258 . S
C113 O120 1.247 . S
C113 O121 1.258 . S
O114 C112 1.247 . S
O114 Zn115 2.028 . S
Zn115 O114 2.028 . S
Zn115 O119 2.035 . S
Zn115 O121 2.035 . S
Zn115 O122 2.028 . S
O116 C112 1.258 . S
O116 Zn117 2.035 . S
Zn117 O116 2.035 . S
Zn117 O118 2.028 . S
Zn117 O120 2.028 . S
Zn117 O123 2.035 . S
O118 Zn117 2.028 . S
O118 C124 1.247 . S
O119 Zn115 2.035 . S
O119 C124 1.258 . S
O120 C113 1.247 . S
O120 Zn117 2.028 . S
O121 C113 1.258 . S
O121 Zn115 2.035 . S
O122 Zn115 2.028 . S
O122 C125 1.247 . S
O123 Zn117 2.035 . S
O123 C125 1.258 . S
C124 O118 1.247 . S
C124 O119 1.258 . S
C125 O122 1.247 . S
C125 O123 1.258 . S
C126 O128 1.247 . S
C126 O130 1.258 . S
C127 O134 1.247 . S
C127 O135 1.258 . S
O128 C126 1.247 . S
O128 Zn129 2.028 . S
Zn129 O128 2.028 . S
Zn129 O133 2.035 . S
Zn129 O135 2.035 . S
Zn129 O136 2.028 . S
O130 C126 1.258 . S
O130 Zn131 2.035 . S
Zn131 O130 2.035 . S
Zn131 O132 2.028 . S
Zn131 O134 2.028 . S
Zn131 O137 2.035 . S
O132 Zn131 2.028 . S
O132 C138 1.247 . S
O133 Zn129 2.035 . S
O133 C138 1.258 . S
O134 C127 1.247 . S
O134 Zn131 2.028 . S
O135 C127 1.258 . S
O135 Zn129 2.035 . S
O136 Zn129 2.028 . S
O136 C139 1.247 . S
O137 Zn131 2.035 . S
O137 C139 1.258 . S
C138 O132 1.247 . S
C138 O133 1.258 . S
C139 O136 1.247 . S
C139 O137 1.258 . S
C140 O142 1.247 . S
C140 O144 1.258 . S
C141 O148 1.247 . S
C141 O149 1.258 . S
O142 C140 1.247 . S
O142 Zn143 2.028 . S
Zn143 O142 2.028 . S
Zn143 O147 2.035 . S
Zn143 O149 2.035 . S
Zn143 O150 2.028 . S
O144 C140 1.258 . S
O144 Zn145 2.035 . S
Zn145 O144 2.035 . S
Zn145 O146 2.028 . S
Zn145 O148 2.028 . S
Zn145 O151 2.035 . S
O146 Zn145 2.028 . S
O146 C152 1.247 . S
O147 Zn143 2.035 . S
O147 C152 1.258 . S
O148 C141 1.247 . S
O148 Zn145 2.028 . S
O149 C141 1.258 . S
O149 Zn143 2.035 . S
O150 Zn143 2.028 . S
O150 C153 1.247 . S
O151 Zn145 2.035 . S
O151 C153 1.258 . S
C152 O146 1.247 . S
C152 O147 1.258 . S
C153 O150 1.247 . S
C153 O151 1.258 . S
C154 O156 1.247 . S
C154 O158 1.258 . S
C155 O162 1.247 . S
C155 O163 1.258 . S
O156 C154 1.247 . S
O156 Zn157 2.028 . S
Zn157 O156 2.028 . S
Zn157 O161 2.035 . S
Zn157 O163 2.035 . S
Zn157 O164 2.028 . S
O158 C154 1.258 . S
O158 Zn159 2.035 . S
Zn159 O158 2.035 . S
Zn159 O160 2.028 . S
Zn159 O162 2.028 . S
Zn159 O165 2.035 . S
O160 Zn159 2.028 . S
O160 C166 1.247 . S
O161 Zn157 2.035 . S
O161 C166 1.258 . S
O162 C155 1.247 . S
O162 Zn159 2.028 . S
O163 C155 1.258 . S
O163 Zn157 2.035 . S
O164 Zn157 2.028 . S
O164 C167 1.247 . S
O165 Zn159 2.035 . S
O165 C167 1.258 . S
C166 O160 1.247 . S
C166 O161 1.258 . S
C167 O164 1.247 . S
C167 O165 1.258 . S
H168 C186 0.951 . S
H169 C188 0.951 . S
H170 C190 0.950 . S
H171 C191 0.950 . S
H172 C193 0.950 . S
H173 C196 0.950 . S
H174 C197 0.950 . S
H175 C199 0.950 . S
H176 C200 0.950 . S
H177 C201 0.951 . S
H178 C203 0.951 . S
H179 C205 0.950 . S
H180 C206 0.950 . S
H181 C208 0.950 . S
H182 C211 0.950 . S
H183 C212 0.950 . S
H184 C214 0.950 . S
H185 C215 0.950 . S
C186 H168 0.951 . S
C186 C187 1.366 . S
C186 C188 1.388 . S
C187 C186 1.366 . S
C187 C191 1.385 . S
C188 H169 0.951 . S
C188 C186 1.388 . S
C188 C189 1.366 . S
C189 C188 1.366 . S
C189 C190 1.414 . S
C189 C192 1.499 . S
C190 H170 0.950 . S
C190 C189 1.414 . S
C190 C191 1.374 . S
C191 H171 0.950 . S
C191 C187 1.385 . S
C191 C190 1.374 . S
C192 C189 1.499 . S
C192 C193 1.373 . S
C192 C194 1.389 . S
C193 H172 0.950 . S
C193 C192 1.373 . S
C193 C209 1.377 . S
C194 C192 1.389 . S
C194 C195 1.524 . S
C194 C208 1.377 . S
C195 C194 1.524 . S
C195 C196 1.397 . S
C195 C200 1.363 . S
C196 H173 0.950 . S
C196 C195 1.397 . S
C196 C197 1.334 . S
C197 H174 0.950 . S
C197 C196 1.334 . S
C197 C198 1.287 . S
C198 C197 1.287 . S
C198 C199 1.524 . S
C198 H217 0.913 . S
C199 H175 0.950 . S
C199 C198 1.524 . S
C199 C200 1.415 . S
C200 H176 0.950 . S
C200 C195 1.363 . S
C200 C199 1.415 . S
C201 H177 0.951 . S
C201 C202 1.366 . S
C201 C203 1.388 . S
C202 C201 1.366 . S
C202 C206 1.385 . S
C203 H178 0.951 . S
C203 C201 1.388 . S
C203 C204 1.366 . S
C204 C203 1.366 . S
C204 C205 1.414 . S
C204 C207 1.499 . S
C205 H179 0.950 . S
C205 C204 1.414 . S
C205 C206 1.374 . S
C206 H180 0.950 . S
C206 C202 1.385 . S
C206 C205 1.374 . S
C207 C204 1.499 . S
C207 C208 1.373 . S
C207 C209 1.389 . S
C208 H181 0.950 . S
C208 C194 1.377 . S
C208 C207 1.373 . S
C209 C193 1.377 . S
C209 C207 1.389 . S
C209 C210 1.524 . S
C210 C209 1.524 . S
C210 C211 1.397 . S
C210 C215 1.363 . S
C211 H182 0.950 . S
C211 C210 1.397 . S
C211 C212 1.334 . S
C212 H183 0.950 . S
C212 C211 1.334 . S
C212 C213 1.287 . S
C213 C212 1.287 . S
C213 C214 1.524 . S
C213 H216 0.999 . S
C214 H184 0.950 . S
C214 C213 1.524 . S
C214 C215 1.415 . S
C215 H185 0.950 . S
C215 C210 1.363 . S
C215 C214 1.415 . S
H216 C213 0.999 . S
H217 C198 0.913 . S
H218 C236 0.951 . S
H219 C238 0.951 . S
H220 C240 0.950 . S
H221 C241 0.950 . S
H222 C243 0.950 . S
H223 C246 0.950 . S
H224 C247 0.950 . S
H225 C249 0.950 . S
H226 C250 0.950 . S
H227 C251 0.951 . S
H228 C253 0.951 . S
H229 C255 0.950 . S
H230 C256 0.950 . S
H231 C258 0.950 . S
H232 C261 0.950 . S
H233 C262 0.950 . S
H234 C264 0.950 . S
H235 C265 0.950 . S
C236 H218 0.951 . S
C236 C237 1.366 . S
C236 C238 1.388 . S
C237 C236 1.366 . S
C237 C241 1.385 . S
C238 H219 0.951 . S
C238 C236 1.388 . S
C238 C239 1.366 . S
C239 C238 1.366 . S
C239 C240 1.414 . S
C239 C242 1.499 . S
C240 H220 0.950 . S
C240 C239 1.414 . S
C240 C241 1.374 . S
C241 H221 0.950 . S
C241 C237 1.385 . S
C241 C240 1.374 . S
C242 C239 1.499 . S
C242 C243 1.373 . S
C242 C244 1.389 . S
C243 H222 0.950 . S
C243 C242 1.373 . S
C243 C259 1.377 . S
C244 C242 1.389 . S
C244 C245 1.524 . S
C244 C258 1.377 . S
C245 C244 1.524 . S
C245 C246 1.397 . S
C245 C250 1.363 . S
C246 H223 0.950 . S
C246 C245 1.397 . S
C246 C247 1.334 . S
C247 H224 0.950 . S
C247 C246 1.334 . S
C247 C248 1.287 . S
C248 C247 1.287 . S
C248 C249 1.524 . S
C248 H267 0.913 . S
C249 H225 0.950 . S
C249 C248 1.524 . S
C249 C250 1.415 . S
C250 H226 0.950 . S
C250 C245 1.363 . S
C250 C249 1.415 . S
C251 H227 0.951 . S
C251 C252 1.366 . S
C251 C253 1.388 . S
C252 C251 1.366 . S
C252 C256 1.385 . S
C253 H228 0.951 . S
C253 C251 1.388 . S
C253 C254 1.366 . S
C254 C253 1.366 . S
C254 C255 1.414 . S
C254 C257 1.499 . S
C255 H229 0.950 . S
C255 C254 1.414 . S
C255 C256 1.374 . S
C256 H230 0.950 . S
C256 C252 1.385 . S
C256 C255 1.374 . S
C257 C254 1.499 . S
C257 C258 1.373 . S
C257 C259 1.389 . S
C258 H231 0.950 . S
C258 C244 1.377 . S
C258 C257 1.373 . S
C259 C243 1.377 . S
C259 C257 1.389 . S
C259 C260 1.524 . S
C260 C259 1.524 . S
C260 C261 1.397 . S
C260 C265 1.363 . S
C261 H232 0.950 . S
C261 C260 1.397 . S
C261 C262 1.334 . S
C262 H233 0.950 . S
C262 C261 1.334 . S
C262 C263 1.287 . S
C263 C262 1.287 . S
C263 C264 1.524 . S
C263 H266 0.999 . S
C264 H234 0.950 . S
C264 C263 1.524 . S
C264 C265 1.415 . S
C265 H235 0.950 . S
C265 C260 1.363 . S
C265 C264 1.415 . S
H266 C263 0.999 . S
H267 C248 0.913 . S
H268 C286 0.951 . S
H269 C288 0.951 . S
H270 C290 0.950 . S
H271 C291 0.950 . S
H272 C293 0.950 . S
H273 C296 0.950 . S
H274 C297 0.950 . S
H275 C299 0.950 . S
H276 C300 0.950 . S
H277 C301 0.951 . S
H278 C303 0.951 . S
H279 C305 0.950 . S
H280 C306 0.950 . S
H281 C308 0.950 . S
H282 C311 0.950 . S
H283 C312 0.950 . S
H284 C314 0.950 . S
H285 C315 0.950 . S
C286 H268 0.951 . S
C286 C287 1.366 . S
C286 C288 1.388 . S
C287 C286 1.366 . S
C287 C291 1.385 . S
C288 H269 0.951 . S
C288 C286 1.388 . S
C288 C289 1.366 . S
C289 C288 1.366 . S
C289 C290 1.414 . S
C289 C292 1.499 . S
C290 H270 0.950 . S
C290 C289 1.414 . S
C290 C291 1.374 . S
C291 H271 0.950 . S
C291 C287 1.385 . S
C291 C290 1.374 . S
C292 C289 1.499 . S
C292 C293 1.373 . S
C292 C294 1.389 . S
C293 H272 0.950 . S
C293 C292 1.373 . S
C293 C309 1.377 . S
C294 C292 1.389 . S
C294 C295 1.524 . S
C294 C308 1.377 . S
C295 C294 1.524 . S
C295 C296 1.397 . S
C295 C300 1.363 . S
C296 H273 0.950 . S
C296 C295 1.397 . S
C296 C297 1.334 . S
C297 H274 0.950 . S
C297 C296 1.334 . S
C297 C298 1.287 . S
C298 C297 1.287 . S
C298 C299 1.524 . S
C298 H317 0.913 . S
C299 H275 0.950 . S
C299 C298 1.524 . S
C299 C300 1.415 . S
C300 H276 0.950 . S
C300 C295 1.363 . S
C300 C299 1.415 . S
C301 H277 0.951 . S
C301 C302 1.366 . S
C301 C303 1.388 . S
C302 C301 1.366 . S
C302 C306 1.385 . S
C303 H278 0.951 . S
C303 C301 1.388 . S
C303 C304 1.366 . S
C304 C303 1.366 . S
C304 C305 1.414 . S
C304 C307 1.499 . S
C305 H279 0.950 . S
C305 C304 1.414 . S
C305 C306 1.374 . S
C306 H280 0.950 . S
C306 C302 1.385 . S
C306 C305 1.374 . S
C307 C304 1.499 . S
C307 C308 1.373 . S
C307 C309 1.389 . S
C308 H281 0.950 . S
C308 C294 1.377 . S
C308 C307 1.373 . S
C309 C293 1.377 . S
C309 C307 1.389 . S
C309 C310 1.524 . S
C310 C309 1.524 . S
C310 C311 1.397 . S
C310 C315 1.363 . S
C311 H282 0.950 . S
C311 C310 1.397 . S
C311 C312 1.334 . S
C312 H283 0.950 . S
C312 C311 1.334 . S
C312 C313 1.287 . S
C313 C312 1.287 . S
C313 C314 1.524 . S
C313 H316 0.999 . S
C314 H284 0.950 . S
C314 C313 1.524 . S
C314 C315 1.415 . S
C315 H285 0.950 . S
C315 C310 1.363 . S
C315 C314 1.415 . S
H316 C313 0.999 . S
H317 C298 0.913 . S
H318 C336 0.951 . S
H319 C338 0.951 . S
H320 C340 0.950 . S
H321 C341 0.950 . S
H322 C343 0.950 . S
H323 C346 0.950 . S
H324 C347 0.950 . S
H325 C349 0.950 . S
H326 C350 0.950 . S
H327 C351 0.951 . S
H328 C353 0.951 . S
H329 C355 0.950 . S
H330 C356 0.950 . S
H331 C358 0.950 . S
H332 C361 0.950 . S
H333 C362 0.950 . S
H334 C364 0.950 . S
H335 C365 0.950 . S
C336 H318 0.951 . S
C336 C337 1.366 . S
C336 C338 1.388 . S
C337 C336 1.366 . S
C337 C341 1.385 . S
C338 H319 0.951 . S
C338 C336 1.388 . S
C338 C339 1.366 . S
C339 C338 1.366 . S
C339 C340 1.414 . S
C339 C342 1.499 . S
C340 H320 0.950 . S
C340 C339 1.414 . S
C340 C341 1.374 . S
C341 H321 0.950 . S
C341 C337 1.385 . S
C341 C340 1.374 . S
C342 C339 1.499 . S
C342 C343 1.373 . S
C342 C344 1.389 . S
C343 H322 0.950 . S
C343 C342 1.373 . S
C343 C359 1.377 . S
C344 C342 1.389 . S
C344 C345 1.524 . S
C344 C358 1.377 . S
C345 C344 1.524 . S
C345 C346 1.397 . S
C345 C350 1.363 . S
C346 H323 0.950 . S
C346 C345 1.397 . S
C346 C347 1.334 . S
C347 H324 0.950 . S
C347 C346 1.334 . S
C347 C348 1.287 . S
C348 C347 1.287 . S
C348 C349 1.524 . S
C348 H367 0.913 . S
C349 H325 0.950 . S
C349 C348 1.524 . S
C349 C350 1.415 . S
C350 H326 0.950 . S
C350 C345 1.363 . S
C350 C349 1.415 . S
C351 H327 0.951 . S
C351 C352 1.366 . S
C351 C353 1.388 . S
C352 C351 1.366 . S
C352 C356 1.385 . S
C353 H328 0.951 . S
C353 C351 1.388 . S
C353 C354 1.366 . S
C354 C353 1.366 . S
C354 C355 1.414 . S
C354 C357 1.499 . S
C355 H329 0.950 . S
C355 C354 1.414 . S
C355 C356 1.374 . S
C356 H330 0.950 . S
C356 C352 1.385 . S
C356 C355 1.374 . S
C357 C354 1.499 . S
C357 C358 1.373 . S
C357 C359 1.389 . S
C358 H331 0.950 . S
C358 C344 1.377 . S
C358 C357 1.373 . S
C359 C343 1.377 . S
C359 C357 1.389 . S
C359 C360 1.524 . S
C360 C359 1.524 . S
C360 C361 1.397 . S
C360 C365 1.363 . S
C361 H332 0.950 . S
C361 C360 1.397 . S
C361 C362 1.334 . S
C362 H333 0.950 . S
C362 C361 1.334 . S
C362 C363 1.287 . S
C363 C362 1.287 . S
C363 C364 1.524 . S
C363 H366 0.999 . S
C364 H334 0.950 . S
C364 C363 1.524 . S
C364 C365 1.415 . S
C365 H335 0.950 . S
C365 C360 1.363 . S
C365 C364 1.415 . S
H366 C363 0.999 . S
H367 C348 0.913 . S
H368 C386 0.951 . S
H369 C388 0.951 . S
H370 C390 0.950 . S
H371 C391 0.950 . S
H372 C393 0.950 . S
H373 C396 0.950 . S
H374 C397 0.950 . S
H375 C399 0.950 . S
H376 C400 0.950 . S
H377 C401 0.951 . S
H378 C403 0.951 . S
H379 C405 0.950 . S
H380 C406 0.950 . S
H381 C408 0.950 . S
H382 C411 0.950 . S
H383 C412 0.950 . S
H384 C414 0.950 . S
H385 C415 0.950 . S
C386 H368 0.951 . S
C386 C387 1.366 . S
C386 C388 1.388 . S
C387 C386 1.366 . S
C387 C391 1.385 . S
C388 H369 0.951 . S
C388 C386 1.388 . S
C388 C389 1.366 . S
C389 C388 1.366 . S
C389 C390 1.414 . S
C389 C392 1.499 . S
C390 H370 0.950 . S
C390 C389 1.414 . S
C390 C391 1.374 . S
C391 H371 0.950 . S
C391 C387 1.385 . S
C391 C390 1.374 . S
C392 C389 1.499 . S
C392 C393 1.373 . S
C392 C394 1.389 . S
C393 H372 0.950 . S
C393 C392 1.373 . S
C393 C409 1.377 . S
C394 C392 1.389 . S
C394 C395 1.524 . S
C394 C408 1.377 . S
C395 C394 1.524 . S
C395 C396 1.397 . S
C395 C400 1.363 . S
C396 H373 0.950 . S
C396 C395 1.397 . S
C396 C397 1.334 . S
C397 H374 0.950 . S
C397 C396 1.334 . S
C397 C398 1.287 . S
C398 C397 1.287 . S
C398 C399 1.524 . S
C398 H417 0.913 . S
C399 H375 0.950 . S
C399 C398 1.524 . S
C399 C400 1.415 . S
C400 H376 0.950 . S
C400 C395 1.363 . S
C400 C399 1.415 . S
C401 H377 0.951 . S
C401 C402 1.366 . S
C401 C403 1.388 . S
C402 C401 1.366 . S
C402 C406 1.385 . S
C403 H378 0.951 . S
C403 C401 1.388 . S
C403 C404 1.366 . S
C404 C403 1.366 . S
C404 C405 1.414 . S
C404 C407 1.499 . S
C405 H379 0.950 . S
C405 C404 1.414 . S
C405 C406 1.374 . S
C406 H380 0.950 . S
C406 C402 1.385 . S
C406 C405 1.374 . S
C407 C404 1.499 . S
C407 C408 1.373 . S
C407 C409 1.389 . S
C408 H381 0.950 . S
C408 C394 1.377 . S
C408 C407 1.373 . S
C409 C393 1.377 . S
C409 C407 1.389 . S
C409 C410 1.524 . S
C410 C409 1.524 . S
C410 C411 1.397 . S
C410 C415 1.363 . S
C411 H382 0.950 . S
C411 C410 1.397 . S
C411 C412 1.334 . S
C412 H383 0.950 . S
C412 C411 1.334 . S
C412 C413 1.287 . S
C413 C412 1.287 . S
C413 C414 1.524 . S
C413 H416 0.999 . S
C414 H384 0.950 . S
C414 C413 1.524 . S
C414 C415 1.415 . S
C415 H385 0.950 . S
C415 C410 1.363 . S
C415 C414 1.415 . S
H416 C413 0.999 . S
H417 C398 0.913 . S
H418 C436 0.951 . S
H419 C438 0.951 . S
H420 C440 0.950 . S
H421 C441 0.950 . S
H422 C443 0.950 . S
H423 C446 0.950 . S
H424 C447 0.950 . S
H425 C449 0.950 . S
H426 C450 0.950 . S
H427 C451 0.951 . S
H428 C453 0.951 . S
H429 C455 0.950 . S
H430 C456 0.950 . S
H431 C458 0.950 . S
H432 C461 0.950 . S
H433 C462 0.950 . S
H434 C464 0.950 . S
H435 C465 0.950 . S
C436 H418 0.951 . S
C436 C437 1.366 . S
C436 C438 1.388 . S
C437 C436 1.366 . S
C437 C441 1.385 . S
C438 H419 0.951 . S
C438 C436 1.388 . S
C438 C439 1.366 . S
C439 C438 1.366 . S
C439 C440 1.414 . S
C439 C442 1.499 . S
C440 H420 0.950 . S
C440 C439 1.414 . S
C440 C441 1.374 . S
C441 H421 0.950 . S
C441 C437 1.385 . S
C441 C440 1.374 . S
C442 C439 1.499 . S
C442 C443 1.373 . S
C442 C444 1.389 . S
C443 H422 0.950 . S
C443 C442 1.373 . S
C443 C459 1.377 . S
C444 C442 1.389 . S
C444 C445 1.524 . S
C444 C458 1.377 . S
C445 C444 1.524 . S
C445 C446 1.397 . S
C445 C450 1.363 . S
C446 H423 0.950 . S
C446 C445 1.397 . S
C446 C447 1.334 . S
C447 H424 0.950 . S
C447 C446 1.334 . S
C447 C448 1.287 . S
C448 C447 1.287 . S
C448 C449 1.524 . S
C448 H467 0.913 . S
C449 H425 0.950 . S
C449 C448 1.524 . S
C449 C450 1.415 . S
C450 H426 0.950 . S
C450 C445 1.363 . S
C450 C449 1.415 . S
C451 H427 0.951 . S
C451 C452 1.366 . S
C451 C453 1.388 . S
C452 C451 1.366 . S
C452 C456 1.385 . S
C453 H428 0.951 . S
C453 C451 1.388 . S
C453 C454 1.366 . S
C454 C453 1.366 . S
C454 C455 1.414 . S
C454 C457 1.499 . S
C455 H429 0.950 . S
C455 C454 1.414 . S
C455 C456 1.374 . S
C456 H430 0.950 . S
C456 C452 1.385 . S
C456 C455 1.374 . S
C457 C454 1.499 . S
C457 C458 1.373 . S
C457 C459 1.389 . S
C458 H431 0.950 . S
C458 C444 1.377 . S
C458 C457 1.373 . S
C459 C443 1.377 . S
C459 C457 1.389 . S
C459 C460 1.524 . S
C460 C459 1.524 . S
C460 C461 1.397 . S
C460 C465 1.363 . S
C461 H432 0.950 . S
C461 C460 1.397 . S
C461 C462 1.334 . S
C462 H433 0.950 . S
C462 C461 1.334 . S
C462 C463 1.287 . S
C463 C462 1.287 . S
C463 C464 1.524 . S
C463 H466 0.999 . S
C464 H434 0.950 . S
C464 C463 1.524 . S
C464 C465 1.415 . S
C465 H435 0.950 . S
C465 C460 1.363 . S
C465 C464 1.415 . S
H466 C463 0.999 . S
H467 C448 0.913 . S
H468 C486 0.951 . S
H469 C488 0.951 . S
H470 C490 0.950 . S
H471 C491 0.950 . S
H472 C493 0.950 . S
H473 C496 0.950 . S
H474 C497 0.950 . S
H475 C499 0.950 . S
H476 C500 0.950 . S
H477 C501 0.951 . S
H478 C503 0.951 . S
H479 C505 0.950 . S
H480 C506 0.950 . S
H481 C508 0.950 . S
H482 C511 0.950 . S
H483 C512 0.950 . S
H484 C514 0.950 . S
H485 C515 0.950 . S
C486 H468 0.951 . S
C486 C487 1.366 . S
C486 C488 1.388 . S
C487 C486 1.366 . S
C487 C491 1.385 . S
C488 H469 0.951 . S
C488 C486 1.388 . S
C488 C489 1.366 . S
C489 C488 1.366 . S
C489 C490 1.414 . S
C489 C492 1.499 . S
C490 H470 0.950 . S
C490 C489 1.414 . S
C490 C491 1.374 . S
C491 H471 0.950 . S
C491 C487 1.385 . S
C491 C490 1.374 . S
C492 C489 1.499 . S
C492 C493 1.373 . S
C492 C494 1.389 . S
C493 H472 0.950 . S
C493 C492 1.373 . S
C493 C509 1.377 . S
C494 C492 1.389 . S
C494 C495 1.524 . S
C494 C508 1.377 . S
C495 C494 1.524 . S
C495 C496 1.397 . S
C495 C500 1.363 . S
C496 H473 0.950 . S
C496 C495 1.397 . S
C496 C497 1.334 . S
C497 H474 0.950 . S
C497 C496 1.334 . S
C497 C498 1.287 . S
C498 C497 1.287 . S
C498 C499 1.524 . S
C498 H517 0.913 . S
C499 H475 0.950 . S
C499 C498 1.524 . S
C499 C500 1.415 . S
C500 H476 0.950 . S
C500 C495 1.363 . S
C500 C499 1.415 . S
C501 H477 0.951 . S
C501 C502 1.366 . S
C501 C503 1.388 . S
C502 C501 1.366 . S
C502 C506 1.385 . S
C503 H478 0.951 . S
C503 C501 1.388 . S
C503 C504 1.366 . S
C504 C503 1.366 . S
C504 C505 1.414 . S
C504 C507 1.499 . S
C505 H479 0.950 . S
C505 C504 1.414 . S
C505 C506 1.374 . S
C506 H480 0.950 . S
C506 C502 1.385 . S
C506 C505 1.374 . S
C507 C504 1.499 . S
C507 C508 1.373 . S
C507 C509 1.389 . S
C508 H481 0.950 . S
C508 C494 1.377 . S
C508 C507 1.373 . S
C509 C493 1.377 . S
C509 C507 1.389 . S
C509 C510 1.524 . S
C510 C509 1.524 . S
C510 C511 1.397 . S
C510 C515 1.363 . S
C511 H482 0.950 . S
C511 C510 1.397 . S
C511 C512 1.334 . S
C512 H483 0.950 . S
C512 C511 1.334 . S
C512 C513 1.287 . S
C513 C512 1.287 . S
C513 C514 1.524 . S
C513 H516 0.999 . S
C514 H484 0.950 . S
C514 C513 1.524 . S
C514 C515 1.415 . S
C515 H485 0.950 . S
C515 C510 1.363 . S
C515 C514 1.415 . S
H516 C513 0.999 . S
H517 C498 0.913 . S
H518 C536 0.951 . S
H519 C538 0.951 . S
H520 C540 0.950 . S
H521 C541 0.950 . S
H522 C543 0.950 . S
H523 C546 0.950 . S
H524 C547 0.950 . S
H525 C549 0.950 . S
H526 C550 0.950 . S
H527 C551 0.951 . S
H528 C553 0.951 . S
H529 C555 0.950 . S
H530 C556 0.950 . S
H531 C558 0.950 . S
H532 C561 0.950 . S
H533 C562 0.950 . S
H534 C564 0.950 . S
H535 C565 0.950 . S
C536 H518 0.951 . S
C536 C537 1.366 . S
C536 C538 1.388 . S
C537 C536 1.366 . S
C537 C541 1.385 . S
C538 H519 0.951 . S
C538 C536 1.388 . S
C538 C539 1.366 . S
C539 C538 1.366 . S
C539 C540 1.414 . S
C539 C542 1.499 . S
C540 H520 0.950 . S
C540 C539 1.414 . S
C540 C541 1.374 . S
C541 H521 0.950 . S
C541 C537 1.385 . S
C541 C540 1.374 . S
C542 C539 1.499 . S
C542 C543 1.373 . S
C542 C544 1.389 . S
C543 H522 0.950 . S
C543 C542 1.373 . S
C543 C559 1.377 . S
C544 C542 1.389 . S
C544 C545 1.524 . S
C544 C558 1.377 . S
C545 C544 1.524 . S
C545 C546 1.397 . S
C545 C550 1.363 . S
C546 H523 0.950 . S
C546 C545 1.397 . S
C546 C547 1.334 . S
C547 H524 0.950 . S
C547 C546 1.334 . S
C547 C548 1.287 . S
C548 C547 1.287 . S
C548 C549 1.524 . S
C548 H567 0.913 . S
C549 H525 0.950 . S
C549 C548 1.524 . S
C549 C550 1.415 . S
C550 H526 0.950 . S
C550 C545 1.363 . S
C550 C549 1.415 . S
C551 H527 0.951 . S
C551 C552 1.366 . S
C551 C553 1.388 . S
C552 C551 1.366 . S
C552 C556 1.385 . S
C553 H528 0.951 . S
C553 C551 1.388 . S
C553 C554 1.366 . S
C554 C553 1.366 . S
C554 C555 1.414 . S
C554 C557 1.499 . S
C555 H529 0.950 . S
C555 C554 1.414 . S
C555 C556 1.374 . S
C556 H530 0.950 . S
C556 C552 1.385 . S
C556 C555 1.374 . S
C557 C554 1.499 . S
C557 C558 1.373 . S
C557 C559 1.389 . S
C558 H531 0.950 . S
C558 C544 1.377 . S
C558 C557 1.373 . S
C559 C543 1.377 . S
C559 C557 1.389 . S
C559 C560 1.524 . S
C560 C559 1.524 . S
C560 C561 1.397 . S
C560 C565 1.363 . S
C561 H532 0.950 . S
C561 C560 1.397 . S
C561 C562 1.334 . S
C562 H533 0.950 . S
C562 C561 1.334 . S
C562 C563 1.287 . S
C563 C562 1.287 . S
C563 C564 1.524 . S
C563 H566 0.999 . S
C564 H534 0.950 . S
C564 C563 1.524 . S
C564 C565 1.415 . S
C565 H535 0.950 . S
C565 C560 1.363 . S
C565 C564 1.415 . S
H566 C563 0.999 . S
H567 C548 0.913 . S
H568 C586 0.951 . S
H569 C588 0.951 . S
H570 C590 0.950 . S
H571 C591 0.950 . S
H572 C593 0.950 . S
H573 C596 0.950 . S
H574 C597 0.950 . S
H575 C599 0.950 . S
H576 C600 0.950 . S
H577 C601 0.951 . S
H578 C603 0.951 . S
H579 C605 0.950 . S
H580 C606 0.950 . S
H581 C608 0.950 . S
H582 C611 0.950 . S
H583 C612 0.950 . S
H584 C614 0.950 . S
H585 C615 0.950 . S
C586 H568 0.951 . S
C586 C587 1.366 . S
C586 C588 1.388 . S
C587 C586 1.366 . S
C587 C591 1.385 . S
C588 H569 0.951 . S
C588 C586 1.388 . S
C588 C589 1.366 . S
C589 C588 1.366 . S
C589 C590 1.414 . S
C589 C592 1.499 . S
C590 H570 0.950 . S
C590 C589 1.414 . S
C590 C591 1.374 . S
C591 H571 0.950 . S
C591 C587 1.385 . S
C591 C590 1.374 . S
C592 C589 1.499 . S
C592 C593 1.373 . S
C592 C594 1.389 . S
C593 H572 0.950 . S
C593 C592 1.373 . S
C593 C609 1.377 . S
C594 C592 1.389 . S
C594 C595 1.524 . S
C594 C608 1.377 . S
C595 C594 1.524 . S
C595 C596 1.397 . S
C595 C600 1.363 . S
C596 H573 0.950 . S
C596 C595 1.397 . S
C596 C597 1.334 . S
C597 H574 0.950 . S
C597 C596 1.334 . S
C597 C598 1.287 . S
C598 C597 1.287 . S
C598 C599 1.524 . S
C598 H617 0.913 . S
C599 H575 0.950 . S
C599 C598 1.524 . S
C599 C600 1.415 . S
C600 H576 0.950 . S
C600 C595 1.363 . S
C600 C599 1.415 . S
C601 H577 0.951 . S
C601 C602 1.366 . S
C601 C603 1.388 . S
C602 C601 1.366 . S
C602 C606 1.385 . S
C603 H578 0.951 . S
C603 C601 1.388 . S
C603 C604 1.366 . S
C604 C603 1.366 . S
C604 C605 1.414 . S
C604 C607 1.499 . S
C605 H579 0.950 . S
C605 C604 1.414 . S
C605 C606 1.374 . S
C606 H580 0.950 . S
C606 C602 1.385 . S
C606 C605 1.374 . S
C607 C604 1.499 . S
C607 C608 1.373 . S
C607 C609 1.389 . S
C608 H581 0.950 . S
C608 C594 1.377 . S
C608 C607 1.373 . S
C609 C593 1.377 . S
C609 C607 1.389 . S
C609 C610 1.524 . S
C610 C609 1.524 . S
C610 C611 1.397 . S
C610 C615 1.363 . S
C611 H582 0.950 . S
C611 C610 1.397 . S
C611 C612 1.334 . S
C612 H583 0.950 . S
C612 C611 1.334 . S
C612 C613 1.287 . S
C613 C612 1.287 . S
C613 C614 1.524 . S
C613 H616 0.999 . S
C614 H584 0.950 . S
C614 C613 1.524 . S
C614 C615 1.415 . S
C615 H585 0.950 . S
C615 C610 1.363 . S
C615 C614 1.415 . S
H616 C613 0.999 . S
H617 C598 0.913 . S
H618 C636 0.951 . S
H619 C638 0.951 . S
H620 C640 0.950 . S
H621 C641 0.950 . S
H622 C643 0.950 . S
H623 C646 0.950 . S
H624 C647 0.950 . S
H625 C649 0.950 . S
H626 C650 0.950 . S
H627 C651 0.951 . S
H628 C653 0.951 . S
H629 C655 0.950 . S
H630 C656 0.950 . S
H631 C658 0.950 . S
H632 C661 0.950 . S
H633 C662 0.950 . S
H634 C664 0.950 . S
H635 C665 0.950 . S
C636 H618 0.951 . S
C636 C637 1.366 . S
C636 C638 1.388 . S
C637 C636 1.366 . S
C637 C641 1.385 . S
C638 H619 0.951 . S
C638 C636 1.388 . S
C638 C639 1.366 . S
C639 C638 1.366 . S
C639 C640 1.414 . S
C639 C642 1.499 . S
C640 H620 0.950 . S
C640 C639 1.414 . S
C640 C641 1.374 . S
C641 H621 0.950 . S
C641 C637 1.385 . S
C641 C640 1.374 . S
C642 C639 1.499 . S
C642 C643 1.373 . S
C642 C644 1.389 . S
C643 H622 0.950 . S
C643 C642 1.373 . S
C643 C659 1.377 . S
C644 C642 1.389 . S
C644 C645 1.524 . S
C644 C658 1.377 . S
C645 C644 1.524 . S
C645 C646 1.397 . S
C645 C650 1.363 . S
C646 H623 0.950 . S
C646 C645 1.397 . S
C646 C647 1.334 . S
C647 H624 0.950 . S
C647 C646 1.334 . S
C647 C648 1.287 . S
C648 C647 1.287 . S
C648 C649 1.524 . S
C648 H667 0.913 . S
C649 H625 0.950 . S
C649 C648 1.524 . S
C649 C650 1.415 . S
C650 H626 0.950 . S
C650 C645 1.363 . S
C650 C649 1.415 . S
C651 H627 0.951 . S
C651 C652 1.366 . S
C651 C653 1.388 . S
C652 C651 1.366 . S
C652 C656 1.385 . S
C653 H628 0.951 . S
C653 C651 1.388 . S
C653 C654 1.366 . S
C654 C653 1.366 . S
C654 C655 1.414 . S
C654 C657 1.499 . S
C655 H629 0.950 . S
C655 C654 1.414 . S
C655 C656 1.374 . S
C656 H630 0.950 . S
C656 C652 1.385 . S
C656 C655 1.374 . S
C657 C654 1.499 . S
C657 C658 1.373 . S
C657 C659 1.389 . S
C658 H631 0.950 . S
C658 C644 1.377 . S
C658 C657 1.373 . S
C659 C643 1.377 . S
C659 C657 1.389 . S
C659 C660 1.524 . S
C660 C659 1.524 . S
C660 C661 1.397 . S
C660 C665 1.363 . S
C661 H632 0.950 . S
C661 C660 1.397 . S
C661 C662 1.334 . S
C662 H633 0.950 . S
C662 C661 1.334 . S
C662 C663 1.287 . S
C663 C662 1.287 . S
C663 C664 1.524 . S
C663 H666 0.999 . S
C664 H634 0.950 . S
C664 C663 1.524 . S
C664 C665 1.415 . S
C665 H635 0.950 . S
C665 C660 1.363 . S
C665 C664 1.415 . S
H666 C663 0.999 . S
H667 C648 0.913 . S
H668 C686 0.951 . S
H669 C688 0.951 . S
H670 C690 0.950 . S
H671 C691 0.950 . S
H672 C693 0.950 . S
H673 C696 0.950 . S
H674 C697 0.950 . S
H675 C699 0.950 . S
H676 C700 0.950 . S
H677 C701 0.951 . S
H678 C703 0.951 . S
H679 C705 0.950 . S
H680 C706 0.950 . S
H681 C708 0.950 . S
H682 C711 0.950 . S
H683 C712 0.950 . S
H684 C714 0.950 . S
H685 C715 0.950 . S
C686 H668 0.951 . S
C686 C687 1.366 . S
C686 C688 1.388 . S
C687 C686 1.366 . S
C687 C691 1.385 . S
C688 H669 0.951 . S
C688 C686 1.388 . S
C688 C689 1.366 . S
C689 C688 1.366 . S
C689 C690 1.414 . S
C689 C692 1.499 . S
C690 H670 0.950 . S
C690 C689 1.414 . S
C690 C691 1.374 . S
C691 H671 0.950 . S
C691 C687 1.385 . S
C691 C690 1.374 . S
C692 C689 1.499 . S
C692 C693 1.373 . S
C692 C694 1.389 . S
C693 H672 0.950 . S
C693 C692 1.373 . S
C693 C709 1.377 . S
C694 C692 1.389 . S
C694 C695 1.524 . S
C694 C708 1.377 . S
C695 C694 1.524 . S
C695 C696 1.397 . S
C695 C700 1.363 . S
C696 H673 0.950 . S
C696 C695 1.397 . S
C696 C697 1.334 . S
C697 H674 0.950 . S
C697 C696 1.334 . S
C697 C698 1.287 . S
C698 C697 1.287 . S
C698 C699 1.524 . S
C698 H717 0.913 . S
C699 H675 0.950 . S
C699 C698 1.524 . S
C699 C700 1.415 . S
C700 H676 0.950 . S
C700 C695 1.363 . S
C700 C699 1.415 . S
C701 H677 0.951 . S
C701 C702 1.366 . S
C701 C703 1.388 . S
C702 C701 1.366 . S
C702 C706 1.385 . S
C703 H678 0.951 . S
C703 C701 1.388 . S
C703 C704 1.366 . S
C704 C703 1.366 . S
C704 C705 1.414 . S
C704 C707 1.499 . S
C705 H679 0.950 . S
C705 C704 1.414 . S
C705 C706 1.374 . S
C706 H680 0.950 . S
C706 C702 1.385 . S
C706 C705 1.374 . S
C707 C704 1.499 . S
C707 C708 1.373 . S
C707 C709 1.389 . S
C708 H681 0.950 . S
C708 C694 1.377 . S
C708 C707 1.373 . S
C709 C693 1.377 . S
C709 C707 1.389 . S
C709 C710 1.524 . S
C710 C709 1.524 . S
C710 C711 1.397 . S
C710 C715 1.363 . S
C711 H682 0.950 . S
C711 C710 1.397 . S
C711 C712 1.334 . S
C712 H683 0.950 . S
C712 C711 1.334 . S
C712 C713 1.287 . S
C713 C712 1.287 . S
C713 C714 1.524 . S
C713 H716 0.999 . S
C714 H684 0.950 . S
C714 C713 1.524 . S
C714 C715 1.415 . S
C715 H685 0.950 . S
C715 C710 1.363 . S
C715 C714 1.415 . S
H716 C713 0.999 . S
H717 C698 0.913 . S
H718 C736 0.951 . S
H719 C738 0.951 . S
H720 C740 0.950 . S
H721 C741 0.950 . S
H722 C743 0.950 . S
H723 C746 0.950 . S
H724 C747 0.950 . S
H725 C749 0.950 . S
H726 C750 0.950 . S
H727 C751 0.951 . S
H728 C753 0.951 . S
H729 C755 0.950 . S
H730 C756 0.950 . S
H731 C758 0.950 . S
H732 C761 0.950 . S
H733 C762 0.950 . S
H734 C764 0.950 . S
H735 C765 0.950 . S
C736 H718 0.951 . S
C736 C737 1.366 . S
C736 C738 1.388 . S
C737 C736 1.366 . S
C737 C741 1.385 . S
C738 H719 0.951 . S
C738 C736 1.388 . S
C738 C739 1.366 . S
C739 C738 1.366 . S
C739 C740 1.414 . S
C739 C742 1.499 . S
C740 H720 0.950 . S
C740 C739 1.414 . S
C740 C741 1.374 . S
C741 H721 0.950 . S
C741 C737 1.385 . S
C741 C740 1.374 . S
C742 C739 1.499 . S
C742 C743 1.373 . S
C742 C744 1.389 . S
C743 H722 0.950 . S
C743 C742 1.373 . S
C743 C759 1.377 . S
C744 C742 1.389 . S
C744 C745 1.524 . S
C744 C758 1.377 . S
C745 C744 1.524 . S
C745 C746 1.397 . S
C745 C750 1.363 . S
C746 H723 0.950 . S
C746 C745 1.397 . S
C746 C747 1.334 . S
C747 H724 0.950 . S
C747 C746 1.334 . S
C747 C748 1.287 . S
C748 C747 1.287 . S
C748 C749 1.524 . S
C748 H767 0.913 . S
C749 H725 0.950 . S
C749 C748 1.524 . S
C749 C750 1.415 . S
C750 H726 0.950 . S
C750 C745 1.363 . S
C750 C749 1.415 . S
C751 H727 0.951 . S
C751 C752 1.366 . S
C751 C753 1.388 . S
C752 C751 1.366 . S
C752 C756 1.385 . S
C753 H728 0.951 . S
C753 C751 1.388 . S
C753 C754 1.366 . S
C754 C753 1.366 . S
C754 C755 1.414 . S
C754 C757 1.499 . S
C755 H729 0.950 . S
C755 C754 1.414 . S
C755 C756 1.374 . S
C756 H730 0.950 . S
C756 C752 1.385 . S
C756 C755 1.374 . S
C757 C754 1.499 . S
C757 C758 1.373 . S
C757 C759 1.389 . S
C758 H731 0.950 . S
C758 C744 1.377 . S
C758 C757 1.373 . S
C759 C743 1.377 . S
C759 C757 1.389 . S
C759 C760 1.524 . S
C760 C759 1.524 . S
C760 C761 1.397 . S
C760 C765 1.363 . S
C761 H732 0.950 . S
C761 C760 1.397 . S
C761 C762 1.334 . S
C762 H733 0.950 . S
C762 C761 1.334 . S
C762 C763 1.287 . S
C763 C762 1.287 . S
C763 C764 1.524 . S
C763 H766 0.999 . S
C764 H734 0.950 . S
C764 C763 1.524 . S
C764 C765 1.415 . S
C765 H735 0.950 . S
C765 C760 1.363 . S
C765 C764 1.415 . S
H766 C763 0.999 . S
H767 C748 0.913 . S
H768 C786 0.951 . S
H769 C788 0.951 . S
H770 C790 0.950 1_455 S
H771 C791 0.950 . S
H772 C793 0.950 . S
H773 C796 0.950 . S
H774 C797 0.950 . S
H775 C799 0.950 . S
H776 C800 0.950 . S
H777 C801 0.951 . S
H778 C803 0.951 . S
H779 C805 0.950 1_655 S
H780 C806 0.950 . S
H781 C808 0.950 . S
H782 C811 0.950 . S
H783 C812 0.950 . S
H784 C814 0.950 . S
H785 C815 0.950 . S
C786 H768 0.951 . S
C786 C787 1.366 . S
C786 C788 1.388 . S
C787 C786 1.366 . S
C787 C791 1.385 . S
C788 H769 0.951 . S
C788 C786 1.388 . S
C788 C789 1.366 . S
C789 C788 1.366 . S
C789 C790 1.414 . S
C789 C792 1.499 . S
C790 H770 0.950 1_655 S
C790 C789 1.414 . S
C790 C791 1.374 . S
C791 H771 0.950 . S
C791 C787 1.385 . S
C791 C790 1.374 . S
C792 C789 1.499 . S
C792 C793 1.373 1_655 S
C792 C794 1.389 . S
C793 H772 0.950 . S
C793 C792 1.373 1_455 S
C793 C809 1.377 . S
C794 C792 1.389 . S
C794 C795 1.524 . S
C794 C808 1.377 . S
C795 C794 1.524 . S
C795 C796 1.397 . S
C795 C800 1.363 . S
C796 H773 0.950 . S
C796 C795 1.397 . S
C796 C797 1.334 . S
C797 H774 0.950 . S
C797 C796 1.334 . S
C797 C798 1.287 . S
C798 C797 1.287 . S
C798 C799 1.524 . S
C798 H817 0.913 . S
C799 H775 0.950 . S
C799 C798 1.524 . S
C799 C800 1.415 . S
C800 H776 0.950 . S
C800 C795 1.363 . S
C800 C799 1.415 . S
C801 H777 0.951 . S
C801 C802 1.366 . S
C801 C803 1.388 . S
C802 C801 1.366 . S
C802 C806 1.385 . S
C803 H778 0.951 . S
C803 C801 1.388 . S
C803 C804 1.366 . S
C804 C803 1.366 . S
C804 C805 1.414 . S
C804 C807 1.499 . S
C805 H779 0.950 1_455 S
C805 C804 1.414 . S
C805 C806 1.374 . S
C806 H780 0.950 . S
C806 C802 1.385 . S
C806 C805 1.374 . S
C807 C804 1.499 . S
C807 C808 1.373 1_455 S
C807 C809 1.389 . S
C808 H781 0.950 . S
C808 C794 1.377 . S
C808 C807 1.373 1_655 S
C809 C793 1.377 . S
C809 C807 1.389 . S
C809 C810 1.524 . S
C810 C809 1.524 . S
C810 C811 1.397 . S
C810 C815 1.363 . S
C811 H782 0.950 . S
C811 C810 1.397 . S
C811 C812 1.334 . S
C812 H783 0.950 . S
C812 C811 1.334 . S
C812 C813 1.287 . S
C813 C812 1.287 . S
C813 C814 1.524 . S
C813 H816 0.999 . S
C814 H784 0.950 . S
C814 C813 1.524 . S
C814 C815 1.415 . S
C815 H785 0.950 . S
C815 C810 1.363 . S
C815 C814 1.415 . S
H816 C813 0.999 . S
H817 C798 0.913 . S
H818 C836 0.960 . S
H819 C838 0.951 . S
H820 C840 0.950 . S
H821 C841 0.950 . S
H822 C843 0.950 . S
H823 C846 0.916 1_545 S
H824 C847 0.950 . S
H825 C849 0.950 . S
H826 C850 0.950 . S
H827 C851 0.960 . S
H828 C853 0.951 . S
H829 C855 0.950 . S
H830 C856 0.950 . S
H831 C858 0.950 . S
H832 C861 0.916 1_565 S
H833 C862 0.950 . S
H834 C864 0.950 . S
H835 C865 0.950 . S
C836 H818 0.960 . S
C836 C837 1.354 1_565 S
C836 C838 1.391 . S
C837 C836 1.354 1_545 S
C837 C841 1.385 . S
C838 H819 0.951 . S
C838 C836 1.391 . S
C838 C839 1.366 1_565 S
C839 C838 1.366 1_545 S
C839 C840 1.414 . S
C839 C842 1.499 . S
C840 H820 0.950 . S
C840 C839 1.414 . S
C840 C841 1.374 . S
C841 H821 0.950 . S
C841 C837 1.385 . S
C841 C840 1.374 . S
C842 C839 1.499 . S
C842 C843 1.373 . S
C842 C844 1.389 1_545 S
C843 H822 0.950 . S
C843 C842 1.373 . S
C843 C859 1.377 . S
C844 C842 1.389 1_565 S
C844 C845 1.524 . S
C844 C858 1.377 . S
C845 C844 1.524 . S
C845 C846 1.397 . S
C845 C850 1.363 . S
C846 H823 0.916 1_565 S
C846 C845 1.397 . S
C846 C847 1.334 . S
C847 H824 0.950 . S
C847 C846 1.334 . S
C847 C848 1.287 . S
C848 C847 1.287 . S
C848 C849 1.524 . S
C848 H867 0.913 . S
C849 H825 0.950 . S
C849 C848 1.524 . S
C849 C850 1.415 . S
C850 H826 0.950 . S
C850 C845 1.363 . S
C850 C849 1.415 . S
C851 H827 0.960 . S
C851 C852 1.354 1_545 S
C851 C853 1.391 . S
C852 C851 1.354 1_565 S
C852 C856 1.385 . S
C853 H828 0.951 . S
C853 C851 1.391 . S
C853 C854 1.366 1_545 S
C854 C853 1.366 1_565 S
C854 C855 1.414 . S
C854 C857 1.499 . S
C855 H829 0.950 . S
C855 C854 1.414 . S
C855 C856 1.374 . S
C856 H830 0.950 . S
C856 C852 1.385 . S
C856 C855 1.374 . S
C857 C854 1.499 . S
C857 C858 1.373 . S
C857 C859 1.389 1_565 S
C858 H831 0.950 . S
C858 C844 1.377 . S
C858 C857 1.373 . S
C859 C843 1.377 . S
C859 C857 1.389 1_545 S
C859 C860 1.524 . S
C860 C859 1.524 . S
C860 C861 1.397 . S
C860 C865 1.363 . S
C861 H832 0.916 1_545 S
C861 C860 1.397 . S
C861 C862 1.334 . S
C862 H833 0.950 . S
C862 C861 1.334 . S
C862 C863 1.287 . S
C863 C862 1.287 . S
C863 C864 1.524 . S
C863 H866 0.999 . S
C864 H834 0.950 . S
C864 C863 1.524 . S
C864 C865 1.415 . S
C865 H835 0.950 . S
C865 C860 1.363 . S
C865 C864 1.415 . S
H866 C863 0.999 . S
H867 C848 0.913 . S
H868 C886 0.965 . S
H869 C888 0.951 . S
H870 C890 0.950 . S
H871 C891 0.950 . S
H872 C893 0.950 . S
H873 C896 0.950 . S
H874 C897 0.950 1_455 S
H875 C899 0.950 . S
H876 C900 0.950 . S
H877 C901 0.965 . S
H878 C903 0.951 . S
H879 C905 0.950 . S
H880 C906 0.950 . S
H881 C908 0.950 . S
H882 C911 0.950 . S
H883 C912 0.950 1_655 S
H884 C914 0.950 . S
H885 C915 0.950 . S
C886 H868 0.965 . S
C886 C887 1.348 1_655 S
C886 C888 1.392 . S
C887 C886 1.348 1_455 S
C887 C891 1.385 . S
C888 H869 0.951 . S
C888 C886 1.392 . S
C888 C889 1.366 1_655 S
C889 C888 1.366 1_455 S
C889 C890 1.414 . S
C889 C892 1.499 . S
C890 H870 0.950 . S
C890 C889 1.414 . S
C890 C891 1.374 . S
C891 H871 0.950 . S
C891 C887 1.385 . S
C891 C890 1.374 . S
C892 C889 1.499 . S
C892 C893 1.373 . S
C892 C894 1.389 1_455 S
C893 H872 0.950 . S
C893 C892 1.373 . S
C893 C909 1.377 . S
C894 C892 1.389 1_655 S
C894 C895 1.524 . S
C894 C908 1.377 . S
C895 C894 1.524 . S
C895 C896 1.397 1_655 S
C895 C900 1.363 . S
C896 H873 0.950 . S
C896 C895 1.397 1_455 S
C896 C897 1.334 1_455 S
C897 H874 0.950 1_655 S
C897 C896 1.334 1_655 S
C897 C898 1.287 . S
C898 C897 1.287 . S
C898 C899 1.524 . S
C898 H917 0.913 . S
C899 H875 0.950 . S
C899 C898 1.524 . S
C899 C900 1.415 . S
C900 H876 0.950 . S
C900 C895 1.363 . S
C900 C899 1.415 . S
C901 H877 0.965 . S
C901 C902 1.348 1_455 S
C901 C903 1.392 . S
C902 C901 1.348 1_655 S
C902 C906 1.385 . S
C903 H878 0.951 . S
C903 C901 1.392 . S
C903 C904 1.366 1_455 S
C904 C903 1.366 1_655 S
C904 C905 1.414 . S
C904 C907 1.499 . S
C905 H879 0.950 . S
C905 C904 1.414 . S
C905 C906 1.374 . S
C906 H880 0.950 . S
C906 C902 1.385 . S
C906 C905 1.374 . S
C907 C904 1.499 . S
C907 C908 1.373 . S
C907 C909 1.389 1_655 S
C908 H881 0.950 . S
C908 C894 1.377 . S
C908 C907 1.373 . S
C909 C893 1.377 . S
C909 C907 1.389 1_455 S
C909 C910 1.524 . S
C910 C909 1.524 . S
C910 C911 1.397 1_455 S
C910 C915 1.363 . S
C911 H882 0.950 . S
C911 C910 1.397 1_655 S
C911 C912 1.334 1_655 S
C912 H883 0.950 1_455 S
C912 C911 1.334 1_455 S
C912 C913 1.287 . S
C913 C912 1.287 . S
C913 C914 1.524 . S
C913 H916 0.999 . S
C914 H884 0.950 . S
C914 C913 1.524 . S
C914 C915 1.415 . S
C915 H885 0.950 . S
C915 C910 1.363 . S
C915 C914 1.415 . S
H916 C913 0.999 . S
H917 C898 0.913 . S
H918 C936 0.927 1_565 S
H919 C938 0.951 . S
H920 C940 0.950 . S
H921 C941 0.950 . S
H922 C943 0.950 . S
H923 C946 0.950 . S
H924 C947 0.950 . S
H925 C949 0.950 . S
H926 C950 0.950 . S
H927 C951 0.927 1_545 S
H928 C953 0.951 . S
H929 C955 0.950 . S
H930 C956 0.950 . S
H931 C958 0.950 . S
H932 C961 0.950 . S
H933 C962 0.950 . S
H934 C964 0.950 . S
H935 C965 0.950 . S
C936 H918 0.927 1_545 S
C936 C937 1.398 . S
C936 C938 1.381 1_545 S
C937 C936 1.398 . S
C937 C941 1.385 . S
C938 H919 0.951 . S
C938 C936 1.381 1_565 S
C938 C939 1.366 1_565 S
C939 C938 1.366 1_545 S
C939 C940 1.414 . S
C939 C942 1.499 . S
C940 H920 0.950 . S
C940 C939 1.414 . S
C940 C941 1.374 . S
C941 H921 0.950 . S
C941 C937 1.385 . S
C941 C940 1.374 . S
C942 C939 1.499 . S
C942 C943 1.373 . S
C942 C944 1.389 1_545 S
C943 H922 0.950 . S
C943 C942 1.373 . S
C943 C959 1.377 . S
C944 C942 1.389 1_565 S
C944 C945 1.524 . S
C944 C958 1.377 . S
C945 C944 1.524 . S
C945 C946 1.397 1_565 S
C945 C950 1.363 . S
C946 H923 0.950 . S
C946 C945 1.397 1_545 S
C946 C947 1.334 . S
C947 H924 0.950 . S
C947 C946 1.334 . S
C947 C948 1.287 1_545 S
C948 C947 1.287 1_565 S
C948 C949 1.524 . S
C948 H967 0.913 . S
C949 H925 0.950 . S
C949 C948 1.524 . S
C949 C950 1.415 . S
C950 H926 0.950 . S
C950 C945 1.363 . S
C950 C949 1.415 . S
C951 H927 0.927 1_565 S
C951 C952 1.398 . S
C951 C953 1.381 1_565 S
C952 C951 1.398 . S
C952 C956 1.385 . S
C953 H928 0.951 . S
C953 C951 1.381 1_545 S
C953 C954 1.366 1_545 S
C954 C953 1.366 1_565 S
C954 C955 1.414 . S
C954 C957 1.499 . S
C955 H929 0.950 . S
C955 C954 1.414 . S
C955 C956 1.374 . S
C956 H930 0.950 . S
C956 C952 1.385 . S
C956 C955 1.374 . S
C957 C954 1.499 . S
C957 C958 1.373 . S
C957 C959 1.389 1_565 S
C958 H931 0.950 . S
C958 C944 1.377 . S
C958 C957 1.373 . S
C959 C943 1.377 . S
C959 C957 1.389 1_545 S
C959 C960 1.524 . S
C960 C959 1.524 . S
C960 C961 1.397 1_545 S
C960 C965 1.363 . S
C961 H932 0.950 . S
C961 C960 1.397 1_565 S
C961 C962 1.334 . S
C962 H933 0.950 . S
C962 C961 1.334 . S
C962 C963 1.287 1_565 S
C963 C962 1.287 1_545 S
C963 C964 1.524 . S
C963 H966 0.999 . S
C964 H934 0.950 . S
C964 C963 1.524 . S
C964 C965 1.415 . S
C965 H935 0.950 . S
C965 C960 1.363 . S
C965 C964 1.415 . S
H966 C963 0.999 . S
H967 C948 0.913 . S
H968 C986 0.951 . S
H969 C988 0.951 . S
H970 C990 0.950 1_565 S
H971 C991 0.950 . S
H972 C993 0.950 . S
H973 C996 0.950 . S
H974 C997 0.950 . S
H975 C999 0.950 . S
H976 C1000 0.950 . S
H977 C1001 0.951 . S
H978 C1003 0.951 . S
H979 C1005 0.950 1_545 S
H980 C1006 0.950 . S
H981 C1008 0.950 . S
H982 C1011 0.950 . S
H983 C1012 0.950 . S
H984 C1014 0.950 . S
H985 C1015 0.950 . S
C986 H968 0.951 . S
C986 C987 1.366 . S
C986 C988 1.388 . S
C987 C986 1.366 . S
C987 C991 1.385 . S
C988 H969 0.951 . S
C988 C986 1.388 . S
C988 C989 1.366 . S
C989 C988 1.366 . S
C989 C990 1.414 . S
C989 C992 1.499 . S
C990 H970 0.950 1_545 S
C990 C989 1.414 . S
C990 C991 1.374 . S
C991 H971 0.950 . S
C991 C987 1.385 . S
C991 C990 1.374 . S
C992 C989 1.499 . S
C992 C993 1.373 1_545 S
C992 C994 1.389 . S
C993 H972 0.950 . S
C993 C992 1.373 1_565 S
C993 C1009 1.377 . S
C994 C992 1.389 . S
C994 C995 1.524 . S
C994 C1008 1.377 . S
C995 C994 1.524 . S
C995 C996 1.397 . S
C995 C1000 1.363 . S
C996 H973 0.950 . S
C996 C995 1.397 . S
C996 C997 1.334 . S
C997 H974 0.950 . S
C997 C996 1.334 . S
C997 C998 1.287 . S
C998 C997 1.287 . S
C998 C999 1.524 . S
C998 H1017 0.913 . S
C999 H975 0.950 . S
C999 C998 1.524 . S
C999 C1000 1.415 . S
C1000 H976 0.950 . S
C1000 C995 1.363 . S
C1000 C999 1.415 . S
C1001 H977 0.951 . S
C1001 C1002 1.366 . S
C1001 C1003 1.388 . S
C1002 C1001 1.366 . S
C1002 C1006 1.385 . S
C1003 H978 0.951 . S
C1003 C1001 1.388 . S
C1003 C1004 1.366 . S
C1004 C1003 1.366 . S
C1004 C1005 1.414 . S
C1004 C1007 1.499 . S
C1005 H979 0.950 1_565 S
C1005 C1004 1.414 . S
C1005 C1006 1.374 . S
C1006 H980 0.950 . S
C1006 C1002 1.385 . S
C1006 C1005 1.374 . S
C1007 C1004 1.499 . S
C1007 C1008 1.373 1_565 S
C1007 C1009 1.389 . S
C1008 H981 0.950 . S
C1008 C994 1.377 . S
C1008 C1007 1.373 1_545 S
C1009 C993 1.377 . S
C1009 C1007 1.389 . S
C1009 C1010 1.524 . S
C1010 C1009 1.524 . S
C1010 C1011 1.397 . S
C1010 C1015 1.363 . S
C1011 H982 0.950 . S
C1011 C1010 1.397 . S
C1011 C1012 1.334 . S
C1012 H983 0.950 . S
C1012 C1011 1.334 . S
C1012 C1013 1.287 . S
C1013 C1012 1.287 . S
C1013 C1014 1.524 . S
C1013 H1016 0.999 . S
C1014 H984 0.950 . S
C1014 C1013 1.524 . S
C1014 C1015 1.415 . S
C1015 H985 0.950 . S
C1015 C1010 1.363 . S
C1015 C1014 1.415 . S
H1016 C1013 0.999 . S
H1017 C998 0.913 . S
H1018 C1036 0.951 . S
H1019 C1038 0.951 . S
H1020 C1040 0.950 . S
H1021 C1041 0.932 1_655 S
H1022 C1043 0.950 . S
H1023 C1046 0.950 . S
H1024 C1047 0.950 . S
H1025 C1049 0.950 . S
H1026 C1050 0.950 . S
H1027 C1051 0.951 . S
H1028 C1053 0.951 . S
H1029 C1055 0.950 . S
H1030 C1056 0.932 1_455 S
H1031 C1058 0.950 . S
H1032 C1061 0.950 . S
H1033 C1062 0.950 . S
H1034 C1064 0.950 . S
H1035 C1065 0.950 . S
C1036 H1018 0.951 . S
C1036 C1037 1.366 . S
C1036 C1038 1.388 . S
C1037 C1036 1.366 . S
C1037 C1041 1.409 . S
C1038 H1019 0.951 . S
C1038 C1036 1.388 . S
C1038 C1039 1.366 . S
C1039 C1038 1.366 . S
C1039 C1040 1.414 1_455 S
C1039 C1042 1.499 . S
C1040 H1020 0.950 . S
C1040 C1039 1.414 1_655 S
C1040 C1041 1.368 1_655 S
C1041 H1021 0.932 1_455 S
C1041 C1037 1.409 . S
C1041 C1040 1.368 1_455 S
C1042 C1039 1.499 . S
C1042 C1043 1.373 1_455 S
C1042 C1044 1.389 . S
C1043 H1022 0.950 . S
C1043 C1042 1.373 1_655 S
C1043 C1059 1.377 . S
C1044 C1042 1.389 . S
C1044 C1045 1.524 . S
C1044 C1058 1.377 . S
C1045 C1044 1.524 . S
C1045 C1046 1.397 . S
C1045 C1050 1.363 . S
C1046 H1023 0.950 . S
C1046 C1045 1.397 . S
C1046 C1047 1.334 . S
C1047 H1024 0.950 . S
C1047 C1046 1.334 . S
C1047 C1048 1.287 . S
C1048 C1047 1.287 . S
C1048 C1049 1.524 . S
C1048 H1067 0.913 . S
C1049 H1025 0.950 . S
C1049 C1048 1.524 . S
C1049 C1050 1.415 . S
C1050 H1026 0.950 . S
C1050 C1045 1.363 . S
C1050 C1049 1.415 . S
C1051 H1027 0.951 . S
C1051 C1052 1.366 . S
C1051 C1053 1.388 . S
C1052 C1051 1.366 . S
C1052 C1056 1.409 . S
C1053 H1028 0.951 . S
C1053 C1051 1.388 . S
C1053 C1054 1.366 . S
C1054 C1053 1.366 . S
C1054 C1055 1.414 1_655 S
C1054 C1057 1.499 . S
C1055 H1029 0.950 . S
C1055 C1054 1.414 1_455 S
C1055 C1056 1.368 1_455 S
C1056 H1030 0.932 1_655 S
C1056 C1052 1.409 . S
C1056 C1055 1.368 1_655 S
C1057 C1054 1.499 . S
C1057 C1058 1.373 1_655 S
C1057 C1059 1.389 . S
C1058 H1031 0.950 . S
C1058 C1044 1.377 . S
C1058 C1057 1.373 1_455 S
C1059 C1043 1.377 . S
C1059 C1057 1.389 . S
C1059 C1060 1.524 . S
C1060 C1059 1.524 . S
C1060 C1061 1.397 . S
C1060 C1065 1.363 . S
C1061 H1032 0.950 . S
C1061 C1060 1.397 . S
C1061 C1062 1.334 . S
C1062 H1033 0.950 . S
C1062 C1061 1.334 . S
C1062 C1063 1.287 . S
C1063 C1062 1.287 . S
C1063 C1064 1.524 . S
C1063 H1066 0.999 . S
C1064 H1034 0.950 . S
C1064 C1063 1.524 . S
C1064 C1065 1.415 . S
C1065 H1035 0.950 . S
C1065 C1060 1.363 . S
C1065 C1064 1.415 . S
H1066 C1063 0.999 . S
H1067 C1048 0.913 . S
H1068 C1086 0.951 . S
H1069 C1088 0.951 . S
H1070 C1090 0.950 . S
H1071 C1091 0.950 1_565 S
H1072 C1093 0.950 . S
H1073 C1096 0.950 . S
H1074 C1097 0.950 . S
H1075 C1099 0.950 . S
H1076 C1100 0.950 . S
H1077 C1101 0.951 . S
H1078 C1103 0.951 . S
H1079 C1105 0.950 . S
H1080 C1106 0.950 1_545 S
H1081 C1108 0.950 . S
H1082 C1111 0.950 . S
H1083 C1112 0.950 . S
H1084 C1114 0.950 . S
H1085 C1115 0.950 . S
C1086 H1068 0.951 . S
C1086 C1087 1.366 . S
C1086 C1088 1.388 . S
C1087 C1086 1.366 . S
C1087 C1091 1.385 . S
C1088 H1069 0.951 . S
C1088 C1086 1.388 . S
C1088 C1089 1.366 . S
C1089 C1088 1.366 . S
C1089 C1090 1.414 1_545 S
C1089 C1092 1.499 . S
C1090 H1070 0.950 . S
C1090 C1089 1.414 1_565 S
C1090 C1091 1.374 1_565 S
C1091 H1071 0.950 1_545 S
C1091 C1087 1.385 . S
C1091 C1090 1.374 1_545 S
C1092 C1089 1.499 . S
C1092 C1093 1.373 1_545 S
C1092 C1094 1.389 . S
C1093 H1072 0.950 . S
C1093 C1092 1.373 1_565 S
C1093 C1109 1.377 . S
C1094 C1092 1.389 . S
C1094 C1095 1.524 . S
C1094 C1108 1.377 . S
C1095 C1094 1.524 . S
C1095 C1096 1.397 . S
C1095 C1100 1.363 . S
C1096 H1073 0.950 . S
C1096 C1095 1.397 . S
C1096 C1097 1.334 . S
C1097 H1074 0.950 . S
C1097 C1096 1.334 . S
C1097 C1098 1.287 . S
C1098 C1097 1.287 . S
C1098 C1099 1.524 . S
C1098 H1117 0.913 . S
C1099 H1075 0.950 . S
C1099 C1098 1.524 . S
C1099 C1100 1.415 . S
C1100 H1076 0.950 . S
C1100 C1095 1.363 . S
C1100 C1099 1.415 . S
C1101 H1077 0.951 . S
C1101 C1102 1.366 . S
C1101 C1103 1.388 . S
C1102 C1101 1.366 . S
C1102 C1106 1.385 . S
C1103 H1078 0.951 . S
C1103 C1101 1.388 . S
C1103 C1104 1.366 . S
C1104 C1103 1.366 . S
C1104 C1105 1.414 1_565 S
C1104 C1107 1.499 . S
C1105 H1079 0.950 . S
C1105 C1104 1.414 1_545 S
C1105 C1106 1.374 1_545 S
C1106 H1080 0.950 1_565 S
C1106 C1102 1.385 . S
C1106 C1105 1.374 1_565 S
C1107 C1104 1.499 . S
C1107 C1108 1.373 1_565 S
C1107 C1109 1.389 . S
C1108 H1081 0.950 . S
C1108 C1094 1.377 . S
C1108 C1107 1.373 1_545 S
C1109 C1093 1.377 . S
C1109 C1107 1.389 . S
C1109 C1110 1.524 . S
C1110 C1109 1.524 . S
C1110 C1111 1.397 . S
C1110 C1115 1.363 . S
C1111 H1082 0.950 . S
C1111 C1110 1.397 . S
C1111 C1112 1.334 . S
C1112 H1083 0.950 . S
C1112 C1111 1.334 . S
C1112 C1113 1.287 . S
C1113 C1112 1.287 . S
C1113 C1114 1.524 . S
C1113 H1116 0.999 . S
C1114 H1084 0.950 . S
C1114 C1113 1.524 . S
C1114 C1115 1.415 . S
C1115 H1085 0.950 . S
C1115 C1110 1.363 . S
C1115 C1114 1.415 . S
H1116 C1113 0.999 . S
H1117 C1098 0.913 . S
H1118 C1136 0.951 . S
H1119 C1138 0.951 . S
H1120 C1140 0.950 . S
H1121 C1141 0.931 1_455 S
H1122 C1143 0.950 . S
H1123 C1146 0.950 . S
H1124 C1147 0.950 . S
H1125 C1149 0.950 . S
H1126 C1150 0.950 . S
H1127 C1151 0.951 . S
H1128 C1153 0.951 . S
H1129 C1155 0.950 . S
H1130 C1156 0.931 1_655 S
H1131 C1158 0.950 . S
H1132 C1161 0.950 . S
H1133 C1162 0.950 . S
H1134 C1164 0.950 . S
H1135 C1165 0.950 . S
C1136 H1118 0.951 . S
C1136 C1137 1.366 . S
C1136 C1138 1.388 . S
C1137 C1136 1.366 . S
C1137 C1141 1.410 . S
C1138 H1119 0.951 . S
C1138 C1136 1.388 . S
C1138 C1139 1.366 . S
C1139 C1138 1.366 . S
C1139 C1140 1.414 1_655 S
C1139 C1142 1.499 . S
C1140 H1120 0.950 . S
C1140 C1139 1.414 1_455 S
C1140 C1141 1.368 1_455 S
C1141 H1121 0.931 1_655 S
C1141 C1137 1.410 . S
C1141 C1140 1.368 1_655 S
C1142 C1139 1.499 . S
C1142 C1143 1.373 1_655 S
C1142 C1144 1.389 . S
C1143 H1122 0.950 . S
C1143 C1142 1.373 1_455 S
C1143 C1159 1.377 . S
C1144 C1142 1.389 . S
C1144 C1145 1.524 . S
C1144 C1158 1.377 . S
C1145 C1144 1.524 . S
C1145 C1146 1.397 . S
C1145 C1150 1.363 . S
C1146 H1123 0.950 . S
C1146 C1145 1.397 . S
C1146 C1147 1.334 . S
C1147 H1124 0.950 . S
C1147 C1146 1.334 . S
C1147 C1148 1.287 . S
C1148 C1147 1.287 . S
C1148 C1149 1.524 . S
C1148 H1167 0.913 . S
C1149 H1125 0.950 . S
C1149 C1148 1.524 . S
C1149 C1150 1.415 . S
C1150 H1126 0.950 . S
C1150 C1145 1.363 . S
C1150 C1149 1.415 . S
C1151 H1127 0.951 . S
C1151 C1152 1.366 . S
C1151 C1153 1.388 . S
C1152 C1151 1.366 . S
C1152 C1156 1.410 . S
C1153 H1128 0.951 . S
C1153 C1151 1.388 . S
C1153 C1154 1.366 . S
C1154 C1153 1.366 . S
C1154 C1155 1.414 1_455 S
C1154 C1157 1.499 . S
C1155 H1129 0.950 . S
C1155 C1154 1.414 1_655 S
C1155 C1156 1.368 1_655 S
C1156 H1130 0.931 1_455 S
C1156 C1152 1.410 . S
C1156 C1155 1.368 1_455 S
C1157 C1154 1.499 . S
C1157 C1158 1.373 1_455 S
C1157 C1159 1.389 . S
C1158 H1131 0.950 . S
C1158 C1144 1.377 . S
C1158 C1157 1.373 1_655 S
C1159 C1143 1.377 . S
C1159 C1157 1.389 . S
C1159 C1160 1.524 . S
C1160 C1159 1.524 . S
C1160 C1161 1.397 . S
C1160 C1165 1.363 . S
C1161 H1132 0.950 . S
C1161 C1160 1.397 . S
C1161 C1162 1.334 . S
C1162 H1133 0.950 . S
C1162 C1161 1.334 . S
C1162 C1163 1.287 . S
C1163 C1162 1.287 . S
C1163 C1164 1.524 . S
C1163 H1166 0.999 . S
C1164 H1134 0.950 . S
C1164 C1163 1.524 . S
C1164 C1165 1.415 . S
C1165 H1135 0.950 . S
C1165 C1160 1.363 . S
C1165 C1164 1.415 . S
H1166 C1163 0.999 . S
H1167 C1148 0.913 . S
H1168 C1186 0.951 . S
H1169 C1188 0.951 . S
H1170 C1190 0.950 . S
H1171 C1191 0.950 . S
H1172 C1193 0.950 . S
H1173 C1196 0.950 . S
H1174 C1197 0.950 . S
H1175 C1199 0.950 . S
H1176 C1200 0.950 . S
H1177 C1201 0.951 . S
H1178 C1203 0.951 . S
H1179 C1205 0.950 . S
H1180 C1206 0.950 . S
H1181 C1208 0.950 . S
H1182 C1211 0.950 . S
H1183 C1212 0.950 . S
H1184 C1214 0.950 . S
H1185 C1215 0.950 . S
C1186 H1168 0.951 . S
C1186 C1187 1.366 . S
C1186 C1188 1.388 . S
C1187 C1186 1.366 . S
C1187 C1191 1.385 . S
C1188 H1169 0.951 . S
C1188 C1186 1.388 . S
C1188 C1189 1.366 . S
C1189 C1188 1.366 . S
C1189 C1190 1.414 . S
C1189 C1192 1.499 . S
C1190 H1170 0.950 . S
C1190 C1189 1.414 . S
C1190 C1191 1.374 . S
C1191 H1171 0.950 . S
C1191 C1187 1.385 . S
C1191 C1190 1.374 . S
C1192 C1189 1.499 . S
C1192 C1193 1.373 1_554 S
C1192 C1194 1.389 . S
C1193 H1172 0.950 . S
C1193 C1192 1.373 1_556 S
C1193 C1209 1.377 . S
C1194 C1192 1.389 . S
C1194 C1195 1.524 . S
C1194 C1208 1.377 . S
C1195 C1194 1.524 . S
C1195 C1196 1.397 . S
C1195 C1200 1.363 . S
C1196 H1173 0.950 . S
C1196 C1195 1.397 . S
C1196 C1197 1.334 . S
C1197 H1174 0.950 . S
C1197 C1196 1.334 . S
C1197 C1198 1.287 . S
C1198 C1197 1.287 . S
C1198 C1199 1.524 . S
C1198 H1217 0.913 . S
C1199 H1175 0.950 . S
C1199 C1198 1.524 . S
C1199 C1200 1.415 . S
C1200 H1176 0.950 . S
C1200 C1195 1.363 . S
C1200 C1199 1.415 . S
C1201 H1177 0.951 . S
C1201 C1202 1.366 . S
C1201 C1203 1.388 . S
C1202 C1201 1.366 . S
C1202 C1206 1.385 . S
C1203 H1178 0.951 . S
C1203 C1201 1.388 . S
C1203 C1204 1.366 . S
C1204 C1203 1.366 . S
C1204 C1205 1.414 . S
C1204 C1207 1.499 . S
C1205 H1179 0.950 . S
C1205 C1204 1.414 . S
C1205 C1206 1.374 . S
C1206 H1180 0.950 . S
C1206 C1202 1.385 . S
C1206 C1205 1.374 . S
C1207 C1204 1.499 . S
C1207 C1208 1.373 1_556 S
C1207 C1209 1.389 . S
C1208 H1181 0.950 . S
C1208 C1194 1.377 . S
C1208 C1207 1.373 1_554 S
C1209 C1193 1.377 . S
C1209 C1207 1.389 . S
C1209 C1210 1.524 . S
C1210 C1209 1.524 . S
C1210 C1211 1.397 . S
C1210 C1215 1.363 . S
C1211 H1182 0.950 . S
C1211 C1210 1.397 . S
C1211 C1212 1.334 . S
C1212 H1183 0.950 . S
C1212 C1211 1.334 . S
C1212 C1213 1.287 . S
C1213 C1212 1.287 . S
C1213 C1214 1.524 . S
C1213 H1216 0.999 . S
C1214 H1184 0.950 . S
C1214 C1213 1.524 . S
C1214 C1215 1.415 . S
C1215 H1185 0.950 . S
C1215 C1210 1.363 . S
C1215 C1214 1.415 . S
H1216 C1213 0.999 . S
H1217 C1198 0.913 . S
H1218 C1236 0.951 . S
H1219 C1238 0.951 . S
H1220 C1240 0.950 1_554 S
H1221 C1241 0.950 1_554 S
H1222 C1243 0.950 . S
H1223 C1246 0.950 . S
H1224 C1247 0.950 . S
H1225 C1249 0.950 . S
H1226 C1250 0.950 . S
H1227 C1251 0.951 . S
H1228 C1253 0.951 . S
H1229 C1255 0.950 1_556 S
H1230 C1256 0.950 1_556 S
H1231 C1258 0.950 . S
H1232 C1261 0.950 . S
H1233 C1262 0.950 . S
H1234 C1264 0.950 . S
H1235 C1265 0.950 . S
C1236 H1218 0.951 . S
C1236 C1237 1.366 . S
C1236 C1238 1.388 . S
C1237 C1236 1.366 . S
C1237 C1241 1.385 . S
C1238 H1219 0.951 . S
C1238 C1236 1.388 . S
C1238 C1239 1.366 . S
C1239 C1238 1.366 . S
C1239 C1240 1.414 . S
C1239 C1242 1.499 . S
C1240 H1220 0.950 1_556 S
C1240 C1239 1.414 . S
C1240 C1241 1.374 . S
C1241 H1221 0.950 1_556 S
C1241 C1237 1.385 . S
C1241 C1240 1.374 . S
C1242 C1239 1.499 . S
C1242 C1243 1.373 1_556 S
C1242 C1244 1.389 . S
C1243 H1222 0.950 . S
C1243 C1242 1.373 1_554 S
C1243 C1259 1.377 . S
C1244 C1242 1.389 . S
C1244 C1245 1.524 . S
C1244 C1258 1.377 . S
C1245 C1244 1.524 . S
C1245 C1246 1.397 . S
C1245 C1250 1.363 . S
C1246 H1223 0.950 . S
C1246 C1245 1.397 . S
C1246 C1247 1.334 . S
C1247 H1224 0.950 . S
C1247 C1246 1.334 . S
C1247 C1248 1.287 . S
C1248 C1247 1.287 . S
C1248 C1249 1.524 . S
C1248 H1267 0.913 . S
C1249 H1225 0.950 . S
C1249 C1248 1.524 . S
C1249 C1250 1.415 . S
C1250 H1226 0.950 . S
C1250 C1245 1.363 . S
C1250 C1249 1.415 . S
C1251 H1227 0.951 . S
C1251 C1252 1.366 . S
C1251 C1253 1.388 . S
C1252 C1251 1.366 . S
C1252 C1256 1.385 . S
C1253 H1228 0.951 . S
C1253 C1251 1.388 . S
C1253 C1254 1.366 . S
C1254 C1253 1.366 . S
C1254 C1255 1.414 . S
C1254 C1257 1.499 . S
C1255 H1229 0.950 1_554 S
C1255 C1254 1.414 . S
C1255 C1256 1.374 . S
C1256 H1230 0.950 1_554 S
C1256 C1252 1.385 . S
C1256 C1255 1.374 . S
C1257 C1254 1.499 . S
C1257 C1258 1.373 1_554 S
C1257 C1259 1.389 . S
C1258 H1231 0.950 . S
C1258 C1244 1.377 . S
C1258 C1257 1.373 1_556 S
C1259 C1243 1.377 . S
C1259 C1257 1.389 . S
C1259 C1260 1.524 . S
C1260 C1259 1.524 . S
C1260 C1261 1.397 . S
C1260 C1265 1.363 . S
C1261 H1232 0.950 . S
C1261 C1260 1.397 . S
C1261 C1262 1.334 . S
C1262 H1233 0.950 . S
C1262 C1261 1.334 . S
C1262 C1263 1.287 . S
C1263 C1262 1.287 . S
C1263 C1264 1.524 . S
C1263 H1266 0.999 . S
C1264 H1234 0.950 . S
C1264 C1263 1.524 . S
C1264 C1265 1.415 . S
C1265 H1235 0.950 . S
C1265 C1260 1.363 . S
C1265 C1264 1.415 . S
H1266 C1263 0.999 . S
H1267 C1248 0.913 . S
H1268 C1286 0.951 . S
H1269 C1288 0.951 . S
H1270 C1290 0.950 . S
H1271 C1291 0.930 1_554 S
H1272 C1293 0.950 . S
H1273 C1296 0.958 . S
H1274 C1297 0.950 1_554 S
H1275 C1299 0.950 . S
H1276 C1300 0.950 . S
H1277 C1301 0.951 . S
H1278 C1303 0.951 . S
H1279 C1305 0.950 . S
H1280 C1306 0.930 1_556 S
H1281 C1308 0.950 . S
H1282 C1311 0.958 . S
H1283 C1312 0.950 1_556 S
H1284 C1314 0.950 . S
H1285 C1315 0.950 . S
C1286 H1268 0.951 . S
C1286 C1287 1.366 . S
C1286 C1288 1.388 . S
C1287 C1286 1.366 . S
C1287 C1291 1.412 . S
C1288 H1269 0.951 . S
C1288 C1286 1.388 . S
C1288 C1289 1.366 . S
C1289 C1288 1.366 . S
C1289 C1290 1.414 1_556 S
C1289 C1292 1.499 . S
C1290 H1270 0.950 . S
C1290 C1289 1.414 1_554 S
C1290 C1291 1.367 1_554 S
C1291 H1271 0.930 1_556 S
C1291 C1287 1.412 . S
C1291 C1290 1.367 1_556 S
C1292 C1289 1.499 . S
C1292 C1293 1.373 1_556 S
C1292 C1294 1.389 . S
C1293 H1272 0.950 . S
C1293 C1292 1.373 1_554 S
C1293 C1309 1.377 . S
C1294 C1292 1.389 . S
C1294 C1295 1.524 . S
C1294 C1308 1.377 . S
C1295 C1294 1.524 . S
C1295 C1296 1.390 1_556 S
C1295 C1300 1.363 . S
C1296 H1273 0.958 . S
C1296 C1295 1.390 1_554 S
C1296 C1297 1.332 1_554 S
C1297 H1274 0.950 1_556 S
C1297 C1296 1.332 1_556 S
C1297 C1298 1.287 . S
C1298 C1297 1.287 . S
C1298 C1299 1.524 . S
C1298 H1317 0.913 . S
C1299 H1275 0.950 . S
C1299 C1298 1.524 . S
C1299 C1300 1.415 . S
C1300 H1276 0.950 . S
C1300 C1295 1.363 . S
C1300 C1299 1.415 . S
C1301 H1277 0.951 . S
C1301 C1302 1.366 . S
C1301 C1303 1.388 . S
C1302 C1301 1.366 . S
C1302 C1306 1.412 . S
C1303 H1278 0.951 . S
C1303 C1301 1.388 . S
C1303 C1304 1.366 . S
C1304 C1303 1.366 . S
C1304 C1305 1.414 1_554 S
C1304 C1307 1.499 . S
C1305 H1279 0.950 . S
C1305 C1304 1.414 1_556 S
C1305 C1306 1.367 1_556 S
C1306 H1280 0.930 1_554 S
C1306 C1302 1.412 . S
C1306 C1305 1.367 1_554 S
C1307 C1304 1.499 . S
C1307 C1308 1.373 1_554 S
C1307 C1309 1.389 . S
C1308 H1281 0.950 . S
C1308 C1294 1.377 . S
C1308 C1307 1.373 1_556 S
C1309 C1293 1.377 . S
C1309 C1307 1.389 . S
C1309 C1310 1.524 . S
C1310 C1309 1.524 . S
C1310 C1311 1.390 1_554 S
C1310 C1315 1.363 . S
C1311 H1282 0.958 . S
C1311 C1310 1.390 1_556 S
C1311 C1312 1.332 1_556 S
C1312 H1283 0.950 1_554 S
C1312 C1311 1.332 1_554 S
C1312 C1313 1.287 . S
C1313 C1312 1.287 . S
C1313 C1314 1.524 . S
C1313 H1316 0.999 . S
C1314 H1284 0.950 . S
C1314 C1313 1.524 . S
C1314 C1315 1.415 . S
C1315 H1285 0.950 . S
C1315 C1310 1.363 . S
C1315 C1314 1.415 . S
H1316 C1313 0.999 . S
H1317 C1298 0.913 . S
H1318 C1336 0.951 . S
H1319 C1338 0.951 . S
H1320 C1340 0.950 . S
H1321 C1341 0.940 1_556 S
H1322 C1343 0.950 . S
H1323 C1346 0.950 . S
H1324 C1347 0.950 . S
H1325 C1349 0.950 . S
H1326 C1350 0.950 . S
H1327 C1351 0.951 . S
H1328 C1353 0.951 . S
H1329 C1355 0.950 . S
H1330 C1356 0.940 1_554 S
H1331 C1358 0.950 . S
H1332 C1361 0.950 . S
H1333 C1362 0.950 . S
H1334 C1364 0.950 . S
H1335 C1365 0.950 . S
C1336 H1318 0.951 . S
C1336 C1337 1.366 . S
C1336 C1338 1.388 . S
C1337 C1336 1.366 . S
C1337 C1341 1.398 . S
C1338 H1319 0.951 . S
C1338 C1336 1.388 . S
C1338 C1339 1.366 . S
C1339 C1338 1.366 . S
C1339 C1340 1.414 1_554 S
C1339 C1342 1.499 . S
C1340 H1320 0.950 . S
C1340 C1339 1.414 1_556 S
C1340 C1341 1.370 1_556 S
C1341 H1321 0.940 1_554 S
C1341 C1337 1.398 . S
C1341 C1340 1.370 1_554 S
C1342 C1339 1.499 . S
C1342 C1343 1.373 1_554 S
C1342 C1344 1.389 . S
C1343 H1322 0.950 . S
C1343 C1342 1.373 1_556 S
C1343 C1359 1.377 . S
C1344 C1342 1.389 . S
C1344 C1345 1.524 . S
C1344 C1358 1.377 . S
C1345 C1344 1.524 . S
C1345 C1346 1.397 . S
C1345 C1350 1.363 . S
C1346 H1323 0.950 . S
C1346 C1345 1.397 . S
C1346 C1347 1.334 . S
C1347 H1324 0.950 . S
C1347 C1346 1.334 . S
C1347 C1348 1.287 . S
C1348 C1347 1.287 . S
C1348 C1349 1.524 . S
C1348 H1367 0.913 . S
C1349 H1325 0.950 . S
C1349 C1348 1.524 . S
C1349 C1350 1.415 . S
C1350 H1326 0.950 . S
C1350 C1345 1.363 . S
C1350 C1349 1.415 . S
C1351 H1327 0.951 . S
C1351 C1352 1.366 . S
C1351 C1353 1.388 . S
C1352 C1351 1.366 . S
C1352 C1356 1.398 . S
C1353 H1328 0.951 . S
C1353 C1351 1.388 . S
C1353 C1354 1.366 . S
C1354 C1353 1.366 . S
C1354 C1355 1.414 1_556 S
C1354 C1357 1.499 . S
C1355 H1329 0.950 . S
C1355 C1354 1.414 1_554 S
C1355 C1356 1.370 1_554 S
C1356 H1330 0.940 1_556 S
C1356 C1352 1.398 . S
C1356 C1355 1.370 1_556 S
C1357 C1354 1.499 . S
C1357 C1358 1.373 1_556 S
C1357 C1359 1.389 . S
C1358 H1331 0.950 . S
C1358 C1344 1.377 . S
C1358 C1357 1.373 1_554 S
C1359 C1343 1.377 . S
C1359 C1357 1.389 . S
C1359 C1360 1.524 . S
C1360 C1359 1.524 . S
C1360 C1361 1.397 . S
C1360 C1365 1.363 . S
C1361 H1332 0.950 . S
C1361 C1360 1.397 . S
C1361 C1362 1.334 . S
C1362 H1333 0.950 . S
C1362 C1361 1.334 . S
C1362 C1363 1.287 . S
C1363 C1362 1.287 . S
C1363 C1364 1.524 . S
C1363 H1366 0.999 . S
C1364 H1334 0.950 . S
C1364 C1363 1.524 . S
C1364 C1365 1.415 . S
C1365 H1335 0.950 . S
C1365 C1360 1.363 . S
C1365 C1364 1.415 . S
H1366 C1363 0.999 . S
H1367 C1348 0.913 . S
C187 C12 1.396 . S
C202 C99 1.397 . S
C237 C27 1.396 . S
C252 C69 1.396 . S
C287 C71 1.396 . S
C302 C29 1.395 . S
C337 C97 1.395 . S
C352 C55 1.396 . S
C387 C113 1.397 . S
C402 C110 1.396 . S
C437 C126 1.396 . S
C452 C56 1.396 . S
C487 C140 1.395 . S
C502 C82 1.396 . S
C537 C167 1.395 . S
C552 C84 1.395 . S
C587 C14 1.396 . S
C602 C139 1.397 . S
C637 C153 1.396 . S
C652 C40 1.395 . S
C687 C42 1.396 . S
C702 C154 1.396 . S
C737 C124 1.396 . S
C752 C1 1.396 . S
C787 C85 1.767 . S
C802 C0 1.765 . S
C837 C111 1.764 . S
C852 C15 1.764 . S
C887 C57 1.766 . S
C902 C41 1.766 . S
C937 C43 1.765 . S
C952 C83 1.765 . S
C987 C98 1.765 . S
C1002 C70 1.765 . S
C1037 C68 1.766 . S
C1052 C96 1.766 . S
C1087 C54 1.765 . S
C1102 C26 1.765 . S
C1137 C28 1.766 . S
C1152 C13 1.765 . S
C1187 C112 1.765 . S
C1202 C138 1.765 . S
C1237 C127 1.765 . S
C1252 C152 1.767 . S
C1287 C155 1.766 . S
C1302 C141 1.766 . S
C1337 C125 1.765 . S
C1352 C166 1.766 . S
