# Generated by pormake.
# Topology upb, (4)-cn, num edge types: 1
# Building blocks:
#     Node 0, Type 0, BuildingBlock: UXUYUI_clean_sbu_0, # of connection points: 4
#     Node 1, Type 0, BuildingBlock: UXUYUI_clean_sbu_0, # of connection points: 4
#     Node 2, Type 0, BuildingBlock: UXUYUI_clean_sbu_0, # of connection points: 4
#     Node 3, Type 0, BuildingBlock: UXUYUI_clean_sbu_0, # of connection points: 4
#     Node 4, Type 0, BuildingBlock: UXUYUI_clean_sbu_0, # of connection points: 4
#     Node 5, Type 0, BuildingBlock: UXUYUI_clean_sbu_0, # of connection points: 4
#     Node 6, Type 0, BuildingBlock: UXUYUI_clean_sbu_0, # of connection points: 4
#     Node 7, Type 0, BuildingBlock: UXUYUI_clean_sbu_0, # of connection points: 4
#     Node 8, Type 0, BuildingBlock: UXUYUI_clean_sbu_0, # of connection points: 4
#     Node 9, Type 0, BuildingBlock: UXUYUI_clean_sbu_0, # of connection points: 4
#     Node 10, Type 0, BuildingBlock: UXUYUI_clean_sbu_0, # of connection points: 4
#     Node 11, Type 0, BuildingBlock: UXUYUI_clean_sbu_0, # of connection points: 4
#     Node 12, Type 0, BuildingBlock: UXUYUI_clean_sbu_0, # of connection points: 4
#     Node 13, Type 0, BuildingBlock: UXUYUI_clean_sbu_0, # of connection points: 4
#     Node 14, Type 0, BuildingBlock: UXUYUI_clean_sbu_0, # of connection points: 4
#     Node 15, Type 0, BuildingBlock: UXUYUI_clean_sbu_0, # of connection points: 4
#     Edge 16, Type (0, 0), BuildingBlock: ZUJKAS_clean_linker_0, # of connection points: 2
#     Edge 17, Type (0, 0), BuildingBlock: ZUJKAS_clean_linker_0, # of connection points: 2
#     Edge 18, Type (0, 0), BuildingBlock: ZUJKAS_clean_linker_0, # of connection points: 2
#     Edge 19, Type (0, 0), BuildingBlock: ZUJKAS_clean_linker_0, # of connection points: 2
#     Edge 20, Type (0, 0), BuildingBlock: ZUJKAS_clean_linker_0, # of connection points: 2
#     Edge 21, Type (0, 0), BuildingBlock: ZUJKAS_clean_linker_0, # of connection points: 2
#     Edge 22, Type (0, 0), BuildingBlock: ZUJKAS_clean_linker_0, # of connection points: 2
#     Edge 23, Type (0, 0), BuildingBlock: ZUJKAS_clean_linker_0, # of connection points: 2
#     Edge 24, Type (0, 0), BuildingBlock: ZUJKAS_clean_linker_0, # of connection points: 2
#     Edge 25, Type (0, 0), BuildingBlock: ZUJKAS_clean_linker_0, # of connection points: 2
#     Edge 26, Type (0, 0), BuildingBlock: ZUJKAS_clean_linker_0, # of connection points: 2
#     Edge 27, Type (0, 0), BuildingBlock: ZUJKAS_clean_linker_0, # of connection points: 2
#     Edge 28, Type (0, 0), BuildingBlock: ZUJKAS_clean_linker_0, # of connection points: 2
#     Edge 29, Type (0, 0), BuildingBlock: ZUJKAS_clean_linker_0, # of connection points: 2
#     Edge 30, Type (0, 0), BuildingBlock: ZUJKAS_clean_linker_0, # of connection points: 2
#     Edge 31, Type (0, 0), BuildingBlock: ZUJKAS_clean_linker_0, # of connection points: 2
#     Edge 32, Type (0, 0), BuildingBlock: ZUJKAS_clean_linker_0, # of connection points: 2
#     Edge 33, Type (0, 0), BuildingBlock: ZUJKAS_clean_linker_0, # of connection points: 2
#     Edge 34, Type (0, 0), BuildingBlock: ZUJKAS_clean_linker_0, # of connection points: 2
#     Edge 35, Type (0, 0), BuildingBlock: ZUJKAS_clean_linker_0, # of connection points: 2
#     Edge 36, Type (0, 0), BuildingBlock: ZUJKAS_clean_linker_0, # of connection points: 2
#     Edge 37, Type (0, 0), BuildingBlock: ZUJKAS_clean_linker_0, # of connection points: 2
#     Edge 38, Type (0, 0), BuildingBlock: ZUJKAS_clean_linker_0, # of connection points: 2
#     Edge 39, Type (0, 0), BuildingBlock: ZUJKAS_clean_linker_0, # of connection points: 2
#     Edge 40, Type (0, 0), BuildingBlock: ZUJKAS_clean_linker_0, # of connection points: 2
#     Edge 41, Type (0, 0), BuildingBlock: ZUJKAS_clean_linker_0, # of connection points: 2
#     Edge 42, Type (0, 0), BuildingBlock: ZUJKAS_clean_linker_0, # of connection points: 2
#     Edge 43, Type (0, 0), BuildingBlock: ZUJKAS_clean_linker_0, # of connection points: 2
#     Edge 44, Type (0, 0), BuildingBlock: ZUJKAS_clean_linker_0, # of connection points: 2
#     Edge 45, Type (0, 0), BuildingBlock: ZUJKAS_clean_linker_0, # of connection points: 2
#     Edge 46, Type (0, 0), BuildingBlock: ZUJKAS_clean_linker_0, # of connection points: 2
#     Edge 47, Type (0, 0), BuildingBlock: ZUJKAS_clean_linker_0, # of connection points: 2
# Relax obj value: 0.322
# Max RMSD: 0.141
# Mean RMSD: 0.140
data_MOF--net-upb--node1-UXUYUI_clean_sbu_0--edge1-ZUJKAS_clean_linker_0
_symmetry_space_group_name_H-M    P1
_symmetry_Int_Tables_number       1
_symmetry_cell_setting            triclinic
loop_
_symmetry_equiv_pos_as_xyz
'x, y, z'
_cell_length_a     61.689846
_cell_length_b     61.62124
_cell_length_c     86.912955
_cell_angle_alpha  90.002288
_cell_angle_beta   89.999937
_cell_angle_gamma 90.001979
loop_
_atom_site_label
_atom_site_type_symbol
_atom_site_fract_x
_atom_site_fract_y
_atom_site_fract_z
_atom_type_partial_charge
Li0 Li 0.01188 0.28465 0.34779 0.0
Li1 Li 0.99402 0.30812 0.36636 0.0
Li2 Li 0.97289 0.28629 0.34685 0.0
Li3 Li 0.99398 0.31779 0.33894 0.0
C4 C 0.00101 0.2578 0.36946 0.0
N5 N 0.02207 0.2208 0.37936 0.0
C6 C 0.01417 0.25849 0.38254 0.0
C7 C 0.99838 0.23827 0.36151 0.0
C8 C 0.02472 0.2396 0.38735 0.0
C9 C 0.00922 0.21975 0.36667 0.0
C10 C 0.02734 0.33508 0.35667 0.0
C11 C 0.02186 0.37258 0.36358 0.0
N12 N 0.04368 0.3757 0.36347 0.0
C13 C 0.04971 0.33865 0.35661 0.0
C14 C 0.01328 0.35216 0.36018 0.0
C15 C 0.05766 0.3593 0.36009 0.0
C16 C 0.03815 0.25282 0.33321 0.0
N17 N 0.03675 0.26673 0.34529 0.0
C18 C 0.07109 0.25488 0.35484 0.0
C19 C 0.05284 0.2682 0.35593 0.0
C20 C 0.07287 0.24009 0.3426 0.0
C21 C 0.05613 0.23925 0.33164 0.0
H22 H 0.02527 0.25215 0.32483 0.0
H23 H 0.05137 0.27961 0.36533 0.0
C24 C 0.97595 0.32204 0.3945 0.0
N25 N 0.99482 0.31824 0.38691 0.0
C26 C 0.97626 0.32834 0.40994 0.0
C27 C 0.01542 0.32683 0.40936 0.0
C28 C 0.01435 0.32058 0.39395 0.0
C29 C 0.9962 0.33061 0.41762 0.0
H30 H 0.96066 0.3198 0.38863 0.0
H31 H 0.02908 0.31707 0.38769 0.0
C32 C 0.98346 0.2802 0.31676 0.0
N33 N 0.96283 0.26318 0.29124 0.0
C34 C 0.97553 0.29398 0.30528 0.0
C35 C 0.98101 0.25775 0.3152 0.0
C36 C 0.96513 0.28506 0.29249 0.0
C37 C 0.97049 0.24947 0.30224 0.0
C38 C 0.95238 0.33063 0.34927 0.0
C39 C 0.94177 0.3277 0.33523 0.0
C40 C 0.94615 0.34763 0.35896 0.0
C41 C 0.92495 0.34174 0.33114 0.0
C42 C 0.92926 0.36134 0.35447 0.0
N43 N 0.91909 0.35812 0.34077 0.0
C44 C 0.94215 0.25625 0.35678 0.0
C45 C 0.93451 0.26904 0.33168 0.0
C46 C 0.92466 0.24192 0.3561 0.0
N47 N 0.94702 0.26916 0.34458 0.0
C48 C 0.91691 0.25487 0.33046 0.0
C49 C 0.91196 0.24082 0.3427 0.0
H50 H 0.95205 0.25685 0.36703 0.0
H51 H 0.93839 0.27948 0.32212 0.0
C52 C 0.01532 0.33802 0.31555 0.0
N53 N 0.99786 0.34105 0.3248 0.0
C54 C 0.02118 0.35374 0.30482 0.0
C55 C 0.99086 0.37556 0.31322 0.0
C56 C 0.98574 0.35947 0.32398 0.0
C57 C 0.00883 0.37282 0.30344 0.0
H58 H 0.02489 0.32339 0.3167 0.0
H59 H 0.9723 0.3619 0.33171 0.0
O60 O 0.99104 0.27624 0.36432 0.0
O61 O 0.01939 0.31494 0.35323 0.0
O62 O 0.99386 0.28864 0.32932 0.0
O63 O 0.96896 0.31716 0.35347 0.0
H64 H 0.01638 0.27348 0.38882 0.0
H65 H 0.98822 0.23749 0.35138 0.0
H66 H 0.03506 0.23991 0.3974 0.0
H67 H 0.00746 0.20456 0.36056 0.0
H68 H 0.01116 0.38595 0.36631 0.0
H69 H 0.06079 0.32557 0.35391 0.0
H70 H 0.99593 0.34971 0.36029 0.0
H71 H 0.07494 0.3623 0.36009 0.0
H72 H 0.08374 0.25627 0.36343 0.0
H73 H 0.05673 0.22796 0.3221 0.0
H74 H 0.96106 0.33125 0.41582 0.0
H75 H 0.03112 0.32797 0.41487 0.0
H76 H 0.97727 0.31138 0.30626 0.0
H77 H 0.98688 0.24684 0.32401 0.0
H78 H 0.95885 0.29554 0.28355 0.0
H79 H 0.96836 0.23214 0.30094 0.0
H80 H 0.94678 0.31503 0.32745 0.0
H81 H 0.95435 0.35028 0.36981 0.0
H82 H 0.91665 0.33969 0.32027 0.0
H83 H 0.92428 0.37456 0.36185 0.0
H84 H 0.92118 0.23177 0.36596 0.0
H85 H 0.9077 0.25451 0.31986 0.0
H86 H 0.03553 0.35108 0.29792 0.0
H87 H 0.98081 0.38993 0.31258 0.0
Li88 Li 0.67672 0.98984 0.33741 0.0
Li89 Li 0.70792 0.01047 0.34702 0.0
Li90 Li 0.70797 0.97076 0.34642 0.0
Li91 Li 0.68522 0.99062 0.36474 0.0
C92 C 0.72154 0.9827 0.31928 0.0
N93 N 0.75342 0.96408 0.30126 0.0
C94 C 0.74201 0.99233 0.31826 0.0
C95 C 0.71725 0.96367 0.31107 0.0
C96 C 0.75791 0.98266 0.30909 0.0
C97 C 0.7336 0.95448 0.30205 0.0
C98 C 0.67506 0.03704 0.34985 0.0
C99 C 0.68235 0.07336 0.35885 0.0
N100 N 0.67343 0.08149 0.34575 0.0
C101 C 0.66599 0.04576 0.33647 0.0
C102 C 0.6833 0.05094 0.36115 0.0
C103 C 0.66529 0.06827 0.33463 0.0
C104 C 0.63366 0.99725 0.32827 0.0
N105 N 0.65324 0.99016 0.32317 0.0
C106 C 0.63928 0.98574 0.29773 0.0
C107 C 0.65629 0.98421 0.30827 0.0
C108 C 0.61901 0.99375 0.30252 0.0
C109 C 0.61626 0.99921 0.3181 0.0
H110 H 0.63177 0.00199 0.34018 0.0
H111 H 0.67202 0.97867 0.30451 0.0
C112 C 0.74183 0.03897 0.35484 0.0
N113 N 0.72571 0.03557 0.34447 0.0
C114 C 0.75511 0.0572 0.35367 0.0
C115 C 0.73531 0.06796 0.33092 0.0
C116 C 0.72246 0.0494 0.3325 0.0
C117 C 0.75185 0.07212 0.34166 0.0
H118 H 0.7445 0.02743 0.36399 0.0
H119 H 0.70979 0.04608 0.32423 0.0
C120 C 0.65842 0.95533 0.34859 0.0
N121 N 0.61883 0.93759 0.3407 0.0
C122 C 0.64014 0.95946 0.35762 0.0
C123 C 0.6566 0.94211 0.33558 0.0
C124 C 0.62026 0.95033 0.35344 0.0
C125 C 0.63643 0.93333 0.33177 0.0
C126 C 0.72318 0.98745 0.37814 0.0
C127 C 0.72881 0.96679 0.38346 0.0
C128 C 0.72259 0.00487 0.38844 0.0
C129 C 0.7337 0.9639 0.39902 0.0
C130 C 0.72751 0.0013 0.40393 0.0
N131 N 0.73292 0.98106 0.40885 0.0
C132 C 0.74846 0.95107 0.34505 0.0
C133 C 0.7196 0.92617 0.34149 0.0
C134 C 0.76367 0.9345 0.34347 0.0
N135 N 0.72694 0.94667 0.344 0.0
C136 C 0.73429 0.90905 0.33983 0.0
C137 C 0.75668 0.91313 0.3408 0.0
H138 H 0.75378 0.96751 0.34722 0.0
H139 H 0.70238 0.92312 0.3408 0.0
C140 C 0.66574 0.00871 0.39138 0.0
N141 N 0.67396 0.99027 0.38511 0.0
C142 C 0.66013 0.00932 0.40694 0.0
C143 C 0.67052 0.9716 0.40906 0.0
C144 C 0.67583 0.97171 0.39346 0.0
C145 C 0.66299 0.99072 0.41607 0.0
H146 H 0.66416 0.02315 0.38444 0.0
H147 H 0.6822 0.95721 0.38809 0.0
O148 O 0.70591 0.99164 0.32847 0.0
O149 O 0.67615 0.01502 0.3518 0.0
O150 O 0.6779 0.96455 0.35228 0.0
O151 O 0.71779 0.99051 0.36302 0.0
H152 H 0.74567 0.00699 0.32458 0.0
H153 H 0.70162 0.95581 0.3119 0.0
H154 H 0.77385 0.98989 0.30824 0.0
H155 H 0.73057 0.93965 0.29575 0.0
H156 H 0.6888 0.08429 0.36744 0.0
H157 H 0.65978 0.03529 0.32752 0.0
H158 H 0.69072 0.04451 0.37145 0.0
H159 H 0.65837 0.07523 0.32431 0.0
H160 H 0.6421 0.98104 0.28589 0.0
H161 H 0.60112 0.0058 0.32231 0.0
H162 H 0.768 0.0594 0.36198 0.0
H163 H 0.73215 0.07902 0.32151 0.0
H164 H 0.64123 0.96977 0.36767 0.0
H165 H 0.67054 0.93898 0.32836 0.0
H166 H 0.60595 0.95346 0.36028 0.0
H167 H 0.63475 0.9232 0.32167 0.0
H168 H 0.72913 0.95306 0.37572 0.0
H169 H 0.718 0.02091 0.38458 0.0
H170 H 0.73799 0.94799 0.4033 0.0
H171 H 0.72693 0.01459 0.41204 0.0
H172 H 0.78072 0.93837 0.34461 0.0
H173 H 0.7282 0.89285 0.33769 0.0
H174 H 0.65449 0.02442 0.41188 0.0
H175 H 0.67264 0.95682 0.41564 0.0
Li176 Li 0.98945 0.71137 0.346 0.0
Li177 Li 0.00928 0.68795 0.36511 0.0
Li178 Li 0.02857 0.71206 0.34565 0.0
Li179 Li 0.0099 0.68002 0.33772 0.0
C180 C 0.99772 0.73656 0.36987 0.0
N181 N 0.97317 0.76896 0.38327 0.0
C182 C 0.98647 0.73255 0.38354 0.0
C183 C 0.99662 0.7571 0.36308 0.0
C184 C 0.97413 0.74914 0.39013 0.0
C185 C 0.98406 0.77324 0.37001 0.0
C186 C 0.97168 0.66464 0.34629 0.0
C187 C 0.96267 0.62667 0.34428 0.0
N188 N 0.94732 0.63157 0.3336 0.0
C189 C 0.95575 0.66933 0.33536 0.0
C190 C 0.97513 0.64317 0.35087 0.0
C191 C 0.94361 0.65237 0.32906 0.0
C192 C 0.96126 0.74049 0.33062 0.0
N193 N 0.96374 0.72806 0.3434 0.0
C194 C 0.93005 0.74076 0.35356 0.0
C195 C 0.9484 0.72758 0.35462 0.0
C196 C 0.92734 0.75435 0.3407 0.0
C197 C 0.94311 0.75383 0.32903 0.0
H198 H 0.97343 0.74018 0.3217 0.0
H199 H 0.95067 0.71727 0.36456 0.0
C200 C 0.02527 0.68494 0.39514 0.0
N201 N 0.00929 0.67789 0.38563 0.0
C202 C 0.02466 0.6799 0.4108 0.0
C203 C 0.99151 0.65989 0.40643 0.0
C204 C 0.99268 0.66546 0.39088 0.0
C205 C 0.00744 0.66745 0.41669 0.0
H206 H 0.03809 0.69509 0.39063 0.0
H207 H 0.98001 0.66037 0.38308 0.0
C208 C 0.01942 0.71989 0.31672 0.0
N209 N 0.04212 0.7423 0.29438 0.0
C210 C 0.03073 0.7086 0.30531 0.0
C211 C 0.0196 0.74257 0.31674 0.0
C212 C 0.0421 0.72023 0.29411 0.0
C213 C 0.03121 0.75361 0.30537 0.0
C214 C 0.04852 0.66488 0.34896 0.0
C215 C 0.05999 0.66432 0.33511 0.0
C216 C 0.0511 0.64814 0.35965 0.0
C217 C 0.07378 0.64684 0.33211 0.0
C218 C 0.06508 0.63096 0.35623 0.0
N219 N 0.07602 0.63066 0.34264 0.0
C220 C 0.05517 0.74704 0.35389 0.0
C221 C 0.06842 0.72762 0.33235 0.0
C222 C 0.07232 0.76173 0.35291 0.0
N223 N 0.05333 0.73059 0.34357 0.0
C224 C 0.08574 0.74209 0.33083 0.0
C225 C 0.08778 0.75956 0.34113 0.0
H226 H 0.04332 0.74879 0.36295 0.0
H227 H 0.06689 0.71425 0.32442 0.0
C228 C 0.99659 0.66129 0.31031 0.0
N229 N 0.00803 0.65655 0.32323 0.0
C230 C 0.99145 0.64505 0.29977 0.0
C231 C 0.01049 0.61927 0.31574 0.0
C232 C 0.01497 0.63599 0.32613 0.0
C233 C 0.99824 0.6236 0.30244 0.0
H234 H 0.99061 0.67759 0.30853 0.0
H235 H 0.02316 0.63228 0.33676 0.0
O236 O 0.00952 0.7204 0.36307 0.0
O237 O 0.98418 0.68095 0.35222 0.0
O238 O 0.00823 0.70879 0.32781 0.0
O239 O 0.03504 0.68186 0.35219 0.0
H240 H 0.98707 0.71674 0.38894 0.0
H241 H 0.00521 0.76047 0.3525 0.0
H242 H 0.96526 0.74623 0.40066 0.0
H243 H 0.98295 0.78916 0.36482 0.0
H244 H 0.96529 0.60996 0.34759 0.0
H245 H 0.95298 0.68586 0.33163 0.0
H246 H 0.98759 0.63925 0.35918 0.0
H247 H 0.93132 0.65574 0.32051 0.0
H248 H 0.91844 0.74072 0.3629 0.0
H249 H 0.94147 0.76364 0.31876 0.0
H250 H 0.03709 0.68644 0.41827 0.0
H251 H 0.97808 0.65005 0.41039 0.0
H252 H 0.03097 0.69106 0.30517 0.0
H253 H 0.01108 0.75157 0.32554 0.0
H254 H 0.05099 0.71171 0.28525 0.0
H255 H 0.03159 0.77116 0.30531 0.0
H256 H 0.05802 0.67705 0.32667 0.0
H257 H 0.04236 0.6484 0.37045 0.0
H258 H 0.08266 0.6461 0.32139 0.0
H259 H 0.06721 0.61785 0.36437 0.0
H260 H 0.07348 0.77456 0.36138 0.0
H261 H 0.09715 0.7398 0.3215 0.0
H262 H 0.98142 0.64921 0.28999 0.0
H263 H 0.01617 0.60305 0.31832 0.0
Li264 Li 0.3153 0.00923 0.36503 0.0
Li265 Li 0.29437 0.02761 0.34491 0.0
Li266 Li 0.29457 0.98796 0.34687 0.0
Li267 Li 0.32666 0.00831 0.33821 0.0
C268 C 0.27594 0.01255 0.37628 0.0
N269 N 0.2626 0.02007 0.40616 0.0
C270 C 0.2694 0.03332 0.38078 0.0
C271 C 0.27557 0.99557 0.38695 0.0
C272 C 0.26271 0.03679 0.39594 0.0
C273 C 0.26883 0.99972 0.40202 0.0
C274 C 0.3428 0.04485 0.34917 0.0
C275 C 0.36532 0.06659 0.33255 0.0
N276 N 0.38166 0.06535 0.34302 0.0
C277 C 0.35976 0.04387 0.35981 0.0
C278 C 0.34552 0.0564 0.33547 0.0
C279 C 0.3793 0.05432 0.35647 0.0
C280 C 0.33336 0.99264 0.39243 0.0
N281 N 0.32467 0.01063 0.38583 0.0
C282 C 0.32593 0.02966 0.40974 0.0
C283 C 0.32142 0.02914 0.39401 0.0
C284 C 0.33412 0.01102 0.41702 0.0
C285 C 0.33823 0.99247 0.4081 0.0
H286 H 0.33601 0.97824 0.38562 0.0
H287 H 0.31474 0.04329 0.38838 0.0
C288 C 0.25407 0.04676 0.34035 0.0
N289 N 0.2756 0.05135 0.34082 0.0
C290 C 0.23899 0.06329 0.33812 0.0
C291 C 0.26849 0.08909 0.33703 0.0
C292 C 0.28306 0.07197 0.33919 0.0
C293 C 0.2461 0.08482 0.33654 0.0
H294 H 0.24863 0.03023 0.34198 0.0
H295 H 0.30027 0.07517 0.3398 0.0
C296 C 0.32785 0.96209 0.35213 0.0
N297 N 0.33171 0.91757 0.34947 0.0
C298 C 0.33921 0.95306 0.33977 0.0
C299 C 0.31853 0.94848 0.36316 0.0
C300 C 0.34098 0.93051 0.33863 0.0
C301 C 0.32062 0.92601 0.3616 0.0
C302 C 0.28438 0.01385 0.31729 0.0
C303 C 0.26387 0.0046 0.31541 0.0
C304 C 0.29033 0.03181 0.30842 0.0
C305 C 0.24952 0.01364 0.30475 0.0
C306 C 0.27551 0.04039 0.2979 0.0
N307 N 0.25558 0.03122 0.29631 0.0
C308 C 0.25889 0.96132 0.35318 0.0
C309 C 0.28194 0.94716 0.33383 0.0
C310 C 0.24526 0.94336 0.35201 0.0
N311 N 0.27696 0.96277 0.34431 0.0
C312 C 0.26883 0.92875 0.33237 0.0
C313 C 0.25022 0.92662 0.34161 0.0
H314 H 0.25492 0.97423 0.36109 0.0
H315 H 0.29615 0.94894 0.32666 0.0
C316 C 0.37126 0.00481 0.33185 0.0
N317 N 0.35141 0.00696 0.32523 0.0
C318 C 0.38962 0.0017 0.32274 0.0
C319 C 0.36676 0.00303 0.30017 0.0
C320 C 0.34887 0.00638 0.30972 0.0
C321 C 0.38748 0.00027 0.30666 0.0
H322 H 0.37273 0.00489 0.34424 0.0
H323 H 0.33284 0.0077 0.30479 0.0
O324 O 0.28304 0.00892 0.36159 0.0
O325 O 0.32365 0.03451 0.35214 0.0
O326 O 0.32579 0.98413 0.35339 0.0
O327 O 0.29848 0.00553 0.3279 0.0
H328 H 0.26975 0.04669 0.37273 0.0
H329 H 0.28072 0.97943 0.38369 0.0
H330 H 0.25771 0.0528 0.3996 0.0
H331 H 0.26863 0.98678 0.41042 0.0
H332 H 0.36772 0.07546 0.32194 0.0
H333 H 0.35792 0.03497 0.37046 0.0
H334 H 0.33256 0.05727 0.3271 0.0
H335 H 0.39261 0.05361 0.36456 0.0
H336 H 0.32281 0.04439 0.41618 0.0
H337 H 0.34439 0.97772 0.41327 0.0
H338 H 0.22189 0.05931 0.33811 0.0
H339 H 0.27464 0.10546 0.33581 0.0
H340 H 0.34646 0.9633 0.33108 0.0
H341 H 0.30949 0.95517 0.37272 0.0
H342 H 0.34967 0.9233 0.32911 0.0
H343 H 0.31335 0.91529 0.37 0.0
H344 H 0.25899 0.99073 0.3222 0.0
H345 H 0.30613 0.03917 0.30977 0.0
H346 H 0.23355 0.00673 0.30322 0.0
H347 H 0.27983 0.05438 0.29104 0.0
H348 H 0.23079 0.9428 0.35905 0.0
H349 H 0.27338 0.91626 0.32423 0.0
H350 H 0.40524 0.9999 0.32827 0.0
H351 H 0.36417 0.0016 0.28789 0.0
Li352 Li 0.9954 0.67746 0.65917 0.0
Li353 Li 0.97234 0.70741 0.65394 0.0
Li354 Li 0.99302 0.68937 0.63354 0.0
Li355 Li 0.01274 0.71228 0.65282 0.0
C356 C 0.95717 0.66044 0.65104 0.0
N357 N 0.93326 0.62547 0.66141 0.0
C358 C 0.9395 0.66372 0.66084 0.0
C359 C 0.96257 0.6394 0.64641 0.0
C360 C 0.92762 0.64582 0.66597 0.0
C361 C 0.95033 0.62193 0.65183 0.0
C362 C 0.99197 0.69843 0.68549 0.0
C363 C 0.00852 0.68378 0.70839 0.0
N364 N 0.9886 0.6821 0.715 0.0
C365 C 0.97167 0.69657 0.69251 0.0
C366 C 0.01057 0.69205 0.69349 0.0
C367 C 0.97031 0.68829 0.70744 0.0
C368 C 0.02098 0.64447 0.67151 0.0
N369 N 0.00045 0.65244 0.67199 0.0
C370 C 0.99095 0.627 0.69172 0.0
C371 C 0.98545 0.64406 0.68185 0.0
C372 C 0.01219 0.61884 0.69162 0.0
C373 C 0.02721 0.62762 0.68123 0.0
H374 H 0.0328 0.65161 0.66388 0.0
H375 H 0.96945 0.65104 0.68248 0.0
C376 C 0.92915 0.72019 0.64842 0.0
N377 N 0.94671 0.72372 0.65751 0.0
C378 C 0.91126 0.73399 0.64925 0.0
C379 C 0.92968 0.75448 0.66905 0.0
C380 C 0.94722 0.74027 0.66784 0.0
C381 C 0.91152 0.75166 0.65948 0.0
H382 H 0.9294 0.70708 0.64014 0.0
H383 H 0.96163 0.74293 0.67468 0.0
C384 C 0.03208 0.67303 0.63416 0.0
N385 N 0.05527 0.65362 0.6107 0.0
C386 C 0.04886 0.68429 0.62689 0.0
C387 C 0.02728 0.6518 0.62964 0.0
C388 C 0.06036 0.67422 0.61502 0.0
C389 C 0.03913 0.6423 0.61772 0.0
C390 C 0.97982 0.7387 0.6331 0.0
C391 C 0.96441 0.73744 0.62135 0.0
C392 C 0.98308 0.75831 0.64083 0.0
C393 C 0.95229 0.75587 0.61763 0.0
C394 C 0.97063 0.77637 0.63677 0.0
N395 N 0.95561 0.77477 0.62536 0.0
C396 C 0.98116 0.66587 0.60659 0.0
C397 C 0.00605 0.69476 0.60303 0.0
C398 C 0.98176 0.66102 0.59089 0.0
N399 N 0.99328 0.68244 0.61229 0.0
C400 C 0.00727 0.69039 0.58732 0.0
C401 C 0.99501 0.67334 0.58106 0.0
H402 H 0.97103 0.65644 0.61422 0.0
H403 H 0.01533 0.70798 0.60791 0.0
C404 C 0.04448 0.73615 0.66951 0.0
N405 N 0.03579 0.73226 0.65541 0.0
C406 C 0.06147 0.75097 0.67115 0.0
C407 C 0.06003 0.75762 0.64375 0.0
C408 C 0.04308 0.7427 0.64265 0.0
C409 C 0.06948 0.76193 0.65815 0.0
H410 H 0.03814 0.72787 0.67949 0.0
H411 H 0.03575 0.73933 0.6316 0.0
O412 O 0.96882 0.67779 0.64575 0.0
O413 O 0.99357 0.70617 0.67079 0.0
O414 O 0.02024 0.68279 0.64553 0.0
O415 O 0.99124 0.72066 0.63729 0.0
H416 H 0.93511 0.67986 0.66459 0.0
H417 H 0.97613 0.63657 0.6388 0.0
H418 H 0.91398 0.6481 0.67362 0.0
H419 H 0.9544 0.60554 0.64841 0.0
H420 H 0.02275 0.67859 0.71466 0.0
H421 H 0.9571 0.70126 0.68644 0.0
H422 H 0.02637 0.69301 0.68813 0.0
H423 H 0.9547 0.68668 0.71299 0.0
H424 H 0.97901 0.62087 0.69975 0.0
H425 H 0.04373 0.6217 0.68076 0.0
H426 H 0.89753 0.73109 0.64176 0.0
H427 H 0.93074 0.76807 0.67692 0.0
H428 H 0.05287 0.70068 0.6303 0.0
H429 H 0.01441 0.64283 0.63521 0.0
H430 H 0.0733 0.68279 0.60923 0.0
H431 H 0.03547 0.62594 0.61402 0.0
H432 H 0.96167 0.72232 0.61531 0.0
H433 H 0.99488 0.75947 0.65001 0.0
H434 H 0.94019 0.75512 0.60864 0.0
H435 H 0.97285 0.79162 0.64273 0.0
H436 H 0.97212 0.64769 0.58652 0.0
H437 H 0.01741 0.70051 0.5801 0.0
H438 H 0.06803 0.75404 0.6825 0.0
H439 H 0.06582 0.76551 0.6334 0.0
Li440 Li 0.29095 0.01667 0.65001 0.0
Li441 Li 0.32184 0.99581 0.65994 0.0
Li442 Li 0.31254 0.99498 0.63273 0.0
Li443 Li 0.28971 0.9771 0.65199 0.0
C444 C 0.32459 0.04195 0.6462 0.0
N445 N 0.32785 0.08645 0.64943 0.0
C446 C 0.33457 0.05084 0.6592 0.0
C447 C 0.31635 0.05571 0.63482 0.0
C448 C 0.33606 0.07338 0.66062 0.0
C449 C 0.31811 0.07816 0.63669 0.0
C450 C 0.27805 0.99107 0.67921 0.0
C451 C 0.2675 0.96489 0.69842 0.0
N452 N 0.24757 0.97427 0.69921 0.0
C453 C 0.25751 0.00053 0.68026 0.0
C454 C 0.28316 0.97319 0.68841 0.0
C455 C 0.24231 0.99177 0.69044 0.0
C456 C 0.25787 0.04587 0.64181 0.0
N457 N 0.27396 0.04231 0.65217 0.0
C458 C 0.26499 0.07497 0.66559 0.0
C459 C 0.2776 0.05625 0.66402 0.0
C460 C 0.24838 0.07922 0.65493 0.0
C461 C 0.24487 0.0643 0.64295 0.0
H462 H 0.25493 0.03425 0.63276 0.0
H463 H 0.2903 0.05282 0.67224 0.0
C464 C 0.36588 0.99864 0.66827 0.0
N465 N 0.34543 0.99699 0.67396 0.0
C466 C 0.38335 0.0021 0.67817 0.0
C467 C 0.35838 0.00206 0.6996 0.0
C468 C 0.34142 0.99833 0.6893 0.0
C469 C 0.37969 0.0044 0.69405 0.0
H470 H 0.36852 0.99802 0.65599 0.0
H471 H 0.32494 0.99746 0.69347 0.0
C472 C 0.27413 0.99211 0.61992 0.0
N473 N 0.26332 0.98401 0.5896 0.0
C474 C 0.26748 0.97137 0.61542 0.0
C475 C 0.27519 0.00875 0.609 0.0
C476 C 0.26207 0.96761 0.60003 0.0
C477 C 0.26972 0.00431 0.59373 0.0
C478 C 0.33814 0.95898 0.64969 0.0
C479 C 0.35589 0.95963 0.63971 0.0
C480 C 0.33964 0.94746 0.6635 0.0
C481 C 0.37498 0.94887 0.6438 0.0
C482 C 0.35902 0.93696 0.66719 0.0
N483 N 0.37614 0.93788 0.65735 0.0
C484 C 0.33229 0.01108 0.60573 0.0
C485 C 0.3205 0.97452 0.60423 0.0
C486 C 0.3377 0.01101 0.59014 0.0
N487 N 0.32336 0.99319 0.6123 0.0
C488 C 0.32555 0.97377 0.58858 0.0
C489 C 0.33385 0.99234 0.58129 0.0
H490 H 0.33459 0.02562 0.61246 0.0
H491 H 0.31355 0.96048 0.60983 0.0
C492 C 0.24875 0.95883 0.65495 0.0
N493 N 0.27017 0.95379 0.65546 0.0
C494 C 0.23315 0.94267 0.65664 0.0
C495 C 0.26192 0.9163 0.65936 0.0
C496 C 0.27702 0.93306 0.65767 0.0
C497 C 0.23962 0.921 0.65869 0.0
H498 H 0.24382 0.97545 0.65303 0.0
H499 H 0.29418 0.92949 0.65783 0.0
O500 O 0.32268 0.01993 0.6447 0.0
O501 O 0.29299 0.9991 0.66908 0.0
O502 O 0.28001 0.996 0.63485 0.0
O503 O 0.3194 0.96959 0.64596 0.0
H504 H 0.34095 0.0405 0.66816 0.0
H505 H 0.30833 0.04914 0.62478 0.0
H506 H 0.34368 0.08047 0.67063 0.0
H507 H 0.31166 0.08898 0.62803 0.0
H508 H 0.27117 0.95096 0.70553 0.0
H509 H 0.25326 0.01433 0.67319 0.0
H510 H 0.29897 0.96565 0.6877 0.0
H511 H 0.22631 0.99884 0.69132 0.0
H512 H 0.26832 0.08606 0.67496 0.0
H513 H 0.23193 0.06661 0.6347 0.0
H514 H 0.39948 0.00354 0.67336 0.0
H515 H 0.35463 0.00415 0.71168 0.0
H516 H 0.26675 0.95823 0.62364 0.0
H517 H 0.28057 0.02483 0.61224 0.0
H518 H 0.25699 0.95162 0.59638 0.0
H519 H 0.27066 0.01699 0.58514 0.0
H520 H 0.35501 0.96849 0.62898 0.0
H521 H 0.32606 0.94685 0.67136 0.0
H522 H 0.38888 0.94932 0.63623 0.0
H523 H 0.36046 0.92811 0.67789 0.0
H524 H 0.34394 0.02572 0.58496 0.0
H525 H 0.32262 0.95895 0.58221 0.0
H526 H 0.21617 0.94712 0.65628 0.0
H527 H 0.26763 0.8998 0.66074 0.0
Li528 Li 0.00444 0.32241 0.65948 0.0
Li529 Li 0.02721 0.29107 0.65385 0.0
Li530 Li 0.00784 0.31031 0.63344 0.0
Li531 Li 0.98836 0.28767 0.65201 0.0
C532 C 0.04207 0.3388 0.65238 0.0
N533 N 0.06284 0.37425 0.66508 0.0
C534 C 0.05856 0.33581 0.6632 0.0
C535 C 0.03619 0.3598 0.64797 0.0
C536 C 0.06888 0.35395 0.66948 0.0
C537 C 0.04686 0.37752 0.65455 0.0
C538 C 0.99378 0.28484 0.68182 0.0
C539 C 0.97978 0.25279 0.69431 0.0
N540 N 0.96754 0.26554 0.70367 0.0
C541 C 0.98107 0.29762 0.69158 0.0
C542 C 0.99319 0.26223 0.68321 0.0
C543 C 0.96792 0.28755 0.70255 0.0
C544 C 0.98546 0.36184 0.66899 0.0
N545 N 0.00093 0.34697 0.67252 0.0
C546 C 0.01011 0.36628 0.69546 0.0
C547 C 0.01328 0.34888 0.68541 0.0
C548 C 0.99403 0.38178 0.69222 0.0
C549 C 0.98178 0.37949 0.67868 0.0
H550 H 0.97562 0.35973 0.65884 0.0
H551 H 0.02532 0.33666 0.688 0.0
C552 C 0.07051 0.27933 0.64861 0.0
N553 N 0.05342 0.27591 0.65816 0.0
C554 C 0.08896 0.26631 0.64965 0.0
C555 C 0.07227 0.24718 0.67085 0.0
C556 C 0.05417 0.26063 0.66942 0.0
C557 C 0.08978 0.24959 0.66064 0.0
H558 H 0.06943 0.29164 0.63976 0.0
H559 H 0.04037 0.25828 0.67687 0.0
C560 C 0.96812 0.32461 0.63307 0.0
N561 N 0.94396 0.33891 0.60829 0.0
C562 C 0.95232 0.31119 0.62657 0.0
C563 C 0.97155 0.34535 0.62702 0.0
C564 C 0.94028 0.31872 0.61404 0.0
C565 C 0.95921 0.35226 0.61447 0.0
C566 C 0.02359 0.263 0.63141 0.0
C567 C 0.03722 0.26736 0.61893 0.0
C568 C 0.02494 0.24295 0.63888 0.0
C569 C 0.05204 0.25158 0.61417 0.0
C570 C 0.04002 0.22763 0.6338 0.0
N571 N 0.05314 0.23222 0.62165 0.0
C572 C 0.02004 0.3352 0.60699 0.0
C573 C 0.99696 0.30506 0.60259 0.0
C574 C 0.02024 0.34006 0.59128 0.0
N575 N 0.00848 0.31796 0.61227 0.0
C576 C 0.99675 0.30927 0.58684 0.0
C577 C 0.00859 0.32689 0.58098 0.0
H578 H 0.02923 0.34505 0.61494 0.0
H579 H 0.98799 0.29142 0.60715 0.0
C580 C 0.94676 0.27538 0.663 0.0
N581 N 0.96401 0.26891 0.6544 0.0
C582 C 0.9288 0.26178 0.66473 0.0
C583 C 0.94646 0.23544 0.64837 0.0
C584 C 0.96409 0.24948 0.64703 0.0
C585 C 0.9285 0.2415 0.65733 0.0
H586 H 0.94694 0.29115 0.66846 0.0
H587 H 0.97779 0.24492 0.64 0.0
O588 O 0.03151 0.32126 0.64631 0.0
O589 O 0.00655 0.29437 0.67086 0.0
O590 O 0.98043 0.31736 0.64512 0.0
O591 O 0.00943 0.27849 0.63655 0.0
H592 H 0.06321 0.31967 0.66683 0.0
H593 H 0.02328 0.36241 0.63975 0.0
H594 H 0.08161 0.35189 0.67791 0.0
H595 H 0.04237 0.39387 0.65133 0.0
H596 H 0.97903 0.23532 0.69541 0.0
H597 H 0.98117 0.31511 0.69062 0.0
H598 H 0.0026 0.25206 0.67559 0.0
H599 H 0.95795 0.29724 0.71014 0.0
H600 H 0.01997 0.36747 0.70574 0.0
H601 H 0.96891 0.39078 0.67589 0.0
H602 H 0.10221 0.269 0.64171 0.0
H603 H 0.07209 0.2344 0.6794 0.0
H604 H 0.94951 0.29505 0.63102 0.0
H605 H 0.98391 0.35586 0.63177 0.0
H606 H 0.92806 0.30847 0.60886 0.0
H607 H 0.96182 0.3682 0.60959 0.0
H608 H 0.03663 0.28286 0.61313 0.0
H609 H 0.01477 0.23942 0.64871 0.0
H610 H 0.06277 0.25478 0.60459 0.0
H611 H 0.04138 0.21213 0.63956 0.0
H612 H 0.02976 0.35366 0.58721 0.0
H613 H 0.98732 0.29888 0.57934 0.0
H614 H 0.91516 0.26722 0.67156 0.0
H615 H 0.94698 0.2199 0.64255 0.0
Li616 Li 0.71106 0.02583 0.65082 0.0
Li617 Li 0.68967 0.00756 0.6309 0.0
Li618 Li 0.6795 0.00555 0.65793 0.0
Li619 Li 0.71156 0.98632 0.64825 0.0
C620 C 0.66187 0.0417 0.64795 0.0
N621 N 0.6225 0.06033 0.65535 0.0
C622 C 0.6444 0.04012 0.63777 0.0
C623 C 0.65939 0.05289 0.66183 0.0
C624 C 0.62461 0.04963 0.64174 0.0
C625 C 0.63933 0.06214 0.66538 0.0
C626 C 0.72828 0.01267 0.61881 0.0
C627 C 0.73369 0.00188 0.5924 0.0
N628 N 0.73969 0.02253 0.58887 0.0
C629 C 0.73455 0.03377 0.61492 0.0
C630 C 0.72791 0.99656 0.60748 0.0
C631 C 0.74027 0.03842 0.59972 0.0
C632 C 0.75094 0.04588 0.65559 0.0
N633 N 0.7293 0.04992 0.65516 0.0
C634 C 0.73538 0.08759 0.66006 0.0
C635 C 0.72129 0.07024 0.6573 0.0
C636 C 0.75785 0.08386 0.66066 0.0
C637 C 0.76556 0.06265 0.65844 0.0
H638 H 0.75684 0.0296 0.65356 0.0
H639 H 0.70401 0.07301 0.65673 0.0
C640 C 0.67015 0.99158 0.60381 0.0
N641 N 0.6791 0.00946 0.61039 0.0
C642 C 0.66411 0.99188 0.58834 0.0
C643 C 0.67585 0.02926 0.58687 0.0
C644 C 0.68154 0.02827 0.60241 0.0
C645 C 0.6673 0.01078 0.5796 0.0
H646 H 0.66813 0.97694 0.61047 0.0
H647 H 0.68845 0.04233 0.60802 0.0
C648 C 0.72234 0.01145 0.6781 0.0
N649 N 0.75137 0.02871 0.69898 0.0
C650 C 0.74307 0.00254 0.67957 0.0
C651 C 0.71631 0.02903 0.68732 0.0
C652 C 0.75752 0.01152 0.69019 0.0
C653 C 0.73124 0.03757 0.69777 0.0
C654 C 0.67928 0.95977 0.64355 0.0
C655 C 0.6698 0.95008 0.65644 0.0
C656 C 0.68814 0.94672 0.63198 0.0
C657 C 0.66938 0.92747 0.65756 0.0
C658 C 0.68745 0.92417 0.63355 0.0
N659 N 0.67816 0.91509 0.6462 0.0
C660 C 0.63548 0.99975 0.66521 0.0
C661 C 0.65857 0.0028 0.6869 0.0
C662 C 0.61769 0.99562 0.67468 0.0
N663 N 0.65541 0.00308 0.67144 0.0
C664 C 0.64127 0.99854 0.6968 0.0
C665 C 0.62053 0.9945 0.69071 0.0
H666 H 0.63354 0.99965 0.65285 0.0
H667 H 0.67468 0.00503 0.69152 0.0
C668 C 0.74523 0.95781 0.63977 0.0
N669 N 0.72936 0.9612 0.65033 0.0
C670 C 0.75858 0.93961 0.64083 0.0
C671 C 0.73928 0.92885 0.6638 0.0
C672 C 0.72628 0.94731 0.66229 0.0
C673 C 0.75566 0.92478 0.65293 0.0
H674 H 0.74767 0.96934 0.63059 0.0
H675 H 0.71369 0.95058 0.67064 0.0
O676 O 0.68127 0.03224 0.64438 0.0
O677 O 0.72218 0.00788 0.63356 0.0
O678 O 0.70812 0.00319 0.66754 0.0
O679 O 0.6802 0.98189 0.64236 0.0
H680 H 0.64603 0.03148 0.627 0.0
H681 H 0.67274 0.0542 0.66984 0.0
H682 H 0.61091 0.04845 0.63401 0.0
H683 H 0.63713 0.07072 0.67612 0.0
H684 H 0.73328 0.98963 0.58349 0.0
H685 H 0.73477 0.04649 0.62349 0.0
H686 H 0.72283 0.98021 0.61023 0.0
H687 H 0.74507 0.0547 0.59653 0.0
H688 H 0.72881 0.10372 0.66173 0.0
H689 H 0.78276 0.05912 0.65852 0.0
H690 H 0.65772 0.97723 0.58317 0.0
H691 H 0.6783 0.04424 0.58059 0.0
H692 H 0.74805 0.989 0.67249 0.0
H693 H 0.70036 0.03617 0.68626 0.0
H694 H 0.77366 0.00486 0.69141 0.0
H695 H 0.72685 0.05127 0.7049 0.0
H696 H 0.663 0.95988 0.66556 0.0
H697 H 0.6958 0.95394 0.62202 0.0
H698 H 0.66216 0.91975 0.6675 0.0
H699 H 0.69439 0.91389 0.62474 0.0
H700 H 0.602 0.99281 0.66947 0.0
H701 H 0.64436 0.99743 0.70904 0.0
H702 H 0.7713 0.93738 0.63239 0.0
H703 H 0.73639 0.91781 0.67327 0.0
Li704 Li 0.51483 0.78827 0.84832 0.0
Li705 Li 0.49556 0.81225 0.8662 0.0
Li706 Li 0.47471 0.79039 0.84689 0.0
Li707 Li 0.49581 0.82249 0.83951 0.0
C708 C 0.49467 0.75929 0.86917 0.0
N709 N 0.49751 0.71676 0.87909 0.0
C710 C 0.50098 0.75468 0.88427 0.0
C711 C 0.4895 0.74227 0.8592 0.0
C712 C 0.50242 0.73308 0.88904 0.0
C713 C 0.4911 0.72089 0.86441 0.0
C714 C 0.53414 0.83068 0.86308 0.0
C715 C 0.54138 0.86329 0.87754 0.0
N716 N 0.55949 0.85389 0.88347 0.0
C717 C 0.55293 0.82141 0.8692 0.0
C718 C 0.5284 0.85186 0.86716 0.0
C719 C 0.5655 0.83339 0.87953 0.0
C720 C 0.54818 0.76658 0.83186 0.0
N721 N 0.5394 0.76989 0.84601 0.0
C722 C 0.5654 0.74619 0.85751 0.0
C723 C 0.54787 0.76037 0.85876 0.0
C724 C 0.57443 0.74187 0.84298 0.0
C725 C 0.56575 0.75248 0.83006 0.0
H726 H 0.54139 0.7747 0.82194 0.0
H727 H 0.54107 0.76387 0.86994 0.0
C728 C 0.48126 0.8362 0.89238 0.0
N729 N 0.49631 0.82207 0.88689 0.0
C730 C 0.48211 0.84302 0.90771 0.0
C731 C 0.51401 0.82078 0.91129 0.0
C732 C 0.51242 0.81425 0.89599 0.0
C733 C 0.49868 0.83529 0.91735 0.0
H734 H 0.46855 0.84206 0.88489 0.0
H735 H 0.52401 0.80284 0.89134 0.0
C736 C 0.49217 0.78125 0.81693 0.0
N737 N 0.48399 0.75733 0.79064 0.0
C738 C 0.48338 0.79127 0.80392 0.0
C739 C 0.49713 0.75912 0.81646 0.0
C740 C 0.47927 0.77888 0.79077 0.0
C741 C 0.49279 0.74729 0.8031 0.0
C742 C 0.457 0.83728 0.84848 0.0
C743 C 0.43879 0.83242 0.83955 0.0
C744 C 0.46162 0.85886 0.85218 0.0
C745 C 0.42563 0.84932 0.83429 0.0
C746 C 0.44809 0.8753 0.84667 0.0
N747 N 0.43054 0.87023 0.8379 0.0
C748 C 0.43999 0.76519 0.85707 0.0
C749 C 0.4409 0.76866 0.82993 0.0
C750 C 0.42238 0.75103 0.85614 0.0
N751 N 0.44915 0.77331 0.84406 0.0
C752 C 0.42336 0.75448 0.82846 0.0
C753 C 0.41407 0.74522 0.84167 0.0
H754 H 0.44676 0.76929 0.86817 0.0
H755 H 0.44798 0.77574 0.81977 0.0
C756 C 0.51731 0.8572 0.82554 0.0
N757 N 0.49822 0.84621 0.82547 0.0
C758 C 0.52102 0.87387 0.81503 0.0
C759 C 0.48524 0.86787 0.80455 0.0
C760 C 0.48221 0.8513 0.81532 0.0
C761 C 0.50498 0.87925 0.80422 0.0
H762 H 0.52996 0.85261 0.83348 0.0
H763 H 0.46726 0.84218 0.81532 0.0
O764 O 0.49329 0.78038 0.8643 0.0
O765 O 0.52141 0.81907 0.85316 0.0
O766 O 0.49632 0.79319 0.82989 0.0
O767 O 0.47007 0.82096 0.85371 0.0
H768 H 0.50481 0.76762 0.89221 0.0
H769 H 0.48403 0.74551 0.84764 0.0
H770 H 0.50742 0.72928 0.90067 0.0
H771 H 0.48716 0.70757 0.8568 0.0
H772 H 0.53705 0.87963 0.88088 0.0
H773 H 0.55768 0.8051 0.86609 0.0
H774 H 0.514 0.8593 0.86244 0.0
H775 H 0.58001 0.82637 0.88444 0.0
H776 H 0.5719 0.7388 0.86783 0.0
H777 H 0.57215 0.74959 0.81864 0.0
H778 H 0.47001 0.85426 0.91197 0.0
H779 H 0.52681 0.81414 0.9184 0.0
H780 H 0.47962 0.80837 0.80398 0.0
H781 H 0.50448 0.75116 0.82622 0.0
H782 H 0.47233 0.78641 0.78066 0.0
H783 H 0.4965 0.73015 0.80262 0.0
H784 H 0.43493 0.8158 0.83663 0.0
H785 H 0.47555 0.86288 0.85917 0.0
H786 H 0.41155 0.84581 0.8273 0.0
H787 H 0.45155 0.89208 0.84936 0.0
H788 H 0.41581 0.74416 0.86662 0.0
H789 H 0.41718 0.75074 0.8171 0.0
H790 H 0.53667 0.88185 0.81499 0.0
H791 H 0.47242 0.87152 0.79645 0.0
Li792 Li 0.17776 0.49485 0.83997 0.0
Li793 Li 0.20986 0.51444 0.84717 0.0
Li794 Li 0.20901 0.47321 0.84536 0.0
Li795 Li 0.18908 0.49229 0.8658 0.0
C796 C 0.19938 0.49671 0.81421 0.0
N797 N 0.18361 0.4994 0.78455 0.0
C798 C 0.19632 0.51697 0.80733 0.0
C799 C 0.19466 0.47781 0.80599 0.0
C800 C 0.18827 0.51799 0.79233 0.0
C801 C 0.18663 0.47952 0.791 0.0
C802 C 0.1798 0.53686 0.86434 0.0
C803 C 0.19567 0.55725 0.88518 0.0
N804 N 0.17978 0.57241 0.88373 0.0
C805 C 0.1636 0.55262 0.86307 0.0
C806 C 0.19595 0.53917 0.87549 0.0
C807 C 0.16388 0.57048 0.87297 0.0
C808 C 0.14335 0.47989 0.82038 0.0
N809 N 0.15336 0.49743 0.82669 0.0
C810 C 0.12977 0.52157 0.81329 0.0
C811 C 0.14684 0.51796 0.82345 0.0
C812 C 0.11914 0.50386 0.80643 0.0
C813 C 0.12608 0.48276 0.81015 0.0
H814 H 0.14898 0.46373 0.82313 0.0
H815 H 0.15532 0.53157 0.8285 0.0
C816 C 0.2499 0.53536 0.84434 0.0
N817 N 0.22816 0.53886 0.84425 0.0
C818 C 0.26426 0.55271 0.84273 0.0
C819 C 0.23356 0.57694 0.84067 0.0
C820 C 0.21978 0.55907 0.84221 0.0
C821 C 0.25612 0.57387 0.841 0.0
H822 H 0.25606 0.51906 0.84582 0.0
H823 H 0.20242 0.56135 0.84185 0.0
C824 C 0.15867 0.46192 0.85747 0.0
N825 N 0.11793 0.4499 0.8676 0.0
C826 C 0.14284 0.47769 0.86022 0.0
C827 C 0.15376 0.44005 0.85987 0.0
C828 C 0.12235 0.47129 0.86533 0.0
C829 C 0.13308 0.43429 0.86499 0.0
C830 C 0.23611 0.48687 0.87237 0.0
C831 C 0.2397 0.4651 0.87614 0.0
C832 C 0.24896 0.50296 0.87912 0.0
C833 C 0.25588 0.45982 0.88673 0.0
C834 C 0.26499 0.49702 0.88966 0.0
N835 N 0.26809 0.47576 0.89322 0.0
C836 C 0.24749 0.45365 0.83614 0.0
C837 C 0.21977 0.42849 0.8424 0.0
C838 C 0.26223 0.43682 0.83375 0.0
N839 N 0.22684 0.4492 0.84053 0.0
C840 C 0.23401 0.41112 0.84017 0.0
C841 C 0.25564 0.41521 0.83595 0.0
H842 H 0.25264 0.47035 0.83493 0.0
H843 H 0.20326 0.4255 0.84599 0.0
C844 C 0.16335 0.50292 0.89201 0.0
N845 N 0.18011 0.49048 0.88693 0.0
C846 C 0.1575 0.50281 0.90753 0.0
C847 C 0.1855 0.47624 0.91223 0.0
C848 C 0.19072 0.47682 0.89661 0.0
C849 C 0.16889 0.48961 0.91793 0.0
H850 H 0.15456 0.51312 0.88407 0.0
H851 H 0.20337 0.46646 0.89229 0.0
O852 O 0.20658 0.49538 0.82904 0.0
O853 O 0.17968 0.51935 0.85464 0.0
O854 O 0.17894 0.4677 0.85252 0.0
O855 O 0.22069 0.49236 0.86171 0.0
H856 H 0.19986 0.53173 0.8136 0.0
H857 H 0.1969 0.46201 0.81121 0.0
H858 H 0.18564 0.53356 0.78688 0.0
H859 H 0.18274 0.46505 0.78453 0.0
H860 H 0.20807 0.5592 0.89387 0.0
H861 H 0.15094 0.55105 0.85452 0.0
H862 H 0.20845 0.52708 0.87675 0.0
H863 H 0.15146 0.5828 0.8721 0.0
H864 H 0.12539 0.53813 0.81051 0.0
H865 H 0.11831 0.46864 0.8052 0.0
H866 H 0.28153 0.54965 0.84316 0.0
H867 H 0.22664 0.59294 0.83913 0.0
H868 H 0.14624 0.49469 0.85843 0.0
H869 H 0.16583 0.42763 0.85783 0.0
H870 H 0.10996 0.48333 0.86751 0.0
H871 H 0.12907 0.41742 0.86691 0.0
H872 H 0.22985 0.45242 0.87115 0.0
H873 H 0.24666 0.51988 0.87623 0.0
H874 H 0.25872 0.44305 0.88982 0.0
H875 H 0.27501 0.50932 0.89499 0.0
H876 H 0.27881 0.44074 0.83074 0.0
H877 H 0.22821 0.3947 0.84185 0.0
H878 H 0.14423 0.51299 0.91133 0.0
H879 H 0.19479 0.46582 0.91979 0.0
Li880 Li 0.48608 0.21163 0.84855 0.0
Li881 Li 0.50481 0.18905 0.86759 0.0
Li882 Li 0.52621 0.20917 0.84759 0.0
Li883 Li 0.50504 0.17668 0.84131 0.0
C884 C 0.50556 0.24199 0.86863 0.0
N885 N 0.50188 0.28497 0.87738 0.0
C886 C 0.49774 0.24733 0.88324 0.0
C887 C 0.51186 0.25853 0.85858 0.0
C888 C 0.49588 0.26914 0.88742 0.0
C889 C 0.5098 0.28015 0.86319 0.0
C890 C 0.46626 0.17021 0.86467 0.0
C891 C 0.45895 0.13863 0.88021 0.0
N892 N 0.44034 0.14805 0.88528 0.0
C893 C 0.44697 0.1795 0.86992 0.0
C894 C 0.47223 0.14953 0.86974 0.0
C895 C 0.43411 0.16806 0.88038 0.0
C896 C 0.45343 0.23268 0.83094 0.0
N897 N 0.46153 0.2298 0.84535 0.0
C898 C 0.43427 0.25295 0.85594 0.0
C899 C 0.45217 0.23936 0.85777 0.0
C900 C 0.4258 0.25663 0.84116 0.0
C901 C 0.43557 0.24622 0.82856 0.0
H902 H 0.46083 0.22444 0.82129 0.0
H903 H 0.45852 0.2363 0.86915 0.0
C904 C 0.51979 0.16874 0.89502 0.0
N905 N 0.5039 0.18114 0.8887 0.0
C906 C 0.51948 0.16403 0.91075 0.0
C907 C 0.48626 0.18459 0.91302 0.0
C908 C 0.48731 0.18901 0.89732 0.0
C909 C 0.50266 0.1722 0.92001 0.0
H910 H 0.53292 0.16288 0.8879 0.0
H911 H 0.47498 0.19897 0.892 0.0
C912 C 0.50953 0.2167 0.81742 0.0
N913 N 0.5187 0.23981 0.79094 0.0
C914 C 0.51821 0.20616 0.80457 0.0
C915 C 0.50518 0.23894 0.81668 0.0
C916 C 0.52283 0.21814 0.79133 0.0
C917 C 0.51002 0.25035 0.80323 0.0
C918 C 0.54353 0.16238 0.85129 0.0
C919 C 0.56167 0.16634 0.84206 0.0
C920 C 0.53901 0.14124 0.85613 0.0
C921 C 0.57482 0.14896 0.83764 0.0
C922 C 0.55253 0.1243 0.85144 0.0
N923 N 0.57 0.12848 0.84236 0.0
C924 C 0.56123 0.23395 0.8574 0.0
C925 C 0.56094 0.22917 0.83036 0.0
C926 C 0.57951 0.24721 0.85642 0.0
N927 N 0.55213 0.22554 0.84447 0.0
C928 C 0.57918 0.24244 0.82882 0.0
C929 C 0.58857 0.25182 0.84196 0.0
H930 H 0.55398 0.23067 0.86849 0.0
H931 H 0.55387 0.22187 0.82027 0.0
C932 C 0.4841 0.14057 0.82857 0.0
N933 N 0.50294 0.15198 0.82814 0.0
C934 C 0.48065 0.12337 0.81844 0.0
C935 C 0.51621 0.12968 0.80767 0.0
C936 C 0.51899 0.14676 0.81806 0.0
C937 C 0.49669 0.11792 0.80764 0.0
H938 H 0.47141 0.14527 0.83645 0.0
H939 H 0.53371 0.15623 0.81777 0.0
O940 O 0.50743 0.22068 0.86436 0.0
O941 O 0.47921 0.18128 0.85458 0.0
O942 O 0.50493 0.20517 0.83049 0.0
O943 O 0.53044 0.17917 0.85569 0.0
H944 H 0.49303 0.23478 0.89126 0.0
H945 H 0.51854 0.25476 0.84742 0.0
H946 H 0.48969 0.27349 0.89865 0.0
H947 H 0.51458 0.2931 0.8555 0.0
H948 H 0.46345 0.12267 0.88431 0.0
H949 H 0.44201 0.1954 0.86602 0.0
H950 H 0.48701 0.14205 0.86569 0.0
H951 H 0.4192 0.17511 0.88461 0.0
H952 H 0.42732 0.2607 0.86597 0.0
H953 H 0.42934 0.24832 0.817 0.0
H954 H 0.53261 0.15465 0.91567 0.0
H955 H 0.4728 0.19095 0.91962 0.0
H956 H 0.52148 0.18895 0.80484 0.0
H957 H 0.49791 0.24729 0.82631 0.0
H958 H 0.52969 0.2102 0.78135 0.0
H959 H 0.50678 0.26758 0.80254 0.0
H960 H 0.56546 0.18261 0.83826 0.0
H961 H 0.52518 0.13794 0.8634 0.0
H962 H 0.58884 0.15176 0.83043 0.0
H963 H 0.54915 0.10784 0.85503 0.0
H964 H 0.5861 0.25425 0.86683 0.0
H965 H 0.58588 0.2453 0.81748 0.0
H966 H 0.46517 0.11509 0.81863 0.0
H967 H 0.52901 0.12598 0.79956 0.0
Li968 Li 0.79123 0.52356 0.84734 0.0
Li969 Li 0.81359 0.50362 0.86589 0.0
Li970 Li 0.82241 0.5041 0.83862 0.0
Li971 Li 0.79085 0.48386 0.84813 0.0
C972 C 0.84051 0.53925 0.84976 0.0
N973 N 0.87959 0.55832 0.84216 0.0
C974 C 0.85852 0.53658 0.85932 0.0
C975 C 0.84231 0.55175 0.83639 0.0
C976 C 0.87815 0.54634 0.85527 0.0
C977 C 0.86223 0.5612 0.83273 0.0
C978 C 0.77549 0.5072 0.87905 0.0
C979 C 0.77064 0.4934 0.9048 0.0
N980 N 0.76528 0.51368 0.90967 0.0
C981 C 0.7699 0.5279 0.8843 0.0
C982 C 0.77579 0.48978 0.88936 0.0
C983 C 0.76478 0.53083 0.89982 0.0
C984 C 0.75092 0.54335 0.84539 0.0
N985 N 0.77247 0.54773 0.84468 0.0
C986 C 0.76531 0.5855 0.84105 0.0
C987 C 0.77993 0.56827 0.84254 0.0
C988 C 0.7429 0.58147 0.84187 0.0
C989 C 0.73579 0.56 0.84393 0.0
H990 H 0.74551 0.52684 0.84719 0.0
H991 H 0.79717 0.5713 0.84217 0.0
C992 C 0.83269 0.48498 0.8923 0.0
N993 N 0.82468 0.50369 0.88631 0.0
C994 C 0.8382 0.48382 0.90784 0.0
C995 C 0.82821 0.52156 0.91057 0.0
C996 C 0.82293 0.52199 0.89495 0.0
C997 C 0.83548 0.50213 0.91728 0.0
H998 H 0.83425 0.47078 0.88511 0.0
H999 H 0.8166 0.53668 0.88983 0.0
C1000 C 0.77832 0.5116 0.81996 0.0
N1001 N 0.74771 0.5306 0.80108 0.0
C1002 C 0.75759 0.50261 0.81875 0.0
C1003 C 0.78354 0.53016 0.81148 0.0
C1004 C 0.74233 0.51248 0.80915 0.0
C1005 C 0.76781 0.53956 0.80204 0.0
C1006 C 0.82364 0.45705 0.85093 0.0
C1007 C 0.83326 0.44859 0.83765 0.0
C1008 C 0.81499 0.44293 0.86193 0.0
C1009 C 0.83401 0.42612 0.83559 0.0
C1010 C 0.81602 0.42056 0.85942 0.0
N1011 N 0.82543 0.41269 0.84642 0.0
C1012 C 0.86606 0.49902 0.82989 0.0
C1013 C 0.84198 0.50537 0.80912 0.0
C1014 C 0.88342 0.49653 0.81974 0.0
N1015 N 0.84585 0.50322 0.82443 0.0
C1016 C 0.85884 0.5029 0.79855 0.0
C1017 C 0.87987 0.49809 0.80381 0.0
H1018 H 0.86858 0.49707 0.84212 0.0
H1019 H 0.82568 0.50831 0.80508 0.0
C1020 C 0.75597 0.45657 0.8556 0.0
N1021 N 0.77262 0.45913 0.84554 0.0
C1022 C 0.74201 0.43889 0.8543 0.0
C1023 C 0.76237 0.42682 0.83213 0.0
C1024 C 0.77588 0.44488 0.8338 0.0
C1025 C 0.74513 0.42369 0.84247 0.0
H1026 H 0.75343 0.46835 0.86462 0.0
H1027 H 0.78896 0.44758 0.82574 0.0
O1028 O 0.82126 0.52955 0.85339 0.0
O1029 O 0.78106 0.50407 0.86397 0.0
O1030 O 0.79333 0.50247 0.82956 0.0
O1031 O 0.82252 0.47902 0.85308 0.0
H1032 H 0.85742 0.52691 0.86968 0.0
H1033 H 0.82855 0.55387 0.82883 0.0
H1034 H 0.89226 0.54433 0.86252 0.0
H1035 H 0.86391 0.57078 0.82237 0.0
H1036 H 0.771 0.48011 0.91292 0.0
H1037 H 0.76978 0.54161 0.87654 0.0
H1038 H 0.78031 0.4737 0.88553 0.0
H1039 H 0.76052 0.54678 0.90406 0.0
H1040 H 0.77149 0.60182 0.83964 0.0
H1041 H 0.7187 0.55607 0.84438 0.0
H1042 H 0.84416 0.46864 0.91248 0.0
H1043 H 0.8257 0.53602 0.91743 0.0
H1044 H 0.75324 0.48831 0.82527 0.0
H1045 H 0.79946 0.5374 0.81237 0.0
H1046 H 0.72619 0.50576 0.80816 0.0
H1047 H 0.77157 0.55402 0.7955 0.0
H1048 H 0.83991 0.45922 0.82896 0.0
H1049 H 0.80722 0.44918 0.87217 0.0
H1050 H 0.84135 0.41935 0.82536 0.0
H1051 H 0.80925 0.40947 0.86778 0.0
H1052 H 0.89936 0.49301 0.82432 0.0
H1053 H 0.85523 0.50383 0.78638 0.0
H1054 H 0.72903 0.43702 0.86258 0.0
H1055 H 0.76515 0.41563 0.82272 0.0
Li1056 Li 0.47319 0.20637 0.15566 0.0
Li1057 Li 0.49368 0.17393 0.16328 0.0
Li1058 Li 0.51318 0.20811 0.15492 0.0
Li1059 Li 0.49433 0.18486 0.13644 0.0
C1060 C 0.48637 0.2114 0.18662 0.0
N1061 N 0.47091 0.22768 0.21415 0.0
C1062 C 0.47503 0.19794 0.19676 0.0
C1063 C 0.48999 0.2331 0.19055 0.0
C1064 C 0.46731 0.20648 0.21061 0.0
C1065 C 0.48199 0.24104 0.20449 0.0
C1066 C 0.45392 0.1603 0.15248 0.0
C1067 C 0.44131 0.12329 0.15131 0.0
N1068 N 0.42392 0.12879 0.16011 0.0
C1069 C 0.43588 0.16562 0.16145 0.0
C1070 C 0.45662 0.139 0.14729 0.0
C1071 C 0.4209 0.14944 0.1652 0.0
C1072 C 0.44026 0.2327 0.14439 0.0
N1073 N 0.44769 0.2239 0.15773 0.0
C1074 C 0.42034 0.24259 0.17206 0.0
C1075 C 0.43781 0.22821 0.17139 0.0
C1076 C 0.41287 0.25257 0.15852 0.0
C1077 C 0.42286 0.24717 0.14452 0.0
H1078 H 0.44815 0.22877 0.13363 0.0
H1079 H 0.44351 0.22072 0.18182 0.0
C1080 C 0.5175 0.14462 0.18036 0.0
N1081 N 0.49661 0.1499 0.17712 0.0
C1082 C 0.52222 0.128 0.1907 0.0
C1083 C 0.48381 0.12223 0.19421 0.0
C1084 C 0.47982 0.1391 0.18382 0.0
C1085 C 0.50526 0.11667 0.19788 0.0
H1086 H 0.53058 0.15355 0.17502 0.0
H1087 H 0.46334 0.14386 0.1815 0.0
C1088 C 0.49526 0.23812 0.1353 0.0
N1089 N 0.50148 0.28145 0.12845 0.0
C1090 C 0.50235 0.24428 0.12066 0.0
C1091 C 0.49124 0.25399 0.14642 0.0
C1092 C 0.50543 0.26627 0.11743 0.0
C1093 C 0.4945 0.27581 0.14274 0.0
C1094 C 0.53111 0.16322 0.14098 0.0
C1095 C 0.55026 0.16992 0.13383 0.0
C1096 C 0.52379 0.14194 0.13902 0.0
C1097 C 0.56164 0.15525 0.12462 0.0
C1098 C 0.53564 0.12776 0.12971 0.0
N1099 N 0.55415 0.13466 0.12275 0.0
C1100 C 0.54429 0.23284 0.17157 0.0
C1101 C 0.54843 0.23265 0.14446 0.0
C1102 C 0.56185 0.247 0.17313 0.0
N1103 N 0.5378 0.22625 0.15738 0.0
C1104 C 0.56609 0.24672 0.14548 0.0
C1105 C 0.57291 0.25423 0.15995 0.0
H1106 H 0.53578 0.22717 0.18167 0.0
H1107 H 0.54302 0.22697 0.13333 0.0
C1108 C 0.48029 0.16292 0.1093 0.0
N1109 N 0.49576 0.17587 0.11561 0.0
C1110 C 0.48129 0.15744 0.09371 0.0
C1111 C 0.51421 0.17852 0.09154 0.0
C1112 C 0.51248 0.18372 0.1071 0.0
C1113 C 0.49839 0.16536 0.08462 0.0
H1114 H 0.467 0.15717 0.1163 0.0
H1115 H 0.52429 0.19433 0.11237 0.0
O1116 O 0.49424 0.20324 0.17309 0.0
O1117 O 0.4686 0.17596 0.14855 0.0
O1118 O 0.49245 0.21664 0.13873 0.0
O1119 O 0.51949 0.17745 0.14979 0.0
H1120 H 0.47199 0.18117 0.19391 0.0
H1121 H 0.49891 0.24374 0.18294 0.0
H1122 H 0.45842 0.19627 0.21853 0.0
H1123 H 0.48462 0.25782 0.20764 0.0
H1124 H 0.44324 0.10672 0.14743 0.0
H1125 H 0.43351 0.18201 0.16555 0.0
H1126 H 0.47041 0.13463 0.14025 0.0
H1127 H 0.40691 0.15331 0.17218 0.0
H1128 H 0.41318 0.24632 0.18313 0.0
H1129 H 0.41737 0.25411 0.13376 0.0
H1130 H 0.53901 0.12409 0.19309 0.0
H1131 H 0.47028 0.1141 0.19967 0.0
H1132 H 0.5055 0.23219 0.11191 0.0
H1133 H 0.48564 0.24949 0.15775 0.0
H1134 H 0.51096 0.27128 0.10617 0.0
H1135 H 0.49147 0.28826 0.15125 0.0
H1136 H 0.55617 0.18632 0.13529 0.0
H1137 H 0.50909 0.13649 0.14458 0.0
H1138 H 0.57642 0.16024 0.11893 0.0
H1139 H 0.53011 0.11127 0.12803 0.0
H1140 H 0.56678 0.25214 0.18452 0.0
H1141 H 0.574 0.25203 0.13501 0.0
H1142 H 0.46878 0.14723 0.0888 0.0
H1143 H 0.52742 0.18531 0.08489 0.0
Li1144 Li 0.78633 0.51565 0.14948 0.0
Li1145 Li 0.81698 0.49569 0.16056 0.0
Li1146 Li 0.81015 0.49535 0.13292 0.0
Li1147 Li 0.78642 0.47595 0.15082 0.0
C1148 C 0.81921 0.54228 0.14763 0.0
N1149 N 0.82027 0.58675 0.15173 0.0
C1150 C 0.82771 0.5511 0.16116 0.0
C1151 C 0.81133 0.5561 0.13615 0.0
C1152 C 0.82811 0.57362 0.16301 0.0
C1153 C 0.81196 0.57852 0.13846 0.0
C1154 C 0.77173 0.48874 0.17764 0.0
C1155 C 0.76043 0.46168 0.196 0.0
N1156 N 0.74015 0.47035 0.19601 0.0
C1157 C 0.75082 0.49745 0.17787 0.0
C1158 C 0.77664 0.47079 0.18683 0.0
C1159 C 0.73507 0.4879 0.18723 0.0
C1160 C 0.7537 0.54506 0.14031 0.0
N1161 N 0.7685 0.54069 0.15146 0.0
C1162 C 0.75764 0.5721 0.16564 0.0
C1163 C 0.77056 0.55362 0.16405 0.0
C1164 C 0.74235 0.57717 0.15421 0.0
C1165 C 0.74044 0.56332 0.14144 0.0
H1166 H 0.75203 0.53425 0.13061 0.0
H1167 H 0.7823 0.54957 0.17284 0.0
C1168 C 0.85992 0.49955 0.17196 0.0
N1169 N 0.83873 0.49739 0.17601 0.0
C1170 C 0.87566 0.50331 0.18321 0.0
C1171 C 0.84744 0.50264 0.20251 0.0
C1172 C 0.8323 0.49862 0.19093 0.0
C1173 C 0.86937 0.50536 0.19866 0.0
H1174 H 0.86448 0.49916 0.15996 0.0
H1175 H 0.81532 0.49731 0.1938 0.0
C1176 C 0.77296 0.49132 0.1184 0.0
N1177 N 0.76502 0.48356 0.0876 0.0
C1178 C 0.76746 0.47047 0.11342 0.0
C1179 C 0.77431 0.50825 0.10773 0.0
C1180 C 0.76349 0.46688 0.09779 0.0
C1181 C 0.77031 0.50398 0.0922 0.0
C1182 C 0.8359 0.46014 0.15047 0.0
C1183 C 0.85435 0.46201 0.14124 0.0
C1184 C 0.83692 0.44834 0.16419 0.0
C1185 C 0.87363 0.45216 0.14597 0.0
C1186 C 0.85651 0.43877 0.16853 0.0
N1187 N 0.87431 0.44086 0.15941 0.0
C1188 C 0.83077 0.51322 0.1068 0.0
C1189 C 0.8213 0.47607 0.10452 0.0
C1190 C 0.83679 0.51397 0.09134 0.0
N1191 N 0.8226 0.49464 0.1129 0.0
C1192 C 0.82712 0.47609 0.08899 0.0
C1193 C 0.83444 0.49539 0.08212 0.0
H1194 H 0.83192 0.52765 0.11378 0.0
H1195 H 0.81478 0.46152 0.10972 0.0
C1196 C 0.74612 0.45555 0.15246 0.0
N1197 N 0.76776 0.45167 0.15344 0.0
C1198 C 0.73131 0.43872 0.15453 0.0
C1199 C 0.76133 0.41402 0.15819 0.0
C1200 C 0.7756 0.43142 0.15616 0.0
C1201 C 0.73886 0.41762 0.15746 0.0
H1202 H 0.74039 0.47179 0.15007 0.0
H1203 H 0.7929 0.42879 0.15677 0.0
O1204 O 0.81834 0.52026 0.14569 0.0
O1205 O 0.78724 0.49753 0.16828 0.0
O1206 O 0.77741 0.49506 0.1336 0.0
O1207 O 0.81694 0.46983 0.14612 0.0
H1208 H 0.8338 0.54071 0.1702 0.0
H1209 H 0.8044 0.54957 0.1257 0.0
H1210 H 0.83458 0.58066 0.17345 0.0
H1211 H 0.80575 0.58939 0.12973 0.0
H1212 H 0.76395 0.44768 0.20308 0.0
H1213 H 0.74671 0.51127 0.17078 0.0
H1214 H 0.79273 0.4638 0.18672 0.0
H1215 H 0.71878 0.49439 0.18747 0.0
H1216 H 0.75973 0.58238 0.17564 0.0
H1217 H 0.72855 0.56633 0.13252 0.0
H1218 H 0.89238 0.50567 0.17978 0.0
H1219 H 0.84199 0.50411 0.21431 0.0
H1220 H 0.76651 0.45713 0.12147 0.0
H1221 H 0.77884 0.52442 0.11134 0.0
H1222 H 0.75931 0.45081 0.09376 0.0
H1223 H 0.77152 0.51687 0.0838 0.0
H1224 H 0.85385 0.47111 0.1306 0.0
H1225 H 0.8228 0.44682 0.17149 0.0
H1226 H 0.88807 0.45354 0.13898 0.0
H1227 H 0.85759 0.42972 0.17917 0.0
H1228 H 0.84275 0.52907 0.08656 0.0
H1229 H 0.82488 0.46144 0.08229 0.0
H1230 H 0.71414 0.44213 0.15361 0.0
H1231 H 0.76779 0.398 0.16047 0.0
Li1232 Li 0.50654 0.8292 0.15989 0.0
Li1233 Li 0.52593 0.79614 0.15257 0.0
Li1234 Li 0.50492 0.8182 0.13338 0.0
Li1235 Li 0.4857 0.79553 0.15212 0.0
C1236 C 0.54537 0.84214 0.1496 0.0
N1237 N 0.57367 0.87434 0.15886 0.0
C1238 C 0.5636 0.83691 0.1584 0.0
C1239 C 0.54166 0.8637 0.14535 0.0
C1240 C 0.57769 0.85343 0.163 0.0
C1241 C 0.55611 0.87976 0.15021 0.0
C1242 C 0.50982 0.78778 0.18276 0.0
C1243 C 0.50937 0.75337 0.19601 0.0
N1244 N 0.51885 0.76286 0.20843 0.0
C1245 C 0.51932 0.79723 0.19574 0.0
C1246 C 0.50458 0.76571 0.18297 0.0
C1247 C 0.52385 0.78435 0.20857 0.0
C1248 C 0.48873 0.86659 0.17338 0.0
N1249 N 0.50645 0.85349 0.17355 0.0
C1250 C 0.52201 0.87403 0.19413 0.0
C1251 C 0.52305 0.857 0.18354 0.0
C1252 C 0.50367 0.88755 0.19443 0.0
C1253 C 0.48704 0.88382 0.18372 0.0
H1254 H 0.47558 0.86329 0.16552 0.0
H1255 H 0.5369 0.84629 0.18355 0.0
C1256 C 0.55912 0.77003 0.14153 0.0
N1257 N 0.55104 0.77833 0.15483 0.0
C1258 C 0.57639 0.75544 0.14185 0.0
C1259 C 0.57743 0.7589 0.16954 0.0
C1260 C 0.5601 0.77346 0.16867 0.0
C1261 C 0.58556 0.7494 0.15602 0.0
H1262 H 0.55182 0.77444 0.13066 0.0
H1263 H 0.55381 0.78062 0.17907 0.0
C1264 C 0.46735 0.83842 0.1372 0.0
N1265 N 0.44197 0.86228 0.1172 0.0
C1266 C 0.44748 0.8302 0.13213 0.0
C1267 C 0.47417 0.85891 0.13227 0.0
C1268 C 0.43491 0.84248 0.12198 0.0
C1269 C 0.46115 0.87068 0.12211 0.0
C1270 C 0.50357 0.76541 0.13094 0.0
C1271 C 0.4956 0.76119 0.11618 0.0
C1272 C 0.50921 0.74808 0.1405 0.0
C1273 C 0.49293 0.73972 0.11138 0.0
C1274 C 0.50634 0.72683 0.13529 0.0
N1275 N 0.49829 0.72312 0.12096 0.0
C1276 C 0.52012 0.83884 0.10615 0.0
C1277 C 0.4868 0.81995 0.10388 0.0
C1278 C 0.51985 0.84379 0.09045 0.0
N1279 N 0.50383 0.82695 0.11245 0.0
C1280 C 0.48582 0.82458 0.0882 0.0
C1281 C 0.50268 0.83632 0.08122 0.0
H1282 H 0.53358 0.84401 0.11323 0.0
H1283 H 0.47415 0.8104 0.10918 0.0
C1284 C 0.45281 0.77311 0.16905 0.0
N1285 N 0.46067 0.77783 0.15482 0.0
C1286 C 0.4353 0.75889 0.17071 0.0
C1287 C 0.43369 0.75554 0.14303 0.0
C1288 C 0.45119 0.76977 0.14192 0.0
C1289 C 0.42574 0.74962 0.15757 0.0
H1290 H 0.46036 0.7801 0.17912 0.0
H1291 H 0.45727 0.77438 0.13073 0.0
O1292 O 0.53134 0.8262 0.14506 0.0
O1293 O 0.50529 0.80021 0.1701 0.0
O1294 O 0.48002 0.82651 0.14697 0.0
O1295 O 0.50621 0.78639 0.13583 0.0
H1296 H 0.56676 0.8203 0.16174 0.0
H1297 H 0.52775 0.86799 0.13843 0.0
H1298 H 0.5918 0.84964 0.16988 0.0
H1299 H 0.55338 0.89653 0.14708 0.0
H1300 H 0.50544 0.73626 0.19629 0.0
H1301 H 0.52326 0.8143 0.19591 0.0
H1302 H 0.49667 0.7582 0.17326 0.0
H1303 H 0.53133 0.79144 0.21864 0.0
H1304 H 0.53522 0.87636 0.20217 0.0
H1305 H 0.4724 0.89352 0.18374 0.0
H1306 H 0.58243 0.74888 0.13112 0.0
H1307 H 0.58396 0.75469 0.18071 0.0
H1308 H 0.44185 0.81448 0.13594 0.0
H1309 H 0.48941 0.86557 0.13618 0.0
H1310 H 0.41956 0.83627 0.11789 0.0
H1311 H 0.46631 0.88648 0.11811 0.0
H1312 H 0.49142 0.77434 0.10851 0.0
H1313 H 0.51602 0.75095 0.15175 0.0
H1314 H 0.48662 0.73625 0.10003 0.0
H1315 H 0.51062 0.71329 0.1426 0.0
H1316 H 0.53331 0.85267 0.08552 0.0
H1317 H 0.47212 0.81877 0.08159 0.0
H1318 H 0.4297 0.75476 0.18215 0.0
H1319 H 0.42648 0.74925 0.13258 0.0
Li1320 Li 0.21356 0.5263 0.15086 0.0
Li1321 Li 0.18977 0.50681 0.13302 0.0
Li1322 Li 0.18272 0.50727 0.1606 0.0
Li1323 Li 0.21319 0.48657 0.15003 0.0
C1324 C 0.16399 0.54218 0.15005 0.0
N1325 N 0.1251 0.56063 0.15879 0.0
C1326 C 0.14553 0.5394 0.14094 0.0
C1327 C 0.16273 0.55446 0.16354 0.0
C1328 C 0.126 0.54885 0.14557 0.0
C1329 C 0.1429 0.56361 0.16779 0.0
C1330 C 0.22756 0.50939 0.11873 0.0
C1331 C 0.23037 0.49534 0.09289 0.0
N1332 N 0.23704 0.51517 0.08792 0.0
C1333 C 0.23448 0.52963 0.11337 0.0
C1334 C 0.22556 0.49207 0.10843 0.0
C1335 C 0.23921 0.53221 0.09775 0.0
C1336 C 0.2541 0.54622 0.15196 0.0
N1337 N 0.23254 0.55039 0.15316 0.0
C1338 C 0.23955 0.58804 0.15748 0.0
C1339 C 0.22502 0.57077 0.15585 0.0
C1340 C 0.26196 0.58423 0.15627 0.0
C1341 C 0.26915 0.56293 0.15354 0.0
H1342 H 0.25957 0.52983 0.14977 0.0
H1343 H 0.20777 0.57363 0.15664 0.0
C1344 C 0.16696 0.48903 0.10782 0.0
N1345 N 0.17738 0.50702 0.11299 0.0
C1346 C 0.16061 0.48754 0.09245 0.0
C1347 C 0.17481 0.52361 0.08823 0.0
C1348 C 0.18065 0.52448 0.10373 0.0
C1349 C 0.16515 0.5047 0.08229 0.0
H1350 H 0.16414 0.47557 0.11552 0.0
H1351 H 0.18877 0.53869 0.10822 0.0
C1352 C 0.22808 0.51402 0.17775 0.0
N1353 N 0.2602 0.53243 0.19564 0.0
C1354 C 0.24875 0.50476 0.17819 0.0
C1355 C 0.2237 0.53257 0.18648 0.0
C1356 C 0.26478 0.51432 0.18731 0.0
C1357 C 0.24018 0.54166 0.19542 0.0
C1358 C 0.17997 0.46038 0.14806 0.0
C1359 C 0.17202 0.45176 0.16183 0.0
C1360 C 0.18699 0.44639 0.13642 0.0
C1361 C 0.17128 0.42926 0.16373 0.0
C1362 C 0.18604 0.42399 0.13878 0.0
N1363 N 0.17827 0.41596 0.15227 0.0
C1364 C 0.13987 0.50174 0.17128 0.0
C1365 C 0.16606 0.50746 0.19083 0.0
C1366 C 0.12383 0.49786 0.18228 0.0
N1367 N 0.16053 0.50614 0.17573 0.0
C1368 C 0.15059 0.5036 0.20221 0.0
C1369 C 0.12927 0.49822 0.19797 0.0
H1370 H 0.13607 0.50029 0.15917 0.0
H1371 H 0.18268 0.51061 0.19404 0.0
C1372 C 0.24523 0.45623 0.14122 0.0
N1373 N 0.23054 0.46119 0.15232 0.0
C1374 C 0.25807 0.43769 0.14256 0.0
C1375 C 0.24071 0.42989 0.16687 0.0
C1376 C 0.2282 0.44862 0.16506 0.0
C1377 C 0.25586 0.42418 0.15549 0.0
H1378 H 0.24715 0.46676 0.1314 0.0
H1379 H 0.2166 0.45315 0.17382 0.0
O1380 O 0.18316 0.53276 0.14585 0.0
O1381 O 0.22249 0.50663 0.13394 0.0
O1382 O 0.21231 0.5052 0.16863 0.0
O1383 O 0.18121 0.48238 0.14608 0.0
H1384 H 0.14622 0.5299 0.13049 0.0
H1385 H 0.17685 0.55664 0.17076 0.0
H1386 H 0.11155 0.54676 0.13868 0.0
H1387 H 0.14164 0.57302 0.17826 0.0
H1388 H 0.2287 0.48213 0.08478 0.0
H1389 H 0.23595 0.54327 0.12112 0.0
H1390 H 0.21997 0.47637 0.11233 0.0
H1391 H 0.24449 0.5478 0.09343 0.0
H1392 H 0.23328 0.60423 0.1594 0.0
H1393 H 0.28626 0.55916 0.15275 0.0
H1394 H 0.1527 0.47287 0.08851 0.0
H1395 H 0.1788 0.5372 0.08086 0.0
H1396 H 0.25246 0.49049 0.17144 0.0
H1397 H 0.20784 0.54005 0.18616 0.0
H1398 H 0.28088 0.50739 0.1877 0.0
H1399 H 0.23707 0.55611 0.20214 0.0
H1400 H 0.1667 0.46229 0.17103 0.0
H1401 H 0.19341 0.45276 0.12576 0.0
H1402 H 0.16524 0.42238 0.17435 0.0
H1403 H 0.19155 0.41298 0.1299 0.0
H1404 H 0.10768 0.49345 0.17853 0.0
H1405 H 0.15539 0.50415 0.21419 0.0
H1406 H 0.26988 0.43421 0.13367 0.0
H1407 H 0.2384 0.4199 0.17699 0.0
H1408 H 0.09556 0.22906 0.31666 0.0
H1409 H 0.12587 0.20358 0.31454 0.0
H1410 H 0.12388 0.19293 0.36355 0.0
H1411 H 0.09321 0.21789 0.36573 0.0
H1412 H 0.16712 0.20428 0.32896 0.0
H1413 H 0.11921 0.13148 0.34513 0.0
H1414 H 0.10673 0.15682 0.33965 0.0
H1415 H 0.11761 0.15344 0.35868 0.0
C1416 C 0.10147 0.22117 0.32697 0.0
C1417 C 0.09187 0.22538 0.34135 0.0
C1418 C 0.11888 0.20675 0.32575 0.0
C1419 C 0.1269 0.19618 0.33886 0.0
C1420 C 0.1177 0.20069 0.35327 0.0
H1421 H 0.24632 0.12415 0.35115 0.0
H1422 H 0.21814 0.15207 0.35056 0.0
C1423 C 0.10032 0.21512 0.35451 0.0
C1424 C 0.14477 0.18026 0.33744 0.0
H1425 H 0.1573 0.12695 0.34325 0.0
C1426 C 0.165 0.18735 0.33203 0.0
C1427 C 0.14181 0.15814 0.34124 0.0
C1428 C 0.12013 0.1494 0.34636 0.0
C1429 C 0.18255 0.17295 0.33063 0.0
C1430 C 0.17978 0.15098 0.33493 0.0
C1431 C 0.15942 0.14384 0.34005 0.0
C1432 C 0.19774 0.13503 0.33429 0.0
C1433 C 0.20378 0.1813 0.32437 0.0
C1434 C 0.19559 0.11615 0.32541 0.0
C1435 C 0.21161 0.10015 0.32576 0.0
C1436 C 0.23009 0.10269 0.33507 0.0
C1437 C 0.23245 0.12187 0.34369 0.0
C1438 C 0.21636 0.13785 0.34336 0.0
H1439 H 0.20159 0.19661 0.3178 0.0
H1440 H 0.21494 0.18467 0.33409 0.0
H1441 H 0.21157 0.16909 0.31676 0.0
H1442 H 0.18133 0.11365 0.31835 0.0
H1443 H 0.20944 0.08566 0.31887 0.0
H1444 H 0.91152 0.1989 0.35309 0.0
H1445 H 0.88237 0.17235 0.35095 0.0
H1446 H 0.84316 0.21901 0.32661 0.0
H1447 H 0.87196 0.2461 0.32929 0.0
H1448 H 0.82014 0.19749 0.34866 0.0
H1449 H 0.86536 0.13871 0.31278 0.0
H1450 H 0.87953 0.14532 0.33018 0.0
H1451 H 0.87476 0.16608 0.316 0.0
C1452 C 0.89663 0.20365 0.34742 0.0
C1453 C 0.89411 0.22468 0.34136 0.0
C1454 C 0.88009 0.18832 0.346 0.0
C1455 C 0.86077 0.19355 0.33834 0.0
C1456 C 0.85804 0.21457 0.33243 0.0
H1457 H 0.76858 0.09048 0.31543 0.0
H1458 H 0.79287 0.12175 0.31351 0.0
C1459 C 0.87457 0.22998 0.33389 0.0
C1460 C 0.84325 0.17719 0.33691 0.0
H1461 H 0.83314 0.12541 0.32496 0.0
C1462 C 0.82289 0.18181 0.34333 0.0
C1463 C 0.84671 0.1569 0.32968 0.0
C1464 C 0.8677 0.15152 0.32163 0.0
C1465 C 0.80619 0.16633 0.3433 0.0
C1466 C 0.81013 0.14553 0.33698 0.0
C1467 C 0.83019 0.14126 0.32998 0.0
C1468 C 0.79408 0.12766 0.33804 0.0
C1469 C 0.78448 0.17244 0.35003 0.0
C1470 C 0.78667 0.12059 0.35246 0.0
C1471 C 0.77261 0.10291 0.35358 0.0
C1472 C 0.76587 0.09168 0.34032 0.0
C1473 C 0.77319 0.09891 0.32587 0.0
C1474 C 0.7872 0.11669 0.32475 0.0
H1475 H 0.78185 0.19028 0.34962 0.0
H1476 H 0.77099 0.16433 0.34383 0.0
H1477 H 0.78394 0.16739 0.36228 0.0
H1478 H 0.79213 0.12847 0.3629 0.0
H1479 H 0.76711 0.09797 0.36489 0.0
H1480 H 0.75415 0.87191 0.35264 0.0
H1481 H 0.7819 0.84349 0.35172 0.0
H1482 H 0.8234 0.88557 0.32524 0.0
H1483 H 0.79567 0.9139 0.3258 0.0
H1484 H 0.80423 0.82392 0.32471 0.0
H1485 H 0.8589 0.86834 0.36466 0.0
H1486 H 0.83036 0.87445 0.363 0.0
H1487 H 0.84898 0.88371 0.34854 0.0
C1488 C 0.76903 0.87501 0.34641 0.0
C1489 C 0.77277 0.89527 0.33941 0.0
C1490 C 0.78489 0.85879 0.34596 0.0
C1491 C 0.80476 0.8626 0.33861 0.0
C1492 C 0.80828 0.88249 0.33119 0.0
H1493 H 0.92705 0.7961 0.33 0.0
H1494 H 0.8965 0.82119 0.32882 0.0
C1495 C 0.79245 0.89867 0.33158 0.0
C1496 C 0.82212 0.84607 0.33902 0.0
H1497 H 0.87294 0.83668 0.35298 0.0
C1498 C 0.81923 0.82659 0.33094 0.0
C1499 C 0.84161 0.8497 0.34717 0.0
C1500 C 0.84519 0.87009 0.35645 0.0
C1501 C 0.83567 0.8108 0.33044 0.0
C1502 C 0.85525 0.8145 0.33852 0.0
C1503 C 0.85796 0.83391 0.34675 0.0
C1504 C 0.87333 0.79864 0.3385 0.0
C1505 C 0.83217 0.79065 0.3209 0.0
C1506 C 0.87046 0.77761 0.34435 0.0
C1507 C 0.88788 0.76309 0.34487 0.0
C1508 C 0.90855 0.76941 0.33967 0.0
C1509 C 0.91131 0.79053 0.33383 0.0
C1510 C 0.89389 0.80497 0.33326 0.0
H1511 H 0.81906 0.79293 0.31228 0.0
H1512 H 0.84725 0.78591 0.31479 0.0
H1513 H 0.82738 0.77708 0.32857 0.0
H1514 H 0.85484 0.77252 0.34874 0.0
H1515 H 0.88513 0.74692 0.34934 0.0
H1516 H 0.13012 0.75201 0.33268 0.0
H1517 H 0.15951 0.77843 0.33053 0.0
H1518 H 0.11598 0.82943 0.34469 0.0
H1519 H 0.08626 0.80345 0.34598 0.0
H1520 H 0.14081 0.84215 0.32112 0.0
H1521 H 0.19242 0.80443 0.3661 0.0
H1522 H 0.18586 0.78661 0.35044 0.0
H1523 H 0.1647 0.79632 0.3629 0.0
C1524 C 0.1267 0.76888 0.33516 0.0
C1525 C 0.1058 0.77552 0.33965 0.0
C1526 C 0.14363 0.78393 0.33413 0.0
C1527 C 0.14007 0.80584 0.33777 0.0
C1528 C 0.11917 0.81257 0.34196 0.0
H1529 H 0.22911 0.90534 0.36486 0.0
H1530 H 0.2033 0.87555 0.3627 0.0
C1531 C 0.10222 0.79762 0.34285 0.0
C1532 C 0.15797 0.82192 0.33722 0.0
H1533 H 0.20715 0.83453 0.35289 0.0
C1534 C 0.15536 0.84047 0.32802 0.0
C1535 C 0.17684 0.81978 0.34636 0.0
C1536 C 0.18011 0.80083 0.35712 0.0
C1537 C 0.17089 0.85711 0.3279 0.0
C1538 C 0.18989 0.85485 0.33689 0.0
C1539 C 0.19267 0.83614 0.3459 0.0
C1540 C 0.20633 0.87238 0.338 0.0
C1541 C 0.16632 0.87733 0.31864 0.0
C1542 C 0.21697 0.88027 0.32486 0.0
C1543 C 0.23146 0.89766 0.32601 0.0
C1544 C 0.23582 0.90731 0.34037 0.0
C1545 C 0.22577 0.89871 0.35357 0.0
C1546 C 0.21116 0.8815 0.35238 0.0
H1547 H 0.14887 0.87879 0.31566 0.0
H1548 H 0.1713 0.89212 0.32502 0.0
H1549 H 0.17564 0.87669 0.30773 0.0
H1550 H 0.21389 0.87315 0.31368 0.0
H1551 H 0.23882 0.90387 0.31559 0.0
H1552 H 0.10618 0.75879 0.67582 0.0
H1553 H 0.1357 0.7852 0.67806 0.0
H1554 H 0.10338 0.827 0.64555 0.0
H1555 H 0.07353 0.80112 0.64363 0.0
H1556 H 0.16302 0.80082 0.655 0.0
H1557 H 0.11607 0.86785 0.68139 0.0
H1558 H 0.10609 0.84033 0.68058 0.0
H1559 H 0.10406 0.8577 0.66401 0.0
C1560 C 0.10521 0.77375 0.66932 0.0
C1561 C 0.08744 0.77788 0.65958 0.0
C1562 C 0.12215 0.78874 0.67053 0.0
C1563 C 0.12156 0.80818 0.66215 0.0
C1564 C 0.10396 0.81228 0.65235 0.0
H1565 H 0.20243 0.91695 0.64186 0.0
H1566 H 0.17476 0.88877 0.64379 0.0
C1567 C 0.08703 0.79733 0.65112 0.0
C1568 C 0.1396 0.82398 0.66324 0.0
H1569 H 0.15079 0.87709 0.6711 0.0
C1570 C 0.16044 0.81743 0.6587 0.0
C1571 C 0.13618 0.84561 0.66814 0.0
C1572 C 0.11444 0.85327 0.67395 0.0
C1573 C 0.17777 0.83221 0.6583 0.0
C1574 C 0.17414 0.85399 0.66271 0.0
C1575 C 0.15345 0.86039 0.66764 0.0
C1576 C 0.19129 0.8707 0.6616 0.0
C1577 C 0.19961 0.82468 0.65261 0.0
C1578 C 0.20973 0.86989 0.67104 0.0
C1579 C 0.22555 0.88611 0.67006 0.0
C1580 C 0.22313 0.90346 0.65966 0.0
C1581 C 0.20464 0.90406 0.65018 0.0
C1582 C 0.18886 0.88791 0.6512 0.0
H1583 H 0.19874 0.80845 0.64706 0.0
H1584 H 0.20641 0.83646 0.64422 0.0
H1585 H 0.21099 0.82362 0.66247 0.0
H1586 H 0.21172 0.85688 0.6793 0.0
H1587 H 0.23946 0.8853 0.67765 0.0
H1588 H 0.23342 0.10548 0.63188 0.0
H1589 H 0.20817 0.1359 0.63404 0.0
H1590 H 0.20647 0.12779 0.68329 0.0
H1591 H 0.23146 0.09706 0.68124 0.0
H1592 H 0.1657 0.13255 0.64745 0.0
H1593 H 0.21718 0.19394 0.67691 0.0
H1594 H 0.22846 0.17093 0.66681 0.0
H1595 H 0.21649 0.16737 0.68546 0.0
C1596 C 0.2277 0.11015 0.64318 0.0
C1597 C 0.23439 0.09876 0.65638 0.0
C1598 C 0.21338 0.12761 0.64439 0.0
C1599 C 0.20563 0.13418 0.65882 0.0
C1600 C 0.21258 0.12319 0.67207 0.0
H1601 H 0.11018 0.23145 0.68563 0.0
H1602 H 0.13833 0.2034 0.68552 0.0
C1603 C 0.22688 0.10566 0.67087 0.0
C1604 C 0.18918 0.1516 0.65983 0.0
H1605 H 0.18028 0.20298 0.67313 0.0
C1606 C 0.16888 0.14797 0.65303 0.0
C1607 C 0.19336 0.17157 0.66725 0.0
C1608 C 0.21509 0.17637 0.67445 0.0
C1609 C 0.15256 0.1638 0.65349 0.0
C1610 C 0.15687 0.18399 0.66062 0.0
C1611 C 0.17708 0.18751 0.66761 0.0
C1612 C 0.14061 0.20169 0.66072 0.0
C1613 C 0.13074 0.15859 0.64654 0.0
C1614 C 0.13295 0.21034 0.64682 0.0
C1615 C 0.11676 0.22616 0.64683 0.0
C1616 C 0.10806 0.23386 0.66076 0.0
C1617 C 0.11631 0.22566 0.6747 0.0
C1618 C 0.13248 0.20975 0.67467 0.0
H1619 H 0.12816 0.1408 0.64554 0.0
H1620 H 0.11738 0.16559 0.65352 0.0
H1621 H 0.12985 0.16563 0.63481 0.0
H1622 H 0.13929 0.20462 0.63593 0.0
H1623 H 0.11064 0.2319 0.63588 0.0
H1624 H 0.90518 0.232 0.68331 0.0
H1625 H 0.87499 0.20636 0.68582 0.0
H1626 H 0.87885 0.19225 0.6373 0.0
H1627 H 0.90893 0.21779 0.63469 0.0
H1628 H 0.83433 0.20465 0.67118 0.0
H1629 H 0.88429 0.13237 0.65745 0.0
H1630 H 0.89604 0.15836 0.66215 0.0
H1631 H 0.88578 0.15329 0.64311 0.0
C1632 C 0.89946 0.22356 0.67316 0.0
C1633 C 0.90959 0.22674 0.65883 0.0
C1634 C 0.88227 0.2089 0.67462 0.0
C1635 C 0.87497 0.19714 0.6618 0.0
C1636 C 0.88459 0.20078 0.64741 0.0
H1637 H 0.75744 0.12388 0.64707 0.0
H1638 H 0.78506 0.15225 0.64897 0.0
C1639 C 0.90179 0.21537 0.64594 0.0
C1640 C 0.85746 0.18085 0.66344 0.0
H1641 H 0.84607 0.12726 0.65783 0.0
C1642 C 0.83689 0.18769 0.66837 0.0
C1643 C 0.86096 0.15869 0.66001 0.0
C1644 C 0.88301 0.15015 0.65553 0.0
C1645 C 0.81952 0.17301 0.66951 0.0
C1646 C 0.8228 0.15104 0.66538 0.0
C1647 C 0.84353 0.14414 0.66087 0.0
C1648 C 0.80498 0.13488 0.66537 0.0
C1649 C 0.79791 0.18113 0.67524 0.0
C1650 C 0.80705 0.11562 0.67387 0.0
C1651 C 0.79139 0.09933 0.6727 0.0
C1652 C 0.77336 0.10197 0.66299 0.0
C1653 C 0.77099 0.12152 0.65482 0.0
C1654 C 0.78674 0.13777 0.65592 0.0
H1655 H 0.79971 0.19623 0.68212 0.0
H1656 H 0.78737 0.18487 0.66524 0.0
H1657 H 0.78966 0.16871 0.68241 0.0
H1658 H 0.82101 0.11304 0.68121 0.0
H1659 H 0.79353 0.08454 0.67926 0.0
H1660 H 0.77378 0.90756 0.67904 0.0
H1661 H 0.79893 0.87689 0.68087 0.0
H1662 H 0.7951 0.86775 0.63177 0.0
H1663 H 0.76981 0.89817 0.62983 0.0
H1664 H 0.79427 0.83246 0.67103 0.0
H1665 H 0.8606 0.87552 0.64044 0.0
H1666 H 0.83734 0.88946 0.64827 0.0
H1667 H 0.83518 0.87504 0.63036 0.0
C1668 C 0.77807 0.89885 0.66866 0.0
C1669 C 0.76995 0.90544 0.65427 0.0
C1670 C 0.79251 0.88141 0.66972 0.0
C1671 C 0.79912 0.87033 0.65643 0.0
C1672 C 0.79052 0.8764 0.64213 0.0
H1673 H 0.88999 0.76839 0.6347 0.0
H1674 H 0.86167 0.79609 0.63459 0.0
C1675 C 0.77611 0.89381 0.64104 0.0
C1676 C 0.81531 0.85265 0.65742 0.0
H1677 H 0.86599 0.83813 0.6455 0.0
C1678 C 0.81 0.83368 0.66553 0.0
C1679 C 0.83581 0.85438 0.65025 0.0
C1680 C 0.84273 0.87476 0.64194 0.0
C1681 C 0.82449 0.81612 0.6663 0.0
C1682 C 0.84492 0.81779 0.659 0.0
C1683 C 0.85027 0.83686 0.65103 0.0
C1684 C 0.86102 0.79995 0.65933 0.0
C1685 C 0.8176 0.79573 0.67458 0.0
C1686 C 0.87005 0.79291 0.67329 0.0
C1687 C 0.88614 0.77692 0.6734 0.0
C1688 C 0.89358 0.76776 0.65954 0.0
C1689 C 0.88436 0.77478 0.6456 0.0
C1690 C 0.86829 0.79074 0.6455 0.0
H1691 H 0.79974 0.79501 0.67615 0.0
H1692 H 0.82292 0.78105 0.6682 0.0
H1693 H 0.82524 0.79537 0.68613 0.0
H1694 H 0.86496 0.80009 0.68407 0.0
H1695 H 0.89283 0.7718 0.68434 0.0
H1696 H 0.61059 0.74514 0.8247 0.0
H1697 H 0.64016 0.71881 0.82206 0.0
H1698 H 0.60911 0.67719 0.85531 0.0
H1699 H 0.57927 0.70297 0.85766 0.0
H1700 H 0.66834 0.70315 0.84484 0.0
H1701 H 0.62041 0.63629 0.81918 0.0
H1702 H 0.6106 0.66387 0.82004 0.0
H1703 H 0.60881 0.64656 0.83666 0.0
C1704 C 0.60993 0.73024 0.8313 0.0
C1705 C 0.59253 0.72613 0.84136 0.0
C1706 C 0.62689 0.7153 0.82984 0.0
C1707 C 0.62664 0.69592 0.83831 0.0
C1708 C 0.60942 0.69187 0.84845 0.0
H1709 H 0.70607 0.58675 0.85891 0.0
H1710 H 0.67899 0.61547 0.8568 0.0
C1711 C 0.5925 0.70676 0.84992 0.0
C1712 C 0.6446 0.68008 0.83695 0.0
H1713 H 0.65516 0.62678 0.82936 0.0
C1714 C 0.66557 0.68652 0.84125 0.0
C1715 C 0.64091 0.65844 0.83219 0.0
C1716 C 0.61901 0.6509 0.8266 0.0
C1717 C 0.68277 0.67158 0.84164 0.0
C1718 C 0.67885 0.64976 0.83744 0.0
C1719 C 0.65805 0.64351 0.83266 0.0
C1720 C 0.69576 0.63283 0.83874 0.0
C1721 C 0.70476 0.67897 0.84712 0.0
C1722 C 0.71415 0.63309 0.82924 0.0
C1723 C 0.72964 0.61655 0.83033 0.0
C1724 C 0.72691 0.59946 0.8409 0.0
C1725 C 0.70851 0.59945 0.85047 0.0
C1726 C 0.69307 0.61591 0.84934 0.0
H1727 H 0.70418 0.69537 0.85242 0.0
H1728 H 0.71146 0.66734 0.85565 0.0
H1729 H 0.71607 0.67955 0.8372 0.0
H1730 H 0.71634 0.64586 0.82083 0.0
H1731 H 0.74349 0.6169 0.82268 0.0
H1732 H 0.37721 0.742 0.85911 0.0
H1733 H 0.3494 0.7136 0.85793 0.0
H1734 H 0.38321 0.68336 0.82019 0.0
H1735 H 0.41121 0.71146 0.8214 0.0
H1736 H 0.32282 0.69976 0.83096 0.0
H1737 H 0.37683 0.63551 0.85449 0.0
H1738 H 0.38246 0.66409 0.85681 0.0
H1739 H 0.38741 0.65108 0.83867 0.0
C1740 C 0.37872 0.72929 0.85057 0.0
C1741 C 0.39644 0.72892 0.84039 0.0
C1742 C 0.36278 0.71318 0.84987 0.0
C1743 C 0.36443 0.69633 0.83908 0.0
C1744 C 0.3818 0.69616 0.82868 0.0
H1745 H 0.29328 0.57685 0.82397 0.0
H1746 H 0.31876 0.60726 0.82283 0.0
C1747 C 0.39767 0.71231 0.82931 0.0
C1748 C 0.34823 0.67864 0.83892 0.0
H1749 H 0.34205 0.62462 0.84627 0.0
C1750 C 0.32694 0.68332 0.83432 0.0
C1751 C 0.35377 0.65727 0.84328 0.0
C1752 C 0.37631 0.65158 0.84871 0.0
C1753 C 0.31105 0.66701 0.83373 0.0
C1754 C 0.31655 0.64561 0.83821 0.0
C1755 C 0.33788 0.641 0.84281 0.0
C1756 C 0.30046 0.62772 0.83836 0.0
C1757 C 0.2887 0.67274 0.82798 0.0
C1758 C 0.28176 0.62909 0.84751 0.0
C1759 C 0.26715 0.61176 0.84814 0.0
C1760 C 0.27114 0.59262 0.8398 0.0
C1761 C 0.28987 0.59131 0.83063 0.0
C1762 C 0.30439 0.60869 0.82993 0.0
H1763 H 0.2889 0.68777 0.82091 0.0
H1764 H 0.28173 0.65937 0.82099 0.0
H1765 H 0.27787 0.67563 0.83796 0.0
H1766 H 0.27869 0.64337 0.85444 0.0
H1767 H 0.25305 0.61312 0.85551 0.0
H1768 H 0.26025 0.37992 0.85478 0.0
H1769 H 0.2882 0.35181 0.85363 0.0
H1770 H 0.31514 0.38174 0.81306 0.0
H1771 H 0.28718 0.40988 0.81408 0.0
H1772 H 0.29957 0.32202 0.83024 0.0
H1773 H 0.3666 0.37955 0.84302 0.0
H1774 H 0.33845 0.38654 0.84573 0.0
H1775 H 0.35009 0.38678 0.82678 0.0
C1776 C 0.27192 0.38036 0.84547 0.0
C1777 C 0.27157 0.39723 0.83457 0.0
C1778 C 0.28794 0.36434 0.84488 0.0
C1779 C 0.30394 0.36493 0.83342 0.0
C1780 C 0.30321 0.38127 0.8222 0.0
H1781 H 0.42005 0.28717 0.81866 0.0
H1782 H 0.38967 0.31241 0.81568 0.0
C1783 C 0.28723 0.39733 0.8228 0.0
C1784 C 0.32166 0.34869 0.83345 0.0
H1785 H 0.37646 0.34337 0.83743 0.0
C1786 C 0.31639 0.32666 0.8318 0.0
C1787 C 0.34357 0.35483 0.83551 0.0
C1788 C 0.35009 0.37818 0.838 0.0
C1789 C 0.33252 0.31057 0.83203 0.0
C1790 C 0.3544 0.3167 0.83421 0.0
C1791 C 0.35967 0.33875 0.8357 0.0
C1792 C 0.37205 0.30051 0.83547 0.0
C1793 C 0.32604 0.28718 0.82977 0.0
C1794 C 0.37221 0.28551 0.84761 0.0
C1795 C 0.38949 0.27105 0.84933 0.0
C1796 C 0.407 0.27138 0.83896 0.0
C1797 C 0.40668 0.28632 0.82672 0.0
C1798 C 0.38941 0.30082 0.82504 0.0
H1799 H 0.3099 0.28576 0.82417 0.0
H1800 H 0.33817 0.27841 0.82266 0.0
H1801 H 0.32511 0.27906 0.84114 0.0
H1802 H 0.35916 0.28526 0.85595 0.0
H1803 H 0.38915 0.25962 0.85879 0.0
H1804 H 0.70103 0.42334 0.84495 0.0
H1805 H 0.67681 0.39199 0.84405 0.0
H1806 H 0.73144 0.34993 0.83572 0.0
H1807 H 0.75585 0.38133 0.83659 0.0
H1808 H 0.69566 0.34054 0.81713 0.0
H1809 H 0.67181 0.34704 0.87844 0.0
H1810 H 0.66757 0.37168 0.86786 0.0
H1811 H 0.69466 0.36153 0.87053 0.0
C1812 C 0.70791 0.40741 0.84301 0.0
C1813 C 0.73038 0.40477 0.84101 0.0
C1814 C 0.69406 0.38952 0.8425 0.0
C1815 C 0.70239 0.3686 0.84014 0.0
C1816 C 0.72471 0.36594 0.83765 0.0
H1817 H 0.62486 0.25363 0.86004 0.0
H1818 H 0.65426 0.28025 0.85891 0.0
C1819 C 0.73861 0.38388 0.83809 0.0
C1820 C 0.68772 0.34956 0.8404 0.0
H1821 H 0.6505 0.3235 0.8628 0.0
C1822 C 0.68589 0.33668 0.82714 0.0
C1823 C 0.67531 0.34433 0.85357 0.0
C1824 C 0.67755 0.35673 0.86846 0.0
C1825 C 0.67138 0.31912 0.82654 0.0
C1826 C 0.65813 0.31462 0.83944 0.0
C1827 C 0.66052 0.32708 0.85285 0.0
C1828 C 0.64128 0.29745 0.83925 0.0
C1829 C 0.67049 0.3055 0.81213 0.0
C1830 C 0.62425 0.29825 0.82856 0.0
C1831 C 0.60745 0.28305 0.82917 0.0
C1832 C 0.60724 0.26692 0.84061 0.0
C1833 C 0.62447 0.26598 0.85118 0.0
C1834 C 0.64131 0.28112 0.85051 0.0
H1835 H 0.68578 0.30672 0.80543 0.0
H1836 H 0.66745 0.28817 0.81488 0.0
H1837 H 0.65709 0.31139 0.8047 0.0
H1838 H 0.62357 0.31104 0.82003 0.0
H1839 H 0.59423 0.28442 0.82103 0.0
H1840 H 0.70152 0.41756 0.17434 0.0
H1841 H 0.67466 0.3885 0.17643 0.0
H1842 H 0.71376 0.34796 0.14698 0.0
H1843 H 0.74078 0.37691 0.14496 0.0
H1844 H 0.65135 0.37074 0.15307 0.0
H1845 H 0.69977 0.3068 0.18198 0.0
H1846 H 0.70851 0.33472 0.18102 0.0
H1847 H 0.71212 0.31705 0.16475 0.0
C1848 C 0.70444 0.40241 0.16837 0.0
C1849 C 0.72325 0.39951 0.15948 0.0
C1850 C 0.68913 0.3858 0.16962 0.0
C1851 C 0.69233 0.36596 0.16203 0.0
C1852 C 0.7112 0.36293 0.15325 0.0
H1853 H 0.61147 0.25379 0.14434 0.0
H1854 H 0.6405 0.28088 0.14534 0.0
C1855 C 0.7266 0.3795 0.15207 0.0
C1856 C 0.67525 0.34903 0.16252 0.0
H1857 H 0.66559 0.29599 0.17171 0.0
C1858 C 0.65443 0.35444 0.15726 0.0
C1859 C 0.67932 0.32776 0.16795 0.0
C1860 C 0.70109 0.32124 0.17438 0.0
C1861 C 0.63765 0.33908 0.15702 0.0
C1862 C 0.64176 0.31781 0.16235 0.0
C1863 C 0.66255 0.31234 0.16763 0.0
C1864 C 0.62464 0.30098 0.16235 0.0
C1865 C 0.61578 0.34559 0.15075 0.0
C1866 C 0.60634 0.30316 0.1718 0.0
C1867 C 0.58971 0.28777 0.17123 0.0
C1868 C 0.59112 0.26991 0.1612 0.0
C1869 C 0.60977 0.26752 0.15202 0.0
C1870 C 0.62642 0.28289 0.15265 0.0
H1871 H 0.61659 0.36098 0.14412 0.0
H1872 H 0.60911 0.33267 0.1432 0.0
H1873 H 0.60434 0.34796 0.16046 0.0
H1874 H 0.60481 0.3169 0.17949 0.0
H1875 H 0.57551 0.29016 0.17836 0.0
H1876 H 0.62191 0.74902 0.17427 0.0
H1877 H 0.64998 0.72094 0.17557 0.0
H1878 H 0.61683 0.68438 0.14041 0.0
H1879 H 0.58841 0.7119 0.1394 0.0
H1880 H 0.62927 0.6594 0.16553 0.0
H1881 H 0.69777 0.7093 0.1437 0.0
H1882 H 0.68354 0.72047 0.15992 0.0
H1883 H 0.66983 0.71758 0.1418 0.0
C1884 C 0.62056 0.73495 0.16687 0.0
C1885 C 0.60298 0.73277 0.15666 0.0
C1886 C 0.63672 0.71905 0.16751 0.0
C1887 C 0.63562 0.70075 0.15793 0.0
C1888 C 0.61805 0.69846 0.14782 0.0
H1889 H 0.73041 0.60564 0.13159 0.0
H1890 H 0.70502 0.63598 0.13358 0.0
C1891 C 0.60191 0.7143 0.14717 0.0
C1892 C 0.65244 0.68362 0.15859 0.0
H1893 H 0.70603 0.67359 0.15178 0.0
C1894 C 0.64608 0.6625 0.16259 0.0
C1895 C 0.67429 0.68772 0.15461 0.0
C1896 C 0.68182 0.70994 0.14963 0.0
C1897 C 0.66096 0.64528 0.1626 0.0
C1898 C 0.68285 0.6494 0.15876 0.0
C1899 C 0.68926 0.67055 0.15485 0.0
C1900 C 0.69907 0.63172 0.15792 0.0
C1901 C 0.65295 0.6227 0.16624 0.0
C1902 C 0.70443 0.61955 0.17103 0.0
C1903 C 0.71879 0.60206 0.1699 0.0
C1904 C 0.72811 0.59652 0.15566 0.0
C1905 C 0.72321 0.60923 0.14267 0.0
C1906 C 0.70885 0.62667 0.14381 0.0
H1907 H 0.63501 0.62154 0.16552 0.0
H1908 H 0.66015 0.61062 0.15825 0.0
H1909 H 0.65786 0.61833 0.17812 0.0
H1910 H 0.69731 0.62341 0.18208 0.0
H1911 H 0.72213 0.59255 0.1801 0.0
H1912 H 0.42054 0.71227 0.1411 0.0
H1913 H 0.39125 0.68577 0.14299 0.0
H1914 H 0.36192 0.72309 0.17943 0.0
H1915 H 0.39091 0.75015 0.1773 0.0
H1916 H 0.37928 0.66106 0.16879 0.0
H1917 H 0.31175 0.71392 0.14883 0.0
H1918 H 0.33987 0.72097 0.146 0.0
H1919 H 0.3276 0.72417 0.16459 0.0
C1920 C 0.40771 0.71505 0.14937 0.0
C1921 C 0.40796 0.73345 0.15895 0.0
C1922 C 0.39107 0.69979 0.15051 0.0
C1923 C 0.37429 0.70262 0.16121 0.0
C1924 C 0.37455 0.7208 0.17093 0.0
H1925 H 0.26132 0.61859 0.1764 0.0
H1926 H 0.28816 0.64776 0.17882 0.0
C1927 C 0.39124 0.73612 0.1698 0.0
C1928 C 0.35683 0.68617 0.16225 0.0
H1929 H 0.30279 0.67806 0.15589 0.0
C1930 C 0.36253 0.66479 0.16604 0.0
C1931 C 0.33499 0.69114 0.15874 0.0
C1932 C 0.3281 0.71374 0.15419 0.0
C1933 C 0.34704 0.64814 0.1662 0.0
C1934 C 0.32534 0.65296 0.16223 0.0
C1935 C 0.31947 0.67445 0.1589 0.0
C1936 C 0.30884 0.63567 0.16064 0.0
C1937 C 0.35402 0.6255 0.17059 0.0
C1938 C 0.31138 0.61954 0.14941 0.0
C1939 C 0.29607 0.603 0.14793 0.0
C1940 C 0.27784 0.60227 0.15763 0.0
C1941 C 0.2751 0.61875 0.16868 0.0
C1942 C 0.29045 0.63535 0.17013 0.0
H1943 H 0.36935 0.62563 0.1773 0.0
H1944 H 0.3413 0.61722 0.17747 0.0
H1945 H 0.35681 0.61588 0.15998 0.0
H1946 H 0.32521 0.61979 0.14173 0.0
H1947 H 0.29844 0.59087 0.13907 0.0
H1948 H 0.26737 0.39499 0.1332 0.0
H1949 H 0.29207 0.3642 0.13559 0.0
H1950 H 0.29995 0.37777 0.18395 0.0
H1951 H 0.27583 0.40911 0.18155 0.0
H1952 H 0.33864 0.37213 0.16913 0.0
H1953 H 0.2828 0.30471 0.15478 0.0
H1954 H 0.28289 0.32578 0.14052 0.0
H1955 H 0.27329 0.33157 0.15963 0.0
C1956 C 0.27435 0.39144 0.14435 0.0
C1957 C 0.26966 0.40456 0.15718 0.0
C1958 C 0.28824 0.37365 0.14574 0.0
C1959 C 0.29758 0.36849 0.15999 0.0
C1960 C 0.29275 0.38137 0.17286 0.0
H1961 H 0.37559 0.25186 0.17578 0.0
H1962 H 0.34746 0.27987 0.17723 0.0
C1963 C 0.27887 0.39919 0.17149 0.0
C1964 C 0.31352 0.35057 0.16121 0.0
H1965 H 0.32077 0.29657 0.15403 0.0
C1966 C 0.33467 0.35557 0.16598 0.0
C1967 C 0.30826 0.32892 0.15728 0.0
C1968 C 0.28552 0.32234 0.15291 0.0
C1969 C 0.35091 0.33964 0.16642 0.0
C1970 C 0.34593 0.31825 0.16169 0.0
C1971 C 0.3246 0.31306 0.15746 0.0
C1972 C 0.3628 0.3012 0.16073 0.0
C1973 C 0.37324 0.34588 0.17195 0.0
C1974 C 0.38053 0.30378 0.15079 0.0
C1975 C 0.39665 0.28792 0.15001 0.0
C1976 C 0.39529 0.26905 0.15907 0.0
C1977 C 0.37727 0.26634 0.16881 0.0
C1978 C 0.36113 0.28224 0.16959 0.0
H1979 H 0.37281 0.36077 0.17916 0.0
H1980 H 0.38073 0.33257 0.17873 0.0
H1981 H 0.38375 0.34921 0.16186 0.0
H1982 H 0.38192 0.31811 0.14364 0.0
H1983 H 0.41039 0.29065 0.14249 0.0
H1984 H 0.02575 0.36708 0.27459 0.0
H1985 H 0.04058 0.39456 0.2575 0.0
H1986 H 0.01963 0.44483 0.28868 0.0
H1987 H 0.00621 0.41727 0.30651 0.0
H1988 H 0.02469 0.42791 0.24199 0.0
H1989 H 0.08288 0.45837 0.28587 0.0
H1990 H 0.06687 0.43429 0.28886 0.0
H1991 H 0.05484 0.4607 0.29107 0.0
C1992 C 0.02449 0.38394 0.27796 0.0
C1993 C 0.01523 0.38985 0.29216 0.0
C1994 C 0.03274 0.3997 0.26805 0.0
C1995 C 0.03168 0.42176 0.27196 0.0
C1996 C 0.02118 0.42787 0.28562 0.0
H1997 H 0.08624 0.50908 0.20072 0.0
H1998 H 0.05996 0.49441 0.21922 0.0
C1999 C 0.01322 0.41206 0.29571 0.0
C2000 C 0.04267 0.43793 0.26199 0.0
H2001 H 0.08496 0.47368 0.26127 0.0
C2002 C 0.03772 0.43812 0.24621 0.0
C2003 C 0.05973 0.45118 0.26754 0.0
C2004 C 0.06658 0.45107 0.28422 0.0
C2005 C 0.05007 0.45026 0.23571 0.0
C2006 C 0.06742 0.4631 0.24123 0.0
C2007 C 0.0716 0.46386 0.2571 0.0
C2008 C 0.08317 0.47359 0.23069 0.0
C2009 C 0.04527 0.44809 0.21875 0.0
C2010 C 0.10503 0.4674 0.23138 0.0
C2011 C 0.12003 0.47594 0.22104 0.0
C2012 C 0.11349 0.49083 0.20972 0.0
C2013 C 0.09167 0.49747 0.20924 0.0
C2014 C 0.07666 0.48904 0.21975 0.0
H2015 H 0.03434 0.43419 0.21628 0.0
H2016 H 0.03721 0.46309 0.21462 0.0
H2017 H 0.06046 0.44589 0.21208 0.0
H2018 H 0.11042 0.45546 0.2397 0.0
H2019 H 0.13663 0.47026 0.22156 0.0
H2020 H 0.57492 0.98874 0.30614 0.0
H2021 H 0.54631 0.00087 0.28857 0.0
H2022 H 0.5948 0.02092 0.25579 0.0
H2023 H 0.62331 0.00941 0.27325 0.0
H2024 H 0.5417 0.04313 0.2796 0.0
H2025 H 0.55026 0.99173 0.22804 0.0
H2026 H 0.56092 0.98392 0.2466 0.0
H2027 H 0.57618 0.00169 0.23419 0.0
C2028 C 0.57948 0.99552 0.29512 0.0
C2029 C 0.60148 0.99814 0.29116 0.0
C2030 C 0.5631 0.00226 0.28504 0.0
C2031 C 0.56841 0.01146 0.27076 0.0
C2032 C 0.59029 0.01328 0.26655 0.0
H2033 H 0.53485 0.11882 0.22102 0.0
H2034 H 0.54447 0.09065 0.23947 0.0
C2035 C 0.60663 0.00669 0.27661 0.0
C2036 C 0.55165 0.02203 0.26112 0.0
H2037 H 0.53697 0.02857 0.22356 0.0
C2038 C 0.54018 0.03957 0.26743 0.0
C2039 C 0.54923 0.01714 0.24531 0.0
C2040 C 0.55963 0.99742 0.23819 0.0
C2041 C 0.52817 0.05363 0.25804 0.0
C2042 C 0.52797 0.05024 0.24195 0.0
C2043 C 0.53752 0.03144 0.23587 0.0
C2044 C 0.52081 0.06745 0.23121 0.0
C2045 C 0.51667 0.07262 0.26535 0.0
C2046 C 0.50457 0.06362 0.22023 0.0
C2047 C 0.49912 0.07975 0.20953 0.0
C2048 C 0.51011 0.09977 0.20953 0.0
C2049 C 0.52625 0.1035 0.22062 0.0
C2050 C 0.53157 0.08751 0.2313 0.0
H2051 H 0.51184 0.06884 0.27737 0.0
H2052 H 0.52782 0.08674 0.26571 0.0
H2053 H 0.502 0.07727 0.25872 0.0
H2054 H 0.49627 0.04814 0.21987 0.0
H2055 H 0.48673 0.07638 0.20104 0.0
H2056 H 0.90976 0.48861 0.20434 0.0
H2057 H 0.9361 0.50111 0.22362 0.0
H2058 H 0.89129 0.55092 0.23802 0.0
H2059 H 0.86487 0.53805 0.21928 0.0
H2060 H 0.9566 0.5379 0.22652 0.0
H2061 H 0.90757 0.52708 0.27883 0.0
H2062 H 0.89959 0.51562 0.26059 0.0
H2063 H 0.89274 0.54329 0.26537 0.0
C2064 C 0.90553 0.50205 0.21179 0.0
C2065 C 0.8852 0.51218 0.21051 0.0
C2066 C 0.92053 0.50916 0.22278 0.0
C2067 C 0.91547 0.5266 0.23257 0.0
C2068 C 0.89528 0.53691 0.23106 0.0
H2069 H 0.99277 0.62518 0.27109 0.0
H2070 H 0.97587 0.59809 0.25473 0.0
C2071 C 0.88022 0.52962 0.22028 0.0
C2072 C 0.93159 0.53511 0.24374 0.0
H2073 H 0.9356 0.55479 0.28027 0.0
C2074 C 0.95218 0.5412 0.23837 0.0
C2075 C 0.92621 0.53881 0.25935 0.0
C2076 C 0.9054 0.53059 0.26638 0.0
C2077 C 0.96686 0.55233 0.24787 0.0
C2078 C 0.96043 0.55826 0.26294 0.0
C2079 C 0.94048 0.55072 0.26863 0.0
C2080 C 0.97306 0.57369 0.27257 0.0
C2081 C 0.98899 0.55773 0.24155 0.0
C2082 C 0.97684 0.56932 0.2882 0.0
C2083 C 0.98572 0.58522 0.2978 0.0
C2084 C 0.99123 0.6058 0.29194 0.0
C2085 C 0.9884 0.60971 0.27612 0.0
C2086 C 0.97912 0.59399 0.26661 0.0
H2087 H 0.99449 0.54506 0.23334 0.0
H2088 H 0.98813 0.57327 0.23514 0.0
H2089 H 0.00126 0.55927 0.25084 0.0
H2090 H 0.97219 0.55385 0.29312 0.0
H2091 H 0.9873 0.58162 0.30994 0.0
H2092 H 0.39742 0.0143 0.27743 0.0
H2093 H 0.42468 0.99915 0.26002 0.0
H2094 H 0.44782 0.95752 0.29632 0.0
H2095 H 0.42005 0.97161 0.31354 0.0
H2096 H 0.47113 0.99342 0.26044 0.0
H2097 H 0.42569 0.91555 0.26312 0.0
H2098 H 0.41474 0.94063 0.27046 0.0
H2099 H 0.43449 0.92576 0.28143 0.0
C2100 C 0.40834 0.00197 0.28174 0.0
C2101 C 0.40623 0.99394 0.29684 0.0
C2102 C 0.42408 0.99353 0.27182 0.0
C2103 C 0.438 0.97699 0.27684 0.0
C2104 C 0.43702 0.97009 0.29219 0.0
H2105 H 0.513 0.8835 0.22501 0.0
H2106 H 0.50209 0.90783 0.24579 0.0
C2107 C 0.42121 0.97835 0.30207 0.0
C2108 C 0.45176 0.96526 0.26563 0.0
H2109 H 0.45758 0.91589 0.24841 0.0
C2110 C 0.46829 0.97645 0.25783 0.0
C2111 C 0.44788 0.94315 0.26221 0.0
C2112 C 0.42963 0.93057 0.26962 0.0
C2113 C 0.48113 0.96597 0.2467 0.0
C2114 C 0.4771 0.94391 0.24326 0.0
C2115 C 0.46077 0.93275 0.25121 0.0
C2116 C 0.48832 0.93215 0.23073 0.0
C2117 C 0.49892 0.97848 0.23876 0.0
C2118 C 0.48473 0.93806 0.21536 0.0
C2119 C 0.49095 0.92417 0.20343 0.0
C2120 C 0.50079 0.90409 0.2067 0.0
C2121 C 0.50565 0.89892 0.22208 0.0
C2122 C 0.49938 0.91279 0.23398 0.0
H2123 H 0.50361 0.99319 0.24537 0.0
H2124 H 0.51349 0.96816 0.23709 0.0
H2125 H 0.49317 0.98375 0.22726 0.0
H2126 H 0.47589 0.95274 0.21261 0.0
H2127 H 0.4872 0.9287 0.19169 0.0
H2128 H 0.0872 0.53465 0.80722 0.0
H2129 H 0.06293 0.54505 0.78644 0.0
H2130 H 0.08648 0.49173 0.75894 0.0
H2131 H 0.11184 0.48198 0.77941 0.0
H2132 H 0.08925 0.52708 0.74342 0.0
H2133 H 0.00722 0.52573 0.76801 0.0
H2134 H 0.02442 0.54114 0.78051 0.0
H2135 H 0.02982 0.51268 0.77742 0.0
C2136 C 0.08711 0.52499 0.79681 0.0
C2137 C 0.10172 0.50767 0.79491 0.0
C2138 C 0.07287 0.53071 0.78502 0.0
C2139 C 0.07259 0.51901 0.77116 0.0
C2140 C 0.08627 0.50092 0.76957 0.0
H2141 H 0.99173 0.58074 0.69922 0.0
H2142 H 0.00469 0.55263 0.71711 0.0
C2143 C 0.1007 0.4953 0.78133 0.0
C2144 C 0.06064 0.52781 0.75769 0.0
H2145 H 0.0134 0.55308 0.74776 0.0
C2146 C 0.07248 0.53224 0.74426 0.0
C2147 C 0.0386 0.53415 0.7585 0.0
C2148 C 0.02427 0.52791 0.77184 0.0
C2149 C 0.06351 0.54441 0.73223 0.0
C2150 C 0.04238 0.55302 0.73389 0.0
C2151 C 0.02983 0.54699 0.74667 0.0
C2152 C 0.03402 0.56986 0.72325 0.0
C2153 C 0.07704 0.54843 0.71805 0.0
C2154 C 0.04587 0.58907 0.72114 0.0
C2155 C 0.03864 0.60493 0.71094 0.0
C2156 C 0.01918 0.6021 0.7028 0.0
C2157 C 0.00683 0.58326 0.70534 0.0
C2158 C 0.01422 0.56721 0.71549 0.0
H2159 H 0.08856 0.53486 0.71603 0.0
H2160 H 0.06677 0.55044 0.70765 0.0
H2161 H 0.08675 0.56341 0.71969 0.0
H2162 H 0.06079 0.59182 0.72741 0.0
H2163 H 0.04822 0.61952 0.7095 0.0
H2164 H 0.4763 0.07867 0.81101 0.0
H2165 H 0.46306 0.05493 0.79051 0.0
H2166 H 0.49331 0.09605 0.7566 0.0
H2167 H 0.50609 0.1202 0.77696 0.0
H2168 H 0.44863 0.0905 0.75295 0.0
H2169 H 0.48916 0.01064 0.76023 0.0
H2170 H 0.47861 0.02252 0.77756 0.0
H2171 H 0.50051 0.03562 0.7676 0.0
C2172 C 0.48044 0.08246 0.7992 0.0
C2173 C 0.4921 0.10142 0.79561 0.0
C2174 C 0.4731 0.06871 0.78752 0.0
C2175 C 0.4774 0.07361 0.77205 0.0
C2176 C 0.49001 0.09188 0.76848 0.0
H2177 H 0.413 0.03257 0.68801 0.0
H2178 H 0.43943 0.04716 0.70606 0.0
C2179 C 0.49737 0.10562 0.78015 0.0
C2180 C 0.46603 0.06174 0.75964 0.0
H2181 H 0.4583 0.01163 0.74375 0.0
C2182 C 0.45095 0.07332 0.75079 0.0
C2183 C 0.4689 0.03928 0.75704 0.0
C2184 C 0.48529 0.02625 0.766 0.0
C2185 C 0.43822 0.06297 0.73965 0.0
C2186 C 0.44104 0.04049 0.73701 0.0
C2187 C 0.45628 0.02888 0.74576 0.0
C2188 C 0.42762 0.02882 0.72555 0.0
C2189 C 0.42128 0.0761 0.73124 0.0
C2190 C 0.41304 0.01272 0.73034 0.0
C2191 C 0.39811 0.00395 0.71994 0.0
C2192 C 0.39748 0.0112 0.70458 0.0
C2193 C 0.41303 0.02642 0.69967 0.0
C2194 C 0.42805 0.035 0.71003 0.0
H2195 H 0.41753 0.09154 0.73729 0.0
H2196 H 0.42739 0.08024 0.71959 0.0
H2197 H 0.40601 0.06675 0.72991 0.0
H2198 H 0.41258 0.0076 0.74226 0.0
H2199 H 0.3867 0.99192 0.72405 0.0
H2200 H 0.99145 0.37877 0.72353 0.0
H2201 H 0.97823 0.40624 0.74149 0.0
H2202 H 0.97123 0.45178 0.70416 0.0
H2203 H 0.9846 0.42439 0.68606 0.0
H2204 H 0.99082 0.45063 0.74867 0.0
H2205 H 0.90919 0.44382 0.72159 0.0
H2206 H 0.9304 0.42431 0.71803 0.0
H2207 H 0.93138 0.45053 0.70905 0.0
C2208 C 0.98761 0.39478 0.71917 0.0
C2209 C 0.98885 0.39933 0.70334 0.0
C2210 C 0.98001 0.41044 0.72945 0.0
C2211 C 0.97349 0.4309 0.7241 0.0
C2212 C 0.97589 0.43595 0.70846 0.0
H2213 H 0.8888 0.51805 0.77626 0.0
H2214 H 0.91463 0.5062 0.75657 0.0
C2215 C 0.98345 0.42028 0.69815 0.0
C2216 C 0.96234 0.446 0.73471 0.0
H2217 H 0.9122 0.46588 0.74337 0.0
C2218 C 0.97369 0.45423 0.74744 0.0
C2219 C 0.94003 0.45071 0.73301 0.0
C2220 C 0.92691 0.44182 0.71976 0.0
C2221 C 0.96312 0.46658 0.75876 0.0
C2222 C 0.94058 0.47036 0.75743 0.0
C2223 C 0.92949 0.46298 0.74435 0.0
C2224 C 0.92759 0.47976 0.77012 0.0
C2225 C 0.97608 0.47523 0.77214 0.0
C2226 C 0.92646 0.46894 0.7843 0.0
C2227 C 0.91159 0.47551 0.79548 0.0
C2228 C 0.89747 0.49299 0.79269 0.0
C2229 C 0.89925 0.50436 0.7787 0.0
C2230 C 0.91411 0.49773 0.76749 0.0
H2231 H 0.99342 0.47738 0.769 0.0
H2232 H 0.96956 0.49101 0.77621 0.0
H2233 H 0.97529 0.46346 0.78178 0.0
H2234 H 0.93627 0.45468 0.78642 0.0
H2235 H 0.91043 0.46612 0.80598 0.0
H2236 H 0.59016 0.96322 0.68487 0.0
H2237 H 0.56347 0.94823 0.70259 0.0
H2238 H 0.58431 0.99306 0.7377 0.0
H2239 H 0.61046 0.0089 0.71979 0.0
H2240 H 0.57555 0.92805 0.72866 0.0
H2241 H 0.51886 0.99476 0.74288 0.0
H2242 H 0.5371 0.99598 0.72666 0.0
H2243 H 0.54673 0.00209 0.74572 0.0
C2244 C 0.58862 0.97045 0.69617 0.0
C2245 C 0.60254 0.98727 0.7009 0.0
C2246 C 0.57341 0.96174 0.70633 0.0
C2247 C 0.57175 0.96963 0.72142 0.0
C2248 C 0.585 0.98698 0.72602 0.0
H2249 H 0.52602 0.91822 0.80703 0.0
H2250 H 0.5392 0.94145 0.78619 0.0
C2251 C 0.60018 0.9958 0.71583 0.0
C2252 C 0.5583 0.95786 0.73283 0.0
H2253 H 0.51858 0.96395 0.7599 0.0
C2254 C 0.56287 0.93583 0.73532 0.0
C2255 C 0.5419 0.96811 0.7416 0.0
C2256 C 0.5357 0.99149 0.73899 0.0
C2257 C 0.55194 0.92389 0.74661 0.0
C2258 C 0.53575 0.93417 0.75553 0.0
C2259 C 0.53095 0.95614 0.75297 0.0
C2260 C 0.52461 0.92237 0.76806 0.0
C2261 C 0.55835 0.90053 0.74929 0.0
C2262 C 0.5114 0.90445 0.76475 0.0
C2263 C 0.50402 0.89103 0.7766 0.0
C2264 C 0.5097 0.89538 0.79197 0.0
C2265 C 0.52171 0.91423 0.79529 0.0
C2266 C 0.52909 0.92762 0.78342 0.0
H2267 H 0.57392 0.89639 0.74357 0.0
H2268 H 0.55991 0.89711 0.76178 0.0
H2269 H 0.54559 0.88972 0.74457 0.0
H2270 H 0.50765 0.90027 0.75293 0.0
H2271 H 0.49491 0.87661 0.77362 0.0
H2272 H 0.96994 0.31481 0.44033 0.0
H2273 H 0.97292 0.32083 0.46799 0.0
H2274 H 0.02751 0.36328 0.46056 0.0
H2275 H 0.02453 0.35749 0.43276 0.0
H2276 H 0.03555 0.33163 0.48211 0.0
H2277 H 0.95794 0.37278 0.49505 0.0
H2278 H 0.9542 0.34826 0.48424 0.0
H2279 H 0.96864 0.37064 0.47576 0.0
C2280 C 0.98226 0.32585 0.44452 0.0
C2281 C 0.99698 0.3357 0.43432 0.0
C2282 C 0.98393 0.32929 0.46035 0.0
C2283 C 0.00023 0.34276 0.46631 0.0
C2284 C 0.01474 0.35292 0.45618 0.0
H2285 H 0.00539 0.36605 0.56614 0.0
H2286 H 0.00541 0.37259 0.53828 0.0
C2287 C 0.01308 0.34949 0.44032 0.0
C2288 C 0.00317 0.34464 0.48317 0.0
H2289 H 0.9761 0.35592 0.51648 0.0
C2290 C 0.02269 0.33726 0.48962 0.0
C2291 C 0.9865 0.35229 0.49294 0.0
C2292 C 0.96573 0.36166 0.48664 0.0
C2293 C 0.02552 0.33622 0.50561 0.0
C2294 C 0.00826 0.34241 0.51538 0.0
C2295 C 0.98921 0.35093 0.50895 0.0
C2296 C 0.00912 0.33875 0.5322 0.0
C2297 C 0.04685 0.32818 0.51191 0.0
C2298 C 0.01103 0.31758 0.53794 0.0
C2299 C 0.01107 0.3138 0.55376 0.0
C2300 C 0.00906 0.33114 0.56418 0.0
C2301 C 0.0072 0.35239 0.5584 0.0
C2302 C 0.0071 0.35615 0.54252 0.0
H2303 H 0.0602 0.33045 0.50348 0.0
H2304 H 0.05116 0.3367 0.52275 0.0
H2305 H 0.04554 0.31057 0.51441 0.0
H2306 H 0.01222 0.30389 0.53016 0.0
H2307 H 0.01274 0.29728 0.55785 0.0
H2308 H 0.69238 0.02764 0.55667 0.0
H2309 H 0.68641 0.02525 0.52895 0.0
H2310 H 0.62637 0.99113 0.5368 0.0
H2311 H 0.63228 0.99341 0.56462 0.0
H2312 H 0.65197 0.97066 0.51592 0.0
H2313 H 0.64516 0.05763 0.50082 0.0
H2314 H 0.66931 0.05186 0.51156 0.0
H2315 H 0.6432 0.04799 0.52039 0.0
C2316 C 0.67767 0.02005 0.55251 0.0
C2317 C 0.66275 0.01079 0.56283 0.0
C2318 C 0.67426 0.01871 0.53666 0.0
C2319 C 0.65577 0.00831 0.53081 0.0
C2320 C 0.64069 0.99931 0.54108 0.0
H2321 H 0.62965 0.01036 0.43163 0.0
H2322 H 0.62525 0.01368 0.45956 0.0
C2323 C 0.64413 0.00057 0.55695 0.0
C2324 C 0.65306 0.00551 0.51399 0.0
H2325 H 0.65286 0.03319 0.47998 0.0
C2326 C 0.65187 0.98434 0.50807 0.0
C2327 C 0.65259 0.02336 0.50376 0.0
C2328 C 0.6524 0.04649 0.50946 0.0
C2329 C 0.65122 0.98053 0.49216 0.0
C2330 C 0.6522 0.99834 0.48192 0.0
C2331 C 0.65238 0.01953 0.48785 0.0
C2332 C 0.65413 0.99534 0.46506 0.0
C2333 C 0.64958 0.95744 0.48648 0.0
C2334 C 0.67188 0.98403 0.45892 0.0
C2335 C 0.67443 0.98212 0.44303 0.0
C2336 C 0.65938 0.99166 0.43293 0.0
C2337 C 0.64157 0.00294 0.43911 0.0
C2338 C 0.63899 0.00479 0.45504 0.0
H2339 H 0.64217 0.94668 0.49529 0.0
H2340 H 0.63981 0.95644 0.47577 0.0
H2341 H 0.66608 0.95121 0.48399 0.0
H2342 H 0.68408 0.97713 0.46643 0.0
H2343 H 0.68858 0.97375 0.43864 0.0
H2344 H 0.03064 0.67182 0.5624 0.0
H2345 H 0.03147 0.66708 0.53441 0.0
H2346 H 0.96196 0.65988 0.53388 0.0
H2347 H 0.96093 0.66488 0.56185 0.0
H2348 H 0.01294 0.63092 0.51523 0.0
H2349 H 0.97704 0.71245 0.5045 0.0
H2350 H 0.98964 0.70534 0.52257 0.0
H2351 H 0.96315 0.6952 0.51799 0.0
C2352 C 0.01554 0.66922 0.55631 0.0
C2353 C 0.9957 0.66889 0.56429 0.0
C2354 C 0.01606 0.66637 0.54037 0.0
C2355 C 0.99677 0.66333 0.53214 0.0
C2356 C 0.977 0.66236 0.54008 0.0
H2357 H 0.97046 0.66758 0.43414 0.0
H2358 H 0.96737 0.66369 0.46198 0.0
C2359 C 0.97646 0.66508 0.55604 0.0
C2360 C 0.99727 0.66211 0.51516 0.0
H2361 H 0.98436 0.69075 0.48287 0.0
C2362 C 0.00666 0.64393 0.50811 0.0
C2363 C 0.98901 0.67913 0.50599 0.0
C2364 C 0.97925 0.69925 0.51307 0.0
C2365 C 0.00786 0.64224 0.49201 0.0
C2366 C 0.99994 0.65946 0.48281 0.0
C2367 C 0.99039 0.67755 0.48993 0.0
C2368 C 0.00177 0.65946 0.46579 0.0
C2369 C 0.01728 0.6219 0.48503 0.0
C2370 C 0.02214 0.65818 0.45865 0.0
C2371 C 0.02394 0.66006 0.44267 0.0
C2372 C 0.00544 0.66356 0.43353 0.0
C2373 C 0.98503 0.66451 0.44074 0.0
C2374 C 0.98323 0.66247 0.45669 0.0
H2375 H 0.01627 0.60797 0.49311 0.0
H2376 H 0.0088 0.61749 0.4742 0.0
H2377 H 0.03465 0.62467 0.48236 0.0
H2378 H 0.03672 0.65634 0.46545 0.0
H2379 H 0.03989 0.65905 0.43751 0.0
H2380 H 0.36795 0.00967 0.56523 0.0
H2381 H 0.37169 0.01273 0.53724 0.0
H2382 H 0.31077 0.97942 0.53127 0.0
H2383 H 0.30694 0.97627 0.55916 0.0
H2384 H 0.34277 0.9651 0.51123 0.0
H2385 H 0.33635 0.05508 0.51103 0.0
H2386 H 0.35757 0.0443 0.52294 0.0
H2387 H 0.32973 0.0389 0.52768 0.0
C2388 C 0.35538 0.00299 0.55793 0.0
C2389 C 0.33712 0.99278 0.56438 0.0
C2390 C 0.35751 0.00479 0.54197 0.0
C2391 C 0.34133 0.99661 0.53221 0.0
C2392 C 0.32343 0.98586 0.53861 0.0
H2393 H 0.30694 0.02681 0.43911 0.0
H2394 H 0.31064 0.02357 0.46701 0.0
C2395 C 0.32132 0.98398 0.55454 0.0
C2396 C 0.34269 0.99954 0.51533 0.0
H2397 H 0.34251 0.03806 0.48709 0.0
C2398 C 0.34284 0.98103 0.50593 0.0
C2399 C 0.34251 0.02038 0.50849 0.0
C2400 C 0.34134 0.04083 0.51801 0.0
C2401 C 0.34261 0.98278 0.48983 0.0
C2402 C 0.34264 0.00361 0.48299 0.0
C2403 C 0.34269 0.02212 0.49239 0.0
C2404 C 0.34129 0.00654 0.46611 0.0
C2405 C 0.34156 0.96231 0.48031 0.0
C2406 C 0.35755 0.99847 0.45639 0.0
C2407 C 0.35549 0.0003 0.44042 0.0
C2408 C 0.33722 0.01044 0.43394 0.0
C2409 C 0.32132 0.01913 0.44375 0.0
C2410 C 0.32336 0.01721 0.45969 0.0
H2411 H 0.33663 0.94804 0.4873 0.0
H2412 H 0.32996 0.96418 0.47064 0.0
H2413 H 0.35781 0.95892 0.4754 0.0
H2414 H 0.37175 0.9906 0.46114 0.0
H2415 H 0.36814 0.99373 0.43315 0.0
H2416 H 0.4653 0.83671 0.93796 0.0
H2417 H 0.46761 0.84273 0.96572 0.0
H2418 H 0.53647 0.85359 0.96174 0.0
H2419 H 0.53429 0.84732 0.93398 0.0
H2420 H 0.52741 0.82392 0.98318 0.0
H2421 H 0.47517 0.89567 0.99258 0.0
H2422 H 0.4615 0.87477 0.98199 0.0
H2423 H 0.48482 0.88794 0.97374 0.0
C2424 C 0.48084 0.84089 0.94296 0.0
C2425 C 0.49963 0.84148 0.93382 0.0
C2426 C 0.48213 0.84442 0.95882 0.0
C2427 C 0.50217 0.8489 0.96579 0.0
C2428 C 0.52083 0.85022 0.95659 0.0
H2429 H 0.51461 0.87284 0.06515 0.0
H2430 H 0.51605 0.87741 0.03712 0.0
C2431 C 0.51958 0.84656 0.94076 0.0
C2432 C 0.50401 0.84989 0.98278 0.0
H2433 H 0.48265 0.87366 0.01488 0.0
C2434 C 0.51783 0.83502 0.99009 0.0
C2435 C 0.49174 0.86454 0.9918 0.0
C2436 C 0.47765 0.88178 0.98462 0.0
C2437 C 0.51903 0.83376 0.00616 0.0
C2438 C 0.50572 0.84744 0.01517 0.0
C2439 C 0.49262 0.86299 0.00792 0.0
C2440 C 0.50448 0.84504 0.03209 0.0
C2441 C 0.53444 0.81766 0.01335 0.0
C2442 C 0.49717 0.82548 0.03849 0.0
C2443 C 0.49646 0.82277 0.05441 0.0
C2444 C 0.50287 0.83967 0.06429 0.0
C2445 C 0.50982 0.85944 0.05785 0.0
C2446 C 0.51052 0.86212 0.04186 0.0
H2447 H 0.54775 0.81323 0.00532 0.0
H2448 H 0.54166 0.82422 0.02409 0.0
H2449 H 0.52545 0.80261 0.01625 0.0
H2450 H 0.4921 0.81221 0.03114 0.0
H2451 H 0.49128 0.80725 0.05895 0.0
H2452 H 0.1683 0.45577 0.93846 0.0
H2453 H 0.16381 0.45772 0.96639 0.0
H2454 H 0.15399 0.52684 0.96332 0.0
H2455 H 0.15899 0.52521 0.93545 0.0
H2456 H 0.19135 0.48495 0.98568 0.0
H2457 H 0.10367 0.50431 0.99157 0.0
H2458 H 0.11489 0.49194 0.97448 0.0
H2459 H 0.11871 0.52038 0.97798 0.0
C2460 C 0.16515 0.4714 0.9437 0.0
C2461 C 0.1641 0.49035 0.93469 0.0
C2462 C 0.16243 0.47244 0.95964 0.0
C2463 C 0.15836 0.49238 0.96685 0.0
C2464 C 0.15672 0.51124 0.95791 0.0
H2465 H 0.15127 0.53562 0.06168 0.0
H2466 H 0.14899 0.53227 0.03366 0.0
C2467 C 0.15955 0.51025 0.94197 0.0
C2468 C 0.1577 0.49373 0.98382 0.0
H2469 H 0.12491 0.5058 0.01428 0.0
C2470 C 0.1768 0.48936 0.99197 0.0
C2471 C 0.13875 0.49975 0.99189 0.0
C2472 C 0.11775 0.50424 0.98359 0.0
C2473 C 0.1776 0.49114 0.00804 0.0
C2474 C 0.15857 0.49687 0.01618 0.0
C2475 C 0.13943 0.50131 0.00801 0.0
C2476 C 0.15837 0.49845 0.03319 0.0
C2477 C 0.19898 0.48746 0.01607 0.0
C2478 C 0.16381 0.48039 0.04221 0.0
C2479 C 0.16547 0.48232 0.05817 0.0
C2480 C 0.16137 0.50229 0.06547 0.0
C2481 C 0.15492 0.52011 0.05642 0.0
C2482 C 0.15343 0.51819 0.04043 0.0
H2483 H 0.2129 0.4893 0.00806 0.0
H2484 H 0.20115 0.49895 0.02579 0.0
H2485 H 0.19941 0.4707 0.02073 0.0
H2486 H 0.16725 0.46489 0.03688 0.0
H2487 H 0.1707 0.4683 0.06469 0.0
H2488 H 0.53363 0.15404 0.06729 0.0
H2489 H 0.53558 0.15081 0.03923 0.0
H2490 H 0.4671 0.16413 0.03601 0.0
H2491 H 0.46499 0.1672 0.06403 0.0
H2492 H 0.48064 0.13168 0.01588 0.0
H2493 H 0.5333 0.20465 0.01195 0.0
H2494 H 0.54383 0.18331 0.02387 0.0
H2495 H 0.5194 0.19716 0.02942 0.0
C2496 C 0.51898 0.15617 0.06059 0.0
C2497 C 0.4992 0.16108 0.06783 0.0
C2498 C 0.52012 0.15434 0.04458 0.0
C2499 C 0.50157 0.15765 0.03554 0.0
C2500 C 0.48162 0.16157 0.04278 0.0
H2501 H 0.49151 0.20123 0.94242 0.0
H2502 H 0.49127 0.19574 0.97018 0.0
C2503 C 0.48043 0.16326 0.05879 0.0
C2504 C 0.50305 0.15819 0.01854 0.0
H2505 H 0.52555 0.18642 0.98877 0.0
C2506 C 0.49053 0.14356 0.00992 0.0
C2507 C 0.51577 0.17391 0.01083 0.0
C2508 C 0.5287 0.1908 0.01945 0.0
C2509 C 0.49024 0.14434 0.99376 0.0
C2510 C 0.50312 0.15994 0.98607 0.0
C2511 C 0.51582 0.17439 0.9947 0.0
C2512 C 0.50269 0.16257 0.96913 0.0
C2513 C 0.4756 0.12899 0.98511 0.0
C2514 C 0.50926 0.14574 0.95929 0.0
C2515 C 0.50913 0.14873 0.94333 0.0
C2516 C 0.50258 0.16868 0.93694 0.0
C2517 C 0.49621 0.18552 0.94689 0.0
C2518 C 0.49625 0.18248 0.96279 0.0
H2519 H 0.46318 0.12158 0.99273 0.0
H2520 H 0.46724 0.13747 0.97553 0.0
H2521 H 0.48548 0.11569 0.98012 0.0
H2522 H 0.51468 0.13038 0.96396 0.0
H2523 H 0.51404 0.13539 0.936 0.0
H2524 H 0.85453 0.53194 0.93648 0.0
H2525 H 0.85742 0.53021 0.96457 0.0
H2526 H 0.82712 0.46715 0.96427 0.0
H2527 H 0.82358 0.469 0.93632 0.0
H2528 H 0.80821 0.4963 0.98465 0.0
H2529 H 0.89759 0.49361 0.99216 0.0
H2530 H 0.88791 0.51535 0.98022 0.0
H2531 H 0.88453 0.48774 0.97403 0.0
C2532 C 0.84857 0.51768 0.9424 0.0
C2533 C 0.83889 0.50058 0.93416 0.0
C2534 C 0.85045 0.51661 0.95842 0.0
C2535 C 0.84275 0.49842 0.96646 0.0
C2536 C 0.83334 0.48124 0.95825 0.0
H2537 H 0.85427 0.46543 0.06345 0.0
H2538 H 0.85712 0.46629 0.0353 0.0
C2539 C 0.83147 0.48227 0.94227 0.0
C2540 C 0.84304 0.49788 0.98348 0.0
H2541 H 0.87648 0.49862 0.01481 0.0
C2542 C 0.82314 0.49674 0.99125 0.0
C2543 C 0.86256 0.49827 0.99202 0.0
C2544 C 0.88439 0.49861 0.98422 0.0
C2545 C 0.82218 0.49628 0.00735 0.0
C2546 C 0.84165 0.49728 0.01591 0.0
C2547 C 0.8616 0.49806 0.00818 0.0
C2548 C 0.84143 0.4975 0.03292 0.0
C2549 C 0.80035 0.4945 0.0151 0.0
C2550 C 0.83209 0.51497 0.04084 0.0
C2551 C 0.83036 0.51449 0.05684 0.0
C2552 C 0.83802 0.49654 0.06524 0.0
C2553 C 0.84801 0.47936 0.05729 0.0
C2554 C 0.84977 0.47988 0.04125 0.0
H2555 H 0.78759 0.48888 0.00701 0.0
H2556 H 0.80106 0.48311 0.02499 0.0
H2557 H 0.79553 0.51068 0.01954 0.0
H2558 H 0.82575 0.5288 0.03459 0.0
H2559 H 0.82235 0.52787 0.06258 0.0
loop_
_geom_bond_atom_site_label_1
_geom_bond_atom_site_label_2
_geom_bond_distance
_geom_bond_site_symmetry_2
_ccdc_geom_bond_type
Li0 N17 1.990 . S
Li0 O60 1.956 1_455 S
Li0 O61 1.970 . S
Li0 O62 1.961 . S
Li1 N25 1.990 . S
Li1 O60 1.970 1_455 S
Li1 O61 1.956 . S
Li1 O63 1.961 1_455 S
Li2 N47 1.990 . S
Li2 O60 1.961 . S
Li2 O62 1.956 1_655 S
Li2 O63 1.970 . S
Li3 N53 1.990 . S
Li3 O61 1.961 . S
Li3 O62 1.970 . S
Li3 O63 1.956 1_455 S
C4 C6 1.358 . S
C4 C7 1.356 . S
C4 O60 1.325 . S
N5 C8 1.314 . S
N5 C9 1.279 . S
C6 C4 1.358 . S
C6 C8 1.362 . S
C6 H64 0.913 1_655 S
C7 C4 1.356 . S
C7 C9 1.358 . S
C7 H65 0.930 . S
C8 N5 1.314 . S
C8 C6 1.362 . S
C8 H66 0.930 . S
C9 N5 1.279 . S
C9 C7 1.358 . S
C9 H67 0.930 . S
C10 C13 1.348 . S
C10 C14 1.356 . S
C10 O61 1.325 . S
C11 N12 1.279 . S
C11 C14 1.358 . S
C11 H68 0.930 . S
N12 C11 1.279 . S
N12 C15 1.314 . S
C13 C10 1.348 . S
C13 C15 1.353 . S
C13 H69 0.929 . S
C14 C10 1.356 . S
C14 C11 1.358 . S
C14 H70 0.930 . S
C15 N12 1.314 . S
C15 C13 1.353 . S
C15 H71 0.930 . S
C16 N17 1.314 . S
C16 C21 1.353 . S
C16 H22 0.930 . S
N17 Li0 1.990 . S
N17 C16 1.314 . S
N17 C19 1.279 . S
C18 C19 1.358 . S
C18 C20 1.356 . S
C18 H72 0.930 . S
C19 N17 1.279 . S
C19 C18 1.358 . S
C19 H23 0.930 . S
C20 C18 1.356 . S
C20 C21 1.348 . S
C21 C16 1.353 . S
C21 C20 1.348 . S
C21 H73 0.929 . S
H22 C16 0.930 . S
H23 C19 0.930 . S
C24 N25 1.314 1_655 S
C24 C26 1.353 . S
C24 H30 0.930 . S
N25 Li1 1.990 . S
N25 C24 1.314 1_455 S
N25 C28 1.279 . S
C26 C24 1.353 . S
C26 C29 1.348 . S
C26 H74 0.929 . S
C27 C28 1.358 . S
C27 C29 1.356 1_455 S
C27 H75 0.930 . S
C28 N25 1.279 . S
C28 C27 1.358 . S
C28 H31 0.930 . S
C29 C26 1.348 . S
C29 C27 1.356 1_655 S
H30 C24 0.930 . S
H31 C28 0.930 . S
C32 C34 1.348 . S
C32 C35 1.356 . S
C32 O62 1.325 . S
N33 C36 1.314 . S
N33 C37 1.279 . S
C34 C32 1.348 . S
C34 C36 1.353 . S
C34 H76 0.934 . S
C35 C32 1.356 . S
C35 C37 1.358 . S
C35 H77 0.930 . S
C36 N33 1.314 . S
C36 C34 1.353 . S
C36 H78 0.930 . S
C37 N33 1.279 . S
C37 C35 1.358 . S
C37 H79 0.930 . S
C38 C39 1.348 . S
C38 C40 1.356 . S
C38 O63 1.325 . S
C39 C38 1.348 . S
C39 C41 1.353 . S
C39 H80 0.929 . S
C40 C38 1.356 . S
C40 C42 1.358 . S
C40 H81 0.930 . S
C41 C39 1.353 . S
C41 N43 1.314 . S
C41 H82 0.930 . S
C42 C40 1.358 . S
C42 N43 1.279 . S
C42 H83 0.930 . S
N43 C41 1.314 . S
N43 C42 1.279 . S
C44 C46 1.353 . S
C44 N47 1.314 . S
C44 H50 0.930 . S
C45 N47 1.279 . S
C45 C48 1.358 . S
C45 H51 0.930 . S
C46 C44 1.353 . S
C46 C49 1.348 . S
C46 H84 0.929 . S
N47 Li2 1.990 . S
N47 C44 1.314 . S
N47 C45 1.279 . S
C48 C45 1.358 . S
C48 C49 1.356 . S
C48 H85 0.930 . S
C49 C46 1.348 . S
C49 C48 1.356 . S
H50 C44 0.930 . S
H51 C45 0.930 . S
C52 N53 1.314 . S
C52 C54 1.353 . S
C52 H58 0.930 . S
N53 Li3 1.990 . S
N53 C52 1.314 . S
N53 C56 1.279 1_455 S
C54 C52 1.353 . S
C54 C57 1.348 . S
C54 H86 0.929 . S
C55 C56 1.358 1_455 S
C55 C57 1.356 . S
C55 H87 0.930 1_455 S
C56 N53 1.279 1_655 S
C56 C55 1.358 1_655 S
C56 H59 0.930 . S
C57 C54 1.348 . S
C57 C55 1.356 . S
H58 C52 0.930 . S
H59 C56 0.930 . S
O60 Li0 1.956 1_655 S
O60 Li1 1.970 1_655 S
O60 Li2 1.961 . S
O60 C4 1.325 . S
O61 Li0 1.970 . S
O61 Li1 1.956 . S
O61 Li3 1.961 . S
O61 C10 1.325 . S
O62 Li0 1.961 . S
O62 Li2 1.956 1_455 S
O62 Li3 1.970 . S
O62 C32 1.325 . S
O63 Li1 1.961 1_655 S
O63 Li2 1.970 . S
O63 Li3 1.956 1_655 S
O63 C38 1.325 . S
H64 C6 0.913 1_455 S
H65 C7 0.930 . S
H66 C8 0.930 . S
H67 C9 0.930 . S
H68 C11 0.930 . S
H69 C13 0.929 . S
H70 C14 0.930 . S
H71 C15 0.930 . S
H72 C18 0.930 . S
H73 C21 0.929 . S
H74 C26 0.929 . S
H75 C27 0.930 . S
H76 C34 0.934 . S
H77 C35 0.930 . S
H78 C36 0.930 . S
H79 C37 0.930 . S
H80 C39 0.929 . S
H81 C40 0.930 . S
H82 C41 0.930 . S
H83 C42 0.930 . S
H84 C46 0.929 . S
H85 C48 0.930 . S
H86 C54 0.929 . S
H87 C55 0.930 1_655 S
Li88 N105 1.990 . S
Li88 O148 1.956 . S
Li88 O149 1.970 . S
Li88 O150 1.961 1_545 S
Li89 N113 1.990 . S
Li89 O148 1.970 . S
Li89 O149 1.956 . S
Li89 O151 1.961 1_545 S
Li90 N135 1.990 . S
Li90 O148 1.961 1_565 S
Li90 O150 1.956 . S
Li90 O151 1.970 . S
Li91 N141 1.990 . S
Li91 O149 1.961 . S
Li91 O150 1.970 1_545 S
Li91 O151 1.956 1_545 S
C92 C94 1.348 . S
C92 C95 1.356 1_545 S
C92 O148 1.325 . S
N93 C96 1.314 . S
N93 C97 1.279 1_545 S
C94 C92 1.348 . S
C94 C96 1.353 . S
C94 H152 0.929 . S
C95 C92 1.356 1_565 S
C95 C97 1.358 . S
C95 H153 0.930 . S
C96 N93 1.314 . S
C96 C94 1.353 . S
C96 H154 0.930 . S
C97 N93 1.279 1_565 S
C97 C95 1.358 . S
C97 H155 0.930 . S
C98 C101 1.348 . S
C98 C102 1.356 . S
C98 O149 1.325 . S
C99 N100 1.279 . S
C99 C102 1.358 . S
C99 H156 0.930 . S
N100 C99 1.279 . S
N100 C103 1.314 . S
C101 C98 1.348 . S
C101 C103 1.353 . S
C101 H157 0.929 . S
C102 C98 1.356 . S
C102 C99 1.358 . S
C102 H158 0.930 . S
C103 N100 1.314 . S
C103 C101 1.353 . S
C103 H159 0.930 . S
C104 N105 1.314 . S
C104 C109 1.353 . S
C104 H110 0.930 . S
N105 Li88 1.990 . S
N105 C104 1.314 . S
N105 C107 1.279 . S
C106 C107 1.358 . S
C106 C108 1.356 . S
C106 H160 0.930 . S
C107 N105 1.279 . S
C107 C106 1.358 . S
C107 H111 0.930 . S
C108 C106 1.356 . S
C108 C109 1.348 . S
C109 C104 1.353 . S
C109 C108 1.348 . S
C109 H161 0.929 . S
H110 C104 0.930 . S
H111 C107 0.930 . S
C112 N113 1.314 . S
C112 C114 1.353 . S
C112 H118 0.930 . S
N113 Li89 1.990 . S
N113 C112 1.314 . S
N113 C116 1.279 . S
C114 C112 1.353 . S
C114 C117 1.348 . S
C114 H162 0.929 . S
C115 C116 1.358 . S
C115 C117 1.356 . S
C115 H163 0.930 . S
C116 N113 1.279 . S
C116 C115 1.358 . S
C116 H119 0.930 . S
C117 C114 1.348 . S
C117 C115 1.356 . S
H118 C112 0.930 . S
H119 C116 0.930 . S
C120 C122 1.348 . S
C120 C123 1.356 . S
C120 O150 1.325 . S
N121 C124 1.314 . S
N121 C125 1.279 . S
C122 C120 1.348 . S
C122 C124 1.353 . S
C122 H164 0.929 . S
C123 C120 1.356 . S
C123 C125 1.358 . S
C123 H165 0.930 . S
C124 N121 1.314 . S
C124 C122 1.353 . S
C124 H166 0.930 . S
C125 N121 1.279 . S
C125 C123 1.358 . S
C125 H167 0.930 . S
C126 C127 1.348 . S
C126 C128 1.356 1_565 S
C126 O151 1.325 . S
C127 C126 1.348 . S
C127 C129 1.353 . S
C127 H168 0.929 . S
C128 C126 1.356 1_545 S
C128 C130 1.358 . S
C128 H169 0.930 . S
C129 C127 1.353 . S
C129 N131 1.314 . S
C129 H170 0.930 . S
C130 C128 1.358 . S
C130 N131 1.279 1_545 S
C130 H171 0.930 . S
N131 C129 1.314 . S
N131 C130 1.279 1_565 S
C132 C134 1.353 . S
C132 N135 1.314 . S
C132 H138 0.930 . S
C133 N135 1.279 . S
C133 C136 1.358 . S
C133 H139 0.930 . S
C134 C132 1.353 . S
C134 C137 1.348 . S
C134 H172 0.929 . S
N135 Li90 1.990 . S
N135 C132 1.314 . S
N135 C133 1.279 . S
C136 C133 1.358 . S
C136 C137 1.356 . S
C136 H173 0.930 . S
C137 C134 1.348 . S
C137 C136 1.356 . S
H138 C132 0.930 . S
H139 C133 0.930 . S
C140 N141 1.314 . S
C140 C142 1.353 . S
C140 H146 0.930 . S
N141 Li91 1.990 . S
N141 C140 1.314 . S
N141 C144 1.279 1_545 S
C142 C140 1.353 . S
C142 C145 1.348 1_545 S
C142 H174 0.929 . S
C143 C144 1.358 . S
C143 C145 1.356 . S
C143 H175 0.930 . S
C144 N141 1.279 1_565 S
C144 C143 1.358 . S
C144 H147 0.930 . S
C145 C142 1.348 1_565 S
C145 C143 1.356 . S
H146 C140 0.930 . S
H147 C144 0.930 . S
O148 Li88 1.956 . S
O148 Li89 1.970 . S
O148 Li90 1.961 1_545 S
O148 C92 1.325 . S
O149 Li88 1.970 . S
O149 Li89 1.956 . S
O149 Li91 1.961 . S
O149 C98 1.325 . S
O150 Li88 1.961 1_565 S
O150 Li90 1.956 . S
O150 Li91 1.970 1_565 S
O150 C120 1.325 . S
O151 Li89 1.961 1_565 S
O151 Li90 1.970 . S
O151 Li91 1.956 1_565 S
O151 C126 1.325 . S
H152 C94 0.929 . S
H153 C95 0.930 . S
H154 C96 0.930 . S
H155 C97 0.930 . S
H156 C99 0.930 . S
H157 C101 0.929 . S
H158 C102 0.930 . S
H159 C103 0.930 . S
H160 C106 0.930 . S
H161 C109 0.929 . S
H162 C114 0.929 . S
H163 C115 0.930 . S
H164 C122 0.929 . S
H165 C123 0.930 . S
H166 C124 0.930 . S
H167 C125 0.930 . S
H168 C127 0.929 . S
H169 C128 0.930 . S
H170 C129 0.930 . S
H171 C130 0.930 . S
H172 C134 0.929 . S
H173 C136 0.930 . S
H174 C142 0.929 . S
H175 C143 0.930 . S
Li176 N193 1.990 . S
Li176 O236 1.956 1_655 S
Li176 O237 1.970 . S
Li176 O238 1.961 . S
Li177 N201 1.990 . S
Li177 O236 1.970 1_655 S
Li177 O237 1.956 . S
Li177 O239 1.961 1_655 S
Li178 N223 1.990 . S
Li178 O236 1.961 . S
Li178 O238 1.956 1_455 S
Li178 O239 1.970 . S
Li179 N229 1.990 . S
Li179 O237 1.961 . S
Li179 O238 1.970 . S
Li179 O239 1.956 1_655 S
C180 C182 1.358 . S
C180 C183 1.356 . S
C180 O236 1.325 . S
N181 C184 1.314 . S
N181 C185 1.279 . S
C182 C180 1.358 . S
C182 C184 1.362 . S
C182 H240 0.913 1_455 S
C183 C180 1.356 . S
C183 C185 1.358 . S
C183 H241 0.930 . S
C184 N181 1.314 . S
C184 C182 1.362 . S
C184 H242 0.930 . S
C185 N181 1.279 . S
C185 C183 1.358 . S
C185 H243 0.930 . S
C186 C189 1.348 . S
C186 C190 1.356 . S
C186 O237 1.325 . S
C187 N188 1.279 . S
C187 C190 1.358 . S
C187 H244 0.930 . S
N188 C187 1.279 . S
N188 C191 1.314 . S
C189 C186 1.348 . S
C189 C191 1.353 . S
C189 H245 0.929 . S
C190 C186 1.356 . S
C190 C187 1.358 . S
C190 H246 0.930 . S
C191 N188 1.314 . S
C191 C189 1.353 . S
C191 H247 0.930 . S
C192 N193 1.314 . S
C192 C197 1.353 . S
C192 H198 0.930 . S
N193 Li176 1.990 . S
N193 C192 1.314 . S
N193 C195 1.279 . S
C194 C195 1.358 . S
C194 C196 1.356 . S
C194 H248 0.930 . S
C195 N193 1.279 . S
C195 C194 1.358 . S
C195 H199 0.930 . S
C196 C194 1.356 . S
C196 C197 1.348 . S
C197 C192 1.353 . S
C197 C196 1.348 . S
C197 H249 0.929 . S
H198 C192 0.930 . S
H199 C195 0.930 . S
C200 N201 1.314 1_455 S
C200 C202 1.353 . S
C200 H206 0.930 . S
N201 Li177 1.990 . S
N201 C200 1.314 1_655 S
N201 C204 1.279 . S
C202 C200 1.353 . S
C202 C205 1.348 . S
C202 H250 0.929 . S
C203 C204 1.358 . S
C203 C205 1.356 1_655 S
C203 H251 0.930 . S
C204 N201 1.279 . S
C204 C203 1.358 . S
C204 H207 0.930 . S
C205 C202 1.348 . S
C205 C203 1.356 1_455 S
H206 C200 0.930 . S
H207 C204 0.930 . S
C208 C210 1.348 . S
C208 C211 1.356 . S
C208 O238 1.325 . S
N209 C212 1.314 . S
N209 C213 1.279 . S
C210 C208 1.348 . S
C210 C212 1.353 . S
C210 H252 0.934 . S
C211 C208 1.356 . S
C211 C213 1.358 . S
C211 H253 0.930 . S
C212 N209 1.314 . S
C212 C210 1.353 . S
C212 H254 0.930 . S
C213 N209 1.279 . S
C213 C211 1.358 . S
C213 H255 0.930 . S
C214 C215 1.348 . S
C214 C216 1.356 . S
C214 O239 1.325 . S
C215 C214 1.348 . S
C215 C217 1.353 . S
C215 H256 0.929 . S
C216 C214 1.356 . S
C216 C218 1.358 . S
C216 H257 0.930 . S
C217 C215 1.353 . S
C217 N219 1.314 . S
C217 H258 0.930 . S
C218 C216 1.358 . S
C218 N219 1.279 . S
C218 H259 0.930 . S
N219 C217 1.314 . S
N219 C218 1.279 . S
C220 C222 1.353 . S
C220 N223 1.314 . S
C220 H226 0.930 . S
C221 N223 1.279 . S
C221 C224 1.358 . S
C221 H227 0.930 . S
C222 C220 1.353 . S
C222 C225 1.348 . S
C222 H260 0.929 . S
N223 Li178 1.990 . S
N223 C220 1.314 . S
N223 C221 1.279 . S
C224 C221 1.358 . S
C224 C225 1.356 . S
C224 H261 0.930 . S
C225 C222 1.348 . S
C225 C224 1.356 . S
H226 C220 0.930 . S
H227 C221 0.930 . S
C228 N229 1.314 . S
C228 C230 1.353 . S
C228 H234 0.930 . S
N229 Li179 1.990 . S
N229 C228 1.314 . S
N229 C232 1.279 1_655 S
C230 C228 1.353 . S
C230 C233 1.348 . S
C230 H262 0.929 . S
C231 C232 1.358 1_655 S
C231 C233 1.356 . S
C231 H263 0.930 1_655 S
C232 N229 1.279 1_455 S
C232 C231 1.358 1_455 S
C232 H235 0.930 . S
C233 C230 1.348 . S
C233 C231 1.356 . S
H234 C228 0.930 . S
H235 C232 0.930 . S
O236 Li176 1.956 1_455 S
O236 Li177 1.970 1_455 S
O236 Li178 1.961 . S
O236 C180 1.325 . S
O237 Li176 1.970 . S
O237 Li177 1.956 . S
O237 Li179 1.961 . S
O237 C186 1.325 . S
O238 Li176 1.961 . S
O238 Li178 1.956 1_655 S
O238 Li179 1.970 . S
O238 C208 1.325 . S
O239 Li177 1.961 1_455 S
O239 Li178 1.970 . S
O239 Li179 1.956 1_455 S
O239 C214 1.325 . S
H240 C182 0.913 1_655 S
H241 C183 0.930 . S
H242 C184 0.930 . S
H243 C185 0.930 . S
H244 C187 0.930 . S
H245 C189 0.929 . S
H246 C190 0.930 . S
H247 C191 0.930 . S
H248 C194 0.930 . S
H249 C197 0.929 . S
H250 C202 0.929 . S
H251 C203 0.930 . S
H252 C210 0.934 . S
H253 C211 0.930 . S
H254 C212 0.930 . S
H255 C213 0.930 . S
H256 C215 0.929 . S
H257 C216 0.930 . S
H258 C217 0.930 . S
H259 C218 0.930 . S
H260 C222 0.929 . S
H261 C224 0.930 . S
H262 C230 0.929 . S
H263 C231 0.930 1_455 S
Li264 N281 1.990 . S
Li264 O324 1.956 1_565 S
Li264 O325 1.970 1_565 S
Li264 O326 1.961 . S
Li265 N289 1.990 . S
Li265 O324 1.970 . S
Li265 O325 1.956 . S
Li265 O327 1.961 1_545 S
Li266 N311 1.990 . S
Li266 O324 1.961 1_565 S
Li266 O326 1.956 . S
Li266 O327 1.970 . S
Li267 N317 1.990 . S
Li267 O325 1.961 1_565 S
Li267 O326 1.970 . S
Li267 O327 1.956 . S
C268 C270 1.348 . S
C268 C271 1.356 1_545 S
C268 O324 1.325 . S
N269 C272 1.314 . S
N269 C273 1.279 1_545 S
C270 C268 1.348 . S
C270 C272 1.353 . S
C270 H328 0.929 . S
C271 C268 1.356 1_565 S
C271 C273 1.358 . S
C271 H329 0.930 . S
C272 N269 1.314 . S
C272 C270 1.353 . S
C272 H330 0.930 . S
C273 N269 1.279 1_565 S
C273 C271 1.358 . S
C273 H331 0.930 . S
C274 C277 1.348 . S
C274 C278 1.356 . S
C274 O325 1.325 . S
C275 N276 1.279 . S
C275 C278 1.358 . S
C275 H332 0.930 . S
N276 C275 1.279 . S
N276 C279 1.314 . S
C277 C274 1.348 . S
C277 C279 1.353 . S
C277 H333 0.929 . S
C278 C274 1.356 . S
C278 C275 1.358 . S
C278 H334 0.930 . S
C279 N276 1.314 . S
C279 C277 1.353 . S
C279 H335 0.930 . S
C280 N281 1.314 . S
C280 C285 1.353 . S
C280 H286 0.930 . S
N281 Li264 1.990 . S
N281 C280 1.314 . S
N281 C283 1.279 1_565 S
C282 C283 1.358 . S
C282 C284 1.356 . S
C282 H336 0.930 . S
C283 N281 1.279 1_545 S
C283 C282 1.358 . S
C283 H287 0.930 . S
C284 C282 1.356 . S
C284 C285 1.348 1_545 S
C285 C280 1.353 . S
C285 C284 1.348 1_565 S
C285 H337 0.929 . S
H286 C280 0.930 . S
H287 C283 0.930 . S
C288 N289 1.314 . S
C288 C290 1.353 . S
C288 H294 0.930 . S
N289 Li265 1.990 . S
N289 C288 1.314 . S
N289 C292 1.279 . S
C290 C288 1.353 . S
C290 C293 1.348 . S
C290 H338 0.929 . S
C291 C292 1.358 . S
C291 C293 1.356 . S
C291 H339 0.930 . S
C292 N289 1.279 . S
C292 C291 1.358 . S
C292 H295 0.930 . S
C293 C290 1.348 . S
C293 C291 1.356 . S
H294 C288 0.930 . S
H295 C292 0.930 . S
C296 C298 1.348 . S
C296 C299 1.356 . S
C296 O326 1.325 . S
N297 C300 1.314 . S
N297 C301 1.279 . S
C298 C296 1.348 . S
C298 C300 1.353 . S
C298 H340 0.929 . S
C299 C296 1.356 . S
C299 C301 1.358 . S
C299 H341 0.930 . S
C300 N297 1.314 . S
C300 C298 1.353 . S
C300 H342 0.930 . S
C301 N297 1.279 . S
C301 C299 1.358 . S
C301 H343 0.930 . S
C302 C303 1.348 . S
C302 C304 1.356 1_565 S
C302 O327 1.325 . S
C303 C302 1.348 . S
C303 C305 1.353 . S
C303 H344 0.929 . S
C304 C302 1.356 1_545 S
C304 C306 1.358 . S
C304 H345 0.930 . S
C305 C303 1.353 . S
C305 N307 1.314 . S
C305 H346 0.930 . S
C306 C304 1.358 . S
C306 N307 1.279 1_545 S
C306 H347 0.930 . S
N307 C305 1.314 . S
N307 C306 1.279 1_565 S
C308 C310 1.353 . S
C308 N311 1.314 . S
C308 H314 0.930 . S
C309 N311 1.279 . S
C309 C312 1.358 . S
C309 H315 0.930 . S
C310 C308 1.353 . S
C310 C313 1.348 . S
C310 H348 0.929 . S
N311 Li266 1.990 . S
N311 C308 1.314 . S
N311 C309 1.279 . S
C312 C309 1.358 . S
C312 C313 1.356 . S
C312 H349 0.930 . S
C313 C310 1.348 . S
C313 C312 1.356 . S
H314 C308 0.930 . S
H315 C309 0.930 . S
C316 N317 1.314 . S
C316 C318 1.353 . S
C316 H322 0.930 . S
N317 Li267 1.990 . S
N317 C316 1.314 . S
N317 C320 1.279 . S
C318 C316 1.353 . S
C318 C321 1.348 . S
C318 H350 0.929 . S
C319 C320 1.358 . S
C319 C321 1.356 . S
C319 H351 0.930 . S
C320 N317 1.279 . S
C320 C319 1.358 . S
C320 H323 0.930 . S
C321 C318 1.348 . S
C321 C319 1.356 . S
H322 C316 0.930 . S
H323 C320 0.930 . S
O324 Li264 1.956 1_545 S
O324 Li265 1.970 . S
O324 Li266 1.961 1_545 S
O324 C268 1.325 . S
O325 Li264 1.970 1_545 S
O325 Li265 1.956 . S
O325 Li267 1.961 1_545 S
O325 C274 1.325 . S
O326 Li264 1.961 . S
O326 Li266 1.956 . S
O326 Li267 1.970 . S
O326 C296 1.325 . S
O327 Li265 1.961 1_565 S
O327 Li266 1.970 . S
O327 Li267 1.956 . S
O327 C302 1.325 . S
H328 C270 0.929 . S
H329 C271 0.930 . S
H330 C272 0.930 . S
H331 C273 0.930 . S
H332 C275 0.930 . S
H333 C277 0.929 . S
H334 C278 0.930 . S
H335 C279 0.930 . S
H336 C282 0.930 . S
H337 C285 0.929 . S
H338 C290 0.929 . S
H339 C291 0.930 . S
H340 C298 0.929 . S
H341 C299 0.930 . S
H342 C300 0.930 . S
H343 C301 0.930 . S
H344 C303 0.929 . S
H345 C304 0.930 . S
H346 C305 0.930 . S
H347 C306 0.930 . S
H348 C310 0.929 . S
H349 C312 0.930 . S
H350 C318 0.929 . S
H351 C319 0.930 . S
Li352 N369 1.990 . S
Li352 O412 1.956 1_455 S
Li352 O413 1.970 . S
Li352 O414 1.961 . S
Li353 N377 1.990 . S
Li353 O412 1.970 . S
Li353 O413 1.956 1_655 S
Li353 O415 1.961 . S
Li354 N399 1.990 . S
Li354 O412 1.961 1_455 S
Li354 O414 1.956 . S
Li354 O415 1.970 1_455 S
Li355 N405 1.990 . S
Li355 O413 1.961 . S
Li355 O414 1.970 . S
Li355 O415 1.956 1_455 S
C356 C358 1.348 . S
C356 C359 1.356 . S
C356 O412 1.325 . S
N357 C360 1.314 . S
N357 C361 1.279 . S
C358 C356 1.348 . S
C358 C360 1.353 . S
C358 H416 0.929 . S
C359 C356 1.356 . S
C359 C361 1.358 . S
C359 H417 0.930 . S
C360 N357 1.314 . S
C360 C358 1.353 . S
C360 H418 0.930 . S
C361 N357 1.279 . S
C361 C359 1.358 . S
C361 H419 0.930 . S
C362 C365 1.348 . S
C362 C366 1.356 . S
C362 O413 1.325 . S
C363 N364 1.279 . S
C363 C366 1.358 . S
C363 H420 0.930 . S
N364 C363 1.279 . S
N364 C367 1.314 . S
C365 C362 1.348 . S
C365 C367 1.353 . S
C365 H421 0.934 . S
C366 C362 1.356 . S
C366 C363 1.358 . S
C366 H422 0.930 . S
C367 N364 1.314 . S
C367 C365 1.353 . S
C367 H423 0.930 . S
C368 N369 1.314 . S
C368 C373 1.353 . S
C368 H374 0.930 . S
N369 Li352 1.990 . S
N369 C368 1.314 . S
N369 C371 1.279 1_455 S
C370 C371 1.358 1_455 S
C370 C372 1.356 . S
C370 H424 0.930 1_455 S
C371 N369 1.279 1_655 S
C371 C370 1.358 1_655 S
C371 H375 0.930 . S
C372 C370 1.356 . S
C372 C373 1.348 . S
C373 C368 1.353 . S
C373 C372 1.348 . S
C373 H425 0.929 . S
H374 C368 0.930 . S
H375 C371 0.930 . S
C376 N377 1.314 . S
C376 C378 1.353 . S
C376 H382 0.930 . S
N377 Li353 1.990 . S
N377 C376 1.314 . S
N377 C380 1.279 . S
C378 C376 1.353 . S
C378 C381 1.348 . S
C378 H426 0.929 . S
C379 C380 1.358 . S
C379 C381 1.356 . S
C379 H427 0.930 . S
C380 N377 1.279 . S
C380 C379 1.358 . S
C380 H383 0.930 . S
C381 C378 1.348 . S
C381 C379 1.356 . S
H382 C376 0.930 . S
H383 C380 0.930 . S
C384 C386 1.348 . S
C384 C387 1.356 . S
C384 O414 1.325 . S
N385 C388 1.314 . S
N385 C389 1.279 . S
C386 C384 1.348 . S
C386 C388 1.353 . S
C386 H428 0.929 . S
C387 C384 1.356 . S
C387 C389 1.358 . S
C387 H429 0.930 . S
C388 N385 1.314 . S
C388 C386 1.353 . S
C388 H430 0.930 . S
C389 N385 1.279 . S
C389 C387 1.358 . S
C389 H431 0.930 . S
C390 C391 1.358 . S
C390 C392 1.356 . S
C390 O415 1.325 . S
C391 C390 1.358 . S
C391 C393 1.362 . S
C391 H432 0.913 1_655 S
C392 C390 1.356 . S
C392 C394 1.358 . S
C392 H433 0.930 . S
C393 C391 1.362 . S
C393 N395 1.314 . S
C393 H434 0.930 . S
C394 C392 1.358 . S
C394 N395 1.279 . S
C394 H435 0.930 . S
N395 C393 1.314 . S
N395 C394 1.279 . S
C396 C398 1.353 . S
C396 N399 1.314 1_655 S
C396 H402 0.930 . S
C397 N399 1.279 . S
C397 C400 1.358 . S
C397 H403 0.930 . S
C398 C396 1.353 . S
C398 C401 1.348 . S
C398 H436 0.929 . S
N399 Li354 1.990 . S
N399 C396 1.314 1_455 S
N399 C397 1.279 . S
C400 C397 1.358 . S
C400 C401 1.356 1_455 S
C400 H437 0.930 . S
C401 C398 1.348 . S
C401 C400 1.356 1_655 S
H402 C396 0.930 . S
H403 C397 0.930 . S
C404 N405 1.314 . S
C404 C406 1.353 . S
C404 H410 0.930 . S
N405 Li355 1.990 . S
N405 C404 1.314 . S
N405 C408 1.279 . S
C406 C404 1.353 . S
C406 C409 1.348 . S
C406 H438 0.929 . S
C407 C408 1.358 . S
C407 C409 1.356 . S
C407 H439 0.930 . S
C408 N405 1.279 . S
C408 C407 1.358 . S
C408 H411 0.930 . S
C409 C406 1.348 . S
C409 C407 1.356 . S
H410 C404 0.930 . S
H411 C408 0.930 . S
O412 Li352 1.956 1_655 S
O412 Li353 1.970 . S
O412 Li354 1.961 1_655 S
O412 C356 1.325 . S
O413 Li352 1.970 . S
O413 Li353 1.956 1_455 S
O413 Li355 1.961 . S
O413 C362 1.325 . S
O414 Li352 1.961 . S
O414 Li354 1.956 . S
O414 Li355 1.970 . S
O414 C384 1.325 . S
O415 Li353 1.961 . S
O415 Li354 1.970 1_655 S
O415 Li355 1.956 1_655 S
O415 C390 1.325 . S
H416 C358 0.929 . S
H417 C359 0.930 . S
H418 C360 0.930 . S
H419 C361 0.930 . S
H420 C363 0.930 . S
H421 C365 0.934 . S
H422 C366 0.930 . S
H423 C367 0.930 . S
H424 C370 0.930 1_655 S
H425 C373 0.929 . S
H426 C378 0.929 . S
H427 C379 0.930 . S
H428 C386 0.929 . S
H429 C387 0.930 . S
H430 C388 0.930 . S
H431 C389 0.930 . S
H432 C391 0.913 1_455 S
H433 C392 0.930 . S
H434 C393 0.930 . S
H435 C394 0.930 . S
H436 C398 0.929 . S
H437 C400 0.930 . S
H438 C406 0.929 . S
H439 C407 0.930 . S
Li440 N457 1.990 . S
Li440 O500 1.956 . S
Li440 O501 1.970 . S
Li440 O502 1.961 1_545 S
Li441 N465 1.990 . S
Li441 O500 1.970 . S
Li441 O501 1.956 . S
Li441 O503 1.961 1_545 S
Li442 N487 1.990 . S
Li442 O500 1.961 . S
Li442 O502 1.956 1_545 S
Li442 O503 1.970 1_545 S
Li443 N493 1.990 . S
Li443 O501 1.961 1_565 S
Li443 O502 1.970 . S
Li443 O503 1.956 . S
C444 C446 1.348 . S
C444 C447 1.356 . S
C444 O500 1.325 . S
N445 C448 1.314 . S
N445 C449 1.279 . S
C446 C444 1.348 . S
C446 C448 1.353 . S
C446 H504 0.929 . S
C447 C444 1.356 . S
C447 C449 1.358 . S
C447 H505 0.930 . S
C448 N445 1.314 . S
C448 C446 1.353 . S
C448 H506 0.930 . S
C449 N445 1.279 . S
C449 C447 1.358 . S
C449 H507 0.930 . S
C450 C453 1.348 . S
C450 C454 1.356 1_545 S
C450 O501 1.325 . S
C451 N452 1.279 1_565 S
C451 C454 1.358 . S
C451 H508 0.930 . S
N452 C451 1.279 1_545 S
N452 C455 1.314 . S
C453 C450 1.348 . S
C453 C455 1.353 . S
C453 H509 0.929 . S
C454 C450 1.356 1_565 S
C454 C451 1.358 . S
C454 H510 0.930 . S
C455 N452 1.314 . S
C455 C453 1.353 . S
C455 H511 0.930 . S
C456 N457 1.314 . S
C456 C461 1.353 . S
C456 H462 0.930 . S
N457 Li440 1.990 . S
N457 C456 1.314 . S
N457 C459 1.279 . S
C458 C459 1.358 . S
C458 C460 1.356 . S
C458 H512 0.930 . S
C459 N457 1.279 . S
C459 C458 1.358 . S
C459 H463 0.930 . S
C460 C458 1.356 . S
C460 C461 1.348 . S
C461 C456 1.353 . S
C461 C460 1.348 . S
C461 H513 0.929 . S
H462 C456 0.930 . S
H463 C459 0.930 . S
C464 N465 1.314 . S
C464 C466 1.353 . S
C464 H470 0.930 . S
N465 Li441 1.990 . S
N465 C464 1.314 . S
N465 C468 1.279 . S
C466 C464 1.353 . S
C466 C469 1.348 . S
C466 H514 0.929 . S
C467 C468 1.358 . S
C467 C469 1.356 . S
C467 H515 0.930 . S
C468 N465 1.279 . S
C468 C467 1.358 . S
C468 H471 0.930 . S
C469 C466 1.348 . S
C469 C467 1.356 . S
H470 C464 0.930 . S
H471 C468 0.930 . S
C472 C474 1.348 . S
C472 C475 1.356 1_565 S
C472 O502 1.325 . S
N473 C476 1.314 . S
N473 C477 1.279 1_565 S
C474 C472 1.348 . S
C474 C476 1.353 . S
C474 H516 0.929 . S
C475 C472 1.356 1_545 S
C475 C477 1.358 . S
C475 H517 0.930 . S
C476 N473 1.314 . S
C476 C474 1.353 . S
C476 H518 0.930 . S
C477 N473 1.279 1_545 S
C477 C475 1.358 . S
C477 H519 0.930 . S
C478 C479 1.348 . S
C478 C480 1.356 . S
C478 O503 1.325 . S
C479 C478 1.348 . S
C479 C481 1.353 . S
C479 H520 0.929 . S
C480 C478 1.356 . S
C480 C482 1.358 . S
C480 H521 0.930 . S
C481 C479 1.353 . S
C481 N483 1.314 . S
C481 H522 0.930 . S
C482 C480 1.358 . S
C482 N483 1.279 . S
C482 H523 0.930 . S
N483 C481 1.314 . S
N483 C482 1.279 . S
C484 C486 1.353 . S
C484 N487 1.314 . S
C484 H490 0.930 . S
C485 N487 1.279 1_565 S
C485 C488 1.358 . S
C485 H491 0.930 . S
C486 C484 1.353 . S
C486 C489 1.348 1_545 S
C486 H524 0.929 . S
N487 Li442 1.990 . S
N487 C484 1.314 . S
N487 C485 1.279 1_545 S
C488 C485 1.358 . S
C488 C489 1.356 . S
C488 H525 0.930 . S
C489 C486 1.348 1_565 S
C489 C488 1.356 . S
H490 C484 0.930 . S
H491 C485 0.930 . S
C492 N493 1.314 . S
C492 C494 1.353 . S
C492 H498 0.930 . S
N493 Li443 1.990 . S
N493 C492 1.314 . S
N493 C496 1.279 . S
C494 C492 1.353 . S
C494 C497 1.348 . S
C494 H526 0.929 . S
C495 C496 1.358 . S
C495 C497 1.356 . S
C495 H527 0.930 . S
C496 N493 1.279 . S
C496 C495 1.358 . S
C496 H499 0.930 . S
C497 C494 1.348 . S
C497 C495 1.356 . S
H498 C492 0.930 . S
H499 C496 0.930 . S
O500 Li440 1.956 . S
O500 Li441 1.970 . S
O500 Li442 1.961 . S
O500 C444 1.325 . S
O501 Li440 1.970 . S
O501 Li441 1.956 . S
O501 Li443 1.961 1_545 S
O501 C450 1.325 . S
O502 Li440 1.961 1_565 S
O502 Li442 1.956 1_565 S
O502 Li443 1.970 . S
O502 C472 1.325 . S
O503 Li441 1.961 1_565 S
O503 Li442 1.970 1_565 S
O503 Li443 1.956 . S
O503 C478 1.325 . S
H504 C446 0.929 . S
H505 C447 0.930 . S
H506 C448 0.930 . S
H507 C449 0.930 . S
H508 C451 0.930 . S
H509 C453 0.929 . S
H510 C454 0.930 . S
H511 C455 0.930 . S
H512 C458 0.930 . S
H513 C461 0.929 . S
H514 C466 0.929 . S
H515 C467 0.930 . S
H516 C474 0.929 . S
H517 C475 0.930 . S
H518 C476 0.930 . S
H519 C477 0.930 . S
H520 C479 0.929 . S
H521 C480 0.930 . S
H522 C481 0.930 . S
H523 C482 0.930 . S
H524 C486 0.929 . S
H525 C488 0.930 . S
H526 C494 0.929 . S
H527 C495 0.930 . S
Li528 N545 1.990 . S
Li528 O588 1.956 1_655 S
Li528 O589 1.970 . S
Li528 O590 1.961 . S
Li529 N553 1.990 . S
Li529 O588 1.970 . S
Li529 O589 1.956 1_455 S
Li529 O591 1.961 . S
Li530 N575 1.990 . S
Li530 O588 1.961 1_655 S
Li530 O590 1.956 . S
Li530 O591 1.970 1_655 S
Li531 N581 1.990 . S
Li531 O589 1.961 . S
Li531 O590 1.970 . S
Li531 O591 1.956 1_655 S
C532 C534 1.348 . S
C532 C535 1.356 . S
C532 O588 1.325 . S
N533 C536 1.314 . S
N533 C537 1.279 . S
C534 C532 1.348 . S
C534 C536 1.353 . S
C534 H592 0.929 . S
C535 C532 1.356 . S
C535 C537 1.358 . S
C535 H593 0.930 . S
C536 N533 1.314 . S
C536 C534 1.353 . S
C536 H594 0.930 . S
C537 N533 1.279 . S
C537 C535 1.358 . S
C537 H595 0.930 . S
C538 C541 1.348 . S
C538 C542 1.356 . S
C538 O589 1.325 . S
C539 N540 1.279 . S
C539 C542 1.358 . S
C539 H596 0.930 . S
N540 C539 1.279 . S
N540 C543 1.314 . S
C541 C538 1.348 . S
C541 C543 1.353 . S
C541 H597 0.934 . S
C542 C538 1.356 . S
C542 C539 1.358 . S
C542 H598 0.930 . S
C543 N540 1.314 . S
C543 C541 1.353 . S
C543 H599 0.930 . S
C544 N545 1.314 . S
C544 C549 1.353 . S
C544 H550 0.930 . S
N545 Li528 1.990 . S
N545 C544 1.314 . S
N545 C547 1.279 1_655 S
C546 C547 1.358 1_655 S
C546 C548 1.356 . S
C546 H600 0.930 1_655 S
C547 N545 1.279 1_455 S
C547 C546 1.358 1_455 S
C547 H551 0.930 . S
C548 C546 1.356 . S
C548 C549 1.348 . S
C549 C544 1.353 . S
C549 C548 1.348 . S
C549 H601 0.929 . S
H550 C544 0.930 . S
H551 C547 0.930 . S
C552 N553 1.314 . S
C552 C554 1.353 . S
C552 H558 0.930 . S
N553 Li529 1.990 . S
N553 C552 1.314 . S
N553 C556 1.279 . S
C554 C552 1.353 . S
C554 C557 1.348 . S
C554 H602 0.929 . S
C555 C556 1.358 . S
C555 C557 1.356 . S
C555 H603 0.930 . S
C556 N553 1.279 . S
C556 C555 1.358 . S
C556 H559 0.930 . S
C557 C554 1.348 . S
C557 C555 1.356 . S
H558 C552 0.930 . S
H559 C556 0.930 . S
C560 C562 1.348 . S
C560 C563 1.356 . S
C560 O590 1.325 . S
N561 C564 1.314 . S
N561 C565 1.279 . S
C562 C560 1.348 . S
C562 C564 1.353 . S
C562 H604 0.929 . S
C563 C560 1.356 . S
C563 C565 1.358 . S
C563 H605 0.930 . S
C564 N561 1.314 . S
C564 C562 1.353 . S
C564 H606 0.930 . S
C565 N561 1.279 . S
C565 C563 1.358 . S
C565 H607 0.930 . S
C566 C567 1.358 . S
C566 C568 1.356 . S
C566 O591 1.325 . S
C567 C566 1.358 . S
C567 C569 1.362 . S
C567 H608 0.913 1_455 S
C568 C566 1.356 . S
C568 C570 1.358 . S
C568 H609 0.930 . S
C569 C567 1.362 . S
C569 N571 1.314 . S
C569 H610 0.930 . S
C570 C568 1.358 . S
C570 N571 1.279 . S
C570 H611 0.930 . S
N571 C569 1.314 . S
N571 C570 1.279 . S
C572 C574 1.353 . S
C572 N575 1.314 1_455 S
C572 H578 0.930 . S
C573 N575 1.279 . S
C573 C576 1.358 . S
C573 H579 0.930 . S
C574 C572 1.353 . S
C574 C577 1.348 . S
C574 H612 0.929 . S
N575 Li530 1.990 . S
N575 C572 1.314 1_655 S
N575 C573 1.279 . S
C576 C573 1.358 . S
C576 C577 1.356 1_655 S
C576 H613 0.930 . S
C577 C574 1.348 . S
C577 C576 1.356 1_455 S
H578 C572 0.930 . S
H579 C573 0.930 . S
C580 N581 1.314 . S
C580 C582 1.353 . S
C580 H586 0.930 . S
N581 Li531 1.990 . S
N581 C580 1.314 . S
N581 C584 1.279 . S
C582 C580 1.353 . S
C582 C585 1.348 . S
C582 H614 0.929 . S
C583 C584 1.358 . S
C583 C585 1.356 . S
C583 H615 0.930 . S
C584 N581 1.279 . S
C584 C583 1.358 . S
C584 H587 0.930 . S
C585 C582 1.348 . S
C585 C583 1.356 . S
H586 C580 0.930 . S
H587 C584 0.930 . S
O588 Li528 1.956 1_455 S
O588 Li529 1.970 . S
O588 Li530 1.961 1_455 S
O588 C532 1.325 . S
O589 Li528 1.970 . S
O589 Li529 1.956 1_655 S
O589 Li531 1.961 . S
O589 C538 1.325 . S
O590 Li528 1.961 . S
O590 Li530 1.956 . S
O590 Li531 1.970 . S
O590 C560 1.325 . S
O591 Li529 1.961 . S
O591 Li530 1.970 1_455 S
O591 Li531 1.956 1_455 S
O591 C566 1.325 . S
H592 C534 0.929 . S
H593 C535 0.930 . S
H594 C536 0.930 . S
H595 C537 0.930 . S
H596 C539 0.930 . S
H597 C541 0.934 . S
H598 C542 0.930 . S
H599 C543 0.930 . S
H600 C546 0.930 1_455 S
H601 C549 0.929 . S
H602 C554 0.929 . S
H603 C555 0.930 . S
H604 C562 0.929 . S
H605 C563 0.930 . S
H606 C564 0.930 . S
H607 C565 0.930 . S
H608 C567 0.913 1_655 S
H609 C568 0.930 . S
H610 C569 0.930 . S
H611 C570 0.930 . S
H612 C574 0.929 . S
H613 C576 0.930 . S
H614 C582 0.929 . S
H615 C583 0.930 . S
Li616 N633 1.990 . S
Li616 O676 1.956 . S
Li616 O677 1.970 . S
Li616 O678 1.961 1_545 S
Li617 N641 1.990 . S
Li617 O676 1.970 1_565 S
Li617 O677 1.956 1_565 S
Li617 O679 1.961 . S
Li618 N663 1.990 . S
Li618 O676 1.961 1_565 S
Li618 O678 1.956 . S
Li618 O679 1.970 . S
Li619 N669 1.990 . S
Li619 O677 1.961 1_565 S
Li619 O678 1.970 . S
Li619 O679 1.956 . S
C620 C622 1.348 . S
C620 C623 1.356 . S
C620 O676 1.325 . S
N621 C624 1.314 . S
N621 C625 1.279 . S
C622 C620 1.348 . S
C622 C624 1.353 . S
C622 H680 0.929 . S
C623 C620 1.356 . S
C623 C625 1.358 . S
C623 H681 0.930 . S
C624 N621 1.314 . S
C624 C622 1.353 . S
C624 H682 0.930 . S
C625 N621 1.279 . S
C625 C623 1.358 . S
C625 H683 0.930 . S
C626 C629 1.348 . S
C626 C630 1.356 1_545 S
C626 O677 1.325 . S
C627 N628 1.279 1_565 S
C627 C630 1.358 . S
C627 H684 0.930 . S
N628 C627 1.279 1_545 S
N628 C631 1.314 . S
C629 C626 1.348 . S
C629 C631 1.353 . S
C629 H685 0.929 . S
C630 C626 1.356 1_565 S
C630 C627 1.358 . S
C630 H686 0.930 . S
C631 N628 1.314 . S
C631 C629 1.353 . S
C631 H687 0.930 . S
C632 N633 1.314 . S
C632 C637 1.353 . S
C632 H638 0.930 . S
N633 Li616 1.990 . S
N633 C632 1.314 . S
N633 C635 1.279 . S
C634 C635 1.358 . S
C634 C636 1.356 . S
C634 H688 0.930 . S
C635 N633 1.279 . S
C635 C634 1.358 . S
C635 H639 0.930 . S
C636 C634 1.356 . S
C636 C637 1.348 . S
C637 C632 1.353 . S
C637 C636 1.348 . S
C637 H689 0.929 . S
H638 C632 0.930 . S
H639 C635 0.930 . S
C640 N641 1.314 . S
C640 C642 1.353 . S
C640 H646 0.930 . S
N641 Li617 1.990 . S
N641 C640 1.314 . S
N641 C644 1.279 1_565 S
C642 C640 1.353 . S
C642 C645 1.348 1_565 S
C642 H690 0.929 . S
C643 C644 1.358 . S
C643 C645 1.356 . S
C643 H691 0.930 . S
C644 N641 1.279 1_545 S
C644 C643 1.358 . S
C644 H647 0.930 . S
C645 C642 1.348 1_545 S
C645 C643 1.356 . S
H646 C640 0.930 . S
H647 C644 0.930 . S
C648 C650 1.348 . S
C648 C651 1.356 1_565 S
C648 O678 1.325 . S
N649 C652 1.314 . S
N649 C653 1.279 1_565 S
C650 C648 1.348 . S
C650 C652 1.353 . S
C650 H692 0.929 . S
C651 C648 1.356 1_545 S
C651 C653 1.358 . S
C651 H693 0.930 . S
C652 N649 1.314 . S
C652 C650 1.353 . S
C652 H694 0.930 . S
C653 N649 1.279 1_545 S
C653 C651 1.358 . S
C653 H695 0.930 . S
C654 C655 1.348 . S
C654 C656 1.356 . S
C654 O679 1.325 . S
C655 C654 1.348 . S
C655 C657 1.353 . S
C655 H696 0.929 . S
C656 C654 1.356 . S
C656 C658 1.358 . S
C656 H697 0.930 . S
C657 C655 1.353 . S
C657 N659 1.314 . S
C657 H698 0.930 . S
C658 C656 1.358 . S
C658 N659 1.279 . S
C658 H699 0.930 . S
N659 C657 1.314 . S
N659 C658 1.279 . S
C660 C662 1.353 . S
C660 N663 1.314 . S
C660 H666 0.930 . S
C661 N663 1.279 . S
C661 C664 1.358 . S
C661 H667 0.930 . S
C662 C660 1.353 . S
C662 C665 1.348 . S
C662 H700 0.929 . S
N663 Li618 1.990 . S
N663 C660 1.314 . S
N663 C661 1.279 . S
C664 C661 1.358 . S
C664 C665 1.356 . S
C664 H701 0.930 . S
C665 C662 1.348 . S
C665 C664 1.356 . S
H666 C660 0.930 . S
H667 C661 0.930 . S
C668 N669 1.314 . S
C668 C670 1.353 . S
C668 H674 0.930 . S
N669 Li619 1.990 . S
N669 C668 1.314 . S
N669 C672 1.279 . S
C670 C668 1.353 . S
C670 C673 1.348 . S
C670 H702 0.929 . S
C671 C672 1.358 . S
C671 C673 1.356 . S
C671 H703 0.930 . S
C672 N669 1.279 . S
C672 C671 1.358 . S
C672 H675 0.930 . S
C673 C670 1.348 . S
C673 C671 1.356 . S
H674 C668 0.930 . S
H675 C672 0.930 . S
O676 Li616 1.956 . S
O676 Li617 1.970 1_545 S
O676 Li618 1.961 1_545 S
O676 C620 1.325 . S
O677 Li616 1.970 . S
O677 Li617 1.956 1_545 S
O677 Li619 1.961 1_545 S
O677 C626 1.325 . S
O678 Li616 1.961 1_565 S
O678 Li618 1.956 . S
O678 Li619 1.970 . S
O678 C648 1.325 . S
O679 Li617 1.961 . S
O679 Li618 1.970 . S
O679 Li619 1.956 . S
O679 C654 1.325 . S
H680 C622 0.929 . S
H681 C623 0.930 . S
H682 C624 0.930 . S
H683 C625 0.930 . S
H684 C627 0.930 . S
H685 C629 0.929 . S
H686 C630 0.930 . S
H687 C631 0.930 . S
H688 C634 0.930 . S
H689 C637 0.929 . S
H690 C642 0.929 . S
H691 C643 0.930 . S
H692 C650 0.929 . S
H693 C651 0.930 . S
H694 C652 0.930 . S
H695 C653 0.930 . S
H696 C655 0.929 . S
H697 C656 0.930 . S
H698 C657 0.930 . S
H699 C658 0.930 . S
H700 C662 0.929 . S
H701 C664 0.930 . S
H702 C670 0.929 . S
H703 C671 0.930 . S
Li704 N721 1.990 . S
Li704 O764 1.956 . S
Li704 O765 1.970 . S
Li704 O766 1.961 . S
Li705 N729 1.990 . S
Li705 O764 1.970 . S
Li705 O765 1.956 . S
Li705 O767 1.961 . S
Li706 N751 1.990 . S
Li706 O764 1.961 . S
Li706 O766 1.956 . S
Li706 O767 1.970 . S
Li707 N757 1.990 . S
Li707 O765 1.961 . S
Li707 O766 1.970 . S
Li707 O767 1.956 . S
C708 C710 1.348 . S
C708 C711 1.356 . S
C708 O764 1.325 . S
N709 C712 1.314 . S
N709 C713 1.279 . S
C710 C708 1.348 . S
C710 C712 1.353 . S
C710 H768 0.929 . S
C711 C708 1.356 . S
C711 C713 1.358 . S
C711 H769 0.930 . S
C712 N709 1.314 . S
C712 C710 1.353 . S
C712 H770 0.930 . S
C713 N709 1.279 . S
C713 C711 1.358 . S
C713 H771 0.930 . S
C714 C717 1.348 . S
C714 C718 1.356 . S
C714 O765 1.325 . S
C715 N716 1.279 . S
C715 C718 1.358 . S
C715 H772 0.930 . S
N716 C715 1.279 . S
N716 C719 1.314 . S
C717 C714 1.348 . S
C717 C719 1.353 . S
C717 H773 0.929 . S
C718 C714 1.356 . S
C718 C715 1.358 . S
C718 H774 0.930 . S
C719 N716 1.314 . S
C719 C717 1.353 . S
C719 H775 0.930 . S
C720 N721 1.314 . S
C720 C725 1.353 . S
C720 H726 0.930 . S
N721 Li704 1.990 . S
N721 C720 1.314 . S
N721 C723 1.279 . S
C722 C723 1.358 . S
C722 C724 1.356 . S
C722 H776 0.930 . S
C723 N721 1.279 . S
C723 C722 1.358 . S
C723 H727 0.930 . S
C724 C722 1.356 . S
C724 C725 1.348 . S
C725 C720 1.353 . S
C725 C724 1.348 . S
C725 H777 0.929 . S
H726 C720 0.930 . S
H727 C723 0.930 . S
C728 N729 1.314 . S
C728 C730 1.353 . S
C728 H734 0.930 . S
N729 Li705 1.990 . S
N729 C728 1.314 . S
N729 C732 1.279 . S
C730 C728 1.353 . S
C730 C733 1.348 . S
C730 H778 0.929 . S
C731 C732 1.358 . S
C731 C733 1.356 . S
C731 H779 0.930 . S
C732 N729 1.279 . S
C732 C731 1.358 . S
C732 H735 0.930 . S
C733 C730 1.348 . S
C733 C731 1.356 . S
H734 C728 0.930 . S
H735 C732 0.930 . S
C736 C738 1.348 . S
C736 C739 1.356 . S
C736 O766 1.325 . S
N737 C740 1.314 . S
N737 C741 1.279 . S
C738 C736 1.348 . S
C738 C740 1.353 . S
C738 H780 0.929 . S
C739 C736 1.356 . S
C739 C741 1.358 . S
C739 H781 0.930 . S
C740 N737 1.314 . S
C740 C738 1.353 . S
C740 H782 0.930 . S
C741 N737 1.279 . S
C741 C739 1.358 . S
C741 H783 0.930 . S
C742 C743 1.348 . S
C742 C744 1.356 . S
C742 O767 1.325 . S
C743 C742 1.348 . S
C743 C745 1.353 . S
C743 H784 0.929 . S
C744 C742 1.356 . S
C744 C746 1.358 . S
C744 H785 0.930 . S
C745 C743 1.353 . S
C745 N747 1.314 . S
C745 H786 0.930 . S
C746 C744 1.358 . S
C746 N747 1.279 . S
C746 H787 0.930 . S
N747 C745 1.314 . S
N747 C746 1.279 . S
C748 C750 1.353 . S
C748 N751 1.314 . S
C748 H754 0.930 . S
C749 N751 1.279 . S
C749 C752 1.358 . S
C749 H755 0.930 . S
C750 C748 1.353 . S
C750 C753 1.348 . S
C750 H788 0.929 . S
N751 Li706 1.990 . S
N751 C748 1.314 . S
N751 C749 1.279 . S
C752 C749 1.358 . S
C752 C753 1.356 . S
C752 H789 0.930 . S
C753 C750 1.348 . S
C753 C752 1.356 . S
H754 C748 0.930 . S
H755 C749 0.930 . S
C756 N757 1.314 . S
C756 C758 1.353 . S
C756 H762 0.930 . S
N757 Li707 1.990 . S
N757 C756 1.314 . S
N757 C760 1.279 . S
C758 C756 1.353 . S
C758 C761 1.348 . S
C758 H790 0.929 . S
C759 C760 1.358 . S
C759 C761 1.356 . S
C759 H791 0.930 . S
C760 N757 1.279 . S
C760 C759 1.358 . S
C760 H763 0.930 . S
C761 C758 1.348 . S
C761 C759 1.356 . S
H762 C756 0.930 . S
H763 C760 0.930 . S
O764 Li704 1.956 . S
O764 Li705 1.970 . S
O764 Li706 1.961 . S
O764 C708 1.325 . S
O765 Li704 1.970 . S
O765 Li705 1.956 . S
O765 Li707 1.961 . S
O765 C714 1.325 . S
O766 Li704 1.961 . S
O766 Li706 1.956 . S
O766 Li707 1.970 . S
O766 C736 1.325 . S
O767 Li705 1.961 . S
O767 Li706 1.970 . S
O767 Li707 1.956 . S
O767 C742 1.325 . S
H768 C710 0.929 . S
H769 C711 0.930 . S
H770 C712 0.930 . S
H771 C713 0.930 . S
H772 C715 0.930 . S
H773 C717 0.929 . S
H774 C718 0.930 . S
H775 C719 0.930 . S
H776 C722 0.930 . S
H777 C725 0.929 . S
H778 C730 0.929 . S
H779 C731 0.930 . S
H780 C738 0.929 . S
H781 C739 0.930 . S
H782 C740 0.930 . S
H783 C741 0.930 . S
H784 C743 0.929 . S
H785 C744 0.930 . S
H786 C745 0.930 . S
H787 C746 0.930 . S
H788 C750 0.929 . S
H789 C752 0.930 . S
H790 C758 0.929 . S
H791 C759 0.930 . S
Li792 N809 1.990 . S
Li792 O852 1.956 . S
Li792 O853 1.970 . S
Li792 O854 1.961 . S
Li793 N817 1.990 . S
Li793 O852 1.970 . S
Li793 O853 1.956 . S
Li793 O855 1.961 . S
Li794 N839 1.990 . S
Li794 O852 1.961 . S
Li794 O854 1.956 . S
Li794 O855 1.970 . S
Li795 N845 1.990 . S
Li795 O853 1.961 . S
Li795 O854 1.970 . S
Li795 O855 1.956 . S
C796 C798 1.348 . S
C796 C799 1.356 . S
C796 O852 1.325 . S
N797 C800 1.314 . S
N797 C801 1.279 . S
C798 C796 1.348 . S
C798 C800 1.353 . S
C798 H856 0.929 . S
C799 C796 1.356 . S
C799 C801 1.358 . S
C799 H857 0.930 . S
C800 N797 1.314 . S
C800 C798 1.353 . S
C800 H858 0.930 . S
C801 N797 1.279 . S
C801 C799 1.358 . S
C801 H859 0.930 . S
C802 C805 1.348 . S
C802 C806 1.356 . S
C802 O853 1.325 . S
C803 N804 1.279 . S
C803 C806 1.358 . S
C803 H860 0.930 . S
N804 C803 1.279 . S
N804 C807 1.314 . S
C805 C802 1.348 . S
C805 C807 1.353 . S
C805 H861 0.929 . S
C806 C802 1.356 . S
C806 C803 1.358 . S
C806 H862 0.930 . S
C807 N804 1.314 . S
C807 C805 1.353 . S
C807 H863 0.930 . S
C808 N809 1.314 . S
C808 C813 1.353 . S
C808 H814 0.930 . S
N809 Li792 1.990 . S
N809 C808 1.314 . S
N809 C811 1.279 . S
C810 C811 1.358 . S
C810 C812 1.356 . S
C810 H864 0.930 . S
C811 N809 1.279 . S
C811 C810 1.358 . S
C811 H815 0.930 . S
C812 C810 1.356 . S
C812 C813 1.348 . S
C813 C808 1.353 . S
C813 C812 1.348 . S
C813 H865 0.929 . S
H814 C808 0.930 . S
H815 C811 0.930 . S
C816 N817 1.314 . S
C816 C818 1.353 . S
C816 H822 0.930 . S
N817 Li793 1.990 . S
N817 C816 1.314 . S
N817 C820 1.279 . S
C818 C816 1.353 . S
C818 C821 1.348 . S
C818 H866 0.929 . S
C819 C820 1.358 . S
C819 C821 1.356 . S
C819 H867 0.930 . S
C820 N817 1.279 . S
C820 C819 1.358 . S
C820 H823 0.930 . S
C821 C818 1.348 . S
C821 C819 1.356 . S
H822 C816 0.930 . S
H823 C820 0.930 . S
C824 C826 1.348 . S
C824 C827 1.356 . S
C824 O854 1.325 . S
N825 C828 1.314 . S
N825 C829 1.279 . S
C826 C824 1.348 . S
C826 C828 1.353 . S
C826 H868 0.929 . S
C827 C824 1.356 . S
C827 C829 1.358 . S
C827 H869 0.930 . S
C828 N825 1.314 . S
C828 C826 1.353 . S
C828 H870 0.930 . S
C829 N825 1.279 . S
C829 C827 1.358 . S
C829 H871 0.930 . S
C830 C831 1.348 . S
C830 C832 1.356 . S
C830 O855 1.325 . S
C831 C830 1.348 . S
C831 C833 1.353 . S
C831 H872 0.929 . S
C832 C830 1.356 . S
C832 C834 1.358 . S
C832 H873 0.930 . S
C833 C831 1.353 . S
C833 N835 1.314 . S
C833 H874 0.930 . S
C834 C832 1.358 . S
C834 N835 1.279 . S
C834 H875 0.930 . S
N835 C833 1.314 . S
N835 C834 1.279 . S
C836 C838 1.353 . S
C836 N839 1.314 . S
C836 H842 0.930 . S
C837 N839 1.279 . S
C837 C840 1.358 . S
C837 H843 0.930 . S
C838 C836 1.353 . S
C838 C841 1.348 . S
C838 H876 0.929 . S
N839 Li794 1.990 . S
N839 C836 1.314 . S
N839 C837 1.279 . S
C840 C837 1.358 . S
C840 C841 1.356 . S
C840 H877 0.930 . S
C841 C838 1.348 . S
C841 C840 1.356 . S
H842 C836 0.930 . S
H843 C837 0.930 . S
C844 N845 1.314 . S
C844 C846 1.353 . S
C844 H850 0.930 . S
N845 Li795 1.990 . S
N845 C844 1.314 . S
N845 C848 1.279 . S
C846 C844 1.353 . S
C846 C849 1.348 . S
C846 H878 0.929 . S
C847 C848 1.358 . S
C847 C849 1.356 . S
C847 H879 0.930 . S
C848 N845 1.279 . S
C848 C847 1.358 . S
C848 H851 0.930 . S
C849 C846 1.348 . S
C849 C847 1.356 . S
H850 C844 0.930 . S
H851 C848 0.930 . S
O852 Li792 1.956 . S
O852 Li793 1.970 . S
O852 Li794 1.961 . S
O852 C796 1.325 . S
O853 Li792 1.970 . S
O853 Li793 1.956 . S
O853 Li795 1.961 . S
O853 C802 1.325 . S
O854 Li792 1.961 . S
O854 Li794 1.956 . S
O854 Li795 1.970 . S
O854 C824 1.325 . S
O855 Li793 1.961 . S
O855 Li794 1.970 . S
O855 Li795 1.956 . S
O855 C830 1.325 . S
H856 C798 0.929 . S
H857 C799 0.930 . S
H858 C800 0.930 . S
H859 C801 0.930 . S
H860 C803 0.930 . S
H861 C805 0.929 . S
H862 C806 0.930 . S
H863 C807 0.930 . S
H864 C810 0.930 . S
H865 C813 0.929 . S
H866 C818 0.929 . S
H867 C819 0.930 . S
H868 C826 0.929 . S
H869 C827 0.930 . S
H870 C828 0.930 . S
H871 C829 0.930 . S
H872 C831 0.929 . S
H873 C832 0.930 . S
H874 C833 0.930 . S
H875 C834 0.930 . S
H876 C838 0.929 . S
H877 C840 0.930 . S
H878 C846 0.929 . S
H879 C847 0.930 . S
Li880 N897 1.990 . S
Li880 O940 1.956 . S
Li880 O941 1.970 . S
Li880 O942 1.961 . S
Li881 N905 1.990 . S
Li881 O940 1.970 . S
Li881 O941 1.956 . S
Li881 O943 1.961 . S
Li882 N927 1.990 . S
Li882 O940 1.961 . S
Li882 O942 1.956 . S
Li882 O943 1.970 . S
Li883 N933 1.990 . S
Li883 O941 1.961 . S
Li883 O942 1.970 . S
Li883 O943 1.956 . S
C884 C886 1.348 . S
C884 C887 1.356 . S
C884 O940 1.325 . S
N885 C888 1.314 . S
N885 C889 1.279 . S
C886 C884 1.348 . S
C886 C888 1.353 . S
C886 H944 0.929 . S
C887 C884 1.356 . S
C887 C889 1.358 . S
C887 H945 0.930 . S
C888 N885 1.314 . S
C888 C886 1.353 . S
C888 H946 0.930 . S
C889 N885 1.279 . S
C889 C887 1.358 . S
C889 H947 0.930 . S
C890 C893 1.348 . S
C890 C894 1.356 . S
C890 O941 1.325 . S
C891 N892 1.279 . S
C891 C894 1.358 . S
C891 H948 0.930 . S
N892 C891 1.279 . S
N892 C895 1.314 . S
C893 C890 1.348 . S
C893 C895 1.353 . S
C893 H949 0.929 . S
C894 C890 1.356 . S
C894 C891 1.358 . S
C894 H950 0.930 . S
C895 N892 1.314 . S
C895 C893 1.353 . S
C895 H951 0.930 . S
C896 N897 1.314 . S
C896 C901 1.353 . S
C896 H902 0.930 . S
N897 Li880 1.990 . S
N897 C896 1.314 . S
N897 C899 1.279 . S
C898 C899 1.358 . S
C898 C900 1.356 . S
C898 H952 0.930 . S
C899 N897 1.279 . S
C899 C898 1.358 . S
C899 H903 0.930 . S
C900 C898 1.356 . S
C900 C901 1.348 . S
C901 C896 1.353 . S
C901 C900 1.348 . S
C901 H953 0.929 . S
H902 C896 0.930 . S
H903 C899 0.930 . S
C904 N905 1.314 . S
C904 C906 1.353 . S
C904 H910 0.930 . S
N905 Li881 1.990 . S
N905 C904 1.314 . S
N905 C908 1.279 . S
C906 C904 1.353 . S
C906 C909 1.348 . S
C906 H954 0.929 . S
C907 C908 1.358 . S
C907 C909 1.356 . S
C907 H955 0.930 . S
C908 N905 1.279 . S
C908 C907 1.358 . S
C908 H911 0.930 . S
C909 C906 1.348 . S
C909 C907 1.356 . S
H910 C904 0.930 . S
H911 C908 0.930 . S
C912 C914 1.348 . S
C912 C915 1.356 . S
C912 O942 1.325 . S
N913 C916 1.314 . S
N913 C917 1.279 . S
C914 C912 1.348 . S
C914 C916 1.353 . S
C914 H956 0.929 . S
C915 C912 1.356 . S
C915 C917 1.358 . S
C915 H957 0.930 . S
C916 N913 1.314 . S
C916 C914 1.353 . S
C916 H958 0.930 . S
C917 N913 1.279 . S
C917 C915 1.358 . S
C917 H959 0.930 . S
C918 C919 1.348 . S
C918 C920 1.356 . S
C918 O943 1.325 . S
C919 C918 1.348 . S
C919 C921 1.353 . S
C919 H960 0.929 . S
C920 C918 1.356 . S
C920 C922 1.358 . S
C920 H961 0.930 . S
C921 C919 1.353 . S
C921 N923 1.314 . S
C921 H962 0.930 . S
C922 C920 1.358 . S
C922 N923 1.279 . S
C922 H963 0.930 . S
N923 C921 1.314 . S
N923 C922 1.279 . S
C924 C926 1.353 . S
C924 N927 1.314 . S
C924 H930 0.930 . S
C925 N927 1.279 . S
C925 C928 1.358 . S
C925 H931 0.930 . S
C926 C924 1.353 . S
C926 C929 1.348 . S
C926 H964 0.929 . S
N927 Li882 1.990 . S
N927 C924 1.314 . S
N927 C925 1.279 . S
C928 C925 1.358 . S
C928 C929 1.356 . S
C928 H965 0.930 . S
C929 C926 1.348 . S
C929 C928 1.356 . S
H930 C924 0.930 . S
H931 C925 0.930 . S
C932 N933 1.314 . S
C932 C934 1.353 . S
C932 H938 0.930 . S
N933 Li883 1.990 . S
N933 C932 1.314 . S
N933 C936 1.279 . S
C934 C932 1.353 . S
C934 C937 1.348 . S
C934 H966 0.929 . S
C935 C936 1.358 . S
C935 C937 1.356 . S
C935 H967 0.930 . S
C936 N933 1.279 . S
C936 C935 1.358 . S
C936 H939 0.930 . S
C937 C934 1.348 . S
C937 C935 1.356 . S
H938 C932 0.930 . S
H939 C936 0.930 . S
O940 Li880 1.956 . S
O940 Li881 1.970 . S
O940 Li882 1.961 . S
O940 C884 1.325 . S
O941 Li880 1.970 . S
O941 Li881 1.956 . S
O941 Li883 1.961 . S
O941 C890 1.325 . S
O942 Li880 1.961 . S
O942 Li882 1.956 . S
O942 Li883 1.970 . S
O942 C912 1.325 . S
O943 Li881 1.961 . S
O943 Li882 1.970 . S
O943 Li883 1.956 . S
O943 C918 1.325 . S
H944 C886 0.929 . S
H945 C887 0.930 . S
H946 C888 0.930 . S
H947 C889 0.930 . S
H948 C891 0.930 . S
H949 C893 0.929 . S
H950 C894 0.930 . S
H951 C895 0.930 . S
H952 C898 0.930 . S
H953 C901 0.929 . S
H954 C906 0.929 . S
H955 C907 0.930 . S
H956 C914 0.929 . S
H957 C915 0.930 . S
H958 C916 0.930 . S
H959 C917 0.930 . S
H960 C919 0.929 . S
H961 C920 0.930 . S
H962 C921 0.930 . S
H963 C922 0.930 . S
H964 C926 0.929 . S
H965 C928 0.930 . S
H966 C934 0.929 . S
H967 C935 0.930 . S
Li968 N985 1.990 . S
Li968 O1028 1.956 . S
Li968 O1029 1.970 . S
Li968 O1030 1.961 . S
Li969 N993 1.990 . S
Li969 O1028 1.970 . S
Li969 O1029 1.956 . S
Li969 O1031 1.961 . S
Li970 N1015 1.990 . S
Li970 O1028 1.961 . S
Li970 O1030 1.956 . S
Li970 O1031 1.970 . S
Li971 N1021 1.990 . S
Li971 O1029 1.961 . S
Li971 O1030 1.970 . S
Li971 O1031 1.956 . S
C972 C974 1.348 . S
C972 C975 1.356 . S
C972 O1028 1.325 . S
N973 C976 1.314 . S
N973 C977 1.279 . S
C974 C972 1.348 . S
C974 C976 1.353 . S
C974 H1032 0.929 . S
C975 C972 1.356 . S
C975 C977 1.358 . S
C975 H1033 0.930 . S
C976 N973 1.314 . S
C976 C974 1.353 . S
C976 H1034 0.930 . S
C977 N973 1.279 . S
C977 C975 1.358 . S
C977 H1035 0.930 . S
C978 C981 1.348 . S
C978 C982 1.356 . S
C978 O1029 1.325 . S
C979 N980 1.279 . S
C979 C982 1.358 . S
C979 H1036 0.930 . S
N980 C979 1.279 . S
N980 C983 1.314 . S
C981 C978 1.348 . S
C981 C983 1.353 . S
C981 H1037 0.929 . S
C982 C978 1.356 . S
C982 C979 1.358 . S
C982 H1038 0.930 . S
C983 N980 1.314 . S
C983 C981 1.353 . S
C983 H1039 0.930 . S
C984 N985 1.314 . S
C984 C989 1.353 . S
C984 H990 0.930 . S
N985 Li968 1.990 . S
N985 C984 1.314 . S
N985 C987 1.279 . S
C986 C987 1.358 . S
C986 C988 1.356 . S
C986 H1040 0.930 . S
C987 N985 1.279 . S
C987 C986 1.358 . S
C987 H991 0.930 . S
C988 C986 1.356 . S
C988 C989 1.348 . S
C989 C984 1.353 . S
C989 C988 1.348 . S
C989 H1041 0.929 . S
H990 C984 0.930 . S
H991 C987 0.930 . S
C992 N993 1.314 . S
C992 C994 1.353 . S
C992 H998 0.930 . S
N993 Li969 1.990 . S
N993 C992 1.314 . S
N993 C996 1.279 . S
C994 C992 1.353 . S
C994 C997 1.348 . S
C994 H1042 0.929 . S
C995 C996 1.358 . S
C995 C997 1.356 . S
C995 H1043 0.930 . S
C996 N993 1.279 . S
C996 C995 1.358 . S
C996 H999 0.930 . S
C997 C994 1.348 . S
C997 C995 1.356 . S
H998 C992 0.930 . S
H999 C996 0.930 . S
C1000 C1002 1.348 . S
C1000 C1003 1.356 . S
C1000 O1030 1.325 . S
N1001 C1004 1.314 . S
N1001 C1005 1.279 . S
C1002 C1000 1.348 . S
C1002 C1004 1.353 . S
C1002 H1044 0.929 . S
C1003 C1000 1.356 . S
C1003 C1005 1.358 . S
C1003 H1045 0.930 . S
C1004 N1001 1.314 . S
C1004 C1002 1.353 . S
C1004 H1046 0.930 . S
C1005 N1001 1.279 . S
C1005 C1003 1.358 . S
C1005 H1047 0.930 . S
C1006 C1007 1.348 . S
C1006 C1008 1.356 . S
C1006 O1031 1.325 . S
C1007 C1006 1.348 . S
C1007 C1009 1.353 . S
C1007 H1048 0.929 . S
C1008 C1006 1.356 . S
C1008 C1010 1.358 . S
C1008 H1049 0.930 . S
C1009 C1007 1.353 . S
C1009 N1011 1.314 . S
C1009 H1050 0.930 . S
C1010 C1008 1.358 . S
C1010 N1011 1.279 . S
C1010 H1051 0.930 . S
N1011 C1009 1.314 . S
N1011 C1010 1.279 . S
C1012 C1014 1.353 . S
C1012 N1015 1.314 . S
C1012 H1018 0.930 . S
C1013 N1015 1.279 . S
C1013 C1016 1.358 . S
C1013 H1019 0.930 . S
C1014 C1012 1.353 . S
C1014 C1017 1.348 . S
C1014 H1052 0.929 . S
N1015 Li970 1.990 . S
N1015 C1012 1.314 . S
N1015 C1013 1.279 . S
C1016 C1013 1.358 . S
C1016 C1017 1.356 . S
C1016 H1053 0.930 . S
C1017 C1014 1.348 . S
C1017 C1016 1.356 . S
H1018 C1012 0.930 . S
H1019 C1013 0.930 . S
C1020 N1021 1.314 . S
C1020 C1022 1.353 . S
C1020 H1026 0.930 . S
N1021 Li971 1.990 . S
N1021 C1020 1.314 . S
N1021 C1024 1.279 . S
C1022 C1020 1.353 . S
C1022 C1025 1.348 . S
C1022 H1054 0.929 . S
C1023 C1024 1.358 . S
C1023 C1025 1.356 . S
C1023 H1055 0.930 . S
C1024 N1021 1.279 . S
C1024 C1023 1.358 . S
C1024 H1027 0.930 . S
C1025 C1022 1.348 . S
C1025 C1023 1.356 . S
H1026 C1020 0.930 . S
H1027 C1024 0.930 . S
O1028 Li968 1.956 . S
O1028 Li969 1.970 . S
O1028 Li970 1.961 . S
O1028 C972 1.325 . S
O1029 Li968 1.970 . S
O1029 Li969 1.956 . S
O1029 Li971 1.961 . S
O1029 C978 1.325 . S
O1030 Li968 1.961 . S
O1030 Li970 1.956 . S
O1030 Li971 1.970 . S
O1030 C1000 1.325 . S
O1031 Li969 1.961 . S
O1031 Li970 1.970 . S
O1031 Li971 1.956 . S
O1031 C1006 1.325 . S
H1032 C974 0.929 . S
H1033 C975 0.930 . S
H1034 C976 0.930 . S
H1035 C977 0.930 . S
H1036 C979 0.930 . S
H1037 C981 0.929 . S
H1038 C982 0.930 . S
H1039 C983 0.930 . S
H1040 C986 0.930 . S
H1041 C989 0.929 . S
H1042 C994 0.929 . S
H1043 C995 0.930 . S
H1044 C1002 0.929 . S
H1045 C1003 0.930 . S
H1046 C1004 0.930 . S
H1047 C1005 0.930 . S
H1048 C1007 0.929 . S
H1049 C1008 0.930 . S
H1050 C1009 0.930 . S
H1051 C1010 0.930 . S
H1052 C1014 0.929 . S
H1053 C1016 0.930 . S
H1054 C1022 0.929 . S
H1055 C1023 0.930 . S
Li1056 N1073 1.990 . S
Li1056 O1116 1.956 . S
Li1056 O1117 1.970 . S
Li1056 O1118 1.961 . S
Li1057 N1081 1.990 . S
Li1057 O1116 1.970 . S
Li1057 O1117 1.956 . S
Li1057 O1119 1.961 . S
Li1058 N1103 1.990 . S
Li1058 O1116 1.961 . S
Li1058 O1118 1.956 . S
Li1058 O1119 1.970 . S
Li1059 N1109 1.990 . S
Li1059 O1117 1.961 . S
Li1059 O1118 1.970 . S
Li1059 O1119 1.956 . S
C1060 C1062 1.348 . S
C1060 C1063 1.356 . S
C1060 O1116 1.325 . S
N1061 C1064 1.314 . S
N1061 C1065 1.279 . S
C1062 C1060 1.348 . S
C1062 C1064 1.353 . S
C1062 H1120 0.929 . S
C1063 C1060 1.356 . S
C1063 C1065 1.358 . S
C1063 H1121 0.930 . S
C1064 N1061 1.314 . S
C1064 C1062 1.353 . S
C1064 H1122 0.930 . S
C1065 N1061 1.279 . S
C1065 C1063 1.358 . S
C1065 H1123 0.930 . S
C1066 C1069 1.348 . S
C1066 C1070 1.356 . S
C1066 O1117 1.325 . S
C1067 N1068 1.279 . S
C1067 C1070 1.358 . S
C1067 H1124 0.930 . S
N1068 C1067 1.279 . S
N1068 C1071 1.314 . S
C1069 C1066 1.348 . S
C1069 C1071 1.353 . S
C1069 H1125 0.929 . S
C1070 C1066 1.356 . S
C1070 C1067 1.358 . S
C1070 H1126 0.930 . S
C1071 N1068 1.314 . S
C1071 C1069 1.353 . S
C1071 H1127 0.930 . S
C1072 N1073 1.314 . S
C1072 C1077 1.353 . S
C1072 H1078 0.930 . S
N1073 Li1056 1.990 . S
N1073 C1072 1.314 . S
N1073 C1075 1.279 . S
C1074 C1075 1.358 . S
C1074 C1076 1.356 . S
C1074 H1128 0.930 . S
C1075 N1073 1.279 . S
C1075 C1074 1.358 . S
C1075 H1079 0.930 . S
C1076 C1074 1.356 . S
C1076 C1077 1.348 . S
C1077 C1072 1.353 . S
C1077 C1076 1.348 . S
C1077 H1129 0.929 . S
H1078 C1072 0.930 . S
H1079 C1075 0.930 . S
C1080 N1081 1.314 . S
C1080 C1082 1.353 . S
C1080 H1086 0.930 . S
N1081 Li1057 1.990 . S
N1081 C1080 1.314 . S
N1081 C1084 1.279 . S
C1082 C1080 1.353 . S
C1082 C1085 1.348 . S
C1082 H1130 0.929 . S
C1083 C1084 1.358 . S
C1083 C1085 1.356 . S
C1083 H1131 0.930 . S
C1084 N1081 1.279 . S
C1084 C1083 1.358 . S
C1084 H1087 0.930 . S
C1085 C1082 1.348 . S
C1085 C1083 1.356 . S
H1086 C1080 0.930 . S
H1087 C1084 0.930 . S
C1088 C1090 1.348 . S
C1088 C1091 1.356 . S
C1088 O1118 1.325 . S
N1089 C1092 1.314 . S
N1089 C1093 1.279 . S
C1090 C1088 1.348 . S
C1090 C1092 1.353 . S
C1090 H1132 0.929 . S
C1091 C1088 1.356 . S
C1091 C1093 1.358 . S
C1091 H1133 0.930 . S
C1092 N1089 1.314 . S
C1092 C1090 1.353 . S
C1092 H1134 0.930 . S
C1093 N1089 1.279 . S
C1093 C1091 1.358 . S
C1093 H1135 0.930 . S
C1094 C1095 1.348 . S
C1094 C1096 1.356 . S
C1094 O1119 1.325 . S
C1095 C1094 1.348 . S
C1095 C1097 1.353 . S
C1095 H1136 0.929 . S
C1096 C1094 1.356 . S
C1096 C1098 1.358 . S
C1096 H1137 0.930 . S
C1097 C1095 1.353 . S
C1097 N1099 1.314 . S
C1097 H1138 0.930 . S
C1098 C1096 1.358 . S
C1098 N1099 1.279 . S
C1098 H1139 0.930 . S
N1099 C1097 1.314 . S
N1099 C1098 1.279 . S
C1100 C1102 1.353 . S
C1100 N1103 1.314 . S
C1100 H1106 0.930 . S
C1101 N1103 1.279 . S
C1101 C1104 1.358 . S
C1101 H1107 0.930 . S
C1102 C1100 1.353 . S
C1102 C1105 1.348 . S
C1102 H1140 0.929 . S
N1103 Li1058 1.990 . S
N1103 C1100 1.314 . S
N1103 C1101 1.279 . S
C1104 C1101 1.358 . S
C1104 C1105 1.356 . S
C1104 H1141 0.930 . S
C1105 C1102 1.348 . S
C1105 C1104 1.356 . S
H1106 C1100 0.930 . S
H1107 C1101 0.930 . S
C1108 N1109 1.314 . S
C1108 C1110 1.353 . S
C1108 H1114 0.930 . S
N1109 Li1059 1.990 . S
N1109 C1108 1.314 . S
N1109 C1112 1.279 . S
C1110 C1108 1.353 . S
C1110 C1113 1.348 . S
C1110 H1142 0.929 . S
C1111 C1112 1.358 . S
C1111 C1113 1.356 . S
C1111 H1143 0.930 . S
C1112 N1109 1.279 . S
C1112 C1111 1.358 . S
C1112 H1115 0.930 . S
C1113 C1110 1.348 . S
C1113 C1111 1.356 . S
H1114 C1108 0.930 . S
H1115 C1112 0.930 . S
O1116 Li1056 1.956 . S
O1116 Li1057 1.970 . S
O1116 Li1058 1.961 . S
O1116 C1060 1.325 . S
O1117 Li1056 1.970 . S
O1117 Li1057 1.956 . S
O1117 Li1059 1.961 . S
O1117 C1066 1.325 . S
O1118 Li1056 1.961 . S
O1118 Li1058 1.956 . S
O1118 Li1059 1.970 . S
O1118 C1088 1.325 . S
O1119 Li1057 1.961 . S
O1119 Li1058 1.970 . S
O1119 Li1059 1.956 . S
O1119 C1094 1.325 . S
H1120 C1062 0.929 . S
H1121 C1063 0.930 . S
H1122 C1064 0.930 . S
H1123 C1065 0.930 . S
H1124 C1067 0.930 . S
H1125 C1069 0.929 . S
H1126 C1070 0.930 . S
H1127 C1071 0.930 . S
H1128 C1074 0.930 . S
H1129 C1077 0.929 . S
H1130 C1082 0.929 . S
H1131 C1083 0.930 . S
H1132 C1090 0.929 . S
H1133 C1091 0.930 . S
H1134 C1092 0.930 . S
H1135 C1093 0.930 . S
H1136 C1095 0.929 . S
H1137 C1096 0.930 . S
H1138 C1097 0.930 . S
H1139 C1098 0.930 . S
H1140 C1102 0.929 . S
H1141 C1104 0.930 . S
H1142 C1110 0.929 . S
H1143 C1111 0.930 . S
Li1144 N1161 1.990 . S
Li1144 O1204 1.956 . S
Li1144 O1205 1.970 . S
Li1144 O1206 1.961 . S
Li1145 N1169 1.990 . S
Li1145 O1204 1.970 . S
Li1145 O1205 1.956 . S
Li1145 O1207 1.961 . S
Li1146 N1191 1.990 . S
Li1146 O1204 1.961 . S
Li1146 O1206 1.956 . S
Li1146 O1207 1.970 . S
Li1147 N1197 1.990 . S
Li1147 O1205 1.961 . S
Li1147 O1206 1.970 . S
Li1147 O1207 1.956 . S
C1148 C1150 1.348 . S
C1148 C1151 1.356 . S
C1148 O1204 1.325 . S
N1149 C1152 1.314 . S
N1149 C1153 1.279 . S
C1150 C1148 1.348 . S
C1150 C1152 1.353 . S
C1150 H1208 0.929 . S
C1151 C1148 1.356 . S
C1151 C1153 1.358 . S
C1151 H1209 0.930 . S
C1152 N1149 1.314 . S
C1152 C1150 1.353 . S
C1152 H1210 0.930 . S
C1153 N1149 1.279 . S
C1153 C1151 1.358 . S
C1153 H1211 0.930 . S
C1154 C1157 1.348 . S
C1154 C1158 1.356 . S
C1154 O1205 1.325 . S
C1155 N1156 1.279 . S
C1155 C1158 1.358 . S
C1155 H1212 0.930 . S
N1156 C1155 1.279 . S
N1156 C1159 1.314 . S
C1157 C1154 1.348 . S
C1157 C1159 1.353 . S
C1157 H1213 0.929 . S
C1158 C1154 1.356 . S
C1158 C1155 1.358 . S
C1158 H1214 0.930 . S
C1159 N1156 1.314 . S
C1159 C1157 1.353 . S
C1159 H1215 0.930 . S
C1160 N1161 1.314 . S
C1160 C1165 1.353 . S
C1160 H1166 0.930 . S
N1161 Li1144 1.990 . S
N1161 C1160 1.314 . S
N1161 C1163 1.279 . S
C1162 C1163 1.358 . S
C1162 C1164 1.356 . S
C1162 H1216 0.930 . S
C1163 N1161 1.279 . S
C1163 C1162 1.358 . S
C1163 H1167 0.930 . S
C1164 C1162 1.356 . S
C1164 C1165 1.348 . S
C1165 C1160 1.353 . S
C1165 C1164 1.348 . S
C1165 H1217 0.929 . S
H1166 C1160 0.930 . S
H1167 C1163 0.930 . S
C1168 N1169 1.314 . S
C1168 C1170 1.353 . S
C1168 H1174 0.930 . S
N1169 Li1145 1.990 . S
N1169 C1168 1.314 . S
N1169 C1172 1.279 . S
C1170 C1168 1.353 . S
C1170 C1173 1.348 . S
C1170 H1218 0.929 . S
C1171 C1172 1.358 . S
C1171 C1173 1.356 . S
C1171 H1219 0.930 . S
C1172 N1169 1.279 . S
C1172 C1171 1.358 . S
C1172 H1175 0.930 . S
C1173 C1170 1.348 . S
C1173 C1171 1.356 . S
H1174 C1168 0.930 . S
H1175 C1172 0.930 . S
C1176 C1178 1.348 . S
C1176 C1179 1.356 . S
C1176 O1206 1.325 . S
N1177 C1180 1.314 . S
N1177 C1181 1.279 . S
C1178 C1176 1.348 . S
C1178 C1180 1.353 . S
C1178 H1220 0.929 . S
C1179 C1176 1.356 . S
C1179 C1181 1.358 . S
C1179 H1221 0.930 . S
C1180 N1177 1.314 . S
C1180 C1178 1.353 . S
C1180 H1222 0.930 . S
C1181 N1177 1.279 . S
C1181 C1179 1.358 . S
C1181 H1223 0.930 . S
C1182 C1183 1.348 . S
C1182 C1184 1.356 . S
C1182 O1207 1.325 . S
C1183 C1182 1.348 . S
C1183 C1185 1.353 . S
C1183 H1224 0.929 . S
C1184 C1182 1.356 . S
C1184 C1186 1.358 . S
C1184 H1225 0.930 . S
C1185 C1183 1.353 . S
C1185 N1187 1.314 . S
C1185 H1226 0.930 . S
C1186 C1184 1.358 . S
C1186 N1187 1.279 . S
C1186 H1227 0.930 . S
N1187 C1185 1.314 . S
N1187 C1186 1.279 . S
C1188 C1190 1.353 . S
C1188 N1191 1.314 . S
C1188 H1194 0.930 . S
C1189 N1191 1.279 . S
C1189 C1192 1.358 . S
C1189 H1195 0.930 . S
C1190 C1188 1.353 . S
C1190 C1193 1.348 . S
C1190 H1228 0.929 . S
N1191 Li1146 1.990 . S
N1191 C1188 1.314 . S
N1191 C1189 1.279 . S
C1192 C1189 1.358 . S
C1192 C1193 1.356 . S
C1192 H1229 0.930 . S
C1193 C1190 1.348 . S
C1193 C1192 1.356 . S
H1194 C1188 0.930 . S
H1195 C1189 0.930 . S
C1196 N1197 1.314 . S
C1196 C1198 1.353 . S
C1196 H1202 0.930 . S
N1197 Li1147 1.990 . S
N1197 C1196 1.314 . S
N1197 C1200 1.279 . S
C1198 C1196 1.353 . S
C1198 C1201 1.348 . S
C1198 H1230 0.929 . S
C1199 C1200 1.358 . S
C1199 C1201 1.356 . S
C1199 H1231 0.930 . S
C1200 N1197 1.279 . S
C1200 C1199 1.358 . S
C1200 H1203 0.930 . S
C1201 C1198 1.348 . S
C1201 C1199 1.356 . S
H1202 C1196 0.930 . S
H1203 C1200 0.930 . S
O1204 Li1144 1.956 . S
O1204 Li1145 1.970 . S
O1204 Li1146 1.961 . S
O1204 C1148 1.325 . S
O1205 Li1144 1.970 . S
O1205 Li1145 1.956 . S
O1205 Li1147 1.961 . S
O1205 C1154 1.325 . S
O1206 Li1144 1.961 . S
O1206 Li1146 1.956 . S
O1206 Li1147 1.970 . S
O1206 C1176 1.325 . S
O1207 Li1145 1.961 . S
O1207 Li1146 1.970 . S
O1207 Li1147 1.956 . S
O1207 C1182 1.325 . S
H1208 C1150 0.929 . S
H1209 C1151 0.930 . S
H1210 C1152 0.930 . S
H1211 C1153 0.930 . S
H1212 C1155 0.930 . S
H1213 C1157 0.929 . S
H1214 C1158 0.930 . S
H1215 C1159 0.930 . S
H1216 C1162 0.930 . S
H1217 C1165 0.929 . S
H1218 C1170 0.929 . S
H1219 C1171 0.930 . S
H1220 C1178 0.929 . S
H1221 C1179 0.930 . S
H1222 C1180 0.930 . S
H1223 C1181 0.930 . S
H1224 C1183 0.929 . S
H1225 C1184 0.930 . S
H1226 C1185 0.930 . S
H1227 C1186 0.930 . S
H1228 C1190 0.929 . S
H1229 C1192 0.930 . S
H1230 C1198 0.929 . S
H1231 C1199 0.930 . S
Li1232 N1249 1.990 . S
Li1232 O1292 1.956 . S
Li1232 O1293 1.970 . S
Li1232 O1294 1.961 . S
Li1233 N1257 1.990 . S
Li1233 O1292 1.970 . S
Li1233 O1293 1.956 . S
Li1233 O1295 1.961 . S
Li1234 N1279 1.990 . S
Li1234 O1292 1.961 . S
Li1234 O1294 1.956 . S
Li1234 O1295 1.970 . S
Li1235 N1285 1.990 . S
Li1235 O1293 1.961 . S
Li1235 O1294 1.970 . S
Li1235 O1295 1.956 . S
C1236 C1238 1.348 . S
C1236 C1239 1.356 . S
C1236 O1292 1.325 . S
N1237 C1240 1.314 . S
N1237 C1241 1.279 . S
C1238 C1236 1.348 . S
C1238 C1240 1.353 . S
C1238 H1296 0.929 . S
C1239 C1236 1.356 . S
C1239 C1241 1.358 . S
C1239 H1297 0.930 . S
C1240 N1237 1.314 . S
C1240 C1238 1.353 . S
C1240 H1298 0.930 . S
C1241 N1237 1.279 . S
C1241 C1239 1.358 . S
C1241 H1299 0.930 . S
C1242 C1245 1.348 . S
C1242 C1246 1.356 . S
C1242 O1293 1.325 . S
C1243 N1244 1.279 . S
C1243 C1246 1.358 . S
C1243 H1300 0.930 . S
N1244 C1243 1.279 . S
N1244 C1247 1.314 . S
C1245 C1242 1.348 . S
C1245 C1247 1.353 . S
C1245 H1301 0.929 . S
C1246 C1242 1.356 . S
C1246 C1243 1.358 . S
C1246 H1302 0.930 . S
C1247 N1244 1.314 . S
C1247 C1245 1.353 . S
C1247 H1303 0.930 . S
C1248 N1249 1.314 . S
C1248 C1253 1.353 . S
C1248 H1254 0.930 . S
N1249 Li1232 1.990 . S
N1249 C1248 1.314 . S
N1249 C1251 1.279 . S
C1250 C1251 1.358 . S
C1250 C1252 1.356 . S
C1250 H1304 0.930 . S
C1251 N1249 1.279 . S
C1251 C1250 1.358 . S
C1251 H1255 0.930 . S
C1252 C1250 1.356 . S
C1252 C1253 1.348 . S
C1253 C1248 1.353 . S
C1253 C1252 1.348 . S
C1253 H1305 0.929 . S
H1254 C1248 0.930 . S
H1255 C1251 0.930 . S
C1256 N1257 1.314 . S
C1256 C1258 1.353 . S
C1256 H1262 0.930 . S
N1257 Li1233 1.990 . S
N1257 C1256 1.314 . S
N1257 C1260 1.279 . S
C1258 C1256 1.353 . S
C1258 C1261 1.348 . S
C1258 H1306 0.929 . S
C1259 C1260 1.358 . S
C1259 C1261 1.356 . S
C1259 H1307 0.930 . S
C1260 N1257 1.279 . S
C1260 C1259 1.358 . S
C1260 H1263 0.930 . S
C1261 C1258 1.348 . S
C1261 C1259 1.356 . S
H1262 C1256 0.930 . S
H1263 C1260 0.930 . S
C1264 C1266 1.348 . S
C1264 C1267 1.356 . S
C1264 O1294 1.325 . S
N1265 C1268 1.314 . S
N1265 C1269 1.279 . S
C1266 C1264 1.348 . S
C1266 C1268 1.353 . S
C1266 H1308 0.929 . S
C1267 C1264 1.356 . S
C1267 C1269 1.358 . S
C1267 H1309 0.930 . S
C1268 N1265 1.314 . S
C1268 C1266 1.353 . S
C1268 H1310 0.930 . S
C1269 N1265 1.279 . S
C1269 C1267 1.358 . S
C1269 H1311 0.930 . S
C1270 C1271 1.348 . S
C1270 C1272 1.356 . S
C1270 O1295 1.325 . S
C1271 C1270 1.348 . S
C1271 C1273 1.353 . S
C1271 H1312 0.929 . S
C1272 C1270 1.356 . S
C1272 C1274 1.358 . S
C1272 H1313 0.930 . S
C1273 C1271 1.353 . S
C1273 N1275 1.314 . S
C1273 H1314 0.930 . S
C1274 C1272 1.358 . S
C1274 N1275 1.279 . S
C1274 H1315 0.930 . S
N1275 C1273 1.314 . S
N1275 C1274 1.279 . S
C1276 C1278 1.353 . S
C1276 N1279 1.314 . S
C1276 H1282 0.930 . S
C1277 N1279 1.279 . S
C1277 C1280 1.358 . S
C1277 H1283 0.930 . S
C1278 C1276 1.353 . S
C1278 C1281 1.348 . S
C1278 H1316 0.929 . S
N1279 Li1234 1.990 . S
N1279 C1276 1.314 . S
N1279 C1277 1.279 . S
C1280 C1277 1.358 . S
C1280 C1281 1.356 . S
C1280 H1317 0.930 . S
C1281 C1278 1.348 . S
C1281 C1280 1.356 . S
H1282 C1276 0.930 . S
H1283 C1277 0.930 . S
C1284 N1285 1.314 . S
C1284 C1286 1.353 . S
C1284 H1290 0.930 . S
N1285 Li1235 1.990 . S
N1285 C1284 1.314 . S
N1285 C1288 1.279 . S
C1286 C1284 1.353 . S
C1286 C1289 1.348 . S
C1286 H1318 0.929 . S
C1287 C1288 1.358 . S
C1287 C1289 1.356 . S
C1287 H1319 0.930 . S
C1288 N1285 1.279 . S
C1288 C1287 1.358 . S
C1288 H1291 0.930 . S
C1289 C1286 1.348 . S
C1289 C1287 1.356 . S
H1290 C1284 0.930 . S
H1291 C1288 0.930 . S
O1292 Li1232 1.956 . S
O1292 Li1233 1.970 . S
O1292 Li1234 1.961 . S
O1292 C1236 1.325 . S
O1293 Li1232 1.970 . S
O1293 Li1233 1.956 . S
O1293 Li1235 1.961 . S
O1293 C1242 1.325 . S
O1294 Li1232 1.961 . S
O1294 Li1234 1.956 . S
O1294 Li1235 1.970 . S
O1294 C1264 1.325 . S
O1295 Li1233 1.961 . S
O1295 Li1234 1.970 . S
O1295 Li1235 1.956 . S
O1295 C1270 1.325 . S
H1296 C1238 0.929 . S
H1297 C1239 0.930 . S
H1298 C1240 0.930 . S
H1299 C1241 0.930 . S
H1300 C1243 0.930 . S
H1301 C1245 0.929 . S
H1302 C1246 0.930 . S
H1303 C1247 0.930 . S
H1304 C1250 0.930 . S
H1305 C1253 0.929 . S
H1306 C1258 0.929 . S
H1307 C1259 0.930 . S
H1308 C1266 0.929 . S
H1309 C1267 0.930 . S
H1310 C1268 0.930 . S
H1311 C1269 0.930 . S
H1312 C1271 0.929 . S
H1313 C1272 0.930 . S
H1314 C1273 0.930 . S
H1315 C1274 0.930 . S
H1316 C1278 0.929 . S
H1317 C1280 0.930 . S
H1318 C1286 0.929 . S
H1319 C1287 0.930 . S
Li1320 N1337 1.990 . S
Li1320 O1380 1.956 . S
Li1320 O1381 1.970 . S
Li1320 O1382 1.961 . S
Li1321 N1345 1.990 . S
Li1321 O1380 1.970 . S
Li1321 O1381 1.956 . S
Li1321 O1383 1.961 . S
Li1322 N1367 1.990 . S
Li1322 O1380 1.961 . S
Li1322 O1382 1.956 . S
Li1322 O1383 1.970 . S
Li1323 N1373 1.990 . S
Li1323 O1381 1.961 . S
Li1323 O1382 1.970 . S
Li1323 O1383 1.956 . S
C1324 C1326 1.348 . S
C1324 C1327 1.356 . S
C1324 O1380 1.325 . S
N1325 C1328 1.314 . S
N1325 C1329 1.279 . S
C1326 C1324 1.348 . S
C1326 C1328 1.353 . S
C1326 H1384 0.929 . S
C1327 C1324 1.356 . S
C1327 C1329 1.358 . S
C1327 H1385 0.930 . S
C1328 N1325 1.314 . S
C1328 C1326 1.353 . S
C1328 H1386 0.930 . S
C1329 N1325 1.279 . S
C1329 C1327 1.358 . S
C1329 H1387 0.930 . S
C1330 C1333 1.348 . S
C1330 C1334 1.356 . S
C1330 O1381 1.325 . S
C1331 N1332 1.279 . S
C1331 C1334 1.358 . S
C1331 H1388 0.930 . S
N1332 C1331 1.279 . S
N1332 C1335 1.314 . S
C1333 C1330 1.348 . S
C1333 C1335 1.353 . S
C1333 H1389 0.929 . S
C1334 C1330 1.356 . S
C1334 C1331 1.358 . S
C1334 H1390 0.930 . S
C1335 N1332 1.314 . S
C1335 C1333 1.353 . S
C1335 H1391 0.930 . S
C1336 N1337 1.314 . S
C1336 C1341 1.353 . S
C1336 H1342 0.930 . S
N1337 Li1320 1.990 . S
N1337 C1336 1.314 . S
N1337 C1339 1.279 . S
C1338 C1339 1.358 . S
C1338 C1340 1.356 . S
C1338 H1392 0.930 . S
C1339 N1337 1.279 . S
C1339 C1338 1.358 . S
C1339 H1343 0.930 . S
C1340 C1338 1.356 . S
C1340 C1341 1.348 . S
C1341 C1336 1.353 . S
C1341 C1340 1.348 . S
C1341 H1393 0.929 . S
H1342 C1336 0.930 . S
H1343 C1339 0.930 . S
C1344 N1345 1.314 . S
C1344 C1346 1.353 . S
C1344 H1350 0.930 . S
N1345 Li1321 1.990 . S
N1345 C1344 1.314 . S
N1345 C1348 1.279 . S
C1346 C1344 1.353 . S
C1346 C1349 1.348 . S
C1346 H1394 0.929 . S
C1347 C1348 1.358 . S
C1347 C1349 1.356 . S
C1347 H1395 0.930 . S
C1348 N1345 1.279 . S
C1348 C1347 1.358 . S
C1348 H1351 0.930 . S
C1349 C1346 1.348 . S
C1349 C1347 1.356 . S
H1350 C1344 0.930 . S
H1351 C1348 0.930 . S
C1352 C1354 1.348 . S
C1352 C1355 1.356 . S
C1352 O1382 1.325 . S
N1353 C1356 1.314 . S
N1353 C1357 1.279 . S
C1354 C1352 1.348 . S
C1354 C1356 1.353 . S
C1354 H1396 0.929 . S
C1355 C1352 1.356 . S
C1355 C1357 1.358 . S
C1355 H1397 0.930 . S
C1356 N1353 1.314 . S
C1356 C1354 1.353 . S
C1356 H1398 0.930 . S
C1357 N1353 1.279 . S
C1357 C1355 1.358 . S
C1357 H1399 0.930 . S
C1358 C1359 1.348 . S
C1358 C1360 1.356 . S
C1358 O1383 1.325 . S
C1359 C1358 1.348 . S
C1359 C1361 1.353 . S
C1359 H1400 0.929 . S
C1360 C1358 1.356 . S
C1360 C1362 1.358 . S
C1360 H1401 0.930 . S
C1361 C1359 1.353 . S
C1361 N1363 1.314 . S
C1361 H1402 0.930 . S
C1362 C1360 1.358 . S
C1362 N1363 1.279 . S
C1362 H1403 0.930 . S
N1363 C1361 1.314 . S
N1363 C1362 1.279 . S
C1364 C1366 1.353 . S
C1364 N1367 1.314 . S
C1364 H1370 0.930 . S
C1365 N1367 1.279 . S
C1365 C1368 1.358 . S
C1365 H1371 0.930 . S
C1366 C1364 1.353 . S
C1366 C1369 1.348 . S
C1366 H1404 0.929 . S
N1367 Li1322 1.990 . S
N1367 C1364 1.314 . S
N1367 C1365 1.279 . S
C1368 C1365 1.358 . S
C1368 C1369 1.356 . S
C1368 H1405 0.930 . S
C1369 C1366 1.348 . S
C1369 C1368 1.356 . S
H1370 C1364 0.930 . S
H1371 C1365 0.930 . S
C1372 N1373 1.314 . S
C1372 C1374 1.353 . S
C1372 H1378 0.930 . S
N1373 Li1323 1.990 . S
N1373 C1372 1.314 . S
N1373 C1376 1.279 . S
C1374 C1372 1.353 . S
C1374 C1377 1.348 . S
C1374 H1406 0.929 . S
C1375 C1376 1.358 . S
C1375 C1377 1.356 . S
C1375 H1407 0.930 . S
C1376 N1373 1.279 . S
C1376 C1375 1.358 . S
C1376 H1379 0.930 . S
C1377 C1374 1.348 . S
C1377 C1375 1.356 . S
H1378 C1372 0.930 . S
H1379 C1376 0.930 . S
O1380 Li1320 1.956 . S
O1380 Li1321 1.970 . S
O1380 Li1322 1.961 . S
O1380 C1324 1.325 . S
O1381 Li1320 1.970 . S
O1381 Li1321 1.956 . S
O1381 Li1323 1.961 . S
O1381 C1330 1.325 . S
O1382 Li1320 1.961 . S
O1382 Li1322 1.956 . S
O1382 Li1323 1.970 . S
O1382 C1352 1.325 . S
O1383 Li1321 1.961 . S
O1383 Li1322 1.970 . S
O1383 Li1323 1.956 . S
O1383 C1358 1.325 . S
H1384 C1326 0.929 . S
H1385 C1327 0.930 . S
H1386 C1328 0.930 . S
H1387 C1329 0.930 . S
H1388 C1331 0.930 . S
H1389 C1333 0.929 . S
H1390 C1334 0.930 . S
H1391 C1335 0.930 . S
H1392 C1338 0.930 . S
H1393 C1341 0.929 . S
H1394 C1346 0.929 . S
H1395 C1347 0.930 . S
H1396 C1354 0.929 . S
H1397 C1355 0.930 . S
H1398 C1356 0.930 . S
H1399 C1357 0.930 . S
H1400 C1359 0.929 . S
H1401 C1360 0.930 . S
H1402 C1361 0.930 . S
H1403 C1362 0.930 . S
H1404 C1366 0.929 . S
H1405 C1368 0.930 . S
H1406 C1374 0.929 . S
H1407 C1375 0.930 . S
H1408 C1416 0.929 . S
H1409 C1418 0.930 . S
H1410 C1420 0.930 . S
H1411 C1423 0.929 . S
H1412 C1426 0.930 . S
H1413 C1428 0.960 . S
H1414 C1428 0.960 . S
H1415 C1428 0.960 . S
C1416 H1408 0.929 . S
C1416 C1417 1.377 . S
C1416 C1418 1.384 . S
C1417 C1416 1.377 . S
C1417 C1423 1.390 . S
C1418 H1409 0.930 . S
C1418 C1416 1.384 . S
C1418 C1419 1.372 . S
C1419 C1418 1.372 . S
C1419 C1420 1.400 . S
C1419 C1424 1.490 . S
C1420 H1410 0.930 . S
C1420 C1419 1.400 . S
C1420 C1423 1.386 . S
H1421 C1437 0.930 . S
H1422 C1438 0.931 . S
C1423 H1411 0.929 . S
C1423 C1417 1.390 . S
C1423 C1420 1.386 . S
C1424 C1419 1.490 . S
C1424 C1426 1.395 . S
C1424 C1427 1.403 . S
H1425 C1431 0.930 . S
C1426 H1412 0.930 . S
C1426 C1424 1.395 . S
C1426 C1429 1.403 . S
C1427 C1424 1.403 . S
C1427 C1428 1.524 . S
C1427 C1431 1.400 . S
C1428 H1413 0.960 . S
C1428 H1414 0.960 . S
C1428 H1415 0.960 . S
C1428 C1427 1.524 . S
C1429 C1426 1.403 . S
C1429 C1430 1.392 . S
C1429 C1433 1.495 . S
C1430 C1429 1.392 . S
C1430 C1431 1.385 . S
C1430 C1432 1.478 . S
C1431 H1425 0.930 . S
C1431 C1427 1.400 . S
C1431 C1430 1.385 . S
C1432 C1430 1.478 . S
C1432 C1434 1.381 . S
C1432 C1438 1.383 . S
C1433 C1429 1.495 . S
C1433 H1439 0.959 . S
C1433 H1440 0.961 . S
C1433 H1441 0.960 . S
C1434 C1432 1.381 . S
C1434 C1435 1.394 . S
C1434 H1442 0.930 . S
C1435 C1434 1.394 . S
C1435 C1436 1.383 . S
C1435 H1443 0.929 . S
C1436 C1435 1.383 . S
C1436 C1437 1.377 . S
C1437 H1421 0.930 . S
C1437 C1436 1.377 . S
C1437 C1438 1.379 . S
C1438 H1422 0.931 . S
C1438 C1432 1.383 . S
C1438 C1437 1.379 . S
H1439 C1433 0.959 . S
H1440 C1433 0.961 . S
H1441 C1433 0.960 . S
H1442 C1434 0.930 . S
H1443 C1435 0.929 . S
H1444 C1452 0.929 . S
H1445 C1454 0.930 . S
H1446 C1456 0.930 . S
H1447 C1459 0.929 . S
H1448 C1462 0.930 . S
H1449 C1464 0.960 . S
H1450 C1464 0.960 . S
H1451 C1464 0.960 . S
C1452 H1444 0.929 . S
C1452 C1453 1.377 . S
C1452 C1454 1.384 . S
C1453 C1452 1.377 . S
C1453 C1459 1.390 . S
C1454 H1445 0.930 . S
C1454 C1452 1.384 . S
C1454 C1455 1.372 . S
C1455 C1454 1.372 . S
C1455 C1456 1.400 . S
C1455 C1460 1.490 . S
C1456 H1446 0.930 . S
C1456 C1455 1.400 . S
C1456 C1459 1.386 . S
H1457 C1473 0.930 . S
H1458 C1474 0.931 . S
C1459 H1447 0.929 . S
C1459 C1453 1.390 . S
C1459 C1456 1.386 . S
C1460 C1455 1.490 . S
C1460 C1462 1.395 . S
C1460 C1463 1.403 . S
H1461 C1467 0.930 . S
C1462 H1448 0.930 . S
C1462 C1460 1.395 . S
C1462 C1465 1.403 . S
C1463 C1460 1.403 . S
C1463 C1464 1.524 . S
C1463 C1467 1.400 . S
C1464 H1449 0.960 . S
C1464 H1450 0.960 . S
C1464 H1451 0.960 . S
C1464 C1463 1.524 . S
C1465 C1462 1.403 . S
C1465 C1466 1.392 . S
C1465 C1469 1.495 . S
C1466 C1465 1.392 . S
C1466 C1467 1.385 . S
C1466 C1468 1.478 . S
C1467 H1461 0.930 . S
C1467 C1463 1.400 . S
C1467 C1466 1.385 . S
C1468 C1466 1.478 . S
C1468 C1470 1.381 . S
C1468 C1474 1.383 . S
C1469 C1465 1.495 . S
C1469 H1475 0.959 . S
C1469 H1476 0.961 . S
C1469 H1477 0.960 . S
C1470 C1468 1.381 . S
C1470 C1471 1.394 . S
C1470 H1478 0.930 . S
C1471 C1470 1.394 . S
C1471 C1472 1.383 . S
C1471 H1479 0.929 . S
C1472 C1471 1.383 . S
C1472 C1473 1.377 . S
C1473 H1457 0.930 . S
C1473 C1472 1.377 . S
C1473 C1474 1.379 . S
C1474 H1458 0.931 . S
C1474 C1468 1.383 . S
C1474 C1473 1.379 . S
H1475 C1469 0.959 . S
H1476 C1469 0.961 . S
H1477 C1469 0.960 . S
H1478 C1470 0.930 . S
H1479 C1471 0.929 . S
H1480 C1488 0.929 . S
H1481 C1490 0.930 . S
H1482 C1492 0.930 . S
H1483 C1495 0.929 . S
H1484 C1498 0.930 . S
H1485 C1500 0.960 . S
H1486 C1500 0.960 . S
H1487 C1500 0.960 . S
C1488 H1480 0.929 . S
C1488 C1489 1.377 . S
C1488 C1490 1.384 . S
C1489 C1488 1.377 . S
C1489 C1495 1.390 . S
C1490 H1481 0.930 . S
C1490 C1488 1.384 . S
C1490 C1491 1.372 . S
C1491 C1490 1.372 . S
C1491 C1492 1.400 . S
C1491 C1496 1.490 . S
C1492 H1482 0.930 . S
C1492 C1491 1.400 . S
C1492 C1495 1.386 . S
H1493 C1509 0.930 . S
H1494 C1510 0.931 . S
C1495 H1483 0.929 . S
C1495 C1489 1.390 . S
C1495 C1492 1.386 . S
C1496 C1491 1.490 . S
C1496 C1498 1.395 . S
C1496 C1499 1.403 . S
H1497 C1503 0.930 . S
C1498 H1484 0.930 . S
C1498 C1496 1.395 . S
C1498 C1501 1.403 . S
C1499 C1496 1.403 . S
C1499 C1500 1.524 . S
C1499 C1503 1.400 . S
C1500 H1485 0.960 . S
C1500 H1486 0.960 . S
C1500 H1487 0.960 . S
C1500 C1499 1.524 . S
C1501 C1498 1.403 . S
C1501 C1502 1.392 . S
C1501 C1505 1.495 . S
C1502 C1501 1.392 . S
C1502 C1503 1.385 . S
C1502 C1504 1.478 . S
C1503 H1497 0.930 . S
C1503 C1499 1.400 . S
C1503 C1502 1.385 . S
C1504 C1502 1.478 . S
C1504 C1506 1.381 . S
C1504 C1510 1.383 . S
C1505 C1501 1.495 . S
C1505 H1511 0.959 . S
C1505 H1512 0.961 . S
C1505 H1513 0.960 . S
C1506 C1504 1.381 . S
C1506 C1507 1.394 . S
C1506 H1514 0.930 . S
C1507 C1506 1.394 . S
C1507 C1508 1.383 . S
C1507 H1515 0.929 . S
C1508 C1507 1.383 . S
C1508 C1509 1.377 . S
C1509 H1493 0.930 . S
C1509 C1508 1.377 . S
C1509 C1510 1.379 . S
C1510 H1494 0.931 . S
C1510 C1504 1.383 . S
C1510 C1509 1.379 . S
H1511 C1505 0.959 . S
H1512 C1505 0.961 . S
H1513 C1505 0.960 . S
H1514 C1506 0.930 . S
H1515 C1507 0.929 . S
H1516 C1524 0.929 . S
H1517 C1526 0.930 . S
H1518 C1528 0.930 . S
H1519 C1531 0.929 . S
H1520 C1534 0.930 . S
H1521 C1536 0.960 . S
H1522 C1536 0.960 . S
H1523 C1536 0.960 . S
C1524 H1516 0.929 . S
C1524 C1525 1.377 . S
C1524 C1526 1.384 . S
C1525 C1524 1.377 . S
C1525 C1531 1.390 . S
C1526 H1517 0.930 . S
C1526 C1524 1.384 . S
C1526 C1527 1.372 . S
C1527 C1526 1.372 . S
C1527 C1528 1.400 . S
C1527 C1532 1.490 . S
C1528 H1518 0.930 . S
C1528 C1527 1.400 . S
C1528 C1531 1.386 . S
H1529 C1545 0.930 . S
H1530 C1546 0.931 . S
C1531 H1519 0.929 . S
C1531 C1525 1.390 . S
C1531 C1528 1.386 . S
C1532 C1527 1.490 . S
C1532 C1534 1.395 . S
C1532 C1535 1.403 . S
H1533 C1539 0.930 . S
C1534 H1520 0.930 . S
C1534 C1532 1.395 . S
C1534 C1537 1.403 . S
C1535 C1532 1.403 . S
C1535 C1536 1.524 . S
C1535 C1539 1.400 . S
C1536 H1521 0.960 . S
C1536 H1522 0.960 . S
C1536 H1523 0.960 . S
C1536 C1535 1.524 . S
C1537 C1534 1.403 . S
C1537 C1538 1.392 . S
C1537 C1541 1.495 . S
C1538 C1537 1.392 . S
C1538 C1539 1.385 . S
C1538 C1540 1.478 . S
C1539 H1533 0.930 . S
C1539 C1535 1.400 . S
C1539 C1538 1.385 . S
C1540 C1538 1.478 . S
C1540 C1542 1.381 . S
C1540 C1546 1.383 . S
C1541 C1537 1.495 . S
C1541 H1547 0.959 . S
C1541 H1548 0.961 . S
C1541 H1549 0.960 . S
C1542 C1540 1.381 . S
C1542 C1543 1.394 . S
C1542 H1550 0.930 . S
C1543 C1542 1.394 . S
C1543 C1544 1.383 . S
C1543 H1551 0.929 . S
C1544 C1543 1.383 . S
C1544 C1545 1.377 . S
C1545 H1529 0.930 . S
C1545 C1544 1.377 . S
C1545 C1546 1.379 . S
C1546 H1530 0.931 . S
C1546 C1540 1.383 . S
C1546 C1545 1.379 . S
H1547 C1541 0.959 . S
H1548 C1541 0.961 . S
H1549 C1541 0.960 . S
H1550 C1542 0.930 . S
H1551 C1543 0.929 . S
H1552 C1560 0.929 . S
H1553 C1562 0.930 . S
H1554 C1564 0.930 . S
H1555 C1567 0.929 . S
H1556 C1570 0.930 . S
H1557 C1572 0.960 . S
H1558 C1572 0.960 . S
H1559 C1572 0.960 . S
C1560 H1552 0.929 . S
C1560 C1561 1.377 . S
C1560 C1562 1.384 . S
C1561 C1560 1.377 . S
C1561 C1567 1.390 . S
C1562 H1553 0.930 . S
C1562 C1560 1.384 . S
C1562 C1563 1.372 . S
C1563 C1562 1.372 . S
C1563 C1564 1.400 . S
C1563 C1568 1.490 . S
C1564 H1554 0.930 . S
C1564 C1563 1.400 . S
C1564 C1567 1.386 . S
H1565 C1581 0.930 . S
H1566 C1582 0.931 . S
C1567 H1555 0.929 . S
C1567 C1561 1.390 . S
C1567 C1564 1.386 . S
C1568 C1563 1.490 . S
C1568 C1570 1.395 . S
C1568 C1571 1.403 . S
H1569 C1575 0.930 . S
C1570 H1556 0.930 . S
C1570 C1568 1.395 . S
C1570 C1573 1.403 . S
C1571 C1568 1.403 . S
C1571 C1572 1.524 . S
C1571 C1575 1.400 . S
C1572 H1557 0.960 . S
C1572 H1558 0.960 . S
C1572 H1559 0.960 . S
C1572 C1571 1.524 . S
C1573 C1570 1.403 . S
C1573 C1574 1.392 . S
C1573 C1577 1.495 . S
C1574 C1573 1.392 . S
C1574 C1575 1.385 . S
C1574 C1576 1.478 . S
C1575 H1569 0.930 . S
C1575 C1571 1.400 . S
C1575 C1574 1.385 . S
C1576 C1574 1.478 . S
C1576 C1578 1.381 . S
C1576 C1582 1.383 . S
C1577 C1573 1.495 . S
C1577 H1583 0.959 . S
C1577 H1584 0.961 . S
C1577 H1585 0.960 . S
C1578 C1576 1.381 . S
C1578 C1579 1.394 . S
C1578 H1586 0.930 . S
C1579 C1578 1.394 . S
C1579 C1580 1.383 . S
C1579 H1587 0.929 . S
C1580 C1579 1.383 . S
C1580 C1581 1.377 . S
C1581 H1565 0.930 . S
C1581 C1580 1.377 . S
C1581 C1582 1.379 . S
C1582 H1566 0.931 . S
C1582 C1576 1.383 . S
C1582 C1581 1.379 . S
H1583 C1577 0.959 . S
H1584 C1577 0.961 . S
H1585 C1577 0.960 . S
H1586 C1578 0.930 . S
H1587 C1579 0.929 . S
H1588 C1596 0.929 . S
H1589 C1598 0.930 . S
H1590 C1600 0.930 . S
H1591 C1603 0.929 . S
H1592 C1606 0.930 . S
H1593 C1608 0.960 . S
H1594 C1608 0.960 . S
H1595 C1608 0.960 . S
C1596 H1588 0.929 . S
C1596 C1597 1.377 . S
C1596 C1598 1.384 . S
C1597 C1596 1.377 . S
C1597 C1603 1.390 . S
C1598 H1589 0.930 . S
C1598 C1596 1.384 . S
C1598 C1599 1.372 . S
C1599 C1598 1.372 . S
C1599 C1600 1.400 . S
C1599 C1604 1.490 . S
C1600 H1590 0.930 . S
C1600 C1599 1.400 . S
C1600 C1603 1.386 . S
H1601 C1617 0.930 . S
H1602 C1618 0.931 . S
C1603 H1591 0.929 . S
C1603 C1597 1.390 . S
C1603 C1600 1.386 . S
C1604 C1599 1.490 . S
C1604 C1606 1.395 . S
C1604 C1607 1.403 . S
H1605 C1611 0.930 . S
C1606 H1592 0.930 . S
C1606 C1604 1.395 . S
C1606 C1609 1.403 . S
C1607 C1604 1.403 . S
C1607 C1608 1.524 . S
C1607 C1611 1.400 . S
C1608 H1593 0.960 . S
C1608 H1594 0.960 . S
C1608 H1595 0.960 . S
C1608 C1607 1.524 . S
C1609 C1606 1.403 . S
C1609 C1610 1.392 . S
C1609 C1613 1.495 . S
C1610 C1609 1.392 . S
C1610 C1611 1.385 . S
C1610 C1612 1.478 . S
C1611 H1605 0.930 . S
C1611 C1607 1.400 . S
C1611 C1610 1.385 . S
C1612 C1610 1.478 . S
C1612 C1614 1.381 . S
C1612 C1618 1.383 . S
C1613 C1609 1.495 . S
C1613 H1619 0.959 . S
C1613 H1620 0.961 . S
C1613 H1621 0.960 . S
C1614 C1612 1.381 . S
C1614 C1615 1.394 . S
C1614 H1622 0.930 . S
C1615 C1614 1.394 . S
C1615 C1616 1.383 . S
C1615 H1623 0.929 . S
C1616 C1615 1.383 . S
C1616 C1617 1.377 . S
C1617 H1601 0.930 . S
C1617 C1616 1.377 . S
C1617 C1618 1.379 . S
C1618 H1602 0.931 . S
C1618 C1612 1.383 . S
C1618 C1617 1.379 . S
H1619 C1613 0.959 . S
H1620 C1613 0.961 . S
H1621 C1613 0.960 . S
H1622 C1614 0.930 . S
H1623 C1615 0.929 . S
H1624 C1632 0.929 . S
H1625 C1634 0.930 . S
H1626 C1636 0.930 . S
H1627 C1639 0.929 . S
H1628 C1642 0.930 . S
H1629 C1644 0.960 . S
H1630 C1644 0.960 . S
H1631 C1644 0.960 . S
C1632 H1624 0.929 . S
C1632 C1633 1.377 . S
C1632 C1634 1.384 . S
C1633 C1632 1.377 . S
C1633 C1639 1.390 . S
C1634 H1625 0.930 . S
C1634 C1632 1.384 . S
C1634 C1635 1.372 . S
C1635 C1634 1.372 . S
C1635 C1636 1.400 . S
C1635 C1640 1.490 . S
C1636 H1626 0.930 . S
C1636 C1635 1.400 . S
C1636 C1639 1.386 . S
H1637 C1653 0.930 . S
H1638 C1654 0.931 . S
C1639 H1627 0.929 . S
C1639 C1633 1.390 . S
C1639 C1636 1.386 . S
C1640 C1635 1.490 . S
C1640 C1642 1.395 . S
C1640 C1643 1.403 . S
H1641 C1647 0.930 . S
C1642 H1628 0.930 . S
C1642 C1640 1.395 . S
C1642 C1645 1.403 . S
C1643 C1640 1.403 . S
C1643 C1644 1.524 . S
C1643 C1647 1.400 . S
C1644 H1629 0.960 . S
C1644 H1630 0.960 . S
C1644 H1631 0.960 . S
C1644 C1643 1.524 . S
C1645 C1642 1.403 . S
C1645 C1646 1.392 . S
C1645 C1649 1.495 . S
C1646 C1645 1.392 . S
C1646 C1647 1.385 . S
C1646 C1648 1.478 . S
C1647 H1641 0.930 . S
C1647 C1643 1.400 . S
C1647 C1646 1.385 . S
C1648 C1646 1.478 . S
C1648 C1650 1.381 . S
C1648 C1654 1.383 . S
C1649 C1645 1.495 . S
C1649 H1655 0.959 . S
C1649 H1656 0.961 . S
C1649 H1657 0.960 . S
C1650 C1648 1.381 . S
C1650 C1651 1.394 . S
C1650 H1658 0.930 . S
C1651 C1650 1.394 . S
C1651 C1652 1.383 . S
C1651 H1659 0.929 . S
C1652 C1651 1.383 . S
C1652 C1653 1.377 . S
C1653 H1637 0.930 . S
C1653 C1652 1.377 . S
C1653 C1654 1.379 . S
C1654 H1638 0.931 . S
C1654 C1648 1.383 . S
C1654 C1653 1.379 . S
H1655 C1649 0.959 . S
H1656 C1649 0.961 . S
H1657 C1649 0.960 . S
H1658 C1650 0.930 . S
H1659 C1651 0.929 . S
H1660 C1668 0.929 . S
H1661 C1670 0.930 . S
H1662 C1672 0.930 . S
H1663 C1675 0.929 . S
H1664 C1678 0.930 . S
H1665 C1680 0.960 . S
H1666 C1680 0.960 . S
H1667 C1680 0.960 . S
C1668 H1660 0.929 . S
C1668 C1669 1.377 . S
C1668 C1670 1.384 . S
C1669 C1668 1.377 . S
C1669 C1675 1.390 . S
C1670 H1661 0.930 . S
C1670 C1668 1.384 . S
C1670 C1671 1.372 . S
C1671 C1670 1.372 . S
C1671 C1672 1.400 . S
C1671 C1676 1.490 . S
C1672 H1662 0.930 . S
C1672 C1671 1.400 . S
C1672 C1675 1.386 . S
H1673 C1689 0.930 . S
H1674 C1690 0.931 . S
C1675 H1663 0.929 . S
C1675 C1669 1.390 . S
C1675 C1672 1.386 . S
C1676 C1671 1.490 . S
C1676 C1678 1.395 . S
C1676 C1679 1.403 . S
H1677 C1683 0.930 . S
C1678 H1664 0.930 . S
C1678 C1676 1.395 . S
C1678 C1681 1.403 . S
C1679 C1676 1.403 . S
C1679 C1680 1.524 . S
C1679 C1683 1.400 . S
C1680 H1665 0.960 . S
C1680 H1666 0.960 . S
C1680 H1667 0.960 . S
C1680 C1679 1.524 . S
C1681 C1678 1.403 . S
C1681 C1682 1.392 . S
C1681 C1685 1.495 . S
C1682 C1681 1.392 . S
C1682 C1683 1.385 . S
C1682 C1684 1.478 . S
C1683 H1677 0.930 . S
C1683 C1679 1.400 . S
C1683 C1682 1.385 . S
C1684 C1682 1.478 . S
C1684 C1686 1.381 . S
C1684 C1690 1.383 . S
C1685 C1681 1.495 . S
C1685 H1691 0.959 . S
C1685 H1692 0.961 . S
C1685 H1693 0.960 . S
C1686 C1684 1.381 . S
C1686 C1687 1.394 . S
C1686 H1694 0.930 . S
C1687 C1686 1.394 . S
C1687 C1688 1.383 . S
C1687 H1695 0.929 . S
C1688 C1687 1.383 . S
C1688 C1689 1.377 . S
C1689 H1673 0.930 . S
C1689 C1688 1.377 . S
C1689 C1690 1.379 . S
C1690 H1674 0.931 . S
C1690 C1684 1.383 . S
C1690 C1689 1.379 . S
H1691 C1685 0.959 . S
H1692 C1685 0.961 . S
H1693 C1685 0.960 . S
H1694 C1686 0.930 . S
H1695 C1687 0.929 . S
H1696 C1704 0.929 . S
H1697 C1706 0.930 . S
H1698 C1708 0.930 . S
H1699 C1711 0.929 . S
H1700 C1714 0.930 . S
H1701 C1716 0.960 . S
H1702 C1716 0.960 . S
H1703 C1716 0.960 . S
C1704 H1696 0.929 . S
C1704 C1705 1.377 . S
C1704 C1706 1.384 . S
C1705 C1704 1.377 . S
C1705 C1711 1.390 . S
C1706 H1697 0.930 . S
C1706 C1704 1.384 . S
C1706 C1707 1.372 . S
C1707 C1706 1.372 . S
C1707 C1708 1.400 . S
C1707 C1712 1.490 . S
C1708 H1698 0.930 . S
C1708 C1707 1.400 . S
C1708 C1711 1.386 . S
H1709 C1725 0.930 . S
H1710 C1726 0.931 . S
C1711 H1699 0.929 . S
C1711 C1705 1.390 . S
C1711 C1708 1.386 . S
C1712 C1707 1.490 . S
C1712 C1714 1.395 . S
C1712 C1715 1.403 . S
H1713 C1719 0.930 . S
C1714 H1700 0.930 . S
C1714 C1712 1.395 . S
C1714 C1717 1.403 . S
C1715 C1712 1.403 . S
C1715 C1716 1.524 . S
C1715 C1719 1.400 . S
C1716 H1701 0.960 . S
C1716 H1702 0.960 . S
C1716 H1703 0.960 . S
C1716 C1715 1.524 . S
C1717 C1714 1.403 . S
C1717 C1718 1.392 . S
C1717 C1721 1.495 . S
C1718 C1717 1.392 . S
C1718 C1719 1.385 . S
C1718 C1720 1.478 . S
C1719 H1713 0.930 . S
C1719 C1715 1.400 . S
C1719 C1718 1.385 . S
C1720 C1718 1.478 . S
C1720 C1722 1.381 . S
C1720 C1726 1.383 . S
C1721 C1717 1.495 . S
C1721 H1727 0.959 . S
C1721 H1728 0.961 . S
C1721 H1729 0.960 . S
C1722 C1720 1.381 . S
C1722 C1723 1.394 . S
C1722 H1730 0.930 . S
C1723 C1722 1.394 . S
C1723 C1724 1.383 . S
C1723 H1731 0.929 . S
C1724 C1723 1.383 . S
C1724 C1725 1.377 . S
C1725 H1709 0.930 . S
C1725 C1724 1.377 . S
C1725 C1726 1.379 . S
C1726 H1710 0.931 . S
C1726 C1720 1.383 . S
C1726 C1725 1.379 . S
H1727 C1721 0.959 . S
H1728 C1721 0.961 . S
H1729 C1721 0.960 . S
H1730 C1722 0.930 . S
H1731 C1723 0.929 . S
H1732 C1740 0.929 . S
H1733 C1742 0.930 . S
H1734 C1744 0.930 . S
H1735 C1747 0.929 . S
H1736 C1750 0.930 . S
H1737 C1752 0.960 . S
H1738 C1752 0.960 . S
H1739 C1752 0.960 . S
C1740 H1732 0.929 . S
C1740 C1741 1.377 . S
C1740 C1742 1.384 . S
C1741 C1740 1.377 . S
C1741 C1747 1.390 . S
C1742 H1733 0.930 . S
C1742 C1740 1.384 . S
C1742 C1743 1.372 . S
C1743 C1742 1.372 . S
C1743 C1744 1.400 . S
C1743 C1748 1.490 . S
C1744 H1734 0.930 . S
C1744 C1743 1.400 . S
C1744 C1747 1.386 . S
H1745 C1761 0.930 . S
H1746 C1762 0.931 . S
C1747 H1735 0.929 . S
C1747 C1741 1.390 . S
C1747 C1744 1.386 . S
C1748 C1743 1.490 . S
C1748 C1750 1.395 . S
C1748 C1751 1.403 . S
H1749 C1755 0.930 . S
C1750 H1736 0.930 . S
C1750 C1748 1.395 . S
C1750 C1753 1.403 . S
C1751 C1748 1.403 . S
C1751 C1752 1.524 . S
C1751 C1755 1.400 . S
C1752 H1737 0.960 . S
C1752 H1738 0.960 . S
C1752 H1739 0.960 . S
C1752 C1751 1.524 . S
C1753 C1750 1.403 . S
C1753 C1754 1.392 . S
C1753 C1757 1.495 . S
C1754 C1753 1.392 . S
C1754 C1755 1.385 . S
C1754 C1756 1.478 . S
C1755 H1749 0.930 . S
C1755 C1751 1.400 . S
C1755 C1754 1.385 . S
C1756 C1754 1.478 . S
C1756 C1758 1.381 . S
C1756 C1762 1.383 . S
C1757 C1753 1.495 . S
C1757 H1763 0.959 . S
C1757 H1764 0.961 . S
C1757 H1765 0.960 . S
C1758 C1756 1.381 . S
C1758 C1759 1.394 . S
C1758 H1766 0.930 . S
C1759 C1758 1.394 . S
C1759 C1760 1.383 . S
C1759 H1767 0.929 . S
C1760 C1759 1.383 . S
C1760 C1761 1.377 . S
C1761 H1745 0.930 . S
C1761 C1760 1.377 . S
C1761 C1762 1.379 . S
C1762 H1746 0.931 . S
C1762 C1756 1.383 . S
C1762 C1761 1.379 . S
H1763 C1757 0.959 . S
H1764 C1757 0.961 . S
H1765 C1757 0.960 . S
H1766 C1758 0.930 . S
H1767 C1759 0.929 . S
H1768 C1776 0.929 . S
H1769 C1778 0.930 . S
H1770 C1780 0.930 . S
H1771 C1783 0.929 . S
H1772 C1786 0.930 . S
H1773 C1788 0.960 . S
H1774 C1788 0.960 . S
H1775 C1788 0.960 . S
C1776 H1768 0.929 . S
C1776 C1777 1.377 . S
C1776 C1778 1.384 . S
C1777 C1776 1.377 . S
C1777 C1783 1.390 . S
C1778 H1769 0.930 . S
C1778 C1776 1.384 . S
C1778 C1779 1.372 . S
C1779 C1778 1.372 . S
C1779 C1780 1.400 . S
C1779 C1784 1.490 . S
C1780 H1770 0.930 . S
C1780 C1779 1.400 . S
C1780 C1783 1.386 . S
H1781 C1797 0.930 . S
H1782 C1798 0.931 . S
C1783 H1771 0.929 . S
C1783 C1777 1.390 . S
C1783 C1780 1.386 . S
C1784 C1779 1.490 . S
C1784 C1786 1.395 . S
C1784 C1787 1.403 . S
H1785 C1791 0.930 . S
C1786 H1772 0.930 . S
C1786 C1784 1.395 . S
C1786 C1789 1.403 . S
C1787 C1784 1.403 . S
C1787 C1788 1.524 . S
C1787 C1791 1.400 . S
C1788 H1773 0.960 . S
C1788 H1774 0.960 . S
C1788 H1775 0.960 . S
C1788 C1787 1.524 . S
C1789 C1786 1.403 . S
C1789 C1790 1.392 . S
C1789 C1793 1.495 . S
C1790 C1789 1.392 . S
C1790 C1791 1.385 . S
C1790 C1792 1.478 . S
C1791 H1785 0.930 . S
C1791 C1787 1.400 . S
C1791 C1790 1.385 . S
C1792 C1790 1.478 . S
C1792 C1794 1.381 . S
C1792 C1798 1.383 . S
C1793 C1789 1.495 . S
C1793 H1799 0.959 . S
C1793 H1800 0.961 . S
C1793 H1801 0.960 . S
C1794 C1792 1.381 . S
C1794 C1795 1.394 . S
C1794 H1802 0.930 . S
C1795 C1794 1.394 . S
C1795 C1796 1.383 . S
C1795 H1803 0.929 . S
C1796 C1795 1.383 . S
C1796 C1797 1.377 . S
C1797 H1781 0.930 . S
C1797 C1796 1.377 . S
C1797 C1798 1.379 . S
C1798 H1782 0.931 . S
C1798 C1792 1.383 . S
C1798 C1797 1.379 . S
H1799 C1793 0.959 . S
H1800 C1793 0.961 . S
H1801 C1793 0.960 . S
H1802 C1794 0.930 . S
H1803 C1795 0.929 . S
H1804 C1812 0.929 . S
H1805 C1814 0.930 . S
H1806 C1816 0.930 . S
H1807 C1819 0.929 . S
H1808 C1822 0.930 . S
H1809 C1824 0.960 . S
H1810 C1824 0.960 . S
H1811 C1824 0.960 . S
C1812 H1804 0.929 . S
C1812 C1813 1.377 . S
C1812 C1814 1.384 . S
C1813 C1812 1.377 . S
C1813 C1819 1.390 . S
C1814 H1805 0.930 . S
C1814 C1812 1.384 . S
C1814 C1815 1.372 . S
C1815 C1814 1.372 . S
C1815 C1816 1.400 . S
C1815 C1820 1.490 . S
C1816 H1806 0.930 . S
C1816 C1815 1.400 . S
C1816 C1819 1.386 . S
H1817 C1833 0.930 . S
H1818 C1834 0.931 . S
C1819 H1807 0.929 . S
C1819 C1813 1.390 . S
C1819 C1816 1.386 . S
C1820 C1815 1.490 . S
C1820 C1822 1.395 . S
C1820 C1823 1.403 . S
H1821 C1827 0.930 . S
C1822 H1808 0.930 . S
C1822 C1820 1.395 . S
C1822 C1825 1.403 . S
C1823 C1820 1.403 . S
C1823 C1824 1.524 . S
C1823 C1827 1.400 . S
C1824 H1809 0.960 . S
C1824 H1810 0.960 . S
C1824 H1811 0.960 . S
C1824 C1823 1.524 . S
C1825 C1822 1.403 . S
C1825 C1826 1.392 . S
C1825 C1829 1.495 . S
C1826 C1825 1.392 . S
C1826 C1827 1.385 . S
C1826 C1828 1.478 . S
C1827 H1821 0.930 . S
C1827 C1823 1.400 . S
C1827 C1826 1.385 . S
C1828 C1826 1.478 . S
C1828 C1830 1.381 . S
C1828 C1834 1.383 . S
C1829 C1825 1.495 . S
C1829 H1835 0.959 . S
C1829 H1836 0.961 . S
C1829 H1837 0.960 . S
C1830 C1828 1.381 . S
C1830 C1831 1.394 . S
C1830 H1838 0.930 . S
C1831 C1830 1.394 . S
C1831 C1832 1.383 . S
C1831 H1839 0.929 . S
C1832 C1831 1.383 . S
C1832 C1833 1.377 . S
C1833 H1817 0.930 . S
C1833 C1832 1.377 . S
C1833 C1834 1.379 . S
C1834 H1818 0.931 . S
C1834 C1828 1.383 . S
C1834 C1833 1.379 . S
H1835 C1829 0.959 . S
H1836 C1829 0.961 . S
H1837 C1829 0.960 . S
H1838 C1830 0.930 . S
H1839 C1831 0.929 . S
H1840 C1848 0.929 . S
H1841 C1850 0.930 . S
H1842 C1852 0.930 . S
H1843 C1855 0.929 . S
H1844 C1858 0.930 . S
H1845 C1860 0.960 . S
H1846 C1860 0.960 . S
H1847 C1860 0.960 . S
C1848 H1840 0.929 . S
C1848 C1849 1.377 . S
C1848 C1850 1.384 . S
C1849 C1848 1.377 . S
C1849 C1855 1.390 . S
C1850 H1841 0.930 . S
C1850 C1848 1.384 . S
C1850 C1851 1.372 . S
C1851 C1850 1.372 . S
C1851 C1852 1.400 . S
C1851 C1856 1.490 . S
C1852 H1842 0.930 . S
C1852 C1851 1.400 . S
C1852 C1855 1.386 . S
H1853 C1869 0.930 . S
H1854 C1870 0.931 . S
C1855 H1843 0.929 . S
C1855 C1849 1.390 . S
C1855 C1852 1.386 . S
C1856 C1851 1.490 . S
C1856 C1858 1.395 . S
C1856 C1859 1.403 . S
H1857 C1863 0.930 . S
C1858 H1844 0.930 . S
C1858 C1856 1.395 . S
C1858 C1861 1.403 . S
C1859 C1856 1.403 . S
C1859 C1860 1.524 . S
C1859 C1863 1.400 . S
C1860 H1845 0.960 . S
C1860 H1846 0.960 . S
C1860 H1847 0.960 . S
C1860 C1859 1.524 . S
C1861 C1858 1.403 . S
C1861 C1862 1.392 . S
C1861 C1865 1.495 . S
C1862 C1861 1.392 . S
C1862 C1863 1.385 . S
C1862 C1864 1.478 . S
C1863 H1857 0.930 . S
C1863 C1859 1.400 . S
C1863 C1862 1.385 . S
C1864 C1862 1.478 . S
C1864 C1866 1.381 . S
C1864 C1870 1.383 . S
C1865 C1861 1.495 . S
C1865 H1871 0.959 . S
C1865 H1872 0.961 . S
C1865 H1873 0.960 . S
C1866 C1864 1.381 . S
C1866 C1867 1.394 . S
C1866 H1874 0.930 . S
C1867 C1866 1.394 . S
C1867 C1868 1.383 . S
C1867 H1875 0.929 . S
C1868 C1867 1.383 . S
C1868 C1869 1.377 . S
C1869 H1853 0.930 . S
C1869 C1868 1.377 . S
C1869 C1870 1.379 . S
C1870 H1854 0.931 . S
C1870 C1864 1.383 . S
C1870 C1869 1.379 . S
H1871 C1865 0.959 . S
H1872 C1865 0.961 . S
H1873 C1865 0.960 . S
H1874 C1866 0.930 . S
H1875 C1867 0.929 . S
H1876 C1884 0.929 . S
H1877 C1886 0.930 . S
H1878 C1888 0.930 . S
H1879 C1891 0.929 . S
H1880 C1894 0.930 . S
H1881 C1896 0.960 . S
H1882 C1896 0.960 . S
H1883 C1896 0.960 . S
C1884 H1876 0.929 . S
C1884 C1885 1.377 . S
C1884 C1886 1.384 . S
C1885 C1884 1.377 . S
C1885 C1891 1.390 . S
C1886 H1877 0.930 . S
C1886 C1884 1.384 . S
C1886 C1887 1.372 . S
C1887 C1886 1.372 . S
C1887 C1888 1.400 . S
C1887 C1892 1.490 . S
C1888 H1878 0.930 . S
C1888 C1887 1.400 . S
C1888 C1891 1.386 . S
H1889 C1905 0.930 . S
H1890 C1906 0.931 . S
C1891 H1879 0.929 . S
C1891 C1885 1.390 . S
C1891 C1888 1.386 . S
C1892 C1887 1.490 . S
C1892 C1894 1.395 . S
C1892 C1895 1.403 . S
H1893 C1899 0.930 . S
C1894 H1880 0.930 . S
C1894 C1892 1.395 . S
C1894 C1897 1.403 . S
C1895 C1892 1.403 . S
C1895 C1896 1.524 . S
C1895 C1899 1.400 . S
C1896 H1881 0.960 . S
C1896 H1882 0.960 . S
C1896 H1883 0.960 . S
C1896 C1895 1.524 . S
C1897 C1894 1.403 . S
C1897 C1898 1.392 . S
C1897 C1901 1.495 . S
C1898 C1897 1.392 . S
C1898 C1899 1.385 . S
C1898 C1900 1.478 . S
C1899 H1893 0.930 . S
C1899 C1895 1.400 . S
C1899 C1898 1.385 . S
C1900 C1898 1.478 . S
C1900 C1902 1.381 . S
C1900 C1906 1.383 . S
C1901 C1897 1.495 . S
C1901 H1907 0.959 . S
C1901 H1908 0.961 . S
C1901 H1909 0.960 . S
C1902 C1900 1.381 . S
C1902 C1903 1.394 . S
C1902 H1910 0.930 . S
C1903 C1902 1.394 . S
C1903 C1904 1.383 . S
C1903 H1911 0.929 . S
C1904 C1903 1.383 . S
C1904 C1905 1.377 . S
C1905 H1889 0.930 . S
C1905 C1904 1.377 . S
C1905 C1906 1.379 . S
C1906 H1890 0.931 . S
C1906 C1900 1.383 . S
C1906 C1905 1.379 . S
H1907 C1901 0.959 . S
H1908 C1901 0.961 . S
H1909 C1901 0.960 . S
H1910 C1902 0.930 . S
H1911 C1903 0.929 . S
H1912 C1920 0.929 . S
H1913 C1922 0.930 . S
H1914 C1924 0.930 . S
H1915 C1927 0.929 . S
H1916 C1930 0.930 . S
H1917 C1932 0.960 . S
H1918 C1932 0.960 . S
H1919 C1932 0.960 . S
C1920 H1912 0.929 . S
C1920 C1921 1.377 . S
C1920 C1922 1.384 . S
C1921 C1920 1.377 . S
C1921 C1927 1.390 . S
C1922 H1913 0.930 . S
C1922 C1920 1.384 . S
C1922 C1923 1.372 . S
C1923 C1922 1.372 . S
C1923 C1924 1.400 . S
C1923 C1928 1.490 . S
C1924 H1914 0.930 . S
C1924 C1923 1.400 . S
C1924 C1927 1.386 . S
H1925 C1941 0.930 . S
H1926 C1942 0.931 . S
C1927 H1915 0.929 . S
C1927 C1921 1.390 . S
C1927 C1924 1.386 . S
C1928 C1923 1.490 . S
C1928 C1930 1.395 . S
C1928 C1931 1.403 . S
H1929 C1935 0.930 . S
C1930 H1916 0.930 . S
C1930 C1928 1.395 . S
C1930 C1933 1.403 . S
C1931 C1928 1.403 . S
C1931 C1932 1.524 . S
C1931 C1935 1.400 . S
C1932 H1917 0.960 . S
C1932 H1918 0.960 . S
C1932 H1919 0.960 . S
C1932 C1931 1.524 . S
C1933 C1930 1.403 . S
C1933 C1934 1.392 . S
C1933 C1937 1.495 . S
C1934 C1933 1.392 . S
C1934 C1935 1.385 . S
C1934 C1936 1.478 . S
C1935 H1929 0.930 . S
C1935 C1931 1.400 . S
C1935 C1934 1.385 . S
C1936 C1934 1.478 . S
C1936 C1938 1.381 . S
C1936 C1942 1.383 . S
C1937 C1933 1.495 . S
C1937 H1943 0.959 . S
C1937 H1944 0.961 . S
C1937 H1945 0.960 . S
C1938 C1936 1.381 . S
C1938 C1939 1.394 . S
C1938 H1946 0.930 . S
C1939 C1938 1.394 . S
C1939 C1940 1.383 . S
C1939 H1947 0.929 . S
C1940 C1939 1.383 . S
C1940 C1941 1.377 . S
C1941 H1925 0.930 . S
C1941 C1940 1.377 . S
C1941 C1942 1.379 . S
C1942 H1926 0.931 . S
C1942 C1936 1.383 . S
C1942 C1941 1.379 . S
H1943 C1937 0.959 . S
H1944 C1937 0.961 . S
H1945 C1937 0.960 . S
H1946 C1938 0.930 . S
H1947 C1939 0.929 . S
H1948 C1956 0.929 . S
H1949 C1958 0.930 . S
H1950 C1960 0.930 . S
H1951 C1963 0.929 . S
H1952 C1966 0.930 . S
H1953 C1968 0.960 . S
H1954 C1968 0.960 . S
H1955 C1968 0.960 . S
C1956 H1948 0.929 . S
C1956 C1957 1.377 . S
C1956 C1958 1.384 . S
C1957 C1956 1.377 . S
C1957 C1963 1.390 . S
C1958 H1949 0.930 . S
C1958 C1956 1.384 . S
C1958 C1959 1.372 . S
C1959 C1958 1.372 . S
C1959 C1960 1.400 . S
C1959 C1964 1.490 . S
C1960 H1950 0.930 . S
C1960 C1959 1.400 . S
C1960 C1963 1.386 . S
H1961 C1977 0.930 . S
H1962 C1978 0.931 . S
C1963 H1951 0.929 . S
C1963 C1957 1.390 . S
C1963 C1960 1.386 . S
C1964 C1959 1.490 . S
C1964 C1966 1.395 . S
C1964 C1967 1.403 . S
H1965 C1971 0.930 . S
C1966 H1952 0.930 . S
C1966 C1964 1.395 . S
C1966 C1969 1.403 . S
C1967 C1964 1.403 . S
C1967 C1968 1.524 . S
C1967 C1971 1.400 . S
C1968 H1953 0.960 . S
C1968 H1954 0.960 . S
C1968 H1955 0.960 . S
C1968 C1967 1.524 . S
C1969 C1966 1.403 . S
C1969 C1970 1.392 . S
C1969 C1973 1.495 . S
C1970 C1969 1.392 . S
C1970 C1971 1.385 . S
C1970 C1972 1.478 . S
C1971 H1965 0.930 . S
C1971 C1967 1.400 . S
C1971 C1970 1.385 . S
C1972 C1970 1.478 . S
C1972 C1974 1.381 . S
C1972 C1978 1.383 . S
C1973 C1969 1.495 . S
C1973 H1979 0.959 . S
C1973 H1980 0.961 . S
C1973 H1981 0.960 . S
C1974 C1972 1.381 . S
C1974 C1975 1.394 . S
C1974 H1982 0.930 . S
C1975 C1974 1.394 . S
C1975 C1976 1.383 . S
C1975 H1983 0.929 . S
C1976 C1975 1.383 . S
C1976 C1977 1.377 . S
C1977 H1961 0.930 . S
C1977 C1976 1.377 . S
C1977 C1978 1.379 . S
C1978 H1962 0.931 . S
C1978 C1972 1.383 . S
C1978 C1977 1.379 . S
H1979 C1973 0.959 . S
H1980 C1973 0.961 . S
H1981 C1973 0.960 . S
H1982 C1974 0.930 . S
H1983 C1975 0.929 . S
H1984 C1992 0.929 . S
H1985 C1994 0.930 . S
H1986 C1996 0.930 . S
H1987 C1999 0.929 1_655 S
H1988 C2002 0.930 . S
H1989 C2004 0.960 . S
H1990 C2004 0.960 . S
H1991 C2004 0.960 . S
C1992 H1984 0.929 . S
C1992 C1993 1.377 . S
C1992 C1994 1.384 . S
C1993 C1992 1.377 . S
C1993 C1999 1.390 . S
C1994 H1985 0.930 . S
C1994 C1992 1.384 . S
C1994 C1995 1.372 . S
C1995 C1994 1.372 . S
C1995 C1996 1.400 . S
C1995 C2000 1.490 . S
C1996 H1986 0.930 . S
C1996 C1995 1.400 . S
C1996 C1999 1.386 . S
H1997 C2013 0.930 . S
H1998 C2014 0.931 . S
C1999 H1987 0.929 1_455 S
C1999 C1993 1.390 . S
C1999 C1996 1.386 . S
C2000 C1995 1.490 . S
C2000 C2002 1.395 . S
C2000 C2003 1.403 . S
H2001 C2007 0.930 . S
C2002 H1988 0.930 . S
C2002 C2000 1.395 . S
C2002 C2005 1.403 . S
C2003 C2000 1.403 . S
C2003 C2004 1.524 . S
C2003 C2007 1.400 . S
C2004 H1989 0.960 . S
C2004 H1990 0.960 . S
C2004 H1991 0.960 . S
C2004 C2003 1.524 . S
C2005 C2002 1.403 . S
C2005 C2006 1.392 . S
C2005 C2009 1.495 . S
C2006 C2005 1.392 . S
C2006 C2007 1.385 . S
C2006 C2008 1.478 . S
C2007 H2001 0.930 . S
C2007 C2003 1.400 . S
C2007 C2006 1.385 . S
C2008 C2006 1.478 . S
C2008 C2010 1.381 . S
C2008 C2014 1.383 . S
C2009 C2005 1.495 . S
C2009 H2015 0.959 . S
C2009 H2016 0.961 . S
C2009 H2017 0.960 . S
C2010 C2008 1.381 . S
C2010 C2011 1.394 . S
C2010 H2018 0.930 . S
C2011 C2010 1.394 . S
C2011 C2012 1.383 . S
C2011 H2019 0.929 . S
C2012 C2011 1.383 . S
C2012 C2013 1.377 . S
C2013 H1997 0.930 . S
C2013 C2012 1.377 . S
C2013 C2014 1.379 . S
C2014 H1998 0.931 . S
C2014 C2008 1.383 . S
C2014 C2013 1.379 . S
H2015 C2009 0.959 . S
H2016 C2009 0.961 . S
H2017 C2009 0.960 . S
H2018 C2010 0.930 . S
H2019 C2011 0.929 . S
H2020 C2028 0.906 1_565 S
H2021 C2030 0.930 . S
H2022 C2032 0.930 . S
H2023 C2035 0.929 . S
H2024 C2038 0.930 . S
H2025 C2040 0.960 . S
H2026 C2040 0.960 . S
H2027 C2040 0.960 . S
C2028 H2020 0.906 1_545 S
C2028 C2029 1.377 . S
C2028 C2030 1.384 . S
C2029 C2028 1.377 . S
C2029 C2035 1.390 . S
C2030 H2021 0.930 . S
C2030 C2028 1.384 . S
C2030 C2031 1.372 . S
C2031 C2030 1.372 . S
C2031 C2032 1.400 . S
C2031 C2036 1.490 . S
C2032 H2022 0.930 . S
C2032 C2031 1.400 . S
C2032 C2035 1.386 . S
H2033 C2049 0.930 . S
H2034 C2050 0.931 . S
C2035 H2023 0.929 . S
C2035 C2029 1.390 . S
C2035 C2032 1.386 . S
C2036 C2031 1.490 . S
C2036 C2038 1.395 . S
C2036 C2039 1.403 . S
H2037 C2043 0.930 . S
C2038 H2024 0.930 . S
C2038 C2036 1.395 . S
C2038 C2041 1.403 . S
C2039 C2036 1.403 . S
C2039 C2040 1.524 . S
C2039 C2043 1.400 . S
C2040 H2025 0.960 . S
C2040 H2026 0.960 . S
C2040 H2027 0.960 . S
C2040 C2039 1.524 . S
C2041 C2038 1.403 . S
C2041 C2042 1.392 . S
C2041 C2045 1.495 . S
C2042 C2041 1.392 . S
C2042 C2043 1.385 . S
C2042 C2044 1.478 . S
C2043 H2037 0.930 . S
C2043 C2039 1.400 . S
C2043 C2042 1.385 . S
C2044 C2042 1.478 . S
C2044 C2046 1.381 . S
C2044 C2050 1.383 . S
C2045 C2041 1.495 . S
C2045 H2051 0.959 . S
C2045 H2052 0.961 . S
C2045 H2053 0.960 . S
C2046 C2044 1.381 . S
C2046 C2047 1.394 . S
C2046 H2054 0.930 . S
C2047 C2046 1.394 . S
C2047 C2048 1.383 . S
C2047 H2055 0.929 . S
C2048 C2047 1.383 . S
C2048 C2049 1.377 . S
C2049 H2033 0.930 . S
C2049 C2048 1.377 . S
C2049 C2050 1.379 . S
C2050 H2034 0.931 . S
C2050 C2044 1.383 . S
C2050 C2049 1.379 . S
H2051 C2045 0.959 . S
H2052 C2045 0.961 . S
H2053 C2045 0.960 . S
H2054 C2046 0.930 . S
H2055 C2047 0.929 . S
H2056 C2064 0.929 . S
H2057 C2066 0.930 . S
H2058 C2068 0.930 . S
H2059 C2071 0.929 . S
H2060 C2074 0.930 . S
H2061 C2076 0.960 . S
H2062 C2076 0.960 . S
H2063 C2076 0.960 . S
C2064 H2056 0.929 . S
C2064 C2065 1.377 . S
C2064 C2066 1.384 . S
C2065 C2064 1.377 . S
C2065 C2071 1.390 . S
C2066 H2057 0.930 . S
C2066 C2064 1.384 . S
C2066 C2067 1.372 . S
C2067 C2066 1.372 . S
C2067 C2068 1.400 . S
C2067 C2072 1.490 . S
C2068 H2058 0.930 . S
C2068 C2067 1.400 . S
C2068 C2071 1.386 . S
H2069 C2085 0.930 . S
H2070 C2086 0.931 . S
C2071 H2059 0.929 . S
C2071 C2065 1.390 . S
C2071 C2068 1.386 . S
C2072 C2067 1.490 . S
C2072 C2074 1.395 . S
C2072 C2075 1.403 . S
H2073 C2079 0.930 . S
C2074 H2060 0.930 . S
C2074 C2072 1.395 . S
C2074 C2077 1.403 . S
C2075 C2072 1.403 . S
C2075 C2076 1.524 . S
C2075 C2079 1.400 . S
C2076 H2061 0.960 . S
C2076 H2062 0.960 . S
C2076 H2063 0.960 . S
C2076 C2075 1.524 . S
C2077 C2074 1.403 . S
C2077 C2078 1.392 . S
C2077 C2081 1.495 . S
C2078 C2077 1.392 . S
C2078 C2079 1.385 . S
C2078 C2080 1.478 . S
C2079 H2073 0.930 . S
C2079 C2075 1.400 . S
C2079 C2078 1.385 . S
C2080 C2078 1.478 . S
C2080 C2082 1.381 . S
C2080 C2086 1.383 . S
C2081 C2077 1.495 . S
C2081 H2087 0.959 . S
C2081 H2088 0.961 . S
C2081 H2089 0.960 . S
C2082 C2080 1.381 . S
C2082 C2083 1.394 . S
C2082 H2090 0.930 . S
C2083 C2082 1.394 . S
C2083 C2084 1.383 . S
C2083 H2091 0.929 . S
C2084 C2083 1.383 . S
C2084 C2085 1.377 . S
C2085 H2069 0.930 . S
C2085 C2084 1.377 . S
C2085 C2086 1.379 . S
C2086 H2070 0.931 . S
C2086 C2080 1.383 . S
C2086 C2085 1.379 . S
H2087 C2081 0.959 . S
H2088 C2081 0.961 . S
H2089 C2081 0.960 . S
H2090 C2082 0.930 . S
H2091 C2083 0.929 . S
H2092 C2100 0.929 . S
H2093 C2102 0.930 . S
H2094 C2104 0.930 . S
H2095 C2107 0.929 . S
H2096 C2110 0.930 . S
H2097 C2112 0.960 . S
H2098 C2112 0.960 . S
H2099 C2112 0.960 . S
C2100 H2092 0.929 . S
C2100 C2101 1.377 . S
C2100 C2102 1.384 . S
C2101 C2100 1.377 . S
C2101 C2107 1.390 . S
C2102 H2093 0.930 . S
C2102 C2100 1.384 . S
C2102 C2103 1.372 . S
C2103 C2102 1.372 . S
C2103 C2104 1.400 . S
C2103 C2108 1.490 . S
C2104 H2094 0.930 . S
C2104 C2103 1.400 . S
C2104 C2107 1.386 . S
H2105 C2121 0.930 . S
H2106 C2122 0.931 . S
C2107 H2095 0.929 . S
C2107 C2101 1.390 . S
C2107 C2104 1.386 . S
C2108 C2103 1.490 . S
C2108 C2110 1.395 . S
C2108 C2111 1.403 . S
H2109 C2115 0.930 . S
C2110 H2096 0.930 . S
C2110 C2108 1.395 . S
C2110 C2113 1.403 . S
C2111 C2108 1.403 . S
C2111 C2112 1.524 . S
C2111 C2115 1.400 . S
C2112 H2097 0.960 . S
C2112 H2098 0.960 . S
C2112 H2099 0.960 . S
C2112 C2111 1.524 . S
C2113 C2110 1.403 . S
C2113 C2114 1.392 . S
C2113 C2117 1.495 . S
C2114 C2113 1.392 . S
C2114 C2115 1.385 . S
C2114 C2116 1.478 . S
C2115 H2109 0.930 . S
C2115 C2111 1.400 . S
C2115 C2114 1.385 . S
C2116 C2114 1.478 . S
C2116 C2118 1.381 . S
C2116 C2122 1.383 . S
C2117 C2113 1.495 . S
C2117 H2123 0.959 . S
C2117 H2124 0.961 . S
C2117 H2125 0.960 . S
C2118 C2116 1.381 . S
C2118 C2119 1.394 . S
C2118 H2126 0.930 . S
C2119 C2118 1.394 . S
C2119 C2120 1.383 . S
C2119 H2127 0.929 . S
C2120 C2119 1.383 . S
C2120 C2121 1.377 . S
C2121 H2105 0.930 . S
C2121 C2120 1.377 . S
C2121 C2122 1.379 . S
C2122 H2106 0.931 . S
C2122 C2116 1.383 . S
C2122 C2121 1.379 . S
H2123 C2117 0.959 . S
H2124 C2117 0.961 . S
H2125 C2117 0.960 . S
H2126 C2118 0.930 . S
H2127 C2119 0.929 . S
H2128 C2136 0.929 . S
H2129 C2138 0.930 . S
H2130 C2140 0.930 . S
H2131 C2143 0.929 . S
H2132 C2146 0.930 . S
H2133 C2148 0.960 . S
H2134 C2148 0.960 . S
H2135 C2148 0.960 . S
C2136 H2128 0.929 . S
C2136 C2137 1.377 . S
C2136 C2138 1.384 . S
C2137 C2136 1.377 . S
C2137 C2143 1.390 . S
C2138 H2129 0.930 . S
C2138 C2136 1.384 . S
C2138 C2139 1.372 . S
C2139 C2138 1.372 . S
C2139 C2140 1.400 . S
C2139 C2144 1.490 . S
C2140 H2130 0.930 . S
C2140 C2139 1.400 . S
C2140 C2143 1.386 . S
H2141 C2157 0.930 . S
H2142 C2158 0.931 . S
C2143 H2131 0.929 . S
C2143 C2137 1.390 . S
C2143 C2140 1.386 . S
C2144 C2139 1.490 . S
C2144 C2146 1.395 . S
C2144 C2147 1.403 . S
H2145 C2151 0.930 . S
C2146 H2132 0.930 . S
C2146 C2144 1.395 . S
C2146 C2149 1.403 . S
C2147 C2144 1.403 . S
C2147 C2148 1.524 . S
C2147 C2151 1.400 . S
C2148 H2133 0.960 . S
C2148 H2134 0.960 . S
C2148 H2135 0.960 . S
C2148 C2147 1.524 . S
C2149 C2146 1.403 . S
C2149 C2150 1.392 . S
C2149 C2153 1.495 . S
C2150 C2149 1.392 . S
C2150 C2151 1.385 . S
C2150 C2152 1.478 . S
C2151 H2145 0.930 . S
C2151 C2147 1.400 . S
C2151 C2150 1.385 . S
C2152 C2150 1.478 . S
C2152 C2154 1.381 . S
C2152 C2158 1.383 . S
C2153 C2149 1.495 . S
C2153 H2159 0.959 . S
C2153 H2160 0.961 . S
C2153 H2161 0.960 . S
C2154 C2152 1.381 . S
C2154 C2155 1.394 . S
C2154 H2162 0.930 . S
C2155 C2154 1.394 . S
C2155 C2156 1.383 . S
C2155 H2163 0.929 . S
C2156 C2155 1.383 . S
C2156 C2157 1.377 . S
C2157 H2141 0.930 . S
C2157 C2156 1.377 . S
C2157 C2158 1.379 . S
C2158 H2142 0.931 . S
C2158 C2152 1.383 . S
C2158 C2157 1.379 . S
H2159 C2153 0.959 . S
H2160 C2153 0.961 . S
H2161 C2153 0.960 . S
H2162 C2154 0.930 . S
H2163 C2155 0.929 . S
H2164 C2172 0.929 . S
H2165 C2174 0.930 . S
H2166 C2176 0.930 . S
H2167 C2179 0.929 . S
H2168 C2182 0.930 . S
H2169 C2184 0.960 . S
H2170 C2184 0.960 . S
H2171 C2184 0.960 . S
C2172 H2164 0.929 . S
C2172 C2173 1.377 . S
C2172 C2174 1.384 . S
C2173 C2172 1.377 . S
C2173 C2179 1.390 . S
C2174 H2165 0.930 . S
C2174 C2172 1.384 . S
C2174 C2175 1.372 . S
C2175 C2174 1.372 . S
C2175 C2176 1.400 . S
C2175 C2180 1.490 . S
C2176 H2166 0.930 . S
C2176 C2175 1.400 . S
C2176 C2179 1.386 . S
H2177 C2193 0.930 . S
H2178 C2194 0.931 . S
C2179 H2167 0.929 . S
C2179 C2173 1.390 . S
C2179 C2176 1.386 . S
C2180 C2175 1.490 . S
C2180 C2182 1.395 . S
C2180 C2183 1.403 . S
H2181 C2187 0.930 . S
C2182 H2168 0.930 . S
C2182 C2180 1.395 . S
C2182 C2185 1.403 . S
C2183 C2180 1.403 . S
C2183 C2184 1.524 . S
C2183 C2187 1.400 . S
C2184 H2169 0.960 . S
C2184 H2170 0.960 . S
C2184 H2171 0.960 . S
C2184 C2183 1.524 . S
C2185 C2182 1.403 . S
C2185 C2186 1.392 . S
C2185 C2189 1.495 . S
C2186 C2185 1.392 . S
C2186 C2187 1.385 . S
C2186 C2188 1.478 . S
C2187 H2181 0.930 . S
C2187 C2183 1.400 . S
C2187 C2186 1.385 . S
C2188 C2186 1.478 . S
C2188 C2190 1.381 . S
C2188 C2194 1.383 . S
C2189 C2185 1.495 . S
C2189 H2195 0.959 . S
C2189 H2196 0.961 . S
C2189 H2197 0.960 . S
C2190 C2188 1.381 . S
C2190 C2191 1.394 . S
C2190 H2198 0.930 . S
C2191 C2190 1.394 . S
C2191 C2192 1.383 . S
C2191 H2199 0.929 . S
C2192 C2191 1.383 . S
C2192 C2193 1.377 . S
C2193 H2177 0.930 . S
C2193 C2192 1.377 . S
C2193 C2194 1.379 . S
C2194 H2178 0.931 . S
C2194 C2188 1.383 . S
C2194 C2193 1.379 . S
H2195 C2189 0.959 . S
H2196 C2189 0.961 . S
H2197 C2189 0.960 . S
H2198 C2190 0.930 . S
H2199 C2191 0.929 . S
H2200 C2208 0.929 . S
H2201 C2210 0.930 . S
H2202 C2212 0.930 . S
H2203 C2215 0.929 . S
H2204 C2218 0.930 . S
H2205 C2220 0.960 . S
H2206 C2220 0.960 . S
H2207 C2220 0.960 . S
C2208 H2200 0.929 . S
C2208 C2209 1.377 . S
C2208 C2210 1.384 . S
C2209 C2208 1.377 . S
C2209 C2215 1.390 . S
C2210 H2201 0.930 . S
C2210 C2208 1.384 . S
C2210 C2211 1.372 . S
C2211 C2210 1.372 . S
C2211 C2212 1.400 . S
C2211 C2216 1.490 . S
C2212 H2202 0.930 . S
C2212 C2211 1.400 . S
C2212 C2215 1.386 . S
H2213 C2229 0.930 . S
H2214 C2230 0.931 . S
C2215 H2203 0.929 . S
C2215 C2209 1.390 . S
C2215 C2212 1.386 . S
C2216 C2211 1.490 . S
C2216 C2218 1.395 . S
C2216 C2219 1.403 . S
H2217 C2223 0.930 . S
C2218 H2204 0.930 . S
C2218 C2216 1.395 . S
C2218 C2221 1.403 . S
C2219 C2216 1.403 . S
C2219 C2220 1.524 . S
C2219 C2223 1.400 . S
C2220 H2205 0.960 . S
C2220 H2206 0.960 . S
C2220 H2207 0.960 . S
C2220 C2219 1.524 . S
C2221 C2218 1.403 . S
C2221 C2222 1.392 . S
C2221 C2225 1.495 . S
C2222 C2221 1.392 . S
C2222 C2223 1.385 . S
C2222 C2224 1.478 . S
C2223 H2217 0.930 . S
C2223 C2219 1.400 . S
C2223 C2222 1.385 . S
C2224 C2222 1.478 . S
C2224 C2226 1.381 . S
C2224 C2230 1.383 . S
C2225 C2221 1.495 . S
C2225 H2231 0.959 . S
C2225 H2232 0.961 . S
C2225 H2233 0.960 . S
C2226 C2224 1.381 . S
C2226 C2227 1.394 . S
C2226 H2234 0.930 . S
C2227 C2226 1.394 . S
C2227 C2228 1.383 . S
C2227 H2235 0.929 . S
C2228 C2227 1.383 . S
C2228 C2229 1.377 . S
C2229 H2213 0.930 . S
C2229 C2228 1.377 . S
C2229 C2230 1.379 . S
C2230 H2214 0.931 . S
C2230 C2224 1.383 . S
C2230 C2229 1.379 . S
H2231 C2225 0.959 . S
H2232 C2225 0.961 . S
H2233 C2225 0.960 . S
H2234 C2226 0.930 . S
H2235 C2227 0.929 . S
H2236 C2244 0.929 . S
H2237 C2246 0.930 . S
H2238 C2248 0.930 . S
H2239 C2251 0.929 . S
H2240 C2254 0.930 . S
H2241 C2256 0.960 . S
H2242 C2256 0.960 . S
H2243 C2256 0.960 . S
C2244 H2236 0.929 . S
C2244 C2245 1.377 . S
C2244 C2246 1.384 . S
C2245 C2244 1.377 . S
C2245 C2251 1.390 . S
C2246 H2237 0.930 . S
C2246 C2244 1.384 . S
C2246 C2247 1.372 . S
C2247 C2246 1.372 . S
C2247 C2248 1.400 . S
C2247 C2252 1.490 . S
C2248 H2238 0.930 . S
C2248 C2247 1.400 . S
C2248 C2251 1.386 . S
H2249 C2265 0.930 . S
H2250 C2266 0.931 . S
C2251 H2239 0.929 . S
C2251 C2245 1.390 . S
C2251 C2248 1.386 . S
C2252 C2247 1.490 . S
C2252 C2254 1.395 . S
C2252 C2255 1.403 . S
H2253 C2259 0.930 . S
C2254 H2240 0.930 . S
C2254 C2252 1.395 . S
C2254 C2257 1.403 . S
C2255 C2252 1.403 . S
C2255 C2256 1.524 . S
C2255 C2259 1.400 . S
C2256 H2241 0.960 . S
C2256 H2242 0.960 . S
C2256 H2243 0.960 . S
C2256 C2255 1.524 . S
C2257 C2254 1.403 . S
C2257 C2258 1.392 . S
C2257 C2261 1.495 . S
C2258 C2257 1.392 . S
C2258 C2259 1.385 . S
C2258 C2260 1.478 . S
C2259 H2253 0.930 . S
C2259 C2255 1.400 . S
C2259 C2258 1.385 . S
C2260 C2258 1.478 . S
C2260 C2262 1.381 . S
C2260 C2266 1.383 . S
C2261 C2257 1.495 . S
C2261 H2267 0.959 . S
C2261 H2268 0.961 . S
C2261 H2269 0.960 . S
C2262 C2260 1.381 . S
C2262 C2263 1.394 . S
C2262 H2270 0.930 . S
C2263 C2262 1.394 . S
C2263 C2264 1.383 . S
C2263 H2271 0.929 . S
C2264 C2263 1.383 . S
C2264 C2265 1.377 . S
C2265 H2249 0.930 . S
C2265 C2264 1.377 . S
C2265 C2266 1.379 . S
C2266 H2250 0.931 . S
C2266 C2260 1.383 . S
C2266 C2265 1.379 . S
H2267 C2261 0.959 . S
H2268 C2261 0.961 . S
H2269 C2261 0.960 . S
H2270 C2262 0.930 . S
H2271 C2263 0.929 . S
H2272 C2280 0.929 . S
H2273 C2282 0.930 . S
H2274 C2284 0.930 . S
H2275 C2287 0.929 . S
H2276 C2290 0.930 . S
H2277 C2292 0.960 . S
H2278 C2292 0.960 . S
H2279 C2292 0.960 . S
C2280 H2272 0.929 . S
C2280 C2281 1.377 . S
C2280 C2282 1.384 . S
C2281 C2280 1.377 . S
C2281 C2287 1.390 1_655 S
C2282 H2273 0.930 . S
C2282 C2280 1.384 . S
C2282 C2283 1.372 . S
C2283 C2282 1.372 . S
C2283 C2284 1.400 1_655 S
C2283 C2288 1.491 . S
C2284 H2274 0.930 . S
C2284 C2283 1.400 1_455 S
C2284 C2287 1.386 . S
H2285 C2301 0.930 . S
H2286 C2302 0.931 . S
C2287 H2275 0.929 . S
C2287 C2281 1.390 1_455 S
C2287 C2284 1.386 . S
C2288 C2283 1.491 . S
C2288 C2290 1.378 1_655 S
C2288 C2291 1.418 . S
H2289 C2295 0.930 . S
C2290 H2276 0.930 . S
C2290 C2288 1.378 1_455 S
C2290 C2293 1.403 . S
C2291 C2288 1.418 . S
C2291 C2292 1.524 . S
C2291 C2295 1.400 . S
C2292 H2277 0.960 . S
C2292 H2278 0.960 . S
C2292 H2279 0.960 . S
C2292 C2291 1.524 . S
C2293 C2290 1.403 . S
C2293 C2294 1.392 . S
C2293 C2297 1.495 . S
C2294 C2293 1.392 . S
C2294 C2295 1.385 1_455 S
C2294 C2296 1.478 . S
C2295 H2289 0.930 . S
C2295 C2291 1.400 . S
C2295 C2294 1.385 1_655 S
C2296 C2294 1.478 . S
C2296 C2298 1.381 1_455 S
C2296 C2302 1.383 . S
C2297 C2293 1.495 . S
C2297 H2303 0.959 . S
C2297 H2304 0.961 . S
C2297 H2305 0.960 . S
C2298 C2296 1.381 1_655 S
C2298 C2299 1.394 . S
C2298 H2306 0.930 . S
C2299 C2298 1.394 . S
C2299 C2300 1.383 1_655 S
C2299 H2307 0.929 . S
C2300 C2299 1.383 1_455 S
C2300 C2301 1.377 . S
C2301 H2285 0.930 . S
C2301 C2300 1.377 . S
C2301 C2302 1.379 . S
C2302 H2286 0.931 . S
C2302 C2296 1.383 . S
C2302 C2301 1.379 . S
H2303 C2297 0.959 . S
H2304 C2297 0.961 . S
H2305 C2297 0.960 . S
H2306 C2298 0.930 . S
H2307 C2299 0.929 . S
H2308 C2316 0.929 . S
H2309 C2318 0.930 . S
H2310 C2320 0.930 . S
H2311 C2323 0.929 . S
H2312 C2326 0.930 . S
H2313 C2328 0.960 . S
H2314 C2328 0.960 . S
H2315 C2328 0.960 . S
C2316 H2308 0.929 . S
C2316 C2317 1.377 1_565 S
C2316 C2318 1.384 . S
C2317 C2316 1.377 1_545 S
C2317 C2323 1.390 . S
C2318 H2309 0.930 . S
C2318 C2316 1.384 . S
C2318 C2319 1.372 1_565 S
C2319 C2318 1.372 1_545 S
C2319 C2320 1.400 . S
C2319 C2324 1.489 1_545 S
C2320 H2310 0.930 . S
C2320 C2319 1.400 . S
C2320 C2323 1.386 . S
H2321 C2337 0.929 1_545 S
H2322 C2338 0.931 . S
C2323 H2311 0.929 . S
C2323 C2317 1.390 . S
C2323 C2320 1.386 . S
C2324 C2319 1.489 1_565 S
C2324 C2326 1.404 . S
C2324 C2327 1.394 1_565 S
H2325 C2331 0.930 . S
C2326 H2312 0.930 . S
C2326 C2324 1.404 . S
C2326 C2329 1.403 . S
C2327 C2324 1.394 1_545 S
C2327 C2328 1.524 . S
C2327 C2331 1.400 . S
C2328 H2313 0.960 . S
C2328 H2314 0.960 . S
C2328 H2315 0.960 . S
C2328 C2327 1.524 . S
C2329 C2326 1.403 . S
C2329 C2330 1.392 . S
C2329 C2333 1.495 . S
C2330 C2329 1.392 . S
C2330 C2331 1.385 1_565 S
C2330 C2332 1.478 . S
C2331 H2325 0.930 . S
C2331 C2327 1.400 . S
C2331 C2330 1.385 1_545 S
C2332 C2330 1.478 . S
C2332 C2334 1.381 . S
C2332 C2338 1.383 . S
C2333 C2329 1.495 . S
C2333 H2339 0.959 . S
C2333 H2340 0.961 . S
C2333 H2341 0.960 . S
C2334 C2332 1.381 . S
C2334 C2335 1.394 . S
C2334 H2342 0.930 . S
C2335 C2334 1.394 . S
C2335 C2336 1.383 . S
C2335 H2343 0.929 . S
C2336 C2335 1.383 . S
C2336 C2337 1.377 . S
C2337 H2321 0.929 1_565 S
C2337 C2336 1.377 . S
C2337 C2338 1.379 . S
C2338 H2322 0.931 . S
C2338 C2332 1.383 . S
C2338 C2337 1.379 . S
H2339 C2333 0.959 . S
H2340 C2333 0.961 . S
H2341 C2333 0.960 . S
H2342 C2334 0.930 . S
H2343 C2335 0.929 . S
H2344 C2352 0.929 . S
H2345 C2354 0.930 . S
H2346 C2356 0.930 . S
H2347 C2359 0.929 . S
H2348 C2362 0.930 . S
H2349 C2364 0.960 . S
H2350 C2364 0.960 . S
H2351 C2364 0.960 . S
C2352 H2344 0.929 . S
C2352 C2353 1.377 1_455 S
C2352 C2354 1.384 . S
C2353 C2352 1.377 1_655 S
C2353 C2359 1.390 . S
C2354 H2345 0.930 . S
C2354 C2352 1.384 . S
C2354 C2355 1.369 . S
C2355 C2354 1.369 . S
C2355 C2356 1.403 1_455 S
C2355 C2360 1.489 . S
C2356 H2346 0.930 . S
C2356 C2355 1.403 1_655 S
C2356 C2359 1.386 . S
H2357 C2373 0.930 . S
H2358 C2374 0.931 . S
C2359 H2347 0.929 . S
C2359 C2353 1.390 . S
C2359 C2356 1.386 . S
C2360 C2355 1.489 . S
C2360 C2362 1.414 . S
C2360 C2363 1.387 1_455 S
H2361 C2367 0.930 . S
C2362 H2348 0.930 . S
C2362 C2360 1.414 . S
C2362 C2365 1.403 . S
C2363 C2360 1.387 1_655 S
C2363 C2364 1.524 . S
C2363 C2367 1.400 . S
C2364 H2349 0.960 . S
C2364 H2350 0.960 . S
C2364 H2351 0.960 . S
C2364 C2363 1.524 . S
C2365 C2362 1.403 . S
C2365 C2366 1.392 . S
C2365 C2369 1.495 . S
C2366 C2365 1.392 . S
C2366 C2367 1.385 1_455 S
C2366 C2368 1.478 . S
C2367 H2361 0.930 . S
C2367 C2363 1.400 . S
C2367 C2366 1.385 1_655 S
C2368 C2366 1.478 . S
C2368 C2370 1.381 . S
C2368 C2374 1.383 1_455 S
C2369 C2365 1.495 . S
C2369 H2375 0.959 . S
C2369 H2376 0.961 . S
C2369 H2377 0.960 . S
C2370 C2368 1.381 . S
C2370 C2371 1.394 . S
C2370 H2378 0.930 . S
C2371 C2370 1.394 . S
C2371 C2372 1.383 . S
C2371 H2379 0.929 . S
C2372 C2371 1.383 . S
C2372 C2373 1.377 1_455 S
C2373 H2357 0.930 . S
C2373 C2372 1.377 1_655 S
C2373 C2374 1.379 . S
C2374 H2358 0.931 . S
C2374 C2368 1.383 1_655 S
C2374 C2373 1.379 . S
H2375 C2369 0.959 . S
H2376 C2369 0.961 . S
H2377 C2369 0.960 . S
H2378 C2370 0.930 . S
H2379 C2371 0.929 . S
H2380 C2388 0.929 . S
H2381 C2390 0.930 . S
H2382 C2392 0.930 . S
H2383 C2395 0.929 . S
H2384 C2398 0.930 . S
H2385 C2400 0.960 . S
H2386 C2400 0.960 . S
H2387 C2400 0.960 . S
C2388 H2380 0.929 . S
C2388 C2389 1.377 1_545 S
C2388 C2390 1.384 . S
C2389 C2388 1.377 1_565 S
C2389 C2395 1.390 . S
C2390 H2381 0.930 . S
C2390 C2388 1.384 . S
C2390 C2391 1.366 1_545 S
C2391 C2390 1.366 1_565 S
C2391 C2392 1.407 . S
C2391 C2396 1.490 . S
C2392 H2382 0.930 . S
C2392 C2391 1.407 . S
C2392 C2395 1.386 . S
H2393 C2409 0.930 . S
H2394 C2410 0.931 . S
C2395 H2383 0.929 . S
C2395 C2389 1.390 . S
C2395 C2392 1.386 . S
C2396 C2391 1.490 . S
C2396 C2398 1.417 . S
C2396 C2399 1.381 1_565 S
H2397 C2403 0.930 . S
C2398 H2384 0.930 . S
C2398 C2396 1.417 . S
C2398 C2401 1.403 . S
C2399 C2396 1.381 1_545 S
C2399 C2400 1.524 . S
C2399 C2403 1.400 . S
C2400 H2385 0.960 . S
C2400 H2386 0.960 . S
C2400 H2387 0.960 . S
C2400 C2399 1.524 . S
C2401 C2398 1.403 . S
C2401 C2402 1.392 . S
C2401 C2405 1.495 . S
C2402 C2401 1.392 . S
C2402 C2403 1.385 1_565 S
C2402 C2404 1.478 . S
C2403 H2397 0.930 . S
C2403 C2399 1.400 . S
C2403 C2402 1.385 1_545 S
C2404 C2402 1.478 . S
C2404 C2406 1.381 1_565 S
C2404 C2410 1.383 . S
C2405 C2401 1.495 . S
C2405 H2411 0.959 . S
C2405 H2412 0.961 . S
C2405 H2413 0.960 . S
C2406 C2404 1.381 1_545 S
C2406 C2407 1.394 . S
C2406 H2414 0.930 . S
C2407 C2406 1.394 . S
C2407 C2408 1.398 . S
C2407 H2415 0.929 . S
C2408 C2407 1.398 . S
C2408 C2409 1.361 1_545 S
C2409 H2393 0.930 . S
C2409 C2408 1.361 1_565 S
C2409 C2410 1.379 . S
C2410 H2394 0.931 . S
C2410 C2404 1.383 . S
C2410 C2409 1.379 . S
H2411 C2405 0.959 . S
H2412 C2405 0.961 . S
H2413 C2405 0.960 . S
H2414 C2406 0.930 . S
H2415 C2407 0.929 . S
H2416 C2424 0.929 . S
H2417 C2426 0.930 . S
H2418 C2428 0.930 . S
H2419 C2431 0.929 . S
H2420 C2434 0.930 . S
H2421 C2436 0.960 . S
H2422 C2436 0.960 . S
H2423 C2436 0.960 . S
C2424 H2416 0.929 . S
C2424 C2425 1.377 . S
C2424 C2426 1.384 . S
C2425 C2424 1.377 . S
C2425 C2431 1.390 . S
C2426 H2417 0.930 . S
C2426 C2424 1.384 . S
C2426 C2427 1.372 . S
C2427 C2426 1.372 . S
C2427 C2428 1.400 . S
C2427 C2432 1.490 . S
C2428 H2418 0.930 . S
C2428 C2427 1.400 . S
C2428 C2431 1.386 . S
H2429 C2445 0.930 . S
H2430 C2446 0.931 . S
C2431 H2419 0.929 . S
C2431 C2425 1.390 . S
C2431 C2428 1.386 . S
C2432 C2427 1.490 . S
C2432 C2434 1.395 . S
C2432 C2435 1.403 . S
H2433 C2439 0.930 . S
C2434 H2420 0.930 . S
C2434 C2432 1.395 . S
C2434 C2437 1.403 1_556 S
C2435 C2432 1.403 . S
C2435 C2436 1.524 . S
C2435 C2439 1.400 1_556 S
C2436 H2421 0.960 . S
C2436 H2422 0.960 . S
C2436 H2423 0.960 . S
C2436 C2435 1.524 . S
C2437 C2434 1.403 1_554 S
C2437 C2438 1.392 . S
C2437 C2441 1.495 . S
C2438 C2437 1.392 . S
C2438 C2439 1.385 . S
C2438 C2440 1.478 . S
C2439 H2433 0.930 . S
C2439 C2435 1.400 1_554 S
C2439 C2438 1.385 . S
C2440 C2438 1.478 . S
C2440 C2442 1.381 . S
C2440 C2446 1.383 . S
C2441 C2437 1.495 . S
C2441 H2447 0.959 . S
C2441 H2448 0.961 . S
C2441 H2449 0.960 . S
C2442 C2440 1.381 . S
C2442 C2443 1.394 . S
C2442 H2450 0.930 . S
C2443 C2442 1.394 . S
C2443 C2444 1.383 . S
C2443 H2451 0.929 . S
C2444 C2443 1.383 . S
C2444 C2445 1.377 . S
C2445 H2429 0.930 . S
C2445 C2444 1.377 . S
C2445 C2446 1.379 . S
C2446 H2430 0.931 . S
C2446 C2440 1.383 . S
C2446 C2445 1.379 . S
H2447 C2441 0.959 . S
H2448 C2441 0.961 . S
H2449 C2441 0.960 . S
H2450 C2442 0.930 . S
H2451 C2443 0.929 . S
H2452 C2460 0.929 . S
H2453 C2462 0.930 . S
H2454 C2464 0.930 . S
H2455 C2467 0.929 . S
H2456 C2470 0.930 . S
H2457 C2472 0.960 . S
H2458 C2472 0.960 . S
H2459 C2472 0.960 . S
C2460 H2452 0.929 . S
C2460 C2461 1.377 . S
C2460 C2462 1.384 . S
C2461 C2460 1.377 . S
C2461 C2467 1.390 . S
C2462 H2453 0.930 . S
C2462 C2460 1.384 . S
C2462 C2463 1.372 . S
C2463 C2462 1.372 . S
C2463 C2464 1.400 . S
C2463 C2468 1.490 . S
C2464 H2454 0.930 . S
C2464 C2463 1.400 . S
C2464 C2467 1.386 . S
H2465 C2481 0.930 . S
H2466 C2482 0.931 . S
C2467 H2455 0.929 . S
C2467 C2461 1.390 . S
C2467 C2464 1.386 . S
C2468 C2463 1.490 . S
C2468 C2470 1.395 . S
C2468 C2471 1.403 . S
H2469 C2475 0.930 . S
C2470 H2456 0.930 . S
C2470 C2468 1.395 . S
C2470 C2473 1.403 1_556 S
C2471 C2468 1.403 . S
C2471 C2472 1.524 . S
C2471 C2475 1.400 1_556 S
C2472 H2457 0.960 . S
C2472 H2458 0.960 . S
C2472 H2459 0.960 . S
C2472 C2471 1.524 . S
C2473 C2470 1.403 1_554 S
C2473 C2474 1.392 . S
C2473 C2477 1.495 . S
C2474 C2473 1.392 . S
C2474 C2475 1.385 . S
C2474 C2476 1.478 . S
C2475 H2469 0.930 . S
C2475 C2471 1.400 1_554 S
C2475 C2474 1.385 . S
C2476 C2474 1.478 . S
C2476 C2478 1.381 . S
C2476 C2482 1.383 . S
C2477 C2473 1.495 . S
C2477 H2483 0.959 . S
C2477 H2484 0.961 . S
C2477 H2485 0.960 . S
C2478 C2476 1.381 . S
C2478 C2479 1.394 . S
C2478 H2486 0.930 . S
C2479 C2478 1.394 . S
C2479 C2480 1.383 . S
C2479 H2487 0.929 . S
C2480 C2479 1.383 . S
C2480 C2481 1.377 . S
C2481 H2465 0.930 . S
C2481 C2480 1.377 . S
C2481 C2482 1.379 . S
C2482 H2466 0.931 . S
C2482 C2476 1.383 . S
C2482 C2481 1.379 . S
H2483 C2477 0.959 . S
H2484 C2477 0.961 . S
H2485 C2477 0.960 . S
H2486 C2478 0.930 . S
H2487 C2479 0.929 . S
H2488 C2496 0.929 . S
H2489 C2498 0.930 . S
H2490 C2500 0.930 . S
H2491 C2503 0.929 . S
H2492 C2506 0.930 . S
H2493 C2508 0.960 . S
H2494 C2508 0.960 . S
H2495 C2508 0.960 . S
C2496 H2488 0.929 . S
C2496 C2497 1.377 . S
C2496 C2498 1.384 . S
C2497 C2496 1.377 . S
C2497 C2503 1.390 . S
C2498 H2489 0.930 . S
C2498 C2496 1.384 . S
C2498 C2499 1.372 . S
C2499 C2498 1.372 . S
C2499 C2500 1.400 . S
C2499 C2504 1.490 . S
C2500 H2490 0.930 . S
C2500 C2499 1.400 . S
C2500 C2503 1.386 . S
H2501 C2517 0.930 . S
H2502 C2518 0.931 . S
C2503 H2491 0.929 . S
C2503 C2497 1.390 . S
C2503 C2500 1.386 . S
C2504 C2499 1.490 . S
C2504 C2506 1.395 . S
C2504 C2507 1.403 . S
H2505 C2511 0.930 . S
C2506 H2492 0.930 . S
C2506 C2504 1.395 . S
C2506 C2509 1.403 1_554 S
C2507 C2504 1.403 . S
C2507 C2508 1.524 . S
C2507 C2511 1.400 1_554 S
C2508 H2493 0.960 . S
C2508 H2494 0.960 . S
C2508 H2495 0.960 . S
C2508 C2507 1.524 . S
C2509 C2506 1.403 1_556 S
C2509 C2510 1.392 . S
C2509 C2513 1.495 . S
C2510 C2509 1.392 . S
C2510 C2511 1.385 . S
C2510 C2512 1.478 . S
C2511 H2505 0.930 . S
C2511 C2507 1.400 1_556 S
C2511 C2510 1.385 . S
C2512 C2510 1.478 . S
C2512 C2514 1.381 . S
C2512 C2518 1.383 . S
C2513 C2509 1.495 . S
C2513 H2519 0.959 . S
C2513 H2520 0.961 . S
C2513 H2521 0.960 . S
C2514 C2512 1.381 . S
C2514 C2515 1.394 . S
C2514 H2522 0.930 . S
C2515 C2514 1.394 . S
C2515 C2516 1.383 . S
C2515 H2523 0.929 . S
C2516 C2515 1.383 . S
C2516 C2517 1.377 . S
C2517 H2501 0.930 . S
C2517 C2516 1.377 . S
C2517 C2518 1.379 . S
C2518 H2502 0.931 . S
C2518 C2512 1.383 . S
C2518 C2517 1.379 . S
H2519 C2513 0.959 . S
H2520 C2513 0.961 . S
H2521 C2513 0.960 . S
H2522 C2514 0.930 . S
H2523 C2515 0.929 . S
H2524 C2532 0.929 . S
H2525 C2534 0.930 . S
H2526 C2536 0.930 . S
H2527 C2539 0.929 . S
H2528 C2542 0.930 . S
H2529 C2544 0.960 . S
H2530 C2544 0.960 . S
H2531 C2544 0.960 . S
C2532 H2524 0.929 . S
C2532 C2533 1.377 . S
C2532 C2534 1.384 . S
C2533 C2532 1.377 . S
C2533 C2539 1.390 . S
C2534 H2525 0.930 . S
C2534 C2532 1.384 . S
C2534 C2535 1.372 . S
C2535 C2534 1.372 . S
C2535 C2536 1.400 . S
C2535 C2540 1.490 . S
C2536 H2526 0.930 . S
C2536 C2535 1.400 . S
C2536 C2539 1.386 . S
H2537 C2553 0.930 . S
H2538 C2554 0.931 . S
C2539 H2527 0.929 . S
C2539 C2533 1.390 . S
C2539 C2536 1.386 . S
C2540 C2535 1.490 . S
C2540 C2542 1.395 . S
C2540 C2543 1.403 . S
H2541 C2547 0.930 . S
C2542 H2528 0.930 . S
C2542 C2540 1.395 . S
C2542 C2545 1.403 1_556 S
C2543 C2540 1.403 . S
C2543 C2544 1.524 . S
C2543 C2547 1.400 1_556 S
C2544 H2529 0.960 . S
C2544 H2530 0.960 . S
C2544 H2531 0.960 . S
C2544 C2543 1.524 . S
C2545 C2542 1.403 1_554 S
C2545 C2546 1.392 . S
C2545 C2549 1.495 . S
C2546 C2545 1.392 . S
C2546 C2547 1.385 . S
C2546 C2548 1.478 . S
C2547 H2541 0.930 . S
C2547 C2543 1.400 1_554 S
C2547 C2546 1.385 . S
C2548 C2546 1.478 . S
C2548 C2550 1.381 . S
C2548 C2554 1.383 . S
C2549 C2545 1.495 . S
C2549 H2555 0.959 . S
C2549 H2556 0.961 . S
C2549 H2557 0.960 . S
C2550 C2548 1.381 . S
C2550 C2551 1.394 . S
C2550 H2558 0.930 . S
C2551 C2550 1.394 . S
C2551 C2552 1.383 . S
C2551 H2559 0.929 . S
C2552 C2551 1.383 . S
C2552 C2553 1.377 . S
C2553 H2537 0.930 . S
C2553 C2552 1.377 . S
C2553 C2554 1.379 . S
C2554 H2538 0.931 . S
C2554 C2548 1.383 . S
C2554 C2553 1.379 . S
H2555 C2549 0.959 . S
H2556 C2549 0.961 . S
H2557 C2549 0.960 . S
H2558 C2550 0.930 . S
H2559 C2551 0.929 . S
C1417 C20 1.550 . S
C1436 C293 1.517 . S
C1453 C49 1.485 . S
C1472 C117 1.539 . S
C1489 C137 1.501 . S
C1508 C196 1.546 . S
C1525 C225 1.489 . S
C1544 C313 1.537 . S
C1561 C409 1.550 . S
C1580 C497 1.508 . S
C1597 C460 1.541 . S
C1616 C557 1.466 . S
C1633 C585 1.550 . S
C1652 C636 1.524 . S
C1669 C673 1.542 . S
C1688 C381 1.508 . S
C1705 C724 1.550 . S
C1724 C988 1.510 . S
C1741 C753 1.482 . S
C1760 C821 1.534 . S
C1777 C841 1.500 . S
C1796 C900 1.547 . S
C1813 C1025 1.542 . S
C1832 C929 1.510 . S
C1849 C1201 1.509 . S
C1868 C1105 1.549 . S
C1885 C1261 1.492 . S
C1904 C1164 1.540 . S
C1921 C1289 1.551 . S
C1940 C1340 1.489 . S
C1957 C1377 1.541 . S
C1976 C1076 1.462 . S
C1993 C57 0.596 . S
C2012 C1369 0.581 . S
C2029 C108 0.606 . S
C2048 C1085 0.623 . S
C2065 C1173 0.604 . S
C2084 C233 0.633 . S
C2101 C321 0.595 . S
C2120 C1252 0.646 . S
C2137 C812 0.600 . S
C2156 C372 0.576 . S
C2173 C937 0.600 . S
C2192 C469 0.563 . S
C2209 C548 0.592 . S
C2228 C1017 0.654 . S
C2245 C665 0.612 . S
C2264 C761 0.557 . S
C2281 C29 1.346 . S
C2300 C577 1.336 . S
C2317 C645 1.337 . S
C2336 C145 1.339 . S
C2353 C401 1.343 . S
C2372 C205 1.364 . S
C2389 C489 1.341 . S
C2408 C284 1.350 . S
C2425 C733 1.350 . S
C2444 C1281 1.324 . S
C2461 C849 1.345 . S
C2480 C1349 1.315 . S
C2497 C1113 1.344 . S
C2516 C909 1.363 . S
C2533 C997 1.345 . S
C2552 C1193 1.316 . S
