# Generated by pormake.
# Topology vcc, (6)-cn, num edge types: 1
# Building blocks:
#     Node 0, Type 0, BuildingBlock: LEVNOQ01_clean_sbu_1, # of connection points: 6
#     Node 1, Type 0, BuildingBlock: LEVNOQ01_clean_sbu_1, # of connection points: 6
#     Node 2, Type 0, BuildingBlock: LEVNOQ01_clean_sbu_1, # of connection points: 6
#     Node 3, Type 0, BuildingBlock: LEVNOQ01_clean_sbu_1, # of connection points: 6
#     Node 4, Type 0, BuildingBlock: LEVNOQ01_clean_sbu_1, # of connection points: 6
#     Node 5, Type 0, BuildingBlock: LEVNOQ01_clean_sbu_1, # of connection points: 6
#     Node 6, Type 0, BuildingBlock: LEVNOQ01_clean_sbu_1, # of connection points: 6
#     Node 7, Type 0, BuildingBlock: LEVNOQ01_clean_sbu_1, # of connection points: 6
#     Node 8, Type 0, BuildingBlock: LEVNOQ01_clean_sbu_1, # of connection points: 6
#     Node 9, Type 0, BuildingBlock: LEVNOQ01_clean_sbu_1, # of connection points: 6
#     Node 10, Type 0, BuildingBlock: LEVNOQ01_clean_sbu_1, # of connection points: 6
#     Node 11, Type 0, BuildingBlock: LEVNOQ01_clean_sbu_1, # of connection points: 6
#     Node 12, Type 0, BuildingBlock: LEVNOQ01_clean_sbu_1, # of connection points: 6
#     Node 13, Type 0, BuildingBlock: LEVNOQ01_clean_sbu_1, # of connection points: 6
#     Node 14, Type 0, BuildingBlock: LEVNOQ01_clean_sbu_1, # of connection points: 6
#     Node 15, Type 0, BuildingBlock: LEVNOQ01_clean_sbu_1, # of connection points: 6
#     Node 16, Type 0, BuildingBlock: LEVNOQ01_clean_sbu_1, # of connection points: 6
#     Node 17, Type 0, BuildingBlock: LEVNOQ01_clean_sbu_1, # of connection points: 6
#     Node 18, Type 0, BuildingBlock: LEVNOQ01_clean_sbu_1, # of connection points: 6
#     Node 19, Type 0, BuildingBlock: LEVNOQ01_clean_sbu_1, # of connection points: 6
#     Node 20, Type 0, BuildingBlock: LEVNOQ01_clean_sbu_1, # of connection points: 6
#     Node 21, Type 0, BuildingBlock: LEVNOQ01_clean_sbu_1, # of connection points: 6
#     Node 22, Type 0, BuildingBlock: LEVNOQ01_clean_sbu_1, # of connection points: 6
#     Node 23, Type 0, BuildingBlock: LEVNOQ01_clean_sbu_1, # of connection points: 6
#     Node 24, Type 0, BuildingBlock: LEVNOQ01_clean_sbu_1, # of connection points: 6
#     Node 25, Type 0, BuildingBlock: LEVNOQ01_clean_sbu_1, # of connection points: 6
#     Node 26, Type 0, BuildingBlock: LEVNOQ01_clean_sbu_1, # of connection points: 6
#     Node 27, Type 0, BuildingBlock: LEVNOQ01_clean_sbu_1, # of connection points: 6
#     Node 28, Type 0, BuildingBlock: LEVNOQ01_clean_sbu_1, # of connection points: 6
#     Node 29, Type 0, BuildingBlock: LEVNOQ01_clean_sbu_1, # of connection points: 6
#     Node 30, Type 0, BuildingBlock: LEVNOQ01_clean_sbu_1, # of connection points: 6
#     Node 31, Type 0, BuildingBlock: LEVNOQ01_clean_sbu_1, # of connection points: 6
#     Edge 32, Type (0, 0), None
#     Edge 33, Type (0, 0), None
#     Edge 34, Type (0, 0), None
#     Edge 35, Type (0, 0), None
#     Edge 36, Type (0, 0), None
#     Edge 37, Type (0, 0), None
#     Edge 38, Type (0, 0), None
#     Edge 39, Type (0, 0), None
#     Edge 40, Type (0, 0), None
#     Edge 41, Type (0, 0), None
#     Edge 42, Type (0, 0), None
#     Edge 43, Type (0, 0), None
#     Edge 44, Type (0, 0), None
#     Edge 45, Type (0, 0), None
#     Edge 46, Type (0, 0), None
#     Edge 47, Type (0, 0), None
#     Edge 48, Type (0, 0), None
#     Edge 49, Type (0, 0), None
#     Edge 50, Type (0, 0), None
#     Edge 51, Type (0, 0), None
#     Edge 52, Type (0, 0), None
#     Edge 53, Type (0, 0), None
#     Edge 54, Type (0, 0), None
#     Edge 55, Type (0, 0), None
#     Edge 56, Type (0, 0), None
#     Edge 57, Type (0, 0), None
#     Edge 58, Type (0, 0), None
#     Edge 59, Type (0, 0), None
#     Edge 60, Type (0, 0), None
#     Edge 61, Type (0, 0), None
#     Edge 62, Type (0, 0), None
#     Edge 63, Type (0, 0), None
#     Edge 64, Type (0, 0), None
#     Edge 65, Type (0, 0), None
#     Edge 66, Type (0, 0), None
#     Edge 67, Type (0, 0), None
#     Edge 68, Type (0, 0), None
#     Edge 69, Type (0, 0), None
#     Edge 70, Type (0, 0), None
#     Edge 71, Type (0, 0), None
#     Edge 72, Type (0, 0), None
#     Edge 73, Type (0, 0), None
#     Edge 74, Type (0, 0), None
#     Edge 75, Type (0, 0), None
#     Edge 76, Type (0, 0), None
#     Edge 77, Type (0, 0), None
#     Edge 78, Type (0, 0), None
#     Edge 79, Type (0, 0), None
#     Edge 80, Type (0, 0), None
#     Edge 81, Type (0, 0), None
#     Edge 82, Type (0, 0), None
#     Edge 83, Type (0, 0), None
#     Edge 84, Type (0, 0), None
#     Edge 85, Type (0, 0), None
#     Edge 86, Type (0, 0), None
#     Edge 87, Type (0, 0), None
#     Edge 88, Type (0, 0), None
#     Edge 89, Type (0, 0), None
#     Edge 90, Type (0, 0), None
#     Edge 91, Type (0, 0), None
#     Edge 92, Type (0, 0), None
#     Edge 93, Type (0, 0), None
#     Edge 94, Type (0, 0), None
#     Edge 95, Type (0, 0), None
#     Edge 96, Type (0, 0), None
#     Edge 97, Type (0, 0), None
#     Edge 98, Type (0, 0), None
#     Edge 99, Type (0, 0), None
#     Edge 100, Type (0, 0), None
#     Edge 101, Type (0, 0), None
#     Edge 102, Type (0, 0), None
#     Edge 103, Type (0, 0), None
#     Edge 104, Type (0, 0), None
#     Edge 105, Type (0, 0), None
#     Edge 106, Type (0, 0), None
#     Edge 107, Type (0, 0), None
#     Edge 108, Type (0, 0), None
#     Edge 109, Type (0, 0), None
#     Edge 110, Type (0, 0), None
#     Edge 111, Type (0, 0), None
#     Edge 112, Type (0, 0), None
#     Edge 113, Type (0, 0), None
#     Edge 114, Type (0, 0), None
#     Edge 115, Type (0, 0), None
#     Edge 116, Type (0, 0), None
#     Edge 117, Type (0, 0), None
#     Edge 118, Type (0, 0), None
#     Edge 119, Type (0, 0), None
#     Edge 120, Type (0, 0), None
#     Edge 121, Type (0, 0), None
#     Edge 122, Type (0, 0), None
#     Edge 123, Type (0, 0), None
#     Edge 124, Type (0, 0), None
#     Edge 125, Type (0, 0), None
#     Edge 126, Type (0, 0), None
#     Edge 127, Type (0, 0), None
# Relax obj value: 0.093
# Max RMSD: 0.139
# Mean RMSD: 0.139
data_MOF--net-vcc--node1-LEVNOQ01_clean_sbu_1--edge1-none
_symmetry_space_group_name_H-M    P1
_symmetry_Int_Tables_number       1
_symmetry_cell_setting            triclinic
loop_
_symmetry_equiv_pos_as_xyz
'x, y, z'
_cell_length_a     26.090347
_cell_length_b     30.528958
_cell_length_c     18.269942
_cell_angle_alpha  89.987081
_cell_angle_beta   89.998604
_cell_angle_gamma 90.000159
loop_
_atom_site_label
_atom_site_type_symbol
_atom_site_fract_x
_atom_site_fract_y
_atom_site_fract_z
_atom_type_partial_charge
O0 O 0.34614 -0.04806 0.22448 0.0
Mg1 Mg 0.29512 0.91175 0.16404 0.0
O2 O 0.36895 -0.04769 0.11119 0.0
Mg3 Mg 0.28222 -0.05163 0.06538 0.0
O4 O 0.28869 0.87121 0.07264 0.0
O5 O 0.34308 0.85995 0.16394 0.0
O6 O 0.20287 0.93991 0.01 0.0
O7 O 0.31293 0.93799 0.94635 0.0
Mg8 Mg 0.26565 0.03483 0.95239 0.0
O9 O 0.27401 0.02361 0.06075 0.0
O10 O 0.20075 -0.00835 0.92337 0.0
O11 O 0.3366 0.00544 0.93029 0.0
O12 O 0.26275 0.09097 0.02379 0.0
C13 C 0.21318 0.93976 0.21836 0.0
C14 C 0.3817 -0.04607 0.17855 0.0
C15 C 0.32072 0.84594 0.1063 0.0
C16 C 0.18266 -0.04322 0.95276 0.0
C17 C 0.32774 -0.03187 0.90337 0.0
C18 C 0.26985 0.06456 0.07753 0.0
O19 O 0.22941 0.90113 0.22552 0.0
O20 O 0.23393 -0.03488 0.17192 0.0
O21 O 0.7887 0.19329 0.22451 0.0
Mg22 Mg 0.83969 0.23352 0.16406 0.0
O23 O 0.76588 0.19297 0.11122 0.0
Mg24 Mg 0.85261 0.19693 0.06539 0.0
O25 O 0.84613 0.27409 0.07267 0.0
O26 O 0.79169 0.28529 0.16392 0.0
O27 O 0.93196 0.20542 0.01001 0.0
O28 O 0.8219 0.20733 0.94635 0.0
Mg29 Mg 0.86918 0.11052 0.95237 0.0
O30 O 0.86085 0.12169 0.06073 0.0
O31 O 0.93406 0.15373 0.92334 0.0
O32 O 0.7982 0.13989 0.93037 0.0
O33 O 0.87212 0.05435 0.02375 0.0
C34 C 0.92164 0.20555 0.2184 0.0
C35 C 0.75314 0.19134 0.17858 0.0
C36 C 0.81407 0.29933 0.10632 0.0
C37 C -0.04785 0.18858 0.95275 0.0
C38 C 0.80706 0.17719 0.90341 0.0
C39 C 0.86503 0.08075 0.0775 0.0
O40 O 0.90537 0.24416 0.22557 0.0
O41 O 0.90092 0.18019 0.17194 0.0
O42 O 0.34612 0.19332 0.00723 0.0
Mg43 Mg 0.29511 0.23352 0.06768 0.0
O44 O 0.36894 0.19296 0.12052 0.0
Mg45 Mg 0.28222 0.19691 0.16635 0.0
O46 O 0.28869 0.27408 0.15907 0.0
O47 O 0.34306 0.28532 0.06773 0.0
O48 O 0.20288 0.20538 0.22175 0.0
O49 O 0.31294 0.20731 0.28537 0.0
Mg50 Mg 0.26566 0.11046 0.27937 0.0
O51 O 0.27401 0.12167 0.17101 0.0
O52 O 0.20076 0.15364 0.30839 0.0
O53 O 0.33661 0.13986 0.30144 0.0
O54 O 0.26276 0.05431 0.20797 0.0
C55 C 0.21316 0.20552 0.01339 0.0
C56 C 0.38168 0.19135 0.05316 0.0
C57 C 0.32071 0.29934 0.12537 0.0
C58 C 0.18267 0.18851 0.279 0.0
C59 C 0.32774 0.17717 0.32835 0.0
C60 C 0.26985 0.08073 0.15423 0.0
O61 O 0.22939 0.24414 0.00622 0.0
O62 O 0.23391 0.18016 0.05984 0.0
O63 O 0.78868 -0.04803 0.00723 0.0
Mg64 Mg 0.83967 0.91174 0.06768 0.0
O65 O 0.76588 -0.04769 0.12052 0.0
Mg66 Mg 0.85261 -0.05165 0.16633 0.0
O67 O 0.84613 0.8712 0.1591 0.0
O68 O 0.79166 0.85998 0.0679 0.0
O69 O 0.93197 0.93987 0.22169 0.0
O70 O 0.82192 0.93798 0.28538 0.0
Mg71 Mg 0.8692 0.03478 0.2793 0.0
O72 O 0.86086 0.0236 0.17094 0.0
O73 O 0.93407 -0.00842 0.30835 0.0
O74 O 0.79822 0.00543 0.30135 0.0
O75 O 0.87213 0.09094 0.20792 0.0
C76 C 0.92161 0.93971 0.01329 0.0
C77 C 0.75312 -0.04607 0.05317 0.0
C78 C 0.81406 0.84595 0.1255 0.0
C79 C -0.04783 -0.04328 0.27895 0.0
C80 C 0.80708 -0.03187 0.32831 0.0
C81 C 0.86504 0.06454 0.15417 0.0
O82 O 0.90535 0.9011 0.00615 0.0
O83 O 0.9009 -0.03493 0.05975 0.0
O84 O 0.53867 0.94333 0.75724 0.0
Mg85 Mg 0.58968 -0.01646 0.81766 0.0
O86 O 0.51586 0.94297 0.87053 0.0
Mg87 Mg 0.60259 0.94692 0.91634 0.0
O88 O 0.59611 0.02408 0.90907 0.0
O89 O 0.54171 0.03533 0.81779 0.0
O90 O 0.68194 -0.04461 0.97171 0.0
O91 O 0.57189 -0.0427 0.03537 0.0
Mg92 Mg 0.61917 0.86046 0.02934 0.0
O93 O 0.61081 0.87167 0.92098 0.0
O94 O 0.68406 0.90365 0.05836 0.0
O95 O 0.54821 0.88985 0.05144 0.0
O96 O 0.62207 0.80432 0.95794 0.0
C97 C 0.67162 -0.04446 0.76334 0.0
C98 C 0.50311 0.94135 0.80318 0.0
C99 C 0.56407 0.04934 0.87542 0.0
C100 C 0.70214 0.93853 0.02897 0.0
C101 C 0.55708 0.92716 0.07834 0.0
C102 C 0.61497 0.83073 0.90419 0.0
O103 O 0.65538 -0.00584 0.75617 0.0
O104 O 0.65088 0.93018 0.80979 0.0
O105 O 0.09613 0.70198 0.75722 0.0
Mg106 Mg 0.04513 0.66175 0.81766 0.0
O107 O 0.11893 0.7023 0.87052 0.0
Mg108 Mg 0.03219 0.69835 0.91633 0.0
O109 O 0.03867 0.6212 0.90906 0.0
O110 O 0.09312 0.60998 0.81783 0.0
O111 O -0.04716 0.68986 0.97169 0.0
O112 O 0.06289 0.68795 0.03537 0.0
Mg113 Mg 0.01563 0.78476 0.02934 0.0
O114 O 0.02397 0.77359 0.92098 0.0
O115 O -0.04925 0.74156 0.05837 0.0
O116 O 0.08661 0.75539 0.05135 0.0
O117 O 0.0127 0.84093 0.95796 0.0
C118 C -0.03681 0.68973 0.76329 0.0
C119 C 0.13168 0.70393 0.80316 0.0
C120 C 0.07073 0.59595 0.87543 0.0
C121 C 0.93265 0.70671 0.02895 0.0
C122 C 0.07774 0.71809 0.07831 0.0
C123 C 0.0198 0.81454 0.90421 0.0
O124 O -0.02055 0.65112 0.75613 0.0
O125 O -0.0161 0.71509 0.80976 0.0
O126 O 0.53868 0.70197 0.97448 0.0
Mg127 Mg 0.58969 0.66175 0.91406 0.0
O128 O 0.51587 0.70232 0.8612 0.0
Mg129 Mg 0.60259 0.69837 0.81538 0.0
O130 O 0.59612 0.62121 0.82266 0.0
O131 O 0.54172 0.60996 0.91396 0.0
O132 O 0.68194 0.6899 0.76 0.0
O133 O 0.57189 0.68798 0.69636 0.0
Mg134 Mg 0.61917 0.78482 0.70236 0.0
O135 O 0.61081 0.77361 0.81073 0.0
O136 O 0.68406 0.74163 0.67335 0.0
O137 O 0.54821 0.75543 0.68029 0.0
O138 O 0.62207 0.84097 0.77376 0.0
C139 C 0.67163 0.68975 0.96837 0.0
C140 C 0.50312 0.70395 0.92855 0.0
C141 C 0.56408 0.59595 0.85633 0.0
C142 C 0.70215 0.70676 0.70275 0.0
C143 C 0.55708 0.71812 0.65338 0.0
C144 C 0.61498 0.81455 0.82751 0.0
O145 O 0.65539 0.65113 0.97554 0.0
O146 O 0.65089 0.71511 0.92191 0.0
O147 O 0.09613 0.94333 0.97453 0.0
Mg148 Mg 0.04514 -0.01646 0.91405 0.0
O149 O 0.11894 0.94299 0.8612 0.0
Mg150 Mg 0.0322 0.94693 0.81539 0.0
O151 O 0.03867 0.02408 0.82262 0.0
O152 O 0.09315 0.03531 0.91381 0.0
O153 O -0.04716 -0.0446 0.76003 0.0
O154 O 0.0629 -0.0427 0.69633 0.0
Mg155 Mg 0.01563 0.8605 0.70241 0.0
O156 O 0.02396 0.87169 0.81077 0.0
O157 O -0.04925 0.9037 0.67337 0.0
O158 O 0.0866 0.88986 0.68037 0.0
O159 O 0.01269 0.80434 0.77379 0.0
C160 C -0.0368 -0.04443 0.96842 0.0
C161 C 0.13168 0.94137 0.92857 0.0
C162 C 0.07074 0.04933 0.85622 0.0
C163 C 0.93265 0.93856 0.70277 0.0
C164 C 0.07774 0.92716 0.65341 0.0
C165 C 0.01979 0.83074 0.82754 0.0
O166 O -0.02054 -0.00581 0.97557 0.0
O167 O -0.01608 0.93021 0.92197 0.0
O168 O 0.34614 0.45197 0.72447 0.0
Mg169 Mg 0.29514 0.41175 0.66407 0.0
O170 O 0.36894 0.45232 0.61118 0.0
Mg171 Mg 0.28222 0.44836 0.56538 0.0
O172 O 0.2887 0.37121 0.57267 0.0
O173 O 0.3431 0.35996 0.66395 0.0
O174 O 0.20287 0.43989 0.50999 0.0
O175 O 0.31293 0.43797 0.44635 0.0
Mg176 Mg 0.26564 0.53481 0.45235 0.0
O177 O 0.274 0.52361 0.56072 0.0
O178 O 0.20075 0.49162 0.42334 0.0
O179 O 0.3366 0.50542 0.43028 0.0
O180 O 0.26273 0.59096 0.52375 0.0
C181 C 0.21319 0.43974 0.71838 0.0
C182 C 0.3817 0.45395 0.67853 0.0
C183 C 0.32074 0.34595 0.60633 0.0
C184 C 0.18266 0.45675 0.45274 0.0
C185 C 0.32774 0.46811 0.40337 0.0
C186 C 0.26983 0.56455 0.57749 0.0
O187 O 0.22944 0.40113 0.72557 0.0
O188 O 0.23392 0.4651 0.67191 0.0
O189 O 0.78868 0.69331 0.72451 0.0
Mg190 Mg 0.83966 0.73355 0.66405 0.0
O191 O 0.76587 0.69297 0.61119 0.0
Mg192 Mg 0.85261 0.69693 0.56538 0.0
O193 O 0.84612 0.77408 0.57262 0.0
O194 O 0.79163 0.7853 0.66379 0.0
O195 O 0.93197 0.70541 0.51002 0.0
O196 O 0.82192 0.70729 0.44633 0.0
Mg197 Mg 0.86921 0.6105 0.45242 0.0
O198 O 0.86086 0.62168 0.56078 0.0
O199 O 0.93408 0.65371 0.42337 0.0
O200 O 0.79823 0.63984 0.43036 0.0
O201 O 0.87215 0.55434 0.52381 0.0
C202 C 0.9216 0.70559 0.71843 0.0
C203 C 0.75314 0.69135 0.67855 0.0
C204 C 0.81404 0.79933 0.6062 0.0
C205 C -0.04783 0.68857 0.45277 0.0
C206 C 0.80708 0.67714 0.4034 0.0
C207 C 0.86504 0.58074 0.57755 0.0
O208 O 0.90533 0.7442 0.72558 0.0
O209 O 0.90089 0.68022 0.67196 0.0
O210 O 0.34615 0.69332 0.50725 0.0
Mg211 Mg 0.29514 0.73354 0.56766 0.0
O212 O 0.36895 0.69297 0.62054 0.0
Mg213 Mg 0.28222 0.69691 0.66633 0.0
O214 O 0.2887 0.77407 0.65907 0.0
O215 O 0.34311 0.78533 0.5678 0.0
O216 O 0.20286 0.70539 0.7217 0.0
O217 O 0.31291 0.70729 0.78537 0.0
Mg218 Mg 0.26564 0.61046 0.77932 0.0
O219 O 0.27399 0.62167 0.67096 0.0
O220 O 0.20075 0.65365 0.80835 0.0
O221 O 0.33659 0.63983 0.80142 0.0
O222 O 0.26273 0.55431 0.70792 0.0
C223 C 0.2132 0.70554 0.51333 0.0
C224 C 0.3817 0.69135 0.55319 0.0
C225 C 0.32074 0.79934 0.62542 0.0
C226 C 0.18267 0.68853 0.77896 0.0
C227 C 0.32773 0.67714 0.82834 0.0
C228 C 0.26982 0.58073 0.65418 0.0
O229 O 0.22944 0.74417 0.50616 0.0
O230 O 0.23394 0.68018 0.55978 0.0
O231 O 0.78868 0.45201 0.50723 0.0
Mg232 Mg 0.83966 0.41176 0.56766 0.0
O233 O 0.76588 0.45232 0.62053 0.0
Mg234 Mg 0.85261 0.44835 0.66634 0.0
O235 O 0.84611 0.3712 0.65906 0.0
O236 O 0.79164 0.36 0.56785 0.0
O237 O 0.93196 0.43985 0.72171 0.0
O238 O 0.8219 0.43795 0.78538 0.0
Mg239 Mg 0.86919 0.53477 0.77935 0.0
O240 O 0.86086 0.52359 0.67099 0.0
O241 O 0.93407 0.49155 0.80838 0.0
O242 O 0.79821 0.50541 0.80136 0.0
O243 O 0.87214 0.59093 0.70797 0.0
C244 C 0.92161 0.43972 0.5133 0.0
C245 C 0.75312 0.45396 0.55317 0.0
C246 C 0.81404 0.34596 0.62544 0.0
C247 C -0.04784 0.4567 0.77897 0.0
C248 C 0.80707 0.4681 0.82832 0.0
C249 C 0.86504 0.56454 0.65423 0.0
O250 O 0.90533 0.40111 0.50612 0.0
O251 O 0.90091 0.46507 0.55978 0.0
O252 O 0.53866 0.4433 0.25725 0.0
Mg253 Mg 0.58965 0.48355 0.31763 0.0
O254 O 0.51586 0.44296 0.37055 0.0
Mg255 Mg 0.60259 0.44692 0.41634 0.0
O256 O 0.5961 0.52408 0.40904 0.0
O257 O 0.54167 0.53532 0.3178 0.0
O258 O 0.68195 0.45541 0.4717 0.0
O259 O 0.57189 0.45731 0.53536 0.0
Mg260 Mg 0.61918 0.36048 0.52936 0.0
O261 O 0.61082 0.37168 0.42099 0.0
O262 O 0.68406 0.40368 0.55837 0.0
O263 O 0.54822 0.38986 0.55143 0.0
O264 O 0.6221 0.30433 0.45797 0.0
C265 C 0.6716 0.45556 0.26331 0.0
C266 C 0.50311 0.44133 0.3032 0.0
C267 C 0.56405 0.54934 0.37541 0.0
C268 C 0.70214 0.43855 0.52897 0.0
C269 C 0.55708 0.42717 0.57834 0.0
C270 C 0.61499 0.33074 0.40423 0.0
O271 O 0.65534 0.49417 0.25611 0.0
O272 O 0.65088 0.4302 0.30979 0.0
O273 O 0.09615 0.20197 0.25722 0.0
Mg274 Mg 0.04516 0.16173 0.31766 0.0
O275 O 0.11894 0.2023 0.37055 0.0
Mg276 Mg 0.0322 0.19835 0.41634 0.0
O277 O 0.03867 0.1212 0.4091 0.0
O278 O 0.09319 0.10998 0.31796 0.0
O279 O -0.04717 0.18987 0.47168 0.0
O280 O 0.06287 0.18799 0.5354 0.0
Mg281 Mg 0.01561 0.28478 0.52929 0.0
O282 O 0.02395 0.27359 0.42094 0.0
O283 O -0.04927 0.24157 0.55834 0.0
O284 O 0.08658 0.25544 0.55136 0.0
O285 O 0.01267 0.34094 0.45792 0.0
C286 C -0.03677 0.18969 0.26327 0.0
C287 C 0.13168 0.20392 0.30319 0.0
C288 C 0.07076 0.09595 0.37554 0.0
C289 C 0.93263 0.20672 0.52894 0.0
C290 C 0.07773 0.21813 0.57832 0.0
C291 C 0.01978 0.31454 0.40417 0.0
O292 O -0.0205 0.15108 0.25612 0.0
O293 O -0.01607 0.21505 0.30974 0.0
O294 O 0.53865 0.20198 0.47446 0.0
Mg295 Mg 0.58965 0.16173 0.41408 0.0
O296 O 0.51586 0.20232 0.36117 0.0
Mg297 Mg 0.6026 0.19837 0.3154 0.0
O298 O 0.59611 0.12121 0.32266 0.0
O299 O 0.54166 0.10996 0.41389 0.0
O300 O 0.68196 0.18989 0.26005 0.0
O301 O 0.57192 0.18799 0.19635 0.0
Mg302 Mg 0.61919 0.28481 0.20241 0.0
O303 O 0.61083 0.27361 0.31077 0.0
O304 O 0.68407 0.24162 0.17339 0.0
O305 O 0.54823 0.25545 0.1803 0.0
O306 O 0.6221 0.34097 0.27379 0.0
C307 C 0.67159 0.18972 0.46843 0.0
C308 C 0.5031 0.20395 0.42852 0.0
C309 C 0.56405 0.09595 0.35628 0.0
C310 C 0.70215 0.20675 0.20279 0.0
C311 C 0.55709 0.21814 0.15339 0.0
C312 C 0.615 0.31455 0.32754 0.0
O313 O 0.65534 0.15111 0.47561 0.0
O314 O 0.65086 0.21509 0.42196 0.0
O315 O 0.09614 0.44329 0.47452 0.0
Mg316 Mg 0.04516 0.48353 0.41408 0.0
O317 O 0.11894 0.44297 0.36119 0.0
Mg318 Mg 0.0322 0.44693 0.31538 0.0
O319 O 0.03869 0.52408 0.32266 0.0
O320 O 0.09317 0.53529 0.41384 0.0
O321 O -0.04715 0.45542 0.26002 0.0
O322 O 0.0629 0.45733 0.19634 0.0
Mg323 Mg 0.01562 0.36052 0.20238 0.0
O324 O 0.02396 0.37169 0.31073 0.0
O325 O -0.04926 0.40373 0.17335 0.0
O326 O 0.0866 0.38988 0.18036 0.0
O327 O 0.01268 0.30435 0.27375 0.0
C328 C -0.03679 0.45558 0.46844 0.0
C329 C 0.13168 0.44135 0.42855 0.0
C330 C 0.07077 0.54932 0.35626 0.0
C331 C 0.93265 0.43858 0.20276 0.0
C332 C 0.07774 0.42718 0.1534 0.0
C333 C 0.01978 0.33075 0.3275 0.0
O334 O -0.02051 0.49418 0.47561 0.0
O335 O -0.01609 0.43022 0.42195 0.0
O336 O 0.84612 -0.04801 0.72455 0.0
Mg337 Mg 0.79517 0.91169 0.66418 0.0
O338 O 0.86892 -0.04767 0.61122 0.0
Mg339 Mg 0.78219 -0.05163 0.56543 0.0
O340 O 0.78871 0.87124 0.57268 0.0
O341 O 0.84322 0.85996 0.66387 0.0
O342 O 0.70283 0.93987 0.5101 0.0
O343 O 0.81287 0.93803 0.44638 0.0
Mg344 Mg 0.76558 0.03479 0.45245 0.0
O345 O 0.77393 0.0236 0.56081 0.0
O346 O 0.70072 -0.00842 0.4234 0.0
O347 O 0.83657 0.00551 0.43024 0.0
O348 O 0.76263 0.09095 0.5238 0.0
C349 C 0.71321 0.93967 0.7185 0.0
C350 C 0.88166 -0.04604 0.67858 0.0
C351 C 0.82083 0.846 0.60623 0.0
C352 C 0.68263 -0.04329 0.45282 0.0
C353 C 0.82776 -0.03184 0.40343 0.0
C354 C 0.76975 0.06455 0.57756 0.0
O355 O 0.72947 0.90105 0.72568 0.0
O356 O 0.73393 -0.03497 0.67202 0.0
O357 O 0.28871 0.19321 0.72452 0.0
Mg358 Mg 0.33965 0.23352 0.66412 0.0
O359 O 0.26588 0.19293 0.61124 0.0
Mg360 Mg 0.35259 0.19691 0.56539 0.0
O361 O 0.34607 0.27406 0.57267 0.0
O362 O 0.2916 0.28526 0.66395 0.0
O363 O 0.43192 0.20541 0.50997 0.0
O364 O 0.32185 0.20729 0.44637 0.0
Mg365 Mg 0.36915 0.11048 0.45235 0.0
O366 O 0.36083 0.12168 0.56071 0.0
O367 O 0.43402 0.15369 0.42332 0.0
O368 O 0.29816 0.13981 0.43027 0.0
O369 O 0.3721 0.05433 0.52376 0.0
C370 C 0.42162 0.20557 0.7184 0.0
C371 C 0.25314 0.19127 0.6786 0.0
C372 C 0.31397 0.29927 0.60631 0.0
C373 C 0.45211 0.18856 0.45271 0.0
C374 C 0.30699 0.17715 0.40343 0.0
C375 C 0.365 0.08074 0.5775 0.0
O376 O 0.40534 0.24417 0.7256 0.0
O377 O 0.40091 0.18021 0.67193 0.0
O378 O 0.8461 0.19328 0.50718 0.0
Mg379 Mg 0.79515 0.23357 0.56754 0.0
O380 O 0.86891 0.19295 0.6205 0.0
Mg381 Mg 0.78219 0.19692 0.66631 0.0
O382 O 0.78871 0.27406 0.65902 0.0
O383 O 0.84318 0.28532 0.56775 0.0
O384 O 0.70284 0.20543 0.72167 0.0
O385 O 0.81288 0.20729 0.78535 0.0
Mg386 Mg 0.76559 0.11051 0.77935 0.0
O387 O 0.77393 0.12169 0.67098 0.0
O388 O 0.70073 0.15373 0.80837 0.0
O389 O 0.83658 0.13981 0.8015 0.0
O390 O 0.76264 0.05435 0.708 0.0
C391 C 0.71318 0.20559 0.51327 0.0
C392 C 0.88164 0.19132 0.55314 0.0
C393 C 0.82081 0.29929 0.62541 0.0
C394 C 0.68264 0.18859 0.77894 0.0
C395 C 0.82777 0.17716 0.8283 0.0
C396 C 0.76975 0.08075 0.65423 0.0
O397 O 0.72944 0.24421 0.50607 0.0
O398 O 0.7339 0.18023 0.55975 0.0
O399 O 0.2887 -0.04793 0.50721 0.0
Mg400 Mg 0.33964 0.91175 0.5676 0.0
O401 O 0.26588 -0.04765 0.62049 0.0
Mg402 Mg 0.35259 -0.05162 0.66632 0.0
O403 O 0.34607 0.87123 0.65905 0.0
O404 O 0.29159 0.86002 0.56781 0.0
O405 O 0.43194 0.93989 0.72172 0.0
O406 O 0.32187 0.93801 0.78535 0.0
Mg407 Mg 0.36916 0.03481 0.77932 0.0
O408 O 0.36083 0.02361 0.67097 0.0
O409 O 0.43403 -0.0084 0.80836 0.0
O410 O 0.29817 0.00548 0.80144 0.0
O411 O 0.3721 0.09096 0.70791 0.0
C412 C 0.4216 0.93971 0.51329 0.0
C413 C 0.25314 -0.04599 0.55313 0.0
C414 C 0.31397 0.84601 0.62544 0.0
C415 C 0.45212 -0.04326 0.77897 0.0
C416 C 0.307 -0.03186 0.82828 0.0
C417 C 0.36501 0.06455 0.65418 0.0
O418 O 0.40533 0.9011 0.5061 0.0
O419 O 0.4009 -0.03493 0.55976 0.0
O420 O 0.03869 0.94328 0.25717 0.0
Mg421 Mg 0.08963 -0.0164 0.31752 0.0
O422 O 0.01589 0.94294 0.3705 0.0
Mg423 Mg 0.10262 0.94692 0.41628 0.0
O424 O 0.0961 0.02404 0.40904 0.0
O425 O 0.04156 0.03533 0.31787 0.0
O426 O 0.18199 -0.04458 0.47161 0.0
O427 O 0.07195 -0.04275 0.53533 0.0
Mg428 Mg 0.11924 0.8605 0.52928 0.0
O429 O 0.11089 0.87168 0.42091 0.0
O430 O 0.18409 0.90372 0.55832 0.0
O431 O 0.04824 0.88978 0.55149 0.0
O432 O 0.12219 0.80434 0.45793 0.0
C433 C 0.17159 -0.04437 0.26321 0.0
C434 C 0.00316 0.94131 0.30314 0.0
C435 C 0.06397 0.04928 0.37551 0.0
C436 C 0.20217 0.93859 0.5289 0.0
C437 C 0.05705 0.92712 0.57829 0.0
C438 C 0.11508 0.83073 0.40417 0.0
O439 O 0.15533 -0.00576 0.25602 0.0
O440 O 0.15088 0.93026 0.30968 0.0
O441 O 0.59611 0.70207 0.25721 0.0
Mg442 Mg 0.54516 0.66176 0.3176 0.0
O443 O 0.61893 0.70234 0.37049 0.0
Mg444 Mg 0.53222 0.69837 0.41633 0.0
O445 O 0.53873 0.62123 0.40905 0.0
O446 O 0.5932 0.61001 0.31779 0.0
O447 O 0.45288 0.68989 0.47173 0.0
O448 O 0.56294 0.68799 0.53536 0.0
Mg449 Mg 0.51566 0.7848 0.52935 0.0
O450 O 0.52399 0.77361 0.421 0.0
O451 O 0.45078 0.7416 0.55839 0.0
O452 O 0.58665 0.75547 0.55144 0.0
O453 O 0.51272 0.84096 0.45795 0.0
C454 C 0.4632 0.68972 0.2633 0.0
C455 C 0.63167 0.704 0.30313 0.0
C456 C 0.57082 0.59601 0.37542 0.0
C457 C 0.43269 0.70674 0.52899 0.0
C458 C 0.57782 0.71813 0.57829 0.0
C459 C 0.51982 0.81455 0.40421 0.0
O460 O 0.47948 0.65111 0.25611 0.0
O461 O 0.4839 0.71508 0.30977 0.0
O462 O 0.0387 0.70201 0.47454 0.0
Mg463 Mg 0.08965 0.6617 0.4142 0.0
O464 O 0.0159 0.70233 0.36121 0.0
Mg465 Mg 0.10263 0.69836 0.31542 0.0
O466 O 0.0961 0.62123 0.32271 0.0
O467 O 0.0416 0.60996 0.41393 0.0
O468 O 0.18198 0.68985 0.26008 0.0
O469 O 0.07195 0.688 0.19638 0.0
Mg470 Mg 0.11923 0.78477 0.20239 0.0
O471 O 0.11089 0.77359 0.31076 0.0
O472 O 0.18408 0.74154 0.17336 0.0
O473 O 0.04824 0.75547 0.18022 0.0
O474 O 0.12218 0.84093 0.27373 0.0
C475 C 0.17161 0.68967 0.46849 0.0
C476 C 0.00316 0.70397 0.42857 0.0
C477 C 0.06398 0.596 0.35628 0.0
C478 C 0.20218 0.70668 0.2028 0.0
C479 C 0.05705 0.71812 0.15342 0.0
C480 C 0.11508 0.81454 0.3275 0.0
O481 O 0.15534 0.65106 0.47569 0.0
O482 O 0.15089 0.71503 0.422 0.0
O483 O 0.59611 0.94324 0.47455 0.0
Mg484 Mg 0.54517 -0.01646 0.41414 0.0
O485 O 0.61894 0.94294 0.36124 0.0
Mg486 Mg 0.53222 0.94691 0.3154 0.0
O487 O 0.53873 0.02405 0.32267 0.0
O488 O 0.59322 0.03528 0.4139 0.0
O489 O 0.45287 -0.04461 0.26001 0.0
O490 O 0.56294 -0.04272 0.19637 0.0
Mg491 Mg 0.51566 0.86048 0.20239 0.0
O492 O 0.52399 0.87168 0.31074 0.0
O493 O 0.45078 0.90368 0.17336 0.0
O494 O 0.58665 0.88981 0.18028 0.0
O495 O 0.51273 0.80432 0.2738 0.0
C496 C 0.46321 -0.04443 0.46844 0.0
C497 C 0.63166 0.9413 0.4286 0.0
C498 C 0.57083 0.04927 0.35627 0.0
C499 C 0.43269 0.93854 0.20275 0.0
C500 C 0.57781 0.92715 0.15344 0.0
C501 C 0.51981 0.83073 0.32753 0.0
O502 O 0.47948 -0.00582 0.47562 0.0
O503 O 0.48391 0.93021 0.42196 0.0
O504 O 0.84612 0.45203 0.22454 0.0
Mg505 Mg 0.79517 0.41172 0.1642 0.0
O506 O 0.86892 0.45234 0.11121 0.0
Mg507 Mg 0.78219 0.44836 0.06541 0.0
O508 O 0.78873 0.37123 0.07273 0.0
O509 O 0.84321 0.35998 0.16398 0.0
O510 O 0.70284 0.43985 0.01006 0.0
O511 O 0.81289 0.438 0.94638 0.0
Mg512 Mg 0.76559 0.53477 0.95237 0.0
O513 O 0.77393 0.52359 0.06074 0.0
O514 O 0.70074 0.49155 0.92335 0.0
O515 O 0.83659 0.50547 0.93023 0.0
O516 O 0.76263 0.59094 0.02372 0.0
C517 C 0.7132 0.43969 0.21847 0.0
C518 C 0.88166 0.45398 0.17856 0.0
C519 C 0.82084 0.346 0.10633 0.0
C520 C 0.68265 0.45669 0.95278 0.0
C521 C 0.82778 0.46813 0.90343 0.0
C522 C 0.76974 0.56454 0.07748 0.0
O523 O 0.72947 0.40108 0.22569 0.0
O524 O 0.73391 0.46505 0.17198 0.0
O525 O 0.2887 0.69321 0.22454 0.0
Mg526 Mg 0.33963 0.73353 0.16415 0.0
O527 O 0.26588 0.69292 0.11122 0.0
Mg528 Mg 0.3526 0.69691 0.0654 0.0
O529 O 0.34606 0.77405 0.07268 0.0
O530 O 0.29157 0.78526 0.16392 0.0
O531 O 0.43195 0.7054 0.01002 0.0
O532 O 0.32189 0.70727 0.94637 0.0
Mg533 Mg 0.36918 0.61048 0.95241 0.0
O534 O 0.36085 0.62167 0.06076 0.0
O535 O 0.43405 0.65369 0.92337 0.0
O536 O 0.29819 0.63979 0.93029 0.0
O537 O 0.37213 0.55432 0.02381 0.0
C538 C 0.4216 0.70558 0.21845 0.0
C539 C 0.25315 0.69127 0.17858 0.0
C540 C 0.31395 0.79927 0.10629 0.0
C541 C 0.45213 0.68855 0.95276 0.0
C542 C 0.30701 0.67713 0.90344 0.0
C543 C 0.36503 0.58073 0.07755 0.0
O544 O 0.40531 0.74419 0.22564 0.0
O545 O 0.4009 0.68022 0.17197 0.0
O546 O 0.84612 0.69327 0.00718 0.0
Mg547 Mg 0.79518 0.73359 0.06752 0.0
O548 O 0.86892 0.69294 0.12051 0.0
Mg549 Mg 0.78219 0.69691 0.16628 0.0
O550 O 0.78873 0.77405 0.15903 0.0
O551 O 0.84324 0.78532 0.06783 0.0
O552 O 0.70283 0.70542 0.22162 0.0
O553 O 0.81286 0.70725 0.28533 0.0
Mg554 Mg 0.76557 0.61049 0.27926 0.0
O555 O 0.77392 0.62168 0.1709 0.0
O556 O 0.70072 0.65372 0.30831 0.0
O557 O 0.83657 0.63977 0.30147 0.0
O558 O 0.76262 0.55433 0.20791 0.0
C559 C 0.71322 0.70562 0.01321 0.0
C560 C 0.88166 0.69131 0.05315 0.0
C561 C 0.82085 0.79928 0.12547 0.0
C562 C 0.68264 0.68858 0.2789 0.0
C563 C 0.82776 0.67712 0.32828 0.0
C564 C 0.76973 0.58073 0.15415 0.0
O565 O 0.72949 0.74424 0.00602 0.0
O566 O 0.73393 0.68026 0.05969 0.0
O567 O 0.28869 0.45209 0.00722 0.0
Mg568 Mg 0.33963 0.41176 0.06758 0.0
O569 O 0.26588 0.45236 0.12051 0.0
Mg570 Mg 0.35259 0.44837 0.16633 0.0
O571 O 0.34606 0.37122 0.15903 0.0
O572 O 0.29158 0.36003 0.06777 0.0
O573 O 0.43193 0.43987 0.22174 0.0
O574 O 0.32186 0.43799 0.28536 0.0
Mg575 Mg 0.36916 0.53479 0.27937 0.0
O576 O 0.36084 0.5236 0.17101 0.0
O577 O 0.43403 0.49158 0.3084 0.0
O578 O 0.29817 0.50546 0.30144 0.0
O579 O 0.37211 0.59095 0.20796 0.0
C580 C 0.4216 0.43971 0.01329 0.0
C581 C 0.25313 0.45403 0.05315 0.0
C582 C 0.31395 0.34602 0.1254 0.0
C583 C 0.45212 0.45672 0.279 0.0
C584 C 0.30699 0.46812 0.32829 0.0
C585 C 0.36503 0.56454 0.15423 0.0
O586 O 0.40531 0.40111 0.00607 0.0
O587 O 0.40091 0.46507 0.05978 0.0
O588 O 0.03868 0.44324 0.75719 0.0
Mg589 Mg 0.08962 0.48357 0.8175 0.0
O590 O 0.01589 0.44293 0.87052 0.0
Mg591 Mg 0.10262 0.44692 0.9163 0.0
O592 O 0.09607 0.52405 0.90899 0.0
O593 O 0.04157 0.5353 0.81778 0.0
O594 O 0.18197 0.45544 0.97164 0.0
O595 O 0.07193 0.45728 0.03534 0.0
Mg596 Mg 0.11923 0.36052 0.02934 0.0
O597 O 0.11089 0.37169 0.92097 0.0
O598 O 0.18407 0.40375 0.05837 0.0
O599 O 0.04823 0.38981 0.05148 0.0
O600 O 0.1222 0.30435 0.958 0.0
C601 C 0.17159 0.45561 0.76322 0.0
C602 C 0.00315 0.44129 0.80316 0.0
C603 C 0.06395 0.54928 0.87541 0.0
C604 C 0.20215 0.43861 0.02894 0.0
C605 C 0.05704 0.42715 0.07829 0.0
C606 C 0.11508 0.33074 0.90423 0.0
O607 O 0.15531 0.49422 0.756 0.0
O608 O 0.15089 0.43025 0.80972 0.0
O609 O 0.59612 0.20207 0.75719 0.0
Mg610 Mg 0.54518 0.16175 0.81757 0.0
O611 O 0.61893 0.20235 0.87051 0.0
Mg612 Mg 0.53221 0.19838 0.91631 0.0
O613 O 0.53873 0.12123 0.90904 0.0
O614 O 0.59324 0.11002 0.81781 0.0
O615 O 0.45285 0.18989 0.97168 0.0
O616 O 0.56291 0.18801 0.03536 0.0
Mg617 Mg 0.51563 0.2848 0.02931 0.0
O618 O 0.52397 0.27361 0.92096 0.0
O619 O 0.45076 0.2416 0.05834 0.0
O620 O 0.58662 0.25549 0.05143 0.0
O621 O 0.51269 0.34096 0.95791 0.0
C622 C 0.46322 0.1897 0.76325 0.0
C623 C 0.63166 0.20401 0.80315 0.0
C624 C 0.57085 0.09602 0.87544 0.0
C625 C 0.43267 0.20674 0.02895 0.0
C626 C 0.5778 0.21815 0.07828 0.0
C627 C 0.51979 0.31455 0.90418 0.0
O628 O 0.47951 0.1511 0.75606 0.0
O629 O 0.48392 0.21506 0.80973 0.0
O630 O 0.03867 0.20202 0.97454 0.0
Mg631 Mg 0.08961 0.16169 0.91423 0.0
O632 O 0.01589 0.20235 0.8612 0.0
Mg633 Mg 0.10263 0.19837 0.81545 0.0
O634 O 0.09608 0.12124 0.82271 0.0
O635 O 0.04153 0.10997 0.91386 0.0
O636 O 0.18199 0.18985 0.76013 0.0
O637 O 0.07196 0.18803 0.69639 0.0
Mg638 Mg 0.11925 0.28478 0.70246 0.0
O639 O 0.1109 0.2736 0.81083 0.0
O640 O 0.18409 0.24155 0.67341 0.0
O641 O 0.04825 0.25551 0.68026 0.0
O642 O 0.12221 0.34094 0.7738 0.0
C643 C 0.17156 0.18965 0.96855 0.0
C644 C 0.00314 0.20399 0.92856 0.0
C645 C 0.06395 0.096 0.85623 0.0
C646 C 0.20217 0.20669 0.70283 0.0
C647 C 0.05706 0.21816 0.65345 0.0
C648 C 0.1151 0.31454 0.82757 0.0
O649 O 0.15529 0.15103 0.97574 0.0
O650 O 0.15087 0.21501 0.92206 0.0
O651 O 0.59612 0.44321 0.97453 0.0
Mg652 Mg 0.54519 0.48353 0.91416 0.0
O653 O 0.61894 0.44293 0.86121 0.0
Mg654 Mg 0.53222 0.44692 0.81539 0.0
O655 O 0.53874 0.52406 0.8227 0.0
O656 O 0.59323 0.53527 0.91394 0.0
O657 O 0.45287 0.45541 0.76 0.0
O658 O 0.56294 0.4573 0.69636 0.0
Mg659 Mg 0.51565 0.36049 0.70236 0.0
O660 O 0.52397 0.37168 0.81071 0.0
O661 O 0.45078 0.4037 0.67333 0.0
O662 O 0.58665 0.38982 0.68028 0.0
O663 O 0.51271 0.30433 0.77376 0.0
C664 C 0.46321 0.45557 0.96845 0.0
C665 C 0.63167 0.44127 0.92857 0.0
C666 C 0.57085 0.54927 0.85631 0.0
C667 C 0.43269 0.43856 0.70273 0.0
C668 C 0.57781 0.42716 0.65343 0.0
C669 C 0.51979 0.33074 0.82749 0.0
O670 O 0.47951 0.49418 0.97566 0.0
O671 O 0.48391 0.43022 0.92195 0.0
loop_
_geom_bond_atom_site_label_1
_geom_bond_atom_site_label_2
_geom_bond_distance
_geom_bond_site_symmetry_2
_ccdc_geom_bond_type
O0 Mg1 1.990 . S
O0 C14 1.253 . S
Mg1 O0 1.990 . S
Mg1 O4 2.180 . S
Mg1 O5 2.117 . S
Mg1 O19 2.030 . S
O2 Mg3 2.072 . S
O2 C14 1.260 1_545 S
Mg3 O2 2.072 . S
Mg3 O4 2.101 1_545 S
Mg3 O6 2.079 1_545 S
Mg3 O7 2.073 1_544 S
Mg3 O9 2.097 . S
Mg3 O20 2.079 . S
O4 Mg1 2.180 . S
O4 Mg3 2.101 1_565 S
O4 C15 1.279 . S
O5 Mg1 2.117 . S
O5 C15 1.250 . S
O6 Mg3 2.079 1_565 S
O6 C16 1.264 1_564 S
O7 Mg3 2.073 1_566 S
O7 C17 1.260 1_565 S
Mg8 O9 2.180 1_556 S
Mg8 O10 2.030 . S
Mg8 O11 1.990 . S
Mg8 O12 2.117 1_556 S
O9 Mg3 2.097 . S
O9 Mg8 2.180 1_554 S
O9 C18 1.279 . S
O10 Mg8 2.030 . S
O10 C16 1.248 . S
O11 Mg8 1.990 . S
O11 C17 1.253 . S
O12 Mg8 2.117 1_554 S
O12 C18 1.250 . S
C13 O19 1.248 . S
C13 O20 1.263 1_565 S
C14 O0 1.253 . S
C14 O2 1.260 1_565 S
C15 O4 1.279 . S
C15 O5 1.250 . S
C16 O6 1.264 1_546 S
C16 O10 1.248 . S
C17 O7 1.260 1_545 S
C17 O11 1.253 . S
C18 O9 1.279 . S
C18 O12 1.250 . S
O19 Mg1 2.030 . S
O19 C13 1.248 . S
O20 Mg3 2.079 . S
O20 C13 1.263 1_545 S
O21 Mg22 1.990 . S
O21 C35 1.253 . S
Mg22 O21 1.990 . S
Mg22 O25 2.180 . S
Mg22 O26 2.117 . S
Mg22 O40 2.030 . S
O23 Mg24 2.072 . S
O23 C35 1.260 . S
Mg24 O23 2.072 . S
Mg24 O25 2.099 . S
Mg24 O27 2.079 1_655 S
Mg24 O28 2.072 1_554 S
Mg24 O30 2.099 . S
Mg24 O41 2.079 . S
O25 Mg22 2.180 . S
O25 Mg24 2.099 . S
O25 C36 1.279 . S
O26 Mg22 2.117 . S
O26 C36 1.250 . S
O27 Mg24 2.079 1_455 S
O27 C37 1.264 1_554 S
O28 Mg24 2.072 1_556 S
O28 C38 1.260 . S
Mg29 O30 2.180 1_556 S
Mg29 O31 2.030 1_655 S
Mg29 O32 1.990 . S
Mg29 O33 2.117 1_556 S
O30 Mg24 2.099 . S
O30 Mg29 2.180 1_554 S
O30 C39 1.279 . S
O31 Mg29 2.030 1_455 S
O31 C37 1.248 . S
O32 Mg29 1.990 . S
O32 C38 1.253 . S
O33 Mg29 2.117 1_554 S
O33 C39 1.250 . S
C34 O40 1.248 . S
C34 O41 1.264 . S
C35 O21 1.253 . S
C35 O23 1.260 . S
C36 O25 1.279 . S
C36 O26 1.250 . S
C37 O27 1.264 1_556 S
C37 O31 1.248 . S
C38 O28 1.260 . S
C38 O32 1.253 . S
C39 O30 1.279 . S
C39 O33 1.250 . S
O40 Mg22 2.030 . S
O40 C34 1.248 . S
O41 Mg24 2.079 . S
O41 C34 1.264 . S
O42 Mg43 1.990 . S
O42 C56 1.253 . S
Mg43 O42 1.990 . S
Mg43 O46 2.180 . S
Mg43 O47 2.117 . S
Mg43 O61 2.030 1_554 S
O44 Mg45 2.072 . S
O44 C56 1.260 . S
Mg45 O44 2.072 . S
Mg45 O46 2.099 . S
Mg45 O48 2.079 . S
Mg45 O49 2.072 . S
Mg45 O51 2.099 . S
Mg45 O62 2.079 . S
O46 Mg43 2.180 . S
O46 Mg45 2.099 . S
O46 C57 1.279 . S
O47 Mg43 2.117 . S
O47 C57 1.250 . S
O48 Mg45 2.079 . S
O48 C58 1.264 . S
O49 Mg45 2.072 . S
O49 C59 1.260 . S
Mg50 O51 2.180 . S
Mg50 O52 2.030 . S
Mg50 O53 1.990 . S
Mg50 O54 2.117 . S
O51 Mg45 2.099 . S
O51 Mg50 2.180 . S
O51 C60 1.279 . S
O52 Mg50 2.030 . S
O52 C58 1.248 . S
O53 Mg50 1.990 . S
O53 C59 1.253 . S
O54 Mg50 2.117 . S
O54 C60 1.250 . S
C55 O61 1.248 1_554 S
C55 O62 1.264 . S
C56 O42 1.253 . S
C56 O44 1.260 . S
C57 O46 1.279 . S
C57 O47 1.250 . S
C58 O48 1.264 . S
C58 O52 1.248 . S
C59 O49 1.260 . S
C59 O53 1.253 . S
C60 O51 1.279 . S
C60 O54 1.250 . S
O61 Mg43 2.030 1_556 S
O61 C55 1.248 1_556 S
O62 Mg45 2.079 . S
O62 C55 1.264 . S
O63 Mg64 1.990 . S
O63 C77 1.253 . S
Mg64 O63 1.990 . S
Mg64 O67 2.180 . S
Mg64 O68 2.117 . S
Mg64 O82 2.030 1_554 S
O65 Mg66 2.072 . S
O65 C77 1.260 1_545 S
Mg66 O65 2.072 . S
Mg66 O67 2.101 1_545 S
Mg66 O69 2.079 1_645 S
Mg66 O70 2.073 1_545 S
Mg66 O72 2.097 . S
Mg66 O83 2.079 . S
O67 Mg64 2.180 . S
O67 Mg66 2.101 1_565 S
O67 C78 1.279 . S
O68 Mg64 2.117 . S
O68 C78 1.250 . S
O69 Mg66 2.079 1_465 S
O69 C79 1.264 1_565 S
O70 Mg66 2.073 1_565 S
O70 C80 1.260 1_565 S
Mg71 O72 2.180 . S
Mg71 O73 2.030 1_655 S
Mg71 O74 1.990 . S
Mg71 O75 2.117 . S
O72 Mg66 2.097 . S
O72 Mg71 2.180 . S
O72 C81 1.279 . S
O73 Mg71 2.030 1_455 S
O73 C79 1.248 . S
O74 Mg71 1.990 . S
O74 C80 1.253 . S
O75 Mg71 2.117 . S
O75 C81 1.250 . S
C76 O82 1.248 1_554 S
C76 O83 1.263 1_565 S
C77 O63 1.253 . S
C77 O65 1.260 1_565 S
C78 O67 1.279 . S
C78 O68 1.250 . S
C79 O69 1.264 1_545 S
C79 O73 1.248 . S
C80 O70 1.260 1_545 S
C80 O74 1.253 . S
C81 O72 1.279 . S
C81 O75 1.250 . S
O82 Mg64 2.030 1_556 S
O82 C76 1.248 1_556 S
O83 Mg66 2.079 . S
O83 C76 1.263 1_545 S
O84 Mg85 1.990 . S
O84 C98 1.253 . S
Mg85 O84 1.990 . S
Mg85 O88 2.180 . S
Mg85 O89 2.117 . S
Mg85 O103 2.030 . S
O86 Mg87 2.072 . S
O86 C98 1.260 1_565 S
Mg87 O86 2.072 . S
Mg87 O88 2.101 1_565 S
Mg87 O90 2.079 1_565 S
Mg87 O91 2.073 1_566 S
Mg87 O93 2.097 . S
Mg87 O104 2.079 . S
O88 Mg85 2.180 . S
O88 Mg87 2.101 1_545 S
O88 C99 1.279 . S
O89 Mg85 2.117 . S
O89 C99 1.250 . S
O90 Mg87 2.079 1_545 S
O90 C100 1.264 1_546 S
O91 Mg87 2.073 1_544 S
O91 C101 1.260 1_545 S
Mg92 O93 2.180 1_554 S
Mg92 O94 2.030 . S
Mg92 O95 1.990 . S
Mg92 O96 2.117 1_554 S
O93 Mg87 2.097 . S
O93 Mg92 2.180 1_556 S
O93 C102 1.279 . S
O94 Mg92 2.030 . S
O94 C100 1.248 . S
O95 Mg92 1.990 . S
O95 C101 1.253 . S
O96 Mg92 2.117 1_556 S
O96 C102 1.250 . S
C97 O103 1.248 . S
C97 O104 1.263 1_545 S
C98 O84 1.253 . S
C98 O86 1.260 1_545 S
C99 O88 1.279 . S
C99 O89 1.250 . S
C100 O90 1.264 1_564 S
C100 O94 1.248 . S
C101 O91 1.260 1_565 S
C101 O95 1.253 . S
C102 O93 1.279 . S
C102 O96 1.250 . S
O103 Mg85 2.030 . S
O103 C97 1.248 . S
O104 Mg87 2.079 . S
O104 C97 1.263 1_565 S
O105 Mg106 1.990 . S
O105 C119 1.253 . S
Mg106 O105 1.990 . S
Mg106 O109 2.180 . S
Mg106 O110 2.117 . S
Mg106 O124 2.030 . S
O107 Mg108 2.072 . S
O107 C119 1.260 . S
Mg108 O107 2.072 . S
Mg108 O109 2.099 . S
Mg108 O111 2.079 1_455 S
Mg108 O112 2.072 1_556 S
Mg108 O114 2.099 . S
Mg108 O125 2.079 . S
O109 Mg106 2.180 . S
O109 Mg108 2.099 . S
O109 C120 1.279 . S
O110 Mg106 2.117 . S
O110 C120 1.250 . S
O111 Mg108 2.079 1_655 S
O111 C121 1.264 1_556 S
O112 Mg108 2.072 1_554 S
O112 C122 1.260 . S
Mg113 O114 2.180 1_554 S
Mg113 O115 2.030 1_455 S
Mg113 O116 1.990 . S
Mg113 O117 2.117 1_554 S
O114 Mg108 2.099 . S
O114 Mg113 2.180 1_556 S
O114 C123 1.279 . S
O115 Mg113 2.030 1_655 S
O115 C121 1.248 . S
O116 Mg113 1.990 . S
O116 C122 1.253 . S
O117 Mg113 2.117 1_556 S
O117 C123 1.250 . S
C118 O124 1.248 . S
C118 O125 1.264 . S
C119 O105 1.253 . S
C119 O107 1.260 . S
C120 O109 1.279 . S
C120 O110 1.250 . S
C121 O111 1.264 1_554 S
C121 O115 1.248 . S
C122 O112 1.260 . S
C122 O116 1.253 . S
C123 O114 1.279 . S
C123 O117 1.250 . S
O124 Mg106 2.030 . S
O124 C118 1.248 . S
O125 Mg108 2.079 . S
O125 C118 1.264 . S
O126 Mg127 1.990 . S
O126 C140 1.253 . S
Mg127 O126 1.990 . S
Mg127 O130 2.180 . S
Mg127 O131 2.117 . S
Mg127 O145 2.030 1_556 S
O128 Mg129 2.072 . S
O128 C140 1.260 . S
Mg129 O128 2.072 . S
Mg129 O130 2.099 . S
Mg129 O132 2.079 . S
Mg129 O133 2.072 . S
Mg129 O135 2.099 . S
Mg129 O146 2.079 . S
O130 Mg127 2.180 . S
O130 Mg129 2.099 . S
O130 C141 1.279 . S
O131 Mg127 2.117 . S
O131 C141 1.250 . S
O132 Mg129 2.079 . S
O132 C142 1.264 . S
O133 Mg129 2.072 . S
O133 C143 1.260 . S
Mg134 O135 2.180 . S
Mg134 O136 2.030 . S
Mg134 O137 1.990 . S
Mg134 O138 2.117 . S
O135 Mg129 2.099 . S
O135 Mg134 2.180 . S
O135 C144 1.279 . S
O136 Mg134 2.030 . S
O136 C142 1.248 . S
O137 Mg134 1.990 . S
O137 C143 1.253 . S
O138 Mg134 2.117 . S
O138 C144 1.250 . S
C139 O145 1.248 1_556 S
C139 O146 1.264 . S
C140 O126 1.253 . S
C140 O128 1.260 . S
C141 O130 1.279 . S
C141 O131 1.250 . S
C142 O132 1.264 . S
C142 O136 1.248 . S
C143 O133 1.260 . S
C143 O137 1.253 . S
C144 O135 1.279 . S
C144 O138 1.250 . S
O145 Mg127 2.030 1_554 S
O145 C139 1.248 1_554 S
O146 Mg129 2.079 . S
O146 C139 1.264 . S
O147 Mg148 1.990 . S
O147 C161 1.253 . S
Mg148 O147 1.990 . S
Mg148 O151 2.180 . S
Mg148 O152 2.117 . S
Mg148 O166 2.030 1_556 S
O149 Mg150 2.072 . S
O149 C161 1.260 1_565 S
Mg150 O149 2.072 . S
Mg150 O151 2.101 1_565 S
Mg150 O153 2.079 1_465 S
Mg150 O154 2.073 1_565 S
Mg150 O156 2.097 . S
Mg150 O167 2.079 . S
O151 Mg148 2.180 . S
O151 Mg150 2.101 1_545 S
O151 C162 1.279 . S
O152 Mg148 2.117 . S
O152 C162 1.250 . S
O153 Mg150 2.079 1_645 S
O153 C163 1.264 1_545 S
O154 Mg150 2.073 1_545 S
O154 C164 1.260 1_545 S
Mg155 O156 2.180 . S
Mg155 O157 2.030 1_455 S
Mg155 O158 1.990 . S
Mg155 O159 2.117 . S
O156 Mg150 2.097 . S
O156 Mg155 2.180 . S
O156 C165 1.279 . S
O157 Mg155 2.030 1_655 S
O157 C163 1.248 . S
O158 Mg155 1.990 . S
O158 C164 1.253 . S
O159 Mg155 2.117 . S
O159 C165 1.250 . S
C160 O166 1.248 1_556 S
C160 O167 1.263 1_545 S
C161 O147 1.253 . S
C161 O149 1.260 1_545 S
C162 O151 1.279 . S
C162 O152 1.250 . S
C163 O153 1.264 1_565 S
C163 O157 1.248 . S
C164 O154 1.260 1_565 S
C164 O158 1.253 . S
C165 O156 1.279 . S
C165 O159 1.250 . S
O166 Mg148 2.030 1_554 S
O166 C160 1.248 1_554 S
O167 Mg150 2.079 . S
O167 C160 1.263 1_565 S
O168 Mg169 1.990 . S
O168 C182 1.253 . S
Mg169 O168 1.990 . S
Mg169 O172 2.180 . S
Mg169 O173 2.117 . S
Mg169 O187 2.030 . S
O170 Mg171 2.072 . S
O170 C182 1.260 . S
Mg171 O170 2.072 . S
Mg171 O172 2.099 . S
Mg171 O174 2.079 . S
Mg171 O175 2.072 . S
Mg171 O177 2.099 . S
Mg171 O188 2.079 . S
O172 Mg169 2.180 . S
O172 Mg171 2.099 . S
O172 C183 1.279 . S
O173 Mg169 2.117 . S
O173 C183 1.250 . S
O174 Mg171 2.079 . S
O174 C184 1.264 . S
O175 Mg171 2.072 . S
O175 C185 1.260 . S
Mg176 O177 2.180 . S
Mg176 O178 2.030 . S
Mg176 O179 1.990 . S
Mg176 O180 2.117 . S
O177 Mg171 2.099 . S
O177 Mg176 2.180 . S
O177 C186 1.279 . S
O178 Mg176 2.030 . S
O178 C184 1.248 . S
O179 Mg176 1.990 . S
O179 C185 1.253 . S
O180 Mg176 2.117 . S
O180 C186 1.250 . S
C181 O187 1.248 . S
C181 O188 1.264 . S
C182 O168 1.253 . S
C182 O170 1.260 . S
C183 O172 1.279 . S
C183 O173 1.250 . S
C184 O174 1.264 . S
C184 O178 1.248 . S
C185 O175 1.260 . S
C185 O179 1.253 . S
C186 O177 1.279 . S
C186 O180 1.250 . S
O187 Mg169 2.030 . S
O187 C181 1.248 . S
O188 Mg171 2.079 . S
O188 C181 1.264 . S
O189 Mg190 1.990 . S
O189 C203 1.253 . S
Mg190 O189 1.990 . S
Mg190 O193 2.180 . S
Mg190 O194 2.117 . S
Mg190 O208 2.030 . S
O191 Mg192 2.072 . S
O191 C203 1.260 . S
Mg192 O191 2.072 . S
Mg192 O193 2.099 . S
Mg192 O195 2.079 1_655 S
Mg192 O196 2.072 . S
Mg192 O198 2.099 . S
Mg192 O209 2.079 . S
O193 Mg190 2.180 . S
O193 Mg192 2.099 . S
O193 C204 1.279 . S
O194 Mg190 2.117 . S
O194 C204 1.250 . S
O195 Mg192 2.079 1_455 S
O195 C205 1.264 . S
O196 Mg192 2.072 . S
O196 C206 1.260 . S
Mg197 O198 2.180 . S
Mg197 O199 2.030 1_655 S
Mg197 O200 1.990 . S
Mg197 O201 2.117 . S
O198 Mg192 2.099 . S
O198 Mg197 2.180 . S
O198 C207 1.279 . S
O199 Mg197 2.030 1_455 S
O199 C205 1.248 . S
O200 Mg197 1.990 . S
O200 C206 1.253 . S
O201 Mg197 2.117 . S
O201 C207 1.250 . S
C202 O208 1.248 . S
C202 O209 1.264 . S
C203 O189 1.253 . S
C203 O191 1.260 . S
C204 O193 1.279 . S
C204 O194 1.250 . S
C205 O195 1.264 . S
C205 O199 1.248 . S
C206 O196 1.260 . S
C206 O200 1.253 . S
C207 O198 1.279 . S
C207 O201 1.250 . S
O208 Mg190 2.030 . S
O208 C202 1.248 . S
O209 Mg192 2.079 . S
O209 C202 1.264 . S
O210 Mg211 1.990 . S
O210 C224 1.253 . S
Mg211 O210 1.990 . S
Mg211 O214 2.180 . S
Mg211 O215 2.117 . S
Mg211 O229 2.030 . S
O212 Mg213 2.072 . S
O212 C224 1.260 . S
Mg213 O212 2.072 . S
Mg213 O214 2.099 . S
Mg213 O216 2.079 . S
Mg213 O217 2.072 . S
Mg213 O219 2.099 . S
Mg213 O230 2.079 . S
O214 Mg211 2.180 . S
O214 Mg213 2.099 . S
O214 C225 1.279 . S
O215 Mg211 2.117 . S
O215 C225 1.250 . S
O216 Mg213 2.079 . S
O216 C226 1.264 . S
O217 Mg213 2.072 . S
O217 C227 1.260 . S
Mg218 O219 2.180 . S
Mg218 O220 2.030 . S
Mg218 O221 1.990 . S
Mg218 O222 2.117 . S
O219 Mg213 2.099 . S
O219 Mg218 2.180 . S
O219 C228 1.279 . S
O220 Mg218 2.030 . S
O220 C226 1.248 . S
O221 Mg218 1.990 . S
O221 C227 1.253 . S
O222 Mg218 2.117 . S
O222 C228 1.250 . S
C223 O229 1.248 . S
C223 O230 1.264 . S
C224 O210 1.253 . S
C224 O212 1.260 . S
C225 O214 1.279 . S
C225 O215 1.250 . S
C226 O216 1.264 . S
C226 O220 1.248 . S
C227 O217 1.260 . S
C227 O221 1.253 . S
C228 O219 1.279 . S
C228 O222 1.250 . S
O229 Mg211 2.030 . S
O229 C223 1.248 . S
O230 Mg213 2.079 . S
O230 C223 1.264 . S
O231 Mg232 1.990 . S
O231 C245 1.253 . S
Mg232 O231 1.990 . S
Mg232 O235 2.180 . S
Mg232 O236 2.117 . S
Mg232 O250 2.030 . S
O233 Mg234 2.072 . S
O233 C245 1.260 . S
Mg234 O233 2.072 . S
Mg234 O235 2.099 . S
Mg234 O237 2.079 1_655 S
Mg234 O238 2.072 . S
Mg234 O240 2.099 . S
Mg234 O251 2.079 . S
O235 Mg232 2.180 . S
O235 Mg234 2.099 . S
O235 C246 1.279 . S
O236 Mg232 2.117 . S
O236 C246 1.250 . S
O237 Mg234 2.079 1_455 S
O237 C247 1.264 . S
O238 Mg234 2.072 . S
O238 C248 1.260 . S
Mg239 O240 2.180 . S
Mg239 O241 2.030 1_655 S
Mg239 O242 1.990 . S
Mg239 O243 2.117 . S
O240 Mg234 2.099 . S
O240 Mg239 2.180 . S
O240 C249 1.279 . S
O241 Mg239 2.030 1_455 S
O241 C247 1.248 . S
O242 Mg239 1.990 . S
O242 C248 1.253 . S
O243 Mg239 2.117 . S
O243 C249 1.250 . S
C244 O250 1.248 . S
C244 O251 1.264 . S
C245 O231 1.253 . S
C245 O233 1.260 . S
C246 O235 1.279 . S
C246 O236 1.250 . S
C247 O237 1.264 . S
C247 O241 1.248 . S
C248 O238 1.260 . S
C248 O242 1.253 . S
C249 O240 1.279 . S
C249 O243 1.250 . S
O250 Mg232 2.030 . S
O250 C244 1.248 . S
O251 Mg234 2.079 . S
O251 C244 1.264 . S
O252 Mg253 1.990 . S
O252 C266 1.253 . S
Mg253 O252 1.990 . S
Mg253 O256 2.180 . S
Mg253 O257 2.117 . S
Mg253 O271 2.030 . S
O254 Mg255 2.072 . S
O254 C266 1.260 . S
Mg255 O254 2.072 . S
Mg255 O256 2.099 . S
Mg255 O258 2.079 . S
Mg255 O259 2.072 . S
Mg255 O261 2.099 . S
Mg255 O272 2.079 . S
O256 Mg253 2.180 . S
O256 Mg255 2.099 . S
O256 C267 1.279 . S
O257 Mg253 2.117 . S
O257 C267 1.250 . S
O258 Mg255 2.079 . S
O258 C268 1.264 . S
O259 Mg255 2.072 . S
O259 C269 1.260 . S
Mg260 O261 2.180 . S
Mg260 O262 2.030 . S
Mg260 O263 1.990 . S
Mg260 O264 2.117 . S
O261 Mg255 2.099 . S
O261 Mg260 2.180 . S
O261 C270 1.279 . S
O262 Mg260 2.030 . S
O262 C268 1.248 . S
O263 Mg260 1.990 . S
O263 C269 1.253 . S
O264 Mg260 2.117 . S
O264 C270 1.250 . S
C265 O271 1.248 . S
C265 O272 1.264 . S
C266 O252 1.253 . S
C266 O254 1.260 . S
C267 O256 1.279 . S
C267 O257 1.250 . S
C268 O258 1.264 . S
C268 O262 1.248 . S
C269 O259 1.260 . S
C269 O263 1.253 . S
C270 O261 1.279 . S
C270 O264 1.250 . S
O271 Mg253 2.030 . S
O271 C265 1.248 . S
O272 Mg255 2.079 . S
O272 C265 1.264 . S
O273 Mg274 1.990 . S
O273 C287 1.253 . S
Mg274 O273 1.990 . S
Mg274 O277 2.180 . S
Mg274 O278 2.117 . S
Mg274 O292 2.030 . S
O275 Mg276 2.072 . S
O275 C287 1.260 . S
Mg276 O275 2.072 . S
Mg276 O277 2.099 . S
Mg276 O279 2.079 1_455 S
Mg276 O280 2.072 . S
Mg276 O282 2.099 . S
Mg276 O293 2.079 . S
O277 Mg274 2.180 . S
O277 Mg276 2.099 . S
O277 C288 1.279 . S
O278 Mg274 2.117 . S
O278 C288 1.250 . S
O279 Mg276 2.079 1_655 S
O279 C289 1.264 . S
O280 Mg276 2.072 . S
O280 C290 1.260 . S
Mg281 O282 2.180 . S
Mg281 O283 2.030 1_455 S
Mg281 O284 1.990 . S
Mg281 O285 2.117 . S
O282 Mg276 2.099 . S
O282 Mg281 2.180 . S
O282 C291 1.279 . S
O283 Mg281 2.030 1_655 S
O283 C289 1.248 . S
O284 Mg281 1.990 . S
O284 C290 1.253 . S
O285 Mg281 2.117 . S
O285 C291 1.250 . S
C286 O292 1.248 . S
C286 O293 1.264 . S
C287 O273 1.253 . S
C287 O275 1.260 . S
C288 O277 1.279 . S
C288 O278 1.250 . S
C289 O279 1.264 . S
C289 O283 1.248 . S
C290 O280 1.260 . S
C290 O284 1.253 . S
C291 O282 1.279 . S
C291 O285 1.250 . S
O292 Mg274 2.030 . S
O292 C286 1.248 . S
O293 Mg276 2.079 . S
O293 C286 1.264 . S
O294 Mg295 1.990 . S
O294 C308 1.253 . S
Mg295 O294 1.990 . S
Mg295 O298 2.180 . S
Mg295 O299 2.117 . S
Mg295 O313 2.030 . S
O296 Mg297 2.072 . S
O296 C308 1.260 . S
Mg297 O296 2.072 . S
Mg297 O298 2.099 . S
Mg297 O300 2.079 . S
Mg297 O301 2.072 . S
Mg297 O303 2.099 . S
Mg297 O314 2.079 . S
O298 Mg295 2.180 . S
O298 Mg297 2.099 . S
O298 C309 1.279 . S
O299 Mg295 2.117 . S
O299 C309 1.250 . S
O300 Mg297 2.079 . S
O300 C310 1.264 . S
O301 Mg297 2.072 . S
O301 C311 1.260 . S
Mg302 O303 2.180 . S
Mg302 O304 2.030 . S
Mg302 O305 1.990 . S
Mg302 O306 2.117 . S
O303 Mg297 2.099 . S
O303 Mg302 2.180 . S
O303 C312 1.279 . S
O304 Mg302 2.030 . S
O304 C310 1.248 . S
O305 Mg302 1.990 . S
O305 C311 1.253 . S
O306 Mg302 2.117 . S
O306 C312 1.250 . S
C307 O313 1.248 . S
C307 O314 1.264 . S
C308 O294 1.253 . S
C308 O296 1.260 . S
C309 O298 1.279 . S
C309 O299 1.250 . S
C310 O300 1.264 . S
C310 O304 1.248 . S
C311 O301 1.260 . S
C311 O305 1.253 . S
C312 O303 1.279 . S
C312 O306 1.250 . S
O313 Mg295 2.030 . S
O313 C307 1.248 . S
O314 Mg297 2.079 . S
O314 C307 1.264 . S
O315 Mg316 1.990 . S
O315 C329 1.253 . S
Mg316 O315 1.990 . S
Mg316 O319 2.180 . S
Mg316 O320 2.117 . S
Mg316 O334 2.030 . S
O317 Mg318 2.072 . S
O317 C329 1.260 . S
Mg318 O317 2.072 . S
Mg318 O319 2.099 . S
Mg318 O321 2.079 1_455 S
Mg318 O322 2.072 . S
Mg318 O324 2.099 . S
Mg318 O335 2.079 . S
O319 Mg316 2.180 . S
O319 Mg318 2.099 . S
O319 C330 1.279 . S
O320 Mg316 2.117 . S
O320 C330 1.250 . S
O321 Mg318 2.079 1_655 S
O321 C331 1.264 . S
O322 Mg318 2.072 . S
O322 C332 1.260 . S
Mg323 O324 2.180 . S
Mg323 O325 2.030 1_455 S
Mg323 O326 1.990 . S
Mg323 O327 2.117 . S
O324 Mg318 2.099 . S
O324 Mg323 2.180 . S
O324 C333 1.279 . S
O325 Mg323 2.030 1_655 S
O325 C331 1.248 . S
O326 Mg323 1.990 . S
O326 C332 1.253 . S
O327 Mg323 2.117 . S
O327 C333 1.250 . S
C328 O334 1.248 . S
C328 O335 1.264 . S
C329 O315 1.253 . S
C329 O317 1.260 . S
C330 O319 1.279 . S
C330 O320 1.250 . S
C331 O321 1.264 . S
C331 O325 1.248 . S
C332 O322 1.260 . S
C332 O326 1.253 . S
C333 O324 1.279 . S
C333 O327 1.250 . S
O334 Mg316 2.030 . S
O334 C328 1.248 . S
O335 Mg318 2.079 . S
O335 C328 1.264 . S
O336 Mg337 1.990 . S
O336 C350 1.253 . S
Mg337 O336 1.990 . S
Mg337 O340 2.180 . S
Mg337 O341 2.117 . S
Mg337 O355 2.030 . S
O338 Mg339 2.072 . S
O338 C350 1.260 1_545 S
Mg339 O338 2.072 . S
Mg339 O340 2.101 1_545 S
Mg339 O342 2.079 1_545 S
Mg339 O343 2.073 1_545 S
Mg339 O345 2.097 . S
Mg339 O356 2.079 . S
O340 Mg337 2.180 . S
O340 Mg339 2.101 1_565 S
O340 C351 1.279 . S
O341 Mg337 2.117 . S
O341 C351 1.250 . S
O342 Mg339 2.079 1_565 S
O342 C352 1.264 1_565 S
O343 Mg339 2.073 1_565 S
O343 C353 1.260 1_565 S
Mg344 O345 2.180 . S
Mg344 O346 2.030 . S
Mg344 O347 1.990 . S
Mg344 O348 2.117 . S
O345 Mg339 2.097 . S
O345 Mg344 2.180 . S
O345 C354 1.279 . S
O346 Mg344 2.030 . S
O346 C352 1.248 . S
O347 Mg344 1.990 . S
O347 C353 1.253 . S
O348 Mg344 2.117 . S
O348 C354 1.250 . S
C349 O355 1.248 . S
C349 O356 1.263 1_565 S
C350 O336 1.253 . S
C350 O338 1.260 1_565 S
C351 O340 1.279 . S
C351 O341 1.250 . S
C352 O342 1.264 1_545 S
C352 O346 1.248 . S
C353 O343 1.260 1_545 S
C353 O347 1.253 . S
C354 O345 1.279 . S
C354 O348 1.250 . S
O355 Mg337 2.030 . S
O355 C349 1.248 . S
O356 Mg339 2.079 . S
O356 C349 1.263 1_545 S
O357 Mg358 1.990 . S
O357 C371 1.253 . S
Mg358 O357 1.990 . S
Mg358 O361 2.180 . S
Mg358 O362 2.117 . S
Mg358 O376 2.030 . S
O359 Mg360 2.072 . S
O359 C371 1.260 . S
Mg360 O359 2.072 . S
Mg360 O361 2.099 . S
Mg360 O363 2.079 . S
Mg360 O364 2.072 . S
Mg360 O366 2.099 . S
Mg360 O377 2.079 . S
O361 Mg358 2.180 . S
O361 Mg360 2.099 . S
O361 C372 1.279 . S
O362 Mg358 2.117 . S
O362 C372 1.250 . S
O363 Mg360 2.079 . S
O363 C373 1.264 . S
O364 Mg360 2.072 . S
O364 C374 1.260 . S
Mg365 O366 2.180 . S
Mg365 O367 2.030 . S
Mg365 O368 1.990 . S
Mg365 O369 2.117 . S
O366 Mg360 2.099 . S
O366 Mg365 2.180 . S
O366 C375 1.279 . S
O367 Mg365 2.030 . S
O367 C373 1.248 . S
O368 Mg365 1.990 . S
O368 C374 1.253 . S
O369 Mg365 2.117 . S
O369 C375 1.250 . S
C370 O376 1.248 . S
C370 O377 1.264 . S
C371 O357 1.253 . S
C371 O359 1.260 . S
C372 O361 1.279 . S
C372 O362 1.250 . S
C373 O363 1.264 . S
C373 O367 1.248 . S
C374 O364 1.260 . S
C374 O368 1.253 . S
C375 O366 1.279 . S
C375 O369 1.250 . S
O376 Mg358 2.030 . S
O376 C370 1.248 . S
O377 Mg360 2.079 . S
O377 C370 1.264 . S
O378 Mg379 1.990 . S
O378 C392 1.253 . S
Mg379 O378 1.990 . S
Mg379 O382 2.180 . S
Mg379 O383 2.117 . S
Mg379 O397 2.030 . S
O380 Mg381 2.072 . S
O380 C392 1.260 . S
Mg381 O380 2.072 . S
Mg381 O382 2.099 . S
Mg381 O384 2.079 . S
Mg381 O385 2.072 . S
Mg381 O387 2.099 . S
Mg381 O398 2.079 . S
O382 Mg379 2.180 . S
O382 Mg381 2.099 . S
O382 C393 1.279 . S
O383 Mg379 2.117 . S
O383 C393 1.250 . S
O384 Mg381 2.079 . S
O384 C394 1.264 . S
O385 Mg381 2.072 . S
O385 C395 1.260 . S
Mg386 O387 2.180 . S
Mg386 O388 2.030 . S
Mg386 O389 1.990 . S
Mg386 O390 2.117 . S
O387 Mg381 2.099 . S
O387 Mg386 2.180 . S
O387 C396 1.279 . S
O388 Mg386 2.030 . S
O388 C394 1.248 . S
O389 Mg386 1.990 . S
O389 C395 1.253 . S
O390 Mg386 2.117 . S
O390 C396 1.250 . S
C391 O397 1.248 . S
C391 O398 1.264 . S
C392 O378 1.253 . S
C392 O380 1.260 . S
C393 O382 1.279 . S
C393 O383 1.250 . S
C394 O384 1.264 . S
C394 O388 1.248 . S
C395 O385 1.260 . S
C395 O389 1.253 . S
C396 O387 1.279 . S
C396 O390 1.250 . S
O397 Mg379 2.030 . S
O397 C391 1.248 . S
O398 Mg381 2.079 . S
O398 C391 1.264 . S
O399 Mg400 1.990 . S
O399 C413 1.253 . S
Mg400 O399 1.990 . S
Mg400 O403 2.180 . S
Mg400 O404 2.117 . S
Mg400 O418 2.030 . S
O401 Mg402 2.072 . S
O401 C413 1.260 1_545 S
Mg402 O401 2.072 . S
Mg402 O403 2.101 1_545 S
Mg402 O405 2.079 1_545 S
Mg402 O406 2.073 1_545 S
Mg402 O408 2.097 . S
Mg402 O419 2.079 . S
O403 Mg400 2.180 . S
O403 Mg402 2.101 1_565 S
O403 C414 1.279 . S
O404 Mg400 2.117 . S
O404 C414 1.250 . S
O405 Mg402 2.079 1_565 S
O405 C415 1.264 1_565 S
O406 Mg402 2.073 1_565 S
O406 C416 1.260 1_565 S
Mg407 O408 2.180 . S
Mg407 O409 2.030 . S
Mg407 O410 1.990 . S
Mg407 O411 2.117 . S
O408 Mg402 2.097 . S
O408 Mg407 2.180 . S
O408 C417 1.279 . S
O409 Mg407 2.030 . S
O409 C415 1.248 . S
O410 Mg407 1.990 . S
O410 C416 1.253 . S
O411 Mg407 2.117 . S
O411 C417 1.250 . S
C412 O418 1.248 . S
C412 O419 1.263 1_565 S
C413 O399 1.253 . S
C413 O401 1.260 1_565 S
C414 O403 1.279 . S
C414 O404 1.250 . S
C415 O405 1.264 1_545 S
C415 O409 1.248 . S
C416 O406 1.260 1_545 S
C416 O410 1.253 . S
C417 O408 1.279 . S
C417 O411 1.250 . S
O418 Mg400 2.030 . S
O418 C412 1.248 . S
O419 Mg402 2.079 . S
O419 C412 1.263 1_545 S
O420 Mg421 1.990 . S
O420 C434 1.253 . S
Mg421 O420 1.990 . S
Mg421 O424 2.180 . S
Mg421 O425 2.117 . S
Mg421 O439 2.030 . S
O422 Mg423 2.072 . S
O422 C434 1.260 1_565 S
Mg423 O422 2.072 . S
Mg423 O424 2.101 1_565 S
Mg423 O426 2.079 1_565 S
Mg423 O427 2.073 1_565 S
Mg423 O429 2.097 . S
Mg423 O440 2.079 . S
O424 Mg421 2.180 . S
O424 Mg423 2.101 1_545 S
O424 C435 1.279 . S
O425 Mg421 2.117 . S
O425 C435 1.250 . S
O426 Mg423 2.079 1_545 S
O426 C436 1.264 1_545 S
O427 Mg423 2.073 1_545 S
O427 C437 1.260 1_545 S
Mg428 O429 2.180 . S
Mg428 O430 2.030 . S
Mg428 O431 1.990 . S
Mg428 O432 2.117 . S
O429 Mg423 2.097 . S
O429 Mg428 2.180 . S
O429 C438 1.279 . S
O430 Mg428 2.030 . S
O430 C436 1.248 . S
O431 Mg428 1.990 . S
O431 C437 1.253 . S
O432 Mg428 2.117 . S
O432 C438 1.250 . S
C433 O439 1.248 . S
C433 O440 1.263 1_545 S
C434 O420 1.253 . S
C434 O422 1.260 1_545 S
C435 O424 1.279 . S
C435 O425 1.250 . S
C436 O426 1.264 1_565 S
C436 O430 1.248 . S
C437 O427 1.260 1_565 S
C437 O431 1.253 . S
C438 O429 1.279 . S
C438 O432 1.250 . S
O439 Mg421 2.030 . S
O439 C433 1.248 . S
O440 Mg423 2.079 . S
O440 C433 1.263 1_565 S
O441 Mg442 1.990 . S
O441 C455 1.253 . S
Mg442 O441 1.990 . S
Mg442 O445 2.180 . S
Mg442 O446 2.117 . S
Mg442 O460 2.030 . S
O443 Mg444 2.072 . S
O443 C455 1.260 . S
Mg444 O443 2.072 . S
Mg444 O445 2.099 . S
Mg444 O447 2.079 . S
Mg444 O448 2.072 . S
Mg444 O450 2.099 . S
Mg444 O461 2.079 . S
O445 Mg442 2.180 . S
O445 Mg444 2.099 . S
O445 C456 1.279 . S
O446 Mg442 2.117 . S
O446 C456 1.250 . S
O447 Mg444 2.079 . S
O447 C457 1.264 . S
O448 Mg444 2.072 . S
O448 C458 1.260 . S
Mg449 O450 2.180 . S
Mg449 O451 2.030 . S
Mg449 O452 1.990 . S
Mg449 O453 2.117 . S
O450 Mg444 2.099 . S
O450 Mg449 2.180 . S
O450 C459 1.279 . S
O451 Mg449 2.030 . S
O451 C457 1.248 . S
O452 Mg449 1.990 . S
O452 C458 1.253 . S
O453 Mg449 2.117 . S
O453 C459 1.250 . S
C454 O460 1.248 . S
C454 O461 1.264 . S
C455 O441 1.253 . S
C455 O443 1.260 . S
C456 O445 1.279 . S
C456 O446 1.250 . S
C457 O447 1.264 . S
C457 O451 1.248 . S
C458 O448 1.260 . S
C458 O452 1.253 . S
C459 O450 1.279 . S
C459 O453 1.250 . S
O460 Mg442 2.030 . S
O460 C454 1.248 . S
O461 Mg444 2.079 . S
O461 C454 1.264 . S
O462 Mg463 1.990 . S
O462 C476 1.253 . S
Mg463 O462 1.990 . S
Mg463 O466 2.180 . S
Mg463 O467 2.117 . S
Mg463 O481 2.030 . S
O464 Mg465 2.072 . S
O464 C476 1.260 . S
Mg465 O464 2.072 . S
Mg465 O466 2.099 . S
Mg465 O468 2.079 . S
Mg465 O469 2.072 . S
Mg465 O471 2.099 . S
Mg465 O482 2.079 . S
O466 Mg463 2.180 . S
O466 Mg465 2.099 . S
O466 C477 1.279 . S
O467 Mg463 2.117 . S
O467 C477 1.250 . S
O468 Mg465 2.079 . S
O468 C478 1.264 . S
O469 Mg465 2.072 . S
O469 C479 1.260 . S
Mg470 O471 2.180 . S
Mg470 O472 2.030 . S
Mg470 O473 1.990 . S
Mg470 O474 2.117 . S
O471 Mg465 2.099 . S
O471 Mg470 2.180 . S
O471 C480 1.279 . S
O472 Mg470 2.030 . S
O472 C478 1.248 . S
O473 Mg470 1.990 . S
O473 C479 1.253 . S
O474 Mg470 2.117 . S
O474 C480 1.250 . S
C475 O481 1.248 . S
C475 O482 1.264 . S
C476 O462 1.253 . S
C476 O464 1.260 . S
C477 O466 1.279 . S
C477 O467 1.250 . S
C478 O468 1.264 . S
C478 O472 1.248 . S
C479 O469 1.260 . S
C479 O473 1.253 . S
C480 O471 1.279 . S
C480 O474 1.250 . S
O481 Mg463 2.030 . S
O481 C475 1.248 . S
O482 Mg465 2.079 . S
O482 C475 1.264 . S
O483 Mg484 1.990 . S
O483 C497 1.253 . S
Mg484 O483 1.990 . S
Mg484 O487 2.180 . S
Mg484 O488 2.117 . S
Mg484 O502 2.030 . S
O485 Mg486 2.072 . S
O485 C497 1.260 1_565 S
Mg486 O485 2.072 . S
Mg486 O487 2.101 1_565 S
Mg486 O489 2.079 1_565 S
Mg486 O490 2.073 1_565 S
Mg486 O492 2.097 . S
Mg486 O503 2.079 . S
O487 Mg484 2.180 . S
O487 Mg486 2.101 1_545 S
O487 C498 1.279 . S
O488 Mg484 2.117 . S
O488 C498 1.250 . S
O489 Mg486 2.079 1_545 S
O489 C499 1.264 1_545 S
O490 Mg486 2.073 1_545 S
O490 C500 1.260 1_545 S
Mg491 O492 2.180 . S
Mg491 O493 2.030 . S
Mg491 O494 1.990 . S
Mg491 O495 2.117 . S
O492 Mg486 2.097 . S
O492 Mg491 2.180 . S
O492 C501 1.279 . S
O493 Mg491 2.030 . S
O493 C499 1.248 . S
O494 Mg491 1.990 . S
O494 C500 1.253 . S
O495 Mg491 2.117 . S
O495 C501 1.250 . S
C496 O502 1.248 . S
C496 O503 1.263 1_545 S
C497 O483 1.253 . S
C497 O485 1.260 1_545 S
C498 O487 1.279 . S
C498 O488 1.250 . S
C499 O489 1.264 1_565 S
C499 O493 1.248 . S
C500 O490 1.260 1_565 S
C500 O494 1.253 . S
C501 O492 1.279 . S
C501 O495 1.250 . S
O502 Mg484 2.030 . S
O502 C496 1.248 . S
O503 Mg486 2.079 . S
O503 C496 1.263 1_565 S
O504 Mg505 1.990 . S
O504 C518 1.253 . S
Mg505 O504 1.990 . S
Mg505 O508 2.180 . S
Mg505 O509 2.117 . S
Mg505 O523 2.030 . S
O506 Mg507 2.072 . S
O506 C518 1.260 . S
Mg507 O506 2.072 . S
Mg507 O508 2.099 . S
Mg507 O510 2.079 . S
Mg507 O511 2.072 1_554 S
Mg507 O513 2.099 . S
Mg507 O524 2.079 . S
O508 Mg505 2.180 . S
O508 Mg507 2.099 . S
O508 C519 1.279 . S
O509 Mg505 2.117 . S
O509 C519 1.250 . S
O510 Mg507 2.079 . S
O510 C520 1.264 1_554 S
O511 Mg507 2.072 1_556 S
O511 C521 1.260 . S
Mg512 O513 2.180 1_556 S
Mg512 O514 2.030 . S
Mg512 O515 1.990 . S
Mg512 O516 2.117 1_556 S
O513 Mg507 2.099 . S
O513 Mg512 2.180 1_554 S
O513 C522 1.279 . S
O514 Mg512 2.030 . S
O514 C520 1.248 . S
O515 Mg512 1.990 . S
O515 C521 1.253 . S
O516 Mg512 2.117 1_554 S
O516 C522 1.250 . S
C517 O523 1.248 . S
C517 O524 1.264 . S
C518 O504 1.253 . S
C518 O506 1.260 . S
C519 O508 1.279 . S
C519 O509 1.250 . S
C520 O510 1.264 1_556 S
C520 O514 1.248 . S
C521 O511 1.260 . S
C521 O515 1.253 . S
C522 O513 1.279 . S
C522 O516 1.250 . S
O523 Mg505 2.030 . S
O523 C517 1.248 . S
O524 Mg507 2.079 . S
O524 C517 1.264 . S
O525 Mg526 1.990 . S
O525 C539 1.253 . S
Mg526 O525 1.990 . S
Mg526 O529 2.180 . S
Mg526 O530 2.117 . S
Mg526 O544 2.030 . S
O527 Mg528 2.072 . S
O527 C539 1.260 . S
Mg528 O527 2.072 . S
Mg528 O529 2.099 . S
Mg528 O531 2.079 . S
Mg528 O532 2.072 1_554 S
Mg528 O534 2.099 . S
Mg528 O545 2.079 . S
O529 Mg526 2.180 . S
O529 Mg528 2.099 . S
O529 C540 1.279 . S
O530 Mg526 2.117 . S
O530 C540 1.250 . S
O531 Mg528 2.079 . S
O531 C541 1.264 1_554 S
O532 Mg528 2.072 1_556 S
O532 C542 1.260 . S
Mg533 O534 2.180 1_556 S
Mg533 O535 2.030 . S
Mg533 O536 1.990 . S
Mg533 O537 2.117 1_556 S
O534 Mg528 2.099 . S
O534 Mg533 2.180 1_554 S
O534 C543 1.279 . S
O535 Mg533 2.030 . S
O535 C541 1.248 . S
O536 Mg533 1.990 . S
O536 C542 1.253 . S
O537 Mg533 2.117 1_554 S
O537 C543 1.250 . S
C538 O544 1.248 . S
C538 O545 1.264 . S
C539 O525 1.253 . S
C539 O527 1.260 . S
C540 O529 1.279 . S
C540 O530 1.250 . S
C541 O531 1.264 1_556 S
C541 O535 1.248 . S
C542 O532 1.260 . S
C542 O536 1.253 . S
C543 O534 1.279 . S
C543 O537 1.250 . S
O544 Mg526 2.030 . S
O544 C538 1.248 . S
O545 Mg528 2.079 . S
O545 C538 1.264 . S
O546 Mg547 1.990 . S
O546 C560 1.253 . S
Mg547 O546 1.990 . S
Mg547 O550 2.180 . S
Mg547 O551 2.117 . S
Mg547 O565 2.030 1_554 S
O548 Mg549 2.072 . S
O548 C560 1.260 . S
Mg549 O548 2.072 . S
Mg549 O550 2.099 . S
Mg549 O552 2.079 . S
Mg549 O553 2.072 . S
Mg549 O555 2.099 . S
Mg549 O566 2.079 . S
O550 Mg547 2.180 . S
O550 Mg549 2.099 . S
O550 C561 1.279 . S
O551 Mg547 2.117 . S
O551 C561 1.250 . S
O552 Mg549 2.079 . S
O552 C562 1.264 . S
O553 Mg549 2.072 . S
O553 C563 1.260 . S
Mg554 O555 2.180 . S
Mg554 O556 2.030 . S
Mg554 O557 1.990 . S
Mg554 O558 2.117 . S
O555 Mg549 2.099 . S
O555 Mg554 2.180 . S
O555 C564 1.279 . S
O556 Mg554 2.030 . S
O556 C562 1.248 . S
O557 Mg554 1.990 . S
O557 C563 1.253 . S
O558 Mg554 2.117 . S
O558 C564 1.250 . S
C559 O565 1.248 1_554 S
C559 O566 1.264 . S
C560 O546 1.253 . S
C560 O548 1.260 . S
C561 O550 1.279 . S
C561 O551 1.250 . S
C562 O552 1.264 . S
C562 O556 1.248 . S
C563 O553 1.260 . S
C563 O557 1.253 . S
C564 O555 1.279 . S
C564 O558 1.250 . S
O565 Mg547 2.030 1_556 S
O565 C559 1.248 1_556 S
O566 Mg549 2.079 . S
O566 C559 1.264 . S
O567 Mg568 1.990 . S
O567 C581 1.253 . S
Mg568 O567 1.990 . S
Mg568 O571 2.180 . S
Mg568 O572 2.117 . S
Mg568 O586 2.030 1_554 S
O569 Mg570 2.072 . S
O569 C581 1.260 . S
Mg570 O569 2.072 . S
Mg570 O571 2.099 . S
Mg570 O573 2.079 . S
Mg570 O574 2.072 . S
Mg570 O576 2.099 . S
Mg570 O587 2.079 . S
O571 Mg568 2.180 . S
O571 Mg570 2.099 . S
O571 C582 1.279 . S
O572 Mg568 2.117 . S
O572 C582 1.250 . S
O573 Mg570 2.079 . S
O573 C583 1.264 . S
O574 Mg570 2.072 . S
O574 C584 1.260 . S
Mg575 O576 2.180 . S
Mg575 O577 2.030 . S
Mg575 O578 1.990 . S
Mg575 O579 2.117 . S
O576 Mg570 2.099 . S
O576 Mg575 2.180 . S
O576 C585 1.279 . S
O577 Mg575 2.030 . S
O577 C583 1.248 . S
O578 Mg575 1.990 . S
O578 C584 1.253 . S
O579 Mg575 2.117 . S
O579 C585 1.250 . S
C580 O586 1.248 1_554 S
C580 O587 1.264 . S
C581 O567 1.253 . S
C581 O569 1.260 . S
C582 O571 1.279 . S
C582 O572 1.250 . S
C583 O573 1.264 . S
C583 O577 1.248 . S
C584 O574 1.260 . S
C584 O578 1.253 . S
C585 O576 1.279 . S
C585 O579 1.250 . S
O586 Mg568 2.030 1_556 S
O586 C580 1.248 1_556 S
O587 Mg570 2.079 . S
O587 C580 1.264 . S
O588 Mg589 1.990 . S
O588 C602 1.253 . S
Mg589 O588 1.990 . S
Mg589 O592 2.180 . S
Mg589 O593 2.117 . S
Mg589 O607 2.030 . S
O590 Mg591 2.072 . S
O590 C602 1.260 . S
Mg591 O590 2.072 . S
Mg591 O592 2.099 . S
Mg591 O594 2.079 . S
Mg591 O595 2.072 1_556 S
Mg591 O597 2.099 . S
Mg591 O608 2.079 . S
O592 Mg589 2.180 . S
O592 Mg591 2.099 . S
O592 C603 1.279 . S
O593 Mg589 2.117 . S
O593 C603 1.250 . S
O594 Mg591 2.079 . S
O594 C604 1.264 1_556 S
O595 Mg591 2.072 1_554 S
O595 C605 1.260 . S
Mg596 O597 2.180 1_554 S
Mg596 O598 2.030 . S
Mg596 O599 1.990 . S
Mg596 O600 2.117 1_554 S
O597 Mg591 2.099 . S
O597 Mg596 2.180 1_556 S
O597 C606 1.279 . S
O598 Mg596 2.030 . S
O598 C604 1.248 . S
O599 Mg596 1.990 . S
O599 C605 1.253 . S
O600 Mg596 2.117 1_556 S
O600 C606 1.250 . S
C601 O607 1.248 . S
C601 O608 1.264 . S
C602 O588 1.253 . S
C602 O590 1.260 . S
C603 O592 1.279 . S
C603 O593 1.250 . S
C604 O594 1.264 1_554 S
C604 O598 1.248 . S
C605 O595 1.260 . S
C605 O599 1.253 . S
C606 O597 1.279 . S
C606 O600 1.250 . S
O607 Mg589 2.030 . S
O607 C601 1.248 . S
O608 Mg591 2.079 . S
O608 C601 1.264 . S
O609 Mg610 1.990 . S
O609 C623 1.253 . S
Mg610 O609 1.990 . S
Mg610 O613 2.180 . S
Mg610 O614 2.117 . S
Mg610 O628 2.030 . S
O611 Mg612 2.072 . S
O611 C623 1.260 . S
Mg612 O611 2.072 . S
Mg612 O613 2.099 . S
Mg612 O615 2.079 . S
Mg612 O616 2.072 1_556 S
Mg612 O618 2.099 . S
Mg612 O629 2.079 . S
O613 Mg610 2.180 . S
O613 Mg612 2.099 . S
O613 C624 1.279 . S
O614 Mg610 2.117 . S
O614 C624 1.250 . S
O615 Mg612 2.079 . S
O615 C625 1.264 1_556 S
O616 Mg612 2.072 1_554 S
O616 C626 1.260 . S
Mg617 O618 2.180 1_554 S
Mg617 O619 2.030 . S
Mg617 O620 1.990 . S
Mg617 O621 2.117 1_554 S
O618 Mg612 2.099 . S
O618 Mg617 2.180 1_556 S
O618 C627 1.279 . S
O619 Mg617 2.030 . S
O619 C625 1.248 . S
O620 Mg617 1.990 . S
O620 C626 1.253 . S
O621 Mg617 2.117 1_556 S
O621 C627 1.250 . S
C622 O628 1.248 . S
C622 O629 1.264 . S
C623 O609 1.253 . S
C623 O611 1.260 . S
C624 O613 1.279 . S
C624 O614 1.250 . S
C625 O615 1.264 1_554 S
C625 O619 1.248 . S
C626 O616 1.260 . S
C626 O620 1.253 . S
C627 O618 1.279 . S
C627 O621 1.250 . S
O628 Mg610 2.030 . S
O628 C622 1.248 . S
O629 Mg612 2.079 . S
O629 C622 1.264 . S
O630 Mg631 1.990 . S
O630 C644 1.253 . S
Mg631 O630 1.990 . S
Mg631 O634 2.180 . S
Mg631 O635 2.117 . S
Mg631 O649 2.030 1_556 S
O632 Mg633 2.072 . S
O632 C644 1.260 . S
Mg633 O632 2.072 . S
Mg633 O634 2.099 . S
Mg633 O636 2.079 . S
Mg633 O637 2.072 . S
Mg633 O639 2.099 . S
Mg633 O650 2.079 . S
O634 Mg631 2.180 . S
O634 Mg633 2.099 . S
O634 C645 1.279 . S
O635 Mg631 2.117 . S
O635 C645 1.250 . S
O636 Mg633 2.079 . S
O636 C646 1.264 . S
O637 Mg633 2.072 . S
O637 C647 1.260 . S
Mg638 O639 2.180 . S
Mg638 O640 2.030 . S
Mg638 O641 1.990 . S
Mg638 O642 2.117 . S
O639 Mg633 2.099 . S
O639 Mg638 2.180 . S
O639 C648 1.279 . S
O640 Mg638 2.030 . S
O640 C646 1.248 . S
O641 Mg638 1.990 . S
O641 C647 1.253 . S
O642 Mg638 2.117 . S
O642 C648 1.250 . S
C643 O649 1.248 1_556 S
C643 O650 1.264 . S
C644 O630 1.253 . S
C644 O632 1.260 . S
C645 O634 1.279 . S
C645 O635 1.250 . S
C646 O636 1.264 . S
C646 O640 1.248 . S
C647 O637 1.260 . S
C647 O641 1.253 . S
C648 O639 1.279 . S
C648 O642 1.250 . S
O649 Mg631 2.030 1_554 S
O649 C643 1.248 1_554 S
O650 Mg633 2.079 . S
O650 C643 1.264 . S
O651 Mg652 1.990 . S
O651 C665 1.253 . S
Mg652 O651 1.990 . S
Mg652 O655 2.180 . S
Mg652 O656 2.117 . S
Mg652 O670 2.030 1_556 S
O653 Mg654 2.072 . S
O653 C665 1.260 . S
Mg654 O653 2.072 . S
Mg654 O655 2.099 . S
Mg654 O657 2.079 . S
Mg654 O658 2.072 . S
Mg654 O660 2.099 . S
Mg654 O671 2.079 . S
O655 Mg652 2.180 . S
O655 Mg654 2.099 . S
O655 C666 1.279 . S
O656 Mg652 2.117 . S
O656 C666 1.250 . S
O657 Mg654 2.079 . S
O657 C667 1.264 . S
O658 Mg654 2.072 . S
O658 C668 1.260 . S
Mg659 O660 2.180 . S
Mg659 O661 2.030 . S
Mg659 O662 1.990 . S
Mg659 O663 2.117 . S
O660 Mg654 2.099 . S
O660 Mg659 2.180 . S
O660 C669 1.279 . S
O661 Mg659 2.030 . S
O661 C667 1.248 . S
O662 Mg659 1.990 . S
O662 C668 1.253 . S
O663 Mg659 2.117 . S
O663 C669 1.250 . S
C664 O670 1.248 1_556 S
C664 O671 1.264 . S
C665 O651 1.253 . S
C665 O653 1.260 . S
C666 O655 1.279 . S
C666 O656 1.250 . S
C667 O657 1.264 . S
C667 O661 1.248 . S
C668 O658 1.260 . S
C668 O662 1.253 . S
C669 O660 1.279 . S
C669 O663 1.250 . S
O670 Mg652 2.030 1_554 S
O670 C664 1.248 1_554 S
O671 Mg654 2.079 . S
O671 C664 1.264 . S
C540 C15 0.873 . S
C519 C36 0.873 . S
C582 C57 0.873 . S
C561 C78 0.873 . S
C99 C624 0.873 . S
C120 C603 0.873 . S
C141 C666 0.873 . S
C645 C162 0.873 . S
C372 C183 0.873 . S
C351 C204 0.873 . S
C414 C225 0.873 . S
C393 C246 0.873 . S
C267 C456 0.873 . S
C435 C288 0.873 . S
C309 C498 0.873 . S
C477 C330 0.873 . S
C13 C433 1.849 1_565 S
C286 C34 1.849 1_455 S
C643 C55 1.849 1_556 S
C76 C160 1.849 1_664 S
C97 C349 1.849 1_545 S
C118 C202 1.849 1_455 S
C139 C559 1.849 1_556 S
C601 C181 1.849 . S
C475 C223 1.849 . S
C328 C244 1.848 1_455 S
C517 C265 1.849 . S
C307 C391 1.849 . S
C622 C370 1.849 . S
C412 C496 1.849 1_565 S
C538 C454 1.849 . S
C580 C664 1.849 1_554 S
C17 C416 1.433 . S
C38 C395 1.432 . S
C59 C374 1.432 . S
C80 C353 1.433 . S
C101 C500 1.433 . S
C122 C479 1.432 . S
C143 C458 1.432 . S
C164 C437 1.433 . S
C185 C584 1.433 . S
C206 C563 1.432 . S
C227 C542 1.432 . S
C248 C521 1.432 . S
C668 C269 1.433 . S
C647 C290 1.432 . S
C626 C311 1.432 . S
C605 C332 1.432 . S
C60 C18 2.352 . S
C81 C39 2.352 . S
C144 C102 2.352 . S
C123 C165 2.352 . S
C228 C186 2.352 . S
C207 C249 2.352 . S
C312 C270 2.352 . S
C291 C333 2.352 . S
C354 C396 2.352 . S
C375 C417 2.352 . S
C480 C438 2.352 . S
C459 C501 2.352 . S
C522 C564 2.352 . S
C585 C543 2.352 . S
C606 C648 2.352 . S
C627 C669 2.352 . S
C16 C161 1.098 . S
C644 C37 1.098 . S
C58 C287 1.098 . S
C79 C434 1.098 . S
C77 C100 1.098 . S
C121 C560 1.098 . S
C203 C142 1.098 . S
C350 C163 1.098 . S
C184 C329 1.098 . S
C476 C205 1.098 . S
C226 C119 1.098 . S
C602 C247 1.098 . S
C268 C245 1.098 . S
C289 C392 1.098 . S
C310 C35 1.098 . S
C518 C331 1.098 . S
C352 C497 1.098 . S
C373 C308 1.098 . S
C394 C623 1.098 . S
C415 C98 1.098 . S
C436 C413 1.098 . S
C224 C457 1.098 . S
C539 C478 1.098 . S
C499 C14 1.098 . S
C665 C520 1.098 . S
C140 C541 1.098 . S
C455 C562 1.098 . S
C583 C266 1.098 . S
C581 C604 1.098 . S
C56 C625 1.098 . S
C371 C646 1.098 . S
C667 C182 1.098 . S
