# Generated by pormake.
# Topology sxc, (6)-cn, num edge types: 1
# Building blocks:
#     Node 0, Type 0, BuildingBlock: JUFBIX_clean_sbu_0, # of connection points: 6
#     Node 1, Type 0, BuildingBlock: JUFBIX_clean_sbu_0, # of connection points: 6
#     Node 2, Type 0, BuildingBlock: JUFBIX_clean_sbu_0, # of connection points: 6
#     Edge 3, Type (0, 0), BuildingBlock: FUNLAD_clean_linker_0, # of connection points: 2
#     Edge 4, Type (0, 0), BuildingBlock: FUNLAD_clean_linker_0, # of connection points: 2
#     Edge 5, Type (0, 0), BuildingBlock: FUNLAD_clean_linker_0, # of connection points: 2
#     Edge 6, Type (0, 0), BuildingBlock: FUNLAD_clean_linker_0, # of connection points: 2
#     Edge 7, Type (0, 0), BuildingBlock: FUNLAD_clean_linker_0, # of connection points: 2
#     Edge 8, Type (0, 0), BuildingBlock: FUNLAD_clean_linker_0, # of connection points: 2
#     Edge 9, Type (0, 0), BuildingBlock: FUNLAD_clean_linker_0, # of connection points: 2
#     Edge 10, Type (0, 0), BuildingBlock: FUNLAD_clean_linker_0, # of connection points: 2
#     Edge 11, Type (0, 0), BuildingBlock: FUNLAD_clean_linker_0, # of connection points: 2
# Relax obj value: 0.408
# Max RMSD: 0.153
# Mean RMSD: 0.152
data_MOF--net-sxc--node1-JUFBIX_clean_sbu_0--edge1-FUNLAD_clean_linker_0
_symmetry_space_group_name_H-M    P1
_symmetry_Int_Tables_number       1
_symmetry_cell_setting            triclinic
loop_
_symmetry_equiv_pos_as_xyz
'x, y, z'
_cell_length_a     17.798445
_cell_length_b     17.779973
_cell_length_c     52.314378
_cell_angle_alpha  93.125874
_cell_angle_beta   88.780593
_cell_angle_gamma 120.09824
loop_
_atom_site_label
_atom_site_type_symbol
_atom_site_fract_x
_atom_site_fract_y
_atom_site_fract_z
_atom_type_partial_charge
Co0 Co 0.13673 1.01614 0.01159 0.0
C1 C 0.09031 1.04429 0.96427 0.0
Co2 Co 1.05738 0.07872 0.01453 0.0
C3 C 0.18209 0.89699 0.99044 0.0
C4 C 0.27565 0.97712 0.01921 0.0
N5 N 0.2008 0.96124 0.00826 0.0
N6 N 0.24227 0.8725 0.98926 0.0
C7 C 0.30099 0.92151 0.00767 0.0
H8 H 0.1243 0.86805 0.97854 0.0
H9 H 0.31011 1.02665 0.03421 0.0
C10 C 0.10426 1.05067 0.06166 0.0
N11 N 0.9926 0.13322 0.01594 0.0
C12 C 1.00239 0.19137 0.99897 0.0
C13 C 0.92132 0.11825 0.02945 0.0
N14 N 0.93922 0.21166 1.00056 0.0
C15 C 0.88858 0.16757 0.02012 0.0
C16 C 0.95592 0.89816 0.01304 0.0
O17 O 0.14118 1.01747 0.04789 0.0
O18 O 1.06353 0.08228 0.05085 0.0
O19 O 0.95252 0.96798 0.01481 0.0
O20 O 1.03023 0.90412 0.01134 0.0
O21 O 1.05111 0.07432 0.97802 0.0
H22 H 0.89309 0.07204 0.0443 0.0
H23 H 1.05444 0.21725 0.98515 0.0
O24 O 0.1328 1.01556 0.97521 0.0
O25 O 0.2416 0.12689 0.0119 0.0
O26 O 0.16373 0.19079 0.01426 0.0
C27 C 0.23812 0.19671 0.01308 0.0
H28 H 0.35806 0.91791 0.01228 0.0
H29 H 0.83092 0.16868 0.02654 0.0
Co30 Co 0.18612 0.1321 0.34657 0.0
C31 C 0.10113 0.08435 0.29946 0.0
Co32 Co 1.04388 0.06444 0.34966 0.0
C33 C 0.35752 0.15751 0.34201 0.0
C34 C 0.35167 0.26721 0.32999 0.0
N35 N 0.30596 0.1928 0.34242 0.0
N36 N 0.43047 0.20326 0.32845 0.0
C37 C 0.42798 0.27351 0.32127 0.0
H38 H 0.33689 0.09316 0.34831 0.0
H39 H 0.32666 0.30832 0.32452 0.0
C40 C 0.1299 0.11297 0.39664 0.0
N41 N 0.92479 1.00179 0.3523 0.0
C42 C 0.86804 0.99395 0.33434 0.0
C43 C 0.87721 0.93876 0.36861 0.0
N44 N 0.78764 0.92687 0.33817 0.0
C45 C 0.79242 0.89277 0.36002 0.0
C46 C 0.11198 0.95134 0.34777 0.0
O47 O 0.19774 0.14057 0.3829 0.0
O48 O 1.05571 0.0782 0.38585 0.0
O49 O 1.04354 0.95639 0.35015 0.0
O50 O 0.1838 1.02149 0.34548 0.0
O51 O 1.03384 0.05169 0.31327 0.0
H52 H 0.90355 0.92339 0.38466 0.0
H53 H 0.88616 1.03487 0.31815 0.0
O54 O 0.17499 0.12362 0.3103 0.0
O55 O 0.18523 0.23992 0.34777 0.0
O56 O 1.04327 0.17303 0.34915 0.0
C57 C 0.11578 0.24391 0.3485 0.0
H58 H 0.47294 0.32064 0.30827 0.0
H59 H 0.73965 0.83624 0.36846 0.0
Co60 Co 0.10897 0.98439 0.67576 0.0
C61 C 0.15255 0.07166 0.63058 0.0
Co62 Co 0.16912 0.126 0.68188 0.0
C63 C 0.97445 0.80757 0.6726 0.0
C64 C 0.08855 0.82478 0.6533 0.0
N65 N 1.05888 0.86567 0.66947 0.0
N66 N 0.94825 0.73437 0.65771 0.0
C67 C 1.02032 0.74414 0.64585 0.0
H68 H 0.93006 0.82357 0.68261 0.0
H69 H 0.15246 0.85564 0.64484 0.0
C70 C 0.12523 1.03754 0.72694 0.0
N71 N 0.21705 0.24455 0.68713 0.0
C72 C 0.2692 0.30474 0.6708 0.0
C73 C 0.19594 0.28839 0.70503 0.0
N74 N 0.28005 0.38384 0.67734 0.0
C75 C 0.23553 0.37466 0.69917 0.0
C76 C 0.98825 1.04398 0.67758 0.0
O77 O 0.09615 0.97054 0.71169 0.0
O78 O 0.16105 0.11254 0.7178 0.0
O79 O 1.05699 0.11666 0.68172 0.0
O80 O 0.99556 0.97654 0.67395 0.0
O81 O 0.17611 0.13797 0.64568 0.0
H82 H 0.15161 0.25889 0.72065 0.0
H83 H 0.29797 0.29061 0.65414 0.0
O84 O 0.12182 0.99768 0.63991 0.0
O85 O 0.221 0.99407 0.67753 0.0
O86 O 0.28344 0.13605 0.68204 0.0
C87 C 0.29018 0.06771 0.67998 0.0
H88 H 1.02166 0.70089 0.63069 0.0
H89 H 0.23011 0.42589 0.70967 0.0
C90 C 0.96025 0.2754 0.95885 0.0
C91 C 0.93233 0.27042 0.98438 0.0
C92 C 0.98236 0.34897 0.9454 0.0
C93 C 0.97534 0.41769 0.95722 0.0
C94 C 0.93494 0.40697 0.98118 0.0
C95 C 0.91387 0.33356 0.99483 0.0
C96 C 1.02651 0.50613 0.94799 0.0
C97 C 0.11277 0.54069 0.9447 0.0
C98 C 0.1705 0.63444 0.95018 0.0
C99 C 0.22812 0.66115 0.97105 0.0
C100 C 0.26019 0.74421 0.98272 0.0
C101 C 0.23562 0.80114 0.97329 0.0
H102 H 0.11252 0.67592 0.92234 0.0
C103 C 0.18922 0.77853 0.95002 0.0
C104 C 0.15573 0.69515 0.93871 0.0
H105 H 0.17222 0.82269 0.94182 0.0
H106 H 0.9723 0.22584 0.95014 0.0
H107 H 1.012 0.3555 0.92673 0.0
H108 H 0.92865 0.45946 0.99051 0.0
H109 H 0.89177 0.33059 0.01439 0.0
H110 H 0.99954 0.54896 0.95083 0.0
H111 H 0.14137 0.49919 0.94522 0.0
H112 H 0.24045 0.61486 0.98004 0.0
H113 H 0.29646 0.76029 1.00046 0.0
C114 C 0.48854 0.10462 0.32943 0.0
C115 C 0.47691 0.16463 0.31627 0.0
C116 C 0.51256 1.04998 0.31634 0.0
C117 C 0.5265 0.0548 0.28978 0.0
C118 C 0.52213 0.11948 0.27688 0.0
C119 C 0.49647 0.17356 0.28998 0.0
C120 C 0.55376 0.99736 0.27639 0.0
C121 C 0.51856 0.91428 0.28301 0.0
C122 C 0.5768 0.8857 0.29283 0.0
C123 C 0.56167 0.85517 0.31768 0.0
C124 C 0.62991 0.86223 0.3322 0.0
C125 C 0.71351 0.89863 0.32182 0.0
H126 H 0.66929 0.93072 0.26178 0.0
C127 C 0.72491 0.91595 0.29567 0.0
C128 C 0.6569 0.90947 0.28121 0.0
H129 H 0.78787 0.94009 0.28682 0.0
H130 H 0.47514 0.09742 0.34971 0.0
H131 H 0.51984 1.00355 0.32706 0.0
H132 H 0.53548 0.12601 0.25657 0.0
H133 H 0.48739 0.21876 0.27925 0.0
H134 H 0.61775 1.03052 0.26781 0.0
H135 H 0.45335 0.88357 0.29093 0.0
H136 H 0.49997 0.83567 0.32695 0.0
H137 H 0.61893 0.84688 0.35216 0.0
C138 C 0.79258 0.66321 0.66596 0.0
C139 C 0.86039 0.68202 0.64873 0.0
C140 C 0.71003 0.63816 0.65698 0.0
C141 C 0.69349 0.63028 0.63056 0.0
C142 C 0.75844 0.64005 0.61325 0.0
C143 C 0.84197 0.66671 0.62227 0.0
C144 C 0.60656 0.60759 0.62157 0.0
C145 C 0.56665 0.64849 0.63248 0.0
C146 C 0.47531 0.59698 0.64044 0.0
C147 C 0.45584 0.60838 0.66602 0.0
C148 C 0.38524 0.54061 0.67787 0.0
C149 C 0.33335 0.46158 0.66408 0.0
H150 H 0.42684 0.51498 0.60563 0.0
C151 C 0.34439 0.45622 0.63749 0.0
C152 C 0.41494 0.52381 0.62566 0.0
H153 H 0.3027 0.39692 0.62628 0.0
H154 H 0.80512 0.67369 0.68639 0.0
H155 H 0.65948 0.627 0.67073 0.0
H156 H 0.74581 0.63157 0.59283 0.0
H157 H 0.89318 0.68135 0.60852 0.0
H158 H 0.57004 0.54519 0.61111 0.0
H159 H 0.60648 0.71064 0.64291 0.0
H160 H 0.50101 0.665 0.67769 0.0
H161 H 0.37709 0.5467 0.6983 0.0
C162 C 0.89506 0.11436 0.6818 0.0
C163 C 0.90149 1.03892 0.67718 0.0
C164 C 0.8142 0.11061 0.68163 0.0
C165 C 0.73654 1.03092 0.67678 0.0
C166 C 0.74333 0.95558 0.67213 0.0
C167 C 0.82426 0.95939 0.67233 0.0
C168 C 0.64752 1.02232 0.67639 0.0
C169 C 0.63065 0.08873 0.68038 0.0
C170 C 0.5417 0.08023 0.68006 0.0
C171 C 0.53567 0.1565 0.68232 0.0
C172 C 0.45483 0.15287 0.68235 0.0
C173 C 0.3769 0.07259 0.68015 0.0
H174 H 0.4632 0.93883 0.67643 0.0
C175 C 0.38256 0.99615 0.67795 0.0
C176 C 0.46337 0.99972 0.67794 0.0
H177 H 0.32417 0.93291 0.67625 0.0
H178 H 0.95288 0.17694 0.68565 0.0
H179 H 0.81388 0.17075 0.68537 0.0
H180 H 0.68549 0.89296 0.66832 0.0
H181 H 0.82615 0.89979 0.66868 0.0
H182 H 0.59362 0.95716 0.67243 0.0
H183 H 0.68458 0.1541 0.68395 0.0
H184 H 0.59407 0.21974 0.68407 0.0
H185 H 0.45354 0.21319 0.68407 0.0
C186 C 0.79248 0.8049 0.01583 0.0
C187 C 0.87436 0.81128 0.01296 0.0
C188 C 0.71579 0.7234 0.01588 0.0
C189 C 0.71858 0.64543 0.01293 0.0
C190 C 0.80069 0.65225 0.01011 0.0
C191 C 0.87724 0.73365 0.01008 0.0
C192 C 0.63904 0.55595 0.01324 0.0
C193 C 0.55557 0.53854 0.0123 0.0
C194 C 0.47583 0.44913 0.01263 0.0
C195 C 0.39345 0.4424 0.01336 0.0
C196 C 0.31675 0.36113 0.01356 0.0
C197 C 0.31975 0.28351 0.01298 0.0
H198 H 0.53956 0.3715 0.01123 0.0
C199 C 0.40188 0.28976 0.0122 0.0
C200 C 0.4787 0.3711 0.01202 0.0
H201 H 0.40702 0.23152 0.01169 0.0
H202 H 0.78748 0.86313 0.01821 0.0
H203 H 0.65511 0.72267 0.01858 0.0
H204 H 0.80586 0.59407 0.00789 0.0
H205 H 0.93882 0.7356 0.00782 0.0
H206 H 0.65125 0.50229 0.0141 0.0
H207 H 0.54365 0.59232 0.01111 0.0
H208 H 0.38815 0.50056 0.01378 0.0
H209 H 0.25498 0.35928 0.01411 0.0
C210 C 1.04574 0.33827 0.349 0.0
C211 C 0.12079 0.33063 0.34853 0.0
C212 C 1.05191 0.42049 0.349 0.0
C213 C 0.13366 0.49767 0.34849 0.0
C214 C 0.20826 0.48936 0.34807 0.0
C215 C 0.20206 0.40756 0.34805 0.0
C216 C 0.14572 0.58805 0.34876 0.0
C217 C 0.08113 0.60689 0.34682 0.0
C218 C 0.09342 0.69732 0.3473 0.0
C219 C 1.01951 0.7064 0.35006 0.0
C220 C 1.02596 0.78833 0.35029 0.0
C221 C 0.10676 0.86454 0.34764 0.0
H222 H 0.23352 0.77078 0.34185 0.0
C223 C 0.18112 0.85609 0.34475 0.0
C224 C 0.17467 0.77372 0.34454 0.0
H225 H 0.24443 0.91314 0.34251 0.0
H226 H 0.982 0.28063 0.34942 0.0
H227 H 0.99223 0.42244 0.34962 0.0
H228 H 0.27226 0.54673 0.34773 0.0
H229 H 0.26154 0.40489 0.3477 0.0
H230 H 0.21197 0.64148 0.35077 0.0
H231 H 1.01471 0.55372 0.34508 0.0
H232 H 0.9559 0.64954 0.35211 0.0
H233 H 0.96706 0.79171 0.35252 0.0
C234 C 0.16855 0.11101 0.25592 0.0
C235 C 0.09374 0.07763 0.27118 0.0
C236 C 0.16179 0.10585 0.22923 0.0
C237 C 0.07985 0.06677 0.21716 0.0
C238 C 1.00523 1.03413 0.23245 0.0
C239 C 1.01196 1.03901 0.25914 0.0
C240 C 1.06987 0.06207 0.18884 0.0
C241 C 0.12921 0.06247 0.17231 0.0
C242 C 0.11972 0.05835 0.14399 0.0
C243 C 0.16492 1.02719 0.12862 0.0
C244 C 0.15937 1.02402 0.10193 0.0
C245 C 0.10915 0.05295 0.08995 0.0
H246 H 1.03606 0.11478 0.1431 0.0
C247 C 1.06446 0.08493 0.1053 0.0
C248 C 1.06974 0.08777 0.13201 0.0
H249 H 1.02568 0.10832 0.09669 0.0
H250 H 0.2326 0.1418 0.26459 0.0
H251 H 0.22106 0.13429 0.21823 0.0
H252 H 0.94136 1.00443 0.22371 0.0
H253 H 0.95303 1.01302 0.27033 0.0
H254 H 1.00957 0.05416 0.18151 0.0
H255 H 0.18554 0.06191 0.17963 0.0
H256 H 0.20454 1.00488 0.13729 0.0
H257 H 0.19499 0.99939 0.09069 0.0
C258 C 0.21056 0.13196 0.43745 0.0
C259 C 0.13644 0.12104 0.4249 0.0
C260 C 0.21482 0.13661 0.46423 0.0
C261 C 0.14545 0.1317 0.47891 0.0
C262 C 1.07267 0.12341 0.46634 0.0
C263 C 1.06764 0.11699 0.43963 0.0
C264 C 0.14716 0.13544 0.50731 0.0
C265 C 0.18225 0.09788 0.52065 0.0
C266 C 0.17596 0.09359 0.54892 0.0
C267 C 0.16607 1.01926 0.56011 0.0
C268 C 0.15779 1.01199 0.58661 0.0
C269 C 0.1614 0.07999 0.60255 0.0
H270 H 0.18984 0.2211 0.5568 0.0
C271 C 0.17368 0.15556 0.59143 0.0
C272 C 0.1803 0.16209 0.56484 0.0
H273 H 0.17728 0.20925 0.60325 0.0
H274 H 0.26469 0.13557 0.42659 0.0
H275 H 0.27265 0.14487 0.47339 0.0
H276 H 1.0187 0.1201 0.47723 0.0
H277 H 1.00996 0.10933 0.43051 0.0
H278 H 0.11161 0.16282 0.51738 0.0
H279 H 0.20958 0.06236 0.51043 0.0
H280 H 0.16317 0.9659 0.54827 0.0
H281 H 0.14917 0.95326 0.59461 0.0
C282 C 0.14433 0.10266 0.77168 0.0
C283 C 0.11777 1.02882 0.75502 0.0
C284 C 0.13803 0.09499 0.79819 0.0
C285 C 0.1047 1.01307 0.80869 0.0
C286 C 0.079 0.93946 0.79205 0.0
C287 C 0.08489 0.94706 0.7655 0.0
C288 C 0.0995 1.00275 0.83682 0.0
C289 C 0.09151 0.05808 0.85383 0.0
C290 C 0.08872 1.04985 0.88203 0.0
C291 C 1.05027 0.08862 0.89731 0.0
C292 C 1.04947 0.08557 0.92397 0.0
C293 C 0.08819 1.04457 0.93599 0.0
H294 H 0.15972 0.97991 0.88308 0.0
C295 C 0.12679 1.00574 0.92075 0.0
C296 C 0.12718 1.00839 0.89407 0.0
H297 H 0.15759 0.97401 0.92943 0.0
H298 H 0.17051 0.16673 0.76426 0.0
H299 H 0.16116 0.1537 0.81033 0.0
H300 H 1.05392 0.87571 0.7996 0.0
H301 H 1.06421 0.88891 0.75322 0.0
H302 H 0.09888 0.94571 0.84352 0.0
H303 H 0.08359 0.11018 0.84689 0.0
H304 H 1.02084 0.12163 0.8886 0.0
H305 H 1.01948 0.1164 0.93515 0.0
loop_
_geom_bond_atom_site_label_1
_geom_bond_atom_site_label_2
_geom_bond_distance
_geom_bond_site_symmetry_2
_ccdc_geom_bond_type
Co0 N5 2.057 1_554 S
Co0 O17 2.021 . S
Co0 O20 2.062 1_455 S
Co0 O24 2.117 1_554 S
Co0 O25 2.020 1_565 S
C1 O21 1.259 1_455 S
C1 O24 1.258 1_545 S
Co2 N11 2.057 1_556 S
Co2 O18 2.116 1_656 S
Co2 O19 2.017 1_546 S
Co2 O21 2.022 . S
Co2 O26 2.061 1_655 S
C3 N5 1.316 1_554 S
C3 N6 1.347 1_554 S
C3 H8 0.931 . S
C4 N5 1.375 . S
C4 C7 1.350 . S
C4 H9 0.930 . S
N5 Co0 2.057 1_556 S
N5 C3 1.316 1_556 S
N5 C4 1.375 . S
N6 C3 1.347 1_556 S
N6 C7 1.373 . S
C7 C4 1.350 . S
C7 N6 1.373 . S
C7 H28 0.931 . S
H8 C3 0.931 . S
H9 C4 0.930 . S
C10 O17 1.259 1_545 S
C10 O18 1.258 . S
N11 Co2 2.057 1_554 S
N11 C12 1.316 1_554 S
N11 C13 1.375 . S
C12 N11 1.316 1_556 S
C12 N14 1.347 1_556 S
C12 H23 0.931 . S
C13 N11 1.375 . S
C13 C15 1.350 . S
C13 H22 0.930 . S
N14 C12 1.347 1_554 S
N14 C15 1.373 . S
C15 C13 1.350 . S
C15 N14 1.373 . S
C15 H29 0.931 . S
C16 O19 1.261 . S
C16 O20 1.255 . S
O17 Co0 2.021 . S
O17 C10 1.259 1_565 S
O18 Co2 2.116 1_454 S
O18 C10 1.258 . S
O19 Co2 2.017 1_564 S
O19 C16 1.261 . S
O20 Co0 2.062 1_655 S
O20 C16 1.255 . S
O21 C1 1.259 1_655 S
O21 Co2 2.022 . S
H22 C13 0.930 . S
H23 C12 0.931 . S
O24 Co0 2.117 1_556 S
O24 C1 1.258 1_565 S
O25 Co0 2.020 1_545 S
O25 C27 1.256 . S
O26 Co2 2.061 1_455 S
O26 C27 1.253 1_556 S
C27 O25 1.256 . S
C27 O26 1.253 1_554 S
H28 C7 0.931 . S
H29 C15 0.931 . S
Co30 N35 2.057 . S
Co30 O47 2.021 . S
Co30 O50 2.062 1_545 S
Co30 O54 2.117 . S
Co30 O55 2.020 . S
C31 O51 1.259 1_445 S
C31 O54 1.258 . S
Co32 N41 2.057 . S
Co32 O48 2.117 1_565 S
Co32 O49 2.020 . S
Co32 O51 2.021 . S
Co32 O56 2.062 1_665 S
C33 N35 1.316 . S
C33 N36 1.347 . S
C33 H38 0.931 . S
C34 N35 1.375 . S
C34 C37 1.350 . S
C34 H39 0.930 . S
N35 Co30 2.057 . S
N35 C33 1.316 . S
N35 C34 1.375 . S
N36 C33 1.347 . S
N36 C37 1.373 . S
C37 C34 1.350 . S
C37 N36 1.373 . S
C37 H58 0.931 . S
H38 C33 0.931 . S
H39 C34 0.930 . S
C40 O47 1.259 . S
C40 O48 1.258 1_455 S
N41 Co32 2.057 . S
N41 C42 1.316 . S
N41 C43 1.375 . S
C42 N41 1.316 . S
C42 N44 1.347 . S
C42 H53 0.931 . S
C43 N41 1.375 . S
C43 C45 1.350 . S
C43 H52 0.930 . S
N44 C42 1.347 . S
N44 C45 1.373 . S
C45 C43 1.350 . S
C45 N44 1.373 . S
C45 H59 0.931 . S
C46 O49 1.256 1_455 S
C46 O50 1.255 . S
O47 Co30 2.021 . S
O47 C40 1.259 . S
O48 Co32 2.117 1_545 S
O48 C40 1.258 1_655 S
O49 Co32 2.020 . S
O49 C46 1.256 1_655 S
O50 Co30 2.062 1_565 S
O50 C46 1.255 . S
O51 C31 1.259 1_665 S
O51 Co32 2.021 . S
H52 C43 0.930 . S
H53 C42 0.931 . S
O54 Co30 2.117 . S
O54 C31 1.258 . S
O55 Co30 2.020 . S
O55 C57 1.256 . S
O56 Co32 2.062 1_445 S
O56 C57 1.255 . S
C57 O55 1.256 . S
C57 O56 1.255 . S
H58 C37 0.931 . S
H59 C45 0.931 . S
Co60 N65 2.057 . S
Co60 O77 2.021 . S
Co60 O80 2.062 . S
Co60 O84 2.117 1_655 S
Co60 O85 2.020 1_655 S
C61 O81 1.259 . S
C61 O84 1.258 1_545 S
Co62 N71 2.057 . S
Co62 O78 2.117 . S
Co62 O79 2.020 1_455 S
Co62 O81 2.021 . S
Co62 O86 2.062 . S
C63 N65 1.316 . S
C63 N66 1.347 . S
C63 H68 0.931 . S
C64 N65 1.375 . S
C64 C67 1.350 . S
C64 H69 0.930 . S
N65 Co60 2.057 . S
N65 C63 1.316 . S
N65 C64 1.375 . S
N66 C63 1.347 . S
N66 C67 1.373 . S
C67 C64 1.350 . S
C67 N66 1.373 . S
C67 H88 0.931 . S
H68 C63 0.931 . S
H69 C64 0.930 . S
C70 O77 1.259 1_445 S
C70 O78 1.258 . S
N71 Co62 2.057 . S
N71 C72 1.316 . S
N71 C73 1.375 . S
C72 N71 1.316 . S
C72 N74 1.347 . S
C72 H83 0.931 . S
C73 N71 1.375 . S
C73 C75 1.350 . S
C73 H82 0.930 . S
N74 C72 1.347 . S
N74 C75 1.373 . S
C75 C73 1.350 . S
C75 N74 1.373 . S
C75 H89 0.931 . S
C76 O79 1.256 . S
C76 O80 1.255 1_545 S
O77 Co60 2.021 . S
O77 C70 1.259 1_665 S
O78 Co62 2.117 . S
O78 C70 1.258 . S
O79 Co62 2.020 1_655 S
O79 C76 1.256 . S
O80 Co60 2.062 . S
O80 C76 1.255 1_565 S
O81 C61 1.259 . S
O81 Co62 2.021 . S
H82 C73 0.930 . S
H83 C72 0.931 . S
O84 Co60 2.117 1_455 S
O84 C61 1.258 1_565 S
O85 Co60 2.020 1_455 S
O85 C87 1.256 . S
O86 Co62 2.062 . S
O86 C87 1.255 1_545 S
C87 O85 1.256 . S
C87 O86 1.255 1_565 S
H88 C67 0.931 . S
H89 C75 0.931 . S
C90 C91 1.379 1_456 S
C90 C92 1.383 . S
C90 H106 0.951 . S
C91 C90 1.379 1_654 S
C91 C95 1.385 . S
C92 C90 1.383 . S
C92 C93 1.402 1_455 S
C92 H107 0.951 . S
C93 C92 1.402 1_655 S
C93 C94 1.375 1_556 S
C93 C96 1.481 . S
C94 C93 1.375 1_554 S
C94 C95 1.367 . S
C94 H108 0.951 . S
C95 C91 1.385 . S
C95 C94 1.367 . S
C95 H109 0.950 . S
C96 C93 1.481 . S
C96 C97 1.297 1_655 S
C96 H110 0.958 . S
C97 C96 1.297 1_455 S
C97 C98 1.479 . S
C97 H111 0.950 . S
C98 C97 1.479 . S
C98 C99 1.375 . S
C98 C104 1.404 1_455 S
C99 C98 1.375 . S
C99 C100 1.369 . S
C99 H112 0.950 . S
C100 C99 1.369 . S
C100 C101 1.392 . S
C100 H113 0.951 . S
C101 C100 1.392 . S
C101 C103 1.384 . S
H102 C104 0.949 . S
C103 C101 1.384 . S
C103 C104 1.385 1_455 S
C103 H105 0.954 1_455 S
C104 C98 1.404 1_655 S
C104 H102 0.949 . S
C104 C103 1.385 1_655 S
H105 C103 0.954 1_655 S
H106 C90 0.951 . S
H107 C92 0.951 . S
H108 C94 0.951 . S
H109 C95 0.950 . S
H110 C96 0.958 . S
H111 C97 0.950 . S
H112 C99 0.950 . S
H113 C100 0.951 . S
C114 C115 1.386 . S
C114 C116 1.383 . S
C114 H130 0.951 . S
C115 C114 1.386 . S
C115 C119 1.383 . S
C116 C114 1.383 . S
C116 C117 1.402 . S
C116 H131 0.951 . S
C117 C116 1.402 . S
C117 C118 1.375 . S
C117 C120 1.481 . S
C118 C117 1.375 . S
C118 C119 1.367 . S
C118 H132 0.951 . S
C119 C115 1.383 . S
C119 C118 1.367 . S
C119 H133 0.950 . S
C120 C117 1.481 . S
C120 C121 1.297 1_545 S
C120 H134 0.950 . S
C121 C120 1.297 1_565 S
C121 C122 1.479 . S
C121 H135 0.950 . S
C122 C121 1.479 . S
C122 C123 1.375 . S
C122 C128 1.404 . S
C123 C122 1.375 . S
C123 C124 1.369 . S
C123 H136 0.950 . S
C124 C123 1.369 . S
C124 C125 1.392 . S
C124 H137 0.951 . S
C125 C124 1.392 . S
C125 C127 1.384 . S
H126 C128 0.949 . S
C127 C125 1.384 . S
C127 C128 1.385 . S
C127 H129 0.950 . S
C128 C122 1.404 . S
C128 H126 0.949 . S
C128 C127 1.385 . S
H129 C127 0.950 . S
H130 C114 0.951 . S
H131 C116 0.951 . S
H132 C118 0.951 . S
H133 C119 0.950 . S
H134 C120 0.950 . S
H135 C121 0.950 . S
H136 C123 0.950 . S
H137 C124 0.951 . S
C138 C139 1.386 . S
C138 C140 1.383 . S
C138 H154 0.951 . S
C139 C138 1.386 . S
C139 C143 1.383 . S
C140 C138 1.383 . S
C140 C141 1.402 . S
C140 H155 0.951 . S
C141 C140 1.402 . S
C141 C142 1.375 . S
C141 C144 1.481 . S
C142 C141 1.375 . S
C142 C143 1.367 . S
C142 H156 0.951 . S
C143 C139 1.383 . S
C143 C142 1.367 . S
C143 H157 0.950 . S
C144 C141 1.481 . S
C144 C145 1.297 . S
C144 H158 0.950 . S
C145 C144 1.297 . S
C145 C146 1.479 . S
C145 H159 0.950 . S
C146 C145 1.479 . S
C146 C147 1.375 . S
C146 C152 1.404 . S
C147 C146 1.375 . S
C147 C148 1.369 . S
C147 H160 0.950 . S
C148 C147 1.369 . S
C148 C149 1.392 . S
C148 H161 0.951 . S
C149 C148 1.392 . S
C149 C151 1.384 . S
H150 C152 0.949 . S
C151 C149 1.384 . S
C151 C152 1.385 . S
C151 H153 0.950 . S
C152 C146 1.404 . S
C152 H150 0.949 . S
C152 C151 1.385 . S
H153 C151 0.950 . S
H154 C138 0.951 . S
H155 C140 0.951 . S
H156 C142 0.951 . S
H157 C143 0.950 . S
H158 C144 0.950 . S
H159 C145 0.950 . S
H160 C147 0.950 . S
H161 C148 0.951 . S
C162 C163 1.386 . S
C162 C164 1.383 . S
C162 H178 0.951 . S
C163 C162 1.386 . S
C163 C167 1.383 . S
C164 C162 1.383 . S
C164 C165 1.402 . S
C164 H179 0.951 . S
C165 C164 1.402 . S
C165 C166 1.375 1_545 S
C165 C168 1.481 . S
C166 C165 1.375 1_565 S
C166 C167 1.367 1_565 S
C166 H180 0.951 . S
C167 C163 1.383 . S
C167 C166 1.367 1_545 S
C167 H181 0.950 1_545 S
C168 C165 1.481 . S
C168 C169 1.297 . S
C168 H182 0.950 1_545 S
C169 C168 1.297 . S
C169 C170 1.479 . S
C169 H183 0.950 . S
C170 C169 1.479 . S
C170 C171 1.375 . S
C170 C176 1.404 1_545 S
C171 C170 1.375 . S
C171 C172 1.369 . S
C171 H184 0.950 . S
C172 C171 1.369 . S
C172 C173 1.392 1_545 S
C172 H185 0.951 . S
C173 C172 1.392 1_565 S
C173 C175 1.384 . S
H174 C176 0.949 . S
C175 C173 1.384 . S
C175 C176 1.385 . S
C175 H177 0.950 . S
C176 C170 1.404 1_565 S
C176 H174 0.949 . S
C176 C175 1.385 . S
H177 C175 0.950 . S
H178 C162 0.951 . S
H179 C164 0.951 . S
H180 C166 0.951 . S
H181 C167 0.950 1_565 S
H182 C168 0.950 1_565 S
H183 C169 0.950 . S
H184 C171 0.950 . S
H185 C172 0.951 . S
C186 C187 1.386 1_556 S
C186 C188 1.383 . S
C186 H202 0.951 . S
C187 C186 1.386 1_554 S
C187 C191 1.383 . S
C188 C186 1.383 . S
C188 C189 1.402 1_556 S
C188 H203 0.951 . S
C189 C188 1.402 1_554 S
C189 C190 1.375 . S
C189 C192 1.481 . S
C190 C189 1.375 . S
C190 C191 1.367 . S
C190 H204 0.951 . S
C191 C187 1.383 . S
C191 C190 1.367 . S
C191 H205 0.950 . S
C192 C189 1.481 . S
C192 C193 1.297 1_554 S
C192 H206 0.950 . S
C193 C192 1.297 1_556 S
C193 C194 1.479 . S
C193 H207 0.950 . S
C194 C193 1.479 . S
C194 C195 1.375 . S
C194 C200 1.404 1_556 S
C195 C194 1.375 . S
C195 C196 1.369 . S
C195 H208 0.950 . S
C196 C195 1.369 . S
C196 C197 1.395 1_556 S
C196 H209 0.951 . S
C197 C196 1.395 1_554 S
C197 C199 1.382 . S
H198 C200 0.949 . S
C199 C197 1.382 . S
C199 C200 1.385 . S
C199 H201 0.950 . S
C200 C194 1.404 1_554 S
C200 H198 0.949 . S
C200 C199 1.385 . S
H201 C199 0.950 . S
H202 C186 0.951 . S
H203 C188 0.951 . S
H204 C190 0.951 . S
H205 C191 0.950 . S
H206 C192 0.950 . S
H207 C193 0.950 . S
H208 C195 0.950 . S
H209 C196 0.951 . S
C210 C211 1.386 . S
C210 C212 1.383 . S
C210 H226 0.951 . S
C211 C210 1.386 . S
C211 C215 1.383 . S
C212 C210 1.383 . S
C212 C213 1.402 . S
C212 H227 0.951 1_455 S
C213 C212 1.402 . S
C213 C214 1.375 . S
C213 C216 1.481 . S
C214 C213 1.375 . S
C214 C215 1.367 . S
C214 H228 0.951 . S
C215 C211 1.383 . S
C215 C214 1.367 . S
C215 H229 0.950 . S
C216 C213 1.481 . S
C216 C217 1.297 . S
C216 H230 0.950 . S
C217 C216 1.297 . S
C217 C218 1.479 . S
C217 H231 0.950 1_455 S
C218 C217 1.479 . S
C218 C219 1.375 1_455 S
C218 C224 1.404 . S
C219 C218 1.375 1_655 S
C219 C220 1.369 . S
C219 H232 0.950 . S
C220 C219 1.369 . S
C220 C221 1.392 1_655 S
C220 H233 0.951 . S
C221 C220 1.392 1_455 S
C221 C223 1.384 . S
H222 C224 0.949 . S
C223 C221 1.384 . S
C223 C224 1.385 . S
C223 H225 0.950 . S
C224 C218 1.404 . S
C224 H222 0.949 . S
C224 C223 1.385 . S
H225 C223 0.950 . S
H226 C210 0.951 . S
H227 C212 0.951 1_655 S
H228 C214 0.951 . S
H229 C215 0.950 . S
H230 C216 0.950 . S
H231 C217 0.950 1_655 S
H232 C219 0.950 . S
H233 C220 0.951 . S
C234 C235 1.386 . S
C234 C236 1.383 . S
C234 H250 0.951 . S
C235 C234 1.386 . S
C235 C239 1.383 1_445 S
C236 C234 1.383 . S
C236 C237 1.402 1_545 S
C236 H251 0.951 . S
C237 C236 1.402 1_565 S
C237 C238 1.375 1_455 S
C237 C240 1.481 1_455 S
C238 C237 1.375 1_655 S
C238 C239 1.367 . S
C238 H252 0.951 . S
C239 C235 1.383 1_665 S
C239 C238 1.367 . S
C239 H253 0.950 . S
C240 C237 1.481 1_655 S
C240 C241 1.297 1_655 S
C240 H254 0.950 . S
C241 C240 1.297 1_455 S
C241 C242 1.479 . S
C241 H255 0.950 1_565 S
C242 C241 1.479 . S
C242 C243 1.375 1_565 S
C242 C248 1.404 1_455 S
C243 C242 1.375 1_545 S
C243 C244 1.369 . S
C243 H256 0.950 . S
C244 C243 1.369 . S
C244 C245 1.392 . S
C244 H257 0.951 . S
C245 C244 1.392 . S
C245 C247 1.382 1_445 S
H246 C248 0.949 . S
C247 C245 1.382 1_665 S
C247 C248 1.385 . S
C247 H249 0.950 . S
C248 C242 1.404 1_655 S
C248 H246 0.949 . S
C248 C247 1.385 . S
H249 C247 0.950 . S
H250 C234 0.951 . S
H251 C236 0.951 . S
H252 C238 0.951 . S
H253 C239 0.950 . S
H254 C240 0.950 . S
H255 C241 0.950 1_545 S
H256 C243 0.950 . S
H257 C244 0.951 . S
C258 C259 1.386 1_565 S
C258 C260 1.383 . S
C258 H274 0.951 . S
C259 C258 1.386 1_545 S
C259 C263 1.383 . S
C260 C258 1.383 . S
C260 C261 1.398 1_565 S
C260 H275 0.954 . S
C261 C260 1.398 1_545 S
C261 C262 1.375 . S
C261 C264 1.481 . S
C262 C261 1.375 . S
C262 C263 1.367 . S
C262 H276 0.951 . S
C263 C259 1.383 . S
C263 C262 1.367 . S
C263 H277 0.950 . S
C264 C261 1.481 . S
C264 C265 1.297 . S
C264 H278 0.950 . S
C265 C264 1.297 . S
C265 C266 1.479 . S
C265 H279 0.950 . S
C266 C265 1.479 . S
C266 C267 1.375 1_545 S
C266 C272 1.404 . S
C267 C266 1.375 1_565 S
C267 C268 1.369 . S
C267 H280 0.950 . S
C268 C267 1.369 . S
C268 C269 1.392 1_565 S
C268 H281 0.951 . S
C269 C268 1.392 1_545 S
C269 C271 1.384 . S
H270 C272 0.949 . S
C271 C269 1.384 . S
C271 C272 1.385 . S
C271 H273 0.950 . S
C272 C266 1.404 . S
C272 H270 0.949 . S
C272 C271 1.385 . S
H273 C271 0.950 . S
H274 C258 0.951 . S
H275 C260 0.954 . S
H276 C262 0.951 . S
H277 C263 0.950 . S
H278 C264 0.950 . S
H279 C265 0.950 . S
H280 C267 0.950 . S
H281 C268 0.951 . S
C282 C283 1.386 . S
C282 C284 1.383 . S
C282 H298 0.951 . S
C283 C282 1.386 . S
C283 C287 1.383 1_545 S
C284 C282 1.383 . S
C284 C285 1.402 1_545 S
C284 H299 0.951 . S
C285 C284 1.402 1_565 S
C285 C286 1.375 . S
C285 C288 1.481 . S
C286 C285 1.375 . S
C286 C287 1.367 . S
C286 H300 0.951 . S
C287 C283 1.383 1_565 S
C287 C286 1.367 . S
C287 H301 0.950 . S
C288 C285 1.481 . S
C288 C289 1.293 1_465 S
C288 H302 0.955 . S
C289 C288 1.293 1_645 S
C289 C290 1.479 . S
C289 H303 0.950 . S
C290 C289 1.479 . S
C290 C291 1.375 . S
C290 C296 1.404 1_545 S
C291 C290 1.375 . S
C291 C292 1.369 1_655 S
C291 H304 0.950 . S
C292 C291 1.369 1_455 S
C292 C293 1.392 . S
C292 H305 0.951 . S
C293 C292 1.392 . S
C293 C295 1.384 1_445 S
H294 C296 0.949 . S
C295 C293 1.384 1_665 S
C295 C296 1.385 . S
C295 H297 0.950 . S
C296 C290 1.404 1_565 S
C296 H294 0.949 . S
C296 C295 1.385 . S
H297 C295 0.950 . S
H298 C282 0.951 . S
H299 C284 0.951 . S
H300 C286 0.951 . S
H301 C287 0.950 . S
H302 C288 0.955 . S
H303 C289 0.950 . S
H304 C291 0.950 . S
H305 C292 0.951 . S
C91 N14 0.491 . S
C101 N6 0.283 . S
C115 N36 0.314 . S
C125 N44 0.524 . S
C139 N66 0.301 . S
C149 N74 0.533 . S
C163 C76 2.607 . S
C173 C87 2.581 . S
C187 C16 2.597 . S
C197 C27 2.605 . S
C211 C57 2.604 . S
C221 C46 2.606 . S
C235 C31 1.488 . S
C245 C10 1.472 . S
C259 C40 1.494 . S
C269 C61 1.477 . S
C283 C70 1.486 . S
C293 C1 1.481 . S
