# Generated by pormake.
# Topology sml, (6)-cn, num edge types: 1
# Building blocks:
#     Node 0, Type 0, BuildingBlock: CUKXOW_clean_sbu_0, # of connection points: 6
#     Node 1, Type 0, BuildingBlock: CUKXOW_clean_sbu_0, # of connection points: 6
#     Node 2, Type 0, BuildingBlock: CUKXOW_clean_sbu_0, # of connection points: 6
#     Node 3, Type 0, BuildingBlock: CUKXOW_clean_sbu_0, # of connection points: 6
#     Node 4, Type 0, BuildingBlock: CUKXOW_clean_sbu_0, # of connection points: 6
#     Node 5, Type 0, BuildingBlock: CUKXOW_clean_sbu_0, # of connection points: 6
#     Edge 6, Type (0, 0), BuildingBlock: TEMPAE_clean_linker_10, # of connection points: 2
#     Edge 7, Type (0, 0), BuildingBlock: TEMPAE_clean_linker_10, # of connection points: 2
#     Edge 8, Type (0, 0), BuildingBlock: TEMPAE_clean_linker_10, # of connection points: 2
#     Edge 9, Type (0, 0), BuildingBlock: TEMPAE_clean_linker_10, # of connection points: 2
#     Edge 10, Type (0, 0), BuildingBlock: TEMPAE_clean_linker_10, # of connection points: 2
#     Edge 11, Type (0, 0), BuildingBlock: TEMPAE_clean_linker_10, # of connection points: 2
#     Edge 12, Type (0, 0), BuildingBlock: TEMPAE_clean_linker_10, # of connection points: 2
#     Edge 13, Type (0, 0), BuildingBlock: TEMPAE_clean_linker_10, # of connection points: 2
#     Edge 14, Type (0, 0), BuildingBlock: TEMPAE_clean_linker_10, # of connection points: 2
#     Edge 15, Type (0, 0), BuildingBlock: TEMPAE_clean_linker_10, # of connection points: 2
#     Edge 16, Type (0, 0), BuildingBlock: TEMPAE_clean_linker_10, # of connection points: 2
#     Edge 17, Type (0, 0), BuildingBlock: TEMPAE_clean_linker_10, # of connection points: 2
#     Edge 18, Type (0, 0), BuildingBlock: TEMPAE_clean_linker_10, # of connection points: 2
#     Edge 19, Type (0, 0), BuildingBlock: TEMPAE_clean_linker_10, # of connection points: 2
#     Edge 20, Type (0, 0), BuildingBlock: TEMPAE_clean_linker_10, # of connection points: 2
#     Edge 21, Type (0, 0), BuildingBlock: TEMPAE_clean_linker_10, # of connection points: 2
#     Edge 22, Type (0, 0), BuildingBlock: TEMPAE_clean_linker_10, # of connection points: 2
#     Edge 23, Type (0, 0), BuildingBlock: TEMPAE_clean_linker_10, # of connection points: 2
# Relax obj value: 0.147
# Max RMSD: 0.193
# Mean RMSD: 0.193
data_MOF--net-sml--node1-CUKXOW_clean_sbu_0--edge1-TEMPAE_clean_linker_10
_symmetry_space_group_name_H-M    P1
_symmetry_Int_Tables_number       1
_symmetry_cell_setting            triclinic
loop_
_symmetry_equiv_pos_as_xyz
'x, y, z'
_cell_length_a     43.353572
_cell_length_b     43.256342
_cell_length_c     14.498778
_cell_angle_alpha  90.05041
_cell_angle_beta   90.138072
_cell_angle_gamma 120.08392
loop_
_atom_site_label
_atom_site_type_symbol
_atom_site_fract_x
_atom_site_fract_y
_atom_site_fract_z
_atom_type_partial_charge
Tb0 Tb 0.19325 0.38415 1.01063 0.0
C1 C 0.11354 0.36573 0.04309 0.0
Tb2 Tb 0.17758 0.44644 0.0532 0.0
O3 O 0.20439 0.37507 0.155 0.0
O4 O 0.19016 0.4122 0.12329 0.0
O5 O 0.13503 0.35439 1.01164 0.0
C6 C 0.16126 0.49256 0.12941 0.0
O7 O 0.12471 0.39948 0.06714 0.0
C8 C 0.18849 0.43691 0.87905 0.0
C9 C 0.25683 0.46442 1.03363 0.0
O10 O 0.17465 0.47575 0.17276 0.0
O11 O 0.1568 0.48321 0.04307 0.0
O12 O 0.19642 0.46763 0.91459 0.0
O13 O 0.17267 0.41295 0.93921 0.0
O14 O 0.23494 0.47383 0.07184 0.0
O15 O 0.24569 0.43223 0.9974 0.0
C16 C 0.20856 0.34106 0.91439 0.0
O17 O 0.21697 0.37332 0.89099 0.0
O18 O 0.19121 0.33294 0.99189 0.0
C19 C 0.19765 0.39873 0.19022 0.0
Tb20 Tb 0.80848 0.20322 0.37931 0.0
C21 C 0.74579 0.12314 0.41205 0.0
Tb22 Tb 0.72778 0.18641 0.4206 0.0
O23 O 0.82484 0.20848 0.52636 0.0
O24 O 0.77516 0.19846 0.48898 0.0
O25 O 0.7795 0.14486 0.38563 0.0
C26 C 0.6687 0.17924 0.49647 0.0
O27 O 0.72243 0.13372 0.43238 0.0
C28 C 0.74242 0.18795 0.24173 0.0
C29 C 0.79056 0.26529 0.39724 0.0
O30 O 0.68367 0.16071 0.51965 0.0
O31 O 0.68709 0.20151 0.43169 0.0
O32 O 0.71195 0.1822 0.27299 0.0
O33 O 0.76111 0.19155 0.3113 0.0
O34 O 0.76109 0.24363 0.44359 0.0
O35 O 0.81037 0.25397 0.35528 0.0
C36 C 0.86935 0.22024 0.29431 0.0
O37 O 0.86643 0.23078 0.37591 0.0
O38 O 0.83773 0.19961 0.25999 0.0
C39 C 0.79448 0.20303 0.55811 0.0
Tb40 Tb 0.59746 0.80495 0.68415 0.0
C41 C 0.61578 0.74388 0.71423 0.0
Tb42 Tb 0.5355 0.72653 0.72241 0.0
O43 O 0.6174 0.80801 0.824 0.0
O44 O 0.5629 0.77593 0.79609 0.0
O45 O 0.62629 0.77571 0.67642 0.0
C46 C 0.48398 0.66798 0.80237 0.0
O47 O 0.58288 0.72229 0.74494 0.0
C48 C 0.55207 0.73724 0.54434 0.0
C49 C 0.51659 0.78652 0.67935 0.0
O50 O 0.48125 0.68162 0.72531 0.0
O51 O 0.51613 0.68731 0.83515 0.0
O52 O 0.52884 0.7065 0.57841 0.0
O53 O 0.56444 0.75825 0.61158 0.0
O54 O 0.50619 0.75501 0.71787 0.0
O55 O 0.55009 0.80905 0.65515 0.0
C56 C 0.64078 0.87023 0.61892 0.0
O57 O 0.62499 0.86289 0.69842 0.0
O58 O 0.63238 0.84064 0.57575 0.0
C59 C 0.58666 0.78469 0.85756 0.0
Tb60 Tb 0.78281 0.6045 0.0514 0.0
C61 C 0.86135 0.62031 0.08093 0.0
Tb62 Tb 0.79655 0.54094 0.09373 0.0
O63 O 0.80034 0.62538 0.19096 0.0
O64 O 0.77684 0.57062 0.16553 0.0
O65 O 0.84077 0.63111 1.04033 0.0
C66 C 0.80252 0.48885 0.17383 0.0
O67 O 0.84878 0.58774 0.11588 0.0
C68 C 0.80124 0.55616 0.91414 0.0
C69 C 0.71807 0.52446 0.05868 0.0
O70 O 0.81853 0.52191 0.20191 0.0
O71 O 0.78344 0.48546 0.1014 0.0
O72 O 0.8081 0.53258 0.94884 0.0
O73 O 0.79353 0.56907 0.9815 0.0
O74 O 0.73882 0.51417 0.09975 0.0
O75 O 0.73027 0.55742 1.02691 0.0
C76 C 0.76365 0.64833 0.97503 0.0
O77 O 0.75414 0.63399 0.05622 0.0
O78 O 0.78438 0.63833 0.93713 0.0
C79 C 0.79243 0.59463 0.22613 0.0
Tb80 Tb 0.17475 0.78677 0.35253 0.0
C81 C 0.23547 0.8662 0.39444 0.0
Tb82 Tb 0.25261 0.80262 0.39468 0.0
O83 O 0.15418 0.77424 0.49606 0.0
O84 O 0.20554 0.78858 0.46494 0.0
O85 O 0.20305 0.84508 0.35943 0.0
C86 C 0.31524 0.81897 0.4691 0.0
O87 O 0.25783 0.85481 0.41754 0.0
C88 C 0.23275 0.79337 0.22017 0.0
C89 C 0.19203 0.72337 0.3642 0.0
O90 O 0.31055 0.82686 0.38575 0.0
O91 O 0.28469 0.80206 0.51063 0.0
O92 O 0.25566 0.78552 0.25459 0.0
O93 O 0.22427 0.80852 0.28161 0.0
O94 O 0.22329 0.74484 0.40383 0.0
O95 O 0.17042 0.73454 0.33283 0.0
C96 C 0.11631 0.77253 0.25777 0.0
O97 O 0.13987 0.76411 0.23239 0.0
O98 O 0.12588 0.7893 0.33632 0.0
C99 C 0.18443 0.78068 0.53147 0.0
Tb100 Tb 0.37912 0.17916 0.70488 0.0
C101 C 0.36275 0.24159 0.73273 0.0
Tb102 Tb 0.44221 0.25683 0.74665 0.0
O103 O 0.35831 0.17634 0.84375 0.0
O104 O 0.41298 0.20751 0.8191 0.0
O105 O 0.35217 0.21017 0.69214 0.0
C106 C 0.49398 0.31574 0.82543 0.0
O107 O 0.39525 0.26184 0.76804 0.0
C108 C 0.42696 0.24603 0.56708 0.0
C109 C 0.45909 0.19492 0.71353 0.0
O110 O 0.46101 0.29865 0.85315 0.0
O111 O 0.49749 0.29955 0.75435 0.0
O112 O 0.45048 0.27658 0.60181 0.0
O113 O 0.41406 0.22537 0.63434 0.0
O114 O 0.46924 0.22609 0.75418 0.0
O115 O 0.42626 0.174 0.68118 0.0
C116 C 0.33549 0.11489 0.63337 0.0
O117 O 0.35002 0.12101 0.71469 0.0
O118 O 0.34524 0.1451 0.59226 0.0
C119 C 0.38901 0.19921 0.87918 0.0
C120 C 0.34613 0.28459 0.79837 0.0
C121 C 0.33686 0.25422 0.74423 0.0
C122 C 0.32167 0.29603 0.81561 0.0
C123 C 0.287 0.27688 0.77722 0.0
C124 C 0.27763 0.24679 0.72036 0.0
C125 C 0.30264 0.23567 0.70486 0.0
C126 C 0.33275 0.32819 0.87706 0.0
C127 C 0.24104 0.22602 0.67736 0.0
C128 C 0.22099 0.2908 0.91527 0.0
C129 C 0.22248 0.31999 0.86946 0.0
C130 C 0.23999 0.2747 0.88219 0.0
C131 C 0.26053 0.28792 0.80082 0.0
C132 C 0.25961 0.31546 0.75024 0.0
C133 C 0.24076 0.33138 0.78563 0.0
C134 C 0.24037 0.24553 0.93846 0.0
C135 C 0.28057 0.32988 0.66234 0.0
H136 H 0.37241 0.29919 0.82934 0.0
H137 H 0.29524 0.21228 0.66263 0.0
H138 H 0.32937 0.34873 0.84002 0.0
H139 H 0.31544 0.32029 0.93895 0.0
H140 H 0.36093 0.34048 0.90021 0.0
H141 H 0.23881 0.20495 0.62938 0.0
H142 H 0.22072 0.2132 0.7322 0.0
H143 H 0.23462 0.24431 0.6391 0.0
H144 H 0.20675 0.28189 0.97999 0.0
H145 H 0.24162 0.35377 0.74964 0.0
H146 H 0.26687 0.25612 0.97175 0.0
H147 H 0.23603 0.22291 0.8936 0.0
H148 H 0.21971 0.23529 0.99318 0.0
H149 H 0.30932 0.34658 0.67928 0.0
H150 H 0.27219 0.34656 0.62336 0.0
H151 H 0.27747 0.30776 0.61722 0.0
C152 C 0.05065 0.35126 0.06586 0.0
C153 C 0.07524 0.33943 0.05573 0.0
C154 C 0.01526 0.32761 0.09101 0.0
C155 C 0.00422 0.29126 0.10736 0.0
C156 C 0.02822 0.27864 0.09126 0.0
C157 C 0.06349 0.3029 0.06524 0.0
C158 C -0.00959 0.34211 0.10624 0.0
C159 C 0.01743 0.24009 0.10778 0.0
C160 C 0.9353 0.25201 0.29632 0.0
C161 C 0.90354 0.23357 0.24597 0.0
C162 C 0.96834 0.26923 0.25189 0.0
C163 C 0.96964 0.26826 0.1544 0.0
C164 C 0.93769 0.2482 0.10327 0.0
C165 C 0.90486 0.2309 0.14991 0.0
C166 C 0.00174 0.29005 0.30923 0.0
C167 C 0.938 0.24659 0.99935 0.0
H168 H 0.05934 0.37934 0.05709 0.0
H169 H 0.08229 0.29351 0.05724 0.0
H170 H 0.96434 0.32476 0.07224 0.0
H171 H 0.98538 0.34236 0.18118 0.0
H172 H 0.0016 0.36974 0.0795 0.0
H173 H 0.03693 0.23331 0.07819 0.0
H174 H 0.01563 0.23495 0.1831 0.0
H175 H -0.00924 0.22197 0.07764 0.0
H176 H 0.93427 0.25388 0.37073 0.0
H177 H 0.88022 0.21669 0.11095 0.0
H178 H 0.0137 0.31903 0.29501 0.0
H179 H 0.0218 0.28237 0.29059 0.0
H180 H -0.00362 0.2857 0.38438 0.0
H181 H 0.94475 0.27301 0.97063 0.0
H182 H 0.91175 0.22618 0.97089 0.0
H183 H 0.95869 0.24052 0.97546 0.0
C184 C 0.75787 0.07301 0.44102 0.0
C185 C 0.73348 0.08469 0.42402 0.0
C186 C 0.74601 0.03723 0.46419 0.0
C187 C 0.70896 0.01262 0.46949 0.0
C188 C 0.68432 0.02386 0.44694 0.0
C189 C 0.69687 0.05975 0.42498 0.0
C190 C 0.77309 0.02628 0.48812 0.0
C191 C 0.64458 -0.00162 0.45067 0.0
C192 C 0.67025 0.91212 0.48727 0.0
C193 C 0.66195 0.90659 0.58131 0.0
C194 C 0.68694 0.94675 0.44989 0.0
C195 C 0.69564 0.9763 0.50835 0.0
C196 C 0.68875 0.97082 0.60413 0.0
C197 C 0.67182 0.93601 0.63929 0.0
C198 C 0.69374 0.95153 0.34745 0.0
C199 C 0.69784 0.00161 0.66902 0.0
H200 H 0.78621 0.09212 0.4405 0.0
H201 H 0.67784 0.06844 0.41059 0.0
H202 H 0.77229 0.0213 0.56337 0.0
H203 H 0.76666 0.00104 0.45244 0.0
H204 H 0.80061 0.04715 0.46948 0.0
H205 H 0.62915 0.01036 0.42212 0.0
H206 H 0.63744 0.9736 0.41164 0.0
H207 H 0.63633 0.99062 0.52329 0.0
H208 H 0.66251 0.88931 0.44237 0.0
H209 H 0.66556 0.93175 0.71218 0.0
H210 H 0.72164 0.97267 0.33384 0.0
H211 H 0.67609 0.9603 0.31567 0.0
H212 H 0.68871 0.92644 0.3131 0.0
H213 H 0.72611 0.02273 0.66049 0.0
H214 H 0.69339 0.99313 0.7424 0.0
H215 H 0.68116 0.01367 0.65236 0.0
C216 C 0.67839 0.75801 0.74467 0.0
C217 C 0.64237 0.73261 0.73036 0.0
C218 C 0.70257 0.74758 0.77564 0.0
C219 C 0.69041 0.71094 0.79146 0.0
C220 C 0.65462 0.68509 0.77098 0.0
C221 C 0.631 0.69627 0.74128 0.0
C222 C 0.74048 0.77592 0.79708 0.0
C223 C 0.64067 0.6457 0.78558 0.0
C224 C 0.75234 0.67394 0.83336 0.0
C225 C 0.74915 0.66869 0.929 0.0
C226 C 0.73458 0.68915 0.78746 0.0
C227 C 0.71357 0.69961 0.83889 0.0
C228 C 0.71193 0.69607 0.93616 0.0
C229 C 0.72956 0.68041 0.97995 0.0
C230 C 0.7368 0.69227 0.68372 0.0
C231 C 0.69012 0.70723 0.99368 0.0
H232 H 0.68727 0.78616 0.73677 0.0
H233 H 0.60326 0.6765 0.72927 0.0
H234 H 0.74446 0.77829 0.87294 0.0
H235 H 0.75952 0.76844 0.76819 0.0
H236 H 0.747 0.80246 0.76944 0.0
H237 H 0.61338 0.6289 0.75709 0.0
H238 H 0.6586 0.63754 0.7528 0.0
H239 H 0.64 0.64018 0.8605 0.0
H240 H 0.76746 0.66477 0.79392 0.0
H241 H 0.72724 0.67649 0.05401 0.0
H242 H 0.74338 0.71949 0.66208 0.0
H243 H 0.71049 0.67322 0.65313 0.0
H244 H 0.75706 0.68641 0.655 0.0
H245 H 0.69703 0.73497 0.97659 0.0
H246 H 0.69424 0.70573 0.06883 0.0
H247 H 0.66138 0.68961 0.97797 0.0
C248 C 0.05402 0.76091 0.26083 0.0
C249 C 0.08119 0.75904 0.21374 0.0
C250 C 0.01873 0.74225 0.22861 0.0
C251 C 0.01066 0.72161 0.14688 0.0
C252 C 0.03858 0.72215 0.09505 0.0
C253 C 0.07357 0.7407 0.12954 0.0
C254 C 0.98976 0.74229 0.28616 0.0
C255 C 0.03121 0.70104 1.00675 0.0
C256 C 0.921 0.63643 0.14543 0.0
C257 C 0.9 0.64601 0.09226 0.0
C258 C 0.95709 0.66065 0.16205 0.0
C259 C 0.97288 0.6954 0.12406 0.0
C260 C 0.95223 0.70509 0.06831 0.0
C261 C 0.91591 0.6803 0.05336 0.0
C262 C 0.97812 0.64924 0.22231 0.0
C263 C 0.96832 0.74178 1.02589 0.0
H264 H 0.05992 0.77521 0.32584 0.0
H265 H 0.09469 0.73953 0.09258 0.0
H266 H 0.97143 0.74683 0.24223 0.0
H267 H 0.97374 0.71581 0.3194 0.0
H268 H 0.00077 0.76306 0.34101 0.0
H269 H 0.05599 0.70915 0.96697 0.0
H270 H 0.01884 0.67221 1.02328 0.0
H271 H 0.01218 0.70441 0.96256 0.0
H272 H 0.90912 0.61008 0.17601 0.0
H273 H 0.89999 0.68794 1.01189 0.0
H274 H 0.98806 0.66661 0.28436 0.0
H275 H 0.0017 0.65234 0.18443 0.0
H276 H 0.96199 0.62104 0.24521 0.0
H277 H 0.97645 0.7622 0.0811 0.0
H278 H 0.94942 0.74428 0.97888 0.0
H279 H -0.00731 0.74791 0.9867 0.0
C280 C 0.30305 0.04877 0.64635 0.0
C281 C 0.31476 0.07917 0.59131 0.0
C282 C 0.2868 0.01456 0.60696 0.0
C283 C 0.28262 0.01076 0.50996 0.0
C284 C 0.29314 0.04134 0.45429 0.0
C285 C 0.30898 0.07529 0.49584 0.0
C286 C 0.27565 0.98264 0.66891 0.0
C287 C 0.28935 0.03839 0.35068 0.0
C288 C 0.28381 0.92898 0.42204 0.0
C289 C 0.24737 0.90429 0.41175 0.0
C290 C 0.29567 0.96431 0.44904 0.0
C291 C 0.27044 0.97517 0.4673 0.0
C292 C 0.23369 0.95087 0.453 0.0
C293 C 0.22256 0.91569 0.42483 0.0
C294 C 0.33516 0.9895 0.46227 0.0
C295 C 0.20601 0.96143 0.47226 0.0
H296 H 0.30738 0.05178 0.7203 0.0
H297 H 0.31815 0.09887 0.45322 0.0
H298 H 0.24775 0.96173 0.65374 0.0
H299 H 0.2928 0.97083 0.65569 0.0
H300 H 0.27776 0.9898 0.74318 0.0
H301 H 0.29557 0.06413 0.3182 0.0
H302 H 0.30773 0.02995 0.32222 0.0
H303 H 0.26188 0.01771 0.33094 0.0
H304 H 0.30319 0.9205 0.4109 0.0
H305 H 0.19434 0.89672 0.41721 0.0
H306 H 0.34104 -0.00419 0.53667 0.0
H307 H 0.3436 0.01504 0.4258 0.0
H308 H 0.3514 0.97798 0.43674 0.0
H309 H 0.20471 0.96511 0.54762 0.0
H310 H 0.17908 0.94095 0.44779 0.0
H311 H 0.21341 0.98728 0.4388 0.0
C312 C 0.17072 0.39716 0.73875 0.0
C313 C 0.19163 0.43092 0.77922 0.0
C314 C 0.17169 0.39217 0.64279 0.0
C315 C 0.19474 0.42144 0.58598 0.0
C316 C 0.21666 0.45533 0.62731 0.0
C317 C 0.21452 0.45972 0.72295 0.0
C318 C 0.14749 0.35569 0.60192 0.0
C319 C 0.24238 0.48706 0.57042 0.0
C320 C 0.21948 0.40011 0.35079 0.0
C321 C 0.1981 0.40664 0.29024 0.0
C322 C 0.21909 0.40536 0.44662 0.0
C323 C 0.19607 0.41663 0.48359 0.0
C324 C 0.1743 0.42315 0.4225 0.0
C325 C 0.17573 0.41826 0.32664 0.0
C326 C 0.24334 0.3988 0.50835 0.0
C327 C 0.14888 0.43455 0.45857 0.0
H328 H 0.15287 0.37483 0.78178 0.0
H329 H 0.23091 0.48584 0.7539 0.0
H330 H 0.12983 0.35744 0.54918 0.0
H331 H 0.16354 0.34578 0.56667 0.0
H332 H 0.13066 0.33587 0.65491 0.0
H333 H 0.25875 0.51116 0.61342 0.0
H334 H 0.26048 0.48057 0.53175 0.0
H335 H 0.2275 0.4935 0.51888 0.0
H336 H 0.2367 0.39093 0.32301 0.0
H337 H 0.15832 0.4222 0.28055 0.0
H338 H 0.22728 0.37701 0.55766 0.0
H339 H 0.26058 0.42311 0.54964 0.0
H340 H 0.2606 0.39142 0.4687 0.0
H341 H 0.12979 0.41415 0.50717 0.0
H342 H 0.1336 0.43831 0.40238 0.0
H343 H 0.16377 0.45998 0.49747 0.0
C344 C 0.77003 0.17529 0.10552 0.0
C345 C 0.75274 0.19229 0.14339 0.0
C346 C 0.77621 0.1764 1.00975 0.0
C347 C 0.76598 0.19609 0.95123 0.0
C348 C 0.74965 0.21434 0.99035 0.0
C349 C 0.74252 0.21152 0.08546 0.0
C350 C 0.79277 0.15573 0.97091 0.0
C351 C 0.73983 0.23701 0.93186 0.0
C352 C 0.81256 0.22521 0.71847 0.0
C353 C 0.78579 0.20224 0.65705 0.0
C354 C 0.80625 0.224 0.81382 0.0
C355 C 0.77272 0.19808 0.84942 0.0
C356 C 0.74561 0.17453 0.78743 0.0
C357 C 0.75227 0.17734 0.69169 0.0
C358 C 0.83545 0.25065 0.87632 0.0
C359 C 0.7099 0.14572 0.8224 0.0
H360 H 0.77731 0.15985 0.15017 0.0
H361 H 0.72914 0.22469 0.11495 0.0
H362 H 0.77517 0.13699 0.91673 0.0
H363 H 0.81861 0.17425 0.93792 0.0
H364 H 0.79745 0.14027 1.02475 0.0
H365 H 0.72947 0.25133 0.97377 0.0
H366 H 0.76348 0.25699 0.89293 0.0
H367 H 0.7192 0.22005 0.88056 0.0
H368 H 0.83853 0.24448 0.69159 0.0
H369 H 0.73181 0.15912 0.64437 0.0
H370 H 0.84426 0.2366 0.92422 0.0
H371 H 0.82527 0.2649 0.91903 0.0
H372 H 0.85901 0.2707 0.8371 0.0
H373 H 0.71377 0.12836 0.87183 0.0
H374 H 0.69212 0.12884 0.76572 0.0
H375 H 0.69637 0.15787 0.86011 0.0
C376 C 0.55136 0.71668 0.3834 0.0
C377 C 0.56005 0.74496 0.44484 0.0
C378 C 0.5558 0.72236 0.28769 0.0
C379 C 0.56852 0.75713 0.25192 0.0
C380 C 0.5775 0.7859 0.3139 0.0
C381 C 0.57339 0.7795 0.40972 0.0
C382 C 0.54674 0.69105 0.22482 0.0
C383 C 0.59065 0.82329 0.2789 0.0
C384 C 0.60937 0.77948 1.01138 0.0
C385 C 0.58074 0.77522 0.95677 0.0
C386 C 0.6056 0.77318 0.10693 0.0
C387 C 0.57261 0.76328 0.1498 0.0
C388 C 0.54346 0.7587 0.0947 0.0
C389 C 0.54774 0.76425 0.99858 0.0
C390 C 0.63702 0.7772 0.162 0.0
C391 C 0.50797 0.74864 0.13756 0.0
H392 H 0.54091 0.68989 0.41034 0.0
H393 H 0.57937 0.80126 0.45683 0.0
H394 H 0.52471 0.68656 0.17756 0.0
H395 H 0.57008 0.69687 0.1814 0.0
H396 H 0.53859 0.66602 0.26373 0.0
H397 H 0.59667 0.84274 0.33585 0.0
H398 H 0.6151 0.83234 0.2372 0.0
H399 H 0.5702 0.82351 0.23313 0.0
H400 H 0.63488 0.78776 0.97913 0.0
H401 H 0.52562 0.76114 0.95664 0.0
H402 H 0.62944 0.75216 0.20009 0.0
H403 H 0.64513 0.79877 0.21394 0.0
H404 H 0.66036 0.78358 0.11776 0.0
H405 H 0.4969 0.72246 0.1727 0.0
H406 H 0.48825 0.74696 0.08577 0.0
H407 H 0.51157 0.76867 0.19073 0.0
C408 C 0.78052 0.57772 0.77928 0.0
C409 C 0.80179 0.56453 0.81459 0.0
C410 C 0.77878 0.58265 0.68357 0.0
C411 C 0.79925 0.57471 0.62172 0.0
C412 C 0.82132 0.56206 0.65769 0.0
C413 C 0.82194 0.55671 0.75329 0.0
C414 C 0.75444 0.59562 0.64854 0.0
C415 C 0.84426 0.55406 0.59513 0.0
C416 C 0.77307 0.55528 0.3667 0.0
C417 C 0.79508 0.58867 0.32612 0.0
C418 C 0.77371 0.55049 0.46282 0.0
C419 C 0.79766 0.57951 0.51952 0.0
C420 C 0.82061 0.61301 0.4781 0.0
C421 C 0.81869 0.61727 0.38235 0.0
C422 C 0.74831 0.5145 0.50393 0.0
C423 C 0.84734 0.64438 0.53489 0.0
H424 H 0.7642 0.58291 0.82612 0.0
H425 H 0.83833 0.54637 0.78029 0.0
H426 H 0.77015 0.62125 0.61132 0.0
H427 H 0.73498 0.57603 0.59867 0.0
H428 H 0.73957 0.59968 0.70511 0.0
H429 H 0.86115 0.54598 0.63419 0.0
H430 H 0.82721 0.53225 0.54653 0.0
H431 H 0.86182 0.57793 0.55313 0.0
H432 H 0.75461 0.53314 0.32365 0.0
H433 H 0.8359 0.6431 0.35122 0.0
H434 H 0.73159 0.51744 0.55714 0.0
H435 H 0.76347 0.50342 0.53866 0.0
H436 H 0.73055 0.49501 0.45115 0.0
H437 H 0.83332 0.65158 0.58705 0.0
H438 H 0.86411 0.66826 0.49193 0.0
H439 H 0.86502 0.63706 0.57284 0.0
C440 C 0.1636 0.76062 0.69246 0.0
C441 C 0.19184 0.78062 0.63166 0.0
C442 C 0.16917 0.76161 0.78844 0.0
C443 C 0.20378 0.78383 0.82525 0.0
C444 C 0.23243 0.80417 0.76393 0.0
C445 C 0.22614 0.80216 0.66794 0.0
C446 C 0.13795 0.73883 0.85047 0.0
C447 C 0.26964 0.82866 0.79985 0.0
C448 C 0.21143 0.81144 0.0794 0.0
C449 C 0.22299 0.78972 0.12076 0.0
C450 C 0.20531 0.81001 0.98338 0.0
C451 C 0.20995 0.78562 0.92767 0.0
C452 C 0.22043 0.76279 0.97009 0.0
C453 C 0.22726 0.76547 0.06561 0.0
C454 C 0.19468 0.8352 0.94122 0.0
C455 C 0.22459 0.73558 0.91451 0.0
H456 H 0.13697 0.74404 0.66477 0.0
H457 H 0.24783 0.81845 0.62159 0.0
H458 H 0.14383 0.72104 0.89283 0.0
H459 H 0.1334 0.75603 0.89881 0.0
H460 H 0.11298 0.72211 0.81097 0.0
H461 H 0.28897 0.84278 0.74347 0.0
H462 H 0.26952 0.84882 0.84702 0.0
H463 H 0.27901 0.81317 0.8403 0.0
H464 H 0.20824 0.83033 0.12165 0.0
H465 H 0.23596 0.74843 0.09738 0.0
H466 H 0.16858 0.81982 0.90572 0.0
H467 H 0.21451 0.85205 0.88844 0.0
H468 H 0.19269 0.85292 0.99347 0.0
H469 H 0.19964 0.71809 0.87591 0.0
H470 H 0.23107 0.71855 0.95845 0.0
H471 H 0.24611 0.74932 0.86299 0.0
C472 C 0.42664 0.26637 0.40641 0.0
C473 C 0.41857 0.23823 0.46755 0.0
C474 C 0.42137 0.26048 0.31077 0.0
C475 C 0.40855 0.22567 0.27468 0.0
C476 C 0.4003 0.19707 0.33639 0.0
C477 C 0.40516 0.20367 0.43216 0.0
C478 C 0.42968 0.29161 0.24828 0.0
C479 C 0.38714 0.15965 0.30112 0.0
C480 C 0.3664 0.20308 1.03455 0.0
C481 C 0.39492 0.20785 0.9791 0.0
C482 C 0.37056 0.20915 0.13034 0.0
C483 C 0.40386 0.21937 0.17251 0.0
C484 C 0.43281 0.22426 0.11659 0.0
C485 C 0.42813 0.21893 1.0204 0.0
C486 C 0.3393 0.20473 0.18639 0.0
C487 C 0.46859 0.23454 0.15857 0.0
H488 H 0.43713 0.29318 0.43355 0.0
H489 H 0.39973 0.18203 0.47898 0.0
H490 H 0.45145 0.29625 0.20023 0.0
H491 H 0.40598 0.2855 0.20571 0.0
H492 H 0.43789 0.31665 0.28745 0.0
H493 H 0.38221 0.14045 0.35779 0.0
H494 H 0.36203 0.15017 0.26162 0.0
H495 H 0.40704 0.15959 0.25322 0.0
H496 H 0.34072 0.19469 1.00279 0.0
H497 H 0.45019 0.22244 0.97788 0.0
H498 H 0.34675 0.22982 0.22435 0.0
H499 H 0.3319 0.18341 0.2385 0.0
H500 H 0.31556 0.19779 0.14287 0.0
H501 H 0.47979 0.26082 0.19359 0.0
H502 H 0.48803 0.23616 0.10627 0.0
H503 H 0.46539 0.21469 0.2117 0.0
C504 C 0.15514 0.5246 0.26474 0.0
C505 C 0.15734 0.52174 0.16906 0.0
C506 C 0.15573 0.55458 0.30401 0.0
C507 C 0.1599 0.5828 0.24618 0.0
C508 C 0.16089 0.57936 0.14916 0.0
C509 C 0.15902 0.54855 0.11171 0.0
C510 C 0.15342 0.55672 0.40746 0.0
C511 C 0.16622 0.60918 0.08516 0.0
C512 C 0.14743 0.65957 0.32641 0.0
C513 C 0.18272 0.68605 0.34523 0.0
C514 C 0.13922 0.62512 0.29854 0.0
C515 C 0.1671 0.61741 0.28676 0.0
C516 C 0.20262 0.6438 0.30801 0.0
C517 C 0.20991 0.6776 0.33804 0.0
C518 C 0.10091 0.59733 0.27916 0.0
C519 C 0.23325 0.63695 0.29465 0.0
H520 H 0.15361 0.50368 0.309 0.0
H521 H 0.16093 0.54637 1.03768 0.0
H522 H 0.17981 0.57679 0.43557 0.0
H523 H 0.1342 0.56553 0.42609 0.0
H524 H 0.14512 0.53066 0.44121 0.0
H525 H 0.16453 0.60154 1.01136 0.0
H526 H 0.14599 0.61714 0.09867 0.0
H527 H 0.1928 0.63299 0.098 0.0
H528 H 0.12628 0.6659 0.33231 0.0
H529 H 0.2373 0.698 0.35157 0.0
H530 H 0.09406 0.57185 0.31396 0.0
H531 H 0.09709 0.59183 0.20402 0.0
H532 H 0.08208 0.60608 0.3024 0.0
H533 H 0.22864 0.61315 0.33451 0.0
H534 H 0.25921 0.66003 0.31647 0.0
H535 H 0.23509 0.63128 0.22082 0.0
C536 C 0.62247 0.19686 0.49849 0.0
C537 C 0.63586 0.17603 0.53555 0.0
C538 C 0.59177 0.19527 0.53421 0.0
C539 C 0.57396 0.17231 0.60925 0.0
C540 C 0.58705 0.15077 0.64641 0.0
C541 C 0.61799 0.15289 0.60894 0.0
C542 C 0.57876 0.21872 0.49244 0.0
C543 C 0.56873 0.12602 0.72639 0.0
C544 C 0.52005 0.20414 0.74136 0.0
C545 C 0.48646 0.18442 0.69929 0.0
C546 C 0.54819 0.19851 0.71776 0.0
C547 C 0.54266 0.17255 0.65031 0.0
C548 C 0.50817 0.15073 0.61262 0.0
C549 C 0.48041 0.15691 0.63762 0.0
C550 C 0.58451 0.22224 0.76002 0.0
C551 C 0.50115 0.12262 0.54086 0.0
H552 H 0.63619 0.21471 0.4415 0.0
H553 H 0.62836 0.13676 0.63755 0.0
H554 H 0.55067 0.20215 0.46942 0.0
H555 H 0.57954 0.23773 0.54509 0.0
H556 H 0.59508 0.23426 0.43254 0.0
H557 H 0.58115 0.1097 0.7441 0.0
H558 H 0.56987 0.1418 0.78796 0.0
H559 H 0.54016 0.10783 0.70998 0.0
H560 H 0.52491 0.22511 0.79019 0.0
H561 H 0.45451 0.14136 0.60513 0.0
H562 H 0.60242 0.24149 0.70753 0.0
H563 H 0.59662 0.2062 0.78266 0.0
H564 H 0.58331 0.23759 0.82005 0.0
H565 H 0.51324 0.13583 0.47445 0.0
H566 H 0.47217 0.10427 0.52952 0.0
H567 H 0.51362 0.10666 0.56129 0.0
C568 C 0.30648 0.52763 0.04997 0.0
C569 C 0.29482 0.49229 1.02285 0.0
C570 C 0.34043 0.55551 1.02587 0.0
C571 C 0.36341 0.54787 0.97391 0.0
C572 C 0.35297 0.51196 0.95289 0.0
C573 C 0.31873 0.48457 0.97735 0.0
C574 C 0.35048 0.59344 0.04963 0.0
C575 C 0.3769 0.50266 0.89863 0.0
C576 C 0.42117 0.61883 0.80099 0.0
C577 C 0.45423 0.63634 0.84599 0.0
C578 C 0.39171 0.58966 0.84149 0.0
C579 C 0.3954 0.57757 0.92932 0.0
C580 C 0.42895 0.59472 0.97457 0.0
C581 C 0.45809 0.62408 0.93228 0.0
C582 C 0.35641 0.57226 0.79088 0.0
C583 C 0.43387 0.5824 0.06797 0.0
H584 H 0.28845 0.53395 0.08599 0.0
H585 H 0.31022 0.45734 0.95695 0.0
H586 H 0.37799 0.60832 0.07772 0.0
H587 H 0.34983 0.60741 0.98612 0.0
H588 H 0.33199 0.59454 0.10068 0.0
H589 H 0.36762 0.47363 0.90136 0.0
H590 H 0.3773 0.51028 0.8254 0.0
H591 H 0.40467 0.51774 0.92493 0.0
H592 H 0.41813 0.62824 0.73417 0.0
H593 H 0.4837 0.63767 0.96709 0.0
H594 H 0.3362 0.57455 0.83254 0.0
H595 H 0.34662 0.54338 0.78075 0.0
H596 H 0.35825 0.58454 0.72236 0.0
H597 H 0.41687 0.58575 0.11947 0.0
H598 H 0.462 0.59751 0.09198 0.0
H599 H 0.42524 0.55355 0.06555 0.0
C600 C 0.77793 0.31504 0.42386 0.0
C601 C 0.7996 0.30294 0.38482 0.0
C602 C 0.78222 0.3484 0.40027 0.0
C603 C 0.8089 0.37027 0.33633 0.0
C604 C 0.83263 0.35947 0.30222 0.0
C605 C 0.82767 0.32589 0.32679 0.0
C606 C 0.7564 0.35895 0.43839 0.0
C607 C 0.86162 0.38219 0.23451 0.0
C608 C 0.78577 0.42506 0.17726 0.0
C609 C 0.80503 0.45924 0.21619 0.0
C610 C 0.78715 0.39609 0.21553 0.0
C611 C 0.80839 0.40143 0.29482 0.0
C612 C 0.82812 0.43598 0.33435 0.0
C613 C 0.82617 0.4646 0.29447 0.0
C614 C 0.76557 0.35967 0.17136 0.0
C615 C 0.85108 0.44261 0.41873 0.0
H616 H 0.75639 0.29777 0.46962 0.0
H617 H 0.84481 0.31701 0.29687 0.0
H618 H 0.77075 0.38709 0.46246 0.0
H619 H 0.73772 0.35686 0.38303 0.0
H620 H 0.74055 0.34157 0.49654 0.0
H621 H 0.88107 0.37282 0.22571 0.0
H622 H 0.84947 0.38122 0.16633 0.0
H623 H 0.87615 0.41051 0.25723 0.0
H624 H 0.7694 0.42086 0.11668 0.0
H625 H 0.84106 0.49108 0.32455 0.0
H626 H 0.7462 0.34054 0.22176 0.0
H627 H 0.78335 0.34934 0.15063 0.0
H628 H 0.75065 0.36017 0.1095 0.0
H629 H 0.83442 0.42612 0.47696 0.0
H630 H 0.86516 0.47112 0.4402 0.0
H631 H 0.87115 0.43443 0.405 0.0
C632 C 0.35307 0.82056 0.60064 0.0
C633 C 0.34881 0.82315 0.50573 0.0
C634 C 0.38295 0.81979 0.63524 0.0
C635 C 0.40838 0.82041 0.57297 0.0
C636 C 0.40486 0.82456 0.47727 0.0
C637 C 0.3753 0.82641 0.44494 0.0
C638 C 0.38634 0.81652 0.73792 0.0
C639 C 0.43086 0.82443 0.40834 0.0
C640 C 0.49723 0.83152 0.65159 0.0
C641 C 0.4889 0.79581 0.65796 0.0
C642 C 0.47098 0.84009 0.62729 0.0
C643 C 0.43603 0.81229 0.60611 0.0
C644 C 0.42757 0.77622 0.61284 0.0
C645 C 0.45396 0.76845 0.6399 0.0
C646 C 0.48067 0.87879 0.62349 0.0
C647 C 0.39087 0.74576 0.58872 0.0
H648 H 0.33262 0.81832 0.64766 0.0
H649 H 0.37188 0.82826 0.37143 0.0
H650 H 0.38051 0.78908 0.75451 0.0
H651 H 0.41397 0.83528 0.76133 0.0
H652 H 0.36764 0.82197 0.77744 0.0
H653 H 0.42594 0.83068 0.33738 0.0
H654 H 0.45864 0.84409 0.42836 0.0
H655 H 0.42855 0.79769 0.40753 0.0
H656 H 0.5242 0.85272 0.66605 0.0
H657 H 0.44749 0.74081 0.64373 0.0
H658 H 0.46172 0.88298 0.66559 0.0
H659 H 0.47854 0.88622 0.55153 0.0
H660 H 0.50818 0.89704 0.64885 0.0
H661 H 0.37056 0.74662 0.63331 0.0
H662 H 0.38877 0.71924 0.5968 0.0
H663 H 0.38424 0.74846 0.51627 0.0
C664 C 0.66655 0.46278 0.08076 0.0
C665 C 0.68024 0.49702 0.04278 0.0
C666 C 0.63298 0.43464 0.05466 0.0
C667 C 0.61248 0.44087 0.98913 0.0
C668 C 0.62488 0.47593 0.95592 0.0
C669 C 0.65869 0.50364 0.98307 0.0
C670 C 0.62075 0.39769 0.09194 0.0
C671 C 0.60362 0.4837 0.88666 0.0
C672 C 0.55757 0.36307 0.82889 0.0
C673 C 0.52343 0.34838 0.86689 0.0
C674 C 0.58649 0.39358 0.86714 0.0
C675 C 0.58115 0.40992 0.94537 0.0
C676 C 0.54655 0.39557 0.9833 0.0
C677 C 0.51798 0.36477 0.94359 0.0
C678 C 0.62296 0.40788 0.82473 0.0
C679 C 0.53987 0.41241 0.06637 0.0
H680 H 0.68271 0.45742 0.12803 0.0
H681 H 0.66887 0.53004 0.95382 0.0
H682 H 0.59259 0.38482 0.11466 0.0
H683 H 0.62224 0.38078 1.0365 0.0
H684 H 0.6374 0.39814 0.15087 0.0
H685 H 0.61393 0.51283 0.87934 0.0
H686 H 0.60498 0.47289 0.81832 0.0
H687 H 0.57514 0.47044 0.90681 0.0
H688 H 0.56183 0.35047 0.76943 0.0
H689 H 0.49152 0.35342 0.97284 0.0
H690 H 0.64145 0.40677 0.87594 0.0
H691 H 0.63407 0.43627 0.80503 0.0
H692 H 0.62237 0.39256 0.76256 0.0
H693 H 0.55472 0.4107 0.12671 0.0
H694 H 0.51113 0.39924 0.08423 0.0
H695 H 0.54987 0.44117 0.05346 0.0
loop_
_geom_bond_atom_site_label_1
_geom_bond_atom_site_label_2
_geom_bond_distance
_geom_bond_site_symmetry_2
_ccdc_geom_bond_type
Tb0 O3 2.453 . S
Tb0 O4 2.596 . S
Tb0 O5 2.374 . S
Tb0 O13 2.343 1_554 S
Tb0 O15 2.353 . S
Tb0 O17 2.427 1_554 S
Tb0 O18 2.513 1_554 S
C1 O5 1.251 . S
C1 O7 1.263 . S
Tb2 O4 2.343 1_556 S
Tb2 O7 2.353 1_556 S
Tb2 O10 2.427 1_556 S
Tb2 O11 2.513 1_556 S
Tb2 O12 2.453 . S
Tb2 O13 2.596 . S
Tb2 O14 2.374 . S
O3 Tb0 2.453 . S
O3 C19 1.245 . S
O4 Tb0 2.596 . S
O4 Tb2 2.343 1_554 S
O4 C19 1.259 . S
O5 Tb0 2.374 . S
O5 C1 1.251 . S
C6 O10 1.275 . S
C6 O11 1.246 . S
O7 C1 1.263 . S
O7 Tb2 2.353 1_554 S
C8 O12 1.245 . S
C8 O13 1.259 . S
C9 O14 1.250 . S
C9 O15 1.263 1_556 S
O10 Tb2 2.427 1_554 S
O10 C6 1.275 . S
O11 Tb2 2.513 1_554 S
O11 C6 1.246 . S
O12 Tb2 2.453 . S
O12 C8 1.245 . S
O13 Tb0 2.343 1_556 S
O13 Tb2 2.596 . S
O13 C8 1.259 . S
O14 Tb2 2.374 . S
O14 C9 1.250 . S
O15 Tb0 2.353 . S
O15 C9 1.263 1_554 S
C16 O17 1.275 . S
C16 O18 1.246 . S
O17 Tb0 2.427 1_556 S
O17 C16 1.275 . S
O18 Tb0 2.513 1_556 S
O18 C16 1.246 . S
C19 O3 1.245 . S
C19 O4 1.259 . S
Tb20 O23 2.453 . S
Tb20 O24 2.596 . S
Tb20 O25 2.374 . S
Tb20 O33 2.343 . S
Tb20 O35 2.353 . S
Tb20 O37 2.427 . S
Tb20 O38 2.513 . S
C21 O25 1.251 . S
C21 O27 1.263 . S
Tb22 O24 2.343 . S
Tb22 O27 2.353 . S
Tb22 O30 2.427 . S
Tb22 O31 2.513 . S
Tb22 O32 2.453 . S
Tb22 O33 2.596 . S
Tb22 O34 2.374 . S
O23 Tb20 2.453 . S
O23 C39 1.245 . S
O24 Tb20 2.596 . S
O24 Tb22 2.343 . S
O24 C39 1.259 . S
O25 Tb20 2.374 . S
O25 C21 1.251 . S
C26 O30 1.275 . S
C26 O31 1.246 . S
O27 C21 1.263 . S
O27 Tb22 2.353 . S
C28 O32 1.245 . S
C28 O33 1.259 . S
C29 O34 1.250 . S
C29 O35 1.263 . S
O30 Tb22 2.427 . S
O30 C26 1.275 . S
O31 Tb22 2.513 . S
O31 C26 1.246 . S
O32 Tb22 2.453 . S
O32 C28 1.245 . S
O33 Tb20 2.343 . S
O33 Tb22 2.596 . S
O33 C28 1.259 . S
O34 Tb22 2.374 . S
O34 C29 1.250 . S
O35 Tb20 2.353 . S
O35 C29 1.263 . S
C36 O37 1.275 . S
C36 O38 1.246 . S
O37 Tb20 2.427 . S
O37 C36 1.275 . S
O38 Tb20 2.513 . S
O38 C36 1.246 . S
C39 O23 1.245 . S
C39 O24 1.259 . S
Tb40 O43 2.453 . S
Tb40 O44 2.596 . S
Tb40 O45 2.374 . S
Tb40 O53 2.343 . S
Tb40 O55 2.353 . S
Tb40 O57 2.427 . S
Tb40 O58 2.513 . S
C41 O45 1.251 . S
C41 O47 1.263 . S
Tb42 O44 2.343 . S
Tb42 O47 2.353 . S
Tb42 O50 2.427 . S
Tb42 O51 2.513 . S
Tb42 O52 2.453 . S
Tb42 O53 2.596 . S
Tb42 O54 2.374 . S
O43 Tb40 2.453 . S
O43 C59 1.245 . S
O44 Tb40 2.596 . S
O44 Tb42 2.343 . S
O44 C59 1.259 . S
O45 Tb40 2.374 . S
O45 C41 1.251 . S
C46 O50 1.275 . S
C46 O51 1.246 . S
O47 C41 1.263 . S
O47 Tb42 2.353 . S
C48 O52 1.245 . S
C48 O53 1.259 . S
C49 O54 1.250 . S
C49 O55 1.263 . S
O50 Tb42 2.427 . S
O50 C46 1.275 . S
O51 Tb42 2.513 . S
O51 C46 1.246 . S
O52 Tb42 2.453 . S
O52 C48 1.245 . S
O53 Tb40 2.343 . S
O53 Tb42 2.596 . S
O53 C48 1.259 . S
O54 Tb42 2.374 . S
O54 C49 1.250 . S
O55 Tb40 2.353 . S
O55 C49 1.263 . S
C56 O57 1.275 . S
C56 O58 1.246 . S
O57 Tb40 2.427 . S
O57 C56 1.275 . S
O58 Tb40 2.513 . S
O58 C56 1.246 . S
C59 O43 1.245 . S
C59 O44 1.259 . S
Tb60 O63 2.453 . S
Tb60 O64 2.596 . S
Tb60 O65 2.374 . S
Tb60 O73 2.343 1_554 S
Tb60 O75 2.353 . S
Tb60 O77 2.427 1_554 S
Tb60 O78 2.513 1_554 S
C61 O65 1.251 . S
C61 O67 1.263 . S
Tb62 O64 2.343 1_556 S
Tb62 O67 2.353 1_556 S
Tb62 O70 2.427 1_556 S
Tb62 O71 2.513 1_556 S
Tb62 O72 2.453 . S
Tb62 O73 2.596 . S
Tb62 O74 2.374 . S
O63 Tb60 2.453 . S
O63 C79 1.245 . S
O64 Tb60 2.596 . S
O64 Tb62 2.343 1_554 S
O64 C79 1.259 . S
O65 Tb60 2.374 . S
O65 C61 1.251 . S
C66 O70 1.275 . S
C66 O71 1.246 . S
O67 C61 1.263 . S
O67 Tb62 2.353 1_554 S
C68 O72 1.245 . S
C68 O73 1.259 . S
C69 O74 1.250 . S
C69 O75 1.263 1_556 S
O70 Tb62 2.427 1_554 S
O70 C66 1.275 . S
O71 Tb62 2.513 1_554 S
O71 C66 1.246 . S
O72 Tb62 2.453 . S
O72 C68 1.245 . S
O73 Tb60 2.343 1_556 S
O73 Tb62 2.596 . S
O73 C68 1.259 . S
O74 Tb62 2.374 . S
O74 C69 1.250 . S
O75 Tb60 2.353 . S
O75 C69 1.263 1_554 S
C76 O77 1.275 . S
C76 O78 1.246 . S
O77 Tb60 2.427 1_556 S
O77 C76 1.275 . S
O78 Tb60 2.513 1_556 S
O78 C76 1.246 . S
C79 O63 1.245 . S
C79 O64 1.259 . S
Tb80 O83 2.453 . S
Tb80 O84 2.596 . S
Tb80 O85 2.374 . S
Tb80 O93 2.343 . S
Tb80 O95 2.353 . S
Tb80 O97 2.427 . S
Tb80 O98 2.513 . S
C81 O85 1.251 . S
C81 O87 1.263 . S
Tb82 O84 2.343 . S
Tb82 O87 2.353 . S
Tb82 O90 2.427 . S
Tb82 O91 2.513 . S
Tb82 O92 2.453 . S
Tb82 O93 2.596 . S
Tb82 O94 2.374 . S
O83 Tb80 2.453 . S
O83 C99 1.245 . S
O84 Tb80 2.596 . S
O84 Tb82 2.343 . S
O84 C99 1.259 . S
O85 Tb80 2.374 . S
O85 C81 1.251 . S
C86 O90 1.275 . S
C86 O91 1.246 . S
O87 C81 1.263 . S
O87 Tb82 2.353 . S
C88 O92 1.245 . S
C88 O93 1.259 . S
C89 O94 1.250 . S
C89 O95 1.263 . S
O90 Tb82 2.427 . S
O90 C86 1.275 . S
O91 Tb82 2.513 . S
O91 C86 1.246 . S
O92 Tb82 2.453 . S
O92 C88 1.245 . S
O93 Tb80 2.343 . S
O93 Tb82 2.596 . S
O93 C88 1.259 . S
O94 Tb82 2.374 . S
O94 C89 1.250 . S
O95 Tb80 2.353 . S
O95 C89 1.263 . S
C96 O97 1.275 . S
C96 O98 1.246 . S
O97 Tb80 2.427 . S
O97 C96 1.275 . S
O98 Tb80 2.513 . S
O98 C96 1.246 . S
C99 O83 1.245 . S
C99 O84 1.259 . S
Tb100 O103 2.453 . S
Tb100 O104 2.596 . S
Tb100 O105 2.374 . S
Tb100 O113 2.343 . S
Tb100 O115 2.353 . S
Tb100 O117 2.427 . S
Tb100 O118 2.513 . S
C101 O105 1.251 . S
C101 O107 1.263 . S
Tb102 O104 2.343 . S
Tb102 O107 2.353 . S
Tb102 O110 2.427 . S
Tb102 O111 2.513 . S
Tb102 O112 2.453 . S
Tb102 O113 2.596 . S
Tb102 O114 2.374 . S
O103 Tb100 2.453 . S
O103 C119 1.245 . S
O104 Tb100 2.596 . S
O104 Tb102 2.343 . S
O104 C119 1.259 . S
O105 Tb100 2.374 . S
O105 C101 1.251 . S
C106 O110 1.275 . S
C106 O111 1.246 . S
O107 C101 1.263 . S
O107 Tb102 2.353 . S
C108 O112 1.245 . S
C108 O113 1.259 . S
C109 O114 1.250 . S
C109 O115 1.263 . S
O110 Tb102 2.427 . S
O110 C106 1.275 . S
O111 Tb102 2.513 . S
O111 C106 1.246 . S
O112 Tb102 2.453 . S
O112 C108 1.245 . S
O113 Tb100 2.343 . S
O113 Tb102 2.596 . S
O113 C108 1.259 . S
O114 Tb102 2.374 . S
O114 C109 1.250 . S
O115 Tb100 2.353 . S
O115 C109 1.263 . S
C116 O117 1.275 . S
C116 O118 1.246 . S
O117 Tb100 2.427 . S
O117 C116 1.275 . S
O118 Tb100 2.513 . S
O118 C116 1.246 . S
C119 O103 1.245 . S
C119 O104 1.259 . S
C120 C121 1.391 . S
C120 C122 1.394 . S
C120 H136 0.931 . S
C121 C120 1.391 . S
C121 C125 1.376 . S
C122 C120 1.394 . S
C122 C123 1.369 . S
C122 C126 1.531 . S
C123 C122 1.369 . S
C123 C124 1.410 . S
C123 C131 1.503 . S
C124 C123 1.410 . S
C124 C125 1.392 . S
C124 C127 1.511 . S
C125 C121 1.376 . S
C125 C124 1.392 . S
C125 H137 0.929 . S
C126 C122 1.531 . S
C126 H138 0.960 . S
C126 H139 0.962 . S
C126 H140 0.960 . S
C127 C124 1.511 . S
C127 H141 0.961 . S
C127 H142 0.961 . S
C127 H143 0.961 . S
C128 C129 1.370 . S
C128 C130 1.363 . S
C128 H144 0.931 . S
C129 C128 1.370 . S
C129 C133 1.408 . S
C130 C128 1.363 . S
C130 C131 1.370 . S
C130 C134 1.524 . S
C131 C123 1.503 . S
C131 C130 1.370 . S
C131 C132 1.403 . S
C132 C131 1.403 . S
C132 C133 1.404 . S
C132 C135 1.539 . S
C133 C129 1.408 . S
C133 C132 1.404 . S
C133 H145 0.930 . S
C134 C130 1.524 . S
C134 H146 0.956 . S
C134 H147 0.961 . S
C134 H148 0.961 . S
C135 C132 1.539 . S
C135 H149 0.958 . S
C135 H150 0.961 . S
C135 H151 0.960 . S
H136 C120 0.931 . S
H137 C125 0.929 . S
H138 C126 0.960 . S
H139 C126 0.962 . S
H140 C126 0.960 . S
H141 C127 0.961 . S
H142 C127 0.961 . S
H143 C127 0.961 . S
H144 C128 0.931 . S
H145 C133 0.930 . S
H146 C134 0.956 . S
H147 C134 0.961 . S
H148 C134 0.961 . S
H149 C135 0.958 . S
H150 C135 0.961 . S
H151 C135 0.960 . S
C152 C153 1.391 . S
C152 C154 1.394 . S
C152 H168 0.931 1_554 S
C153 C152 1.391 . S
C153 C157 1.376 . S
C154 C152 1.394 . S
C154 C155 1.369 . S
C154 C158 1.531 1_554 S
C155 C154 1.369 . S
C155 C156 1.410 . S
C155 C163 1.503 1_455 S
C156 C155 1.410 . S
C156 C157 1.392 . S
C156 C159 1.511 . S
C157 C153 1.376 . S
C157 C156 1.392 . S
C157 H169 0.929 . S
C158 C154 1.531 1_556 S
C158 H170 0.960 1_455 S
C158 H171 0.962 . S
C158 H172 0.960 . S
C159 C156 1.511 . S
C159 H173 0.961 . S
C159 H174 0.961 . S
C159 H175 0.961 . S
C160 C161 1.370 . S
C160 C162 1.363 . S
C160 H176 0.931 . S
C161 C160 1.370 . S
C161 C165 1.408 . S
C162 C160 1.363 . S
C162 C163 1.370 . S
C162 C166 1.524 . S
C163 C155 1.503 1_655 S
C163 C162 1.370 . S
C163 C164 1.403 . S
C164 C163 1.403 . S
C164 C165 1.404 . S
C164 C167 1.539 . S
C165 C161 1.408 . S
C165 C164 1.404 . S
C165 H177 0.930 . S
C166 C162 1.524 . S
C166 H178 0.956 1_655 S
C166 H179 0.964 1_655 S
C166 H180 0.957 . S
C167 C164 1.539 . S
C167 H181 0.958 . S
C167 H182 0.961 . S
C167 H183 0.960 1_655 S
H168 C152 0.931 1_556 S
H169 C157 0.929 . S
H170 C158 0.960 1_655 S
H171 C158 0.962 . S
H172 C158 0.960 . S
H173 C159 0.961 . S
H174 C159 0.961 . S
H175 C159 0.961 . S
H176 C160 0.931 . S
H177 C165 0.930 . S
H178 C166 0.956 1_455 S
H179 C166 0.964 1_455 S
H180 C166 0.957 . S
H181 C167 0.958 . S
H182 C167 0.961 . S
H183 C167 0.960 1_455 S
C184 C185 1.391 . S
C184 C186 1.394 . S
C184 H200 0.931 . S
C185 C184 1.391 . S
C185 C189 1.376 . S
C186 C184 1.394 . S
C186 C187 1.369 . S
C186 C190 1.531 . S
C187 C186 1.369 . S
C187 C188 1.410 . S
C187 C195 1.503 1_545 S
C188 C187 1.410 . S
C188 C189 1.392 . S
C188 C191 1.511 . S
C189 C185 1.376 . S
C189 C188 1.392 . S
C189 H201 0.929 . S
C190 C186 1.531 . S
C190 H202 0.960 . S
C190 H203 0.962 . S
C190 H204 0.960 . S
C191 C188 1.511 . S
C191 H205 0.961 . S
C191 H206 0.961 1_545 S
C191 H207 0.961 . S
C192 C193 1.370 . S
C192 C194 1.363 . S
C192 H208 0.931 . S
C193 C192 1.370 . S
C193 C197 1.408 . S
C194 C192 1.363 . S
C194 C195 1.370 . S
C194 C198 1.524 . S
C195 C187 1.503 1_565 S
C195 C194 1.370 . S
C195 C196 1.403 . S
C196 C195 1.403 . S
C196 C197 1.404 . S
C196 C199 1.539 1_565 S
C197 C193 1.408 . S
C197 C196 1.404 . S
C197 H209 0.930 . S
C198 C194 1.524 . S
C198 H210 0.956 1_565 S
C198 H211 0.961 1_565 S
C198 H212 0.961 . S
C199 C196 1.539 1_545 S
C199 H213 0.958 . S
C199 H214 0.961 1_545 S
C199 H215 0.960 . S
H200 C184 0.931 . S
H201 C189 0.929 . S
H202 C190 0.960 . S
H203 C190 0.962 . S
H204 C190 0.960 . S
H205 C191 0.961 . S
H206 C191 0.961 1_565 S
H207 C191 0.961 . S
H208 C192 0.931 . S
H209 C197 0.930 . S
H210 C198 0.956 1_545 S
H211 C198 0.961 1_545 S
H212 C198 0.961 . S
H213 C199 0.958 . S
H214 C199 0.961 1_565 S
H215 C199 0.960 . S
C216 C217 1.391 . S
C216 C218 1.394 . S
C216 H232 0.931 . S
C217 C216 1.391 . S
C217 C221 1.376 . S
C218 C216 1.394 . S
C218 C219 1.369 . S
C218 C222 1.531 . S
C219 C218 1.369 . S
C219 C220 1.410 . S
C219 C227 1.503 . S
C220 C219 1.410 . S
C220 C221 1.392 . S
C220 C223 1.511 . S
C221 C217 1.376 . S
C221 C220 1.392 . S
C221 H233 0.929 . S
C222 C218 1.531 . S
C222 H234 0.960 . S
C222 H235 0.962 . S
C222 H236 0.960 . S
C223 C220 1.511 . S
C223 H237 0.961 . S
C223 H238 0.961 . S
C223 H239 0.961 . S
C224 C225 1.370 . S
C224 C226 1.363 . S
C224 H240 0.931 . S
C225 C224 1.370 . S
C225 C229 1.408 . S
C226 C224 1.363 . S
C226 C227 1.370 . S
C226 C230 1.524 . S
C227 C219 1.503 . S
C227 C226 1.370 . S
C227 C228 1.403 . S
C228 C227 1.403 . S
C228 C229 1.404 . S
C228 C231 1.539 . S
C229 C225 1.408 . S
C229 C228 1.404 . S
C229 H241 0.930 . S
C230 C226 1.524 . S
C230 H242 0.956 . S
C230 H243 0.961 . S
C230 H244 0.961 . S
C231 C228 1.539 . S
C231 H245 0.958 . S
C231 H246 0.961 . S
C231 H247 0.960 . S
H232 C216 0.931 . S
H233 C221 0.929 . S
H234 C222 0.960 . S
H235 C222 0.962 . S
H236 C222 0.960 . S
H237 C223 0.961 . S
H238 C223 0.961 . S
H239 C223 0.961 . S
H240 C224 0.931 . S
H241 C229 0.930 . S
H242 C230 0.956 . S
H243 C230 0.961 . S
H244 C230 0.961 . S
H245 C231 0.958 . S
H246 C231 0.961 . S
H247 C231 0.960 . S
C248 C249 1.391 . S
C248 C250 1.394 . S
C248 H264 0.931 . S
C249 C248 1.391 . S
C249 C253 1.376 . S
C250 C248 1.394 . S
C250 C251 1.369 . S
C250 C254 1.551 . S
C251 C250 1.369 . S
C251 C252 1.410 . S
C251 C259 1.503 1_455 S
C252 C251 1.410 . S
C252 C253 1.392 . S
C252 C255 1.511 . S
C253 C249 1.376 . S
C253 C252 1.392 . S
C253 H265 0.929 . S
C254 C250 1.551 . S
C254 H266 0.947 1_455 S
C254 H267 0.952 1_455 S
C254 H268 0.964 . S
C255 C252 1.511 . S
C255 H269 0.961 . S
C255 H270 0.961 1_455 S
C255 H271 0.961 . S
C256 C257 1.370 . S
C256 C258 1.363 . S
C256 H272 0.931 . S
C257 C256 1.370 . S
C257 C261 1.408 . S
C258 C256 1.363 . S
C258 C259 1.370 . S
C258 C262 1.524 . S
C259 C251 1.503 1_655 S
C259 C258 1.370 . S
C259 C260 1.403 . S
C260 C259 1.403 . S
C260 C261 1.404 . S
C260 C263 1.539 1_554 S
C261 C257 1.408 . S
C261 C260 1.404 . S
C261 H273 0.930 1_554 S
C262 C258 1.524 . S
C262 H274 0.956 . S
C262 H275 0.961 . S
C262 H276 0.961 . S
C263 C260 1.539 1_556 S
C263 H277 0.958 . S
C263 H278 0.961 . S
C263 H279 0.960 1_655 S
H264 C248 0.931 . S
H265 C253 0.929 . S
H266 C254 0.947 1_655 S
H267 C254 0.952 1_655 S
H268 C254 0.964 . S
H269 C255 0.961 . S
H270 C255 0.961 1_655 S
H271 C255 0.961 . S
H272 C256 0.931 . S
H273 C261 0.930 1_556 S
H274 C262 0.956 . S
H275 C262 0.961 . S
H276 C262 0.961 . S
H277 C263 0.958 . S
H278 C263 0.961 . S
H279 C263 0.960 1_455 S
C280 C281 1.391 . S
C280 C282 1.394 . S
C280 H296 0.931 . S
C281 C280 1.391 . S
C281 C285 1.376 . S
C282 C280 1.394 . S
C282 C283 1.369 . S
C282 C286 1.531 1_545 S
C283 C282 1.369 . S
C283 C284 1.410 . S
C283 C291 1.503 1_545 S
C284 C283 1.410 . S
C284 C285 1.392 . S
C284 C287 1.511 . S
C285 C281 1.376 . S
C285 C284 1.392 . S
C285 H297 0.929 . S
C286 C282 1.531 1_565 S
C286 H298 0.960 . S
C286 H299 0.962 . S
C286 H300 0.960 1_565 S
C287 C284 1.511 . S
C287 H301 0.961 . S
C287 H302 0.961 1_545 S
C287 H303 0.961 . S
C288 C289 1.370 . S
C288 C290 1.363 . S
C288 H304 0.931 . S
C289 C288 1.370 . S
C289 C293 1.408 . S
C290 C288 1.363 . S
C290 C291 1.370 . S
C290 C294 1.524 . S
C291 C283 1.503 1_565 S
C291 C290 1.370 . S
C291 C292 1.403 . S
C292 C291 1.403 . S
C292 C293 1.404 . S
C292 C295 1.539 . S
C293 C289 1.408 . S
C293 C292 1.404 . S
C293 H305 0.930 . S
C294 C290 1.524 . S
C294 H306 0.956 . S
C294 H307 0.961 1_565 S
C294 H308 0.961 . S
C295 C292 1.539 . S
C295 H309 0.958 . S
C295 H310 0.961 . S
C295 H311 0.960 . S
H296 C280 0.931 . S
H297 C285 0.929 . S
H298 C286 0.960 . S
H299 C286 0.962 . S
H300 C286 0.960 1_545 S
H301 C287 0.961 . S
H302 C287 0.961 1_565 S
H303 C287 0.961 . S
H304 C288 0.931 . S
H305 C293 0.930 . S
H306 C294 0.956 . S
H307 C294 0.961 1_545 S
H308 C294 0.961 . S
H309 C295 0.958 . S
H310 C295 0.961 . S
H311 C295 0.960 . S
C312 C313 1.391 . S
C312 C314 1.394 . S
C312 H328 0.931 . S
C313 C312 1.391 . S
C313 C317 1.376 . S
C314 C312 1.394 . S
C314 C315 1.369 . S
C314 C318 1.531 . S
C315 C314 1.369 . S
C315 C316 1.410 . S
C315 C323 1.503 . S
C316 C315 1.410 . S
C316 C317 1.392 . S
C316 C319 1.511 . S
C317 C313 1.376 . S
C317 C316 1.392 . S
C317 H329 0.929 . S
C318 C314 1.531 . S
C318 H330 0.960 . S
C318 H331 0.962 . S
C318 H332 0.960 . S
C319 C316 1.511 . S
C319 H333 0.961 . S
C319 H334 0.961 . S
C319 H335 0.961 . S
C320 C321 1.370 . S
C320 C322 1.363 . S
C320 H336 0.931 . S
C321 C320 1.370 . S
C321 C325 1.408 . S
C322 C320 1.363 . S
C322 C323 1.370 . S
C322 C326 1.524 . S
C323 C315 1.503 . S
C323 C322 1.370 . S
C323 C324 1.403 . S
C324 C323 1.403 . S
C324 C325 1.404 . S
C324 C327 1.539 . S
C325 C321 1.408 . S
C325 C324 1.404 . S
C325 H337 0.930 . S
C326 C322 1.524 . S
C326 H338 0.956 . S
C326 H339 0.961 . S
C326 H340 0.961 . S
C327 C324 1.539 . S
C327 H341 0.958 . S
C327 H342 0.961 . S
C327 H343 0.960 . S
H328 C312 0.931 . S
H329 C317 0.929 . S
H330 C318 0.960 . S
H331 C318 0.962 . S
H332 C318 0.960 . S
H333 C319 0.961 . S
H334 C319 0.961 . S
H335 C319 0.961 . S
H336 C320 0.931 . S
H337 C325 0.930 . S
H338 C326 0.956 . S
H339 C326 0.961 . S
H340 C326 0.961 . S
H341 C327 0.958 . S
H342 C327 0.961 . S
H343 C327 0.960 . S
C344 C345 1.391 . S
C344 C346 1.394 1_554 S
C344 H360 0.931 . S
C345 C344 1.391 . S
C345 C349 1.376 . S
C346 C344 1.394 1_556 S
C346 C347 1.369 . S
C346 C350 1.531 . S
C347 C346 1.369 . S
C347 C348 1.410 . S
C347 C355 1.503 . S
C348 C347 1.410 . S
C348 C349 1.392 1_556 S
C348 C351 1.511 . S
C349 C345 1.376 . S
C349 C348 1.392 1_554 S
C349 H361 0.929 . S
C350 C346 1.531 . S
C350 H362 0.960 . S
C350 H363 0.962 . S
C350 H364 0.960 . S
C351 C348 1.511 . S
C351 H365 0.961 . S
C351 H366 0.961 . S
C351 H367 0.961 . S
C352 C353 1.370 . S
C352 C354 1.363 . S
C352 H368 0.931 . S
C353 C352 1.370 . S
C353 C357 1.408 . S
C354 C352 1.363 . S
C354 C355 1.370 . S
C354 C358 1.524 . S
C355 C347 1.503 . S
C355 C354 1.370 . S
C355 C356 1.403 . S
C356 C355 1.403 . S
C356 C357 1.404 . S
C356 C359 1.539 . S
C357 C353 1.408 . S
C357 C356 1.404 . S
C357 H369 0.930 . S
C358 C354 1.524 . S
C358 H370 0.956 . S
C358 H371 0.961 . S
C358 H372 0.961 . S
C359 C356 1.539 . S
C359 H373 0.958 . S
C359 H374 0.961 . S
C359 H375 0.960 . S
H360 C344 0.931 . S
H361 C349 0.929 . S
H362 C350 0.960 . S
H363 C350 0.962 . S
H364 C350 0.960 . S
H365 C351 0.961 . S
H366 C351 0.961 . S
H367 C351 0.961 . S
H368 C352 0.931 . S
H369 C357 0.930 . S
H370 C358 0.956 . S
H371 C358 0.961 . S
H372 C358 0.961 . S
H373 C359 0.958 . S
H374 C359 0.961 . S
H375 C359 0.960 . S
C376 C377 1.391 . S
C376 C378 1.394 . S
C376 H392 0.931 . S
C377 C376 1.391 . S
C377 C381 1.376 . S
C378 C376 1.394 . S
C378 C379 1.369 . S
C378 C382 1.531 . S
C379 C378 1.369 . S
C379 C380 1.410 . S
C379 C387 1.503 . S
C380 C379 1.410 . S
C380 C381 1.392 . S
C380 C383 1.511 . S
C381 C377 1.376 . S
C381 C380 1.392 . S
C381 H393 0.929 . S
C382 C378 1.531 . S
C382 H394 0.960 . S
C382 H395 0.962 . S
C382 H396 0.960 . S
C383 C380 1.511 . S
C383 H397 0.961 . S
C383 H398 0.961 . S
C383 H399 0.961 . S
C384 C385 1.370 . S
C384 C386 1.363 1_556 S
C384 H400 0.931 . S
C385 C384 1.370 . S
C385 C389 1.408 . S
C386 C384 1.363 1_554 S
C386 C387 1.370 . S
C386 C390 1.524 . S
C387 C379 1.503 . S
C387 C386 1.370 . S
C387 C388 1.403 . S
C388 C387 1.403 . S
C388 C389 1.404 1_554 S
C388 C391 1.539 . S
C389 C385 1.408 . S
C389 C388 1.404 1_556 S
C389 H401 0.930 . S
C390 C386 1.524 . S
C390 H402 0.956 . S
C390 H403 0.961 . S
C390 H404 0.961 . S
C391 C388 1.539 . S
C391 H405 0.958 . S
C391 H406 0.961 . S
C391 H407 0.960 . S
H392 C376 0.931 . S
H393 C381 0.929 . S
H394 C382 0.960 . S
H395 C382 0.962 . S
H396 C382 0.960 . S
H397 C383 0.961 . S
H398 C383 0.961 . S
H399 C383 0.961 . S
H400 C384 0.931 . S
H401 C389 0.930 . S
H402 C390 0.956 . S
H403 C390 0.961 . S
H404 C390 0.961 . S
H405 C391 0.958 . S
H406 C391 0.961 . S
H407 C391 0.960 . S
C408 C409 1.391 . S
C408 C410 1.394 . S
C408 H424 0.931 . S
C409 C408 1.391 . S
C409 C413 1.376 . S
C410 C408 1.394 . S
C410 C411 1.369 . S
C410 C414 1.531 . S
C411 C410 1.369 . S
C411 C412 1.410 . S
C411 C419 1.503 . S
C412 C411 1.410 . S
C412 C413 1.392 . S
C412 C415 1.511 . S
C413 C409 1.376 . S
C413 C412 1.392 . S
C413 H425 0.929 . S
C414 C410 1.531 . S
C414 H426 0.960 . S
C414 H427 0.962 . S
C414 H428 0.960 . S
C415 C412 1.511 . S
C415 H429 0.961 . S
C415 H430 0.961 . S
C415 H431 0.961 . S
C416 C417 1.370 . S
C416 C418 1.363 . S
C416 H432 0.931 . S
C417 C416 1.370 . S
C417 C421 1.408 . S
C418 C416 1.363 . S
C418 C419 1.370 . S
C418 C422 1.524 . S
C419 C411 1.503 . S
C419 C418 1.370 . S
C419 C420 1.403 . S
C420 C419 1.403 . S
C420 C421 1.404 . S
C420 C423 1.539 . S
C421 C417 1.408 . S
C421 C420 1.404 . S
C421 H433 0.930 . S
C422 C418 1.524 . S
C422 H434 0.956 . S
C422 H435 0.961 . S
C422 H436 0.961 . S
C423 C420 1.539 . S
C423 H437 0.958 . S
C423 H438 0.961 . S
C423 H439 0.960 . S
H424 C408 0.931 . S
H425 C413 0.929 . S
H426 C414 0.960 . S
H427 C414 0.962 . S
H428 C414 0.960 . S
H429 C415 0.961 . S
H430 C415 0.961 . S
H431 C415 0.961 . S
H432 C416 0.931 . S
H433 C421 0.930 . S
H434 C422 0.956 . S
H435 C422 0.961 . S
H436 C422 0.961 . S
H437 C423 0.958 . S
H438 C423 0.961 . S
H439 C423 0.960 . S
C440 C441 1.391 . S
C440 C442 1.394 . S
C440 H456 0.931 . S
C441 C440 1.391 . S
C441 C445 1.376 . S
C442 C440 1.394 . S
C442 C443 1.369 . S
C442 C446 1.531 . S
C443 C442 1.369 . S
C443 C444 1.410 . S
C443 C451 1.503 . S
C444 C443 1.410 . S
C444 C445 1.392 . S
C444 C447 1.511 . S
C445 C441 1.376 . S
C445 C444 1.392 . S
C445 H457 0.929 . S
C446 C442 1.531 . S
C446 H458 0.960 . S
C446 H459 0.962 . S
C446 H460 0.960 . S
C447 C444 1.511 . S
C447 H461 0.961 . S
C447 H462 0.961 . S
C447 H463 0.961 . S
C448 C449 1.370 . S
C448 C450 1.363 1_554 S
C448 H464 0.931 . S
C449 C448 1.370 . S
C449 C453 1.408 . S
C450 C448 1.363 1_556 S
C450 C451 1.370 . S
C450 C454 1.524 . S
C451 C443 1.503 . S
C451 C450 1.370 . S
C451 C452 1.403 . S
C452 C451 1.403 . S
C452 C453 1.404 1_556 S
C452 C455 1.539 . S
C453 C449 1.408 . S
C453 C452 1.404 1_554 S
C453 H465 0.930 . S
C454 C450 1.524 . S
C454 H466 0.956 . S
C454 H467 0.961 . S
C454 H468 0.961 . S
C455 C452 1.539 . S
C455 H469 0.958 . S
C455 H470 0.961 . S
C455 H471 0.960 . S
H456 C440 0.931 . S
H457 C445 0.929 . S
H458 C446 0.960 . S
H459 C446 0.962 . S
H460 C446 0.960 . S
H461 C447 0.961 . S
H462 C447 0.961 . S
H463 C447 0.961 . S
H464 C448 0.931 . S
H465 C453 0.930 . S
H466 C454 0.956 . S
H467 C454 0.961 . S
H468 C454 0.961 . S
H469 C455 0.958 . S
H470 C455 0.961 . S
H471 C455 0.960 . S
C472 C473 1.391 . S
C472 C474 1.394 . S
C472 H488 0.931 . S
C473 C472 1.391 . S
C473 C477 1.376 . S
C474 C472 1.394 . S
C474 C475 1.369 . S
C474 C478 1.531 . S
C475 C474 1.369 . S
C475 C476 1.410 . S
C475 C483 1.503 . S
C476 C475 1.410 . S
C476 C477 1.392 . S
C476 C479 1.511 . S
C477 C473 1.376 . S
C477 C476 1.392 . S
C477 H489 0.929 . S
C478 C474 1.531 . S
C478 H490 0.960 . S
C478 H491 0.962 . S
C478 H492 0.960 . S
C479 C476 1.511 . S
C479 H493 0.961 . S
C479 H494 0.961 . S
C479 H495 0.961 . S
C480 C481 1.370 . S
C480 C482 1.363 1_556 S
C480 H496 0.931 . S
C481 C480 1.370 . S
C481 C485 1.408 . S
C482 C480 1.363 1_554 S
C482 C483 1.370 . S
C482 C486 1.524 . S
C483 C475 1.503 . S
C483 C482 1.370 . S
C483 C484 1.403 . S
C484 C483 1.403 . S
C484 C485 1.404 1_554 S
C484 C487 1.539 . S
C485 C481 1.408 . S
C485 C484 1.404 1_556 S
C485 H497 0.930 . S
C486 C482 1.524 . S
C486 H498 0.956 . S
C486 H499 0.961 . S
C486 H500 0.961 . S
C487 C484 1.539 . S
C487 H501 0.958 . S
C487 H502 0.961 . S
C487 H503 0.960 . S
H488 C472 0.931 . S
H489 C477 0.929 . S
H490 C478 0.960 . S
H491 C478 0.962 . S
H492 C478 0.960 . S
H493 C479 0.961 . S
H494 C479 0.961 . S
H495 C479 0.961 . S
H496 C480 0.931 . S
H497 C485 0.930 . S
H498 C486 0.956 . S
H499 C486 0.961 . S
H500 C486 0.961 . S
H501 C487 0.958 . S
H502 C487 0.961 . S
H503 C487 0.960 . S
C504 C505 1.391 . S
C504 C506 1.394 . S
C504 H520 0.931 . S
C505 C504 1.391 . S
C505 C509 1.376 . S
C506 C504 1.394 . S
C506 C507 1.369 . S
C506 C510 1.531 . S
C507 C506 1.369 . S
C507 C508 1.410 . S
C507 C515 1.503 . S
C508 C507 1.410 . S
C508 C509 1.392 . S
C508 C511 1.511 . S
C509 C505 1.376 . S
C509 C508 1.392 . S
C509 H521 0.929 . S
C510 C506 1.531 . S
C510 H522 0.960 . S
C510 H523 0.962 . S
C510 H524 0.960 . S
C511 C508 1.511 . S
C511 H525 0.961 . S
C511 H526 0.961 . S
C511 H527 0.961 . S
C512 C513 1.370 . S
C512 C514 1.363 . S
C512 H528 0.931 . S
C513 C512 1.370 . S
C513 C517 1.408 . S
C514 C512 1.363 . S
C514 C515 1.370 . S
C514 C518 1.524 . S
C515 C507 1.503 . S
C515 C514 1.370 . S
C515 C516 1.403 . S
C516 C515 1.403 . S
C516 C517 1.404 . S
C516 C519 1.539 . S
C517 C513 1.408 . S
C517 C516 1.404 . S
C517 H529 0.930 . S
C518 C514 1.524 . S
C518 H530 0.956 . S
C518 H531 0.961 . S
C518 H532 0.961 . S
C519 C516 1.539 . S
C519 H533 0.958 . S
C519 H534 0.961 . S
C519 H535 0.960 . S
H520 C504 0.931 . S
H521 C509 0.929 . S
H522 C510 0.960 . S
H523 C510 0.962 . S
H524 C510 0.960 . S
H525 C511 0.961 . S
H526 C511 0.961 . S
H527 C511 0.961 . S
H528 C512 0.931 . S
H529 C517 0.930 . S
H530 C518 0.956 . S
H531 C518 0.961 . S
H532 C518 0.961 . S
H533 C519 0.958 . S
H534 C519 0.961 . S
H535 C519 0.960 . S
C536 C537 1.391 . S
C536 C538 1.394 . S
C536 H552 0.931 . S
C537 C536 1.391 . S
C537 C541 1.376 . S
C538 C536 1.394 . S
C538 C539 1.369 . S
C538 C542 1.531 . S
C539 C538 1.369 . S
C539 C540 1.410 . S
C539 C547 1.503 . S
C540 C539 1.410 . S
C540 C541 1.392 . S
C540 C543 1.511 . S
C541 C537 1.376 . S
C541 C540 1.392 . S
C541 H553 0.929 . S
C542 C538 1.531 . S
C542 H554 0.960 . S
C542 H555 0.962 . S
C542 H556 0.960 . S
C543 C540 1.511 . S
C543 H557 0.961 . S
C543 H558 0.961 . S
C543 H559 0.961 . S
C544 C545 1.370 . S
C544 C546 1.363 . S
C544 H560 0.931 . S
C545 C544 1.370 . S
C545 C549 1.408 . S
C546 C544 1.363 . S
C546 C547 1.370 . S
C546 C550 1.524 . S
C547 C539 1.503 . S
C547 C546 1.370 . S
C547 C548 1.403 . S
C548 C547 1.403 . S
C548 C549 1.404 . S
C548 C551 1.539 . S
C549 C545 1.408 . S
C549 C548 1.404 . S
C549 H561 0.930 . S
C550 C546 1.524 . S
C550 H562 0.956 . S
C550 H563 0.961 . S
C550 H564 0.961 . S
C551 C548 1.539 . S
C551 H565 0.958 . S
C551 H566 0.961 . S
C551 H567 0.960 . S
H552 C536 0.931 . S
H553 C541 0.929 . S
H554 C542 0.960 . S
H555 C542 0.962 . S
H556 C542 0.960 . S
H557 C543 0.961 . S
H558 C543 0.961 . S
H559 C543 0.961 . S
H560 C544 0.931 . S
H561 C549 0.930 . S
H562 C550 0.956 . S
H563 C550 0.961 . S
H564 C550 0.961 . S
H565 C551 0.958 . S
H566 C551 0.961 . S
H567 C551 0.960 . S
C568 C569 1.391 . S
C568 C570 1.394 . S
C568 H584 0.931 . S
C569 C568 1.391 . S
C569 C573 1.376 . S
C570 C568 1.394 . S
C570 C571 1.369 . S
C570 C574 1.531 . S
C571 C570 1.369 . S
C571 C572 1.410 . S
C571 C579 1.503 . S
C572 C571 1.410 . S
C572 C573 1.392 . S
C572 C575 1.511 . S
C573 C569 1.376 . S
C573 C572 1.392 . S
C573 H585 0.929 . S
C574 C570 1.531 . S
C574 H586 0.960 . S
C574 H587 0.962 . S
C574 H588 0.960 . S
C575 C572 1.511 . S
C575 H589 0.961 . S
C575 H590 0.961 . S
C575 H591 0.961 . S
C576 C577 1.370 . S
C576 C578 1.363 . S
C576 H592 0.931 . S
C577 C576 1.370 . S
C577 C581 1.408 . S
C578 C576 1.363 . S
C578 C579 1.370 . S
C578 C582 1.524 . S
C579 C571 1.503 . S
C579 C578 1.370 . S
C579 C580 1.403 . S
C580 C579 1.403 . S
C580 C581 1.404 . S
C580 C583 1.539 1_556 S
C581 C577 1.408 . S
C581 C580 1.404 . S
C581 H593 0.930 . S
C582 C578 1.524 . S
C582 H594 0.956 . S
C582 H595 0.961 . S
C582 H596 0.961 . S
C583 C580 1.539 1_554 S
C583 H597 0.958 . S
C583 H598 0.961 . S
C583 H599 0.960 . S
H584 C568 0.931 . S
H585 C573 0.929 . S
H586 C574 0.960 . S
H587 C574 0.962 . S
H588 C574 0.960 . S
H589 C575 0.961 . S
H590 C575 0.961 . S
H591 C575 0.961 . S
H592 C576 0.931 . S
H593 C581 0.930 . S
H594 C582 0.956 . S
H595 C582 0.961 . S
H596 C582 0.961 . S
H597 C583 0.958 . S
H598 C583 0.961 . S
H599 C583 0.960 . S
C600 C601 1.391 . S
C600 C602 1.394 . S
C600 H616 0.931 . S
C601 C600 1.391 . S
C601 C605 1.376 . S
C602 C600 1.394 . S
C602 C603 1.369 . S
C602 C606 1.531 . S
C603 C602 1.369 . S
C603 C604 1.410 . S
C603 C611 1.503 . S
C604 C603 1.410 . S
C604 C605 1.392 . S
C604 C607 1.511 . S
C605 C601 1.376 . S
C605 C604 1.392 . S
C605 H617 0.929 . S
C606 C602 1.531 . S
C606 H618 0.960 . S
C606 H619 0.962 . S
C606 H620 0.960 . S
C607 C604 1.511 . S
C607 H621 0.961 . S
C607 H622 0.961 . S
C607 H623 0.961 . S
C608 C609 1.370 . S
C608 C610 1.363 . S
C608 H624 0.931 . S
C609 C608 1.370 . S
C609 C613 1.408 . S
C610 C608 1.363 . S
C610 C611 1.370 . S
C610 C614 1.524 . S
C611 C603 1.503 . S
C611 C610 1.370 . S
C611 C612 1.403 . S
C612 C611 1.403 . S
C612 C613 1.404 . S
C612 C615 1.539 . S
C613 C609 1.408 . S
C613 C612 1.404 . S
C613 H625 0.930 . S
C614 C610 1.524 . S
C614 H626 0.956 . S
C614 H627 0.961 . S
C614 H628 0.961 . S
C615 C612 1.539 . S
C615 H629 0.958 . S
C615 H630 0.961 . S
C615 H631 0.960 . S
H616 C600 0.931 . S
H617 C605 0.929 . S
H618 C606 0.960 . S
H619 C606 0.962 . S
H620 C606 0.960 . S
H621 C607 0.961 . S
H622 C607 0.961 . S
H623 C607 0.961 . S
H624 C608 0.931 . S
H625 C613 0.930 . S
H626 C614 0.956 . S
H627 C614 0.961 . S
H628 C614 0.961 . S
H629 C615 0.958 . S
H630 C615 0.961 . S
H631 C615 0.960 . S
C632 C633 1.391 . S
C632 C634 1.394 . S
C632 H648 0.931 . S
C633 C632 1.391 . S
C633 C637 1.376 . S
C634 C632 1.394 . S
C634 C635 1.369 . S
C634 C638 1.531 . S
C635 C634 1.369 . S
C635 C636 1.410 . S
C635 C643 1.503 . S
C636 C635 1.410 . S
C636 C637 1.392 . S
C636 C639 1.511 . S
C637 C633 1.376 . S
C637 C636 1.392 . S
C637 H649 0.929 . S
C638 C634 1.531 . S
C638 H650 0.960 . S
C638 H651 0.962 . S
C638 H652 0.960 . S
C639 C636 1.511 . S
C639 H653 0.961 . S
C639 H654 0.961 . S
C639 H655 0.961 . S
C640 C641 1.370 . S
C640 C642 1.363 . S
C640 H656 0.931 . S
C641 C640 1.370 . S
C641 C645 1.408 . S
C642 C640 1.363 . S
C642 C643 1.370 . S
C642 C646 1.524 . S
C643 C635 1.503 . S
C643 C642 1.370 . S
C643 C644 1.403 . S
C644 C643 1.403 . S
C644 C645 1.404 . S
C644 C647 1.539 . S
C645 C641 1.408 . S
C645 C644 1.404 . S
C645 H657 0.930 . S
C646 C642 1.524 . S
C646 H658 0.956 . S
C646 H659 0.961 . S
C646 H660 0.961 . S
C647 C644 1.539 . S
C647 H661 0.958 . S
C647 H662 0.961 . S
C647 H663 0.960 . S
H648 C632 0.931 . S
H649 C637 0.929 . S
H650 C638 0.960 . S
H651 C638 0.962 . S
H652 C638 0.960 . S
H653 C639 0.961 . S
H654 C639 0.961 . S
H655 C639 0.961 . S
H656 C640 0.931 . S
H657 C645 0.930 . S
H658 C646 0.956 . S
H659 C646 0.961 . S
H660 C646 0.961 . S
H661 C647 0.958 . S
H662 C647 0.961 . S
H663 C647 0.960 . S
C664 C665 1.391 . S
C664 C666 1.394 . S
C664 H680 0.931 . S
C665 C664 1.391 . S
C665 C669 1.376 . S
C666 C664 1.394 . S
C666 C667 1.369 . S
C666 C670 1.531 . S
C667 C666 1.369 . S
C667 C668 1.410 . S
C667 C675 1.503 . S
C668 C667 1.410 . S
C668 C669 1.392 . S
C668 C671 1.511 . S
C669 C665 1.376 . S
C669 C668 1.392 . S
C669 H681 0.929 . S
C670 C666 1.531 . S
C670 H682 0.960 . S
C670 H683 0.962 . S
C670 H684 0.960 1_556 S
C671 C668 1.511 . S
C671 H685 0.961 . S
C671 H686 0.961 . S
C671 H687 0.961 . S
C672 C673 1.370 . S
C672 C674 1.363 . S
C672 H688 0.931 . S
C673 C672 1.370 . S
C673 C677 1.408 . S
C674 C672 1.363 . S
C674 C675 1.370 . S
C674 C678 1.524 . S
C675 C667 1.503 . S
C675 C674 1.370 . S
C675 C676 1.403 . S
C676 C675 1.403 . S
C676 C677 1.404 . S
C676 C679 1.539 1_556 S
C677 C673 1.408 . S
C677 C676 1.404 . S
C677 H689 0.930 . S
C678 C674 1.524 . S
C678 H690 0.956 . S
C678 H691 0.961 . S
C678 H692 0.961 . S
C679 C676 1.539 1_554 S
C679 H693 0.958 . S
C679 H694 0.961 . S
C679 H695 0.960 . S
H680 C664 0.931 . S
H681 C669 0.929 . S
H682 C670 0.960 . S
H683 C670 0.962 . S
H684 C670 0.960 1_554 S
H685 C671 0.961 . S
H686 C671 0.961 . S
H687 C671 0.961 . S
H688 C672 0.931 . S
H689 C677 0.930 . S
H690 C678 0.956 . S
H691 C678 0.961 . S
H692 C678 0.961 . S
H693 C679 0.958 . S
H694 C679 0.961 . S
H695 C679 0.960 . S
C121 C101 1.476 . S
C129 C16 1.450 . S
C153 C1 1.499 . S
C161 C36 1.448 . S
C185 C21 1.505 . S
C193 C56 1.428 . S
C217 C41 1.495 . S
C225 C76 1.432 . S
C249 C96 1.475 . S
C257 C61 1.491 . S
C281 C116 1.417 . S
C289 C81 1.507 . S
C313 C8 1.833 . S
C321 C19 1.851 . S
C345 C28 1.808 . S
C353 C39 1.859 . S
C377 C48 1.816 . S
C385 C59 1.854 . S
C409 C68 1.845 . S
C417 C79 1.846 . S
C441 C99 1.844 . S
C449 C88 1.842 . S
C473 C108 1.811 . S
C481 C119 1.856 . S
C505 C6 1.430 . S
C513 C89 1.432 . S
C537 C26 1.377 . S
C545 C109 1.452 . S
C569 C9 1.417 . S
C577 C46 1.418 . S
C601 C29 1.449 . S
C609 C66 1.408 . S
C633 C86 1.392 . S
C641 C49 1.436 . S
C665 C69 1.429 . S
C673 C106 1.417 . S
