# Generated by pormake.
# Topology vmc, (5)-cn, num edge types: 1
# Building blocks:
#     Node 0, Type 0, BuildingBlock: XOMCOT_clean_sbu_0, # of connection points: 5
#     Node 1, Type 0, BuildingBlock: XOMCOT_clean_sbu_0, # of connection points: 5
#     Node 2, Type 0, BuildingBlock: XOMCOT_clean_sbu_0, # of connection points: 5
#     Node 3, Type 0, BuildingBlock: XOMCOT_clean_sbu_0, # of connection points: 5
#     Node 4, Type 0, BuildingBlock: XOMCOT_clean_sbu_0, # of connection points: 5
#     Node 5, Type 0, BuildingBlock: XOMCOT_clean_sbu_0, # of connection points: 5
#     Node 6, Type 0, BuildingBlock: XOMCOT_clean_sbu_0, # of connection points: 5
#     Node 7, Type 0, BuildingBlock: XOMCOT_clean_sbu_0, # of connection points: 5
#     Edge 8, Type (0, 0), BuildingBlock: KIFKEQ_clean_linker_1, # of connection points: 2
#     Edge 9, Type (0, 0), BuildingBlock: KIFKEQ_clean_linker_1, # of connection points: 2
#     Edge 10, Type (0, 0), BuildingBlock: KIFKEQ_clean_linker_1, # of connection points: 2
#     Edge 11, Type (0, 0), BuildingBlock: KIFKEQ_clean_linker_1, # of connection points: 2
#     Edge 12, Type (0, 0), BuildingBlock: KIFKEQ_clean_linker_1, # of connection points: 2
#     Edge 13, Type (0, 0), BuildingBlock: KIFKEQ_clean_linker_1, # of connection points: 2
#     Edge 14, Type (0, 0), BuildingBlock: KIFKEQ_clean_linker_1, # of connection points: 2
#     Edge 15, Type (0, 0), BuildingBlock: KIFKEQ_clean_linker_1, # of connection points: 2
#     Edge 16, Type (0, 0), BuildingBlock: KIFKEQ_clean_linker_1, # of connection points: 2
#     Edge 17, Type (0, 0), BuildingBlock: KIFKEQ_clean_linker_1, # of connection points: 2
#     Edge 18, Type (0, 0), BuildingBlock: KIFKEQ_clean_linker_1, # of connection points: 2
#     Edge 19, Type (0, 0), BuildingBlock: KIFKEQ_clean_linker_1, # of connection points: 2
#     Edge 20, Type (0, 0), BuildingBlock: KIFKEQ_clean_linker_1, # of connection points: 2
#     Edge 21, Type (0, 0), BuildingBlock: KIFKEQ_clean_linker_1, # of connection points: 2
#     Edge 22, Type (0, 0), BuildingBlock: KIFKEQ_clean_linker_1, # of connection points: 2
#     Edge 23, Type (0, 0), BuildingBlock: KIFKEQ_clean_linker_1, # of connection points: 2
#     Edge 24, Type (0, 0), BuildingBlock: KIFKEQ_clean_linker_1, # of connection points: 2
#     Edge 25, Type (0, 0), BuildingBlock: KIFKEQ_clean_linker_1, # of connection points: 2
#     Edge 26, Type (0, 0), BuildingBlock: KIFKEQ_clean_linker_1, # of connection points: 2
#     Edge 27, Type (0, 0), BuildingBlock: KIFKEQ_clean_linker_1, # of connection points: 2
# Relax obj value: 0.325
# Max RMSD: 0.194
# Mean RMSD: 0.194
data_MOF--net-vmc--node1-XOMCOT_clean_sbu_0--edge1-KIFKEQ_clean_linker_1
_symmetry_space_group_name_H-M    P1
_symmetry_Int_Tables_number       1
_symmetry_cell_setting            triclinic
loop_
_symmetry_equiv_pos_as_xyz
'x, y, z'
_cell_length_a     29.166651
_cell_length_b     48.701379
_cell_length_c     29.591255
_cell_angle_alpha  90.045012
_cell_angle_beta   90.296576
_cell_angle_gamma 89.941148
loop_
_atom_site_label
_atom_site_type_symbol
_atom_site_fract_x
_atom_site_fract_y
_atom_site_fract_z
_atom_type_partial_charge
Co0 Co 0.2646 0.46262 0.06849 0.0
C1 C 0.22181 0.48383 0.98427 0.0
C2 C 0.18619 0.49889 0.04223 0.0
C3 C 0.16729 0.51071 1.00401 0.0
N4 N 0.22016 0.48165 0.02989 0.0
N5 N 0.18977 0.5012 0.96748 0.0
H6 H 0.24758 0.47398 0.96374 0.0
H7 H 0.17682 0.50378 0.07651 0.0
C8 C 0.19203 0.4682 0.14366 0.0
O9 O 0.1609 0.45315 0.12314 0.0
N10 N 0.30981 0.4441 0.10535 0.0
C11 C 0.33047 0.42017 0.09473 0.0
C12 C 0.36262 0.41429 0.12726 0.0
C13 C 0.33069 0.453 0.14338 0.0
N14 N 0.36278 0.43493 0.15756 0.0
C15 C 0.22845 0.41698 1.01839 0.0
C16 C 0.21971 0.38253 0.09202 0.0
C17 C 0.21854 0.37097 0.04853 0.0
C18 C 0.22065 0.38894 1.01147 0.0
C19 C 0.22674 0.41075 0.09746 0.0
N20 N 0.23296 0.42752 0.06093 0.0
H21 H 0.23478 0.42965 0.98931 0.0
H22 H 0.23239 0.41847 0.13126 0.0
H23 H 0.32316 0.4081 0.06486 0.0
H24 H 0.32312 0.47233 0.15984 0.0
O25 O 0.30787 0.46007 1.01918 0.0
O26 O 0.3029 0.49463 0.06787 0.0
O27 O 0.23072 0.47293 0.12528 0.0
C28 C 0.32451 0.48314 0.03457 0.0
H29 H 0.13979 0.52564 1.00344 0.0
H30 H 0.38542 0.39673 0.1278 0.0
H31 H 0.21902 0.36975 0.12191 0.0
H32 H 0.21885 0.3813 0.97715 0.0
Co33 Co 0.70945 0.4592 0.47639 0.0
C34 C 0.74893 0.48174 0.56099 0.0
C35 C 0.78371 0.49813 0.50357 0.0
C36 C 0.80051 0.51077 0.54204 0.0
N37 N 0.75173 0.4795 0.51545 0.0
N38 N 0.77829 0.50056 0.57814 0.0
H39 H 0.72449 0.47064 0.58128 0.0
H40 H 0.79244 0.50367 0.46941 0.0
C41 C 0.78397 0.46706 0.40263 0.0
O42 O 0.81824 0.45626 0.4255 0.0
N43 N 0.66644 0.43942 0.43885 0.0
C44 C 0.64851 0.41449 0.44762 0.0
C45 C 0.61561 0.40876 0.41567 0.0
C46 C 0.64334 0.44891 0.40251 0.0
N47 N 0.6123 0.43045 0.38762 0.0
C48 C 0.74064 0.41408 0.52955 0.0
C49 C 0.76364 0.38042 0.45799 0.0
C50 C 0.7579 0.36851 0.50087 0.0
C51 C 0.74813 0.38612 0.53719 0.0
C52 C 0.75508 0.40847 0.45167 0.0
N53 N 0.74221 0.42482 0.48701 0.0
H54 H 0.72887 0.42641 0.55737 0.0
H55 H 0.75403 0.41618 0.41752 0.0
H56 H 0.65744 0.40176 0.47626 0.0
H57 H 0.64818 0.46913 0.38816 0.0
O58 O 0.66469 0.45708 0.52442 0.0
O59 O 0.67001 0.49075 0.47423 0.0
O60 O 0.7441 0.46877 0.4199 0.0
C61 C 0.64793 0.47972 0.50758 0.0
H62 H 0.8251 0.5274 0.54302 0.0
H63 H 0.5941 0.39066 0.41445 0.0
H64 H 0.77196 0.36798 0.42885 0.0
H65 H 0.74253 0.37823 0.57087 0.0
Co66 Co 0.70988 0.56936 0.97937 0.0
C67 C 0.74923 0.5401 0.05848 0.0
C68 C 0.80251 0.55393 1.01463 0.0
C69 C 0.82233 0.54191 0.05229 0.0
N70 N 0.75649 0.55279 1.01845 0.0
N71 N 0.78865 0.5332 0.07984 0.0
H72 H 0.71577 0.53707 0.07304 0.0
H73 H 0.82076 0.5636 0.98739 0.0
C74 C 0.78046 0.56925 0.90028 0.0
O75 O 0.80645 0.58939 0.915 0.0
N76 N 0.66263 0.58563 0.94219 0.0
C77 C 0.63618 0.60697 0.95489 0.0
C78 C 0.60015 0.60925 0.92526 0.0
C79 C 0.64218 0.57497 0.90521 0.0
N80 N 0.60376 0.58903 0.89435 0.0
C81 C 0.7424 0.61496 0.0318 0.0
C82 C 0.7442 0.65194 0.96095 0.0
C83 C 0.74866 0.66208 1.00521 0.0
C84 C 0.74927 0.64293 0.04079 0.0
C85 C 0.73806 0.62388 0.95345 0.0
N86 N 0.73598 0.6058 0.98865 0.0
H87 H 0.73946 0.60085 0.05981 0.0
H88 H 0.731 0.61705 0.91937 0.0
H89 H 0.64147 0.61913 0.98508 0.0
H90 H 0.65329 0.5563 0.88867 0.0
O91 O 0.66502 0.56878 0.02789 0.0
O92 O 0.67666 0.53555 0.97797 0.0
O93 O 0.74612 0.56089 0.92305 0.0
C94 C 0.65186 0.54536 1.01049 0.0
H95 H 0.85871 0.54012 0.05905 0.0
H96 H 0.5726 0.62411 0.9271 0.0
H97 H 0.74235 0.66562 0.93221 0.0
H98 H 0.75333 0.6495 0.07553 0.0
Co99 Co 0.26594 0.56994 0.56774 0.0
C100 C 0.22058 0.55064 0.48458 0.0
C101 C 0.18764 0.53355 0.54249 0.0
C102 C 0.16916 0.52163 0.50404 0.0
N103 N 0.21959 0.5521 0.53022 0.0
N104 N 0.1904 0.53225 0.46769 0.0
H105 H 0.24496 0.56152 0.46396 0.0
H106 H 0.18056 0.52734 0.57676 0.0
C107 C 0.19185 0.56538 0.64315 0.0
O108 O 0.15742 0.57606 0.62038 0.0
N109 N 0.31302 0.58733 0.60346 0.0
C110 C 0.33664 0.61 0.59184 0.0
C111 C 0.37341 0.61273 0.62062 0.0
C112 C 0.3358 0.57643 0.63884 0.0
N113 N 0.37302 0.5915 0.64984 0.0
C114 C 0.24337 0.61715 0.51469 0.0
C115 C 0.21967 0.65076 0.58609 0.0
C116 C 0.22676 0.66282 0.54354 0.0
C117 C 0.23747 0.6453 0.50734 0.0
C118 C 0.22687 0.62258 0.59218 0.0
N119 N 0.23921 0.60611 0.55684 0.0
H120 H 0.25542 0.60477 0.48705 0.0
H121 H 0.22631 0.61467 0.62617 0.0
H122 H 0.32918 0.62284 0.56294 0.0
H123 H 0.32714 0.55692 0.65405 0.0
O124 O 0.31009 0.56807 0.51866 0.0
O125 O 0.29919 0.53613 0.57071 0.0
O126 O 0.23138 0.56312 0.62533 0.0
C127 C 0.32288 0.54481 0.53666 0.0
H128 H 0.14463 0.50497 0.50312 0.0
H129 H 0.39918 0.62869 0.61929 0.0
H130 H 0.21073 0.66309 0.61518 0.0
H131 H 0.24446 0.65331 0.474 0.0
Co132 Co 0.77061 0.96004 0.06526 0.0
C133 C 0.72565 0.98166 0.98318 0.0
C134 C 0.69447 0.99884 0.04202 0.0
C135 C 0.67594 1.01141 1.00417 0.0
N136 N 0.72532 0.97979 0.02882 0.0
N137 N 0.69606 1.0007 0.96724 0.0
H138 H 0.74891 0.97037 0.96181 0.0
H139 H 0.68801 1.00484 0.07651 0.0
C140 C 0.69999 0.96746 0.14217 0.0
O141 O 0.66561 0.95626 0.12003 0.0
N142 N 0.81666 0.94069 0.09958 0.0
C143 C 0.83609 0.9167 0.08744 0.0
C144 C 0.87302 0.91182 0.11509 0.0
C145 C 0.84236 0.95035 0.13402 0.0
N146 N 0.87725 0.93309 0.14403 0.0
C147 C 0.737 0.91427 1.01485 0.0
C148 C 0.72122 0.88078 0.08859 0.0
C149 C 0.72407 0.8689 0.04558 0.0
C150 C 0.73021 0.88615 1.00828 0.0
C151 C 0.72895 0.909 0.09381 0.0
N152 N 0.73825 0.92528 0.05728 0.0
H153 H 0.74602 0.92653 0.98601 0.0
H154 H 0.73265 0.91693 0.12767 0.0
H155 H 0.82549 0.90421 0.05904 0.0
H156 H 0.83732 0.9703 0.14936 0.0
O157 O 0.81225 0.95825 1.01428 0.0
O158 O 0.80916 0.99196 0.06458 0.0
O159 O 0.73936 0.96958 0.1239 0.0
C160 C 0.82929 0.98116 0.02981 0.0
H161 H 0.65203 0.02842 1.00404 0.0
H162 H 0.89565 0.89424 0.1132 0.0
H163 H 0.7173 0.86805 0.11832 0.0
H164 H 0.73268 0.87771 0.97449 0.0
Co165 Co 0.20781 0.96182 0.47847 0.0
C166 C 0.25417 0.98125 0.5612 0.0
C167 C 0.28435 0.99967 0.50292 0.0
C168 C 0.30346 1.0114 0.54123 0.0
N169 N 0.25379 0.98039 0.51548 0.0
N170 N 0.28432 0.99972 0.57791 0.0
H171 H 0.2301 0.97029 0.58205 0.0
H172 H 0.29045 1.00616 0.46859 0.0
C173 C 0.28058 0.96718 0.40223 0.0
O174 O 0.31526 0.95646 0.42458 0.0
N175 N 0.16106 0.94363 0.44343 0.0
C176 C 0.1389 0.92048 0.45533 0.0
C177 C 0.10648 0.91468 0.42295 0.0
C178 C 0.14118 0.95207 0.40472 0.0
N179 N 0.10795 0.93458 0.39137 0.0
C180 C 0.23695 0.91495 0.53046 0.0
C181 C 0.25191 0.88137 0.45661 0.0
C182 C 0.24987 0.86953 0.49965 0.0
C183 C 0.24421 0.88681 0.53705 0.0
C184 C 0.2455 0.90965 0.45156 0.0
N185 N 0.23661 0.92605 0.48807 0.0
H186 H 0.22749 0.92718 0.55921 0.0
H187 H 0.24272 0.9177 0.4177 0.0
H188 H 0.14544 0.90885 0.48581 0.0
H189 H 0.15047 0.97065 0.38702 0.0
O190 O 0.16424 0.96281 0.52821 0.0
O191 O 0.17312 0.99496 0.47607 0.0
O192 O 0.24128 0.96939 0.4205 0.0
C193 C 0.15031 0.98593 0.51042 0.0
H194 H 0.32827 0.02789 0.54188 0.0
H195 H 0.08274 0.89761 0.42323 0.0
H196 H 0.25585 0.86864 0.42683 0.0
H197 H 0.24165 0.87836 0.57079 0.0
Co198 Co 0.21411 0.07315 0.97496 0.0
C199 C 0.24657 0.04235 0.05622 0.0
C200 C 0.3024 0.05591 1.01513 0.0
C201 C 0.32003 0.04369 0.05352 0.0
N202 N 0.25626 0.05491 1.01659 0.0
N203 N 0.28488 0.03522 0.07953 0.0
H204 H 0.21222 0.0397 0.06898 0.0
H205 H 0.32197 0.06573 0.98877 0.0
C206 C 0.26979 0.04506 0.90797 0.0
O207 O 0.26175 0.02314 0.93252 0.0
N208 N 0.17214 0.09178 0.93458 0.0
C209 C 0.15248 0.11646 0.94183 0.0
C210 C 0.12121 0.12143 0.90806 0.0
C211 C 0.15162 0.08168 0.89712 0.0
N212 N 0.12054 0.09953 0.88026 0.0
C213 C 0.23137 0.11772 0.03472 0.0
C214 C 0.26355 0.1537 0.9699 0.0
C215 C 0.25019 0.16414 1.01206 0.0
C216 C 0.2358 0.14557 0.04529 0.0
C217 C 0.25809 0.12569 0.9605 0.0
N218 N 0.24004 0.10841 0.99213 0.0
H219 H 0.21753 0.10393 0.05978 0.0
H220 H 0.26434 0.11856 0.92653 0.0
H221 H 0.1588 0.12953 0.97073 0.0
H222 H 0.15817 0.06145 0.8834 0.0
O223 O 0.16452 0.07084 1.01832 0.0
O224 O 0.17996 0.03975 0.9659 0.0
O225 O 0.25756 0.06859 0.92277 0.0
C226 C 0.15278 0.04828 0.99755 0.0
H227 H 0.35604 0.04172 0.06186 0.0
H228 H 0.09874 0.13908 0.9055 0.0
H229 H 0.27472 0.16734 0.94325 0.0
H230 H 0.22595 0.15271 0.07853 0.0
Co231 Co 0.7652 0.07125 0.56884 0.0
C232 C 0.72369 0.05056 0.48374 0.0
C233 C 0.6866 0.03564 0.54082 0.0
C234 C 0.66863 0.02382 0.50213 0.0
N235 N 0.72098 0.05274 0.52932 0.0
N236 N 0.69208 0.03322 0.46615 0.0
H237 H 0.74999 0.06032 0.46384 0.0
H238 H 0.67641 0.03078 0.57487 0.0
C239 C 0.69237 0.06541 0.64381 0.0
O240 O 0.66145 0.08094 0.62395 0.0
N241 N 0.8104 0.08928 0.60649 0.0
C242 C 0.83099 0.1133 0.5966 0.0
C243 C 0.86411 0.11846 0.62847 0.0
C244 C 0.83237 0.07958 0.64342 0.0
N245 N 0.86504 0.09726 0.65766 0.0
C246 C 0.72998 0.11738 0.51943 0.0
C247 C 0.72189 0.15143 0.59379 0.0
C248 C 0.72144 0.1631 0.55055 0.0
C249 C 0.72323 0.14558 0.51304 0.0
C250 C 0.72777 0.12309 0.59872 0.0
N251 N 0.73389 0.10652 0.56184 0.0
H252 H 0.73648 0.10486 0.49017 0.0
H253 H 0.73285 0.11508 0.6324 0.0
H254 H 0.82327 0.12586 0.56739 0.0
H255 H 0.82538 0.05988 0.65882 0.0
O256 O 0.80885 0.07407 0.52001 0.0
O257 O 0.80309 0.03909 0.56774 0.0
O258 O 0.73089 0.06059 0.62513 0.0
C259 C 0.82507 0.05078 0.53495 0.0
H260 H 0.64117 1.00892 0.50091 0.0
H261 H 0.8872 0.13585 0.6291 0.0
H262 H 0.72069 0.1643 0.62363 0.0
H263 H 0.7235 0.15384 0.47906 0.0
H264 H 0.11792 0.57116 0.70115 0.0
H265 H 0.25451 0.53707 0.69311 0.0
H266 H 0.11247 0.55485 0.77961 0.0
H267 H 0.24921 0.52137 0.77031 0.0
H268 H 0.21325 0.47214 0.89277 0.0
H269 H 0.20885 0.48697 0.81441 0.0
H270 H 0.14754 0.5635 0.8563 0.0
H271 H 0.1522 0.54873 0.9351 0.0
C272 C 0.14663 0.5602 0.7159 0.0
C273 C 0.18657 0.55547 0.69055 0.0
C274 C 0.14362 0.55097 0.7609 0.0
C275 C 0.18028 0.53657 0.78123 0.0
C276 C 0.21996 0.5319 0.75568 0.0
C277 C 0.22307 0.54118 0.71123 0.0
C278 C 0.19899 0.49218 0.88551 0.0
C279 C 0.18379 0.50934 0.92066 0.0
C280 C 0.19632 0.50068 0.84042 0.0
C281 C 0.1783 0.52659 0.82897 0.0
C282 C 0.16133 0.54335 0.86383 0.0
C283 C 0.16409 0.53485 0.90912 0.0
H284 H 0.71068 0.50075 0.64075 0.0
H285 H 0.85269 0.52216 0.62096 0.0
H286 H 0.71524 0.51663 0.71837 0.0
H287 H 0.85766 0.53784 0.69946 0.0
H288 H 0.83123 0.58985 0.82957 0.0
H289 H 0.83302 0.57297 0.75164 0.0
H290 H 0.74662 0.50485 0.78954 0.0
H291 H 0.74377 0.52205 0.86642 0.0
C292 C 0.74317 0.50845 0.65314 0.0
C293 C 0.78144 0.50989 0.62454 0.0
C294 C 0.74586 0.5176 0.69789 0.0
C295 C 0.787 0.52832 0.71568 0.0
C296 C 0.82528 0.52996 0.68698 0.0
C297 C 0.82249 0.52091 0.64196 0.0
C298 C 0.8131 0.5711 0.8213 0.0
C299 C 0.78706 0.55748 0.85429 0.0
C300 C 0.81415 0.56137 0.77657 0.0
C301 C 0.78935 0.53772 0.76387 0.0
C302 C 0.76513 0.52351 0.79752 0.0
C303 C 0.76383 0.53329 0.8419 0.0
H304 H 0.86017 0.46391 0.34699 0.0
H305 H 0.71989 0.49254 0.35037 0.0
H306 H 0.86525 0.47826 0.26744 0.0
H307 H 0.72515 0.50671 0.27235 0.0
H308 H 0.7271 0.50038 0.1217 0.0
H309 H 0.73009 0.48357 0.19893 0.0
H310 H 0.86309 0.52084 0.21723 0.0
H311 H 0.85998 0.53802 0.13949 0.0
C312 C 0.83061 0.47333 0.33103 0.0
C313 C 0.78954 0.47678 0.3552 0.0
C314 C 0.83353 0.4816 0.28552 0.0
C315 C 0.79534 0.49325 0.2633 0.0
C316 C 0.75488 0.49723 0.28795 0.0
C317 C 0.75202 0.48917 0.33303 0.0
C318 C 0.75698 0.50514 0.14204 0.0
C319 C 0.79288 0.52105 0.12437 0.0
C320 C 0.75876 0.49541 0.18641 0.0
C321 C 0.79653 0.5012 0.21458 0.0
C322 C 0.83355 0.51595 0.19642 0.0
C323 C 0.83173 0.52581 0.15181 0.0
H324 H 0.23205 0.51299 0.18125 0.0
H325 H 0.13522 0.44854 0.21051 0.0
H326 H 0.22751 0.52902 0.25869 0.0
H327 H 0.1319 0.46399 0.28938 0.0
H328 H 0.11497 0.5133 0.4232 0.0
H329 H 0.11021 0.49869 0.3439 0.0
H330 H 0.25519 0.51436 0.32922 0.0
H331 H 0.25939 0.52932 0.40719 0.0
C332 C 0.20964 0.50223 0.20433 0.0
C333 C 0.18429 0.47933 0.18976 0.0
C334 C 0.20731 0.5113 0.24901 0.0
C335 C 0.18016 0.49748 0.28089 0.0
C336 C 0.15313 0.47522 0.26588 0.0
C337 C 0.15503 0.46632 0.22068 0.0
C338 C 0.14567 0.51358 0.40282 0.0
C339 C 0.18734 0.52297 0.42133 0.0
C340 C 0.14304 0.50514 0.35741 0.0
C341 C 0.18214 0.50572 0.32964 0.0
C342 C 0.22395 0.51442 0.34883 0.0
C343 C 0.22645 0.52302 0.3938 0.0
H344 H 0.76358 1.00281 0.90513 0.0
H345 H 0.62021 0.02075 0.92472 0.0
H346 H 0.75793 0.0179 0.82731 0.0
H347 H 0.61394 0.03547 0.84561 0.0
H348 H 0.63737 0.08547 0.71189 0.0
H349 H 0.6353 0.06987 0.79069 0.0
H350 H 0.72806 1.00371 0.75738 0.0
H351 H 0.73138 0.01986 0.67998 0.0
C352 C 0.73055 1.00957 0.89256 0.0
C353 C 0.69217 1.01014 0.92104 0.0
C354 C 0.72721 0.01823 0.84769 0.0
C355 C 0.68523 0.0275 0.82955 0.0
C356 C 0.64688 0.02858 0.85829 0.0
C357 C 0.65038 0.02009 0.90359 0.0
C358 C 0.65677 0.0674 0.72147 0.0
C359 C 0.68493 0.0541 0.68981 0.0
C360 C 0.65561 0.05842 0.76664 0.0
C361 C 0.68228 0.03581 0.78088 0.0
C362 C 0.70821 0.0217 0.74829 0.0
C363 C 0.70981 0.03083 0.70363 0.0
H364 H 0.25885 0.08081 0.83691 0.0
H365 H 0.31212 1.00064 0.87066 0.0
H366 H 0.26865 0.07068 0.75665 0.0
H367 H 0.32322 0.9908 0.7908 0.0
H368 H 0.26999 0.96718 0.65059 0.0
H369 H 0.27348 0.97997 0.72976 0.0
H370 H 0.31769 0.06151 0.69272 0.0
H371 H 0.31226 0.04889 0.61286 0.0
C372 C 0.27389 0.06133 0.82729 0.0
C373 C 0.28436 0.04145 0.86025 0.0
C374 C 0.27953 0.05549 0.78116 0.0
C375 C 0.296 0.02969 0.76695 0.0
C376 C 0.3093 1.01059 0.80024 0.0
C377 C 0.30333 0.01634 0.84618 0.0
C378 C 0.28032 0.98788 0.65915 0.0
C379 C 0.29039 1.00702 0.62506 0.0
C380 C 0.28297 0.99516 0.7048 0.0
C381 C 0.29602 0.02182 0.71799 0.0
C382 C 0.30711 0.04087 0.68395 0.0
C383 C 0.30446 0.03354 0.63807 0.0
H384 H 0.356 0.03793 0.13983 0.0
H385 H 0.21976 1.00482 0.12174 0.0
H386 H 0.35809 0.01994 0.21674 0.0
H387 H 0.22185 0.98711 0.19855 0.0
H388 H 0.21596 0.99332 0.35141 0.0
H389 H 0.21968 1.0077 0.27344 0.0
H390 H 0.35862 0.97758 0.26496 0.0
H391 H 0.35498 0.96291 0.34439 0.0
C392 C 0.32668 0.02655 0.15185 0.0
C393 C 0.28743 0.02319 0.12434 0.0
C394 C 0.32797 0.01619 0.1961 0.0
C395 C 0.29 1.0023 0.21412 0.0
C396 C 0.2514 0.99819 0.18616 0.0
C397 C 0.25014 1.00844 0.14199 0.0
C398 C 0.24741 0.98947 0.33322 0.0
C399 C 0.28505 0.9766 0.35444 0.0
C400 C 0.2494 0.9977 0.28813 0.0
C401 C 0.28917 0.99348 0.26253 0.0
C402 C 0.32741 0.98115 0.28374 0.0
C403 C 0.32532 0.9727 0.32922 0.0
H404 H 0.65527 0.98567 0.43307 0.0
H405 H 0.71833 0.06178 0.39184 0.0
H406 H 0.6529 0.97056 0.35437 0.0
H407 H 0.71624 0.04659 0.31354 0.0
H408 H 0.76257 0.99594 0.19224 0.0
H409 H 0.75652 1.01214 0.26938 0.0
H410 H 0.61959 0.979 0.27765 0.0
H411 H 0.62576 0.96232 0.19955 0.0
C412 C 0.66811 0.99937 0.40734 0.0
C413 C 0.68759 0.02488 0.41923 0.0
C414 C 0.6667 0.99067 0.36208 0.0
C415 C 0.68483 1.00719 0.32753 0.0
C416 C 0.70283 0.03305 0.33929 0.0
C417 C 0.70413 0.04176 0.38437 0.0
C418 C 0.73094 0.99209 0.21017 0.0
C419 C 0.69457 0.9778 0.18934 0.0
C420 C 0.7274 1.00161 0.25456 0.0
C421 C 0.68745 0.99711 0.27982 0.0
C422 C 0.65096 0.98273 0.25924 0.0
C423 C 0.65439 0.97329 0.2144 0.0
H424 H 0.35821 0.53509 0.04039 0.0
H425 H 0.39605 0.45196 1.00652 0.0
H426 H 0.4384 0.54893 0.03656 0.0
H427 H 0.47636 0.46512 1.00544 0.0
H428 H 0.61296 0.50222 0.9671 0.0
H429 H 0.53379 0.48803 0.96883 0.0
H430 H 0.50762 0.54617 0.0763 0.0
H431 H 0.58713 0.56176 0.07223 0.0
C432 C 0.38376 0.51988 0.03146 0.0
C433 C 0.37095 0.49258 0.02307 0.0
C434 C 0.42985 0.52765 0.03013 0.0
C435 C 0.46432 0.50812 1.02141 0.0
C436 C 0.45105 0.48092 1.01164 0.0
C437 C 0.40486 0.47332 1.012 0.0
C438 C 0.59061 0.51177 0.99168 0.0
C439 C 0.60642 0.53319 1.01955 0.0
C440 C 0.54491 0.50351 0.99273 0.0
C441 C 0.51376 0.51604 1.02238 0.0
C442 C 0.53021 0.5365 0.05212 0.0
C443 C 0.57601 0.54515 0.05045 0.0
H444 H 0.57653 0.44916 0.5373 0.0
H445 H 0.61423 0.5315 0.49887 0.0
H446 H 0.49628 0.46261 0.53902 0.0
H447 H 0.5342 0.54567 0.50325 0.0
H448 H 0.38518 0.55888 0.47129 0.0
H449 H 0.46397 0.54224 0.46503 0.0
H450 H 0.44058 0.4868 0.57673 0.0
H451 H 0.36199 0.50203 0.5808 0.0
C452 C 0.5677 0.47041 0.53082 0.0
C453 C 0.60149 0.48937 0.51841 0.0
C454 C 0.5216 0.47817 0.53156 0.0
C455 C 0.50839 0.50524 0.52082 0.0
C456 C 0.54274 0.52448 0.51048 0.0
C457 C 0.58873 0.51654 0.5088 0.0
C458 C 0.39672 0.54262 0.49358 0.0
C459 C 0.36737 0.53179 0.52645 0.0
C460 C 0.44209 0.53337 0.49058 0.0
C461 C 0.45913 0.51343 0.5209 0.0
C462 C 0.4289 0.50188 0.5524 0.0
C463 C 0.38358 0.51074 0.55481 0.0
H464 H 0.09073 0.0581 0.06468 0.0
H465 H 0.11141 1.01067 0.9431 0.0
H466 H 0.01187 0.04162 0.0685 0.0
H467 H 0.03232 0.99518 0.94562 0.0
H468 H 0.89874 0.95269 0.99004 0.0
H469 H 0.9783 0.96739 0.98315 0.0
H470 H 0.94081 0.04821 0.03115 0.0
H471 H 0.86184 0.03301 0.03977 0.0
C472 C 0.07852 0.04399 0.03901 0.0
C473 C 0.1073 0.03559 1.00378 0.0
C474 C 0.03313 0.03481 0.04077 0.0
C475 C 0.01536 0.01736 1.00694 0.0
C476 C 0.04477 1.00836 0.97248 0.0
C477 C 0.09024 0.01725 0.97106 0.0
C478 C 0.9074 0.97378 0.99801 0.0
C479 C 0.8742 0.99173 1.01538 0.0
C480 C 0.95308 0.98221 0.9943 0.0
C481 C 0.96629 1.00888 1.00742 0.0
C482 C 0.93225 0.02729 1.02205 0.0
C483 C 0.88682 0.01874 0.02632 0.0
H484 H 0.89765 0.08229 0.51188 0.0
H485 H 0.85766 0.99849 0.53731 0.0
H486 H 0.97777 0.0687 0.51234 0.0
H487 H 0.93779 0.98425 0.53478 0.0
H488 H 0.08517 0.96864 0.57105 0.0
H489 H 0.0062 0.98522 0.57622 0.0
H490 H 0.03533 0.04665 0.47479 0.0
H491 H 0.11389 0.03149 0.47224 0.0
C492 C 0.90603 0.06073 0.51574 0.0
C493 C 0.87157 0.04136 0.52395 0.0
C494 C 0.95207 0.05288 0.5163 0.0
C495 C 0.96465 0.02533 0.52404 0.0
C496 C 0.92971 1.00576 0.52998 0.0
C497 C 0.88371 1.01376 0.53049 0.0
C498 C 0.07483 0.98619 0.55098 0.0
C499 C 0.10574 0.99868 0.52124 0.0
C500 C 0.02936 0.99542 0.55324 0.0
C501 C 0.01386 0.01703 0.52528 0.0
C502 C 0.04568 0.03022 0.49726 0.0
C503 C 0.09102 0.02138 0.49566 0.0
H504 H 0.17931 0.33043 0.10092 0.0
H505 H 0.26257 0.34177 0.98194 0.0
H506 H 0.18901 0.28105 0.09448 0.0
H507 H 0.26893 0.29249 0.97336 0.0
H508 H 0.31339 0.20415 0.99286 0.0
H509 H 0.30516 0.25371 1.00234 0.0
H510 H 0.16857 0.24167 0.05495 0.0
H511 H 0.17793 0.19227 0.04723 0.0
C512 C 0.19934 0.3225 0.07311 0.0
C513 C 0.22011 0.34044 0.04205 0.0
C514 C 0.20444 0.29399 0.06904 0.0
C515 C 0.22999 0.28247 0.03344 0.0
C516 C 0.24976 0.30039 1.00178 0.0
C517 C 0.24521 0.32887 1.00619 0.0
C518 C 0.2818 0.21218 1.00674 0.0
C519 C 0.24652 0.19429 1.01965 0.0
C520 C 0.27681 0.24065 1.01187 0.0
C521 C 0.23602 0.252 0.02929 0.0
C522 C 0.20084 0.23392 0.04228 0.0
C523 C 0.20614 0.20549 0.03778 0.0
H524 H 0.72892 0.32903 0.44036 0.0
H525 H 0.78346 0.33811 0.57569 0.0
H526 H 0.722 0.28003 0.45189 0.0
H527 H 0.77216 0.28952 0.58877 0.0
H528 H 0.78447 0.19684 0.58915 0.0
H529 H 0.79637 0.24555 0.57575 0.0
H530 H 0.67879 0.24647 0.48593 0.0
H531 H 0.66907 0.19717 0.49756 0.0
C532 C 0.73985 0.32069 0.47255 0.0
C533 C 0.75692 0.33793 0.50699 0.0
C534 C 0.73481 0.29243 0.47957 0.0
C535 C 0.74584 0.28046 0.52155 0.0
C536 C 0.76363 0.29762 0.55574 0.0
C537 C 0.76952 0.32581 0.54843 0.0
C538 C 0.76096 0.20759 0.56686 0.0
C539 C 0.7256 0.19329 0.54468 0.0
C540 C 0.76765 0.23564 0.55919 0.0
C541 C 0.73859 0.25036 0.5297 0.0
C542 C 0.70263 0.23596 0.5081 0.0
C543 C 0.69659 0.20772 0.51509 0.0
H544 H 0.66441 0.82931 0.07523 0.0
H545 H 0.79225 0.84033 1.00517 0.0
H546 H 0.6714 0.77954 0.06644 0.0
H547 H 0.80115 0.79089 0.99868 0.0
H548 H 0.78507 0.70321 0.95251 0.0
H549 H 0.7771 0.75231 0.96173 0.0
H550 H 0.70795 0.73959 0.0889 0.0
H551 H 0.71195 0.69032 0.07741 0.0
C552 C 0.69411 0.82099 0.05815 0.0
C553 C 0.72738 0.83863 0.04023 0.0
C554 C 0.6985 0.79243 0.05345 0.0
C555 C 0.73686 0.78083 0.03162 0.0
C556 C 0.77047 0.79875 1.01456 0.0
C557 C 0.76554 0.8272 1.01842 0.0
C558 C 0.76761 0.71075 0.98224 0.0
C559 C 0.74884 0.69243 1.01391 0.0
C560 C 0.76368 0.73917 0.98798 0.0
C561 C 0.74174 0.75033 0.02613 0.0
C562 C 0.72429 0.73202 0.05859 0.0
C563 C 0.72747 0.70354 0.05242 0.0
H564 H 0.19151 0.83429 0.45768 0.0
H565 H 0.30237 0.8367 0.55445 0.0
H566 H 0.18343 0.78512 0.46933 0.0
H567 H 0.29675 0.78704 0.56433 0.0
H568 H 0.25195 0.70248 0.6055 0.0
H569 H 0.25569 0.75167 0.59533 0.0
H570 H 0.21187 0.74214 0.45638 0.0
H571 H 0.20344 0.69322 0.46799 0.0
C572 C 0.21483 0.82407 0.48082 0.0
C573 C 0.24776 0.83923 0.50495 0.0
C574 C 0.2104 0.79576 0.48745 0.0
C575 C 0.23944 0.78167 0.51778 0.0
C576 C 0.27297 0.79699 0.5414 0.0
C577 C 0.27666 0.82546 0.53547 0.0
C578 C 0.24178 0.71079 0.57306 0.0
C579 C 0.22715 0.69344 0.53769 0.0
C580 C 0.24499 0.73922 0.56687 0.0
C581 C 0.23463 0.75129 0.52481 0.0
C582 C 0.21968 0.73397 0.48953 0.0
C583 C 0.21553 0.70559 0.49601 0.0
H584 H 0.56264 0.47598 0.36872 0.0
H585 H 0.58616 0.39221 0.32781 0.0
H586 H 0.49879 0.47935 0.3148 0.0
H587 H 0.52407 0.3956 0.27285 0.0
H588 H 0.38286 0.39576 0.21764 0.0
H589 H 0.44332 0.39686 0.27467 0.0
H590 H 0.47579 0.4803 0.23642 0.0
H591 H 0.41331 0.47926 0.18057 0.0
C592 C 0.55464 0.45853 0.34741 0.0
C593 C 0.57881 0.43376 0.3524 0.0
C594 C 0.51814 0.46039 0.31664 0.0
C595 C 0.50566 0.43756 0.29012 0.0
C596 C 0.53166 0.4133 0.29376 0.0
C597 C 0.56748 0.41136 0.32485 0.0
C598 C 0.40258 0.41441 0.22213 0.0
C599 C 0.39389 0.43735 0.19493 0.0
C600 C 0.43749 0.41502 0.25434 0.0
C601 C 0.46525 0.43844 0.25936 0.0
C602 C 0.45504 0.46195 0.2335 0.0
C603 C 0.41937 0.46144 0.20165 0.0
H604 H 0.46329 0.60371 0.64623 0.0
H605 H 0.36064 0.56455 0.72868 0.0
H606 H 0.52013 0.59678 0.70558 0.0
H607 H 0.41804 0.55684 0.78785 0.0
H608 H 0.51216 0.59476 0.89987 0.0
H609 H 0.45667 0.58942 0.83895 0.0
H610 H 0.56479 0.56268 0.74973 0.0
H611 H 0.62076 0.56869 0.81109 0.0
C612 C 0.45297 0.59347 0.67697 0.0
C613 C 0.40733 0.58516 0.68325 0.0
C614 C 0.48572 0.58908 0.71066 0.0
C615 C 0.47347 0.57635 0.75139 0.0
C616 C 0.4283 0.56692 0.75689 0.0
C617 C 0.39554 0.57122 0.72304 0.0
C618 C 0.52402 0.58764 0.8673 0.0
C619 C 0.57078 0.58265 0.85979 0.0
C620 C 0.49217 0.58419 0.83259 0.0
C621 C 0.50644 0.57575 0.78953 0.0
C622 C 0.55296 0.56945 0.78254 0.0
C623 C 0.58488 0.57274 0.81755 0.0
H624 H 0.07185 0.98101 0.35587 0.0
H625 H 0.07779 0.89303 0.33966 0.0
H626 H 0.01773 0.98399 0.29216 0.0
H627 H 0.02402 0.89588 0.27646 0.0
H628 H 0.96354 0.91292 0.13948 0.0
H629 H 0.02294 0.91606 0.19715 0.0
H630 H 0.93418 0.96645 0.27901 0.0
H631 H 0.8739 0.9629 0.22141 0.0
C632 C 0.06196 0.96242 0.33827 0.0
C633 C 0.0787 0.93677 0.35249 0.0
C634 C 0.03089 0.96409 0.30223 0.0
C635 C 0.01692 0.94016 0.27953 0.0
C636 C 0.03461 0.91465 0.29318 0.0
C637 C 0.06501 0.91297 0.32945 0.0
C638 C 0.95645 0.92456 0.1698 0.0
C639 C 0.9136 0.93716 0.17635 0.0
C640 C -0.00938 0.92651 0.20262 0.0
C641 C 0.98285 0.94126 0.24256 0.0
C642 C 0.941 0.95508 0.24829 0.0
C643 C 0.90656 0.953 0.21543 0.0
H644 H 0.09758 0.13616 0.81685 0.0
H645 H 0.07024 0.05399 0.86333 0.0
H646 H 0.03456 0.13273 0.76285 0.0
H647 H 0.00554 0.0506 0.81013 0.0
H648 H 0.91452 0.05181 0.67785 0.0
H649 H 0.97966 0.04946 0.73076 0.0
H650 H 0.95314 0.13331 0.77116 0.0
H651 H 0.88971 0.13563 0.71752 0.0
C652 C 0.07811 0.11726 0.81502 0.0
C653 C 0.08835 0.09543 0.84412 0.0
C654 C 0.04177 0.11532 0.78454 0.0
C655 C 0.01422 0.09165 0.78304 0.0
C656 C 0.02607 0.06912 0.81049 0.0
C657 C 0.06306 0.07098 0.84077 0.0
C658 C 0.9224 0.06943 0.69882 0.0
C659 C 0.89768 0.09399 0.69364 0.0
C660 C 0.95964 0.06817 0.72892 0.0
C661 C 0.97228 0.09143 0.75434 0.0
C662 C 0.94534 0.11532 0.75101 0.0
C663 C 0.90877 0.11663 0.72073 0.0
loop_
_geom_bond_atom_site_label_1
_geom_bond_atom_site_label_2
_geom_bond_distance
_geom_bond_site_symmetry_2
_ccdc_geom_bond_type
Co0 N4 2.148 . S
Co0 N10 2.128 . S
Co0 N20 2.194 . S
Co0 O25 2.351 . S
Co0 O26 2.155 . S
Co0 O27 2.096 . S
C1 N4 1.301 1_556 S
C1 N5 1.328 . S
C1 H6 0.930 . S
C2 C3 1.333 1_554 S
C2 N4 1.317 . S
C2 H7 0.930 . S
C3 C2 1.333 1_556 S
C3 N5 1.350 . S
C3 H29 0.931 . S
N4 Co0 2.148 . S
N4 C1 1.301 1_554 S
N4 C2 1.317 . S
N5 C1 1.328 . S
N5 C3 1.350 . S
H6 C1 0.930 . S
H7 C2 0.930 . S
C8 O9 1.224 . S
C8 O27 1.247 . S
O9 C8 1.224 . S
N10 Co0 2.128 . S
N10 C11 1.355 . S
N10 C13 1.311 . S
C11 N10 1.355 . S
C11 C12 1.363 . S
C11 H23 0.929 . S
C12 C11 1.363 . S
C12 N14 1.375 . S
C12 H30 0.931 . S
C13 N10 1.311 . S
C13 N14 1.347 . S
C13 H24 0.929 . S
N14 C12 1.375 . S
N14 C13 1.347 . S
C15 C18 1.365 . S
C15 N20 1.328 . S
C15 H21 0.929 1_554 S
C16 C17 1.362 . S
C16 C19 1.378 . S
C16 H31 0.929 . S
C17 C16 1.362 . S
C17 C18 1.366 . S
C18 C15 1.365 . S
C18 C17 1.366 . S
C18 H32 0.930 1_554 S
C19 C16 1.378 . S
C19 N20 1.315 . S
C19 H22 0.930 . S
N20 Co0 2.194 . S
N20 C15 1.328 . S
N20 C19 1.315 . S
H21 C15 0.929 1_556 S
H22 C19 0.930 . S
H23 C11 0.929 . S
H24 C13 0.929 . S
O25 Co0 2.351 . S
O25 C28 1.244 . S
O26 Co0 2.155 . S
O26 C28 1.240 . S
O27 Co0 2.096 . S
O27 C8 1.247 . S
C28 O25 1.244 . S
C28 O26 1.240 . S
H29 C3 0.931 . S
H30 C12 0.931 . S
H31 C16 0.929 . S
H32 C18 0.930 1_556 S
Co33 N37 2.148 . S
Co33 N43 2.128 . S
Co33 N53 2.194 . S
Co33 O58 2.351 . S
Co33 O59 2.155 . S
Co33 O60 2.096 . S
C34 N37 1.301 . S
C34 N38 1.328 . S
C34 H39 0.930 . S
C35 C36 1.333 . S
C35 N37 1.317 . S
C35 H40 0.930 . S
C36 C35 1.333 . S
C36 N38 1.350 . S
C36 H62 0.931 . S
N37 Co33 2.148 . S
N37 C34 1.301 . S
N37 C35 1.317 . S
N38 C34 1.328 . S
N38 C36 1.350 . S
H39 C34 0.930 . S
H40 C35 0.930 . S
C41 O42 1.224 . S
C41 O60 1.247 . S
O42 C41 1.224 . S
N43 Co33 2.128 . S
N43 C44 1.355 . S
N43 C46 1.311 . S
C44 N43 1.355 . S
C44 C45 1.363 . S
C44 H56 0.929 . S
C45 C44 1.363 . S
C45 N47 1.375 . S
C45 H63 0.931 . S
C46 N43 1.311 . S
C46 N47 1.347 . S
C46 H57 0.929 . S
N47 C45 1.375 . S
N47 C46 1.347 . S
C48 C51 1.365 . S
C48 N53 1.328 . S
C48 H54 0.929 . S
C49 C50 1.362 . S
C49 C52 1.378 . S
C49 H64 0.929 . S
C50 C49 1.362 . S
C50 C51 1.366 . S
C51 C48 1.365 . S
C51 C50 1.366 . S
C51 H65 0.930 . S
C52 C49 1.378 . S
C52 N53 1.315 . S
C52 H55 0.930 . S
N53 Co33 2.194 . S
N53 C48 1.328 . S
N53 C52 1.315 . S
H54 C48 0.929 . S
H55 C52 0.930 . S
H56 C44 0.929 . S
H57 C46 0.929 . S
O58 Co33 2.351 . S
O58 C61 1.244 . S
O59 Co33 2.155 . S
O59 C61 1.240 . S
O60 Co33 2.096 . S
O60 C41 1.247 . S
C61 O58 1.244 . S
C61 O59 1.240 . S
H62 C36 0.931 . S
H63 C45 0.931 . S
H64 C49 0.929 . S
H65 C51 0.930 . S
Co66 N70 2.148 . S
Co66 N76 2.128 . S
Co66 N86 2.194 . S
Co66 O91 2.351 . S
Co66 O92 2.155 . S
Co66 O93 2.096 . S
C67 N70 1.301 1_554 S
C67 N71 1.328 . S
C67 H72 0.930 . S
C68 C69 1.333 1_556 S
C68 N70 1.317 . S
C68 H73 0.930 . S
C69 C68 1.333 1_554 S
C69 N71 1.350 . S
C69 H95 0.931 . S
N70 Co66 2.148 . S
N70 C67 1.301 1_556 S
N70 C68 1.317 . S
N71 C67 1.328 . S
N71 C69 1.350 . S
H72 C67 0.930 . S
H73 C68 0.930 . S
C74 O75 1.224 . S
C74 O93 1.247 . S
O75 C74 1.224 . S
N76 Co66 2.128 . S
N76 C77 1.355 . S
N76 C79 1.311 . S
C77 N76 1.355 . S
C77 C78 1.363 . S
C77 H89 0.929 . S
C78 C77 1.363 . S
C78 N80 1.375 . S
C78 H96 0.931 . S
C79 N76 1.311 . S
C79 N80 1.347 . S
C79 H90 0.929 . S
N80 C78 1.375 . S
N80 C79 1.347 . S
C81 C84 1.365 . S
C81 N86 1.328 . S
C81 H87 0.929 1_556 S
C82 C83 1.362 . S
C82 C85 1.378 . S
C82 H97 0.929 . S
C83 C82 1.362 . S
C83 C84 1.366 . S
C84 C81 1.365 . S
C84 C83 1.366 . S
C84 H98 0.930 1_556 S
C85 C82 1.378 . S
C85 N86 1.315 . S
C85 H88 0.930 . S
N86 Co66 2.194 . S
N86 C81 1.328 . S
N86 C85 1.315 . S
H87 C81 0.929 1_554 S
H88 C85 0.930 . S
H89 C77 0.929 . S
H90 C79 0.929 . S
O91 Co66 2.351 . S
O91 C94 1.244 . S
O92 Co66 2.155 . S
O92 C94 1.240 . S
O93 Co66 2.096 . S
O93 C74 1.247 . S
C94 O91 1.244 . S
C94 O92 1.240 . S
H95 C69 0.931 . S
H96 C78 0.931 . S
H97 C82 0.929 . S
H98 C84 0.930 1_554 S
Co99 N103 2.148 . S
Co99 N109 2.128 . S
Co99 N119 2.194 . S
Co99 O124 2.351 . S
Co99 O125 2.155 . S
Co99 O126 2.096 . S
C100 N103 1.301 . S
C100 N104 1.328 . S
C100 H105 0.930 . S
C101 C102 1.333 . S
C101 N103 1.317 . S
C101 H106 0.930 . S
C102 C101 1.333 . S
C102 N104 1.350 . S
C102 H128 0.931 . S
N103 Co99 2.148 . S
N103 C100 1.301 . S
N103 C101 1.317 . S
N104 C100 1.328 . S
N104 C102 1.350 . S
H105 C100 0.930 . S
H106 C101 0.930 . S
C107 O108 1.224 . S
C107 O126 1.247 . S
O108 C107 1.224 . S
N109 Co99 2.128 . S
N109 C110 1.355 . S
N109 C112 1.311 . S
C110 N109 1.355 . S
C110 C111 1.363 . S
C110 H122 0.929 . S
C111 C110 1.363 . S
C111 N113 1.375 . S
C111 H129 0.931 . S
C112 N109 1.311 . S
C112 N113 1.347 . S
C112 H123 0.929 . S
N113 C111 1.375 . S
N113 C112 1.347 . S
C114 C117 1.365 . S
C114 N119 1.328 . S
C114 H120 0.929 . S
C115 C116 1.362 . S
C115 C118 1.378 . S
C115 H130 0.929 . S
C116 C115 1.362 . S
C116 C117 1.366 . S
C117 C114 1.365 . S
C117 C116 1.366 . S
C117 H131 0.930 . S
C118 C115 1.378 . S
C118 N119 1.315 . S
C118 H121 0.930 . S
N119 Co99 2.194 . S
N119 C114 1.328 . S
N119 C118 1.315 . S
H120 C114 0.929 . S
H121 C118 0.930 . S
H122 C110 0.929 . S
H123 C112 0.929 . S
O124 Co99 2.351 . S
O124 C127 1.244 . S
O125 Co99 2.155 . S
O125 C127 1.240 . S
O126 Co99 2.096 . S
O126 C107 1.247 . S
C127 O124 1.244 . S
C127 O125 1.240 . S
H128 C102 0.931 . S
H129 C111 0.931 . S
H130 C115 0.929 . S
H131 C117 0.930 . S
Co132 N136 2.148 . S
Co132 N142 2.128 . S
Co132 N152 2.194 . S
Co132 O157 2.351 . S
Co132 O158 2.155 . S
Co132 O159 2.096 . S
C133 N136 1.301 1_556 S
C133 N137 1.328 . S
C133 H138 0.930 . S
C134 C135 1.333 1_554 S
C134 N136 1.317 . S
C134 H139 0.930 . S
C135 C134 1.333 1_556 S
C135 N137 1.350 . S
C135 H161 0.931 . S
N136 Co132 2.148 . S
N136 C133 1.301 1_554 S
N136 C134 1.317 . S
N137 C133 1.328 . S
N137 C135 1.350 . S
H138 C133 0.930 . S
H139 C134 0.930 . S
C140 O141 1.224 . S
C140 O159 1.247 . S
O141 C140 1.224 . S
N142 Co132 2.128 . S
N142 C143 1.355 . S
N142 C145 1.311 . S
C143 N142 1.355 . S
C143 C144 1.363 . S
C143 H155 0.929 . S
C144 C143 1.363 . S
C144 N146 1.375 . S
C144 H162 0.931 . S
C145 N142 1.311 . S
C145 N146 1.347 . S
C145 H156 0.929 . S
N146 C144 1.375 . S
N146 C145 1.347 . S
C147 C150 1.365 . S
C147 N152 1.328 . S
C147 H153 0.929 1_554 S
C148 C149 1.362 . S
C148 C151 1.378 . S
C148 H163 0.929 . S
C149 C148 1.362 . S
C149 C150 1.366 . S
C150 C147 1.365 . S
C150 C149 1.366 . S
C150 H164 0.930 1_554 S
C151 C148 1.378 . S
C151 N152 1.315 . S
C151 H154 0.930 . S
N152 Co132 2.194 . S
N152 C147 1.328 . S
N152 C151 1.315 . S
H153 C147 0.929 1_556 S
H154 C151 0.930 . S
H155 C143 0.929 . S
H156 C145 0.929 . S
O157 Co132 2.351 . S
O157 C160 1.244 . S
O158 Co132 2.155 . S
O158 C160 1.240 . S
O159 Co132 2.096 . S
O159 C140 1.247 . S
C160 O157 1.244 . S
C160 O158 1.240 . S
H161 C135 0.931 . S
H162 C144 0.931 . S
H163 C148 0.929 . S
H164 C150 0.930 1_556 S
Co165 N169 2.148 . S
Co165 N175 2.128 . S
Co165 N185 2.194 . S
Co165 O190 2.351 . S
Co165 O191 2.155 . S
Co165 O192 2.096 . S
C166 N169 1.301 . S
C166 N170 1.328 . S
C166 H171 0.930 . S
C167 C168 1.333 . S
C167 N169 1.317 . S
C167 H172 0.930 . S
C168 C167 1.333 . S
C168 N170 1.350 . S
C168 H194 0.931 . S
N169 Co165 2.148 . S
N169 C166 1.301 . S
N169 C167 1.317 . S
N170 C166 1.328 . S
N170 C168 1.350 . S
H171 C166 0.930 . S
H172 C167 0.930 . S
C173 O174 1.224 . S
C173 O192 1.247 . S
O174 C173 1.224 . S
N175 Co165 2.128 . S
N175 C176 1.355 . S
N175 C178 1.311 . S
C176 N175 1.355 . S
C176 C177 1.363 . S
C176 H188 0.929 . S
C177 C176 1.363 . S
C177 N179 1.375 . S
C177 H195 0.931 . S
C178 N175 1.311 . S
C178 N179 1.347 . S
C178 H189 0.929 . S
N179 C177 1.375 . S
N179 C178 1.347 . S
C180 C183 1.365 . S
C180 N185 1.328 . S
C180 H186 0.929 . S
C181 C182 1.362 . S
C181 C184 1.378 . S
C181 H196 0.929 . S
C182 C181 1.362 . S
C182 C183 1.366 . S
C183 C180 1.365 . S
C183 C182 1.366 . S
C183 H197 0.930 . S
C184 C181 1.378 . S
C184 N185 1.315 . S
C184 H187 0.930 . S
N185 Co165 2.194 . S
N185 C180 1.328 . S
N185 C184 1.315 . S
H186 C180 0.929 . S
H187 C184 0.930 . S
H188 C176 0.929 . S
H189 C178 0.929 . S
O190 Co165 2.351 . S
O190 C193 1.244 . S
O191 Co165 2.155 . S
O191 C193 1.240 . S
O192 Co165 2.096 . S
O192 C173 1.247 . S
C193 O190 1.244 . S
C193 O191 1.240 . S
H194 C168 0.931 . S
H195 C177 0.931 . S
H196 C181 0.929 . S
H197 C183 0.930 . S
Co198 N202 2.148 . S
Co198 N208 2.128 . S
Co198 N218 2.194 . S
Co198 O223 2.351 . S
Co198 O224 2.155 . S
Co198 O225 2.096 . S
C199 N202 1.301 1_554 S
C199 N203 1.328 . S
C199 H204 0.930 . S
C200 C201 1.333 1_556 S
C200 N202 1.317 . S
C200 H205 0.930 . S
C201 C200 1.333 1_554 S
C201 N203 1.350 . S
C201 H227 0.931 . S
N202 Co198 2.148 . S
N202 C199 1.301 1_556 S
N202 C200 1.317 . S
N203 C199 1.328 . S
N203 C201 1.350 . S
H204 C199 0.930 . S
H205 C200 0.930 . S
C206 O207 1.224 . S
C206 O225 1.247 . S
O207 C206 1.224 . S
N208 Co198 2.128 . S
N208 C209 1.355 . S
N208 C211 1.311 . S
C209 N208 1.355 . S
C209 C210 1.363 . S
C209 H221 0.929 . S
C210 C209 1.363 . S
C210 N212 1.375 . S
C210 H228 0.931 . S
C211 N208 1.311 . S
C211 N212 1.347 . S
C211 H222 0.929 . S
N212 C210 1.375 . S
N212 C211 1.347 . S
C213 C216 1.365 . S
C213 N218 1.328 . S
C213 H219 0.929 1_556 S
C214 C215 1.362 . S
C214 C217 1.378 . S
C214 H229 0.929 . S
C215 C214 1.362 . S
C215 C216 1.366 . S
C216 C213 1.365 . S
C216 C215 1.366 . S
C216 H230 0.930 1_556 S
C217 C214 1.378 . S
C217 N218 1.315 . S
C217 H220 0.930 . S
N218 Co198 2.194 . S
N218 C213 1.328 . S
N218 C217 1.315 . S
H219 C213 0.929 1_554 S
H220 C217 0.930 . S
H221 C209 0.929 . S
H222 C211 0.929 . S
O223 Co198 2.351 . S
O223 C226 1.244 . S
O224 Co198 2.155 . S
O224 C226 1.240 . S
O225 Co198 2.096 . S
O225 C206 1.247 . S
C226 O223 1.244 . S
C226 O224 1.240 . S
H227 C201 0.931 . S
H228 C210 0.931 . S
H229 C214 0.929 . S
H230 C216 0.930 1_554 S
Co231 N235 2.148 . S
Co231 N241 2.128 . S
Co231 N251 2.194 . S
Co231 O256 2.351 . S
Co231 O257 2.155 . S
Co231 O258 2.096 . S
C232 N235 1.301 . S
C232 N236 1.328 . S
C232 H237 0.930 . S
C233 C234 1.333 . S
C233 N235 1.317 . S
C233 H238 0.930 . S
C234 C233 1.333 . S
C234 N236 1.350 . S
C234 H260 0.931 . S
N235 Co231 2.148 . S
N235 C232 1.301 . S
N235 C233 1.317 . S
N236 C232 1.328 . S
N236 C234 1.350 . S
H237 C232 0.930 . S
H238 C233 0.930 . S
C239 O240 1.224 . S
C239 O258 1.247 . S
O240 C239 1.224 . S
N241 Co231 2.128 . S
N241 C242 1.355 . S
N241 C244 1.311 . S
C242 N241 1.355 . S
C242 C243 1.363 . S
C242 H254 0.929 . S
C243 C242 1.363 . S
C243 N245 1.375 . S
C243 H261 0.931 . S
C244 N241 1.311 . S
C244 N245 1.347 . S
C244 H255 0.929 . S
N245 C243 1.375 . S
N245 C244 1.347 . S
C246 C249 1.365 . S
C246 N251 1.328 . S
C246 H252 0.929 . S
C247 C248 1.362 . S
C247 C250 1.378 . S
C247 H262 0.929 . S
C248 C247 1.362 . S
C248 C249 1.366 . S
C249 C246 1.365 . S
C249 C248 1.366 . S
C249 H263 0.930 . S
C250 C247 1.378 . S
C250 N251 1.315 . S
C250 H253 0.930 . S
N251 Co231 2.194 . S
N251 C246 1.328 . S
N251 C250 1.315 . S
H252 C246 0.929 . S
H253 C250 0.930 . S
H254 C242 0.929 . S
H255 C244 0.929 . S
O256 Co231 2.351 . S
O256 C259 1.244 . S
O257 Co231 2.155 . S
O257 C259 1.240 . S
O258 Co231 2.096 . S
O258 C239 1.247 . S
C259 O256 1.244 . S
C259 O257 1.240 . S
H260 C234 0.931 . S
H261 C243 0.931 . S
H262 C247 0.929 . S
H263 C249 0.930 . S
H264 C272 0.950 . S
H265 C277 0.950 . S
H266 C274 0.950 . S
H267 C276 0.950 . S
H268 C278 0.950 . S
H269 C280 0.950 . S
H270 C282 0.950 . S
H271 C283 0.950 . S
C272 H264 0.950 . S
C272 C273 1.386 . S
C272 C274 1.391 . S
C273 C272 1.386 . S
C273 C277 1.393 . S
C274 H266 0.950 . S
C274 C272 1.391 . S
C274 C275 1.400 . S
C275 C274 1.400 . S
C275 C276 1.398 . S
C275 C281 1.491 . S
C276 H267 0.950 . S
C276 C275 1.398 . S
C276 C277 1.391 . S
C277 H265 0.950 . S
C277 C273 1.393 . S
C277 C276 1.391 . S
C278 H268 0.950 . S
C278 C279 1.386 . S
C278 C280 1.391 . S
C279 C278 1.386 . S
C279 C283 1.393 . S
C280 H269 0.950 . S
C280 C278 1.391 . S
C280 C281 1.400 . S
C281 C275 1.491 . S
C281 C280 1.400 . S
C281 C282 1.398 . S
C282 H270 0.950 . S
C282 C281 1.398 . S
C282 C283 1.391 . S
C283 H271 0.950 . S
C283 C279 1.393 . S
C283 C282 1.391 . S
H284 C292 0.950 . S
H285 C297 0.950 . S
H286 C294 0.950 . S
H287 C296 0.950 . S
H288 C298 0.950 . S
H289 C300 0.950 . S
H290 C302 0.950 . S
H291 C303 0.950 . S
C292 H284 0.950 . S
C292 C293 1.386 . S
C292 C294 1.391 . S
C293 C292 1.386 . S
C293 C297 1.393 . S
C294 H286 0.950 . S
C294 C292 1.391 . S
C294 C295 1.400 . S
C295 C294 1.400 . S
C295 C296 1.398 . S
C295 C301 1.491 . S
C296 H287 0.950 . S
C296 C295 1.398 . S
C296 C297 1.391 . S
C297 H285 0.950 . S
C297 C293 1.393 . S
C297 C296 1.391 . S
C298 H288 0.950 . S
C298 C299 1.386 . S
C298 C300 1.391 . S
C299 C298 1.386 . S
C299 C303 1.393 . S
C300 H289 0.950 . S
C300 C298 1.391 . S
C300 C301 1.400 . S
C301 C295 1.491 . S
C301 C300 1.400 . S
C301 C302 1.398 . S
C302 H290 0.950 . S
C302 C301 1.398 . S
C302 C303 1.391 . S
C303 H291 0.950 . S
C303 C299 1.393 . S
C303 C302 1.391 . S
H304 C312 0.950 . S
H305 C317 0.950 . S
H306 C314 0.950 . S
H307 C316 0.950 . S
H308 C318 0.950 . S
H309 C320 0.950 . S
H310 C322 0.950 . S
H311 C323 0.950 . S
C312 H304 0.950 . S
C312 C313 1.386 . S
C312 C314 1.391 . S
C313 C312 1.386 . S
C313 C317 1.393 . S
C314 H306 0.950 . S
C314 C312 1.391 . S
C314 C315 1.400 . S
C315 C314 1.400 . S
C315 C316 1.398 . S
C315 C321 1.491 . S
C316 H307 0.950 . S
C316 C315 1.398 . S
C316 C317 1.391 . S
C317 H305 0.950 . S
C317 C313 1.393 . S
C317 C316 1.391 . S
C318 H308 0.950 . S
C318 C319 1.386 . S
C318 C320 1.391 . S
C319 C318 1.386 . S
C319 C323 1.393 . S
C320 H309 0.950 . S
C320 C318 1.391 . S
C320 C321 1.400 . S
C321 C315 1.491 . S
C321 C320 1.400 . S
C321 C322 1.398 . S
C322 H310 0.950 . S
C322 C321 1.398 . S
C322 C323 1.391 . S
C323 H311 0.950 . S
C323 C319 1.393 . S
C323 C322 1.391 . S
H324 C332 0.950 . S
H325 C337 0.950 . S
H326 C334 0.950 . S
H327 C336 0.950 . S
H328 C338 0.950 . S
H329 C340 0.950 . S
H330 C342 0.950 . S
H331 C343 0.950 . S
C332 H324 0.950 . S
C332 C333 1.386 . S
C332 C334 1.391 . S
C333 C332 1.386 . S
C333 C337 1.393 . S
C334 H326 0.950 . S
C334 C332 1.391 . S
C334 C335 1.400 . S
C335 C334 1.400 . S
C335 C336 1.398 . S
C335 C341 1.491 . S
C336 H327 0.950 . S
C336 C335 1.398 . S
C336 C337 1.391 . S
C337 H325 0.950 . S
C337 C333 1.393 . S
C337 C336 1.391 . S
C338 H328 0.950 . S
C338 C339 1.386 . S
C338 C340 1.391 . S
C339 C338 1.386 . S
C339 C343 1.393 . S
C340 H329 0.950 . S
C340 C338 1.391 . S
C340 C341 1.400 . S
C341 C335 1.491 . S
C341 C340 1.400 . S
C341 C342 1.398 . S
C342 H330 0.950 . S
C342 C341 1.398 . S
C342 C343 1.391 . S
C343 H331 0.950 . S
C343 C339 1.393 . S
C343 C342 1.391 . S
H344 C352 0.950 . S
H345 C357 0.950 . S
H346 C354 0.950 . S
H347 C356 0.950 . S
H348 C358 0.950 . S
H349 C360 0.950 . S
H350 C362 0.950 . S
H351 C363 0.957 . S
C352 H344 0.950 . S
C352 C353 1.386 . S
C352 C354 1.391 . S
C353 C352 1.386 . S
C353 C357 1.393 1_565 S
C354 H346 0.950 . S
C354 C352 1.391 . S
C354 C355 1.400 . S
C355 C354 1.400 . S
C355 C356 1.398 1_565 S
C355 C361 1.491 1_565 S
C356 H347 0.950 . S
C356 C355 1.398 1_545 S
C356 C357 1.391 . S
C357 H345 0.950 . S
C357 C353 1.393 1_545 S
C357 C356 1.391 . S
C358 H348 0.950 . S
C358 C359 1.386 . S
C358 C360 1.391 . S
C359 C358 1.386 . S
C359 C363 1.382 1_545 S
C360 H349 0.950 . S
C360 C358 1.391 . S
C360 C361 1.400 . S
C361 C355 1.491 1_545 S
C361 C360 1.400 . S
C361 C362 1.398 1_545 S
C362 H350 0.950 . S
C362 C361 1.398 1_565 S
C362 C363 1.394 . S
C363 H351 0.957 . S
C363 C359 1.382 1_565 S
C363 C362 1.394 . S
H364 C372 0.950 . S
H365 C377 0.950 1_565 S
H366 C374 0.950 . S
H367 C376 0.950 . S
H368 C378 0.950 . S
H369 C380 0.950 . S
H370 C382 0.950 . S
H371 C383 0.964 . S
C372 H364 0.950 . S
C372 C373 1.386 . S
C372 C374 1.391 . S
C373 C372 1.386 . S
C373 C377 1.393 . S
C374 H366 0.950 . S
C374 C372 1.391 . S
C374 C375 1.400 . S
C375 C374 1.400 . S
C375 C376 1.398 1_545 S
C375 C381 1.491 1_545 S
C376 H367 0.950 . S
C376 C375 1.398 1_565 S
C376 C377 1.391 1_565 S
C377 H365 0.950 1_545 S
C377 C373 1.393 . S
C377 C376 1.391 1_545 S
C378 H368 0.950 . S
C378 C379 1.386 . S
C378 C380 1.391 . S
C379 C378 1.386 . S
C379 C383 1.369 1_565 S
C380 H369 0.950 . S
C380 C378 1.391 . S
C380 C381 1.400 . S
C381 C375 1.491 1_565 S
C381 C380 1.400 . S
C381 C382 1.398 1_565 S
C382 H370 0.950 . S
C382 C381 1.398 1_545 S
C382 C383 1.401 . S
C383 H371 0.964 . S
C383 C379 1.369 1_545 S
C383 C382 1.401 . S
H384 C392 0.950 . S
H385 C397 0.950 . S
H386 C394 0.950 . S
H387 C396 0.950 . S
H388 C398 0.950 1_545 S
H389 C400 0.950 . S
H390 C402 0.950 . S
H391 C403 0.950 . S
C392 H384 0.950 . S
C392 C393 1.386 1_565 S
C392 C394 1.391 . S
C393 C392 1.386 1_545 S
C393 C397 1.393 . S
C394 H386 0.950 . S
C394 C392 1.391 . S
C394 C395 1.400 1_565 S
C395 C394 1.400 1_545 S
C395 C396 1.398 . S
C395 C401 1.491 1_545 S
C396 H387 0.950 . S
C396 C395 1.398 . S
C396 C397 1.391 . S
C397 H385 0.950 . S
C397 C393 1.393 . S
C397 C396 1.391 . S
C398 H388 0.950 1_565 S
C398 C399 1.386 . S
C398 C400 1.391 1_565 S
C399 C398 1.386 . S
C399 C403 1.393 . S
C400 H389 0.950 . S
C400 C398 1.391 1_545 S
C400 C401 1.400 1_545 S
C401 C395 1.491 1_565 S
C401 C400 1.400 1_565 S
C401 C402 1.398 . S
C402 H390 0.950 . S
C402 C401 1.398 . S
C402 C403 1.391 . S
C403 H391 0.950 . S
C403 C399 1.393 . S
C403 C402 1.391 . S
H404 C412 0.940 1_565 S
H405 C417 0.950 . S
H406 C414 0.950 . S
H407 C416 0.950 . S
H408 C418 0.950 1_545 S
H409 C420 0.950 . S
H410 C422 0.950 . S
H411 C423 0.950 . S
C412 H404 0.940 1_545 S
C412 C413 1.403 . S
C412 C414 1.384 1_545 S
C413 C412 1.403 . S
C413 C417 1.393 . S
C414 H406 0.950 . S
C414 C412 1.384 1_565 S
C414 C415 1.400 1_565 S
C415 C414 1.400 1_545 S
C415 C416 1.398 . S
C415 C421 1.491 1_545 S
C416 H407 0.950 . S
C416 C415 1.398 . S
C416 C417 1.391 . S
C417 H405 0.950 . S
C417 C413 1.393 . S
C417 C416 1.391 . S
C418 H408 0.950 1_565 S
C418 C419 1.386 . S
C418 C420 1.391 1_565 S
C419 C418 1.386 . S
C419 C423 1.393 . S
C420 H409 0.950 . S
C420 C418 1.391 1_545 S
C420 C421 1.400 1_545 S
C421 C415 1.491 1_565 S
C421 C420 1.400 1_565 S
C421 C422 1.398 . S
C422 H410 0.950 . S
C422 C421 1.398 . S
C422 C423 1.391 . S
C423 H411 0.950 . S
C423 C419 1.393 . S
C423 C422 1.391 . S
H424 C432 0.950 . S
H425 C437 0.950 . S
H426 C434 0.950 . S
H427 C436 0.950 . S
H428 C438 0.950 . S
H429 C440 0.950 . S
H430 C442 0.950 . S
H431 C443 0.950 . S
C432 H424 0.950 . S
C432 C433 1.386 . S
C432 C434 1.391 . S
C433 C432 1.386 . S
C433 C437 1.393 1_554 S
C434 H426 0.950 . S
C434 C432 1.391 . S
C434 C435 1.422 . S
C435 C434 1.422 . S
C435 C436 1.378 1_554 S
C435 C441 1.489 1_554 S
C436 H427 0.950 . S
C436 C435 1.378 1_556 S
C436 C437 1.391 . S
C437 H425 0.950 . S
C437 C433 1.393 1_556 S
C437 C436 1.391 . S
C438 H428 0.950 . S
C438 C439 1.386 . S
C438 C440 1.391 . S
C439 C438 1.386 . S
C439 C443 1.393 1_556 S
C440 H429 0.950 . S
C440 C438 1.391 . S
C440 C441 1.422 . S
C441 C435 1.489 1_556 S
C441 C440 1.422 . S
C441 C442 1.378 1_556 S
C442 H430 0.950 . S
C442 C441 1.378 1_554 S
C442 C443 1.391 . S
C443 H431 0.950 . S
C443 C439 1.393 1_554 S
C443 C442 1.391 . S
H444 C452 0.950 . S
H445 C457 0.950 . S
H446 C454 0.950 . S
H447 C456 0.950 . S
H448 C458 0.950 . S
H449 C460 0.950 . S
H450 C462 0.950 . S
H451 C463 0.950 . S
C452 H444 0.950 . S
C452 C453 1.386 . S
C452 C454 1.391 . S
C453 C452 1.386 . S
C453 C457 1.393 . S
C454 H446 0.950 . S
C454 C452 1.391 . S
C454 C455 1.400 . S
C455 C454 1.400 . S
C455 C456 1.398 . S
C455 C461 1.491 . S
C456 H447 0.950 . S
C456 C455 1.398 . S
C456 C457 1.391 . S
C457 H445 0.950 . S
C457 C453 1.393 . S
C457 C456 1.391 . S
C458 H448 0.950 . S
C458 C459 1.386 . S
C458 C460 1.391 . S
C459 C458 1.386 . S
C459 C463 1.393 . S
C460 H449 0.950 . S
C460 C458 1.391 . S
C460 C461 1.400 . S
C461 C455 1.491 . S
C461 C460 1.400 . S
C461 C462 1.398 . S
C462 H450 0.950 . S
C462 C461 1.398 . S
C462 C463 1.391 . S
C463 H451 0.950 . S
C463 C459 1.393 . S
C463 C462 1.391 . S
H464 C472 0.948 1_554 S
H465 C477 0.950 1_565 S
H466 C474 0.950 1_655 S
H467 C476 0.950 . S
H468 C478 0.948 1_556 S
H469 C480 0.950 1_455 S
H470 C482 0.950 . S
H471 C483 0.950 1_545 S
C472 H464 0.948 1_556 S
C472 C473 1.388 . S
C472 C474 1.390 1_556 S
C473 C472 1.388 . S
C473 C477 1.393 . S
C474 H466 0.950 1_455 S
C474 C472 1.390 1_554 S
C474 C475 1.400 1_554 S
C475 C474 1.400 1_556 S
C475 C476 1.398 1_545 S
C475 C481 1.491 1_446 S
C476 H467 0.950 . S
C476 C475 1.398 1_565 S
C476 C477 1.391 1_565 S
C477 H465 0.950 1_545 S
C477 C473 1.393 . S
C477 C476 1.391 1_545 S
C478 H468 0.948 1_554 S
C478 C479 1.388 . S
C478 C480 1.390 1_554 S
C479 C478 1.388 . S
C479 C483 1.393 . S
C480 H469 0.950 1_655 S
C480 C478 1.390 1_556 S
C480 C481 1.400 1_556 S
C481 C475 1.491 1_664 S
C481 C480 1.400 1_554 S
C481 C482 1.398 1_565 S
C482 H470 0.950 . S
C482 C481 1.398 1_545 S
C482 C483 1.391 1_545 S
C483 H471 0.950 1_565 S
C483 C479 1.393 . S
C483 C482 1.391 1_565 S
H484 C492 0.950 . S
H485 C497 0.950 . S
H486 C494 0.950 . S
H487 C496 0.950 1_565 S
H488 C498 0.950 . S
H489 C500 0.950 . S
H490 C502 0.950 1_545 S
H491 C503 0.950 . S
C492 H484 0.950 . S
C492 C493 1.386 . S
C492 C494 1.391 . S
C493 C492 1.386 . S
C493 C497 1.393 . S
C494 H486 0.950 . S
C494 C492 1.391 . S
C494 C495 1.400 . S
C495 C494 1.400 . S
C495 C496 1.398 . S
C495 C501 1.491 1_645 S
C496 H487 0.950 1_545 S
C496 C495 1.398 . S
C496 C497 1.391 . S
C497 H485 0.950 . S
C497 C493 1.393 . S
C497 C496 1.391 . S
C498 H488 0.950 . S
C498 C499 1.386 . S
C498 C500 1.391 . S
C499 C498 1.386 . S
C499 C503 1.393 . S
C500 H489 0.950 . S
C500 C498 1.391 . S
C500 C501 1.400 . S
C501 C495 1.491 1_465 S
C501 C500 1.400 . S
C501 C502 1.398 . S
C502 H490 0.950 1_565 S
C502 C501 1.398 . S
C502 C503 1.391 . S
C503 H491 0.950 . S
C503 C499 1.393 . S
C503 C502 1.391 . S
H504 C512 0.950 . S
H505 C517 0.950 . S
H506 C514 0.950 . S
H507 C516 0.950 . S
H508 C518 0.950 . S
H509 C520 0.950 . S
H510 C522 0.950 . S
H511 C523 0.950 . S
C512 H504 0.950 . S
C512 C513 1.386 . S
C512 C514 1.391 . S
C513 C512 1.386 . S
C513 C517 1.393 . S
C514 H506 0.950 . S
C514 C512 1.391 . S
C514 C515 1.400 . S
C515 C514 1.400 . S
C515 C516 1.398 . S
C515 C521 1.491 1_554 S
C516 H507 0.950 . S
C516 C515 1.398 . S
C516 C517 1.391 . S
C517 H505 0.950 . S
C517 C513 1.393 . S
C517 C516 1.391 . S
C518 H508 0.950 . S
C518 C519 1.386 . S
C518 C520 1.391 . S
C519 C518 1.386 . S
C519 C523 1.393 . S
C520 H509 0.950 . S
C520 C518 1.391 . S
C520 C521 1.400 . S
C521 C515 1.491 1_556 S
C521 C520 1.400 . S
C521 C522 1.398 . S
C522 H510 0.950 . S
C522 C521 1.398 . S
C522 C523 1.391 . S
C523 H511 0.950 . S
C523 C519 1.393 . S
C523 C522 1.391 . S
H524 C532 0.950 . S
H525 C537 0.950 . S
H526 C534 0.950 . S
H527 C536 0.950 . S
H528 C538 0.950 . S
H529 C540 0.950 . S
H530 C542 0.950 . S
H531 C543 0.950 . S
C532 H524 0.950 . S
C532 C533 1.386 . S
C532 C534 1.391 . S
C533 C532 1.386 . S
C533 C537 1.393 . S
C534 H526 0.950 . S
C534 C532 1.391 . S
C534 C535 1.400 . S
C535 C534 1.400 . S
C535 C536 1.398 . S
C535 C541 1.491 . S
C536 H527 0.950 . S
C536 C535 1.398 . S
C536 C537 1.391 . S
C537 H525 0.950 . S
C537 C533 1.393 . S
C537 C536 1.391 . S
C538 H528 0.950 . S
C538 C539 1.386 . S
C538 C540 1.391 . S
C539 C538 1.386 . S
C539 C543 1.393 . S
C540 H529 0.950 . S
C540 C538 1.391 . S
C540 C541 1.400 . S
C541 C535 1.491 . S
C541 C540 1.400 . S
C541 C542 1.398 . S
C542 H530 0.950 . S
C542 C541 1.398 . S
C542 C543 1.391 . S
C543 H531 0.950 . S
C543 C539 1.393 . S
C543 C542 1.391 . S
H544 C552 0.950 . S
H545 C557 0.950 . S
H546 C554 0.950 . S
H547 C556 0.950 . S
H548 C558 0.950 . S
H549 C560 0.950 . S
H550 C562 0.950 . S
H551 C563 0.950 . S
C552 H544 0.950 . S
C552 C553 1.386 . S
C552 C554 1.391 . S
C553 C552 1.386 . S
C553 C557 1.393 1_554 S
C554 H546 0.950 . S
C554 C552 1.391 . S
C554 C555 1.400 . S
C555 C554 1.400 . S
C555 C556 1.398 1_554 S
C555 C561 1.491 1_554 S
C556 H547 0.950 . S
C556 C555 1.398 1_556 S
C556 C557 1.391 . S
C557 H545 0.950 . S
C557 C553 1.393 1_556 S
C557 C556 1.391 . S
C558 H548 0.950 . S
C558 C559 1.386 . S
C558 C560 1.391 . S
C559 C558 1.386 . S
C559 C563 1.393 1_556 S
C560 H549 0.950 . S
C560 C558 1.391 . S
C560 C561 1.400 . S
C561 C555 1.491 1_556 S
C561 C560 1.400 . S
C561 C562 1.398 1_556 S
C562 H550 0.950 . S
C562 C561 1.398 1_554 S
C562 C563 1.391 . S
C563 H551 0.950 . S
C563 C559 1.393 1_554 S
C563 C562 1.391 . S
H564 C572 0.950 . S
H565 C577 0.950 . S
H566 C574 0.950 . S
H567 C576 0.950 . S
H568 C578 0.950 . S
H569 C580 0.950 . S
H570 C582 0.950 . S
H571 C583 0.950 . S
C572 H564 0.950 . S
C572 C573 1.386 . S
C572 C574 1.391 . S
C573 C572 1.386 . S
C573 C577 1.393 . S
C574 H566 0.950 . S
C574 C572 1.391 . S
C574 C575 1.400 . S
C575 C574 1.400 . S
C575 C576 1.398 . S
C575 C581 1.491 . S
C576 H567 0.950 . S
C576 C575 1.398 . S
C576 C577 1.391 . S
C577 H565 0.950 . S
C577 C573 1.393 . S
C577 C576 1.391 . S
C578 H568 0.950 . S
C578 C579 1.386 . S
C578 C580 1.391 . S
C579 C578 1.386 . S
C579 C583 1.393 . S
C580 H569 0.950 . S
C580 C578 1.391 . S
C580 C581 1.400 . S
C581 C575 1.491 . S
C581 C580 1.400 . S
C581 C582 1.398 . S
C582 H570 0.950 . S
C582 C581 1.398 . S
C582 C583 1.391 . S
C583 H571 0.950 . S
C583 C579 1.393 . S
C583 C582 1.391 . S
H584 C592 0.950 . S
H585 C597 0.950 . S
H586 C594 0.950 . S
H587 C596 0.950 . S
H588 C598 0.950 . S
H589 C600 0.950 . S
H590 C602 0.950 . S
H591 C603 0.950 . S
C592 H584 0.950 . S
C592 C593 1.386 . S
C592 C594 1.391 . S
C593 C592 1.386 . S
C593 C597 1.393 . S
C594 H586 0.950 . S
C594 C592 1.391 . S
C594 C595 1.400 . S
C595 C594 1.400 . S
C595 C596 1.398 . S
C595 C601 1.491 . S
C596 H587 0.950 . S
C596 C595 1.398 . S
C596 C597 1.391 . S
C597 H585 0.950 . S
C597 C593 1.393 . S
C597 C596 1.391 . S
C598 H588 0.950 . S
C598 C599 1.386 . S
C598 C600 1.391 . S
C599 C598 1.386 . S
C599 C603 1.393 . S
C600 H589 0.950 . S
C600 C598 1.391 . S
C600 C601 1.400 . S
C601 C595 1.491 . S
C601 C600 1.400 . S
C601 C602 1.398 . S
C602 H590 0.950 . S
C602 C601 1.398 . S
C602 C603 1.391 . S
C603 H591 0.950 . S
C603 C599 1.393 . S
C603 C602 1.391 . S
H604 C612 0.950 . S
H605 C617 0.950 . S
H606 C614 0.950 . S
H607 C616 0.950 . S
H608 C618 0.950 . S
H609 C620 0.950 . S
H610 C622 0.950 . S
H611 C623 0.950 . S
C612 H604 0.950 . S
C612 C613 1.386 . S
C612 C614 1.391 . S
C613 C612 1.386 . S
C613 C617 1.393 . S
C614 H606 0.950 . S
C614 C612 1.391 . S
C614 C615 1.400 . S
C615 C614 1.400 . S
C615 C616 1.398 . S
C615 C621 1.491 . S
C616 H607 0.950 . S
C616 C615 1.398 . S
C616 C617 1.391 . S
C617 H605 0.950 . S
C617 C613 1.393 . S
C617 C616 1.391 . S
C618 H608 0.950 . S
C618 C619 1.386 . S
C618 C620 1.391 . S
C619 C618 1.386 . S
C619 C623 1.393 . S
C620 H609 0.950 . S
C620 C618 1.391 . S
C620 C621 1.400 . S
C621 C615 1.491 . S
C621 C620 1.400 . S
C621 C622 1.398 . S
C622 H610 0.950 . S
C622 C621 1.398 . S
C622 C623 1.391 . S
C623 H611 0.950 . S
C623 C619 1.393 . S
C623 C622 1.391 . S
H624 C632 0.950 . S
H625 C637 0.950 . S
H626 C634 0.950 . S
H627 C636 0.950 . S
H628 C638 0.950 . S
H629 C640 0.950 . S
H630 C642 0.950 . S
H631 C643 0.950 . S
C632 H624 0.950 . S
C632 C633 1.386 . S
C632 C634 1.391 . S
C633 C632 1.386 . S
C633 C637 1.393 . S
C634 H626 0.950 . S
C634 C632 1.391 . S
C634 C635 1.400 . S
C635 C634 1.400 . S
C635 C636 1.398 . S
C635 C641 1.491 1_455 S
C636 H627 0.950 . S
C636 C635 1.398 . S
C636 C637 1.391 . S
C637 H625 0.950 . S
C637 C633 1.393 . S
C637 C636 1.391 . S
C638 H628 0.950 . S
C638 C639 1.386 . S
C638 C640 1.391 . S
C639 C638 1.386 . S
C639 C643 1.393 . S
C640 H629 0.950 . S
C640 C638 1.391 . S
C640 C641 1.400 . S
C641 C635 1.491 1_655 S
C641 C640 1.400 . S
C641 C642 1.398 . S
C642 H630 0.950 . S
C642 C641 1.398 . S
C642 C643 1.391 . S
C643 H631 0.950 . S
C643 C639 1.393 . S
C643 C642 1.391 . S
H644 C652 0.950 . S
H645 C657 0.950 . S
H646 C654 0.950 . S
H647 C656 0.950 . S
H648 C658 0.950 . S
H649 C660 0.950 . S
H650 C662 0.950 . S
H651 C663 0.950 . S
C652 H644 0.950 . S
C652 C653 1.386 . S
C652 C654 1.391 . S
C653 C652 1.386 . S
C653 C657 1.393 . S
C654 H646 0.950 . S
C654 C652 1.391 . S
C654 C655 1.400 . S
C655 C654 1.400 . S
C655 C656 1.398 . S
C655 C661 1.491 1_455 S
C656 H647 0.950 . S
C656 C655 1.398 . S
C656 C657 1.391 . S
C657 H645 0.950 . S
C657 C653 1.393 . S
C657 C656 1.391 . S
C658 H648 0.950 . S
C658 C659 1.386 . S
C658 C660 1.391 . S
C659 C658 1.386 . S
C659 C663 1.393 . S
C660 H649 0.950 . S
C660 C658 1.391 . S
C660 C661 1.400 . S
C661 C655 1.491 1_655 S
C661 C660 1.400 . S
C661 C662 1.398 . S
C662 H650 0.950 . S
C662 C661 1.398 . S
C662 C663 1.391 . S
C663 H651 0.950 . S
C663 C659 1.393 . S
C663 C662 1.391 . S
C273 C107 1.844 . S
C279 N5 1.863 . S
C293 N38 1.870 . S
C299 C74 1.837 . S
C313 C41 1.837 . S
C319 N71 1.870 . S
C333 C8 1.851 . S
C339 N104 1.858 . S
C353 N137 1.868 . S
C359 C239 1.838 . S
C373 C206 1.850 . S
C379 N170 1.860 . S
C393 N203 1.870 . S
C399 C173 1.836 . S
C413 N236 1.870 . S
C419 C140 1.837 . S
C433 C28 0.801 . S
C439 C94 0.801 . S
C453 C61 0.808 . S
C459 C127 0.808 . S
C473 C226 0.772 . S
C479 C160 0.772 . S
C493 C259 0.788 . S
C499 C193 0.788 . S
C513 C17 1.487 . S
C519 C215 1.487 . S
C533 C50 1.493 . S
C539 C248 1.493 . S
C553 C149 1.491 . S
C559 C83 1.491 . S
C573 C182 1.493 . S
C579 C116 1.493 . S
C593 N47 0.862 . S
C599 N14 0.863 . S
C613 N113 0.854 . S
C619 N80 0.851 . S
C633 N179 0.844 . S
C639 N146 0.848 . S
C653 N212 0.861 . S
C659 N245 0.862 . S
