# Generated by pormake.
# Topology ukn, (4)-cn, num edge types: 1
# Building blocks:
#     Node 0, Type 0, BuildingBlock: CEKHIL_clean_sbu_0, # of connection points: 4
#     Node 1, Type 0, BuildingBlock: CEKHIL_clean_sbu_0, # of connection points: 4
#     Node 2, Type 0, BuildingBlock: CEKHIL_clean_sbu_0, # of connection points: 4
#     Node 3, Type 0, BuildingBlock: CEKHIL_clean_sbu_0, # of connection points: 4
#     Node 4, Type 0, BuildingBlock: CEKHIL_clean_sbu_0, # of connection points: 4
#     Node 5, Type 0, BuildingBlock: CEKHIL_clean_sbu_0, # of connection points: 4
#     Node 6, Type 0, BuildingBlock: CEKHIL_clean_sbu_0, # of connection points: 4
#     Node 7, Type 0, BuildingBlock: CEKHIL_clean_sbu_0, # of connection points: 4
#     Node 8, Type 0, BuildingBlock: CEKHIL_clean_sbu_0, # of connection points: 4
#     Node 9, Type 0, BuildingBlock: CEKHIL_clean_sbu_0, # of connection points: 4
#     Node 10, Type 0, BuildingBlock: CEKHIL_clean_sbu_0, # of connection points: 4
#     Node 11, Type 0, BuildingBlock: CEKHIL_clean_sbu_0, # of connection points: 4
#     Node 12, Type 0, BuildingBlock: CEKHIL_clean_sbu_0, # of connection points: 4
#     Node 13, Type 0, BuildingBlock: CEKHIL_clean_sbu_0, # of connection points: 4
#     Node 14, Type 0, BuildingBlock: CEKHIL_clean_sbu_0, # of connection points: 4
#     Node 15, Type 0, BuildingBlock: CEKHIL_clean_sbu_0, # of connection points: 4
#     Node 16, Type 0, BuildingBlock: CEKHIL_clean_sbu_0, # of connection points: 4
#     Node 17, Type 0, BuildingBlock: CEKHIL_clean_sbu_0, # of connection points: 4
#     Node 18, Type 0, BuildingBlock: CEKHIL_clean_sbu_0, # of connection points: 4
#     Node 19, Type 0, BuildingBlock: CEKHIL_clean_sbu_0, # of connection points: 4
#     Node 20, Type 0, BuildingBlock: CEKHIL_clean_sbu_0, # of connection points: 4
#     Node 21, Type 0, BuildingBlock: CEKHIL_clean_sbu_0, # of connection points: 4
#     Node 22, Type 0, BuildingBlock: CEKHIL_clean_sbu_0, # of connection points: 4
#     Node 23, Type 0, BuildingBlock: CEKHIL_clean_sbu_0, # of connection points: 4
#     Node 24, Type 0, BuildingBlock: CEKHIL_clean_sbu_0, # of connection points: 4
#     Node 25, Type 0, BuildingBlock: CEKHIL_clean_sbu_0, # of connection points: 4
#     Node 26, Type 0, BuildingBlock: CEKHIL_clean_sbu_0, # of connection points: 4
#     Node 27, Type 0, BuildingBlock: CEKHIL_clean_sbu_0, # of connection points: 4
#     Node 28, Type 0, BuildingBlock: CEKHIL_clean_sbu_0, # of connection points: 4
#     Node 29, Type 0, BuildingBlock: CEKHIL_clean_sbu_0, # of connection points: 4
#     Node 30, Type 0, BuildingBlock: CEKHIL_clean_sbu_0, # of connection points: 4
#     Node 31, Type 0, BuildingBlock: CEKHIL_clean_sbu_0, # of connection points: 4
#     Node 32, Type 0, BuildingBlock: CEKHIL_clean_sbu_0, # of connection points: 4
#     Node 33, Type 0, BuildingBlock: CEKHIL_clean_sbu_0, # of connection points: 4
#     Node 34, Type 0, BuildingBlock: CEKHIL_clean_sbu_0, # of connection points: 4
#     Node 35, Type 0, BuildingBlock: CEKHIL_clean_sbu_0, # of connection points: 4
#     Edge 36, Type (0, 0), None
#     Edge 37, Type (0, 0), None
#     Edge 38, Type (0, 0), None
#     Edge 39, Type (0, 0), None
#     Edge 40, Type (0, 0), None
#     Edge 41, Type (0, 0), None
#     Edge 42, Type (0, 0), None
#     Edge 43, Type (0, 0), None
#     Edge 44, Type (0, 0), None
#     Edge 45, Type (0, 0), None
#     Edge 46, Type (0, 0), None
#     Edge 47, Type (0, 0), None
#     Edge 48, Type (0, 0), None
#     Edge 49, Type (0, 0), None
#     Edge 50, Type (0, 0), None
#     Edge 51, Type (0, 0), None
#     Edge 52, Type (0, 0), None
#     Edge 53, Type (0, 0), None
#     Edge 54, Type (0, 0), None
#     Edge 55, Type (0, 0), None
#     Edge 56, Type (0, 0), None
#     Edge 57, Type (0, 0), None
#     Edge 58, Type (0, 0), None
#     Edge 59, Type (0, 0), None
#     Edge 60, Type (0, 0), None
#     Edge 61, Type (0, 0), None
#     Edge 62, Type (0, 0), None
#     Edge 63, Type (0, 0), None
#     Edge 64, Type (0, 0), None
#     Edge 65, Type (0, 0), None
#     Edge 66, Type (0, 0), None
#     Edge 67, Type (0, 0), None
#     Edge 68, Type (0, 0), None
#     Edge 69, Type (0, 0), None
#     Edge 70, Type (0, 0), None
#     Edge 71, Type (0, 0), None
#     Edge 72, Type (0, 0), None
#     Edge 73, Type (0, 0), None
#     Edge 74, Type (0, 0), None
#     Edge 75, Type (0, 0), None
#     Edge 76, Type (0, 0), None
#     Edge 77, Type (0, 0), None
#     Edge 78, Type (0, 0), None
#     Edge 79, Type (0, 0), None
#     Edge 80, Type (0, 0), None
#     Edge 81, Type (0, 0), None
#     Edge 82, Type (0, 0), None
#     Edge 83, Type (0, 0), None
#     Edge 84, Type (0, 0), None
#     Edge 85, Type (0, 0), None
#     Edge 86, Type (0, 0), None
#     Edge 87, Type (0, 0), None
#     Edge 88, Type (0, 0), None
#     Edge 89, Type (0, 0), None
#     Edge 90, Type (0, 0), None
#     Edge 91, Type (0, 0), None
#     Edge 92, Type (0, 0), None
#     Edge 93, Type (0, 0), None
#     Edge 94, Type (0, 0), None
#     Edge 95, Type (0, 0), None
#     Edge 96, Type (0, 0), None
#     Edge 97, Type (0, 0), None
#     Edge 98, Type (0, 0), None
#     Edge 99, Type (0, 0), None
#     Edge 100, Type (0, 0), None
#     Edge 101, Type (0, 0), None
#     Edge 102, Type (0, 0), None
#     Edge 103, Type (0, 0), None
#     Edge 104, Type (0, 0), None
#     Edge 105, Type (0, 0), None
#     Edge 106, Type (0, 0), None
#     Edge 107, Type (0, 0), None
# Relax obj value: 0.072
# Max RMSD: 0.098
# Mean RMSD: 0.097
data_MOF--net-ukn--node1-CEKHIL_clean_sbu_0--edge1-none
_symmetry_space_group_name_H-M    P1
_symmetry_Int_Tables_number       1
_symmetry_cell_setting            triclinic
loop_
_symmetry_equiv_pos_as_xyz
'x, y, z'
_cell_length_a     44.970043
_cell_length_b     44.970783
_cell_length_c     11.652223
_cell_angle_alpha  89.88003
_cell_angle_beta   90.119544
_cell_angle_gamma 119.9168
loop_
_atom_site_label
_atom_site_type_symbol
_atom_site_fract_x
_atom_site_fract_y
_atom_site_fract_z
_atom_type_partial_charge
Co0 Co 0.12741 0.33203 0.10352 0.0
O1 O 0.08336 0.326 0.06849 0.0
O2 O 0.09581 0.28488 0.04537 0.0
C3 C 0.13442 0.36166 0.27058 0.0
O4 O 0.17358 0.33322 0.13003 0.0
Co5 Co 0.18563 0.40925 0.10487 0.0
O6 O 0.2045 0.38621 0.20277 0.0
C7 C 0.15849 0.37326 0.88627 0.0
C8 C 0.07418 0.29591 0.02871 0.0
C9 C 0.20141 0.35726 0.17644 0.0
O10 O 0.14103 0.3451 0.9406 0.0
O11 O 0.17619 0.40247 0.93523 0.0
O12 O 0.11788 0.32824 0.27077 0.0
O13 O 0.14282 0.37515 0.17025 0.0
Co14 Co 0.76574 0.81453 0.10134 0.0
O15 O 0.77156 0.77648 0.06534 0.0
O16 O 0.81298 0.82989 0.04391 0.0
C17 C 0.73598 0.79173 0.26827 0.0
O18 O 0.7647 0.85946 0.13005 0.0
Co19 Co 0.68802 0.79431 0.10049 0.0
O20 O 0.70996 0.838 0.18813 0.0
C21 C 0.72474 0.80421 0.88328 0.0
C22 C 0.80181 0.79727 0.02671 0.0
C23 C 0.74006 0.86338 0.17071 0.0
O24 O 0.75295 0.81582 0.93818 0.0
O25 O 0.69533 0.79149 0.9317 0.0
O26 O 0.76939 0.80828 0.26858 0.0
O27 O 0.72265 0.78681 0.16781 0.0
Co28 Co 0.28366 0.97066 0.10186 0.0
O29 O 0.32158 1.01459 0.06601 0.0
O30 O 0.26805 1.0023 0.04332 0.0
C31 C 0.30643 0.96372 0.26924 0.0
O32 O 0.23882 0.92461 0.12965 0.0
Co33 Co 0.30346 0.91287 0.1031 0.0
O34 O 0.26076 0.8926 0.19625 0.0
C35 C 0.2939 0.93974 0.88474 0.0
C36 C 0.30065 1.02383 0.02627 0.0
C37 C 0.23507 0.89647 0.17379 0.0
O38 O 0.28272 0.95677 0.93904 0.0
O39 O 0.30609 0.92256 0.93375 0.0
O40 O 0.28966 0.98041 0.26903 0.0
O41 O 0.31146 0.95533 0.16901 0.0
Co42 Co 0.35197 0.10753 0.87439 0.0
O43 O 0.34594 0.0635 0.90955 0.0
O44 O 0.30482 0.07595 0.93254 0.0
C45 C 0.38161 0.11452 0.70734 0.0
O46 O 0.35318 0.15371 0.8477 0.0
Co47 Co 0.42923 0.16568 0.87313 0.0
O48 O 0.40627 0.18473 0.77569 0.0
C49 C 0.39321 0.13857 0.09167 0.0
C50 C 0.31585 0.05433 0.94932 0.0
C51 C 0.37725 0.18156 0.80155 0.0
O52 O 0.36504 0.12119 0.03731 0.0
O53 O 0.42243 0.1562 0.04273 0.0
O54 O 0.34819 0.09798 0.70716 0.0
O55 O 0.39509 0.12292 0.80768 0.0
Co56 Co 0.99053 0.26374 0.87603 0.0
O57 O 1.03445 0.30166 0.91203 0.0
O58 O 1.02217 0.24813 0.93458 0.0
C59 C 0.98361 0.28652 0.70866 0.0
O60 O 0.9445 0.2189 0.84805 0.0
Co61 Co 0.9328 0.28362 0.87486 0.0
O62 O 0.91236 0.24081 0.78229 0.0
C63 C 0.95964 0.27401 0.09317 0.0
C64 C 1.04368 0.28072 0.95176 0.0
C65 C 0.91632 0.21515 0.80423 0.0
O66 O 0.97661 0.26275 0.03884 0.0
O67 O 0.94254 0.28628 0.04417 0.0
O68 O 1.00032 0.26978 0.70887 0.0
O69 O 0.97521 0.29155 0.80889 0.0
Co70 Co 0.83446 0.7458 0.87659 0.0
O71 O 0.79641 0.7516 0.91278 0.0
O72 O 0.84983 0.79304 0.93402 0.0
C73 C 0.81163 0.71603 0.70967 0.0
O74 O 0.87938 0.74477 0.84763 0.0
Co75 Co 0.81415 0.66804 0.87751 0.0
O76 O 0.85797 0.68993 0.79061 0.0
C77 C 0.82411 0.70479 0.09466 0.0
C78 C 0.81721 0.78185 0.95138 0.0
C79 C 0.88332 0.72009 0.80738 0.0
O80 O 0.83581 0.73301 0.03973 0.0
O81 O 0.81131 0.67538 0.04626 0.0
O82 O 0.82816 0.74944 0.70937 0.0
O83 O 0.80673 0.70271 0.81013 0.0
Co84 Co 0.99095 0.74649 0.87416 0.0
O85 O 1.03499 0.75252 0.9092 0.0
O86 O 1.02254 0.79364 0.93231 0.0
C87 C 0.98394 0.71686 0.70709 0.0
O88 O 0.94477 0.7453 0.84765 0.0
Co89 Co 0.93271 0.66927 0.87278 0.0
O90 O 0.91386 0.69232 0.77482 0.0
C91 C 0.95985 0.70526 0.0914 0.0
C92 C 1.04418 0.78261 0.94897 0.0
C93 C 0.91696 0.72127 0.80117 0.0
O94 O 0.97732 0.73342 0.03708 0.0
O95 O 0.94215 0.67606 0.04243 0.0
O96 O 1.00048 0.75028 0.70691 0.0
O97 O 0.97553 0.70337 0.80743 0.0
Co98 Co 0.35262 0.26399 0.87634 0.0
O99 O 0.3468 0.30205 0.91233 0.0
O100 O 0.30538 0.24864 0.93376 0.0
C101 C 0.38238 0.28679 0.7094 0.0
O102 O 0.35366 0.21906 0.84764 0.0
Co103 Co 0.43034 0.28419 0.87716 0.0
O104 O 0.40838 0.24053 0.78938 0.0
C105 C 0.39362 0.2743 0.09439 0.0
C106 C 0.31655 0.28126 0.95096 0.0
C107 C 0.37829 0.21515 0.80687 0.0
O108 O 0.36541 0.2627 0.0395 0.0
O109 O 0.42302 0.287 0.04596 0.0
O110 O 0.34897 0.27024 0.7091 0.0
O111 O 0.39571 0.29171 0.80986 0.0
Co112 Co 0.8347 0.10786 0.87581 0.0
O113 O 0.79678 0.06393 0.91167 0.0
O114 O 0.85031 0.07622 0.93435 0.0
C115 C 0.81193 0.1148 0.70843 0.0
O116 O 0.87954 0.15391 0.84804 0.0
Co117 Co 0.81493 0.16567 0.87454 0.0
O118 O 0.8576 0.18591 0.78128 0.0
C119 C 0.82448 0.1388 0.09293 0.0
C120 C 0.81771 0.05469 0.9514 0.0
C121 C 0.88329 0.18204 0.80379 0.0
O122 O 0.83564 0.12175 0.03863 0.0
O123 O 0.8123 0.15599 0.04391 0.0
O124 O 0.8287 0.09811 0.70864 0.0
O125 O 0.8069 0.1232 0.80866 0.0
Co126 Co 0.76639 0.97099 0.10327 0.0
O127 O 0.77241 1.01502 0.06811 0.0
O128 O 0.81354 1.00257 0.04512 0.0
C129 C 0.73675 0.964 0.27033 0.0
O130 O 0.76519 0.92482 0.12996 0.0
Co131 Co 0.68913 0.91282 0.10456 0.0
O132 O 0.7121 0.8938 0.20208 0.0
C133 C 0.72515 0.93993 0.88601 0.0
C134 C 0.80251 1.02419 0.02835 0.0
C135 C 0.74112 0.89697 0.1762 0.0
O136 O 0.75332 0.95733 0.94036 0.0
O137 O 0.69593 0.9223 0.93495 0.0
O138 O 0.77017 0.98054 0.27051 0.0
O139 O 0.72327 0.9556 0.16999 0.0
Co140 Co 0.12782 0.81479 0.10163 0.0
O141 O 0.08391 0.77687 0.06564 0.0
O142 O 0.09619 0.8304 0.04309 0.0
C143 C 0.13475 0.792 0.26901 0.0
O144 O 0.17386 0.85963 0.12961 0.0
Co145 Co 0.18558 0.79493 0.10284 0.0
O146 O 0.20598 0.83771 0.19553 0.0
C147 C 0.15874 0.80453 0.88451 0.0
C148 C 0.07468 0.7978 0.02591 0.0
C149 C 0.20202 0.86338 0.17353 0.0
O150 O 0.14175 0.81577 0.93883 0.0
O151 O 0.17585 0.79228 0.93351 0.0
O152 O 0.11804 0.80875 0.2688 0.0
O153 O 0.14315 0.78698 0.16878 0.0
Co154 Co 0.28389 0.33273 0.10107 0.0
O155 O 0.32195 0.32693 0.06489 0.0
O156 O 0.26853 0.28549 0.04364 0.0
C157 C 0.30673 0.3625 0.268 0.0
O158 O 0.23897 0.33375 0.13002 0.0
Co159 Co 0.30418 0.41048 0.10018 0.0
O160 O 0.26039 0.38858 0.18722 0.0
C161 C 0.29423 0.37373 0.88301 0.0
C162 C 0.30115 0.29667 0.02629 0.0
C163 C 0.23504 0.35842 0.17038 0.0
O164 O 0.28255 0.34552 0.93793 0.0
O165 O 0.30702 0.40314 0.93142 0.0
O166 O 0.29019 0.32909 0.26829 0.0
O167 O 0.31162 0.37581 0.16754 0.0
Co168 Co 0.79407 0.66536 0.43684 0.0
O169 O 0.75003 0.65933 0.40182 0.0
O170 O 0.76248 0.61821 0.37868 0.0
C171 C 0.80109 0.69499 0.60391 0.0
O172 O 0.84025 0.66656 0.46334 0.0
Co173 Co 0.85229 0.74258 0.43819 0.0
O174 O 0.87117 0.71955 0.53607 0.0
C175 C 0.82515 0.7066 0.21958 0.0
C176 C 0.74085 0.62923 0.36203 0.0
C177 C 0.86808 0.6906 0.50975 0.0
O178 O 0.80769 0.67844 0.27392 0.0
O179 O 0.84284 0.7358 0.26855 0.0
O180 O 0.78455 0.66157 0.60408 0.0
O181 O 0.80948 0.70848 0.50357 0.0
Co182 Co 0.43242 0.14788 0.43463 0.0
O183 O 0.43824 0.10983 0.3986 0.0
O184 O 0.47965 0.16325 0.37717 0.0
C185 C 0.40265 0.12507 0.60158 0.0
O186 O 0.43136 0.19279 0.46337 0.0
Co187 Co 0.35468 0.12763 0.43381 0.0
O188 O 0.37662 0.17133 0.52141 0.0
C189 C 0.3914 0.13754 0.21659 0.0
C190 C 0.46849 0.13063 0.35993 0.0
C191 C 0.40672 0.19671 0.50401 0.0
O192 O 0.41961 0.14917 0.27149 0.0
O193 O 0.362 0.12482 0.26501 0.0
O194 O 0.43606 0.14162 0.60187 0.0
O195 O 0.38933 0.12015 0.50112 0.0
Co196 Co 0.95032 0.30401 0.43524 0.0
O197 O 0.98825 0.34794 0.39944 0.0
O198 O 0.93473 0.33566 0.37674 0.0
C199 C 0.97308 0.29705 0.60261 0.0
O200 O 0.90547 0.25796 0.46299 0.0
Co201 Co 0.9701 0.24621 0.43645 0.0
O202 O 0.92741 0.22595 0.52962 0.0
C203 C 0.96055 0.27308 0.21809 0.0
C204 C 0.96733 0.35719 0.35972 0.0
C205 C 0.90172 0.22982 0.50714 0.0
O206 O 0.94939 0.29013 0.2724 0.0
O207 O 0.97273 0.2559 0.2671 0.0
O208 O 0.95632 0.31375 0.60242 0.0
O209 O 0.97812 0.28866 0.50238 0.0
Co210 Co 1.01868 0.44091 0.20792 0.0
O211 O 1.01264 0.39687 0.24313 0.0
O212 O 0.97151 0.40933 0.26603 0.0
C213 C 1.04832 0.44789 0.04089 0.0
O214 O 1.01989 0.48708 0.18109 0.0
Co215 Co 0.09597 0.49898 0.20678 0.0
O216 O 0.07309 0.51821 0.10984 0.0
C217 C 0.0599 0.4719 0.42523 0.0
C218 C 0.98254 0.3877 0.28284 0.0
C219 C 1.04401 0.51497 0.13521 0.0
O220 O 1.03173 0.45457 0.37084 0.0
O221 O 0.08913 0.48946 0.37633 0.0
O222 O 1.0149 0.43134 0.04069 0.0
O223 O 0.06178 0.45627 0.14123 0.0
Co224 Co 0.6572 0.59706 0.20937 0.0
O225 O 0.70111 0.63499 0.24538 0.0
O226 O 0.68884 0.58145 0.2679 0.0
C227 C 0.65028 0.61986 0.042 0.0
O228 O 0.61117 0.55223 0.18136 0.0
Co229 Co 0.59947 0.61696 0.20821 0.0
O230 O 0.57901 0.57414 0.11571 0.0
C231 C 0.6263 0.60733 0.42651 0.0
C232 C 0.71035 0.61404 0.28509 0.0
C233 C 0.58298 0.54848 0.13758 0.0
O234 O 0.64327 0.59608 0.37218 0.0
O235 O 0.60921 0.6196 0.37753 0.0
O236 O 0.66699 0.60311 0.04221 0.0
O237 O 0.64188 0.62488 0.14223 0.0
Co238 Co 0.50113 0.07917 0.20975 0.0
O239 O 0.46308 0.08499 0.2458 0.0
O240 O 0.5165 0.1264 0.26722 0.0
C241 C 0.47832 0.04941 0.0428 0.0
O242 O 0.54605 0.07812 0.18099 0.0
Co243 Co 0.48089 1.00144 0.21055 0.0
O244 O 0.52458 1.02338 0.12291 0.0
C245 C 0.49079 1.03815 0.42777 0.0
C246 C 0.48389 0.11523 0.2845 0.0
C247 C 0.54996 0.05347 0.14032 0.0
O248 O 0.50243 0.06636 0.37288 0.0
O249 O 0.47806 1.00874 0.37935 0.0
O250 O 0.49487 0.08282 0.04251 0.0
O251 O 0.4734 1.03609 0.14326 0.0
Co252 Co 0.65757 0.07979 0.20768 0.0
O253 O 0.70161 0.08582 0.24278 0.0
O254 O 0.68917 0.12695 0.26578 0.0
C255 C 0.65058 0.05015 0.04063 0.0
O256 O 0.6114 0.07859 0.18103 0.0
Co257 Co 0.59941 1.00254 0.20642 0.0
O258 O 0.58038 1.02551 0.10894 0.0
C259 C 0.62653 1.03857 0.42497 0.0
C260 C 0.7108 0.11592 0.28248 0.0
C261 C 0.58355 0.05452 0.13482 0.0
O262 O 0.64393 0.06673 0.37061 0.0
O263 O 0.60889 1.00935 0.37602 0.0
O264 O 0.66712 0.08357 0.04044 0.0
O265 O 0.64218 1.03667 0.14097 0.0
Co266 Co 1.01925 0.59732 0.20951 0.0
O267 O 1.01341 0.63537 0.24537 0.0
O268 O 0.97201 0.58196 0.26698 0.0
C269 C 1.049 0.6201 0.04255 0.0
O270 O 1.02031 0.5524 0.18101 0.0
Co271 Co 0.09694 0.61745 0.21021 0.0
O272 O 0.07493 0.57392 0.1217 0.0
C273 C 0.06027 0.60762 0.42752 0.0
C274 C 0.98317 0.61458 0.2841 0.0
C275 C 1.04491 0.5485 0.13982 0.0
O276 O 1.03206 0.59608 0.37265 0.0
O277 O 0.08966 0.62024 0.37906 0.0
O278 O 1.01559 0.60353 0.04225 0.0
O279 O 0.06234 0.62504 0.143 0.0
Co280 Co 0.50137 0.44119 0.20911 0.0
O281 O 0.46345 0.39726 0.24496 0.0
O282 O 0.51698 0.40955 0.26764 0.0
C283 C 0.4786 0.44813 0.04173 0.0
O284 O 0.54622 0.48724 0.18135 0.0
Co285 Co 0.48161 0.499 0.20784 0.0
O286 O 0.52427 0.51922 0.11449 0.0
C287 C 0.49116 0.47214 0.42623 0.0
C288 C 0.48438 0.38802 0.28469 0.0
C289 C 0.54996 0.51536 0.13707 0.0
O290 O 0.50231 0.45508 0.37193 0.0
O291 O 0.47899 0.48933 0.37721 0.0
O292 O 0.49537 0.43144 0.04194 0.0
O293 O 0.47357 0.45653 0.14196 0.0
Co294 Co 0.43306 0.30432 0.43658 0.0
O295 O 0.43909 0.34836 0.40142 0.0
O296 O 0.48021 0.3359 0.37842 0.0
C297 C 0.40343 0.29733 0.60364 0.0
O298 O 0.43185 0.25815 0.46326 0.0
Co299 Co 0.35579 0.24617 0.43787 0.0
O300 O 0.37876 0.22714 0.53537 0.0
C301 C 0.39181 0.27327 0.21932 0.0
C302 C 0.46918 0.35752 0.36165 0.0
C303 C 0.40778 0.2303 0.5095 0.0
O304 O 0.41998 0.29066 0.27366 0.0
O305 O 0.3626 0.25564 0.26827 0.0
O306 O 0.43685 0.31387 0.60381 0.0
O307 O 0.38994 0.28894 0.5033 0.0
Co308 Co 0.79448 0.14813 0.43501 0.0
O309 O 0.75056 0.1102 0.39905 0.0
O310 O 0.76283 0.16372 0.3765 0.0
C311 C 0.80142 0.12535 0.60238 0.0
O312 O 0.84051 0.19297 0.46295 0.0
Co313 Co 0.85224 0.12827 0.43617 0.0
O314 O 0.87264 0.17106 0.52885 0.0
C315 C 0.82539 0.13788 0.21786 0.0
C316 C 0.74132 0.13113 0.35936 0.0
C317 C 0.86868 0.19672 0.50686 0.0
O318 O 0.8084 0.14911 0.27218 0.0
O319 O 0.84251 0.12563 0.26685 0.0
O320 O 0.7847 0.14209 0.60217 0.0
O321 O 0.80981 0.12032 0.50215 0.0
Co322 Co 0.95055 0.66605 0.43438 0.0
O323 O 0.9886 0.66024 0.39816 0.0
O324 O 0.93517 0.61882 0.37691 0.0
C325 C 0.97338 0.69582 0.60132 0.0
O326 O 0.90564 0.66708 0.46335 0.0
Co327 Co 0.97086 0.74381 0.43351 0.0
O328 O 0.92706 0.72191 0.52052 0.0
C329 C 0.96089 0.70707 0.21633 0.0
C330 C 0.96779 0.62999 0.35953 0.0
C331 C 0.90171 0.69176 0.50369 0.0
O332 O 0.9492 0.67885 0.27125 0.0
O333 O 0.97369 0.73648 0.26475 0.0
O334 O 0.95685 0.66241 0.6016 0.0
O335 O 0.97829 0.70913 0.50086 0.0
Co336 Co 0.46078 0.99873 0.77 0.0
O337 O 0.41674 0.9927 0.73491 0.0
O338 O 0.42919 0.95157 0.71189 0.0
C339 C 0.46779 1.02837 0.93704 0.0
O340 O 0.50696 0.99993 0.79664 0.0
Co341 Co 0.51893 0.07599 0.77122 0.0
O342 O 0.53799 0.05303 0.86863 0.0
C343 C 0.49182 0.03996 0.5527 0.0
C344 C 0.40756 0.9626 0.69519 0.0
C345 C 0.53482 1.02401 0.84277 0.0
O346 O 0.47442 1.01179 0.60706 0.0
O347 O 0.50945 0.06917 0.60163 0.0
O348 O 0.45124 0.99495 0.93724 0.0
O349 O 0.47617 0.04185 0.8367 0.0
Co350 Co 0.09911 0.4812 0.76817 0.0
O351 O 0.10495 0.44315 0.73231 0.0
O352 O 0.14635 0.49656 0.7107 0.0
C353 C 0.06936 0.45843 0.93513 0.0
O354 O 0.09805 0.52612 0.79668 0.0
Co355 Co 1.02141 0.46105 0.76744 0.0
O356 O 1.04342 0.50461 0.85581 0.0
C357 C 1.05809 0.47089 0.55015 0.0
C358 C 0.13519 0.46394 0.69358 0.0
C359 C 0.07344 0.53003 0.83776 0.0
O360 O 0.0863 0.48244 0.60502 0.0
O361 O 1.0287 0.45825 0.5986 0.0
O362 O 0.10277 0.47499 0.93543 0.0
O363 O 1.05603 0.45348 0.83468 0.0
Co364 Co 0.61699 0.63734 0.76857 0.0
O365 O 0.65491 0.68126 0.73273 0.0
O366 O 0.60138 0.66898 0.71003 0.0
C367 C 0.63975 0.63039 0.93595 0.0
O368 O 0.57215 0.59128 0.79633 0.0
Co369 Co 0.63677 0.57954 0.76981 0.0
O370 O 0.59409 0.55929 0.86304 0.0
C371 C 0.62722 0.6064 0.55144 0.0
C372 C 0.63398 0.6905 0.69298 0.0
C373 C 0.5684 0.56315 0.84051 0.0
O374 O 0.61605 0.62345 0.60574 0.0
O375 O 0.63939 0.58922 0.60045 0.0
O376 O 0.62299 0.64708 0.93574 0.0
O377 O 0.64479 0.622 0.83572 0.0
Co378 Co 0.6853 0.7742 0.54109 0.0
O379 O 0.67927 0.73016 0.57624 0.0
O380 O 0.63815 0.74263 0.59925 0.0
C381 C 0.71493 0.78119 0.37403 0.0
O382 O 0.68652 0.82038 0.5144 0.0
Co383 Co 0.76257 0.83234 0.53982 0.0
O384 O 0.73961 0.8514 0.4424 0.0
C385 C 0.72655 0.80524 0.75836 0.0
C386 C 0.64918 0.721 0.61602 0.0
C387 C 0.71059 0.84823 0.46825 0.0
O388 O 0.69838 0.78785 0.704 0.0
O389 O 0.75576 0.82285 0.70942 0.0
O390 O 0.68151 0.76465 0.37385 0.0
O391 O 0.72842 0.78958 0.47437 0.0
Co392 Co 0.32388 0.9304 0.54265 0.0
O393 O 0.3678 0.96833 0.5786 0.0
O394 O 0.35553 0.9148 0.60116 0.0
C395 C 0.31694 0.95318 0.37529 0.0
O396 O 0.27785 0.88556 0.51471 0.0
Co397 Co 0.26614 0.95027 0.54151 0.0
O398 O 0.2457 0.90746 0.44893 0.0
C399 C 0.29299 0.94066 0.75981 0.0
C400 C 0.37704 0.94739 0.61831 0.0
C401 C 0.24967 0.8818 0.47088 0.0
O402 O 0.30997 0.92942 0.70548 0.0
O403 O 0.27587 0.95292 0.71082 0.0
O404 O 0.33366 0.93643 0.37549 0.0
O405 O 0.30855 0.95821 0.47552 0.0
Co406 Co 0.16781 0.41247 0.54329 0.0
O407 O 0.12976 0.41828 0.57951 0.0
O408 O 0.18319 0.45971 0.60076 0.0
C409 C 0.14498 0.38271 0.37635 0.0
O410 O 0.21272 0.41144 0.5143 0.0
Co411 Co 0.14748 0.33471 0.54418 0.0
O412 O 0.1913 0.35659 0.45732 0.0
C413 C 0.15745 0.37146 0.76134 0.0
C414 C 0.15057 0.44853 0.61814 0.0
C415 C 0.21665 0.38676 0.47407 0.0
O416 O 0.16916 0.39967 0.70642 0.0
O417 O 0.14463 0.34204 0.71293 0.0
O418 O 0.16151 0.41612 0.37606 0.0
O419 O 0.14007 0.36939 0.47681 0.0
Co420 Co 0.32428 0.41317 0.54083 0.0
O421 O 0.36833 0.41919 0.57586 0.0
O422 O 0.35588 0.46032 0.59899 0.0
C423 C 0.31727 0.38354 0.37377 0.0
O424 O 0.27811 0.41197 0.51434 0.0
Co425 Co 0.26605 0.33594 0.53946 0.0
O426 O 0.2472 0.35899 0.4415 0.0
C427 C 0.29319 0.37193 0.75808 0.0
C428 C 0.37751 0.44929 0.61564 0.0
C429 C 0.25029 0.38794 0.46785 0.0
O430 O 0.31066 0.40009 0.70376 0.0
O431 O 0.27549 0.34272 0.7091 0.0
O432 O 0.33381 0.41696 0.37359 0.0
O433 O 0.30887 0.37005 0.4741 0.0
Co434 Co 0.68594 0.93065 0.54305 0.0
O435 O 0.68012 0.96869 0.57908 0.0
O436 O 0.63871 0.91528 0.60051 0.0
C437 C 0.71571 0.95345 0.37609 0.0
O438 O 0.687 0.88573 0.51432 0.0
Co439 Co 0.76367 0.95087 0.54384 0.0
O440 O 0.74172 0.9072 0.4561 0.0
C441 C 0.72696 0.94096 0.76108 0.0
C442 C 0.64987 0.94789 0.61774 0.0
C443 C 0.71163 0.88181 0.47357 0.0
O444 O 0.69875 0.92935 0.70619 0.0
O445 O 0.75636 0.95367 0.71265 0.0
O446 O 0.6823 0.9369 0.3758 0.0
O447 O 0.72903 0.95838 0.47655 0.0
Co448 Co 0.16804 0.77452 0.54244 0.0
O449 O 0.13011 0.73059 0.57825 0.0
O450 O 0.18363 0.74286 0.60094 0.0
C451 C 0.14528 0.78147 0.37507 0.0
O452 O 0.21289 0.82057 0.5147 0.0
Co453 Co 0.14827 0.83233 0.54121 0.0
O454 O 0.19095 0.85257 0.44794 0.0
C455 C 0.15782 0.80546 0.75958 0.0
C456 C 0.15103 0.72133 0.61796 0.0
C457 C 0.21664 0.84869 0.47046 0.0
O458 O 0.16898 0.7884 0.70528 0.0
O459 O 0.14566 0.82265 0.71057 0.0
O460 O 0.16204 0.76477 0.37527 0.0
O461 O 0.14024 0.78987 0.4753 0.0
Co462 Co 0.09968 0.63761 0.76975 0.0
O463 O 0.10571 0.68165 0.73453 0.0
O464 O 0.14685 0.6692 0.71164 0.0
C465 C 0.07005 0.63063 0.93679 0.0
O466 O 0.09847 0.59144 0.79657 0.0
Co467 Co 1.02239 0.57952 0.77091 0.0
O468 O 1.04528 0.56032 0.86792 0.0
C469 C 1.05846 0.6066 0.55244 0.0
C470 C 0.13581 0.69082 0.69483 0.0
C471 C 0.07436 0.56357 0.84252 0.0
O472 O 0.08663 0.62394 0.60682 0.0
O473 O 1.02923 0.58904 0.60135 0.0
O474 O 0.10346 0.64718 0.93698 0.0
O475 O 1.05657 0.62224 0.83644 0.0
Co476 Co 0.46116 0.48146 0.7683 0.0
O477 O 0.41725 0.44354 0.73229 0.0
O478 O 0.42952 0.49707 0.70977 0.0
C479 C 0.46809 0.45867 0.93567 0.0
O480 O 0.50719 0.5263 0.79629 0.0
Co481 Co 0.5189 0.46159 0.76947 0.0
O482 O 0.53934 0.50439 0.86208 0.0
C483 C 0.49207 0.47121 0.55116 0.0
C484 C 0.40801 0.46448 0.69258 0.0
C485 C 0.53536 0.53005 0.84016 0.0
O486 O 0.47509 0.48245 0.60548 0.0
O487 O 0.50918 0.45895 0.60015 0.0
O488 O 0.45137 0.47542 0.93546 0.0
O489 O 0.47648 0.45365 0.83544 0.0
Co490 Co 0.61723 0.99935 0.76792 0.0
O491 O 0.65528 0.99353 0.73187 0.0
O492 O 0.60185 0.95212 0.71044 0.0
C493 C 0.64003 1.02911 0.93487 0.0
O494 O 0.57231 1.0004 0.79666 0.0
Co495 Co 0.63745 0.07708 0.76713 0.0
O496 O 0.59378 0.05513 0.85491 0.0
C497 C 0.62755 0.04038 0.54989 0.0
C498 C 0.63447 0.96329 0.69317 0.0
C499 C 0.5684 1.02504 0.83743 0.0
O500 O 0.61593 1.01216 0.60478 0.0
O501 O 0.64027 0.06978 0.59833 0.0
O502 O 0.62348 0.9957 0.93516 0.0
O503 O 0.64495 0.04244 0.83441 0.0
loop_
_geom_bond_atom_site_label_1
_geom_bond_atom_site_label_2
_geom_bond_distance
_geom_bond_site_symmetry_2
_ccdc_geom_bond_type
Co0 O1 2.216 . S
Co0 O2 2.091 . S
Co0 O4 2.004 . S
Co0 O10 2.021 1_554 S
Co0 O12 2.137 . S
Co0 O13 2.244 . S
O1 Co0 2.216 . S
O1 C8 1.247 . S
O2 Co0 2.091 . S
O2 C8 1.261 . S
C3 O12 1.247 . S
C3 O13 1.272 . S
O4 Co0 2.004 . S
O4 C9 1.259 . S
Co5 O6 2.061 . S
Co5 O11 2.052 1_554 S
Co5 O13 2.135 . S
O6 Co5 2.061 . S
O6 C9 1.235 . S
C7 O10 1.238 . S
C7 O11 1.241 . S
C8 O1 1.247 . S
C8 O2 1.261 . S
C9 O4 1.259 . S
C9 O6 1.235 . S
O10 Co0 2.021 1_556 S
O10 C7 1.238 . S
O11 Co5 2.052 1_556 S
O11 C7 1.241 . S
O12 Co0 2.137 . S
O12 C3 1.247 . S
O13 Co0 2.244 . S
O13 C3 1.272 . S
O13 Co5 2.135 . S
Co14 O15 2.216 . S
Co14 O16 2.091 . S
Co14 O18 2.004 . S
Co14 O24 2.021 1_554 S
Co14 O26 2.137 . S
Co14 O27 2.244 . S
O15 Co14 2.216 . S
O15 C22 1.247 . S
O16 Co14 2.091 . S
O16 C22 1.261 . S
C17 O26 1.247 . S
C17 O27 1.272 . S
O18 Co14 2.004 . S
O18 C23 1.259 . S
Co19 O20 2.061 . S
Co19 O25 2.052 1_554 S
Co19 O27 2.135 . S
O20 Co19 2.061 . S
O20 C23 1.235 . S
C21 O24 1.238 . S
C21 O25 1.241 . S
C22 O15 1.247 . S
C22 O16 1.261 . S
C23 O18 1.259 . S
C23 O20 1.235 . S
O24 Co14 2.021 1_556 S
O24 C21 1.238 . S
O25 Co19 2.052 1_556 S
O25 C21 1.241 . S
O26 Co14 2.137 . S
O26 C17 1.247 . S
O27 Co14 2.244 . S
O27 C17 1.272 . S
O27 Co19 2.135 . S
Co28 O29 2.216 . S
Co28 O30 2.091 . S
Co28 O32 2.004 . S
Co28 O38 2.021 1_554 S
Co28 O40 2.137 . S
Co28 O41 2.244 . S
O29 Co28 2.216 . S
O29 C36 1.247 . S
O30 Co28 2.091 . S
O30 C36 1.261 . S
C31 O40 1.247 . S
C31 O41 1.272 . S
O32 Co28 2.004 . S
O32 C37 1.259 . S
Co33 O34 2.061 . S
Co33 O39 2.052 1_554 S
Co33 O41 2.135 . S
O34 Co33 2.061 . S
O34 C37 1.235 . S
C35 O38 1.238 . S
C35 O39 1.241 . S
C36 O29 1.247 . S
C36 O30 1.261 . S
C37 O32 1.259 . S
C37 O34 1.235 . S
O38 Co28 2.021 1_556 S
O38 C35 1.238 . S
O39 Co33 2.052 1_556 S
O39 C35 1.241 . S
O40 Co28 2.137 . S
O40 C31 1.247 . S
O41 Co28 2.244 . S
O41 C31 1.272 . S
O41 Co33 2.135 . S
Co42 O43 2.216 . S
Co42 O44 2.091 . S
Co42 O46 2.004 . S
Co42 O52 2.021 1_556 S
Co42 O54 2.137 . S
Co42 O55 2.244 . S
O43 Co42 2.216 . S
O43 C50 1.247 . S
O44 Co42 2.091 . S
O44 C50 1.261 . S
C45 O54 1.247 . S
C45 O55 1.272 . S
O46 Co42 2.004 . S
O46 C51 1.259 . S
Co47 O48 2.061 . S
Co47 O53 2.052 1_556 S
Co47 O55 2.135 . S
O48 Co47 2.061 . S
O48 C51 1.235 . S
C49 O52 1.238 . S
C49 O53 1.241 . S
C50 O43 1.247 . S
C50 O44 1.261 . S
C51 O46 1.259 . S
C51 O48 1.235 . S
O52 Co42 2.021 1_554 S
O52 C49 1.238 . S
O53 Co47 2.052 1_554 S
O53 C49 1.241 . S
O54 Co42 2.137 . S
O54 C45 1.247 . S
O55 Co42 2.244 . S
O55 C45 1.272 . S
O55 Co47 2.135 . S
Co56 O57 2.216 . S
Co56 O58 2.091 . S
Co56 O60 2.004 . S
Co56 O66 2.021 1_556 S
Co56 O68 2.137 . S
Co56 O69 2.244 . S
O57 Co56 2.216 . S
O57 C64 1.247 . S
O58 Co56 2.091 . S
O58 C64 1.261 . S
C59 O68 1.247 . S
C59 O69 1.272 . S
O60 Co56 2.004 . S
O60 C65 1.259 . S
Co61 O62 2.061 . S
Co61 O67 2.052 1_556 S
Co61 O69 2.135 . S
O62 Co61 2.061 . S
O62 C65 1.235 . S
C63 O66 1.238 . S
C63 O67 1.241 . S
C64 O57 1.247 . S
C64 O58 1.261 . S
C65 O60 1.259 . S
C65 O62 1.235 . S
O66 Co56 2.021 1_554 S
O66 C63 1.238 . S
O67 Co61 2.052 1_554 S
O67 C63 1.241 . S
O68 Co56 2.137 . S
O68 C59 1.247 . S
O69 Co56 2.244 . S
O69 C59 1.272 . S
O69 Co61 2.135 . S
Co70 O71 2.216 . S
Co70 O72 2.091 . S
Co70 O74 2.004 . S
Co70 O80 2.021 1_556 S
Co70 O82 2.137 . S
Co70 O83 2.244 . S
O71 Co70 2.216 . S
O71 C78 1.247 . S
O72 Co70 2.091 . S
O72 C78 1.261 . S
C73 O82 1.247 . S
C73 O83 1.272 . S
O74 Co70 2.004 . S
O74 C79 1.259 . S
Co75 O76 2.061 . S
Co75 O81 2.052 1_556 S
Co75 O83 2.135 . S
O76 Co75 2.061 . S
O76 C79 1.235 . S
C77 O80 1.238 . S
C77 O81 1.241 . S
C78 O71 1.247 . S
C78 O72 1.261 . S
C79 O74 1.259 . S
C79 O76 1.235 . S
O80 Co70 2.021 1_554 S
O80 C77 1.238 . S
O81 Co75 2.052 1_554 S
O81 C77 1.241 . S
O82 Co70 2.137 . S
O82 C73 1.247 . S
O83 Co70 2.244 . S
O83 C73 1.272 . S
O83 Co75 2.135 . S
Co84 O85 2.216 . S
Co84 O86 2.091 . S
Co84 O88 2.004 . S
Co84 O94 2.021 1_556 S
Co84 O96 2.137 . S
Co84 O97 2.244 . S
O85 Co84 2.216 . S
O85 C92 1.247 . S
O86 Co84 2.091 . S
O86 C92 1.261 . S
C87 O96 1.247 . S
C87 O97 1.272 . S
O88 Co84 2.004 . S
O88 C93 1.259 . S
Co89 O90 2.061 . S
Co89 O95 2.052 1_556 S
Co89 O97 2.135 . S
O90 Co89 2.061 . S
O90 C93 1.235 . S
C91 O94 1.238 . S
C91 O95 1.241 . S
C92 O85 1.247 . S
C92 O86 1.261 . S
C93 O88 1.259 . S
C93 O90 1.235 . S
O94 Co84 2.021 1_554 S
O94 C91 1.238 . S
O95 Co89 2.052 1_554 S
O95 C91 1.241 . S
O96 Co84 2.137 . S
O96 C87 1.247 . S
O97 Co84 2.244 . S
O97 C87 1.272 . S
O97 Co89 2.135 . S
Co98 O99 2.216 . S
Co98 O100 2.091 . S
Co98 O102 2.004 . S
Co98 O108 2.021 1_556 S
Co98 O110 2.137 . S
Co98 O111 2.244 . S
O99 Co98 2.216 . S
O99 C106 1.247 . S
O100 Co98 2.091 . S
O100 C106 1.261 . S
C101 O110 1.247 . S
C101 O111 1.272 . S
O102 Co98 2.004 . S
O102 C107 1.259 . S
Co103 O104 2.061 . S
Co103 O109 2.052 1_556 S
Co103 O111 2.135 . S
O104 Co103 2.061 . S
O104 C107 1.235 . S
C105 O108 1.238 . S
C105 O109 1.241 . S
C106 O99 1.247 . S
C106 O100 1.261 . S
C107 O102 1.259 . S
C107 O104 1.235 . S
O108 Co98 2.021 1_554 S
O108 C105 1.238 . S
O109 Co103 2.052 1_554 S
O109 C105 1.241 . S
O110 Co98 2.137 . S
O110 C101 1.247 . S
O111 Co98 2.244 . S
O111 C101 1.272 . S
O111 Co103 2.135 . S
Co112 O113 2.216 . S
Co112 O114 2.091 . S
Co112 O116 2.004 . S
Co112 O122 2.021 1_556 S
Co112 O124 2.137 . S
Co112 O125 2.244 . S
O113 Co112 2.216 . S
O113 C120 1.247 . S
O114 Co112 2.091 . S
O114 C120 1.261 . S
C115 O124 1.247 . S
C115 O125 1.272 . S
O116 Co112 2.004 . S
O116 C121 1.259 . S
Co117 O118 2.061 . S
Co117 O123 2.052 1_556 S
Co117 O125 2.135 . S
O118 Co117 2.061 . S
O118 C121 1.235 . S
C119 O122 1.238 . S
C119 O123 1.241 . S
C120 O113 1.247 . S
C120 O114 1.261 . S
C121 O116 1.259 . S
C121 O118 1.235 . S
O122 Co112 2.021 1_554 S
O122 C119 1.238 . S
O123 Co117 2.052 1_554 S
O123 C119 1.241 . S
O124 Co112 2.137 . S
O124 C115 1.247 . S
O125 Co112 2.244 . S
O125 C115 1.272 . S
O125 Co117 2.135 . S
Co126 O127 2.216 . S
Co126 O128 2.091 . S
Co126 O130 2.004 . S
Co126 O136 2.021 1_554 S
Co126 O138 2.137 . S
Co126 O139 2.244 . S
O127 Co126 2.216 . S
O127 C134 1.247 . S
O128 Co126 2.091 . S
O128 C134 1.261 . S
C129 O138 1.247 . S
C129 O139 1.272 . S
O130 Co126 2.004 . S
O130 C135 1.259 . S
Co131 O132 2.061 . S
Co131 O137 2.052 1_554 S
Co131 O139 2.135 . S
O132 Co131 2.061 . S
O132 C135 1.235 . S
C133 O136 1.238 . S
C133 O137 1.241 . S
C134 O127 1.247 . S
C134 O128 1.261 . S
C135 O130 1.259 . S
C135 O132 1.235 . S
O136 Co126 2.021 1_556 S
O136 C133 1.238 . S
O137 Co131 2.052 1_556 S
O137 C133 1.241 . S
O138 Co126 2.137 . S
O138 C129 1.247 . S
O139 Co126 2.244 . S
O139 C129 1.272 . S
O139 Co131 2.135 . S
Co140 O141 2.216 . S
Co140 O142 2.091 . S
Co140 O144 2.004 . S
Co140 O150 2.021 1_554 S
Co140 O152 2.137 . S
Co140 O153 2.244 . S
O141 Co140 2.216 . S
O141 C148 1.247 . S
O142 Co140 2.091 . S
O142 C148 1.261 . S
C143 O152 1.247 . S
C143 O153 1.272 . S
O144 Co140 2.004 . S
O144 C149 1.259 . S
Co145 O146 2.061 . S
Co145 O151 2.052 1_554 S
Co145 O153 2.135 . S
O146 Co145 2.061 . S
O146 C149 1.235 . S
C147 O150 1.238 . S
C147 O151 1.241 . S
C148 O141 1.247 . S
C148 O142 1.261 . S
C149 O144 1.259 . S
C149 O146 1.235 . S
O150 Co140 2.021 1_556 S
O150 C147 1.238 . S
O151 Co145 2.052 1_556 S
O151 C147 1.241 . S
O152 Co140 2.137 . S
O152 C143 1.247 . S
O153 Co140 2.244 . S
O153 C143 1.272 . S
O153 Co145 2.135 . S
Co154 O155 2.216 . S
Co154 O156 2.091 . S
Co154 O158 2.004 . S
Co154 O164 2.021 1_554 S
Co154 O166 2.137 . S
Co154 O167 2.244 . S
O155 Co154 2.216 . S
O155 C162 1.247 . S
O156 Co154 2.091 . S
O156 C162 1.261 . S
C157 O166 1.247 . S
C157 O167 1.272 . S
O158 Co154 2.004 . S
O158 C163 1.259 . S
Co159 O160 2.061 . S
Co159 O165 2.052 1_554 S
Co159 O167 2.135 . S
O160 Co159 2.061 . S
O160 C163 1.235 . S
C161 O164 1.238 . S
C161 O165 1.241 . S
C162 O155 1.247 . S
C162 O156 1.261 . S
C163 O158 1.259 . S
C163 O160 1.235 . S
O164 Co154 2.021 1_556 S
O164 C161 1.238 . S
O165 Co159 2.052 1_556 S
O165 C161 1.241 . S
O166 Co154 2.137 . S
O166 C157 1.247 . S
O167 Co154 2.244 . S
O167 C157 1.272 . S
O167 Co159 2.135 . S
Co168 O169 2.216 . S
Co168 O170 2.091 . S
Co168 O172 2.004 . S
Co168 O178 2.021 . S
Co168 O180 2.137 . S
Co168 O181 2.244 . S
O169 Co168 2.216 . S
O169 C176 1.247 . S
O170 Co168 2.091 . S
O170 C176 1.261 . S
C171 O180 1.247 . S
C171 O181 1.272 . S
O172 Co168 2.004 . S
O172 C177 1.259 . S
Co173 O174 2.061 . S
Co173 O179 2.052 . S
Co173 O181 2.135 . S
O174 Co173 2.061 . S
O174 C177 1.235 . S
C175 O178 1.238 . S
C175 O179 1.241 . S
C176 O169 1.247 . S
C176 O170 1.261 . S
C177 O172 1.259 . S
C177 O174 1.235 . S
O178 Co168 2.021 . S
O178 C175 1.238 . S
O179 Co173 2.052 . S
O179 C175 1.241 . S
O180 Co168 2.137 . S
O180 C171 1.247 . S
O181 Co168 2.244 . S
O181 C171 1.272 . S
O181 Co173 2.135 . S
Co182 O183 2.216 . S
Co182 O184 2.091 . S
Co182 O186 2.004 . S
Co182 O192 2.021 . S
Co182 O194 2.137 . S
Co182 O195 2.244 . S
O183 Co182 2.216 . S
O183 C190 1.247 . S
O184 Co182 2.091 . S
O184 C190 1.261 . S
C185 O194 1.247 . S
C185 O195 1.272 . S
O186 Co182 2.004 . S
O186 C191 1.259 . S
Co187 O188 2.061 . S
Co187 O193 2.052 . S
Co187 O195 2.135 . S
O188 Co187 2.061 . S
O188 C191 1.235 . S
C189 O192 1.238 . S
C189 O193 1.241 . S
C190 O183 1.247 . S
C190 O184 1.261 . S
C191 O186 1.259 . S
C191 O188 1.235 . S
O192 Co182 2.021 . S
O192 C189 1.238 . S
O193 Co187 2.052 . S
O193 C189 1.241 . S
O194 Co182 2.137 . S
O194 C185 1.247 . S
O195 Co182 2.244 . S
O195 C185 1.272 . S
O195 Co187 2.135 . S
Co196 O197 2.216 . S
Co196 O198 2.091 . S
Co196 O200 2.004 . S
Co196 O206 2.021 . S
Co196 O208 2.137 . S
Co196 O209 2.244 . S
O197 Co196 2.216 . S
O197 C204 1.247 . S
O198 Co196 2.091 . S
O198 C204 1.261 . S
C199 O208 1.247 . S
C199 O209 1.272 . S
O200 Co196 2.004 . S
O200 C205 1.259 . S
Co201 O202 2.061 . S
Co201 O207 2.052 . S
Co201 O209 2.135 . S
O202 Co201 2.061 . S
O202 C205 1.235 . S
C203 O206 1.238 . S
C203 O207 1.241 . S
C204 O197 1.247 . S
C204 O198 1.261 . S
C205 O200 1.259 . S
C205 O202 1.235 . S
O206 Co196 2.021 . S
O206 C203 1.238 . S
O207 Co201 2.052 . S
O207 C203 1.241 . S
O208 Co196 2.137 . S
O208 C199 1.247 . S
O209 Co196 2.244 . S
O209 C199 1.272 . S
O209 Co201 2.135 . S
Co210 O211 2.216 . S
Co210 O212 2.091 . S
Co210 O214 2.004 . S
Co210 O220 2.021 . S
Co210 O222 2.137 . S
Co210 O223 2.244 1_655 S
O211 Co210 2.216 . S
O211 C218 1.247 . S
O212 Co210 2.091 . S
O212 C218 1.261 . S
C213 O222 1.247 . S
C213 O223 1.272 1_655 S
O214 Co210 2.004 . S
O214 C219 1.259 . S
Co215 O216 2.061 1_455 S
Co215 O221 2.052 . S
Co215 O223 2.135 . S
O216 Co215 2.061 1_655 S
O216 C219 1.235 . S
C217 O220 1.226 1_455 S
C217 O221 1.249 . S
C218 O211 1.247 . S
C218 O212 1.261 . S
C219 O214 1.259 . S
C219 O216 1.235 . S
O220 Co210 2.021 . S
O220 C217 1.226 1_655 S
O221 Co215 2.052 . S
O221 C217 1.249 . S
O222 Co210 2.137 . S
O222 C213 1.247 . S
O223 Co210 2.244 1_455 S
O223 C213 1.272 1_455 S
O223 Co215 2.135 . S
Co224 O225 2.216 . S
Co224 O226 2.091 . S
Co224 O228 2.004 . S
Co224 O234 2.021 . S
Co224 O236 2.137 . S
Co224 O237 2.244 . S
O225 Co224 2.216 . S
O225 C232 1.247 . S
O226 Co224 2.091 . S
O226 C232 1.261 . S
C227 O236 1.247 . S
C227 O237 1.272 . S
O228 Co224 2.004 . S
O228 C233 1.259 . S
Co229 O230 2.061 . S
Co229 O235 2.052 . S
Co229 O237 2.135 . S
O230 Co229 2.061 . S
O230 C233 1.235 . S
C231 O234 1.238 . S
C231 O235 1.241 . S
C232 O225 1.247 . S
C232 O226 1.261 . S
C233 O228 1.259 . S
C233 O230 1.235 . S
O234 Co224 2.021 . S
O234 C231 1.238 . S
O235 Co229 2.052 . S
O235 C231 1.241 . S
O236 Co224 2.137 . S
O236 C227 1.247 . S
O237 Co224 2.244 . S
O237 C227 1.272 . S
O237 Co229 2.135 . S
Co238 O239 2.216 . S
Co238 O240 2.091 . S
Co238 O242 2.004 . S
Co238 O248 2.021 . S
Co238 O250 2.137 . S
Co238 O251 2.244 1_545 S
O239 Co238 2.216 . S
O239 C246 1.247 . S
O240 Co238 2.091 . S
O240 C246 1.261 . S
C241 O250 1.247 . S
C241 O251 1.272 1_545 S
O242 Co238 2.004 . S
O242 C247 1.259 . S
Co243 O244 2.061 1_565 S
Co243 O249 2.052 . S
Co243 O251 2.135 . S
O244 Co243 2.061 1_545 S
O244 C247 1.235 . S
C245 O248 1.222 1_565 S
C245 O249 1.256 . S
C246 O239 1.247 . S
C246 O240 1.261 . S
C247 O242 1.259 . S
C247 O244 1.235 . S
O248 Co238 2.021 . S
O248 C245 1.222 1_545 S
O249 Co243 2.052 . S
O249 C245 1.256 . S
O250 Co238 2.137 . S
O250 C241 1.247 . S
O251 Co238 2.244 1_565 S
O251 C241 1.272 1_565 S
O251 Co243 2.135 . S
Co252 O253 2.216 . S
Co252 O254 2.091 . S
Co252 O256 2.004 . S
Co252 O262 2.021 . S
Co252 O264 2.137 . S
Co252 O265 2.244 1_545 S
O253 Co252 2.216 . S
O253 C260 1.247 . S
O254 Co252 2.091 . S
O254 C260 1.261 . S
C255 O264 1.247 . S
C255 O265 1.272 1_545 S
O256 Co252 2.004 . S
O256 C261 1.259 . S
Co257 O258 2.061 1_565 S
Co257 O263 2.052 . S
Co257 O265 2.135 . S
O258 Co257 2.061 1_545 S
O258 C261 1.235 . S
C259 O262 1.226 1_565 S
C259 O263 1.249 . S
C260 O253 1.247 . S
C260 O254 1.261 . S
C261 O256 1.259 . S
C261 O258 1.235 . S
O262 Co252 2.021 . S
O262 C259 1.226 1_545 S
O263 Co257 2.052 . S
O263 C259 1.249 . S
O264 Co252 2.137 . S
O264 C255 1.247 . S
O265 Co252 2.244 1_565 S
O265 C255 1.272 1_565 S
O265 Co257 2.135 . S
Co266 O267 2.216 . S
Co266 O268 2.091 . S
Co266 O270 2.004 . S
Co266 O276 2.021 . S
Co266 O278 2.137 . S
Co266 O279 2.244 1_655 S
O267 Co266 2.216 . S
O267 C274 1.247 . S
O268 Co266 2.091 . S
O268 C274 1.261 . S
C269 O278 1.247 . S
C269 O279 1.272 1_655 S
O270 Co266 2.004 . S
O270 C275 1.259 . S
Co271 O272 2.061 1_455 S
Co271 O277 2.052 . S
Co271 O279 2.135 . S
O272 Co271 2.061 1_655 S
O272 C275 1.235 . S
C273 O276 1.222 1_455 S
C273 O277 1.256 . S
C274 O267 1.247 . S
C274 O268 1.261 . S
C275 O270 1.259 . S
C275 O272 1.235 . S
O276 Co266 2.021 . S
O276 C273 1.222 1_655 S
O277 Co271 2.052 . S
O277 C273 1.256 . S
O278 Co266 2.137 . S
O278 C269 1.247 . S
O279 Co266 2.244 1_455 S
O279 C269 1.272 1_455 S
O279 Co271 2.135 . S
Co280 O281 2.216 . S
Co280 O282 2.091 . S
Co280 O284 2.004 . S
Co280 O290 2.021 . S
Co280 O292 2.137 . S
Co280 O293 2.244 . S
O281 Co280 2.216 . S
O281 C288 1.247 . S
O282 Co280 2.091 . S
O282 C288 1.261 . S
C283 O292 1.247 . S
C283 O293 1.272 . S
O284 Co280 2.004 . S
O284 C289 1.259 . S
Co285 O286 2.061 . S
Co285 O291 2.052 . S
Co285 O293 2.135 . S
O286 Co285 2.061 . S
O286 C289 1.235 . S
C287 O290 1.238 . S
C287 O291 1.241 . S
C288 O281 1.247 . S
C288 O282 1.261 . S
C289 O284 1.259 . S
C289 O286 1.235 . S
O290 Co280 2.021 . S
O290 C287 1.238 . S
O291 Co285 2.052 . S
O291 C287 1.241 . S
O292 Co280 2.137 . S
O292 C283 1.247 . S
O293 Co280 2.244 . S
O293 C283 1.272 . S
O293 Co285 2.135 . S
Co294 O295 2.216 . S
Co294 O296 2.091 . S
Co294 O298 2.004 . S
Co294 O304 2.021 . S
Co294 O306 2.137 . S
Co294 O307 2.244 . S
O295 Co294 2.216 . S
O295 C302 1.247 . S
O296 Co294 2.091 . S
O296 C302 1.261 . S
C297 O306 1.247 . S
C297 O307 1.272 . S
O298 Co294 2.004 . S
O298 C303 1.259 . S
Co299 O300 2.061 . S
Co299 O305 2.052 . S
Co299 O307 2.135 . S
O300 Co299 2.061 . S
O300 C303 1.235 . S
C301 O304 1.238 . S
C301 O305 1.241 . S
C302 O295 1.247 . S
C302 O296 1.261 . S
C303 O298 1.259 . S
C303 O300 1.235 . S
O304 Co294 2.021 . S
O304 C301 1.238 . S
O305 Co299 2.052 . S
O305 C301 1.241 . S
O306 Co294 2.137 . S
O306 C297 1.247 . S
O307 Co294 2.244 . S
O307 C297 1.272 . S
O307 Co299 2.135 . S
Co308 O309 2.216 . S
Co308 O310 2.091 . S
Co308 O312 2.004 . S
Co308 O318 2.021 . S
Co308 O320 2.137 . S
Co308 O321 2.244 . S
O309 Co308 2.216 . S
O309 C316 1.247 . S
O310 Co308 2.091 . S
O310 C316 1.261 . S
C311 O320 1.247 . S
C311 O321 1.272 . S
O312 Co308 2.004 . S
O312 C317 1.259 . S
Co313 O314 2.061 . S
Co313 O319 2.052 . S
Co313 O321 2.135 . S
O314 Co313 2.061 . S
O314 C317 1.235 . S
C315 O318 1.238 . S
C315 O319 1.241 . S
C316 O309 1.247 . S
C316 O310 1.261 . S
C317 O312 1.259 . S
C317 O314 1.235 . S
O318 Co308 2.021 . S
O318 C315 1.238 . S
O319 Co313 2.052 . S
O319 C315 1.241 . S
O320 Co308 2.137 . S
O320 C311 1.247 . S
O321 Co308 2.244 . S
O321 C311 1.272 . S
O321 Co313 2.135 . S
Co322 O323 2.216 . S
Co322 O324 2.091 . S
Co322 O326 2.004 . S
Co322 O332 2.021 . S
Co322 O334 2.137 . S
Co322 O335 2.244 . S
O323 Co322 2.216 . S
O323 C330 1.247 . S
O324 Co322 2.091 . S
O324 C330 1.261 . S
C325 O334 1.247 . S
C325 O335 1.272 . S
O326 Co322 2.004 . S
O326 C331 1.259 . S
Co327 O328 2.061 . S
Co327 O333 2.052 . S
Co327 O335 2.135 . S
O328 Co327 2.061 . S
O328 C331 1.235 . S
C329 O332 1.238 . S
C329 O333 1.241 . S
C330 O323 1.247 . S
C330 O324 1.261 . S
C331 O326 1.259 . S
C331 O328 1.235 . S
O332 Co322 2.021 . S
O332 C329 1.238 . S
O333 Co327 2.052 . S
O333 C329 1.241 . S
O334 Co322 2.137 . S
O334 C325 1.247 . S
O335 Co322 2.244 . S
O335 C325 1.272 . S
O335 Co327 2.135 . S
Co336 O337 2.216 . S
Co336 O338 2.091 . S
Co336 O340 2.004 . S
Co336 O346 2.021 . S
Co336 O348 2.137 . S
Co336 O349 2.244 1_565 S
O337 Co336 2.216 . S
O337 C344 1.247 . S
O338 Co336 2.091 . S
O338 C344 1.261 . S
C339 O348 1.247 . S
C339 O349 1.272 1_565 S
O340 Co336 2.004 . S
O340 C345 1.259 . S
Co341 O342 2.061 1_545 S
Co341 O347 2.052 . S
Co341 O349 2.135 . S
O342 Co341 2.061 1_565 S
O342 C345 1.235 . S
C343 O346 1.226 1_545 S
C343 O347 1.249 . S
C344 O337 1.247 . S
C344 O338 1.261 . S
C345 O340 1.259 . S
C345 O342 1.235 . S
O346 Co336 2.021 . S
O346 C343 1.226 1_565 S
O347 Co341 2.052 . S
O347 C343 1.249 . S
O348 Co336 2.137 . S
O348 C339 1.247 . S
O349 Co336 2.244 1_545 S
O349 C339 1.272 1_545 S
O349 Co341 2.135 . S
Co350 O351 2.216 . S
Co350 O352 2.091 . S
Co350 O354 2.004 . S
Co350 O360 2.021 . S
Co350 O362 2.137 . S
Co350 O363 2.244 1_455 S
O351 Co350 2.216 . S
O351 C358 1.247 . S
O352 Co350 2.091 . S
O352 C358 1.261 . S
C353 O362 1.247 . S
C353 O363 1.272 1_455 S
O354 Co350 2.004 . S
O354 C359 1.259 . S
Co355 O356 2.061 1_655 S
Co355 O361 2.052 . S
Co355 O363 2.135 . S
O356 Co355 2.061 1_455 S
O356 C359 1.235 . S
C357 O360 1.222 1_655 S
C357 O361 1.256 . S
C358 O351 1.247 . S
C358 O352 1.261 . S
C359 O354 1.259 . S
C359 O356 1.235 . S
O360 Co350 2.021 . S
O360 C357 1.222 1_455 S
O361 Co355 2.052 . S
O361 C357 1.256 . S
O362 Co350 2.137 . S
O362 C353 1.247 . S
O363 Co350 2.244 1_655 S
O363 C353 1.272 1_655 S
O363 Co355 2.135 . S
Co364 O365 2.216 . S
Co364 O366 2.091 . S
Co364 O368 2.004 . S
Co364 O374 2.021 . S
Co364 O376 2.137 . S
Co364 O377 2.244 . S
O365 Co364 2.216 . S
O365 C372 1.247 . S
O366 Co364 2.091 . S
O366 C372 1.261 . S
C367 O376 1.247 . S
C367 O377 1.272 . S
O368 Co364 2.004 . S
O368 C373 1.259 . S
Co369 O370 2.061 . S
Co369 O375 2.052 . S
Co369 O377 2.135 . S
O370 Co369 2.061 . S
O370 C373 1.235 . S
C371 O374 1.238 . S
C371 O375 1.241 . S
C372 O365 1.247 . S
C372 O366 1.261 . S
C373 O368 1.259 . S
C373 O370 1.235 . S
O374 Co364 2.021 . S
O374 C371 1.238 . S
O375 Co369 2.052 . S
O375 C371 1.241 . S
O376 Co364 2.137 . S
O376 C367 1.247 . S
O377 Co364 2.244 . S
O377 C367 1.272 . S
O377 Co369 2.135 . S
Co378 O379 2.216 . S
Co378 O380 2.091 . S
Co378 O382 2.004 . S
Co378 O388 2.021 . S
Co378 O390 2.137 . S
Co378 O391 2.244 . S
O379 Co378 2.216 . S
O379 C386 1.247 . S
O380 Co378 2.091 . S
O380 C386 1.261 . S
C381 O390 1.247 . S
C381 O391 1.272 . S
O382 Co378 2.004 . S
O382 C387 1.259 . S
Co383 O384 2.061 . S
Co383 O389 2.052 . S
Co383 O391 2.135 . S
O384 Co383 2.061 . S
O384 C387 1.235 . S
C385 O388 1.238 . S
C385 O389 1.241 . S
C386 O379 1.247 . S
C386 O380 1.261 . S
C387 O382 1.259 . S
C387 O384 1.235 . S
O388 Co378 2.021 . S
O388 C385 1.238 . S
O389 Co383 2.052 . S
O389 C385 1.241 . S
O390 Co378 2.137 . S
O390 C381 1.247 . S
O391 Co378 2.244 . S
O391 C381 1.272 . S
O391 Co383 2.135 . S
Co392 O393 2.216 . S
Co392 O394 2.091 . S
Co392 O396 2.004 . S
Co392 O402 2.021 . S
Co392 O404 2.137 . S
Co392 O405 2.244 . S
O393 Co392 2.216 . S
O393 C400 1.247 . S
O394 Co392 2.091 . S
O394 C400 1.261 . S
C395 O404 1.247 . S
C395 O405 1.272 . S
O396 Co392 2.004 . S
O396 C401 1.259 . S
Co397 O398 2.061 . S
Co397 O403 2.052 . S
Co397 O405 2.135 . S
O398 Co397 2.061 . S
O398 C401 1.235 . S
C399 O402 1.238 . S
C399 O403 1.241 . S
C400 O393 1.247 . S
C400 O394 1.261 . S
C401 O396 1.259 . S
C401 O398 1.235 . S
O402 Co392 2.021 . S
O402 C399 1.238 . S
O403 Co397 2.052 . S
O403 C399 1.241 . S
O404 Co392 2.137 . S
O404 C395 1.247 . S
O405 Co392 2.244 . S
O405 C395 1.272 . S
O405 Co397 2.135 . S
Co406 O407 2.216 . S
Co406 O408 2.091 . S
Co406 O410 2.004 . S
Co406 O416 2.021 . S
Co406 O418 2.137 . S
Co406 O419 2.244 . S
O407 Co406 2.216 . S
O407 C414 1.247 . S
O408 Co406 2.091 . S
O408 C414 1.261 . S
C409 O418 1.247 . S
C409 O419 1.272 . S
O410 Co406 2.004 . S
O410 C415 1.259 . S
Co411 O412 2.061 . S
Co411 O417 2.052 . S
Co411 O419 2.135 . S
O412 Co411 2.061 . S
O412 C415 1.235 . S
C413 O416 1.238 . S
C413 O417 1.241 . S
C414 O407 1.247 . S
C414 O408 1.261 . S
C415 O410 1.259 . S
C415 O412 1.235 . S
O416 Co406 2.021 . S
O416 C413 1.238 . S
O417 Co411 2.052 . S
O417 C413 1.241 . S
O418 Co406 2.137 . S
O418 C409 1.247 . S
O419 Co406 2.244 . S
O419 C409 1.272 . S
O419 Co411 2.135 . S
Co420 O421 2.216 . S
Co420 O422 2.091 . S
Co420 O424 2.004 . S
Co420 O430 2.021 . S
Co420 O432 2.137 . S
Co420 O433 2.244 . S
O421 Co420 2.216 . S
O421 C428 1.247 . S
O422 Co420 2.091 . S
O422 C428 1.261 . S
C423 O432 1.247 . S
C423 O433 1.272 . S
O424 Co420 2.004 . S
O424 C429 1.259 . S
Co425 O426 2.061 . S
Co425 O431 2.052 . S
Co425 O433 2.135 . S
O426 Co425 2.061 . S
O426 C429 1.235 . S
C427 O430 1.238 . S
C427 O431 1.241 . S
C428 O421 1.247 . S
C428 O422 1.261 . S
C429 O424 1.259 . S
C429 O426 1.235 . S
O430 Co420 2.021 . S
O430 C427 1.238 . S
O431 Co425 2.052 . S
O431 C427 1.241 . S
O432 Co420 2.137 . S
O432 C423 1.247 . S
O433 Co420 2.244 . S
O433 C423 1.272 . S
O433 Co425 2.135 . S
Co434 O435 2.216 . S
Co434 O436 2.091 . S
Co434 O438 2.004 . S
Co434 O444 2.021 . S
Co434 O446 2.137 . S
Co434 O447 2.244 . S
O435 Co434 2.216 . S
O435 C442 1.247 . S
O436 Co434 2.091 . S
O436 C442 1.261 . S
C437 O446 1.247 . S
C437 O447 1.272 . S
O438 Co434 2.004 . S
O438 C443 1.259 . S
Co439 O440 2.061 . S
Co439 O445 2.052 . S
Co439 O447 2.135 . S
O440 Co439 2.061 . S
O440 C443 1.235 . S
C441 O444 1.238 . S
C441 O445 1.241 . S
C442 O435 1.247 . S
C442 O436 1.261 . S
C443 O438 1.259 . S
C443 O440 1.235 . S
O444 Co434 2.021 . S
O444 C441 1.238 . S
O445 Co439 2.052 . S
O445 C441 1.241 . S
O446 Co434 2.137 . S
O446 C437 1.247 . S
O447 Co434 2.244 . S
O447 C437 1.272 . S
O447 Co439 2.135 . S
Co448 O449 2.216 . S
Co448 O450 2.091 . S
Co448 O452 2.004 . S
Co448 O458 2.021 . S
Co448 O460 2.137 . S
Co448 O461 2.244 . S
O449 Co448 2.216 . S
O449 C456 1.247 . S
O450 Co448 2.091 . S
O450 C456 1.261 . S
C451 O460 1.247 . S
C451 O461 1.272 . S
O452 Co448 2.004 . S
O452 C457 1.259 . S
Co453 O454 2.061 . S
Co453 O459 2.052 . S
Co453 O461 2.135 . S
O454 Co453 2.061 . S
O454 C457 1.235 . S
C455 O458 1.238 . S
C455 O459 1.241 . S
C456 O449 1.247 . S
C456 O450 1.261 . S
C457 O452 1.259 . S
C457 O454 1.235 . S
O458 Co448 2.021 . S
O458 C455 1.238 . S
O459 Co453 2.052 . S
O459 C455 1.241 . S
O460 Co448 2.137 . S
O460 C451 1.247 . S
O461 Co448 2.244 . S
O461 C451 1.272 . S
O461 Co453 2.135 . S
Co462 O463 2.216 . S
Co462 O464 2.091 . S
Co462 O466 2.004 . S
Co462 O472 2.021 . S
Co462 O474 2.137 . S
Co462 O475 2.244 1_455 S
O463 Co462 2.216 . S
O463 C470 1.247 . S
O464 Co462 2.091 . S
O464 C470 1.261 . S
C465 O474 1.247 . S
C465 O475 1.272 1_455 S
O466 Co462 2.004 . S
O466 C471 1.259 . S
Co467 O468 2.061 1_655 S
Co467 O473 2.052 . S
Co467 O475 2.135 . S
O468 Co467 2.061 1_455 S
O468 C471 1.235 . S
C469 O472 1.226 1_655 S
C469 O473 1.249 . S
C470 O463 1.247 . S
C470 O464 1.261 . S
C471 O466 1.259 . S
C471 O468 1.235 . S
O472 Co462 2.021 . S
O472 C469 1.226 1_455 S
O473 Co467 2.052 . S
O473 C469 1.249 . S
O474 Co462 2.137 . S
O474 C465 1.247 . S
O475 Co462 2.244 1_655 S
O475 C465 1.272 1_655 S
O475 Co467 2.135 . S
Co476 O477 2.216 . S
Co476 O478 2.091 . S
Co476 O480 2.004 . S
Co476 O486 2.021 . S
Co476 O488 2.137 . S
Co476 O489 2.244 . S
O477 Co476 2.216 . S
O477 C484 1.247 . S
O478 Co476 2.091 . S
O478 C484 1.261 . S
C479 O488 1.247 . S
C479 O489 1.272 . S
O480 Co476 2.004 . S
O480 C485 1.259 . S
Co481 O482 2.061 . S
Co481 O487 2.052 . S
Co481 O489 2.135 . S
O482 Co481 2.061 . S
O482 C485 1.235 . S
C483 O486 1.238 . S
C483 O487 1.241 . S
C484 O477 1.247 . S
C484 O478 1.261 . S
C485 O480 1.259 . S
C485 O482 1.235 . S
O486 Co476 2.021 . S
O486 C483 1.238 . S
O487 Co481 2.052 . S
O487 C483 1.241 . S
O488 Co476 2.137 . S
O488 C479 1.247 . S
O489 Co476 2.244 . S
O489 C479 1.272 . S
O489 Co481 2.135 . S
Co490 O491 2.216 . S
Co490 O492 2.091 . S
Co490 O494 2.004 . S
Co490 O500 2.021 . S
Co490 O502 2.137 . S
Co490 O503 2.244 1_565 S
O491 Co490 2.216 . S
O491 C498 1.247 . S
O492 Co490 2.091 . S
O492 C498 1.261 . S
C493 O502 1.247 . S
C493 O503 1.272 1_565 S
O494 Co490 2.004 . S
O494 C499 1.259 . S
Co495 O496 2.061 1_545 S
Co495 O501 2.052 . S
Co495 O503 2.135 . S
O496 Co495 2.061 1_565 S
O496 C499 1.235 . S
C497 O500 1.222 1_545 S
C497 O501 1.256 . S
C498 O491 1.247 . S
C498 O492 1.261 . S
C499 O494 1.259 . S
C499 O496 1.235 . S
O500 Co490 2.021 . S
O500 C497 1.222 1_565 S
O501 Co495 2.052 . S
O501 C497 1.256 . S
O502 Co490 2.137 . S
O502 C493 1.247 . S
O503 Co490 2.244 1_545 S
O503 C493 1.272 1_545 S
O503 Co495 2.135 . S
C9 C163 1.283 . S
C23 C135 1.283 . S
C149 C37 1.283 . S
C51 C107 1.283 . S
C121 C65 1.283 . S
C79 C93 1.283 . S
C331 C177 1.283 . S
C191 C303 1.283 . S
C205 C317 1.283 . S
C275 C219 1.283 . S
C233 C289 1.283 . S
C261 C247 1.283 . S
C345 C499 1.283 . S
C471 C359 1.283 . S
C485 C373 1.283 . S
C443 C387 1.283 . S
C457 C401 1.283 . S
C429 C415 1.283 . S
C8 C64 1.648 1_454 S
C78 C22 1.647 1_556 S
C36 C50 1.648 1_564 S
C92 C148 1.648 1_656 S
C106 C162 1.647 1_556 S
C120 C134 1.648 1_546 S
C232 C176 1.648 . S
C246 C190 1.648 . S
C204 C218 1.648 . S
C316 C260 1.648 . S
C330 C274 1.648 . S
C288 C302 1.648 . S
C400 C344 1.648 . S
C358 C414 1.648 . S
C372 C386 1.648 . S
C484 C428 1.648 . S
C442 C498 1.648 . S
C470 C456 1.648 . S
C413 C7 1.132 . S
C21 C385 1.132 . S
C35 C399 1.132 . S
C49 C189 1.132 . S
C203 C63 1.132 . S
C175 C77 1.132 . S
C91 C329 1.132 . S
C105 C301 1.132 . S
C119 C315 1.132 . S
C441 C133 1.132 . S
C455 C147 1.132 . S
C161 C427 1.132 . S
C357 C217 1.132 1_655 S
C231 C371 1.132 . S
C343 C245 1.131 1_545 S
C497 C259 1.132 1_545 S
C273 C469 1.132 1_455 S
C287 C483 1.132 . S
C3 C409 1.734 . S
C381 C17 1.734 . S
C31 C395 1.735 . S
C185 C45 1.734 . S
C59 C199 1.735 . S
C73 C171 1.734 . S
C325 C87 1.734 . S
C101 C297 1.734 . S
C115 C311 1.735 . S
C129 C437 1.734 . S
C451 C143 1.735 . S
C157 C423 1.734 . S
C353 C213 1.735 1_456 S
C227 C367 1.735 1_554 S
C241 C339 1.735 1_544 S
C493 C255 1.735 1_566 S
C465 C269 1.735 1_456 S
C283 C479 1.735 1_554 S
