# Generated by pormake.
# Topology xfw, (5)-cn, num edge types: 1
# Building blocks:
#     Node 0, Type 0, BuildingBlock: XOMCOT_clean_sbu_0, # of connection points: 5
#     Node 1, Type 0, BuildingBlock: XOMCOT_clean_sbu_0, # of connection points: 5
#     Node 2, Type 0, BuildingBlock: XOMCOT_clean_sbu_0, # of connection points: 5
#     Node 3, Type 0, BuildingBlock: XOMCOT_clean_sbu_0, # of connection points: 5
#     Node 4, Type 0, BuildingBlock: XOMCOT_clean_sbu_0, # of connection points: 5
#     Node 5, Type 0, BuildingBlock: XOMCOT_clean_sbu_0, # of connection points: 5
#     Node 6, Type 0, BuildingBlock: XOMCOT_clean_sbu_0, # of connection points: 5
#     Node 7, Type 0, BuildingBlock: XOMCOT_clean_sbu_0, # of connection points: 5
#     Edge 8, Type (0, 0), None
#     Edge 9, Type (0, 0), None
#     Edge 10, Type (0, 0), None
#     Edge 11, Type (0, 0), None
#     Edge 12, Type (0, 0), None
#     Edge 13, Type (0, 0), None
#     Edge 14, Type (0, 0), None
#     Edge 15, Type (0, 0), None
#     Edge 16, Type (0, 0), None
#     Edge 17, Type (0, 0), None
#     Edge 18, Type (0, 0), None
#     Edge 19, Type (0, 0), None
#     Edge 20, Type (0, 0), None
#     Edge 21, Type (0, 0), None
#     Edge 22, Type (0, 0), None
#     Edge 23, Type (0, 0), None
#     Edge 24, Type (0, 0), None
#     Edge 25, Type (0, 0), None
#     Edge 26, Type (0, 0), None
#     Edge 27, Type (0, 0), None
# Relax obj value: 0.339
# Max RMSD: 0.312
# Mean RMSD: 0.312
data_MOF--net-xfw--node1-XOMCOT_clean_sbu_0--edge1-none
_symmetry_space_group_name_H-M    P1
_symmetry_Int_Tables_number       1
_symmetry_cell_setting            triclinic
loop_
_symmetry_equiv_pos_as_xyz
'x, y, z'
_cell_length_a     15.643412
_cell_length_b     15.643917
_cell_length_c     30.539337
_cell_angle_alpha  89.999882
_cell_angle_beta   90.00011
_cell_angle_gamma 90.001854
loop_
_atom_site_label
_atom_site_type_symbol
_atom_site_fract_x
_atom_site_fract_y
_atom_site_fract_z
_atom_type_partial_charge
Co0 Co 0.18056 0.09003 0.61635 0.0
C1 C 0.15401 0.09394 0.71045 0.0
C2 C 0.09896 0.20638 0.68133 0.0
C3 C 0.08989 0.21159 0.72636 0.0
N4 N 0.13941 0.13263 0.67168 0.0
N5 N 0.12529 0.14097 0.74404 0.0
H6 H 0.1872 0.03372 0.7142 0.0
H7 H 0.07993 0.25413 0.6577 0.0
C8 C 0.09221 0.22844 0.56217 0.0
O9 O 0.14699 0.28594 0.57617 0.0
N10 N 0.22605 0.04591 0.5615 0.0
C11 C 0.31007 0.04499 0.55082 0.0
C12 C 0.32288 0.99071 0.51591 0.0
C13 C 0.18817 0.9964 0.53105 0.0
N14 N 0.24606 0.96148 0.50328 0.0
C15 C 0.30767 0.96831 0.64379 0.0
C16 C 0.42169 0.09218 0.67195 0.0
C17 C 0.45189 0.00839 0.66556 0.0
C18 C 0.39207 0.94535 0.65314 0.0
C19 C 0.3376 0.1128 0.66084 0.0
N20 N 0.28341 0.05183 0.64533 0.0
H21 H 0.26424 0.92066 0.63103 0.0
H22 H 0.31695 0.17877 0.662 0.0
H23 H 0.35988 0.07768 0.56875 0.0
H24 H 0.12065 0.98119 0.53095 0.0
O25 O 0.10932 0.98242 0.627 0.0
O26 O 0.05813 0.09068 0.59546 0.0
O27 O 0.08933 0.15308 0.57972 0.0
C28 C 0.04209 0.01734 0.61177 0.0
H29 H 0.06351 0.26463 0.74467 0.0
H30 H 0.38345 0.97467 0.50083 0.0
H31 H 0.46358 0.14279 0.683 0.0
H32 H 0.411 0.87993 0.64712 0.0
Co33 Co 0.09005 0.81717 0.41645 0.0
C34 C 0.09395 0.84371 0.32234 0.0
C35 C 0.2064 0.89877 0.35146 0.0
C36 C 0.2116 0.90784 0.30643 0.0
N37 N 0.13265 0.85832 0.36112 0.0
N38 N 0.14098 0.87244 0.28875 0.0
H39 H 0.03373 0.81052 0.3186 0.0
H40 H 0.25415 0.91782 0.37509 0.0
C41 C 0.22847 0.90554 0.47062 0.0
O42 O 0.28596 0.85074 0.45663 0.0
N43 N 0.04594 0.77168 0.47129 0.0
C44 C 0.04503 0.68767 0.48199 0.0
C45 C 0.99074 0.67485 0.51689 0.0
C46 C 0.99642 0.80956 0.50175 0.0
N47 N 0.9615 0.75167 0.52951 0.0
C48 C 0.96833 0.69005 0.38901 0.0
C49 C 0.0922 0.57604 0.36086 0.0
C50 C 0.00841 0.54583 0.36725 0.0
C51 C 0.94537 0.60565 0.37967 0.0
C52 C 0.11283 0.66013 0.37196 0.0
N53 N 0.05185 0.71431 0.38747 0.0
H54 H 0.92067 0.73347 0.40177 0.0
H55 H 0.17879 0.68078 0.3708 0.0
H56 H 0.07773 0.63787 0.46406 0.0
H57 H 0.9812 0.87707 0.50184 0.0
O58 O 0.98243 0.88841 0.4058 0.0
O59 O 0.09071 0.9396 0.43733 0.0
O60 O 0.1531 0.90841 0.45307 0.0
C61 C 0.01736 0.95564 0.42102 0.0
H62 H 0.26464 0.93423 0.28812 0.0
H63 H 0.97471 0.61429 0.53198 0.0
H64 H 0.14282 0.53415 0.34981 0.0
H65 H 0.87995 0.58672 0.3857 0.0
Co66 Co 0.81719 0.90767 0.61635 0.0
C67 C 0.84374 0.90377 0.71045 0.0
C68 C 0.89879 0.79132 0.68133 0.0
C69 C 0.90785 0.78612 0.72636 0.0
N70 N 0.85834 0.86507 0.67168 0.0
N71 N 0.87246 0.85674 0.74404 0.0
H72 H 0.81055 0.96398 0.7142 0.0
H73 H 0.91782 0.74357 0.65771 0.0
C74 C 0.90555 0.76926 0.56217 0.0
O75 O 0.85076 0.71177 0.57616 0.0
N76 N 0.77169 0.95178 0.5615 0.0
C77 C 0.68767 0.9527 0.55081 0.0
C78 C 0.67486 0.00698 0.51591 0.0
C79 C 0.80957 0.00129 0.53105 0.0
N80 N 0.75168 0.03621 0.50328 0.0
C81 C 0.69007 0.02938 0.64379 0.0
C82 C 0.57605 0.90551 0.67195 0.0
C83 C 0.54585 0.9893 0.66555 0.0
C84 C 0.60567 0.05234 0.65313 0.0
C85 C 0.66014 0.88489 0.66084 0.0
N86 N 0.71433 0.94586 0.64533 0.0
H87 H 0.73349 0.07704 0.63103 0.0
H88 H 0.68079 0.81893 0.662 0.0
H89 H 0.63787 0.92 0.56874 0.0
H90 H 0.87709 0.01651 0.53095 0.0
O91 O 0.88842 0.01529 0.62699 0.0
O92 O 0.93961 0.90702 0.59547 0.0
O93 O 0.90842 0.84463 0.57972 0.0
C94 C 0.95565 0.98037 0.61177 0.0
H95 H 0.93424 0.73308 0.74468 0.0
H96 H 0.61429 0.02302 0.50082 0.0
H97 H 0.53416 0.8549 0.683 0.0
H98 H 0.58674 0.11776 0.64711 0.0
Co99 Co 0.90769 0.18053 0.41645 0.0
C100 C 0.90378 0.154 0.32235 0.0
C101 C 0.79135 0.09892 0.35147 0.0
C102 C 0.78614 0.08985 0.30643 0.0
N103 N 0.86509 0.13939 0.36112 0.0
N104 N 0.85676 0.12527 0.28876 0.0
H105 H 0.964 0.1872 0.3186 0.0
H106 H 0.7436 0.07987 0.37509 0.0
C107 C 0.76928 0.09216 0.47062 0.0
O108 O 0.71178 0.14695 0.45663 0.0
N109 N 0.9518 0.22601 0.4713 0.0
C110 C 0.9527 0.31002 0.48199 0.0
C111 C 0.00701 0.32284 0.51689 0.0
C112 C 0.00135 0.18814 0.50174 0.0
N113 N 0.03628 0.24603 0.5295 0.0
C114 C 0.02941 0.30766 0.38902 0.0
C115 C 0.90553 0.42167 0.36086 0.0
C116 C 0.98932 0.45187 0.36726 0.0
C117 C 0.05236 0.39206 0.37968 0.0
C118 C 0.88491 0.33758 0.37197 0.0
N119 N 0.94589 0.28339 0.38747 0.0
H120 H 0.07707 0.26424 0.40177 0.0
H121 H 0.81894 0.31692 0.37081 0.0
H122 H 0.91998 0.35982 0.46407 0.0
H123 H 0.01657 0.12063 0.50183 0.0
O124 O 0.01531 0.1093 0.4058 0.0
O125 O 0.90704 0.0581 0.43733 0.0
O126 O 0.84464 0.08929 0.45307 0.0
C127 C 0.98039 0.04207 0.42103 0.0
H128 H 0.73311 0.06345 0.28812 0.0
H129 H 0.02302 0.38341 0.53199 0.0
H130 H 0.85491 0.46355 0.34981 0.0
H131 H 0.11778 0.411 0.3857 0.0
Co132 Co 0.8172 0.09006 0.11634 0.0
C133 C 0.84363 0.09394 0.21045 0.0
C134 C 0.89886 0.20633 0.18135 0.0
C135 C 0.90787 0.21152 0.2264 0.0
N136 N 0.85833 0.13262 0.17168 0.0
N137 N 0.87229 0.14098 0.24405 0.0
H138 H 0.81043 0.03373 0.21419 0.0
H139 H 0.91802 0.25404 0.15774 0.0
C140 C 0.90561 0.22847 0.06219 0.0
O141 O 0.85085 0.28599 0.07619 0.0
N142 N 0.77171 0.04599 0.06149 0.0
C143 C 0.6877 0.04512 0.05079 0.0
C144 C 0.67486 0.99083 1.01589 0.0
C145 C 0.80957 0.99645 0.03104 0.0
N146 N 0.75166 0.96156 1.00327 0.0
C147 C 0.69007 0.96833 0.14376 0.0
C148 C 0.57604 0.09219 0.17192 0.0
C149 C 0.54585 0.0084 0.16552 0.0
C150 C 0.60566 0.94537 0.1531 0.0
C151 C 0.66013 0.11282 0.16082 0.0
N152 N 0.71432 0.05186 0.14531 0.0
H153 H 0.73349 0.92069 0.13099 0.0
H154 H 0.68078 0.17879 0.16198 0.0
H155 H 0.63791 0.07784 0.06872 0.0
H156 H 0.87708 0.9812 0.03095 0.0
O157 O 0.88841 0.98243 0.12698 0.0
O158 O 0.93964 0.09071 0.09547 0.0
O159 O 0.90846 0.15311 0.07974 0.0
C160 C 0.95565 0.01735 0.11177 0.0
H161 H 0.93436 0.26449 0.24472 0.0
H162 H 0.61429 0.97483 1.00079 0.0
H163 H 0.53415 0.14279 0.18298 0.0
H164 H 0.58674 0.87995 0.14707 0.0
Co165 Co 0.09008 0.18053 0.91646 0.0
C166 C 0.09397 0.15412 0.82234 0.0
C167 C 0.20634 0.09886 0.85144 0.0
C168 C 0.21153 0.08985 0.8064 0.0
N169 N 0.13264 0.13941 0.86111 0.0
N170 N 0.14099 0.12545 0.78875 0.0
H171 H 0.03376 0.18733 0.81861 0.0
H172 H 0.25404 0.07968 0.87506 0.0
C173 C 0.2285 0.09212 0.97061 0.0
O174 O 0.28601 0.14688 0.95661 0.0
N175 N 0.04601 0.226 0.97131 0.0
C176 C 0.04516 0.31001 0.98202 0.0
C177 C 0.99086 0.32285 0.01692 0.0
C178 C 0.99644 0.18814 1.00175 0.0
N179 N 0.96155 0.24605 0.02952 0.0
C180 C 0.96835 0.30765 0.88905 0.0
C181 C 0.09221 0.42169 0.86089 0.0
C182 C 0.00841 0.45188 0.86729 0.0
C183 C 0.94538 0.39206 0.87972 0.0
C184 C 0.11284 0.3376 0.87199 0.0
N185 N 0.05187 0.28341 0.8875 0.0
H186 H 0.9207 0.26422 0.90181 0.0
H187 H 0.17881 0.31696 0.87083 0.0
H188 H 0.07791 0.35979 0.9641 0.0
H189 H 0.98117 0.12064 1.00183 0.0
O190 O 0.98244 0.10931 0.90582 0.0
O191 O 0.09073 0.05809 0.93732 0.0
O192 O 0.15313 0.08927 0.95306 0.0
C193 C 0.01736 0.04207 0.92103 0.0
H194 H 0.26449 0.06334 0.78808 0.0
H195 H 0.97488 0.38341 0.03201 0.0
H196 H 0.14281 0.46359 0.84984 0.0
H197 H 0.87996 0.41098 0.88575 0.0
Co198 Co 0.18054 0.90765 0.11634 0.0
C199 C 0.15412 0.90376 0.21045 0.0
C200 C 0.09887 0.79138 0.18135 0.0
C201 C 0.08986 0.78619 0.22639 0.0
N202 N 0.13941 0.86508 0.17168 0.0
N203 N 0.12545 0.85673 0.24405 0.0
H204 H 0.18732 0.96397 0.21419 0.0
H205 H 0.0797 0.74368 0.15773 0.0
C206 C 0.09212 0.76923 0.06219 0.0
O207 O 0.14687 0.71172 0.07619 0.0
N208 N 0.22602 0.95172 0.06148 0.0
C209 C 0.31003 0.95258 0.05078 0.0
C210 C 0.32287 0.00688 1.01588 0.0
C211 C 0.18816 0.00129 0.03104 0.0
N212 N 0.24607 0.03618 1.00328 0.0
C213 C 0.30767 0.02937 0.14375 0.0
C214 C 0.4217 0.90551 0.17191 0.0
C215 C 0.45189 0.9893 0.16552 0.0
C216 C 0.39208 0.05233 0.15309 0.0
C217 C 0.33761 0.88488 0.16081 0.0
N218 N 0.28342 0.94585 0.1453 0.0
H219 H 0.26425 0.07702 0.13099 0.0
H220 H 0.31695 0.81892 0.16197 0.0
H221 H 0.35982 0.91984 0.0687 0.0
H222 H 0.12066 0.01654 0.03096 0.0
O223 O 0.10933 0.01528 0.12698 0.0
O224 O 0.0581 0.907 0.09547 0.0
O225 O 0.08928 0.8446 0.07973 0.0
C226 C 0.04208 0.98036 0.11176 0.0
H227 H 0.06336 0.73322 0.24472 0.0
H228 H 0.38344 0.02286 1.00079 0.0
H229 H 0.46358 0.8549 0.18297 0.0
H230 H 0.41101 0.11775 0.14707 0.0
Co231 Co 0.90765 0.81719 0.91646 0.0
C232 C 0.90377 0.84359 0.82234 0.0
C233 C 0.7914 0.89885 0.85144 0.0
C234 C 0.78621 0.90786 0.8064 0.0
N235 N 0.86509 0.8583 0.86111 0.0
N236 N 0.85675 0.87226 0.78875 0.0
H237 H 0.96398 0.81038 0.81861 0.0
H238 H 0.7437 0.91803 0.87506 0.0
C239 C 0.76924 0.90561 0.97061 0.0
O240 O 0.71172 0.85084 0.95661 0.0
N241 N 0.95172 0.77171 0.97131 0.0
C242 C 0.95256 0.6877 0.98202 0.0
C243 C 0.00686 0.67486 0.01692 0.0
C244 C 0.00129 0.80957 1.00175 0.0
N245 N 0.03618 0.75166 0.02952 0.0
C246 C 0.02938 0.69005 0.88906 0.0
C247 C 0.90551 0.57602 0.8609 0.0
C248 C 0.98931 0.54583 0.8673 0.0
C249 C 0.05234 0.60565 0.87972 0.0
C250 C 0.88488 0.66011 0.87199 0.0
N251 N 0.94585 0.7143 0.8875 0.0
H252 H 0.07703 0.73348 0.90182 0.0
H253 H 0.81892 0.68076 0.87083 0.0
H254 H 0.91981 0.63792 0.9641 0.0
H255 H 0.01656 0.87707 1.00183 0.0
O256 O 0.01529 0.8884 0.90582 0.0
O257 O 0.90701 0.93962 0.93732 0.0
O258 O 0.8446 0.90845 0.95306 0.0
C259 C 0.98038 0.95564 0.92103 0.0
H260 H 0.73325 0.93437 0.78808 0.0
H261 H 0.02284 0.6143 0.03202 0.0
H262 H 0.85491 0.53412 0.84984 0.0
H263 H 0.11776 0.58672 0.88575 0.0
loop_
_geom_bond_atom_site_label_1
_geom_bond_atom_site_label_2
_geom_bond_distance
_geom_bond_site_symmetry_2
_ccdc_geom_bond_type
Co0 N4 2.148 . S
Co0 N10 2.128 1_545 S
Co0 N20 2.194 . S
Co0 O25 2.351 1_545 S
Co0 O26 2.155 . S
Co0 O27 2.096 . S
C1 N4 1.301 . S
C1 N5 1.328 . S
C1 H6 0.930 . S
C2 C3 1.333 . S
C2 N4 1.317 . S
C2 H7 0.930 . S
C3 C2 1.333 . S
C3 N5 1.350 . S
C3 H29 0.931 . S
N4 Co0 2.148 . S
N4 C1 1.301 . S
N4 C2 1.317 . S
N5 C1 1.328 . S
N5 C3 1.350 . S
H6 C1 0.930 . S
H7 C2 0.930 . S
C8 O9 1.224 . S
C8 O27 1.247 . S
O9 C8 1.224 . S
N10 Co0 2.128 1_565 S
N10 C11 1.355 . S
N10 C13 1.311 . S
C11 N10 1.355 . S
C11 C12 1.363 . S
C11 H23 0.929 . S
C12 C11 1.363 . S
C12 N14 1.375 . S
C12 H30 0.931 . S
C13 N10 1.311 . S
C13 N14 1.347 . S
C13 H24 0.929 1_565 S
N14 C12 1.375 . S
N14 C13 1.347 . S
C15 C18 1.365 . S
C15 N20 1.328 1_565 S
C15 H21 0.929 . S
C16 C17 1.362 . S
C16 C19 1.378 . S
C16 H31 0.929 . S
C17 C16 1.362 . S
C17 C18 1.366 1_545 S
C18 C15 1.365 . S
C18 C17 1.366 1_565 S
C18 H32 0.930 . S
C19 C16 1.378 . S
C19 N20 1.315 . S
C19 H22 0.930 . S
N20 Co0 2.194 . S
N20 C15 1.328 1_545 S
N20 C19 1.315 . S
H21 C15 0.929 . S
H22 C19 0.930 . S
H23 C11 0.929 . S
H24 C13 0.929 1_545 S
O25 Co0 2.351 1_565 S
O25 C28 1.244 . S
O26 Co0 2.155 . S
O26 C28 1.240 1_545 S
O27 Co0 2.096 . S
O27 C8 1.247 . S
C28 O25 1.244 . S
C28 O26 1.240 1_565 S
H29 C3 0.931 . S
H30 C12 0.931 . S
H31 C16 0.929 . S
H32 C18 0.930 . S
Co33 N37 2.148 . S
Co33 N43 2.128 1_455 S
Co33 N53 2.194 . S
Co33 O58 2.351 1_455 S
Co33 O59 2.155 . S
Co33 O60 2.096 . S
C34 N37 1.301 . S
C34 N38 1.328 . S
C34 H39 0.930 . S
C35 C36 1.333 . S
C35 N37 1.317 . S
C35 H40 0.930 . S
C36 C35 1.333 . S
C36 N38 1.350 . S
C36 H62 0.931 . S
N37 Co33 2.148 . S
N37 C34 1.301 . S
N37 C35 1.317 . S
N38 C34 1.328 . S
N38 C36 1.350 . S
H39 C34 0.930 . S
H40 C35 0.930 . S
C41 O42 1.224 . S
C41 O60 1.247 . S
O42 C41 1.224 . S
N43 Co33 2.128 1_655 S
N43 C44 1.355 . S
N43 C46 1.311 . S
C44 N43 1.355 . S
C44 C45 1.363 . S
C44 H56 0.929 . S
C45 C44 1.363 . S
C45 N47 1.375 . S
C45 H63 0.931 . S
C46 N43 1.311 . S
C46 N47 1.347 . S
C46 H57 0.929 1_655 S
N47 C45 1.375 . S
N47 C46 1.347 . S
C48 C51 1.365 . S
C48 N53 1.328 1_655 S
C48 H54 0.929 . S
C49 C50 1.362 . S
C49 C52 1.378 . S
C49 H64 0.929 . S
C50 C49 1.362 . S
C50 C51 1.366 1_455 S
C51 C48 1.365 . S
C51 C50 1.366 1_655 S
C51 H65 0.930 . S
C52 C49 1.378 . S
C52 N53 1.315 . S
C52 H55 0.930 . S
N53 Co33 2.194 . S
N53 C48 1.328 1_455 S
N53 C52 1.315 . S
H54 C48 0.929 . S
H55 C52 0.930 . S
H56 C44 0.929 . S
H57 C46 0.929 1_455 S
O58 Co33 2.351 1_655 S
O58 C61 1.244 . S
O59 Co33 2.155 . S
O59 C61 1.240 1_455 S
O60 Co33 2.096 . S
O60 C41 1.247 . S
C61 O58 1.244 . S
C61 O59 1.240 1_655 S
H62 C36 0.931 . S
H63 C45 0.931 . S
H64 C49 0.929 . S
H65 C51 0.930 . S
Co66 N70 2.148 . S
Co66 N76 2.128 1_565 S
Co66 N86 2.194 . S
Co66 O91 2.351 1_565 S
Co66 O92 2.155 . S
Co66 O93 2.096 . S
C67 N70 1.301 . S
C67 N71 1.328 . S
C67 H72 0.930 . S
C68 C69 1.333 . S
C68 N70 1.317 . S
C68 H73 0.930 . S
C69 C68 1.333 . S
C69 N71 1.350 . S
C69 H95 0.931 . S
N70 Co66 2.148 . S
N70 C67 1.301 . S
N70 C68 1.317 . S
N71 C67 1.328 . S
N71 C69 1.350 . S
H72 C67 0.930 . S
H73 C68 0.930 . S
C74 O75 1.224 . S
C74 O93 1.247 . S
O75 C74 1.224 . S
N76 Co66 2.128 1_545 S
N76 C77 1.355 . S
N76 C79 1.311 . S
C77 N76 1.355 . S
C77 C78 1.363 . S
C77 H89 0.929 . S
C78 C77 1.363 . S
C78 N80 1.375 . S
C78 H96 0.931 . S
C79 N76 1.311 . S
C79 N80 1.347 . S
C79 H90 0.929 1_545 S
N80 C78 1.375 . S
N80 C79 1.347 . S
C81 C84 1.365 . S
C81 N86 1.328 1_545 S
C81 H87 0.929 . S
C82 C83 1.362 . S
C82 C85 1.378 . S
C82 H97 0.929 . S
C83 C82 1.362 . S
C83 C84 1.366 1_565 S
C84 C81 1.365 . S
C84 C83 1.366 1_545 S
C84 H98 0.930 . S
C85 C82 1.378 . S
C85 N86 1.315 . S
C85 H88 0.930 . S
N86 Co66 2.194 . S
N86 C81 1.328 1_565 S
N86 C85 1.315 . S
H87 C81 0.929 . S
H88 C85 0.930 . S
H89 C77 0.929 . S
H90 C79 0.929 1_565 S
O91 Co66 2.351 1_545 S
O91 C94 1.244 . S
O92 Co66 2.155 . S
O92 C94 1.240 1_565 S
O93 Co66 2.096 . S
O93 C74 1.247 . S
C94 O91 1.244 . S
C94 O92 1.240 1_545 S
H95 C69 0.931 . S
H96 C78 0.931 . S
H97 C82 0.929 . S
H98 C84 0.930 . S
Co99 N103 2.148 . S
Co99 N109 2.128 1_655 S
Co99 N119 2.194 . S
Co99 O124 2.351 1_655 S
Co99 O125 2.155 . S
Co99 O126 2.096 . S
C100 N103 1.301 . S
C100 N104 1.328 . S
C100 H105 0.930 . S
C101 C102 1.333 . S
C101 N103 1.317 . S
C101 H106 0.930 . S
C102 C101 1.333 . S
C102 N104 1.350 . S
C102 H128 0.931 . S
N103 Co99 2.148 . S
N103 C100 1.301 . S
N103 C101 1.317 . S
N104 C100 1.328 . S
N104 C102 1.350 . S
H105 C100 0.930 . S
H106 C101 0.930 . S
C107 O108 1.224 . S
C107 O126 1.247 . S
O108 C107 1.224 . S
N109 Co99 2.128 1_455 S
N109 C110 1.355 . S
N109 C112 1.311 . S
C110 N109 1.355 . S
C110 C111 1.363 . S
C110 H122 0.929 . S
C111 C110 1.363 . S
C111 N113 1.375 . S
C111 H129 0.931 . S
C112 N109 1.311 . S
C112 N113 1.347 . S
C112 H123 0.929 1_455 S
N113 C111 1.375 . S
N113 C112 1.347 . S
C114 C117 1.365 . S
C114 N119 1.328 1_455 S
C114 H120 0.929 . S
C115 C116 1.362 . S
C115 C118 1.378 . S
C115 H130 0.929 . S
C116 C115 1.362 . S
C116 C117 1.366 1_655 S
C117 C114 1.365 . S
C117 C116 1.366 1_455 S
C117 H131 0.930 . S
C118 C115 1.378 . S
C118 N119 1.315 . S
C118 H121 0.930 . S
N119 Co99 2.194 . S
N119 C114 1.328 1_655 S
N119 C118 1.315 . S
H120 C114 0.929 . S
H121 C118 0.930 . S
H122 C110 0.929 . S
H123 C112 0.929 1_655 S
O124 Co99 2.351 1_455 S
O124 C127 1.244 . S
O125 Co99 2.155 . S
O125 C127 1.240 1_655 S
O126 Co99 2.096 . S
O126 C107 1.247 . S
C127 O124 1.244 . S
C127 O125 1.240 1_455 S
H128 C102 0.931 . S
H129 C111 0.931 . S
H130 C115 0.929 . S
H131 C117 0.930 . S
Co132 N136 2.148 . S
Co132 N142 2.128 1_545 S
Co132 N152 2.194 . S
Co132 O157 2.351 1_545 S
Co132 O158 2.155 . S
Co132 O159 2.096 . S
C133 N136 1.301 . S
C133 N137 1.328 . S
C133 H138 0.930 . S
C134 C135 1.333 . S
C134 N136 1.317 . S
C134 H139 0.930 . S
C135 C134 1.333 . S
C135 N137 1.350 . S
C135 H161 0.931 . S
N136 Co132 2.148 . S
N136 C133 1.301 . S
N136 C134 1.317 . S
N137 C133 1.328 . S
N137 C135 1.350 . S
H138 C133 0.930 . S
H139 C134 0.930 . S
C140 O141 1.224 . S
C140 O159 1.247 . S
O141 C140 1.224 . S
N142 Co132 2.128 1_565 S
N142 C143 1.355 . S
N142 C145 1.311 . S
C143 N142 1.355 . S
C143 C144 1.363 . S
C143 H155 0.929 . S
C144 C143 1.363 . S
C144 N146 1.375 1_554 S
C144 H162 0.931 . S
C145 N142 1.311 . S
C145 N146 1.347 1_554 S
C145 H156 0.929 1_564 S
N146 C144 1.375 1_556 S
N146 C145 1.347 1_556 S
C147 C150 1.365 . S
C147 N152 1.328 1_565 S
C147 H153 0.929 . S
C148 C149 1.362 . S
C148 C151 1.378 . S
C148 H163 0.929 . S
C149 C148 1.362 . S
C149 C150 1.366 1_545 S
C150 C147 1.365 . S
C150 C149 1.366 1_565 S
C150 H164 0.930 . S
C151 C148 1.378 . S
C151 N152 1.315 . S
C151 H154 0.930 . S
N152 Co132 2.194 . S
N152 C147 1.328 1_545 S
N152 C151 1.315 . S
H153 C147 0.929 . S
H154 C151 0.930 . S
H155 C143 0.929 . S
H156 C145 0.929 1_546 S
O157 Co132 2.351 1_565 S
O157 C160 1.244 . S
O158 Co132 2.155 . S
O158 C160 1.240 1_545 S
O159 Co132 2.096 . S
O159 C140 1.247 . S
C160 O157 1.244 . S
C160 O158 1.240 1_565 S
H161 C135 0.931 . S
H162 C144 0.931 . S
H163 C148 0.929 . S
H164 C150 0.930 . S
Co165 N169 2.148 . S
Co165 N175 2.128 1_455 S
Co165 N185 2.194 . S
Co165 O190 2.351 1_455 S
Co165 O191 2.155 . S
Co165 O192 2.096 . S
C166 N169 1.301 . S
C166 N170 1.328 . S
C166 H171 0.930 . S
C167 C168 1.333 . S
C167 N169 1.317 . S
C167 H172 0.930 . S
C168 C167 1.333 . S
C168 N170 1.350 . S
C168 H194 0.931 . S
N169 Co165 2.148 . S
N169 C166 1.301 . S
N169 C167 1.317 . S
N170 C166 1.328 . S
N170 C168 1.350 . S
H171 C166 0.930 . S
H172 C167 0.930 . S
C173 O174 1.224 . S
C173 O192 1.247 . S
O174 C173 1.224 . S
N175 Co165 2.128 1_655 S
N175 C176 1.355 . S
N175 C178 1.311 . S
C176 N175 1.355 . S
C176 C177 1.363 . S
C176 H188 0.929 . S
C177 C176 1.363 . S
C177 N179 1.375 1_556 S
C177 H195 0.931 . S
C178 N175 1.311 . S
C178 N179 1.347 1_556 S
C178 H189 0.929 1_656 S
N179 C177 1.375 1_554 S
N179 C178 1.347 1_554 S
C180 C183 1.365 . S
C180 N185 1.328 1_655 S
C180 H186 0.929 . S
C181 C182 1.362 . S
C181 C184 1.378 . S
C181 H196 0.929 . S
C182 C181 1.362 . S
C182 C183 1.366 1_455 S
C183 C180 1.365 . S
C183 C182 1.366 1_655 S
C183 H197 0.930 . S
C184 C181 1.378 . S
C184 N185 1.315 . S
C184 H187 0.930 . S
N185 Co165 2.194 . S
N185 C180 1.328 1_455 S
N185 C184 1.315 . S
H186 C180 0.929 . S
H187 C184 0.930 . S
H188 C176 0.929 . S
H189 C178 0.929 1_454 S
O190 Co165 2.351 1_655 S
O190 C193 1.244 . S
O191 Co165 2.155 . S
O191 C193 1.240 1_455 S
O192 Co165 2.096 . S
O192 C173 1.247 . S
C193 O190 1.244 . S
C193 O191 1.240 1_655 S
H194 C168 0.931 . S
H195 C177 0.931 . S
H196 C181 0.929 . S
H197 C183 0.930 . S
Co198 N202 2.148 . S
Co198 N208 2.128 1_565 S
Co198 N218 2.194 . S
Co198 O223 2.351 1_565 S
Co198 O224 2.155 . S
Co198 O225 2.096 . S
C199 N202 1.301 . S
C199 N203 1.328 . S
C199 H204 0.930 . S
C200 C201 1.333 . S
C200 N202 1.317 . S
C200 H205 0.930 . S
C201 C200 1.333 . S
C201 N203 1.350 . S
C201 H227 0.931 . S
N202 Co198 2.148 . S
N202 C199 1.301 . S
N202 C200 1.317 . S
N203 C199 1.328 . S
N203 C201 1.350 . S
H204 C199 0.930 . S
H205 C200 0.930 . S
C206 O207 1.224 . S
C206 O225 1.247 . S
O207 C206 1.224 . S
N208 Co198 2.128 1_545 S
N208 C209 1.355 . S
N208 C211 1.311 . S
C209 N208 1.355 . S
C209 C210 1.363 . S
C209 H221 0.929 . S
C210 C209 1.363 . S
C210 N212 1.375 1_554 S
C210 H228 0.931 . S
C211 N208 1.311 . S
C211 N212 1.347 1_554 S
C211 H222 0.929 1_544 S
N212 C210 1.375 1_556 S
N212 C211 1.347 1_556 S
C213 C216 1.365 . S
C213 N218 1.328 1_545 S
C213 H219 0.929 . S
C214 C215 1.362 . S
C214 C217 1.378 . S
C214 H229 0.929 . S
C215 C214 1.362 . S
C215 C216 1.366 1_565 S
C216 C213 1.365 . S
C216 C215 1.366 1_545 S
C216 H230 0.930 . S
C217 C214 1.378 . S
C217 N218 1.315 . S
C217 H220 0.930 . S
N218 Co198 2.194 . S
N218 C213 1.328 1_565 S
N218 C217 1.315 . S
H219 C213 0.929 . S
H220 C217 0.930 . S
H221 C209 0.929 . S
H222 C211 0.929 1_566 S
O223 Co198 2.351 1_545 S
O223 C226 1.244 . S
O224 Co198 2.155 . S
O224 C226 1.240 1_565 S
O225 Co198 2.096 . S
O225 C206 1.247 . S
C226 O223 1.244 . S
C226 O224 1.240 1_545 S
H227 C201 0.931 . S
H228 C210 0.931 . S
H229 C214 0.929 . S
H230 C216 0.930 . S
Co231 N235 2.148 . S
Co231 N241 2.128 1_655 S
Co231 N251 2.194 . S
Co231 O256 2.351 1_655 S
Co231 O257 2.155 . S
Co231 O258 2.096 . S
C232 N235 1.301 . S
C232 N236 1.328 . S
C232 H237 0.930 . S
C233 C234 1.333 . S
C233 N235 1.317 . S
C233 H238 0.930 . S
C234 C233 1.333 . S
C234 N236 1.350 . S
C234 H260 0.931 . S
N235 Co231 2.148 . S
N235 C232 1.301 . S
N235 C233 1.317 . S
N236 C232 1.328 . S
N236 C234 1.350 . S
H237 C232 0.930 . S
H238 C233 0.930 . S
C239 O240 1.224 . S
C239 O258 1.247 . S
O240 C239 1.224 . S
N241 Co231 2.128 1_455 S
N241 C242 1.355 . S
N241 C244 1.311 . S
C242 N241 1.355 . S
C242 C243 1.363 . S
C242 H254 0.929 . S
C243 C242 1.363 . S
C243 N245 1.375 1_556 S
C243 H261 0.931 . S
C244 N241 1.311 . S
C244 N245 1.347 1_556 S
C244 H255 0.929 1_456 S
N245 C243 1.375 1_554 S
N245 C244 1.347 1_554 S
C246 C249 1.365 . S
C246 N251 1.328 1_455 S
C246 H252 0.929 . S
C247 C248 1.362 . S
C247 C250 1.378 . S
C247 H262 0.929 . S
C248 C247 1.362 . S
C248 C249 1.366 1_655 S
C249 C246 1.365 . S
C249 C248 1.366 1_455 S
C249 H263 0.930 . S
C250 C247 1.378 . S
C250 N251 1.315 . S
C250 H253 0.930 . S
N251 Co231 2.194 . S
N251 C246 1.328 1_655 S
N251 C250 1.315 . S
H252 C246 0.929 . S
H253 C250 0.930 . S
H254 C242 0.929 . S
H255 C244 0.929 1_654 S
O256 Co231 2.351 1_455 S
O256 C259 1.244 . S
O257 Co231 2.155 . S
O257 C259 1.240 1_655 S
O258 Co231 2.096 . S
O258 C239 1.247 . S
C259 O256 1.244 . S
C259 O257 1.240 1_455 S
H260 C234 0.931 . S
H261 C243 0.931 . S
H262 C247 0.929 . S
H263 C249 0.930 . S
N14 C41 1.255 . S
C74 N47 1.255 . S
N80 C107 1.255 . S
C8 N113 1.255 . S
C239 N146 1.255 . S
C140 N179 1.255 . S
C173 N212 1.255 . S
N245 C206 1.255 . S
C83 C17 1.442 1_565 S
C50 C116 1.442 1_455 S
C149 C215 1.442 1_545 S
C182 C248 1.442 1_455 S
C28 C94 1.610 1_465 S
C61 C127 1.610 1_665 S
C226 C160 1.610 1_445 S
C259 C193 1.610 1_465 S
N5 N170 2.952 . S
N203 N38 2.951 . S
N236 N71 2.952 . S
N104 N137 2.951 . S
