# Generated by pormake.
# Topology ukf, (4)-cn, num edge types: 1
# Building blocks:
#     Node 0, Type 0, BuildingBlock: TATPOV_clean_sbu_0, # of connection points: 4
#     Node 1, Type 0, BuildingBlock: TATPOV_clean_sbu_0, # of connection points: 4
#     Node 2, Type 0, BuildingBlock: TATPOV_clean_sbu_0, # of connection points: 4
#     Node 3, Type 0, BuildingBlock: TATPOV_clean_sbu_0, # of connection points: 4
#     Node 4, Type 0, BuildingBlock: TATPOV_clean_sbu_0, # of connection points: 4
#     Node 5, Type 0, BuildingBlock: TATPOV_clean_sbu_0, # of connection points: 4
#     Node 6, Type 0, BuildingBlock: TATPOV_clean_sbu_0, # of connection points: 4
#     Node 7, Type 0, BuildingBlock: TATPOV_clean_sbu_0, # of connection points: 4
#     Node 8, Type 0, BuildingBlock: TATPOV_clean_sbu_0, # of connection points: 4
#     Node 9, Type 0, BuildingBlock: TATPOV_clean_sbu_0, # of connection points: 4
#     Node 10, Type 0, BuildingBlock: TATPOV_clean_sbu_0, # of connection points: 4
#     Node 11, Type 0, BuildingBlock: TATPOV_clean_sbu_0, # of connection points: 4
#     Edge 12, Type (0, 0), BuildingBlock: UVAHIK_clean_linker_0, # of connection points: 2
#     Edge 13, Type (0, 0), BuildingBlock: UVAHIK_clean_linker_0, # of connection points: 2
#     Edge 14, Type (0, 0), BuildingBlock: UVAHIK_clean_linker_0, # of connection points: 2
#     Edge 15, Type (0, 0), BuildingBlock: UVAHIK_clean_linker_0, # of connection points: 2
#     Edge 16, Type (0, 0), BuildingBlock: UVAHIK_clean_linker_0, # of connection points: 2
#     Edge 17, Type (0, 0), BuildingBlock: UVAHIK_clean_linker_0, # of connection points: 2
#     Edge 18, Type (0, 0), BuildingBlock: UVAHIK_clean_linker_0, # of connection points: 2
#     Edge 19, Type (0, 0), BuildingBlock: UVAHIK_clean_linker_0, # of connection points: 2
#     Edge 20, Type (0, 0), BuildingBlock: UVAHIK_clean_linker_0, # of connection points: 2
#     Edge 21, Type (0, 0), BuildingBlock: UVAHIK_clean_linker_0, # of connection points: 2
#     Edge 22, Type (0, 0), BuildingBlock: UVAHIK_clean_linker_0, # of connection points: 2
#     Edge 23, Type (0, 0), BuildingBlock: UVAHIK_clean_linker_0, # of connection points: 2
#     Edge 24, Type (0, 0), BuildingBlock: UVAHIK_clean_linker_0, # of connection points: 2
#     Edge 25, Type (0, 0), BuildingBlock: UVAHIK_clean_linker_0, # of connection points: 2
#     Edge 26, Type (0, 0), BuildingBlock: UVAHIK_clean_linker_0, # of connection points: 2
#     Edge 27, Type (0, 0), BuildingBlock: UVAHIK_clean_linker_0, # of connection points: 2
#     Edge 28, Type (0, 0), BuildingBlock: UVAHIK_clean_linker_0, # of connection points: 2
#     Edge 29, Type (0, 0), BuildingBlock: UVAHIK_clean_linker_0, # of connection points: 2
#     Edge 30, Type (0, 0), BuildingBlock: UVAHIK_clean_linker_0, # of connection points: 2
#     Edge 31, Type (0, 0), BuildingBlock: UVAHIK_clean_linker_0, # of connection points: 2
#     Edge 32, Type (0, 0), BuildingBlock: UVAHIK_clean_linker_0, # of connection points: 2
#     Edge 33, Type (0, 0), BuildingBlock: UVAHIK_clean_linker_0, # of connection points: 2
#     Edge 34, Type (0, 0), BuildingBlock: UVAHIK_clean_linker_0, # of connection points: 2
#     Edge 35, Type (0, 0), BuildingBlock: UVAHIK_clean_linker_0, # of connection points: 2
# Relax obj value: 0.152
# Max RMSD: 0.163
# Mean RMSD: 0.163
data_MOF--net-ukf--node1-TATPOV_clean_sbu_0--edge1-UVAHIK_clean_linker_0
_symmetry_space_group_name_H-M    P1
_symmetry_Int_Tables_number       1
_symmetry_cell_setting            triclinic
loop_
_symmetry_equiv_pos_as_xyz
'x, y, z'
_cell_length_a     40.942546
_cell_length_b     41.265977
_cell_length_c     84.978231
_cell_angle_alpha  90.161485
_cell_angle_beta   90.331924
_cell_angle_gamma 119.68088
loop_
_atom_site_label
_atom_site_type_symbol
_atom_site_fract_x
_atom_site_fract_y
_atom_site_fract_z
_atom_type_partial_charge
Zn0 Zn 0.36873 0.2291 0.02079 0.0
Zn1 Zn 0.37584 0.20725 0.04988 0.0
O2 O 0.32428 0.16545 0.04168 0.0
O3 O 0.31645 0.18512 0.01866 0.0
O4 O 0.37844 0.19366 0.07252 0.0
O5 O 0.37751 0.27872 0.02905 0.0
O6 O 0.38568 0.26098 0.05242 0.0
C7 C 0.3045 0.16061 0.02931 0.0
C8 C 0.4304 0.21287 0.02467 0.0
O9 O 0.41939 0.20602 0.03889 0.0
O10 O 0.41352 0.22275 0.01488 0.0
C11 C 0.35449 0.19332 0.08209 0.0
O12 O 0.32821 0.19991 0.07669 0.0
C13 C 0.38549 0.28566 0.04352 0.0
Zn14 Zn 0.11887 0.3725 0.35901 0.0
Zn15 Zn 0.15057 0.38119 0.38762 0.0
O16 O 0.14175 0.32996 0.37959 0.0
O17 O 0.11165 0.32081 0.35701 0.0
O18 O 0.16798 0.38447 0.41018 0.0
O19 O 0.07778 0.38088 0.36747 0.0
O20 O 0.10589 0.39037 0.39051 0.0
C21 C 0.1259 0.30971 0.36747 0.0
C22 C 0.19642 0.43445 0.36182 0.0
O23 O 0.19395 0.42437 0.37614 0.0
O24 O 0.16884 0.41692 0.35244 0.0
C25 C 0.14459 0.36098 0.4198 0.0
O26 O 0.11177 0.33502 0.41442 0.0
C27 C 0.07984 0.38938 0.3819 0.0
Zn28 Zn 0.72447 0.12114 0.69129 0.0
Zn29 Zn 0.75182 0.14974 0.71985 0.0
O30 O 0.79187 0.13875 0.71025 0.0
O31 O 0.76804 0.1129 0.68726 0.0
O32 O 0.76898 0.16508 0.74236 0.0
O33 O 0.67596 0.08064 0.70024 0.0
O34 O 0.69783 0.10687 0.72334 0.0
C35 C 0.79443 0.12437 0.69731 0.0
C36 C 0.74277 0.19869 0.69568 0.0
O37 O 0.75252 0.19492 0.70953 0.0
O38 O 0.73009 0.17165 0.68598 0.0
C39 C 0.75199 0.1776 0.75075 0.0
O40 O 0.72559 0.18247 0.7442 0.0
C41 C 0.67143 0.08208 0.71489 0.0
Zn42 Zn 0.58849 0.72756 0.01863 0.0
Zn43 Zn 0.58898 0.75243 0.04799 0.0
O44 O 0.6391 0.79284 0.03833 0.0
O45 O 0.63923 0.77192 0.01448 0.0
O46 O 0.59167 0.76838 0.07072 0.0
O47 O 0.58251 0.679 0.02678 0.0
O48 O 0.57938 0.69882 0.05047 0.0
C49 C 0.6548 0.79689 0.02498 0.0
C50 C 0.52847 0.74449 0.02494 0.0
O51 O 0.54327 0.7534 0.03863 0.0
O52 O 0.54232 0.7327 0.01459 0.0
C53 C 0.56555 0.74705 0.07997 0.0
O54 O 0.53697 0.71643 0.07427 0.0
C55 C 0.57768 0.67335 0.04143 0.0
Zn56 Zn 0.83953 0.59175 0.35332 0.0
Zn57 Zn 0.80908 0.58657 0.38196 0.0
O58 O 0.81754 0.63663 0.37296 0.0
O59 O 0.8463 0.64315 0.3504 0.0
O60 O 0.79245 0.5863 0.40435 0.0
O61 O 0.88096 0.58438 0.36253 0.0
O62 O 0.85418 0.57838 0.3855 0.0
C63 C 0.83259 0.65542 0.36057 0.0
C64 C 0.76212 0.53016 0.35687 0.0
O65 O 0.76536 0.54199 0.37098 0.0
O66 O 0.78917 0.54651 0.34733 0.0
C67 C 0.78834 0.56017 0.41348 0.0
O68 O 0.79263 0.5329 0.40777 0.0
C69 C 0.87974 0.57809 0.37714 0.0
Zn70 Zn 0.23038 0.84824 0.69145 0.0
Zn71 Zn 0.20623 0.81762 0.72 0.0
O72 O 0.16359 0.82487 0.71066 0.0
O73 O 0.18484 0.85417 0.68823 0.0
O74 O 0.18969 0.80116 0.74233 0.0
O75 O 0.27866 0.88974 0.70065 0.0
O76 O 0.25901 0.86266 0.72358 0.0
C77 C 0.15889 0.83959 0.69829 0.0
C78 C 0.21682 0.77159 0.695 0.0
O79 O 0.20833 0.77452 0.70914 0.0
O80 O 0.22664 0.7985 0.68551 0.0
C81 C 0.21167 0.79747 0.75188 0.0
O82 O 0.24387 0.80213 0.74668 0.0
C83 C 0.28422 0.88835 0.71524 0.0
Zn84 Zn 0.72867 0.59042 0.642 0.0
Zn85 Zn 0.74962 0.57943 0.61338 0.0
O86 O 0.79274 0.63069 0.62086 0.0
O87 O 0.77376 0.64194 0.64336 0.0
O88 O 0.76255 0.57483 0.59086 0.0
O89 O 0.67895 0.58212 0.63356 0.0
O90 O 0.69599 0.57087 0.61062 0.0
C91 C 0.79835 0.65188 0.63273 0.0
C92 C 0.74335 0.52767 0.63976 0.0
O93 O 0.75004 0.53677 0.62533 0.0
O94 O 0.73415 0.54601 0.64898 0.0
C95 C 0.76254 0.59818 0.58112 0.0
O96 O 0.75618 0.62452 0.58636 0.0
C97 C 0.67163 0.57278 0.61922 0.0
Zn98 Zn 0.11386 0.72948 0.97978 0.0
Zn99 Zn 0.14416 0.75199 0.95099 0.0
O100 O 0.13479 0.79402 0.95902 0.0
O101 O 0.10635 0.77405 0.98175 0.0
O102 O 0.1616 0.76612 0.92858 0.0
O103 O 0.07308 0.68033 0.97099 0.0
O104 O 0.09997 0.6987 0.94792 0.0
C105 C 0.11965 0.79886 0.97123 0.0
C106 C 0.19157 0.74494 0.97682 0.0
O107 O 0.18807 0.75228 0.96256 0.0
O108 O 0.16448 0.73501 0.98631 0.0
C109 C 0.13852 0.76666 0.91864 0.0
O110 O 0.10535 0.75991 0.92354 0.0
C111 C 0.0746 0.67386 0.95652 0.0
Zn112 Zn 0.36707 0.12095 0.31062 0.0
Zn113 Zn 0.36945 0.14858 0.28171 0.0
O114 O 0.31964 0.14055 0.29136 0.0
O115 O 0.31544 0.11386 0.31424 0.0
O116 O 0.36755 0.1632 0.25916 0.0
O117 O 0.37413 0.07936 0.30193 0.0
O118 O 0.3782 0.10394 0.2786 0.0
C119 C 0.30193 0.12649 0.3041 0.0
C120 C 0.4282 0.19761 0.30574 0.0
O121 O 0.41507 0.19316 0.29178 0.0
O122 O 0.41277 0.17152 0.31569 0.0
C123 C 0.39349 0.16732 0.24981 0.0
O124 O 0.42179 0.16415 0.25537 0.0
C125 C 0.37941 0.07943 0.28727 0.0
Zn126 Zn 0.23071 0.37738 0.6485 0.0
Zn127 Zn 0.20376 0.37822 0.61958 0.0
O128 O 0.16342 0.32827 0.62919 0.0
O129 O 0.18598 0.32707 0.65264 0.0
O130 O 0.18668 0.37634 0.59703 0.0
O131 O 0.27879 0.38296 0.63954 0.0
O132 O 0.25717 0.38686 0.6163 0.0
C133 C 0.16015 0.31213 0.64236 0.0
C134 C 0.21405 0.43772 0.64338 0.0
O135 O 0.20402 0.42362 0.62963 0.0
O136 O 0.22636 0.42332 0.65328 0.0
C137 C 0.20823 0.40217 0.58773 0.0
O138 O 0.23944 0.4302 0.59337 0.0
C139 C 0.28331 0.38791 0.62485 0.0
Zn140 Zn 0.84469 0.23245 0.97945 0.0
Zn141 Zn 0.81677 0.20735 0.95059 0.0
O142 O 0.82739 0.16681 0.95975 0.0
O143 O 0.85283 0.18891 0.983 0.0
O144 O 0.80202 0.19208 0.92787 0.0
O145 O 0.88576 0.28136 0.97115 0.0
O146 O 0.85998 0.26126 0.94781 0.0
C147 C 0.84147 0.16337 0.97267 0.0
C148 C 0.7667 0.21472 0.97478 0.0
O149 O 0.77093 0.20599 0.96084 0.0
O150 O 0.79361 0.22654 0.98464 0.0
C151 C 0.7891 0.20924 0.91983 0.0
O152 O 0.78353 0.23451 0.92683 0.0
C153 C 0.88463 0.28693 0.95657 0.0
Zn154 Zn 0.58503 0.83994 0.30839 0.0
Zn155 Zn 0.57727 0.80929 0.2796 0.0
O156 O 0.62888 0.81852 0.28784 0.0
O157 O 0.63731 0.84743 0.31058 0.0
O158 O 0.57474 0.79216 0.2571 0.0
O159 O 0.57629 0.88053 0.29976 0.0
O160 O 0.56762 0.85333 0.27663 0.0
C161 C 0.64896 0.83389 0.30007 0.0
C162 C 0.52323 0.76281 0.30515 0.0
O163 O 0.53383 0.76582 0.29089 0.0
O164 O 0.54036 0.78993 0.31467 0.0
C165 C 0.59894 0.81517 0.24759 0.0
O166 O 0.62503 0.84772 0.25301 0.0
C167 C 0.56813 0.87882 0.28528 0.0
C168 C 0.15021 0.8677 0.9669 0.0
C169 C 0.12274 0.83556 0.97446 0.0
C170 C 0.15912 0.90313 0.97241 0.0
C171 C 0.16979 0.97714 0.98393 0.0
H172 H 0.1746 -0.01521 0.02947 0.0
C173 C 0.24568 0.12076 0.01385 0.0
C174 C 0.27043 0.12425 0.02611 0.0
C175 C 0.21817 0.08557 0.00852 0.0
C176 C 0.17352 -0.01677 0.01674 0.0
H177 H 0.08052 0.81531 0.99272 0.0
H178 H 0.09502 0.87702 0.00193 0.0
H179 H 0.1445 0.92371 0.01698 0.0
H180 H 0.28408 0.09359 0.0431 0.0
H181 H 0.23701 0.03235 0.03358 0.0
H182 H 0.20132 0.03662 0.98369 0.0
C183 C 0.11074 0.87498 0.99214 0.0
C184 C 0.15568 0.94807 0.00953 0.0
C185 C 0.10217 0.83957 0.98677 0.0
C186 C 0.26537 0.09187 0.03366 0.0
C187 C 0.23819 0.05664 0.02819 0.0
C188 C 0.188 0.0123 0.99114 0.0
C189 C 0.1404 0.90723 0.98547 0.0
C190 C 0.1544 0.94453 0.99302 0.0
C191 C 0.2151 0.05301 0.01518 0.0
C192 C 0.19096 0.01582 0.00765 0.0
H193 H 0.16667 0.86561 0.95743 0.0
H194 H 0.18233 0.92717 0.96701 0.0
H195 H 0.16879 0.97559 0.9712 0.0
H196 H 0.24859 0.14523 0.00791 0.0
H197 H 0.20024 0.08393 0.99877 0.0
C198 C 0.10638 0.25059 0.35248 0.0
C199 C 0.12897 0.27607 0.36422 0.0
C200 C 0.11445 0.22348 0.34689 0.0
C201 C 0.15692 0.19417 0.32826 0.0
H202 H 0.20806 0.1533 0.35267 0.0
C203 C 0.26235 0.15683 0.30107 0.0
C204 C 0.26869 0.12986 0.30831 0.0
C205 C 0.23633 0.16585 0.30734 0.0
C206 C 0.19318 0.16376 0.34564 0.0
H207 H 0.17614 0.29141 0.38006 0.0
H208 H 0.19092 0.24496 0.37006 0.0
H209 H 0.17755 0.18305 0.3661 0.0
H210 H 0.25018 0.08871 0.32688 0.0
H211 H 0.20386 0.10343 0.33745 0.0
H212 H 0.17231 0.17465 0.30781 0.0
C213 C 0.16652 0.24531 0.3653 0.0
C214 C 0.17612 0.18138 0.35337 0.0
C215 C 0.15811 0.27212 0.37105 0.0
C216 C 0.24627 0.10996 0.32114 0.0
C217 C 0.21992 0.11865 0.32729 0.0
C218 C 0.17364 0.17622 0.32054 0.0
C219 C 0.14563 0.22154 0.35274 0.0
C220 C 0.15871 0.1978 0.34477 0.0
C221 C 0.21571 0.14775 0.32088 0.0
C222 C 0.19297 0.16174 0.32909 0.0
H223 H 0.08342 0.25266 0.34711 0.0
H224 H 0.09708 0.205 0.33753 0.0
H225 H 0.14413 0.20673 0.32117 0.0
H226 H 0.27927 0.17278 0.29121 0.0
H227 H 0.23418 0.18862 0.30212 0.0
C228 C 0.83373 0.11405 0.67771 0.0
C229 C 0.83021 0.12612 0.6928 0.0
C230 C 0.86898 0.12293 0.6719 0.0
C231 C 0.96864 0.15775 0.68139 0.0
H232 H -0.01303 0.21531 0.64321 0.0
C233 C 0.11698 0.26778 0.66244 0.0
C234 C 0.12433 0.27857 0.6466 0.0
C235 C 0.08123 0.24043 0.6671 0.0
C236 C -0.01759 0.19853 0.65361 0.0
H237 H 0.86069 0.15393 0.71414 0.0
H238 H 0.92238 0.16902 0.70398 0.0
H239 H 0.92392 0.18172 0.65373 0.0
H240 H 0.10066 0.26681 0.62302 0.0
H241 H 0.03859 0.21774 0.63102 0.0
H242 H 0.02711 0.17445 0.6813 0.0
C243 C 0.89773 0.15293 0.69666 0.0
C244 C 0.94614 0.17941 0.65969 0.0
C245 C 0.8624 0.14436 0.70246 0.0
C246 C 0.09579 0.25943 0.63535 0.0
C247 C 0.06008 0.23151 0.63998 0.0
C248 C 0.00492 0.17635 0.67514 0.0
C249 C 0.90144 0.14364 0.68109 0.0
C250 C 0.93905 0.15958 0.67383 0.0
C251 C 0.05192 0.2226 0.65601 0.0
C252 C 0.01254 0.19791 0.66139 0.0
H253 H 0.80953 0.0996 0.66999 0.0
H254 H 0.87106 0.11505 0.65993 0.0
H255 H 0.96379 0.14238 0.69225 0.0
H256 H 0.13827 0.28193 0.67146 0.0
H257 H 0.07625 0.23494 0.67956 0.0
C258 C 0.70771 0.86071 0.0322 0.0
C259 C 0.68836 0.83277 0.02082 0.0
C260 C 0.73532 0.89652 0.02769 0.0
C261 C 0.78943 0.95324 0.99266 0.0
H262 H 0.78352 0.03199 0.01513 0.0
C263 C 0.82112 0.09613 0.96687 0.0
C264 C 0.83948 0.12752 0.97681 0.0
C265 C 0.81238 0.06073 0.9723 0.0
C266 C 0.78597 0.0104 0.00886 0.0
H267 H 0.68443 0.82004 0.99584 0.0
H268 H 0.73089 0.88219 0.98799 0.0
H269 H 0.75043 0.96887 0.02515 0.0
H270 H 0.86596 0.14668 0.99976 0.0
H271 H 0.85028 0.08505 0.00918 0.0
H272 H 0.82307 -0.00493 0.97578 0.0
C273 C 0.72578 0.87668 0.00043 0.0
C274 C 0.76714 0.97409 0.01466 0.0
C275 C 0.69873 0.84084 0.00496 0.0
C276 C 0.85144 0.12312 0.99182 0.0
C277 C 0.8424 0.08781 0.99727 0.0
C278 C 0.80773 -0.01043 0.9867 0.0
C279 C 0.74373 0.90537 0.01167 0.0
C280 C 0.76799 0.94478 0.00652 0.0
C281 C 0.82163 0.05613 0.98778 0.0
C282 C 0.80574 0.01837 0.99465 0.0
H283 H 0.70067 0.8553 0.04454 0.0
H284 H 0.74922 0.91753 0.03676 0.0
H285 H 0.79149 0.93169 0.9862 0.0
H286 H 0.8116 0.09852 0.95524 0.0
H287 H 0.79625 0.03671 0.96476 0.0
C288 C 0.70803 0.85255 0.31542 0.0
C289 C 0.683 0.83105 0.30333 0.0
C290 C 0.73551 0.84453 0.32087 0.0
C291 C 0.77938 0.78498 0.31331 0.0
H292 H 0.78435 0.78435 0.35888 0.0
C293 C 0.84986 0.71206 0.3443 0.0
C294 C 0.82929 0.68869 0.35678 0.0
C295 C 0.84146 0.73884 0.33858 0.0
C296 C 0.78328 0.78427 0.34614 0.0
H297 H 0.66888 0.78598 0.28671 0.0
H298 H 0.71588 0.77124 0.29644 0.0
H299 H 0.75226 0.81328 0.34603 0.0
H300 H 0.78541 0.67677 0.37372 0.0
H301 H 0.77002 0.72256 0.36354 0.0
H302 H 0.80786 0.75346 0.31345 0.0
C303 C 0.71494 0.79477 0.30161 0.0
C304 C 0.76533 0.80144 0.33872 0.0
C305 C 0.68779 0.80314 0.29602 0.0
C306 C 0.80188 0.6944 0.36411 0.0
C307 C 0.79314 0.72086 0.35827 0.0
C308 C 0.79696 0.76744 0.32073 0.0
C309 C 0.73827 0.81449 0.31449 0.0
C310 C 0.76227 0.80119 0.3222 0.0
C311 C 0.81196 0.74257 0.34508 0.0
C312 C 0.79829 0.766 0.33727 0.0
H313 H 0.70533 0.87456 0.32117 0.0
H314 H 0.75363 0.86099 0.3305 0.0
H315 H 0.77821 0.78481 0.30057 0.0
H316 H 0.87148 0.70864 0.3385 0.0
H317 H 0.85722 0.75571 0.32868 0.0
C318 C 0.86774 0.68727 0.62834 0.0
C319 C 0.83586 0.68476 0.63564 0.0
C320 C 0.90372 0.71237 0.63401 0.0
C321 C 0.96145 0.79385 0.65917 0.0
H322 H 0.00973 0.73746 0.67202 0.0
C323 C 0.11641 0.85227 0.68122 0.0
C324 C 0.12116 0.83377 0.69418 0.0
C325 C 0.0806 0.84037 0.67489 0.0
C326 C -0.00351 0.75352 0.66856 0.0
H327 H 0.81684 0.70931 0.65345 0.0
H328 H 0.87986 0.75367 0.6631 0.0
H329 H 0.95099 0.70662 0.65706 0.0
H330 H 0.09172 0.79042 0.71146 0.0
H331 H 0.02938 0.76936 0.70021 0.0
H332 H 0.00769 0.841 0.67058 0.0
C333 C 0.87691 0.73589 0.65316 0.0
C334 C 0.96318 0.73602 0.65984 0.0
C335 C 0.84087 0.71041 0.64766 0.0
C336 C 0.0891 0.80523 0.70146 0.0
C337 C 0.05342 0.79301 0.69499 0.0
C338 C -0.00461 0.81166 0.66767 0.0
C339 C 0.90849 0.73583 0.64687 0.0
C340 C 0.94523 0.75591 0.65511 0.0
C341 C 0.04907 0.80953 0.68129 0.0
C342 C 0.0129 0.79144 0.67258 0.0
H343 H 0.86488 0.66797 0.61906 0.0
H344 H 0.92775 0.71209 0.62888 0.0
H345 H 0.94797 0.80967 0.65571 0.0
H346 H 0.14055 0.8745 0.6754 0.0
H347 H 0.07792 0.85352 0.66432 0.0
C348 C 0.70325 0.20713 0.96845 0.0
C349 C 0.73053 0.21142 0.97964 0.0
C350 C 0.6698 0.20551 0.97321 0.0
C351 C 0.62894 0.22994 0.00705 0.0
H352 H 0.53425 0.16582 0.98577 0.0
C353 C 0.48695 0.20635 0.0306 0.0
C354 C 0.46329 0.20987 0.01952 0.0
C355 C 0.51876 0.20494 0.0257 0.0
C356 C 0.56057 0.18399 0.99176 0.0
H357 H 0.74355 0.21607 0.00462 0.0
H358 H 0.68508 0.21219 0.0129 0.0
H359 H 0.59124 0.16608 0.97722 0.0
H360 H 0.45401 0.21378 0.99459 0.0
H361 H 0.50937 0.21101 0.98608 0.0
H362 H 0.59811 0.24743 0.02171 0.0
C363 C 0.68982 0.2112 0.00042 0.0
C364 C 0.59324 0.18428 0.98683 0.0
C365 C 0.72331 0.21321 0.99567 0.0
C366 C 0.47172 0.21119 0.00343 0.0
C367 C 0.50328 0.20937 0.99854 0.0
C368 C 0.59625 0.22936 0.01206 0.0
C369 C 0.6628 0.2078 0.98926 0.0
C370 C 0.62787 0.20729 0.99442 0.0
C371 C 0.52731 0.20659 0.00963 0.0
C372 C 0.56176 0.20645 0.00446 0.0
H373 H 0.70805 0.20579 0.956 0.0
H374 H 0.64983 0.2033 0.96427 0.0
H375 H 0.65519 0.24862 0.01296 0.0
H376 H 0.48125 0.20523 0.04307 0.0
H377 H 0.53665 0.20245 0.03449 0.0
C378 C 0.23665 0.47361 0.33976 0.0
C379 C 0.23132 0.46681 0.356 0.0
C380 C 0.26908 0.50447 0.33415 0.0
C381 C 0.36618 0.57591 0.34577 0.0
H382 H 0.35649 0.62922 0.31014 0.0
C383 C 0.48317 0.72192 0.3269 0.0
C384 C 0.49079 0.72771 0.31072 0.0
C385 C 0.45237 0.6891 0.33225 0.0
C386 C 0.35968 0.61437 0.31999 0.0
H387 H 0.25599 0.48706 0.37909 0.0
H388 H 0.31221 0.54154 0.36933 0.0
H389 H 0.30108 0.57425 0.32002 0.0
H390 H 0.47204 0.70344 0.28747 0.0
H391 H 0.41789 0.64618 0.29685 0.0
H392 H 0.42476 0.61682 0.34589 0.0
C393 C 0.29166 0.52257 0.36089 0.0
C394 C 0.32796 0.5828 0.32565 0.0
C395 C 0.25932 0.49144 0.36651 0.0
C396 C 0.46695 0.69985 0.30001 0.0
C397 C 0.43587 0.66716 0.30536 0.0
C398 C 0.39785 0.60771 0.34018 0.0
C399 C 0.29686 0.52957 0.34464 0.0
C400 C 0.33078 0.56313 0.33861 0.0
C401 C 0.42827 0.66149 0.32153 0.0
C402 C 0.3949 0.62726 0.32724 0.0
H403 H 0.2158 0.455 0.33132 0.0
H404 H 0.27243 0.5085 0.32155 0.0
H405 H 0.36955 0.56114 0.35559 0.0
H406 H 0.50101 0.74276 0.33549 0.0
H407 H 0.44699 0.68564 0.34477 0.0
C408 C 0.74344 0.24116 0.67462 0.0
C409 C 0.74625 0.23458 0.69067 0.0
C410 C 0.74614 0.27464 0.66973 0.0
C411 C 0.73117 0.35028 0.68296 0.0
H412 H 0.79177 0.40268 0.64688 0.0
C413 C 0.7459 0.48982 0.66221 0.0
C414 C 0.74627 0.49565 0.64591 0.0
C415 C 0.74826 0.45948 0.66811 0.0
C416 C 0.77435 0.38818 0.65686 0.0
H417 H 0.75421 0.2581 0.71417 0.0
H418 H 0.75842 0.31665 0.70557 0.0
H419 H 0.79183 0.34709 0.65652 0.0
H420 H 0.74937 0.47412 0.623 0.0
H421 H 0.75242 0.42057 0.63324 0.0
H422 H 0.71271 0.39049 0.68307 0.0
C423 C 0.75421 0.29576 0.69683 0.0
C424 C 0.77455 0.35645 0.66241 0.0
C425 C 0.75196 0.26235 0.70173 0.0
C426 C 0.74919 0.47051 0.63562 0.0
C427 C 0.75118 0.43993 0.64152 0.0
C428 C 0.73067 0.3818 0.67732 0.0
C429 C 0.75133 0.30218 0.68077 0.0
C430 C 0.75278 0.33705 0.67546 0.0
C431 C 0.75067 0.43398 0.65784 0.0
C432 C 0.75207 0.40104 0.66413 0.0
H433 H 0.73914 0.22042 0.66579 0.0
H434 H 0.74342 0.27866 0.6573 0.0
H435 H 0.71375 0.33558 0.69292 0.0
H436 H 0.74401 0.50884 0.67048 0.0
H437 H 0.74848 0.45622 0.68074 0.0
C438 C 0.25497 0.75195 0.97165 0.0
C439 C 0.22727 0.7479 0.9824 0.0
C440 C 0.28835 0.75406 0.97694 0.0
C441 C 0.32973 0.73196 0.0114 0.0
H442 H 0.42338 0.79514 0.98992 0.0
C443 C 0.47379 0.7526 0.03268 0.0
C444 C 0.49512 0.74793 0.0209 0.0
C445 C 0.44178 0.75489 0.02868 0.0
C446 C 0.39739 0.77731 0.996 0.0
H447 H 0.21323 0.74363 0.00717 0.0
H448 H 0.27176 0.74826 0.01642 0.0
H449 H 0.36627 0.79517 0.98166 0.0
H450 H 0.49998 0.74269 0.99571 0.0
H451 H 0.44451 0.74706 0.98881 0.0
H452 H 0.36117 0.71438 0.0258 0.0
C453 C 0.26739 0.7489 0.00387 0.0
C454 C 0.36462 0.77716 0.99123 0.0
C455 C 0.23387 0.74645 0.99856 0.0
C456 C 0.48412 0.74617 0.00508 0.0
C457 C 0.45249 0.74893 0.00109 0.0
C458 C 0.36261 0.7324 0.01627 0.0
C459 C 0.29498 0.75253 0.99312 0.0
C460 C 0.33025 0.7541 0.99872 0.0
C461 C 0.43089 0.75311 0.01285 0.0
C462 C 0.39664 0.7547 0.00848 0.0
H463 H 0.25067 0.75296 0.95911 0.0
H464 H 0.30865 0.75619 0.9683 0.0
H465 H 0.30371 0.71344 0.0173 0.0
H466 H 0.48153 0.754 0.04497 0.0
H467 H 0.42567 0.75829 0.03796 0.0
C468 C 0.48399 0.25966 0.29926 0.0
C469 C 0.46149 0.23324 0.31054 0.0
C470 C 0.51584 0.29289 0.30392 0.0
C471 C 0.55815 0.35656 0.3376 0.0
H472 H 0.65275 0.38643 0.31675 0.0
C473 C 0.69942 0.47398 0.36225 0.0
C474 C 0.7268 0.49728 0.35144 0.0
C475 C 0.66647 0.44255 0.35703 0.0
C476 C 0.62648 0.37889 0.32255 0.0
H477 H 0.45443 0.22131 0.33554 0.0
H478 H 0.50971 0.27935 0.34361 0.0
H479 H 0.59598 0.33085 0.30774 0.0
H480 H 0.74063 0.50633 0.32664 0.0
H481 H 0.68291 0.4523 0.31754 0.0
H482 H 0.58835 0.40472 0.3523 0.0
C483 C 0.50273 0.27435 0.3312 0.0
C484 C 0.59399 0.34698 0.31739 0.0
C485 C 0.47121 0.241 0.32655 0.0
C486 C 0.72027 0.48876 0.3353 0.0
C487 C 0.68721 0.4576 0.33008 0.0
C488 C 0.59056 0.3887 0.34267 0.0
C489 C 0.52548 0.30054 0.31993 0.0
C490 C 0.55957 0.33534 0.32494 0.0
C491 C 0.65998 0.43391 0.34087 0.0
C492 C 0.62522 0.40015 0.33528 0.0
H493 H 0.47726 0.2545 0.28684 0.0
H494 H 0.5328 0.31274 0.295 0.0
H495 H 0.53186 0.34843 0.34352 0.0
H496 H 0.70368 0.47968 0.37477 0.0
H497 H 0.64641 0.42466 0.3657 0.0
C498 C 0.20655 0.493 0.63672 0.0
C499 C 0.21138 0.47091 0.64804 0.0
C500 C 0.20516 0.52491 0.64129 0.0
C501 C 0.18545 0.56822 0.67505 0.0
H502 H 0.24956 0.66168 0.65401 0.0
C503 C 0.21119 0.70916 0.70013 0.0
C504 C 0.2148 0.73661 0.68943 0.0
C505 C 0.20946 0.67627 0.69475 0.0
C506 C 0.231 0.63575 0.65987 0.0
H507 H 0.21778 0.46458 0.67304 0.0
H508 H 0.21494 0.51986 0.68096 0.0
H509 H 0.2475 0.60467 0.64483 0.0
H510 H 0.21871 0.75076 0.66468 0.0
H511 H 0.21465 0.69317 0.65531 0.0
H512 H 0.16853 0.59896 0.68998 0.0
C513 C 0.21228 0.51257 0.66857 0.0
C514 C 0.22991 0.60311 0.6546 0.0
C515 C 0.21416 0.48104 0.66401 0.0
C516 C 0.21629 0.73033 0.67325 0.0
C517 C 0.21416 0.69733 0.66787 0.0
C518 C 0.18621 0.60076 0.68021 0.0
C519 C 0.208 0.53495 0.65727 0.0
C520 C 0.20741 0.56911 0.66224 0.0
C521 C 0.21089 0.66992 0.67855 0.0
C522 C 0.20927 0.63503 0.67279 0.0
H523 H 0.20436 0.48594 0.62433 0.0
H524 H 0.20164 0.54161 0.63235 0.0
H525 H 0.16752 0.54226 0.68103 0.0
H526 H 0.21015 0.71324 0.71267 0.0
H527 H 0.20757 0.65609 0.70334 0.0
C528 C 0.38815 0.1858 0.10542 0.0
C529 C 0.35752 0.1882 0.0992 0.0
C530 C 0.39196 0.18321 0.12168 0.0
C531 C 0.33867 0.15892 0.15893 0.0
H532 H 0.43702 0.21911 0.17811 0.0
C533 C 0.35934 0.1739 0.22644 0.0
C534 C 0.39052 0.17259 0.23271 0.0
C535 C 0.35559 0.17657 0.21018 0.0
C536 C 0.40943 0.20182 0.17293 0.0
H537 H 0.3065 0.18902 0.10522 0.0
H538 H 0.31321 0.18458 0.1335 0.0
H539 H 0.4296 0.2207 0.14968 0.0
H540 H 0.44252 0.17367 0.22677 0.0
H541 H 0.43582 0.17798 0.19849 0.0
H542 H 0.31849 0.13993 0.18216 0.0
C543 C 0.33417 0.18446 0.12583 0.0
C544 C 0.40519 0.20269 0.15662 0.0
C545 C 0.33043 0.1872 0.10959 0.0
C546 C 0.41818 0.17472 0.22236 0.0
C547 C 0.41443 0.17737 0.20612 0.0
C548 C 0.34292 0.15799 0.17524 0.0
C549 C 0.36515 0.18277 0.13209 0.0
C550 C 0.36976 0.18128 0.14942 0.0
C551 C 0.38294 0.178 0.19981 0.0
C552 C 0.37835 0.17944 0.18246 0.0
H553 H 0.4095 0.18646 0.09775 0.0
H554 H 0.4159 0.18146 0.1261 0.0
H555 H 0.31108 0.1417 0.15374 0.0
H556 H 0.33755 0.17243 0.23408 0.0
H557 H 0.33126 0.17757 0.20575 0.0
C558 C 0.18555 0.39468 0.44317 0.0
C559 C 0.15272 0.36431 0.43695 0.0
C560 C 0.19178 0.39885 0.45946 0.0
C561 C 0.14081 0.36948 0.49727 0.0
H562 H 0.24028 0.40493 0.51505 0.0
C563 C 0.16787 0.36849 0.56423 0.0
C564 C 0.20014 0.39928 0.57059 0.0
C565 C 0.16171 0.36476 0.54794 0.0
C566 C 0.21239 0.3954 0.51026 0.0
H567 H 0.10119 0.31396 0.44298 0.0
H568 H 0.11233 0.32089 0.47127 0.0
H569 H 0.23095 0.39687 0.48664 0.0
H570 H 0.25081 0.45073 0.56478 0.0
H571 H 0.23986 0.44436 0.53645 0.0
H572 H 0.12225 0.36786 0.52091 0.0
C573 C 0.13294 0.34193 0.46361 0.0
C574 C 0.20704 0.39078 0.49396 0.0
C575 C 0.12669 0.33781 0.44736 0.0
C576 C 0.2257 0.42659 0.5603 0.0
C577 C 0.21959 0.42281 0.54403 0.0
C578 C 0.14615 0.37403 0.51357 0.0
C579 C 0.16535 0.3727 0.46989 0.0
C580 C 0.17117 0.37771 0.48725 0.0
C581 C 0.18771 0.39169 0.53763 0.0
C582 C 0.182 0.38705 0.52027 0.0
H583 H 0.20612 0.41567 0.43548 0.0
H584 H 0.21688 0.42307 0.46388 0.0
H585 H 0.11292 0.36 0.4925 0.0
H586 H 0.14766 0.3469 0.57181 0.0
H587 H 0.13702 0.34028 0.5434 0.0
C588 C 0.76616 0.21998 0.89404 0.0
C589 C 0.78351 0.20342 0.90257 0.0
C590 C 0.76315 0.21684 0.87765 0.0
C591 C 0.76919 0.16299 0.84367 0.0
H592 H 0.78343 0.24936 0.82012 0.0
C593 C 0.78115 0.17072 0.77571 0.0
C594 C 0.75934 0.18353 0.76792 0.0
C595 C 0.78558 0.17382 0.79209 0.0
C596 C 0.77916 0.22493 0.82654 0.0
H597 H 0.81082 0.17004 0.90056 0.0
H598 H 0.80625 0.16515 0.87193 0.0
H599 H 0.78741 0.25245 0.84875 0.0
H600 H 0.72591 0.21053 0.77121 0.0
H601 H 0.73394 0.21623 0.79971 0.0
H602 H 0.76137 0.1357 0.82134 0.0
C603 C 0.79437 0.18008 0.87792 0.0
C604 C 0.78127 0.22661 0.84297 0.0
C605 C 0.79713 0.18299 0.89435 0.0
C606 C 0.7429 0.20037 0.77683 0.0
C607 C 0.74761 0.20379 0.79317 0.0
C608 C 0.76736 0.16142 0.82721 0.0
C609 C 0.7777 0.19732 0.86933 0.0
C610 C 0.77602 0.19557 0.85178 0.0
C611 C 0.76863 0.19016 0.80101 0.0
C612 C 0.77207 0.1923 0.81847 0.0
H613 H 0.75512 0.23569 0.90001 0.0
H614 H 0.74938 0.22978 0.8715 0.0
H615 H 0.7645 0.13837 0.85003 0.0
H616 H 0.79417 0.15756 0.7692 0.0
H617 H 0.80228 0.16343 0.79778 0.0
C618 C 0.54044 0.73002 0.10734 0.0
C619 C 0.56826 0.75515 0.0971 0.0
C620 C 0.54372 0.73651 0.12358 0.0
C621 C 0.59141 0.81049 0.15365 0.0
H622 H 0.56703 0.72747 0.18156 0.0
C623 C 0.62384 0.83226 0.22021 0.0
C624 C 0.59652 0.80672 0.23051 0.0
C625 C 0.62071 0.82552 0.20399 0.0
C626 C 0.57355 0.75088 0.17395 0.0
H627 H 0.62115 0.80715 0.09591 0.0
H628 H 0.62691 0.81842 0.12428 0.0
H629 H 0.56055 0.71712 0.15317 0.0
H630 H 0.54472 0.75373 0.23182 0.0
H631 H 0.53903 0.74214 0.20348 0.0
H632 H 0.60425 0.84424 0.17441 0.0
C633 C 0.60239 0.7938 0.11972 0.0
C634 C 0.56984 0.74495 0.15767 0.0
C635 C 0.59917 0.78726 0.10346 0.0
C636 C 0.56632 0.77393 0.22422 0.0
C637 C 0.56315 0.76722 0.20797 0.0
C638 C 0.59505 0.81641 0.16993 0.0
C639 C 0.57485 0.76834 0.12999 0.0
C640 C 0.57873 0.77468 0.14732 0.0
C641 C 0.59014 0.79311 0.19764 0.0
C642 C 0.58622 0.7867 0.1803 0.0
H643 H 0.5162 0.70505 0.10285 0.0
H644 H 0.52172 0.71663 0.13112 0.0
H645 H 0.59797 0.8339 0.14603 0.0
H646 H 0.64759 0.85771 0.22464 0.0
H647 H 0.64237 0.84574 0.19643 0.0
C648 C 0.76955 0.5641 0.55795 0.0
C649 C 0.76696 0.59448 0.56401 0.0
C650 C 0.77151 0.55975 0.54169 0.0
C651 C 0.74952 0.58852 0.50362 0.0
H652 H 0.81497 0.55465 0.48637 0.0
C653 C 0.7797 0.59215 0.43699 0.0
C654 C 0.78221 0.56203 0.43056 0.0
C655 C 0.7765 0.59506 0.45325 0.0
C656 C 0.79619 0.5637 0.49101 0.0
H657 H 0.76536 0.64461 0.55772 0.0
H658 H 0.76934 0.63733 0.5295 0.0
H659 H 0.81306 0.56217 0.51477 0.0
H660 H 0.78238 0.51086 0.43621 0.0
H661 H 0.77645 0.51579 0.46451 0.0
H662 H 0.73281 0.59025 0.47985 0.0
C663 C 0.76912 0.61644 0.53725 0.0
C664 C 0.79511 0.56802 0.5073 0.0
C665 C 0.76711 0.62076 0.55347 0.0
C666 C 0.78064 0.5345 0.44075 0.0
C667 C 0.77752 0.53745 0.457 0.0
C668 C 0.75065 0.58425 0.48734 0.0
C669 C 0.77096 0.5857 0.53114 0.0
C670 C 0.77186 0.58062 0.51381 0.0
C671 C 0.7758 0.56796 0.46347 0.0
C672 C 0.77406 0.57187 0.48082 0.0
H673 H 0.76939 0.54329 0.56574 0.0
H674 H 0.77257 0.53557 0.53739 0.0
H675 H 0.73077 0.59762 0.50824 0.0
H676 H 0.78091 0.61389 0.42949 0.0
H677 H 0.77558 0.6191 0.45785 0.0
C678 C 0.1811 0.77496 0.89597 0.0
C679 C 0.14762 0.77218 0.90165 0.0
C680 C 0.18846 0.77799 0.87982 0.0
C681 C 0.16113 0.80282 0.84204 0.0
H682 H 0.20135 0.74392 0.82364 0.0
C683 C 0.16964 0.78904 0.77475 0.0
C684 C 0.20274 0.79132 0.76887 0.0
C685 C 0.1626 0.78587 0.79093 0.0
C686 C 0.19047 0.76085 0.8286 0.0
H687 H 0.09595 0.77108 0.89479 0.0
H688 H 0.10873 0.77624 0.86669 0.0
H689 H 0.19088 0.74159 0.85194 0.0
H690 H 0.25402 0.79126 0.77541 0.0
H691 H 0.24186 0.78599 0.80357 0.0
H692 H 0.16076 0.82214 0.81873 0.0
C693 C 0.12945 0.77636 0.87471 0.0
C694 C 0.18452 0.75955 0.84484 0.0
C695 C 0.12204 0.77321 0.89084 0.0
C696 C 0.2282 0.7895 0.77951 0.0
C697 C 0.22115 0.78631 0.79568 0.0
C698 C 0.16711 0.80414 0.82581 0.0
C699 C 0.16259 0.77846 0.86898 0.0
C700 C 0.16971 0.78047 0.85175 0.0
C701 C 0.18846 0.78486 0.80161 0.0
C702 C 0.18179 0.78312 0.81888 0.0
H703 H 0.20144 0.7743 0.90398 0.0
H704 H 0.21448 0.78005 0.87581 0.0
H705 H 0.1502 0.8197 0.847 0.0
H706 H 0.14936 0.79025 0.76689 0.0
H707 H 0.13685 0.78422 0.79506 0.0
C708 C 0.54336 0.62349 0.06135 0.0
C709 C 0.56512 0.63558 0.04762 0.0
C710 C 0.52542 0.58587 0.06559 0.0
C711 C 0.46707 0.50305 0.06037 0.0
H712 H 0.51293 0.44036 0.059 0.0
C713 C 0.3918 0.34888 0.04114 0.0
C714 C 0.39935 0.32398 0.04951 0.0
C715 C 0.41002 0.3867 0.04517 0.0
C716 C 0.4998 0.45756 0.05967 0.0
H717 H 0.58742 0.6184 0.02825 0.0
H718 H 0.55689 0.55292 0.03589 0.0
H719 H 0.55273 0.50829 0.05843 0.0
H720 H 0.43049 0.31882 0.06917 0.0
H721 H 0.46304 0.38525 0.07596 0.0
H722 H 0.41403 0.45228 0.06065 0.0
C723 C 0.55341 0.57244 0.04327 0.0
C724 C 0.52254 0.49633 0.05926 0.0
C725 C 0.57075 0.60987 0.03886 0.0
C726 C 0.424 0.33731 0.06252 0.0
C727 C 0.44278 0.3753 0.06637 0.0
C728 C 0.4443 0.46427 0.06051 0.0
C729 C 0.52961 0.55989 0.05637 0.0
C730 C 0.50632 0.51938 0.05927 0.0
C731 C 0.43659 0.40043 0.05749 0.0
C732 C 0.46044 0.44119 0.05983 0.0
H733 H 0.53838 0.64262 0.06832 0.0
H734 H 0.50731 0.57685 0.07578 0.0
H735 H 0.45386 0.52022 0.06024 0.0
H736 H 0.37288 0.33939 0.03108 0.0
H737 H 0.40493 0.40554 0.03807 0.0
C738 C 0.89464 0.54405 0.39775 0.0
C739 C 0.905 0.56577 0.38402 0.0
C740 C 0.91474 0.52659 0.40265 0.0
C741 C 0.94131 0.46928 0.39881 0.0
H742 H 0.04993 0.51489 0.39804 0.0
C743 C 0.02176 0.39472 0.38005 0.0
C744 C 0.05497 0.40276 0.38814 0.0
C745 C 0.00163 0.41254 0.38423 0.0
C746 C 0.01959 0.50183 0.39859 0.0
H747 H 0.94612 0.58852 0.36537 0.0
H748 H -0.01837 0.55868 0.37413 0.0
H749 H 0.02086 0.55429 0.39699 0.0
H750 H 0.09201 0.43421 0.40753 0.0
H751 H 0.05711 0.46601 0.4146 0.0
H752 H 0.94 0.41671 0.39946 0.0
C753 C 0.95782 0.55491 0.38101 0.0
C754 C 0.00301 0.52434 0.39788 0.0
C755 C 0.93738 0.57184 0.37596 0.0
C756 C 0.06648 0.42739 0.40108 0.0
C757 C 0.04667 0.44573 0.40509 0.0
C758 C 0.95788 0.44674 0.39928 0.0
C759 C 0.94597 0.53115 0.39409 0.0
C760 C 0.96371 0.50821 0.39759 0.0
C761 C 0.01461 0.43915 0.39644 0.0
C762 C -0.00286 0.46277 0.39877 0.0
H763 H 0.86977 0.53879 0.40421 0.0
H764 H 0.90518 0.50854 0.41282 0.0
H765 H 0.91092 0.45611 0.39847 0.0
H766 H 0.01214 0.37578 0.37006 0.0
H767 H 0.97715 0.40715 0.37729 0.0
C768 C 0.62249 0.06977 0.7351 0.0
C769 C 0.63393 0.05803 0.7217 0.0
C770 C 0.58488 0.05075 0.73977 0.0
C771 C 0.5011 0.02539 0.73488 0.0
H772 H 0.43812 0.91773 0.73489 0.0
C773 C 0.34737 0.94577 0.71399 0.0
C774 C 0.32184 0.91342 0.72204 0.0
C775 C 0.38497 0.9658 0.71878 0.0
C776 C 0.45536 0.94784 0.73522 0.0
H777 H 0.61576 0.01569 0.70343 0.0
H778 H 0.55037 -0.01796 0.71182 0.0
H779 H 0.50654 0.94555 0.73476 0.0
H780 H 0.31518 0.87795 0.74198 0.0
H781 H 0.38124 0.91267 0.75011 0.0
H782 H 0.44988 0.02763 0.73434 0.0
C783 C 0.57034 0.00607 0.71861 0.0
C784 C 0.49444 0.96369 0.73505 0.0
C785 C 0.60772 0.02544 0.71377 0.0
C786 C 0.33417 0.9028 0.73554 0.0
C787 C 0.37197 0.92251 0.74017 0.0
C788 C 0.462 0.00952 0.73481 0.0
C789 C 0.55832 0.01926 0.73133 0.0
C790 C 0.51762 0.00258 0.73445 0.0
C791 C 0.39788 0.95359 0.73156 0.0
C792 C 0.43879 0.97059 0.73456 0.0
H793 H 0.64205 0.09489 0.74141 0.0
H794 H 0.57628 0.06135 0.74964 0.0
H795 H 0.51833 0.05545 0.73428 0.0
H796 H 0.33866 0.95471 0.70359 0.0
H797 H 0.40442 -0.01048 0.71186 0.0
C798 C 0.60859 0.56816 0.62117 0.0
C799 C 0.63318 0.55951 0.61312 0.0
C800 C 0.5705 0.55054 0.6171 0.0
C801 C 0.49209 0.51656 0.60216 0.0
H802 H 0.44682 0.40904 0.60533 0.0
C803 C 0.33157 0.42038 0.60404 0.0
C804 C 0.32059 0.39956 0.61802 0.0
C805 C 0.36894 0.4373 0.59911 0.0
C806 C 0.45911 0.43897 0.60419 0.0
H807 H 0.6376 0.52717 0.5939 0.0
H808 H 0.5707 0.49574 0.58704 0.0
H809 H 0.51524 0.44782 0.60407 0.0
H810 H 0.33935 0.3778 0.63709 0.0
H811 H 0.40435 0.40664 0.62826 0.0
H812 H 0.43602 0.50781 0.60291 0.0
C813 C 0.58108 0.51633 0.59643 0.0
C814 C 0.49816 0.46112 0.60336 0.0
C815 C 0.61934 0.53446 0.60032 0.0
C816 C 0.34702 0.39379 0.62632 0.0
C817 C 0.38417 0.41014 0.62122 0.0
C818 C 0.453 0.49436 0.60273 0.0
C819 C 0.55619 0.52354 0.60505 0.0
C820 C 0.51504 0.50018 0.60286 0.0
C821 C 0.39573 0.43303 0.60787 0.0
C822 C 0.43625 0.45547 0.60427 0.0
H823 H 0.61847 0.58744 0.63104 0.0
H824 H 0.55186 0.55641 0.62402 0.0
H825 H 0.50446 0.54661 0.60174 0.0
H826 H 0.31186 0.42539 0.59741 0.0
H827 H 0.37718 0.4547 0.58873 0.0
C828 C 0.018 0.61037 0.95846 0.0
C829 C 0.05013 0.63583 0.95019 0.0
C830 C -0.00147 0.57277 0.95408 0.0
C831 C 0.95538 0.49568 0.93845 0.0
H832 H 0.02108 0.45288 0.93873 0.0
C833 C 0.89703 0.33673 0.93694 0.0
C834 C 0.90866 0.32476 0.95024 0.0
C835 C 0.91577 0.37439 0.93273 0.0
C836 C 0.00246 0.4645 0.9384 0.0
H837 H 0.08584 0.64222 0.93032 0.0
H838 H 0.05215 0.5762 0.92289 0.0
H839 H 0.04824 0.52069 0.93867 0.0
H840 H 0.95061 0.3422 0.96882 0.0
H841 H -0.01615 0.40771 0.96123 0.0
H842 H 0.90961 0.43948 0.93876 0.0
C843 C 0.04203 0.58552 0.9327 0.0
C844 C 0.01794 0.50322 0.93827 0.0
C845 C 0.06115 0.62329 0.93691 0.0
C846 C 0.94095 0.35063 0.95855 0.0
C847 C 0.96006 0.38809 0.95416 0.0
C848 C 0.93989 0.45695 0.93832 0.0
C849 C 0.01113 0.55979 0.94149 0.0
C850 C -0.00545 0.51916 0.93878 0.0
C851 C 0.94692 0.40052 0.94154 0.0
C852 C 0.96331 0.44103 0.93879 0.0
H853 H 0.00876 0.61922 0.96871 0.0
H854 H 0.97493 0.55347 0.96113 0.0
H855 H 0.93677 0.50731 0.93881 0.0
H856 H 0.87214 0.31746 0.93034 0.0
H857 H 0.90522 0.3833 0.9229 0.0
C858 C 0.53039 0.89245 0.26586 0.0
C859 C 0.55471 0.90356 0.27899 0.0
C860 C 0.51211 0.91224 0.26169 0.0
C861 C 0.45559 0.93943 0.2676 0.0
H862 H 0.50233 0.04731 0.26758 0.0
C863 C 0.38525 0.02207 0.28896 0.0
C864 C 0.39169 0.05407 0.28067 0.0
C865 C 0.40227 0.00155 0.28424 0.0
C866 C 0.48889 0.01715 0.26727 0.0
H867 H 0.58116 0.94559 0.29727 0.0
H868 H 0.54993 0.98058 0.28975 0.0
H869 H 0.54171 0.01805 0.26724 0.0
H870 H 0.41946 0.08861 0.26044 0.0
H871 H 0.44995 0.05308 0.25242 0.0
H872 H 0.40285 0.93858 0.2686 0.0
C873 C 0.54473 0.95642 0.28279 0.0
C874 C 0.51141 0.00047 0.26718 0.0
C875 C 0.56247 0.9363 0.28714 0.0
C876 C 0.41388 0.064 0.26705 0.0
C877 C 0.43148 0.04384 0.26249 0.0
C878 C 0.43309 0.95612 0.26794 0.0
C879 C 0.51847 0.94389 0.27036 0.0
C880 C 0.49498 0.96149 0.26773 0.0
C881 C 0.42652 0.01297 0.27128 0.0
C882 C 0.44958 -0.00486 0.26817 0.0
H883 H 0.52378 0.86728 0.25937 0.0
H884 H 0.4921 0.90215 0.25201 0.0
H885 H 0.44222 0.90931 0.26816 0.0
H886 H 0.36821 0.0137 0.29947 0.0
H887 H 0.39819 0.97802 0.29129 0.0
loop_
_geom_bond_atom_site_label_1
_geom_bond_atom_site_label_2
_geom_bond_distance
_geom_bond_site_symmetry_2
_ccdc_geom_bond_type
Zn0 O3 2.031 . S
Zn0 O5 2.049 . S
Zn0 O10 2.067 . S
Zn1 O2 1.962 . S
Zn1 O4 1.986 . S
Zn1 O6 1.996 . S
Zn1 O9 1.943 . S
O2 Zn1 1.962 . S
O2 C7 1.254 . S
O3 Zn0 2.031 . S
O3 C7 1.269 . S
O4 Zn1 1.986 . S
O4 C11 1.262 . S
O5 Zn0 2.049 . S
O5 C13 1.260 . S
O6 Zn1 1.996 . S
O6 C13 1.257 . S
C7 O2 1.254 . S
C7 O3 1.269 . S
C8 O9 1.249 . S
C8 O10 1.270 . S
O9 Zn1 1.943 . S
O9 C8 1.249 . S
O10 Zn0 2.067 . S
O10 C8 1.270 . S
C11 O4 1.262 . S
C11 O12 1.232 . S
O12 C11 1.232 . S
C13 O5 1.260 . S
C13 O6 1.257 . S
Zn14 O17 2.031 . S
Zn14 O19 2.049 . S
Zn14 O24 2.067 . S
Zn15 O16 1.962 . S
Zn15 O18 1.986 . S
Zn15 O20 1.996 . S
Zn15 O23 1.943 . S
O16 Zn15 1.962 . S
O16 C21 1.254 . S
O17 Zn14 2.031 . S
O17 C21 1.269 . S
O18 Zn15 1.986 . S
O18 C25 1.262 . S
O19 Zn14 2.049 . S
O19 C27 1.260 . S
O20 Zn15 1.996 . S
O20 C27 1.257 . S
C21 O16 1.254 . S
C21 O17 1.269 . S
C22 O23 1.249 . S
C22 O24 1.270 . S
O23 Zn15 1.943 . S
O23 C22 1.249 . S
O24 Zn14 2.067 . S
O24 C22 1.270 . S
C25 O18 1.262 . S
C25 O26 1.232 . S
O26 C25 1.232 . S
C27 O19 1.260 . S
C27 O20 1.257 . S
Zn28 O31 2.031 . S
Zn28 O33 2.049 . S
Zn28 O38 2.067 . S
Zn29 O30 1.962 . S
Zn29 O32 1.986 . S
Zn29 O34 1.996 . S
Zn29 O37 1.943 . S
O30 Zn29 1.962 . S
O30 C35 1.254 . S
O31 Zn28 2.031 . S
O31 C35 1.269 . S
O32 Zn29 1.986 . S
O32 C39 1.262 . S
O33 Zn28 2.049 . S
O33 C41 1.260 . S
O34 Zn29 1.996 . S
O34 C41 1.257 . S
C35 O30 1.254 . S
C35 O31 1.269 . S
C36 O37 1.249 . S
C36 O38 1.270 . S
O37 Zn29 1.943 . S
O37 C36 1.249 . S
O38 Zn28 2.067 . S
O38 C36 1.270 . S
C39 O32 1.262 . S
C39 O40 1.232 . S
O40 C39 1.232 . S
C41 O33 1.260 . S
C41 O34 1.257 . S
Zn42 O45 2.031 . S
Zn42 O47 2.049 . S
Zn42 O52 2.067 . S
Zn43 O44 1.962 . S
Zn43 O46 1.986 . S
Zn43 O48 1.996 . S
Zn43 O51 1.943 . S
O44 Zn43 1.962 . S
O44 C49 1.254 . S
O45 Zn42 2.031 . S
O45 C49 1.269 . S
O46 Zn43 1.986 . S
O46 C53 1.262 . S
O47 Zn42 2.049 . S
O47 C55 1.260 . S
O48 Zn43 1.996 . S
O48 C55 1.257 . S
C49 O44 1.254 . S
C49 O45 1.269 . S
C50 O51 1.249 . S
C50 O52 1.270 . S
O51 Zn43 1.943 . S
O51 C50 1.249 . S
O52 Zn42 2.067 . S
O52 C50 1.270 . S
C53 O46 1.262 . S
C53 O54 1.232 . S
O54 C53 1.232 . S
C55 O47 1.260 . S
C55 O48 1.257 . S
Zn56 O59 2.031 . S
Zn56 O61 2.049 . S
Zn56 O66 2.067 . S
Zn57 O58 1.962 . S
Zn57 O60 1.986 . S
Zn57 O62 1.996 . S
Zn57 O65 1.943 . S
O58 Zn57 1.962 . S
O58 C63 1.254 . S
O59 Zn56 2.031 . S
O59 C63 1.269 . S
O60 Zn57 1.986 . S
O60 C67 1.262 . S
O61 Zn56 2.049 . S
O61 C69 1.260 . S
O62 Zn57 1.996 . S
O62 C69 1.257 . S
C63 O58 1.254 . S
C63 O59 1.269 . S
C64 O65 1.249 . S
C64 O66 1.270 . S
O65 Zn57 1.943 . S
O65 C64 1.249 . S
O66 Zn56 2.067 . S
O66 C64 1.270 . S
C67 O60 1.262 . S
C67 O68 1.232 . S
O68 C67 1.232 . S
C69 O61 1.260 . S
C69 O62 1.257 . S
Zn70 O73 2.031 . S
Zn70 O75 2.049 . S
Zn70 O80 2.067 . S
Zn71 O72 1.962 . S
Zn71 O74 1.986 . S
Zn71 O76 1.996 . S
Zn71 O79 1.943 . S
O72 Zn71 1.962 . S
O72 C77 1.254 . S
O73 Zn70 2.031 . S
O73 C77 1.269 . S
O74 Zn71 1.986 . S
O74 C81 1.262 . S
O75 Zn70 2.049 . S
O75 C83 1.260 . S
O76 Zn71 1.996 . S
O76 C83 1.257 . S
C77 O72 1.254 . S
C77 O73 1.269 . S
C78 O79 1.249 . S
C78 O80 1.270 . S
O79 Zn71 1.943 . S
O79 C78 1.249 . S
O80 Zn70 2.067 . S
O80 C78 1.270 . S
C81 O74 1.262 . S
C81 O82 1.232 . S
O82 C81 1.232 . S
C83 O75 1.260 . S
C83 O76 1.257 . S
Zn84 O87 2.031 . S
Zn84 O89 2.049 . S
Zn84 O94 2.067 . S
Zn85 O86 1.962 . S
Zn85 O88 1.986 . S
Zn85 O90 1.996 . S
Zn85 O93 1.943 . S
O86 Zn85 1.962 . S
O86 C91 1.254 . S
O87 Zn84 2.031 . S
O87 C91 1.269 . S
O88 Zn85 1.986 . S
O88 C95 1.262 . S
O89 Zn84 2.049 . S
O89 C97 1.260 . S
O90 Zn85 1.996 . S
O90 C97 1.257 . S
C91 O86 1.254 . S
C91 O87 1.269 . S
C92 O93 1.249 . S
C92 O94 1.270 . S
O93 Zn85 1.943 . S
O93 C92 1.249 . S
O94 Zn84 2.067 . S
O94 C92 1.270 . S
C95 O88 1.262 . S
C95 O96 1.232 . S
O96 C95 1.232 . S
C97 O89 1.260 . S
C97 O90 1.257 . S
Zn98 O101 2.031 . S
Zn98 O103 2.049 . S
Zn98 O108 2.067 . S
Zn99 O100 1.962 . S
Zn99 O102 1.986 . S
Zn99 O104 1.996 . S
Zn99 O107 1.943 . S
O100 Zn99 1.962 . S
O100 C105 1.254 . S
O101 Zn98 2.031 . S
O101 C105 1.269 . S
O102 Zn99 1.986 . S
O102 C109 1.262 . S
O103 Zn98 2.049 . S
O103 C111 1.260 . S
O104 Zn99 1.996 . S
O104 C111 1.257 . S
C105 O100 1.254 . S
C105 O101 1.269 . S
C106 O107 1.249 . S
C106 O108 1.270 . S
O107 Zn99 1.943 . S
O107 C106 1.249 . S
O108 Zn98 2.067 . S
O108 C106 1.270 . S
C109 O102 1.262 . S
C109 O110 1.232 . S
O110 C109 1.232 . S
C111 O103 1.260 . S
C111 O104 1.257 . S
Zn112 O115 2.031 . S
Zn112 O117 2.049 . S
Zn112 O122 2.067 . S
Zn113 O114 1.962 . S
Zn113 O116 1.986 . S
Zn113 O118 1.996 . S
Zn113 O121 1.943 . S
O114 Zn113 1.962 . S
O114 C119 1.254 . S
O115 Zn112 2.031 . S
O115 C119 1.269 . S
O116 Zn113 1.986 . S
O116 C123 1.262 . S
O117 Zn112 2.049 . S
O117 C125 1.260 . S
O118 Zn113 1.996 . S
O118 C125 1.257 . S
C119 O114 1.254 . S
C119 O115 1.269 . S
C120 O121 1.249 . S
C120 O122 1.270 . S
O121 Zn113 1.943 . S
O121 C120 1.249 . S
O122 Zn112 2.067 . S
O122 C120 1.270 . S
C123 O116 1.262 . S
C123 O124 1.232 . S
O124 C123 1.232 . S
C125 O117 1.260 . S
C125 O118 1.257 . S
Zn126 O129 2.031 . S
Zn126 O131 2.049 . S
Zn126 O136 2.067 . S
Zn127 O128 1.962 . S
Zn127 O130 1.986 . S
Zn127 O132 1.996 . S
Zn127 O135 1.943 . S
O128 Zn127 1.962 . S
O128 C133 1.254 . S
O129 Zn126 2.031 . S
O129 C133 1.269 . S
O130 Zn127 1.986 . S
O130 C137 1.262 . S
O131 Zn126 2.049 . S
O131 C139 1.260 . S
O132 Zn127 1.996 . S
O132 C139 1.257 . S
C133 O128 1.254 . S
C133 O129 1.269 . S
C134 O135 1.249 . S
C134 O136 1.270 . S
O135 Zn127 1.943 . S
O135 C134 1.249 . S
O136 Zn126 2.067 . S
O136 C134 1.270 . S
C137 O130 1.262 . S
C137 O138 1.232 . S
O138 C137 1.232 . S
C139 O131 1.260 . S
C139 O132 1.257 . S
Zn140 O143 2.031 . S
Zn140 O145 2.049 . S
Zn140 O150 2.067 . S
Zn141 O142 1.962 . S
Zn141 O144 1.986 . S
Zn141 O146 1.996 . S
Zn141 O149 1.943 . S
O142 Zn141 1.962 . S
O142 C147 1.254 . S
O143 Zn140 2.031 . S
O143 C147 1.269 . S
O144 Zn141 1.986 . S
O144 C151 1.262 . S
O145 Zn140 2.049 . S
O145 C153 1.260 . S
O146 Zn141 1.996 . S
O146 C153 1.257 . S
C147 O142 1.254 . S
C147 O143 1.269 . S
C148 O149 1.249 . S
C148 O150 1.270 . S
O149 Zn141 1.943 . S
O149 C148 1.249 . S
O150 Zn140 2.067 . S
O150 C148 1.270 . S
C151 O144 1.262 . S
C151 O152 1.232 . S
O152 C151 1.232 . S
C153 O145 1.260 . S
C153 O146 1.257 . S
Zn154 O157 2.031 . S
Zn154 O159 2.049 . S
Zn154 O164 2.067 . S
Zn155 O156 1.962 . S
Zn155 O158 1.986 . S
Zn155 O160 1.996 . S
Zn155 O163 1.943 . S
O156 Zn155 1.962 . S
O156 C161 1.254 . S
O157 Zn154 2.031 . S
O157 C161 1.269 . S
O158 Zn155 1.986 . S
O158 C165 1.262 . S
O159 Zn154 2.049 . S
O159 C167 1.260 . S
O160 Zn155 1.996 . S
O160 C167 1.257 . S
C161 O156 1.254 . S
C161 O157 1.269 . S
C162 O163 1.249 . S
C162 O164 1.270 . S
O163 Zn155 1.943 . S
O163 C162 1.249 . S
O164 Zn154 2.067 . S
O164 C162 1.270 . S
C165 O158 1.262 . S
C165 O166 1.232 . S
O166 C165 1.232 . S
C167 O159 1.260 . S
C167 O160 1.257 . S
C168 C169 1.349 . S
C168 C170 1.327 . S
C168 H193 0.950 . S
C169 C168 1.349 . S
C169 C185 1.349 . S
C170 C168 1.327 . S
C170 C189 1.429 . S
C170 H194 0.942 1_556 S
C171 C188 1.574 1_565 S
C171 C190 1.368 . S
C171 H195 0.949 . S
H172 C176 0.949 . S
C173 C174 1.349 . S
C173 C175 1.327 . S
C173 H196 0.950 . S
C174 C173 1.349 . S
C174 C186 1.349 . S
C175 C173 1.327 . S
C175 C191 1.429 . S
C175 H197 0.943 1_554 S
C176 H172 0.949 . S
C176 C184 1.574 1_545 S
C176 C192 1.368 . S
H177 C185 0.950 . S
H178 C183 0.950 . S
H179 C184 0.949 . S
H180 C186 0.950 . S
H181 C187 0.950 . S
H182 C188 0.949 . S
C183 H178 0.950 . S
C183 C185 1.327 . S
C183 C189 1.429 . S
C184 C176 1.574 1_565 S
C184 H179 0.949 . S
C184 C190 1.368 1_554 S
C185 C169 1.349 . S
C185 H177 0.950 . S
C185 C183 1.327 . S
C186 C174 1.349 . S
C186 H180 0.950 . S
C186 C187 1.327 . S
C187 H181 0.950 . S
C187 C186 1.327 . S
C187 C191 1.429 . S
C188 C171 1.574 1_545 S
C188 H182 0.949 . S
C188 C192 1.368 1_556 S
C189 C170 1.429 . S
C189 C183 1.429 . S
C189 C190 1.523 . S
C190 C171 1.368 . S
C190 C184 1.368 1_556 S
C190 C189 1.523 . S
C191 C175 1.429 . S
C191 C187 1.429 . S
C191 C192 1.523 . S
C192 C176 1.368 . S
C192 C188 1.368 1_554 S
C192 C191 1.523 . S
H193 C168 0.950 . S
H194 C170 0.942 1_554 S
H195 C171 0.949 . S
H196 C173 0.950 . S
H197 C175 0.943 1_556 S
C198 C199 1.349 . S
C198 C200 1.327 . S
C198 H223 0.950 . S
C199 C198 1.349 . S
C199 C215 1.349 . S
C200 C198 1.327 . S
C200 C219 1.429 . S
C200 H224 0.950 . S
C201 C218 1.574 . S
C201 C220 1.368 . S
C201 H225 0.949 . S
H202 C206 0.949 . S
C203 C204 1.349 . S
C203 C205 1.327 . S
C203 H226 0.950 . S
C204 C203 1.349 . S
C204 C216 1.349 . S
C205 C203 1.327 . S
C205 C221 1.429 . S
C205 H227 0.950 . S
C206 H202 0.949 . S
C206 C214 1.574 . S
C206 C222 1.368 . S
H207 C215 0.950 . S
H208 C213 0.950 . S
H209 C214 0.949 . S
H210 C216 0.950 . S
H211 C217 0.950 . S
H212 C218 0.949 . S
C213 H208 0.950 . S
C213 C215 1.327 . S
C213 C219 1.429 . S
C214 C206 1.574 . S
C214 H209 0.949 . S
C214 C220 1.368 . S
C215 C199 1.349 . S
C215 H207 0.950 . S
C215 C213 1.327 . S
C216 C204 1.349 . S
C216 H210 0.950 . S
C216 C217 1.327 . S
C217 H211 0.950 . S
C217 C216 1.327 . S
C217 C221 1.429 . S
C218 C201 1.574 . S
C218 H212 0.949 . S
C218 C222 1.368 . S
C219 C200 1.429 . S
C219 C213 1.429 . S
C219 C220 1.523 . S
C220 C201 1.368 . S
C220 C214 1.368 . S
C220 C219 1.523 . S
C221 C205 1.429 . S
C221 C217 1.429 . S
C221 C222 1.523 . S
C222 C206 1.368 . S
C222 C218 1.368 . S
C222 C221 1.523 . S
H223 C198 0.950 . S
H224 C200 0.950 . S
H225 C201 0.949 . S
H226 C203 0.950 . S
H227 C205 0.950 . S
C228 C229 1.349 . S
C228 C230 1.327 . S
C228 H253 0.950 . S
C229 C228 1.349 . S
C229 C245 1.349 . S
C230 C228 1.327 . S
C230 C249 1.429 . S
C230 H254 0.950 . S
C231 C248 1.574 1_655 S
C231 C250 1.368 . S
C231 H255 0.949 . S
H232 C236 0.949 . S
C233 C234 1.349 . S
C233 C235 1.327 . S
C233 H256 0.950 . S
C234 C233 1.349 . S
C234 C246 1.349 . S
C235 C233 1.327 . S
C235 C251 1.429 . S
C235 H257 0.950 . S
C236 H232 0.949 . S
C236 C244 1.574 1_455 S
C236 C252 1.368 . S
H237 C245 0.950 . S
H238 C243 0.950 . S
H239 C244 0.949 . S
H240 C246 0.950 . S
H241 C247 0.950 . S
H242 C248 0.949 . S
C243 H238 0.950 . S
C243 C245 1.327 . S
C243 C249 1.429 . S
C244 C236 1.574 1_655 S
C244 H239 0.949 . S
C244 C250 1.368 . S
C245 C229 1.349 . S
C245 H237 0.950 . S
C245 C243 1.327 . S
C246 C234 1.349 . S
C246 H240 0.950 . S
C246 C247 1.327 . S
C247 H241 0.950 . S
C247 C246 1.327 . S
C247 C251 1.429 . S
C248 C231 1.574 1_455 S
C248 H242 0.949 . S
C248 C252 1.368 . S
C249 C230 1.429 . S
C249 C243 1.429 . S
C249 C250 1.523 . S
C250 C231 1.368 . S
C250 C244 1.368 . S
C250 C249 1.523 . S
C251 C235 1.429 . S
C251 C247 1.429 . S
C251 C252 1.523 . S
C252 C236 1.368 . S
C252 C248 1.368 . S
C252 C251 1.523 . S
H253 C228 0.950 . S
H254 C230 0.950 . S
H255 C231 0.949 . S
H256 C233 0.950 . S
H257 C235 0.950 . S
C258 C259 1.349 . S
C258 C260 1.327 . S
C258 H283 0.950 . S
C259 C258 1.349 . S
C259 C275 1.349 . S
C260 C258 1.327 . S
C260 C279 1.429 . S
C260 H284 0.950 . S
C261 C278 1.574 1_565 S
C261 C280 1.368 1_556 S
C261 H285 0.949 . S
H262 C266 0.949 . S
C263 C264 1.349 . S
C263 C265 1.327 . S
C263 H286 0.950 . S
C264 C263 1.349 . S
C264 C276 1.349 . S
C265 C263 1.327 . S
C265 C281 1.429 . S
C265 H287 0.950 . S
C266 H262 0.949 . S
C266 C274 1.574 1_545 S
C266 C282 1.368 1_554 S
H267 C275 0.950 . S
H268 C273 0.950 1_556 S
H269 C274 0.949 . S
H270 C276 0.950 . S
H271 C277 0.950 1_554 S
H272 C278 0.949 . S
C273 H268 0.950 1_554 S
C273 C275 1.327 . S
C273 C279 1.429 . S
C274 C266 1.574 1_565 S
C274 H269 0.949 . S
C274 C280 1.368 . S
C275 C259 1.349 . S
C275 H267 0.950 . S
C275 C273 1.327 . S
C276 C264 1.349 . S
C276 H270 0.950 . S
C276 C277 1.327 . S
C277 H271 0.950 1_556 S
C277 C276 1.327 . S
C277 C281 1.429 . S
C278 C261 1.574 1_545 S
C278 H272 0.949 . S
C278 C282 1.368 . S
C279 C260 1.429 . S
C279 C273 1.429 . S
C279 C280 1.523 . S
C280 C261 1.368 1_554 S
C280 C274 1.368 . S
C280 C279 1.523 . S
C281 C265 1.429 . S
C281 C277 1.429 . S
C281 C282 1.523 . S
C282 C266 1.368 1_556 S
C282 C278 1.368 . S
C282 C281 1.523 . S
H283 C258 0.950 . S
H284 C260 0.950 . S
H285 C261 0.949 . S
H286 C263 0.950 . S
H287 C265 0.950 . S
C288 C289 1.349 . S
C288 C290 1.327 . S
C288 H313 0.950 . S
C289 C288 1.349 . S
C289 C305 1.349 . S
C290 C288 1.327 . S
C290 C309 1.429 . S
C290 H314 0.950 . S
C291 C308 1.574 . S
C291 C310 1.368 . S
C291 H315 0.949 . S
H292 C296 0.949 . S
C293 C294 1.349 . S
C293 C295 1.327 . S
C293 H316 0.950 . S
C294 C293 1.349 . S
C294 C306 1.349 . S
C295 C293 1.327 . S
C295 C311 1.429 . S
C295 H317 0.950 . S
C296 H292 0.949 . S
C296 C304 1.574 . S
C296 C312 1.368 . S
H297 C305 0.950 . S
H298 C303 0.950 . S
H299 C304 0.949 . S
H300 C306 0.950 . S
H301 C307 0.950 . S
H302 C308 0.949 . S
C303 H298 0.950 . S
C303 C305 1.327 . S
C303 C309 1.429 . S
C304 C296 1.574 . S
C304 H299 0.949 . S
C304 C310 1.368 . S
C305 C289 1.349 . S
C305 H297 0.950 . S
C305 C303 1.327 . S
C306 C294 1.349 . S
C306 H300 0.950 . S
C306 C307 1.327 . S
C307 H301 0.950 . S
C307 C306 1.327 . S
C307 C311 1.429 . S
C308 C291 1.574 . S
C308 H302 0.949 . S
C308 C312 1.368 . S
C309 C290 1.429 . S
C309 C303 1.429 . S
C309 C310 1.523 . S
C310 C291 1.368 . S
C310 C304 1.368 . S
C310 C309 1.523 . S
C311 C295 1.429 . S
C311 C307 1.429 . S
C311 C312 1.523 . S
C312 C296 1.368 . S
C312 C308 1.368 . S
C312 C311 1.523 . S
H313 C288 0.950 . S
H314 C290 0.950 . S
H315 C291 0.949 . S
H316 C293 0.950 . S
H317 C295 0.950 . S
C318 C319 1.349 . S
C318 C320 1.327 . S
C318 H343 0.950 . S
C319 C318 1.349 . S
C319 C335 1.349 . S
C320 C318 1.327 . S
C320 C339 1.429 . S
C320 H344 0.950 . S
C321 C338 1.574 1_655 S
C321 C340 1.368 . S
C321 H345 0.949 . S
H322 C326 0.949 . S
C323 C324 1.349 . S
C323 C325 1.327 . S
C323 H346 0.950 . S
C324 C323 1.349 . S
C324 C336 1.349 . S
C325 C323 1.327 . S
C325 C341 1.429 . S
C325 H347 0.950 . S
C326 H322 0.949 . S
C326 C334 1.574 1_455 S
C326 C342 1.368 . S
H327 C335 0.950 . S
H328 C333 0.950 . S
H329 C334 0.949 . S
H330 C336 0.950 . S
H331 C337 0.950 . S
H332 C338 0.949 . S
C333 H328 0.950 . S
C333 C335 1.327 . S
C333 C339 1.429 . S
C334 C326 1.574 1_655 S
C334 H329 0.949 . S
C334 C340 1.368 . S
C335 C319 1.349 . S
C335 H327 0.950 . S
C335 C333 1.327 . S
C336 C324 1.349 . S
C336 H330 0.950 . S
C336 C337 1.327 . S
C337 H331 0.950 . S
C337 C336 1.327 . S
C337 C341 1.429 . S
C338 C321 1.574 1_455 S
C338 H332 0.949 . S
C338 C342 1.368 . S
C339 C320 1.429 . S
C339 C333 1.429 . S
C339 C340 1.523 . S
C340 C321 1.368 . S
C340 C334 1.368 . S
C340 C339 1.523 . S
C341 C325 1.429 . S
C341 C337 1.429 . S
C341 C342 1.523 . S
C342 C326 1.368 . S
C342 C338 1.368 . S
C342 C341 1.523 . S
H343 C318 0.950 . S
H344 C320 0.950 . S
H345 C321 0.949 . S
H346 C323 0.950 . S
H347 C325 0.950 . S
C348 C349 1.349 . S
C348 C350 1.327 . S
C348 H373 0.950 . S
C349 C348 1.349 . S
C349 C365 1.349 . S
C350 C348 1.327 . S
C350 C369 1.429 . S
C350 H374 0.950 . S
C351 C368 1.574 . S
C351 C370 1.368 1_554 S
C351 H375 0.949 . S
H352 C356 0.949 . S
C353 C354 1.349 . S
C353 C355 1.327 . S
C353 H376 0.950 . S
C354 C353 1.349 . S
C354 C366 1.349 . S
C355 C353 1.327 . S
C355 C371 1.429 . S
C355 H377 0.950 . S
C356 H352 0.949 . S
C356 C364 1.574 . S
C356 C372 1.368 1_556 S
H357 C365 0.950 . S
H358 C363 0.950 . S
H359 C364 0.949 . S
H360 C366 0.950 . S
H361 C367 0.950 . S
H362 C368 0.949 . S
C363 H358 0.950 . S
C363 C365 1.327 . S
C363 C369 1.429 . S
C364 C356 1.574 . S
C364 H359 0.949 . S
C364 C370 1.368 . S
C365 C349 1.349 . S
C365 H357 0.950 . S
C365 C363 1.327 . S
C366 C354 1.349 . S
C366 H360 0.950 . S
C366 C367 1.327 . S
C367 H361 0.950 . S
C367 C366 1.327 . S
C367 C371 1.429 . S
C368 C351 1.574 . S
C368 H362 0.949 . S
C368 C372 1.368 . S
C369 C350 1.429 . S
C369 C363 1.429 . S
C369 C370 1.523 . S
C370 C351 1.368 1_556 S
C370 C364 1.368 . S
C370 C369 1.523 . S
C371 C355 1.429 . S
C371 C367 1.429 . S
C371 C372 1.523 . S
C372 C356 1.368 1_554 S
C372 C368 1.368 . S
C372 C371 1.523 . S
H373 C348 0.950 . S
H374 C350 0.950 . S
H375 C351 0.949 . S
H376 C353 0.950 . S
H377 C355 0.950 . S
C378 C379 1.349 . S
C378 C380 1.327 . S
C378 H403 0.950 . S
C379 C378 1.349 . S
C379 C395 1.349 . S
C380 C378 1.327 . S
C380 C399 1.429 . S
C380 H404 0.950 . S
C381 C398 1.574 . S
C381 C400 1.368 . S
C381 H405 0.949 . S
H382 C386 0.949 . S
C383 C384 1.349 . S
C383 C385 1.327 . S
C383 H406 0.950 . S
C384 C383 1.349 . S
C384 C396 1.349 . S
C385 C383 1.327 . S
C385 C401 1.429 . S
C385 H407 0.950 . S
C386 H382 0.949 . S
C386 C394 1.574 . S
C386 C402 1.368 . S
H387 C395 0.950 . S
H388 C393 0.950 . S
H389 C394 0.949 . S
H390 C396 0.950 . S
H391 C397 0.950 . S
H392 C398 0.949 . S
C393 H388 0.950 . S
C393 C395 1.327 . S
C393 C399 1.429 . S
C394 C386 1.574 . S
C394 H389 0.949 . S
C394 C400 1.368 . S
C395 C379 1.349 . S
C395 H387 0.950 . S
C395 C393 1.327 . S
C396 C384 1.349 . S
C396 H390 0.950 . S
C396 C397 1.327 . S
C397 H391 0.950 . S
C397 C396 1.327 . S
C397 C401 1.429 . S
C398 C381 1.574 . S
C398 H392 0.949 . S
C398 C402 1.368 . S
C399 C380 1.429 . S
C399 C393 1.429 . S
C399 C400 1.523 . S
C400 C381 1.368 . S
C400 C394 1.368 . S
C400 C399 1.523 . S
C401 C385 1.429 . S
C401 C397 1.429 . S
C401 C402 1.523 . S
C402 C386 1.368 . S
C402 C398 1.368 . S
C402 C401 1.523 . S
H403 C378 0.950 . S
H404 C380 0.950 . S
H405 C381 0.949 . S
H406 C383 0.950 . S
H407 C385 0.950 . S
C408 C409 1.349 . S
C408 C410 1.327 . S
C408 H433 0.950 . S
C409 C408 1.349 . S
C409 C425 1.349 . S
C410 C408 1.327 . S
C410 C429 1.429 . S
C410 H434 0.950 . S
C411 C428 1.574 . S
C411 C430 1.368 . S
C411 H435 0.949 . S
H412 C416 0.949 . S
C413 C414 1.349 . S
C413 C415 1.327 . S
C413 H436 0.950 . S
C414 C413 1.349 . S
C414 C426 1.349 . S
C415 C413 1.327 . S
C415 C431 1.429 . S
C415 H437 0.950 . S
C416 H412 0.949 . S
C416 C424 1.574 . S
C416 C432 1.368 . S
H417 C425 0.950 . S
H418 C423 0.950 . S
H419 C424 0.949 . S
H420 C426 0.950 . S
H421 C427 0.950 . S
H422 C428 0.949 . S
C423 H418 0.950 . S
C423 C425 1.327 . S
C423 C429 1.429 . S
C424 C416 1.574 . S
C424 H419 0.949 . S
C424 C430 1.368 . S
C425 C409 1.349 . S
C425 H417 0.950 . S
C425 C423 1.327 . S
C426 C414 1.349 . S
C426 H420 0.950 . S
C426 C427 1.327 . S
C427 H421 0.950 . S
C427 C426 1.327 . S
C427 C431 1.429 . S
C428 C411 1.574 . S
C428 H422 0.949 . S
C428 C432 1.368 . S
C429 C410 1.429 . S
C429 C423 1.429 . S
C429 C430 1.523 . S
C430 C411 1.368 . S
C430 C424 1.368 . S
C430 C429 1.523 . S
C431 C415 1.429 . S
C431 C427 1.429 . S
C431 C432 1.523 . S
C432 C416 1.368 . S
C432 C428 1.368 . S
C432 C431 1.523 . S
H433 C408 0.950 . S
H434 C410 0.950 . S
H435 C411 0.949 . S
H436 C413 0.950 . S
H437 C415 0.950 . S
C438 C439 1.349 . S
C438 C440 1.327 . S
C438 H463 0.950 . S
C439 C438 1.349 . S
C439 C455 1.349 . S
C440 C438 1.327 . S
C440 C459 1.429 . S
C440 H464 0.950 . S
C441 C458 1.574 . S
C441 C460 1.368 1_554 S
C441 H465 0.949 . S
H442 C446 0.949 . S
C443 C444 1.349 . S
C443 C445 1.327 . S
C443 H466 0.950 . S
C444 C443 1.349 . S
C444 C456 1.349 . S
C445 C443 1.327 . S
C445 C461 1.429 . S
C445 H467 0.950 . S
C446 H442 0.949 . S
C446 C454 1.574 . S
C446 C462 1.368 1_556 S
H447 C455 0.950 . S
H448 C453 0.950 . S
H449 C454 0.949 . S
H450 C456 0.950 . S
H451 C457 0.950 . S
H452 C458 0.949 . S
C453 H448 0.950 . S
C453 C455 1.327 . S
C453 C459 1.429 . S
C454 C446 1.574 . S
C454 H449 0.949 . S
C454 C460 1.368 . S
C455 C439 1.349 . S
C455 H447 0.950 . S
C455 C453 1.327 . S
C456 C444 1.349 . S
C456 H450 0.950 . S
C456 C457 1.327 . S
C457 H451 0.950 . S
C457 C456 1.327 . S
C457 C461 1.429 . S
C458 C441 1.574 . S
C458 H452 0.949 . S
C458 C462 1.368 . S
C459 C440 1.429 . S
C459 C453 1.429 . S
C459 C460 1.523 . S
C460 C441 1.368 1_556 S
C460 C454 1.368 . S
C460 C459 1.523 . S
C461 C445 1.429 . S
C461 C457 1.429 . S
C461 C462 1.523 . S
C462 C446 1.368 1_554 S
C462 C458 1.368 . S
C462 C461 1.523 . S
H463 C438 0.950 . S
H464 C440 0.950 . S
H465 C441 0.949 . S
H466 C443 0.950 . S
H467 C445 0.950 . S
C468 C469 1.349 . S
C468 C470 1.327 . S
C468 H493 0.950 . S
C469 C468 1.349 . S
C469 C485 1.349 . S
C470 C468 1.327 . S
C470 C489 1.429 . S
C470 H494 0.950 . S
C471 C488 1.574 . S
C471 C490 1.368 . S
C471 H495 0.949 . S
H472 C476 0.949 . S
C473 C474 1.349 . S
C473 C475 1.327 . S
C473 H496 0.950 . S
C474 C473 1.349 . S
C474 C486 1.349 . S
C475 C473 1.327 . S
C475 C491 1.429 . S
C475 H497 0.950 . S
C476 H472 0.949 . S
C476 C484 1.574 . S
C476 C492 1.368 . S
H477 C485 0.950 . S
H478 C483 0.950 . S
H479 C484 0.949 . S
H480 C486 0.950 . S
H481 C487 0.950 . S
H482 C488 0.949 . S
C483 H478 0.950 . S
C483 C485 1.327 . S
C483 C489 1.429 . S
C484 C476 1.574 . S
C484 H479 0.949 . S
C484 C490 1.368 . S
C485 C469 1.349 . S
C485 H477 0.950 . S
C485 C483 1.327 . S
C486 C474 1.349 . S
C486 H480 0.950 . S
C486 C487 1.327 . S
C487 H481 0.950 . S
C487 C486 1.327 . S
C487 C491 1.429 . S
C488 C471 1.574 . S
C488 H482 0.949 . S
C488 C492 1.368 . S
C489 C470 1.429 . S
C489 C483 1.429 . S
C489 C490 1.523 . S
C490 C471 1.368 . S
C490 C484 1.368 . S
C490 C489 1.523 . S
C491 C475 1.429 . S
C491 C487 1.429 . S
C491 C492 1.523 . S
C492 C476 1.368 . S
C492 C488 1.368 . S
C492 C491 1.523 . S
H493 C468 0.950 . S
H494 C470 0.950 . S
H495 C471 0.949 . S
H496 C473 0.950 . S
H497 C475 0.950 . S
C498 C499 1.349 . S
C498 C500 1.327 . S
C498 H523 0.950 . S
C499 C498 1.349 . S
C499 C515 1.349 . S
C500 C498 1.327 . S
C500 C519 1.429 . S
C500 H524 0.950 . S
C501 C518 1.574 . S
C501 C520 1.368 . S
C501 H525 0.949 . S
H502 C506 0.949 . S
C503 C504 1.349 . S
C503 C505 1.327 . S
C503 H526 0.950 . S
C504 C503 1.349 . S
C504 C516 1.349 . S
C505 C503 1.327 . S
C505 C521 1.429 . S
C505 H527 0.950 . S
C506 H502 0.949 . S
C506 C514 1.574 . S
C506 C522 1.368 . S
H507 C515 0.950 . S
H508 C513 0.950 . S
H509 C514 0.949 . S
H510 C516 0.950 . S
H511 C517 0.950 . S
H512 C518 0.949 . S
C513 H508 0.950 . S
C513 C515 1.327 . S
C513 C519 1.429 . S
C514 C506 1.574 . S
C514 H509 0.949 . S
C514 C520 1.368 . S
C515 C499 1.349 . S
C515 H507 0.950 . S
C515 C513 1.327 . S
C516 C504 1.349 . S
C516 H510 0.950 . S
C516 C517 1.327 . S
C517 H511 0.950 . S
C517 C516 1.327 . S
C517 C521 1.429 . S
C518 C501 1.574 . S
C518 H512 0.949 . S
C518 C522 1.368 . S
C519 C500 1.429 . S
C519 C513 1.429 . S
C519 C520 1.523 . S
C520 C501 1.368 . S
C520 C514 1.368 . S
C520 C519 1.523 . S
C521 C505 1.429 . S
C521 C517 1.429 . S
C521 C522 1.523 . S
C522 C506 1.368 . S
C522 C518 1.368 . S
C522 C521 1.523 . S
H523 C498 0.950 . S
H524 C500 0.950 . S
H525 C501 0.949 . S
H526 C503 0.950 . S
H527 C505 0.950 . S
C528 C529 1.349 . S
C528 C530 1.327 . S
C528 H553 0.950 . S
C529 C528 1.349 . S
C529 C545 1.349 . S
C530 C528 1.327 . S
C530 C549 1.429 . S
C530 H554 0.950 . S
C531 C548 1.574 . S
C531 C550 1.368 . S
C531 H555 0.949 . S
H532 C536 0.949 . S
C533 C534 1.349 . S
C533 C535 1.327 . S
C533 H556 0.950 . S
C534 C533 1.349 . S
C534 C546 1.349 . S
C535 C533 1.327 . S
C535 C551 1.429 . S
C535 H557 0.950 . S
C536 H532 0.949 . S
C536 C544 1.574 . S
C536 C552 1.368 . S
H537 C545 0.950 . S
H538 C543 0.950 . S
H539 C544 0.949 . S
H540 C546 0.950 . S
H541 C547 0.950 . S
H542 C548 0.949 . S
C543 H538 0.950 . S
C543 C545 1.327 . S
C543 C549 1.429 . S
C544 C536 1.574 . S
C544 H539 0.949 . S
C544 C550 1.368 . S
C545 C529 1.349 . S
C545 H537 0.950 . S
C545 C543 1.327 . S
C546 C534 1.349 . S
C546 H540 0.950 . S
C546 C547 1.327 . S
C547 H541 0.950 . S
C547 C546 1.327 . S
C547 C551 1.429 . S
C548 C531 1.574 . S
C548 H542 0.949 . S
C548 C552 1.368 . S
C549 C530 1.429 . S
C549 C543 1.429 . S
C549 C550 1.523 . S
C550 C531 1.368 . S
C550 C544 1.368 . S
C550 C549 1.523 . S
C551 C535 1.429 . S
C551 C547 1.429 . S
C551 C552 1.523 . S
C552 C536 1.368 . S
C552 C548 1.368 . S
C552 C551 1.523 . S
H553 C528 0.950 . S
H554 C530 0.950 . S
H555 C531 0.949 . S
H556 C533 0.950 . S
H557 C535 0.950 . S
C558 C559 1.349 . S
C558 C560 1.327 . S
C558 H583 0.950 . S
C559 C558 1.349 . S
C559 C575 1.349 . S
C560 C558 1.327 . S
C560 C579 1.429 . S
C560 H584 0.950 . S
C561 C578 1.574 . S
C561 C580 1.368 . S
C561 H585 0.949 . S
H562 C566 0.949 . S
C563 C564 1.349 . S
C563 C565 1.327 . S
C563 H586 0.950 . S
C564 C563 1.349 . S
C564 C576 1.349 . S
C565 C563 1.327 . S
C565 C581 1.429 . S
C565 H587 0.950 . S
C566 H562 0.949 . S
C566 C574 1.574 . S
C566 C582 1.368 . S
H567 C575 0.950 . S
H568 C573 0.950 . S
H569 C574 0.949 . S
H570 C576 0.950 . S
H571 C577 0.950 . S
H572 C578 0.949 . S
C573 H568 0.950 . S
C573 C575 1.327 . S
C573 C579 1.429 . S
C574 C566 1.574 . S
C574 H569 0.949 . S
C574 C580 1.368 . S
C575 C559 1.349 . S
C575 H567 0.950 . S
C575 C573 1.327 . S
C576 C564 1.349 . S
C576 H570 0.950 . S
C576 C577 1.327 . S
C577 H571 0.950 . S
C577 C576 1.327 . S
C577 C581 1.429 . S
C578 C561 1.574 . S
C578 H572 0.949 . S
C578 C582 1.368 . S
C579 C560 1.429 . S
C579 C573 1.429 . S
C579 C580 1.523 . S
C580 C561 1.368 . S
C580 C574 1.368 . S
C580 C579 1.523 . S
C581 C565 1.429 . S
C581 C577 1.429 . S
C581 C582 1.523 . S
C582 C566 1.368 . S
C582 C578 1.368 . S
C582 C581 1.523 . S
H583 C558 0.950 . S
H584 C560 0.950 . S
H585 C561 0.949 . S
H586 C563 0.950 . S
H587 C565 0.950 . S
C588 C589 1.349 . S
C588 C590 1.327 . S
C588 H613 0.950 . S
C589 C588 1.349 . S
C589 C605 1.349 . S
C590 C588 1.327 . S
C590 C609 1.429 . S
C590 H614 0.950 . S
C591 C608 1.574 . S
C591 C610 1.368 . S
C591 H615 0.949 . S
H592 C596 0.949 . S
C593 C594 1.349 . S
C593 C595 1.327 . S
C593 H616 0.950 . S
C594 C593 1.349 . S
C594 C606 1.349 . S
C595 C593 1.327 . S
C595 C611 1.429 . S
C595 H617 0.950 . S
C596 H592 0.949 . S
C596 C604 1.574 . S
C596 C612 1.368 . S
H597 C605 0.950 . S
H598 C603 0.950 . S
H599 C604 0.949 . S
H600 C606 0.950 . S
H601 C607 0.950 . S
H602 C608 0.949 . S
C603 H598 0.950 . S
C603 C605 1.327 . S
C603 C609 1.429 . S
C604 C596 1.574 . S
C604 H599 0.949 . S
C604 C610 1.368 . S
C605 C589 1.349 . S
C605 H597 0.950 . S
C605 C603 1.327 . S
C606 C594 1.349 . S
C606 H600 0.950 . S
C606 C607 1.327 . S
C607 H601 0.950 . S
C607 C606 1.327 . S
C607 C611 1.429 . S
C608 C591 1.574 . S
C608 H602 0.949 . S
C608 C612 1.368 . S
C609 C590 1.429 . S
C609 C603 1.429 . S
C609 C610 1.523 . S
C610 C591 1.368 . S
C610 C604 1.368 . S
C610 C609 1.523 . S
C611 C595 1.429 . S
C611 C607 1.429 . S
C611 C612 1.523 . S
C612 C596 1.368 . S
C612 C608 1.368 . S
C612 C611 1.523 . S
H613 C588 0.950 . S
H614 C590 0.950 . S
H615 C591 0.949 . S
H616 C593 0.950 . S
H617 C595 0.950 . S
C618 C619 1.349 . S
C618 C620 1.327 . S
C618 H643 0.950 . S
C619 C618 1.349 . S
C619 C635 1.349 . S
C620 C618 1.327 . S
C620 C639 1.429 . S
C620 H644 0.950 . S
C621 C638 1.574 . S
C621 C640 1.368 . S
C621 H645 0.949 . S
H622 C626 0.949 . S
C623 C624 1.349 . S
C623 C625 1.327 . S
C623 H646 0.950 . S
C624 C623 1.349 . S
C624 C636 1.349 . S
C625 C623 1.327 . S
C625 C641 1.429 . S
C625 H647 0.950 . S
C626 H622 0.949 . S
C626 C634 1.574 . S
C626 C642 1.368 . S
H627 C635 0.950 . S
H628 C633 0.950 . S
H629 C634 0.949 . S
H630 C636 0.950 . S
H631 C637 0.950 . S
H632 C638 0.949 . S
C633 H628 0.950 . S
C633 C635 1.327 . S
C633 C639 1.429 . S
C634 C626 1.574 . S
C634 H629 0.949 . S
C634 C640 1.368 . S
C635 C619 1.349 . S
C635 H627 0.950 . S
C635 C633 1.327 . S
C636 C624 1.349 . S
C636 H630 0.950 . S
C636 C637 1.327 . S
C637 H631 0.950 . S
C637 C636 1.327 . S
C637 C641 1.429 . S
C638 C621 1.574 . S
C638 H632 0.949 . S
C638 C642 1.368 . S
C639 C620 1.429 . S
C639 C633 1.429 . S
C639 C640 1.523 . S
C640 C621 1.368 . S
C640 C634 1.368 . S
C640 C639 1.523 . S
C641 C625 1.429 . S
C641 C637 1.429 . S
C641 C642 1.523 . S
C642 C626 1.368 . S
C642 C638 1.368 . S
C642 C641 1.523 . S
H643 C618 0.950 . S
H644 C620 0.950 . S
H645 C621 0.949 . S
H646 C623 0.950 . S
H647 C625 0.950 . S
C648 C649 1.349 . S
C648 C650 1.327 . S
C648 H673 0.950 . S
C649 C648 1.349 . S
C649 C665 1.349 . S
C650 C648 1.327 . S
C650 C669 1.429 . S
C650 H674 0.950 . S
C651 C668 1.574 . S
C651 C670 1.368 . S
C651 H675 0.949 . S
H652 C656 0.949 . S
C653 C654 1.349 . S
C653 C655 1.327 . S
C653 H676 0.950 . S
C654 C653 1.349 . S
C654 C666 1.349 . S
C655 C653 1.327 . S
C655 C671 1.429 . S
C655 H677 0.950 . S
C656 H652 0.949 . S
C656 C664 1.574 . S
C656 C672 1.368 . S
H657 C665 0.950 . S
H658 C663 0.950 . S
H659 C664 0.949 . S
H660 C666 0.950 . S
H661 C667 0.950 . S
H662 C668 0.949 . S
C663 H658 0.950 . S
C663 C665 1.327 . S
C663 C669 1.429 . S
C664 C656 1.574 . S
C664 H659 0.949 . S
C664 C670 1.368 . S
C665 C649 1.349 . S
C665 H657 0.950 . S
C665 C663 1.327 . S
C666 C654 1.349 . S
C666 H660 0.950 . S
C666 C667 1.327 . S
C667 H661 0.950 . S
C667 C666 1.327 . S
C667 C671 1.429 . S
C668 C651 1.574 . S
C668 H662 0.949 . S
C668 C672 1.368 . S
C669 C650 1.429 . S
C669 C663 1.429 . S
C669 C670 1.523 . S
C670 C651 1.368 . S
C670 C664 1.368 . S
C670 C669 1.523 . S
C671 C655 1.429 . S
C671 C667 1.429 . S
C671 C672 1.523 . S
C672 C656 1.368 . S
C672 C668 1.368 . S
C672 C671 1.523 . S
H673 C648 0.950 . S
H674 C650 0.950 . S
H675 C651 0.949 . S
H676 C653 0.950 . S
H677 C655 0.950 . S
C678 C679 1.349 . S
C678 C680 1.327 . S
C678 H703 0.950 . S
C679 C678 1.349 . S
C679 C695 1.349 . S
C680 C678 1.327 . S
C680 C699 1.429 . S
C680 H704 0.950 . S
C681 C698 1.574 . S
C681 C700 1.368 . S
C681 H705 0.949 . S
H682 C686 0.949 . S
C683 C684 1.349 . S
C683 C685 1.327 . S
C683 H706 0.950 . S
C684 C683 1.349 . S
C684 C696 1.349 . S
C685 C683 1.327 . S
C685 C701 1.429 . S
C685 H707 0.950 . S
C686 H682 0.949 . S
C686 C694 1.574 . S
C686 C702 1.368 . S
H687 C695 0.950 . S
H688 C693 0.950 . S
H689 C694 0.949 . S
H690 C696 0.950 . S
H691 C697 0.950 . S
H692 C698 0.949 . S
C693 H688 0.950 . S
C693 C695 1.327 . S
C693 C699 1.429 . S
C694 C686 1.574 . S
C694 H689 0.949 . S
C694 C700 1.368 . S
C695 C679 1.349 . S
C695 H687 0.950 . S
C695 C693 1.327 . S
C696 C684 1.349 . S
C696 H690 0.950 . S
C696 C697 1.327 . S
C697 H691 0.950 . S
C697 C696 1.327 . S
C697 C701 1.429 . S
C698 C681 1.574 . S
C698 H692 0.949 . S
C698 C702 1.368 . S
C699 C680 1.429 . S
C699 C693 1.429 . S
C699 C700 1.523 . S
C700 C681 1.368 . S
C700 C694 1.368 . S
C700 C699 1.523 . S
C701 C685 1.429 . S
C701 C697 1.429 . S
C701 C702 1.523 . S
C702 C686 1.368 . S
C702 C698 1.368 . S
C702 C701 1.523 . S
H703 C678 0.950 . S
H704 C680 0.950 . S
H705 C681 0.949 . S
H706 C683 0.950 . S
H707 C685 0.950 . S
C708 C709 1.349 . S
C708 C710 1.327 . S
C708 H733 0.950 . S
C709 C708 1.349 . S
C709 C725 1.349 . S
C710 C708 1.327 . S
C710 C729 1.429 . S
C710 H734 0.950 . S
C711 C728 1.574 . S
C711 C730 1.368 . S
C711 H735 0.949 . S
H712 C716 0.949 . S
C713 C714 1.349 . S
C713 C715 1.327 . S
C713 H736 0.950 . S
C714 C713 1.349 . S
C714 C726 1.349 . S
C715 C713 1.327 . S
C715 C731 1.429 . S
C715 H737 0.950 . S
C716 H712 0.949 . S
C716 C724 1.574 . S
C716 C732 1.368 . S
H717 C725 0.950 . S
H718 C723 0.950 . S
H719 C724 0.949 . S
H720 C726 0.950 . S
H721 C727 0.950 . S
H722 C728 0.949 . S
C723 H718 0.950 . S
C723 C725 1.327 . S
C723 C729 1.429 . S
C724 C716 1.574 . S
C724 H719 0.949 . S
C724 C730 1.368 . S
C725 C709 1.349 . S
C725 H717 0.950 . S
C725 C723 1.327 . S
C726 C714 1.349 . S
C726 H720 0.950 . S
C726 C727 1.327 . S
C727 H721 0.950 . S
C727 C726 1.327 . S
C727 C731 1.429 . S
C728 C711 1.574 . S
C728 H722 0.949 . S
C728 C732 1.368 . S
C729 C710 1.429 . S
C729 C723 1.429 . S
C729 C730 1.523 . S
C730 C711 1.368 . S
C730 C724 1.368 . S
C730 C729 1.523 . S
C731 C715 1.429 . S
C731 C727 1.429 . S
C731 C732 1.523 . S
C732 C716 1.368 . S
C732 C728 1.368 . S
C732 C731 1.523 . S
H733 C708 0.950 . S
H734 C710 0.950 . S
H735 C711 0.949 . S
H736 C713 0.950 . S
H737 C715 0.950 . S
C738 C739 1.349 . S
C738 C740 1.327 . S
C738 H763 0.950 . S
C739 C738 1.349 . S
C739 C755 1.349 . S
C740 C738 1.327 . S
C740 C759 1.429 . S
C740 H764 0.950 . S
C741 C758 1.574 . S
C741 C760 1.368 1_455 S
C741 H765 0.949 . S
H742 C746 0.949 . S
C743 C744 1.349 . S
C743 C745 1.327 . S
C743 H766 0.950 . S
C744 C743 1.349 . S
C744 C756 1.349 . S
C745 C743 1.327 . S
C745 C761 1.429 . S
C745 H767 0.950 . S
C746 H742 0.949 . S
C746 C754 1.574 . S
C746 C762 1.368 1_655 S
H747 C755 0.950 . S
H748 C753 0.950 . S
H749 C754 0.949 . S
H750 C756 0.950 . S
H751 C757 0.950 . S
H752 C758 0.949 . S
C753 H748 0.950 . S
C753 C755 1.327 . S
C753 C759 1.429 . S
C754 C746 1.574 . S
C754 H749 0.949 . S
C754 C760 1.368 . S
C755 C739 1.349 . S
C755 H747 0.950 . S
C755 C753 1.327 . S
C756 C744 1.349 . S
C756 H750 0.950 . S
C756 C757 1.327 . S
C757 H751 0.950 . S
C757 C756 1.327 . S
C757 C761 1.429 . S
C758 C741 1.574 . S
C758 H752 0.949 . S
C758 C762 1.368 . S
C759 C740 1.429 . S
C759 C753 1.429 . S
C759 C760 1.523 . S
C760 C741 1.368 1_655 S
C760 C754 1.368 . S
C760 C759 1.523 . S
C761 C745 1.429 . S
C761 C757 1.429 . S
C761 C762 1.523 . S
C762 C746 1.368 1_455 S
C762 C758 1.368 . S
C762 C761 1.523 . S
H763 C738 0.950 . S
H764 C740 0.950 . S
H765 C741 0.949 . S
H766 C743 0.950 . S
H767 C745 0.950 . S
C768 C769 1.349 . S
C768 C770 1.327 . S
C768 H793 0.950 . S
C769 C768 1.349 . S
C769 C785 1.349 . S
C770 C768 1.327 . S
C770 C789 1.429 . S
C770 H794 0.950 . S
C771 C788 1.574 . S
C771 C790 1.368 1_565 S
C771 H795 0.949 . S
H772 C776 0.949 . S
C773 C774 1.349 . S
C773 C775 1.327 . S
C773 H796 0.950 . S
C774 C773 1.349 . S
C774 C786 1.349 . S
C775 C773 1.327 . S
C775 C791 1.429 . S
C775 H797 0.950 . S
C776 H772 0.949 . S
C776 C784 1.574 . S
C776 C792 1.368 1_545 S
H777 C785 0.950 . S
H778 C783 0.950 . S
H779 C784 0.949 . S
H780 C786 0.950 . S
H781 C787 0.950 . S
H782 C788 0.949 . S
C783 H778 0.950 . S
C783 C785 1.327 . S
C783 C789 1.429 . S
C784 C776 1.574 . S
C784 H779 0.949 . S
C784 C790 1.368 . S
C785 C769 1.349 . S
C785 H777 0.950 . S
C785 C783 1.327 . S
C786 C774 1.349 . S
C786 H780 0.950 . S
C786 C787 1.327 . S
C787 H781 0.950 . S
C787 C786 1.327 . S
C787 C791 1.429 . S
C788 C771 1.574 . S
C788 H782 0.949 . S
C788 C792 1.368 . S
C789 C770 1.429 . S
C789 C783 1.429 . S
C789 C790 1.523 . S
C790 C771 1.368 1_545 S
C790 C784 1.368 . S
C790 C789 1.523 . S
C791 C775 1.429 . S
C791 C787 1.429 . S
C791 C792 1.523 . S
C792 C776 1.368 1_565 S
C792 C788 1.368 . S
C792 C791 1.523 . S
H793 C768 0.950 . S
H794 C770 0.950 . S
H795 C771 0.949 . S
H796 C773 0.950 . S
H797 C775 0.950 . S
C798 C799 1.349 . S
C798 C800 1.327 . S
C798 H823 0.950 . S
C799 C798 1.349 . S
C799 C815 1.349 . S
C800 C798 1.327 . S
C800 C819 1.429 . S
C800 H824 0.950 . S
C801 C818 1.574 . S
C801 C820 1.368 . S
C801 H825 0.949 . S
H802 C806 0.949 . S
C803 C804 1.349 . S
C803 C805 1.327 . S
C803 H826 0.950 . S
C804 C803 1.349 . S
C804 C816 1.349 . S
C805 C803 1.327 . S
C805 C821 1.429 . S
C805 H827 0.950 . S
C806 H802 0.949 . S
C806 C814 1.574 . S
C806 C822 1.368 . S
H807 C815 0.950 . S
H808 C813 0.950 . S
H809 C814 0.949 . S
H810 C816 0.950 . S
H811 C817 0.950 . S
H812 C818 0.949 . S
C813 H808 0.950 . S
C813 C815 1.327 . S
C813 C819 1.429 . S
C814 C806 1.574 . S
C814 H809 0.949 . S
C814 C820 1.368 . S
C815 C799 1.349 . S
C815 H807 0.950 . S
C815 C813 1.327 . S
C816 C804 1.349 . S
C816 H810 0.950 . S
C816 C817 1.327 . S
C817 H811 0.950 . S
C817 C816 1.327 . S
C817 C821 1.429 . S
C818 C801 1.574 . S
C818 H812 0.949 . S
C818 C822 1.368 . S
C819 C800 1.429 . S
C819 C813 1.429 . S
C819 C820 1.523 . S
C820 C801 1.368 . S
C820 C814 1.368 . S
C820 C819 1.523 . S
C821 C805 1.429 . S
C821 C817 1.429 . S
C821 C822 1.523 . S
C822 C806 1.368 . S
C822 C818 1.368 . S
C822 C821 1.523 . S
H823 C798 0.950 . S
H824 C800 0.950 . S
H825 C801 0.949 . S
H826 C803 0.950 . S
H827 C805 0.950 . S
C828 C829 1.349 . S
C828 C830 1.327 . S
C828 H853 0.950 . S
C829 C828 1.349 . S
C829 C845 1.349 . S
C830 C828 1.327 . S
C830 C849 1.429 . S
C830 H854 0.950 . S
C831 C848 1.574 . S
C831 C850 1.368 . S
C831 H855 0.949 . S
H832 C836 0.949 . S
C833 C834 1.349 . S
C833 C835 1.327 . S
C833 H856 0.950 . S
C834 C833 1.349 . S
C834 C846 1.349 . S
C835 C833 1.327 . S
C835 C851 1.429 . S
C835 H857 0.950 . S
C836 H832 0.949 . S
C836 C844 1.574 . S
C836 C852 1.368 . S
H837 C845 0.950 . S
H838 C843 0.950 . S
H839 C844 0.949 . S
H840 C846 0.950 . S
H841 C847 0.950 . S
H842 C848 0.949 . S
C843 H838 0.950 . S
C843 C845 1.327 . S
C843 C849 1.429 . S
C844 C836 1.574 . S
C844 H839 0.949 . S
C844 C850 1.368 1_655 S
C845 C829 1.349 . S
C845 H837 0.950 . S
C845 C843 1.327 . S
C846 C834 1.349 . S
C846 H840 0.950 . S
C846 C847 1.327 . S
C847 H841 0.950 . S
C847 C846 1.327 . S
C847 C851 1.429 . S
C848 C831 1.574 . S
C848 H842 0.949 . S
C848 C852 1.368 1_455 S
C849 C830 1.429 . S
C849 C843 1.429 . S
C849 C850 1.523 . S
C850 C831 1.368 . S
C850 C844 1.368 1_455 S
C850 C849 1.523 . S
C851 C835 1.429 . S
C851 C847 1.429 . S
C851 C852 1.523 . S
C852 C836 1.368 . S
C852 C848 1.368 1_655 S
C852 C851 1.523 . S
H853 C828 0.950 . S
H854 C830 0.950 . S
H855 C831 0.949 . S
H856 C833 0.950 . S
H857 C835 0.950 . S
C858 C859 1.349 . S
C858 C860 1.327 . S
C858 H883 0.950 . S
C859 C858 1.349 . S
C859 C875 1.349 . S
C860 C858 1.327 . S
C860 C879 1.429 . S
C860 H884 0.950 . S
C861 C878 1.574 . S
C861 C880 1.368 1_545 S
C861 H885 0.949 . S
H862 C866 0.949 . S
C863 C864 1.349 . S
C863 C865 1.327 . S
C863 H886 0.950 . S
C864 C863 1.349 . S
C864 C876 1.349 . S
C865 C863 1.327 . S
C865 C881 1.429 . S
C865 H887 0.950 . S
C866 H862 0.949 . S
C866 C874 1.574 . S
C866 C882 1.368 1_565 S
H867 C875 0.950 . S
H868 C873 0.950 . S
H869 C874 0.949 . S
H870 C876 0.950 . S
H871 C877 0.950 . S
H872 C878 0.949 . S
C873 H868 0.950 . S
C873 C875 1.327 . S
C873 C879 1.429 . S
C874 C866 1.574 . S
C874 H869 0.949 . S
C874 C880 1.368 . S
C875 C859 1.349 . S
C875 H867 0.950 . S
C875 C873 1.327 . S
C876 C864 1.349 . S
C876 H870 0.950 . S
C876 C877 1.327 . S
C877 H871 0.950 . S
C877 C876 1.327 . S
C877 C881 1.429 . S
C878 C861 1.574 . S
C878 H872 0.949 . S
C878 C882 1.368 . S
C879 C860 1.429 . S
C879 C873 1.429 . S
C879 C880 1.523 . S
C880 C861 1.368 1_565 S
C880 C874 1.368 . S
C880 C879 1.523 . S
C881 C865 1.429 . S
C881 C877 1.429 . S
C881 C882 1.523 . S
C882 C866 1.368 1_545 S
C882 C878 1.368 . S
C882 C881 1.523 . S
H883 C858 0.950 . S
H884 C860 0.950 . S
H885 C861 0.949 . S
H886 C863 0.950 . S
H887 C865 0.950 . S
C169 C105 1.156 . S
C174 C7 1.156 . S
C199 C21 1.156 . S
C204 C119 1.156 . S
C229 C35 1.156 . S
C234 C133 1.156 . S
C259 C49 1.156 . S
C264 C147 1.156 . S
C289 C161 1.156 . S
C294 C63 1.156 . S
C319 C91 1.155 . S
C324 C77 1.155 . S
C349 C148 1.223 . S
C354 C8 1.223 . S
C379 C22 1.223 . S
C384 C162 1.223 . S
C409 C36 1.223 . S
C414 C92 1.223 . S
C439 C106 1.223 . S
C444 C50 1.223 . S
C469 C120 1.223 . S
C474 C64 1.223 . S
C499 C134 1.223 . S
C504 C78 1.223 . S
C529 C11 1.614 . S
C534 C123 1.614 . S
C559 C25 1.614 . S
C564 C137 1.614 . S
C589 C151 1.614 . S
C594 C39 1.614 . S
C619 C53 1.614 . S
C624 C165 1.614 . S
C649 C95 1.614 . S
C654 C67 1.614 . S
C679 C109 1.614 . S
C684 C81 1.614 . S
C709 C55 1.088 . S
C714 C13 1.088 . S
C739 C69 1.088 . S
C744 C27 1.088 . S
C769 C41 1.089 . S
C774 C83 1.089 . S
C799 C97 1.088 . S
C804 C139 1.088 . S
C829 C111 1.088 . S
C834 C153 1.088 . S
C859 C167 1.088 . S
C864 C125 1.088 . S
