# Generated by pormake.
# Topology wkj, (6)-cn, num edge types: 1
# Building blocks:
#     Node 0, Type 0, BuildingBlock: VOLQOD_clean_sbu_1, # of connection points: 6
#     Node 1, Type 0, BuildingBlock: VOLQOD_clean_sbu_1, # of connection points: 6
#     Node 2, Type 0, BuildingBlock: VOLQOD_clean_sbu_1, # of connection points: 6
#     Node 3, Type 0, BuildingBlock: VOLQOD_clean_sbu_1, # of connection points: 6
#     Node 4, Type 0, BuildingBlock: VOLQOD_clean_sbu_1, # of connection points: 6
#     Node 5, Type 0, BuildingBlock: VOLQOD_clean_sbu_1, # of connection points: 6
#     Node 6, Type 0, BuildingBlock: VOLQOD_clean_sbu_1, # of connection points: 6
#     Node 7, Type 0, BuildingBlock: VOLQOD_clean_sbu_1, # of connection points: 6
#     Node 8, Type 0, BuildingBlock: VOLQOD_clean_sbu_1, # of connection points: 6
#     Node 9, Type 0, BuildingBlock: VOLQOD_clean_sbu_1, # of connection points: 6
#     Node 10, Type 0, BuildingBlock: VOLQOD_clean_sbu_1, # of connection points: 6
#     Node 11, Type 0, BuildingBlock: VOLQOD_clean_sbu_1, # of connection points: 6
#     Edge 12, Type (0, 0), BuildingBlock: AJUNOK_clean_linker_0, # of connection points: 2
#     Edge 13, Type (0, 0), BuildingBlock: AJUNOK_clean_linker_0, # of connection points: 2
#     Edge 14, Type (0, 0), BuildingBlock: AJUNOK_clean_linker_0, # of connection points: 2
#     Edge 15, Type (0, 0), BuildingBlock: AJUNOK_clean_linker_0, # of connection points: 2
#     Edge 16, Type (0, 0), BuildingBlock: AJUNOK_clean_linker_0, # of connection points: 2
#     Edge 17, Type (0, 0), BuildingBlock: AJUNOK_clean_linker_0, # of connection points: 2
#     Edge 18, Type (0, 0), BuildingBlock: AJUNOK_clean_linker_0, # of connection points: 2
#     Edge 19, Type (0, 0), BuildingBlock: AJUNOK_clean_linker_0, # of connection points: 2
#     Edge 20, Type (0, 0), BuildingBlock: AJUNOK_clean_linker_0, # of connection points: 2
#     Edge 21, Type (0, 0), BuildingBlock: AJUNOK_clean_linker_0, # of connection points: 2
#     Edge 22, Type (0, 0), BuildingBlock: AJUNOK_clean_linker_0, # of connection points: 2
#     Edge 23, Type (0, 0), BuildingBlock: AJUNOK_clean_linker_0, # of connection points: 2
#     Edge 24, Type (0, 0), BuildingBlock: AJUNOK_clean_linker_0, # of connection points: 2
#     Edge 25, Type (0, 0), BuildingBlock: AJUNOK_clean_linker_0, # of connection points: 2
#     Edge 26, Type (0, 0), BuildingBlock: AJUNOK_clean_linker_0, # of connection points: 2
#     Edge 27, Type (0, 0), BuildingBlock: AJUNOK_clean_linker_0, # of connection points: 2
#     Edge 28, Type (0, 0), BuildingBlock: AJUNOK_clean_linker_0, # of connection points: 2
#     Edge 29, Type (0, 0), BuildingBlock: AJUNOK_clean_linker_0, # of connection points: 2
#     Edge 30, Type (0, 0), BuildingBlock: AJUNOK_clean_linker_0, # of connection points: 2
#     Edge 31, Type (0, 0), BuildingBlock: AJUNOK_clean_linker_0, # of connection points: 2
#     Edge 32, Type (0, 0), BuildingBlock: AJUNOK_clean_linker_0, # of connection points: 2
#     Edge 33, Type (0, 0), BuildingBlock: AJUNOK_clean_linker_0, # of connection points: 2
#     Edge 34, Type (0, 0), BuildingBlock: AJUNOK_clean_linker_0, # of connection points: 2
#     Edge 35, Type (0, 0), BuildingBlock: AJUNOK_clean_linker_0, # of connection points: 2
#     Edge 36, Type (0, 0), BuildingBlock: AJUNOK_clean_linker_0, # of connection points: 2
#     Edge 37, Type (0, 0), BuildingBlock: AJUNOK_clean_linker_0, # of connection points: 2
#     Edge 38, Type (0, 0), BuildingBlock: AJUNOK_clean_linker_0, # of connection points: 2
#     Edge 39, Type (0, 0), BuildingBlock: AJUNOK_clean_linker_0, # of connection points: 2
#     Edge 40, Type (0, 0), BuildingBlock: AJUNOK_clean_linker_0, # of connection points: 2
#     Edge 41, Type (0, 0), BuildingBlock: AJUNOK_clean_linker_0, # of connection points: 2
#     Edge 42, Type (0, 0), BuildingBlock: AJUNOK_clean_linker_0, # of connection points: 2
#     Edge 43, Type (0, 0), BuildingBlock: AJUNOK_clean_linker_0, # of connection points: 2
#     Edge 44, Type (0, 0), BuildingBlock: AJUNOK_clean_linker_0, # of connection points: 2
#     Edge 45, Type (0, 0), BuildingBlock: AJUNOK_clean_linker_0, # of connection points: 2
#     Edge 46, Type (0, 0), BuildingBlock: AJUNOK_clean_linker_0, # of connection points: 2
#     Edge 47, Type (0, 0), BuildingBlock: AJUNOK_clean_linker_0, # of connection points: 2
# Relax obj value: 0.767
# Max RMSD: 0.282
# Mean RMSD: 0.282
data_MOF--net-wkj--node1-VOLQOD_clean_sbu_1--edge1-AJUNOK_clean_linker_0
_symmetry_space_group_name_H-M    P1
_symmetry_Int_Tables_number       1
_symmetry_cell_setting            triclinic
loop_
_symmetry_equiv_pos_as_xyz
'x, y, z'
_cell_length_a     43.347896
_cell_length_b     43.869048
_cell_length_c     18.629009
_cell_angle_alpha  90.413589
_cell_angle_beta   89.79777
_cell_angle_gamma 120.26911
loop_
_atom_site_label
_atom_site_type_symbol
_atom_site_fract_x
_atom_site_fract_y
_atom_site_fract_z
_atom_type_partial_charge
O0 O 0.37439 0.02266 0.32357 0.0
Zn1 Zn 0.39833 0.03906 0.23175 0.0
O2 O 0.43895 0.08612 0.24218 0.0
Zn3 Zn 0.47944 0.08124 0.26007 0.0
Zn4 Zn 0.43218 0.11021 0.32274 0.0
Zn5 Zn 0.44211 0.10229 0.14648 0.0
O6 O 0.51385 0.09648 0.17736 0.0
O7 O 0.48912 0.11549 0.09919 0.0
O8 O 0.41834 0.01056 0.19197 0.0
O9 O 0.45679 0.03088 0.27916 0.0
O10 O 0.50617 0.1061 0.34556 0.0
O11 O 0.47503 0.12811 0.3956 0.0
O12 O 0.4276 0.15036 0.27434 0.0
O13 O 0.36195 0.03381 0.16114 0.0
O14 O 0.4372 0.14347 0.15851 0.0
O15 O 0.402 0.06738 0.08107 0.0
C16 C 0.36994 0.03915 0.37514 0.0
C17 C 0.5146 0.11066 0.11763 0.0
C18 C 0.50187 0.12327 0.39558 0.0
C19 C 0.44628 0.0139 0.22093 0.0
C20 C 0.43115 0.15983 0.2081 0.0
C21 C 0.37032 0.04331 0.09657 0.0
O22 O 0.38784 0.07299 0.37966 0.0
O23 O 0.35191 0.39817 0.63616 0.0
Zn24 Zn 0.35975 0.43143 0.55873 0.0
O25 O 0.3416 0.46199 0.58272 0.0
Zn26 Zn 0.37862 0.51061 0.59663 0.0
Zn27 Zn 0.31377 0.4458 0.67157 0.0
Zn28 Zn 0.3182 0.4634 0.49645 0.0
O29 O 0.37285 0.54638 0.54208 0.0
O30 O 0.34419 0.51121 0.45119 0.0
O31 O 0.4111 0.46046 0.54254 0.0
O32 O 0.4236 0.51559 0.5611 0.0
O33 O 0.38787 0.52404 0.69959 0.0
O34 O 0.34166 0.48115 0.7571 0.0
O35 O 0.26285 0.4353 0.64387 0.0
O36 O 0.34024 0.40307 0.47039 0.0
O37 O 0.27026 0.45039 0.52742 0.0
O38 O 0.31478 0.42945 0.41705 0.0
C39 C 0.33051 0.38666 0.68881 0.0
C40 C 0.36414 0.54213 0.47627 0.0
C41 C 0.37178 0.51021 0.75788 0.0
C42 C 0.43293 0.49343 0.54349 0.0
C43 C 0.25095 0.43917 0.58348 0.0
C44 C 0.32421 0.40628 0.41688 0.0
O45 O 0.31149 0.40038 0.70549 0.0
O46 O 0.93396 0.36301 0.98523 0.0
Zn47 Zn 0.91603 0.38932 0.92897 0.0
O48 O 0.8655 0.36714 0.92826 0.0
Zn49 Zn 0.84969 0.39927 0.95785 0.0
Zn50 Zn 0.84575 0.32875 0.99823 0.0
Zn51 Zn 0.84842 0.356 0.8326 0.0
O52 O 0.84369 0.42606 0.87744 0.0
O53 O 0.83065 0.38684 0.79072 0.0
O54 O 0.93279 0.43212 0.98847 0.0
O55 O 0.88459 0.43309 0.02772 0.0
O56 O 0.80425 0.37095 0.00886 0.0
O57 O 0.82561 0.34676 0.07994 0.0
O58 O 0.81054 0.28399 0.93937 0.0
O59 O 0.93699 0.39536 0.82942 0.0
O60 O 0.81271 0.30609 0.83033 0.0
O61 O 0.88731 0.36187 0.76767 0.0
C62 C 0.92032 0.3391 0.03252 0.0
C63 C 0.83369 0.41569 0.81344 0.0
C64 C 0.81037 0.36507 0.07211 0.0
C65 C 0.91763 0.44348 0.031 0.0
C66 C 0.8008 0.28018 0.87312 0.0
C67 C 0.92114 0.37965 0.77149 0.0
O68 O 0.88669 0.32349 0.04541 0.0
O69 O 0.56829 0.94275 0.2717 0.0
Zn70 Zn 0.5451 0.92032 0.17902 0.0
O71 O 0.49875 0.87951 0.19273 0.0
Zn72 Zn 0.46122 0.889 0.19265 0.0
Zn73 Zn 0.50046 0.85896 0.28214 0.0
Zn74 Zn 0.49449 0.85578 0.10363 0.0
O75 O 0.42053 0.85629 0.12922 0.0
O76 O 0.44601 0.83614 0.05494 0.0
O77 O 0.53927 0.95553 0.12486 0.0
O78 O 0.48191 0.93618 0.1487 0.0
O79 O 0.44093 0.88422 0.29203 0.0
O80 O 0.45495 0.84679 0.34199 0.0
O81 O 0.50872 0.81818 0.25072 0.0
O82 O 0.57694 0.91022 0.1193 0.0
O83 O 0.50157 0.8175 0.13124 0.0
O84 O 0.53546 0.88691 0.03598 0.0
C85 C 0.56426 0.92959 0.33385 0.0
C86 C 0.41879 0.83797 0.07459 0.0
C87 C 0.43724 0.86309 0.34249 0.0
C88 C 0.51157 0.9582 0.11947 0.0
C89 C 0.50759 0.80535 0.18776 0.0
C90 C 0.56844 0.90451 0.05345 0.0
O91 O 0.54114 0.89709 0.3447 0.0
O92 O 0.66012 0.60678 0.70508 0.0
Zn93 Zn 0.65347 0.59033 0.60602 0.0
O94 O 0.65371 0.54636 0.60225 0.0
Zn95 Zn 0.60554 0.51229 0.61502 0.0
Zn96 Zn 0.68059 0.54229 0.67941 0.0
Zn97 Zn 0.66644 0.54589 0.50621 0.0
O98 O 0.58165 0.48975 0.52054 0.0
O99 O 0.62896 0.50386 0.45234 0.0
O100 O 0.60454 0.57848 0.57533 0.0
O101 O 0.5868 0.53996 0.66117 0.0
O102 O 0.59803 0.47461 0.68123 0.0
O103 O 0.65142 0.4921 0.72772 0.0
O104 O 0.72823 0.55314 0.6276 0.0
O105 O 0.68706 0.62779 0.54062 0.0
O106 O 0.71214 0.54789 0.51142 0.0
O107 O 0.67284 0.5889 0.45324 0.0
C108 C 0.67121 0.59902 0.7611 0.0
C109 C 0.59529 0.48657 0.46222 0.0
C110 C 0.61788 0.46939 0.72303 0.0
C111 C 0.57941 0.55545 0.61338 0.0
C112 C 0.73472 0.5526 0.56001 0.0
C113 C 0.6835 0.62039 0.4742 0.0
O114 O 0.6822 0.57675 0.7591 0.0
O115 O 0.09253 0.65668 0.01104 0.0
Zn116 Zn 0.08664 0.61905 0.94196 0.0
O117 O 0.12578 0.6097 0.9385 0.0
Zn118 Zn 0.11128 0.56172 0.95375 0.0
Zn119 Zn 0.1559 0.63917 0.01483 0.0
Zn120 Zn 0.14647 0.62004 0.84576 0.0
O121 O 0.1141 0.5363 0.86421 0.0
O122 O 0.15653 0.58272 0.80697 0.0
O123 O 0.04685 0.57892 0.989 0.0
O124 O 0.06415 0.53952 1.00356 0.0
O125 O 0.14407 0.55983 0.02305 0.0
O126 O 0.17874 0.6138 0.06735 0.0
O127 O 0.18885 0.68607 0.96336 0.0
O128 O 0.07212 0.62558 0.84475 0.0
O129 O 0.18885 0.66774 0.8508 0.0
O130 O 0.1124 0.62272 0.77569 0.0
C131 C 0.09796 0.65107 0.07536 0.0
C132 C 0.13761 0.54934 0.81465 0.0
C133 C 0.16905 0.58094 0.06446 0.0
C134 C 0.04237 0.55045 0.01543 0.0
C135 C 0.1997 0.6922 0.89792 0.0
C136 C 0.08477 0.62571 0.783 0.0
O137 O 0.12157 0.64245 0.08727 0.0
O138 O 0.98459 0.57154 0.32686 0.0
Zn139 Zn 0.95883 0.54654 0.41579 0.0
O140 O 0.91383 0.54244 0.42172 0.0
Zn141 Zn 0.87659 0.4946 0.44261 0.0
Zn142 Zn 0.90237 0.55523 0.33127 0.0
Zn143 Zn 0.91386 0.56936 0.50341 0.0
O144 O 0.84198 0.49085 0.51772 0.0
O145 O 0.88195 0.53599 0.58143 0.0
O146 O 0.95108 0.49878 0.42488 0.0
O147 O 0.89846 0.46788 0.48037 0.0
O148 O 0.85248 0.46807 0.35387 0.0
O149 O 0.87402 0.50935 0.2699 0.0
O150 O 0.86879 0.57233 0.36861 0.0
O151 O -0.00935 0.57431 0.49742 0.0
O152 O 0.8957 0.59985 0.46995 0.0
O153 O 0.9618 0.59799 0.54962 0.0
C154 C 0.97994 0.58991 0.28017 0.0
C155 C 0.85303 0.50631 0.57798 0.0
C156 C 0.85542 0.47688 0.28833 0.0
C157 C 0.92799 0.47173 0.45915 0.0
C158 C 0.86971 0.58896 0.42643 0.0
C159 C -0.01081 0.59464 0.54447 0.0
O160 O 0.9501 0.58955 0.27637 0.0
O161 O 0.3411 0.95277 0.65174 0.0
Zn162 Zn 0.33797 0.93305 0.74745 0.0
O163 O 0.31426 0.88392 0.7427 0.0
Zn164 Zn 0.34518 0.86499 0.74882 0.0
Zn165 Zn 0.29032 0.86914 0.65194 0.0
Zn166 Zn 0.28529 0.86916 0.82778 0.0
O167 O 0.32373 0.82084 0.80606 0.0
O168 O 0.29939 0.83916 0.88728 0.0
O169 O 0.38362 0.94848 0.79751 0.0
O170 O 0.38553 0.89898 0.80805 0.0
O171 O 0.3627 0.85918 0.6514 0.0
O172 O 0.32132 0.85933 0.58212 0.0
O173 O 0.24509 0.82334 0.68081 0.0
O174 O 0.31399 0.95226 0.8075 0.0
O175 O 0.23757 0.84454 0.78247 0.0
O176 O 0.293 0.91097 0.88992 0.0
C177 C 0.31582 0.94278 0.60646 0.0
C178 C 0.31393 0.82096 0.87046 0.0
C179 C 0.34959 0.85734 0.58928 0.0
C180 C 0.39737 0.93126 0.82347 0.0
C181 C 0.2315 0.81812 0.74389 0.0
C182 C 0.30311 0.94251 0.87093 0.0
O183 O 0.28901 0.91115 0.60656 0.0
O184 O 0.39215 0.37152 0.95506 0.0
Zn185 Zn 0.41942 0.39137 0.04323 0.0
O186 O 0.44836 0.36901 0.06156 0.0
Zn187 Zn 0.49917 0.40268 0.05943 0.0
Zn188 Zn 0.44264 0.33573 0.9858 0.0
Zn189 Zn 0.43582 0.35079 0.1571 0.0
O190 O 0.52028 0.41642 0.15814 0.0
O191 O 0.47506 0.38004 0.22729 0.0
O192 O 0.45102 0.44417 0.03926 0.0
O193 O 0.49689 0.44021 0.00741 0.0
O194 O 0.52991 0.39127 0.9996 0.0
O195 O 0.48871 0.35684 0.92156 0.0
O196 O 0.43297 0.29085 0.03933 0.0
O197 O 0.38291 0.38218 0.12 0.0
O198 O 0.42812 0.30307 0.15422 0.0
O199 O 0.392 0.34942 0.19671 0.0
C200 C 0.38532 0.34578 0.91353 0.0
C201 C 0.50706 0.40518 0.21997 0.0
C202 C 0.52167 0.37734 0.93769 0.0
C203 C 0.48419 0.45541 0.04472 0.0
C204 C 0.42756 0.28223 0.10592 0.0
C205 C 0.37473 0.36433 0.17746 0.0
O206 O 0.40122 0.32799 0.91942 0.0
O207 O 0.0084 0.36526 0.30962 0.0
Zn208 Zn 0.0318 0.4025 0.38259 0.0
O209 O 0.07964 0.41709 0.40556 0.0
Zn210 Zn 0.1029 0.46746 0.42395 0.0
Zn211 Zn 0.09767 0.40581 0.31993 0.0
Zn212 Zn 0.07949 0.39482 0.49401 0.0
O213 O 0.12771 0.48102 0.51826 0.0
O214 O 0.11291 0.43 0.5697 0.0
O215 O 0.03819 0.44575 0.34025 0.0
O216 O 0.06376 0.47843 0.43377 0.0
O217 O 0.13516 0.49452 0.34428 0.0
O218 O 0.13203 0.45329 0.26953 0.0
O219 O 0.12627 0.38532 0.36604 0.0
O220 O 0.00224 0.39038 0.47168 0.0
O221 O 0.09117 0.3591 0.45885 0.0
O222 O 0.03224 0.37442 0.54352 0.0
C223 C 0.02178 0.36029 0.25326 0.0
C224 C 0.12835 0.46364 0.57201 0.0
C225 C 0.14424 0.48586 0.2861 0.0
C226 C 0.03723 0.46412 0.3915 0.0
C227 C 0.12145 0.3716 0.42873 0.0
C228 C 0.00561 0.37836 0.53116 0.0
O229 O 0.05584 0.37449 0.24709 0.0
O230 O 0.59245 0.00918 0.63489 0.0
Zn231 Zn 0.59782 0.02347 0.7365 0.0
O232 O 0.62105 0.07266 0.74471 0.0
Zn233 Zn 0.58989 0.0899 0.76957 0.0
Zn234 Zn 0.6439 0.09485 0.657 0.0
Zn235 Zn 0.6473 0.08211 0.83244 0.0
O236 O 0.6121 0.12986 0.8383 0.0
O237 O 0.62491 0.09812 0.90929 0.0
O238 O 0.55289 0.00465 0.7912 0.0
O239 O 0.54982 0.05198 0.82267 0.0
O240 O 0.57215 0.10398 0.68518 0.0
O241 O 0.61538 0.11546 0.6075 0.0
O242 O 0.69314 0.13462 0.69363 0.0
O243 O 0.62271 0.0014 0.78368 0.0
O244 O 0.69453 0.12177 0.80976 0.0
O245 O 0.64759 0.03949 0.87255 0.0
C246 C 0.61399 0.02322 0.58262 0.0
C247 C 0.61478 0.12056 0.90117 0.0
C248 C 0.58659 0.1153 0.62435 0.0
C249 C 0.53858 0.01916 0.82689 0.0
C250 C 0.70866 0.14149 0.75538 0.0
C251 C 0.63737 0.0092 0.84506 0.0
O252 O 0.6395 0.05559 0.58559 0.0
O253 O 0.59941 0.61013 0.0606 0.0
Zn254 Zn 0.5812 0.6155 0.15313 0.0
O255 O 0.54125 0.62176 0.14049 0.0
Zn256 Zn 0.49652 0.57937 0.15164 0.0
Zn257 Zn 0.54397 0.64111 0.0467 0.0
Zn258 Zn 0.54857 0.65096 0.22386 0.0
O259 O 0.46515 0.58662 0.21968 0.0
O260 O 0.50355 0.63359 0.28234 0.0
O261 O 0.56694 0.57272 0.21101 0.0
O262 O 0.50803 0.54524 0.19645 0.0
O263 O 0.46861 0.56126 0.05774 0.0
O264 O 0.49726 0.60889 0.98978 0.0
O265 O 0.5482 0.68896 0.06844 0.0
O266 O 0.62249 0.65541 0.20213 0.0
O267 O 0.55869 0.69633 0.18679 0.0
O268 O 0.58907 0.65727 0.2885 0.0
C269 C 0.60206 0.62469 1.0006 0.0
C270 C 0.47185 0.60856 0.27057 0.0
C271 C 0.47103 0.5775 0.99951 0.0
C272 C 0.53605 0.54601 0.22039 0.0
C273 C 0.55463 0.70717 0.12646 0.0
C274 C 0.61908 0.66206 0.26691 0.0
O275 O 0.58563 0.64168 0.98873 0.0
C276 C 0.44134 0.20436 0.11542 0.0
C277 C 0.42862 0.19058 0.18456 0.0
C278 C 0.43912 0.23279 0.08888 0.0
C279 C 0.42436 0.2489 0.13048 0.0
H280 H 0.45377 0.19351 0.08125 0.0
H281 H 0.45032 0.24297 0.03642 0.0
S282 S 0.38437 0.22141 0.31238 0.0
N283 N 0.39874 0.19395 0.29229 0.0
N284 N 0.39452 0.24781 0.24264 0.0
C285 C 0.41052 0.23489 0.19897 0.0
C286 C 0.41279 0.20575 0.22607 0.0
C287 C 0.20327 0.44323 0.52253 0.0
C288 C 0.21268 0.42427 0.56952 0.0
C289 C 0.1738 0.42586 0.47701 0.0
C290 C 0.15212 0.38892 0.47801 0.0
H291 H 0.22088 0.4714 0.51586 0.0
H292 H 0.16842 0.44145 0.43965 0.0
S293 S 0.16096 0.32786 0.60105 0.0
N294 N 0.1954 0.36711 0.62087 0.0
N295 N 0.13847 0.33448 0.53754 0.0
C296 C 0.15874 0.37004 0.53029 0.0
C297 C 0.18929 0.38775 0.57596 0.0
C298 C 0.77781 0.21518 0.86922 0.0
C299 C 0.77818 0.24484 0.84056 0.0
C300 C 0.75844 0.18208 0.83581 0.0
C301 C 0.73839 0.17725 0.7728 0.0
H302 H 0.79249 0.21748 0.91785 0.0
H303 H 0.75756 0.15963 0.8618 0.0
S304 S 0.73223 0.24703 0.67388 0.0
N305 N 0.75824 0.26768 0.74317 0.0
N306 N 0.72183 0.20546 0.68107 0.0
C307 C 0.74004 0.20704 0.7416 0.0
C308 C 0.75967 0.24074 0.77561 0.0
C309 C 0.56243 0.76086 0.18792 0.0
C310 C 0.54705 0.73618 0.13125 0.0
C311 C 0.54814 0.78181 0.20955 0.0
C312 C 0.51805 0.77879 0.17508 0.0
H313 H 0.5849 0.76299 0.21761 0.0
H314 H 0.56115 0.80095 0.25233 0.0
S315 S 0.4677 0.71844 0.02411 0.0
N316 N 0.50013 0.71021 0.04113 0.0
N317 N 0.47331 0.74965 0.08154 0.0
C318 C 0.50275 0.75468 0.11768 0.0
C319 C 0.51741 0.73356 0.0954 0.0
C320 C 0.77117 0.54481 0.46719 0.0
C321 C 0.76997 0.56058 0.53255 0.0
C322 C 0.8032 0.55602 0.43038 0.0
C323 C 0.83568 0.58346 0.45744 0.0
H324 H 0.74684 0.52373 0.44356 0.0
H325 H 0.80246 0.54215 0.38149 0.0
S326 S 0.84691 0.63468 0.62519 0.0
N327 N 0.80367 0.60581 0.62174 0.0
N328 N 0.86443 0.62702 0.55328 0.0
C329 C 0.83485 0.5998 0.52265 0.0
C330 C 0.80199 0.58819 0.56026 0.0
C331 C 0.20799 0.77889 0.8507 0.0
C332 C 0.22539 0.78632 0.78361 0.0
C333 C 0.20341 0.75045 0.89244 0.0
C334 C 0.21605 0.72825 0.8687 0.0
H335 H 0.19709 0.79479 0.87056 0.0
H336 H 0.18769 0.74442 0.94111 0.0
S337 S 0.26854 0.73932 0.7033 0.0
N338 N 0.259 0.77126 0.69968 0.0
N339 N 0.2503 0.71788 0.77832 0.0
C340 C 0.23555 0.73671 0.80419 0.0
C341 C 0.24002 0.7655 0.76133 0.0
C342 C 0.5654 0.12991 0.94225 0.0
C343 C 0.59459 0.12565 0.95966 0.0
C344 C 0.54063 0.12661 0.99439 0.0
C345 C 0.54412 0.11918 0.06626 0.0
H346 H 0.56019 0.13355 0.88707 0.0
H347 H 0.51766 0.12825 0.97722 0.0
S348 S 0.62012 0.11322 0.14195 0.0
N349 N 0.62838 0.11851 0.05499 0.0
N350 N 0.58235 0.11324 0.15392 0.0
C351 C 0.57486 0.11783 0.08546 0.0
C352 C 0.59994 0.12085 0.03198 0.0
C353 C 0.40703 0.57867 0.29999 0.0
C354 C 0.44259 0.60182 0.32089 0.0
C355 C 0.37968 0.56335 0.35088 0.0
C356 C 0.38704 0.57018 0.42465 0.0
H357 H 0.40065 0.57008 0.24461 0.0
H358 H 0.35346 0.5431 0.33282 0.0
S359 S 0.47372 0.63723 0.50438 0.0
N360 N 0.48218 0.63723 0.41792 0.0
N361 N 0.43078 0.60835 0.51392 0.0
C362 C 0.42131 0.5976 0.44481 0.0
C363 C 0.44922 0.61331 0.39277 0.0
C364 C 0.81353 0.42559 0.69486 0.0
C365 C 0.83035 0.43935 0.76126 0.0
C366 C 0.81739 0.44784 0.63776 0.0
C367 C 0.83883 0.48483 0.64424 0.0
H368 H 0.79903 0.39735 0.68535 0.0
H369 H 0.80597 0.43566 0.58647 0.0
S370 S 0.88188 0.53431 0.81168 0.0
N371 N 0.86391 0.49241 0.83415 0.0
N372 N 0.87165 0.53423 0.72636 0.0
C373 C 0.85236 0.49897 0.71273 0.0
C374 C 0.84807 0.47624 0.77131 0.0
C375 C 0.33134 0.82341 0.99897 0.0
C376 C 0.33156 0.81188 0.92834 0.0
C377 C 0.35808 0.82888 0.04812 0.0
C378 C 0.38608 0.82288 0.02895 0.0
H379 H 0.31241 0.83147 0.01468 0.0
H380 H 0.35811 0.84041 0.09975 0.0
S381 S 0.39231 0.7818 0.85868 0.0
N382 N 0.35716 0.78651 0.84772 0.0
N383 N 0.40756 0.79706 0.93998 0.0
C384 C 0.38367 0.80656 0.96221 0.0
C385 C 0.35627 0.80083 0.9121 0.0
C386 C 0.5661 0.44364 0.27836 0.0
C387 C 0.52873 0.42341 0.28416 0.0
C388 C 0.58723 0.46323 0.33662 0.0
C389 C 0.57191 0.46374 0.40314 0.0
H390 H 0.57922 0.44467 0.22809 0.0
H391 H 0.61586 0.4786 0.32871 0.0
S392 S 0.47494 0.41537 0.44586 0.0
N393 N 0.47705 0.40488 0.36151 0.0
N394 N 0.51668 0.44193 0.47105 0.0
C395 C 0.53447 0.44331 0.40985 0.0
C396 C 0.51294 0.42308 0.35048 0.0
C397 C 0.16279 0.54073 0.69978 0.0
C398 C 0.141 0.52582 0.76067 0.0
C399 C 0.16174 0.51973 0.64168 0.0
C400 C 0.13904 0.48285 0.64189 0.0
H401 H 0.17928 0.5691 0.69467 0.0
H402 H 0.17694 0.53281 0.594 0.0
S403 S 0.08197 0.42991 0.79397 0.0
N404 N 0.10008 0.47121 0.82193 0.0
N405 N 0.09819 0.43182 0.71273 0.0
C406 C 0.11999 0.46722 0.7054 0.0
C407 C 0.12084 0.48868 0.76462 0.0
C408 C 0.30327 0.9606 0.99868 0.0
C409 C 0.3114 0.97022 0.92627 0.0
C410 C 0.31996 0.98543 0.05392 0.0
C411 C 0.34577 0.02077 0.03887 0.0
H412 H 0.28592 0.93322 0.01317 0.0
H413 H 0.3147 0.97606 0.10873 0.0
S414 S 0.37051 0.06138 0.85864 0.0
N415 N 0.34205 0.01923 0.84267 0.0
N416 N 0.37398 0.06541 0.94681 0.0
C417 C 0.3512 0.03156 0.96698 0.0
C418 C 0.3338 0.00643 0.9106 0.0
C419 C 0.34339 0.39516 0.22464 0.0
C420 C 0.35024 0.36704 0.22975 0.0
C421 C 0.33049 0.40544 0.28377 0.0
C422 C 0.32395 0.38786 0.34977 0.0
H423 H 0.35117 0.41149 0.17715 0.0
H424 H 0.32913 0.42935 0.27968 0.0
S425 S 0.32765 0.30661 0.38451 0.0
N426 N 0.34209 0.3173 0.30124 0.0
N427 N 0.31793 0.33665 0.41206 0.0
C428 C 0.32604 0.35692 0.35234 0.0
C429 C 0.33918 0.34648 0.29236 0.0
C430 C -0.00357 0.38334 0.66141 0.0
C431 C 0.98222 0.37545 0.59148 0.0
C432 C 0.97687 0.38563 0.71891 0.0
C433 C 0.94211 0.37956 0.70886 0.0
H434 H 0.02333 0.38883 0.67162 0.0
H435 H -0.01101 0.39177 0.77173 0.0
S436 S 0.89215 0.35658 0.53652 0.0
N437 N 0.93115 0.36085 0.51537 0.0
N438 N 0.89394 0.36463 0.62356 0.0
C439 C 0.92733 0.37111 0.63925 0.0
C440 C 0.94748 0.36918 0.58055 0.0
C441 C 0.5868 0.91917 0.92556 0.0
C442 C 0.59521 0.92668 0.99867 0.0
C443 C 0.60481 0.94503 0.87337 0.0
C444 C 0.63131 0.97966 0.89268 0.0
H445 H 0.56415 0.89415 0.90904 0.0
H446 H 0.59497 0.93875 0.81876 0.0
S447 S 0.67043 0.00953 0.07406 0.0
N448 N 0.63765 0.96856 0.08559 0.0
N449 N 0.67071 0.0174 0.98747 0.0
C450 C 0.64353 0.98582 0.964 0.0
C451 C 0.62557 0.95926 0.01714 0.0
C452 C 0.68529 0.6418 0.3506 0.0
C453 C 0.67944 0.644 0.42407 0.0
C454 C 0.66915 0.6523 0.29913 0.0
C455 C 0.64577 0.66442 0.3195 0.0
H456 H 0.69979 0.62899 0.33268 0.0
H457 H 0.67217 0.64731 0.24325 0.0
S458 S 0.62845 0.68276 0.50525 0.0
N459 N 0.65445 0.66562 0.51489 0.0
N460 N 0.62328 0.68442 0.41787 0.0
C461 C 0.64346 0.67096 0.39265 0.0
C462 C 0.66052 0.66094 0.44513 0.0
C463 C 0.07046 0.61309 0.65268 0.0
C464 C 0.06465 0.62526 0.71853 0.0
C465 C 0.04731 0.60572 0.59464 0.0
C466 C 0.01749 0.61035 0.60005 0.0
H467 H 0.09177 0.60716 0.64696 0.0
H468 H 0.05184 0.59452 0.54649 0.0
S469 S -0.00528 0.64843 0.75625 0.0
N470 N 0.03014 0.64671 0.78239 0.0
N471 N 0.98657 0.63285 0.67334 0.0
C472 C 0.01336 0.62566 0.66336 0.0
C473 C 0.0369 0.63306 0.72264 0.0
C474 C 0.4634 -0.00198 0.10471 0.0
C475 C 0.47282 0.01219 0.17459 0.0
C476 C 0.48579 -0.01051 0.06637 0.0
C477 C 0.5158 -0.00785 0.10069 0.0
H478 H 0.4375 -0.00946 0.08221 0.0
H479 H 0.47507 0.97299 0.01904 0.0
S480 S 0.56067 0.04372 0.26291 0.0
N481 N 0.52126 0.04091 0.2623 0.0
N482 N 0.5626 0.02463 0.18768 0.0
C483 C 0.53056 0.01593 0.15786 0.0
C484 C 0.50796 0.02408 0.19857 0.0
C485 C 0.49534 0.54066 0.52405 0.0
C486 C 0.47093 0.50566 0.54342 0.0
C487 C 0.53109 0.55647 0.54458 0.0
C488 C 0.5429 0.53779 0.5861 0.0
H489 H 0.48629 0.55647 0.49668 0.0
H490 H 0.54905 0.5839 0.53124 0.0
S491 S 0.48982 0.44398 0.64335 0.0
N492 N 0.46144 0.45169 0.59989 0.0
N493 N 0.52832 0.48125 0.63928 0.0
C494 C 0.51914 0.50192 0.60132 0.0
C495 C 0.48314 0.48579 0.57936 0.0
C496 C 0.94556 0.50541 0.05825 0.0
C497 C 0.94076 0.47258 0.07796 0.0
C498 C 0.98007 0.53331 0.04604 0.0
C499 C 0.00956 0.52848 0.05576 0.0
H500 H 0.92326 0.50751 0.03823 0.0
H501 H 0.98305 0.55665 0.01999 0.0
S502 S 0.00893 0.45348 0.14705 0.0
N503 N 0.9664 0.44127 0.13644 0.0
N504 N 0.03184 0.4939 0.11462 0.0
C505 C 0.00472 0.49909 0.09448 0.0
C506 C 0.96963 0.47106 0.1073 0.0
C507 C -0.00096 0.4632 0.49276 0.0
C508 C 0.00199 0.45404 0.42142 0.0
C509 C 0.96623 0.45688 0.51936 0.0
C510 C 0.93716 0.44493 0.47252 0.0
H511 H 0.0223 0.47696 0.52701 0.0
H512 H 0.96585 0.46851 0.57067 0.0
S513 S 0.92619 0.40116 0.29723 0.0
N514 N 0.96913 0.41931 0.31603 0.0
N515 N 0.90818 0.40989 0.36689 0.0
C516 C 0.93732 0.42745 0.40985 0.0
C517 C 0.97029 0.43316 0.38216 0.0
C518 C 0.45439 0.9369 0.86107 0.0
C519 C 0.43125 0.95056 0.86188 0.0
C520 C 0.4911 0.95979 0.86212 0.0
C521 C 0.50487 -0.00356 0.86388 0.0
H522 H 0.44464 0.90928 0.84941 0.0
H523 H 0.50828 0.94894 0.85158 0.0
S524 S 0.45472 0.04175 0.91053 0.0
N525 N 0.4238 0.00011 0.89657 0.0
N526 N 0.49341 0.04359 0.89871 0.0
C527 C 0.48208 0.00915 0.88385 0.0
C528 C 0.44469 0.98582 0.88271 0.0
C529 C 0.55472 0.50632 0.1836 0.0
C530 C 0.5336 0.51181 0.23358 0.0
C531 C 0.53832 0.48763 0.12057 0.0
C532 C 0.50076 0.46869 0.11529 0.0
H533 H 0.58342 0.52383 0.18297 0.0
H534 H 0.55486 0.48967 0.07502 0.0
S535 S 0.43836 0.45004 0.2678 0.0
N536 N 0.4778 0.4805 0.29859 0.0
N537 N 0.4451 0.44172 0.1843 0.0
C538 C 0.48089 0.46375 0.17872 0.0
C539 C 0.49851 0.48396 0.24087 0.0
C540 C 0.34415 0.0046 0.56245 0.0
C541 C 0.32047 0.96828 0.54991 0.0
C542 C 0.35726 0.02878 0.50592 0.0
C543 C 0.34718 0.01737 0.43492 0.0
H544 H 0.35466 0.01411 0.61578 0.0
H545 H 0.3778 0.05576 0.51734 0.0
S546 S 0.27981 0.92682 0.3753 0.0
N547 N 0.28301 0.92335 0.4628 0.0
N548 N 0.30726 0.96878 0.35636 0.0
C549 C 0.32027 0.98199 0.42276 0.0
C550 C 0.30695 0.95738 0.48037 0.0
C551 C 0.33341 0.34771 0.86519 0.0
C552 C 0.36108 0.34029 0.85337 0.0
C553 C 0.31988 0.35854 0.80908 0.0
C554 C 0.3337 0.36237 0.73929 0.0
H555 H 0.32487 0.34885 0.91942 0.0
H556 H 0.30134 0.36746 0.82223 0.0
S557 S 0.39847 0.33576 0.67745 0.0
N558 N 0.39613 0.32992 0.7652 0.0
N559 N 0.37021 0.3494 0.65863 0.0
C560 C 0.35713 0.34943 0.72506 0.0
C561 C 0.37098 0.33854 0.78255 0.0
C562 C 0.93456 0.32056 0.15003 0.0
C563 C 0.94557 0.33492 0.08108 0.0
C564 C 0.95958 0.32536 0.20342 0.0
C565 C -0.00317 0.34476 0.19059 0.0
H566 H 0.90663 0.30792 0.16486 0.0
H567 H 0.94964 0.31608 0.25701 0.0
S568 S 0.03947 0.38184 0.01507 0.0
N569 N -0.00369 0.36452 0.99973 0.0
N570 N 0.04294 0.37394 0.1003 0.0
C571 C 0.00798 0.35595 0.11987 0.0
C572 C 0.98251 0.35101 0.06528 0.0
C573 C 0.5863 0.96338 0.52575 0.0
C574 C 0.60755 0.00035 0.51819 0.0
C575 C 0.57439 0.94062 0.46622 0.0
C576 C 0.5831 0.95365 0.39592 0.0
H577 H 0.57758 0.95176 0.57837 0.0
H578 H 0.55684 0.91269 0.47562 0.0
S579 S 0.64231 0.04792 0.34657 0.0
N580 N 0.63987 0.04863 0.43499 0.0
N581 N 0.61786 0.00603 0.32256 0.0
C582 C 0.6065 -0.00959 0.38758 0.0
C583 C 0.61865 0.01367 0.4487 0.0
C584 C 0.63702 0.64368 0.88548 0.0
C585 C 0.62432 0.62075 0.94431 0.0
C586 C 0.65598 0.63872 0.82983 0.0
C587 C 0.66267 0.61035 0.83009 0.0
H588 H 0.63151 0.66511 0.88138 0.0
H589 H 0.6636 0.65611 0.78397 0.0
S590 S 0.63734 0.54409 0.97439 0.0
N591 N 0.62203 0.56983 1.00195 0.0
N592 N 0.65706 0.56043 0.8968 0.0
C593 C 0.65207 0.58852 0.89069 0.0
C594 C 0.63289 0.59362 0.94766 0.0
C595 C 0.0344 0.63305 0.11013 0.0
C596 C 0.06963 0.64278 0.13086 0.0
C597 C 0.00557 0.6178 0.15913 0.0
C598 C 0.01074 0.61163 0.23092 0.0
H599 H 0.02856 0.63525 0.05457 0.0
H600 H 0.97886 0.60903 0.1396 0.0
S601 S 0.09831 0.63732 0.3154 0.0
N602 N 0.10818 0.64857 0.23047 0.0
N603 N 0.05473 0.62055 0.32208 0.0
C604 C 0.04619 0.62353 0.25331 0.0
C605 C 0.07536 0.63891 0.20359 0.0
C606 C 0.56107 0.13794 0.44547 0.0
C607 C 0.52639 0.13217 0.45795 0.0
C608 C 0.58127 0.13463 0.50038 0.0
C609 C 0.5677 0.12534 0.57048 0.0
H610 H 0.57179 0.14268 0.39144 0.0
H611 H 0.60686 0.13742 0.48655 0.0
S612 S 0.48041 0.11269 0.63388 0.0
N613 N 0.48101 0.12065 0.54724 0.0
N614 N 0.51884 0.11492 0.65114 0.0
C615 C 0.53431 0.12266 0.58514 0.0
C616 C 0.51375 0.12605 0.52883 0.0
C617 C 0.41797 0.56333 0.82594 0.0
C618 C 0.39187 0.52708 0.82602 0.0
C619 C 0.44268 0.57924 0.88235 0.0
C620 C 0.44284 0.55979 0.94209 0.0
H621 H 0.42013 0.57954 0.78045 0.0
H622 H 0.46232 0.60705 0.87814 0.0
S623 S 0.37969 0.46391 0.97003 0.0
N624 N 0.36735 0.47226 0.89228 0.0
N625 N 0.41345 0.50188 0.99836 0.0
C626 C 0.41611 0.52364 0.94416 0.0
C627 C 0.39076 0.50743 0.88642 0.0
C628 C 0.82431 0.38738 0.19963 0.0
C629 C 0.81591 0.39176 0.12902 0.0
C630 C 0.83574 0.41463 0.25087 0.0
C631 C 0.84005 0.44788 0.23368 0.0
H632 H 0.82314 0.36304 0.215 0.0
H633 H 0.84267 0.40994 0.30385 0.0
S634 S 0.81976 0.47291 0.05809 0.0
N635 N 0.8105 0.43182 0.04627 0.0
N636 N 0.83338 0.48307 0.14204 0.0
C637 C 0.8308 0.45242 0.16415 0.0
C638 C 0.81824 0.42437 0.11222 0.0
C639 C 0.41662 0.84718 0.47127 0.0
C640 C 0.4125 0.85857 0.4033 0.0
C641 C 0.39567 0.84602 0.53049 0.0
C642 C 0.36923 0.85567 0.52425 0.0
H643 H 0.43698 0.84016 0.47951 0.0
H644 H 0.40063 0.83795 0.58192 0.0
S645 S 0.34619 0.88548 0.35699 0.0
N646 N 0.37864 0.87827 0.33285 0.0
N647 N 0.33948 0.87586 0.44316 0.0
C648 C 0.36403 0.86595 0.45594 0.0
C649 C 0.38556 0.86748 0.39594 0.0
C650 C 0.56413 0.41159 0.7556 0.0
C651 C 0.59894 0.43901 0.77347 0.0
C652 C 0.54024 0.38896 0.80792 0.0
C653 C 0.55003 0.39262 0.88072 0.0
H654 H 0.55417 0.40929 0.70139 0.0
H655 H 0.51303 0.37051 0.7918 0.0
S656 S 0.64057 0.45481 0.9535 0.0
N657 N 0.64368 0.4646 0.8674 0.0
N658 N 0.59941 0.42182 0.9656 0.0
C659 C 0.58616 0.4171 0.89784 0.0
C660 C 0.61045 0.4403 0.84436 0.0
C661 C 0.16592 0.5052 0.16045 0.0
C662 C 0.16432 0.51421 0.23234 0.0
C663 C 0.17369 0.52964 0.10535 0.0
C664 C 0.17965 0.56384 0.11993 0.0
H665 H 0.15786 0.47827 0.14571 0.0
H666 H 0.17095 0.52035 0.05038 0.0
S667 S 0.18969 0.60385 0.3003 0.0
N668 N 0.17853 0.56257 0.31621 0.0
N669 N 0.1917 0.60783 0.2121 0.0
C670 C 0.18371 0.57482 0.19187 0.0
C671 C 0.17619 0.55006 0.24826 0.0
loop_
_geom_bond_atom_site_label_1
_geom_bond_atom_site_label_2
_geom_bond_distance
_geom_bond_site_symmetry_2
_ccdc_geom_bond_type
O0 Zn1 1.953 . S
O0 C16 1.225 . S
Zn1 O0 1.953 . S
Zn1 O2 1.949 . S
Zn1 O8 1.919 . S
Zn1 O13 1.924 . S
O2 Zn1 1.949 . S
O2 Zn3 1.923 . S
O2 Zn4 1.950 . S
O2 Zn5 1.945 . S
Zn3 O2 1.923 . S
Zn3 O6 1.933 . S
Zn3 O9 1.941 . S
Zn3 O10 1.965 . S
Zn4 O2 1.950 . S
Zn4 O11 1.938 . S
Zn4 O12 1.906 . S
Zn4 O22 1.953 . S
Zn5 O2 1.945 . S
Zn5 O7 1.932 . S
Zn5 O14 1.977 . S
Zn5 O15 1.910 . S
O6 Zn3 1.933 . S
O6 C17 1.226 . S
O7 Zn5 1.932 . S
O7 C17 1.307 . S
O8 Zn1 1.919 . S
O8 C19 1.253 . S
O9 Zn3 1.941 . S
O9 C19 1.283 . S
O10 Zn3 1.965 . S
O10 C18 1.303 . S
O11 Zn4 1.938 . S
O11 C18 1.247 . S
O12 Zn4 1.906 . S
O12 C20 1.304 . S
O13 Zn1 1.924 . S
O13 C21 1.311 . S
O14 Zn5 1.977 . S
O14 C20 1.272 . S
O15 Zn5 1.910 . S
O15 C21 1.231 . S
C16 O0 1.225 . S
C16 O22 1.298 . S
C17 O6 1.226 . S
C17 O7 1.307 . S
C18 O10 1.303 . S
C18 O11 1.247 . S
C19 O8 1.253 . S
C19 O9 1.283 . S
C20 O12 1.304 . S
C20 O14 1.272 . S
C21 O13 1.311 . S
C21 O15 1.231 . S
O22 Zn4 1.953 . S
O22 C16 1.298 . S
O23 Zn24 1.953 . S
O23 C39 1.225 . S
Zn24 O23 1.953 . S
Zn24 O25 1.949 . S
Zn24 O31 1.919 . S
Zn24 O36 1.924 . S
O25 Zn24 1.949 . S
O25 Zn26 1.923 . S
O25 Zn27 1.950 . S
O25 Zn28 1.945 . S
Zn26 O25 1.923 . S
Zn26 O29 1.933 . S
Zn26 O32 1.941 . S
Zn26 O33 1.965 . S
Zn27 O25 1.950 . S
Zn27 O34 1.938 . S
Zn27 O35 1.906 . S
Zn27 O45 1.953 . S
Zn28 O25 1.945 . S
Zn28 O30 1.932 . S
Zn28 O37 1.977 . S
Zn28 O38 1.910 . S
O29 Zn26 1.933 . S
O29 C40 1.226 . S
O30 Zn28 1.932 . S
O30 C40 1.307 . S
O31 Zn24 1.919 . S
O31 C42 1.253 . S
O32 Zn26 1.941 . S
O32 C42 1.283 . S
O33 Zn26 1.965 . S
O33 C41 1.303 . S
O34 Zn27 1.938 . S
O34 C41 1.247 . S
O35 Zn27 1.906 . S
O35 C43 1.304 . S
O36 Zn24 1.924 . S
O36 C44 1.311 . S
O37 Zn28 1.977 . S
O37 C43 1.272 . S
O38 Zn28 1.910 . S
O38 C44 1.231 . S
C39 O23 1.225 . S
C39 O45 1.298 . S
C40 O29 1.226 . S
C40 O30 1.307 . S
C41 O33 1.303 . S
C41 O34 1.247 . S
C42 O31 1.253 . S
C42 O32 1.283 . S
C43 O35 1.304 . S
C43 O37 1.272 . S
C44 O36 1.311 . S
C44 O38 1.231 . S
O45 Zn27 1.953 . S
O45 C39 1.298 . S
O46 Zn47 1.953 1_554 S
O46 C62 1.225 . S
Zn47 O46 1.953 1_556 S
Zn47 O48 1.949 . S
Zn47 O54 1.919 . S
Zn47 O59 1.924 . S
O48 Zn47 1.949 . S
O48 Zn49 1.923 . S
O48 Zn50 1.950 . S
O48 Zn51 1.945 . S
Zn49 O48 1.923 . S
Zn49 O52 1.933 . S
Zn49 O55 1.941 . S
Zn49 O56 1.965 1_556 S
Zn50 O48 1.950 . S
Zn50 O57 1.938 1_556 S
Zn50 O58 1.906 . S
Zn50 O68 1.953 1_556 S
Zn51 O48 1.945 . S
Zn51 O53 1.932 . S
Zn51 O60 1.977 . S
Zn51 O61 1.910 . S
O52 Zn49 1.933 . S
O52 C63 1.226 . S
O53 Zn51 1.932 . S
O53 C63 1.307 . S
O54 Zn47 1.919 . S
O54 C65 1.253 . S
O55 Zn49 1.941 . S
O55 C65 1.283 . S
O56 Zn49 1.965 1_554 S
O56 C64 1.303 . S
O57 Zn50 1.938 1_554 S
O57 C64 1.247 . S
O58 Zn50 1.906 . S
O58 C66 1.304 . S
O59 Zn47 1.924 . S
O59 C67 1.311 . S
O60 Zn51 1.977 . S
O60 C66 1.272 . S
O61 Zn51 1.910 . S
O61 C67 1.231 . S
C62 O46 1.225 . S
C62 O68 1.298 . S
C63 O52 1.226 . S
C63 O53 1.307 . S
C64 O56 1.303 . S
C64 O57 1.247 . S
C65 O54 1.253 . S
C65 O55 1.283 . S
C66 O58 1.304 . S
C66 O60 1.272 . S
C67 O59 1.311 . S
C67 O61 1.231 . S
O68 Zn50 1.953 1_554 S
O68 C62 1.298 . S
O69 Zn70 1.953 . S
O69 C85 1.225 . S
Zn70 O69 1.953 . S
Zn70 O71 1.949 . S
Zn70 O77 1.919 . S
Zn70 O82 1.924 . S
O71 Zn70 1.949 . S
O71 Zn72 1.923 . S
O71 Zn73 1.950 . S
O71 Zn74 1.945 . S
Zn72 O71 1.923 . S
Zn72 O75 1.933 . S
Zn72 O78 1.941 . S
Zn72 O79 1.965 . S
Zn73 O71 1.950 . S
Zn73 O80 1.938 . S
Zn73 O81 1.906 . S
Zn73 O91 1.953 . S
Zn74 O71 1.945 . S
Zn74 O76 1.932 . S
Zn74 O83 1.977 . S
Zn74 O84 1.910 . S
O75 Zn72 1.933 . S
O75 C86 1.226 . S
O76 Zn74 1.932 . S
O76 C86 1.307 . S
O77 Zn70 1.919 . S
O77 C88 1.253 . S
O78 Zn72 1.941 . S
O78 C88 1.283 . S
O79 Zn72 1.965 . S
O79 C87 1.303 . S
O80 Zn73 1.938 . S
O80 C87 1.247 . S
O81 Zn73 1.906 . S
O81 C89 1.304 . S
O82 Zn70 1.924 . S
O82 C90 1.311 . S
O83 Zn74 1.977 . S
O83 C89 1.272 . S
O84 Zn74 1.910 . S
O84 C90 1.231 . S
C85 O69 1.225 . S
C85 O91 1.298 . S
C86 O75 1.226 . S
C86 O76 1.307 . S
C87 O79 1.303 . S
C87 O80 1.247 . S
C88 O77 1.253 . S
C88 O78 1.283 . S
C89 O81 1.304 . S
C89 O83 1.272 . S
C90 O82 1.311 . S
C90 O84 1.231 . S
O91 Zn73 1.953 . S
O91 C85 1.298 . S
O92 Zn93 1.953 . S
O92 C108 1.225 . S
Zn93 O92 1.953 . S
Zn93 O94 1.949 . S
Zn93 O100 1.919 . S
Zn93 O105 1.924 . S
O94 Zn93 1.949 . S
O94 Zn95 1.923 . S
O94 Zn96 1.950 . S
O94 Zn97 1.945 . S
Zn95 O94 1.923 . S
Zn95 O98 1.933 . S
Zn95 O101 1.941 . S
Zn95 O102 1.965 . S
Zn96 O94 1.950 . S
Zn96 O103 1.938 . S
Zn96 O104 1.906 . S
Zn96 O114 1.953 . S
Zn97 O94 1.945 . S
Zn97 O99 1.932 . S
Zn97 O106 1.977 . S
Zn97 O107 1.910 . S
O98 Zn95 1.933 . S
O98 C109 1.226 . S
O99 Zn97 1.932 . S
O99 C109 1.307 . S
O100 Zn93 1.919 . S
O100 C111 1.253 . S
O101 Zn95 1.941 . S
O101 C111 1.283 . S
O102 Zn95 1.965 . S
O102 C110 1.303 . S
O103 Zn96 1.938 . S
O103 C110 1.247 . S
O104 Zn96 1.906 . S
O104 C112 1.304 . S
O105 Zn93 1.924 . S
O105 C113 1.311 . S
O106 Zn97 1.977 . S
O106 C112 1.272 . S
O107 Zn97 1.910 . S
O107 C113 1.231 . S
C108 O92 1.225 . S
C108 O114 1.298 . S
C109 O98 1.226 . S
C109 O99 1.307 . S
C110 O102 1.303 . S
C110 O103 1.247 . S
C111 O100 1.253 . S
C111 O101 1.283 . S
C112 O104 1.304 . S
C112 O106 1.272 . S
C113 O105 1.311 . S
C113 O107 1.231 . S
O114 Zn96 1.953 . S
O114 C108 1.298 . S
O115 Zn116 1.953 1_554 S
O115 C131 1.225 . S
Zn116 O115 1.953 1_556 S
Zn116 O117 1.949 . S
Zn116 O123 1.919 . S
Zn116 O128 1.924 . S
O117 Zn116 1.949 . S
O117 Zn118 1.923 . S
O117 Zn119 1.950 . S
O117 Zn120 1.945 . S
Zn118 O117 1.923 . S
Zn118 O121 1.933 . S
Zn118 O124 1.941 . S
Zn118 O125 1.965 1_556 S
Zn119 O117 1.950 . S
Zn119 O126 1.938 1_556 S
Zn119 O127 1.906 . S
Zn119 O137 1.953 1_556 S
Zn120 O117 1.945 . S
Zn120 O122 1.932 . S
Zn120 O129 1.977 . S
Zn120 O130 1.910 . S
O121 Zn118 1.933 . S
O121 C132 1.226 . S
O122 Zn120 1.932 . S
O122 C132 1.307 . S
O123 Zn116 1.919 . S
O123 C134 1.253 . S
O124 Zn118 1.941 . S
O124 C134 1.283 . S
O125 Zn118 1.965 1_554 S
O125 C133 1.303 . S
O126 Zn119 1.938 1_554 S
O126 C133 1.247 . S
O127 Zn119 1.906 . S
O127 C135 1.304 . S
O128 Zn116 1.924 . S
O128 C136 1.311 . S
O129 Zn120 1.977 . S
O129 C135 1.272 . S
O130 Zn120 1.910 . S
O130 C136 1.231 . S
C131 O115 1.225 . S
C131 O137 1.298 . S
C132 O121 1.226 . S
C132 O122 1.307 . S
C133 O125 1.303 . S
C133 O126 1.247 . S
C134 O123 1.253 . S
C134 O124 1.283 . S
C135 O127 1.304 . S
C135 O129 1.272 . S
C136 O128 1.311 . S
C136 O130 1.231 . S
O137 Zn119 1.953 1_554 S
O137 C131 1.298 . S
O138 Zn139 1.953 . S
O138 C154 1.225 . S
Zn139 O138 1.953 . S
Zn139 O140 1.949 . S
Zn139 O146 1.919 . S
Zn139 O151 1.924 . S
O140 Zn139 1.949 . S
O140 Zn141 1.923 . S
O140 Zn142 1.950 . S
O140 Zn143 1.945 . S
Zn141 O140 1.923 . S
Zn141 O144 1.933 . S
Zn141 O147 1.941 . S
Zn141 O148 1.965 . S
Zn142 O140 1.950 . S
Zn142 O149 1.938 . S
Zn142 O150 1.906 . S
Zn142 O160 1.953 . S
Zn143 O140 1.945 . S
Zn143 O145 1.932 . S
Zn143 O152 1.977 . S
Zn143 O153 1.910 . S
O144 Zn141 1.933 . S
O144 C155 1.226 . S
O145 Zn143 1.932 . S
O145 C155 1.307 . S
O146 Zn139 1.919 . S
O146 C157 1.253 . S
O147 Zn141 1.941 . S
O147 C157 1.283 . S
O148 Zn141 1.965 . S
O148 C156 1.303 . S
O149 Zn142 1.938 . S
O149 C156 1.247 . S
O150 Zn142 1.906 . S
O150 C158 1.304 . S
O151 Zn139 1.924 . S
O151 C159 1.311 . S
O152 Zn143 1.977 . S
O152 C158 1.272 . S
O153 Zn143 1.910 . S
O153 C159 1.231 . S
C154 O138 1.225 . S
C154 O160 1.298 . S
C155 O144 1.226 . S
C155 O145 1.307 . S
C156 O148 1.303 . S
C156 O149 1.247 . S
C157 O146 1.253 . S
C157 O147 1.283 . S
C158 O150 1.304 . S
C158 O152 1.272 . S
C159 O151 1.311 . S
C159 O153 1.231 . S
O160 Zn142 1.953 . S
O160 C154 1.298 . S
O161 Zn162 1.953 . S
O161 C177 1.225 . S
Zn162 O161 1.953 . S
Zn162 O163 1.949 . S
Zn162 O169 1.919 . S
Zn162 O174 1.924 . S
O163 Zn162 1.949 . S
O163 Zn164 1.923 . S
O163 Zn165 1.950 . S
O163 Zn166 1.945 . S
Zn164 O163 1.923 . S
Zn164 O167 1.933 . S
Zn164 O170 1.941 . S
Zn164 O171 1.965 . S
Zn165 O163 1.950 . S
Zn165 O172 1.938 . S
Zn165 O173 1.906 . S
Zn165 O183 1.953 . S
Zn166 O163 1.945 . S
Zn166 O168 1.932 . S
Zn166 O175 1.977 . S
Zn166 O176 1.910 . S
O167 Zn164 1.933 . S
O167 C178 1.226 . S
O168 Zn166 1.932 . S
O168 C178 1.307 . S
O169 Zn162 1.919 . S
O169 C180 1.253 . S
O170 Zn164 1.941 . S
O170 C180 1.283 . S
O171 Zn164 1.965 . S
O171 C179 1.303 . S
O172 Zn165 1.938 . S
O172 C179 1.247 . S
O173 Zn165 1.906 . S
O173 C181 1.304 . S
O174 Zn162 1.924 . S
O174 C182 1.311 . S
O175 Zn166 1.977 . S
O175 C181 1.272 . S
O176 Zn166 1.910 . S
O176 C182 1.231 . S
C177 O161 1.225 . S
C177 O183 1.298 . S
C178 O167 1.226 . S
C178 O168 1.307 . S
C179 O171 1.303 . S
C179 O172 1.247 . S
C180 O169 1.253 . S
C180 O170 1.283 . S
C181 O173 1.304 . S
C181 O175 1.272 . S
C182 O174 1.311 . S
C182 O176 1.231 . S
O183 Zn165 1.953 . S
O183 C177 1.298 . S
O184 Zn185 1.953 1_556 S
O184 C200 1.225 . S
Zn185 O184 1.953 1_554 S
Zn185 O186 1.949 . S
Zn185 O192 1.919 . S
Zn185 O197 1.924 . S
O186 Zn185 1.949 . S
O186 Zn187 1.923 . S
O186 Zn188 1.950 . S
O186 Zn189 1.945 . S
Zn187 O186 1.923 . S
Zn187 O190 1.933 . S
Zn187 O193 1.941 . S
Zn187 O194 1.965 1_554 S
Zn188 O186 1.950 . S
Zn188 O195 1.938 1_554 S
Zn188 O196 1.906 . S
Zn188 O206 1.953 1_554 S
Zn189 O186 1.945 . S
Zn189 O191 1.932 . S
Zn189 O198 1.977 . S
Zn189 O199 1.910 . S
O190 Zn187 1.933 . S
O190 C201 1.226 . S
O191 Zn189 1.932 . S
O191 C201 1.307 . S
O192 Zn185 1.919 . S
O192 C203 1.253 . S
O193 Zn187 1.941 . S
O193 C203 1.283 . S
O194 Zn187 1.965 1_556 S
O194 C202 1.303 . S
O195 Zn188 1.938 1_556 S
O195 C202 1.247 . S
O196 Zn188 1.906 . S
O196 C204 1.304 . S
O197 Zn185 1.924 . S
O197 C205 1.311 . S
O198 Zn189 1.977 . S
O198 C204 1.272 . S
O199 Zn189 1.910 . S
O199 C205 1.231 . S
C200 O184 1.225 . S
C200 O206 1.298 . S
C201 O190 1.226 . S
C201 O191 1.307 . S
C202 O194 1.303 . S
C202 O195 1.247 . S
C203 O192 1.253 . S
C203 O193 1.283 . S
C204 O196 1.304 . S
C204 O198 1.272 . S
C205 O197 1.311 . S
C205 O199 1.231 . S
O206 Zn188 1.953 1_556 S
O206 C200 1.298 . S
O207 Zn208 1.953 . S
O207 C223 1.225 . S
Zn208 O207 1.953 . S
Zn208 O209 1.949 . S
Zn208 O215 1.919 . S
Zn208 O220 1.924 . S
O209 Zn208 1.949 . S
O209 Zn210 1.923 . S
O209 Zn211 1.950 . S
O209 Zn212 1.945 . S
Zn210 O209 1.923 . S
Zn210 O213 1.933 . S
Zn210 O216 1.941 . S
Zn210 O217 1.965 . S
Zn211 O209 1.950 . S
Zn211 O218 1.938 . S
Zn211 O219 1.906 . S
Zn211 O229 1.953 . S
Zn212 O209 1.945 . S
Zn212 O214 1.932 . S
Zn212 O221 1.977 . S
Zn212 O222 1.910 . S
O213 Zn210 1.933 . S
O213 C224 1.226 . S
O214 Zn212 1.932 . S
O214 C224 1.307 . S
O215 Zn208 1.919 . S
O215 C226 1.253 . S
O216 Zn210 1.941 . S
O216 C226 1.283 . S
O217 Zn210 1.965 . S
O217 C225 1.303 . S
O218 Zn211 1.938 . S
O218 C225 1.247 . S
O219 Zn211 1.906 . S
O219 C227 1.304 . S
O220 Zn208 1.924 . S
O220 C228 1.311 . S
O221 Zn212 1.977 . S
O221 C227 1.272 . S
O222 Zn212 1.910 . S
O222 C228 1.231 . S
C223 O207 1.225 . S
C223 O229 1.298 . S
C224 O213 1.226 . S
C224 O214 1.307 . S
C225 O217 1.303 . S
C225 O218 1.247 . S
C226 O215 1.253 . S
C226 O216 1.283 . S
C227 O219 1.304 . S
C227 O221 1.272 . S
C228 O220 1.311 . S
C228 O222 1.231 . S
O229 Zn211 1.953 . S
O229 C223 1.298 . S
O230 Zn231 1.953 . S
O230 C246 1.225 . S
Zn231 O230 1.953 . S
Zn231 O232 1.949 . S
Zn231 O238 1.919 . S
Zn231 O243 1.924 . S
O232 Zn231 1.949 . S
O232 Zn233 1.923 . S
O232 Zn234 1.950 . S
O232 Zn235 1.945 . S
Zn233 O232 1.923 . S
Zn233 O236 1.933 . S
Zn233 O239 1.941 . S
Zn233 O240 1.965 . S
Zn234 O232 1.950 . S
Zn234 O241 1.938 . S
Zn234 O242 1.906 . S
Zn234 O252 1.953 . S
Zn235 O232 1.945 . S
Zn235 O237 1.932 . S
Zn235 O244 1.977 . S
Zn235 O245 1.910 . S
O236 Zn233 1.933 . S
O236 C247 1.226 . S
O237 Zn235 1.932 . S
O237 C247 1.307 . S
O238 Zn231 1.919 . S
O238 C249 1.253 . S
O239 Zn233 1.941 . S
O239 C249 1.283 . S
O240 Zn233 1.965 . S
O240 C248 1.303 . S
O241 Zn234 1.938 . S
O241 C248 1.247 . S
O242 Zn234 1.906 . S
O242 C250 1.304 . S
O243 Zn231 1.924 . S
O243 C251 1.311 . S
O244 Zn235 1.977 . S
O244 C250 1.272 . S
O245 Zn235 1.910 . S
O245 C251 1.231 . S
C246 O230 1.225 . S
C246 O252 1.298 . S
C247 O236 1.226 . S
C247 O237 1.307 . S
C248 O240 1.303 . S
C248 O241 1.247 . S
C249 O238 1.253 . S
C249 O239 1.283 . S
C250 O242 1.304 . S
C250 O244 1.272 . S
C251 O243 1.311 . S
C251 O245 1.231 . S
O252 Zn234 1.953 . S
O252 C246 1.298 . S
O253 Zn254 1.953 1_556 S
O253 C269 1.225 . S
Zn254 O253 1.953 1_554 S
Zn254 O255 1.949 . S
Zn254 O261 1.919 . S
Zn254 O266 1.924 . S
O255 Zn254 1.949 . S
O255 Zn256 1.923 . S
O255 Zn257 1.950 . S
O255 Zn258 1.945 . S
Zn256 O255 1.923 . S
Zn256 O259 1.933 . S
Zn256 O262 1.941 . S
Zn256 O263 1.965 1_554 S
Zn257 O255 1.950 . S
Zn257 O264 1.938 1_554 S
Zn257 O265 1.906 . S
Zn257 O275 1.953 1_554 S
Zn258 O255 1.945 . S
Zn258 O260 1.932 . S
Zn258 O267 1.977 . S
Zn258 O268 1.910 . S
O259 Zn256 1.933 . S
O259 C270 1.226 . S
O260 Zn258 1.932 . S
O260 C270 1.307 . S
O261 Zn254 1.919 . S
O261 C272 1.253 . S
O262 Zn256 1.941 . S
O262 C272 1.283 . S
O263 Zn256 1.965 1_556 S
O263 C271 1.303 . S
O264 Zn257 1.938 1_556 S
O264 C271 1.247 . S
O265 Zn257 1.906 . S
O265 C273 1.304 . S
O266 Zn254 1.924 . S
O266 C274 1.311 . S
O267 Zn258 1.977 . S
O267 C273 1.272 . S
O268 Zn258 1.910 . S
O268 C274 1.231 . S
C269 O253 1.225 . S
C269 O275 1.298 . S
C270 O259 1.226 . S
C270 O260 1.307 . S
C271 O263 1.303 . S
C271 O264 1.247 . S
C272 O261 1.253 . S
C272 O262 1.283 . S
C273 O265 1.304 . S
C273 O267 1.272 . S
C274 O266 1.311 . S
C274 O268 1.231 . S
O275 Zn257 1.953 1_556 S
O275 C269 1.298 . S
C276 C277 1.369 . S
C276 C278 1.419 . S
C276 H280 0.930 . S
C277 C276 1.369 . S
C277 C286 1.429 . S
C278 C276 1.419 . S
C278 C279 1.363 . S
C278 H281 0.929 . S
C279 C278 1.363 . S
C279 C285 1.428 . S
H280 C276 0.930 . S
H281 C278 0.929 . S
S282 N283 1.613 . S
S282 N284 1.610 . S
N283 S282 1.613 . S
N283 C286 1.350 . S
N284 S282 1.610 . S
N284 C285 1.351 . S
C285 C279 1.428 . S
C285 N284 1.351 . S
C285 C286 1.434 . S
C286 C277 1.429 . S
C286 N283 1.350 . S
C286 C285 1.434 . S
C287 C288 1.369 . S
C287 C289 1.419 . S
C287 H291 0.930 . S
C288 C287 1.369 . S
C288 C297 1.429 . S
C289 C287 1.419 . S
C289 C290 1.363 . S
C289 H292 0.929 . S
C290 C289 1.363 . S
C290 C296 1.428 . S
H291 C287 0.930 . S
H292 C289 0.929 . S
S293 N294 1.613 . S
S293 N295 1.610 . S
N294 S293 1.613 . S
N294 C297 1.350 . S
N295 S293 1.610 . S
N295 C296 1.351 . S
C296 C290 1.428 . S
C296 N295 1.351 . S
C296 C297 1.434 . S
C297 C288 1.429 . S
C297 N294 1.350 . S
C297 C296 1.434 . S
C298 C299 1.369 . S
C298 C300 1.419 . S
C298 H302 0.930 . S
C299 C298 1.369 . S
C299 C308 1.429 . S
C300 C298 1.419 . S
C300 C301 1.363 . S
C300 H303 0.929 . S
C301 C300 1.363 . S
C301 C307 1.428 . S
H302 C298 0.930 . S
H303 C300 0.929 . S
S304 N305 1.613 . S
S304 N306 1.610 . S
N305 S304 1.613 . S
N305 C308 1.350 . S
N306 S304 1.610 . S
N306 C307 1.351 . S
C307 C301 1.428 . S
C307 N306 1.351 . S
C307 C308 1.434 . S
C308 C299 1.429 . S
C308 N305 1.350 . S
C308 C307 1.434 . S
C309 C310 1.369 . S
C309 C311 1.419 . S
C309 H313 0.930 . S
C310 C309 1.369 . S
C310 C319 1.429 . S
C311 C309 1.419 . S
C311 C312 1.363 . S
C311 H314 0.929 . S
C312 C311 1.363 . S
C312 C318 1.428 . S
H313 C309 0.930 . S
H314 C311 0.929 . S
S315 N316 1.613 . S
S315 N317 1.610 . S
N316 S315 1.613 . S
N316 C319 1.350 . S
N317 S315 1.610 . S
N317 C318 1.351 . S
C318 C312 1.428 . S
C318 N317 1.351 . S
C318 C319 1.434 . S
C319 C310 1.429 . S
C319 N316 1.350 . S
C319 C318 1.434 . S
C320 C321 1.369 . S
C320 C322 1.419 . S
C320 H324 0.930 . S
C321 C320 1.369 . S
C321 C330 1.429 . S
C322 C320 1.419 . S
C322 C323 1.363 . S
C322 H325 0.929 . S
C323 C322 1.363 . S
C323 C329 1.428 . S
H324 C320 0.930 . S
H325 C322 0.929 . S
S326 N327 1.613 . S
S326 N328 1.610 . S
N327 S326 1.613 . S
N327 C330 1.350 . S
N328 S326 1.610 . S
N328 C329 1.351 . S
C329 C323 1.428 . S
C329 N328 1.351 . S
C329 C330 1.434 . S
C330 C321 1.429 . S
C330 N327 1.350 . S
C330 C329 1.434 . S
C331 C332 1.369 . S
C331 C333 1.419 . S
C331 H335 0.930 . S
C332 C331 1.369 . S
C332 C341 1.429 . S
C333 C331 1.419 . S
C333 C334 1.363 . S
C333 H336 0.929 . S
C334 C333 1.363 . S
C334 C340 1.428 . S
H335 C331 0.930 . S
H336 C333 0.929 . S
S337 N338 1.613 . S
S337 N339 1.610 . S
N338 S337 1.613 . S
N338 C341 1.350 . S
N339 S337 1.610 . S
N339 C340 1.351 . S
C340 C334 1.428 . S
C340 N339 1.351 . S
C340 C341 1.434 . S
C341 C332 1.429 . S
C341 N338 1.350 . S
C341 C340 1.434 . S
C342 C343 1.369 . S
C342 C344 1.419 . S
C342 H346 0.930 . S
C343 C342 1.369 . S
C343 C352 1.429 1_556 S
C344 C342 1.419 . S
C344 C345 1.363 1_556 S
C344 H347 0.929 . S
C345 C344 1.363 1_554 S
C345 C351 1.428 . S
H346 C342 0.930 . S
H347 C344 0.929 . S
S348 N349 1.613 . S
S348 N350 1.610 . S
N349 S348 1.613 . S
N349 C352 1.350 . S
N350 S348 1.610 . S
N350 C351 1.351 . S
C351 C345 1.428 . S
C351 N350 1.351 . S
C351 C352 1.434 . S
C352 C343 1.429 1_554 S
C352 N349 1.350 . S
C352 C351 1.434 . S
C353 C354 1.369 . S
C353 C355 1.419 . S
C353 H357 0.930 . S
C354 C353 1.369 . S
C354 C363 1.429 . S
C355 C353 1.419 . S
C355 C356 1.363 . S
C355 H358 0.929 . S
C356 C355 1.363 . S
C356 C362 1.428 . S
H357 C353 0.930 . S
H358 C355 0.929 . S
S359 N360 1.613 . S
S359 N361 1.610 . S
N360 S359 1.613 . S
N360 C363 1.350 . S
N361 S359 1.610 . S
N361 C362 1.351 . S
C362 C356 1.428 . S
C362 N361 1.351 . S
C362 C363 1.434 . S
C363 C354 1.429 . S
C363 N360 1.350 . S
C363 C362 1.434 . S
C364 C365 1.369 . S
C364 C366 1.419 . S
C364 H368 0.930 . S
C365 C364 1.369 . S
C365 C374 1.429 . S
C366 C364 1.419 . S
C366 C367 1.363 . S
C366 H369 0.929 . S
C367 C366 1.363 . S
C367 C373 1.428 . S
H368 C364 0.930 . S
H369 C366 0.929 . S
S370 N371 1.613 . S
S370 N372 1.610 . S
N371 S370 1.613 . S
N371 C374 1.350 . S
N372 S370 1.610 . S
N372 C373 1.351 . S
C373 C367 1.428 . S
C373 N372 1.351 . S
C373 C374 1.434 . S
C374 C365 1.429 . S
C374 N371 1.350 . S
C374 C373 1.434 . S
C375 C376 1.369 1_554 S
C375 C377 1.419 . S
C375 H379 0.930 . S
C376 C375 1.369 1_556 S
C376 C385 1.429 . S
C377 C375 1.419 . S
C377 C378 1.363 . S
C377 H380 0.929 . S
C378 C377 1.363 . S
C378 C384 1.428 1_554 S
H379 C375 0.930 . S
H380 C377 0.929 . S
S381 N382 1.613 . S
S381 N383 1.610 . S
N382 S381 1.613 . S
N382 C385 1.350 . S
N383 S381 1.610 . S
N383 C384 1.351 . S
C384 C378 1.428 1_556 S
C384 N383 1.351 . S
C384 C385 1.434 . S
C385 C376 1.429 . S
C385 N382 1.350 . S
C385 C384 1.434 . S
C386 C387 1.369 . S
C386 C388 1.419 . S
C386 H390 0.930 . S
C387 C386 1.369 . S
C387 C396 1.429 . S
C388 C386 1.419 . S
C388 C389 1.363 . S
C388 H391 0.929 . S
C389 C388 1.363 . S
C389 C395 1.428 . S
H390 C386 0.930 . S
H391 C388 0.929 . S
S392 N393 1.613 . S
S392 N394 1.610 . S
N393 S392 1.613 . S
N393 C396 1.350 . S
N394 S392 1.610 . S
N394 C395 1.351 . S
C395 C389 1.428 . S
C395 N394 1.351 . S
C395 C396 1.434 . S
C396 C387 1.429 . S
C396 N393 1.350 . S
C396 C395 1.434 . S
C397 C398 1.369 . S
C397 C399 1.419 . S
C397 H401 0.930 . S
C398 C397 1.369 . S
C398 C407 1.429 . S
C399 C397 1.419 . S
C399 C400 1.363 . S
C399 H402 0.929 . S
C400 C399 1.363 . S
C400 C406 1.428 . S
H401 C397 0.930 . S
H402 C399 0.929 . S
S403 N404 1.613 . S
S403 N405 1.610 . S
N404 S403 1.613 . S
N404 C407 1.350 . S
N405 S403 1.610 . S
N405 C406 1.351 . S
C406 C400 1.428 . S
C406 N405 1.351 . S
C406 C407 1.434 . S
C407 C398 1.429 . S
C407 N404 1.350 . S
C407 C406 1.434 . S
C408 C409 1.369 . S
C408 C410 1.419 1_556 S
C408 H412 0.930 . S
C409 C408 1.369 . S
C409 C418 1.429 1_565 S
C410 C408 1.419 1_554 S
C410 C411 1.363 1_565 S
C410 H413 0.929 . S
C411 C410 1.363 1_545 S
C411 C417 1.428 . S
H412 C408 0.930 . S
H413 C410 0.929 . S
S414 N415 1.613 . S
S414 N416 1.604 1_556 S
N415 S414 1.613 . S
N415 C418 1.350 . S
N416 S414 1.604 1_554 S
N416 C417 1.351 . S
C417 C411 1.428 . S
C417 N416 1.351 . S
C417 C418 1.434 1_554 S
C418 C409 1.429 1_545 S
C418 N415 1.350 . S
C418 C417 1.434 1_556 S
C419 C420 1.369 . S
C419 C421 1.419 . S
C419 H423 0.930 . S
C420 C419 1.369 . S
C420 C429 1.429 . S
C421 C419 1.419 . S
C421 C422 1.363 . S
C421 H424 0.929 . S
C422 C421 1.363 . S
C422 C428 1.428 . S
H423 C419 0.930 . S
H424 C421 0.929 . S
S425 N426 1.613 . S
S425 N427 1.610 . S
N426 S425 1.613 . S
N426 C429 1.350 . S
N427 S425 1.610 . S
N427 C428 1.351 . S
C428 C422 1.428 . S
C428 N427 1.351 . S
C428 C429 1.434 . S
C429 C420 1.429 . S
C429 N426 1.350 . S
C429 C428 1.434 . S
C430 C431 1.369 . S
C430 C432 1.417 1_455 S
C430 H434 0.944 1_455 S
C431 C430 1.369 . S
C431 C440 1.429 . S
C432 C430 1.417 1_655 S
C432 C433 1.363 . S
C432 H435 0.929 . S
C433 C432 1.363 . S
C433 C439 1.428 1_655 S
H434 C430 0.944 1_655 S
H435 C432 0.929 . S
S436 N437 1.613 . S
S436 N438 1.610 . S
N437 S436 1.613 . S
N437 C440 1.350 . S
N438 S436 1.610 . S
N438 C439 1.351 . S
C439 C433 1.428 1_455 S
C439 N438 1.351 . S
C439 C440 1.434 . S
C440 C431 1.429 . S
C440 N437 1.350 . S
C440 C439 1.434 . S
C441 C442 1.369 . S
C441 C443 1.425 1_554 S
C441 H445 0.930 . S
C442 C441 1.369 . S
C442 C451 1.429 1_565 S
C443 C441 1.425 1_556 S
C443 C444 1.362 1_565 S
C443 H446 0.924 . S
C444 C443 1.362 1_545 S
C444 C450 1.428 . S
H445 C441 0.930 . S
H446 C443 0.924 . S
S447 N448 1.613 . S
S447 N449 1.610 1_554 S
N448 S447 1.613 . S
N448 C451 1.350 . S
N449 S447 1.610 1_556 S
N449 C450 1.351 . S
C450 C444 1.428 . S
C450 N449 1.351 . S
C450 C451 1.434 1_556 S
C451 C442 1.429 1_545 S
C451 N448 1.350 . S
C451 C450 1.434 1_554 S
C452 C453 1.369 . S
C452 C454 1.419 . S
C452 H456 0.930 . S
C453 C452 1.369 . S
C453 C462 1.429 . S
C454 C452 1.419 . S
C454 C455 1.363 . S
C454 H457 0.929 . S
C455 C454 1.363 . S
C455 C461 1.428 . S
H456 C452 0.930 . S
H457 C454 0.929 . S
S458 N459 1.613 . S
S458 N460 1.610 . S
N459 S458 1.613 . S
N459 C462 1.350 . S
N460 S458 1.610 . S
N460 C461 1.351 . S
C461 C455 1.428 . S
C461 N460 1.351 . S
C461 C462 1.434 . S
C462 C453 1.429 . S
C462 N459 1.350 . S
C462 C461 1.434 . S
C463 C464 1.369 . S
C463 C465 1.419 . S
C463 H467 0.930 . S
C464 C463 1.369 . S
C464 C473 1.429 1_455 S
C465 C463 1.419 . S
C465 C466 1.363 1_455 S
C465 H468 0.929 . S
C466 C465 1.363 1_655 S
C466 C472 1.428 . S
H467 C463 0.930 . S
H468 C465 0.929 . S
S469 N470 1.613 . S
S469 N471 1.610 . S
N470 S469 1.613 . S
N470 C473 1.350 . S
N471 S469 1.610 . S
N471 C472 1.351 . S
C472 C466 1.428 . S
C472 N471 1.351 . S
C472 C473 1.434 . S
C473 C464 1.429 1_655 S
C473 N470 1.350 . S
C473 C472 1.434 . S
C474 C475 1.369 1_565 S
C474 C476 1.419 . S
C474 H478 0.930 . S
C475 C474 1.369 1_545 S
C475 C484 1.429 . S
C476 C474 1.419 . S
C476 C477 1.363 . S
C476 H479 0.929 . S
C477 C476 1.363 . S
C477 C483 1.428 1_565 S
H478 C474 0.930 . S
H479 C476 0.929 . S
S480 N481 1.613 . S
S480 N482 1.610 . S
N481 S480 1.613 . S
N481 C484 1.350 . S
N482 S480 1.610 . S
N482 C483 1.351 . S
C483 C477 1.428 1_545 S
C483 N482 1.351 . S
C483 C484 1.434 . S
C484 C475 1.429 . S
C484 N481 1.350 . S
C484 C483 1.434 . S
C485 C486 1.369 . S
C485 C487 1.419 . S
C485 H489 0.930 . S
C486 C485 1.369 . S
C486 C495 1.429 . S
C487 C485 1.419 . S
C487 C488 1.363 . S
C487 H490 0.929 . S
C488 C487 1.363 . S
C488 C494 1.428 . S
H489 C485 0.930 . S
H490 C487 0.929 . S
S491 N492 1.613 . S
S491 N493 1.610 . S
N492 S491 1.613 . S
N492 C495 1.350 . S
N493 S491 1.610 . S
N493 C494 1.351 . S
C494 C488 1.428 . S
C494 N493 1.351 . S
C494 C495 1.434 . S
C495 C486 1.429 . S
C495 N492 1.350 . S
C495 C494 1.434 . S
C496 C497 1.369 . S
C496 C498 1.419 1_655 S
C496 H500 0.930 . S
C497 C496 1.369 . S
C497 C506 1.429 . S
C498 C496 1.419 1_455 S
C498 C499 1.363 . S
C498 H501 0.929 . S
C499 C498 1.363 . S
C499 C505 1.428 . S
H500 C496 0.930 . S
H501 C498 0.929 . S
S502 N503 1.611 1_454 S
S502 N504 1.610 1_554 S
N503 S502 1.611 1_656 S
N503 C506 1.351 . S
N504 S502 1.610 1_556 S
N504 C505 1.351 . S
C505 C499 1.428 . S
C505 N504 1.351 . S
C505 C506 1.434 1_455 S
C506 C497 1.429 . S
C506 N503 1.351 . S
C506 C505 1.434 1_655 S
C507 C508 1.369 . S
C507 C509 1.419 1_455 S
C507 H511 0.930 . S
C508 C507 1.369 . S
C508 C517 1.429 . S
C509 C507 1.419 1_655 S
C509 C510 1.363 . S
C509 H512 0.929 . S
C510 C509 1.363 . S
C510 C516 1.428 . S
H511 C507 0.930 . S
H512 C509 0.929 . S
S513 N514 1.613 1_655 S
S513 N515 1.610 . S
N514 S513 1.613 1_455 S
N514 C517 1.350 . S
N515 S513 1.610 . S
N515 C516 1.351 . S
C516 C510 1.428 . S
C516 N515 1.351 . S
C516 C517 1.434 1_655 S
C517 C508 1.429 . S
C517 N514 1.350 . S
C517 C516 1.434 1_455 S
C518 C519 1.369 . S
C518 C520 1.419 1_565 S
C518 H522 0.930 . S
C519 C518 1.369 . S
C519 C528 1.429 . S
C520 C518 1.419 1_545 S
C520 C521 1.363 . S
C520 H523 0.929 . S
C521 C520 1.363 . S
C521 C527 1.428 . S
H522 C518 0.930 . S
H523 C520 0.929 . S
S524 N525 1.613 1_545 S
S524 N526 1.610 . S
N525 S524 1.613 1_565 S
N525 C528 1.350 . S
N526 S524 1.610 . S
N526 C527 1.351 . S
C527 C521 1.428 . S
C527 N526 1.351 . S
C527 C528 1.434 1_545 S
C528 C519 1.429 . S
C528 N525 1.350 . S
C528 C527 1.434 1_565 S
C529 C530 1.369 . S
C529 C531 1.419 . S
C529 H533 0.930 . S
C530 C529 1.369 . S
C530 C539 1.429 . S
C531 C529 1.419 . S
C531 C532 1.363 . S
C531 H534 0.929 . S
C532 C531 1.363 . S
C532 C538 1.428 . S
H533 C529 0.930 . S
H534 C531 0.929 . S
S535 N536 1.613 . S
S535 N537 1.610 . S
N536 S535 1.613 . S
N536 C539 1.350 . S
N537 S535 1.610 . S
N537 C538 1.351 . S
C538 C532 1.428 . S
C538 N537 1.351 . S
C538 C539 1.434 . S
C539 C530 1.429 . S
C539 N536 1.350 . S
C539 C538 1.434 . S
C540 C541 1.369 1_545 S
C540 C542 1.419 . S
C540 H544 0.930 . S
C541 C540 1.369 1_565 S
C541 C550 1.429 . S
C542 C540 1.419 . S
C542 C543 1.363 . S
C542 H545 0.929 . S
C543 C542 1.363 . S
C543 C549 1.428 1_545 S
H544 C540 0.930 . S
H545 C542 0.929 . S
S546 N547 1.613 . S
S546 N548 1.610 . S
N547 S546 1.613 . S
N547 C550 1.350 . S
N548 S546 1.610 . S
N548 C549 1.351 . S
C549 C543 1.428 1_565 S
C549 N548 1.351 . S
C549 C550 1.434 . S
C550 C541 1.429 . S
C550 N547 1.350 . S
C550 C549 1.434 . S
C551 C552 1.369 . S
C551 C553 1.419 . S
C551 H555 0.930 . S
C552 C551 1.369 . S
C552 C561 1.429 . S
C553 C551 1.419 . S
C553 C554 1.363 . S
C553 H556 0.929 . S
C554 C553 1.363 . S
C554 C560 1.428 . S
H555 C551 0.930 . S
H556 C553 0.929 . S
S557 N558 1.613 . S
S557 N559 1.610 . S
N558 S557 1.613 . S
N558 C561 1.350 . S
N559 S557 1.610 . S
N559 C560 1.351 . S
C560 C554 1.428 . S
C560 N559 1.351 . S
C560 C561 1.434 . S
C561 C552 1.429 . S
C561 N558 1.350 . S
C561 C560 1.434 . S
C562 C563 1.369 . S
C562 C564 1.419 . S
C562 H566 0.930 . S
C563 C562 1.369 . S
C563 C572 1.429 1_655 S
C564 C562 1.419 . S
C564 C565 1.363 1_655 S
C564 H567 0.929 . S
C565 C564 1.363 1_455 S
C565 C571 1.428 . S
H566 C562 0.930 . S
H567 C564 0.929 . S
S568 N569 1.613 . S
S568 N570 1.610 . S
N569 S568 1.613 . S
N569 C572 1.350 . S
N570 S568 1.610 . S
N570 C571 1.351 . S
C571 C565 1.428 . S
C571 N570 1.351 . S
C571 C572 1.434 . S
C572 C563 1.429 1_455 S
C572 N569 1.350 . S
C572 C571 1.434 . S
C573 C574 1.369 1_565 S
C573 C575 1.419 . S
C573 H577 0.930 . S
C574 C573 1.369 1_545 S
C574 C583 1.429 . S
C575 C573 1.419 . S
C575 C576 1.363 . S
C575 H578 0.929 . S
C576 C575 1.363 . S
C576 C582 1.428 1_565 S
H577 C573 0.930 . S
H578 C575 0.929 . S
S579 N580 1.613 . S
S579 N581 1.610 . S
N580 S579 1.613 . S
N580 C583 1.350 . S
N581 S579 1.610 . S
N581 C582 1.351 . S
C582 C576 1.428 1_545 S
C582 N581 1.351 . S
C582 C583 1.434 . S
C583 C574 1.429 . S
C583 N580 1.350 . S
C583 C582 1.434 . S
C584 C585 1.369 . S
C584 C586 1.419 . S
C584 H588 0.930 . S
C585 C584 1.369 . S
C585 C594 1.429 . S
C586 C584 1.419 . S
C586 C587 1.363 . S
C586 H589 0.929 . S
C587 C586 1.363 . S
C587 C593 1.428 . S
H588 C584 0.930 . S
H589 C586 0.929 . S
S590 N591 1.613 . S
S590 N592 1.610 . S
N591 S590 1.613 . S
N591 C594 1.350 . S
N592 S590 1.610 . S
N592 C593 1.351 . S
C593 C587 1.428 . S
C593 N592 1.351 . S
C593 C594 1.434 . S
C594 C585 1.429 . S
C594 N591 1.350 . S
C594 C593 1.434 . S
C595 C596 1.369 . S
C595 C597 1.419 1_455 S
C595 H599 0.930 . S
C596 C595 1.369 . S
C596 C605 1.429 . S
C597 C595 1.419 1_655 S
C597 C598 1.363 . S
C597 H600 0.929 . S
C598 C597 1.363 . S
C598 C604 1.428 . S
H599 C595 0.930 . S
H600 C597 0.929 . S
S601 N602 1.613 . S
S601 N603 1.610 1_455 S
N602 S601 1.613 . S
N602 C605 1.350 . S
N603 S601 1.610 1_655 S
N603 C604 1.351 . S
C604 C598 1.428 . S
C604 N603 1.351 . S
C604 C605 1.434 1_655 S
C605 C596 1.429 . S
C605 N602 1.350 . S
C605 C604 1.434 1_455 S
C606 C607 1.369 . S
C606 C608 1.419 . S
C606 H610 0.930 . S
C607 C606 1.369 . S
C607 C616 1.429 . S
C608 C606 1.419 . S
C608 C609 1.363 . S
C608 H611 0.929 . S
C609 C608 1.363 . S
C609 C615 1.428 . S
H610 C606 0.930 . S
H611 C608 0.929 . S
S612 N613 1.613 . S
S612 N614 1.610 . S
N613 S612 1.613 . S
N613 C616 1.350 . S
N614 S612 1.610 . S
N614 C615 1.351 . S
C615 C609 1.428 . S
C615 N614 1.351 . S
C615 C616 1.434 . S
C616 C607 1.429 . S
C616 N613 1.350 . S
C616 C615 1.434 . S
C617 C618 1.369 . S
C617 C619 1.419 . S
C617 H621 0.930 . S
C618 C617 1.369 . S
C618 C627 1.429 . S
C619 C617 1.419 . S
C619 C620 1.363 . S
C619 H622 0.929 . S
C620 C619 1.363 . S
C620 C626 1.428 . S
H621 C617 0.930 . S
H622 C619 0.929 . S
S623 N624 1.613 . S
S623 N625 1.610 . S
N624 S623 1.613 . S
N624 C627 1.350 . S
N625 S623 1.610 . S
N625 C626 1.351 . S
C626 C620 1.428 . S
C626 N625 1.351 . S
C626 C627 1.434 . S
C627 C618 1.429 . S
C627 N624 1.350 . S
C627 C626 1.434 . S
C628 C629 1.369 . S
C628 C630 1.419 . S
C628 H632 0.930 . S
C629 C628 1.369 . S
C629 C638 1.429 . S
C630 C628 1.419 . S
C630 C631 1.363 . S
C630 H633 0.929 . S
C631 C630 1.363 . S
C631 C637 1.428 . S
H632 C628 0.930 . S
H633 C630 0.929 . S
S634 N635 1.613 . S
S634 N636 1.610 . S
N635 S634 1.613 . S
N635 C638 1.350 . S
N636 S634 1.610 . S
N636 C637 1.351 . S
C637 C631 1.428 . S
C637 N636 1.351 . S
C637 C638 1.434 . S
C638 C629 1.429 . S
C638 N635 1.350 . S
C638 C637 1.434 . S
C639 C640 1.369 . S
C639 C641 1.419 . S
C639 H643 0.930 . S
C640 C639 1.369 . S
C640 C649 1.429 . S
C641 C639 1.419 . S
C641 C642 1.363 . S
C641 H644 0.929 . S
C642 C641 1.363 . S
C642 C648 1.428 . S
H643 C639 0.930 . S
H644 C641 0.929 . S
S645 N646 1.613 . S
S645 N647 1.610 . S
N646 S645 1.613 . S
N646 C649 1.350 . S
N647 S645 1.610 . S
N647 C648 1.351 . S
C648 C642 1.428 . S
C648 N647 1.351 . S
C648 C649 1.434 . S
C649 C640 1.429 . S
C649 N646 1.350 . S
C649 C648 1.434 . S
C650 C651 1.369 . S
C650 C652 1.419 . S
C650 H654 0.930 . S
C651 C650 1.369 . S
C651 C660 1.429 . S
C652 C650 1.419 . S
C652 C653 1.363 . S
C652 H655 0.929 . S
C653 C652 1.363 . S
C653 C659 1.428 . S
H654 C650 0.930 . S
H655 C652 0.929 . S
S656 N657 1.613 . S
S656 N658 1.610 . S
N657 S656 1.613 . S
N657 C660 1.350 . S
N658 S656 1.610 . S
N658 C659 1.351 . S
C659 C653 1.428 . S
C659 N658 1.351 . S
C659 C660 1.434 . S
C660 C651 1.429 . S
C660 N657 1.350 . S
C660 C659 1.434 . S
C661 C662 1.369 . S
C661 C663 1.419 . S
C661 H665 0.930 . S
C662 C661 1.369 . S
C662 C671 1.429 . S
C663 C661 1.419 . S
C663 C664 1.363 . S
C663 H666 0.929 . S
C664 C663 1.363 . S
C664 C670 1.428 . S
H665 C661 0.930 . S
H666 C663 0.929 . S
S667 N668 1.613 . S
S667 N669 1.610 . S
N668 S667 1.613 . S
N668 C671 1.350 . S
N669 S667 1.610 . S
N669 C670 1.351 . S
C670 C664 1.428 . S
C670 N669 1.351 . S
C670 C671 1.434 . S
C671 C662 1.429 . S
C671 N668 1.350 . S
C671 C670 1.434 . S
C277 C20 0.988 . S
C279 C204 0.989 . S
C288 C43 0.989 . S
C290 C227 0.988 . S
C299 C66 0.993 . S
C301 C250 0.992 . S
C310 C273 0.995 . S
C312 C89 0.990 . S
C321 C112 0.988 . S
C323 C158 0.989 . S
C332 C181 0.994 . S
C334 C135 0.988 . S
C343 C247 1.238 . S
C345 C17 1.238 . S
C354 C270 1.241 . S
C356 C40 1.239 . S
C365 C63 1.236 . S
C367 C155 1.238 . S
C376 C178 1.244 . S
C378 C86 1.244 . S
C387 C201 1.237 . S
C389 C109 1.238 . S
C398 C132 1.237 . S
C400 C224 1.239 . S
C409 C182 1.536 . S
C411 C21 1.533 . S
C420 C205 1.528 . S
C422 C44 1.532 . S
C431 C228 1.527 . S
C433 C67 1.531 . S
C442 C90 1.540 . S
C444 C251 1.536 . S
C453 C113 1.540 . S
C455 C274 1.537 . S
C464 C136 1.538 . S
C466 C159 1.534 . S
C475 C19 0.419 . S
C477 C88 0.400 . S
C486 C42 0.392 . S
C488 C111 0.409 . S
C497 C65 0.392 . S
C499 C134 0.403 . S
C508 C226 0.399 . S
C510 C157 0.397 . S
C519 C180 0.409 . S
C521 C249 0.419 . S
C530 C272 0.422 . S
C532 C203 0.405 . S
C541 C177 1.618 . S
C543 C16 1.616 . S
C552 C200 1.619 . S
C554 C39 1.617 . S
C563 C62 1.619 . S
C565 C223 1.620 . S
C574 C246 1.620 . S
C576 C85 1.618 . S
C585 C269 1.613 . S
C587 C108 1.616 . S
C596 C131 1.612 . S
C598 C154 1.614 . S
C607 C18 1.687 . S
C609 C248 1.680 . S
C618 C41 1.687 . S
C620 C271 1.680 . S
C629 C64 1.680 . S
C631 C156 1.686 . S
C640 C87 1.681 . S
C642 C179 1.685 . S
C651 C110 1.687 . S
C653 C202 1.680 . S
C662 C225 1.683 . S
C664 C133 1.684 . S
