# Generated by pormake.
# Topology qtz-e, (6)-cn, num edge types: 1
# Building blocks:
#     Node 0, Type 0, BuildingBlock: KUMBOL_clean_sbu_0, # of connection points: 6
#     Node 1, Type 0, BuildingBlock: KUMBOL_clean_sbu_0, # of connection points: 6
#     Node 2, Type 0, BuildingBlock: KUMBOL_clean_sbu_0, # of connection points: 6
#     Node 3, Type 0, BuildingBlock: KUMBOL_clean_sbu_0, # of connection points: 6
#     Node 4, Type 0, BuildingBlock: KUMBOL_clean_sbu_0, # of connection points: 6
#     Node 5, Type 0, BuildingBlock: KUMBOL_clean_sbu_0, # of connection points: 6
#     Edge 6, Type (0, 0), None
#     Edge 7, Type (0, 0), None
#     Edge 8, Type (0, 0), None
#     Edge 9, Type (0, 0), None
#     Edge 10, Type (0, 0), None
#     Edge 11, Type (0, 0), None
#     Edge 12, Type (0, 0), None
#     Edge 13, Type (0, 0), None
#     Edge 14, Type (0, 0), None
#     Edge 15, Type (0, 0), None
#     Edge 16, Type (0, 0), None
#     Edge 17, Type (0, 0), None
#     Edge 18, Type (0, 0), None
#     Edge 19, Type (0, 0), None
#     Edge 20, Type (0, 0), None
#     Edge 21, Type (0, 0), None
#     Edge 22, Type (0, 0), None
#     Edge 23, Type (0, 0), None
# Relax obj value: 0.082
# Max RMSD: 0.177
# Mean RMSD: 0.177
data_MOF--net-qtz-e--node1-KUMBOL_clean_sbu_0--edge1-none
_symmetry_space_group_name_H-M    P1
_symmetry_Int_Tables_number       1
_symmetry_cell_setting            triclinic
loop_
_symmetry_equiv_pos_as_xyz
'x, y, z'
_cell_length_a     14.141935
_cell_length_b     14.141491
_cell_length_c     29.512606
_cell_angle_alpha  89.999416
_cell_angle_beta   90.002371
_cell_angle_gamma 119.99863
loop_
_atom_site_label
_atom_site_type_symbol
_atom_site_fract_x
_atom_site_fract_y
_atom_site_fract_z
_atom_type_partial_charge
Gd0 Gd 0.19531 0.31667 -0.01067 0.0
Gd1 Gd 0.29204 0.5723 0.0527 0.0
C2 C 0.53667 0.9015 -0.00538 0.0
C3 C 0.62885 0.99688 0.06277 0.0
C4 C 0.50242 0.80414 0.06508 0.0
C5 C 0.47359 0.80816 0.02089 0.0
C6 C 0.58243 0.89921 0.08633 0.0
C7 C 0.61688 0.9958 0.01589 0.0
C8 C 0.51074 0.89926 0.94892 0.0
C9 C 0.41521 0.81353 0.9325 0.0
N10 N 0.38297 0.72245 0.00382 0.0
C11 C 0.34691 0.73099 0.96184 0.0
H12 H 0.26722 0.67334 0.94968 0.0
C13 C 0.4731 0.7042 0.13245 0.0
N14 N 0.44867 0.70914 0.088 0.0
C15 C 0.55545 0.79671 0.15399 0.0
C16 C 0.61281 0.89369 0.13051 0.0
H17 H 0.42448 0.63232 0.15259 0.0
H18 H 0.66696 0.07012 -0.00274 0.0
H19 H 0.26485 1.01028 0.03969 0.0
H20 H 0.5599 0.96527 0.92621 0.0
H21 H 0.39324 0.81351 0.89778 0.0
H22 H 0.68968 0.07025 0.07857 0.0
H23 H 0.95923 0.28685 0.92227 0.0
H24 H 0.99652 0.81801 0.10493 0.0
H25 H 0.17492 0.88773 0.09777 0.0
H26 H 0.66036 0.80374 0.00147 0.0
H27 H 0.5708 0.79682 0.18927 0.0
H28 H 0.67896 0.96382 0.14705 0.0
H29 H 0.7377 0.77095 0.08349 0.0
H30 H 0.77244 0.13876 0.9043 0.0
N31 N 0.14057 0.1144 0.01406 0.0
C32 C 1.02181 0.9001 0.10329 0.0
C33 C 0.13796 0.93476 0.08627 0.0
C34 C 0.94302 0.94243 0.08547 0.0
C35 C 0.0332 0.09899 0.0235 0.0
C36 C 0.19913 1.02094 0.04772 0.0
N37 N 1.00091 0.18846 0.96209 0.0
C38 C 0.95851 0.08839 0.97985 0.0
C39 C 0.82206 0.12133 0.92607 0.0
C40 C 0.77403 1.01067 0.93983 0.0
C41 C 0.93113 0.20646 0.9363 0.0
C42 C 0.82322 0.97902 0.9714 0.0
H43 H 0.69938 0.94909 0.92528 0.0
O44 O 0.16085 0.28347 0.91613 0.0
O45 O 0.2475 0.49079 0.98314 0.0
O46 O 0.16822 0.58781 0.01417 0.0
O47 O 0.07263 0.40418 -0.00722 0.0
O48 O 0.34284 0.43806 0.95174 0.0
O49 O 0.31041 0.30478 0.94328 0.0
O50 O 0.20788 0.54429 0.11814 0.0
O51 O 0.20086 0.38641 0.06313 0.0
O52 O 0.38415 0.40175 0.01906 0.0
O53 O 0.4538 0.58888 0.03359 0.0
O54 O 0.34078 0.48611 0.10199 0.0
O55 O 0.22525 0.67336 0.0763 0.0
C56 C 0.31791 0.51347 0.95135 0.0
C57 C 0.74399 0.86054 0.01023 0.0
C58 C 0.79692 0.84017 0.06564 0.0
C59 C 0.25408 0.28876 0.90654 0.0
C60 C 0.25746 0.21018 0.87307 0.0
C61 C 0.17391 0.1027 0.87541 0.0
C62 C 0.34273 0.23763 0.84009 0.0
C63 C 0.34614 0.15274 0.81359 0.0
C64 C 0.18181 1.02067 0.8529 0.0
C65 C 0.27625 0.0457 0.8287 0.0
C66 C 0.0792 0.50706 -0.00137 0.0
C67 C 0.25628 0.39104 0.09973 0.0
C68 C 0.20173 0.63175 0.11678 0.0
C69 C 0.25137 0.70865 0.15569 0.0
C70 C 0.33271 0.81522 0.14616 0.0
C71 C 0.22455 0.67813 0.20181 0.0
C72 C 0.28009 0.75538 0.23715 0.0
C73 C 0.38607 0.89015 0.18019 0.0
C74 C 0.36099 0.86125 0.22505 0.0
C75 C 0.47082 0.50675 0.02566 0.0
H76 H 0.10995 0.08243 0.8994 0.0
H77 H 0.39918 0.3228 0.83347 0.0
H78 H 0.11882 0.93639 0.85742 0.0
H79 H 0.28813 0.97915 0.81898 0.0
H80 H 0.35906 0.83887 0.11204 0.0
H81 H 0.15965 0.59654 0.21009 0.0
H82 H 0.44666 0.97156 0.17159 0.0
H83 H 0.4025 0.92429 0.24978 0.0
Gd84 Gd 0.90004 0.18499 0.32264 0.0
Gd85 Gd 0.74093 0.28156 0.38606 0.0
C86 C 0.65704 0.52655 0.32788 0.0
C87 C 0.65433 0.6192 0.39599 0.0
C88 C 0.72003 0.49229 0.39838 0.0
C89 C 0.68713 0.46341 0.35419 0.0
C90 C 0.70529 0.57256 0.41958 0.0
C91 C 0.64304 0.60683 0.34911 0.0
C92 C 0.6333 0.50057 0.28219 0.0
C93 C 0.62319 0.40487 0.26582 0.0
N94 N 0.6819 0.3726 0.33717 0.0
C95 C 0.6372 0.33649 0.2952 0.0
H96 H 0.61495 0.25671 0.28308 0.0
C97 C 0.79003 0.46257 0.46585 0.0
N98 N 0.7609 0.43828 0.42136 0.0
C99 C 0.78006 0.54506 0.48735 0.0
C100 C 0.74099 0.6028 0.46379 0.0
H101 H 0.8128 0.41367 0.48605 0.0
H102 H 0.61889 0.65693 0.33042 0.0
H103 H 0.27483 0.25527 0.37458 0.0
H104 H 0.61656 0.54979 0.25947 0.0
H105 H 0.60111 0.3828 0.23111 0.0
H106 H 0.64184 0.68008 0.41177 0.0
H107 H 0.69379 0.94857 0.25552 0.0
H108 H 0.19644 0.98531 0.43871 0.0
H109 H 0.30557 0.16421 0.43291 0.0
H110 H 0.87832 0.65034 0.3346 0.0
H111 H 0.79492 0.56016 0.52266 0.0
H112 H 0.73718 0.66907 0.48031 0.0
H113 H 0.98678 0.72766 0.41708 0.0
H114 H 0.65537 0.76186 0.23753 0.0
N115 N 0.04779 0.13055 0.34732 0.0
C116 C 0.13988 1.01088 0.43744 0.0
C117 C 0.22204 0.12729 0.42083 0.0
C118 C 1.01954 0.93239 0.41888 0.0
C119 C 0.95557 0.02314 0.35627 0.0
C120 C 0.1985 0.18885 0.38194 0.0
N121 N 0.83472 0.99093 0.29485 0.0
C122 C 0.89306 0.94893 0.31233 0.0
C123 C 0.72289 0.81183 0.25903 0.0
C124 C 0.78588 0.76404 0.27263 0.0
C125 C 0.74664 0.92085 0.26928 0.0
C126 C 0.86722 0.81356 0.30398 0.0
H127 H 0.77239 0.68907 0.25826 0.0
O128 O 0.89877 0.15103 0.24939 0.0
O129 O 0.77803 0.2371 0.3165 0.0
O130 O 0.60179 0.15766 0.34748 0.0
O131 O 0.68989 0.06208 0.32613 0.0
O132 O 0.92606 0.33253 0.28509 0.0
O133 O 1.02724 0.30022 0.27674 0.0
O134 O 0.68432 0.19676 0.45138 0.0
O135 O 0.83581 0.1906 0.39649 0.0
O136 O 1.00363 0.37393 0.35225 0.0
O137 O 0.88614 0.44342 0.36704 0.0
O138 O 0.87544 0.33017 0.43556 0.0
O139 O 0.57312 0.21516 0.40961 0.0
C140 C 0.8257 0.30753 0.28471 0.0
C141 C 0.9051 0.734 0.3433 0.0
C142 C 0.97652 0.78655 0.39911 0.0
C143 C 0.98688 0.24423 0.23992 0.0
C144 C 0.06887 0.24753 0.2065 0.0
C145 C 0.09371 0.16468 0.20934 0.0
C146 C 0.1259 0.33209 0.17317 0.0
C147 C 0.21455 0.33575 0.14685 0.0
C148 C 0.18347 0.1725 0.18671 0.0
C149 C 0.25233 0.2666 0.16222 0.0
C150 C 0.59358 0.06863 0.33198 0.0
C151 C 0.88623 0.24582 0.43322 0.0
C152 C 0.59097 0.1912 0.45006 0.0
C153 C 0.564 0.2409 0.48903 0.0
C154 C 0.53914 0.32253 0.47958 0.0
C155 C 0.5676 0.2139 0.53514 0.0
C156 C 0.54608 0.26951 0.57052 0.0
C157 C 0.51767 0.37588 0.51363 0.0
C158 C 0.52131 0.35057 0.55846 0.0
C159 C 0.98525 0.46051 0.35901 0.0
H160 H 0.05082 0.10142 0.23372 0.0
H161 H 0.09643 0.38779 0.16621 0.0
H162 H 0.20514 0.10983 0.19138 0.0
H163 H 0.33089 0.2788 0.15251 0.0
H164 H 0.5422 0.34919 0.44549 0.0
H165 H 0.58409 0.14884 0.54337 0.0
H166 H 0.49709 0.43668 0.50507 0.0
H167 H 0.49986 0.3921 0.58322 0.0
Gd168 Gd 0.73639 0.8893 0.656 0.0
Gd169 Gd 0.48076 0.73042 0.71937 0.0
C170 C 0.15156 0.6458 0.66126 0.0
C171 C 0.05613 0.6425 0.72941 0.0
C172 C 0.24889 0.70889 0.73173 0.0
C173 C 0.24489 0.67606 0.68754 0.0
C174 C 0.1538 0.69377 0.75297 0.0
C175 C 0.05724 0.63169 0.68253 0.0
C176 C 0.15381 0.62211 0.61556 0.0
C177 C 0.23956 0.61233 0.59915 0.0
N178 N 0.33062 0.67118 0.67048 0.0
C179 C 0.3221 0.62659 0.6285 0.0
H180 H 0.37975 0.60454 0.61635 0.0
C181 C 0.34881 0.77955 0.7991 0.0
N182 N 0.34389 0.75017 0.75465 0.0
C183 C 0.25627 0.76932 0.82064 0.0
C184 C 0.15929 0.72964 0.79715 0.0
H185 H 0.42071 0.80286 0.81924 0.0
H186 H 0.98293 0.60746 0.66389 0.0
H187 H 0.04292 0.26533 0.70623 0.0
H188 H 0.08782 0.60527 0.59285 0.0
H189 H 0.2396 0.59039 0.56443 0.0
H190 H 0.98274 0.62993 0.74519 0.0
H191 H 0.76622 0.68307 0.58894 0.0
H192 H 0.23525 0.18945 0.77159 0.0
H193 H 0.16553 0.2981 0.76429 0.0
H194 H 0.24935 0.8673 0.66815 0.0
H195 H 0.25615 0.78455 0.85591 0.0
H196 H 0.08914 0.72563 0.8137 0.0
H197 H 0.28232 0.97764 0.75012 0.0
H198 H 0.91429 0.64435 0.57098 0.0
N199 N 0.93867 0.03684 0.68073 0.0
C200 C 0.15317 0.13265 0.76989 0.0
C201 C 0.11847 0.21407 0.75284 0.0
C202 C 0.11082 1.01147 0.75213 0.0
C203 C 0.95411 0.9449 0.69022 0.0
C204 C 0.0322 0.18896 0.71432 0.0
N205 N 0.86457 0.82306 0.62881 0.0
C206 C 0.96463 0.88069 0.64659 0.0
C207 C 0.93171 0.71138 0.59276 0.0
C208 C 0.04237 0.77399 0.60653 0.0
C209 C 0.84659 0.73533 0.60299 0.0
C210 C 0.07399 0.85477 0.63812 0.0
H211 H 0.10394 0.76093 0.59198 0.0
O212 O 0.76956 0.88798 0.5828 0.0
O213 O 0.56227 0.7674 0.64981 0.0
O214 O 0.46525 0.59108 0.68086 0.0
O215 O 0.64886 0.67911 0.65945 0.0
O216 O 0.61501 0.91547 0.6184 0.0
O217 O 0.74828 1.01627 0.60993 0.0
O218 O 0.50873 0.67435 0.78484 0.0
O219 O 0.66666 0.82512 0.72979 0.0
O220 O 0.65134 0.99308 0.68573 0.0
O221 O 0.4642 0.87562 0.70025 0.0
O222 O 0.56698 0.86539 0.76865 0.0
O223 O 0.3798 0.56256 0.74296 0.0
C224 C 0.5396 0.81513 0.61801 0.0
C225 C 0.19257 0.89414 0.67692 0.0
C226 C 0.21305 0.96758 0.7323 0.0
C227 C 0.76429 0.97592 0.5732 0.0
C228 C 0.84287 0.05785 0.53972 0.0
C229 C 0.95034 0.08175 0.54208 0.0
C230 C 0.81544 0.11566 0.50673 0.0
C231 C 0.90037 0.20397 0.48025 0.0
C232 C 0.0324 0.17169 0.51958 0.0
C233 C 1.00738 0.24111 0.49538 0.0
C234 C 0.54599 0.58282 0.6653 0.0
C235 C 0.66205 0.87594 0.76639 0.0
C236 C 0.42135 0.58069 0.78346 0.0
C237 C 0.3444 0.55337 0.82235 0.0
C238 C 0.23783 0.52808 0.8128 0.0
C239 C 0.37489 0.55709 0.86847 0.0
C240 C 0.29759 0.53533 0.90379 0.0
C241 C 0.16286 0.5065 0.84681 0.0
C242 C 0.19172 0.51033 0.89168 0.0
C243 C 0.54633 0.97476 0.69232 0.0
H244 H 0.97058 0.03805 0.56608 0.0
H245 H 0.73028 0.08694 0.50009 0.0
H246 H 0.11666 0.19296 0.52412 0.0
H247 H 0.07394 0.31955 0.48567 0.0
H248 H 0.2142 0.53075 0.77866 0.0
H249 H 0.45649 0.57385 0.87677 0.0
H250 H 0.08145 0.48565 0.83818 0.0
H251 H 0.12867 0.4888 0.91641 0.0
Gd252 Gd 0.86794 0.72561 -0.01069 0.0
Gd253 Gd 0.77138 0.46992 0.05273 0.0
C254 C 0.52637 0.14105 -0.00546 0.0
C255 C 0.43374 0.04569 0.06265 0.0
C256 C 0.56066 0.23828 0.06505 0.0
C257 C 0.58952 0.23427 0.02086 0.0
C258 C 0.4804 0.14328 0.08624 0.0
C259 C 0.44609 0.04677 0.01577 0.0
C260 C 0.55234 0.1433 0.94885 0.0
C261 C 0.64803 0.22888 0.93248 0.0
N262 N 0.68033 0.31985 0.00383 0.0
C263 C 0.71643 0.31126 0.96187 0.0
H264 H 0.7962 0.36878 0.94975 0.0
C265 C 0.59041 0.33799 0.13252 0.0
N266 N 0.61468 0.33316 0.08803 0.0
C267 C 0.50794 0.24552 0.15403 0.0
C268 C 0.45019 0.14872 0.13046 0.0
H269 H 0.63933 0.40966 0.15272 0.0
H270 H 0.39598 0.97253 -0.00292 0.0
H271 H 0.79768 0.03016 0.04123 0.0
H272 H 0.50311 0.07735 0.92612 0.0
H273 H 0.6701 0.22887 0.89777 0.0
H274 H 0.37287 0.9723 0.07843 0.0
H275 H 0.1043 0.75578 0.92216 0.0
H276 H 0.06762 0.2217 0.10538 0.0
H277 H 0.88874 0.15195 0.09957 0.0
H278 H 0.40257 0.23851 0.00126 0.0
H279 H 0.49288 0.24526 0.18934 0.0
H280 H 0.38393 0.07863 0.14698 0.0
H281 H 0.32527 0.26967 0.08374 0.0
H282 H 0.291 0.90406 0.90416 0.0
N283 N 0.92238 0.9278 0.01399 0.0
C284 C 0.04205 0.13957 0.1041 0.0
C285 C 0.92565 0.10533 0.08749 0.0
C286 C 0.12054 0.09771 0.08555 0.0
C287 C 1.02979 0.94298 0.02295 0.0
C288 C 0.86409 1.02022 0.04861 0.0
N289 N 0.06197 0.85433 0.96151 0.0
C290 C 0.10398 0.95466 0.979 0.0
C291 C 0.24105 0.92161 0.92568 0.0
C292 C 0.28885 0.03238 0.93929 0.0
C293 C 0.13204 0.83634 0.93593 0.0
C294 C 0.23935 0.06419 0.97065 0.0
H295 H 0.36382 0.09385 0.92492 0.0
O296 O 0.9019 0.75828 0.91606 0.0
O297 O 0.81582 0.55148 0.98317 0.0
O298 O 0.89527 0.45468 0.01414 0.0
O299 O 0.99086 0.63838 -0.0072 0.0
O300 O 0.7204 0.6041 0.95175 0.0
O301 O 0.75273 0.73762 0.9434 0.0
O302 O 0.8562 0.49811 0.11804 0.0
O303 O 0.86234 0.65575 0.06316 0.0
O304 O 0.67899 0.64025 0.01891 0.0
O305 O 0.60952 0.45327 0.0337 0.0
O306 O 0.72278 0.55582 0.10222 0.0
O307 O 0.83781 0.36852 0.07626 0.0
C308 C 0.7454 0.52874 0.95138 0.0
C309 C 0.31892 0.18163 0.00997 0.0
C310 C 0.26637 0.20051 0.06577 0.0
C311 C 0.80872 0.75323 0.90658 0.0
C312 C 0.80546 0.83194 0.87317 0.0
C313 C 0.88829 0.93963 0.87603 0.0
C314 C 0.72095 0.80443 0.83981 0.0
C315 C 0.71729 0.88945 0.81351 0.0
C316 C 0.88048 0.02159 0.85341 0.0
C317 C 0.7864 0.99636 0.8289 0.0
C318 C 0.98431 0.53551 -0.00135 0.0
C319 C 0.80712 0.65096 0.09989 0.0
C320 C 0.86177 0.41033 0.11671 0.0
C321 C 0.81209 0.33365 0.15569 0.0
C322 C 0.73048 0.22716 0.14624 0.0
C323 C 0.83908 0.36428 0.20179 0.0
C324 C 0.78347 0.28714 0.23717 0.0
C325 C 0.67714 0.15233 0.18029 0.0
C326 C 0.70243 0.18129 0.22512 0.0
C327 C 0.59242 0.5353 0.02567 0.0
H328 H 0.95152 0.95999 0.90044 0.0
H329 H 0.66529 0.71927 0.83283 0.0
H330 H 0.94314 0.10593 0.85809 0.0
H331 H 0.7742 0.06272 0.81919 0.0
H332 H 0.70382 0.20356 0.11215 0.0
H333 H 0.90411 0.44583 0.21003 0.0
H334 H 0.61636 0.07096 0.17173 0.0
H335 H 0.66091 0.11834 0.24988 0.0
Gd336 Gd 0.16373 0.8576 0.32266 0.0
Gd337 Gd 0.32265 0.7609 0.38603 0.0
C338 C 0.40719 0.51625 0.32794 0.0
C339 C 0.41045 0.42409 0.39609 0.0
C340 C 0.34413 0.55052 0.3984 0.0
C341 C 0.37694 0.57933 0.35421 0.0
C342 C 0.35922 0.47052 0.41965 0.0
C343 C 0.4213 0.43604 0.3492 0.0
C344 C 0.43086 0.54218 0.28223 0.0
C345 C 0.44062 0.63769 0.26581 0.0
N346 N 0.38181 0.66993 0.33714 0.0
C347 C 0.42638 0.70599 0.29516 0.0
H348 H 0.44844 0.78569 0.28301 0.0
C349 C 0.27355 0.57985 0.46578 0.0
N350 N 0.30289 0.60427 0.42133 0.0
C351 C 0.28375 0.49751 0.48732 0.0
C352 C 0.32336 0.44015 0.46383 0.0
H353 H 0.25029 0.62847 0.48592 0.0
H354 H 0.44551 0.38595 0.33057 0.0
H355 H 0.78782 0.78807 0.37302 0.0
H356 H 0.4477 0.49302 0.25952 0.0
H357 H 0.46257 0.65967 0.23109 0.0
H358 H 0.42301 0.36326 0.41187 0.0
H359 H 0.36994 0.09367 0.25559 0.0
H360 H 0.86385 0.05641 0.43827 0.0
H361 H 0.75519 0.87801 0.43109 0.0
H362 H 0.18574 0.39257 0.33479 0.0
H363 H 0.26853 0.48217 0.5226 0.0
H364 H 0.32735 0.374 0.48037 0.0
H365 H 0.07563 0.31526 0.41681 0.0
H366 H 0.40863 0.28047 0.23762 0.0
N367 N 1.0162 0.91235 0.34739 0.0
C368 C 0.92066 0.03112 0.43662 0.0
C369 C 0.83918 0.91497 0.4196 0.0
C370 C 0.04178 0.10991 0.41879 0.0
C371 C 0.10816 1.01973 0.35684 0.0
C372 C 0.86419 0.85379 0.38105 0.0
N373 N 0.22991 0.05201 0.29542 0.0
C374 C 0.17224 0.09441 0.31319 0.0
C375 C 0.34159 0.23084 0.25939 0.0
C376 C 0.27897 0.27888 0.27316 0.0
C377 C 0.31766 0.12177 0.26962 0.0
C378 C 0.19816 0.2297 0.30473 0.0
H379 H 0.29204 0.35353 0.25861 0.0
O380 O 0.16502 0.89208 0.24946 0.0
O381 O 0.28571 0.80547 0.31646 0.0
O382 O 0.46198 0.88471 0.34751 0.0
O383 O 0.37393 0.9803 0.32611 0.0
O384 O 0.13743 0.70998 0.28506 0.0
O385 O 0.03674 0.74253 0.2766 0.0
O386 O 0.37881 0.84507 0.45147 0.0
O387 O 0.22793 0.85207 0.39645 0.0
O388 O 0.05998 0.66878 0.3524 0.0
O389 O 0.17746 0.59912 0.36692 0.0
O390 O 0.18773 0.71216 0.43533 0.0
O391 O 0.4905 0.82771 0.40962 0.0
C392 C 0.23781 0.73506 0.28469 0.0
C393 C 0.1589 0.30894 0.34356 0.0
C394 C 0.08562 0.25602 0.39897 0.0
C395 C 0.07707 0.79887 0.23986 0.0
C396 C 0.99512 0.79553 0.20639 0.0
C397 C 0.97118 0.87907 0.20878 0.0
C398 C 0.93732 0.71031 0.17339 0.0
C399 C 0.849 0.70693 0.14692 0.0
C400 C 0.88125 0.87121 0.18627 0.0
C401 C 0.81185 0.77679 0.16206 0.0
C402 C 0.47023 0.97373 0.33198 0.0
C403 C 0.17716 0.79666 0.43306 0.0
C404 C 0.47241 0.85124 0.45011 0.0
C405 C 0.49971 0.80163 0.48901 0.0
C406 C 0.52496 0.7203 0.47948 0.0
C407 C 0.496 0.82845 0.53513 0.0
C408 C 0.51775 0.77292 0.57046 0.0
C409 C 0.54655 0.66695 0.51351 0.0
C410 C 0.54274 0.69203 0.55837 0.0
C411 C 0.07831 0.58211 0.35899 0.0
H412 H 1.01485 0.94298 0.23279 0.0
H413 H 0.96606 0.6539 0.16674 0.0
H414 H 0.85996 0.93419 0.19082 0.0
H415 H 0.73341 0.76492 0.15234 0.0
H416 H 0.52224 0.69393 0.44536 0.0
H417 H 0.47926 0.89331 0.54341 0.0
H418 H 0.5674 0.60637 0.5049 0.0
H419 H 0.56428 0.65054 0.58311 0.0
Gd420 Gd 0.32744 0.15299 0.65597 0.0
Gd421 Gd 0.5831 0.31212 0.71939 0.0
C422 C 0.91194 0.39594 0.66123 0.0
C423 C 1.00727 0.39859 0.72933 0.0
C424 C 0.81469 0.33297 0.73172 0.0
C425 C 0.81871 0.36585 0.68753 0.0
C426 C 0.90968 0.34768 0.75292 0.0
C427 C 1.00621 0.40993 0.68246 0.0
C428 C 0.90971 0.41967 0.61553 0.0
C429 C 0.82412 0.42976 0.59915 0.0
N430 N 0.73313 0.37107 0.67049 0.0
C431 C 0.74172 0.41574 0.62852 0.0
H432 H 0.68421 0.438 0.6164 0.0
C433 C 0.715 0.26309 0.79921 0.0
N434 N 0.71982 0.29216 0.75471 0.0
C435 C 0.80745 0.27304 0.82071 0.0
C436 C 0.90422 0.31202 0.79714 0.0
H437 H 0.64335 0.24041 0.81941 0.0
H438 H 0.08045 0.43407 0.66377 0.0
H439 H 1.02315 0.77833 0.70804 0.0
H440 H 0.97568 0.43642 0.59282 0.0
H441 H 0.82414 0.45185 0.56444 0.0
H442 H 0.08064 0.41109 0.74513 0.0
H443 H 0.29723 0.35922 0.58884 0.0
H444 H 0.8316 0.85688 0.7721 0.0
H445 H 0.90138 0.74771 0.76638 0.0
H446 H 0.81454 0.17471 0.66791 0.0
H447 H 0.80771 0.25827 0.85603 0.0
H448 H 0.9743 0.31582 0.81366 0.0
H449 H 0.78353 0.06638 0.75043 0.0
H450 H 0.14894 0.39763 0.57084 0.0
N451 N 0.12528 1.00525 0.68065 0.0
C452 C 0.91373 0.91342 0.77083 0.0
C453 C 0.94795 0.83121 0.75425 0.0
C454 C 0.95553 0.0337 0.75222 0.0
C455 C 0.1101 0.09749 0.68957 0.0
C456 C 0.03297 0.85464 0.71535 0.0
N457 N 0.19867 0.21825 0.62814 0.0
C458 C 0.09833 0.15989 0.6456 0.0
C459 C 0.13138 0.33009 0.59233 0.0
C460 C 1.0206 0.26709 0.60592 0.0
C461 C 0.21666 0.30635 0.60258 0.0
C462 C 0.98877 0.18571 0.63726 0.0
H463 H 0.95913 0.2806 0.59156 0.0
O464 O 0.29472 0.15423 0.58271 0.0
O465 O 0.50155 0.27506 0.64982 0.0
O466 O 0.59837 0.45125 0.68079 0.0
O467 O 0.41466 0.36315 0.65946 0.0
O468 O 0.44887 0.1268 0.61841 0.0
O469 O 0.31543 0.02575 0.61007 0.0
O470 O 0.55489 0.36892 0.78466 0.0
O471 O 0.39726 0.21727 0.72983 0.0
O472 O 0.41283 0.04943 0.68557 0.0
O473 O 0.59979 0.16694 0.70037 0.0
O474 O 0.49728 0.17758 0.76888 0.0
O475 O 0.68464 0.47993 0.74291 0.0
C476 C 0.52413 0.2272 0.61805 0.0
C477 C 0.87142 0.14794 0.67662 0.0
C478 C 0.85268 0.07666 0.73245 0.0
C479 C 0.2998 0.0661 0.57325 0.0
C480 C 0.2211 0.9841 0.53984 0.0
C481 C 0.1134 0.95921 0.5427 0.0
C482 C 0.24862 0.92708 0.50649 0.0
C483 C 0.16362 0.83841 0.48018 0.0
C484 C 1.03146 0.86944 0.52007 0.0
C485 C 0.05671 0.80061 0.49557 0.0
C486 C 0.51753 0.45947 0.66531 0.0
C487 C 0.40223 0.16699 0.76657 0.0
C488 C 0.64278 0.46218 0.78335 0.0
C489 C 0.71939 0.4891 0.82234 0.0
C490 C 0.82588 0.51395 0.81291 0.0
C491 C 0.68872 0.48544 0.86844 0.0
C492 C 0.76581 0.50691 0.90383 0.0
C493 C 0.90067 0.53538 0.84698 0.0
C494 C 0.87166 0.53169 0.89181 0.0
C495 C 0.51778 0.06781 0.69233 0.0
H496 H 0.09302 1.00206 0.5671 0.0
H497 H 0.33378 0.95658 0.49952 0.0
H498 H 0.94712 0.84776 0.52474 0.0
H499 H 0.99036 0.72204 0.48585 0.0
H500 H 0.84952 0.51089 0.77883 0.0
H501 H 0.60717 0.46895 0.87667 0.0
H502 H 0.98204 0.55595 0.83845 0.0
H503 H 0.93459 0.55308 0.91658 0.0
loop_
_geom_bond_atom_site_label_1
_geom_bond_atom_site_label_2
_geom_bond_distance
_geom_bond_site_symmetry_2
_ccdc_geom_bond_type
Gd0 N31 2.661 1_556 S
Gd0 N37 2.601 1_456 S
Gd0 O44 2.545 . S
Gd0 O45 2.606 . S
Gd0 O47 2.429 . S
Gd0 O48 2.545 . S
Gd0 O49 2.412 . S
Gd0 O51 2.362 1_556 S
Gd0 O52 2.324 1_556 S
Gd0 C59 2.828 . S
Gd1 N10 2.661 . S
Gd1 N14 2.601 . S
Gd1 O45 2.362 1_554 S
Gd1 O46 2.324 . S
Gd1 O50 2.545 . S
Gd1 O51 2.606 . S
Gd1 O53 2.429 . S
Gd1 O54 2.545 . S
Gd1 O55 2.412 . S
Gd1 C68 2.828 . S
C2 C5 1.417 1_556 S
C2 C7 1.431 . S
C2 C8 1.412 . S
C3 C6 1.437 . S
C3 C7 1.317 1_554 S
C3 H22 0.929 1_565 S
C4 C5 1.426 . S
C4 C6 1.413 . S
C4 N14 1.359 . S
C5 C2 1.417 1_554 S
C5 C4 1.426 . S
C5 N10 1.350 . S
C6 C3 1.437 . S
C6 C4 1.413 . S
C6 C16 1.391 . S
C7 C2 1.431 . S
C7 C3 1.317 1_556 S
C7 H18 0.930 1_565 S
C8 C2 1.412 . S
C8 C9 1.355 . S
C8 H20 0.930 . S
C9 C8 1.355 . S
C9 C11 1.402 . S
C9 H21 0.930 . S
N10 Gd1 2.661 . S
N10 C5 1.350 . S
N10 C11 1.307 1_554 S
C11 C9 1.402 . S
C11 N10 1.307 1_556 S
C11 H12 0.930 . S
H12 C11 0.930 . S
C13 N14 1.334 . S
C13 C15 1.394 . S
C13 H17 0.930 . S
N14 Gd1 2.601 . S
N14 C4 1.359 . S
N14 C13 1.334 . S
C15 C13 1.394 . S
C15 C16 1.359 . S
C15 H27 0.930 . S
C16 C6 1.391 . S
C16 C15 1.359 . S
C16 H28 0.929 . S
H17 C13 0.930 . S
H18 C7 0.930 1_545 S
H19 C36 0.930 . S
H20 C8 0.930 . S
H21 C9 0.930 . S
H22 C3 0.929 1_545 S
H23 C41 0.930 . S
H24 C32 0.930 . S
H25 C33 0.930 . S
H26 C57 0.929 . S
H27 C15 0.930 . S
H28 C16 0.929 . S
H29 C58 0.930 . S
H30 C39 0.930 . S
N31 Gd0 2.661 1_554 S
N31 C35 1.350 . S
N31 C36 1.307 . S
C32 H24 0.930 . S
C32 C33 1.355 1_565 S
C32 C34 1.412 1_455 S
C33 H25 0.930 . S
C33 C32 1.355 1_545 S
C33 C36 1.402 . S
C34 C32 1.412 1_655 S
C34 C35 1.417 1_665 S
C34 C58 1.431 . S
C35 N31 1.350 . S
C35 C34 1.417 1_445 S
C35 C38 1.426 1_455 S
C36 H19 0.930 . S
C36 N31 1.307 . S
C36 C33 1.402 . S
N37 Gd0 2.601 1_654 S
N37 C38 1.359 . S
N37 C41 1.334 1_554 S
C38 C35 1.426 1_655 S
C38 N37 1.359 . S
C38 C42 1.413 1_545 S
C39 H30 0.930 . S
C39 C40 1.359 1_546 S
C39 C41 1.394 . S
C40 C39 1.359 1_564 S
C40 C42 1.391 . S
C40 H43 0.929 1_554 S
C41 H23 0.930 . S
C41 N37 1.334 1_556 S
C41 C39 1.394 . S
C42 C38 1.413 1_565 S
C42 C40 1.391 . S
C42 C57 1.437 . S
H43 C40 0.929 1_556 S
O44 Gd0 2.545 . S
O44 C59 1.258 . S
O45 Gd0 2.606 . S
O45 Gd1 2.362 1_556 S
O45 C56 1.284 . S
O46 Gd1 2.324 . S
O46 C66 1.254 . S
O47 Gd0 2.429 . S
O47 C66 1.268 1_556 S
O48 Gd0 2.545 . S
O48 C56 1.250 . S
O49 Gd0 2.412 . S
O49 C59 1.252 . S
O50 Gd1 2.545 . S
O50 C68 1.258 . S
O51 Gd0 2.362 1_554 S
O51 Gd1 2.606 . S
O51 C67 1.284 . S
O52 Gd0 2.324 1_554 S
O52 C75 1.254 . S
O53 Gd1 2.429 . S
O53 C75 1.268 . S
O54 Gd1 2.545 . S
O54 C67 1.250 . S
O55 Gd1 2.412 . S
O55 C68 1.252 . S
C56 O45 1.284 . S
C56 O48 1.250 . S
C57 H26 0.929 . S
C57 C42 1.437 . S
C57 C58 1.317 . S
C58 H29 0.930 . S
C58 C34 1.431 . S
C58 C57 1.317 . S
C59 Gd0 2.828 . S
C59 O44 1.258 . S
C59 O49 1.252 . S
C59 C60 1.497 . S
C60 C59 1.497 . S
C60 C61 1.395 . S
C60 C62 1.380 . S
C61 C60 1.395 . S
C61 C64 1.398 . S
C61 H76 0.930 1_455 S
C62 C60 1.380 . S
C62 C63 1.391 . S
C62 H77 0.930 . S
C63 C62 1.391 . S
C63 C65 1.387 . S
C64 C61 1.398 . S
C64 C65 1.380 . S
C64 H78 0.930 1_445 S
C65 C63 1.387 . S
C65 C64 1.380 . S
C65 H79 0.930 1_545 S
C66 O46 1.254 . S
C66 O47 1.268 1_554 S
C67 O51 1.284 . S
C67 O54 1.250 . S
C68 Gd1 2.828 . S
C68 O50 1.258 . S
C68 O55 1.252 . S
C68 C69 1.497 . S
C69 C68 1.497 . S
C69 C70 1.395 . S
C69 C71 1.380 . S
C70 C69 1.395 . S
C70 C73 1.398 . S
C70 H80 0.930 . S
C71 C69 1.380 . S
C71 C72 1.391 . S
C71 H81 0.930 . S
C72 C71 1.391 . S
C72 C74 1.387 . S
C73 C70 1.398 . S
C73 C74 1.380 . S
C73 H82 0.930 . S
C74 C72 1.387 . S
C74 C73 1.380 . S
C74 H83 0.930 . S
C75 O52 1.254 . S
C75 O53 1.268 . S
H76 C61 0.930 1_655 S
H77 C62 0.930 . S
H78 C64 0.930 1_665 S
H79 C65 0.930 1_565 S
H80 C70 0.930 . S
H81 C71 0.930 . S
H82 C73 0.930 . S
H83 C74 0.930 . S
Gd84 N115 2.661 . S
Gd84 N121 2.601 1_545 S
Gd84 O128 2.545 . S
Gd84 O129 2.606 . S
Gd84 O131 2.429 . S
Gd84 O132 2.545 . S
Gd84 O133 2.412 1_655 S
Gd84 O135 2.362 . S
Gd84 O136 2.324 . S
Gd84 C143 2.828 . S
Gd85 N94 2.661 . S
Gd85 N98 2.601 . S
Gd85 O129 2.362 . S
Gd85 O130 2.324 . S
Gd85 O134 2.545 . S
Gd85 O135 2.606 . S
Gd85 O137 2.429 . S
Gd85 O138 2.545 . S
Gd85 O139 2.412 . S
Gd85 C152 2.828 . S
C86 C89 1.417 . S
C86 C91 1.431 . S
C86 C92 1.412 . S
C87 C90 1.437 . S
C87 C91 1.317 . S
C87 H106 0.929 . S
C88 C89 1.426 . S
C88 C90 1.413 . S
C88 N98 1.359 . S
C89 C86 1.417 . S
C89 C88 1.426 . S
C89 N94 1.350 . S
C90 C87 1.437 . S
C90 C88 1.413 . S
C90 C100 1.391 . S
C91 C86 1.431 . S
C91 C87 1.317 . S
C91 H102 0.930 . S
C92 C86 1.412 . S
C92 C93 1.355 . S
C92 H104 0.930 . S
C93 C92 1.355 . S
C93 C95 1.402 . S
C93 H105 0.930 . S
N94 Gd85 2.661 . S
N94 C89 1.350 . S
N94 C95 1.307 . S
C95 C93 1.402 . S
C95 N94 1.307 . S
C95 H96 0.930 . S
H96 C95 0.930 . S
C97 N98 1.334 . S
C97 C99 1.394 . S
C97 H101 0.930 . S
N98 Gd85 2.601 . S
N98 C88 1.359 . S
N98 C97 1.334 . S
C99 C97 1.394 . S
C99 C100 1.359 . S
C99 H111 0.930 . S
C100 C90 1.391 . S
C100 C99 1.359 . S
C100 H112 0.929 . S
H101 C97 0.930 . S
H102 C91 0.930 . S
H103 C120 0.930 . S
H104 C92 0.930 . S
H105 C93 0.930 . S
H106 C87 0.929 . S
H107 C125 0.930 . S
H108 C116 0.930 . S
H109 C117 0.930 . S
H110 C141 0.929 . S
H111 C99 0.930 . S
H112 C100 0.929 . S
H113 C142 0.930 . S
H114 C123 0.930 . S
N115 Gd84 2.661 . S
N115 C119 1.350 . S
N115 C120 1.307 1_655 S
C116 H108 0.930 . S
C116 C117 1.355 . S
C116 C118 1.412 1_545 S
C117 H109 0.930 . S
C117 C116 1.355 . S
C117 C120 1.402 . S
C118 C116 1.412 1_565 S
C118 C119 1.417 1_465 S
C118 C142 1.431 . S
C119 N115 1.350 . S
C119 C118 1.417 1_645 S
C119 C122 1.426 1_545 S
C120 H103 0.930 . S
C120 N115 1.307 1_455 S
C120 C117 1.402 . S
N121 Gd84 2.601 1_565 S
N121 C122 1.359 . S
N121 C125 1.334 . S
C122 C119 1.426 1_565 S
C122 N121 1.359 . S
C122 C126 1.413 . S
C123 H114 0.930 . S
C123 C124 1.359 . S
C123 C125 1.394 . S
C124 C123 1.359 . S
C124 C126 1.391 . S
C124 H127 0.929 . S
C125 H107 0.930 . S
C125 N121 1.334 . S
C125 C123 1.394 . S
C126 C122 1.413 . S
C126 C124 1.391 . S
C126 C141 1.437 . S
H127 C124 0.929 . S
O128 Gd84 2.545 . S
O128 C143 1.258 . S
O129 Gd84 2.606 . S
O129 Gd85 2.362 . S
O129 C140 1.284 . S
O130 Gd85 2.324 . S
O130 C150 1.254 . S
O131 Gd84 2.429 . S
O131 C150 1.268 . S
O132 Gd84 2.545 . S
O132 C140 1.250 . S
O133 Gd84 2.412 1_455 S
O133 C143 1.252 1_455 S
O134 Gd85 2.545 . S
O134 C152 1.258 . S
O135 Gd84 2.362 . S
O135 Gd85 2.606 . S
O135 C151 1.284 . S
O136 Gd84 2.324 . S
O136 C159 1.254 . S
O137 Gd85 2.429 . S
O137 C159 1.268 . S
O138 Gd85 2.545 . S
O138 C151 1.250 . S
O139 Gd85 2.412 . S
O139 C152 1.252 . S
C140 O129 1.284 . S
C140 O132 1.250 . S
C141 H110 0.929 . S
C141 C126 1.437 . S
C141 C142 1.317 1_655 S
C142 H113 0.930 . S
C142 C118 1.431 . S
C142 C141 1.317 1_455 S
C143 Gd84 2.828 . S
C143 O128 1.258 . S
C143 O133 1.252 1_655 S
C143 C144 1.497 1_655 S
C144 C143 1.497 1_455 S
C144 C145 1.395 1_455 S
C144 C146 1.380 . S
C145 C144 1.395 1_655 S
C145 C148 1.398 1_655 S
C145 H160 0.930 1_545 S
C146 C144 1.380 . S
C146 C147 1.391 . S
C146 H161 0.930 . S
C147 C146 1.391 . S
C147 C149 1.387 . S
C148 C145 1.398 1_455 S
C148 C149 1.380 . S
C148 H162 0.930 1_545 S
C149 C147 1.387 . S
C149 C148 1.380 . S
C149 H163 0.930 . S
C150 O130 1.254 . S
C150 O131 1.268 . S
C151 O135 1.284 . S
C151 O138 1.250 . S
C152 Gd85 2.828 . S
C152 O134 1.258 . S
C152 O139 1.252 . S
C152 C153 1.497 . S
C153 C152 1.497 . S
C153 C154 1.395 . S
C153 C155 1.380 . S
C154 C153 1.395 . S
C154 C157 1.398 . S
C154 H164 0.930 . S
C155 C153 1.380 . S
C155 C156 1.391 . S
C155 H165 0.930 . S
C156 C155 1.391 . S
C156 C158 1.387 . S
C157 C154 1.398 . S
C157 C158 1.380 . S
C157 H166 0.930 . S
C158 C156 1.387 . S
C158 C157 1.380 . S
C158 H167 0.930 . S
C159 O136 1.254 . S
C159 O137 1.268 . S
H160 C145 0.930 1_565 S
H161 C146 0.930 . S
H162 C148 0.930 1_565 S
H163 C149 0.930 . S
H164 C154 0.930 . S
H165 C155 0.930 . S
H166 C157 0.930 . S
H167 C158 0.930 . S
Gd168 N199 2.661 . S
Gd168 N205 2.601 . S
Gd168 O212 2.545 . S
Gd168 O213 2.606 . S
Gd168 O215 2.429 . S
Gd168 O216 2.545 . S
Gd168 O217 2.412 1_565 S
Gd168 O219 2.362 . S
Gd168 O220 2.324 . S
Gd168 C227 2.828 . S
Gd169 N178 2.661 . S
Gd169 N182 2.601 . S
Gd169 O213 2.362 . S
Gd169 O214 2.324 . S
Gd169 O218 2.545 . S
Gd169 O219 2.606 . S
Gd169 O221 2.429 . S
Gd169 O222 2.545 . S
Gd169 O223 2.412 . S
Gd169 C236 2.828 . S
C170 C173 1.417 . S
C170 C175 1.431 . S
C170 C176 1.412 . S
C171 C174 1.437 . S
C171 C175 1.317 . S
C171 H190 0.929 1_455 S
C172 C173 1.426 . S
C172 C174 1.413 . S
C172 N182 1.359 . S
C173 C170 1.417 . S
C173 C172 1.426 . S
C173 N178 1.350 . S
C174 C171 1.437 . S
C174 C172 1.413 . S
C174 C184 1.391 . S
C175 C170 1.431 . S
C175 C171 1.317 . S
C175 H186 0.930 1_455 S
C176 C170 1.412 . S
C176 C177 1.355 . S
C176 H188 0.930 . S
C177 C176 1.355 . S
C177 C179 1.402 . S
C177 H189 0.930 . S
N178 Gd169 2.661 . S
N178 C173 1.350 . S
N178 C179 1.307 . S
C179 C177 1.402 . S
C179 N178 1.307 . S
C179 H180 0.930 . S
H180 C179 0.930 . S
C181 N182 1.334 . S
C181 C183 1.394 . S
C181 H185 0.930 . S
N182 Gd169 2.601 . S
N182 C172 1.359 . S
N182 C181 1.334 . S
C183 C181 1.394 . S
C183 C184 1.359 . S
C183 H195 0.930 . S
C184 C174 1.391 . S
C184 C183 1.359 . S
C184 H196 0.929 . S
H185 C181 0.930 . S
H186 C175 0.930 1_655 S
H187 C204 0.930 . S
H188 C176 0.930 . S
H189 C177 0.930 . S
H190 C171 0.929 1_655 S
H191 C209 0.930 . S
H192 C200 0.930 . S
H193 C201 0.930 . S
H194 C225 0.929 . S
H195 C183 0.930 . S
H196 C184 0.929 . S
H197 C226 0.930 . S
H198 C207 0.930 . S
N199 Gd168 2.661 . S
N199 C203 1.350 . S
N199 C204 1.307 1_565 S
C200 H192 0.930 . S
C200 C201 1.355 1_455 S
C200 C202 1.412 . S
C201 H193 0.930 . S
C201 C200 1.355 1_655 S
C201 C204 1.402 . S
C202 C200 1.412 . S
C202 C203 1.417 1_445 S
C202 C226 1.431 . S
C203 N199 1.350 . S
C203 C202 1.417 1_665 S
C203 C206 1.426 . S
C204 H187 0.930 . S
C204 N199 1.307 1_545 S
C204 C201 1.402 . S
N205 Gd168 2.601 . S
N205 C206 1.359 . S
N205 C209 1.334 . S
C206 C203 1.426 . S
C206 N205 1.359 . S
C206 C210 1.413 1_655 S
C207 H198 0.930 . S
C207 C208 1.359 1_655 S
C207 C209 1.394 . S
C208 C207 1.359 1_455 S
C208 C210 1.391 . S
C208 H211 0.929 . S
C209 H191 0.930 . S
C209 N205 1.334 . S
C209 C207 1.394 . S
C210 C206 1.413 1_455 S
C210 C208 1.391 . S
C210 C225 1.437 . S
H211 C208 0.929 . S
O212 Gd168 2.545 . S
O212 C227 1.258 . S
O213 Gd168 2.606 . S
O213 Gd169 2.362 . S
O213 C224 1.284 . S
O214 Gd169 2.324 . S
O214 C234 1.254 . S
O215 Gd168 2.429 . S
O215 C234 1.268 . S
O216 Gd168 2.545 . S
O216 C224 1.250 . S
O217 Gd168 2.412 1_545 S
O217 C227 1.252 1_545 S
O218 Gd169 2.545 . S
O218 C236 1.258 . S
O219 Gd168 2.362 . S
O219 Gd169 2.606 . S
O219 C235 1.284 . S
O220 Gd168 2.324 . S
O220 C243 1.254 . S
O221 Gd169 2.429 . S
O221 C243 1.268 . S
O222 Gd169 2.545 . S
O222 C235 1.250 . S
O223 Gd169 2.412 . S
O223 C236 1.252 . S
C224 O213 1.284 . S
C224 O216 1.250 . S
C225 H194 0.929 . S
C225 C210 1.437 . S
C225 C226 1.317 1_565 S
C226 H197 0.930 . S
C226 C202 1.431 . S
C226 C225 1.317 1_545 S
C227 Gd168 2.828 . S
C227 O212 1.258 . S
C227 O217 1.252 1_565 S
C227 C228 1.497 1_565 S
C228 C227 1.497 1_545 S
C228 C229 1.395 1_545 S
C228 C230 1.380 . S
C229 C228 1.395 1_565 S
C229 C232 1.398 1_565 S
C229 H244 0.930 . S
C230 C228 1.380 . S
C230 C231 1.391 . S
C230 H245 0.930 . S
C231 C230 1.391 . S
C231 C233 1.387 . S
C232 C229 1.398 1_545 S
C232 C233 1.380 . S
C232 H246 0.930 1_655 S
C233 C231 1.387 . S
C233 C232 1.380 . S
C233 H247 0.930 1_655 S
C234 O214 1.254 . S
C234 O215 1.268 . S
C235 O219 1.284 . S
C235 O222 1.250 . S
C236 Gd169 2.828 . S
C236 O218 1.258 . S
C236 O223 1.252 . S
C236 C237 1.497 . S
C237 C236 1.497 . S
C237 C238 1.395 . S
C237 C239 1.380 . S
C238 C237 1.395 . S
C238 C241 1.398 . S
C238 H248 0.930 . S
C239 C237 1.380 . S
C239 C240 1.391 . S
C239 H249 0.930 . S
C240 C239 1.391 . S
C240 C242 1.387 . S
C241 C238 1.398 . S
C241 C242 1.380 . S
C241 H250 0.930 . S
C242 C240 1.387 . S
C242 C241 1.380 . S
C242 H251 0.930 . S
C243 O220 1.254 . S
C243 O221 1.268 . S
H244 C229 0.930 . S
H245 C230 0.930 . S
H246 C232 0.930 1_455 S
H247 C233 0.930 1_455 S
H248 C238 0.930 . S
H249 C239 0.930 . S
H250 C241 0.930 . S
H251 C242 0.930 . S
Gd252 N283 2.661 1_556 S
Gd252 N289 2.601 1_656 S
Gd252 O296 2.545 . S
Gd252 O297 2.606 . S
Gd252 O299 2.429 . S
Gd252 O300 2.545 . S
Gd252 O301 2.412 . S
Gd252 O303 2.362 1_556 S
Gd252 O304 2.324 1_556 S
Gd252 C311 2.828 . S
Gd253 N262 2.661 . S
Gd253 N266 2.601 . S
Gd253 O297 2.362 1_554 S
Gd253 O298 2.324 . S
Gd253 O302 2.545 . S
Gd253 O303 2.606 . S
Gd253 O305 2.429 . S
Gd253 O306 2.545 . S
Gd253 O307 2.412 . S
Gd253 C320 2.828 . S
C254 C257 1.417 1_556 S
C254 C259 1.431 . S
C254 C260 1.412 . S
C255 C258 1.437 . S
C255 C259 1.317 1_554 S
C255 H274 0.929 1_545 S
C256 C257 1.426 . S
C256 C258 1.413 . S
C256 N266 1.359 . S
C257 C254 1.417 1_554 S
C257 C256 1.426 . S
C257 N262 1.350 . S
C258 C255 1.437 . S
C258 C256 1.413 . S
C258 C268 1.391 . S
C259 C254 1.431 . S
C259 C255 1.317 1_556 S
C259 H270 0.930 1_545 S
C260 C254 1.412 . S
C260 C261 1.355 . S
C260 H272 0.930 . S
C261 C260 1.355 . S
C261 C263 1.402 . S
C261 H273 0.930 . S
N262 Gd253 2.661 . S
N262 C257 1.350 . S
N262 C263 1.307 1_554 S
C263 C261 1.402 . S
C263 N262 1.307 1_556 S
C263 H264 0.930 . S
H264 C263 0.930 . S
C265 N266 1.334 . S
C265 C267 1.394 . S
C265 H269 0.930 . S
N266 Gd253 2.601 . S
N266 C256 1.359 . S
N266 C265 1.334 . S
C267 C265 1.394 . S
C267 C268 1.359 . S
C267 H279 0.930 . S
C268 C258 1.391 . S
C268 C267 1.359 . S
C268 H280 0.929 . S
H269 C265 0.930 . S
H270 C259 0.930 1_565 S
H271 C288 0.930 . S
H272 C260 0.930 . S
H273 C261 0.930 . S
H274 C255 0.929 1_565 S
H275 C293 0.930 . S
H276 C284 0.930 . S
H277 C285 0.930 . S
H278 C309 0.929 . S
H279 C267 0.930 . S
H280 C268 0.929 . S
H281 C310 0.930 . S
H282 C291 0.930 . S
N283 Gd252 2.661 1_554 S
N283 C287 1.350 . S
N283 C288 1.307 . S
C284 H276 0.930 . S
C284 C285 1.355 1_545 S
C284 C286 1.412 1_655 S
C285 H277 0.930 . S
C285 C284 1.355 1_565 S
C285 C288 1.402 . S
C286 C284 1.412 1_455 S
C286 C287 1.417 1_445 S
C286 C310 1.431 . S
C287 N283 1.350 . S
C287 C286 1.417 1_665 S
C287 C290 1.426 1_655 S
C288 H271 0.930 . S
C288 N283 1.307 . S
C288 C285 1.402 . S
N289 Gd252 2.601 1_454 S
N289 C290 1.359 . S
N289 C293 1.334 1_554 S
C290 C287 1.426 1_455 S
C290 N289 1.359 . S
C290 C294 1.413 1_565 S
C291 H282 0.930 . S
C291 C292 1.359 1_566 S
C291 C293 1.394 . S
C292 C291 1.359 1_544 S
C292 C294 1.391 . S
C292 H295 0.929 1_554 S
C293 H275 0.930 . S
C293 N289 1.334 1_556 S
C293 C291 1.394 . S
C294 C290 1.413 1_545 S
C294 C292 1.391 . S
C294 C309 1.437 . S
H295 C292 0.929 1_556 S
O296 Gd252 2.545 . S
O296 C311 1.258 . S
O297 Gd252 2.606 . S
O297 Gd253 2.362 1_556 S
O297 C308 1.284 . S
O298 Gd253 2.324 . S
O298 C318 1.254 . S
O299 Gd252 2.429 . S
O299 C318 1.268 1_556 S
O300 Gd252 2.545 . S
O300 C308 1.250 . S
O301 Gd252 2.412 . S
O301 C311 1.252 . S
O302 Gd253 2.545 . S
O302 C320 1.258 . S
O303 Gd252 2.362 1_554 S
O303 Gd253 2.606 . S
O303 C319 1.284 . S
O304 Gd252 2.324 1_554 S
O304 C327 1.254 . S
O305 Gd253 2.429 . S
O305 C327 1.268 . S
O306 Gd253 2.545 . S
O306 C319 1.250 . S
O307 Gd253 2.412 . S
O307 C320 1.252 . S
C308 O297 1.284 . S
C308 O300 1.250 . S
C309 H278 0.929 . S
C309 C294 1.437 . S
C309 C310 1.317 . S
C310 H281 0.930 . S
C310 C286 1.431 . S
C310 C309 1.317 . S
C311 Gd252 2.828 . S
C311 O296 1.258 . S
C311 O301 1.252 . S
C311 C312 1.497 . S
C312 C311 1.497 . S
C312 C313 1.395 . S
C312 C314 1.380 . S
C313 C312 1.395 . S
C313 C316 1.398 . S
C313 H328 0.930 1_655 S
C314 C312 1.380 . S
C314 C315 1.391 . S
C314 H329 0.930 . S
C315 C314 1.391 . S
C315 C317 1.387 . S
C316 C313 1.398 . S
C316 C317 1.380 . S
C316 H330 0.930 1_665 S
C317 C315 1.387 . S
C317 C316 1.380 . S
C317 H331 0.930 1_565 S
C318 O298 1.254 . S
C318 O299 1.268 1_554 S
C319 O303 1.284 . S
C319 O306 1.250 . S
C320 Gd253 2.828 . S
C320 O302 1.258 . S
C320 O307 1.252 . S
C320 C321 1.497 . S
C321 C320 1.497 . S
C321 C322 1.395 . S
C321 C323 1.380 . S
C322 C321 1.395 . S
C322 C325 1.398 . S
C322 H332 0.930 . S
C323 C321 1.380 . S
C323 C324 1.391 . S
C323 H333 0.930 . S
C324 C323 1.391 . S
C324 C326 1.387 . S
C325 C322 1.398 . S
C325 C326 1.380 . S
C325 H334 0.930 . S
C326 C324 1.387 . S
C326 C325 1.380 . S
C326 H335 0.930 . S
C327 O304 1.254 . S
C327 O305 1.268 . S
H328 C313 0.930 1_455 S
H329 C314 0.930 . S
H330 C316 0.930 1_445 S
H331 C317 0.930 1_545 S
H332 C322 0.930 . S
H333 C323 0.930 . S
H334 C325 0.930 . S
H335 C326 0.930 . S
Gd336 N367 2.661 . S
Gd336 N373 2.601 1_565 S
Gd336 O380 2.545 . S
Gd336 O381 2.606 . S
Gd336 O383 2.429 . S
Gd336 O384 2.545 . S
Gd336 O385 2.412 1_455 S
Gd336 O387 2.362 . S
Gd336 O388 2.324 . S
Gd336 C395 2.828 . S
Gd337 N346 2.661 . S
Gd337 N350 2.601 . S
Gd337 O381 2.362 . S
Gd337 O382 2.324 . S
Gd337 O386 2.545 . S
Gd337 O387 2.606 . S
Gd337 O389 2.429 . S
Gd337 O390 2.545 . S
Gd337 O391 2.412 . S
Gd337 C404 2.828 . S
C338 C341 1.417 . S
C338 C343 1.431 . S
C338 C344 1.412 . S
C339 C342 1.437 . S
C339 C343 1.317 . S
C339 H358 0.929 . S
C340 C341 1.426 . S
C340 C342 1.413 . S
C340 N350 1.359 . S
C341 C338 1.417 . S
C341 C340 1.426 . S
C341 N346 1.350 . S
C342 C339 1.437 . S
C342 C340 1.413 . S
C342 C352 1.391 . S
C343 C338 1.431 . S
C343 C339 1.317 . S
C343 H354 0.930 . S
C344 C338 1.412 . S
C344 C345 1.355 . S
C344 H356 0.930 . S
C345 C344 1.355 . S
C345 C347 1.402 . S
C345 H357 0.930 . S
N346 Gd337 2.661 . S
N346 C341 1.350 . S
N346 C347 1.307 . S
C347 C345 1.402 . S
C347 N346 1.307 . S
C347 H348 0.930 . S
H348 C347 0.930 . S
C349 N350 1.334 . S
C349 C351 1.394 . S
C349 H353 0.930 . S
N350 Gd337 2.601 . S
N350 C340 1.359 . S
N350 C349 1.334 . S
C351 C349 1.394 . S
C351 C352 1.359 . S
C351 H363 0.930 . S
C352 C342 1.391 . S
C352 C351 1.359 . S
C352 H364 0.929 . S
H353 C349 0.930 . S
H354 C343 0.930 . S
H355 C372 0.930 . S
H356 C344 0.930 . S
H357 C345 0.930 . S
H358 C339 0.929 . S
H359 C377 0.930 . S
H360 C368 0.930 . S
H361 C369 0.930 . S
H362 C393 0.929 . S
H363 C351 0.930 . S
H364 C352 0.929 . S
H365 C394 0.930 . S
H366 C375 0.930 . S
N367 Gd336 2.661 . S
N367 C371 1.350 . S
N367 C372 1.307 1_455 S
C368 H360 0.930 . S
C368 C369 1.355 . S
C368 C370 1.412 1_565 S
C369 H361 0.930 . S
C369 C368 1.355 . S
C369 C372 1.402 . S
C370 C368 1.412 1_545 S
C370 C371 1.417 1_645 S
C370 C394 1.431 . S
C371 N367 1.350 . S
C371 C370 1.417 1_465 S
C371 C374 1.426 1_565 S
C372 H355 0.930 . S
C372 N367 1.307 1_655 S
C372 C369 1.402 . S
N373 Gd336 2.601 1_545 S
N373 C374 1.359 . S
N373 C377 1.334 . S
C374 C371 1.426 1_545 S
C374 N373 1.359 . S
C374 C378 1.413 . S
C375 H366 0.930 . S
C375 C376 1.359 . S
C375 C377 1.394 . S
C376 C375 1.359 . S
C376 C378 1.391 . S
C376 H379 0.929 . S
C377 H359 0.930 . S
C377 N373 1.334 . S
C377 C375 1.394 . S
C378 C374 1.413 . S
C378 C376 1.391 . S
C378 C393 1.437 . S
H379 C376 0.929 . S
O380 Gd336 2.545 . S
O380 C395 1.258 . S
O381 Gd336 2.606 . S
O381 Gd337 2.362 . S
O381 C392 1.284 . S
O382 Gd337 2.324 . S
O382 C402 1.254 . S
O383 Gd336 2.429 . S
O383 C402 1.268 . S
O384 Gd336 2.545 . S
O384 C392 1.250 . S
O385 Gd336 2.412 1_655 S
O385 C395 1.252 1_655 S
O386 Gd337 2.545 . S
O386 C404 1.258 . S
O387 Gd336 2.362 . S
O387 Gd337 2.606 . S
O387 C403 1.284 . S
O388 Gd336 2.324 . S
O388 C411 1.254 . S
O389 Gd337 2.429 . S
O389 C411 1.268 . S
O390 Gd337 2.545 . S
O390 C403 1.250 . S
O391 Gd337 2.412 . S
O391 C404 1.252 . S
C392 O381 1.284 . S
C392 O384 1.250 . S
C393 H362 0.929 . S
C393 C378 1.437 . S
C393 C394 1.317 1_455 S
C394 H365 0.930 . S
C394 C370 1.431 . S
C394 C393 1.317 1_655 S
C395 Gd336 2.828 . S
C395 O380 1.258 . S
C395 O385 1.252 1_455 S
C395 C396 1.497 1_455 S
C396 C395 1.497 1_655 S
C396 C397 1.395 1_655 S
C396 C398 1.380 . S
C397 C396 1.395 1_455 S
C397 C400 1.398 1_455 S
C397 H412 0.930 1_565 S
C398 C396 1.380 . S
C398 C399 1.391 . S
C398 H413 0.930 . S
C399 C398 1.391 . S
C399 C401 1.387 . S
C400 C397 1.398 1_655 S
C400 C401 1.380 . S
C400 H414 0.930 1_565 S
C401 C399 1.387 . S
C401 C400 1.380 . S
C401 H415 0.930 . S
C402 O382 1.254 . S
C402 O383 1.268 . S
C403 O387 1.284 . S
C403 O390 1.250 . S
C404 Gd337 2.828 . S
C404 O386 1.258 . S
C404 O391 1.252 . S
C404 C405 1.497 . S
C405 C404 1.497 . S
C405 C406 1.395 . S
C405 C407 1.380 . S
C406 C405 1.395 . S
C406 C409 1.398 . S
C406 H416 0.930 . S
C407 C405 1.380 . S
C407 C408 1.391 . S
C407 H417 0.930 . S
C408 C407 1.391 . S
C408 C410 1.387 . S
C409 C406 1.398 . S
C409 C410 1.380 . S
C409 H418 0.930 . S
C410 C408 1.387 . S
C410 C409 1.380 . S
C410 H419 0.930 . S
C411 O388 1.254 . S
C411 O389 1.268 . S
H412 C397 0.930 1_545 S
H413 C398 0.930 . S
H414 C400 0.930 1_545 S
H415 C401 0.930 . S
H416 C406 0.930 . S
H417 C407 0.930 . S
H418 C409 0.930 . S
H419 C410 0.930 . S
Gd420 N451 2.661 . S
Gd420 N457 2.601 . S
Gd420 O464 2.545 . S
Gd420 O465 2.606 . S
Gd420 O467 2.429 . S
Gd420 O468 2.545 . S
Gd420 O469 2.412 1_545 S
Gd420 O471 2.362 . S
Gd420 O472 2.324 . S
Gd420 C479 2.828 . S
Gd421 N430 2.661 . S
Gd421 N434 2.601 . S
Gd421 O465 2.362 . S
Gd421 O466 2.324 . S
Gd421 O470 2.545 . S
Gd421 O471 2.606 . S
Gd421 O473 2.429 . S
Gd421 O474 2.545 . S
Gd421 O475 2.412 . S
Gd421 C488 2.828 . S
C422 C425 1.417 . S
C422 C427 1.431 . S
C422 C428 1.412 . S
C423 C426 1.437 . S
C423 C427 1.317 . S
C423 H442 0.929 1_655 S
C424 C425 1.426 . S
C424 C426 1.413 . S
C424 N434 1.359 . S
C425 C422 1.417 . S
C425 C424 1.426 . S
C425 N430 1.350 . S
C426 C423 1.437 . S
C426 C424 1.413 . S
C426 C436 1.391 . S
C427 C422 1.431 . S
C427 C423 1.317 . S
C427 H438 0.930 1_655 S
C428 C422 1.412 . S
C428 C429 1.355 . S
C428 H440 0.930 . S
C429 C428 1.355 . S
C429 C431 1.402 . S
C429 H441 0.930 . S
N430 Gd421 2.661 . S
N430 C425 1.350 . S
N430 C431 1.307 . S
C431 C429 1.402 . S
C431 N430 1.307 . S
C431 H432 0.930 . S
H432 C431 0.930 . S
C433 N434 1.334 . S
C433 C435 1.394 . S
C433 H437 0.930 . S
N434 Gd421 2.601 . S
N434 C424 1.359 . S
N434 C433 1.334 . S
C435 C433 1.394 . S
C435 C436 1.359 . S
C435 H447 0.930 . S
C436 C426 1.391 . S
C436 C435 1.359 . S
C436 H448 0.929 . S
H437 C433 0.930 . S
H438 C427 0.930 1_455 S
H439 C456 0.930 . S
H440 C428 0.930 . S
H441 C429 0.930 . S
H442 C423 0.929 1_455 S
H443 C461 0.930 . S
H444 C452 0.930 . S
H445 C453 0.930 . S
H446 C477 0.929 . S
H447 C435 0.930 . S
H448 C436 0.929 . S
H449 C478 0.930 . S
H450 C459 0.930 . S
N451 Gd420 2.661 . S
N451 C455 1.350 . S
N451 C456 1.307 1_545 S
C452 H444 0.930 . S
C452 C453 1.355 1_655 S
C452 C454 1.412 . S
C453 H445 0.930 . S
C453 C452 1.355 1_455 S
C453 C456 1.402 . S
C454 C452 1.412 . S
C454 C455 1.417 1_665 S
C454 C478 1.431 . S
C455 N451 1.350 . S
C455 C454 1.417 1_445 S
C455 C458 1.426 . S
C456 H439 0.930 . S
C456 N451 1.307 1_565 S
C456 C453 1.402 . S
N457 Gd420 2.601 . S
N457 C458 1.359 . S
N457 C461 1.334 . S
C458 C455 1.426 . S
C458 N457 1.359 . S
C458 C462 1.413 1_455 S
C459 H450 0.930 . S
C459 C460 1.359 1_455 S
C459 C461 1.394 . S
C460 C459 1.359 1_655 S
C460 C462 1.391 . S
C460 H463 0.929 . S
C461 H443 0.930 . S
C461 N457 1.334 . S
C461 C459 1.394 . S
C462 C458 1.413 1_655 S
C462 C460 1.391 . S
C462 C477 1.437 . S
H463 C460 0.929 . S
O464 Gd420 2.545 . S
O464 C479 1.258 . S
O465 Gd420 2.606 . S
O465 Gd421 2.362 . S
O465 C476 1.284 . S
O466 Gd421 2.324 . S
O466 C486 1.254 . S
O467 Gd420 2.429 . S
O467 C486 1.268 . S
O468 Gd420 2.545 . S
O468 C476 1.250 . S
O469 Gd420 2.412 1_565 S
O469 C479 1.252 1_565 S
O470 Gd421 2.545 . S
O470 C488 1.258 . S
O471 Gd420 2.362 . S
O471 Gd421 2.606 . S
O471 C487 1.284 . S
O472 Gd420 2.324 . S
O472 C495 1.254 . S
O473 Gd421 2.429 . S
O473 C495 1.268 . S
O474 Gd421 2.545 . S
O474 C487 1.250 . S
O475 Gd421 2.412 . S
O475 C488 1.252 . S
C476 O465 1.284 . S
C476 O468 1.250 . S
C477 H446 0.929 . S
C477 C462 1.437 . S
C477 C478 1.317 1_545 S
C478 H449 0.930 . S
C478 C454 1.431 . S
C478 C477 1.317 1_565 S
C479 Gd420 2.828 . S
C479 O464 1.258 . S
C479 O469 1.252 1_545 S
C479 C480 1.497 1_545 S
C480 C479 1.497 1_565 S
C480 C481 1.395 1_565 S
C480 C482 1.380 . S
C481 C480 1.395 1_545 S
C481 C484 1.398 1_545 S
C481 H496 0.930 . S
C482 C480 1.380 . S
C482 C483 1.391 . S
C482 H497 0.930 . S
C483 C482 1.391 . S
C483 C485 1.387 . S
C484 C481 1.398 1_565 S
C484 C485 1.380 . S
C484 H498 0.930 1_455 S
C485 C483 1.387 . S
C485 C484 1.380 . S
C485 H499 0.930 1_455 S
C486 O466 1.254 . S
C486 O467 1.268 . S
C487 O471 1.284 . S
C487 O474 1.250 . S
C488 Gd421 2.828 . S
C488 O470 1.258 . S
C488 O475 1.252 . S
C488 C489 1.497 . S
C489 C488 1.497 . S
C489 C490 1.395 . S
C489 C491 1.380 . S
C490 C489 1.395 . S
C490 C493 1.398 . S
C490 H500 0.930 . S
C491 C489 1.380 . S
C491 C492 1.391 . S
C491 H501 0.930 . S
C492 C491 1.391 . S
C492 C494 1.387 . S
C493 C490 1.398 . S
C493 C494 1.380 . S
C493 H502 0.930 . S
C494 C492 1.387 . S
C494 C493 1.380 . S
C494 H503 0.930 . S
C495 O472 1.254 . S
C495 O473 1.268 . S
H496 C481 0.930 . S
H497 C482 0.930 . S
H498 C484 0.930 1_655 S
H499 C485 0.930 1_655 S
H500 C490 0.930 . S
H501 C491 0.930 . S
H502 C493 0.930 . S
H503 C494 0.930 . S
C392 C72 1.038 . S
C476 C156 1.038 . S
C56 C240 1.038 . S
C140 C324 1.038 . S
C224 C408 1.038 . S
C308 C492 1.038 . S
C75 C327 3.255 . S
C411 C159 3.255 1_455 S
C495 C243 3.255 1_545 S
C234 C486 2.735 . S
C66 C318 2.735 1_455 S
C402 C150 2.735 1_565 S
C487 C63 2.070 . S
C147 C67 2.070 . S
C231 C151 2.070 . S
C235 C315 2.070 . S
C399 C319 2.070 . S
C483 C403 2.070 . S
