# Generated by pormake.
# Topology ukn, (4)-cn, num edge types: 1
# Building blocks:
#     Node 0, Type 0, BuildingBlock: NAHDIM_clean_sbu_0, # of connection points: 4
#     Node 1, Type 0, BuildingBlock: NAHDIM_clean_sbu_0, # of connection points: 4
#     Node 2, Type 0, BuildingBlock: NAHDIM_clean_sbu_0, # of connection points: 4
#     Node 3, Type 0, BuildingBlock: NAHDIM_clean_sbu_0, # of connection points: 4
#     Node 4, Type 0, BuildingBlock: NAHDIM_clean_sbu_0, # of connection points: 4
#     Node 5, Type 0, BuildingBlock: NAHDIM_clean_sbu_0, # of connection points: 4
#     Node 6, Type 0, BuildingBlock: NAHDIM_clean_sbu_0, # of connection points: 4
#     Node 7, Type 0, BuildingBlock: NAHDIM_clean_sbu_0, # of connection points: 4
#     Node 8, Type 0, BuildingBlock: NAHDIM_clean_sbu_0, # of connection points: 4
#     Node 9, Type 0, BuildingBlock: NAHDIM_clean_sbu_0, # of connection points: 4
#     Node 10, Type 0, BuildingBlock: NAHDIM_clean_sbu_0, # of connection points: 4
#     Node 11, Type 0, BuildingBlock: NAHDIM_clean_sbu_0, # of connection points: 4
#     Node 12, Type 0, BuildingBlock: NAHDIM_clean_sbu_0, # of connection points: 4
#     Node 13, Type 0, BuildingBlock: NAHDIM_clean_sbu_0, # of connection points: 4
#     Node 14, Type 0, BuildingBlock: NAHDIM_clean_sbu_0, # of connection points: 4
#     Node 15, Type 0, BuildingBlock: NAHDIM_clean_sbu_0, # of connection points: 4
#     Node 16, Type 0, BuildingBlock: NAHDIM_clean_sbu_0, # of connection points: 4
#     Node 17, Type 0, BuildingBlock: NAHDIM_clean_sbu_0, # of connection points: 4
#     Node 18, Type 0, BuildingBlock: NAHDIM_clean_sbu_0, # of connection points: 4
#     Node 19, Type 0, BuildingBlock: NAHDIM_clean_sbu_0, # of connection points: 4
#     Node 20, Type 0, BuildingBlock: NAHDIM_clean_sbu_0, # of connection points: 4
#     Node 21, Type 0, BuildingBlock: NAHDIM_clean_sbu_0, # of connection points: 4
#     Node 22, Type 0, BuildingBlock: NAHDIM_clean_sbu_0, # of connection points: 4
#     Node 23, Type 0, BuildingBlock: NAHDIM_clean_sbu_0, # of connection points: 4
#     Node 24, Type 0, BuildingBlock: NAHDIM_clean_sbu_0, # of connection points: 4
#     Node 25, Type 0, BuildingBlock: NAHDIM_clean_sbu_0, # of connection points: 4
#     Node 26, Type 0, BuildingBlock: NAHDIM_clean_sbu_0, # of connection points: 4
#     Node 27, Type 0, BuildingBlock: NAHDIM_clean_sbu_0, # of connection points: 4
#     Node 28, Type 0, BuildingBlock: NAHDIM_clean_sbu_0, # of connection points: 4
#     Node 29, Type 0, BuildingBlock: NAHDIM_clean_sbu_0, # of connection points: 4
#     Node 30, Type 0, BuildingBlock: NAHDIM_clean_sbu_0, # of connection points: 4
#     Node 31, Type 0, BuildingBlock: NAHDIM_clean_sbu_0, # of connection points: 4
#     Node 32, Type 0, BuildingBlock: NAHDIM_clean_sbu_0, # of connection points: 4
#     Node 33, Type 0, BuildingBlock: NAHDIM_clean_sbu_0, # of connection points: 4
#     Node 34, Type 0, BuildingBlock: NAHDIM_clean_sbu_0, # of connection points: 4
#     Node 35, Type 0, BuildingBlock: NAHDIM_clean_sbu_0, # of connection points: 4
#     Edge 36, Type (0, 0), BuildingBlock: OJICUG_clean_linker_0, # of connection points: 2
#     Edge 37, Type (0, 0), BuildingBlock: OJICUG_clean_linker_0, # of connection points: 2
#     Edge 38, Type (0, 0), BuildingBlock: OJICUG_clean_linker_0, # of connection points: 2
#     Edge 39, Type (0, 0), BuildingBlock: OJICUG_clean_linker_0, # of connection points: 2
#     Edge 40, Type (0, 0), BuildingBlock: OJICUG_clean_linker_0, # of connection points: 2
#     Edge 41, Type (0, 0), BuildingBlock: OJICUG_clean_linker_0, # of connection points: 2
#     Edge 42, Type (0, 0), BuildingBlock: OJICUG_clean_linker_0, # of connection points: 2
#     Edge 43, Type (0, 0), BuildingBlock: OJICUG_clean_linker_0, # of connection points: 2
#     Edge 44, Type (0, 0), BuildingBlock: OJICUG_clean_linker_0, # of connection points: 2
#     Edge 45, Type (0, 0), BuildingBlock: OJICUG_clean_linker_0, # of connection points: 2
#     Edge 46, Type (0, 0), BuildingBlock: OJICUG_clean_linker_0, # of connection points: 2
#     Edge 47, Type (0, 0), BuildingBlock: OJICUG_clean_linker_0, # of connection points: 2
#     Edge 48, Type (0, 0), BuildingBlock: OJICUG_clean_linker_0, # of connection points: 2
#     Edge 49, Type (0, 0), BuildingBlock: OJICUG_clean_linker_0, # of connection points: 2
#     Edge 50, Type (0, 0), BuildingBlock: OJICUG_clean_linker_0, # of connection points: 2
#     Edge 51, Type (0, 0), BuildingBlock: OJICUG_clean_linker_0, # of connection points: 2
#     Edge 52, Type (0, 0), BuildingBlock: OJICUG_clean_linker_0, # of connection points: 2
#     Edge 53, Type (0, 0), BuildingBlock: OJICUG_clean_linker_0, # of connection points: 2
#     Edge 54, Type (0, 0), BuildingBlock: OJICUG_clean_linker_0, # of connection points: 2
#     Edge 55, Type (0, 0), BuildingBlock: OJICUG_clean_linker_0, # of connection points: 2
#     Edge 56, Type (0, 0), BuildingBlock: OJICUG_clean_linker_0, # of connection points: 2
#     Edge 57, Type (0, 0), BuildingBlock: OJICUG_clean_linker_0, # of connection points: 2
#     Edge 58, Type (0, 0), BuildingBlock: OJICUG_clean_linker_0, # of connection points: 2
#     Edge 59, Type (0, 0), BuildingBlock: OJICUG_clean_linker_0, # of connection points: 2
#     Edge 60, Type (0, 0), BuildingBlock: OJICUG_clean_linker_0, # of connection points: 2
#     Edge 61, Type (0, 0), BuildingBlock: OJICUG_clean_linker_0, # of connection points: 2
#     Edge 62, Type (0, 0), BuildingBlock: OJICUG_clean_linker_0, # of connection points: 2
#     Edge 63, Type (0, 0), BuildingBlock: OJICUG_clean_linker_0, # of connection points: 2
#     Edge 64, Type (0, 0), BuildingBlock: OJICUG_clean_linker_0, # of connection points: 2
#     Edge 65, Type (0, 0), BuildingBlock: OJICUG_clean_linker_0, # of connection points: 2
#     Edge 66, Type (0, 0), BuildingBlock: OJICUG_clean_linker_0, # of connection points: 2
#     Edge 67, Type (0, 0), BuildingBlock: OJICUG_clean_linker_0, # of connection points: 2
#     Edge 68, Type (0, 0), BuildingBlock: OJICUG_clean_linker_0, # of connection points: 2
#     Edge 69, Type (0, 0), BuildingBlock: OJICUG_clean_linker_0, # of connection points: 2
#     Edge 70, Type (0, 0), BuildingBlock: OJICUG_clean_linker_0, # of connection points: 2
#     Edge 71, Type (0, 0), BuildingBlock: OJICUG_clean_linker_0, # of connection points: 2
#     Edge 72, Type (0, 0), BuildingBlock: OJICUG_clean_linker_0, # of connection points: 2
#     Edge 73, Type (0, 0), BuildingBlock: OJICUG_clean_linker_0, # of connection points: 2
#     Edge 74, Type (0, 0), BuildingBlock: OJICUG_clean_linker_0, # of connection points: 2
#     Edge 75, Type (0, 0), BuildingBlock: OJICUG_clean_linker_0, # of connection points: 2
#     Edge 76, Type (0, 0), BuildingBlock: OJICUG_clean_linker_0, # of connection points: 2
#     Edge 77, Type (0, 0), BuildingBlock: OJICUG_clean_linker_0, # of connection points: 2
#     Edge 78, Type (0, 0), BuildingBlock: OJICUG_clean_linker_0, # of connection points: 2
#     Edge 79, Type (0, 0), BuildingBlock: OJICUG_clean_linker_0, # of connection points: 2
#     Edge 80, Type (0, 0), BuildingBlock: OJICUG_clean_linker_0, # of connection points: 2
#     Edge 81, Type (0, 0), BuildingBlock: OJICUG_clean_linker_0, # of connection points: 2
#     Edge 82, Type (0, 0), BuildingBlock: OJICUG_clean_linker_0, # of connection points: 2
#     Edge 83, Type (0, 0), BuildingBlock: OJICUG_clean_linker_0, # of connection points: 2
#     Edge 84, Type (0, 0), BuildingBlock: OJICUG_clean_linker_0, # of connection points: 2
#     Edge 85, Type (0, 0), BuildingBlock: OJICUG_clean_linker_0, # of connection points: 2
#     Edge 86, Type (0, 0), BuildingBlock: OJICUG_clean_linker_0, # of connection points: 2
#     Edge 87, Type (0, 0), BuildingBlock: OJICUG_clean_linker_0, # of connection points: 2
#     Edge 88, Type (0, 0), BuildingBlock: OJICUG_clean_linker_0, # of connection points: 2
#     Edge 89, Type (0, 0), BuildingBlock: OJICUG_clean_linker_0, # of connection points: 2
#     Edge 90, Type (0, 0), BuildingBlock: OJICUG_clean_linker_0, # of connection points: 2
#     Edge 91, Type (0, 0), BuildingBlock: OJICUG_clean_linker_0, # of connection points: 2
#     Edge 92, Type (0, 0), BuildingBlock: OJICUG_clean_linker_0, # of connection points: 2
#     Edge 93, Type (0, 0), BuildingBlock: OJICUG_clean_linker_0, # of connection points: 2
#     Edge 94, Type (0, 0), BuildingBlock: OJICUG_clean_linker_0, # of connection points: 2
#     Edge 95, Type (0, 0), BuildingBlock: OJICUG_clean_linker_0, # of connection points: 2
#     Edge 96, Type (0, 0), BuildingBlock: OJICUG_clean_linker_0, # of connection points: 2
#     Edge 97, Type (0, 0), BuildingBlock: OJICUG_clean_linker_0, # of connection points: 2
#     Edge 98, Type (0, 0), BuildingBlock: OJICUG_clean_linker_0, # of connection points: 2
#     Edge 99, Type (0, 0), BuildingBlock: OJICUG_clean_linker_0, # of connection points: 2
#     Edge 100, Type (0, 0), BuildingBlock: OJICUG_clean_linker_0, # of connection points: 2
#     Edge 101, Type (0, 0), BuildingBlock: OJICUG_clean_linker_0, # of connection points: 2
#     Edge 102, Type (0, 0), BuildingBlock: OJICUG_clean_linker_0, # of connection points: 2
#     Edge 103, Type (0, 0), BuildingBlock: OJICUG_clean_linker_0, # of connection points: 2
#     Edge 104, Type (0, 0), BuildingBlock: OJICUG_clean_linker_0, # of connection points: 2
#     Edge 105, Type (0, 0), BuildingBlock: OJICUG_clean_linker_0, # of connection points: 2
#     Edge 106, Type (0, 0), BuildingBlock: OJICUG_clean_linker_0, # of connection points: 2
#     Edge 107, Type (0, 0), BuildingBlock: OJICUG_clean_linker_0, # of connection points: 2
# Relax obj value: 0.143
# Max RMSD: 0.135
# Mean RMSD: 0.135
data_MOF--net-ukn--node1-NAHDIM_clean_sbu_0--edge1-OJICUG_clean_linker_0
_symmetry_space_group_name_H-M    P1
_symmetry_Int_Tables_number       1
_symmetry_cell_setting            triclinic
loop_
_symmetry_equiv_pos_as_xyz
'x, y, z'
_cell_length_a     80.624651
_cell_length_b     80.615837
_cell_length_c     17.428801
_cell_angle_alpha  90.010624
_cell_angle_beta   89.982001
_cell_angle_gamma 120.03279
loop_
_atom_site_label
_atom_site_type_symbol
_atom_site_fract_x
_atom_site_fract_y
_atom_site_fract_z
_atom_type_partial_charge
C0 C 0.03699 0.27538 0.04495 0.0
O1 O 0.04577 0.29415 0.05022 0.0
O2 O 0.07731 0.29937 0.17889 0.0
Zn3 Zn 0.07438 0.28486 0.08048 0.0
O4 O 0.08516 0.30341 0.99155 0.0
C5 C 0.09574 0.26855 0.15094 0.0
O6 O 0.09082 0.27326 0.21568 0.0
O7 O 0.0465 0.26699 0.05796 0.0
C8 C 0.10082 0.30743 0.95861 0.0
O9 O 0.11074 0.29969 0.98398 0.0
C10 C 0.09141 0.31621 0.18811 0.0
O11 O 0.10387 0.32422 0.13218 0.0
O12 O 0.08925 0.27098 0.08812 0.0
C13 C 0.72807 0.76811 0.04631 0.0
O14 O 0.70927 0.75863 0.05058 0.0
O15 O 0.70583 0.78788 0.17887 0.0
Zn16 Zn 0.71956 0.79691 0.07722 0.0
O17 O 0.70041 0.78769 0.99096 0.0
C18 C 0.73948 0.83535 0.13815 0.0
O19 O 0.73857 0.82638 0.20232 0.0
O20 O 0.73692 0.78607 0.05847 0.0
C21 C 0.69213 0.79675 0.96911 0.0
O22 O 0.69578 0.81258 0.00487 0.0
C23 C 0.68854 0.77447 0.18565 0.0
O24 O 0.67894 0.76526 0.12411 0.0
O25 O 0.73348 0.82573 0.07647 0.0
C26 C 0.23503 0.95976 0.0405 0.0
O27 O 0.24435 0.9503 0.0454 0.0
O28 O 0.21433 0.91799 0.17998 0.0
Zn29 Zn 0.20576 0.9228 0.07731 0.0
O30 O 0.21442 0.912 0.99259 0.0
C31 C 0.16687 0.90415 0.13498 0.0
O32 O 0.17537 0.91119 0.20098 0.0
O33 O 0.21719 0.95099 0.05524 0.0
C34 C 0.20608 0.89419 0.97786 0.0
O35 O 0.19158 0.8822 0.02069 0.0
C36 C 0.22767 0.91404 0.18752 0.0
O37 O 0.23718 0.91388 0.12656 0.0
O38 O 0.17696 0.90843 0.07438 0.0
C39 C 0.2753 0.03804 0.93119 0.0
O40 O 0.29411 0.04717 0.92819 0.0
O41 O 0.29688 0.07996 0.78865 0.0
Zn42 Zn 0.28376 0.0752 0.89188 0.0
O43 O 0.30347 0.08593 0.97564 0.0
C44 C 0.26591 0.0967 0.8387 0.0
O45 O 0.26924 0.09217 0.77026 0.0
O46 O 0.26664 0.04708 0.91429 0.0
C47 C 0.31333 0.10387 0.98733 0.0
O48 O 0.31105 0.11558 0.94192 0.0
C49 C 0.31401 0.08346 0.78011 0.0
O50 O 0.32359 0.08299 0.84024 0.0
O51 O 0.26968 0.0899 0.89761 0.0
C52 C 0.95772 0.23403 0.9486 0.0
O53 O 0.94832 0.24337 0.94167 0.0
O54 O 0.91836 0.21734 0.81327 0.0
Zn55 Zn 0.92098 0.20556 0.91144 0.0
O56 O 0.90974 0.21317 0.99862 0.0
C57 C 0.9009 0.16814 0.83833 0.0
O58 O 0.90728 0.17808 0.77465 0.0
O59 O 0.94885 0.21608 0.93605 0.0
C60 C 0.90123 0.20194 0.05449 0.0
O61 O 0.89946 0.18484 0.05507 0.0
C62 C 0.90365 0.21897 0.80238 0.0
O63 O 0.89047 0.21313 0.85611 0.0
O64 O 0.906 0.1768 0.90239 0.0
C65 C 0.76711 0.72742 0.95653 0.0
O66 O 0.75732 0.70862 0.95328 0.0
O67 O 0.78637 0.70454 0.82324 0.0
Zn68 Zn 0.79547 0.71826 0.9249 0.0
O69 O 0.78605 0.69912 0.01127 0.0
C70 C 0.83394 0.73829 0.86421 0.0
O71 O 0.82501 0.73765 0.80026 0.0
O72 O 0.78501 0.73595 0.94343 0.0
C73 C 0.79504 0.69079 0.03348 0.0
O74 O 0.81088 0.69439 0.99805 0.0
C75 C 0.77269 0.68738 0.81637 0.0
O76 O 0.76324 0.67793 0.87779 0.0
O77 O 0.82428 0.732 0.92567 0.0
C78 C 0.96137 0.72615 0.9365 0.0
O79 O 0.95202 0.70734 0.93348 0.0
O80 O 0.91887 0.70474 0.79814 0.0
Zn81 Zn 0.92415 0.71802 0.90128 0.0
O82 O 0.91373 0.69842 0.98541 0.0
C83 C 0.90471 0.73797 0.8487 0.0
O84 O 0.91119 0.7366 0.78122 0.0
O85 O 0.95241 0.735 0.92144 0.0
C86 C 0.89585 0.68714 0.9936 0.0
O87 O 0.88391 0.68791 0.94443 0.0
C88 C 0.91592 0.68781 0.78918 0.0
O89 O 0.91719 0.67852 0.84871 0.0
O90 O 0.90957 0.73219 0.90778 0.0
C91 C 0.25177 0.21584 0.94031 0.0
O92 O 0.25686 0.21833 0.86773 0.0
O93 O 0.29341 0.21704 0.8585 0.0
Zn94 Zn 0.27956 0.20299 0.95504 0.0
O95 O 0.29831 0.21197 0.04242 0.0
C96 C 0.26439 0.16666 0.87523 0.0
O97 O 0.26503 0.17679 0.81509 0.0
O98 O 0.25903 0.20887 0.98559 0.0
C99 C 0.29571 0.20122 0.09984 0.0
O100 O 0.28074 0.18385 0.101 0.0
C101 C 0.31019 0.21984 0.84683 0.0
O102 O 0.3179 0.21384 0.89832 0.0
O103 O 0.26918 0.17475 0.94047 0.0
C104 C 0.76447 0.03978 0.95054 0.0
O105 O 0.75477 0.04884 0.94466 0.0
O106 O 0.78038 0.07873 0.80835 0.0
Zn107 Zn 0.79232 0.07646 0.90715 0.0
O108 O 0.7846 0.08759 0.99466 0.0
C109 C 0.82986 0.09711 0.83492 0.0
O110 O 0.82004 0.0914 0.77073 0.0
O111 O 0.7822 0.04874 0.93393 0.0
C112 C 0.79629 0.1025 0.03171 0.0
O113 O 0.81442 0.11183 0.0116 0.0
C114 C 0.77682 0.09229 0.79911 0.0
O115 O 0.78071 0.10463 0.85504 0.0
O116 O 0.82108 0.0914 0.89851 0.0
C117 C 0.72585 0.96181 0.06311 0.0
O118 O 0.70706 0.95247 0.06712 0.0
O119 O 0.70439 0.91948 0.20195 0.0
Zn120 Zn 0.71777 0.92466 0.09903 0.0
O121 O 0.69829 0.9142 0.01457 0.0
C122 C 0.73796 0.90551 0.15252 0.0
O123 O 0.73658 0.91208 0.21979 0.0
O124 O 0.73475 0.95288 0.07816 0.0
C125 C 0.68656 0.89639 0.00745 0.0
O126 O 0.68676 0.88441 0.05807 0.0
C127 C 0.68748 0.9166 0.21064 0.0
O128 O 0.67824 0.91788 0.15092 0.0
O129 O 0.73201 0.91014 0.09329 0.0
C130 C 0.04029 0.76538 0.03801 0.0
O131 O 0.04952 0.75582 0.04134 0.0
O132 O 0.08226 0.78549 0.17653 0.0
Zn133 Zn 0.07751 0.79425 0.07418 0.0
O134 O 0.088 0.78539 0.98881 0.0
C135 C 0.09599 0.83304 0.13285 0.0
O136 O 0.0886 0.82441 0.19833 0.0
O137 O 0.04934 0.7832 0.05325 0.0
C138 C 0.10555 0.79446 0.96955 0.0
O139 O 0.11751 0.80993 0.00784 0.0
C140 C 0.08601 0.77201 0.1838 0.0
O141 O 0.08605 0.76249 0.12266 0.0
O142 O 0.09204 0.82307 0.07203 0.0
C143 C 0.21325 0.25362 0.06711 0.0
O144 O 0.21092 0.25408 0.14155 0.0
O145 O 0.21688 0.29779 0.1545 0.0
Zn146 Zn 0.2033 0.28403 0.05713 0.0
O147 O 0.21156 0.30317 0.97108 0.0
C148 C 0.16666 0.26848 0.13614 0.0
O149 O 0.17688 0.271 0.1983 0.0
O150 O 0.21041 0.2646 0.02372 0.0
C151 C 0.20019 0.30136 0.91699 0.0
O152 O 0.18252 0.28693 0.91822 0.0
C153 C 0.2186 0.31413 0.167 0.0
O154 O 0.2119 0.32128 0.11597 0.0
O155 O 0.17486 0.27229 0.07104 0.0
C156 C 0.70368 0.60758 0.3794 0.0
O157 O 0.71242 0.62637 0.38368 0.0
O158 O 0.74397 0.63184 0.51448 0.0
Zn159 Zn 0.74108 0.61724 0.4163 0.0
O160 O 0.7519 0.63574 0.32721 0.0
C161 C 0.76286 0.6014 0.4869 0.0
O162 O 0.7581 0.60631 0.55159 0.0
O163 O 0.7132 0.59927 0.3936 0.0
C164 C 0.76775 0.63997 0.29549 0.0
O165 O 0.7778 0.63251 0.32232 0.0
C166 C 0.75832 0.64852 0.524 0.0
O167 O 0.77097 0.65626 0.46858 0.0
O168 O 0.75605 0.60348 0.42423 0.0
C169 C 0.41282 0.11881 0.39961 0.0
O170 O 0.40927 0.11833 0.4734 0.0
O171 O 0.37001 0.11623 0.47987 0.0
Zn172 Zn 0.38386 0.1302 0.38325 0.0
O173 O 0.3651 0.12132 0.29558 0.0
C174 C 0.39915 0.16652 0.46368 0.0
O175 O 0.39818 0.15632 0.52407 0.0
O176 O 0.4042 0.12403 0.35304 0.0
C177 C 0.36513 0.13282 0.24565 0.0
O178 O 0.37748 0.15122 0.25195 0.0
C179 C 0.35308 0.11309 0.49101 0.0
O180 O 0.34515 0.11864 0.43874 0.0
O181 O 0.39457 0.15848 0.39832 0.0
C182 C 0.89862 0.29203 0.37402 0.0
O183 O 0.90787 0.28248 0.37565 0.0
O184 O 0.87731 0.24885 0.50386 0.0
Zn185 Zn 0.86926 0.2546 0.40194 0.0
O186 O 0.87857 0.24481 0.31576 0.0
C187 C 0.83025 0.23605 0.45717 0.0
O188 O 0.83861 0.24341 0.52311 0.0
O189 O 0.88066 0.28303 0.38623 0.0
C190 C 0.87324 0.22716 0.30863 0.0
O191 O 0.86151 0.21491 0.35971 0.0
C192 C 0.89137 0.24602 0.51218 0.0
O193 O 0.90196 0.24751 0.45241 0.0
O194 O 0.84049 0.24006 0.39706 0.0
C195 C 0.94038 0.3726 0.29678 0.0
O196 O 0.9592 0.38158 0.29585 0.0
O197 O 0.96316 0.41585 0.1645 0.0
Zn198 Zn 0.94963 0.41039 0.26692 0.0
O199 O 0.96896 0.42014 0.35233 0.0
C200 C 0.93045 0.43037 0.21311 0.0
O201 O 0.93182 0.42374 0.14597 0.0
O202 O 0.93202 0.38211 0.28339 0.0
C203 C 0.98114 0.43787 0.35872 0.0
O204 O 0.98135 0.4499 0.30736 0.0
C205 C 0.97993 0.41841 0.15544 0.0
O206 O 0.98901 0.41665 0.21466 0.0
O207 O 0.93592 0.42539 0.27274 0.0
C208 C 0.62443 0.56583 0.28281 0.0
O209 O 0.61505 0.57517 0.27464 0.0
O210 O 0.58516 0.54915 0.14843 0.0
Zn211 Zn 0.58764 0.5374 0.247 0.0
O212 O 0.57661 0.54534 0.33392 0.0
C213 C 0.56698 0.49984 0.17501 0.0
O214 O 0.57317 0.50965 0.11097 0.0
O215 O 0.61551 0.54783 0.27158 0.0
C216 C 0.56759 0.53411 0.38917 0.0
O217 O 0.56506 0.5167 0.38931 0.0
C218 C 0.57088 0.55154 0.13797 0.0
O219 O 0.55794 0.54642 0.19235 0.0
O220 O 0.57242 0.5086 0.23876 0.0
C221 C 0.45061 0.07956 0.28076 0.0
O222 O 0.45088 0.07677 0.20661 0.0
O223 O 0.4464 0.03553 0.20068 0.0
Zn224 Zn 0.4607 0.04957 0.29642 0.0
O225 O 0.45201 0.03095 0.38422 0.0
C226 C 0.49661 0.06507 0.21406 0.0
O227 O 0.48615 0.06468 0.15553 0.0
O228 O 0.45483 0.07008 0.32701 0.0
C229 C 0.46293 0.0335 0.44099 0.0
O230 O 0.48037 0.04835 0.44128 0.0
C231 C 0.44418 0.01898 0.18863 0.0
O232 O 0.45082 0.0117 0.23932 0.0
O233 O 0.48888 0.06 0.27986 0.0
C234 C 0.62618 0.05547 0.25245 0.0
O235 O 0.61727 0.03666 0.24982 0.0
O236 O 0.58388 0.03366 0.11019 0.0
Zn237 Zn 0.58878 0.04646 0.21416 0.0
O238 O 0.57851 0.0265 0.29687 0.0
C239 C 0.56638 0.0638 0.16593 0.0
O240 O 0.5705 0.06065 0.09643 0.0
O241 O 0.6169 0.0639 0.23574 0.0
C242 C 0.56067 0.01479 0.30336 0.0
O243 O 0.5488 0.01531 0.25309 0.0
C244 C 0.58154 0.01698 0.10024 0.0
O245 O 0.58335 0.00781 0.15902 0.0
O246 O 0.57369 0.06006 0.22327 0.0
C247 C 0.92243 0.55163 0.28326 0.0
O248 O 0.92174 0.54781 0.20967 0.0
O249 O 0.9647 0.55109 0.19303 0.0
Zn250 Zn 0.95182 0.54019 0.29528 0.0
O251 O 0.97142 0.5488 0.3796 0.0
C252 C 0.93218 0.50212 0.22827 0.0
O253 O 0.93302 0.51134 0.16493 0.0
O254 O 0.93369 0.54918 0.32643 0.0
C255 C 0.97811 0.53858 0.40536 0.0
O256 O 0.97266 0.52178 0.37427 0.0
C257 C 0.98257 0.56291 0.18729 0.0
O258 O 0.99294 0.56919 0.24995 0.0
O259 O 0.93844 0.51147 0.29039 0.0
C260 C 0.42939 0.37293 0.29106 0.0
O261 O 0.42016 0.38244 0.28379 0.0
O262 O 0.44619 0.41179 0.14917 0.0
Zn263 Zn 0.45799 0.40925 0.24783 0.0
O264 O 0.45072 0.42086 0.33497 0.0
C265 C 0.49548 0.42923 0.17475 0.0
O266 O 0.48553 0.42354 0.11086 0.0
O267 O 0.44717 0.38145 0.27534 0.0
C268 C 0.46276 0.43517 0.3741 0.0
O269 O 0.48103 0.44352 0.35657 0.0
C270 C 0.44383 0.4261 0.13901 0.0
O271 O 0.44889 0.43894 0.19375 0.0
O272 O 0.48678 0.42369 0.23861 0.0
C273 C 0.38857 0.2953 0.40733 0.0
O274 O 0.36978 0.28643 0.41091 0.0
O275 O 0.3665 0.25319 0.54964 0.0
Zn276 Zn 0.37955 0.25793 0.44623 0.0
O277 O 0.35981 0.2475 0.36263 0.0
C278 C 0.39739 0.23638 0.49887 0.0
O279 O 0.39453 0.2413 0.56734 0.0
O280 O 0.39701 0.28601 0.42391 0.0
C281 C 0.34798 0.22967 0.35676 0.0
O282 O 0.34825 0.21788 0.40813 0.0
C283 C 0.34961 0.25034 0.55899 0.0
O284 O 0.34025 0.25158 0.49966 0.0
O285 O 0.39325 0.24289 0.43997 0.0
C286 C 0.70453 0.09665 0.36041 0.0
O287 O 0.71417 0.08753 0.36545 0.0
O288 O 0.74616 0.11755 0.49959 0.0
Zn289 Zn 0.74132 0.12617 0.39705 0.0
O290 O 0.75226 0.1177 0.31208 0.0
C291 C 0.7594 0.16496 0.4556 0.0
O292 O 0.75223 0.15631 0.52126 0.0
O293 O 0.71312 0.1145 0.375 0.0
C294 C 0.7698 0.12707 0.2929 0.0
O295 O 0.78153 0.14265 0.33114 0.0
C296 C 0.75061 0.10455 0.50668 0.0
O297 O 0.75134 0.09549 0.44528 0.0
O298 O 0.7554 0.15498 0.3948 0.0
C299 C 0.8854 0.59129 0.40708 0.0
O300 O 0.88813 0.59683 0.47913 0.0
O301 O 0.88443 0.63177 0.48874 0.0
Zn302 Zn 0.87087 0.61769 0.39184 0.0
O303 O 0.87938 0.63649 0.30451 0.0
C304 C 0.83427 0.60229 0.47059 0.0
O305 O 0.84448 0.60466 0.53261 0.0
O306 O 0.87773 0.59781 0.36172 0.0
C307 C 0.86812 0.63465 0.24998 0.0
O308 O 0.85037 0.62034 0.25133 0.0
C309 C 0.88665 0.64833 0.5005 0.0
O310 O 0.88042 0.65577 0.44875 0.0
O311 O 0.84245 0.60619 0.40546 0.0
C312 C 0.36931 0.9406 0.75014 0.0
O313 O 0.37815 0.95938 0.75464 0.0
O314 O 0.41155 0.9625 0.89152 0.0
Zn315 Zn 0.40674 0.94964 0.78762 0.0
O316 O 0.41698 0.96958 0.70475 0.0
C317 C 0.42927 0.93246 0.83616 0.0
O318 O 0.4252 0.9357 0.90561 0.0
O319 O 0.37864 0.93214 0.76559 0.0
C320 C 0.43481 0.98134 0.69834 0.0
O321 O 0.44669 0.98089 0.74879 0.0
C322 C 0.41403 0.97924 0.90119 0.0
O323 O 0.41241 0.98845 0.84215 0.0
O324 O 0.42189 0.9361 0.77877 0.0
C325 C 0.05958 0.43425 0.71611 0.0
O326 O 0.04079 0.42452 0.72139 0.0
O327 O 0.03593 0.44918 0.85528 0.0
Zn328 Zn 0.05028 0.46169 0.75772 0.0
O329 O 0.03143 0.45382 0.67052 0.0
C330 C 0.06738 0.49861 0.83412 0.0
O331 O 0.06448 0.48829 0.89627 0.0
O332 O 0.06829 0.45204 0.7317 0.0
C333 C 0.03413 0.46476 0.61365 0.0
O334 O 0.04944 0.4819 0.61221 0.0
C335 C 0.01939 0.44706 0.86633 0.0
O336 O 0.01188 0.45289 0.81329 0.0
O337 O 0.0634 0.49039 0.76905 0.0
C338 C 0.5676 0.62586 0.71041 0.0
O339 O 0.57682 0.61629 0.71402 0.0
O340 O 0.54587 0.58265 0.83944 0.0
Zn341 Zn 0.53793 0.58849 0.73748 0.0
O342 O 0.54694 0.5784 0.65133 0.0
C343 C 0.49903 0.57064 0.79325 0.0
O344 O 0.50751 0.57814 0.85885 0.0
O345 O 0.54959 0.6169 0.72124 0.0
C346 C 0.54089 0.56062 0.64341 0.0
O347 O 0.52868 0.5485 0.69365 0.0
C348 C 0.55955 0.57922 0.84753 0.0
O349 O 0.56984 0.58018 0.78751 0.0
O350 O 0.50917 0.5743 0.73305 0.0
C351 C 0.60931 0.70582 0.62377 0.0
O352 O 0.62811 0.71475 0.62065 0.0
O353 O 0.63318 0.74606 0.48795 0.0
Zn354 Zn 0.61863 0.74309 0.58626 0.0
O355 O 0.63713 0.75398 0.67518 0.0
C356 C 0.60224 0.76433 0.51552 0.0
O357 O 0.60702 0.75944 0.45087 0.0
O358 O 0.60087 0.71519 0.60877 0.0
C359 C 0.64124 0.76974 0.70738 0.0
O360 O 0.63364 0.77972 0.68119 0.0
C361 C 0.64997 0.76025 0.4786 0.0
O362 O 0.65791 0.77275 0.53439 0.0
O363 O 0.60465 0.75784 0.5784 0.0
C364 C 0.29179 0.90023 0.6328 0.0
O365 O 0.28238 0.90955 0.62568 0.0
O366 O 0.25353 0.88427 0.48914 0.0
Zn367 Zn 0.25556 0.87206 0.58753 0.0
O368 O 0.24394 0.8794 0.67438 0.0
C369 C 0.23527 0.83481 0.51273 0.0
O370 O 0.24116 0.84495 0.44932 0.0
O371 O 0.28324 0.88249 0.61616 0.0
C372 C 0.23115 0.86737 0.71934 0.0
O373 O 0.22443 0.84897 0.7086 0.0
C374 C 0.23958 0.88721 0.47913 0.0
O375 O 0.22679 0.8825 0.53388 0.0
O376 O 0.24076 0.8433 0.577 0.0
C377 C 0.09932 0.39486 0.61805 0.0
O378 O 0.0896 0.37611 0.61182 0.0
O379 O 0.11883 0.37218 0.48753 0.0
Zn380 Zn 0.12792 0.38592 0.58915 0.0
O381 O 0.11861 0.36681 0.67562 0.0
C382 C 0.16634 0.40582 0.52811 0.0
O383 O 0.15738 0.40504 0.46409 0.0
O384 O 0.11735 0.40351 0.60781 0.0
C385 C 0.12757 0.35836 0.69685 0.0
O386 O 0.14324 0.36184 0.66033 0.0
C387 C 0.1055 0.35485 0.48087 0.0
O388 O 0.09636 0.34523 0.54249 0.0
O389 O 0.15673 0.39972 0.58976 0.0
C390 C 0.29295 0.39249 0.60213 0.0
O391 O 0.28359 0.37367 0.60011 0.0
O392 O 0.2504 0.37082 0.46386 0.0
Zn393 Zn 0.25573 0.38431 0.56651 0.0
O394 O 0.24535 0.36491 0.65131 0.0
C395 C 0.23658 0.40449 0.51309 0.0
O396 O 0.24308 0.40305 0.44575 0.0
O397 O 0.28399 0.4013 0.58626 0.0
C398 C 0.22748 0.35375 0.66027 0.0
O399 O 0.21546 0.35451 0.61145 0.0
C400 C 0.24757 0.35392 0.45532 0.0
O401 O 0.24895 0.34475 0.51507 0.0
O402 O 0.24127 0.3986 0.57231 0.0
C403 C 0.58678 0.8813 0.59723 0.0
O404 O 0.58733 0.87884 0.52294 0.0
O405 O 0.63132 0.88553 0.51124 0.0
Zn406 Zn 0.61754 0.87191 0.60852 0.0
O407 O 0.63657 0.88029 0.69489 0.0
C408 C 0.60216 0.83526 0.52989 0.0
O409 O 0.60455 0.84542 0.46768 0.0
O410 O 0.59787 0.87876 0.64115 0.0
C411 C 0.63411 0.86921 0.75099 0.0
O412 O 0.61909 0.85187 0.75151 0.0
C413 C 0.64777 0.8875 0.49905 0.0
O414 O 0.65505 0.881 0.55036 0.0
O415 O 0.60603 0.8435 0.5949 0.0
C416 C 0.09905 0.70618 0.62739 0.0
O417 O 0.08934 0.71522 0.62109 0.0
O418 O 0.11486 0.74515 0.48539 0.0
Zn419 Zn 0.12694 0.74289 0.58382 0.0
O420 O 0.11941 0.75417 0.67146 0.0
C421 C 0.16434 0.76362 0.51039 0.0
O422 O 0.15437 0.75797 0.44655 0.0
O423 O 0.1168 0.71516 0.61096 0.0
C424 C 0.13125 0.76904 0.70843 0.0
O425 O 0.14937 0.77815 0.68822 0.0
C426 C 0.11217 0.75926 0.47545 0.0
O427 O 0.11702 0.77204 0.53033 0.0
O428 O 0.15571 0.75782 0.57425 0.0
C429 C 0.06066 0.62867 0.74531 0.0
O430 O 0.04191 0.6195 0.75222 0.0
O431 O 0.03797 0.58902 0.88569 0.0
Zn432 Zn 0.05216 0.59189 0.78592 0.0
O433 O 0.0335 0.58084 0.69802 0.0
C434 C 0.06832 0.57004 0.85323 0.0
O435 O 0.06336 0.57449 0.91852 0.0
O436 O 0.06956 0.61975 0.7603 0.0
C437 C 0.02808 0.56436 0.66975 0.0
O438 O 0.03424 0.55353 0.70016 0.0
C439 C 0.01981 0.57913 0.89071 0.0
O440 O 0.00973 0.57082 0.82891 0.0
O441 O 0.06619 0.57708 0.79129 0.0
C442 C 0.3719 0.4321 0.70286 0.0
O443 O 0.38118 0.42259 0.70654 0.0
O444 O 0.41407 0.45254 0.84019 0.0
Zn445 Zn 0.40912 0.46109 0.73773 0.0
O446 O 0.41949 0.4521 0.65249 0.0
C447 C 0.42773 0.50004 0.79462 0.0
O448 O 0.42046 0.49163 0.86057 0.0
O449 O 0.38092 0.44995 0.7174 0.0
C450 C 0.43713 0.46084 0.63453 0.0
O451 O 0.44921 0.47599 0.67417 0.0
C452 C 0.41772 0.43899 0.84753 0.0
O453 O 0.41755 0.42934 0.78653 0.0
O454 O 0.42363 0.48987 0.73433 0.0
C455 C 0.54789 0.91899 0.7211 0.0
O456 O 0.55017 0.92409 0.79365 0.0
O457 O 0.5491 0.96076 0.80076 0.0
Zn458 Zn 0.53484 0.94656 0.70523 0.0
O459 O 0.54346 0.9651 0.61719 0.0
C460 C 0.49898 0.93109 0.78777 0.0
O461 O 0.5095 0.93163 0.8463 0.0
O462 O 0.54092 0.92614 0.67527 0.0
C463 C 0.5325 0.96264 0.56073 0.0
O464 O 0.51498 0.94791 0.56079 0.0
C465 C 0.55132 0.97732 0.81275 0.0
O466 O 0.54468 0.98459 0.76203 0.0
O467 O 0.50664 0.93603 0.72181 0.0
C468 C 0.12164 0.26534 0.21679 0.0
C469 C 0.1117 0.26444 0.14923 0.0
H470 H 0.14682 0.26712 0.26583 0.0
C471 C 0.11866 0.26202 0.07863 0.0
H472 H 0.11658 0.26706 0.27217 0.0
C473 C 0.136 0.26212 0.07499 0.0
C474 C 0.14672 0.26457 0.14188 0.0
H475 H 0.11127 0.2611 0.02552 0.0
H476 H 0.14144 0.26122 0.01922 0.0
C477 C 0.13899 0.26537 0.21316 0.0
C478 C 0.74209 0.86418 0.07262 0.0
C479 C 0.74337 0.85535 0.14013 0.0
H480 H 0.73965 0.88715 0.02344 0.0
C481 C 0.74592 0.86484 0.21055 0.0
H482 H 0.74031 0.85736 0.01731 0.0
C483 C 0.74551 0.88197 0.2141 0.0
C484 C 0.74257 0.88992 0.14729 0.0
H485 H 0.74711 0.85851 0.26358 0.0
H486 H 0.74641 0.88835 0.26975 0.0
C487 C 0.74171 0.88129 0.07616 0.0
C488 C 0.11919 0.86325 0.20097 0.0
C489 C 0.11177 0.85321 0.13193 0.0
H490 H 0.14241 0.88746 0.25612 0.0
C491 C 0.12114 0.86174 0.06276 0.0
H492 H 0.11223 0.85717 0.25521 0.0
C493 C 0.13843 0.87911 0.06328 0.0
C494 C 0.14673 0.88831 0.13297 0.0
H495 H 0.11571 0.8545 0.00843 0.0
H496 H 0.14581 0.88472 0.00932 0.0
C497 C 0.13651 0.88064 0.20149 0.0
C498 C 0.26054 0.12234 0.78338 0.0
C499 C 0.2617 0.11249 0.84785 0.0
H500 H 0.26029 0.14717 0.7414 0.0
C501 C 0.26114 0.11934 0.92143 0.0
H502 H 0.26082 0.11738 0.72589 0.0
C503 C 0.2609 0.13643 0.9303 0.0
C504 C 0.26117 0.14702 0.8658 0.0
H505 H 0.26186 0.11203 0.97238 0.0
H506 H 0.26139 0.14176 0.98781 0.0
C507 C 0.26024 0.13943 0.79228 0.0
C508 C 0.85878 0.1222 0.76516 0.0
C509 C 0.84998 0.113 0.83426 0.0
H510 H 0.88199 0.14683 0.71207 0.0
C511 C 0.85971 0.12066 0.9037 0.0
H512 H 0.85175 0.11659 0.71061 0.0
C513 C 0.87703 0.13799 0.90454 0.0
C514 C 0.88501 0.14803 0.83596 0.0
H515 H 0.85345 0.11384 0.95796 0.0
H516 H 0.88361 0.14401 0.95942 0.0
C517 C 0.87614 0.13955 0.766 0.0
C518 C 0.86357 0.74526 0.79161 0.0
C519 C 0.85401 0.74241 0.86205 0.0
H520 H 0.88731 0.74631 0.73209 0.0
C521 C 0.86291 0.74114 0.92937 0.0
H522 H 0.85719 0.74645 0.73873 0.0
C523 C 0.88019 0.74109 0.92557 0.0
C524 C 0.88892 0.74227 0.85436 0.0
H525 H 0.85604 0.73914 0.98471 0.0
H526 H 0.88611 0.73904 0.97812 0.0
C527 C 0.88086 0.74518 0.78779 0.0
C528 C 0.80347 0.59569 0.40995 0.0
C529 C 0.81428 0.59825 0.47665 0.0
H530 H 0.77851 0.59428 0.36101 0.0
C531 C 0.80656 0.59893 0.54809 0.0
H532 H 0.8089 0.59487 0.35407 0.0
C533 C 0.78908 0.59864 0.55211 0.0
C534 C 0.779 0.59759 0.48477 0.0
H535 H 0.81447 0.60077 0.60062 0.0
H536 H 0.78402 0.60027 0.60762 0.0
C537 C 0.78599 0.59531 0.41399 0.0
C538 C 0.40323 0.1938 0.54619 0.0
C539 C 0.40236 0.18617 0.4728 0.0
H540 H 0.40254 0.21585 0.61215 0.0
C541 C 0.40259 0.19669 0.4081 0.0
H542 H 0.4032 0.18611 0.59721 0.0
C543 C 0.40226 0.21374 0.41664 0.0
C544 C 0.40163 0.22062 0.49008 0.0
H545 H 0.40215 0.19133 0.35068 0.0
H546 H 0.40152 0.22099 0.36554 0.0
C547 C 0.40285 0.21086 0.55475 0.0
C548 C 0.79984 0.21267 0.52364 0.0
C549 C 0.81011 0.22023 0.45513 0.0
H550 H 0.77553 0.18927 0.57753 0.0
C551 C 0.80184 0.21095 0.38554 0.0
H552 H 0.80572 0.21955 0.57819 0.0
C553 C 0.78453 0.1936 0.38516 0.0
C554 C 0.77513 0.18516 0.45437 0.0
H555 H 0.80925 0.2165 0.33159 0.0
H556 H 0.77913 0.18629 0.33092 0.0
C557 C 0.78251 0.19529 0.52326 0.0
C558 C 0.92517 0.47262 0.15446 0.0
C559 C 0.92758 0.48191 0.22527 0.0
H560 H 0.92395 0.4488 0.09498 0.0
C561 C 0.92785 0.47252 0.29279 0.0
H562 H 0.92475 0.4794 0.10141 0.0
C563 C 0.92736 0.45498 0.28914 0.0
C564 C 0.92662 0.44648 0.21786 0.0
H565 H 0.92946 0.47917 0.3484 0.0
H566 H 0.92863 0.44865 0.34202 0.0
C567 C 0.9247 0.45506 0.15078 0.0
C568 C 0.54299 0.46996 0.24255 0.0
C569 C 0.55092 0.47979 0.17355 0.0
H570 H 0.51935 0.44608 0.29703 0.0
C571 C 0.54188 0.4712 0.10398 0.0
H572 H 0.54969 0.47607 0.29714 0.0
C573 C 0.52441 0.45394 0.10391 0.0
C574 C 0.51568 0.44496 0.1734 0.0
H575 H 0.54769 0.47831 0.04973 0.0
H576 H 0.51727 0.44826 0.04962 0.0
C577 C 0.52556 0.45273 0.24248 0.0
C578 C 0.5442 0.06823 0.25289 0.0
C579 C 0.55059 0.06787 0.17816 0.0
H580 H 0.5222 0.06777 0.32287 0.0
C581 C 0.54033 0.06918 0.11549 0.0
H582 H 0.55184 0.0674 0.30252 0.0
C583 C 0.52329 0.06943 0.12724 0.0
C584 C 0.51618 0.06832 0.20185 0.0
H585 H 0.54492 0.06907 0.05719 0.0
H586 H 0.51524 0.06951 0.07766 0.0
C587 C 0.52717 0.06841 0.2646 0.0
C588 C 0.45136 0.9279 0.74919 0.0
C589 C 0.44504 0.92837 0.82394 0.0
H590 H 0.47329 0.92824 0.67911 0.0
C591 C 0.45536 0.92714 0.88658 0.0
H592 H 0.44368 0.92867 0.69957 0.0
C593 C 0.47237 0.92686 0.87477 0.0
C594 C 0.47942 0.92786 0.80011 0.0
H595 H 0.45082 0.92734 0.9449 0.0
H596 H 0.48047 0.92684 0.92432 0.0
C597 C 0.46838 0.92768 0.73741 0.0
C598 C 0.07399 0.54684 0.77829 0.0
C599 C 0.07223 0.55395 0.84968 0.0
H600 H 0.07401 0.52383 0.71738 0.0
C601 C 0.07177 0.54402 0.91668 0.0
H602 H 0.07454 0.5542 0.72552 0.0
C603 C 0.07151 0.52658 0.91198 0.0
C604 C 0.07164 0.51869 0.84017 0.0
H605 H 0.07057 0.54918 0.97263 0.0
H606 H 0.07011 0.51878 0.96446 0.0
C607 C 0.07366 0.52938 0.77359 0.0
C608 C 0.45116 0.53043 0.86107 0.0
C609 C 0.4436 0.52016 0.7926 0.0
H610 H 0.4746 0.55469 0.91499 0.0
C611 C 0.45295 0.52837 0.72303 0.0
H612 H 0.44422 0.5246 0.91558 0.0
C613 C 0.47037 0.5456 0.72269 0.0
C614 C 0.4788 0.555 0.7919 0.0
H615 H 0.44742 0.52095 0.66909 0.0
H616 H 0.47773 0.55096 0.66851 0.0
C617 C 0.4686 0.5477 0.86072 0.0
C618 C 0.59908 0.80757 0.45303 0.0
C619 C 0.59828 0.81532 0.52426 0.0
H620 H 0.60076 0.78515 0.39415 0.0
C621 C 0.59583 0.80462 0.59121 0.0
H622 H 0.60083 0.8154 0.40033 0.0
C623 C 0.59572 0.78727 0.58767 0.0
C624 C 0.59813 0.78029 0.51711 0.0
H625 H 0.59493 0.81007 0.64694 0.0
H626 H 0.59479 0.77989 0.64083 0.0
C627 C 0.59903 0.79021 0.4495 0.0
C628 C 0.19302 0.78889 0.44002 0.0
C629 C 0.18444 0.77957 0.50921 0.0
H630 H 0.21602 0.81364 0.38667 0.0
C631 C 0.19436 0.78716 0.57836 0.0
H632 H 0.18584 0.78335 0.38567 0.0
C633 C 0.21166 0.80452 0.57894 0.0
C634 C 0.21941 0.81468 0.51037 0.0
H635 H 0.18827 0.78024 0.63267 0.0
H636 H 0.21838 0.81047 0.63366 0.0
C637 C 0.21034 0.80628 0.4406 0.0
C638 C 0.21297 0.41197 0.45172 0.0
C639 C 0.22098 0.40907 0.51845 0.0
H640 H 0.18945 0.41347 0.40246 0.0
C641 C 0.21237 0.40819 0.58966 0.0
H642 H 0.21933 0.41288 0.39602 0.0
C643 C 0.19523 0.40851 0.59336 0.0
C644 C 0.18635 0.40975 0.52593 0.0
H645 H 0.21827 0.40616 0.64233 0.0
H646 H 0.18843 0.40672 0.64873 0.0
C647 C 0.19582 0.41232 0.45543 0.0
C648 C 0.00647 0.27418 0.00869 0.0
C649 C 0.01664 0.26449 0.02136 0.0
H650 H 0.98006 0.27221 0.97571 0.0
C651 C 0.00729 0.24456 0.00966 0.0
H652 H 0.01322 0.28952 0.01707 0.0
C653 C 0.98816 0.23457 0.98553 0.0
C654 C 0.97803 0.24433 0.97285 0.0
H655 H 0.01477 0.23669 0.01877 0.0
H656 H 0.9813 0.21923 0.97701 0.0
C657 C 0.98742 0.26423 0.9848 0.0
C658 C 0.76773 0.75812 0.98943 0.0
C659 C 0.75739 0.73816 0.97853 0.0
H660 H 0.76662 0.78333 0.02005 0.0
C661 C 0.7375 0.72826 0.99073 0.0
H662 H 0.78309 0.76615 0.98072 0.0
C663 C 0.72812 0.73804 0.01325 0.0
C664 C 0.73839 0.75798 0.0243 0.0
H665 H 0.72908 0.71289 0.98298 0.0
H666 H 0.71276 0.7299 0.02191 0.0
C667 C 0.75831 0.76795 0.01224 0.0
C668 C 0.26497 0.98937 0.00104 0.0
C669 C 0.24511 0.9799 0.01386 0.0
H670 H 0.28996 0.01496 0.96467 0.0
C671 C 0.2351 0.98966 0.99857 0.0
H672 H 0.27314 0.98228 0.01207 0.0
C673 C 0.24479 0.0085 0.97076 0.0
C674 C 0.26469 0.01792 0.95807 0.0
H675 H 0.21976 0.98273 0.00756 0.0
H676 H 0.23673 0.01568 0.95966 0.0
C677 C 0.27464 0.00814 0.97361 0.0
C678 C 0.9914 0.75641 0.97426 0.0
C679 C 0.98166 0.73652 0.96117 0.0
H680 H 0.01758 0.78118 0.00958 0.0
C681 C 0.99132 0.72633 0.9742 0.0
H682 H 0.98432 0.76465 0.96505 0.0
C683 C 0.01026 0.73574 0.99967 0.0
C684 C 0.02003 0.75559 0.01303 0.0
H685 H 0.98426 0.71101 0.96482 0.0
H686 H 0.01722 0.72739 0.00887 0.0
C687 C 0.01041 0.76585 1.00013 0.0
C688 C 0.23335 0.23302 0.92351 0.0
C689 C 0.23977 0.22341 0.97149 0.0
H690 H 0.21982 0.24997 0.91596 0.0
C691 C 0.23589 0.22239 0.05063 0.0
H692 H 0.23601 0.234 0.8623 0.0
C693 C 0.22661 0.23159 0.08156 0.0
C694 C 0.22103 0.242 0.034 0.0
H695 H 0.24056 0.21501 0.08921 0.0
H696 H 0.22438 0.23105 0.143 0.0
C697 C 0.22408 0.24221 0.9544 0.0
C698 C 0.76522 0.01032 0.99294 0.0
C699 C 0.75488 0.01982 0.97919 0.0
H700 H 0.76421 0.98452 0.03105 0.0
C701 C 0.73514 0.01021 0.99478 0.0
H702 H 0.78047 0.01737 0.98183 0.0
C703 C 0.72588 0.99152 0.02295 0.0
C704 C 0.73613 0.98194 0.03648 0.0
H705 H 0.72673 0.01711 0.98509 0.0
H706 H 0.71062 0.98456 0.0338 0.0
C707 C 0.75593 0.99155 0.02148 0.0
C708 C 0.65486 0.56652 0.32112 0.0
C709 C 0.64475 0.57623 0.307 0.0
H710 H 0.68146 0.56878 0.35558 0.0
C711 C 0.65414 0.59617 0.31753 0.0
H712 H 0.648 0.55114 0.31372 0.0
C713 C 0.67318 0.60622 0.34148 0.0
C714 C 0.68335 0.59659 0.35564 0.0
H715 H 0.64679 0.60412 0.30731 0.0
H716 H 0.67993 0.62159 0.34876 0.0
C717 C 0.674 0.57661 0.34531 0.0
C718 C 0.43628 0.10058 0.2611 0.0
C719 C 0.4432 0.09177 0.31108 0.0
H720 H 0.4214 0.11619 0.24984 0.0
C721 C 0.44167 0.09355 0.39073 0.0
H722 H 0.43732 0.09957 0.1995 0.0
C723 C 0.43252 0.10307 0.41969 0.0
C724 C 0.42472 0.11101 0.36963 0.0
H725 H 0.44697 0.08705 0.43093 0.0
H726 H 0.43101 0.10361 0.48125 0.0
C727 C 0.42714 0.1101 0.29006 0.0
C728 C 0.89928 0.32292 0.34474 0.0
C729 C 0.90903 0.31271 0.3553 0.0
H730 H 0.90152 0.34991 0.3173 0.0
C731 C 0.92902 0.32234 0.34603 0.0
H732 H 0.88387 0.31588 0.35124 0.0
C733 C 0.93907 0.34171 0.32669 0.0
C734 C 0.92939 0.35196 0.31586 0.0
H735 H 0.93699 0.31492 0.35368 0.0
H736 H 0.95448 0.34863 0.32019 0.0
C737 C 0.90938 0.34238 0.32501 0.0
C738 C 0.67438 0.09614 0.31889 0.0
C739 C 0.68438 0.08635 0.33394 0.0
H740 H 0.64814 0.0941 0.28053 0.0
C741 C 0.67514 0.0665 0.32113 0.0
H742 H 0.68114 0.11146 0.32787 0.0
C743 C 0.65636 0.05662 0.29402 0.0
C744 C 0.64632 0.06633 0.2788 0.0
H745 H 0.68242 0.0585 0.33196 0.0
H746 H 0.64971 0.0413 0.28511 0.0
C747 C 0.65552 0.08622 0.2914 0.0
C748 C 0.90328 0.57361 0.42481 0.0
C749 C 0.89314 0.57938 0.37668 0.0
H750 H 0.92038 0.56027 0.43318 0.0
C751 C 0.89155 0.57473 0.29815 0.0
H752 H 0.90472 0.57688 0.48555 0.0
C753 C 0.90057 0.56519 0.26795 0.0
C754 C 0.91136 0.56012 0.31563 0.0
H755 H 0.88377 0.5789 0.25948 0.0
H756 H 0.89949 0.56226 0.20695 0.0
C757 C 0.9123 0.5641 0.39464 0.0
C758 C 0.42904 0.34308 0.33608 0.0
C759 C 0.41922 0.35302 0.32041 0.0
H760 H 0.42711 0.31704 0.37662 0.0
C761 C 0.39944 0.34393 0.3349 0.0
H762 H 0.4443 0.34973 0.32584 0.0
C763 C 0.38966 0.32532 0.36397 0.0
C764 C 0.39939 0.31532 0.37953 0.0
H765 H 0.39143 0.35116 0.32371 0.0
H766 H 0.37439 0.31877 0.37398 0.0
C767 C 0.41921 0.3244 0.36551 0.0
C768 C 0.32157 0.90037 0.67742 0.0
C769 C 0.31164 0.91024 0.66275 0.0
H770 H 0.34759 0.90216 0.71733 0.0
C771 C 0.3207 0.92996 0.67864 0.0
H772 H 0.31494 0.88515 0.66611 0.0
C773 C 0.33928 0.93963 0.70797 0.0
C774 C 0.34929 0.92986 0.72238 0.0
H775 H 0.31348 0.93802 0.66829 0.0
H776 H 0.3458 0.95486 0.71899 0.0
C777 C 0.34023 0.91009 0.70711 0.0
C778 C 0.09004 0.43465 0.68072 0.0
C779 C 0.07005 0.42451 0.69056 0.0
H780 H 0.11507 0.43326 0.64947 0.0
C781 C 0.05987 0.40478 0.67479 0.0
H782 H 0.09828 0.44988 0.69215 0.0
C783 C 0.06942 0.39532 0.65035 0.0
C784 C 0.08941 0.40535 0.64093 0.0
H785 H 0.04446 0.39652 0.68151 0.0
H786 H 0.06108 0.38008 0.63925 0.0
C787 C 0.09964 0.42515 0.65602 0.0
C788 C 0.5683 0.65656 0.67716 0.0
C789 C 0.57806 0.64645 0.69018 0.0
H790 H 0.57049 0.68329 0.64539 0.0
C791 C 0.59806 0.65605 0.68147 0.0
H792 H 0.55288 0.64954 0.68322 0.0
C793 C 0.6081 0.67528 0.65986 0.0
C794 C 0.59839 0.68539 0.64622 0.0
H795 H 0.60604 0.64871 0.69105 0.0
H796 H 0.62351 0.68218 0.65364 0.0
C797 C 0.57838 0.67586 0.65523 0.0
C798 C 0.34187 0.40232 0.66577 0.0
C799 C 0.35162 0.4222 0.67815 0.0
H800 H 0.31587 0.37746 0.63182 0.0
C801 C 0.34198 0.43241 0.66449 0.0
H802 H 0.34886 0.39401 0.67558 0.0
C803 C 0.32296 0.42287 0.63879 0.0
C804 C 0.31324 0.40295 0.62664 0.0
H805 H 0.34914 0.44776 0.67319 0.0
H806 H 0.31586 0.43107 0.62895 0.0
C807 C 0.32292 0.39281 0.64046 0.0
C808 C 0.56443 0.89423 0.58131 0.0
C809 C 0.57488 0.88884 0.62955 0.0
H810 H 0.54755 0.90785 0.57245 0.0
C811 C 0.57485 0.89186 0.70907 0.0
H812 H 0.56408 0.89203 0.51989 0.0
C813 C 0.56537 0.90091 0.73926 0.0
C814 C 0.55573 0.90717 0.69062 0.0
H815 H 0.58263 0.88773 0.74801 0.0
H816 H 0.56616 0.90356 0.80044 0.0
C817 C 0.55495 0.9033 0.61153 0.0
C818 C 0.09061 0.65816 0.70074 0.0
C819 C 0.07085 0.64862 0.71646 0.0
H820 H 0.11509 0.68384 0.65959 0.0
C821 C 0.06057 0.65813 0.7021 0.0
H822 H 0.09892 0.65118 0.71093 0.0
C823 C 0.06977 0.67671 0.6727 0.0
C824 C 0.08949 0.68628 0.65673 0.0
H825 H 0.04533 0.65122 0.71339 0.0
H826 H 0.06134 0.68356 0.66255 0.0
C827 C 0.09985 0.67682 0.67102 0.0
C828 C 0.10368 0.34123 0.80143 0.0
C829 C 0.12064 0.34517 0.76327 0.0
H830 H 0.08414 0.32629 0.89295 0.0
C831 C 0.13101 0.33658 0.78991 0.0
H832 H 0.09534 0.34761 0.78239 0.0
C833 C 0.12461 0.32438 0.85349 0.0
C834 C 0.10767 0.32047 0.89169 0.0
H835 H 0.14414 0.33933 0.76189 0.0
H836 H 0.13295 0.318 0.87256 0.0
C837 C 0.09726 0.32901 0.8649 0.0
C838 C 0.67051 0.80022 0.87528 0.0
C839 C 0.67893 0.78976 0.90273 0.0
H840 H 0.65206 0.80215 0.79194 0.0
C841 C 0.67485 0.77266 0.86542 0.0
H842 H 0.67337 0.81346 0.90265 0.0
C843 C 0.66264 0.76618 0.80196 0.0
C844 C 0.65426 0.77667 0.77432 0.0
H845 H 0.6811 0.76426 0.88511 0.0
H846 H 0.6598 0.75295 0.77456 0.0
C847 C 0.65831 0.79375 0.81169 0.0
C848 C 0.20366 0.86752 0.89566 0.0
C849 C 0.21241 0.88721 0.91189 0.0
H850 H 0.20268 0.84579 0.82198 0.0
C851 C 0.22721 0.90028 0.86383 0.0
H852 H 0.1922 0.85709 0.93149 0.0
C853 C 0.23313 0.89382 0.80098 0.0
C854 C 0.22447 0.87414 0.7849 0.0
H855 H 0.23423 0.91555 0.87458 0.0
H856 H 0.24462 0.9043 0.76531 0.0
C857 C 0.20966 0.86105 0.83285 0.0
C858 C 0.33809 0.13117 0.06533 0.0
C859 C 0.32672 0.11134 0.05296 0.0
H860 H 0.35914 0.15352 0.13597 0.0
C861 C 0.328 0.09866 0.10473 0.0
H862 H 0.33741 0.14131 0.0266 0.0
C863 C 0.34035 0.10565 0.1676 0.0
C864 C 0.35179 0.12547 0.17986 0.0
H865 H 0.3194 0.0833 0.09697 0.0
H866 H 0.341 0.09548 0.20632 0.0
C867 C 0.35054 0.13816 0.12805 0.0
C868 C 0.87595 0.20145 0.23862 0.0
C869 C 0.88023 0.22059 0.24344 0.0
H870 H 0.87925 0.18054 0.17521 0.0
C871 C 0.89129 0.23347 0.18524 0.0
H872 H 0.86745 0.19117 0.28252 0.0
C873 C 0.89795 0.22737 0.12359 0.0
C874 C 0.89381 0.20827 0.11902 0.0
H875 H 0.89481 0.24832 0.18711 0.0
H876 H 0.90648 0.23768 0.07984 0.0
C877 C 0.88273 0.19536 0.17715 0.0
C878 C 0.76424 0.6613 0.20029 0.0
C879 C 0.77472 0.65296 0.22845 0.0
H880 H 0.7624 0.67972 0.11665 0.0
C881 C 0.79186 0.65704 0.19153 0.0
H882 H 0.75097 0.65844 0.22734 0.0
C883 C 0.79839 0.66921 0.12788 0.0
C884 C 0.78795 0.6776 0.0999 0.0
H885 H 0.80025 0.65082 0.21167 0.0
H886 H 0.81168 0.67209 0.10088 0.0
C887 C 0.7708 0.67349 0.13676 0.0
C888 C 0.86907 0.66011 0.06583 0.0
C889 C 0.88866 0.67363 0.0589 0.0
H890 H 0.84719 0.63715 0.13164 0.0
C891 C 0.90139 0.6743 0.11557 0.0
H892 H 0.8589 0.65925 0.02317 0.0
C893 C 0.89467 0.66176 0.17789 0.0
C894 C 0.8751 0.64816 0.18467 0.0
H895 H 0.91657 0.68458 0.11208 0.0
H896 H 0.90487 0.66265 0.22047 0.0
C897 C 0.86236 0.64745 0.12799 0.0
C898 C 0.30757 0.19605 0.22546 0.0
C899 C 0.30912 0.2084 0.16546 0.0
H900 H 0.31866 0.19306 0.33298 0.0
C901 C 0.32348 0.22777 0.16913 0.0
H902 H 0.29666 0.18104 0.22428 0.0
C903 C 0.33597 0.23468 0.23158 0.0
C904 C 0.33448 0.22233 0.29149 0.0
H905 H 0.32503 0.23768 0.12395 0.0
H906 H 0.34687 0.2497 0.23258 0.0
C907 C 0.32017 0.20294 0.28774 0.0
C908 C 0.80234 0.12538 0.13982 0.0
C909 C 0.78957 0.10893 0.09824 0.0
H910 H 0.80614 0.144 0.23409 0.0
C911 C 0.77031 0.09848 0.12154 0.0
H912 H 0.81727 0.13374 0.12342 0.0
C913 C 0.76396 0.10432 0.185 0.0
C914 C 0.77671 0.12077 0.22658 0.0
H915 H 0.7601 0.08572 0.09089 0.0
H916 H 0.74902 0.09593 0.20129 0.0
C917 C 0.79597 0.13124 0.20335 0.0
C918 C 0.66203 0.89537 0.82104 0.0
C919 C 0.64767 0.87602 0.81614 0.0
H920 H 0.68543 0.91698 0.88543 0.0
C921 C 0.64621 0.86335 0.87465 0.0
H922 H 0.66351 0.90551 0.77702 0.0
C923 C 0.65887 0.86993 0.93682 0.0
C924 C 0.67313 0.88932 0.94193 0.0
H925 H 0.63531 0.84835 0.87246 0.0
H926 H 0.6574 0.85983 0.98098 0.0
C927 C 0.67456 0.90196 0.88337 0.0
C928 C 0.13768 0.79206 0.81636 0.0
C929 C 0.12471 0.77567 0.77492 0.0
H930 H 0.14183 0.81083 0.91045 0.0
C931 C 0.10545 0.7655 0.79832 0.0
H932 H 0.15262 0.80021 0.79987 0.0
C933 C 0.09929 0.77155 0.86174 0.0
C934 C 0.11224 0.78794 0.90319 0.0
H935 H 0.09509 0.75279 0.76778 0.0
H936 H 0.08434 0.76338 0.87813 0.0
C937 C 0.1315 0.79813 0.87984 0.0
C938 C 0.2266 0.32856 0.84469 0.0
C939 C 0.20704 0.31495 0.85194 0.0
H940 H 0.24838 0.35133 0.77831 0.0
C941 C 0.1942 0.31424 0.79574 0.0
H942 H 0.23688 0.32945 0.88689 0.0
C943 C 0.2008 0.32687 0.73347 0.0
C944 C 0.22038 0.34035 0.72594 0.0
H945 H 0.17903 0.30394 0.79979 0.0
H946 H 0.19056 0.32598 0.69112 0.0
C947 C 0.2332 0.34107 0.78225 0.0
C948 C 0.00573 0.43877 0.545 0.0
C949 C 0.02047 0.458 0.5488 0.0
H950 H 0.98187 0.41733 0.48189 0.0
C951 C 0.02218 0.47059 0.48955 0.0
H952 H 0.00405 0.42869 0.5896 0.0
C953 C 0.00938 0.46408 0.42782 0.0
C954 C 0.99472 0.44482 0.42385 0.0
H955 H 0.03337 0.48549 0.49084 0.0
H956 H 0.01105 0.47413 0.38311 0.0
C957 C 0.99304 0.43225 0.48309 0.0
C958 C 0.54888 0.52795 0.51102 0.0
C959 C 0.56048 0.54078 0.45364 0.0
H960 H 0.5335 0.52412 0.61586 0.0
C961 C 0.56547 0.56012 0.45899 0.0
H962 H 0.54475 0.51294 0.50848 0.0
C963 C 0.55913 0.56654 0.52069 0.0
C964 C 0.54755 0.55373 0.57817 0.0
H965 H 0.57442 0.57038 0.41582 0.0
H966 H 0.56331 0.58156 0.52319 0.0
C967 C 0.54242 0.53435 0.57254 0.0
C968 C 0.4615 0.00901 0.62848 0.0
C969 C 0.44206 0.99487 0.63314 0.0
H970 H 0.48337 0.03235 0.56413 0.0
C971 C 0.42958 0.99353 0.57407 0.0
H972 H 0.47148 0.0104 0.67307 0.0
C973 C 0.43641 0.00598 0.51149 0.0
C974 C 0.45584 0.02016 0.50684 0.0
H975 H 0.41452 0.98276 0.57579 0.0
H976 H 0.4264 0.00454 0.46694 0.0
C977 C 0.46831 0.02158 0.56607 0.0
C978 C 0.5271 0.97466 0.43593 0.0
C979 C 0.5396 0.97596 0.49482 0.0
H980 H 0.52393 0.98594 0.32918 0.0
C981 C 0.55907 0.99001 0.48983 0.0
H982 H 0.51201 0.964 0.43814 0.0
C983 C 0.56591 0.00246 0.42724 0.0
C984 C 0.5534 0.00124 0.36851 0.0
H985 H 0.56909 0.99135 0.53411 0.0
H986 H 0.58099 0.01312 0.42527 0.0
C987 C 0.53392 0.98723 0.3735 0.0
C988 C 0.99785 0.53366 0.50408 0.0
C989 C 0.99121 0.54526 0.47202 0.0
H990 H 0.01465 0.53055 0.59191 0.0
C991 C 0.99682 0.56318 0.50545 0.0
H992 H 0.99377 0.51977 0.47974 0.0
C993 C 0.00874 0.56933 0.56973 0.0
C994 C 0.01531 0.5577 0.60208 0.0
H995 H 0.99196 0.57247 0.48222 0.0
H996 H 0.01277 0.58321 0.59407 0.0
C997 C 0.00978 0.53982 0.56851 0.0
C998 C 0.43682 0.43231 0.46149 0.0
C999 C 0.45625 0.44192 0.44029 0.0
H1000 H 0.41559 0.43067 0.53947 0.0
C1001 C 0.46939 0.4578 0.48371 0.0
H1002 H 0.42633 0.42 0.42938 0.0
C1003 C 0.46322 0.46393 0.54703 0.0
C1004 C 0.44379 0.45428 0.56824 0.0
H1005 H 0.48446 0.46551 0.46892 0.0
H1006 H 0.47369 0.47623 0.57925 0.0
C1007 C 0.43067 0.43841 0.52477 0.0
C1008 C 0.10924 0.34541 0.27031 0.0
C1009 C 0.09432 0.32637 0.26205 0.0
H1010 H 0.12438 0.36936 0.34546 0.0
C1011 C 0.08261 0.31701 0.32568 0.0
H1012 H 0.11849 0.35306 0.22241 0.0
C1013 C 0.08604 0.32636 0.39646 0.0
C1014 C 0.10117 0.34529 0.40501 0.0
H1015 H 0.07099 0.30234 0.32125 0.0
H1016 H 0.07694 0.31865 0.44464 0.0
C1017 C 0.1126 0.35478 0.3409 0.0
C1018 C 0.65079 0.75143 0.3411 0.0
C1019 C 0.66011 0.7632 0.40462 0.0
H1020 H 0.65244 0.74574 0.22216 0.0
C1021 C 0.6791 0.77822 0.3962 0.0
H1022 H 0.63617 0.73973 0.34565 0.0
C1023 C 0.68845 0.78161 0.32555 0.0
C1024 C 0.679 0.77012 0.26154 0.0
H1025 H 0.68672 0.78751 0.44402 0.0
H1026 H 0.703 0.79347 0.32087 0.0
C1027 C 0.66012 0.75489 0.27026 0.0
C1028 C 0.2465 0.90436 0.2726 0.0
C1029 C 0.23149 0.90831 0.26334 0.0
H1030 H 0.26091 0.8947 0.34797 0.0
C1031 C 0.21966 0.90595 0.3265 0.0
H1032 H 0.25591 0.90605 0.22517 0.0
C1033 C 0.22248 0.89936 0.39675 0.0
C1034 C 0.23725 0.89507 0.40564 0.0
H1035 H 0.20796 0.90885 0.3214 0.0
H1036 H 0.21291 0.89745 0.44386 0.0
C1037 C 0.24938 0.89786 0.34304 0.0
C1038 C 0.32366 0.09984 0.5729 0.0
C1039 C 0.34276 0.10427 0.56336 0.0
H1040 H 0.29956 0.08965 0.64824 0.0
C1041 C 0.35202 0.10084 0.6245 0.0
H1042 H 0.31607 0.10222 0.52687 0.0
C1043 C 0.34254 0.09365 0.69437 0.0
C1044 C 0.32358 0.08966 0.70446 0.0
H1045 H 0.36673 0.10408 0.619 0.0
H1046 H 0.3502 0.09153 0.74086 0.0
C1047 C 0.31417 0.09257 0.64253 0.0
C1048 C 0.91391 0.23092 0.66805 0.0
C1049 C 0.90102 0.22669 0.72917 0.0
H1050 H 0.92101 0.24035 0.55168 0.0
C1051 C 0.8853 0.22949 0.7191 0.0
H1052 H 0.92618 0.22893 0.67393 0.0
C1053 C 0.88238 0.23612 0.64916 0.0
C1054 C 0.89506 0.24 0.58753 0.0
H1055 H 0.87512 0.22643 0.76508 0.0
H1056 H 0.86999 0.23791 0.64312 0.0
C1057 C 0.91094 0.23746 0.59793 0.0
C1058 C 0.77998 0.68705 0.67677 0.0
C1059 C 0.76831 0.67778 0.74057 0.0
H1060 H 0.786 0.6851 0.55863 0.0
C1061 C 0.75284 0.65903 0.73177 0.0
H1062 H 0.79202 0.70149 0.6815 0.0
C1063 C 0.74934 0.64963 0.66107 0.0
C1064 C 0.7613 0.65875 0.59778 0.0
H1065 H 0.74354 0.6515 0.77971 0.0
H1066 H 0.73747 0.6351 0.65646 0.0
C1067 C 0.77655 0.67763 0.60627 0.0
C1068 C 0.89955 0.64998 0.63316 0.0
C1069 C 0.89524 0.65878 0.57285 0.0
H1070 H 0.9095 0.65225 0.74872 0.0
C1071 C 0.89863 0.67752 0.58316 0.0
H1072 H 0.89712 0.63556 0.62707 0.0
C1073 C 0.9058 0.68712 0.65268 0.0
C1074 C 0.90965 0.67815 0.71373 0.0
H1075 H 0.89554 0.68476 0.53779 0.0
H1076 H 0.90795 0.70143 0.65899 0.0
C1077 C 0.90664 0.65955 0.70293 0.0
C1078 C 0.33953 0.23273 0.7646 0.0
C1079 C 0.32062 0.22884 0.77486 0.0
H1080 H 0.36356 0.2427 0.68899 0.0
C1081 C 0.31167 0.23304 0.71485 0.0
H1082 H 0.3469 0.22975 0.80975 0.0
C1083 C 0.32124 0.24047 0.64531 0.0
C1084 C 0.33999 0.24392 0.63446 0.0
H1085 H 0.29711 0.23024 0.72093 0.0
H1086 H 0.3138 0.24319 0.59966 0.0
C1087 C 0.34912 0.24022 0.69531 0.0
C1088 C 0.76714 0.08307 0.66181 0.0
C1089 C 0.76915 0.0947 0.72528 0.0
H1090 H 0.7597 0.07703 0.54311 0.0
C1091 C 0.76423 0.10906 0.717 0.0
H1092 H 0.77079 0.07187 0.66625 0.0
C1093 C 0.7578 0.11196 0.64654 0.0
C1094 C 0.75622 0.10063 0.58257 0.0
H1095 H 0.76553 0.11823 0.76478 0.0
H1096 H 0.7544 0.12333 0.64196 0.0
C1097 C 0.76079 0.08604 0.59118 0.0
C1098 C 0.68663 0.90649 0.34722 0.0
C1099 C 0.67776 0.9104 0.28602 0.0
H1100 H 0.68414 0.89622 0.46214 0.0
C1101 C 0.65919 0.90751 0.29661 0.0
H1102 H 0.70091 0.90855 0.34109 0.0
C1103 C 0.64957 0.90047 0.36633 0.0
C1104 C 0.65827 0.89608 0.42676 0.0
H1105 H 0.65196 0.91042 0.25069 0.0
H1106 H 0.63517 0.89811 0.37227 0.0
C1107 C 0.67698 0.89936 0.41666 0.0
C1108 C 0.10163 0.74972 0.33908 0.0
C1109 C 0.10448 0.7618 0.40191 0.0
H1110 H 0.09355 0.74343 0.22099 0.0
C1111 C 0.10043 0.77675 0.39322 0.0
H1112 H 0.1046 0.73806 0.34384 0.0
C1113 C 0.09402 0.77978 0.32295 0.0
C1114 C 0.09159 0.76799 0.25956 0.0
H1115 H 0.1024 0.78629 0.44051 0.0
H1116 H 0.0913 0.79161 0.31804 0.0
C1117 C 0.0953 0.75281 0.26861 0.0
C1118 C 0.23024 0.34329 0.24946 0.0
C1119 C 0.22712 0.32464 0.2393 0.0
H1120 H 0.23927 0.3672 0.32504 0.0
C1121 C 0.23163 0.31601 0.29967 0.0
H1122 H 0.22701 0.3504 0.20403 0.0
C1123 C 0.23862 0.32566 0.36939 0.0
C1124 C 0.24137 0.34416 0.38002 0.0
H1125 H 0.22939 0.30166 0.29368 0.0
H1126 H 0.24163 0.31848 0.41527 0.0
C1127 C 0.23733 0.35296 0.31888 0.0
C1128 C 0.01769 0.43441 0.99944 0.0
C1129 C 0.00898 0.43882 0.93907 0.0
H1130 H 0.01536 0.42448 0.11503 0.0
C1131 C 0.99035 0.43571 0.94947 0.0
H1132 H 0.03203 0.43662 0.99327 0.0
C1133 C 0.98077 0.42868 0.01912 0.0
C1134 C 0.98963 0.42467 0.08011 0.0
H1135 H 0.98319 0.43888 0.90406 0.0
H1136 H 0.96653 0.42671 0.02548 0.0
C1137 C 0.00813 0.42745 0.06927 0.0
C1138 C 0.55329 0.56299 0.05491 0.0
C1139 C 0.56851 0.55939 0.06463 0.0
H1140 H 0.5386 0.57219 0.97916 0.0
C1141 C 0.58116 0.563 0.00312 0.0
H1142 H 0.54332 0.56043 0.10118 0.0
C1143 C 0.57843 0.56971 0.93297 0.0
C1144 C 0.56304 0.57305 0.92292 0.0
H1145 H 0.59304 0.56039 0.00872 0.0
H1146 H 0.58828 0.57211 0.88641 0.0
C1147 C 0.55061 0.56979 0.98493 0.0
C1148 C 0.43196 0.98971 0.1063 0.0
C1149 C 0.43522 0.00841 0.11689 0.0
H1150 H 0.42258 0.9658 0.03047 0.0
C1151 C 0.43049 0.01704 0.05731 0.0
H1152 H 0.43536 0.9826 0.15114 0.0
C1153 C 0.42317 0.0074 0.98785 0.0
C1154 C 0.42036 0.98888 0.97663 0.0
H1155 H 0.4328 0.03142 0.06365 0.0
H1156 H 0.42003 0.0146 0.94252 0.0
C1157 C 0.42457 0.98005 0.03708 0.0
C1158 C 0.56512 0.97927 0.94382 0.0
C1159 C 0.56028 0.98788 0.88449 0.0
H1160 H 0.57569 0.98171 0.05841 0.0
C1161 C 0.56345 0.00653 0.89535 0.0
H1162 H 0.56289 0.96493 0.93726 0.0
C1163 C 0.57085 0.01617 0.96459 0.0
C1164 C 0.57518 0.00736 0.02478 0.0
H1165 H 0.55995 0.01363 0.85072 0.0
H1166 H 0.57277 0.03039 0.97143 0.0
C1167 C 0.57246 0.98889 0.01329 0.0
C1168 C 0.02087 0.58418 0.03316 0.0
C1169 C 0.01016 0.57607 0.96607 0.0
H1170 H 0.02057 0.58652 0.15539 0.0
C1171 C 0.99015 0.56441 0.97201 0.0
H1172 H 0.03629 0.59327 0.03064 0.0
C1173 C 0.98112 0.56053 0.0436 0.0
C1174 C 0.99189 0.56823 0.1109 0.0
H1175 H 0.98145 0.55796 0.92148 0.0
H1176 H 0.96573 0.55118 0.04623 0.0
C1177 C 0.01183 0.58032 0.10474 0.0
C1178 C 0.43313 0.41653 0.00283 0.0
C1179 C 0.43623 0.42874 0.06545 0.0
H1180 H 0.42484 0.41016 0.88498 0.0
C1181 C 0.43247 0.44388 0.05658 0.0
H1182 H 0.43588 0.40473 0.00774 0.0
C1183 C 0.42606 0.44695 0.98636 0.0
C1184 C 0.42336 0.435 0.92321 0.0
H1185 H 0.43464 0.45352 0.10371 0.0
H1186 H 0.42355 0.45891 0.9813 0.0
C1187 C 0.42681 0.41966 0.93241 0.0
loop_
_geom_bond_atom_site_label_1
_geom_bond_atom_site_label_2
_geom_bond_distance
_geom_bond_site_symmetry_2
_ccdc_geom_bond_type
C0 O1 1.160 . S
C0 O7 1.185 . S
O1 C0 1.160 . S
O2 Zn3 1.899 . S
O2 C10 1.284 . S
Zn3 O2 1.899 . S
Zn3 O4 2.032 1_554 S
Zn3 O7 2.086 . S
Zn3 O12 1.977 . S
O4 Zn3 2.032 1_556 S
O4 C8 1.278 . S
C5 O6 1.203 . S
C5 O12 1.267 . S
O6 C5 1.203 . S
O7 C0 1.185 . S
O7 Zn3 2.086 . S
C8 O4 1.278 . S
C8 O9 1.211 . S
O9 C8 1.211 . S
C10 O2 1.284 . S
C10 O11 1.273 . S
O11 C10 1.273 . S
O12 Zn3 1.977 . S
O12 C5 1.267 . S
C13 O14 1.160 . S
C13 O20 1.185 . S
O14 C13 1.160 . S
O15 Zn16 1.899 . S
O15 C23 1.284 . S
Zn16 O15 1.899 . S
Zn16 O17 2.032 1_554 S
Zn16 O20 2.086 . S
Zn16 O25 1.977 . S
O17 Zn16 2.032 1_556 S
O17 C21 1.278 . S
C18 O19 1.203 . S
C18 O25 1.267 . S
O19 C18 1.203 . S
O20 C13 1.185 . S
O20 Zn16 2.086 . S
C21 O17 1.278 . S
C21 O22 1.211 . S
O22 C21 1.211 . S
C23 O15 1.284 . S
C23 O24 1.273 . S
O24 C23 1.273 . S
O25 Zn16 1.977 . S
O25 C18 1.267 . S
C26 O27 1.160 . S
C26 O33 1.185 . S
O27 C26 1.160 . S
O28 Zn29 1.899 . S
O28 C36 1.284 . S
Zn29 O28 1.899 . S
Zn29 O30 2.032 1_554 S
Zn29 O33 2.086 . S
Zn29 O38 1.977 . S
O30 Zn29 2.032 1_556 S
O30 C34 1.278 . S
C31 O32 1.203 . S
C31 O38 1.267 . S
O32 C31 1.203 . S
O33 C26 1.185 . S
O33 Zn29 2.086 . S
C34 O30 1.278 . S
C34 O35 1.211 . S
O35 C34 1.211 . S
C36 O28 1.284 . S
C36 O37 1.273 . S
O37 C36 1.273 . S
O38 Zn29 1.977 . S
O38 C31 1.267 . S
C39 O40 1.160 . S
C39 O46 1.185 . S
O40 C39 1.160 . S
O41 Zn42 1.899 . S
O41 C49 1.284 . S
Zn42 O41 1.899 . S
Zn42 O43 2.032 1_556 S
Zn42 O46 2.086 . S
Zn42 O51 1.977 . S
O43 Zn42 2.032 1_554 S
O43 C47 1.278 . S
C44 O45 1.203 . S
C44 O51 1.267 . S
O45 C44 1.203 . S
O46 C39 1.185 . S
O46 Zn42 2.086 . S
C47 O43 1.278 . S
C47 O48 1.211 . S
O48 C47 1.211 . S
C49 O41 1.284 . S
C49 O50 1.273 . S
O50 C49 1.273 . S
O51 Zn42 1.977 . S
O51 C44 1.267 . S
C52 O53 1.160 . S
C52 O59 1.185 . S
O53 C52 1.160 . S
O54 Zn55 1.899 . S
O54 C62 1.284 . S
Zn55 O54 1.899 . S
Zn55 O56 2.032 1_556 S
Zn55 O59 2.086 . S
Zn55 O64 1.977 . S
O56 Zn55 2.032 1_554 S
O56 C60 1.278 . S
C57 O58 1.203 . S
C57 O64 1.267 . S
O58 C57 1.203 . S
O59 C52 1.185 . S
O59 Zn55 2.086 . S
C60 O56 1.278 . S
C60 O61 1.211 . S
O61 C60 1.211 . S
C62 O54 1.284 . S
C62 O63 1.273 . S
O63 C62 1.273 . S
O64 Zn55 1.977 . S
O64 C57 1.267 . S
C65 O66 1.160 . S
C65 O72 1.185 . S
O66 C65 1.160 . S
O67 Zn68 1.899 . S
O67 C75 1.284 . S
Zn68 O67 1.899 . S
Zn68 O69 2.032 1_556 S
Zn68 O72 2.086 . S
Zn68 O77 1.977 . S
O69 Zn68 2.032 1_554 S
O69 C73 1.278 . S
C70 O71 1.203 . S
C70 O77 1.267 . S
O71 C70 1.203 . S
O72 C65 1.185 . S
O72 Zn68 2.086 . S
C73 O69 1.278 . S
C73 O74 1.211 . S
O74 C73 1.211 . S
C75 O67 1.284 . S
C75 O76 1.273 . S
O76 C75 1.273 . S
O77 Zn68 1.977 . S
O77 C70 1.267 . S
C78 O79 1.160 . S
C78 O85 1.185 . S
O79 C78 1.160 . S
O80 Zn81 1.899 . S
O80 C88 1.284 . S
Zn81 O80 1.899 . S
Zn81 O82 2.032 1_556 S
Zn81 O85 2.086 . S
Zn81 O90 1.977 . S
O82 Zn81 2.032 1_554 S
O82 C86 1.278 . S
C83 O84 1.203 . S
C83 O90 1.267 . S
O84 C83 1.203 . S
O85 C78 1.185 . S
O85 Zn81 2.086 . S
C86 O82 1.278 . S
C86 O87 1.211 . S
O87 C86 1.211 . S
C88 O80 1.284 . S
C88 O89 1.273 . S
O89 C88 1.273 . S
O90 Zn81 1.977 . S
O90 C83 1.267 . S
C91 O92 1.160 . S
C91 O98 1.185 . S
O92 C91 1.160 . S
O93 Zn94 1.899 . S
O93 C101 1.284 . S
Zn94 O93 1.899 . S
Zn94 O95 2.032 1_556 S
Zn94 O98 2.086 . S
Zn94 O103 1.977 . S
O95 Zn94 2.032 1_554 S
O95 C99 1.278 . S
C96 O97 1.203 . S
C96 O103 1.267 . S
O97 C96 1.203 . S
O98 C91 1.185 . S
O98 Zn94 2.086 . S
C99 O95 1.278 . S
C99 O100 1.211 . S
O100 C99 1.211 . S
C101 O93 1.284 . S
C101 O102 1.273 . S
O102 C101 1.273 . S
O103 Zn94 1.977 . S
O103 C96 1.267 . S
C104 O105 1.160 . S
C104 O111 1.185 . S
O105 C104 1.160 . S
O106 Zn107 1.899 . S
O106 C114 1.284 . S
Zn107 O106 1.899 . S
Zn107 O108 2.032 1_556 S
Zn107 O111 2.086 . S
Zn107 O116 1.977 . S
O108 Zn107 2.032 1_554 S
O108 C112 1.278 . S
C109 O110 1.203 . S
C109 O116 1.267 . S
O110 C109 1.203 . S
O111 C104 1.185 . S
O111 Zn107 2.086 . S
C112 O108 1.278 . S
C112 O113 1.211 . S
O113 C112 1.211 . S
C114 O106 1.284 . S
C114 O115 1.273 . S
O115 C114 1.273 . S
O116 Zn107 1.977 . S
O116 C109 1.267 . S
C117 O118 1.160 . S
C117 O124 1.185 . S
O118 C117 1.160 . S
O119 Zn120 1.899 . S
O119 C127 1.284 . S
Zn120 O119 1.899 . S
Zn120 O121 2.032 1_554 S
Zn120 O124 2.086 . S
Zn120 O129 1.977 . S
O121 Zn120 2.032 1_556 S
O121 C125 1.278 . S
C122 O123 1.203 . S
C122 O129 1.267 . S
O123 C122 1.203 . S
O124 C117 1.185 . S
O124 Zn120 2.086 . S
C125 O121 1.278 . S
C125 O126 1.211 . S
O126 C125 1.211 . S
C127 O119 1.284 . S
C127 O128 1.273 . S
O128 C127 1.273 . S
O129 Zn120 1.977 . S
O129 C122 1.267 . S
C130 O131 1.160 . S
C130 O137 1.185 . S
O131 C130 1.160 . S
O132 Zn133 1.899 . S
O132 C140 1.284 . S
Zn133 O132 1.899 . S
Zn133 O134 2.032 1_554 S
Zn133 O137 2.086 . S
Zn133 O142 1.977 . S
O134 Zn133 2.032 1_556 S
O134 C138 1.278 . S
C135 O136 1.203 . S
C135 O142 1.267 . S
O136 C135 1.203 . S
O137 C130 1.185 . S
O137 Zn133 2.086 . S
C138 O134 1.278 . S
C138 O139 1.211 . S
O139 C138 1.211 . S
C140 O132 1.284 . S
C140 O141 1.273 . S
O141 C140 1.273 . S
O142 Zn133 1.977 . S
O142 C135 1.267 . S
C143 O144 1.160 . S
C143 O150 1.185 . S
O144 C143 1.160 . S
O145 Zn146 1.899 . S
O145 C153 1.284 . S
Zn146 O145 1.899 . S
Zn146 O147 2.032 1_554 S
Zn146 O150 2.086 . S
Zn146 O155 1.977 . S
O147 Zn146 2.032 1_556 S
O147 C151 1.278 . S
C148 O149 1.203 . S
C148 O155 1.267 . S
O149 C148 1.203 . S
O150 C143 1.185 . S
O150 Zn146 2.086 . S
C151 O147 1.278 . S
C151 O152 1.211 . S
O152 C151 1.211 . S
C153 O145 1.284 . S
C153 O154 1.273 . S
O154 C153 1.273 . S
O155 Zn146 1.977 . S
O155 C148 1.267 . S
C156 O157 1.160 . S
C156 O163 1.185 . S
O157 C156 1.160 . S
O158 Zn159 1.899 . S
O158 C166 1.284 . S
Zn159 O158 1.899 . S
Zn159 O160 2.032 . S
Zn159 O163 2.086 . S
Zn159 O168 1.977 . S
O160 Zn159 2.032 . S
O160 C164 1.278 . S
C161 O162 1.203 . S
C161 O168 1.267 . S
O162 C161 1.203 . S
O163 C156 1.185 . S
O163 Zn159 2.086 . S
C164 O160 1.278 . S
C164 O165 1.211 . S
O165 C164 1.211 . S
C166 O158 1.284 . S
C166 O167 1.273 . S
O167 C166 1.273 . S
O168 Zn159 1.977 . S
O168 C161 1.267 . S
C169 O170 1.160 . S
C169 O176 1.185 . S
O170 C169 1.160 . S
O171 Zn172 1.899 . S
O171 C179 1.284 . S
Zn172 O171 1.899 . S
Zn172 O173 2.032 . S
Zn172 O176 2.086 . S
Zn172 O181 1.977 . S
O173 Zn172 2.032 . S
O173 C177 1.278 . S
C174 O175 1.203 . S
C174 O181 1.267 . S
O175 C174 1.203 . S
O176 C169 1.185 . S
O176 Zn172 2.086 . S
C177 O173 1.278 . S
C177 O178 1.211 . S
O178 C177 1.211 . S
C179 O171 1.284 . S
C179 O180 1.273 . S
O180 C179 1.273 . S
O181 Zn172 1.977 . S
O181 C174 1.267 . S
C182 O183 1.160 . S
C182 O189 1.185 . S
O183 C182 1.160 . S
O184 Zn185 1.899 . S
O184 C192 1.284 . S
Zn185 O184 1.899 . S
Zn185 O186 2.032 . S
Zn185 O189 2.086 . S
Zn185 O194 1.977 . S
O186 Zn185 2.032 . S
O186 C190 1.278 . S
C187 O188 1.203 . S
C187 O194 1.267 . S
O188 C187 1.203 . S
O189 C182 1.185 . S
O189 Zn185 2.086 . S
C190 O186 1.278 . S
C190 O191 1.211 . S
O191 C190 1.211 . S
C192 O184 1.284 . S
C192 O193 1.273 . S
O193 C192 1.273 . S
O194 Zn185 1.977 . S
O194 C187 1.267 . S
C195 O196 1.160 . S
C195 O202 1.185 . S
O196 C195 1.160 . S
O197 Zn198 1.899 . S
O197 C205 1.284 . S
Zn198 O197 1.899 . S
Zn198 O199 2.032 . S
Zn198 O202 2.086 . S
Zn198 O207 1.977 . S
O199 Zn198 2.032 . S
O199 C203 1.278 . S
C200 O201 1.203 . S
C200 O207 1.267 . S
O201 C200 1.203 . S
O202 C195 1.185 . S
O202 Zn198 2.086 . S
C203 O199 1.278 . S
C203 O204 1.211 . S
O204 C203 1.211 . S
C205 O197 1.284 . S
C205 O206 1.273 . S
O206 C205 1.273 . S
O207 Zn198 1.977 . S
O207 C200 1.267 . S
C208 O209 1.160 . S
C208 O215 1.185 . S
O209 C208 1.160 . S
O210 Zn211 1.899 . S
O210 C218 1.284 . S
Zn211 O210 1.899 . S
Zn211 O212 2.032 . S
Zn211 O215 2.086 . S
Zn211 O220 1.977 . S
O212 Zn211 2.032 . S
O212 C216 1.278 . S
C213 O214 1.203 . S
C213 O220 1.267 . S
O214 C213 1.203 . S
O215 C208 1.185 . S
O215 Zn211 2.086 . S
C216 O212 1.278 . S
C216 O217 1.211 . S
O217 C216 1.211 . S
C218 O210 1.284 . S
C218 O219 1.273 . S
O219 C218 1.273 . S
O220 Zn211 1.977 . S
O220 C213 1.267 . S
C221 O222 1.160 . S
C221 O228 1.185 . S
O222 C221 1.160 . S
O223 Zn224 1.899 . S
O223 C231 1.284 . S
Zn224 O223 1.899 . S
Zn224 O225 2.032 . S
Zn224 O228 2.086 . S
Zn224 O233 1.977 . S
O225 Zn224 2.032 . S
O225 C229 1.278 . S
C226 O227 1.203 . S
C226 O233 1.267 . S
O227 C226 1.203 . S
O228 C221 1.185 . S
O228 Zn224 2.086 . S
C229 O225 1.278 . S
C229 O230 1.211 . S
O230 C229 1.211 . S
C231 O223 1.284 . S
C231 O232 1.273 . S
O232 C231 1.273 . S
O233 Zn224 1.977 . S
O233 C226 1.267 . S
C234 O235 1.160 . S
C234 O241 1.185 . S
O235 C234 1.160 . S
O236 Zn237 1.899 . S
O236 C244 1.284 . S
Zn237 O236 1.899 . S
Zn237 O238 2.032 . S
Zn237 O241 2.086 . S
Zn237 O246 1.977 . S
O238 Zn237 2.032 . S
O238 C242 1.278 . S
C239 O240 1.203 . S
C239 O246 1.267 . S
O240 C239 1.203 . S
O241 C234 1.185 . S
O241 Zn237 2.086 . S
C242 O238 1.278 . S
C242 O243 1.211 . S
O243 C242 1.211 . S
C244 O236 1.284 . S
C244 O245 1.273 . S
O245 C244 1.273 . S
O246 Zn237 1.977 . S
O246 C239 1.267 . S
C247 O248 1.160 . S
C247 O254 1.185 . S
O248 C247 1.160 . S
O249 Zn250 1.899 . S
O249 C257 1.284 . S
Zn250 O249 1.899 . S
Zn250 O251 2.032 . S
Zn250 O254 2.086 . S
Zn250 O259 1.977 . S
O251 Zn250 2.032 . S
O251 C255 1.278 . S
C252 O253 1.203 . S
C252 O259 1.267 . S
O253 C252 1.203 . S
O254 C247 1.185 . S
O254 Zn250 2.086 . S
C255 O251 1.278 . S
C255 O256 1.211 . S
O256 C255 1.211 . S
C257 O249 1.284 . S
C257 O258 1.273 . S
O258 C257 1.273 . S
O259 Zn250 1.977 . S
O259 C252 1.267 . S
C260 O261 1.160 . S
C260 O267 1.185 . S
O261 C260 1.160 . S
O262 Zn263 1.899 . S
O262 C270 1.284 . S
Zn263 O262 1.899 . S
Zn263 O264 2.032 . S
Zn263 O267 2.086 . S
Zn263 O272 1.977 . S
O264 Zn263 2.032 . S
O264 C268 1.278 . S
C265 O266 1.203 . S
C265 O272 1.267 . S
O266 C265 1.203 . S
O267 C260 1.185 . S
O267 Zn263 2.086 . S
C268 O264 1.278 . S
C268 O269 1.211 . S
O269 C268 1.211 . S
C270 O262 1.284 . S
C270 O271 1.273 . S
O271 C270 1.273 . S
O272 Zn263 1.977 . S
O272 C265 1.267 . S
C273 O274 1.160 . S
C273 O280 1.185 . S
O274 C273 1.160 . S
O275 Zn276 1.899 . S
O275 C283 1.284 . S
Zn276 O275 1.899 . S
Zn276 O277 2.032 . S
Zn276 O280 2.086 . S
Zn276 O285 1.977 . S
O277 Zn276 2.032 . S
O277 C281 1.278 . S
C278 O279 1.203 . S
C278 O285 1.267 . S
O279 C278 1.203 . S
O280 C273 1.185 . S
O280 Zn276 2.086 . S
C281 O277 1.278 . S
C281 O282 1.211 . S
O282 C281 1.211 . S
C283 O275 1.284 . S
C283 O284 1.273 . S
O284 C283 1.273 . S
O285 Zn276 1.977 . S
O285 C278 1.267 . S
C286 O287 1.160 . S
C286 O293 1.185 . S
O287 C286 1.160 . S
O288 Zn289 1.899 . S
O288 C296 1.284 . S
Zn289 O288 1.899 . S
Zn289 O290 2.032 . S
Zn289 O293 2.086 . S
Zn289 O298 1.977 . S
O290 Zn289 2.032 . S
O290 C294 1.278 . S
C291 O292 1.203 . S
C291 O298 1.267 . S
O292 C291 1.203 . S
O293 C286 1.185 . S
O293 Zn289 2.086 . S
C294 O290 1.278 . S
C294 O295 1.211 . S
O295 C294 1.211 . S
C296 O288 1.284 . S
C296 O297 1.273 . S
O297 C296 1.273 . S
O298 Zn289 1.977 . S
O298 C291 1.267 . S
C299 O300 1.160 . S
C299 O306 1.185 . S
O300 C299 1.160 . S
O301 Zn302 1.899 . S
O301 C309 1.284 . S
Zn302 O301 1.899 . S
Zn302 O303 2.032 . S
Zn302 O306 2.086 . S
Zn302 O311 1.977 . S
O303 Zn302 2.032 . S
O303 C307 1.278 . S
C304 O305 1.203 . S
C304 O311 1.267 . S
O305 C304 1.203 . S
O306 C299 1.185 . S
O306 Zn302 2.086 . S
C307 O303 1.278 . S
C307 O308 1.211 . S
O308 C307 1.211 . S
C309 O301 1.284 . S
C309 O310 1.273 . S
O310 C309 1.273 . S
O311 Zn302 1.977 . S
O311 C304 1.267 . S
C312 O313 1.160 . S
C312 O319 1.185 . S
O313 C312 1.160 . S
O314 Zn315 1.899 . S
O314 C322 1.284 . S
Zn315 O314 1.899 . S
Zn315 O316 2.032 . S
Zn315 O319 2.086 . S
Zn315 O324 1.977 . S
O316 Zn315 2.032 . S
O316 C320 1.278 . S
C317 O318 1.203 . S
C317 O324 1.267 . S
O318 C317 1.203 . S
O319 C312 1.185 . S
O319 Zn315 2.086 . S
C320 O316 1.278 . S
C320 O321 1.211 . S
O321 C320 1.211 . S
C322 O314 1.284 . S
C322 O323 1.273 . S
O323 C322 1.273 . S
O324 Zn315 1.977 . S
O324 C317 1.267 . S
C325 O326 1.160 . S
C325 O332 1.185 . S
O326 C325 1.160 . S
O327 Zn328 1.899 . S
O327 C335 1.284 . S
Zn328 O327 1.899 . S
Zn328 O329 2.032 . S
Zn328 O332 2.086 . S
Zn328 O337 1.977 . S
O329 Zn328 2.032 . S
O329 C333 1.278 . S
C330 O331 1.203 . S
C330 O337 1.267 . S
O331 C330 1.203 . S
O332 C325 1.185 . S
O332 Zn328 2.086 . S
C333 O329 1.278 . S
C333 O334 1.211 . S
O334 C333 1.211 . S
C335 O327 1.284 . S
C335 O336 1.273 . S
O336 C335 1.273 . S
O337 Zn328 1.977 . S
O337 C330 1.267 . S
C338 O339 1.160 . S
C338 O345 1.185 . S
O339 C338 1.160 . S
O340 Zn341 1.899 . S
O340 C348 1.284 . S
Zn341 O340 1.899 . S
Zn341 O342 2.032 . S
Zn341 O345 2.086 . S
Zn341 O350 1.977 . S
O342 Zn341 2.032 . S
O342 C346 1.278 . S
C343 O344 1.203 . S
C343 O350 1.267 . S
O344 C343 1.203 . S
O345 C338 1.185 . S
O345 Zn341 2.086 . S
C346 O342 1.278 . S
C346 O347 1.211 . S
O347 C346 1.211 . S
C348 O340 1.284 . S
C348 O349 1.273 . S
O349 C348 1.273 . S
O350 Zn341 1.977 . S
O350 C343 1.267 . S
C351 O352 1.160 . S
C351 O358 1.185 . S
O352 C351 1.160 . S
O353 Zn354 1.899 . S
O353 C361 1.284 . S
Zn354 O353 1.899 . S
Zn354 O355 2.032 . S
Zn354 O358 2.086 . S
Zn354 O363 1.977 . S
O355 Zn354 2.032 . S
O355 C359 1.278 . S
C356 O357 1.203 . S
C356 O363 1.267 . S
O357 C356 1.203 . S
O358 C351 1.185 . S
O358 Zn354 2.086 . S
C359 O355 1.278 . S
C359 O360 1.211 . S
O360 C359 1.211 . S
C361 O353 1.284 . S
C361 O362 1.273 . S
O362 C361 1.273 . S
O363 Zn354 1.977 . S
O363 C356 1.267 . S
C364 O365 1.160 . S
C364 O371 1.185 . S
O365 C364 1.160 . S
O366 Zn367 1.899 . S
O366 C374 1.284 . S
Zn367 O366 1.899 . S
Zn367 O368 2.032 . S
Zn367 O371 2.086 . S
Zn367 O376 1.977 . S
O368 Zn367 2.032 . S
O368 C372 1.278 . S
C369 O370 1.203 . S
C369 O376 1.267 . S
O370 C369 1.203 . S
O371 C364 1.185 . S
O371 Zn367 2.086 . S
C372 O368 1.278 . S
C372 O373 1.211 . S
O373 C372 1.211 . S
C374 O366 1.284 . S
C374 O375 1.273 . S
O375 C374 1.273 . S
O376 Zn367 1.977 . S
O376 C369 1.267 . S
C377 O378 1.160 . S
C377 O384 1.185 . S
O378 C377 1.160 . S
O379 Zn380 1.899 . S
O379 C387 1.284 . S
Zn380 O379 1.899 . S
Zn380 O381 2.032 . S
Zn380 O384 2.086 . S
Zn380 O389 1.977 . S
O381 Zn380 2.032 . S
O381 C385 1.278 . S
C382 O383 1.203 . S
C382 O389 1.267 . S
O383 C382 1.203 . S
O384 C377 1.185 . S
O384 Zn380 2.086 . S
C385 O381 1.278 . S
C385 O386 1.211 . S
O386 C385 1.211 . S
C387 O379 1.284 . S
C387 O388 1.273 . S
O388 C387 1.273 . S
O389 Zn380 1.977 . S
O389 C382 1.267 . S
C390 O391 1.160 . S
C390 O397 1.185 . S
O391 C390 1.160 . S
O392 Zn393 1.899 . S
O392 C400 1.284 . S
Zn393 O392 1.899 . S
Zn393 O394 2.032 . S
Zn393 O397 2.086 . S
Zn393 O402 1.977 . S
O394 Zn393 2.032 . S
O394 C398 1.278 . S
C395 O396 1.203 . S
C395 O402 1.267 . S
O396 C395 1.203 . S
O397 C390 1.185 . S
O397 Zn393 2.086 . S
C398 O394 1.278 . S
C398 O399 1.211 . S
O399 C398 1.211 . S
C400 O392 1.284 . S
C400 O401 1.273 . S
O401 C400 1.273 . S
O402 Zn393 1.977 . S
O402 C395 1.267 . S
C403 O404 1.160 . S
C403 O410 1.185 . S
O404 C403 1.160 . S
O405 Zn406 1.899 . S
O405 C413 1.284 . S
Zn406 O405 1.899 . S
Zn406 O407 2.032 . S
Zn406 O410 2.086 . S
Zn406 O415 1.977 . S
O407 Zn406 2.032 . S
O407 C411 1.278 . S
C408 O409 1.203 . S
C408 O415 1.267 . S
O409 C408 1.203 . S
O410 C403 1.185 . S
O410 Zn406 2.086 . S
C411 O407 1.278 . S
C411 O412 1.211 . S
O412 C411 1.211 . S
C413 O405 1.284 . S
C413 O414 1.273 . S
O414 C413 1.273 . S
O415 Zn406 1.977 . S
O415 C408 1.267 . S
C416 O417 1.160 . S
C416 O423 1.185 . S
O417 C416 1.160 . S
O418 Zn419 1.899 . S
O418 C426 1.284 . S
Zn419 O418 1.899 . S
Zn419 O420 2.032 . S
Zn419 O423 2.086 . S
Zn419 O428 1.977 . S
O420 Zn419 2.032 . S
O420 C424 1.278 . S
C421 O422 1.203 . S
C421 O428 1.267 . S
O422 C421 1.203 . S
O423 C416 1.185 . S
O423 Zn419 2.086 . S
C424 O420 1.278 . S
C424 O425 1.211 . S
O425 C424 1.211 . S
C426 O418 1.284 . S
C426 O427 1.273 . S
O427 C426 1.273 . S
O428 Zn419 1.977 . S
O428 C421 1.267 . S
C429 O430 1.160 . S
C429 O436 1.185 . S
O430 C429 1.160 . S
O431 Zn432 1.899 . S
O431 C439 1.284 . S
Zn432 O431 1.899 . S
Zn432 O433 2.032 . S
Zn432 O436 2.086 . S
Zn432 O441 1.977 . S
O433 Zn432 2.032 . S
O433 C437 1.278 . S
C434 O435 1.203 . S
C434 O441 1.267 . S
O435 C434 1.203 . S
O436 C429 1.185 . S
O436 Zn432 2.086 . S
C437 O433 1.278 . S
C437 O438 1.211 . S
O438 C437 1.211 . S
C439 O431 1.284 . S
C439 O440 1.273 . S
O440 C439 1.273 . S
O441 Zn432 1.977 . S
O441 C434 1.267 . S
C442 O443 1.160 . S
C442 O449 1.185 . S
O443 C442 1.160 . S
O444 Zn445 1.899 . S
O444 C452 1.284 . S
Zn445 O444 1.899 . S
Zn445 O446 2.032 . S
Zn445 O449 2.086 . S
Zn445 O454 1.977 . S
O446 Zn445 2.032 . S
O446 C450 1.278 . S
C447 O448 1.203 . S
C447 O454 1.267 . S
O448 C447 1.203 . S
O449 C442 1.185 . S
O449 Zn445 2.086 . S
C450 O446 1.278 . S
C450 O451 1.211 . S
O451 C450 1.211 . S
C452 O444 1.284 . S
C452 O453 1.273 . S
O453 C452 1.273 . S
O454 Zn445 1.977 . S
O454 C447 1.267 . S
C455 O456 1.160 . S
C455 O462 1.185 . S
O456 C455 1.160 . S
O457 Zn458 1.899 . S
O457 C465 1.284 . S
Zn458 O457 1.899 . S
Zn458 O459 2.032 . S
Zn458 O462 2.086 . S
Zn458 O467 1.977 . S
O459 Zn458 2.032 . S
O459 C463 1.278 . S
C460 O461 1.203 . S
C460 O467 1.267 . S
O461 C460 1.203 . S
O462 C455 1.185 . S
O462 Zn458 2.086 . S
C463 O459 1.278 . S
C463 O464 1.211 . S
O464 C463 1.211 . S
C465 O457 1.284 . S
C465 O466 1.273 . S
O466 C465 1.273 . S
O467 Zn458 1.977 . S
O467 C460 1.267 . S
C468 C469 1.387 . S
C468 H472 0.950 . S
C468 C477 1.390 . S
C469 C468 1.387 . S
C469 C471 1.387 . S
H470 C477 0.950 . S
C471 C469 1.387 . S
C471 C473 1.390 . S
C471 H475 0.950 1_554 S
H472 C468 0.950 . S
C473 C471 1.390 . S
C473 C474 1.387 . S
C473 H476 0.950 1_554 S
C474 C473 1.387 . S
C474 C477 1.387 . S
H475 C471 0.950 1_556 S
H476 C473 0.950 1_556 S
C477 C468 1.390 . S
C477 H470 0.950 . S
C477 C474 1.387 . S
C478 C479 1.387 . S
C478 H482 0.950 1_554 S
C478 C487 1.390 . S
C479 C478 1.387 . S
C479 C481 1.387 . S
H480 C487 0.950 1_556 S
C481 C479 1.387 . S
C481 C483 1.390 . S
C481 H485 0.950 . S
H482 C478 0.950 1_556 S
C483 C481 1.390 . S
C483 C484 1.387 . S
C483 H486 0.950 . S
C484 C483 1.387 . S
C484 C487 1.387 . S
H485 C481 0.950 . S
H486 C483 0.950 . S
C487 C478 1.390 . S
C487 H480 0.950 1_554 S
C487 C484 1.387 . S
C488 C489 1.387 . S
C488 H492 0.950 . S
C488 C497 1.390 . S
C489 C488 1.387 . S
C489 C491 1.387 . S
H490 C497 0.950 . S
C491 C489 1.387 . S
C491 C493 1.390 . S
C491 H495 0.950 1_554 S
H492 C488 0.950 . S
C493 C491 1.390 . S
C493 C494 1.387 . S
C493 H496 0.950 1_554 S
C494 C493 1.387 . S
C494 C497 1.387 . S
H495 C491 0.950 1_556 S
H496 C493 0.950 1_556 S
C497 C488 1.390 . S
C497 H490 0.950 . S
C497 C494 1.387 . S
C498 C499 1.387 . S
C498 H502 0.950 . S
C498 C507 1.390 . S
C499 C498 1.387 . S
C499 C501 1.387 . S
H500 C507 0.950 . S
C501 C499 1.387 . S
C501 C503 1.390 . S
C501 H505 0.950 1_556 S
H502 C498 0.950 . S
C503 C501 1.390 . S
C503 C504 1.387 . S
C503 H506 0.950 1_556 S
C504 C503 1.387 . S
C504 C507 1.387 . S
H505 C501 0.950 1_554 S
H506 C503 0.950 1_554 S
C507 C498 1.390 . S
C507 H500 0.950 . S
C507 C504 1.387 . S
C508 C509 1.387 . S
C508 H512 0.950 . S
C508 C517 1.390 . S
C509 C508 1.387 . S
C509 C511 1.387 . S
H510 C517 0.950 . S
C511 C509 1.387 . S
C511 C513 1.390 . S
C511 H515 0.950 1_556 S
H512 C508 0.950 . S
C513 C511 1.390 . S
C513 C514 1.387 . S
C513 H516 0.950 1_556 S
C514 C513 1.387 . S
C514 C517 1.387 . S
H515 C511 0.950 1_554 S
H516 C513 0.950 1_554 S
C517 C508 1.390 . S
C517 H510 0.950 . S
C517 C514 1.387 . S
C518 C519 1.387 . S
C518 H522 0.950 . S
C518 C527 1.390 . S
C519 C518 1.387 . S
C519 C521 1.387 . S
H520 C527 0.950 . S
C521 C519 1.387 . S
C521 C523 1.390 . S
C521 H525 0.950 1_556 S
H522 C518 0.950 . S
C523 C521 1.390 . S
C523 C524 1.387 . S
C523 H526 0.950 1_556 S
C524 C523 1.387 . S
C524 C527 1.387 . S
H525 C521 0.950 1_554 S
H526 C523 0.950 1_554 S
C527 C518 1.390 . S
C527 H520 0.950 . S
C527 C524 1.387 . S
C528 C529 1.387 . S
C528 H532 0.950 . S
C528 C537 1.390 . S
C529 C528 1.387 . S
C529 C531 1.387 . S
H530 C537 0.950 . S
C531 C529 1.387 . S
C531 C533 1.390 . S
C531 H535 0.950 . S
H532 C528 0.950 . S
C533 C531 1.390 . S
C533 C534 1.387 . S
C533 H536 0.950 . S
C534 C533 1.387 . S
C534 C537 1.387 . S
H535 C531 0.950 . S
H536 C533 0.950 . S
C537 C528 1.390 . S
C537 H530 0.950 . S
C537 C534 1.387 . S
C538 C539 1.387 . S
C538 H542 0.950 . S
C538 C547 1.390 . S
C539 C538 1.387 . S
C539 C541 1.387 . S
H540 C547 0.950 . S
C541 C539 1.387 . S
C541 C543 1.390 . S
C541 H545 0.950 . S
H542 C538 0.950 . S
C543 C541 1.390 . S
C543 C544 1.387 . S
C543 H546 0.950 . S
C544 C543 1.387 . S
C544 C547 1.387 . S
H545 C541 0.950 . S
H546 C543 0.950 . S
C547 C538 1.390 . S
C547 H540 0.950 . S
C547 C544 1.387 . S
C548 C549 1.387 . S
C548 H552 0.950 . S
C548 C557 1.390 . S
C549 C548 1.387 . S
C549 C551 1.387 . S
H550 C557 0.950 . S
C551 C549 1.387 . S
C551 C553 1.390 . S
C551 H555 0.950 . S
H552 C548 0.950 . S
C553 C551 1.390 . S
C553 C554 1.387 . S
C553 H556 0.950 . S
C554 C553 1.387 . S
C554 C557 1.387 . S
H555 C551 0.950 . S
H556 C553 0.950 . S
C557 C548 1.390 . S
C557 H550 0.950 . S
C557 C554 1.387 . S
C558 C559 1.387 . S
C558 H562 0.950 . S
C558 C567 1.390 . S
C559 C558 1.387 . S
C559 C561 1.387 . S
H560 C567 0.950 . S
C561 C559 1.387 . S
C561 C563 1.390 . S
C561 H565 0.950 . S
H562 C558 0.950 . S
C563 C561 1.390 . S
C563 C564 1.387 . S
C563 H566 0.950 . S
C564 C563 1.387 . S
C564 C567 1.387 . S
H565 C561 0.950 . S
H566 C563 0.950 . S
C567 C558 1.390 . S
C567 H560 0.950 . S
C567 C564 1.387 . S
C568 C569 1.387 . S
C568 H572 0.950 . S
C568 C577 1.390 . S
C569 C568 1.387 . S
C569 C571 1.387 . S
H570 C577 0.950 . S
C571 C569 1.387 . S
C571 C573 1.390 . S
C571 H575 0.950 . S
H572 C568 0.950 . S
C573 C571 1.390 . S
C573 C574 1.387 . S
C573 H576 0.950 . S
C574 C573 1.387 . S
C574 C577 1.387 . S
H575 C571 0.950 . S
H576 C573 0.950 . S
C577 C568 1.390 . S
C577 H570 0.950 . S
C577 C574 1.387 . S
C578 C579 1.387 . S
C578 H582 0.950 . S
C578 C587 1.390 . S
C579 C578 1.387 . S
C579 C581 1.387 . S
H580 C587 0.950 . S
C581 C579 1.387 . S
C581 C583 1.390 . S
C581 H585 0.950 . S
H582 C578 0.950 . S
C583 C581 1.390 . S
C583 C584 1.387 . S
C583 H586 0.950 . S
C584 C583 1.387 . S
C584 C587 1.387 . S
H585 C581 0.950 . S
H586 C583 0.950 . S
C587 C578 1.390 . S
C587 H580 0.950 . S
C587 C584 1.387 . S
C588 C589 1.387 . S
C588 H592 0.950 . S
C588 C597 1.390 . S
C589 C588 1.387 . S
C589 C591 1.387 . S
H590 C597 0.950 . S
C591 C589 1.387 . S
C591 C593 1.390 . S
C591 H595 0.950 . S
H592 C588 0.950 . S
C593 C591 1.390 . S
C593 C594 1.387 . S
C593 H596 0.950 . S
C594 C593 1.387 . S
C594 C597 1.387 . S
H595 C591 0.950 . S
H596 C593 0.950 . S
C597 C588 1.390 . S
C597 H590 0.950 . S
C597 C594 1.387 . S
C598 C599 1.387 . S
C598 H602 0.950 . S
C598 C607 1.390 . S
C599 C598 1.387 . S
C599 C601 1.387 . S
H600 C607 0.950 . S
C601 C599 1.387 . S
C601 C603 1.390 . S
C601 H605 0.950 . S
H602 C598 0.950 . S
C603 C601 1.390 . S
C603 C604 1.387 . S
C603 H606 0.950 . S
C604 C603 1.387 . S
C604 C607 1.387 . S
H605 C601 0.950 . S
H606 C603 0.950 . S
C607 C598 1.390 . S
C607 H600 0.950 . S
C607 C604 1.387 . S
C608 C609 1.387 . S
C608 H612 0.950 . S
C608 C617 1.390 . S
C609 C608 1.387 . S
C609 C611 1.387 . S
H610 C617 0.950 . S
C611 C609 1.387 . S
C611 C613 1.390 . S
C611 H615 0.950 . S
H612 C608 0.950 . S
C613 C611 1.390 . S
C613 C614 1.387 . S
C613 H616 0.950 . S
C614 C613 1.387 . S
C614 C617 1.387 . S
H615 C611 0.950 . S
H616 C613 0.950 . S
C617 C608 1.390 . S
C617 H610 0.950 . S
C617 C614 1.387 . S
C618 C619 1.387 . S
C618 H622 0.950 . S
C618 C627 1.390 . S
C619 C618 1.387 . S
C619 C621 1.387 . S
H620 C627 0.950 . S
C621 C619 1.387 . S
C621 C623 1.390 . S
C621 H625 0.950 . S
H622 C618 0.950 . S
C623 C621 1.390 . S
C623 C624 1.387 . S
C623 H626 0.950 . S
C624 C623 1.387 . S
C624 C627 1.387 . S
H625 C621 0.950 . S
H626 C623 0.950 . S
C627 C618 1.390 . S
C627 H620 0.950 . S
C627 C624 1.387 . S
C628 C629 1.387 . S
C628 H632 0.950 . S
C628 C637 1.390 . S
C629 C628 1.387 . S
C629 C631 1.387 . S
H630 C637 0.950 . S
C631 C629 1.387 . S
C631 C633 1.390 . S
C631 H635 0.950 . S
H632 C628 0.950 . S
C633 C631 1.390 . S
C633 C634 1.387 . S
C633 H636 0.950 . S
C634 C633 1.387 . S
C634 C637 1.387 . S
H635 C631 0.950 . S
H636 C633 0.950 . S
C637 C628 1.390 . S
C637 H630 0.950 . S
C637 C634 1.387 . S
C638 C639 1.387 . S
C638 H642 0.950 . S
C638 C647 1.390 . S
C639 C638 1.387 . S
C639 C641 1.387 . S
H640 C647 0.950 . S
C641 C639 1.387 . S
C641 C643 1.390 . S
C641 H645 0.950 . S
H642 C638 0.950 . S
C643 C641 1.390 . S
C643 C644 1.387 . S
C643 H646 0.950 . S
C644 C643 1.387 . S
C644 C647 1.387 . S
H645 C641 0.950 . S
H646 C643 0.950 . S
C647 C638 1.390 . S
C647 H640 0.950 . S
C647 C644 1.387 . S
C648 C649 1.387 1_556 S
C648 H652 0.950 . S
C648 C657 1.390 1_455 S
C649 C648 1.387 1_554 S
C649 C651 1.387 . S
H650 C657 0.950 . S
C651 C649 1.387 . S
C651 C653 1.390 1_455 S
C651 H655 0.950 . S
H652 C648 0.950 . S
C653 C651 1.390 1_655 S
C653 C654 1.387 1_554 S
C653 H656 0.950 . S
C654 C653 1.387 1_556 S
C654 C657 1.387 . S
H655 C651 0.950 . S
H656 C653 0.950 . S
C657 C648 1.390 1_655 S
C657 H650 0.950 . S
C657 C654 1.387 . S
C658 C659 1.387 . S
C658 H662 0.950 . S
C658 C667 1.390 . S
C659 C658 1.387 . S
C659 C661 1.387 1_556 S
H660 C667 0.950 . S
C661 C659 1.387 1_554 S
C661 C663 1.390 . S
C661 H665 0.950 . S
H662 C658 0.950 . S
C663 C661 1.390 . S
C663 C664 1.387 . S
C663 H666 0.950 . S
C664 C663 1.387 . S
C664 C667 1.387 1_554 S
H665 C661 0.950 . S
H666 C663 0.950 . S
C667 C658 1.390 . S
C667 H660 0.950 . S
C667 C664 1.387 1_556 S
C668 C669 1.387 . S
C668 H672 0.950 . S
C668 C677 1.390 1_564 S
C669 C668 1.387 . S
C669 C671 1.387 . S
H670 C677 0.950 . S
C671 C669 1.387 . S
C671 C673 1.390 1_564 S
C671 H675 0.950 . S
H672 C668 0.950 . S
C673 C671 1.390 1_546 S
C673 C674 1.387 . S
C673 H676 0.950 . S
C674 C673 1.387 . S
C674 C677 1.387 . S
H675 C671 0.950 . S
H676 C673 0.950 . S
C677 C668 1.390 1_546 S
C677 H670 0.950 . S
C677 C674 1.387 . S
C678 C679 1.387 . S
C678 H682 0.950 . S
C678 C687 1.390 1_655 S
C679 C678 1.387 . S
C679 C681 1.387 1_556 S
H680 C687 0.950 . S
C681 C679 1.387 1_554 S
C681 C683 1.390 1_655 S
C681 H685 0.950 . S
H682 C678 0.950 . S
C683 C681 1.390 1_455 S
C683 C684 1.387 . S
C683 H686 0.950 . S
C684 C683 1.387 . S
C684 C687 1.387 1_554 S
H685 C681 0.950 . S
H686 C683 0.950 . S
C687 C678 1.390 1_455 S
C687 H680 0.950 . S
C687 C684 1.387 1_556 S
C688 C689 1.387 . S
C688 H692 0.950 . S
C688 C697 1.390 . S
C689 C688 1.387 . S
C689 C691 1.387 1_556 S
H690 C697 0.950 . S
C691 C689 1.387 1_554 S
C691 C693 1.390 . S
C691 H695 0.950 . S
H692 C688 0.950 . S
C693 C691 1.390 . S
C693 C694 1.387 . S
C693 H696 0.950 . S
C694 C693 1.387 . S
C694 C697 1.387 1_554 S
H695 C691 0.950 . S
H696 C693 0.950 . S
C697 C688 1.390 . S
C697 H690 0.950 . S
C697 C694 1.387 1_556 S
C698 C699 1.387 . S
C698 H702 0.950 . S
C698 C707 1.390 1_546 S
C699 C698 1.387 . S
C699 C701 1.387 . S
H700 C707 0.950 . S
C701 C699 1.387 . S
C701 C703 1.390 1_546 S
C701 H705 0.950 . S
H702 C698 0.950 . S
C703 C701 1.390 1_564 S
C703 C704 1.387 . S
C703 H706 0.950 . S
C704 C703 1.387 . S
C704 C707 1.387 . S
H705 C701 0.950 . S
H706 C703 0.950 . S
C707 C698 1.390 1_564 S
C707 H700 0.950 . S
C707 C704 1.387 . S
C708 C709 1.387 . S
C708 H712 0.950 . S
C708 C717 1.390 . S
C709 C708 1.387 . S
C709 C711 1.387 . S
H710 C717 0.950 . S
C711 C709 1.387 . S
C711 C713 1.390 . S
C711 H715 0.950 . S
H712 C708 0.950 . S
C713 C711 1.390 . S
C713 C714 1.387 . S
C713 H716 0.950 . S
C714 C713 1.387 . S
C714 C717 1.387 . S
H715 C711 0.950 . S
H716 C713 0.950 . S
C717 C708 1.390 . S
C717 H710 0.950 . S
C717 C714 1.387 . S
C718 C719 1.387 . S
C718 H722 0.950 . S
C718 C727 1.390 . S
C719 C718 1.387 . S
C719 C721 1.387 . S
H720 C727 0.950 . S
C721 C719 1.387 . S
C721 C723 1.390 . S
C721 H725 0.950 . S
H722 C718 0.950 . S
C723 C721 1.390 . S
C723 C724 1.387 . S
C723 H726 0.950 . S
C724 C723 1.387 . S
C724 C727 1.387 . S
H725 C721 0.950 . S
H726 C723 0.950 . S
C727 C718 1.390 . S
C727 H720 0.950 . S
C727 C724 1.387 . S
C728 C729 1.387 . S
C728 H732 0.950 . S
C728 C737 1.390 . S
C729 C728 1.387 . S
C729 C731 1.387 . S
H730 C737 0.950 . S
C731 C729 1.387 . S
C731 C733 1.390 . S
C731 H735 0.950 . S
H732 C728 0.950 . S
C733 C731 1.390 . S
C733 C734 1.387 . S
C733 H736 0.950 . S
C734 C733 1.387 . S
C734 C737 1.387 . S
H735 C731 0.950 . S
H736 C733 0.950 . S
C737 C728 1.390 . S
C737 H730 0.950 . S
C737 C734 1.387 . S
C738 C739 1.387 . S
C738 H742 0.950 . S
C738 C747 1.390 . S
C739 C738 1.387 . S
C739 C741 1.387 . S
H740 C747 0.950 . S
C741 C739 1.387 . S
C741 C743 1.390 . S
C741 H745 0.950 . S
H742 C738 0.950 . S
C743 C741 1.390 . S
C743 C744 1.387 . S
C743 H746 0.950 . S
C744 C743 1.387 . S
C744 C747 1.387 . S
H745 C741 0.950 . S
H746 C743 0.950 . S
C747 C738 1.390 . S
C747 H740 0.950 . S
C747 C744 1.387 . S
C748 C749 1.387 . S
C748 H752 0.950 . S
C748 C757 1.390 . S
C749 C748 1.387 . S
C749 C751 1.387 . S
H750 C757 0.950 . S
C751 C749 1.387 . S
C751 C753 1.390 . S
C751 H755 0.950 . S
H752 C748 0.950 . S
C753 C751 1.390 . S
C753 C754 1.387 . S
C753 H756 0.950 . S
C754 C753 1.387 . S
C754 C757 1.387 . S
H755 C751 0.950 . S
H756 C753 0.950 . S
C757 C748 1.390 . S
C757 H750 0.950 . S
C757 C754 1.387 . S
C758 C759 1.387 . S
C758 H762 0.950 . S
C758 C767 1.390 . S
C759 C758 1.387 . S
C759 C761 1.387 . S
H760 C767 0.950 . S
C761 C759 1.387 . S
C761 C763 1.390 . S
C761 H765 0.950 . S
H762 C758 0.950 . S
C763 C761 1.390 . S
C763 C764 1.387 . S
C763 H766 0.950 . S
C764 C763 1.387 . S
C764 C767 1.387 . S
H765 C761 0.950 . S
H766 C763 0.950 . S
C767 C758 1.390 . S
C767 H760 0.950 . S
C767 C764 1.387 . S
C768 C769 1.387 . S
C768 H772 0.950 . S
C768 C777 1.390 . S
C769 C768 1.387 . S
C769 C771 1.387 . S
H770 C777 0.950 . S
C771 C769 1.387 . S
C771 C773 1.390 . S
C771 H775 0.950 . S
H772 C768 0.950 . S
C773 C771 1.390 . S
C773 C774 1.387 . S
C773 H776 0.950 . S
C774 C773 1.387 . S
C774 C777 1.387 . S
H775 C771 0.950 . S
H776 C773 0.950 . S
C777 C768 1.390 . S
C777 H770 0.950 . S
C777 C774 1.387 . S
C778 C779 1.387 . S
C778 H782 0.950 . S
C778 C787 1.390 . S
C779 C778 1.387 . S
C779 C781 1.387 . S
H780 C787 0.950 . S
C781 C779 1.387 . S
C781 C783 1.390 . S
C781 H785 0.950 . S
H782 C778 0.950 . S
C783 C781 1.390 . S
C783 C784 1.387 . S
C783 H786 0.950 . S
C784 C783 1.387 . S
C784 C787 1.387 . S
H785 C781 0.950 . S
H786 C783 0.950 . S
C787 C778 1.390 . S
C787 H780 0.950 . S
C787 C784 1.387 . S
C788 C789 1.387 . S
C788 H792 0.950 . S
C788 C797 1.390 . S
C789 C788 1.387 . S
C789 C791 1.387 . S
H790 C797 0.950 . S
C791 C789 1.387 . S
C791 C793 1.390 . S
C791 H795 0.950 . S
H792 C788 0.950 . S
C793 C791 1.390 . S
C793 C794 1.387 . S
C793 H796 0.950 . S
C794 C793 1.387 . S
C794 C797 1.387 . S
H795 C791 0.950 . S
H796 C793 0.950 . S
C797 C788 1.390 . S
C797 H790 0.950 . S
C797 C794 1.387 . S
C798 C799 1.387 . S
C798 H802 0.950 . S
C798 C807 1.390 . S
C799 C798 1.387 . S
C799 C801 1.387 . S
H800 C807 0.950 . S
C801 C799 1.387 . S
C801 C803 1.390 . S
C801 H805 0.950 . S
H802 C798 0.950 . S
C803 C801 1.390 . S
C803 C804 1.387 . S
C803 H806 0.950 . S
C804 C803 1.387 . S
C804 C807 1.387 . S
H805 C801 0.950 . S
H806 C803 0.950 . S
C807 C798 1.390 . S
C807 H800 0.950 . S
C807 C804 1.387 . S
C808 C809 1.387 . S
C808 H812 0.950 . S
C808 C817 1.390 . S
C809 C808 1.387 . S
C809 C811 1.387 . S
H810 C817 0.950 . S
C811 C809 1.387 . S
C811 C813 1.390 . S
C811 H815 0.950 . S
H812 C808 0.950 . S
C813 C811 1.390 . S
C813 C814 1.387 . S
C813 H816 0.950 . S
C814 C813 1.387 . S
C814 C817 1.387 . S
H815 C811 0.950 . S
H816 C813 0.950 . S
C817 C808 1.390 . S
C817 H810 0.950 . S
C817 C814 1.387 . S
C818 C819 1.387 . S
C818 H822 0.950 . S
C818 C827 1.390 . S
C819 C818 1.387 . S
C819 C821 1.387 . S
H820 C827 0.950 . S
C821 C819 1.387 . S
C821 C823 1.390 . S
C821 H825 0.950 . S
H822 C818 0.950 . S
C823 C821 1.390 . S
C823 C824 1.387 . S
C823 H826 0.950 . S
C824 C823 1.387 . S
C824 C827 1.387 . S
H825 C821 0.950 . S
H826 C823 0.950 . S
C827 C818 1.390 . S
C827 H820 0.950 . S
C827 C824 1.387 . S
C828 C829 1.387 . S
C828 H832 0.950 . S
C828 C837 1.390 . S
C829 C828 1.387 . S
C829 C831 1.387 . S
H830 C837 0.950 . S
C831 C829 1.387 . S
C831 C833 1.390 . S
C831 H835 0.950 . S
H832 C828 0.950 . S
C833 C831 1.390 . S
C833 C834 1.387 . S
C833 H836 0.950 . S
C834 C833 1.387 . S
C834 C837 1.387 . S
H835 C831 0.950 . S
H836 C833 0.950 . S
C837 C828 1.390 . S
C837 H830 0.950 . S
C837 C834 1.387 . S
C838 C839 1.387 . S
C838 H842 0.950 . S
C838 C847 1.390 . S
C839 C838 1.387 . S
C839 C841 1.387 . S
H840 C847 0.950 . S
C841 C839 1.387 . S
C841 C843 1.390 . S
C841 H845 0.950 . S
H842 C838 0.950 . S
C843 C841 1.390 . S
C843 C844 1.387 . S
C843 H846 0.950 . S
C844 C843 1.387 . S
C844 C847 1.387 . S
H845 C841 0.950 . S
H846 C843 0.950 . S
C847 C838 1.390 . S
C847 H840 0.950 . S
C847 C844 1.387 . S
C848 C849 1.387 . S
C848 H852 0.950 . S
C848 C857 1.390 . S
C849 C848 1.387 . S
C849 C851 1.387 . S
H850 C857 0.950 . S
C851 C849 1.387 . S
C851 C853 1.390 . S
C851 H855 0.950 . S
H852 C848 0.950 . S
C853 C851 1.390 . S
C853 C854 1.387 . S
C853 H856 0.950 . S
C854 C853 1.387 . S
C854 C857 1.387 . S
H855 C851 0.950 . S
H856 C853 0.950 . S
C857 C848 1.390 . S
C857 H850 0.950 . S
C857 C854 1.387 . S
C858 C859 1.387 . S
C858 H862 0.950 . S
C858 C867 1.390 . S
C859 C858 1.387 . S
C859 C861 1.387 . S
H860 C867 0.950 . S
C861 C859 1.387 . S
C861 C863 1.390 . S
C861 H865 0.950 . S
H862 C858 0.950 . S
C863 C861 1.390 . S
C863 C864 1.387 . S
C863 H866 0.950 . S
C864 C863 1.387 . S
C864 C867 1.387 . S
H865 C861 0.950 . S
H866 C863 0.950 . S
C867 C858 1.390 . S
C867 H860 0.950 . S
C867 C864 1.387 . S
C868 C869 1.387 . S
C868 H872 0.950 . S
C868 C877 1.390 . S
C869 C868 1.387 . S
C869 C871 1.387 . S
H870 C877 0.950 . S
C871 C869 1.387 . S
C871 C873 1.390 . S
C871 H875 0.950 . S
H872 C868 0.950 . S
C873 C871 1.390 . S
C873 C874 1.387 . S
C873 H876 0.950 . S
C874 C873 1.387 . S
C874 C877 1.387 . S
H875 C871 0.950 . S
H876 C873 0.950 . S
C877 C868 1.390 . S
C877 H870 0.950 . S
C877 C874 1.387 . S
C878 C879 1.387 . S
C878 H882 0.950 . S
C878 C887 1.390 . S
C879 C878 1.387 . S
C879 C881 1.387 . S
H880 C887 0.950 . S
C881 C879 1.387 . S
C881 C883 1.390 . S
C881 H885 0.950 . S
H882 C878 0.950 . S
C883 C881 1.390 . S
C883 C884 1.387 . S
C883 H886 0.950 . S
C884 C883 1.387 . S
C884 C887 1.387 . S
H885 C881 0.950 . S
H886 C883 0.950 . S
C887 C878 1.390 . S
C887 H880 0.950 . S
C887 C884 1.387 . S
C888 C889 1.387 . S
C888 H892 0.950 . S
C888 C897 1.390 . S
C889 C888 1.387 . S
C889 C891 1.387 . S
H890 C897 0.950 . S
C891 C889 1.387 . S
C891 C893 1.390 . S
C891 H895 0.950 . S
H892 C888 0.950 . S
C893 C891 1.390 . S
C893 C894 1.387 . S
C893 H896 0.950 . S
C894 C893 1.387 . S
C894 C897 1.387 . S
H895 C891 0.950 . S
H896 C893 0.950 . S
C897 C888 1.390 . S
C897 H890 0.950 . S
C897 C894 1.387 . S
C898 C899 1.387 . S
C898 H902 0.950 . S
C898 C907 1.390 . S
C899 C898 1.387 . S
C899 C901 1.387 . S
H900 C907 0.950 . S
C901 C899 1.387 . S
C901 C903 1.390 . S
C901 H905 0.950 . S
H902 C898 0.950 . S
C903 C901 1.390 . S
C903 C904 1.387 . S
C903 H906 0.950 . S
C904 C903 1.387 . S
C904 C907 1.387 . S
H905 C901 0.950 . S
H906 C903 0.950 . S
C907 C898 1.390 . S
C907 H900 0.950 . S
C907 C904 1.387 . S
C908 C909 1.387 . S
C908 H912 0.950 . S
C908 C917 1.390 . S
C909 C908 1.387 . S
C909 C911 1.387 . S
H910 C917 0.950 . S
C911 C909 1.387 . S
C911 C913 1.390 . S
C911 H915 0.950 . S
H912 C908 0.950 . S
C913 C911 1.390 . S
C913 C914 1.387 . S
C913 H916 0.950 . S
C914 C913 1.387 . S
C914 C917 1.387 . S
H915 C911 0.950 . S
H916 C913 0.950 . S
C917 C908 1.390 . S
C917 H910 0.950 . S
C917 C914 1.387 . S
C918 C919 1.387 . S
C918 H922 0.950 . S
C918 C927 1.390 . S
C919 C918 1.387 . S
C919 C921 1.387 . S
H920 C927 0.950 . S
C921 C919 1.387 . S
C921 C923 1.390 . S
C921 H925 0.950 . S
H922 C918 0.950 . S
C923 C921 1.390 . S
C923 C924 1.387 . S
C923 H926 0.950 . S
C924 C923 1.387 . S
C924 C927 1.387 . S
H925 C921 0.950 . S
H926 C923 0.950 . S
C927 C918 1.390 . S
C927 H920 0.950 . S
C927 C924 1.387 . S
C928 C929 1.387 . S
C928 H932 0.950 . S
C928 C937 1.390 . S
C929 C928 1.387 . S
C929 C931 1.387 . S
H930 C937 0.950 . S
C931 C929 1.387 . S
C931 C933 1.390 . S
C931 H935 0.950 . S
H932 C928 0.950 . S
C933 C931 1.390 . S
C933 C934 1.387 . S
C933 H936 0.950 . S
C934 C933 1.387 . S
C934 C937 1.387 . S
H935 C931 0.950 . S
H936 C933 0.950 . S
C937 C928 1.390 . S
C937 H930 0.950 . S
C937 C934 1.387 . S
C938 C939 1.387 . S
C938 H942 0.950 . S
C938 C947 1.390 . S
C939 C938 1.387 . S
C939 C941 1.387 . S
H940 C947 0.950 . S
C941 C939 1.387 . S
C941 C943 1.390 . S
C941 H945 0.950 . S
H942 C938 0.950 . S
C943 C941 1.390 . S
C943 C944 1.387 . S
C943 H946 0.950 . S
C944 C943 1.387 . S
C944 C947 1.387 . S
H945 C941 0.950 . S
H946 C943 0.950 . S
C947 C938 1.390 . S
C947 H940 0.950 . S
C947 C944 1.387 . S
C948 C949 1.387 1_655 S
C948 H952 0.950 . S
C948 C957 1.390 . S
C949 C948 1.387 1_455 S
C949 C951 1.387 . S
H950 C957 0.950 . S
C951 C949 1.387 . S
C951 C953 1.390 . S
C951 H955 0.950 . S
H952 C948 0.950 . S
C953 C951 1.390 . S
C953 C954 1.387 1_455 S
C953 H956 0.950 . S
C954 C953 1.387 1_655 S
C954 C957 1.387 . S
H955 C951 0.950 . S
H956 C953 0.950 . S
C957 C948 1.390 . S
C957 H950 0.950 . S
C957 C954 1.387 . S
C958 C959 1.387 . S
C958 H962 0.950 . S
C958 C967 1.390 . S
C959 C958 1.387 . S
C959 C961 1.387 . S
H960 C967 0.950 . S
C961 C959 1.387 . S
C961 C963 1.390 . S
C961 H965 0.950 . S
H962 C958 0.950 . S
C963 C961 1.390 . S
C963 C964 1.387 . S
C963 H966 0.950 . S
C964 C963 1.387 . S
C964 C967 1.387 . S
H965 C961 0.950 . S
H966 C963 0.950 . S
C967 C958 1.390 . S
C967 H960 0.950 . S
C967 C964 1.387 . S
C968 C969 1.387 . S
C968 H972 0.950 . S
C968 C977 1.390 1_565 S
C969 C968 1.387 . S
C969 C971 1.387 . S
H970 C977 0.950 . S
C971 C969 1.387 . S
C971 C973 1.390 1_565 S
C971 H975 0.950 . S
H972 C968 0.950 . S
C973 C971 1.390 1_545 S
C973 C974 1.387 . S
C973 H976 0.950 . S
C974 C973 1.387 . S
C974 C977 1.387 . S
H975 C971 0.950 . S
H976 C973 0.950 . S
C977 C968 1.390 1_545 S
C977 H970 0.950 . S
C977 C974 1.387 . S
C978 C979 1.387 . S
C978 H982 0.950 . S
C978 C987 1.390 1_565 S
C979 C978 1.387 . S
C979 C981 1.387 . S
H980 C987 0.950 . S
C981 C979 1.387 . S
C981 C983 1.390 1_565 S
C981 H985 0.950 . S
H982 C978 0.950 . S
C983 C981 1.390 1_545 S
C983 C984 1.387 . S
C983 H986 0.950 . S
C984 C983 1.387 . S
C984 C987 1.387 . S
H985 C981 0.950 . S
H986 C983 0.950 . S
C987 C978 1.390 1_545 S
C987 H980 0.950 . S
C987 C984 1.387 . S
C988 C989 1.387 . S
C988 H992 0.950 . S
C988 C997 1.393 . S
C989 C988 1.387 . S
C989 C991 1.387 1_655 S
H990 C997 0.952 . S
C991 C989 1.387 1_455 S
C991 C993 1.393 . S
C991 H995 0.952 . S
H992 C988 0.950 . S
C993 C991 1.393 . S
C993 C994 1.387 . S
C993 H996 0.950 . S
C994 C993 1.387 . S
C994 C997 1.387 1_455 S
H995 C991 0.952 . S
H996 C993 0.950 . S
C997 C988 1.393 . S
C997 H990 0.952 . S
C997 C994 1.387 1_655 S
C998 C999 1.387 . S
C998 H1002 0.950 . S
C998 C1007 1.390 . S
C999 C998 1.387 . S
C999 C1001 1.387 . S
H1000 C1007 0.950 . S
C1001 C999 1.387 . S
C1001 C1003 1.390 . S
C1001 H1005 0.950 . S
H1002 C998 0.950 . S
C1003 C1001 1.390 . S
C1003 C1004 1.387 . S
C1003 H1006 0.950 . S
C1004 C1003 1.387 . S
C1004 C1007 1.387 . S
H1005 C1001 0.950 . S
H1006 C1003 0.950 . S
C1007 C998 1.390 . S
C1007 H1000 0.950 . S
C1007 C1004 1.387 . S
C1008 C1009 1.387 . S
C1008 H1012 0.950 . S
C1008 C1017 1.390 . S
C1009 C1008 1.387 . S
C1009 C1011 1.387 . S
H1010 C1017 0.950 . S
C1011 C1009 1.387 . S
C1011 C1013 1.390 . S
C1011 H1015 0.950 . S
H1012 C1008 0.950 . S
C1013 C1011 1.390 . S
C1013 C1014 1.387 . S
C1013 H1016 0.950 . S
C1014 C1013 1.387 . S
C1014 C1017 1.387 . S
H1015 C1011 0.950 . S
H1016 C1013 0.950 . S
C1017 C1008 1.390 . S
C1017 H1010 0.950 . S
C1017 C1014 1.387 . S
C1018 C1019 1.387 . S
C1018 H1022 0.950 . S
C1018 C1027 1.390 . S
C1019 C1018 1.387 . S
C1019 C1021 1.387 . S
H1020 C1027 0.950 . S
C1021 C1019 1.387 . S
C1021 C1023 1.390 . S
C1021 H1025 0.950 . S
H1022 C1018 0.950 . S
C1023 C1021 1.390 . S
C1023 C1024 1.387 . S
C1023 H1026 0.950 . S
C1024 C1023 1.387 . S
C1024 C1027 1.387 . S
H1025 C1021 0.950 . S
H1026 C1023 0.950 . S
C1027 C1018 1.390 . S
C1027 H1020 0.950 . S
C1027 C1024 1.387 . S
C1028 C1029 1.387 . S
C1028 H1032 0.950 . S
C1028 C1037 1.390 . S
C1029 C1028 1.387 . S
C1029 C1031 1.387 . S
H1030 C1037 0.950 . S
C1031 C1029 1.387 . S
C1031 C1033 1.390 . S
C1031 H1035 0.950 . S
H1032 C1028 0.950 . S
C1033 C1031 1.390 . S
C1033 C1034 1.387 . S
C1033 H1036 0.950 . S
C1034 C1033 1.387 . S
C1034 C1037 1.387 . S
H1035 C1031 0.950 . S
H1036 C1033 0.950 . S
C1037 C1028 1.390 . S
C1037 H1030 0.950 . S
C1037 C1034 1.387 . S
C1038 C1039 1.387 . S
C1038 H1042 0.950 . S
C1038 C1047 1.390 . S
C1039 C1038 1.387 . S
C1039 C1041 1.387 . S
H1040 C1047 0.950 . S
C1041 C1039 1.387 . S
C1041 C1043 1.390 . S
C1041 H1045 0.950 . S
H1042 C1038 0.950 . S
C1043 C1041 1.390 . S
C1043 C1044 1.387 . S
C1043 H1046 0.950 . S
C1044 C1043 1.387 . S
C1044 C1047 1.387 . S
H1045 C1041 0.950 . S
H1046 C1043 0.950 . S
C1047 C1038 1.390 . S
C1047 H1040 0.950 . S
C1047 C1044 1.387 . S
C1048 C1049 1.387 . S
C1048 H1052 0.950 . S
C1048 C1057 1.390 . S
C1049 C1048 1.387 . S
C1049 C1051 1.387 . S
H1050 C1057 0.950 . S
C1051 C1049 1.387 . S
C1051 C1053 1.390 . S
C1051 H1055 0.950 . S
H1052 C1048 0.950 . S
C1053 C1051 1.390 . S
C1053 C1054 1.387 . S
C1053 H1056 0.950 . S
C1054 C1053 1.387 . S
C1054 C1057 1.387 . S
H1055 C1051 0.950 . S
H1056 C1053 0.950 . S
C1057 C1048 1.390 . S
C1057 H1050 0.950 . S
C1057 C1054 1.387 . S
C1058 C1059 1.387 . S
C1058 H1062 0.950 . S
C1058 C1067 1.390 . S
C1059 C1058 1.387 . S
C1059 C1061 1.387 . S
H1060 C1067 0.950 . S
C1061 C1059 1.387 . S
C1061 C1063 1.390 . S
C1061 H1065 0.950 . S
H1062 C1058 0.950 . S
C1063 C1061 1.390 . S
C1063 C1064 1.387 . S
C1063 H1066 0.950 . S
C1064 C1063 1.387 . S
C1064 C1067 1.387 . S
H1065 C1061 0.950 . S
H1066 C1063 0.950 . S
C1067 C1058 1.390 . S
C1067 H1060 0.950 . S
C1067 C1064 1.387 . S
C1068 C1069 1.387 . S
C1068 H1072 0.950 . S
C1068 C1077 1.390 . S
C1069 C1068 1.387 . S
C1069 C1071 1.387 . S
H1070 C1077 0.950 . S
C1071 C1069 1.387 . S
C1071 C1073 1.390 . S
C1071 H1075 0.950 . S
H1072 C1068 0.950 . S
C1073 C1071 1.390 . S
C1073 C1074 1.387 . S
C1073 H1076 0.950 . S
C1074 C1073 1.387 . S
C1074 C1077 1.387 . S
H1075 C1071 0.950 . S
H1076 C1073 0.950 . S
C1077 C1068 1.390 . S
C1077 H1070 0.950 . S
C1077 C1074 1.387 . S
C1078 C1079 1.387 . S
C1078 H1082 0.950 . S
C1078 C1087 1.390 . S
C1079 C1078 1.387 . S
C1079 C1081 1.387 . S
H1080 C1087 0.950 . S
C1081 C1079 1.387 . S
C1081 C1083 1.390 . S
C1081 H1085 0.950 . S
H1082 C1078 0.950 . S
C1083 C1081 1.390 . S
C1083 C1084 1.387 . S
C1083 H1086 0.950 . S
C1084 C1083 1.387 . S
C1084 C1087 1.387 . S
H1085 C1081 0.950 . S
H1086 C1083 0.950 . S
C1087 C1078 1.390 . S
C1087 H1080 0.950 . S
C1087 C1084 1.387 . S
C1088 C1089 1.387 . S
C1088 H1092 0.950 . S
C1088 C1097 1.390 . S
C1089 C1088 1.387 . S
C1089 C1091 1.387 . S
H1090 C1097 0.950 . S
C1091 C1089 1.387 . S
C1091 C1093 1.390 . S
C1091 H1095 0.950 . S
H1092 C1088 0.950 . S
C1093 C1091 1.390 . S
C1093 C1094 1.387 . S
C1093 H1096 0.950 . S
C1094 C1093 1.387 . S
C1094 C1097 1.387 . S
H1095 C1091 0.950 . S
H1096 C1093 0.950 . S
C1097 C1088 1.390 . S
C1097 H1090 0.950 . S
C1097 C1094 1.387 . S
C1098 C1099 1.387 . S
C1098 H1102 0.950 . S
C1098 C1107 1.390 . S
C1099 C1098 1.387 . S
C1099 C1101 1.387 . S
H1100 C1107 0.950 . S
C1101 C1099 1.387 . S
C1101 C1103 1.390 . S
C1101 H1105 0.950 . S
H1102 C1098 0.950 . S
C1103 C1101 1.390 . S
C1103 C1104 1.387 . S
C1103 H1106 0.950 . S
C1104 C1103 1.387 . S
C1104 C1107 1.387 . S
H1105 C1101 0.950 . S
H1106 C1103 0.950 . S
C1107 C1098 1.390 . S
C1107 H1100 0.950 . S
C1107 C1104 1.387 . S
C1108 C1109 1.387 . S
C1108 H1112 0.950 . S
C1108 C1117 1.390 . S
C1109 C1108 1.387 . S
C1109 C1111 1.387 . S
H1110 C1117 0.950 . S
C1111 C1109 1.387 . S
C1111 C1113 1.390 . S
C1111 H1115 0.950 . S
H1112 C1108 0.950 . S
C1113 C1111 1.390 . S
C1113 C1114 1.387 . S
C1113 H1116 0.950 . S
C1114 C1113 1.387 . S
C1114 C1117 1.387 . S
H1115 C1111 0.950 . S
H1116 C1113 0.950 . S
C1117 C1108 1.390 . S
C1117 H1110 0.950 . S
C1117 C1114 1.387 . S
C1118 C1119 1.387 . S
C1118 H1122 0.950 . S
C1118 C1127 1.390 . S
C1119 C1118 1.387 . S
C1119 C1121 1.387 . S
H1120 C1127 0.950 . S
C1121 C1119 1.387 . S
C1121 C1123 1.390 . S
C1121 H1125 0.950 . S
H1122 C1118 0.950 . S
C1123 C1121 1.390 . S
C1123 C1124 1.387 . S
C1123 H1126 0.950 . S
C1124 C1123 1.387 . S
C1124 C1127 1.387 . S
H1125 C1121 0.950 . S
H1126 C1123 0.950 . S
C1127 C1118 1.390 . S
C1127 H1120 0.950 . S
C1127 C1124 1.387 . S
C1128 C1129 1.387 1_554 S
C1128 H1132 0.950 . S
C1128 C1137 1.390 . S
C1129 C1128 1.387 1_556 S
C1129 C1131 1.387 1_455 S
H1130 C1137 0.950 . S
C1131 C1129 1.387 1_655 S
C1131 C1133 1.390 . S
C1131 H1135 0.950 . S
H1132 C1128 0.950 . S
C1133 C1131 1.390 . S
C1133 C1134 1.387 1_556 S
C1133 H1136 0.950 . S
C1134 C1133 1.387 1_554 S
C1134 C1137 1.387 1_655 S
H1135 C1131 0.950 . S
H1136 C1133 0.950 . S
C1137 C1128 1.390 . S
C1137 H1130 0.950 . S
C1137 C1134 1.387 1_455 S
C1138 C1139 1.387 . S
C1138 H1142 0.950 . S
C1138 C1147 1.390 1_554 S
C1139 C1138 1.387 . S
C1139 C1141 1.387 . S
H1140 C1147 0.950 . S
C1141 C1139 1.387 . S
C1141 C1143 1.390 1_554 S
C1141 H1145 0.950 . S
H1142 C1138 0.950 . S
C1143 C1141 1.390 1_556 S
C1143 C1144 1.387 . S
C1143 H1146 0.950 . S
C1144 C1143 1.387 . S
C1144 C1147 1.387 . S
H1145 C1141 0.950 . S
H1146 C1143 0.950 . S
C1147 C1138 1.390 1_556 S
C1147 H1140 0.950 . S
C1147 C1144 1.387 . S
C1148 C1149 1.387 . S
C1148 H1152 0.950 . S
C1148 C1157 1.390 1_544 S
C1149 C1148 1.387 . S
C1149 C1151 1.387 . S
H1150 C1157 0.950 . S
C1151 C1149 1.387 . S
C1151 C1153 1.390 1_544 S
C1151 H1155 0.950 . S
H1152 C1148 0.950 . S
C1153 C1151 1.390 1_566 S
C1153 C1154 1.387 . S
C1153 H1156 0.950 . S
C1154 C1153 1.387 . S
C1154 C1157 1.387 . S
H1155 C1151 0.950 . S
H1156 C1153 0.950 . S
C1157 C1148 1.390 1_566 S
C1157 H1150 0.950 . S
C1157 C1154 1.387 . S
C1158 C1159 1.387 . S
C1158 H1162 0.950 . S
C1158 C1167 1.390 1_566 S
C1159 C1158 1.387 . S
C1159 C1161 1.387 . S
H1160 C1167 0.950 . S
C1161 C1159 1.387 . S
C1161 C1163 1.390 1_566 S
C1161 H1165 0.950 . S
H1162 C1158 0.950 . S
C1163 C1161 1.390 1_544 S
C1163 C1164 1.387 . S
C1163 H1166 0.950 . S
C1164 C1163 1.387 . S
C1164 C1167 1.387 . S
H1165 C1161 0.950 . S
H1166 C1163 0.950 . S
C1167 C1158 1.390 1_544 S
C1167 H1160 0.950 . S
C1167 C1164 1.387 . S
C1168 C1169 1.387 1_554 S
C1168 H1172 0.950 . S
C1168 C1177 1.390 . S
C1169 C1168 1.387 1_556 S
C1169 C1171 1.387 1_455 S
H1170 C1177 0.950 . S
C1171 C1169 1.387 1_655 S
C1171 C1173 1.390 . S
C1171 H1175 0.950 . S
H1172 C1168 0.950 . S
C1173 C1171 1.390 . S
C1173 C1174 1.387 1_556 S
C1173 H1176 0.950 . S
C1174 C1173 1.387 1_554 S
C1174 C1177 1.387 1_655 S
H1175 C1171 0.950 . S
H1176 C1173 0.950 . S
C1177 C1168 1.390 . S
C1177 H1170 0.950 . S
C1177 C1174 1.387 1_455 S
C1178 C1179 1.387 . S
C1178 H1182 0.950 . S
C1178 C1187 1.390 1_554 S
C1179 C1178 1.387 . S
C1179 C1181 1.387 . S
H1180 C1187 0.950 . S
C1181 C1179 1.387 . S
C1181 C1183 1.390 1_554 S
C1181 H1185 0.950 . S
H1182 C1178 0.950 . S
C1183 C1181 1.390 1_556 S
C1183 C1184 1.387 . S
C1183 H1186 0.950 . S
C1184 C1183 1.387 . S
C1184 C1187 1.387 . S
H1185 C1181 0.950 . S
H1186 C1183 0.950 . S
C1187 C1178 1.390 1_556 S
C1187 H1180 0.950 . S
C1187 C1184 1.387 . S
C469 C5 1.258 . S
C474 C148 1.262 . S
C479 C18 1.262 . S
C484 C122 1.258 . S
C489 C135 1.262 . S
C494 C31 1.258 . S
C499 C44 1.258 . S
C504 C96 1.262 . S
C509 C109 1.262 . S
C514 C57 1.258 . S
C519 C70 1.258 . S
C524 C83 1.262 . S
C529 C304 1.261 . S
C534 C161 1.260 . S
C539 C174 1.258 . S
C544 C278 1.262 . S
C549 C187 1.258 . S
C554 C291 1.262 . S
C559 C252 1.262 . S
C564 C200 1.258 . S
C569 C213 1.262 . S
C574 C265 1.258 . S
C579 C239 1.260 . S
C584 C226 1.260 . S
C589 C317 1.260 . S
C594 C460 1.260 . S
C599 C434 1.258 . S
C604 C330 1.262 . S
C609 C447 1.262 . S
C614 C343 1.258 . S
C619 C408 1.262 . S
C624 C356 1.258 . S
C629 C421 1.262 . S
C634 C369 1.258 . S
C639 C395 1.262 . S
C644 C382 1.259 . S
C649 C0 1.321 . S
C654 C52 1.323 . S
C659 C65 1.323 . S
C664 C13 1.322 . S
C669 C26 1.322 . S
C674 C39 1.322 . S
C679 C78 1.321 . S
C684 C130 1.323 . S
C689 C91 1.321 . S
C694 C143 1.324 . S
C699 C104 1.322 . S
C704 C117 1.322 . S
C709 C208 1.323 . S
C714 C156 1.322 . S
C719 C221 1.323 . S
C724 C169 1.321 . S
C729 C182 1.323 . S
C734 C195 1.323 . S
C739 C286 1.323 . S
C744 C234 1.321 . S
C749 C299 1.321 . S
C754 C247 1.323 . S
C759 C260 1.322 . S
C764 C273 1.322 . S
C769 C364 1.322 . S
C774 C312 1.324 . S
C779 C325 1.322 . S
C784 C377 1.322 . S
C789 C338 1.322 . S
C794 C351 1.322 . S
C799 C442 1.322 . S
C804 C390 1.323 . S
C809 C403 1.321 . S
C814 C455 1.323 . S
C819 C429 1.322 . S
C824 C416 1.322 . S
C829 C385 1.305 . S
C834 C8 1.305 . S
C839 C21 1.305 . S
C844 C359 1.306 . S
C849 C34 1.306 . S
C854 C372 1.305 . S
C859 C47 1.307 . S
C864 C177 1.305 . S
C869 C190 1.307 . S
C874 C60 1.304 . S
C879 C164 1.305 . S
C884 C73 1.305 . S
C889 C86 1.305 . S
C894 C307 1.305 . S
C899 C99 1.307 . S
C904 C281 1.304 . S
C909 C112 1.304 . S
C914 C294 1.307 . S
C919 C411 1.305 . S
C924 C125 1.307 . S
C929 C424 1.305 . S
C934 C138 1.306 . S
C939 C151 1.306 . S
C944 C398 1.306 . S
C949 C333 1.307 . S
C954 C203 1.304 . S
C959 C216 1.305 . S
C964 C346 1.306 . S
C969 C320 1.306 . S
C974 C229 1.306 . S
C979 C463 1.305 . S
C984 C242 1.305 . S
C989 C255 1.306 . S
C994 C437 1.305 . S
C999 C268 1.307 . S
C1004 C450 1.305 . S
C1009 C10 1.607 . S
C1014 C387 1.607 . S
C1019 C361 1.606 . S
C1024 C23 1.605 . S
C1029 C36 1.605 . S
C1034 C374 1.606 . S
C1039 C179 1.605 . S
C1044 C49 1.605 . S
C1049 C62 1.606 . S
C1054 C192 1.606 . S
C1059 C75 1.607 . S
C1064 C166 1.607 . S
C1069 C309 1.607 . S
C1074 C88 1.607 . S
C1079 C101 1.607 . S
C1084 C283 1.607 . S
C1089 C114 1.607 . S
C1094 C296 1.607 . S
C1099 C127 1.606 . S
C1104 C413 1.607 . S
C1109 C426 1.607 . S
C1114 C140 1.607 . S
C1119 C153 1.605 . S
C1124 C400 1.605 . S
C1129 C335 1.607 . S
C1134 C205 1.606 . S
C1139 C218 1.607 . S
C1144 C348 1.607 . S
C1149 C231 1.607 . S
C1154 C322 1.607 . S
C1159 C465 1.607 . S
C1164 C244 1.607 . S
C1169 C439 1.607 . S
C1174 C257 1.607 . S
C1179 C270 1.607 . S
C1184 C452 1.607 . S
