# Generated by pormake.
# Topology wga, (5)-cn, num edge types: 1
# Building blocks:
#     Node 0, Type 0, BuildingBlock: XOMCOT_clean_sbu_1, # of connection points: 5
#     Node 1, Type 0, BuildingBlock: XOMCOT_clean_sbu_1, # of connection points: 5
#     Node 2, Type 0, BuildingBlock: XOMCOT_clean_sbu_1, # of connection points: 5
#     Node 3, Type 0, BuildingBlock: XOMCOT_clean_sbu_1, # of connection points: 5
#     Node 4, Type 0, BuildingBlock: XOMCOT_clean_sbu_1, # of connection points: 5
#     Node 5, Type 0, BuildingBlock: XOMCOT_clean_sbu_1, # of connection points: 5
#     Node 6, Type 0, BuildingBlock: XOMCOT_clean_sbu_1, # of connection points: 5
#     Node 7, Type 0, BuildingBlock: XOMCOT_clean_sbu_1, # of connection points: 5
#     Node 8, Type 0, BuildingBlock: XOMCOT_clean_sbu_1, # of connection points: 5
#     Node 9, Type 0, BuildingBlock: XOMCOT_clean_sbu_1, # of connection points: 5
#     Node 10, Type 0, BuildingBlock: XOMCOT_clean_sbu_1, # of connection points: 5
#     Node 11, Type 0, BuildingBlock: XOMCOT_clean_sbu_1, # of connection points: 5
#     Node 12, Type 0, BuildingBlock: XOMCOT_clean_sbu_1, # of connection points: 5
#     Node 13, Type 0, BuildingBlock: XOMCOT_clean_sbu_1, # of connection points: 5
#     Node 14, Type 0, BuildingBlock: XOMCOT_clean_sbu_1, # of connection points: 5
#     Node 15, Type 0, BuildingBlock: XOMCOT_clean_sbu_1, # of connection points: 5
#     Node 16, Type 0, BuildingBlock: XOMCOT_clean_sbu_1, # of connection points: 5
#     Node 17, Type 0, BuildingBlock: XOMCOT_clean_sbu_1, # of connection points: 5
#     Node 18, Type 0, BuildingBlock: XOMCOT_clean_sbu_1, # of connection points: 5
#     Node 19, Type 0, BuildingBlock: XOMCOT_clean_sbu_1, # of connection points: 5
#     Node 20, Type 0, BuildingBlock: XOMCOT_clean_sbu_1, # of connection points: 5
#     Node 21, Type 0, BuildingBlock: XOMCOT_clean_sbu_1, # of connection points: 5
#     Node 22, Type 0, BuildingBlock: XOMCOT_clean_sbu_1, # of connection points: 5
#     Node 23, Type 0, BuildingBlock: XOMCOT_clean_sbu_1, # of connection points: 5
#     Node 24, Type 0, BuildingBlock: XOMCOT_clean_sbu_1, # of connection points: 5
#     Node 25, Type 0, BuildingBlock: XOMCOT_clean_sbu_1, # of connection points: 5
#     Node 26, Type 0, BuildingBlock: XOMCOT_clean_sbu_1, # of connection points: 5
#     Node 27, Type 0, BuildingBlock: XOMCOT_clean_sbu_1, # of connection points: 5
#     Node 28, Type 0, BuildingBlock: XOMCOT_clean_sbu_1, # of connection points: 5
#     Node 29, Type 0, BuildingBlock: XOMCOT_clean_sbu_1, # of connection points: 5
#     Node 30, Type 0, BuildingBlock: XOMCOT_clean_sbu_1, # of connection points: 5
#     Node 31, Type 0, BuildingBlock: XOMCOT_clean_sbu_1, # of connection points: 5
#     Edge 32, Type (0, 0), BuildingBlock: OJICUG_clean_linker_0, # of connection points: 2
#     Edge 33, Type (0, 0), BuildingBlock: OJICUG_clean_linker_0, # of connection points: 2
#     Edge 34, Type (0, 0), BuildingBlock: OJICUG_clean_linker_0, # of connection points: 2
#     Edge 35, Type (0, 0), BuildingBlock: OJICUG_clean_linker_0, # of connection points: 2
#     Edge 36, Type (0, 0), BuildingBlock: OJICUG_clean_linker_0, # of connection points: 2
#     Edge 37, Type (0, 0), BuildingBlock: OJICUG_clean_linker_0, # of connection points: 2
#     Edge 38, Type (0, 0), BuildingBlock: OJICUG_clean_linker_0, # of connection points: 2
#     Edge 39, Type (0, 0), BuildingBlock: OJICUG_clean_linker_0, # of connection points: 2
#     Edge 40, Type (0, 0), BuildingBlock: OJICUG_clean_linker_0, # of connection points: 2
#     Edge 41, Type (0, 0), BuildingBlock: OJICUG_clean_linker_0, # of connection points: 2
#     Edge 42, Type (0, 0), BuildingBlock: OJICUG_clean_linker_0, # of connection points: 2
#     Edge 43, Type (0, 0), BuildingBlock: OJICUG_clean_linker_0, # of connection points: 2
#     Edge 44, Type (0, 0), BuildingBlock: OJICUG_clean_linker_0, # of connection points: 2
#     Edge 45, Type (0, 0), BuildingBlock: OJICUG_clean_linker_0, # of connection points: 2
#     Edge 46, Type (0, 0), BuildingBlock: OJICUG_clean_linker_0, # of connection points: 2
#     Edge 47, Type (0, 0), BuildingBlock: OJICUG_clean_linker_0, # of connection points: 2
#     Edge 48, Type (0, 0), BuildingBlock: OJICUG_clean_linker_0, # of connection points: 2
#     Edge 49, Type (0, 0), BuildingBlock: OJICUG_clean_linker_0, # of connection points: 2
#     Edge 50, Type (0, 0), BuildingBlock: OJICUG_clean_linker_0, # of connection points: 2
#     Edge 51, Type (0, 0), BuildingBlock: OJICUG_clean_linker_0, # of connection points: 2
#     Edge 52, Type (0, 0), BuildingBlock: OJICUG_clean_linker_0, # of connection points: 2
#     Edge 53, Type (0, 0), BuildingBlock: OJICUG_clean_linker_0, # of connection points: 2
#     Edge 54, Type (0, 0), BuildingBlock: OJICUG_clean_linker_0, # of connection points: 2
#     Edge 55, Type (0, 0), BuildingBlock: OJICUG_clean_linker_0, # of connection points: 2
#     Edge 56, Type (0, 0), BuildingBlock: OJICUG_clean_linker_0, # of connection points: 2
#     Edge 57, Type (0, 0), BuildingBlock: OJICUG_clean_linker_0, # of connection points: 2
#     Edge 58, Type (0, 0), BuildingBlock: OJICUG_clean_linker_0, # of connection points: 2
#     Edge 59, Type (0, 0), BuildingBlock: OJICUG_clean_linker_0, # of connection points: 2
#     Edge 60, Type (0, 0), BuildingBlock: OJICUG_clean_linker_0, # of connection points: 2
#     Edge 61, Type (0, 0), BuildingBlock: OJICUG_clean_linker_0, # of connection points: 2
#     Edge 62, Type (0, 0), BuildingBlock: OJICUG_clean_linker_0, # of connection points: 2
#     Edge 63, Type (0, 0), BuildingBlock: OJICUG_clean_linker_0, # of connection points: 2
#     Edge 64, Type (0, 0), BuildingBlock: OJICUG_clean_linker_0, # of connection points: 2
#     Edge 65, Type (0, 0), BuildingBlock: OJICUG_clean_linker_0, # of connection points: 2
#     Edge 66, Type (0, 0), BuildingBlock: OJICUG_clean_linker_0, # of connection points: 2
#     Edge 67, Type (0, 0), BuildingBlock: OJICUG_clean_linker_0, # of connection points: 2
#     Edge 68, Type (0, 0), BuildingBlock: OJICUG_clean_linker_0, # of connection points: 2
#     Edge 69, Type (0, 0), BuildingBlock: OJICUG_clean_linker_0, # of connection points: 2
#     Edge 70, Type (0, 0), BuildingBlock: OJICUG_clean_linker_0, # of connection points: 2
#     Edge 71, Type (0, 0), BuildingBlock: OJICUG_clean_linker_0, # of connection points: 2
#     Edge 72, Type (0, 0), BuildingBlock: OJICUG_clean_linker_0, # of connection points: 2
#     Edge 73, Type (0, 0), BuildingBlock: OJICUG_clean_linker_0, # of connection points: 2
#     Edge 74, Type (0, 0), BuildingBlock: OJICUG_clean_linker_0, # of connection points: 2
#     Edge 75, Type (0, 0), BuildingBlock: OJICUG_clean_linker_0, # of connection points: 2
#     Edge 76, Type (0, 0), BuildingBlock: OJICUG_clean_linker_0, # of connection points: 2
#     Edge 77, Type (0, 0), BuildingBlock: OJICUG_clean_linker_0, # of connection points: 2
#     Edge 78, Type (0, 0), BuildingBlock: OJICUG_clean_linker_0, # of connection points: 2
#     Edge 79, Type (0, 0), BuildingBlock: OJICUG_clean_linker_0, # of connection points: 2
#     Edge 80, Type (0, 0), BuildingBlock: OJICUG_clean_linker_0, # of connection points: 2
#     Edge 81, Type (0, 0), BuildingBlock: OJICUG_clean_linker_0, # of connection points: 2
#     Edge 82, Type (0, 0), BuildingBlock: OJICUG_clean_linker_0, # of connection points: 2
#     Edge 83, Type (0, 0), BuildingBlock: OJICUG_clean_linker_0, # of connection points: 2
#     Edge 84, Type (0, 0), BuildingBlock: OJICUG_clean_linker_0, # of connection points: 2
#     Edge 85, Type (0, 0), BuildingBlock: OJICUG_clean_linker_0, # of connection points: 2
#     Edge 86, Type (0, 0), BuildingBlock: OJICUG_clean_linker_0, # of connection points: 2
#     Edge 87, Type (0, 0), BuildingBlock: OJICUG_clean_linker_0, # of connection points: 2
#     Edge 88, Type (0, 0), BuildingBlock: OJICUG_clean_linker_0, # of connection points: 2
#     Edge 89, Type (0, 0), BuildingBlock: OJICUG_clean_linker_0, # of connection points: 2
#     Edge 90, Type (0, 0), BuildingBlock: OJICUG_clean_linker_0, # of connection points: 2
#     Edge 91, Type (0, 0), BuildingBlock: OJICUG_clean_linker_0, # of connection points: 2
#     Edge 92, Type (0, 0), BuildingBlock: OJICUG_clean_linker_0, # of connection points: 2
#     Edge 93, Type (0, 0), BuildingBlock: OJICUG_clean_linker_0, # of connection points: 2
#     Edge 94, Type (0, 0), BuildingBlock: OJICUG_clean_linker_0, # of connection points: 2
#     Edge 95, Type (0, 0), BuildingBlock: OJICUG_clean_linker_0, # of connection points: 2
#     Edge 96, Type (0, 0), BuildingBlock: OJICUG_clean_linker_0, # of connection points: 2
#     Edge 97, Type (0, 0), BuildingBlock: OJICUG_clean_linker_0, # of connection points: 2
#     Edge 98, Type (0, 0), BuildingBlock: OJICUG_clean_linker_0, # of connection points: 2
#     Edge 99, Type (0, 0), BuildingBlock: OJICUG_clean_linker_0, # of connection points: 2
#     Edge 100, Type (0, 0), BuildingBlock: OJICUG_clean_linker_0, # of connection points: 2
#     Edge 101, Type (0, 0), BuildingBlock: OJICUG_clean_linker_0, # of connection points: 2
#     Edge 102, Type (0, 0), BuildingBlock: OJICUG_clean_linker_0, # of connection points: 2
#     Edge 103, Type (0, 0), BuildingBlock: OJICUG_clean_linker_0, # of connection points: 2
#     Edge 104, Type (0, 0), BuildingBlock: OJICUG_clean_linker_0, # of connection points: 2
#     Edge 105, Type (0, 0), BuildingBlock: OJICUG_clean_linker_0, # of connection points: 2
#     Edge 106, Type (0, 0), BuildingBlock: OJICUG_clean_linker_0, # of connection points: 2
#     Edge 107, Type (0, 0), BuildingBlock: OJICUG_clean_linker_0, # of connection points: 2
#     Edge 108, Type (0, 0), BuildingBlock: OJICUG_clean_linker_0, # of connection points: 2
#     Edge 109, Type (0, 0), BuildingBlock: OJICUG_clean_linker_0, # of connection points: 2
#     Edge 110, Type (0, 0), BuildingBlock: OJICUG_clean_linker_0, # of connection points: 2
#     Edge 111, Type (0, 0), BuildingBlock: OJICUG_clean_linker_0, # of connection points: 2
# Relax obj value: 0.096
# Max RMSD: 0.106
# Mean RMSD: 0.106
data_MOF--net-wga--node1-XOMCOT_clean_sbu_1--edge1-OJICUG_clean_linker_0
_symmetry_space_group_name_H-M    P1
_symmetry_Int_Tables_number       1
_symmetry_cell_setting            triclinic
loop_
_symmetry_equiv_pos_as_xyz
'x, y, z'
_cell_length_a     81.819547
_cell_length_b     81.801587
_cell_length_c     13.549976
_cell_angle_alpha  89.990206
_cell_angle_beta   89.987018
_cell_angle_gamma 90.0595
loop_
_atom_site_label
_atom_site_type_symbol
_atom_site_fract_x
_atom_site_fract_y
_atom_site_fract_z
_atom_type_partial_charge
C0 C 0.07953 0.58041 0.95267 0.0
C1 C 0.08098 0.58297 0.85278 0.0
N2 N 0.09479 0.57574 0.82115 0.0
N3 N 0.09219 0.5713 0.98488 0.0
C4 C 0.10168 0.56932 0.90352 0.0
H5 H 0.06952 0.58457 0.99819 0.0
Co6 Co 0.09482 0.56406 0.11688 0.0
C7 C 0.10011 0.532 0.9997 0.0
O8 O 0.09392 0.5374 0.9166 0.0
N9 N 0.09729 0.55755 0.25014 0.0
C10 C 0.0956 0.54266 0.38738 0.0
C11 C 0.09377 0.5426 0.28656 0.0
C12 C 0.10074 0.56664 0.33138 0.0
N13 N 0.09994 0.5578 0.41588 0.0
O14 O 0.11757 0.57012 0.11023 0.0
H15 H 0.08902 0.53257 0.24364 0.0
H16 H 0.10321 0.57961 0.32946 0.0
O17 O 0.10045 0.54131 0.07595 0.0
C18 C 0.12057 0.5847 0.13815 0.0
O19 O 0.10841 0.5939 0.16823 0.0
N20 N 0.0722 0.55927 0.12604 0.0
C21 C 0.03812 0.55701 0.14393 0.0
C22 C 0.04695 0.5456 0.08786 0.0
C23 C 0.06394 0.54695 0.07973 0.0
C24 C 0.06388 0.57027 0.18253 0.0
C25 C 0.04689 0.56938 0.19258 0.0
H26 H 0.07015 0.53816 0.03483 0.0
H27 H 0.07049 0.58011 0.21809 0.0
H28 H 0.11303 0.56253 0.90375 0.0
H29 H 0.07199 0.58884 0.8061 0.0
H30 H 0.09286 0.53259 0.43656 0.0
H31 H 0.04077 0.5357 0.05007 0.0
H32 H 0.04065 0.57861 0.23567 0.0
C33 C 0.66549 0.82869 0.23483 0.0
C34 C 0.66431 0.82921 0.1336 0.0
N35 N 0.67485 0.84051 0.09953 0.0
N36 N 0.67702 0.83937 0.26582 0.0
C37 C 0.68197 0.84683 0.18129 0.0
H38 H 0.65817 0.82094 0.28145 0.0
Co39 Co 0.68425 0.84403 0.39695 0.0
C40 C 0.71523 0.84103 0.28276 0.0
O41 O 0.70933 0.82801 0.23834 0.0
N42 N 0.69099 0.84902 0.52598 0.0
C43 C 0.70297 0.86063 0.65547 0.0
C44 C 0.70263 0.85974 0.55398 0.0
C45 C 0.68439 0.84361 0.6116 0.0
N46 N 0.69143 0.85051 0.692 0.0
O47 O 0.67836 0.86657 0.37461 0.0
H48 H 0.71007 0.86686 0.5039 0.0
H49 H 0.67443 0.83492 0.61445 0.0
O50 O 0.70666 0.84836 0.3483 0.0
C51 C 0.66667 0.87254 0.4255 0.0
O52 O 0.66008 0.86361 0.49558 0.0
N53 N 0.68877 0.82167 0.42261 0.0
C54 C 0.69128 0.78797 0.45576 0.0
C55 C 0.70534 0.7978 0.44962 0.0
C56 C 0.7038 0.81471 0.43583 0.0
C57 C 0.67509 0.8126 0.43965 0.0
C58 C 0.676 0.79573 0.45374 0.0
H59 H 0.71473 0.8221 0.43643 0.0
H60 H 0.66329 0.81853 0.44156 0.0
H61 H 0.69085 0.85664 0.17965 0.0
H62 H 0.65656 0.8215 0.08861 0.0
H63 H 0.71075 0.86858 0.69865 0.0
H64 H 0.71741 0.79251 0.45637 0.0
H65 H 0.66476 0.78883 0.46079 0.0
C66 C 0.40815 0.41473 0.5221 0.0
C67 C 0.40937 0.41366 0.42097 0.0
N68 N 0.41402 0.42835 0.38546 0.0
N69 N 0.41192 0.43002 0.5509 0.0
C70 C 0.41572 0.43797 0.46623 0.0
H71 H 0.40415 0.40512 0.57142 0.0
Co72 Co 0.41004 0.43749 0.68126 0.0
C73 C 0.39671 0.46728 0.57876 0.0
O74 O 0.38507 0.45919 0.53314 0.0
N75 N 0.40805 0.44486 0.81207 0.0
C76 C 0.39966 0.45831 0.94512 0.0
C77 C 0.39874 0.45738 0.844 0.0
C78 C 0.41449 0.43833 0.89528 0.0
N79 N 0.40953 0.44628 0.9778 0.0
O80 O 0.38689 0.43253 0.67659 0.0
H81 H 0.39125 0.46502 0.79727 0.0
H82 H 0.42237 0.42771 0.89511 0.0
O83 O 0.40665 0.45975 0.63519 0.0
C84 C 0.38185 0.42106 0.73297 0.0
O85 O 0.39204 0.41464 0.79693 0.0
N86 N 0.43265 0.44086 0.68686 0.0
C87 C 0.46671 0.44236 0.69756 0.0
C88 C 0.45723 0.45661 0.70574 0.0
C89 C 0.44017 0.45558 0.70099 0.0
C90 C 0.44161 0.42689 0.6804 0.0
C91 C 0.45864 0.42736 0.68487 0.0
H92 H 0.43306 0.46657 0.7104 0.0
H93 H 0.43546 0.41527 0.67161 0.0
H94 H 0.41936 0.45067 0.46364 0.0
H95 H 0.40624 0.40309 0.37688 0.0
H96 H 0.39292 0.46675 0.99119 0.0
H97 H 0.46292 0.4684 0.71767 0.0
H98 H 0.4654 0.41606 0.67745 0.0
C99 C 0.83237 0.168 0.73975 0.0
C100 C 0.83349 0.16746 0.63849 0.0
N101 N 0.82262 0.15647 0.6046 0.0
N102 N 0.82056 0.15766 0.77098 0.0
C103 C 0.81534 0.15036 0.68649 0.0
H104 H 0.83996 0.17551 0.78619 0.0
Co105 Co 0.8133 0.15295 0.90212 0.0
C106 C 0.78244 0.15751 0.78949 0.0
O107 O 0.78899 0.17042 0.74723 0.0
N108 N 0.80653 0.14789 0.03102 0.0
C109 C 0.79426 0.13658 0.16051 0.0
C110 C 0.79462 0.13748 0.05898 0.0
C111 C 0.81327 0.15312 0.11664 0.0
N112 N 0.80605 0.1464 0.19706 0.0
O113 O 0.81868 0.13032 0.87808 0.0
H114 H 0.78696 0.13062 1.00884 0.0
H115 H 0.82342 0.16159 0.11949 0.0
O116 O 0.79068 0.14944 0.85353 0.0
C117 C 0.83052 0.12426 0.92733 0.0
O118 O 0.83728 0.13308 0.99726 0.0
N119 N 0.80937 0.17535 0.92974 0.0
C120 C 0.80744 0.20894 0.9677 0.0
C121 C 0.79324 0.1993 0.96297 0.0
C122 C 0.7945 0.18243 0.94683 0.0
C123 C 0.82325 0.18419 0.94545 0.0
C124 C 0.82261 0.20102 0.96181 0.0
H125 H 0.7835 0.17516 0.94882 0.0
H126 H 0.83496 0.1781 0.94522 0.0
H127 H 0.8062 0.14081 0.68505 0.0
H128 H 0.84147 0.17492 0.59339 0.0
H129 H 0.78624 0.12886 0.20371 0.0
H130 H 0.78127 0.2047 0.97279 0.0
H131 H 0.83396 0.20776 0.9679 0.0
C132 C 0.07066 0.41622 0.08891 0.0
C133 C 0.07198 0.41343 0.18856 0.0
N134 N 0.08648 0.41926 0.21963 0.0
N135 N 0.08411 0.42411 0.05624 0.0
C136 C 0.09385 0.4251 0.13713 0.0
H137 H 0.06025 0.41306 0.04375 0.0
Co138 Co 0.08715 0.43091 0.92331 0.0
C139 C 0.09643 0.46226 0.03799 0.0
O140 O 0.08991 0.45769 0.12201 0.0
N141 N 0.08994 0.43704 0.79 0.0
C142 C 0.0895 0.45186 0.65231 0.0
C143 C 0.0875 0.45215 0.75295 0.0
C144 C 0.09299 0.42765 0.70954 0.0
N145 N 0.09292 0.43643 0.62468 0.0
O146 O 0.10883 0.42172 0.92496 0.0
H147 H 0.08345 0.46253 0.7955 0.0
H148 H 0.09475 0.41456 0.71263 0.0
O149 O 0.09561 0.45285 0.96238 0.0
C150 C 0.10688 0.40648 0.90905 0.0
O151 O 0.09186 0.40112 0.89643 0.0
N152 N 0.06532 0.43826 0.91734 0.0
C153 C 0.03142 0.44251 0.90889 0.0
C154 C 0.04125 0.45314 0.96465 0.0
C155 C 0.0582 0.45083 0.96788 0.0
C156 C 0.05601 0.42816 0.86042 0.0
C157 C 0.03909 0.43007 0.85488 0.0
H158 H 0.0653 0.45887 1.01338 0.0
H159 H 0.06172 0.41808 0.82204 0.0
H160 H 0.10584 0.43072 0.13647 0.0
H161 H 0.06253 0.40839 0.23553 0.0
H162 H 0.08755 0.46203 0.60258 0.0
H163 H 0.03588 0.46302 1.00673 0.0
H164 H 0.03204 0.4214 0.81202 0.0
C165 C 0.83523 0.84246 0.25923 0.0
C166 C 0.83629 0.84125 0.36034 0.0
N167 N 0.82135 0.83759 0.39632 0.0
N168 N 0.81972 0.83964 0.23085 0.0
C169 C 0.81159 0.83644 0.31581 0.0
H170 H 0.84501 0.84592 0.20964 0.0
Co171 Co 0.81248 0.84238 0.1007 0.0
C172 C 0.78294 0.85629 0.20187 0.0
O173 O 0.79119 0.86767 0.24878 0.0
N174 N 0.80545 0.84522 0.97002 0.0
C175 C 0.7925 0.85441 0.83712 0.0
C176 C 0.79341 0.85516 0.93833 0.0
C177 C 0.81173 0.8386 0.88665 0.0
N178 N 0.80406 0.84401 0.80421 0.0
O179 O 0.81788 0.86533 0.11075 0.0
H180 H 0.78605 0.86288 0.9854 0.0
H181 H 0.82191 0.83017 0.88672 0.0
O182 O 0.79035 0.84622 0.14574 0.0
C183 C 0.82939 0.87107 0.05734 0.0
O184 O 0.83573 0.8618 0.98813 0.0
N185 N 0.80847 0.81989 0.09073 0.0
C186 C 0.80599 0.78593 0.07593 0.0
C187 C 0.79194 0.79575 0.07501 0.0
C188 C 0.79344 0.81276 0.08139 0.0
C189 C 0.82225 0.81058 0.09022 0.0
C190 C 0.8213 0.79359 0.08307 0.0
H191 H 0.78253 0.82009 0.07777 0.0
H192 H 0.83408 0.81643 0.09577 0.0
H193 H 0.79868 0.8337 0.3189 0.0
H194 H 0.84705 0.84381 0.40409 0.0
H195 H 0.78436 0.86154 0.79123 0.0
H196 H 0.7799 0.79035 0.06786 0.0
H197 H 0.83247 0.78649 0.08467 0.0
C198 C 0.42515 0.5846 0.5406 0.0
C199 C 0.42463 0.58579 0.64183 0.0
N200 N 0.4132 0.57539 0.67589 0.0
N201 N 0.41433 0.5732 0.50961 0.0
C202 C 0.4068 0.56835 0.59411 0.0
H203 H 0.43302 0.59178 0.49394 0.0
Co204 Co 0.40968 0.56596 0.37854 0.0
C205 C 0.41241 0.53494 0.49364 0.0
O206 O 0.42546 0.54086 0.53772 0.0
N207 N 0.4047 0.5592 0.24951 0.0
C208 C 0.39304 0.54728 0.12001 0.0
C209 C 0.39394 0.54761 0.22151 0.0
C210 C 0.41013 0.56579 0.16388 0.0
N211 N 0.4032 0.55879 0.08346 0.0
O212 O 0.38711 0.57224 0.39996 0.0
H213 H 0.38679 0.5402 0.27159 0.0
H214 H 0.41885 0.57573 0.16105 0.0
O215 O 0.4051 0.54352 0.42785 0.0
C216 C 0.38151 0.58412 0.34898 0.0
O217 O 0.39075 0.59057 0.27992 0.0
N218 N 0.43206 0.56122 0.35339 0.0
C219 C 0.46579 0.55864 0.32002 0.0
C220 C 0.45596 0.5446 0.32768 0.0
C221 C 0.43903 0.54616 0.34137 0.0
C222 C 0.44115 0.57487 0.33537 0.0
C223 C 0.45802 0.57392 0.32092 0.0
H224 H 0.43165 0.53523 0.34167 0.0
H225 H 0.43523 0.58667 0.33294 0.0
H226 H 0.3969 0.55957 0.59573 0.0
H227 H 0.43245 0.59342 0.68685 0.0
H228 H 0.38505 0.53953 0.07686 0.0
H229 H 0.46127 0.53251 0.32209 0.0
H230 H 0.46492 0.58514 0.31277 0.0
C231 C 0.66151 0.1593 0.76958 0.0
C232 C 0.66043 0.16048 0.8707 0.0
N233 N 0.67525 0.16461 0.90657 0.0
N234 N 0.67693 0.16262 0.74112 0.0
C235 C 0.68496 0.16606 0.826 0.0
H236 H 0.65184 0.15556 0.72005 0.0
Co237 Co 0.68426 0.16026 0.61094 0.0
C238 C 0.71371 0.14631 0.7116 0.0
O239 O 0.70526 0.13476 0.75561 0.0
N240 N 0.69141 0.15777 0.48024 0.0
C241 C 0.70465 0.14901 0.3473 0.0
C242 C 0.70375 0.14821 0.44847 0.0
C243 C 0.68493 0.1642 0.39691 0.0
N244 N 0.69277 0.15905 0.31445 0.0
O245 O 0.67929 0.13717 0.6193 0.0
H246 H 0.71133 0.14069 0.49541 0.0
H247 H 0.67448 0.1723 0.39702 0.0
O248 O 0.70651 0.15669 0.65642 0.0
C249 C 0.66802 0.13107 0.56544 0.0
O250 O 0.66145 0.14014 0.49599 0.0
N251 N 0.68784 0.18288 0.60248 0.0
C252 C 0.68972 0.21697 0.59049 0.0
C253 C 0.70391 0.20734 0.5861 0.0
C254 C 0.7027 0.19027 0.59129 0.0
C255 C 0.67392 0.19199 0.60501 0.0
C256 C 0.67457 0.20903 0.59949 0.0
H257 H 0.71369 0.18309 0.58521 0.0
H258 H 0.6622 0.18596 0.61185 0.0
H259 H 0.69779 0.1692 0.82892 0.0
H260 H 0.64975 0.15761 0.91453 0.0
H261 H 0.71299 0.14213 0.30137 0.0
H262 H 0.71583 0.21292 0.57723 0.0
H263 H 0.6633 0.21592 0.60383 0.0
C264 C 0.91994 0.41742 0.11951 0.0
C265 C 0.91852 0.41474 0.21931 0.0
N266 N 0.9044 0.4214 0.25068 0.0
N267 N 0.90696 0.42606 0.08716 0.0
C268 C 0.89734 0.4276 0.16827 0.0
H269 H 0.93013 0.41367 0.07407 0.0
Co270 Co 0.90408 0.43311 0.95493 0.0
C271 C 0.89788 0.46528 0.07012 0.0
O272 O 0.90305 0.45992 0.15576 0.0
N273 N 0.90138 0.43941 0.82133 0.0
C274 C 0.90304 0.45416 0.68348 0.0
C275 C 0.90496 0.4543 0.78418 0.0
C276 C 0.8978 0.43026 0.74052 0.0
N277 N 0.89858 0.43901 0.6557 0.0
O278 O 0.8815 0.42667 0.96277 0.0
H279 H 0.90993 0.4643 0.82646 0.0
H280 H 0.8953 0.4173 0.74291 0.0
O281 O 0.89822 0.45587 0.99438 0.0
C282 C 0.87885 0.41195 0.9364 0.0
O283 O 0.89118 0.40302 0.90599 0.0
N284 N 0.92655 0.43835 0.94518 0.0
C285 C 0.96047 0.44184 0.92615 0.0
C286 C 0.95146 0.45223 0.98803 0.0
C287 C 0.93455 0.45025 0.99689 0.0
C288 C 0.93506 0.42823 0.88399 0.0
C289 C 0.95198 0.42978 0.8731 0.0
H290 H 0.92818 0.45807 0.04732 0.0
H291 H 0.92868 0.41861 0.84499 0.0
H292 H 0.8857 0.43389 0.16781 0.0
H293 H 0.92768 0.40919 0.26612 0.0
H294 H 0.90585 0.46414 0.63378 0.0
H295 H 0.95743 0.46179 0.02999 0.0
H296 H 0.95839 0.42125 0.82585 0.0
C297 C 0.33302 0.1773 0.84875 0.0
C298 C 0.33578 0.17598 0.94847 0.0
N299 N 0.32977 0.16156 0.97977 0.0
N300 N 0.32499 0.16392 0.81631 0.0
C301 C 0.32384 0.15424 0.89741 0.0
H302 H 0.33635 0.18763 0.80333 0.0
Co303 Co 0.3183 0.16073 0.68343 0.0
C304 C 0.28667 0.15188 0.79715 0.0
O305 O 0.29112 0.15832 0.88166 0.0
N306 N 0.31227 0.15779 0.55031 0.0
C307 C 0.29749 0.15823 0.41256 0.0
C308 C 0.29718 0.16026 0.51312 0.0
C309 C 0.32168 0.1547 0.47001 0.0
N310 N 0.31291 0.15477 0.38508 0.0
O311 O 0.32703 0.13883 0.6877 0.0
H312 H 0.28679 0.16437 0.55546 0.0
H313 H 0.33477 0.15294 0.47335 0.0
O314 O 0.29625 0.15268 0.72228 0.0
C315 C 0.34244 0.14001 0.67591 0.0
O316 O 0.34863 0.15464 0.6607 0.0
N317 N 0.31131 0.18272 0.67564 0.0
C318 C 0.3073 0.21669 0.66469 0.0
C319 C 0.29664 0.20702 0.72141 0.0
C320 C 0.29884 0.19005 0.72595 0.0
C321 C 0.32149 0.19187 0.61818 0.0
C322 C 0.3197 0.2088 0.61139 0.0
H323 H 0.29079 0.18309 0.77224 0.0
H324 H 0.33152 0.186 0.58015 0.0
H325 H 0.31812 0.1423 0.89686 0.0
H326 H 0.34096 0.18538 0.99525 0.0
H327 H 0.28734 0.16021 0.36274 0.0
H328 H 0.28678 0.21254 0.76308 0.0
H329 H 0.3284 0.21571 0.56789 0.0
C330 C 0.57682 0.58521 0.54988 0.0
C331 C 0.5773 0.58639 0.65111 0.0
N332 N 0.58892 0.57623 0.68512 0.0
N333 N 0.58787 0.57406 0.51884 0.0
C334 C 0.59546 0.56933 0.60333 0.0
H335 H 0.56882 0.59224 0.50325 0.0
Co336 Co 0.59279 0.56704 0.38779 0.0
C337 C 0.59026 0.53589 0.50151 0.0
O338 O 0.57714 0.54155 0.54584 0.0
N339 N 0.59803 0.5605 0.25876 0.0
C340 C 0.60991 0.54881 0.12929 0.0
C341 C 0.60899 0.54911 0.23078 0.0
C342 C 0.59251 0.56699 0.17313 0.0
N343 N 0.59956 0.56012 0.09272 0.0
O344 O 0.61529 0.57338 0.41114 0.0
H345 H 0.61622 0.54181 0.28088 0.0
H346 H 0.5836 0.57675 0.17027 0.0
O347 O 0.59746 0.54463 0.4361 0.0
C348 C 0.62128 0.58514 0.36069 0.0
O349 O 0.61246 0.59162 0.28982 0.0
N350 N 0.57048 0.56212 0.36109 0.0
C351 C 0.53687 0.55913 0.3245 0.0
C352 C 0.54682 0.54521 0.33293 0.0
C353 C 0.56369 0.54698 0.34829 0.0
C354 C 0.56129 0.57567 0.34273 0.0
C355 C 0.54447 0.57452 0.32661 0.0
H356 H 0.57117 0.53614 0.34899 0.0
H357 H 0.56708 0.58755 0.34124 0.0
H358 H 0.60552 0.56076 0.60488 0.0
H359 H 0.56934 0.59387 0.69617 0.0
H360 H 0.61801 0.54119 0.08614 0.0
H361 H 0.54166 0.53306 0.32654 0.0
H362 H 0.53747 0.58565 0.31802 0.0
C363 C 0.16341 0.84558 0.29481 0.0
C364 C 0.16231 0.84441 0.39592 0.0
N365 N 0.17692 0.83958 0.43156 0.0
N366 N 0.17865 0.84158 0.26611 0.0
C367 C 0.18653 0.83772 0.35087 0.0
H368 H 0.15391 0.84976 0.24544 0.0
Co369 Co 0.18608 0.8436 0.13577 0.0
C370 C 0.21612 0.85627 0.23767 0.0
O371 O 0.20827 0.86807 0.28315 0.0
N372 N 0.19337 0.84576 1.00501 0.0
C373 C 0.20692 0.85404 0.87201 0.0
C374 C 0.20603 0.85492 0.97317 0.0
C375 C 0.18671 0.83948 0.92175 0.0
N376 N 0.19473 0.84435 0.83926 0.0
O377 O 0.18178 0.86683 0.14315 0.0
H378 H 0.21384 0.86222 1.02006 0.0
H379 H 0.17599 0.83171 0.92193 0.0
O380 O 0.20839 0.84643 0.18144 0.0
C381 C 0.17059 0.87281 0.08834 0.0
O382 O 0.1639 0.8635 1.02047 0.0
N383 N 0.18902 0.82091 0.12814 0.0
C384 C 0.19039 0.78682 0.11678 0.0
C385 C 0.2046 0.79631 0.10587 0.0
C386 C 0.20363 0.81337 0.11091 0.0
C387 C 0.17506 0.81194 0.13687 0.0
C388 C 0.17547 0.7949 0.13205 0.0
H389 H 0.21457 0.82047 0.09935 0.0
H390 H 0.1635 0.81808 0.14796 0.0
H391 H 0.19919 0.83399 0.35362 0.0
H392 H 0.15179 0.84774 0.43993 0.0
H393 H 0.21549 0.86064 0.826 0.0
H394 H 0.21631 0.79063 0.09171 0.0
H395 H 0.1642 0.78812 0.14138 0.0
C396 C 0.92666 0.58209 0.9745 0.0
C397 C 0.92523 0.58482 0.87482 0.0
N398 N 0.91105 0.57826 0.84356 0.0
N399 N 0.91361 0.57354 1.00702 0.0
C400 C 0.90397 0.57203 0.92595 0.0
H401 H 0.93686 0.58582 1.01981 0.0
Co402 Co 0.91073 0.5667 0.13998 0.0
C403 C 0.90281 0.53493 0.02602 0.0
O404 O 0.90936 0.5395 0.94205 0.0
N405 N 0.90809 0.56057 0.27299 0.0
C406 C 0.90896 0.54583 0.41082 0.0
C407 C 0.91101 0.54557 0.31026 0.0
C408 C 0.9047 0.5699 0.35318 0.0
N409 N 0.90503 0.56115 0.4382 0.0
O410 O 0.88856 0.57452 0.13612 0.0
H411 H 0.91539 0.53529 0.26792 0.0
H412 H 0.90251 0.58293 0.34961 0.0
O413 O 0.9033 0.54447 0.10107 0.0
C414 C 0.88854 0.59001 0.1454 0.0
O415 O 0.90261 0.59751 0.15763 0.0
N416 N 0.93294 0.5604 0.14713 0.0
C417 C 0.96699 0.55715 0.1566 0.0
C418 C 0.95744 0.54592 0.10339 0.0
C419 C 0.94043 0.54775 0.09952 0.0
C420 C 0.94196 0.57111 0.20179 0.0
C421 C 0.95895 0.56972 0.20761 0.0
H422 H 0.93359 0.53918 0.05627 0.0
H423 H 0.93593 0.58121 0.23821 0.0
H424 H 0.89226 0.56585 0.92652 0.0
H425 H 0.9344 0.59038 0.82803 0.0
H426 H 0.91122 0.53574 0.46069 0.0
H427 H 0.96306 0.53587 0.06402 0.0
H428 H 0.96575 0.57883 0.24861 0.0
C429 C 0.17045 0.17233 0.69695 0.0
C430 C 0.16763 0.17095 0.59733 0.0
N431 N 0.17362 0.15653 0.56623 0.0
N432 N 0.17851 0.15899 0.72951 0.0
C433 C 0.17957 0.14924 0.64868 0.0
H434 H 0.16718 0.1827 0.74221 0.0
Co435 Co 0.18535 0.15607 0.86224 0.0
C436 C 0.21716 0.14762 0.74878 0.0
O437 O 0.21217 0.1529 0.66258 0.0
N438 N 0.19147 0.15337 0.99594 0.0
C439 C 0.20618 0.1545 0.13395 0.0
C440 C 0.20643 0.15651 0.03331 0.0
C441 C 0.18217 0.14994 0.07637 0.0
N442 N 0.19091 0.15041 0.16133 0.0
O443 O 0.17686 0.13406 0.8594 0.0
H444 H 0.21662 0.16112 0.99108 0.0
H445 H 0.16916 0.14767 0.07339 0.0
O446 O 0.20766 0.14853 0.82399 0.0
C447 C 0.1617 0.13515 0.88023 0.0
O448 O 0.15567 0.14982 0.89595 0.0
N449 N 0.19213 0.17811 0.86885 0.0
C450 C 0.19687 0.2119 0.88387 0.0
C451 C 0.20682 0.20237 0.82212 0.0
C452 C 0.20423 0.18549 0.81545 0.0
C453 C 0.18246 0.18717 0.9298 0.0
C454 C 0.18465 0.20402 0.93882 0.0
H455 H 0.21168 0.17864 0.76517 0.0
H456 H 0.17264 0.18129 0.96982 0.0
H457 H 0.18528 0.13731 0.64935 0.0
H458 H 0.16247 0.18033 0.55038 0.0
H459 H 0.21622 0.15695 0.18388 0.0
H460 H 0.21642 0.20793 0.77846 0.0
H461 H 0.17643 0.21086 0.98583 0.0
C462 C 0.5966 0.41575 0.52704 0.0
C463 C 0.59541 0.41466 0.42593 0.0
N464 N 0.59054 0.42926 0.39036 0.0
N465 N 0.59257 0.43098 0.55578 0.0
C466 C 0.58867 0.43886 0.47107 0.0
H467 H 0.60078 0.40624 0.57638 0.0
Co468 Co 0.59446 0.43843 0.68614 0.0
C469 C 0.6072 0.46851 0.58396 0.0
O470 O 0.61895 0.46068 0.53788 0.0
N471 N 0.5965 0.44576 0.81689 0.0
C472 C 0.60473 0.45934 0.94987 0.0
C473 C 0.60563 0.45843 0.84873 0.0
C474 C 0.5902 0.4391 0.90015 0.0
N475 N 0.59505 0.44713 0.98262 0.0
O476 O 0.61766 0.434 0.67991 0.0
H477 H 0.61296 0.46623 0.80189 0.0
H478 H 0.58246 0.42836 0.90001 0.0
O479 O 0.59742 0.46074 0.64037 0.0
C480 C 0.6233 0.42259 0.73445 0.0
O481 O 0.6137 0.41597 0.8011 0.0
N482 N 0.5718 0.44141 0.69275 0.0
C483 C 0.53771 0.44259 0.70143 0.0
C484 C 0.54707 0.4569 0.71125 0.0
C485 C 0.56415 0.45603 0.70757 0.0
C486 C 0.56295 0.42736 0.68518 0.0
C487 C 0.5459 0.42767 0.68869 0.0
H488 H 0.57115 0.46706 0.71801 0.0
H489 H 0.56918 0.41581 0.67585 0.0
H490 H 0.58488 0.4515 0.46839 0.0
H491 H 0.59875 0.40414 0.38189 0.0
H492 H 0.61133 0.4679 0.99588 0.0
H493 H 0.54128 0.46863 0.7234 0.0
H494 H 0.53922 0.41633 0.68019 0.0
C495 C 0.33329 0.82745 0.27355 0.0
C496 C 0.33447 0.82795 0.17231 0.0
N497 N 0.32395 0.83925 0.13819 0.0
N498 N 0.32178 0.83814 0.30448 0.0
C499 C 0.31684 0.84558 0.21992 0.0
H500 H 0.34058 0.81971 0.32026 0.0
Co501 Co 0.31457 0.8428 0.43557 0.0
C502 C 0.28353 0.83976 0.32145 0.0
O503 O 0.2894 0.82673 0.27703 0.0
N504 N 0.30785 0.84778 0.56461 0.0
C505 C 0.29587 0.85934 0.69416 0.0
C506 C 0.29621 0.85845 0.59267 0.0
C507 C 0.31447 0.84238 0.65019 0.0
N508 N 0.30743 0.84926 0.73064 0.0
O509 O 0.32044 0.86545 0.41303 0.0
H510 H 0.28875 0.86555 0.54264 0.0
H511 H 0.32444 0.83373 0.65297 0.0
O512 O 0.29214 0.84708 0.38694 0.0
C513 C 0.33189 0.87182 0.46431 0.0
O514 O 0.33849 0.86322 0.53577 0.0
N515 N 0.31007 0.82036 0.46136 0.0
C516 C 0.30754 0.78661 0.49465 0.0
C517 C 0.29349 0.7964 0.48764 0.0
C518 C 0.29503 0.81334 0.47395 0.0
C519 C 0.32374 0.81131 0.47888 0.0
C520 C 0.32282 0.79443 0.49328 0.0
H521 H 0.28409 0.82068 0.47411 0.0
H522 H 0.33553 0.81727 0.48096 0.0
H523 H 0.30798 0.85538 0.21826 0.0
H524 H 0.3422 0.82023 0.12735 0.0
H525 H 0.28808 0.86727 0.73738 0.0
H526 H 0.28142 0.79106 0.49369 0.0
H527 H 0.33405 0.78756 0.50101 0.0
C528 C 0.57711 0.08226 0.49697 0.0
C529 C 0.5776 0.08342 0.39569 0.0
N530 N 0.58949 0.07354 0.36191 0.0
N531 N 0.58843 0.07141 0.5283 0.0
C532 C 0.59616 0.06683 0.4439 0.0
H533 H 0.5689 0.08909 0.54335 0.0
Co534 Co 0.59361 0.06444 0.65931 0.0
C535 C 0.59062 0.03352 0.54586 0.0
O536 O 0.57743 0.03948 0.50377 0.0
N537 N 0.59912 0.05799 0.78819 0.0
C538 C 0.6111 0.0464 0.91767 0.0
C539 C 0.61015 0.04667 0.81612 0.0
C540 C 0.59359 0.06447 0.87384 0.0
N541 N 0.60069 0.05766 0.95428 0.0
O542 O 0.61596 0.07098 0.63435 0.0
H543 H 0.61736 0.03936 0.76595 0.0
H544 H 0.58459 0.07414 0.87666 0.0
O545 O 0.59824 0.04205 0.61059 0.0
C546 C 0.62164 0.08302 0.68363 0.0
O547 O 0.61265 0.08942 0.75402 0.0
N548 N 0.57145 0.05929 0.68787 0.0
C549 C 0.53815 0.05559 0.72997 0.0
C550 C 0.54836 0.04189 0.7216 0.0
C551 C 0.56511 0.04403 0.70384 0.0
C552 C 0.56202 0.07268 0.70586 0.0
C553 C 0.54532 0.07116 0.72489 0.0
H554 H 0.57286 0.03338 0.70393 0.0
H555 H 0.56753 0.08469 0.70542 0.0
H556 H 0.60639 0.05846 0.44258 0.0
H557 H 0.56948 0.09068 0.35043 0.0
H558 H 0.61923 0.03881 0.96079 0.0
H559 H 0.54351 0.02965 0.73016 0.0
H560 H 0.53805 0.08212 0.73365 0.0
C561 C 0.16857 0.32107 0.70964 0.0
C562 C 0.16569 0.32231 0.61004 0.0
N563 N 0.17096 0.33703 0.57902 0.0
N564 N 0.17596 0.33479 0.74229 0.0
C565 C 0.17655 0.34459 0.66149 0.0
H566 H 0.16581 0.31053 0.75483 0.0
Co567 Co 0.18261 0.33803 0.8753 0.0
C568 C 0.2138 0.34839 0.76186 0.0
O569 O 0.2093 0.34244 0.67623 0.0
N570 N 0.18858 0.341 1.00878 0.0
C571 C 0.20332 0.34083 0.14676 0.0
C572 C 0.2037 0.33879 0.04617 0.0
C573 C 0.1791 0.34392 0.08904 0.0
N574 N 0.18783 0.34401 0.17404 0.0
O575 O 0.17284 0.35945 0.87341 0.0
H576 H 0.21416 0.33485 1.00391 0.0
H577 H 0.16598 0.34544 0.08573 0.0
O578 O 0.20435 0.347 0.83702 0.0
C579 C 0.15764 0.35709 0.88889 0.0
O580 O 0.15268 0.34193 0.90152 0.0
N581 N 0.19062 0.31643 0.88126 0.0
C582 C 0.19637 0.28277 0.89167 0.0
C583 C 0.20618 0.29288 0.8323 0.0
C584 C 0.2031 0.3097 0.82804 0.0
C585 C 0.18121 0.30683 0.94074 0.0
C586 C 0.1839 0.29004 0.94742 0.0
H587 H 0.21044 0.31701 0.77944 0.0
H588 H 0.17111 0.31221 0.98073 0.0
H589 H 0.18167 0.3568 0.6622 0.0
H590 H 0.16098 0.3127 0.56307 0.0
H591 H 0.21349 0.33904 0.19673 0.0
H592 H 0.21599 0.28781 0.78832 0.0
H593 H 0.1758 0.28273 0.99279 0.0
C594 C 0.90598 0.90897 0.96673 0.0
C595 C 0.90714 0.90784 0.86564 0.0
N596 N 0.91202 0.92244 0.82987 0.0
N597 N 0.91005 0.9242 0.99529 0.0
C598 C 0.91392 0.93207 0.91046 0.0
H599 H 0.90177 0.89948 1.0162 0.0
Co600 Co 0.90805 0.93161 0.12558 0.0
C601 C 0.89541 0.9616 0.02449 0.0
O602 O 0.88353 0.95366 0.98018 0.0
N603 N 0.90587 0.93886 0.25632 0.0
C604 C 0.89768 0.95245 0.38928 0.0
C605 C 0.89682 0.95157 0.28812 0.0
C606 C 0.91207 0.93214 0.3396 0.0
N607 N 0.90726 0.94019 0.42207 0.0
O608 O 0.88481 0.92754 0.11752 0.0
H609 H 0.88959 0.95944 0.24121 0.0
H610 H 0.91975 0.92138 0.33945 0.0
O611 O 0.9054 0.95396 0.08006 0.0
C612 C 0.87834 0.91652 0.17164 0.0
O613 O 0.88719 0.90965 0.24095 0.0
N614 N 0.93078 0.93441 0.13356 0.0
C615 C 0.9649 0.93581 0.14112 0.0
C616 C 0.95545 0.94994 0.15551 0.0
C617 C 0.93837 0.94896 0.15199 0.0
C618 C 0.9397 0.92048 0.12288 0.0
C619 C 0.95676 0.92091 0.12572 0.0
H620 H 0.93131 0.95988 0.16477 0.0
H621 H 0.93353 0.90893 0.1117 0.0
H622 H 0.91768 0.94473 0.9076 0.0
H623 H 0.90377 0.89732 0.82173 0.0
H624 H 0.89115 0.96106 0.43525 0.0
H625 H 0.96117 0.9617 0.16805 0.0
H626 H 0.96349 0.90961 0.11689 0.0
C627 C 0.33392 0.67523 0.26646 0.0
C628 C 0.3351 0.67473 0.16522 0.0
N629 N 0.3248 0.6632 0.13125 0.0
N630 N 0.32263 0.6643 0.29755 0.0
C631 C 0.31783 0.65673 0.21309 0.0
H632 H 0.34104 0.68317 0.31305 0.0
Co633 Co 0.31546 0.65953 0.42865 0.0
C634 C 0.28442 0.6622 0.31403 0.0
O635 O 0.29028 0.67532 0.27037 0.0
N636 N 0.30878 0.65443 0.55768 0.0
C637 C 0.29695 0.64267 0.6872 0.0
C638 C 0.29727 0.64358 0.5857 0.0
C639 C 0.31532 0.65991 0.64329 0.0
N640 N 0.30837 0.65292 0.72373 0.0
O641 O 0.32187 0.637 0.40673 0.0
H642 H 0.2899 0.63639 0.53562 0.0
H643 H 0.32518 0.66871 0.64611 0.0
O644 O 0.29304 0.65486 0.3795 0.0
C645 C 0.33382 0.63148 0.45748 0.0
O646 O 0.34022 0.64077 0.52648 0.0
N647 N 0.31061 0.68187 0.45439 0.0
C648 C 0.30779 0.71551 0.49044 0.0
C649 C 0.29382 0.70559 0.48241 0.0
C650 C 0.2955 0.6887 0.46735 0.0
C651 C 0.3242 0.69103 0.47245 0.0
C652 C 0.32313 0.70787 0.48823 0.0
H653 H 0.28463 0.68124 0.46698 0.0
H654 H 0.33604 0.6852 0.47416 0.0
H655 H 0.30914 0.64676 0.21156 0.0
H656 H 0.34266 0.68261 0.12013 0.0
H657 H 0.28925 0.63463 0.73038 0.0
H658 H 0.28171 0.71079 0.48894 0.0
H659 H 0.33431 0.71483 0.49657 0.0
C660 C 0.59316 0.91306 0.52429 0.0
C661 C 0.59196 0.91196 0.6254 0.0
N662 N 0.58696 0.92652 0.66094 0.0
N663 N 0.58901 0.92826 0.49553 0.0
C664 C 0.58504 0.93611 0.5802 0.0
H665 H 0.59739 0.90358 0.47495 0.0
Co666 Co 0.59067 0.93575 0.36518 0.0
C667 C 0.60418 0.96536 0.46664 0.0
O668 O 0.61583 0.95714 0.51112 0.0
N669 N 0.59249 0.94312 0.23436 0.0
C670 C 0.60052 0.95678 0.1012 0.0
C671 C 0.60147 0.95589 0.20229 0.0
C672 C 0.58624 0.93638 0.15122 0.0
N673 N 0.59098 0.94447 0.06864 0.0
O674 O 0.61381 0.93124 0.36959 0.0
H675 H 0.60876 0.96376 0.24886 0.0
H676 H 0.57865 0.92554 0.15149 0.0
O677 O 0.59399 0.95796 0.41107 0.0
C678 C 0.61965 0.91999 0.31467 0.0
O679 O 0.61022 0.91333 0.24735 0.0
N680 N 0.56801 0.93892 0.36074 0.0
C681 C 0.53391 0.94052 0.36299 0.0
C682 C 0.54335 0.95469 0.34893 0.0
C683 C 0.56043 0.95362 0.3476 0.0
C684 C 0.55907 0.92497 0.37035 0.0
C685 C 0.54203 0.92549 0.37235 0.0
H686 H 0.56749 0.96459 0.33601 0.0
H687 H 0.56524 0.91334 0.3776 0.0
H688 H 0.58115 0.94873 0.58274 0.0
H689 H 0.59535 0.90146 0.66946 0.0
H690 H 0.60703 0.9654 0.05507 0.0
H691 H 0.53762 0.96654 0.34084 0.0
H692 H 0.53528 0.91418 0.38065 0.0
C693 C 0.33174 0.3292 0.85877 0.0
C694 C 0.33434 0.33062 0.95861 0.0
N695 N 0.32722 0.3445 0.99028 0.0
N696 N 0.32271 0.34193 0.82666 0.0
C697 C 0.32083 0.35143 0.90798 0.0
H698 H 0.33579 0.31915 0.81313 0.0
Co699 Co 0.31556 0.34449 0.69457 0.0
C700 C 0.28339 0.35085 0.80961 0.0
O701 O 0.28848 0.34532 0.89503 0.0
N702 N 0.30913 0.34687 0.56115 0.0
C703 C 0.29427 0.34511 0.42383 0.0
C704 C 0.29421 0.34325 0.52462 0.0
C705 C 0.3182 0.35042 0.48 0.0
N706 N 0.30939 0.34958 0.39549 0.0
O707 O 0.32191 0.36716 0.70005 0.0
H708 H 0.2842 0.33842 0.56753 0.0
H709 H 0.33114 0.35301 0.48198 0.0
O710 O 0.29289 0.35049 0.73431 0.0
C711 C 0.3365 0.37007 0.67224 0.0
O712 O 0.34568 0.35784 0.64285 0.0
N713 N 0.31039 0.32192 0.68697 0.0
C714 C 0.30736 0.28785 0.67246 0.0
C715 C 0.29673 0.29697 0.73222 0.0
C716 C 0.29847 0.31395 0.73874 0.0
C717 C 0.3207 0.3133 0.62745 0.0
C718 C 0.31939 0.29631 0.61889 0.0
H719 H 0.29042 0.32042 0.78733 0.0
H720 H 0.33031 0.31966 0.58817 0.0
H721 H 0.31421 0.36289 0.90772 0.0
H722 H 0.34015 0.32159 1.00524 0.0
H723 H 0.28424 0.34232 0.37455 0.0
H724 H 0.28716 0.29104 0.77431 0.0
H725 H 0.32808 0.28984 0.57307 0.0
C726 C 0.92128 0.0797 0.99187 0.0
C727 C 0.92074 0.08089 0.0931 0.0
N728 N 0.90972 0.07007 0.12728 0.0
N729 N 0.9109 0.06789 0.96101 0.0
C730 C 0.90357 0.06278 0.04559 0.0
H731 H 0.92884 0.08721 0.94509 0.0
Co732 Co 0.90643 0.06054 0.82989 0.0
C733 C 0.91008 0.02961 0.94425 0.0
O734 O 0.92294 0.03583 0.98877 0.0
N735 N 0.90162 0.05369 0.70089 0.0
C736 C 0.89028 0.04147 0.57135 0.0
C737 C 0.89117 0.04182 0.67284 0.0
C738 C 0.90687 0.06043 0.61531 0.0
N739 N 0.90013 0.05325 0.53486 0.0
O740 O 0.88377 0.06604 0.85198 0.0
H741 H 0.88422 0.03421 0.72288 0.0
H742 H 0.91532 0.0706 0.61251 0.0
O743 O 0.90255 0.03803 0.87876 0.0
C744 C 0.87763 0.07775 0.80189 0.0
O745 O 0.88641 0.08447 0.73156 0.0
N746 N 0.92889 0.05646 0.80467 0.0
C747 C 0.96282 0.05496 0.78077 0.0
C748 C 0.95342 0.04059 0.78399 0.0
C749 C 0.93636 0.04162 0.79327 0.0
C750 C 0.9376 0.07038 0.78788 0.0
C751 C 0.95456 0.06997 0.77798 0.0
H752 H 0.92932 0.03047 0.79239 0.0
H753 H 0.93131 0.08198 0.78392 0.0
H754 H 0.89398 0.05367 0.0473 0.0
H755 H 0.92826 0.08884 0.13801 0.0
H756 H 0.8825 0.03352 0.52814 0.0
H757 H 0.95915 0.02867 0.78217 0.0
H758 H 0.96115 0.08137 0.76921 0.0
C759 C 0.16421 0.65655 0.28525 0.0
C760 C 0.16312 0.65775 0.38638 0.0
N761 N 0.17771 0.66272 0.42182 0.0
N762 N 0.17942 0.66066 0.25639 0.0
C763 C 0.18729 0.66462 0.34102 0.0
H764 H 0.15469 0.65236 0.23596 0.0
Co765 Co 0.18692 0.65898 0.12602 0.0
C766 C 0.21688 0.64605 0.22837 0.0
O767 O 0.20893 0.63424 0.27337 0.0
N768 N 0.19435 0.65718 0.99519 0.0
C769 C 0.20797 0.64907 0.86212 0.0
C770 C 0.20705 0.64813 0.96324 0.0
C771 C 0.18769 0.66349 0.91198 0.0
N772 N 0.19574 0.6587 0.82945 0.0
O773 O 0.18236 0.63572 0.13032 0.0
H774 H 0.21484 0.64078 1.00994 0.0
H775 H 0.17691 0.67114 0.91215 0.0
O776 O 0.20923 0.65594 0.17216 0.0
C777 C 0.17103 0.63043 0.07377 0.0
O778 O 0.1645 0.64046 1.00927 0.0
N779 N 0.18991 0.68166 0.12088 0.0
C780 C 0.19092 0.71578 0.11282 0.0
C781 C 0.20528 0.70651 0.10288 0.0
C782 C 0.2045 0.68942 0.10636 0.0
C783 C 0.17583 0.69042 0.12866 0.0
C784 C 0.17606 0.70746 0.12559 0.0
H785 H 0.21556 0.68248 0.09585 0.0
H786 H 0.16431 0.68409 0.1377 0.0
H787 H 0.19991 0.66852 0.34353 0.0
H788 H 0.15262 0.6544 0.43052 0.0
H789 H 0.21654 0.6425 0.81604 0.0
H790 H 0.21698 0.71239 0.09073 0.0
H791 H 0.16467 0.71405 0.13433 0.0
C792 C 0.40458 0.91434 0.55401 0.0
C793 C 0.40579 0.91324 0.65508 0.0
N794 N 0.41034 0.92795 0.69073 0.0
N795 N 0.40827 0.92966 0.52535 0.0
C796 C 0.41199 0.93762 0.61009 0.0
H797 H 0.40059 0.90474 0.50463 0.0
Co798 Co 0.40614 0.93699 0.39496 0.0
C799 C 0.39364 0.96738 0.49572 0.0
O800 O 0.38191 0.95976 0.5435 0.0
N801 N 0.40385 0.94416 0.26415 0.0
C802 C 0.39533 0.95756 0.13122 0.0
C803 C 0.39446 0.95663 0.23236 0.0
C804 C 0.41026 0.93763 0.18089 0.0
N805 N 0.40524 0.94557 0.09845 0.0
O806 O 0.38295 0.93249 0.40316 0.0
H807 H 0.38701 0.96428 0.27928 0.0
H808 H 0.41822 0.92708 0.18103 0.0
O809 O 0.40328 0.95938 0.43968 0.0
C810 C 0.37729 0.92089 0.35005 0.0
O811 O 0.38679 0.91427 0.28294 0.0
N812 N 0.4288 0.93998 0.38662 0.0
C813 C 0.46291 0.94111 0.37776 0.0
C814 C 0.45358 0.95541 0.36665 0.0
C815 C 0.4365 0.95457 0.37086 0.0
C816 C 0.43761 0.92592 0.39418 0.0
C817 C 0.45465 0.92621 0.39061 0.0
H818 H 0.42952 0.96562 0.36079 0.0
H819 H 0.43133 0.91438 0.40336 0.0
H820 H 0.4155 0.95035 0.61287 0.0
H821 H 0.40269 0.90264 0.69906 0.0
H822 H 0.38857 0.96599 0.08524 0.0
H823 H 0.45941 0.96717 0.35613 0.0
H824 H 0.46128 0.91481 0.39685 0.0
C825 C 0.83356 0.67541 0.30521 0.0
C826 C 0.83489 0.67482 0.40633 0.0
N827 N 0.82494 0.66299 0.44024 0.0
N828 N 0.82251 0.66424 0.27419 0.0
C829 C 0.81804 0.65642 0.35851 0.0
H830 H 0.84039 0.68361 0.25867 0.0
Co831 Co 0.8153 0.65958 0.14279 0.0
C832 C 0.78442 0.66085 0.25864 0.0
O833 O 0.79001 0.67401 0.30292 0.0
N834 N 0.8087 0.65456 1.01365 0.0
C835 C 0.797 0.64269 0.88415 0.0
C836 C 0.79719 0.64371 0.98555 0.0
C837 C 0.81543 0.65986 0.92817 0.0
N838 N 0.80852 0.65284 0.84771 0.0
O839 O 0.82317 0.63753 0.15862 0.0
H840 H 0.78975 0.63657 0.03545 0.0
H841 H 0.82535 0.6686 0.92545 0.0
O842 O 0.79316 0.65378 0.19266 0.0
C843 C 0.83757 0.63805 0.12238 0.0
O844 O 0.84283 0.65216 0.08835 0.0
N845 N 0.80945 0.68162 0.12015 0.0
C846 C 0.80612 0.71511 0.08313 0.0
C847 C 0.79227 0.70503 0.09241 0.0
C848 C 0.79421 0.68818 0.10796 0.0
C849 C 0.82287 0.69096 0.10116 0.0
C850 C 0.82156 0.70771 0.08513 0.0
H851 H 0.78347 0.68054 0.10896 0.0
H852 H 0.83479 0.6853 0.09854 0.0
H853 H 0.8096 0.64624 0.3601 0.0
H854 H 0.84227 0.68287 0.45144 0.0
H855 H 0.78932 0.63464 0.84103 0.0
H856 H 0.78008 0.71007 0.08623 0.0
H857 H 0.83264 0.71481 0.07615 0.0
C858 C 0.07319 0.08069 1.01261 0.0
C859 C 0.07373 0.082 0.11374 0.0
N860 N 0.08572 0.07226 0.14762 0.0
N861 N 0.08458 0.06988 0.98157 0.0
C862 C 0.09239 0.06547 0.06591 0.0
H863 H 0.06495 0.08745 0.96597 0.0
Co864 Co 0.08977 0.06318 0.84999 0.0
C865 C 0.08787 0.03196 0.96249 0.0
O866 O 0.0747 0.03745 1.00705 0.0
N867 N 0.0953 0.05712 0.72118 0.0
C868 C 0.10744 0.04565 0.59195 0.0
C869 C 0.10635 0.04581 0.69331 0.0
C870 C 0.08999 0.06381 0.63568 0.0
N871 N 0.09714 0.057 0.55535 0.0
O872 O 0.11191 0.07033 0.87184 0.0
H873 H 0.11347 0.0384 0.74339 0.0
H874 H 0.08105 0.07353 0.63277 0.0
O875 O 0.09497 0.04083 0.89725 0.0
C876 C 0.11209 0.08566 0.85497 0.0
O877 O 0.09842 0.09266 0.82647 0.0
N878 N 0.06767 0.05784 0.82293 0.0
C879 C 0.03395 0.05548 0.7918 0.0
C880 C 0.04361 0.04133 0.79905 0.0
C881 C 0.06059 0.04279 0.81217 0.0
C882 C 0.05875 0.0715 0.80331 0.0
C883 C 0.04189 0.07066 0.7896 0.0
H884 H 0.06786 0.03181 0.81426 0.0
H885 H 0.06478 0.08326 0.80041 0.0
H886 H 0.10272 0.05723 0.06738 0.0
H887 H 0.0656 0.08928 0.15884 0.0
H888 H 0.11557 0.03804 0.54895 0.0
H889 H 0.03812 0.02929 0.79712 0.0
H890 H 0.03513 0.08188 0.77829 0.0
C891 C 0.66542 0.33028 0.81959 0.0
C892 C 0.66429 0.33085 0.92085 0.0
N893 N 0.67559 0.34139 0.95493 0.0
N894 N 0.67766 0.34014 0.78855 0.0
C895 C 0.6831 0.34723 0.87313 0.0
H896 H 0.65755 0.3231 0.77301 0.0
Co897 Co 0.68521 0.34438 0.65738 0.0
C898 C 0.71585 0.33942 0.7718 0.0
O899 O 0.70907 0.3266 0.81378 0.0
N900 N 0.69229 0.34899 0.52845 0.0
C901 C 0.70493 0.35983 0.39879 0.0
C902 C 0.70454 0.35899 0.50032 0.0
C903 C 0.68539 0.34394 0.4429 0.0
N904 N 0.69282 0.35039 0.36239 0.0
O905 O 0.68032 0.36723 0.67909 0.0
H906 H 0.7124 0.36566 0.55032 0.0
H907 H 0.67494 0.33584 0.44021 0.0
O908 O 0.70782 0.34756 0.70713 0.0
C909 C 0.66887 0.37358 0.62774 0.0
O910 O 0.66193 0.36476 0.5584 0.0
N911 N 0.68873 0.32181 0.6319 0.0
C912 C 0.69023 0.28806 0.59752 0.0
C913 C 0.70454 0.29754 0.60106 0.0
C914 C 0.7035 0.31448 0.61544 0.0
C915 C 0.67475 0.3131 0.6171 0.0
C916 C 0.67516 0.2962 0.60262 0.0
H917 H 0.7146 0.3216 0.61271 0.0
H918 H 0.66312 0.31934 0.6163 0.0
H919 H 0.69259 0.35644 0.87477 0.0
H920 H 0.65602 0.32369 0.96583 0.0
H921 H 0.71318 0.36729 0.35548 0.0
H922 H 0.71644 0.29197 0.59166 0.0
H923 H 0.66372 0.2896 0.59726 0.0
C924 C 0.42883 0.08308 0.52089 0.0
C925 C 0.4283 0.08446 0.41979 0.0
N926 N 0.41594 0.07517 0.3859 0.0
N927 N 0.41706 0.07266 0.55189 0.0
C928 C 0.40902 0.06862 0.46763 0.0
H929 H 0.4374 0.08943 0.5675 0.0
Co930 Co 0.41204 0.06577 0.68333 0.0
C931 C 0.41186 0.03473 0.56789 0.0
O932 O 0.42515 0.03968 0.5222 0.0
N933 N 0.40669 0.05952 0.8125 0.0
C934 C 0.39428 0.04838 0.94197 0.0
C935 C 0.39534 0.04851 0.84061 0.0
C936 C 0.41225 0.06604 0.89795 0.0
N937 N 0.40491 0.05945 0.97841 0.0
O938 O 0.39027 0.07446 0.66663 0.0
H939 H 0.38789 0.04137 0.79073 0.0
H940 H 0.42141 0.07557 0.90067 0.0
O941 O 0.40539 0.04383 0.63434 0.0
C942 C 0.39152 0.08913 0.69789 0.0
O943 O 0.40589 0.0939 0.73055 0.0
N944 N 0.4339 0.05916 0.70647 0.0
C945 C 0.4674 0.05513 0.74097 0.0
C946 C 0.45709 0.04149 0.72964 0.0
C947 C 0.44024 0.04377 0.71542 0.0
C948 C 0.44348 0.07234 0.72725 0.0
C949 C 0.46023 0.07068 0.74238 0.0
H950 H 0.43244 0.03314 0.71241 0.0
H951 H 0.43806 0.08436 0.73089 0.0
H952 H 0.39841 0.06072 0.46608 0.0
H953 H 0.43674 0.0914 0.37465 0.0
H954 H 0.38588 0.04105 0.98507 0.0
H955 H 0.46197 0.0292 0.73282 0.0
H956 H 0.46751 0.08161 0.75264 0.0
C957 C 0.66366 0.65995 0.27271 0.0
C958 C 0.6626 0.66117 0.17161 0.0
N959 N 0.67751 0.66493 0.13567 0.0
N960 N 0.67915 0.66287 0.3011 0.0
C961 C 0.68726 0.66613 0.21619 0.0
H962 H 0.65389 0.65645 0.32229 0.0
Co963 Co 0.68637 0.66028 0.43127 0.0
C964 C 0.71616 0.64651 0.33112 0.0
O965 O 0.708 0.63503 0.28449 0.0
N966 N 0.69342 0.65759 0.56201 0.0
C967 C 0.70644 0.64848 0.69488 0.0
C968 C 0.70551 0.64771 0.5937 0.0
C969 C 0.68711 0.66418 0.64537 0.0
N970 N 0.69483 0.65883 0.72778 0.0
O971 O 0.68115 0.63724 0.42188 0.0
H972 H 0.7129 0.64001 0.54667 0.0
H973 H 0.67687 0.67255 0.64533 0.0
O974 O 0.70865 0.65663 0.38657 0.0
C975 C 0.66957 0.63156 0.47514 0.0
O976 O 0.66314 0.64094 0.54352 0.0
N977 N 0.69009 0.68286 0.44085 0.0
C978 C 0.69184 0.71691 0.45615 0.0
C979 C 0.70611 0.70737 0.4562 0.0
C980 C 0.70497 0.69032 0.44937 0.0
C981 C 0.67612 0.69189 0.44207 0.0
C982 C 0.6767 0.70891 0.44938 0.0
H983 H 0.71605 0.6832 0.45202 0.0
H984 H 0.66441 0.68579 0.43702 0.0
H985 H 0.70016 0.66895 0.21316 0.0
H986 H 0.65185 0.65857 0.12784 0.0
H987 H 0.71461 0.64139 0.74076 0.0
H988 H 0.71804 0.71301 0.463 0.0
H989 H 0.66537 0.71573 0.44823 0.0
C990 C 0.09611 0.91158 0.98275 0.0
C991 C 0.09495 0.91044 0.88165 0.0
N992 N 0.08946 0.92482 0.84611 0.0
N993 N 0.09145 0.92663 1.0115 0.0
C994 C 0.08722 0.93434 0.92683 0.0
H995 H 0.10067 0.90225 0.03209 0.0
Co996 Co 0.09294 0.93414 0.14185 0.0
C997 C 0.10498 0.96447 0.04025 0.0
O998 O 0.11697 0.95688 0.99504 0.0
N999 N 0.09459 0.94153 0.27267 0.0
C1000 C 0.10224 0.95543 0.40572 0.0
C1001 C 0.1032 0.95456 0.30461 0.0
C1002 C 0.08854 0.93462 0.35587 0.0
N1003 N 0.09305 0.94285 0.43838 0.0
O1004 O 0.11629 0.93052 0.13647 0.0
H1005 H 0.11025 0.96264 0.25791 0.0
H1006 H 0.08126 0.92357 0.35568 0.0
O1007 O 0.09525 0.95652 0.09612 0.0
C1008 C 0.12251 0.91949 0.1916 0.0
O1009 O 0.11329 0.91253 0.25892 0.0
N1010 N 0.07015 0.9364 0.14734 0.0
C1011 C 0.03598 0.93684 0.14876 0.0
C1012 C 0.04499 0.95127 0.16391 0.0
C1013 C 0.0621 0.95077 0.16339 0.0
C1014 C 0.06164 0.9222 0.13636 0.0
C1015 C 0.04458 0.92215 0.1361 0.0
H1016 H 0.06881 0.96192 0.17624 0.0
H1017 H 0.06817 0.91082 0.12697 0.0
H1018 H 0.08291 0.94682 0.92423 0.0
H1019 H 0.0987 0.90006 0.83759 0.0
H1020 H 0.10849 0.96425 0.45178 0.0
H1021 H 0.03889 0.96288 0.17448 0.0
H1022 H 0.03819 0.91065 0.1268 0.0
C1023 C 0.83609 0.33796 0.80402 0.0
C1024 C 0.83714 0.33677 0.70285 0.0
N1025 N 0.82238 0.3324 0.66721 0.0
N1026 N 0.82073 0.33443 0.83271 0.0
C1027 C 0.81273 0.33083 0.74795 0.0
H1028 H 0.84574 0.34181 0.85341 0.0
Co1029 Co 0.81327 0.33655 0.96291 0.0
C1030 C 0.78416 0.35082 0.86055 0.0
O1031 O 0.79283 0.36228 0.81713 0.0
N1032 N 0.80592 0.33875 0.09363 0.0
C1033 C 0.79259 0.34733 0.22669 0.0
C1034 C 0.7935 0.34819 0.12552 0.0
C1035 C 0.81241 0.3323 0.17692 0.0
N1036 N 0.80453 0.33737 0.25945 0.0
O1037 O 0.8185 0.35963 0.95716 0.0
H1038 H 0.7859 0.35572 0.07873 0.0
H1039 H 0.82296 0.32432 0.17677 0.0
O1040 O 0.79114 0.3404 0.91647 0.0
C1041 C 0.82955 0.3653 1.0142 0.0
O1042 O 0.83576 0.35578 0.08256 0.0
N1043 N 0.80952 0.31398 0.9692 0.0
C1044 C 0.80755 0.27992 0.97949 0.0
C1045 C 0.79336 0.28956 0.98313 0.0
C1046 C 0.79461 0.30662 0.9788 0.0
C1047 C 0.82342 0.30486 0.96722 0.0
C1048 C 0.82273 0.28783 0.97189 0.0
H1049 H 0.78363 0.31383 0.98436 0.0
H1050 H 0.83516 0.31089 0.9616 0.0
H1051 H 0.79995 0.32748 0.74528 0.0
H1052 H 0.84777 0.33976 0.65884 0.0
H1053 H 0.78421 0.35416 0.2727 0.0
H1054 H 0.78141 0.28398 0.99083 0.0
H1055 H 0.83399 0.28092 0.96807 0.0
C1056 C 0.10564 0.55735 0.69126 0.0
C1057 C 0.09882 0.57244 0.71896 0.0
H1058 H 0.11133 0.54089 0.57295 0.0
C1059 C 0.0941 0.58338 0.6439 0.0
H1060 H 0.10935 0.54858 0.74664 0.0
C1061 C 0.09531 0.57899 0.54404 0.0
C1062 C 0.10108 0.56345 0.51688 0.0
H1063 H 0.08893 0.59516 0.66263 0.0
H1064 H 0.09088 0.5874 0.4885 0.0
C1065 C 0.10664 0.55287 0.59159 0.0
C1066 C 0.6985 0.85163 0.87033 0.0
C1067 C 0.68714 0.84822 0.79495 0.0
H1068 H 0.70361 0.85179 0.02539 0.0
C1069 C 0.67147 0.84273 0.8223 0.0
H1070 H 0.71074 0.85567 0.85252 0.0
C1071 C 0.66736 0.84055 0.92187 0.0
C1072 C 0.67878 0.84379 0.99713 0.0
H1073 H 0.66228 0.84025 0.76691 0.0
H1074 H 0.65517 0.83636 0.93985 0.0
C1075 C 0.69438 0.84946 0.96992 0.0
C1076 C 0.4109 0.45386 0.15487 0.0
C1077 C 0.41246 0.44201 0.08004 0.0
H1078 H 0.41007 0.4589 0.30959 0.0
C1079 C 0.41589 0.42581 0.10779 0.0
H1080 H 0.40853 0.46651 0.13648 0.0
C1081 C 0.41697 0.42145 0.20768 0.0
C1082 C 0.41469 0.43318 0.28259 0.0
H1083 H 0.41712 0.41633 0.05259 0.0
H1084 H 0.41931 0.4088 0.22616 0.0
C1085 C 0.41199 0.44951 0.25461 0.0
C1086 C 0.8261 0.15387 0.32747 0.0
C1087 C 0.81034 0.14867 0.30003 0.0
H1088 H 0.84247 0.16002 0.44504 0.0
C1089 C 0.79886 0.1456 0.37535 0.0
H1090 H 0.83538 0.15607 0.27217 0.0
C1091 C 0.80296 0.14781 0.47494 0.0
C1092 C 0.81867 0.15318 0.50222 0.0
H1093 H 0.78655 0.1418 0.35748 0.0
H1094 H 0.79366 0.14574 0.53033 0.0
C1095 C 0.8302 0.15608 0.42703 0.0
C1096 C 0.08686 0.41565 0.49642 0.0
C1097 C 0.09386 0.43067 0.52393 0.0
H1098 H 0.07916 0.40016 0.37733 0.0
C1099 C 0.10034 0.44079 0.44956 0.0
H1100 H 0.08172 0.40761 0.55176 0.0
C1101 C 0.099 0.43649 0.34979 0.0
C1102 C 0.09092 0.42204 0.32172 0.0
H1103 H 0.10596 0.45236 0.46856 0.0
H1104 H 0.10341 0.44498 0.29462 0.0
C1105 C 0.08532 0.41144 0.39644 0.0
C1106 C 0.82398 0.83616 0.67404 0.0
C1107 C 0.80807 0.84073 0.70193 0.0
H1108 H 0.84061 0.83133 0.55556 0.0
C1109 C 0.7963 0.84295 0.62725 0.0
H1110 H 0.83339 0.83438 0.72907 0.0
C1111 C 0.80048 0.84135 0.52749 0.0
C1112 C 0.81657 0.83747 0.49934 0.0
H1113 H 0.78385 0.84619 0.6457 0.0
H1114 H 0.7912 0.84378 0.47257 0.0
C1115 C 0.82817 0.83457 0.57414 0.0
C1116 C 0.41328 0.58284 0.85363 0.0
C1117 C 0.4099 0.57147 0.7783 0.0
H1118 H 0.41367 0.58788 1.00863 0.0
C1119 C 0.40411 0.5559 0.80544 0.0
H1120 H 0.41756 0.595 0.8357 0.0
C1121 C 0.40194 0.55178 0.90503 0.0
C1122 C 0.40547 0.56309 0.9805 0.0
H1123 H 0.40168 0.54671 0.74991 0.0
H1124 H 0.3978 0.53956 0.92275 0.0
C1125 C 0.4111 0.57872 0.95321 0.0
C1126 C 0.66833 0.1675 0.08435 0.0
C1127 C 0.68003 0.16496 1.00956 0.0
H1128 H 0.66312 0.16761 0.23931 0.0
C1129 C 0.69624 0.16168 0.03772 0.0
H1130 H 0.65578 0.17029 0.06575 0.0
C1131 C 0.70048 0.16031 0.13749 0.0
C1132 C 0.68865 0.16216 0.21217 0.0
H1133 H 0.7056 0.15955 0.98283 0.0
H1134 H 0.71304 0.15753 0.15596 0.0
C1135 C 0.67258 0.16613 0.18426 0.0
C1136 C 0.89279 0.4393 0.3806 0.0
C1137 C 0.90015 0.42447 0.3528 0.0
H1138 H 0.88656 0.45552 0.4991 0.0
C1139 C 0.90519 0.41365 0.42777 0.0
H1140 H 0.88882 0.44796 0.32531 0.0
C1141 C 0.90378 0.41795 0.52769 0.0
C1142 C 0.8975 0.43329 0.55491 0.0
H1143 H 0.91079 0.40207 0.40893 0.0
H1144 H 0.90847 0.40969 0.58326 0.0
C1145 C 0.89161 0.4437 0.4803 0.0
C1146 C 0.33772 0.16266 0.15645 0.0
C1147 C 0.32708 0.15707 0.08189 0.0
H1148 H 0.34166 0.16614 0.31179 0.0
C1149 C 0.31271 0.14888 0.11018 0.0
H1150 H 0.34895 0.16889 0.13719 0.0
C1151 C 0.30851 0.14741 0.21004 0.0
C1152 C 0.31866 0.15388 0.28428 0.0
H1153 H 0.3042 0.14447 0.05518 0.0
H1154 H 0.297 0.1417 0.22923 0.0
C1155 C 0.33361 0.16099 0.25653 0.0
C1156 C 0.58882 0.58378 0.86268 0.0
C1157 C 0.59236 0.57244 0.78752 0.0
H1158 H 0.58845 0.58892 1.01757 0.0
C1159 C 0.5985 0.55703 0.81481 0.0
H1160 H 0.58427 0.59583 0.84461 0.0
C1161 C 0.60083 0.55302 0.91442 0.0
C1162 C 0.59713 0.56431 0.98974 0.0
H1163 H 0.60108 0.54786 0.75941 0.0
H1164 H 0.60524 0.54092 0.93227 0.0
C1165 C 0.59117 0.57978 0.96227 0.0
C1166 C 0.17426 0.83803 0.70921 0.0
C1167 C 0.19048 0.84139 0.73702 0.0
H1168 H 0.15728 0.83457 0.59077 0.0
C1169 C 0.20236 0.84281 0.66227 0.0
H1170 H 0.16476 0.8369 0.76433 0.0
C1171 C 0.19805 0.84163 0.56252 0.0
C1172 C 0.18171 0.83898 0.53447 0.0
H1173 H 0.21502 0.84511 0.6807 0.0
H1174 H 0.20747 0.84342 0.50755 0.0
C1175 C 0.16994 0.83686 0.60932 0.0
C1176 C 0.89904 0.56074 0.71309 0.0
C1177 C 0.90668 0.57541 0.74142 0.0
H1178 H 0.8925 0.54476 0.59404 0.0
C1179 C 0.91188 0.58625 0.66685 0.0
H1180 H 0.89495 0.55206 0.76808 0.0
C1181 C 0.91041 0.58208 0.56676 0.0
C1182 C 0.90388 0.56687 0.53899 0.0
H1183 H 0.91767 0.59772 0.68612 0.0
H1184 H 0.91527 0.59032 0.51152 0.0
C1185 C 0.89777 0.55649 0.61323 0.0
C1186 C 0.16577 0.15754 0.38945 0.0
C1187 C 0.17646 0.15212 0.46415 0.0
H1188 H 0.16189 0.16106 0.23409 0.0
C1189 C 0.19102 0.14429 0.43605 0.0
H1190 H 0.1544 0.16351 0.40859 0.0
C1191 C 0.19535 0.14304 0.33629 0.0
C1192 C 0.18513 0.14933 0.26198 0.0
H1193 H 0.19957 0.14001 0.49118 0.0
H1194 H 0.20701 0.13764 0.31722 0.0
C1195 C 0.17 0.15606 0.28946 0.0
C1196 C 0.59352 0.45474 0.15961 0.0
C1197 C 0.59213 0.44286 0.08488 0.0
H1198 H 0.59419 0.45984 0.31432 0.0
C1199 C 0.58886 0.42662 0.11273 0.0
H1200 H 0.59576 0.46742 0.14114 0.0
C1201 C 0.58776 0.42227 0.21263 0.0
C1202 C 0.58987 0.43405 0.28746 0.0
H1203 H 0.58776 0.41711 0.05761 0.0
H1204 H 0.58555 0.4096 0.23121 0.0
C1205 C 0.59241 0.45041 0.25938 0.0
C1206 C 0.33145 0.83928 0.96052 0.0
C1207 C 0.32004 0.84253 0.03577 0.0
H1208 H 0.33655 0.839 0.80556 0.0
C1209 C 0.30445 0.84819 1.00856 0.0
H1210 H 0.34364 0.8351 0.97851 0.0
C1211 C 0.30034 0.85036 0.90898 0.0
C1212 C 0.31171 0.84697 0.83359 0.0
H1213 H 0.29522 0.85052 0.06403 0.0
H1214 H 0.28811 0.85441 0.89119 0.0
C1215 C 0.32736 0.84147 0.86094 0.0
C1216 C 0.60205 0.0506 0.13277 0.0
C1217 C 0.59817 0.06181 0.05732 0.0
H1218 H 0.60229 0.04544 0.28783 0.0
C1219 C 0.59186 0.07716 0.08474 0.0
H1220 H 0.60672 0.03859 0.11505 0.0
C1221 C 0.58935 0.0811 0.1843 0.0
C1222 C 0.59308 0.06983 0.25956 0.0
H1223 H 0.58899 0.08624 0.02943 0.0
H1224 H 0.58453 0.09304 0.20228 0.0
C1225 C 0.59956 0.05456 0.23236 0.0
C1226 C 0.19192 0.35166 0.34892 0.0
C1227 C 0.18201 0.34483 0.27469 0.0
H1228 H 0.19602 0.35489 0.50379 0.0
C1229 C 0.16724 0.33734 0.30231 0.0
H1230 H 0.20329 0.35766 0.32977 0.0
C1231 C 0.16311 0.33565 0.40233 0.0
C1232 C 0.17353 0.34161 0.47694 0.0
H1233 H 0.15938 0.33192 0.24701 0.0
H1234 H 0.15206 0.3291 0.42157 0.0
C1235 C 0.18768 0.35019 0.44872 0.0
C1236 C 0.90888 0.94785 0.59896 0.0
C1237 C 0.91021 0.93594 0.52432 0.0
H1238 H 0.90832 0.953 0.75363 0.0
C1239 C 0.91349 0.91972 0.55225 0.0
H1240 H 0.90664 0.96052 0.58044 0.0
C1241 C 0.91467 0.91541 0.65217 0.0
C1242 C 0.91262 0.92721 0.72691 0.0
H1243 H 0.91456 0.9102 0.49722 0.0
H1244 H 0.9169 0.90275 0.67081 0.0
C1245 C 0.91006 0.94356 0.69873 0.0
C1246 C 0.30134 0.65164 0.90216 0.0
C1247 C 0.31264 0.65526 0.82669 0.0
H1248 H 0.29625 0.65138 0.05727 0.0
C1249 C 0.3282 0.66104 0.85398 0.0
H1250 H 0.28917 0.64738 0.88445 0.0
C1251 C 0.33228 0.66329 0.95354 0.0
C1252 C 0.32093 0.65983 0.02887 0.0
H1253 H 0.33735 0.66368 0.79856 0.0
H1254 H 0.34439 0.6677 0.97146 0.0
C1255 C 0.30543 0.65388 1.00174 0.0
C1256 C 0.58937 0.95204 0.89168 0.0
C1257 C 0.58813 0.94014 0.96641 0.0
H1258 H 0.59007 0.95716 0.73701 0.0
C1259 C 0.58514 0.92385 0.93857 0.0
H1260 H 0.59139 0.96475 0.91015 0.0
C1261 C 0.58418 0.91949 0.83864 0.0
C1262 C 0.58616 0.9313 0.76383 0.0
H1263 H 0.58416 0.91433 0.99371 0.0
H1264 H 0.58218 0.90678 0.82008 0.0
C1265 C 0.58841 0.9477 0.79192 0.0
C1266 C 0.3045 0.35645 0.22006 0.0
C1267 C 0.31505 0.35078 0.29458 0.0
H1268 H 0.30022 0.35929 0.06512 0.0
C1269 C 0.33055 0.34494 0.26728 0.0
H1270 H 0.29255 0.3612 0.23889 0.0
C1271 C 0.33492 0.34374 0.16738 0.0
C1272 C 0.324 0.34856 0.09248 0.0
H1273 H 0.33893 0.34043 0.32273 0.0
H1274 H 0.34665 0.33849 0.14849 0.0
C1275 C 0.30896 0.35548 0.12037 0.0
C1276 C 0.90746 0.07339 0.40459 0.0
C1277 C 0.90232 0.0576 0.43192 0.0
H1278 H 0.91345 0.08984 0.28704 0.0
C1279 C 0.89916 0.04617 0.35652 0.0
H1280 H 0.90974 0.08263 0.46 0.0
C1281 C 0.90123 0.05034 0.25694 0.0
C1282 C 0.90654 0.06607 0.22972 0.0
H1283 H 0.89539 0.03384 0.3743 0.0
H1284 H 0.89909 0.04106 0.20147 0.0
C1285 C 0.90954 0.07755 0.305 0.0
C1286 C 0.19891 0.66117 0.55262 0.0
C1287 C 0.18252 0.6635 0.52467 0.0
H1288 H 0.21598 0.65812 0.67072 0.0
C1289 C 0.17075 0.66554 0.5996 0.0
H1290 H 0.20834 0.65945 0.49762 0.0
C1291 C 0.17513 0.66458 0.69949 0.0
C1292 C 0.19141 0.66152 0.72721 0.0
H1293 H 0.15805 0.66759 0.58115 0.0
H1294 H 0.16564 0.66562 0.75472 0.0
C1295 C 0.20328 0.6602 0.65235 0.0
C1296 C 0.41197 0.92526 0.96829 0.0
C1297 C 0.40831 0.9414 0.99622 0.0
H1298 H 0.41574 0.90838 0.84972 0.0
C1299 C 0.40669 0.95328 0.9216 0.0
H1300 H 0.41326 0.91577 1.02332 0.0
C1301 C 0.40795 0.94902 0.82183 0.0
C1302 C 0.41088 0.93273 0.79365 0.0
H1303 H 0.40416 0.96589 0.94015 0.0
H1304 H 0.40599 0.95842 0.76694 0.0
C1305 C 0.41322 0.92099 0.86838 0.0
C1306 C 0.80157 0.65137 0.66933 0.0
C1307 C 0.81283 0.6551 0.74476 0.0
H1308 H 0.79651 0.65097 0.51425 0.0
C1309 C 0.82837 0.66093 0.71743 0.0
H1310 H 0.78941 0.64707 0.68702 0.0
C1311 C 0.83245 0.66314 0.61782 0.0
C1312 C 0.82113 0.65957 0.5426 0.0
H1313 H 0.83749 0.66367 0.77283 0.0
H1314 H 0.84453 0.66763 0.59974 0.0
C1315 C 0.80567 0.65355 0.56976 0.0
C1316 C 0.08833 0.07636 0.42426 0.0
C1317 C 0.09461 0.06104 0.45227 0.0
H1318 H 0.08093 0.09207 0.30598 0.0
C1319 C 0.09843 0.04971 0.37741 0.0
H1320 H 0.08549 0.08553 0.47918 0.0
C1321 C 0.09589 0.05351 0.27776 0.0
C1322 C 0.08941 0.06875 0.24996 0.0
H1323 H 0.10306 0.03771 0.39563 0.0
H1324 H 0.09856 0.04431 0.22274 0.0
C1325 C 0.08575 0.08015 0.32458 0.0
C1326 C 0.69566 0.3491 0.08442 0.0
C1327 C 0.67973 0.34441 0.05734 0.0
H1328 H 0.71239 0.35432 0.20167 0.0
C1329 C 0.66815 0.34188 0.13273 0.0
H1330 H 0.70501 0.35086 0.02887 0.0
C1331 C 0.67241 0.34381 0.23228 0.0
C1332 C 0.68838 0.34835 0.25948 0.0
H1333 H 0.65573 0.33845 0.1149 0.0
H1334 H 0.66309 0.34192 0.28776 0.0
C1335 C 0.69992 0.35103 0.18397 0.0
C1336 C 0.41643 0.08275 0.20846 0.0
C1337 C 0.41232 0.07159 0.28357 0.0
H1338 H 0.41718 0.08782 0.05352 0.0
C1339 C 0.40551 0.05646 0.2563 0.0
H1340 H 0.42153 0.09458 0.22666 0.0
C1341 C 0.4031 0.05252 0.15672 0.0
C1342 C 0.40738 0.06361 0.08138 0.0
H1343 H 0.40249 0.04742 0.31174 0.0
H1344 H 0.3982 0.04059 0.13896 0.0
C1345 C 0.41399 0.07883 0.10883 0.0
C1346 C 0.69841 0.66142 1.00444 0.0
C1347 C 0.68229 0.66514 0.03267 0.0
H1348 H 0.71507 0.6568 0.88613 0.0
C1349 C 0.67066 0.66799 0.95795 0.0
H1350 H 0.70771 0.65905 0.0593 0.0
C1351 C 0.67486 0.66648 0.85803 0.0
C1352 C 0.6908 0.66206 0.83005 0.0
H1353 H 0.65819 0.67111 0.9766 0.0
H1354 H 0.66543 0.6682 0.80303 0.0
C1355 C 0.70259 0.65992 0.90466 0.0
C1356 C 0.0912 0.95039 0.6153 0.0
C1357 C 0.09032 0.93845 0.54062 0.0
H1358 H 0.0917 0.95553 0.76997 0.0
C1359 C 0.08779 0.92208 0.56852 0.0
H1360 H 0.09286 0.96315 0.59678 0.0
C1361 C 0.08692 0.91771 0.66845 0.0
C1362 C 0.08854 0.92957 0.74322 0.0
H1363 H 0.08709 0.91254 0.51342 0.0
H1364 H 0.08528 0.90495 0.68707 0.0
C1365 C 0.09033 0.94603 0.71508 0.0
C1366 C 0.82924 0.32949 0.48932 0.0
C1367 C 0.81756 0.33192 0.56429 0.0
H1368 H 0.83436 0.32932 0.33421 0.0
C1369 C 0.80127 0.33491 0.53635 0.0
H1370 H 0.84185 0.32693 0.50773 0.0
C1371 C 0.79695 0.33612 0.43662 0.0
C1372 C 0.80876 0.33438 0.36172 0.0
H1373 H 0.79191 0.33695 0.59137 0.0
H1374 H 0.78434 0.33869 0.41831 0.0
C1375 C 0.82491 0.33069 0.38943 0.0
C1376 C 0.15675 0.61172 0.19062 0.0
C1377 C 0.16224 0.61502 0.09449 0.0
H1378 H 0.13882 0.59942 0.27958 0.0
C1379 C 0.15589 0.6058 1.01564 0.0
H1380 H 0.1612 0.61885 0.25241 0.0
C1381 C 0.14343 0.59433 0.03162 0.0
C1382 C 0.13681 0.59229 0.12628 0.0
H1383 H 0.15978 0.60829 0.94067 0.0
H1384 H 0.13795 0.58825 0.96876 0.0
C1385 C 0.14391 0.60066 0.20611 0.0
C1386 C 0.63909 0.90928 0.44105 0.0
C1387 C 0.63497 0.91148 0.34134 0.0
H1388 H 0.65249 0.89496 0.54596 0.0
C1389 C 0.64371 0.90279 0.26896 0.0
H1390 H 0.63247 0.91569 0.49846 0.0
C1391 C 0.65546 0.89118 0.29611 0.0
C1392 C 0.65832 0.88779 0.39618 0.0
H1393 H 0.64072 0.90423 0.19155 0.0
H1394 H 0.6612 0.88388 0.23913 0.0
C1395 C 0.6505 0.89737 0.46824 0.0
C1396 C 0.35246 0.39329 0.60262 0.0
C1397 C 0.3441 0.38633 0.68292 0.0
H1398 H 0.37051 0.41064 0.55508 0.0
C1399 C 0.34602 0.3932 0.77701 0.0
H1400 H 0.3513 0.38802 0.5296 0.0
C1401 C 0.35736 0.40581 0.79205 0.0
C1402 C 0.36655 0.41205 0.71278 0.0
H1403 H 0.33992 0.38783 0.84022 0.0
H1404 H 0.35977 0.40991 0.86669 0.0
C1405 C 0.36339 0.40627 0.61712 0.0
C1406 C 0.85901 0.08809 0.93413 0.0
C1407 C 0.86247 0.0861 0.83338 0.0
H1408 H 0.84602 0.10197 0.04304 0.0
C1409 C 0.85306 0.09471 0.76375 0.0
H1410 H 0.86617 0.08174 0.9894 0.0
C1411 C 0.84125 0.10602 0.79437 0.0
C1412 C 0.83898 0.10921 0.89523 0.0
H1413 H 0.85552 0.09341 0.68556 0.0
H1414 H 0.83498 0.11326 0.7392 0.0
C1415 C 0.84752 0.09971 0.96477 0.0
C1416 C 0.12875 0.36604 0.89457 0.0
C1417 C 0.14534 0.37042 0.89259 0.0
H1418 H 0.10403 0.37373 0.90173 0.0
C1419 C 0.14949 0.38714 0.89647 0.0
H1420 H 0.12498 0.35336 0.89145 0.0
C1421 C 0.13714 0.39914 0.90292 0.0
C1422 C 0.12054 0.39454 0.90473 0.0
H1423 H 0.16218 0.39089 0.89537 0.0
H1424 H 0.14056 0.41193 0.90585 0.0
C1425 C 0.11661 0.37785 0.90039 0.0
C1426 C 0.85889 0.90643 0.04305 0.0
C1427 C 0.86276 0.9086 0.14317 0.0
H1428 H 0.84513 0.8926 0.93717 0.0
C1429 C 0.85332 0.90047 0.21481 0.0
H1430 H 0.86605 0.91239 0.9862 0.0
C1431 C 0.84107 0.88944 0.18676 0.0
C1432 C 0.83836 0.88602 0.08651 0.0
H1433 H 0.85609 0.90191 0.29252 0.0
H1434 H 0.83477 0.88254 0.2435 0.0
C1435 C 0.84695 0.89506 1.01498 0.0
C1436 C 0.34528 0.61254 0.33008 0.0
C1437 C 0.34257 0.61632 0.42976 0.0
H1438 H 0.35997 0.59925 0.22631 0.0
C1439 C 0.35085 0.60726 0.50258 0.0
H1440 H 0.33923 0.61943 0.27245 0.0
C1441 C 0.36244 0.59542 0.47627 0.0
C1442 C 0.36628 0.59278 0.3766 0.0
H1443 H 0.34902 0.60998 0.58005 0.0
H1444 H 0.36935 0.58939 0.53392 0.0
C1445 C 0.3572 0.60103 0.30377 0.0
C1446 C 0.64602 0.10015 0.72323 0.0
C1447 C 0.63655 0.09187 0.65246 0.0
H1448 H 0.66397 0.11872 0.75082 0.0
C1449 C 0.63967 0.09465 0.55196 0.0
H1450 H 0.64381 0.09826 0.80125 0.0
C1451 C 0.65094 0.10666 0.52311 0.0
C1452 C 0.65959 0.11576 0.59417 0.0
H1453 H 0.63243 0.08858 0.49592 0.0
H1454 H 0.65221 0.10948 0.44536 0.0
C1455 C 0.65761 0.11182 0.69435 0.0
C1456 C 0.84328 0.38374 0.89326 0.0
C1457 C 0.83831 0.38062 0.99066 0.0
H1458 H 0.86042 0.39624 0.79986 0.0
C1459 C 0.84479 0.39021 0.06742 0.0
H1460 H 0.83868 0.37635 0.83298 0.0
C1461 C 0.85686 0.40194 0.048 0.0
C1462 C 0.86295 0.40389 0.95194 0.0
H1463 H 0.84128 0.3879 0.14325 0.0
H1464 H 0.86246 0.40838 0.10918 0.0
C1465 C 0.85573 0.39508 0.87433 0.0
C1466 C 0.38135 0.11725 0.72787 0.0
C1467 C 0.37795 0.10124 0.69624 0.0
H1468 H 0.37289 0.14163 0.74684 0.0
C1469 C 0.36203 0.09759 0.66295 0.0
H1470 H 0.39334 0.12063 0.75496 0.0
C1471 C 0.34998 0.10994 0.65938 0.0
C1472 C 0.35382 0.12606 0.68775 0.0
H1473 H 0.35899 0.08536 0.63851 0.0
H1474 H 0.33792 0.10704 0.63146 0.0
C1475 C 0.36956 0.12942 0.72322 0.0
C1476 C 0.64012 0.59607 0.49054 0.0
C1477 C 0.63655 0.59355 0.39036 0.0
H1478 H 0.65353 0.61031 0.59614 0.0
C1479 C 0.64608 0.60159 0.31877 0.0
H1480 H 0.63287 0.59017 0.54725 0.0
C1481 C 0.65818 0.6128 0.34667 0.0
C1482 C 0.66065 0.61651 0.44674 0.0
H1483 H 0.64355 0.59988 0.24096 0.0
H1484 H 0.66458 0.61957 0.28976 0.0
C1485 C 0.65191 0.60763 0.51845 0.0
C1486 C 0.15931 0.89208 0.21415 0.0
C1487 C 0.16218 0.88822 0.11468 0.0
H1488 H 0.14425 0.90519 0.31669 0.0
C1489 C 0.15407 0.89724 0.04114 0.0
H1490 H 0.16524 0.88521 0.27238 0.0
C1491 C 0.14232 0.90896 0.0665 0.0
C1492 C 0.13818 0.91152 0.16587 0.0
H1493 H 0.15603 0.89446 0.96386 0.0
H1494 H 0.13545 0.91485 1.00817 0.0
C1495 C 0.14725 0.90347 0.23949 0.0
C1496 C 0.87529 0.61352 0.06547 0.0
C1497 C 0.87383 0.60005 0.12857 0.0
H1498 H 0.86486 0.6356 1.0123 0.0
C1499 C 0.8593 0.59793 0.18268 0.0
H1500 H 0.88631 0.61536 1.02242 0.0
C1501 C 0.84685 0.60983 0.17817 0.0
C1502 C 0.84887 0.62386 0.11905 0.0
H1503 H 0.85799 0.58765 0.23247 0.0
H1504 H 0.83611 0.60847 0.22419 0.0
C1505 C 0.86297 0.62516 0.06018 0.0
C1506 C 0.13519 0.12308 0.93119 0.0
C1507 C 0.15051 0.12086 0.88627 0.0
H1508 H 0.11131 0.1135 0.95739 0.0
C1509 C 0.15402 0.10566 0.84224 0.0
H1510 H 0.13212 0.13447 0.96744 0.0
C1511 C 0.14192 0.09338 0.83766 0.0
C1512 C 0.12625 0.09627 0.87679 0.0
H1513 H 0.16573 0.10359 0.80721 0.0
H1514 H 0.14446 0.08212 0.79848 0.0
C1515 C 0.12324 0.11101 0.92603 0.0
C1516 C 0.64248 0.41117 0.60871 0.0
C1517 C 0.6385 0.4138 0.70824 0.0
H1518 H 0.65535 0.39611 0.50514 0.0
C1519 C 0.64708 0.4051 0.78133 0.0
H1520 H 0.63596 0.41755 0.55078 0.0
C1521 C 0.65847 0.39306 0.75524 0.0
C1522 C 0.66112 0.38924 0.65554 0.0
H1523 H 0.64419 0.40685 0.85864 0.0
H1524 H 0.66403 0.38577 0.81293 0.0
C1525 C 0.65353 0.39884 0.58261 0.0
C1526 C 0.35865 0.90936 0.47859 0.0
C1527 C 0.36227 0.91194 0.3785 0.0
H1528 H 0.34612 0.89438 0.58429 0.0
C1529 C 0.35351 0.9031 0.30681 0.0
H1530 H 0.36533 0.91584 0.53548 0.0
C1531 C 0.34223 0.89104 0.33472 0.0
C1532 C 0.33988 0.88732 0.43487 0.0
H1533 H 0.35613 0.9048 0.2291 0.0
H1534 H 0.33646 0.8837 0.27796 0.0
C1535 C 0.34772 0.897 0.5065 0.0
C1536 C 0.10225 0.48707 0.93363 0.0
C1537 C 0.10127 0.47969 0.02704 0.0
H1538 H 0.10253 0.50943 0.85165 0.0
C1539 C 0.10303 0.48962 0.1112 0.0
H1540 H 0.1016 0.47982 0.86719 0.0
C1541 C 0.10416 0.50663 0.1023 0.0
C1542 C 0.10305 0.51413 1.00929 0.0
H1543 H 0.10282 0.48432 0.18445 0.0
H1544 H 0.10502 0.51386 0.16871 0.0
C1545 C 0.10289 0.5041 0.92483 0.0
C1546 C 0.74101 0.85661 0.32358 0.0
C1547 C 0.7321 0.84641 0.25946 0.0
H1548 H 0.76421 0.86773 0.35607 0.0
C1549 C 0.73971 0.84067 0.17331 0.0
H1550 H 0.73546 0.86125 0.3905 0.0
C1551 C 0.75599 0.84446 0.15336 0.0
C1552 C 0.7652 0.85398 0.21944 0.0
H1553 H 0.73312 0.83304 0.12138 0.0
H1554 H 0.76142 0.83975 0.08632 0.0
C1555 C 0.75745 0.86033 0.3038 0.0
C1556 C 0.39635 0.50925 0.45611 0.0
C1557 C 0.40704 0.51806 0.51775 0.0
H1558 H 0.3847 0.48619 0.4266 0.0
C1559 C 0.41328 0.51033 0.60234 0.0
H1560 H 0.39132 0.51486 0.39044 0.0
C1561 C 0.40945 0.49407 0.62318 0.0
C1562 C 0.39934 0.48499 0.55978 0.0
H1563 H 0.42132 0.51681 0.65244 0.0
H1564 H 0.41456 0.48859 0.68895 0.0
C1565 C 0.39255 0.49284 0.47689 0.0
C1566 C 0.75746 0.16079 0.68591 0.0
C1567 C 0.76518 0.15336 0.76693 0.0
H1568 H 0.73545 0.16411 0.60401 0.0
C1569 C 0.75603 0.14273 0.82709 0.0
H1570 H 0.76417 0.16886 0.6371 0.0
C1571 C 0.73935 0.14008 0.80832 0.0
C1572 C 0.73155 0.14801 0.72902 0.0
H1573 H 0.76163 0.13681 0.89007 0.0
H1574 H 0.73249 0.13217 0.85728 0.0
C1575 C 0.74091 0.15812 0.66711 0.0
C1576 C 0.89485 0.49046 0.96452 0.0
C1577 C 0.89542 0.48319 0.05836 0.0
H1578 H 0.89693 0.51254 0.88052 0.0
C1579 C 0.89547 0.49343 0.14187 0.0
H1580 H 0.89402 0.48309 0.89872 0.0
C1581 C 0.8965 0.51041 0.13158 0.0
C1582 C 0.89796 0.51753 0.03766 0.0
H1583 H 0.89542 0.4883 0.21559 0.0
H1584 H 0.89701 0.51782 0.19746 0.0
C1585 C 0.89637 0.50742 0.95419 0.0
C1586 C 0.24206 0.14423 0.85635 0.0
C1587 C 0.23497 0.14464 0.76198 0.0
H1588 H 0.26397 0.14636 0.94168 0.0
C1589 C 0.24538 0.1443 0.67922 0.0
H1590 H 0.23454 0.14369 0.92171 0.0
C1591 C 0.26235 0.14521 0.69059 0.0
C1592 C 0.2693 0.14693 0.7848 0.0
H1593 H 0.2404 0.14412 0.60516 0.0
H1594 H 0.26989 0.14545 0.62519 0.0
C1595 C 0.25901 0.14561 0.8677 0.0
C1596 C 0.59404 0.495 0.62972 0.0
C1597 C 0.60424 0.48616 0.56562 0.0
H1598 H 0.58178 0.51747 0.66006 0.0
C1599 C 0.61079 0.4942 0.48268 0.0
H1600 H 0.58911 0.48937 0.69559 0.0
C1601 C 0.60668 0.51054 0.46254 0.0
C1602 C 0.5959 0.51909 0.52486 0.0
H1603 H 0.61871 0.48775 0.43188 0.0
H1604 H 0.61155 0.5163 0.39684 0.0
C1605 C 0.58988 0.51119 0.60947 0.0
C1606 C 0.2581 0.85608 0.35932 0.0
C1607 C 0.26669 0.8452 0.29786 0.0
H1608 H 0.23528 0.86812 0.38893 0.0
C1609 C 0.25881 0.83896 0.21381 0.0
H1610 H 0.26383 0.86113 0.42456 0.0
C1611 C 0.24261 0.84301 0.19323 0.0
C1612 C 0.23375 0.85334 0.25642 0.0
H1613 H 0.26512 0.83077 0.16389 0.0
H1614 H 0.23701 0.83792 0.12778 0.0
C1615 C 0.24175 0.8601 0.33884 0.0
C1616 C 0.59195 0.99226 0.42104 0.0
C1617 C 0.60206 0.98314 0.48411 0.0
H1618 H 0.58062 0.01519 0.39053 0.0
C1619 C 0.60945 0.99107 0.56479 0.0
H1620 H 0.58637 0.98668 0.35692 0.0
C1621 C 0.60622 0.00764 0.58392 0.0
C1622 C 0.59553 0.01651 0.52271 0.0
H1623 H 0.61734 0.98439 0.61465 0.0
H1624 H 0.61168 0.01334 0.64809 0.0
C1625 C 0.58871 0.00868 0.44016 0.0
C1626 C 0.23827 0.35407 0.86915 0.0
C1627 C 0.23125 0.353 0.77482 0.0
H1628 H 0.2603 0.35409 0.9543 0.0
C1629 C 0.24154 0.35437 0.69196 0.0
H1630 H 0.23076 0.35381 0.93459 0.0
C1631 C 0.25852 0.35514 0.70319 0.0
C1632 C 0.26562 0.35407 0.79733 0.0
H1633 H 0.23654 0.3541 0.61796 0.0
H1634 H 0.26603 0.35572 0.63777 0.0
C1635 C 0.25528 0.35436 0.88034 0.0
C1636 C 0.90856 0.98821 0.06817 0.0
C1637 C 0.89803 0.97931 1.00635 0.0
H1638 H 0.92045 0.01092 0.09751 0.0
C1639 C 0.89063 0.98738 0.92628 0.0
H1640 H 0.91417 0.98253 0.13177 0.0
C1641 C 0.89417 0.00388 0.90678 0.0
C1642 C 0.90518 0.01255 0.96696 0.0
H1643 H 0.88243 0.98087 0.87733 0.0
H1644 H 0.8886 0.00969 0.84335 0.0
C1645 C 0.91211 0.00457 0.04865 0.0
C1646 C 0.25888 0.64583 0.35053 0.0
C1647 C 0.26756 0.65677 0.28982 0.0
H1648 H 0.23596 0.63385 0.37917 0.0
C1649 C 0.25973 0.66319 0.20608 0.0
H1650 H 0.26457 0.64065 0.41553 0.0
C1651 C 0.2435 0.65926 0.18514 0.0
C1652 C 0.23455 0.64887 0.24758 0.0
H1653 H 0.2661 0.67144 0.15671 0.0
H1654 H 0.23794 0.66452 0.12003 0.0
C1655 C 0.2425 0.64193 0.32963 0.0
C1656 C 0.41086 0.00993 0.46112 0.0
C1657 C 0.40552 0.01809 0.54645 0.0
H1658 H 0.41097 0.98785 0.37732 0.0
C1659 C 0.39506 0.0098 0.61204 0.0
H1660 H 0.41871 0.01601 0.4081 0.0
C1661 C 0.39069 0.99342 0.59454 0.0
C1662 C 0.39669 0.9851 0.51113 0.0
H1663 H 0.39073 0.01575 0.67844 0.0
H1664 H 0.38308 0.98714 0.6479 0.0
C1665 C 0.40648 0.99371 0.44361 0.0
C1666 C 0.74206 0.64186 0.23335 0.0
C1667 C 0.73402 0.64861 0.31568 0.0
H1668 H 0.76441 0.64038 0.15023 0.0
C1669 C 0.74309 0.65814 0.38227 0.0
H1670 H 0.73542 0.63443 0.18077 0.0
C1671 C 0.75954 0.66155 0.36482 0.0
C1672 C 0.76747 0.65546 0.28047 0.0
H1673 H 0.73743 0.66318 0.44776 0.0
H1674 H 0.766 0.66923 0.41705 0.0
C1675 C 0.75866 0.64526 0.21588 0.0
C1676 C 0.09137 0.99069 0.08643 0.0
C1677 C 0.10188 0.98212 1.02288 0.0
H1678 H 0.07891 0.013 0.11767 0.0
C1679 C 0.10871 0.99044 0.9418 0.0
H1680 H 0.08619 0.98484 0.15087 0.0
C1681 C 0.10459 0.00682 0.9229 0.0
C1682 C 0.09355 0.01513 0.98472 0.0
H1683 H 0.11688 0.98419 0.89152 0.0
H1684 H 0.10968 0.01281 0.85857 0.0
C1685 C 0.08724 0.00693 0.06752 0.0
C1686 C 0.74037 0.33623 0.87938 0.0
C1687 C 0.733 0.34358 0.79689 0.0
H1688 H 0.762 0.33307 0.96509 0.0
C1689 C 0.74238 0.35422 0.73811 0.0
H1690 H 0.73347 0.32817 0.92723 0.0
C1691 C 0.75896 0.35696 0.75968 0.0
C1692 C 0.76641 0.34912 0.84048 0.0
H1693 H 0.73705 0.36009 0.6741 0.0
H1694 H 0.76601 0.36486 0.71169 0.0
C1695 C 0.7568 0.339 0.90098 0.0
C1696 C 0.01067 0.55243 0.06437 0.0
C1697 C 0.0199 0.55634 0.14877 0.0
H1698 H 0.98692 0.54979 1.00027 0.0
C1699 C 0.01155 0.55999 0.23682 0.0
H1700 H 0.01665 0.54982 0.99481 0.0
C1701 C 0.99444 0.55996 0.23997 0.0
C1702 C 0.98521 0.55628 0.15515 0.0
H1703 H 0.01824 0.56281 0.30364 0.0
H1704 H 0.98843 0.56278 0.3091 0.0
C1705 C 0.99358 0.55239 0.06752 0.0
C1706 C 0.70417 0.74397 0.40694 0.0
C1707 C 0.69261 0.7351 0.46215 0.0
H1708 H 0.71272 0.76753 0.36073 0.0
C1709 C 0.68134 0.74378 0.52035 0.0
H1710 H 0.71294 0.73768 0.36069 0.0
C1711 C 0.68127 0.76087 0.52086 0.0
C1712 C 0.69242 0.76978 0.46282 0.0
H1713 H 0.67249 0.73733 0.56537 0.0
H1714 H 0.67236 0.7671 0.56643 0.0
C1715 C 0.70406 0.7611 0.40715 0.0
C1716 C 0.49369 0.45548 0.65487 0.0
C1717 C 0.48489 0.443 0.70264 0.0
H1718 H 0.51723 0.46507 0.61601 0.0
C1719 C 0.49362 0.43081 0.75335 0.0
H1720 H 0.48737 0.46497 0.61432 0.0
C1721 C 0.5107 0.43086 0.75425 0.0
C1722 C 0.51952 0.4431 0.70455 0.0
H1723 H 0.48725 0.4212 0.79274 0.0
H1724 H 0.517 0.42129 0.79425 0.0
C1725 C 0.51081 0.45554 0.65583 0.0
C1726 C 0.7948 0.25322 0.92768 0.0
C1727 C 0.80665 0.26173 0.98263 0.0
H1728 H 0.78586 0.22996 0.87898 0.0
C1729 C 0.81807 0.25271 0.03769 0.0
H1730 H 0.78591 0.25979 0.88377 0.0
C1731 C 0.818 0.23562 0.03538 0.0
C1732 C 0.80654 0.22708 0.97761 0.0
H1733 H 0.82715 0.25887 0.08244 0.0
H1734 H 0.82703 0.2291 0.07856 0.0
C1735 C 0.79476 0.2361 0.92509 0.0
C1736 C 0.98796 0.44625 1.00529 0.0
C1737 C 0.97863 0.4431 0.92015 0.0
H1738 H 0.01183 0.44844 0.06864 0.0
C1739 C 0.98683 0.44063 0.83013 0.0
H1740 H 0.98211 0.44796 0.0762 0.0
C1741 C 0.00392 0.44089 0.82587 0.0
C1742 C 0.01325 0.44365 0.91147 0.0
H1743 H 0.98004 0.43846 0.76279 0.0
H1744 H 0.00984 0.43884 0.75545 0.0
C1745 C 0.00505 0.44654 1.00097 0.0
C1746 C 0.81567 0.75893 1.01063 0.0
C1747 C 0.80482 0.76781 0.07043 0.0
H1748 H 0.82422 0.73544 0.96495 0.0
C1749 C 0.79339 0.75919 0.12805 0.0
H1750 H 0.82439 0.76521 0.9638 0.0
C1751 C 0.79336 0.74207 0.12934 0.0
C1752 C 0.80471 0.73319 0.07271 0.0
H1753 H 0.78492 0.76569 0.17529 0.0
H1754 H 0.78491 0.73581 0.17794 0.0
C1755 C 0.81558 0.74186 1.01142 0.0
C1756 C 0.49275 0.54628 0.37098 0.0
C1757 C 0.48399 0.55752 0.31285 0.0
H1758 H 0.5162 0.53803 0.42085 0.0
C1759 C 0.49284 0.5684 0.25265 0.0
H1760 H 0.48636 0.53782 0.41893 0.0
C1761 C 0.50995 0.56853 0.25379 0.0
C1762 C 0.51871 0.55778 0.31514 0.0
H1763 H 0.48655 0.57699 0.20522 0.0
H1764 H 0.51631 0.57721 0.20721 0.0
C1765 C 0.50989 0.5464 0.37209 0.0
C1766 C 0.67907 0.24416 0.53223 0.0
C1767 C 0.69061 0.23517 0.58668 0.0
H1768 H 0.67016 0.26774 0.49044 0.0
C1769 C 0.70261 0.24373 0.64011 0.0
H1770 H 0.66986 0.23797 0.48867 0.0
C1771 C 0.70274 0.26086 0.64159 0.0
C1772 C 0.69091 0.26986 0.58939 0.0
H1773 H 0.71159 0.2372 0.68359 0.0
H1774 H 0.7118 0.26703 0.68647 0.0
C1775 C 0.67924 0.26126 0.53337 0.0
C1776 C 0.30309 0.26055 0.75506 0.0
C1777 C 0.30636 0.26962 0.66897 0.0
H1778 H 0.30094 0.23689 0.82148 0.0
C1779 C 0.30916 0.26109 0.58041 0.0
H1780 H 0.30112 0.26665 0.82497 0.0
C1781 C 0.30906 0.24397 0.57846 0.0
C1782 C 0.30615 0.23491 0.66499 0.0
H1783 H 0.31143 0.26764 0.51233 0.0
H1784 H 0.31131 0.23782 0.50899 0.0
C1785 C 0.30297 0.24343 0.75307 0.0
C1786 C 0.20384 0.7428 0.15721 0.0
C1787 C 0.19132 0.734 0.10984 0.0
H1788 H 0.2133 0.76631 0.19757 0.0
C1789 C 0.17886 0.74275 0.06167 0.0
H1790 H 0.21353 0.73646 0.19593 0.0
C1791 C 0.17872 0.75984 0.0628 0.0
C1792 C 0.19103 0.76864 0.11197 0.0
H1793 H 0.16921 0.7364 1.02265 0.0
H1794 H 0.16895 0.76616 0.02469 0.0
C1795 C 0.20371 0.75992 0.15821 0.0
C1796 C 0.19645 0.25561 0.97881 0.0
C1797 C 0.19834 0.26467 0.89131 0.0
H1798 H 0.19485 0.23194 0.0455 0.0
C1799 C 0.20099 0.2562 0.80239 0.0
H1800 H 0.19468 0.26174 0.04882 0.0
C1801 C 0.20108 0.23909 0.80046 0.0
C1802 C 0.19852 0.23004 0.88741 0.0
H1803 H 0.20229 0.26277 0.73343 0.0
H1804 H 0.20244 0.23297 0.73006 0.0
C1805 C 0.19654 0.23852 0.97689 0.0
C1806 C 0.31738 0.74244 0.5605 0.0
C1807 C 0.30654 0.73368 0.49962 0.0
H1808 H 0.32598 0.76584 0.60859 0.0
C1809 C 0.29516 0.74251 0.44294 0.0
H1810 H 0.32608 0.73607 0.60686 0.0
C1811 C 0.2951 0.75966 0.44396 0.0
C1812 C 0.30642 0.76841 0.50167 0.0
H1813 H 0.28672 0.73621 0.39452 0.0
H1814 H 0.28662 0.76605 0.39627 0.0
C1815 C 0.31733 0.75955 0.5615 0.0
C1816 C 0.51121 0.04271 0.68453 0.0
C1817 C 0.52015 0.05383 0.74261 0.0
H1818 H 0.48756 0.03445 0.63795 0.0
C1819 C 0.5116 0.0641 0.80777 0.0
H1820 H 0.51743 0.03469 0.6332 0.0
C1821 C 0.49452 0.06388 0.811 0.0
C1822 C 0.48552 0.05347 0.74866 0.0
H1823 H 0.51811 0.07255 0.85511 0.0
H1824 H 0.48836 0.07218 0.86091 0.0
C1825 C 0.49408 0.04255 0.68741 0.0
C1826 C 0.00932 0.92736 0.07663 0.0
C1827 C 0.01777 0.93701 0.1457 0.0
H1828 H 0.98618 0.91963 1.01988 0.0
C1829 C 0.00868 0.94662 0.21199 0.0
H1830 H 0.01591 0.92006 1.02314 0.0
C1831 C 0.99155 0.94637 0.21018 0.0
C1832 C 0.98312 0.9365 0.14198 0.0
H1833 H 0.01478 0.95407 0.26683 0.0
H1834 H 0.98493 0.95362 0.26373 0.0
C1835 C 0.99224 0.92711 0.07478 0.0
C1836 C 0.50725 0.9316 0.4375 0.0
C1837 C 0.51574 0.94127 0.36863 0.0
H1838 H 0.48409 0.92421 0.49558 0.0
C1839 C 0.50671 0.95138 0.30478 0.0
H1840 H 0.51381 0.92394 0.48926 0.0
C1841 C 0.48959 0.95153 0.3084 0.0
C1842 C 0.48112 0.94158 0.37598 0.0
H1843 H 0.51285 0.95888 0.25027 0.0
H1844 H 0.48299 0.95913 0.25653 0.0
C1845 C 0.49019 0.93176 0.44114 0.0
C1846 C 0.00729 0.04283 0.7344 0.0
C1847 C 0.01573 0.05474 0.78944 0.0
H1848 H 0.98397 0.03364 0.68685 0.0
C1849 C 0.0066 0.06627 0.84308 0.0
H1850 H 0.01393 0.0338 0.69195 0.0
C1851 C 0.98956 0.06618 0.84019 0.0
C1852 C 0.98105 0.05456 0.78356 0.0
H1853 H 0.01265 0.07535 0.88842 0.0
H1854 H 0.98303 0.07518 0.88353 0.0
C1855 C 0.99012 0.04274 0.73146 0.0
loop_
_geom_bond_atom_site_label_1
_geom_bond_atom_site_label_2
_geom_bond_distance
_geom_bond_site_symmetry_2
_ccdc_geom_bond_type
C0 C1 1.351 . S
C0 N3 1.368 . S
C0 H5 0.931 . S
C1 C0 1.351 . S
C1 N2 1.373 . S
C1 H29 0.930 . S
N2 C1 1.373 . S
N2 C4 1.340 . S
N3 C0 1.368 . S
N3 C4 1.321 . S
N3 Co6 2.135 1_556 S
C4 N2 1.340 . S
C4 N3 1.321 . S
C4 H28 0.930 . S
H5 C0 0.931 . S
Co6 N3 2.135 1_554 S
Co6 N9 2.121 . S
Co6 O14 2.055 . S
Co6 O17 2.039 . S
Co6 N20 2.140 . S
C7 O8 1.227 1_554 S
C7 O17 1.265 . S
O8 C7 1.227 1_556 S
N9 Co6 2.121 . S
N9 C11 1.375 . S
N9 C12 1.313 . S
C10 C11 1.338 . S
C10 N13 1.377 . S
C10 H30 0.930 . S
C11 N9 1.375 . S
C11 C10 1.338 . S
C11 H15 0.931 . S
C12 N9 1.313 . S
C12 N13 1.344 . S
C12 H16 0.930 . S
N13 C10 1.377 . S
N13 C12 1.344 . S
O14 Co6 2.055 . S
O14 C18 1.253 . S
H15 C11 0.931 . S
H16 C12 0.930 . S
O17 Co6 2.039 . S
O17 C7 1.265 . S
C18 O14 1.253 . S
C18 O19 1.227 . S
O19 C18 1.227 . S
N20 Co6 2.140 . S
N20 C23 1.346 1_554 S
N20 C24 1.345 . S
C21 C22 1.387 1_554 S
C21 C25 1.391 . S
C22 C21 1.387 1_556 S
C22 C23 1.369 . S
C22 H31 0.929 . S
C23 N20 1.346 1_556 S
C23 C22 1.369 . S
C23 H26 0.928 . S
C24 N20 1.345 . S
C24 C25 1.371 . S
C24 H27 0.931 . S
C25 C21 1.391 . S
C25 C24 1.371 . S
C25 H32 0.930 . S
H26 C23 0.928 . S
H27 C24 0.931 . S
H28 C4 0.930 . S
H29 C1 0.930 . S
H30 C10 0.930 . S
H31 C22 0.929 . S
H32 C25 0.930 . S
C33 C34 1.351 . S
C33 N36 1.368 . S
C33 H38 0.931 . S
C34 C33 1.351 . S
C34 N35 1.376 . S
C34 H62 0.930 1_554 S
N35 C34 1.376 . S
N35 C37 1.349 . S
N36 C33 1.368 . S
N36 C37 1.321 . S
N36 Co39 2.135 . S
C37 N35 1.349 . S
C37 N36 1.321 . S
C37 H61 0.930 . S
H38 C33 0.931 . S
Co39 N36 2.135 . S
Co39 N42 2.121 . S
Co39 O47 2.055 . S
Co39 O50 2.039 . S
Co39 N53 2.140 . S
C40 O41 1.227 . S
C40 O50 1.265 . S
O41 C40 1.227 . S
N42 Co39 2.121 . S
N42 C44 1.375 . S
N42 C45 1.313 . S
C43 C44 1.338 . S
C43 N46 1.377 . S
C43 H63 0.930 . S
C44 N42 1.375 . S
C44 C43 1.338 . S
C44 H48 0.931 . S
C45 N42 1.313 . S
C45 N46 1.344 . S
C45 H49 0.930 . S
N46 C43 1.377 . S
N46 C45 1.344 . S
O47 Co39 2.055 . S
O47 C51 1.253 . S
H48 C44 0.931 . S
H49 C45 0.930 . S
O50 Co39 2.039 . S
O50 C40 1.265 . S
C51 O47 1.253 . S
C51 O52 1.227 . S
O52 C51 1.227 . S
N53 Co39 2.140 . S
N53 C56 1.346 . S
N53 C57 1.345 . S
C54 C55 1.387 . S
C54 C58 1.391 . S
C55 C54 1.387 . S
C55 C56 1.369 . S
C55 H64 0.929 . S
C56 N53 1.346 . S
C56 C55 1.369 . S
C56 H59 0.928 . S
C57 N53 1.345 . S
C57 C58 1.371 . S
C57 H60 0.931 . S
C58 C54 1.391 . S
C58 C57 1.371 . S
C58 H65 0.930 . S
H59 C56 0.928 . S
H60 C57 0.931 . S
H61 C37 0.930 . S
H62 C34 0.930 1_556 S
H63 C43 0.930 . S
H64 C55 0.929 . S
H65 C58 0.930 . S
C66 C67 1.351 . S
C66 N69 1.368 . S
C66 H71 0.931 . S
C67 C66 1.351 . S
C67 N68 1.373 . S
C67 H95 0.930 . S
N68 C67 1.373 . S
N68 C70 1.340 . S
N69 C66 1.368 . S
N69 C70 1.321 . S
N69 Co72 2.135 . S
C70 N68 1.340 . S
C70 N69 1.321 . S
C70 H94 0.930 . S
H71 C66 0.931 . S
Co72 N69 2.135 . S
Co72 N75 2.121 . S
Co72 O80 2.055 . S
Co72 O83 2.039 . S
Co72 N86 2.140 . S
C73 O74 1.227 . S
C73 O83 1.265 . S
O74 C73 1.227 . S
N75 Co72 2.121 . S
N75 C77 1.375 . S
N75 C78 1.313 . S
C76 C77 1.338 . S
C76 N79 1.377 . S
C76 H96 0.930 . S
C77 N75 1.375 . S
C77 C76 1.338 . S
C77 H81 0.931 . S
C78 N75 1.313 . S
C78 N79 1.344 . S
C78 H82 0.930 . S
N79 C76 1.377 . S
N79 C78 1.344 . S
O80 Co72 2.055 . S
O80 C84 1.253 . S
H81 C77 0.931 . S
H82 C78 0.930 . S
O83 Co72 2.039 . S
O83 C73 1.265 . S
C84 O80 1.253 . S
C84 O85 1.227 . S
O85 C84 1.227 . S
N86 Co72 2.140 . S
N86 C89 1.346 . S
N86 C90 1.345 . S
C87 C88 1.387 . S
C87 C91 1.391 . S
C88 C87 1.387 . S
C88 C89 1.369 . S
C88 H97 0.929 . S
C89 N86 1.346 . S
C89 C88 1.369 . S
C89 H92 0.928 . S
C90 N86 1.345 . S
C90 C91 1.371 . S
C90 H93 0.931 . S
C91 C87 1.391 . S
C91 C90 1.371 . S
C91 H98 0.930 . S
H92 C89 0.928 . S
H93 C90 0.931 . S
H94 C70 0.930 . S
H95 C67 0.930 . S
H96 C76 0.930 . S
H97 C88 0.929 . S
H98 C91 0.930 . S
C99 C100 1.351 . S
C99 N102 1.368 . S
C99 H104 0.931 . S
C100 C99 1.351 . S
C100 N101 1.373 . S
C100 H128 0.930 . S
N101 C100 1.373 . S
N101 C103 1.340 . S
N102 C99 1.368 . S
N102 C103 1.321 . S
N102 Co105 2.135 . S
C103 N101 1.340 . S
C103 N102 1.321 . S
C103 H127 0.930 . S
H104 C99 0.931 . S
Co105 N102 2.135 . S
Co105 N108 2.121 . S
Co105 O113 2.055 . S
Co105 O116 2.039 . S
Co105 N119 2.140 . S
C106 O107 1.227 . S
C106 O116 1.265 . S
O107 C106 1.227 . S
N108 Co105 2.121 . S
N108 C110 1.375 . S
N108 C111 1.313 1_556 S
C109 C110 1.338 1_554 S
C109 N112 1.377 . S
C109 H129 0.930 . S
C110 N108 1.375 . S
C110 C109 1.338 1_556 S
C110 H114 0.931 . S
C111 N108 1.313 1_554 S
C111 N112 1.344 . S
C111 H115 0.930 . S
N112 C109 1.377 . S
N112 C111 1.344 . S
O113 Co105 2.055 . S
O113 C117 1.253 . S
H114 C110 0.931 . S
H115 C111 0.930 . S
O116 Co105 2.039 . S
O116 C106 1.265 . S
C117 O113 1.253 . S
C117 O118 1.227 . S
O118 C117 1.227 . S
N119 Co105 2.140 . S
N119 C122 1.346 . S
N119 C123 1.345 . S
C120 C121 1.387 . S
C120 C124 1.391 . S
C121 C120 1.387 . S
C121 C122 1.369 . S
C121 H130 0.929 . S
C122 N119 1.346 . S
C122 C121 1.369 . S
C122 H125 0.928 . S
C123 N119 1.345 . S
C123 C124 1.371 . S
C123 H126 0.931 . S
C124 C120 1.391 . S
C124 C123 1.371 . S
C124 H131 0.930 . S
H125 C122 0.928 . S
H126 C123 0.931 . S
H127 C103 0.930 . S
H128 C100 0.930 . S
H129 C109 0.930 . S
H130 C121 0.929 . S
H131 C124 0.930 . S
C132 C133 1.351 . S
C132 N135 1.368 . S
C132 H137 0.931 . S
C133 C132 1.351 . S
C133 N134 1.373 . S
C133 H161 0.930 . S
N134 C133 1.373 . S
N134 C136 1.340 . S
N135 C132 1.368 . S
N135 C136 1.321 . S
N135 Co138 2.135 1_554 S
C136 N134 1.340 . S
C136 N135 1.321 . S
C136 H160 0.930 . S
H137 C132 0.931 . S
Co138 N135 2.135 1_556 S
Co138 N141 2.121 . S
Co138 O146 2.055 . S
Co138 O149 2.039 . S
Co138 N152 2.140 . S
C139 O140 1.227 1_556 S
C139 O149 1.265 . S
O140 C139 1.227 1_554 S
N141 Co138 2.121 . S
N141 C143 1.375 . S
N141 C144 1.313 . S
C142 C143 1.338 . S
C142 N145 1.377 . S
C142 H162 0.930 . S
C143 N141 1.375 . S
C143 C142 1.338 . S
C143 H147 0.931 . S
C144 N141 1.313 . S
C144 N145 1.344 . S
C144 H148 0.930 . S
N145 C142 1.377 . S
N145 C144 1.344 . S
O146 Co138 2.055 . S
O146 C150 1.253 . S
H147 C143 0.931 . S
H148 C144 0.930 . S
O149 Co138 2.039 . S
O149 C139 1.265 . S
C150 O146 1.253 . S
C150 O151 1.227 . S
O151 C150 1.227 . S
N152 Co138 2.140 . S
N152 C155 1.346 1_556 S
N152 C156 1.345 . S
C153 C154 1.387 1_556 S
C153 C157 1.391 . S
C154 C153 1.387 1_554 S
C154 C155 1.369 . S
C154 H163 0.929 . S
C155 N152 1.346 1_554 S
C155 C154 1.369 . S
C155 H158 0.928 . S
C156 N152 1.345 . S
C156 C157 1.371 . S
C156 H159 0.931 . S
C157 C153 1.391 . S
C157 C156 1.371 . S
C157 H164 0.930 . S
H158 C155 0.928 . S
H159 C156 0.931 . S
H160 C136 0.930 . S
H161 C133 0.930 . S
H162 C142 0.930 . S
H163 C154 0.929 . S
H164 C157 0.930 . S
C165 C166 1.351 . S
C165 N168 1.368 . S
C165 H170 0.931 . S
C166 C165 1.351 . S
C166 N167 1.373 . S
C166 H194 0.930 . S
N167 C166 1.373 . S
N167 C169 1.340 . S
N168 C165 1.368 . S
N168 C169 1.321 . S
N168 Co171 2.135 . S
C169 N167 1.340 . S
C169 N168 1.321 . S
C169 H193 0.930 . S
H170 C165 0.931 . S
Co171 N168 2.135 . S
Co171 N174 2.121 . S
Co171 O179 2.055 . S
Co171 O182 2.039 . S
Co171 N185 2.140 . S
C172 O173 1.227 . S
C172 O182 1.265 . S
O173 C172 1.227 . S
N174 Co171 2.121 . S
N174 C176 1.375 . S
N174 C177 1.313 1_554 S
C175 C176 1.338 1_556 S
C175 N178 1.377 . S
C175 H195 0.930 . S
C176 N174 1.375 . S
C176 C175 1.338 1_554 S
C176 H180 0.931 . S
C177 N174 1.313 1_556 S
C177 N178 1.344 . S
C177 H181 0.930 . S
N178 C175 1.377 . S
N178 C177 1.344 . S
O179 Co171 2.055 . S
O179 C183 1.253 . S
H180 C176 0.931 . S
H181 C177 0.930 . S
O182 Co171 2.039 . S
O182 C172 1.265 . S
C183 O179 1.253 . S
C183 O184 1.227 . S
O184 C183 1.227 . S
N185 Co171 2.140 . S
N185 C188 1.346 . S
N185 C189 1.345 . S
C186 C187 1.387 . S
C186 C190 1.391 . S
C187 C186 1.387 . S
C187 C188 1.369 . S
C187 H196 0.929 . S
C188 N185 1.346 . S
C188 C187 1.369 . S
C188 H191 0.928 . S
C189 N185 1.345 . S
C189 C190 1.371 . S
C189 H192 0.931 . S
C190 C186 1.391 . S
C190 C189 1.371 . S
C190 H197 0.930 . S
H191 C188 0.928 . S
H192 C189 0.931 . S
H193 C169 0.930 . S
H194 C166 0.930 . S
H195 C175 0.930 . S
H196 C187 0.929 . S
H197 C190 0.930 . S
C198 C199 1.351 . S
C198 N201 1.368 . S
C198 H203 0.931 . S
C199 C198 1.351 . S
C199 N200 1.373 . S
C199 H227 0.930 . S
N200 C199 1.373 . S
N200 C202 1.340 . S
N201 C198 1.368 . S
N201 C202 1.321 . S
N201 Co204 2.135 . S
C202 N200 1.340 . S
C202 N201 1.321 . S
C202 H226 0.930 . S
H203 C198 0.931 . S
Co204 N201 2.135 . S
Co204 N207 2.121 . S
Co204 O212 2.055 . S
Co204 O215 2.039 . S
Co204 N218 2.140 . S
C205 O206 1.227 . S
C205 O215 1.265 . S
O206 C205 1.227 . S
N207 Co204 2.121 . S
N207 C209 1.375 . S
N207 C210 1.313 . S
C208 C209 1.338 . S
C208 N211 1.377 . S
C208 H228 0.930 . S
C209 N207 1.375 . S
C209 C208 1.338 . S
C209 H213 0.931 . S
C210 N207 1.313 . S
C210 N211 1.344 . S
C210 H214 0.930 . S
N211 C208 1.377 . S
N211 C210 1.344 . S
O212 Co204 2.055 . S
O212 C216 1.253 . S
H213 C209 0.931 . S
H214 C210 0.930 . S
O215 Co204 2.039 . S
O215 C205 1.265 . S
C216 O212 1.253 . S
C216 O217 1.227 . S
O217 C216 1.227 . S
N218 Co204 2.140 . S
N218 C221 1.346 . S
N218 C222 1.345 . S
C219 C220 1.387 . S
C219 C223 1.391 . S
C220 C219 1.387 . S
C220 C221 1.369 . S
C220 H229 0.929 . S
C221 N218 1.346 . S
C221 C220 1.369 . S
C221 H224 0.928 . S
C222 N218 1.345 . S
C222 C223 1.371 . S
C222 H225 0.931 . S
C223 C219 1.391 . S
C223 C222 1.371 . S
C223 H230 0.930 . S
H224 C221 0.928 . S
H225 C222 0.931 . S
H226 C202 0.930 . S
H227 C199 0.930 . S
H228 C208 0.930 . S
H229 C220 0.929 . S
H230 C223 0.930 . S
C231 C232 1.351 . S
C231 N234 1.368 . S
C231 H236 0.931 . S
C232 C231 1.351 . S
C232 N233 1.376 . S
C232 H260 0.930 1_556 S
N233 C232 1.376 . S
N233 C235 1.349 . S
N234 C231 1.368 . S
N234 C235 1.321 . S
N234 Co237 2.135 . S
C235 N233 1.349 . S
C235 N234 1.321 . S
C235 H259 0.930 . S
H236 C231 0.931 . S
Co237 N234 2.135 . S
Co237 N240 2.121 . S
Co237 O245 2.055 . S
Co237 O248 2.039 . S
Co237 N251 2.140 . S
C238 O239 1.227 . S
C238 O248 1.265 . S
O239 C238 1.227 . S
N240 Co237 2.121 . S
N240 C242 1.375 . S
N240 C243 1.313 . S
C241 C242 1.338 . S
C241 N244 1.377 . S
C241 H261 0.930 . S
C242 N240 1.375 . S
C242 C241 1.338 . S
C242 H246 0.931 . S
C243 N240 1.313 . S
C243 N244 1.344 . S
C243 H247 0.930 . S
N244 C241 1.377 . S
N244 C243 1.344 . S
O245 Co237 2.055 . S
O245 C249 1.253 . S
H246 C242 0.931 . S
H247 C243 0.930 . S
O248 Co237 2.039 . S
O248 C238 1.265 . S
C249 O245 1.253 . S
C249 O250 1.227 . S
O250 C249 1.227 . S
N251 Co237 2.140 . S
N251 C254 1.346 . S
N251 C255 1.345 . S
C252 C253 1.387 . S
C252 C256 1.391 . S
C253 C252 1.387 . S
C253 C254 1.369 . S
C253 H262 0.929 . S
C254 N251 1.346 . S
C254 C253 1.369 . S
C254 H257 0.928 . S
C255 N251 1.345 . S
C255 C256 1.371 . S
C255 H258 0.931 . S
C256 C252 1.391 . S
C256 C255 1.371 . S
C256 H263 0.930 . S
H257 C254 0.928 . S
H258 C255 0.931 . S
H259 C235 0.930 . S
H260 C232 0.930 1_554 S
H261 C241 0.930 . S
H262 C253 0.929 . S
H263 C256 0.930 . S
C264 C265 1.351 . S
C264 N267 1.368 . S
C264 H269 0.931 . S
C265 C264 1.351 . S
C265 N266 1.373 . S
C265 H293 0.930 . S
N266 C265 1.373 . S
N266 C268 1.340 . S
N267 C264 1.368 . S
N267 C268 1.321 . S
N267 Co270 2.135 1_554 S
C268 N266 1.340 . S
C268 N267 1.321 . S
C268 H292 0.930 . S
H269 C264 0.931 . S
Co270 N267 2.135 1_556 S
Co270 N273 2.121 . S
Co270 O278 2.055 . S
Co270 O281 2.039 . S
Co270 N284 2.140 . S
C271 O272 1.227 1_556 S
C271 O281 1.265 . S
O272 C271 1.227 1_554 S
N273 Co270 2.121 . S
N273 C275 1.375 . S
N273 C276 1.313 . S
C274 C275 1.338 . S
C274 N277 1.377 . S
C274 H294 0.930 . S
C275 N273 1.375 . S
C275 C274 1.338 . S
C275 H279 0.931 . S
C276 N273 1.313 . S
C276 N277 1.344 . S
C276 H280 0.930 . S
N277 C274 1.377 . S
N277 C276 1.344 . S
O278 Co270 2.055 . S
O278 C282 1.253 . S
H279 C275 0.931 . S
H280 C276 0.930 . S
O281 Co270 2.039 . S
O281 C271 1.265 . S
C282 O278 1.253 . S
C282 O283 1.227 . S
O283 C282 1.227 . S
N284 Co270 2.140 . S
N284 C287 1.346 1_556 S
N284 C288 1.345 . S
C285 C286 1.387 1_556 S
C285 C289 1.391 . S
C286 C285 1.387 1_554 S
C286 C287 1.369 . S
C286 H295 0.929 . S
C287 N284 1.346 1_554 S
C287 C286 1.369 . S
C287 H290 0.928 . S
C288 N284 1.345 . S
C288 C289 1.371 . S
C288 H291 0.931 . S
C289 C285 1.391 . S
C289 C288 1.371 . S
C289 H296 0.930 . S
H290 C287 0.928 . S
H291 C288 0.931 . S
H292 C268 0.930 . S
H293 C265 0.930 . S
H294 C274 0.930 . S
H295 C286 0.929 . S
H296 C289 0.930 . S
C297 C298 1.351 . S
C297 N300 1.368 . S
C297 H302 0.931 . S
C298 C297 1.351 . S
C298 N299 1.376 . S
C298 H326 0.930 1_556 S
N299 C298 1.376 . S
N299 C301 1.349 . S
N300 C297 1.368 . S
N300 C301 1.321 . S
N300 Co303 2.135 . S
C301 N299 1.349 . S
C301 N300 1.321 . S
C301 H325 0.930 . S
H302 C297 0.931 . S
Co303 N300 2.135 . S
Co303 N306 2.121 . S
Co303 O311 2.055 . S
Co303 O314 2.039 . S
Co303 N317 2.140 . S
C304 O305 1.227 . S
C304 O314 1.265 . S
O305 C304 1.227 . S
N306 Co303 2.121 . S
N306 C308 1.375 . S
N306 C309 1.313 . S
C307 C308 1.338 . S
C307 N310 1.377 . S
C307 H327 0.930 . S
C308 N306 1.375 . S
C308 C307 1.338 . S
C308 H312 0.931 . S
C309 N306 1.313 . S
C309 N310 1.344 . S
C309 H313 0.930 . S
N310 C307 1.377 . S
N310 C309 1.344 . S
O311 Co303 2.055 . S
O311 C315 1.253 . S
H312 C308 0.931 . S
H313 C309 0.930 . S
O314 Co303 2.039 . S
O314 C304 1.265 . S
C315 O311 1.253 . S
C315 O316 1.227 . S
O316 C315 1.227 . S
N317 Co303 2.140 . S
N317 C320 1.346 . S
N317 C321 1.345 . S
C318 C319 1.387 . S
C318 C322 1.391 . S
C319 C318 1.387 . S
C319 C320 1.369 . S
C319 H328 0.929 . S
C320 N317 1.346 . S
C320 C319 1.369 . S
C320 H323 0.928 . S
C321 N317 1.345 . S
C321 C322 1.371 . S
C321 H324 0.931 . S
C322 C318 1.391 . S
C322 C321 1.371 . S
C322 H329 0.930 . S
H323 C320 0.928 . S
H324 C321 0.931 . S
H325 C301 0.930 . S
H326 C298 0.930 1_554 S
H327 C307 0.930 . S
H328 C319 0.929 . S
H329 C322 0.930 . S
C330 C331 1.351 . S
C330 N333 1.368 . S
C330 H335 0.931 . S
C331 C330 1.351 . S
C331 N332 1.373 . S
C331 H359 0.930 . S
N332 C331 1.373 . S
N332 C334 1.340 . S
N333 C330 1.368 . S
N333 C334 1.321 . S
N333 Co336 2.135 . S
C334 N332 1.340 . S
C334 N333 1.321 . S
C334 H358 0.930 . S
H335 C330 0.931 . S
Co336 N333 2.135 . S
Co336 N339 2.121 . S
Co336 O344 2.055 . S
Co336 O347 2.039 . S
Co336 N350 2.140 . S
C337 O338 1.227 . S
C337 O347 1.265 . S
O338 C337 1.227 . S
N339 Co336 2.121 . S
N339 C341 1.375 . S
N339 C342 1.313 . S
C340 C341 1.338 . S
C340 N343 1.377 . S
C340 H360 0.930 . S
C341 N339 1.375 . S
C341 C340 1.338 . S
C341 H345 0.931 . S
C342 N339 1.313 . S
C342 N343 1.344 . S
C342 H346 0.930 . S
N343 C340 1.377 . S
N343 C342 1.344 . S
O344 Co336 2.055 . S
O344 C348 1.253 . S
H345 C341 0.931 . S
H346 C342 0.930 . S
O347 Co336 2.039 . S
O347 C337 1.265 . S
C348 O344 1.253 . S
C348 O349 1.227 . S
O349 C348 1.227 . S
N350 Co336 2.140 . S
N350 C353 1.346 . S
N350 C354 1.345 . S
C351 C352 1.387 . S
C351 C355 1.391 . S
C352 C351 1.387 . S
C352 C353 1.369 . S
C352 H361 0.929 . S
C353 N350 1.346 . S
C353 C352 1.369 . S
C353 H356 0.928 . S
C354 N350 1.345 . S
C354 C355 1.371 . S
C354 H357 0.931 . S
C355 C351 1.391 . S
C355 C354 1.371 . S
C355 H362 0.930 . S
H356 C353 0.928 . S
H357 C354 0.931 . S
H358 C334 0.930 . S
H359 C331 0.930 . S
H360 C340 0.930 . S
H361 C352 0.929 . S
H362 C355 0.930 . S
C363 C364 1.351 . S
C363 N366 1.368 . S
C363 H368 0.931 . S
C364 C363 1.351 . S
C364 N365 1.373 . S
C364 H392 0.930 . S
N365 C364 1.373 . S
N365 C367 1.340 . S
N366 C363 1.368 . S
N366 C367 1.321 . S
N366 Co369 2.135 . S
C367 N365 1.340 . S
C367 N366 1.321 . S
C367 H391 0.930 . S
H368 C363 0.931 . S
Co369 N366 2.135 . S
Co369 N372 2.121 . S
Co369 O377 2.055 . S
Co369 O380 2.039 . S
Co369 N383 2.140 . S
C370 O371 1.227 . S
C370 O380 1.265 . S
O371 C370 1.227 . S
N372 Co369 2.121 . S
N372 C374 1.375 . S
N372 C375 1.313 1_554 S
C373 C374 1.338 1_556 S
C373 N376 1.377 . S
C373 H393 0.930 . S
C374 N372 1.375 . S
C374 C373 1.338 1_554 S
C374 H378 0.931 . S
C375 N372 1.313 1_556 S
C375 N376 1.344 . S
C375 H379 0.930 . S
N376 C373 1.377 . S
N376 C375 1.344 . S
O377 Co369 2.055 . S
O377 C381 1.253 . S
H378 C374 0.931 . S
H379 C375 0.930 . S
O380 Co369 2.039 . S
O380 C370 1.265 . S
C381 O377 1.253 . S
C381 O382 1.227 . S
O382 C381 1.227 . S
N383 Co369 2.140 . S
N383 C386 1.346 . S
N383 C387 1.345 . S
C384 C385 1.387 . S
C384 C388 1.391 . S
C385 C384 1.387 . S
C385 C386 1.369 . S
C385 H394 0.929 . S
C386 N383 1.346 . S
C386 C385 1.369 . S
C386 H389 0.928 . S
C387 N383 1.345 . S
C387 C388 1.371 . S
C387 H390 0.931 . S
C388 C384 1.391 . S
C388 C387 1.371 . S
C388 H395 0.930 . S
H389 C386 0.928 . S
H390 C387 0.931 . S
H391 C367 0.930 . S
H392 C364 0.930 . S
H393 C373 0.930 . S
H394 C385 0.929 . S
H395 C388 0.930 . S
C396 C397 1.351 . S
C396 N399 1.368 . S
C396 H401 0.931 . S
C397 C396 1.351 . S
C397 N398 1.373 . S
C397 H425 0.930 . S
N398 C397 1.373 . S
N398 C400 1.340 . S
N399 C396 1.368 . S
N399 C400 1.321 . S
N399 Co402 2.135 1_556 S
C400 N398 1.340 . S
C400 N399 1.321 . S
C400 H424 0.930 . S
H401 C396 0.931 . S
Co402 N399 2.135 1_554 S
Co402 N405 2.121 . S
Co402 O410 2.055 . S
Co402 O413 2.039 . S
Co402 N416 2.140 . S
C403 O404 1.227 1_554 S
C403 O413 1.265 . S
O404 C403 1.227 1_556 S
N405 Co402 2.121 . S
N405 C407 1.375 . S
N405 C408 1.313 . S
C406 C407 1.338 . S
C406 N409 1.377 . S
C406 H426 0.930 . S
C407 N405 1.375 . S
C407 C406 1.338 . S
C407 H411 0.931 . S
C408 N405 1.313 . S
C408 N409 1.344 . S
C408 H412 0.930 . S
N409 C406 1.377 . S
N409 C408 1.344 . S
O410 Co402 2.055 . S
O410 C414 1.253 . S
H411 C407 0.931 . S
H412 C408 0.930 . S
O413 Co402 2.039 . S
O413 C403 1.265 . S
C414 O410 1.253 . S
C414 O415 1.227 . S
O415 C414 1.227 . S
N416 Co402 2.140 . S
N416 C419 1.346 1_554 S
N416 C420 1.345 . S
C417 C418 1.387 1_554 S
C417 C421 1.391 . S
C418 C417 1.387 1_556 S
C418 C419 1.369 . S
C418 H427 0.929 . S
C419 N416 1.346 1_556 S
C419 C418 1.369 . S
C419 H422 0.928 . S
C420 N416 1.345 . S
C420 C421 1.371 . S
C420 H423 0.931 . S
C421 C417 1.391 . S
C421 C420 1.371 . S
C421 H428 0.930 . S
H422 C419 0.928 . S
H423 C420 0.931 . S
H424 C400 0.930 . S
H425 C397 0.930 . S
H426 C406 0.930 . S
H427 C418 0.929 . S
H428 C421 0.930 . S
C429 C430 1.351 . S
C429 N432 1.368 . S
C429 H434 0.931 . S
C430 C429 1.351 . S
C430 N431 1.373 . S
C430 H458 0.930 . S
N431 C430 1.373 . S
N431 C433 1.340 . S
N432 C429 1.368 . S
N432 C433 1.321 . S
N432 Co435 2.135 . S
C433 N431 1.340 . S
C433 N432 1.321 . S
C433 H457 0.930 . S
H434 C429 0.931 . S
Co435 N432 2.135 . S
Co435 N438 2.121 . S
Co435 O443 2.055 . S
Co435 O446 2.039 . S
Co435 N449 2.140 . S
C436 O437 1.227 . S
C436 O446 1.265 . S
O437 C436 1.227 . S
N438 Co435 2.121 . S
N438 C440 1.375 . S
N438 C441 1.313 1_556 S
C439 C440 1.338 1_554 S
C439 N442 1.377 . S
C439 H459 0.930 . S
C440 N438 1.375 . S
C440 C439 1.338 1_556 S
C440 H444 0.931 . S
C441 N438 1.313 1_554 S
C441 N442 1.344 . S
C441 H445 0.930 . S
N442 C439 1.377 . S
N442 C441 1.344 . S
O443 Co435 2.055 . S
O443 C447 1.253 . S
H444 C440 0.931 . S
H445 C441 0.930 . S
O446 Co435 2.039 . S
O446 C436 1.265 . S
C447 O443 1.253 . S
C447 O448 1.227 . S
O448 C447 1.227 . S
N449 Co435 2.140 . S
N449 C452 1.346 . S
N449 C453 1.345 . S
C450 C451 1.387 . S
C450 C454 1.391 . S
C451 C450 1.387 . S
C451 C452 1.369 . S
C451 H460 0.929 . S
C452 N449 1.346 . S
C452 C451 1.369 . S
C452 H455 0.928 . S
C453 N449 1.345 . S
C453 C454 1.371 . S
C453 H456 0.931 . S
C454 C450 1.391 . S
C454 C453 1.371 . S
C454 H461 0.930 . S
H455 C452 0.928 . S
H456 C453 0.931 . S
H457 C433 0.930 . S
H458 C430 0.930 . S
H459 C439 0.930 . S
H460 C451 0.929 . S
H461 C454 0.930 . S
C462 C463 1.351 . S
C462 N465 1.368 . S
C462 H467 0.931 . S
C463 C462 1.351 . S
C463 N464 1.373 . S
C463 H491 0.930 . S
N464 C463 1.373 . S
N464 C466 1.340 . S
N465 C462 1.368 . S
N465 C466 1.321 . S
N465 Co468 2.135 . S
C466 N464 1.340 . S
C466 N465 1.321 . S
C466 H490 0.930 . S
H467 C462 0.931 . S
Co468 N465 2.135 . S
Co468 N471 2.121 . S
Co468 O476 2.055 . S
Co468 O479 2.039 . S
Co468 N482 2.140 . S
C469 O470 1.227 . S
C469 O479 1.265 . S
O470 C469 1.227 . S
N471 Co468 2.121 . S
N471 C473 1.375 . S
N471 C474 1.313 . S
C472 C473 1.338 . S
C472 N475 1.377 . S
C472 H492 0.930 . S
C473 N471 1.375 . S
C473 C472 1.338 . S
C473 H477 0.931 . S
C474 N471 1.313 . S
C474 N475 1.344 . S
C474 H478 0.930 . S
N475 C472 1.377 . S
N475 C474 1.344 . S
O476 Co468 2.055 . S
O476 C480 1.253 . S
H477 C473 0.931 . S
H478 C474 0.930 . S
O479 Co468 2.039 . S
O479 C469 1.265 . S
C480 O476 1.253 . S
C480 O481 1.227 . S
O481 C480 1.227 . S
N482 Co468 2.140 . S
N482 C485 1.346 . S
N482 C486 1.345 . S
C483 C484 1.387 . S
C483 C487 1.391 . S
C484 C483 1.387 . S
C484 C485 1.369 . S
C484 H493 0.929 . S
C485 N482 1.346 . S
C485 C484 1.369 . S
C485 H488 0.928 . S
C486 N482 1.345 . S
C486 C487 1.371 . S
C486 H489 0.931 . S
C487 C483 1.391 . S
C487 C486 1.371 . S
C487 H494 0.930 . S
H488 C485 0.928 . S
H489 C486 0.931 . S
H490 C466 0.930 . S
H491 C463 0.930 . S
H492 C472 0.930 . S
H493 C484 0.929 . S
H494 C487 0.930 . S
C495 C496 1.351 . S
C495 N498 1.368 . S
C495 H500 0.931 . S
C496 C495 1.351 . S
C496 N497 1.376 . S
C496 H524 0.930 1_554 S
N497 C496 1.376 . S
N497 C499 1.349 . S
N498 C495 1.368 . S
N498 C499 1.321 . S
N498 Co501 2.135 . S
C499 N497 1.349 . S
C499 N498 1.321 . S
C499 H523 0.930 . S
H500 C495 0.931 . S
Co501 N498 2.135 . S
Co501 N504 2.121 . S
Co501 O509 2.055 . S
Co501 O512 2.039 . S
Co501 N515 2.140 . S
C502 O503 1.227 . S
C502 O512 1.265 . S
O503 C502 1.227 . S
N504 Co501 2.121 . S
N504 C506 1.375 . S
N504 C507 1.313 . S
C505 C506 1.338 . S
C505 N508 1.377 . S
C505 H525 0.930 . S
C506 N504 1.375 . S
C506 C505 1.338 . S
C506 H510 0.931 . S
C507 N504 1.313 . S
C507 N508 1.344 . S
C507 H511 0.930 . S
N508 C505 1.377 . S
N508 C507 1.344 . S
O509 Co501 2.055 . S
O509 C513 1.253 . S
H510 C506 0.931 . S
H511 C507 0.930 . S
O512 Co501 2.039 . S
O512 C502 1.265 . S
C513 O509 1.253 . S
C513 O514 1.227 . S
O514 C513 1.227 . S
N515 Co501 2.140 . S
N515 C518 1.346 . S
N515 C519 1.345 . S
C516 C517 1.387 . S
C516 C520 1.391 . S
C517 C516 1.387 . S
C517 C518 1.369 . S
C517 H526 0.929 . S
C518 N515 1.346 . S
C518 C517 1.369 . S
C518 H521 0.928 . S
C519 N515 1.345 . S
C519 C520 1.371 . S
C519 H522 0.931 . S
C520 C516 1.391 . S
C520 C519 1.371 . S
C520 H527 0.930 . S
H521 C518 0.928 . S
H522 C519 0.931 . S
H523 C499 0.930 . S
H524 C496 0.930 1_556 S
H525 C505 0.930 . S
H526 C517 0.929 . S
H527 C520 0.930 . S
C528 C529 1.351 . S
C528 N531 1.368 . S
C528 H533 0.931 . S
C529 C528 1.351 . S
C529 N530 1.373 . S
C529 H557 0.930 . S
N530 C529 1.373 . S
N530 C532 1.340 . S
N531 C528 1.368 . S
N531 C532 1.321 . S
N531 Co534 2.135 . S
C532 N530 1.340 . S
C532 N531 1.321 . S
C532 H556 0.930 . S
H533 C528 0.931 . S
Co534 N531 2.135 . S
Co534 N537 2.121 . S
Co534 O542 2.055 . S
Co534 O545 2.039 . S
Co534 N548 2.140 . S
C535 O536 1.227 . S
C535 O545 1.265 . S
O536 C535 1.227 . S
N537 Co534 2.121 . S
N537 C539 1.375 . S
N537 C540 1.313 . S
C538 C539 1.338 . S
C538 N541 1.377 . S
C538 H558 0.930 . S
C539 N537 1.375 . S
C539 C538 1.338 . S
C539 H543 0.931 . S
C540 N537 1.313 . S
C540 N541 1.344 . S
C540 H544 0.930 . S
N541 C538 1.377 . S
N541 C540 1.344 . S
O542 Co534 2.055 . S
O542 C546 1.253 . S
H543 C539 0.931 . S
H544 C540 0.930 . S
O545 Co534 2.039 . S
O545 C535 1.265 . S
C546 O542 1.253 . S
C546 O547 1.227 . S
O547 C546 1.227 . S
N548 Co534 2.140 . S
N548 C551 1.346 . S
N548 C552 1.345 . S
C549 C550 1.387 . S
C549 C553 1.391 . S
C550 C549 1.387 . S
C550 C551 1.369 . S
C550 H559 0.929 . S
C551 N548 1.346 . S
C551 C550 1.369 . S
C551 H554 0.928 . S
C552 N548 1.345 . S
C552 C553 1.371 . S
C552 H555 0.931 . S
C553 C549 1.391 . S
C553 C552 1.371 . S
C553 H560 0.930 . S
H554 C551 0.928 . S
H555 C552 0.931 . S
H556 C532 0.930 . S
H557 C529 0.930 . S
H558 C538 0.930 . S
H559 C550 0.929 . S
H560 C553 0.930 . S
C561 C562 1.351 . S
C561 N564 1.368 . S
C561 H566 0.931 . S
C562 C561 1.351 . S
C562 N563 1.373 . S
C562 H590 0.930 . S
N563 C562 1.373 . S
N563 C565 1.340 . S
N564 C561 1.368 . S
N564 C565 1.321 . S
N564 Co567 2.135 . S
C565 N563 1.340 . S
C565 N564 1.321 . S
C565 H589 0.930 . S
H566 C561 0.931 . S
Co567 N564 2.135 . S
Co567 N570 2.121 . S
Co567 O575 2.055 . S
Co567 O578 2.039 . S
Co567 N581 2.140 . S
C568 O569 1.227 . S
C568 O578 1.265 . S
O569 C568 1.227 . S
N570 Co567 2.121 . S
N570 C572 1.375 . S
N570 C573 1.313 1_556 S
C571 C572 1.338 1_554 S
C571 N574 1.377 . S
C571 H591 0.930 . S
C572 N570 1.375 . S
C572 C571 1.338 1_556 S
C572 H576 0.931 . S
C573 N570 1.313 1_554 S
C573 N574 1.344 . S
C573 H577 0.930 . S
N574 C571 1.377 . S
N574 C573 1.344 . S
O575 Co567 2.055 . S
O575 C579 1.253 . S
H576 C572 0.931 . S
H577 C573 0.930 . S
O578 Co567 2.039 . S
O578 C568 1.265 . S
C579 O575 1.253 . S
C579 O580 1.227 . S
O580 C579 1.227 . S
N581 Co567 2.140 . S
N581 C584 1.346 . S
N581 C585 1.345 . S
C582 C583 1.387 . S
C582 C586 1.391 . S
C583 C582 1.387 . S
C583 C584 1.369 . S
C583 H592 0.929 . S
C584 N581 1.346 . S
C584 C583 1.369 . S
C584 H587 0.928 . S
C585 N581 1.345 . S
C585 C586 1.371 . S
C585 H588 0.931 . S
C586 C582 1.391 . S
C586 C585 1.371 . S
C586 H593 0.930 . S
H587 C584 0.928 . S
H588 C585 0.931 . S
H589 C565 0.930 . S
H590 C562 0.930 . S
H591 C571 0.930 . S
H592 C583 0.929 . S
H593 C586 0.930 . S
C594 C595 1.351 . S
C594 N597 1.368 . S
C594 H599 0.931 . S
C595 C594 1.351 . S
C595 N596 1.373 . S
C595 H623 0.930 . S
N596 C595 1.373 . S
N596 C598 1.340 . S
N597 C594 1.368 . S
N597 C598 1.321 . S
N597 Co600 2.135 1_556 S
C598 N596 1.340 . S
C598 N597 1.321 . S
C598 H622 0.930 . S
H599 C594 0.931 . S
Co600 N597 2.135 1_554 S
Co600 N603 2.121 . S
Co600 O608 2.055 . S
Co600 O611 2.039 . S
Co600 N614 2.140 . S
C601 O602 1.227 1_554 S
C601 O611 1.265 . S
O602 C601 1.227 1_556 S
N603 Co600 2.121 . S
N603 C605 1.375 . S
N603 C606 1.313 . S
C604 C605 1.338 . S
C604 N607 1.377 . S
C604 H624 0.930 . S
C605 N603 1.375 . S
C605 C604 1.338 . S
C605 H609 0.931 . S
C606 N603 1.313 . S
C606 N607 1.344 . S
C606 H610 0.930 . S
N607 C604 1.377 . S
N607 C606 1.344 . S
O608 Co600 2.055 . S
O608 C612 1.253 . S
H609 C605 0.931 . S
H610 C606 0.930 . S
O611 Co600 2.039 . S
O611 C601 1.265 . S
C612 O608 1.253 . S
C612 O613 1.227 . S
O613 C612 1.227 . S
N614 Co600 2.140 . S
N614 C617 1.346 1_554 S
N614 C618 1.345 . S
C615 C616 1.387 1_554 S
C615 C619 1.391 . S
C616 C615 1.387 1_556 S
C616 C617 1.369 . S
C616 H625 0.929 . S
C617 N614 1.346 1_556 S
C617 C616 1.369 . S
C617 H620 0.928 . S
C618 N614 1.345 . S
C618 C619 1.371 . S
C618 H621 0.931 . S
C619 C615 1.391 . S
C619 C618 1.371 . S
C619 H626 0.930 . S
H620 C617 0.928 . S
H621 C618 0.931 . S
H622 C598 0.930 . S
H623 C595 0.930 . S
H624 C604 0.930 . S
H625 C616 0.929 . S
H626 C619 0.930 . S
C627 C628 1.351 . S
C627 N630 1.368 . S
C627 H632 0.931 . S
C628 C627 1.351 . S
C628 N629 1.376 . S
C628 H656 0.930 1_554 S
N629 C628 1.376 . S
N629 C631 1.349 . S
N630 C627 1.368 . S
N630 C631 1.321 . S
N630 Co633 2.135 . S
C631 N629 1.349 . S
C631 N630 1.321 . S
C631 H655 0.930 . S
H632 C627 0.931 . S
Co633 N630 2.135 . S
Co633 N636 2.121 . S
Co633 O641 2.055 . S
Co633 O644 2.039 . S
Co633 N647 2.140 . S
C634 O635 1.227 . S
C634 O644 1.265 . S
O635 C634 1.227 . S
N636 Co633 2.121 . S
N636 C638 1.375 . S
N636 C639 1.313 . S
C637 C638 1.338 . S
C637 N640 1.377 . S
C637 H657 0.930 . S
C638 N636 1.375 . S
C638 C637 1.338 . S
C638 H642 0.931 . S
C639 N636 1.313 . S
C639 N640 1.344 . S
C639 H643 0.930 . S
N640 C637 1.377 . S
N640 C639 1.344 . S
O641 Co633 2.055 . S
O641 C645 1.253 . S
H642 C638 0.931 . S
H643 C639 0.930 . S
O644 Co633 2.039 . S
O644 C634 1.265 . S
C645 O641 1.253 . S
C645 O646 1.227 . S
O646 C645 1.227 . S
N647 Co633 2.140 . S
N647 C650 1.346 . S
N647 C651 1.345 . S
C648 C649 1.387 . S
C648 C652 1.391 . S
C649 C648 1.387 . S
C649 C650 1.369 . S
C649 H658 0.929 . S
C650 N647 1.346 . S
C650 C649 1.369 . S
C650 H653 0.928 . S
C651 N647 1.345 . S
C651 C652 1.371 . S
C651 H654 0.931 . S
C652 C648 1.391 . S
C652 C651 1.371 . S
C652 H659 0.930 . S
H653 C650 0.928 . S
H654 C651 0.931 . S
H655 C631 0.930 . S
H656 C628 0.930 1_556 S
H657 C637 0.930 . S
H658 C649 0.929 . S
H659 C652 0.930 . S
C660 C661 1.351 . S
C660 N663 1.368 . S
C660 H665 0.931 . S
C661 C660 1.351 . S
C661 N662 1.373 . S
C661 H689 0.930 . S
N662 C661 1.373 . S
N662 C664 1.340 . S
N663 C660 1.368 . S
N663 C664 1.321 . S
N663 Co666 2.135 . S
C664 N662 1.340 . S
C664 N663 1.321 . S
C664 H688 0.930 . S
H665 C660 0.931 . S
Co666 N663 2.135 . S
Co666 N669 2.121 . S
Co666 O674 2.055 . S
Co666 O677 2.039 . S
Co666 N680 2.140 . S
C667 O668 1.227 . S
C667 O677 1.265 . S
O668 C667 1.227 . S
N669 Co666 2.121 . S
N669 C671 1.375 . S
N669 C672 1.313 . S
C670 C671 1.338 . S
C670 N673 1.377 . S
C670 H690 0.930 . S
C671 N669 1.375 . S
C671 C670 1.338 . S
C671 H675 0.931 . S
C672 N669 1.313 . S
C672 N673 1.344 . S
C672 H676 0.930 . S
N673 C670 1.377 . S
N673 C672 1.344 . S
O674 Co666 2.055 . S
O674 C678 1.253 . S
H675 C671 0.931 . S
H676 C672 0.930 . S
O677 Co666 2.039 . S
O677 C667 1.265 . S
C678 O674 1.253 . S
C678 O679 1.227 . S
O679 C678 1.227 . S
N680 Co666 2.140 . S
N680 C683 1.346 . S
N680 C684 1.345 . S
C681 C682 1.387 . S
C681 C685 1.391 . S
C682 C681 1.387 . S
C682 C683 1.369 . S
C682 H691 0.929 . S
C683 N680 1.346 . S
C683 C682 1.369 . S
C683 H686 0.928 . S
C684 N680 1.345 . S
C684 C685 1.371 . S
C684 H687 0.931 . S
C685 C681 1.391 . S
C685 C684 1.371 . S
C685 H692 0.930 . S
H686 C683 0.928 . S
H687 C684 0.931 . S
H688 C664 0.930 . S
H689 C661 0.930 . S
H690 C670 0.930 . S
H691 C682 0.929 . S
H692 C685 0.930 . S
C693 C694 1.351 . S
C693 N696 1.368 . S
C693 H698 0.931 . S
C694 C693 1.351 . S
C694 N695 1.376 . S
C694 H722 0.930 1_556 S
N695 C694 1.376 . S
N695 C697 1.349 . S
N696 C693 1.368 . S
N696 C697 1.321 . S
N696 Co699 2.135 . S
C697 N695 1.349 . S
C697 N696 1.321 . S
C697 H721 0.930 . S
H698 C693 0.931 . S
Co699 N696 2.135 . S
Co699 N702 2.121 . S
Co699 O707 2.055 . S
Co699 O710 2.039 . S
Co699 N713 2.140 . S
C700 O701 1.227 . S
C700 O710 1.265 . S
O701 C700 1.227 . S
N702 Co699 2.121 . S
N702 C704 1.375 . S
N702 C705 1.313 . S
C703 C704 1.338 . S
C703 N706 1.377 . S
C703 H723 0.930 . S
C704 N702 1.375 . S
C704 C703 1.338 . S
C704 H708 0.931 . S
C705 N702 1.313 . S
C705 N706 1.344 . S
C705 H709 0.930 . S
N706 C703 1.377 . S
N706 C705 1.344 . S
O707 Co699 2.055 . S
O707 C711 1.253 . S
H708 C704 0.931 . S
H709 C705 0.930 . S
O710 Co699 2.039 . S
O710 C700 1.265 . S
C711 O707 1.253 . S
C711 O712 1.227 . S
O712 C711 1.227 . S
N713 Co699 2.140 . S
N713 C716 1.346 . S
N713 C717 1.345 . S
C714 C715 1.387 . S
C714 C718 1.391 . S
C715 C714 1.387 . S
C715 C716 1.369 . S
C715 H724 0.929 . S
C716 N713 1.346 . S
C716 C715 1.369 . S
C716 H719 0.928 . S
C717 N713 1.345 . S
C717 C718 1.371 . S
C717 H720 0.931 . S
C718 C714 1.391 . S
C718 C717 1.371 . S
C718 H725 0.930 . S
H719 C716 0.928 . S
H720 C717 0.931 . S
H721 C697 0.930 . S
H722 C694 0.930 1_554 S
H723 C703 0.930 . S
H724 C715 0.929 . S
H725 C718 0.930 . S
C726 C727 1.351 . S
C726 N729 1.368 . S
C726 H731 0.931 . S
C727 C726 1.351 . S
C727 N728 1.373 . S
C727 H755 0.930 . S
N728 C727 1.373 . S
N728 C730 1.340 . S
N729 C726 1.368 . S
N729 C730 1.321 . S
N729 Co732 2.135 1_554 S
C730 N728 1.340 . S
C730 N729 1.321 . S
C730 H754 0.930 . S
H731 C726 0.931 . S
Co732 N729 2.135 1_556 S
Co732 N735 2.121 . S
Co732 O740 2.055 . S
Co732 O743 2.039 . S
Co732 N746 2.140 . S
C733 O734 1.227 1_556 S
C733 O743 1.265 . S
O734 C733 1.227 1_554 S
N735 Co732 2.121 . S
N735 C737 1.375 . S
N735 C738 1.313 . S
C736 C737 1.338 . S
C736 N739 1.377 . S
C736 H756 0.930 . S
C737 N735 1.375 . S
C737 C736 1.338 . S
C737 H741 0.931 . S
C738 N735 1.313 . S
C738 N739 1.344 . S
C738 H742 0.930 . S
N739 C736 1.377 . S
N739 C738 1.344 . S
O740 Co732 2.055 . S
O740 C744 1.253 . S
H741 C737 0.931 . S
H742 C738 0.930 . S
O743 Co732 2.039 . S
O743 C733 1.265 . S
C744 O740 1.253 . S
C744 O745 1.227 . S
O745 C744 1.227 . S
N746 Co732 2.140 . S
N746 C749 1.346 1_556 S
N746 C750 1.345 . S
C747 C748 1.387 1_556 S
C747 C751 1.391 . S
C748 C747 1.387 1_554 S
C748 C749 1.369 . S
C748 H757 0.929 . S
C749 N746 1.346 1_554 S
C749 C748 1.369 . S
C749 H752 0.928 . S
C750 N746 1.345 . S
C750 C751 1.371 . S
C750 H753 0.931 . S
C751 C747 1.391 . S
C751 C750 1.371 . S
C751 H758 0.930 . S
H752 C749 0.928 . S
H753 C750 0.931 . S
H754 C730 0.930 . S
H755 C727 0.930 . S
H756 C736 0.930 . S
H757 C748 0.929 . S
H758 C751 0.930 . S
C759 C760 1.351 . S
C759 N762 1.368 . S
C759 H764 0.931 . S
C760 C759 1.351 . S
C760 N761 1.373 . S
C760 H788 0.930 . S
N761 C760 1.373 . S
N761 C763 1.340 . S
N762 C759 1.368 . S
N762 C763 1.321 . S
N762 Co765 2.135 . S
C763 N761 1.340 . S
C763 N762 1.321 . S
C763 H787 0.930 . S
H764 C759 0.931 . S
Co765 N762 2.135 . S
Co765 N768 2.121 . S
Co765 O773 2.055 . S
Co765 O776 2.039 . S
Co765 N779 2.140 . S
C766 O767 1.227 . S
C766 O776 1.265 . S
O767 C766 1.227 . S
N768 Co765 2.121 . S
N768 C770 1.375 . S
N768 C771 1.313 1_554 S
C769 C770 1.338 1_556 S
C769 N772 1.377 . S
C769 H789 0.930 . S
C770 N768 1.375 . S
C770 C769 1.338 1_554 S
C770 H774 0.931 . S
C771 N768 1.313 1_556 S
C771 N772 1.344 . S
C771 H775 0.930 . S
N772 C769 1.377 . S
N772 C771 1.344 . S
O773 Co765 2.055 . S
O773 C777 1.253 . S
H774 C770 0.931 . S
H775 C771 0.930 . S
O776 Co765 2.039 . S
O776 C766 1.265 . S
C777 O773 1.253 . S
C777 O778 1.227 . S
O778 C777 1.227 . S
N779 Co765 2.140 . S
N779 C782 1.346 . S
N779 C783 1.345 . S
C780 C781 1.387 . S
C780 C784 1.391 . S
C781 C780 1.387 . S
C781 C782 1.369 . S
C781 H790 0.929 . S
C782 N779 1.346 . S
C782 C781 1.369 . S
C782 H785 0.928 . S
C783 N779 1.345 . S
C783 C784 1.371 . S
C783 H786 0.931 . S
C784 C780 1.391 . S
C784 C783 1.371 . S
C784 H791 0.930 . S
H785 C782 0.928 . S
H786 C783 0.931 . S
H787 C763 0.930 . S
H788 C760 0.930 . S
H789 C769 0.930 . S
H790 C781 0.929 . S
H791 C784 0.930 . S
C792 C793 1.351 . S
C792 N795 1.368 . S
C792 H797 0.931 . S
C793 C792 1.351 . S
C793 N794 1.373 . S
C793 H821 0.930 . S
N794 C793 1.373 . S
N794 C796 1.340 . S
N795 C792 1.368 . S
N795 C796 1.321 . S
N795 Co798 2.135 . S
C796 N794 1.340 . S
C796 N795 1.321 . S
C796 H820 0.930 . S
H797 C792 0.931 . S
Co798 N795 2.135 . S
Co798 N801 2.121 . S
Co798 O806 2.055 . S
Co798 O809 2.039 . S
Co798 N812 2.140 . S
C799 O800 1.227 . S
C799 O809 1.265 . S
O800 C799 1.227 . S
N801 Co798 2.121 . S
N801 C803 1.375 . S
N801 C804 1.313 . S
C802 C803 1.338 . S
C802 N805 1.377 . S
C802 H822 0.930 . S
C803 N801 1.375 . S
C803 C802 1.338 . S
C803 H807 0.931 . S
C804 N801 1.313 . S
C804 N805 1.344 . S
C804 H808 0.930 . S
N805 C802 1.377 . S
N805 C804 1.344 . S
O806 Co798 2.055 . S
O806 C810 1.253 . S
H807 C803 0.931 . S
H808 C804 0.930 . S
O809 Co798 2.039 . S
O809 C799 1.265 . S
C810 O806 1.253 . S
C810 O811 1.227 . S
O811 C810 1.227 . S
N812 Co798 2.140 . S
N812 C815 1.346 . S
N812 C816 1.345 . S
C813 C814 1.387 . S
C813 C817 1.391 . S
C814 C813 1.387 . S
C814 C815 1.369 . S
C814 H823 0.929 . S
C815 N812 1.346 . S
C815 C814 1.369 . S
C815 H818 0.928 . S
C816 N812 1.345 . S
C816 C817 1.371 . S
C816 H819 0.931 . S
C817 C813 1.391 . S
C817 C816 1.371 . S
C817 H824 0.930 . S
H818 C815 0.928 . S
H819 C816 0.931 . S
H820 C796 0.930 . S
H821 C793 0.930 . S
H822 C802 0.930 . S
H823 C814 0.929 . S
H824 C817 0.930 . S
C825 C826 1.351 . S
C825 N828 1.368 . S
C825 H830 0.931 . S
C826 C825 1.351 . S
C826 N827 1.373 . S
C826 H854 0.930 . S
N827 C826 1.373 . S
N827 C829 1.340 . S
N828 C825 1.368 . S
N828 C829 1.321 . S
N828 Co831 2.135 . S
C829 N827 1.340 . S
C829 N828 1.321 . S
C829 H853 0.930 . S
H830 C825 0.931 . S
Co831 N828 2.135 . S
Co831 N834 2.121 . S
Co831 O839 2.055 . S
Co831 O842 2.039 . S
Co831 N845 2.140 . S
C832 O833 1.227 . S
C832 O842 1.265 . S
O833 C832 1.227 . S
N834 Co831 2.121 . S
N834 C836 1.375 . S
N834 C837 1.313 1_554 S
C835 C836 1.338 1_556 S
C835 N838 1.377 . S
C835 H855 0.930 . S
C836 N834 1.375 . S
C836 C835 1.338 1_554 S
C836 H840 0.931 . S
C837 N834 1.313 1_556 S
C837 N838 1.344 . S
C837 H841 0.930 . S
N838 C835 1.377 . S
N838 C837 1.344 . S
O839 Co831 2.055 . S
O839 C843 1.253 . S
H840 C836 0.931 . S
H841 C837 0.930 . S
O842 Co831 2.039 . S
O842 C832 1.265 . S
C843 O839 1.253 . S
C843 O844 1.227 . S
O844 C843 1.227 . S
N845 Co831 2.140 . S
N845 C848 1.346 . S
N845 C849 1.345 . S
C846 C847 1.387 . S
C846 C850 1.391 . S
C847 C846 1.387 . S
C847 C848 1.369 . S
C847 H856 0.929 . S
C848 N845 1.346 . S
C848 C847 1.369 . S
C848 H851 0.928 . S
C849 N845 1.345 . S
C849 C850 1.371 . S
C849 H852 0.931 . S
C850 C846 1.391 . S
C850 C849 1.371 . S
C850 H857 0.930 . S
H851 C848 0.928 . S
H852 C849 0.931 . S
H853 C829 0.930 . S
H854 C826 0.930 . S
H855 C835 0.930 . S
H856 C847 0.929 . S
H857 C850 0.930 . S
C858 C859 1.351 . S
C858 N861 1.368 . S
C858 H863 0.931 . S
C859 C858 1.351 . S
C859 N860 1.373 . S
C859 H887 0.930 . S
N860 C859 1.373 . S
N860 C862 1.340 . S
N861 C858 1.368 . S
N861 C862 1.321 . S
N861 Co864 2.135 1_554 S
C862 N860 1.340 . S
C862 N861 1.321 . S
C862 H886 0.930 . S
H863 C858 0.931 . S
Co864 N861 2.135 1_556 S
Co864 N867 2.121 . S
Co864 O872 2.055 . S
Co864 O875 2.039 . S
Co864 N878 2.140 . S
C865 O866 1.227 1_556 S
C865 O875 1.265 . S
O866 C865 1.227 1_554 S
N867 Co864 2.121 . S
N867 C869 1.375 . S
N867 C870 1.313 . S
C868 C869 1.338 . S
C868 N871 1.377 . S
C868 H888 0.930 . S
C869 N867 1.375 . S
C869 C868 1.338 . S
C869 H873 0.931 . S
C870 N867 1.313 . S
C870 N871 1.344 . S
C870 H874 0.930 . S
N871 C868 1.377 . S
N871 C870 1.344 . S
O872 Co864 2.055 . S
O872 C876 1.253 . S
H873 C869 0.931 . S
H874 C870 0.930 . S
O875 Co864 2.039 . S
O875 C865 1.265 . S
C876 O872 1.253 . S
C876 O877 1.227 . S
O877 C876 1.227 . S
N878 Co864 2.140 . S
N878 C881 1.346 1_556 S
N878 C882 1.345 . S
C879 C880 1.387 1_556 S
C879 C883 1.391 . S
C880 C879 1.387 1_554 S
C880 C881 1.369 . S
C880 H889 0.929 . S
C881 N878 1.346 1_554 S
C881 C880 1.369 . S
C881 H884 0.928 . S
C882 N878 1.345 . S
C882 C883 1.371 . S
C882 H885 0.931 . S
C883 C879 1.391 . S
C883 C882 1.371 . S
C883 H890 0.930 . S
H884 C881 0.928 . S
H885 C882 0.931 . S
H886 C862 0.930 . S
H887 C859 0.930 . S
H888 C868 0.930 . S
H889 C880 0.929 . S
H890 C883 0.930 . S
C891 C892 1.351 . S
C891 N894 1.368 . S
C891 H896 0.931 . S
C892 C891 1.351 . S
C892 N893 1.376 . S
C892 H920 0.930 1_556 S
N893 C892 1.376 . S
N893 C895 1.349 . S
N894 C891 1.368 . S
N894 C895 1.321 . S
N894 Co897 2.135 . S
C895 N893 1.349 . S
C895 N894 1.321 . S
C895 H919 0.930 . S
H896 C891 0.931 . S
Co897 N894 2.135 . S
Co897 N900 2.121 . S
Co897 O905 2.055 . S
Co897 O908 2.039 . S
Co897 N911 2.140 . S
C898 O899 1.227 . S
C898 O908 1.265 . S
O899 C898 1.227 . S
N900 Co897 2.121 . S
N900 C902 1.375 . S
N900 C903 1.313 . S
C901 C902 1.338 . S
C901 N904 1.377 . S
C901 H921 0.930 . S
C902 N900 1.375 . S
C902 C901 1.338 . S
C902 H906 0.931 . S
C903 N900 1.313 . S
C903 N904 1.344 . S
C903 H907 0.930 . S
N904 C901 1.377 . S
N904 C903 1.344 . S
O905 Co897 2.055 . S
O905 C909 1.253 . S
H906 C902 0.931 . S
H907 C903 0.930 . S
O908 Co897 2.039 . S
O908 C898 1.265 . S
C909 O905 1.253 . S
C909 O910 1.227 . S
O910 C909 1.227 . S
N911 Co897 2.140 . S
N911 C914 1.346 . S
N911 C915 1.345 . S
C912 C913 1.387 . S
C912 C916 1.391 . S
C913 C912 1.387 . S
C913 C914 1.369 . S
C913 H922 0.929 . S
C914 N911 1.346 . S
C914 C913 1.369 . S
C914 H917 0.928 . S
C915 N911 1.345 . S
C915 C916 1.371 . S
C915 H918 0.931 . S
C916 C912 1.391 . S
C916 C915 1.371 . S
C916 H923 0.930 . S
H917 C914 0.928 . S
H918 C915 0.931 . S
H919 C895 0.930 . S
H920 C892 0.930 1_554 S
H921 C901 0.930 . S
H922 C913 0.929 . S
H923 C916 0.930 . S
C924 C925 1.351 . S
C924 N927 1.368 . S
C924 H929 0.931 . S
C925 C924 1.351 . S
C925 N926 1.373 . S
C925 H953 0.930 . S
N926 C925 1.373 . S
N926 C928 1.340 . S
N927 C924 1.368 . S
N927 C928 1.321 . S
N927 Co930 2.135 . S
C928 N926 1.340 . S
C928 N927 1.321 . S
C928 H952 0.930 . S
H929 C924 0.931 . S
Co930 N927 2.135 . S
Co930 N933 2.121 . S
Co930 O938 2.055 . S
Co930 O941 2.039 . S
Co930 N944 2.140 . S
C931 O932 1.227 . S
C931 O941 1.265 . S
O932 C931 1.227 . S
N933 Co930 2.121 . S
N933 C935 1.375 . S
N933 C936 1.313 . S
C934 C935 1.338 . S
C934 N937 1.377 . S
C934 H954 0.930 . S
C935 N933 1.375 . S
C935 C934 1.338 . S
C935 H939 0.931 . S
C936 N933 1.313 . S
C936 N937 1.344 . S
C936 H940 0.930 . S
N937 C934 1.377 . S
N937 C936 1.344 . S
O938 Co930 2.055 . S
O938 C942 1.253 . S
H939 C935 0.931 . S
H940 C936 0.930 . S
O941 Co930 2.039 . S
O941 C931 1.265 . S
C942 O938 1.253 . S
C942 O943 1.227 . S
O943 C942 1.227 . S
N944 Co930 2.140 . S
N944 C947 1.346 . S
N944 C948 1.345 . S
C945 C946 1.387 . S
C945 C949 1.391 . S
C946 C945 1.387 . S
C946 C947 1.369 . S
C946 H955 0.929 . S
C947 N944 1.346 . S
C947 C946 1.369 . S
C947 H950 0.928 . S
C948 N944 1.345 . S
C948 C949 1.371 . S
C948 H951 0.931 . S
C949 C945 1.391 . S
C949 C948 1.371 . S
C949 H956 0.930 . S
H950 C947 0.928 . S
H951 C948 0.931 . S
H952 C928 0.930 . S
H953 C925 0.930 . S
H954 C934 0.930 . S
H955 C946 0.929 . S
H956 C949 0.930 . S
C957 C958 1.351 . S
C957 N960 1.368 . S
C957 H962 0.931 . S
C958 C957 1.351 . S
C958 N959 1.376 . S
C958 H986 0.930 1_554 S
N959 C958 1.376 . S
N959 C961 1.349 . S
N960 C957 1.368 . S
N960 C961 1.321 . S
N960 Co963 2.135 . S
C961 N959 1.349 . S
C961 N960 1.321 . S
C961 H985 0.930 . S
H962 C957 0.931 . S
Co963 N960 2.135 . S
Co963 N966 2.121 . S
Co963 O971 2.055 . S
Co963 O974 2.039 . S
Co963 N977 2.140 . S
C964 O965 1.227 . S
C964 O974 1.265 . S
O965 C964 1.227 . S
N966 Co963 2.121 . S
N966 C968 1.375 . S
N966 C969 1.313 . S
C967 C968 1.338 . S
C967 N970 1.377 . S
C967 H987 0.930 . S
C968 N966 1.375 . S
C968 C967 1.338 . S
C968 H972 0.931 . S
C969 N966 1.313 . S
C969 N970 1.344 . S
C969 H973 0.930 . S
N970 C967 1.377 . S
N970 C969 1.344 . S
O971 Co963 2.055 . S
O971 C975 1.253 . S
H972 C968 0.931 . S
H973 C969 0.930 . S
O974 Co963 2.039 . S
O974 C964 1.265 . S
C975 O971 1.253 . S
C975 O976 1.227 . S
O976 C975 1.227 . S
N977 Co963 2.140 . S
N977 C980 1.346 . S
N977 C981 1.345 . S
C978 C979 1.387 . S
C978 C982 1.391 . S
C979 C978 1.387 . S
C979 C980 1.369 . S
C979 H988 0.929 . S
C980 N977 1.346 . S
C980 C979 1.369 . S
C980 H983 0.928 . S
C981 N977 1.345 . S
C981 C982 1.371 . S
C981 H984 0.931 . S
C982 C978 1.391 . S
C982 C981 1.371 . S
C982 H989 0.930 . S
H983 C980 0.928 . S
H984 C981 0.931 . S
H985 C961 0.930 . S
H986 C958 0.930 1_556 S
H987 C967 0.930 . S
H988 C979 0.929 . S
H989 C982 0.930 . S
C990 C991 1.351 . S
C990 N993 1.368 . S
C990 H995 0.931 . S
C991 C990 1.351 . S
C991 N992 1.373 . S
C991 H1019 0.930 . S
N992 C991 1.373 . S
N992 C994 1.340 . S
N993 C990 1.368 . S
N993 C994 1.321 . S
N993 Co996 2.135 1_556 S
C994 N992 1.340 . S
C994 N993 1.321 . S
C994 H1018 0.930 . S
H995 C990 0.931 . S
Co996 N993 2.135 1_554 S
Co996 N999 2.121 . S
Co996 O1004 2.055 . S
Co996 O1007 2.039 . S
Co996 N1010 2.140 . S
C997 O998 1.227 1_554 S
C997 O1007 1.265 . S
O998 C997 1.227 1_556 S
N999 Co996 2.121 . S
N999 C1001 1.375 . S
N999 C1002 1.313 . S
C1000 C1001 1.338 . S
C1000 N1003 1.377 . S
C1000 H1020 0.930 . S
C1001 N999 1.375 . S
C1001 C1000 1.338 . S
C1001 H1005 0.931 . S
C1002 N999 1.313 . S
C1002 N1003 1.344 . S
C1002 H1006 0.930 . S
N1003 C1000 1.377 . S
N1003 C1002 1.344 . S
O1004 Co996 2.055 . S
O1004 C1008 1.253 . S
H1005 C1001 0.931 . S
H1006 C1002 0.930 . S
O1007 Co996 2.039 . S
O1007 C997 1.265 . S
C1008 O1004 1.253 . S
C1008 O1009 1.227 . S
O1009 C1008 1.227 . S
N1010 Co996 2.140 . S
N1010 C1013 1.346 1_554 S
N1010 C1014 1.345 . S
C1011 C1012 1.387 1_554 S
C1011 C1015 1.391 . S
C1012 C1011 1.387 1_556 S
C1012 C1013 1.369 . S
C1012 H1021 0.929 . S
C1013 N1010 1.346 1_556 S
C1013 C1012 1.369 . S
C1013 H1016 0.928 . S
C1014 N1010 1.345 . S
C1014 C1015 1.371 . S
C1014 H1017 0.931 . S
C1015 C1011 1.391 . S
C1015 C1014 1.371 . S
C1015 H1022 0.930 . S
H1016 C1013 0.928 . S
H1017 C1014 0.931 . S
H1018 C994 0.930 . S
H1019 C991 0.930 . S
H1020 C1000 0.930 . S
H1021 C1012 0.929 . S
H1022 C1015 0.930 . S
C1023 C1024 1.351 . S
C1023 N1026 1.368 . S
C1023 H1028 0.931 . S
C1024 C1023 1.351 . S
C1024 N1025 1.373 . S
C1024 H1052 0.930 . S
N1025 C1024 1.373 . S
N1025 C1027 1.340 . S
N1026 C1023 1.368 . S
N1026 C1027 1.321 . S
N1026 Co1029 2.135 . S
C1027 N1025 1.340 . S
C1027 N1026 1.321 . S
C1027 H1051 0.930 . S
H1028 C1023 0.931 . S
Co1029 N1026 2.135 . S
Co1029 N1032 2.121 . S
Co1029 O1037 2.055 . S
Co1029 O1040 2.039 . S
Co1029 N1043 2.140 . S
C1030 O1031 1.227 . S
C1030 O1040 1.265 . S
O1031 C1030 1.227 . S
N1032 Co1029 2.121 . S
N1032 C1034 1.375 . S
N1032 C1035 1.313 1_556 S
C1033 C1034 1.338 1_554 S
C1033 N1036 1.377 . S
C1033 H1053 0.930 . S
C1034 N1032 1.375 . S
C1034 C1033 1.338 1_556 S
C1034 H1038 0.931 . S
C1035 N1032 1.313 1_554 S
C1035 N1036 1.344 . S
C1035 H1039 0.930 . S
N1036 C1033 1.377 . S
N1036 C1035 1.344 . S
O1037 Co1029 2.055 . S
O1037 C1041 1.253 . S
H1038 C1034 0.931 . S
H1039 C1035 0.930 . S
O1040 Co1029 2.039 . S
O1040 C1030 1.265 . S
C1041 O1037 1.253 . S
C1041 O1042 1.227 . S
O1042 C1041 1.227 . S
N1043 Co1029 2.140 . S
N1043 C1046 1.346 . S
N1043 C1047 1.345 . S
C1044 C1045 1.387 . S
C1044 C1048 1.391 . S
C1045 C1044 1.387 . S
C1045 C1046 1.369 . S
C1045 H1054 0.929 . S
C1046 N1043 1.346 . S
C1046 C1045 1.369 . S
C1046 H1049 0.928 . S
C1047 N1043 1.345 . S
C1047 C1048 1.371 . S
C1047 H1050 0.931 . S
C1048 C1044 1.391 . S
C1048 C1047 1.371 . S
C1048 H1055 0.930 . S
H1049 C1046 0.928 . S
H1050 C1047 0.931 . S
H1051 C1027 0.930 . S
H1052 C1024 0.930 . S
H1053 C1033 0.930 . S
H1054 C1045 0.929 . S
H1055 C1048 0.930 . S
C1056 C1057 1.387 . S
C1056 H1060 0.950 . S
C1056 C1065 1.390 . S
C1057 C1056 1.387 . S
C1057 C1059 1.387 . S
H1058 C1065 0.950 . S
C1059 C1057 1.387 . S
C1059 C1061 1.390 . S
C1059 H1063 0.950 . S
H1060 C1056 0.950 . S
C1061 C1059 1.390 . S
C1061 C1062 1.387 . S
C1061 H1064 0.950 . S
C1062 C1061 1.387 . S
C1062 C1065 1.387 . S
H1063 C1059 0.950 . S
H1064 C1061 0.950 . S
C1065 C1056 1.390 . S
C1065 H1058 0.950 . S
C1065 C1062 1.387 . S
C1066 C1067 1.387 . S
C1066 H1070 0.950 . S
C1066 C1075 1.390 . S
C1067 C1066 1.387 . S
C1067 C1069 1.387 . S
H1068 C1075 0.950 . S
C1069 C1067 1.387 . S
C1069 C1071 1.390 . S
C1069 H1073 0.950 . S
H1070 C1066 0.950 . S
C1071 C1069 1.390 . S
C1071 C1072 1.387 . S
C1071 H1074 0.950 . S
C1072 C1071 1.387 . S
C1072 C1075 1.387 . S
H1073 C1069 0.950 . S
H1074 C1071 0.950 . S
C1075 C1066 1.390 . S
C1075 H1068 0.950 . S
C1075 C1072 1.387 . S
C1076 C1077 1.387 1_554 S
C1076 H1080 0.950 1_554 S
C1076 C1085 1.390 . S
C1077 C1076 1.387 1_556 S
C1077 C1079 1.387 1_556 S
H1078 C1085 0.950 . S
C1079 C1077 1.387 1_554 S
C1079 C1081 1.390 . S
C1079 H1083 0.950 1_554 S
H1080 C1076 0.950 1_556 S
C1081 C1079 1.390 . S
C1081 C1082 1.387 . S
C1081 H1084 0.950 . S
C1082 C1081 1.387 . S
C1082 C1085 1.387 . S
H1083 C1079 0.950 1_556 S
H1084 C1081 0.950 . S
C1085 C1076 1.390 . S
C1085 H1078 0.950 . S
C1085 C1082 1.387 . S
C1086 C1087 1.387 . S
C1086 H1090 0.950 . S
C1086 C1095 1.390 . S
C1087 C1086 1.387 . S
C1087 C1089 1.387 . S
H1088 C1095 0.950 . S
C1089 C1087 1.387 . S
C1089 C1091 1.390 . S
C1089 H1093 0.950 . S
H1090 C1086 0.950 . S
C1091 C1089 1.390 . S
C1091 C1092 1.387 . S
C1091 H1094 0.950 . S
C1092 C1091 1.387 . S
C1092 C1095 1.387 . S
H1093 C1089 0.950 . S
H1094 C1091 0.950 . S
C1095 C1086 1.390 . S
C1095 H1088 0.950 . S
C1095 C1092 1.387 . S
C1096 C1097 1.387 . S
C1096 H1100 0.950 . S
C1096 C1105 1.390 . S
C1097 C1096 1.387 . S
C1097 C1099 1.387 . S
H1098 C1105 0.950 . S
C1099 C1097 1.387 . S
C1099 C1101 1.390 . S
C1099 H1103 0.950 . S
H1100 C1096 0.950 . S
C1101 C1099 1.390 . S
C1101 C1102 1.387 . S
C1101 H1104 0.950 . S
C1102 C1101 1.387 . S
C1102 C1105 1.387 . S
H1103 C1099 0.950 . S
H1104 C1101 0.950 . S
C1105 C1096 1.390 . S
C1105 H1098 0.950 . S
C1105 C1102 1.387 . S
C1106 C1107 1.387 . S
C1106 H1110 0.950 . S
C1106 C1115 1.390 . S
C1107 C1106 1.387 . S
C1107 C1109 1.387 . S
H1108 C1115 0.950 . S
C1109 C1107 1.387 . S
C1109 C1111 1.390 . S
C1109 H1113 0.950 . S
H1110 C1106 0.950 . S
C1111 C1109 1.390 . S
C1111 C1112 1.387 . S
C1111 H1114 0.950 . S
C1112 C1111 1.387 . S
C1112 C1115 1.387 . S
H1113 C1109 0.950 . S
H1114 C1111 0.950 . S
C1115 C1106 1.390 . S
C1115 H1108 0.950 . S
C1115 C1112 1.387 . S
C1116 C1117 1.387 . S
C1116 H1120 0.950 . S
C1116 C1125 1.390 . S
C1117 C1116 1.387 . S
C1117 C1119 1.387 . S
H1118 C1125 0.950 1_554 S
C1119 C1117 1.387 . S
C1119 C1121 1.390 . S
C1119 H1123 0.950 . S
H1120 C1116 0.950 . S
C1121 C1119 1.390 . S
C1121 C1122 1.387 1_556 S
C1121 H1124 0.950 1_556 S
C1122 C1121 1.387 1_554 S
C1122 C1125 1.387 1_554 S
H1123 C1119 0.950 . S
H1124 C1121 0.950 1_554 S
C1125 C1116 1.390 . S
C1125 H1118 0.950 1_556 S
C1125 C1122 1.387 1_556 S
C1126 C1127 1.387 . S
C1126 H1130 0.950 . S
C1126 C1135 1.390 . S
C1127 C1126 1.387 . S
C1127 C1129 1.387 . S
H1128 C1135 0.950 . S
C1129 C1127 1.387 . S
C1129 C1131 1.390 . S
C1129 H1133 0.950 . S
H1130 C1126 0.950 . S
C1131 C1129 1.390 . S
C1131 C1132 1.387 . S
C1131 H1134 0.950 . S
C1132 C1131 1.387 . S
C1132 C1135 1.387 . S
H1133 C1129 0.950 . S
H1134 C1131 0.950 . S
C1135 C1126 1.390 . S
C1135 H1128 0.950 . S
C1135 C1132 1.387 . S
C1136 C1137 1.387 . S
C1136 H1140 0.950 . S
C1136 C1145 1.390 . S
C1137 C1136 1.387 . S
C1137 C1139 1.387 . S
H1138 C1145 0.950 . S
C1139 C1137 1.387 . S
C1139 C1141 1.390 . S
C1139 H1143 0.950 . S
H1140 C1136 0.950 . S
C1141 C1139 1.390 . S
C1141 C1142 1.387 . S
C1141 H1144 0.950 . S
C1142 C1141 1.387 . S
C1142 C1145 1.387 . S
H1143 C1139 0.950 . S
H1144 C1141 0.950 . S
C1145 C1136 1.390 . S
C1145 H1138 0.950 . S
C1145 C1142 1.387 . S
C1146 C1147 1.387 . S
C1146 H1150 0.950 . S
C1146 C1155 1.390 . S
C1147 C1146 1.387 . S
C1147 C1149 1.387 . S
H1148 C1155 0.950 . S
C1149 C1147 1.387 . S
C1149 C1151 1.390 . S
C1149 H1153 0.950 . S
H1150 C1146 0.950 . S
C1151 C1149 1.390 . S
C1151 C1152 1.387 . S
C1151 H1154 0.950 . S
C1152 C1151 1.387 . S
C1152 C1155 1.387 . S
H1153 C1149 0.950 . S
H1154 C1151 0.950 . S
C1155 C1146 1.390 . S
C1155 H1148 0.950 . S
C1155 C1152 1.387 . S
C1156 C1157 1.387 . S
C1156 H1160 0.950 . S
C1156 C1165 1.390 . S
C1157 C1156 1.387 . S
C1157 C1159 1.387 . S
H1158 C1165 0.950 1_554 S
C1159 C1157 1.387 . S
C1159 C1161 1.390 . S
C1159 H1163 0.950 . S
H1160 C1156 0.950 . S
C1161 C1159 1.390 . S
C1161 C1162 1.387 1_556 S
C1161 H1164 0.950 1_556 S
C1162 C1161 1.387 1_554 S
C1162 C1165 1.387 1_554 S
H1163 C1159 0.950 . S
H1164 C1161 0.950 1_554 S
C1165 C1156 1.390 . S
C1165 H1158 0.950 1_556 S
C1165 C1162 1.387 1_556 S
C1166 C1167 1.387 . S
C1166 H1170 0.950 . S
C1166 C1175 1.390 . S
C1167 C1166 1.387 . S
C1167 C1169 1.387 . S
H1168 C1175 0.950 . S
C1169 C1167 1.387 . S
C1169 C1171 1.390 . S
C1169 H1173 0.950 . S
H1170 C1166 0.950 . S
C1171 C1169 1.390 . S
C1171 C1172 1.387 . S
C1171 H1174 0.950 . S
C1172 C1171 1.387 . S
C1172 C1175 1.387 . S
H1173 C1169 0.950 . S
H1174 C1171 0.950 . S
C1175 C1166 1.390 . S
C1175 H1168 0.950 . S
C1175 C1172 1.387 . S
C1176 C1177 1.387 . S
C1176 H1180 0.950 . S
C1176 C1185 1.390 . S
C1177 C1176 1.387 . S
C1177 C1179 1.387 . S
H1178 C1185 0.950 . S
C1179 C1177 1.387 . S
C1179 C1181 1.390 . S
C1179 H1183 0.950 . S
H1180 C1176 0.950 . S
C1181 C1179 1.390 . S
C1181 C1182 1.387 . S
C1181 H1184 0.950 . S
C1182 C1181 1.387 . S
C1182 C1185 1.387 . S
H1183 C1179 0.950 . S
H1184 C1181 0.950 . S
C1185 C1176 1.390 . S
C1185 H1178 0.950 . S
C1185 C1182 1.387 . S
C1186 C1187 1.387 . S
C1186 H1190 0.950 . S
C1186 C1195 1.390 . S
C1187 C1186 1.387 . S
C1187 C1189 1.387 . S
H1188 C1195 0.950 . S
C1189 C1187 1.387 . S
C1189 C1191 1.390 . S
C1189 H1193 0.950 . S
H1190 C1186 0.950 . S
C1191 C1189 1.390 . S
C1191 C1192 1.387 . S
C1191 H1194 0.950 . S
C1192 C1191 1.387 . S
C1192 C1195 1.387 . S
H1193 C1189 0.950 . S
H1194 C1191 0.950 . S
C1195 C1186 1.390 . S
C1195 H1188 0.950 . S
C1195 C1192 1.387 . S
C1196 C1197 1.387 1_554 S
C1196 H1200 0.950 1_554 S
C1196 C1205 1.390 . S
C1197 C1196 1.387 1_556 S
C1197 C1199 1.385 1_556 S
H1198 C1205 0.950 . S
C1199 C1197 1.385 1_554 S
C1199 C1201 1.396 . S
C1199 H1203 0.946 1_554 S
H1200 C1196 0.950 1_556 S
C1201 C1199 1.396 . S
C1201 C1202 1.387 . S
C1201 H1204 0.950 . S
C1202 C1201 1.387 . S
C1202 C1205 1.387 . S
H1203 C1199 0.946 1_556 S
H1204 C1201 0.950 . S
C1205 C1196 1.390 . S
C1205 H1198 0.950 . S
C1205 C1202 1.387 . S
C1206 C1207 1.387 . S
C1206 H1210 0.950 . S
C1206 C1215 1.390 . S
C1207 C1206 1.387 . S
C1207 C1209 1.387 . S
H1208 C1215 0.950 . S
C1209 C1207 1.387 . S
C1209 C1211 1.390 . S
C1209 H1213 0.950 . S
H1210 C1206 0.950 . S
C1211 C1209 1.390 . S
C1211 C1212 1.387 . S
C1211 H1214 0.950 . S
C1212 C1211 1.387 . S
C1212 C1215 1.387 . S
H1213 C1209 0.950 . S
H1214 C1211 0.950 . S
C1215 C1206 1.390 . S
C1215 H1208 0.950 . S
C1215 C1212 1.387 . S
C1216 C1217 1.387 1_554 S
C1216 H1220 0.950 1_554 S
C1216 C1225 1.390 . S
C1217 C1216 1.387 1_556 S
C1217 C1219 1.387 1_556 S
H1218 C1225 0.950 . S
C1219 C1217 1.387 1_554 S
C1219 C1221 1.390 . S
C1219 H1223 0.950 1_554 S
H1220 C1216 0.950 1_556 S
C1221 C1219 1.390 . S
C1221 C1222 1.387 . S
C1221 H1224 0.950 . S
C1222 C1221 1.387 . S
C1222 C1225 1.387 . S
H1223 C1219 0.950 1_556 S
H1224 C1221 0.950 . S
C1225 C1216 1.390 . S
C1225 H1218 0.950 . S
C1225 C1222 1.387 . S
C1226 C1227 1.387 . S
C1226 H1230 0.950 . S
C1226 C1235 1.390 . S
C1227 C1226 1.387 . S
C1227 C1229 1.387 . S
H1228 C1235 0.950 . S
C1229 C1227 1.387 . S
C1229 C1231 1.390 . S
C1229 H1233 0.950 . S
H1230 C1226 0.950 . S
C1231 C1229 1.390 . S
C1231 C1232 1.387 . S
C1231 H1234 0.950 . S
C1232 C1231 1.387 . S
C1232 C1235 1.387 . S
H1233 C1229 0.950 . S
H1234 C1231 0.950 . S
C1235 C1226 1.390 . S
C1235 H1228 0.950 . S
C1235 C1232 1.387 . S
C1236 C1237 1.387 . S
C1236 H1240 0.950 . S
C1236 C1245 1.390 . S
C1237 C1236 1.387 . S
C1237 C1239 1.387 . S
H1238 C1245 0.950 . S
C1239 C1237 1.387 . S
C1239 C1241 1.390 . S
C1239 H1243 0.950 . S
H1240 C1236 0.950 . S
C1241 C1239 1.390 . S
C1241 C1242 1.387 . S
C1241 H1244 0.950 . S
C1242 C1241 1.387 . S
C1242 C1245 1.387 . S
H1243 C1239 0.950 . S
H1244 C1241 0.950 . S
C1245 C1236 1.390 . S
C1245 H1238 0.950 . S
C1245 C1242 1.387 . S
C1246 C1247 1.387 . S
C1246 H1250 0.950 . S
C1246 C1255 1.390 . S
C1247 C1246 1.387 . S
C1247 C1249 1.387 . S
H1248 C1255 0.950 . S
C1249 C1247 1.387 . S
C1249 C1251 1.390 . S
C1249 H1253 0.950 . S
H1250 C1246 0.950 . S
C1251 C1249 1.390 . S
C1251 C1252 1.387 . S
C1251 H1254 0.950 . S
C1252 C1251 1.387 . S
C1252 C1255 1.387 . S
H1253 C1249 0.950 . S
H1254 C1251 0.950 . S
C1255 C1246 1.390 . S
C1255 H1248 0.950 . S
C1255 C1252 1.387 . S
C1256 C1257 1.387 1_556 S
C1256 H1260 0.950 1_556 S
C1256 C1265 1.390 . S
C1257 C1256 1.387 1_554 S
C1257 C1259 1.387 1_554 S
H1258 C1265 0.950 . S
C1259 C1257 1.387 1_556 S
C1259 C1261 1.390 . S
C1259 H1263 0.950 1_556 S
H1260 C1256 0.950 1_554 S
C1261 C1259 1.390 . S
C1261 C1262 1.387 . S
C1261 H1264 0.950 . S
C1262 C1261 1.387 . S
C1262 C1265 1.387 . S
H1263 C1259 0.950 1_554 S
H1264 C1261 0.950 . S
C1265 C1256 1.390 . S
C1265 H1258 0.950 . S
C1265 C1262 1.387 . S
C1266 C1267 1.387 . S
C1266 H1270 0.950 . S
C1266 C1275 1.390 . S
C1267 C1266 1.387 . S
C1267 C1269 1.387 . S
H1268 C1275 0.950 . S
C1269 C1267 1.387 . S
C1269 C1271 1.390 . S
C1269 H1273 0.950 . S
H1270 C1266 0.950 . S
C1271 C1269 1.390 . S
C1271 C1272 1.387 . S
C1271 H1274 0.950 . S
C1272 C1271 1.387 . S
C1272 C1275 1.387 . S
H1273 C1269 0.950 . S
H1274 C1271 0.950 . S
C1275 C1266 1.390 . S
C1275 H1268 0.950 . S
C1275 C1272 1.387 . S
C1276 C1277 1.387 . S
C1276 H1280 0.950 . S
C1276 C1285 1.390 . S
C1277 C1276 1.387 . S
C1277 C1279 1.387 . S
H1278 C1285 0.950 . S
C1279 C1277 1.387 . S
C1279 C1281 1.390 . S
C1279 H1283 0.950 . S
H1280 C1276 0.950 . S
C1281 C1279 1.390 . S
C1281 C1282 1.387 . S
C1281 H1284 0.950 . S
C1282 C1281 1.387 . S
C1282 C1285 1.387 . S
H1283 C1279 0.950 . S
H1284 C1281 0.950 . S
C1285 C1276 1.390 . S
C1285 H1278 0.950 . S
C1285 C1282 1.387 . S
C1286 C1287 1.387 . S
C1286 H1290 0.950 . S
C1286 C1295 1.390 . S
C1287 C1286 1.387 . S
C1287 C1289 1.387 . S
H1288 C1295 0.950 . S
C1289 C1287 1.387 . S
C1289 C1291 1.390 . S
C1289 H1293 0.950 . S
H1290 C1286 0.950 . S
C1291 C1289 1.390 . S
C1291 C1292 1.387 . S
C1291 H1294 0.950 . S
C1292 C1291 1.387 . S
C1292 C1295 1.387 . S
H1293 C1289 0.950 . S
H1294 C1291 0.950 . S
C1295 C1286 1.390 . S
C1295 H1288 0.950 . S
C1295 C1292 1.387 . S
C1296 C1297 1.387 1_556 S
C1296 H1300 0.950 1_556 S
C1296 C1305 1.390 . S
C1297 C1296 1.387 1_554 S
C1297 C1299 1.387 1_554 S
H1298 C1305 0.950 . S
C1299 C1297 1.387 1_556 S
C1299 C1301 1.390 . S
C1299 H1303 0.950 1_556 S
H1300 C1296 0.950 1_554 S
C1301 C1299 1.390 . S
C1301 C1302 1.387 . S
C1301 H1304 0.950 . S
C1302 C1301 1.387 . S
C1302 C1305 1.387 . S
H1303 C1299 0.950 1_554 S
H1304 C1301 0.950 . S
C1305 C1296 1.390 . S
C1305 H1298 0.950 . S
C1305 C1302 1.387 . S
C1306 C1307 1.387 . S
C1306 H1310 0.950 . S
C1306 C1315 1.390 . S
C1307 C1306 1.387 . S
C1307 C1309 1.387 . S
H1308 C1315 0.950 . S
C1309 C1307 1.387 . S
C1309 C1311 1.390 . S
C1309 H1313 0.950 . S
H1310 C1306 0.950 . S
C1311 C1309 1.390 . S
C1311 C1312 1.387 . S
C1311 H1314 0.950 . S
C1312 C1311 1.387 . S
C1312 C1315 1.387 . S
H1313 C1309 0.950 . S
H1314 C1311 0.950 . S
C1315 C1306 1.390 . S
C1315 H1308 0.950 . S
C1315 C1312 1.387 . S
C1316 C1317 1.387 . S
C1316 H1320 0.950 . S
C1316 C1325 1.390 . S
C1317 C1316 1.387 . S
C1317 C1319 1.387 . S
H1318 C1325 0.950 . S
C1319 C1317 1.387 . S
C1319 C1321 1.390 . S
C1319 H1323 0.950 . S
H1320 C1316 0.950 . S
C1321 C1319 1.390 . S
C1321 C1322 1.387 . S
C1321 H1324 0.950 . S
C1322 C1321 1.387 . S
C1322 C1325 1.387 . S
H1323 C1319 0.950 . S
H1324 C1321 0.950 . S
C1325 C1316 1.390 . S
C1325 H1318 0.950 . S
C1325 C1322 1.387 . S
C1326 C1327 1.387 . S
C1326 H1330 0.950 . S
C1326 C1335 1.390 . S
C1327 C1326 1.387 . S
C1327 C1329 1.387 . S
H1328 C1335 0.950 . S
C1329 C1327 1.387 . S
C1329 C1331 1.390 . S
C1329 H1333 0.950 . S
H1330 C1326 0.950 . S
C1331 C1329 1.390 . S
C1331 C1332 1.387 . S
C1331 H1334 0.950 . S
C1332 C1331 1.387 . S
C1332 C1335 1.387 . S
H1333 C1329 0.950 . S
H1334 C1331 0.950 . S
C1335 C1326 1.390 . S
C1335 H1328 0.950 . S
C1335 C1332 1.387 . S
C1336 C1337 1.387 . S
C1336 H1340 0.950 . S
C1336 C1345 1.390 . S
C1337 C1336 1.387 . S
C1337 C1339 1.387 . S
H1338 C1345 0.950 1_556 S
C1339 C1337 1.387 . S
C1339 C1341 1.390 . S
C1339 H1343 0.950 . S
H1340 C1336 0.950 . S
C1341 C1339 1.390 . S
C1341 C1342 1.387 1_554 S
C1341 H1344 0.950 1_554 S
C1342 C1341 1.387 1_556 S
C1342 C1345 1.387 1_556 S
H1343 C1339 0.950 . S
H1344 C1341 0.950 1_556 S
C1345 C1336 1.390 . S
C1345 H1338 0.950 1_554 S
C1345 C1342 1.387 1_554 S
C1346 C1347 1.387 . S
C1346 H1350 0.950 . S
C1346 C1355 1.390 . S
C1347 C1346 1.387 . S
C1347 C1349 1.387 . S
H1348 C1355 0.950 . S
C1349 C1347 1.387 . S
C1349 C1351 1.390 . S
C1349 H1353 0.950 . S
H1350 C1346 0.950 . S
C1351 C1349 1.390 . S
C1351 C1352 1.387 . S
C1351 H1354 0.950 . S
C1352 C1351 1.387 . S
C1352 C1355 1.387 . S
H1353 C1349 0.950 . S
H1354 C1351 0.950 . S
C1355 C1346 1.390 . S
C1355 H1348 0.950 . S
C1355 C1352 1.387 . S
C1356 C1357 1.387 . S
C1356 H1360 0.950 . S
C1356 C1365 1.390 . S
C1357 C1356 1.387 . S
C1357 C1359 1.387 . S
H1358 C1365 0.950 . S
C1359 C1357 1.387 . S
C1359 C1361 1.390 . S
C1359 H1363 0.950 . S
H1360 C1356 0.950 . S
C1361 C1359 1.390 . S
C1361 C1362 1.387 . S
C1361 H1364 0.950 . S
C1362 C1361 1.387 . S
C1362 C1365 1.387 . S
H1363 C1359 0.950 . S
H1364 C1361 0.950 . S
C1365 C1356 1.390 . S
C1365 H1358 0.950 . S
C1365 C1362 1.387 . S
C1366 C1367 1.387 . S
C1366 H1370 0.950 . S
C1366 C1375 1.390 . S
C1367 C1366 1.387 . S
C1367 C1369 1.387 . S
H1368 C1375 0.950 . S
C1369 C1367 1.387 . S
C1369 C1371 1.390 . S
C1369 H1373 0.950 . S
H1370 C1366 0.950 . S
C1371 C1369 1.390 . S
C1371 C1372 1.387 . S
C1371 H1374 0.950 . S
C1372 C1371 1.387 . S
C1372 C1375 1.387 . S
H1373 C1369 0.950 . S
H1374 C1371 0.950 . S
C1375 C1366 1.390 . S
C1375 H1368 0.950 . S
C1375 C1372 1.387 . S
C1376 C1377 1.387 . S
C1376 H1380 0.950 . S
C1376 C1385 1.390 . S
C1377 C1376 1.387 . S
C1377 C1379 1.387 . S
H1378 C1385 0.950 . S
C1379 C1377 1.387 . S
C1379 C1381 1.390 . S
C1379 H1383 0.950 . S
H1380 C1376 0.950 . S
C1381 C1379 1.390 . S
C1381 C1382 1.387 . S
C1381 H1384 0.950 1_554 S
C1382 C1381 1.387 . S
C1382 C1385 1.387 . S
H1383 C1379 0.950 . S
H1384 C1381 0.950 1_556 S
C1385 C1376 1.390 . S
C1385 H1378 0.950 . S
C1385 C1382 1.387 . S
C1386 C1387 1.387 . S
C1386 H1390 0.950 . S
C1386 C1395 1.390 . S
C1387 C1386 1.387 . S
C1387 C1389 1.387 . S
H1388 C1395 0.950 . S
C1389 C1387 1.387 . S
C1389 C1391 1.390 . S
C1389 H1393 0.950 . S
H1390 C1386 0.950 . S
C1391 C1389 1.390 . S
C1391 C1392 1.387 . S
C1391 H1394 0.950 . S
C1392 C1391 1.387 . S
C1392 C1395 1.387 . S
H1393 C1389 0.950 . S
H1394 C1391 0.950 . S
C1395 C1386 1.390 . S
C1395 H1388 0.950 . S
C1395 C1392 1.387 . S
C1396 C1397 1.387 . S
C1396 H1400 0.950 . S
C1396 C1405 1.390 . S
C1397 C1396 1.387 . S
C1397 C1399 1.387 . S
H1398 C1405 0.950 . S
C1399 C1397 1.387 . S
C1399 C1401 1.390 . S
C1399 H1403 0.950 . S
H1400 C1396 0.950 . S
C1401 C1399 1.390 . S
C1401 C1402 1.387 . S
C1401 H1404 0.950 . S
C1402 C1401 1.387 . S
C1402 C1405 1.387 . S
H1403 C1399 0.950 . S
H1404 C1401 0.950 . S
C1405 C1396 1.390 . S
C1405 H1398 0.950 . S
C1405 C1402 1.387 . S
C1406 C1407 1.387 . S
C1406 H1410 0.950 1_556 S
C1406 C1415 1.390 . S
C1407 C1406 1.387 . S
C1407 C1409 1.387 . S
H1408 C1415 0.950 . S
C1409 C1407 1.387 . S
C1409 C1411 1.390 . S
C1409 H1413 0.950 . S
H1410 C1406 0.950 1_554 S
C1411 C1409 1.390 . S
C1411 C1412 1.387 . S
C1411 H1414 0.950 . S
C1412 C1411 1.387 . S
C1412 C1415 1.387 . S
H1413 C1409 0.950 . S
H1414 C1411 0.950 . S
C1415 C1406 1.390 . S
C1415 H1408 0.950 . S
C1415 C1412 1.387 . S
C1416 C1417 1.387 . S
C1416 H1420 0.950 . S
C1416 C1425 1.390 . S
C1417 C1416 1.387 . S
C1417 C1419 1.387 . S
H1418 C1425 0.950 1_554 S
C1419 C1417 1.387 . S
C1419 C1421 1.390 . S
C1419 H1423 0.950 . S
H1420 C1416 0.950 . S
C1421 C1419 1.390 . S
C1421 C1422 1.387 . S
C1421 H1424 0.950 . S
C1422 C1421 1.387 . S
C1422 C1425 1.387 . S
H1423 C1419 0.950 . S
H1424 C1421 0.950 . S
C1425 C1416 1.390 . S
C1425 H1418 0.950 1_556 S
C1425 C1422 1.387 . S
C1426 C1427 1.387 . S
C1426 H1430 0.950 1_554 S
C1426 C1435 1.390 . S
C1427 C1426 1.387 . S
C1427 C1429 1.387 . S
H1428 C1435 0.950 . S
C1429 C1427 1.387 . S
C1429 C1431 1.390 . S
C1429 H1433 0.950 . S
H1430 C1426 0.950 1_556 S
C1431 C1429 1.390 . S
C1431 C1432 1.387 . S
C1431 H1434 0.950 . S
C1432 C1431 1.387 . S
C1432 C1435 1.387 . S
H1433 C1429 0.950 . S
H1434 C1431 0.950 . S
C1435 C1426 1.390 . S
C1435 H1428 0.950 . S
C1435 C1432 1.387 . S
C1436 C1437 1.387 . S
C1436 H1440 0.950 . S
C1436 C1445 1.390 . S
C1437 C1436 1.387 . S
C1437 C1439 1.387 . S
H1438 C1445 0.950 . S
C1439 C1437 1.387 . S
C1439 C1441 1.390 . S
C1439 H1443 0.950 . S
H1440 C1436 0.950 . S
C1441 C1439 1.390 . S
C1441 C1442 1.387 . S
C1441 H1444 0.950 . S
C1442 C1441 1.387 . S
C1442 C1445 1.387 . S
H1443 C1439 0.950 . S
H1444 C1441 0.950 . S
C1445 C1436 1.390 . S
C1445 H1438 0.950 . S
C1445 C1442 1.387 . S
C1446 C1447 1.387 . S
C1446 H1450 0.950 . S
C1446 C1455 1.390 . S
C1447 C1446 1.387 . S
C1447 C1449 1.387 . S
H1448 C1455 0.950 . S
C1449 C1447 1.387 . S
C1449 C1451 1.390 . S
C1449 H1453 0.950 . S
H1450 C1446 0.950 . S
C1451 C1449 1.390 . S
C1451 C1452 1.387 . S
C1451 H1454 0.950 . S
C1452 C1451 1.387 . S
C1452 C1455 1.387 . S
H1453 C1449 0.950 . S
H1454 C1451 0.950 . S
C1455 C1446 1.390 . S
C1455 H1448 0.950 . S
C1455 C1452 1.387 . S
C1456 C1457 1.387 . S
C1456 H1460 0.950 . S
C1456 C1465 1.390 . S
C1457 C1456 1.387 . S
C1457 C1459 1.387 . S
H1458 C1465 0.950 . S
C1459 C1457 1.387 . S
C1459 C1461 1.390 . S
C1459 H1463 0.950 . S
H1460 C1456 0.950 . S
C1461 C1459 1.390 . S
C1461 C1462 1.387 . S
C1461 H1464 0.950 1_556 S
C1462 C1461 1.387 . S
C1462 C1465 1.387 . S
H1463 C1459 0.950 . S
H1464 C1461 0.950 1_554 S
C1465 C1456 1.390 . S
C1465 H1458 0.950 . S
C1465 C1462 1.387 . S
C1466 C1467 1.387 . S
C1466 H1470 0.950 . S
C1466 C1475 1.390 . S
C1467 C1466 1.387 . S
C1467 C1469 1.387 . S
H1468 C1475 0.950 . S
C1469 C1467 1.387 . S
C1469 C1471 1.390 . S
C1469 H1473 0.950 . S
H1470 C1466 0.950 . S
C1471 C1469 1.390 . S
C1471 C1472 1.387 . S
C1471 H1474 0.950 . S
C1472 C1471 1.387 . S
C1472 C1475 1.387 . S
H1473 C1469 0.950 . S
H1474 C1471 0.950 . S
C1475 C1466 1.390 . S
C1475 H1468 0.950 . S
C1475 C1472 1.387 . S
C1476 C1477 1.387 . S
C1476 H1480 0.950 . S
C1476 C1485 1.390 . S
C1477 C1476 1.387 . S
C1477 C1479 1.387 . S
H1478 C1485 0.950 . S
C1479 C1477 1.387 . S
C1479 C1481 1.390 . S
C1479 H1483 0.950 . S
H1480 C1476 0.950 . S
C1481 C1479 1.390 . S
C1481 C1482 1.387 . S
C1481 H1484 0.950 . S
C1482 C1481 1.387 . S
C1482 C1485 1.387 . S
H1483 C1479 0.950 . S
H1484 C1481 0.950 . S
C1485 C1476 1.390 . S
C1485 H1478 0.950 . S
C1485 C1482 1.387 . S
C1486 C1487 1.387 . S
C1486 H1490 0.950 . S
C1486 C1495 1.390 . S
C1487 C1486 1.387 . S
C1487 C1489 1.387 . S
H1488 C1495 0.950 . S
C1489 C1487 1.387 . S
C1489 C1491 1.390 . S
C1489 H1493 0.950 . S
H1490 C1486 0.950 . S
C1491 C1489 1.390 . S
C1491 C1492 1.387 . S
C1491 H1494 0.950 1_554 S
C1492 C1491 1.387 . S
C1492 C1495 1.387 . S
H1493 C1489 0.950 . S
H1494 C1491 0.950 1_556 S
C1495 C1486 1.390 . S
C1495 H1488 0.950 . S
C1495 C1492 1.387 . S
C1496 C1497 1.387 . S
C1496 H1500 0.950 1_554 S
C1496 C1505 1.390 . S
C1497 C1496 1.387 . S
C1497 C1499 1.387 . S
H1498 C1505 0.950 . S
C1499 C1497 1.387 . S
C1499 C1501 1.390 . S
C1499 H1503 0.950 . S
H1500 C1496 0.950 1_556 S
C1501 C1499 1.390 . S
C1501 C1502 1.387 . S
C1501 H1504 0.950 . S
C1502 C1501 1.387 . S
C1502 C1505 1.387 . S
H1503 C1499 0.950 . S
H1504 C1501 0.950 . S
C1505 C1496 1.390 . S
C1505 H1498 0.950 . S
C1505 C1502 1.387 . S
C1506 C1507 1.387 . S
C1506 H1510 0.950 . S
C1506 C1515 1.390 . S
C1507 C1506 1.387 . S
C1507 C1509 1.387 . S
H1508 C1515 0.950 1_554 S
C1509 C1507 1.387 . S
C1509 C1511 1.390 . S
C1509 H1513 0.950 . S
H1510 C1506 0.950 . S
C1511 C1509 1.390 . S
C1511 C1512 1.387 . S
C1511 H1514 0.950 . S
C1512 C1511 1.387 . S
C1512 C1515 1.387 . S
H1513 C1509 0.950 . S
H1514 C1511 0.950 . S
C1515 C1506 1.390 . S
C1515 H1508 0.950 1_556 S
C1515 C1512 1.387 . S
C1516 C1517 1.387 . S
C1516 H1520 0.950 . S
C1516 C1525 1.390 . S
C1517 C1516 1.387 . S
C1517 C1519 1.387 . S
H1518 C1525 0.950 . S
C1519 C1517 1.387 . S
C1519 C1521 1.390 . S
C1519 H1523 0.950 . S
H1520 C1516 0.950 . S
C1521 C1519 1.390 . S
C1521 C1522 1.387 . S
C1521 H1524 0.950 . S
C1522 C1521 1.387 . S
C1522 C1525 1.387 . S
H1523 C1519 0.950 . S
H1524 C1521 0.950 . S
C1525 C1516 1.390 . S
C1525 H1518 0.950 . S
C1525 C1522 1.387 . S
C1526 C1527 1.387 . S
C1526 H1530 0.950 . S
C1526 C1535 1.390 . S
C1527 C1526 1.387 . S
C1527 C1529 1.387 . S
H1528 C1535 0.950 . S
C1529 C1527 1.387 . S
C1529 C1531 1.390 . S
C1529 H1533 0.950 . S
H1530 C1526 0.950 . S
C1531 C1529 1.390 . S
C1531 C1532 1.387 . S
C1531 H1534 0.950 . S
C1532 C1531 1.387 . S
C1532 C1535 1.387 . S
H1533 C1529 0.950 . S
H1534 C1531 0.950 . S
C1535 C1526 1.390 . S
C1535 H1528 0.950 . S
C1535 C1532 1.387 . S
C1536 C1537 1.387 . S
C1536 H1540 0.950 . S
C1536 C1545 1.390 1_556 S
C1537 C1536 1.387 . S
C1537 C1539 1.387 . S
H1538 C1545 0.950 . S
C1539 C1537 1.387 . S
C1539 C1541 1.390 1_556 S
C1539 H1543 0.950 . S
H1540 C1536 0.950 . S
C1541 C1539 1.390 1_554 S
C1541 C1542 1.387 . S
C1541 H1544 0.950 . S
C1542 C1541 1.387 . S
C1542 C1545 1.387 . S
H1543 C1539 0.950 . S
H1544 C1541 0.950 . S
C1545 C1536 1.390 1_554 S
C1545 H1538 0.950 . S
C1545 C1542 1.387 . S
C1546 C1547 1.387 . S
C1546 H1550 0.950 . S
C1546 C1555 1.390 . S
C1547 C1546 1.387 . S
C1547 C1549 1.387 . S
H1548 C1555 0.950 . S
C1549 C1547 1.387 . S
C1549 C1551 1.390 . S
C1549 H1553 0.950 . S
H1550 C1546 0.950 . S
C1551 C1549 1.390 . S
C1551 C1552 1.387 . S
C1551 H1554 0.950 . S
C1552 C1551 1.387 . S
C1552 C1555 1.387 . S
H1553 C1549 0.950 . S
H1554 C1551 0.950 . S
C1555 C1546 1.390 . S
C1555 H1548 0.950 . S
C1555 C1552 1.387 . S
C1556 C1557 1.387 . S
C1556 H1560 0.950 . S
C1556 C1565 1.390 . S
C1557 C1556 1.387 . S
C1557 C1559 1.387 . S
H1558 C1565 0.950 . S
C1559 C1557 1.387 . S
C1559 C1561 1.390 . S
C1559 H1563 0.950 . S
H1560 C1556 0.950 . S
C1561 C1559 1.390 . S
C1561 C1562 1.387 . S
C1561 H1564 0.950 . S
C1562 C1561 1.387 . S
C1562 C1565 1.387 . S
H1563 C1559 0.950 . S
H1564 C1561 0.950 . S
C1565 C1556 1.390 . S
C1565 H1558 0.950 . S
C1565 C1562 1.387 . S
C1566 C1567 1.387 . S
C1566 H1570 0.950 . S
C1566 C1575 1.390 . S
C1567 C1566 1.387 . S
C1567 C1569 1.387 . S
H1568 C1575 0.950 . S
C1569 C1567 1.387 . S
C1569 C1571 1.390 . S
C1569 H1573 0.950 . S
H1570 C1566 0.950 . S
C1571 C1569 1.390 . S
C1571 C1572 1.387 . S
C1571 H1574 0.950 . S
C1572 C1571 1.387 . S
C1572 C1575 1.387 . S
H1573 C1569 0.950 . S
H1574 C1571 0.950 . S
C1575 C1566 1.390 . S
C1575 H1568 0.950 . S
C1575 C1572 1.387 . S
C1576 C1577 1.387 . S
C1576 H1580 0.950 . S
C1576 C1585 1.390 1_556 S
C1577 C1576 1.387 . S
C1577 C1579 1.387 . S
H1578 C1585 0.950 . S
C1579 C1577 1.387 . S
C1579 C1581 1.390 1_556 S
C1579 H1583 0.950 . S
H1580 C1576 0.950 . S
C1581 C1579 1.390 1_554 S
C1581 C1582 1.387 . S
C1581 H1584 0.950 . S
C1582 C1581 1.387 . S
C1582 C1585 1.387 . S
H1583 C1579 0.950 . S
H1584 C1581 0.950 . S
C1585 C1576 1.390 1_554 S
C1585 H1578 0.950 . S
C1585 C1582 1.387 . S
C1586 C1587 1.387 . S
C1586 H1590 0.950 . S
C1586 C1595 1.390 . S
C1587 C1586 1.387 . S
C1587 C1589 1.387 . S
H1588 C1595 0.950 . S
C1589 C1587 1.387 . S
C1589 C1591 1.390 . S
C1589 H1593 0.950 . S
H1590 C1586 0.950 . S
C1591 C1589 1.390 . S
C1591 C1592 1.387 . S
C1591 H1594 0.950 . S
C1592 C1591 1.387 . S
C1592 C1595 1.387 . S
H1593 C1589 0.950 . S
H1594 C1591 0.950 . S
C1595 C1586 1.390 . S
C1595 H1588 0.950 . S
C1595 C1592 1.387 . S
C1596 C1597 1.387 . S
C1596 H1600 0.950 . S
C1596 C1605 1.390 . S
C1597 C1596 1.387 . S
C1597 C1599 1.387 . S
H1598 C1605 0.950 . S
C1599 C1597 1.387 . S
C1599 C1601 1.390 . S
C1599 H1603 0.950 . S
H1600 C1596 0.950 . S
C1601 C1599 1.390 . S
C1601 C1602 1.387 . S
C1601 H1604 0.950 . S
C1602 C1601 1.387 . S
C1602 C1605 1.387 . S
H1603 C1599 0.950 . S
H1604 C1601 0.950 . S
C1605 C1596 1.390 . S
C1605 H1598 0.950 . S
C1605 C1602 1.387 . S
C1606 C1607 1.387 . S
C1606 H1610 0.950 . S
C1606 C1615 1.390 . S
C1607 C1606 1.387 . S
C1607 C1609 1.387 . S
H1608 C1615 0.950 . S
C1609 C1607 1.387 . S
C1609 C1611 1.390 . S
C1609 H1613 0.950 . S
H1610 C1606 0.950 . S
C1611 C1609 1.390 . S
C1611 C1612 1.387 . S
C1611 H1614 0.950 . S
C1612 C1611 1.387 . S
C1612 C1615 1.387 . S
H1613 C1609 0.950 . S
H1614 C1611 0.950 . S
C1615 C1606 1.390 . S
C1615 H1608 0.950 . S
C1615 C1612 1.387 . S
C1616 C1617 1.387 . S
C1616 H1620 0.950 . S
C1616 C1625 1.390 1_565 S
C1617 C1616 1.387 . S
C1617 C1619 1.387 . S
H1618 C1625 0.950 . S
C1619 C1617 1.387 . S
C1619 C1621 1.390 1_565 S
C1619 H1623 0.950 . S
H1620 C1616 0.950 . S
C1621 C1619 1.390 1_545 S
C1621 C1622 1.387 . S
C1621 H1624 0.950 . S
C1622 C1621 1.387 . S
C1622 C1625 1.387 . S
H1623 C1619 0.950 . S
H1624 C1621 0.950 . S
C1625 C1616 1.390 1_545 S
C1625 H1618 0.950 . S
C1625 C1622 1.387 . S
C1626 C1627 1.387 . S
C1626 H1630 0.950 . S
C1626 C1635 1.390 . S
C1627 C1626 1.387 . S
C1627 C1629 1.387 . S
H1628 C1635 0.950 . S
C1629 C1627 1.387 . S
C1629 C1631 1.390 . S
C1629 H1633 0.950 . S
H1630 C1626 0.950 . S
C1631 C1629 1.390 . S
C1631 C1632 1.387 . S
C1631 H1634 0.950 . S
C1632 C1631 1.387 . S
C1632 C1635 1.387 . S
H1633 C1629 0.950 . S
H1634 C1631 0.950 . S
C1635 C1626 1.390 . S
C1635 H1628 0.950 . S
C1635 C1632 1.387 . S
C1636 C1637 1.387 . S
C1636 H1640 0.950 . S
C1636 C1645 1.390 1_564 S
C1637 C1636 1.387 . S
C1637 C1639 1.387 . S
H1638 C1645 0.950 . S
C1639 C1637 1.387 . S
C1639 C1641 1.390 1_564 S
C1639 H1643 0.950 . S
H1640 C1636 0.950 . S
C1641 C1639 1.390 1_546 S
C1641 C1642 1.387 . S
C1641 H1644 0.950 . S
C1642 C1641 1.387 . S
C1642 C1645 1.387 . S
H1643 C1639 0.950 . S
H1644 C1641 0.950 . S
C1645 C1636 1.390 1_546 S
C1645 H1638 0.950 . S
C1645 C1642 1.387 . S
C1646 C1647 1.387 . S
C1646 H1650 0.950 . S
C1646 C1655 1.390 . S
C1647 C1646 1.387 . S
C1647 C1649 1.387 . S
H1648 C1655 0.950 . S
C1649 C1647 1.387 . S
C1649 C1651 1.390 . S
C1649 H1653 0.950 . S
H1650 C1646 0.950 . S
C1651 C1649 1.390 . S
C1651 C1652 1.387 . S
C1651 H1654 0.950 . S
C1652 C1651 1.387 . S
C1652 C1655 1.387 . S
H1653 C1649 0.950 . S
H1654 C1651 0.950 . S
C1655 C1646 1.390 . S
C1655 H1648 0.950 . S
C1655 C1652 1.387 . S
C1656 C1657 1.387 . S
C1656 H1660 0.950 . S
C1656 C1665 1.390 1_545 S
C1657 C1656 1.387 . S
C1657 C1659 1.387 . S
H1658 C1665 0.950 . S
C1659 C1657 1.387 . S
C1659 C1661 1.390 1_545 S
C1659 H1663 0.950 . S
H1660 C1656 0.950 . S
C1661 C1659 1.390 1_565 S
C1661 C1662 1.387 . S
C1661 H1664 0.950 . S
C1662 C1661 1.387 . S
C1662 C1665 1.387 . S
H1663 C1659 0.950 . S
H1664 C1661 0.950 . S
C1665 C1656 1.390 1_565 S
C1665 H1658 0.950 . S
C1665 C1662 1.387 . S
C1666 C1667 1.387 . S
C1666 H1670 0.950 . S
C1666 C1675 1.390 . S
C1667 C1666 1.387 . S
C1667 C1669 1.387 . S
H1668 C1675 0.950 . S
C1669 C1667 1.387 . S
C1669 C1671 1.390 . S
C1669 H1673 0.950 . S
H1670 C1666 0.950 . S
C1671 C1669 1.390 . S
C1671 C1672 1.387 . S
C1671 H1674 0.950 . S
C1672 C1671 1.387 . S
C1672 C1675 1.387 . S
H1673 C1669 0.950 . S
H1674 C1671 0.950 . S
C1675 C1666 1.390 . S
C1675 H1668 0.950 . S
C1675 C1672 1.387 . S
C1676 C1677 1.387 . S
C1676 H1680 0.950 . S
C1676 C1685 1.390 1_564 S
C1677 C1676 1.387 . S
C1677 C1679 1.387 . S
H1678 C1685 0.950 . S
C1679 C1677 1.387 . S
C1679 C1681 1.390 1_564 S
C1679 H1683 0.950 . S
H1680 C1676 0.950 . S
C1681 C1679 1.390 1_546 S
C1681 C1682 1.387 . S
C1681 H1684 0.950 . S
C1682 C1681 1.387 . S
C1682 C1685 1.387 . S
H1683 C1679 0.950 . S
H1684 C1681 0.950 . S
C1685 C1676 1.390 1_546 S
C1685 H1678 0.950 . S
C1685 C1682 1.387 . S
C1686 C1687 1.387 . S
C1686 H1690 0.950 . S
C1686 C1695 1.390 . S
C1687 C1686 1.387 . S
C1687 C1689 1.387 . S
H1688 C1695 0.950 . S
C1689 C1687 1.387 . S
C1689 C1691 1.390 . S
C1689 H1693 0.950 . S
H1690 C1686 0.950 . S
C1691 C1689 1.390 . S
C1691 C1692 1.387 . S
C1691 H1694 0.950 . S
C1692 C1691 1.387 . S
C1692 C1695 1.387 . S
H1693 C1689 0.950 . S
H1694 C1691 0.950 . S
C1695 C1686 1.390 . S
C1695 H1688 0.950 . S
C1695 C1692 1.387 . S
C1696 C1697 1.387 1_556 S
C1696 H1700 0.950 . S
C1696 C1705 1.390 1_455 S
C1697 C1696 1.387 1_554 S
C1697 C1699 1.387 . S
H1698 C1705 0.950 . S
C1699 C1697 1.387 . S
C1699 C1701 1.390 1_455 S
C1699 H1703 0.950 . S
H1700 C1696 0.950 . S
C1701 C1699 1.390 1_655 S
C1701 C1702 1.387 . S
C1701 H1704 0.950 . S
C1702 C1701 1.387 . S
C1702 C1705 1.387 1_554 S
H1703 C1699 0.950 . S
H1704 C1701 0.950 . S
C1705 C1696 1.390 1_655 S
C1705 H1698 0.950 . S
C1705 C1702 1.387 1_556 S
C1706 C1707 1.387 . S
C1706 H1710 0.950 . S
C1706 C1715 1.390 . S
C1707 C1706 1.387 . S
C1707 C1709 1.387 . S
H1708 C1715 0.950 . S
C1709 C1707 1.387 . S
C1709 C1711 1.390 . S
C1709 H1713 0.950 . S
H1710 C1706 0.950 . S
C1711 C1709 1.390 . S
C1711 C1712 1.387 . S
C1711 H1714 0.950 . S
C1712 C1711 1.387 . S
C1712 C1715 1.387 . S
H1713 C1709 0.950 . S
H1714 C1711 0.950 . S
C1715 C1706 1.390 . S
C1715 H1708 0.950 . S
C1715 C1712 1.387 . S
C1716 C1717 1.387 . S
C1716 H1720 0.950 . S
C1716 C1725 1.390 . S
C1717 C1716 1.387 . S
C1717 C1719 1.387 . S
H1718 C1725 0.950 . S
C1719 C1717 1.387 . S
C1719 C1721 1.390 . S
C1719 H1723 0.950 . S
H1720 C1716 0.950 . S
C1721 C1719 1.390 . S
C1721 C1722 1.387 . S
C1721 H1724 0.950 . S
C1722 C1721 1.387 . S
C1722 C1725 1.387 . S
H1723 C1719 0.950 . S
H1724 C1721 0.950 . S
C1725 C1716 1.390 . S
C1725 H1718 0.950 . S
C1725 C1722 1.387 . S
C1726 C1727 1.387 . S
C1726 H1730 0.950 . S
C1726 C1735 1.390 . S
C1727 C1726 1.387 . S
C1727 C1729 1.387 . S
H1728 C1735 0.950 . S
C1729 C1727 1.387 . S
C1729 C1731 1.390 . S
C1729 H1733 0.950 . S
H1730 C1726 0.950 . S
C1731 C1729 1.390 . S
C1731 C1732 1.387 . S
C1731 H1734 0.950 . S
C1732 C1731 1.387 . S
C1732 C1735 1.387 . S
H1733 C1729 0.950 . S
H1734 C1731 0.950 . S
C1735 C1726 1.390 . S
C1735 H1728 0.950 . S
C1735 C1732 1.387 . S
C1736 C1737 1.387 1_554 S
C1736 H1740 0.950 . S
C1736 C1745 1.390 1_655 S
C1737 C1736 1.387 1_556 S
C1737 C1739 1.387 . S
H1738 C1745 0.950 . S
C1739 C1737 1.387 . S
C1739 C1741 1.390 1_655 S
C1739 H1743 0.950 . S
H1740 C1736 0.950 . S
C1741 C1739 1.390 1_455 S
C1741 C1742 1.387 . S
C1741 H1744 0.950 . S
C1742 C1741 1.387 . S
C1742 C1745 1.387 1_556 S
H1743 C1739 0.950 . S
H1744 C1741 0.950 . S
C1745 C1736 1.390 1_455 S
C1745 H1738 0.950 . S
C1745 C1742 1.387 1_554 S
C1746 C1747 1.387 . S
C1746 H1750 0.950 . S
C1746 C1755 1.390 . S
C1747 C1746 1.387 . S
C1747 C1749 1.387 . S
H1748 C1755 0.950 . S
C1749 C1747 1.387 . S
C1749 C1751 1.390 . S
C1749 H1753 0.950 . S
H1750 C1746 0.950 . S
C1751 C1749 1.390 . S
C1751 C1752 1.387 . S
C1751 H1754 0.950 . S
C1752 C1751 1.387 . S
C1752 C1755 1.387 . S
H1753 C1749 0.950 . S
H1754 C1751 0.950 . S
C1755 C1746 1.390 . S
C1755 H1748 0.950 . S
C1755 C1752 1.387 . S
C1756 C1757 1.387 . S
C1756 H1760 0.950 . S
C1756 C1765 1.390 . S
C1757 C1756 1.387 . S
C1757 C1759 1.387 . S
H1758 C1765 0.950 . S
C1759 C1757 1.387 . S
C1759 C1761 1.390 . S
C1759 H1763 0.950 . S
H1760 C1756 0.950 . S
C1761 C1759 1.390 . S
C1761 C1762 1.387 . S
C1761 H1764 0.950 . S
C1762 C1761 1.387 . S
C1762 C1765 1.387 . S
H1763 C1759 0.950 . S
H1764 C1761 0.950 . S
C1765 C1756 1.390 . S
C1765 H1758 0.950 . S
C1765 C1762 1.387 . S
C1766 C1767 1.387 . S
C1766 H1770 0.950 . S
C1766 C1775 1.390 . S
C1767 C1766 1.387 . S
C1767 C1769 1.387 . S
H1768 C1775 0.950 . S
C1769 C1767 1.387 . S
C1769 C1771 1.390 . S
C1769 H1773 0.950 . S
H1770 C1766 0.950 . S
C1771 C1769 1.390 . S
C1771 C1772 1.387 . S
C1771 H1774 0.950 . S
C1772 C1771 1.387 . S
C1772 C1775 1.387 . S
H1773 C1769 0.950 . S
H1774 C1771 0.950 . S
C1775 C1766 1.390 . S
C1775 H1768 0.950 . S
C1775 C1772 1.387 . S
C1776 C1777 1.387 . S
C1776 H1780 0.950 . S
C1776 C1785 1.390 . S
C1777 C1776 1.387 . S
C1777 C1779 1.387 . S
H1778 C1785 0.950 . S
C1779 C1777 1.387 . S
C1779 C1781 1.390 . S
C1779 H1783 0.950 . S
H1780 C1776 0.950 . S
C1781 C1779 1.390 . S
C1781 C1782 1.387 . S
C1781 H1784 0.950 . S
C1782 C1781 1.387 . S
C1782 C1785 1.387 . S
H1783 C1779 0.950 . S
H1784 C1781 0.950 . S
C1785 C1776 1.390 . S
C1785 H1778 0.950 . S
C1785 C1782 1.387 . S
C1786 C1787 1.387 . S
C1786 H1790 0.950 . S
C1786 C1795 1.390 . S
C1787 C1786 1.387 . S
C1787 C1789 1.387 . S
H1788 C1795 0.950 . S
C1789 C1787 1.387 . S
C1789 C1791 1.390 . S
C1789 H1793 0.950 . S
H1790 C1786 0.950 . S
C1791 C1789 1.390 . S
C1791 C1792 1.387 . S
C1791 H1794 0.950 . S
C1792 C1791 1.387 . S
C1792 C1795 1.387 . S
H1793 C1789 0.950 . S
H1794 C1791 0.950 . S
C1795 C1786 1.390 . S
C1795 H1788 0.950 . S
C1795 C1792 1.387 . S
C1796 C1797 1.387 . S
C1796 H1800 0.950 . S
C1796 C1805 1.390 . S
C1797 C1796 1.387 . S
C1797 C1799 1.387 . S
H1798 C1805 0.950 . S
C1799 C1797 1.387 . S
C1799 C1801 1.390 . S
C1799 H1803 0.950 . S
H1800 C1796 0.950 . S
C1801 C1799 1.390 . S
C1801 C1802 1.387 . S
C1801 H1804 0.950 . S
C1802 C1801 1.387 . S
C1802 C1805 1.387 . S
H1803 C1799 0.950 . S
H1804 C1801 0.950 . S
C1805 C1796 1.390 . S
C1805 H1798 0.950 . S
C1805 C1802 1.387 . S
C1806 C1807 1.387 . S
C1806 H1810 0.950 . S
C1806 C1815 1.390 . S
C1807 C1806 1.387 . S
C1807 C1809 1.387 . S
H1808 C1815 0.950 . S
C1809 C1807 1.387 . S
C1809 C1811 1.390 . S
C1809 H1813 0.950 . S
H1810 C1806 0.950 . S
C1811 C1809 1.390 . S
C1811 C1812 1.387 . S
C1811 H1814 0.950 . S
C1812 C1811 1.387 . S
C1812 C1815 1.387 . S
H1813 C1809 0.950 . S
H1814 C1811 0.950 . S
C1815 C1806 1.390 . S
C1815 H1808 0.950 . S
C1815 C1812 1.387 . S
C1816 C1817 1.387 . S
C1816 H1820 0.950 . S
C1816 C1825 1.390 . S
C1817 C1816 1.387 . S
C1817 C1819 1.387 . S
H1818 C1825 0.950 . S
C1819 C1817 1.387 . S
C1819 C1821 1.390 . S
C1819 H1823 0.950 . S
H1820 C1816 0.950 . S
C1821 C1819 1.390 . S
C1821 C1822 1.387 . S
C1821 H1824 0.950 . S
C1822 C1821 1.387 . S
C1822 C1825 1.387 . S
H1823 C1819 0.950 . S
H1824 C1821 0.950 . S
C1825 C1816 1.390 . S
C1825 H1818 0.950 . S
C1825 C1822 1.387 . S
C1826 C1827 1.387 . S
C1826 H1830 0.950 . S
C1826 C1835 1.390 1_455 S
C1827 C1826 1.387 . S
C1827 C1829 1.387 1_554 S
H1828 C1835 0.950 . S
C1829 C1827 1.387 1_556 S
C1829 C1831 1.390 1_455 S
C1829 H1833 0.950 . S
H1830 C1826 0.950 . S
C1831 C1829 1.390 1_655 S
C1831 C1832 1.383 1_556 S
C1831 H1834 0.954 . S
C1832 C1831 1.383 1_554 S
C1832 C1835 1.387 . S
H1833 C1829 0.950 . S
H1834 C1831 0.954 . S
C1835 C1826 1.390 1_655 S
C1835 H1828 0.950 . S
C1835 C1832 1.387 . S
C1836 C1837 1.387 . S
C1836 H1840 0.950 . S
C1836 C1845 1.390 . S
C1837 C1836 1.387 . S
C1837 C1839 1.387 . S
H1838 C1845 0.950 . S
C1839 C1837 1.387 . S
C1839 C1841 1.390 . S
C1839 H1843 0.950 . S
H1840 C1836 0.950 . S
C1841 C1839 1.390 . S
C1841 C1842 1.387 . S
C1841 H1844 0.950 . S
C1842 C1841 1.387 . S
C1842 C1845 1.387 . S
H1843 C1839 0.950 . S
H1844 C1841 0.950 . S
C1845 C1836 1.390 . S
C1845 H1838 0.950 . S
C1845 C1842 1.387 . S
C1846 C1847 1.387 1_554 S
C1846 H1850 0.950 . S
C1846 C1855 1.390 1_455 S
C1847 C1846 1.387 1_556 S
C1847 C1849 1.387 . S
H1848 C1855 0.950 . S
C1849 C1847 1.387 . S
C1849 C1851 1.390 1_455 S
C1849 H1853 0.950 . S
H1850 C1846 0.950 . S
C1851 C1849 1.390 1_655 S
C1851 C1852 1.387 . S
C1851 H1854 0.950 . S
C1852 C1851 1.387 . S
C1852 C1855 1.387 1_556 S
H1853 C1849 0.950 . S
H1854 C1851 0.950 . S
C1855 C1846 1.390 1_655 S
C1855 H1848 0.950 . S
C1855 C1852 1.387 1_554 S
C1057 N2 1.467 . S
C1062 N13 1.470 . S
C1067 N46 1.470 . S
C1072 N35 1.457 1_556 S
C1077 N79 1.469 . S
C1082 N68 1.467 . S
C1087 N112 1.469 . S
C1092 N101 1.466 . S
C1097 N145 1.471 . S
C1102 N134 1.468 . S
C1107 N178 1.471 . S
C1112 N167 1.468 . S
C1117 N200 1.468 . S
C1122 N211 1.471 . S
C1127 N233 1.458 1_554 S
C1132 N244 1.471 . S
C1137 N266 1.468 . S
C1142 N277 1.471 . S
C1147 N299 1.457 1_554 S
C1152 N310 1.470 . S
C1157 N332 1.467 . S
C1162 N343 1.470 . S
C1167 N376 1.470 . S
C1172 N365 1.467 . S
C1177 N398 1.468 . S
C1182 N409 1.471 . S
C1187 N431 1.466 . S
C1192 N442 1.469 . S
C1197 N475 1.471 . S
C1202 N464 1.469 . S
C1207 N497 1.456 1_556 S
C1212 N508 1.470 . S
C1217 N541 1.470 . S
C1222 N530 1.467 . S
C1227 N574 1.470 . S
C1232 N563 1.467 . S
C1237 N607 1.470 . S
C1242 N596 1.467 . S
C1247 N640 1.470 . S
C1252 N629 1.456 1_556 S
C1257 N673 1.470 . S
C1262 N662 1.467 . S
C1267 N706 1.470 . S
C1272 N695 1.457 1_554 S
C1277 N739 1.471 . S
C1282 N728 1.468 . S
C1287 N761 1.467 . S
C1292 N772 1.470 . S
C1297 N805 1.469 . S
C1302 N794 1.467 . S
C1307 N838 1.471 . S
C1312 N827 1.468 . S
C1317 N871 1.469 . S
C1322 N860 1.467 . S
C1327 N893 1.458 1_554 S
C1332 N904 1.471 . S
C1337 N926 1.467 . S
C1342 N937 1.469 . S
C1347 N959 1.458 1_556 S
C1352 N970 1.471 . S
C1357 N1003 1.471 . S
C1362 N992 1.468 . S
C1367 N1025 1.467 . S
C1372 N1036 1.470 . S
C1377 C777 1.173 . S
C1382 C18 1.173 . S
C1387 C678 1.173 . S
C1392 C51 1.173 . S
C1397 C711 1.173 . S
C1402 C84 1.173 . S
C1407 C744 1.173 . S
C1412 C117 1.174 . S
C1417 C579 1.174 . S
C1422 C150 1.174 . S
C1427 C612 1.174 . S
C1432 C183 1.174 . S
C1437 C645 1.173 . S
C1442 C216 1.173 . S
C1447 C546 1.174 . S
C1452 C249 1.174 . S
C1457 C1041 1.174 . S
C1462 C282 1.174 . S
C1467 C942 1.173 . S
C1472 C315 1.174 . S
C1477 C348 1.173 . S
C1482 C975 1.173 . S
C1487 C381 1.174 . S
C1492 C1008 1.174 . S
C1497 C414 1.173 . S
C1502 C843 1.173 . S
C1507 C447 1.173 . S
C1512 C876 1.173 . S
C1517 C480 1.173 . S
C1522 C909 1.173 . S
C1527 C810 1.173 . S
C1532 C513 1.173 . S
C1537 C139 1.463 . S
C1542 C7 1.463 . S
C1547 C40 1.463 . S
C1552 C172 1.463 . S
C1557 C205 1.462 . S
C1562 C73 1.462 . S
C1567 C106 1.463 . S
C1572 C238 1.463 . S
C1577 C271 1.462 . S
C1582 C403 1.462 . S
C1587 C436 1.463 . S
C1592 C304 1.463 . S
C1597 C469 1.463 . S
C1602 C337 1.463 . S
C1607 C502 1.463 . S
C1612 C370 1.463 . S
C1617 C667 1.463 . S
C1622 C535 1.463 . S
C1627 C568 1.463 . S
C1632 C700 1.463 . S
C1637 C601 1.463 . S
C1642 C733 1.463 . S
C1647 C634 1.463 . S
C1652 C766 1.463 . S
C1657 C931 1.462 . S
C1662 C799 1.462 . S
C1667 C964 1.463 . S
C1672 C832 1.463 . S
C1677 C997 1.462 . S
C1682 C865 1.462 . S
C1687 C898 1.463 . S
C1692 C1030 1.463 . S
C1697 C21 1.501 . S
C1702 C417 1.500 . S
C1707 C978 1.500 . S
C1712 C54 1.501 . S
C1717 C87 1.501 . S
C1722 C483 1.500 . S
C1727 C1044 1.500 . S
C1732 C120 1.501 . S
C1737 C285 1.500 . S
C1742 C153 1.501 . S
C1747 C186 1.500 . S
C1752 C846 1.501 . S
C1757 C219 1.501 . S
C1762 C351 1.500 . S
C1767 C252 1.500 . S
C1772 C912 1.501 . S
C1777 C714 1.501 . S
C1782 C318 1.500 . S
C1787 C780 1.501 . S
C1792 C384 1.500 . S
C1797 C582 1.500 . S
C1802 C450 1.501 . S
C1807 C648 1.500 . S
C1812 C516 1.501 . S
C1817 C549 1.501 . S
C1822 C945 1.500 . S
C1827 C1011 1.501 . S
C1832 C615 1.500 . S
C1837 C681 1.500 . S
C1842 C813 1.501 . S
C1847 C879 1.500 . S
C1852 C747 1.501 . S
