# Generated by pormake.
# Topology umx, (4)-cn, num edge types: 1
# Building blocks:
#     Node 0, Type 0, BuildingBlock: ICAMEG_clean_sbu_1, # of connection points: 4
#     Node 1, Type 0, BuildingBlock: ICAMEG_clean_sbu_1, # of connection points: 4
#     Node 2, Type 0, BuildingBlock: ICAMEG_clean_sbu_1, # of connection points: 4
#     Node 3, Type 0, BuildingBlock: ICAMEG_clean_sbu_1, # of connection points: 4
#     Node 4, Type 0, BuildingBlock: ICAMEG_clean_sbu_1, # of connection points: 4
#     Node 5, Type 0, BuildingBlock: ICAMEG_clean_sbu_1, # of connection points: 4
#     Node 6, Type 0, BuildingBlock: ICAMEG_clean_sbu_1, # of connection points: 4
#     Node 7, Type 0, BuildingBlock: ICAMEG_clean_sbu_1, # of connection points: 4
#     Edge 8, Type (0, 0), BuildingBlock: UVAHIK_clean_linker_0, # of connection points: 2
#     Edge 9, Type (0, 0), BuildingBlock: UVAHIK_clean_linker_0, # of connection points: 2
#     Edge 10, Type (0, 0), BuildingBlock: UVAHIK_clean_linker_0, # of connection points: 2
#     Edge 11, Type (0, 0), BuildingBlock: UVAHIK_clean_linker_0, # of connection points: 2
#     Edge 12, Type (0, 0), BuildingBlock: UVAHIK_clean_linker_0, # of connection points: 2
#     Edge 13, Type (0, 0), BuildingBlock: UVAHIK_clean_linker_0, # of connection points: 2
#     Edge 14, Type (0, 0), BuildingBlock: UVAHIK_clean_linker_0, # of connection points: 2
#     Edge 15, Type (0, 0), BuildingBlock: UVAHIK_clean_linker_0, # of connection points: 2
#     Edge 16, Type (0, 0), BuildingBlock: UVAHIK_clean_linker_0, # of connection points: 2
#     Edge 17, Type (0, 0), BuildingBlock: UVAHIK_clean_linker_0, # of connection points: 2
#     Edge 18, Type (0, 0), BuildingBlock: UVAHIK_clean_linker_0, # of connection points: 2
#     Edge 19, Type (0, 0), BuildingBlock: UVAHIK_clean_linker_0, # of connection points: 2
#     Edge 20, Type (0, 0), BuildingBlock: UVAHIK_clean_linker_0, # of connection points: 2
#     Edge 21, Type (0, 0), BuildingBlock: UVAHIK_clean_linker_0, # of connection points: 2
#     Edge 22, Type (0, 0), BuildingBlock: UVAHIK_clean_linker_0, # of connection points: 2
#     Edge 23, Type (0, 0), BuildingBlock: UVAHIK_clean_linker_0, # of connection points: 2
# Relax obj value: 0.032
# Max RMSD: 0.112
# Mean RMSD: 0.111
data_MOF--net-umx--node1-ICAMEG_clean_sbu_1--edge1-UVAHIK_clean_linker_0
_symmetry_space_group_name_H-M    P1
_symmetry_Int_Tables_number       1
_symmetry_cell_setting            triclinic
loop_
_symmetry_equiv_pos_as_xyz
'x, y, z'
_cell_length_a     53.226717
_cell_length_b     53.231756
_cell_length_c     39.095788
_cell_angle_alpha  90.020924
_cell_angle_beta   89.979541
_cell_angle_gamma 89.995168
loop_
_atom_site_label
_atom_site_type_symbol
_atom_site_fract_x
_atom_site_fract_y
_atom_site_fract_z
_atom_type_partial_charge
Co0 Co 0.18401 0.48686 0.02122 0.0
Co1 Co 0.17004 0.42734 0.0508 0.0
O2 O 0.18638 0.4503 0.01886 0.0
C3 C 0.16682 0.47381 0.95194 0.0
O4 O 0.15386 0.45557 0.96602 0.0
C5 C 0.22369 0.41382 0.05337 0.0
O6 O 0.22845 0.43789 0.05676 0.0
O7 O 0.18291 0.44654 0.09071 0.0
O8 O 0.18753 0.48621 0.07209 0.0
H9 H 0.11814 0.4043 0.15347 0.0
H10 H 0.22108 0.46321 0.97471 0.0
O11 O 0.18022 0.48831 0.97034 0.0
H12 H 0.27105 0.51476 0.05443 0.0
H13 H 0.202 0.57479 0.98077 0.0
H14 H 0.1576 0.5231 0.06623 0.0
H15 H 0.22482 0.51372 0.05868 0.0
H16 H 0.20512 0.52856 0.97927 0.0
O17 O 0.20108 0.40614 0.05121 0.0
H18 H 0.1383 0.4333 0.11261 0.0
H19 H 0.16835 0.37157 0.05722 0.0
H20 H 0.15413 0.56928 0.06887 0.0
H21 H 0.26726 0.46383 0.96941 0.0
H22 H 0.17644 0.59544 0.02591 0.0
H23 H 0.29256 0.48968 0.00954 0.0
O24 O 0.14688 0.48522 0.0257 0.0
H25 H 0.17715 0.38404 0.93695 0.0
H26 H 0.11976 0.40741 0.03077 0.0
H27 H 0.10319 0.38447 0.98082 0.0
H28 H 0.13198 0.37261 0.93348 0.0
H29 H 0.19288 0.40718 0.98723 0.0
H30 H 0.14869 0.34189 0.09763 0.0
H31 H 0.12329 0.35823 0.14609 0.0
O32 O 0.13872 0.44812 0.05082 0.0
C33 C 0.18768 0.46972 0.09577 0.0
C34 C 0.12909 0.39694 0.13239 0.0
C35 C 0.14626 0.36192 0.10107 0.0
N36 N 0.15428 0.40412 0.0824 0.0
C37 C 0.14048 0.41327 0.10912 0.0
C38 C 0.15738 0.37881 0.07831 0.0
C39 C 0.132 0.3711 0.12825 0.0
C40 C 0.23196 0.47471 0.99203 0.0
N41 N 0.22027 0.48851 0.01684 0.0
C42 C 0.2581 0.4749 0.989 0.0
C43 C 0.27229 0.48938 0.01156 0.0
C44 C 0.26022 0.50344 0.03677 0.0
C45 C 0.23405 0.50274 0.03909 0.0
C46 C 0.19225 0.5636 -0.00032 0.0
C47 C 0.1675 0.53438 0.0476 0.0
C48 C 0.19391 0.53742 -0.00107 0.0
N49 N 0.18174 0.52318 0.02284 0.0
C50 C 0.1654 0.56051 0.04915 0.0
C51 C 0.1779 0.57517 0.02502 0.0
C52 C 0.13184 0.46946 0.03925 0.0
C53 C 0.16444 0.38903 0.95747 0.0
C54 C 0.13239 0.40237 0.01024 0.0
C55 C 0.12292 0.38933 0.98205 0.0
C56 C 0.13908 0.38266 0.95551 0.0
N57 N 0.15729 0.40854 0.01199 0.0
C58 C 0.17326 0.40203 0.98608 0.0
Co59 Co 0.51203 0.18326 0.52444 0.0
Co60 Co 0.57291 0.16862 0.54767 0.0
O61 O 0.54835 0.18511 0.5182 0.0
C62 C 0.52105 0.1649 0.45472 0.0
O63 O 0.5395 0.15165 0.46772 0.0
C64 C 0.58712 0.22213 0.54827 0.0
O65 O 0.56342 0.22717 0.55454 0.0
O66 O 0.55621 0.18186 0.58944 0.0
O67 O 0.51568 0.18725 0.57501 0.0
H68 H 0.60137 0.1168 0.6478 0.0
H69 H 0.53343 0.21953 0.47486 0.0
O70 O 0.50772 0.17895 0.47388 0.0
H71 H 0.48735 0.271 0.55895 0.0
H72 H 0.4223 0.20219 0.4931 0.0
H73 H 0.47811 0.1579 0.57369 0.0
H74 H 0.48797 0.22481 0.56388 0.0
H75 H 0.46836 0.20451 0.48656 0.0
O76 O 0.5944 0.19942 0.54546 0.0
H77 H 0.57026 0.13717 0.61014 0.0
H78 H 0.62886 0.16635 0.54801 0.0
H79 H 0.43217 0.15525 0.58136 0.0
H80 H 0.53317 0.26565 0.46884 0.0
H81 H 0.40394 0.17751 0.54088 0.0
H82 H 0.51007 0.29171 0.51115 0.0
O83 O 0.5134 0.14617 0.52948 0.0
H84 H 0.60927 0.17474 0.4293 0.0
H85 H 0.59109 0.11805 0.52593 0.0
H86 H 0.61072 0.101 0.4737 0.0
H87 H 0.61995 0.12944 0.42492 0.0
H88 H 0.58945 0.19097 0.48188 0.0
H89 H 0.66061 0.14646 0.58514 0.0
H90 H 0.64691 0.12139 0.63537 0.0
O91 O 0.55186 0.13754 0.55016 0.0
C92 C 0.53347 0.18713 0.59688 0.0
C93 C 0.60757 0.1276 0.62592 0.0
C94 C 0.64082 0.14428 0.59078 0.0
N95 N 0.59774 0.15273 0.57676 0.0
C96 C 0.59005 0.13911 0.60446 0.0
C97 C 0.62277 0.15553 0.56989 0.0
C98 C 0.63312 0.13021 0.61896 0.0
C99 C 0.52312 0.23073 0.49316 0.0
N100 N 0.51062 0.21949 0.51957 0.0
C101 C 0.52313 0.25684 0.48971 0.0
C102 C 0.5102 0.27145 0.51349 0.0
C103 C 0.49746 0.25984 0.54033 0.0
C104 C 0.49791 0.23369 0.54301 0.0
C105 C 0.43441 0.19246 0.51095 0.0
C106 C 0.46594 0.16777 0.55611 0.0
C107 C 0.46049 0.19367 0.50735 0.0
N108 N 0.47588 0.18154 0.52992 0.0
C109 C 0.43995 0.16613 0.56052 0.0
C110 C 0.42412 0.17861 0.53777 0.0
C111 C 0.52976 0.13094 0.54121 0.0
C112 C 0.60542 0.16219 0.45043 0.0
C113 C 0.59501 0.13054 0.5048 0.0
C114 C 0.60617 0.12079 0.47531 0.0
C115 C 0.61136 0.13675 0.44796 0.0
N116 N 0.58924 0.15551 0.50702 0.0
C117 C 0.59431 0.17129 0.48033 0.0
Co118 Co 0.81557 0.51273 0.0244 0.0
Co119 Co 0.83001 0.57371 0.04761 0.0
O120 O 0.81337 0.54907 0.01837 0.0
C121 C 0.83353 0.52201 0.95456 0.0
O122 O 0.84654 0.54068 0.96745 0.0
C123 C 0.77635 0.58738 0.04998 0.0
O124 O 0.77158 0.56348 0.05509 0.0
O125 O 0.8176 0.5567 0.08959 0.0
O126 O 0.81176 0.51626 0.07499 0.0
H127 H 0.88306 0.60227 0.14653 0.0
H128 H 0.77892 0.53387 0.97515 0.0
O129 O 0.81972 0.50852 0.97381 0.0
H130 H 0.72818 0.48722 0.05943 0.0
H131 H 0.79726 0.42291 0.99281 0.0
H132 H 0.84141 0.47893 0.07331 0.0
H133 H 0.77439 0.48829 0.06408 0.0
H134 H 0.79453 0.46895 0.9865 0.0
O135 O 0.79895 0.5949 0.04673 0.0
H136 H 0.86243 0.57113 0.10916 0.0
H137 H 0.83173 0.62968 0.04839 0.0
H138 H 0.84449 0.43301 0.08076 0.0
H139 H 0.73277 0.53315 0.96939 0.0
H140 H 0.8223 0.40467 0.04032 0.0
H141 H 0.70709 0.50976 0.01181 0.0
O142 O 0.85269 0.51434 0.02914 0.0
H143 H 0.82153 0.61045 0.92979 0.0
H144 H 0.88002 0.59256 0.02452 0.0
H145 H 0.89598 0.61256 0.97192 0.0
H146 H 0.86664 0.62164 0.9241 0.0
H147 H 0.8064 0.59028 0.98272 0.0
H148 H 0.85186 0.66147 0.08525 0.0
H149 H 0.87782 0.64781 0.13464 0.0
O150 O 0.86135 0.55302 0.04899 0.0
C151 C 0.81225 0.53399 0.09697 0.0
C152 C 0.87187 0.60846 0.12501 0.0
C153 C 0.85432 0.64168 0.09065 0.0
N154 N 0.8461 0.59858 0.07646 0.0
C155 C 0.86021 0.59091 0.10371 0.0
C156 C 0.84294 0.6236 0.06991 0.0
C157 C 0.8689 0.634 0.11835 0.0
C158 C 0.76788 0.52343 0.99349 0.0
N159 N 0.77933 0.51102 0.01979 0.0
C160 C 0.74175 0.52319 0.99019 0.0
C161 C 0.72735 0.51009 0.01403 0.0
C162 C 0.73918 0.49745 0.04077 0.0
C163 C 0.76534 0.49816 0.0433 0.0
C164 C 0.80696 0.43506 0.01064 0.0
C165 C 0.83157 0.46671 0.05576 0.0
C166 C 0.80552 0.46113 0.00716 0.0
N167 N 0.81761 0.47658 0.02971 0.0
C168 C 0.83344 0.44073 0.06003 0.0
C169 C 0.82101 0.42484 0.03731 0.0
C170 C 0.86796 0.53089 0.04025 0.0
C171 C 0.83448 0.60667 0.9505 0.0
C172 C 0.86713 0.59642 0.0038 0.0
C173 C 0.87627 0.60779 0.97411 0.0
C174 C 0.8598 0.6129 0.9473 0.0
N175 N 0.84227 0.59037 0.00675 0.0
C176 C 0.826 0.59536 0.98059 0.0
Co177 Co 0.48611 0.81507 0.52127 0.0
Co178 Co 0.42645 0.82874 0.55076 0.0
O179 O 0.44956 0.81252 0.51883 0.0
C180 C 0.47311 0.83236 0.45201 0.0
O181 O 0.45473 0.84515 0.46607 0.0
C182 C 0.41321 0.77501 0.55338 0.0
O183 O 0.43732 0.77034 0.55647 0.0
O184 O 0.44569 0.81599 0.59069 0.0
O185 O 0.48539 0.81142 0.57212 0.0
H186 H 0.403 0.88053 0.65337 0.0
H187 H 0.46275 0.77801 0.4745 0.0
O188 O 0.48765 0.81901 0.47041 0.0
H189 H 0.51442 0.7281 0.55409 0.0
H190 H 0.57422 0.79764 0.48094 0.0
H191 H 0.52214 0.84154 0.5665 0.0
H192 H 0.51311 0.7743 0.5586 0.0
H193 H 0.528 0.79428 0.47932 0.0
O194 O 0.40543 0.79758 0.55124 0.0
H195 H 0.43216 0.86051 0.61256 0.0
H196 H 0.37066 0.83013 0.55711 0.0
H197 H 0.5683 0.84523 0.56926 0.0
H198 H 0.46365 0.73186 0.46894 0.0
H199 H 0.59466 0.82318 0.52625 0.0
H200 H 0.48956 0.70658 0.509 0.0
O201 O 0.4843 0.85218 0.52593 0.0
H202 H 0.38333 0.82129 0.43687 0.0
H203 H 0.40624 0.87888 0.53064 0.0
H204 H 0.38327 0.89528 0.48064 0.0
H205 H 0.37163 0.86639 0.43331 0.0
H206 H 0.4065 0.80573 0.48721 0.0
H207 H 0.34082 0.84964 0.59747 0.0
H208 H 0.35697 0.87514 0.64594 0.0
O209 O 0.44704 0.86016 0.55078 0.0
C210 C 0.46887 0.81125 0.59579 0.0
C211 C 0.39573 0.86954 0.63228 0.0
C212 C 0.36083 0.85217 0.60093 0.0
N213 N 0.40311 0.84438 0.58232 0.0
C214 C 0.41215 0.85823 0.60904 0.0
C215 C 0.37781 0.84114 0.5782 0.0
C216 C 0.36991 0.86648 0.62812 0.0
C217 C 0.47427 0.76715 0.4918 0.0
N218 N 0.48796 0.77884 0.51672 0.0
C219 C 0.47462 0.74102 0.48862 0.0
C220 C 0.48914 0.72685 0.51114 0.0
C221 C 0.50308 0.73891 0.53646 0.0
C222 C 0.50223 0.76507 0.53892 0.0
C223 C 0.56294 0.80728 0.49987 0.0
C224 C 0.53351 0.83175 0.54785 0.0
C225 C 0.53677 0.80549 0.49905 0.0
N226 N 0.52243 0.81752 0.52299 0.0
C227 C 0.55962 0.83397 0.54947 0.0
C228 C 0.5744 0.82161 0.52531 0.0
C229 C 0.4684 0.86714 0.53939 0.0
C230 C 0.38822 0.83405 0.45738 0.0
C231 C 0.4013 0.8662 0.51012 0.0
C232 C 0.38824 0.87558 0.4819 0.0
C233 C 0.3817 0.85936 0.45537 0.0
N234 N 0.40762 0.84134 0.51191 0.0
C235 C 0.40124 0.82532 0.48602 0.0
Co236 Co 0.18345 0.51297 0.52001 0.0
Co237 Co 0.16871 0.57482 0.50181 0.0
O238 O 0.18535 0.54898 0.52896 0.0
C239 C 0.16433 0.51952 0.58983 0.0
O240 O 0.15128 0.53843 0.57771 0.0
C241 C 0.22248 0.5882 0.50033 0.0
O242 O 0.2271 0.5646 0.4929 0.0
O243 O 0.18075 0.55942 0.45835 0.0
O244 O 0.18815 0.51871 0.47002 0.0
H245 H 0.1151 0.60761 0.40596 0.0
H246 H 0.21907 0.5323 0.57203 0.0
O247 O 0.17844 0.50671 0.5701 0.0
H248 H 0.2716 0.48937 0.4861 0.0
H249 H 0.20162 0.42207 0.54526 0.0
H250 H 0.15891 0.48116 0.46748 0.0
H251 H 0.22549 0.49038 0.47999 0.0
H252 H 0.20394 0.46778 0.55525 0.0
O253 O 0.19992 0.59572 0.50408 0.0
H254 H 0.13569 0.57489 0.44076 0.0
H255 H 0.16755 0.63076 0.50504 0.0
H256 H 0.15626 0.43561 0.45636 0.0
H257 H 0.2651 0.5316 0.57926 0.0
H258 H 0.17773 0.40573 0.49542 0.0
H259 H 0.29169 0.51009 0.53602 0.0
O260 O 0.14642 0.51456 0.51391 0.0
H261 H 0.17817 0.60619 0.62237 0.0
H262 H 0.11917 0.59371 0.52667 0.0
H263 H 0.10368 0.6116 0.58092 0.0
H264 H 0.13329 0.61796 0.62925 0.0
H265 H 0.19279 0.58813 0.56779 0.0
H266 H 0.14748 0.66411 0.47079 0.0
H267 H 0.12095 0.65259 0.42093 0.0
O268 O 0.13723 0.55438 0.49935 0.0
C269 C 0.18695 0.53722 0.44934 0.0
C270 C 0.12655 0.61286 0.4277 0.0
C271 C 0.14475 0.64457 0.46405 0.0
N272 N 0.15262 0.60091 0.47505 0.0
C273 C 0.13818 0.59442 0.44755 0.0
C274 C 0.15611 0.62562 0.4833 0.0
C275 C 0.12986 0.6381 0.43609 0.0
C276 C 0.2305 0.52267 0.55331 0.0
N277 N 0.2196 0.51126 0.52575 0.0
C278 C 0.25656 0.52244 0.55745 0.0
C279 C 0.27147 0.51039 0.53316 0.0
C280 C 0.26021 0.49877 0.50513 0.0
C281 C 0.2341 0.49944 0.50178 0.0
C282 C 0.19224 0.4349 0.52801 0.0
C283 C 0.16843 0.46827 0.48445 0.0
C284 C 0.19345 0.46079 0.53358 0.0
N285 N 0.18175 0.4771 0.51179 0.0
C286 C 0.16681 0.4425 0.47809 0.0
C287 C 0.17883 0.42575 0.50004 0.0
C288 C 0.13092 0.53162 0.50502 0.0
C289 C 0.1651 0.60357 0.60148 0.0
C290 C 0.13214 0.59633 0.54761 0.0
C291 C 0.12328 0.60654 0.57824 0.0
C292 C 0.13991 0.61013 0.60533 0.0
N293 N 0.15686 0.58991 0.54403 0.0
C294 C 0.17329 0.59345 0.57045 0.0
Co295 Co 0.48404 0.1833 0.02363 0.0
Co296 Co 0.42331 0.16957 -0.00159 0.0
O297 O 0.44764 0.18563 0.02868 0.0
C298 C 0.47346 0.16462 0.09295 0.0
O299 O 0.45468 0.15206 0.07956 0.0
C300 C 0.41043 0.22345 -0.00322 0.0
O301 O 0.43437 0.22798 0.99162 0.0
O302 O 0.44127 0.18196 0.95702 0.0
O303 O 0.48134 0.188 0.97319 0.0
H304 H 0.39583 0.1174 0.89806 0.0
H305 H 0.46214 0.2192 0.07336 0.0
O306 O 0.48743 0.1783 0.07416 0.0
H307 H 0.51061 0.27112 0.99238 0.0
H308 H 0.57343 0.20038 0.05855 0.0
H309 H 0.5185 0.15816 0.9748 0.0
H310 H 0.50944 0.22501 0.9862 0.0
H311 H 0.52731 0.20338 0.06352 0.0
O312 O 0.40259 0.20091 -0.00076 0.0
H313 H 0.42656 0.13727 0.93679 0.0
H314 H 0.36734 0.1689 0.99553 0.0
H315 H 0.56451 0.15484 0.9687 0.0
H316 H 0.46291 0.26523 0.0806 0.0
H317 H 0.5923 0.17605 0.01079 0.0
H318 H 0.48722 0.29152 0.03985 0.0
O319 O 0.4823 0.14627 0.01745 0.0
H320 H 0.3848 0.17788 0.11526 0.0
H321 H 0.40273 0.11989 0.01997 0.0
H322 H 0.38145 0.10394 0.07161 0.0
H323 H 0.37232 0.13304 0.11972 0.0
H324 H 0.40627 0.19298 0.06328 0.0
H325 H 0.33596 0.14954 0.95728 0.0
H326 H 0.35017 0.1235 0.90821 0.0
O327 O 0.44358 0.13795 -0.00259 0.0
C328 C 0.4641 0.18752 0.95055 0.0
C329 C 0.38941 0.12864 0.91942 0.0
C330 C 0.3558 0.14671 0.95263 0.0
N331 N 0.39874 0.15404 0.96853 0.0
C332 C 0.40672 0.13987 0.94149 0.0
C333 C 0.37365 0.15766 0.97415 0.0
C334 C 0.36379 0.13209 0.92511 0.0
C335 C 0.47297 0.2305 0.05574 0.0
N336 N 0.48585 0.21943 0.02952 0.0
C337 C 0.47325 0.25656 0.05988 0.0
C338 C 0.48686 0.2713 0.03698 0.0
C339 C 0.49997 0.25986 0.01032 0.0
C340 C 0.49922 0.23375 0.00693 0.0
C341 C 0.56151 0.1911 0.04001 0.0
C342 C 0.53048 0.16758 0.99307 0.0
C343 C 0.5354 0.1927 0.04273 0.0
N344 N 0.52025 0.18113 0.0193 0.0
C345 C 0.55651 0.16557 0.98955 0.0
C346 C 0.57209 0.17746 0.0132 0.0
C347 C 0.4657 0.13117 0.006 0.0
C348 C 0.38862 0.16503 0.09444 0.0
C349 C 0.39893 0.13264 0.04084 0.0
C350 C 0.3868 0.12352 0.06998 0.0
C351 C 0.38166 0.13986 0.09695 0.0
N352 N 0.40571 0.15734 0.03857 0.0
C353 C 0.40068 0.17349 0.06488 0.0
Co354 Co 0.8161 0.48376 0.52374 0.0
Co355 Co 0.83039 0.42319 0.49817 0.0
O356 O 0.81387 0.4473 0.52837 0.0
C357 C 0.83442 0.47294 0.59318 0.0
O358 O 0.84697 0.45411 0.57986 0.0
C359 C 0.77656 0.41032 0.49469 0.0
O360 O 0.77207 0.43439 0.49079 0.0
O361 O 0.81862 0.44145 0.45671 0.0
O362 O 0.81164 0.48129 0.47326 0.0
H363 H 0.88414 0.39658 0.3989 0.0
H364 H 0.78006 0.46152 0.57298 0.0
O365 O 0.82086 0.48695 0.57432 0.0
H366 H 0.7283 0.51015 0.49203 0.0
H367 H 0.79846 0.5729 0.55941 0.0
H368 H 0.84131 0.51856 0.47548 0.0
H369 H 0.77444 0.50915 0.48619 0.0
H370 H 0.79563 0.52675 0.56388 0.0
O371 O 0.79906 0.40244 0.49757 0.0
H372 H 0.86363 0.42697 0.43754 0.0
H373 H 0.83121 0.36725 0.49443 0.0
H374 H 0.84447 0.56461 0.46988 0.0
H375 H 0.73399 0.46213 0.5799 0.0
H376 H 0.82294 0.59211 0.51205 0.0
H377 H 0.70779 0.48652 0.53917 0.0
O378 O 0.85317 0.48224 0.51789 0.0
H379 H 0.82025 0.38376 0.61412 0.0
H380 H 0.87975 0.40251 0.52089 0.0
H381 H 0.8949 0.38086 0.57268 0.0
H382 H 0.86503 0.37133 0.61975 0.0
H383 H 0.80596 0.4056 0.56201 0.0
H384 H 0.85119 0.33621 0.45625 0.0
H385 H 0.87796 0.35083 0.40816 0.0
O386 O 0.86198 0.44348 0.4984 0.0
C387 C 0.8127 0.46421 0.45042 0.0
C388 C 0.87259 0.38998 0.41983 0.0
C389 C 0.85407 0.35609 0.45199 0.0
N390 N 0.84642 0.39888 0.46835 0.0
C391 C 0.861 0.40709 0.44185 0.0
C392 C 0.84276 0.37375 0.47348 0.0
C393 C 0.86909 0.36431 0.42502 0.0
C394 C 0.7688 0.47238 0.55537 0.0
N395 N 0.77993 0.4854 0.52934 0.0
C396 C 0.74272 0.47257 0.55933 0.0
C397 C 0.72803 0.48623 0.53643 0.0
C398 C 0.73952 0.49948 0.50997 0.0
C399 C 0.76565 0.49881 0.50675 0.0
C400 C 0.80787 0.56112 0.54083 0.0
C401 C 0.83175 0.53041 0.49379 0.0
C402 C 0.80638 0.53498 0.54326 0.0
N403 N 0.81812 0.52 0.51979 0.0
C404 C 0.83367 0.55647 0.49055 0.0
C405 C 0.82161 0.57188 0.51425 0.0
C406 C 0.86852 0.46568 0.50695 0.0
C407 C 0.83343 0.38776 0.59375 0.0
C408 C 0.86667 0.39852 0.5413 0.0
C409 C 0.87534 0.38619 0.57053 0.0
C410 C 0.85857 0.38082 0.59692 0.0
N411 N 0.84199 0.40528 0.53839 0.0
C412 C 0.82543 0.40003 0.56412 0.0
Co413 Co 0.51261 0.81615 0.02013 0.0
Co414 Co 0.57435 0.83108 0.00141 0.0
O415 O 0.54867 0.81438 0.02881 0.0
C416 C 0.51931 0.8354 0.08989 0.0
O417 O 0.53817 0.84848 0.07763 0.0
C418 C 0.58804 0.77737 -7e-05 0.0
O419 O 0.56439 0.77257 0.99301 0.0
O420 O 0.55884 0.81892 0.95812 0.0
O421 O 0.51819 0.81139 0.9701 0.0
H422 H 0.60651 0.88469 0.90515 0.0
H423 H 0.53223 0.78071 0.07215 0.0
O424 O 0.50649 0.82123 0.07025 0.0
H425 H 0.48918 0.72787 0.98671 0.0
H426 H 0.42185 0.79771 0.04612 0.0
H427 H 0.48052 0.84049 0.96775 0.0
H428 H 0.49004 0.77397 0.98041 0.0
H429 H 0.46761 0.79557 0.05578 0.0
O430 O 0.59542 0.79999 0.00353 0.0
H431 H 0.57402 0.864 0.94027 0.0
H432 H 0.63031 0.83252 0.0042 0.0
H433 H 0.43492 0.84295 0.95696 0.0
H434 H 0.53169 0.73469 0.07956 0.0
H435 H 0.40525 0.82146 -0.00368 0.0
H436 H 0.51012 0.70795 0.03658 0.0
O437 O 0.51403 0.85318 0.0139 0.0
H438 H 0.6062 0.8219 0.12175 0.0
H439 H 0.59313 0.88073 0.02601 0.0
H440 H 0.61115 0.89635 0.08009 0.0
H441 H 0.6178 0.86682 0.12844 0.0
H442 H 0.58801 0.80714 0.06733 0.0
H443 H 0.66342 0.85271 0.96962 0.0
H444 H 0.65157 0.8791 0.91978 0.0
O445 O 0.55378 0.86247 -0.00095 0.0
C446 C 0.53663 0.81261 0.94929 0.0
C447 C 0.6119 0.87331 0.92688 0.0
C448 C 0.64385 0.85533 0.96303 0.0
N449 N 0.60027 0.84725 0.9744 0.0
C450 C 0.59359 0.86161 0.94691 0.0
C451 C 0.62502 0.8439 0.98246 0.0
C452 C 0.63719 0.87014 0.93508 0.0
C453 C 0.52258 0.76921 0.05353 0.0
N454 N 0.51105 0.78001 0.026 0.0
C455 C 0.52243 0.74316 0.05778 0.0
C456 C 0.51035 0.72816 0.03363 0.0
C457 C 0.49862 0.73933 0.00563 0.0
C458 C 0.49919 0.76543 0.00218 0.0
C459 C 0.43459 0.80711 0.02875 0.0
C460 C 0.46772 0.83095 0.98486 0.0
C461 C 0.46051 0.806 0.03412 0.0
N462 N 0.4767 0.81771 0.01217 0.0
C463 C 0.44192 0.83248 0.97868 0.0
C464 C 0.42529 0.82043 0.0008 0.0
C465 C 0.53101 0.86872 0.00484 0.0
C466 C 0.60345 0.83493 0.10084 0.0
C467 C 0.59588 0.8678 0.04696 0.0
C468 C 0.60616 0.87673 0.0775 0.0
C469 C 0.60991 0.86015 0.1046 0.0
N470 N 0.58955 0.84304 0.04348 0.0
C471 C 0.59325 0.82666 0.06991 0.0
C472 C 0.19513 0.50388 0.13881 0.0
C473 C 0.19291 0.47813 0.13119 0.0
C474 C 0.19837 0.51192 0.17253 0.0
C475 C 0.21739 0.49095 0.2586 0.0
H476 H 0.17249 0.54345 0.29015 0.0
C477 C 0.19688 0.50774 0.40123 0.0
C478 C 0.19237 0.53237 0.41275 0.0
C479 C 0.20029 0.5028 0.36648 0.0
C480 C 0.18553 0.52912 0.2817 0.0
H481 H 0.19318 0.44064 0.15309 0.0
H482 H 0.19887 0.45475 0.21185 0.0
H483 H 0.17272 0.53175 0.22994 0.0
H484 H 0.18887 0.57126 0.3967 0.0
H485 H 0.19531 0.56264 0.33611 0.0
H486 H 0.23009 0.48815 0.31037 0.0
C487 C 0.19819 0.46867 0.19166 0.0
C488 C 0.18561 0.52238 0.24717 0.0
C489 C 0.19477 0.46061 0.15798 0.0
C490 C 0.19213 0.55204 0.38874 0.0
C491 C 0.19569 0.54709 0.35395 0.0
C492 C 0.21745 0.4978 0.2931 0.0
C493 C 0.19966 0.49442 0.19934 0.0
C494 C 0.20123 0.50294 0.23538 0.0
C495 C 0.19945 0.52235 0.34236 0.0
C496 C 0.20119 0.51667 0.30519 0.0
H497 H 0.19388 0.51793 0.11884 0.0
H498 H 0.19969 0.53188 0.17768 0.0
H499 H 0.22989 0.47614 0.25011 0.0
H500 H 0.19717 0.49209 0.41891 0.0
H501 H 0.20277 0.48348 0.35848 0.0
C502 C 0.54617 0.19421 0.65795 0.0
C503 C 0.52717 0.1925 0.63307 0.0
C504 C 0.54006 0.19752 0.69241 0.0
C505 C 0.48771 0.21486 0.75111 0.0
H506 H 0.52524 0.17459 0.81603 0.0
C507 C 0.45332 0.19253 0.88834 0.0
C508 C 0.47134 0.19282 0.91466 0.0
C509 C 0.46059 0.19573 0.85425 0.0
C510 C 0.51479 0.18622 0.7983 0.0
H511 H 0.48681 0.19365 0.62497 0.0
H512 H 0.47621 0.1988 0.68499 0.0
H513 H 0.5373 0.17439 0.75604 0.0
H514 H 0.51109 0.19761 0.92567 0.0
H515 H 0.5236 0.2031 0.86631 0.0
H516 H 0.46473 0.22603 0.79354 0.0
C517 C 0.49586 0.19802 0.67786 0.0
C518 C 0.52174 0.18618 0.76388 0.0
C519 C 0.50196 0.19489 0.64339 0.0
C520 C 0.49667 0.19711 0.90613 0.0
C521 C 0.50391 0.20017 0.87208 0.0
C522 C 0.48064 0.21476 0.78557 0.0
C523 C 0.51481 0.19903 0.70287 0.0
C524 C 0.50819 0.20035 0.73979 0.0
C525 C 0.48601 0.19915 0.84575 0.0
C526 C 0.49404 0.20032 0.80946 0.0
H527 H 0.56579 0.19266 0.65092 0.0
H528 H 0.55515 0.19869 0.71091 0.0
H529 H 0.47709 0.2263 0.73335 0.0
H530 H 0.43365 0.18929 0.89394 0.0
H531 H 0.4464 0.19467 0.83445 0.0
C532 C 0.80796 0.45357 0.38815 0.0
C533 C 0.80754 0.47153 0.41455 0.0
C534 C 0.80473 0.46089 0.3541 0.0
C535 C 0.81391 0.51517 0.29833 0.0
H536 H 0.77373 0.47746 0.23347 0.0
C537 C 0.80546 0.54661 0.15811 0.0
C538 C 0.80712 0.52764 0.13318 0.0
C539 C 0.80229 0.54047 0.19258 0.0
C540 C 0.7852 0.48807 0.25121 0.0
H541 H 0.80256 0.51123 0.42576 0.0
H542 H 0.79704 0.52384 0.36645 0.0
H543 H 0.77418 0.46505 0.29362 0.0
H544 H 0.80605 0.48729 0.12499 0.0
H545 H 0.80115 0.47664 0.18502 0.0
H546 H 0.8256 0.53772 0.25607 0.0
C547 C 0.80007 0.50416 0.37213 0.0
C548 C 0.7854 0.48098 0.28564 0.0
C549 C 0.80314 0.49686 0.40615 0.0
C550 C 0.80485 0.50242 0.14345 0.0
C551 C 0.80185 0.49629 0.17793 0.0
C552 C 0.81386 0.52214 0.26394 0.0
C553 C 0.80116 0.48631 0.34573 0.0
C554 C 0.79988 0.49438 0.30949 0.0
C555 C 0.80087 0.51522 0.20298 0.0
C556 C 0.79965 0.50858 0.23988 0.0
H557 H 0.81126 0.43391 0.39366 0.0
H558 H 0.80585 0.44675 0.33422 0.0
H559 H 0.82556 0.52562 0.31605 0.0
H560 H 0.80692 0.56625 0.15111 0.0
H561 H 0.80113 0.55555 0.21111 0.0
C562 C 0.5513 0.80732 0.88863 0.0
C563 C 0.53168 0.80714 0.91274 0.0
C564 C 0.54627 0.80372 0.85387 0.0
C565 C 0.49684 0.78196 0.79329 0.0
H566 H 0.53084 0.82645 0.72986 0.0
C567 C 0.45971 0.80427 0.65802 0.0
C568 C 0.47726 0.80606 0.63122 0.0
C569 C 0.46775 0.80093 0.69173 0.0
C570 C 0.52145 0.81363 0.74717 0.0
H571 H 0.49141 0.8024 0.91912 0.0
H572 H 0.48266 0.79673 0.85873 0.0
H573 H 0.54256 0.82682 0.79004 0.0
H574 H 0.51706 0.80504 0.6189 0.0
H575 H 0.53097 0.79936 0.67777 0.0
H576 H 0.47514 0.76944 0.75039 0.0
C577 C 0.502 0.79919 0.86664 0.0
C578 C 0.5282 0.81378 0.78168 0.0
C579 C 0.50703 0.80265 0.90135 0.0
C580 C 0.503 0.80384 0.63887 0.0
C581 C 0.51101 0.80068 0.67261 0.0
C582 C 0.48997 0.78194 0.7588 0.0
C583 C 0.5215 0.79998 0.84241 0.0
C584 C 0.51575 0.7982 0.80526 0.0
C585 C 0.49349 0.79947 0.69942 0.0
C586 C 0.50199 0.798 0.73547 0.0
H587 H 0.57055 0.81056 0.89648 0.0
H588 H 0.56179 0.80405 0.83596 0.0
H589 H 0.48718 0.76938 0.81063 0.0
H590 H 0.43975 0.80587 0.65311 0.0
H591 H 0.45381 0.80031 0.71191 0.0
C592 C 0.83124 0.50211 0.64285 0.0
C593 C 0.8357 0.47785 0.63022 0.0
C594 C 0.8321 0.50685 0.67794 0.0
C595 C 0.85288 0.4789 0.76096 0.0
H596 H 0.80813 0.52952 0.79823 0.0
C597 C 0.82944 0.49257 0.90513 0.0
C598 C 0.8347 0.51677 0.9176 0.0
C599 C 0.83057 0.48761 0.87007 0.0
C600 C 0.82077 0.51542 0.78803 0.0
H601 H 0.84433 0.43943 0.64413 0.0
H602 H 0.84458 0.44731 0.70553 0.0
H603 H 0.80754 0.52076 0.73708 0.0
H604 H 0.84496 0.55479 0.9034 0.0
H605 H 0.84604 0.54621 0.84183 0.0
H606 H 0.86509 0.47294 0.81265 0.0
C607 C 0.84132 0.46297 0.68846 0.0
C608 C 0.82063 0.51048 0.75297 0.0
C609 C 0.84102 0.45837 0.65326 0.0
C610 C 0.84093 0.53595 0.89444 0.0
C611 C 0.84148 0.53111 0.85933 0.0
C612 C 0.85258 0.48348 0.79616 0.0
C613 C 0.83684 0.4873 0.70131 0.0
C614 C 0.83682 0.49228 0.73885 0.0
C615 C 0.83638 0.50689 0.84695 0.0
C616 C 0.83664 0.50188 0.80986 0.0
H617 H 0.82736 0.51754 0.62557 0.0
H618 H 0.82921 0.52595 0.68661 0.0
H619 H 0.86595 0.46509 0.75113 0.0
H620 H 0.82468 0.47744 0.92248 0.0
H621 H 0.82647 0.46883 0.86094 0.0
C622 C 0.53252 0.84263 0.15031 0.0
C623 C 0.51363 0.8363 0.12675 0.0
C624 C 0.52747 0.84252 0.18536 0.0
C625 C 0.47998 0.85169 0.2489 0.0
H626 H 0.51769 0.80556 0.3059 0.0
C627 C 0.45721 0.83894 0.39251 0.0
C628 C 0.47715 0.83344 0.41475 0.0
C629 C 0.46106 0.83931 0.35713 0.0
C630 C 0.50728 0.81893 0.2906 0.0
H631 H 0.47455 0.82551 0.12113 0.0
H632 H 0.46555 0.8262 0.18267 0.0
H633 H 0.52589 0.80718 0.24465 0.0
H634 H 0.51686 0.8248 0.41775 0.0
H635 H 0.52396 0.82675 0.35645 0.0
H636 H 0.4621 0.86437 0.29468 0.0
C637 C 0.48427 0.83087 0.17385 0.0
C638 C 0.51188 0.81965 0.25548 0.0
C639 C 0.48946 0.83039 0.1388 0.0
C640 C 0.50108 0.82879 0.40111 0.0
C641 C 0.50507 0.82972 0.36587 0.0
C642 C 0.47574 0.8514 0.28419 0.0
C643 C 0.50332 0.83666 0.19734 0.0
C644 C 0.49826 0.83599 0.2344 0.0
C645 C 0.48507 0.83472 0.34329 0.0
C646 C 0.48934 0.835 0.30558 0.0
H647 H 0.55134 0.84715 0.14171 0.0
H648 H 0.54239 0.84709 0.20315 0.0
H649 H 0.46938 0.86454 0.23299 0.0
H650 H 0.4385 0.84241 0.40241 0.0
H651 H 0.44508 0.84279 0.34069 0.0
C652 C 0.16028 0.45774 0.89251 0.0
C653 C 0.16591 0.4777 0.91466 0.0
C654 C 0.16007 0.46145 0.8571 0.0
C655 C 0.18113 0.50719 0.79042 0.0
H656 H 0.13504 0.46979 0.73287 0.0
C657 C 0.15727 0.53267 0.65031 0.0
C658 C 0.1635 0.51379 0.62668 0.0
C659 C 0.15743 0.52759 0.68534 0.0
C660 C 0.14803 0.48025 0.74876 0.0
H661 H 0.17498 0.51733 0.91746 0.0
H662 H 0.17331 0.5242 0.85611 0.0
H663 H 0.13511 0.4626 0.79458 0.0
H664 H 0.17417 0.4747 0.62089 0.0
H665 H 0.17357 0.46562 0.68241 0.0
H666 H 0.19309 0.52558 0.74444 0.0
C667 C 0.17011 0.50538 0.86563 0.0
C668 C 0.14825 0.47605 0.78406 0.0
C669 C 0.17087 0.50153 0.9009 0.0
C670 C 0.16937 0.4896 0.63862 0.0
C671 C 0.16895 0.48437 0.67365 0.0
C672 C 0.18047 0.51174 0.75529 0.0
C673 C 0.16496 0.48536 0.84315 0.0
C674 C 0.16481 0.4895 0.80543 0.0
C675 C 0.16324 0.50341 0.69722 0.0
C676 C 0.16394 0.49831 0.73425 0.0
H677 H 0.15658 0.43911 0.9025 0.0
H678 H 0.15647 0.44545 0.84074 0.0
H679 H 0.19461 0.51746 0.80571 0.0
H680 H 0.15279 0.55152 0.64179 0.0
H681 H 0.15294 0.5425 0.7032 0.0
C682 C 0.49187 0.16939 0.40506 0.0
C683 C 0.51594 0.16382 0.41772 0.0
C684 C 0.48707 0.16837 0.36996 0.0
C685 C 0.51522 0.17804 0.28817 0.0
H686 H 0.46503 0.13296 0.25076 0.0
C687 C 0.50247 0.16785 0.1428 0.0
C688 C 0.47828 0.16333 0.13001 0.0
C689 C 0.50709 0.16696 0.17792 0.0
C690 C 0.4788 0.14601 0.26072 0.0
H691 H 0.55391 0.15311 0.40379 0.0
H692 H 0.54562 0.15222 0.34214 0.0
H693 H 0.47259 0.13374 0.31234 0.0
H694 H 0.43982 0.1546 0.1437 0.0
H695 H 0.44747 0.15431 0.20513 0.0
H696 H 0.52081 0.19134 0.2373 0.0
C697 C 0.53049 0.15694 0.35954 0.0
C698 C 0.48321 0.14626 0.29596 0.0
C699 C 0.53516 0.15738 0.39469 0.0
C700 C 0.45872 0.15795 0.15293 0.0
C701 C 0.46319 0.15762 0.18816 0.0
C702 C 0.51045 0.17824 0.25307 0.0
C703 C 0.50639 0.16235 0.34698 0.0
C704 C 0.50155 0.16216 0.30985 0.0
C705 C 0.48746 0.16213 0.20118 0.0
C706 C 0.49229 0.16209 0.23876 0.0
H707 H 0.47672 0.17432 0.42231 0.0
H708 H 0.46838 0.1727 0.36069 0.0
H709 H 0.52928 0.19065 0.29851 0.0
H710 H 0.51795 0.17179 0.12561 0.0
H711 H 0.52614 0.16989 0.18671 0.0
C712 C 0.91189 0.53974 0.0601 0.0
C713 C 0.89494 0.52427 0.04229 0.0
C714 C 0.93741 0.5337 0.06148 0.0
C715 C 0.99209 0.52527 0.04366 0.0
H716 H 0.01331 0.45567 0.04756 0.0
C717 C 0.09527 0.49633 0.02217 0.0
C718 C 0.10486 0.47607 0.04118 0.0
C719 C 0.06972 0.50225 0.02342 0.0
C720 C 0.00776 0.47524 0.0469 0.0
H721 H 0.89163 0.49034 0.01181 0.0
H722 H 0.93614 0.48023 0.01337 0.0
H723 H 0.96879 0.46573 0.04916 0.0
H724 H 0.09512 0.44643 0.07691 0.0
H725 H 0.05077 0.45723 0.07988 0.0
H726 H 0.03108 0.53483 0.04264 0.0
C727 C 0.92967 0.4967 0.02704 0.0
C728 C 0.98216 0.481 0.04728 0.0
C729 C 0.90411 0.50259 0.02597 0.0
C730 C 0.08834 0.46205 0.06175 0.0
C731 C 0.06284 0.46816 0.06329 0.0
C732 C 0.0177 0.51953 0.04362 0.0
C733 C 0.94667 0.51219 0.04478 0.0
C734 C 0.97397 0.50608 0.04542 0.0
C735 C 0.05316 0.48825 0.04399 0.0
C736 C 0.02588 0.49442 0.04499 0.0
H737 H 0.90545 0.5565 0.07315 0.0
H738 H 0.94985 0.54583 0.07588 0.0
H739 H 0.98653 0.54479 0.04177 0.0
H740 H 0.10742 0.50741 0.00585 0.0
H741 H 0.06291 0.51756 0.00772 0.0
C742 C 0.49535 0.90381 0.5229 0.0
C743 C 0.47493 0.89414 0.54151 0.0
C744 C 0.50123 0.92936 0.52441 0.0
C745 C 0.51826 0.98131 0.54527 0.0
H746 H 0.46436 0.03016 0.55001 0.0
C747 C 0.53828 0.08714 0.56183 0.0
C748 C 0.52301 0.10401 0.5436 0.0
C749 C 0.5322 0.06163 0.56334 0.0
C750 C 0.47966 0.01681 0.54838 0.0
H751 H 0.44493 0.90373 0.57681 0.0
H752 H 0.45564 0.94807 0.58023 0.0
H753 H 0.45437 0.98565 0.5481 0.0
H754 H 0.48935 0.10723 0.51256 0.0
H755 H 0.47918 0.06276 0.51435 0.0
H756 H 0.54352 0.0125 0.54396 0.0
C757 C 0.46675 0.93607 0.56374 0.0
C758 C 0.47393 0.9912 0.5478 0.0
C759 C 0.46069 0.91057 0.56194 0.0
C760 C 0.50145 0.0948 0.52705 0.0
C761 C 0.49552 0.06926 0.52825 0.0
C762 C 0.52399 0.00692 0.5455 0.0
C763 C 0.48702 0.94583 0.54486 0.0
C764 C 0.49315 0.97311 0.54615 0.0
C765 C 0.51084 0.05232 0.54635 0.0
C766 C 0.50476 0.02502 0.54696 0.0
H767 H 0.50661 0.89172 0.5067 0.0
H768 H 0.51668 0.93624 0.50902 0.0
H769 H 0.53359 0.96795 0.5445 0.0
H770 H 0.55494 0.09362 0.57507 0.0
H771 H 0.54419 0.04924 0.57802 0.0
C772 C 0.09664 0.49939 0.50232 0.0
C773 C 0.10403 0.52475 0.50214 0.0
C774 C 0.07125 0.49288 0.50076 0.0
C775 C 0.00796 0.5185 0.48001 0.0
H776 H 0.98525 0.46214 0.53474 0.0
C777 C 0.90322 0.49759 0.50819 0.0
C778 C 0.89546 0.47246 0.5045 0.0
C779 C 0.92866 0.50392 0.50628 0.0
C780 C 0.99137 0.47779 0.5191 0.0
H781 H 0.0904 0.56314 0.49968 0.0
H782 H 0.04618 0.55182 0.49813 0.0
H783 H 0.02961 0.47336 0.53452 0.0
H784 H 0.90849 0.43436 0.4955 0.0
H785 H 0.95286 0.44545 0.49274 0.0
H786 H 0.96943 0.52321 0.46544 0.0
C787 C 0.06 0.53691 0.49874 0.0
C788 C 0.01681 0.48418 0.51883 0.0
C789 C 0.08542 0.54342 0.49989 0.0
C790 C 0.91375 0.45387 0.49865 0.0
C791 C 0.93919 0.46017 0.49716 0.0
C792 C 0.98246 0.51225 0.4806 0.0
C793 C 0.05257 0.51155 0.49936 0.0
C794 C 0.02547 0.50461 0.49925 0.0
C795 C 0.9469 0.48524 0.50102 0.0
C796 C 0.97394 0.49182 0.50013 0.0
H797 H 0.11047 0.48449 0.50363 0.0
H798 H 0.06629 0.47315 0.50054 0.0
H799 H 0.01396 0.53407 0.46418 0.0
H800 H 0.88966 0.51242 0.51257 0.0
H801 H 0.93412 0.52337 0.50957 0.0
C802 C 0.54268 0.9142 -0.00065 0.0
C803 C 0.52405 0.89557 0.00179 0.0
C804 C 0.53611 0.93959 -0.0021 0.0
C805 C 0.48328 0.98285 0.01732 0.0
H806 H 0.5226 0.02993 0.96378 0.0
C807 C 0.45362 0.0861 -0.0031 0.0
C808 C 0.47232 0.10422 0.0031 0.0
C809 C 0.45974 0.06062 0.99525 0.0
C810 C 0.51155 0.01698 0.97896 0.0
H811 H 0.48381 0.88905 0.00335 0.0
H812 H 0.47236 0.93318 -0.00026 0.0
H813 H 0.53332 0.98536 0.96283 0.0
H814 H 0.51228 0.10968 0.01152 0.0
H815 H 0.52292 0.06516 0.0082 0.0
H816 H 0.46129 0.01454 0.03293 0.0
C817 C 0.4921 0.92827 3e-05 0.0
C818 C 0.51772 0.99146 0.97856 0.0
C819 C 0.49868 0.9029 0.00189 0.0
C820 C 0.49737 0.09625 0.00688 0.0
C821 C 0.50352 0.07078 0.00479 0.0
C822 C 0.47695 0.0083 0.01738 0.0
C823 C 0.51074 0.94698 -0.00161 0.0
C824 C 0.50376 0.97407 -0.00209 0.0
C825 C 0.48473 0.05271 -0.00073 0.0
C826 C 0.49111 0.02563 -0.00162 0.0
H827 H 0.56241 0.90927 -0.00081 0.0
H828 H 0.55101 0.95343 -0.00285 0.0
H829 H 0.47239 0.97015 0.03307 0.0
H830 H 0.43416 0.09152 0.99365 0.0
H831 H 0.44493 0.04707 0.99063 0.0
C832 C 0.23931 0.36966 0.04942 0.0
C833 C 0.24449 0.39553 0.05047 0.0
C834 C 0.25871 0.35227 0.0455 0.0
C835 C 0.32306 0.34566 0.01288 0.0
H836 H 0.32144 0.28336 0.06422 0.0
C837 C 0.40099 0.26942 0.00347 0.0
C838 C 0.39259 0.24439 0.00211 0.0
C839 C 0.3841 0.28894 0.01032 0.0
C840 C 0.32205 0.30058 0.04948 0.0
H841 H 0.27414 0.42346 0.04832 0.0
H842 H 0.30813 0.39294 0.04158 0.0
H843 H 0.29001 0.31558 0.07541 0.0
H844 H 0.35979 0.22032 0.00617 0.0
H845 H 0.33047 0.25427 0.01766 0.0
H846 H 0.35497 0.33043 0.98664 0.0
C847 C 0.28899 0.38619 0.04363 0.0
C848 C 0.30407 0.31905 0.05593 0.0
C849 C 0.26955 0.40364 0.04771 0.0
C850 C 0.36694 0.23936 0.0072 0.0
C851 C 0.35013 0.25882 0.01404 0.0
C852 C 0.34109 0.32714 0.0064 0.0
C853 C 0.28375 0.36032 0.04244 0.0
C854 C 0.30411 0.34163 0.03734 0.0
C855 C 0.35853 0.2838 0.01603 0.0
C856 C 0.34052 0.30423 0.02426 0.0
H857 H 0.22022 0.36276 0.05137 0.0
H858 H 0.254 0.3325 0.04417 0.0
H859 H 0.32345 0.36278 -0.00208 0.0
H860 H 0.42066 0.2739 -0.00018 0.0
H861 H 0.39116 0.30799 0.01189 0.0
C862 C 0.76045 0.3663 0.49792 0.0
C863 C 0.75555 0.39223 0.49717 0.0
C864 C 0.74086 0.34909 0.50136 0.0
C865 C 0.67639 0.34291 0.53343 0.0
H866 H 0.67723 0.28116 0.48076 0.0
C867 C 0.59739 0.26792 0.54184 0.0
C868 C 0.6053 0.24272 0.54256 0.0
C869 C 0.61458 0.28718 0.53508 0.0
C870 C 0.67683 0.29822 0.49588 0.0
H871 H 0.72618 0.42046 0.49934 0.0
H872 H 0.69184 0.39025 0.50532 0.0
H873 H 0.70915 0.31306 0.47039 0.0
H874 H 0.63754 0.21804 0.53726 0.0
H875 H 0.66743 0.25154 0.52598 0.0
H876 H 0.64426 0.32784 0.55929 0.0
C877 C 0.71092 0.38332 0.50338 0.0
C878 C 0.69509 0.3165 0.48989 0.0
C879 C 0.73056 0.40058 0.49973 0.0
C880 C 0.63077 0.23723 0.53676 0.0
C881 C 0.6479 0.25643 0.53003 0.0
C882 C 0.6581 0.32456 0.53948 0.0
C883 C 0.71589 0.35738 0.50427 0.0
C884 C 0.69531 0.33888 0.50893 0.0
C885 C 0.64 0.28161 0.52885 0.0
C886 C 0.65836 0.30184 0.52112 0.0
H887 H 0.77949 0.35921 0.49607 0.0
H888 H 0.74534 0.32926 0.50245 0.0
H889 H 0.6762 0.35987 0.54874 0.0
H890 H 0.57786 0.27276 0.54604 0.0
H891 H 0.60787 0.30637 0.5341 0.0
C892 C 0.76077 0.63154 0.04555 0.0
C893 C 0.75557 0.60568 0.04707 0.0
C894 C 0.74134 0.64894 0.0422 0.0
C895 C 0.67649 0.65578 0.01197 0.0
H896 H 0.67859 0.71742 0.0648 0.0
C897 C 0.59801 0.73147 0.0057 0.0
C898 C 0.60609 0.75661 0.00516 0.0
C899 C 0.61513 0.71204 0.01193 0.0
C900 C 0.67784 0.70041 0.04962 0.0
H901 H 0.72584 0.57779 0.04615 0.0
H902 H 0.69179 0.60835 0.04025 0.0
H903 H 0.71041 0.68528 0.07413 0.0
H904 H 0.63855 0.78102 0.01016 0.0
H905 H 0.66831 0.74726 0.02043 0.0
H906 H 0.64412 0.67115 0.98704 0.0
C907 C 0.71098 0.61506 0.04158 0.0
C908 C 0.69605 0.68198 0.05502 0.0
C909 C 0.73046 0.5976 0.04517 0.0
C910 C 0.63165 0.76188 0.01058 0.0
C911 C 0.64871 0.74252 0.01673 0.0
C912 C 0.65827 0.67429 0.00647 0.0
C913 C 0.71623 0.64092 0.04011 0.0
C914 C 0.69579 0.65963 0.03594 0.0
C915 C 0.64065 0.71738 0.01775 0.0
C916 C 0.65897 0.69698 0.02489 0.0
H917 H 0.7799 0.6384 0.04687 0.0
H918 H 0.74602 0.66871 0.04065 0.0
H919 H 0.67594 0.63882 -0.00333 0.0
H920 H 0.57841 0.72679 0.00179 0.0
H921 H 0.60829 0.69289 0.01282 0.0
C922 C 0.40314 0.72915 0.54752 0.0
C923 C 0.39497 0.75414 0.55101 0.0
C924 C 0.3857 0.70964 0.54399 0.0
C925 C 0.31909 0.69395 0.55948 0.0
H926 H 0.32865 0.64426 0.48808 0.0
C927 C 0.23832 0.63139 0.5131 0.0
C928 C 0.2434 0.60599 0.50614 0.0
C929 C 0.25785 0.64814 0.51987 0.0
C930 C 0.32588 0.65777 0.50845 0.0
H931 H 0.36212 0.77822 0.55391 0.0
H932 H 0.33186 0.74431 0.54776 0.0
H933 H 0.36114 0.67577 0.49849 0.0
H934 H 0.27303 0.57827 0.50067 0.0
H935 H 0.30721 0.60763 0.51268 0.0
H936 H 0.2838 0.67621 0.56932 0.0
C937 C 0.35168 0.73972 0.54801 0.0
C938 C 0.34449 0.67581 0.51441 0.0
C939 C 0.36905 0.75918 0.55132 0.0
C940 C 0.2685 0.59776 0.50577 0.0
C941 C 0.28808 0.61457 0.51257 0.0
C942 C 0.30055 0.67594 0.55359 0.0
C943 C 0.35978 0.71475 0.54417 0.0
C944 C 0.34108 0.69434 0.53962 0.0
C945 C 0.28294 0.63992 0.51993 0.0
C946 C 0.30352 0.6579 0.52762 0.0
H947 H 0.42299 0.72467 0.54708 0.0
H948 H 0.39248 0.69056 0.5413 0.0
H949 H 0.31614 0.7077 0.57953 0.0
H950 H 0.21922 0.6384 0.51345 0.0
H951 H 0.25326 0.66763 0.5248 0.0
loop_
_geom_bond_atom_site_label_1
_geom_bond_atom_site_label_2
_geom_bond_distance
_geom_bond_site_symmetry_2
_ccdc_geom_bond_type
Co0 O2 2.143 . S
Co0 O8 2.074 . S
Co0 O11 2.093 1_554 S
Co0 O24 2.097 . S
Co0 N41 2.151 . S
Co0 N49 2.214 . S
Co1 O2 2.160 . S
Co1 O7 2.058 . S
Co1 O17 2.057 . S
Co1 O32 2.037 . S
Co1 N36 2.145 . S
Co1 N57 2.257 . S
O2 Co0 2.143 . S
O2 Co1 2.160 . S
C3 O4 1.278 . S
C3 O11 1.224 . S
O4 C3 1.278 . S
C5 O6 1.245 . S
C5 O17 1.232 . S
O6 C5 1.245 . S
O7 Co1 2.058 . S
O7 C33 1.269 . S
O8 Co0 2.074 . S
O8 C33 1.257 . S
H9 C34 0.930 . S
H10 C40 0.913 1_556 S
O11 Co0 2.093 1_556 S
O11 C3 1.224 . S
H12 C44 0.929 . S
H13 C46 0.930 . S
H14 C47 0.930 . S
H15 C45 0.929 . S
H16 C48 0.928 1_556 S
O17 Co1 2.057 . S
O17 C5 1.232 . S
H18 C37 0.929 . S
H19 C38 0.929 . S
H20 C50 0.931 . S
H21 C42 0.929 1_556 S
H22 C51 0.930 . S
H23 C43 0.931 . S
O24 Co0 2.097 . S
O24 C52 1.214 . S
H25 C53 0.929 . S
H26 C54 0.929 . S
H27 C55 0.930 . S
H28 C56 0.929 . S
H29 C58 0.930 . S
H30 C35 0.930 . S
H31 C39 0.930 . S
O32 Co1 2.037 . S
O32 C52 1.234 . S
C33 O7 1.269 . S
C33 O8 1.257 . S
C34 H9 0.930 . S
C34 C37 1.388 . S
C34 C39 1.418 . S
C35 H30 0.930 . S
C35 C38 1.404 . S
C35 C39 1.353 . S
N36 Co1 2.145 . S
N36 C37 1.397 . S
N36 C38 1.334 . S
C37 H18 0.929 . S
C37 C34 1.388 . S
C37 N36 1.397 . S
C38 H19 0.929 . S
C38 C35 1.404 . S
C38 N36 1.334 . S
C39 H31 0.930 . S
C39 C34 1.418 . S
C39 C35 1.353 . S
C40 H10 0.913 1_554 S
C40 N41 1.347 . S
C40 C42 1.446 . S
N41 Co0 2.151 . S
N41 C40 1.347 . S
N41 C45 1.418 . S
C42 H21 0.929 1_554 S
C42 C40 1.446 . S
C42 C43 1.332 . S
C43 H23 0.931 . S
C43 C42 1.332 . S
C43 C44 1.267 . S
C44 H12 0.929 . S
C44 C43 1.267 . S
C44 C45 1.251 . S
C45 H15 0.929 . S
C45 N41 1.418 . S
C45 C44 1.251 . S
C46 H13 0.930 . S
C46 C48 1.406 . S
C46 C51 1.261 . S
C47 H14 0.930 . S
C47 N49 1.325 . S
C47 C50 1.357 . S
C48 H16 0.928 1_554 S
C48 C46 1.406 . S
C48 N49 1.261 . S
N49 Co0 2.214 . S
N49 C47 1.325 . S
N49 C48 1.261 . S
C50 H20 0.931 . S
C50 C47 1.357 . S
C50 C51 1.312 . S
C51 H22 0.930 . S
C51 C46 1.261 . S
C51 C50 1.312 . S
C52 O24 1.214 . S
C52 O32 1.234 . S
C53 H25 0.929 . S
C53 C56 1.391 . S
C53 C58 1.391 . S
C54 H26 0.929 . S
C54 C55 1.390 1_554 S
C54 N57 1.391 . S
C55 H27 0.930 . S
C55 C54 1.390 1_556 S
C55 C56 1.392 . S
C56 H28 0.929 . S
C56 C53 1.391 . S
C56 C55 1.392 . S
N57 Co1 2.257 . S
N57 C54 1.391 . S
N57 C58 1.388 1_554 S
C58 H29 0.930 . S
C58 C53 1.391 . S
C58 N57 1.388 1_556 S
Co59 O61 2.143 . S
Co59 O67 2.074 . S
Co59 O70 2.093 . S
Co59 O83 2.097 . S
Co59 N100 2.151 . S
Co59 N108 2.214 . S
Co60 O61 2.160 . S
Co60 O66 2.058 . S
Co60 O76 2.057 . S
Co60 O91 2.037 . S
Co60 N95 2.145 . S
Co60 N116 2.257 . S
O61 Co59 2.143 . S
O61 Co60 2.160 . S
C62 O63 1.278 . S
C62 O70 1.224 . S
O63 C62 1.278 . S
C64 O65 1.245 . S
C64 O76 1.232 . S
O65 C64 1.245 . S
O66 Co60 2.058 . S
O66 C92 1.269 . S
O67 Co59 2.074 . S
O67 C92 1.257 . S
H68 C93 0.930 . S
H69 C99 0.930 . S
O70 Co59 2.093 . S
O70 C62 1.224 . S
H71 C103 0.929 . S
H72 C105 0.930 . S
H73 C106 0.930 . S
H74 C104 0.929 . S
H75 C107 0.928 . S
O76 Co60 2.057 . S
O76 C64 1.232 . S
H77 C96 0.929 . S
H78 C97 0.929 . S
H79 C109 0.931 . S
H80 C101 0.929 . S
H81 C110 0.930 . S
H82 C102 0.931 . S
O83 Co59 2.097 . S
O83 C111 1.214 . S
H84 C112 0.929 . S
H85 C113 0.929 . S
H86 C114 0.930 . S
H87 C115 0.929 . S
H88 C117 0.930 . S
H89 C94 0.930 . S
H90 C98 0.930 . S
O91 Co60 2.037 . S
O91 C111 1.234 . S
C92 O66 1.269 . S
C92 O67 1.257 . S
C93 H68 0.930 . S
C93 C96 1.388 . S
C93 C98 1.418 . S
C94 H89 0.930 . S
C94 C97 1.404 . S
C94 C98 1.353 . S
N95 Co60 2.145 . S
N95 C96 1.397 . S
N95 C97 1.334 . S
C96 H77 0.929 . S
C96 C93 1.388 . S
C96 N95 1.397 . S
C97 H78 0.929 . S
C97 C94 1.404 . S
C97 N95 1.334 . S
C98 H90 0.930 . S
C98 C93 1.418 . S
C98 C94 1.353 . S
C99 H69 0.930 . S
C99 N100 1.330 . S
C99 C101 1.446 . S
N100 Co59 2.151 . S
N100 C99 1.330 . S
N100 C104 1.418 . S
C101 H80 0.929 . S
C101 C99 1.446 . S
C101 C102 1.332 . S
C102 H82 0.931 . S
C102 C101 1.332 . S
C102 C103 1.267 . S
C103 H71 0.929 . S
C103 C102 1.267 . S
C103 C104 1.251 . S
C104 H74 0.929 . S
C104 N100 1.418 . S
C104 C103 1.251 . S
C105 H72 0.930 . S
C105 C107 1.406 . S
C105 C110 1.261 . S
C106 H73 0.930 . S
C106 N108 1.325 . S
C106 C109 1.357 . S
C107 H75 0.928 . S
C107 C105 1.406 . S
C107 N108 1.261 . S
N108 Co59 2.214 . S
N108 C106 1.325 . S
N108 C107 1.261 . S
C109 H79 0.931 . S
C109 C106 1.357 . S
C109 C110 1.312 . S
C110 H81 0.930 . S
C110 C105 1.261 . S
C110 C109 1.312 . S
C111 O83 1.214 . S
C111 O91 1.234 . S
C112 H84 0.929 . S
C112 C115 1.391 . S
C112 C117 1.391 . S
C113 H85 0.929 . S
C113 C114 1.390 . S
C113 N116 1.391 . S
C114 H86 0.930 . S
C114 C113 1.390 . S
C114 C115 1.392 . S
C115 H87 0.929 . S
C115 C112 1.391 . S
C115 C114 1.392 . S
N116 Co60 2.257 . S
N116 C113 1.391 . S
N116 C117 1.388 . S
C117 H88 0.930 . S
C117 C112 1.391 . S
C117 N116 1.388 . S
Co118 O120 2.143 . S
Co118 O126 2.074 . S
Co118 O129 2.093 1_554 S
Co118 O142 2.097 . S
Co118 N159 2.151 . S
Co118 N167 2.214 . S
Co119 O120 2.160 . S
Co119 O125 2.058 . S
Co119 O135 2.057 . S
Co119 O150 2.037 . S
Co119 N154 2.145 . S
Co119 N175 2.257 . S
O120 Co118 2.143 . S
O120 Co119 2.160 . S
C121 O122 1.278 . S
C121 O129 1.224 . S
O122 C121 1.278 . S
C123 O124 1.245 . S
C123 O135 1.232 . S
O124 C123 1.245 . S
O125 Co119 2.058 . S
O125 C151 1.269 . S
O126 Co118 2.074 . S
O126 C151 1.257 . S
H127 C152 0.930 . S
H128 C158 0.913 1_556 S
O129 Co118 2.093 1_556 S
O129 C121 1.224 . S
H130 C162 0.929 . S
H131 C164 0.930 . S
H132 C165 0.930 . S
H133 C163 0.929 . S
H134 C166 0.928 1_556 S
O135 Co119 2.057 . S
O135 C123 1.232 . S
H136 C155 0.929 . S
H137 C156 0.929 . S
H138 C168 0.931 . S
H139 C160 0.929 1_556 S
H140 C169 0.930 . S
H141 C161 0.931 . S
O142 Co118 2.097 . S
O142 C170 1.214 . S
H143 C171 0.929 . S
H144 C172 0.929 . S
H145 C173 0.930 . S
H146 C174 0.929 . S
H147 C176 0.930 . S
H148 C153 0.930 . S
H149 C157 0.930 . S
O150 Co119 2.037 . S
O150 C170 1.234 . S
C151 O125 1.269 . S
C151 O126 1.257 . S
C152 H127 0.930 . S
C152 C155 1.388 . S
C152 C157 1.418 . S
C153 H148 0.930 . S
C153 C156 1.404 . S
C153 C157 1.353 . S
N154 Co119 2.145 . S
N154 C155 1.397 . S
N154 C156 1.334 . S
C155 H136 0.929 . S
C155 C152 1.388 . S
C155 N154 1.397 . S
C156 H137 0.929 . S
C156 C153 1.404 . S
C156 N154 1.334 . S
C157 H149 0.930 . S
C157 C152 1.418 . S
C157 C153 1.353 . S
C158 H128 0.913 1_554 S
C158 N159 1.347 . S
C158 C160 1.446 . S
N159 Co118 2.151 . S
N159 C158 1.347 . S
N159 C163 1.418 . S
C160 H139 0.929 1_554 S
C160 C158 1.446 . S
C160 C161 1.332 . S
C161 H141 0.931 . S
C161 C160 1.332 . S
C161 C162 1.267 . S
C162 H130 0.929 . S
C162 C161 1.267 . S
C162 C163 1.251 . S
C163 H133 0.929 . S
C163 N159 1.418 . S
C163 C162 1.251 . S
C164 H131 0.930 . S
C164 C166 1.406 . S
C164 C169 1.261 . S
C165 H132 0.930 . S
C165 N167 1.325 . S
C165 C168 1.357 . S
C166 H134 0.928 1_554 S
C166 C164 1.406 . S
C166 N167 1.261 . S
N167 Co118 2.214 . S
N167 C165 1.325 . S
N167 C166 1.261 . S
C168 H138 0.931 . S
C168 C165 1.357 . S
C168 C169 1.312 . S
C169 H140 0.930 . S
C169 C164 1.261 . S
C169 C168 1.312 . S
C170 O142 1.214 . S
C170 O150 1.234 . S
C171 H143 0.929 . S
C171 C174 1.391 . S
C171 C176 1.391 . S
C172 H144 0.929 . S
C172 C173 1.390 1_554 S
C172 N175 1.391 . S
C173 H145 0.930 . S
C173 C172 1.390 1_556 S
C173 C174 1.392 . S
C174 H146 0.929 . S
C174 C171 1.391 . S
C174 C173 1.392 . S
N175 Co119 2.257 . S
N175 C172 1.391 . S
N175 C176 1.388 1_554 S
C176 H147 0.930 . S
C176 C171 1.391 . S
C176 N175 1.388 1_556 S
Co177 O179 2.143 . S
Co177 O185 2.074 . S
Co177 O188 2.093 . S
Co177 O201 2.097 . S
Co177 N218 2.151 . S
Co177 N226 2.214 . S
Co178 O179 2.160 . S
Co178 O184 2.058 . S
Co178 O194 2.057 . S
Co178 O209 2.037 . S
Co178 N213 2.145 . S
Co178 N234 2.257 . S
O179 Co177 2.143 . S
O179 Co178 2.160 . S
C180 O181 1.278 . S
C180 O188 1.224 . S
O181 C180 1.278 . S
C182 O183 1.245 . S
C182 O194 1.232 . S
O183 C182 1.245 . S
O184 Co178 2.058 . S
O184 C210 1.269 . S
O185 Co177 2.074 . S
O185 C210 1.257 . S
H186 C211 0.930 . S
H187 C217 0.930 . S
O188 Co177 2.093 . S
O188 C180 1.224 . S
H189 C221 0.929 . S
H190 C223 0.930 . S
H191 C224 0.930 . S
H192 C222 0.929 . S
H193 C225 0.928 . S
O194 Co178 2.057 . S
O194 C182 1.232 . S
H195 C214 0.929 . S
H196 C215 0.929 . S
H197 C227 0.931 . S
H198 C219 0.929 . S
H199 C228 0.930 . S
H200 C220 0.931 . S
O201 Co177 2.097 . S
O201 C229 1.214 . S
H202 C230 0.929 . S
H203 C231 0.929 . S
H204 C232 0.930 . S
H205 C233 0.929 . S
H206 C235 0.930 . S
H207 C212 0.930 . S
H208 C216 0.930 . S
O209 Co178 2.037 . S
O209 C229 1.234 . S
C210 O184 1.269 . S
C210 O185 1.257 . S
C211 H186 0.930 . S
C211 C214 1.388 . S
C211 C216 1.418 . S
C212 H207 0.930 . S
C212 C215 1.404 . S
C212 C216 1.353 . S
N213 Co178 2.145 . S
N213 C214 1.397 . S
N213 C215 1.334 . S
C214 H195 0.929 . S
C214 C211 1.388 . S
C214 N213 1.397 . S
C215 H196 0.929 . S
C215 C212 1.404 . S
C215 N213 1.334 . S
C216 H208 0.930 . S
C216 C211 1.418 . S
C216 C212 1.353 . S
C217 H187 0.930 . S
C217 N218 1.330 . S
C217 C219 1.446 . S
N218 Co177 2.151 . S
N218 C217 1.330 . S
N218 C222 1.418 . S
C219 H198 0.929 . S
C219 C217 1.446 . S
C219 C220 1.332 . S
C220 H200 0.931 . S
C220 C219 1.332 . S
C220 C221 1.267 . S
C221 H189 0.929 . S
C221 C220 1.267 . S
C221 C222 1.251 . S
C222 H192 0.929 . S
C222 N218 1.418 . S
C222 C221 1.251 . S
C223 H190 0.930 . S
C223 C225 1.406 . S
C223 C228 1.261 . S
C224 H191 0.930 . S
C224 N226 1.325 . S
C224 C227 1.357 . S
C225 H193 0.928 . S
C225 C223 1.406 . S
C225 N226 1.261 . S
N226 Co177 2.214 . S
N226 C224 1.325 . S
N226 C225 1.261 . S
C227 H197 0.931 . S
C227 C224 1.357 . S
C227 C228 1.312 . S
C228 H199 0.930 . S
C228 C223 1.261 . S
C228 C227 1.312 . S
C229 O201 1.214 . S
C229 O209 1.234 . S
C230 H202 0.929 . S
C230 C233 1.391 . S
C230 C235 1.391 . S
C231 H203 0.929 . S
C231 C232 1.390 . S
C231 N234 1.391 . S
C232 H204 0.930 . S
C232 C231 1.390 . S
C232 C233 1.392 . S
C233 H205 0.929 . S
C233 C230 1.391 . S
C233 C232 1.392 . S
N234 Co178 2.257 . S
N234 C231 1.391 . S
N234 C235 1.388 . S
C235 H206 0.930 . S
C235 C230 1.391 . S
C235 N234 1.388 . S
Co236 O238 2.143 . S
Co236 O244 2.074 . S
Co236 O247 2.093 . S
Co236 O260 2.097 . S
Co236 N277 2.151 . S
Co236 N285 2.214 . S
Co237 O238 2.160 . S
Co237 O243 2.058 . S
Co237 O253 2.057 . S
Co237 O268 2.037 . S
Co237 N272 2.145 . S
Co237 N293 2.257 . S
O238 Co236 2.143 . S
O238 Co237 2.160 . S
C239 O240 1.278 . S
C239 O247 1.224 . S
O240 C239 1.278 . S
C241 O242 1.245 . S
C241 O253 1.232 . S
O242 C241 1.245 . S
O243 Co237 2.058 . S
O243 C269 1.269 . S
O244 Co236 2.074 . S
O244 C269 1.257 . S
H245 C270 0.930 . S
H246 C276 0.930 . S
O247 Co236 2.093 . S
O247 C239 1.224 . S
H248 C280 0.929 . S
H249 C282 0.930 . S
H250 C283 0.930 . S
H251 C281 0.929 . S
H252 C284 0.928 . S
O253 Co237 2.057 . S
O253 C241 1.232 . S
H254 C273 0.929 . S
H255 C274 0.929 . S
H256 C286 0.931 . S
H257 C278 0.929 . S
H258 C287 0.930 . S
H259 C279 0.931 . S
O260 Co236 2.097 . S
O260 C288 1.214 . S
H261 C289 0.929 . S
H262 C290 0.929 . S
H263 C291 0.930 . S
H264 C292 0.929 . S
H265 C294 0.930 . S
H266 C271 0.930 . S
H267 C275 0.930 . S
O268 Co237 2.037 . S
O268 C288 1.234 . S
C269 O243 1.269 . S
C269 O244 1.257 . S
C270 H245 0.930 . S
C270 C273 1.388 . S
C270 C275 1.418 . S
C271 H266 0.930 . S
C271 C274 1.404 . S
C271 C275 1.353 . S
N272 Co237 2.145 . S
N272 C273 1.397 . S
N272 C274 1.334 . S
C273 H254 0.929 . S
C273 C270 1.388 . S
C273 N272 1.397 . S
C274 H255 0.929 . S
C274 C271 1.404 . S
C274 N272 1.334 . S
C275 H267 0.930 . S
C275 C270 1.418 . S
C275 C271 1.353 . S
C276 H246 0.930 . S
C276 N277 1.330 . S
C276 C278 1.446 . S
N277 Co236 2.151 . S
N277 C276 1.330 . S
N277 C281 1.418 . S
C278 H257 0.929 . S
C278 C276 1.446 . S
C278 C279 1.332 . S
C279 H259 0.931 . S
C279 C278 1.332 . S
C279 C280 1.267 . S
C280 H248 0.929 . S
C280 C279 1.267 . S
C280 C281 1.251 . S
C281 H251 0.929 . S
C281 N277 1.418 . S
C281 C280 1.251 . S
C282 H249 0.930 . S
C282 C284 1.406 . S
C282 C287 1.261 . S
C283 H250 0.930 . S
C283 N285 1.325 . S
C283 C286 1.357 . S
C284 H252 0.928 . S
C284 C282 1.406 . S
C284 N285 1.261 . S
N285 Co236 2.214 . S
N285 C283 1.325 . S
N285 C284 1.261 . S
C286 H256 0.931 . S
C286 C283 1.357 . S
C286 C287 1.312 . S
C287 H258 0.930 . S
C287 C282 1.261 . S
C287 C286 1.312 . S
C288 O260 1.214 . S
C288 O268 1.234 . S
C289 H261 0.929 . S
C289 C292 1.391 . S
C289 C294 1.391 . S
C290 H262 0.929 . S
C290 C291 1.390 . S
C290 N293 1.391 . S
C291 H263 0.930 . S
C291 C290 1.390 . S
C291 C292 1.392 . S
C292 H264 0.929 . S
C292 C289 1.391 . S
C292 C291 1.392 . S
N293 Co237 2.257 . S
N293 C290 1.391 . S
N293 C294 1.388 . S
C294 H265 0.930 . S
C294 C289 1.391 . S
C294 N293 1.388 . S
Co295 O297 2.143 . S
Co295 O303 2.074 1_554 S
Co295 O306 2.093 . S
Co295 O319 2.097 . S
Co295 N336 2.151 . S
Co295 N344 2.214 . S
Co296 O297 2.171 . S
Co296 O302 2.044 1_554 S
Co296 O312 2.059 . S
Co296 O327 2.038 . S
Co296 N331 2.134 1_554 S
Co296 N352 2.271 . S
O297 Co295 2.143 . S
O297 Co296 2.171 . S
C298 O299 1.278 . S
C298 O306 1.224 . S
O299 C298 1.278 . S
C300 O301 1.245 . S
C300 O312 1.232 . S
O301 C300 1.245 . S
O302 Co296 2.044 1_556 S
O302 C328 1.269 . S
O303 Co295 2.074 1_556 S
O303 C328 1.257 . S
H304 C329 0.930 . S
H305 C335 0.930 . S
O306 Co295 2.093 . S
O306 C298 1.224 . S
H307 C339 0.929 1_556 S
H308 C341 0.930 . S
H309 C342 0.930 1_556 S
H310 C340 0.929 1_556 S
H311 C343 0.928 . S
O312 Co296 2.059 . S
O312 C300 1.232 . S
H313 C332 0.929 . S
H314 C333 0.929 . S
H315 C345 0.931 . S
H316 C337 0.929 . S
H317 C346 0.930 . S
H318 C338 0.931 . S
O319 Co295 2.097 . S
O319 C347 1.214 . S
H320 C348 0.929 . S
H321 C349 0.929 . S
H322 C350 0.930 . S
H323 C351 0.929 . S
H324 C353 0.930 . S
H325 C330 0.930 . S
H326 C334 0.930 . S
O327 Co296 2.038 . S
O327 C347 1.234 . S
C328 O302 1.269 . S
C328 O303 1.257 . S
C329 H304 0.930 . S
C329 C332 1.388 . S
C329 C334 1.418 . S
C330 H325 0.930 . S
C330 C333 1.404 . S
C330 C334 1.353 . S
N331 Co296 2.134 1_556 S
N331 C332 1.397 . S
N331 C333 1.334 . S
C332 H313 0.929 . S
C332 C329 1.388 . S
C332 N331 1.397 . S
C333 H314 0.929 . S
C333 C330 1.404 . S
C333 N331 1.334 . S
C334 H326 0.930 . S
C334 C329 1.418 . S
C334 C330 1.353 . S
C335 H305 0.930 . S
C335 N336 1.330 . S
C335 C337 1.446 . S
N336 Co295 2.151 . S
N336 C335 1.330 . S
N336 C340 1.418 . S
C337 H316 0.929 . S
C337 C335 1.446 . S
C337 C338 1.332 . S
C338 H318 0.931 . S
C338 C337 1.332 . S
C338 C339 1.267 . S
C339 H307 0.929 1_554 S
C339 C338 1.267 . S
C339 C340 1.251 . S
C340 H310 0.929 1_554 S
C340 N336 1.418 . S
C340 C339 1.251 . S
C341 H308 0.930 . S
C341 C343 1.406 . S
C341 C346 1.261 . S
C342 H309 0.930 1_554 S
C342 N344 1.325 . S
C342 C345 1.357 1_554 S
C343 H311 0.928 . S
C343 C341 1.406 . S
C343 N344 1.261 . S
N344 Co295 2.214 . S
N344 C342 1.325 . S
N344 C343 1.261 . S
C345 H315 0.931 . S
C345 C342 1.357 1_556 S
C345 C346 1.312 1_556 S
C346 H317 0.930 . S
C346 C341 1.261 . S
C346 C345 1.312 1_554 S
C347 O319 1.214 . S
C347 O327 1.234 . S
C348 H320 0.929 . S
C348 C351 1.391 . S
C348 C353 1.391 . S
C349 H321 0.929 . S
C349 C350 1.390 . S
C349 N352 1.391 . S
C350 H322 0.930 . S
C350 C349 1.390 . S
C350 C351 1.392 . S
C351 H323 0.929 . S
C351 C348 1.391 . S
C351 C350 1.392 . S
N352 Co296 2.271 . S
N352 C349 1.391 . S
N352 C353 1.388 . S
C353 H324 0.930 . S
C353 C348 1.391 . S
C353 N352 1.388 . S
Co354 O356 2.143 . S
Co354 O362 2.074 . S
Co354 O365 2.093 . S
Co354 O378 2.097 . S
Co354 N395 2.151 . S
Co354 N403 2.214 . S
Co355 O356 2.160 . S
Co355 O361 2.058 . S
Co355 O371 2.057 . S
Co355 O386 2.037 . S
Co355 N390 2.145 . S
Co355 N411 2.257 . S
O356 Co354 2.143 . S
O356 Co355 2.160 . S
C357 O358 1.278 . S
C357 O365 1.224 . S
O358 C357 1.278 . S
C359 O360 1.245 . S
C359 O371 1.232 . S
O360 C359 1.245 . S
O361 Co355 2.058 . S
O361 C387 1.269 . S
O362 Co354 2.074 . S
O362 C387 1.257 . S
H363 C388 0.930 . S
H364 C394 0.930 . S
O365 Co354 2.093 . S
O365 C357 1.224 . S
H366 C398 0.929 . S
H367 C400 0.930 . S
H368 C401 0.930 . S
H369 C399 0.929 . S
H370 C402 0.928 . S
O371 Co355 2.057 . S
O371 C359 1.232 . S
H372 C391 0.929 . S
H373 C392 0.929 . S
H374 C404 0.931 . S
H375 C396 0.929 . S
H376 C405 0.930 . S
H377 C397 0.931 . S
O378 Co354 2.097 . S
O378 C406 1.214 . S
H379 C407 0.929 . S
H380 C408 0.929 . S
H381 C409 0.930 . S
H382 C410 0.929 . S
H383 C412 0.930 . S
H384 C389 0.930 . S
H385 C393 0.930 . S
O386 Co355 2.037 . S
O386 C406 1.234 . S
C387 O361 1.269 . S
C387 O362 1.257 . S
C388 H363 0.930 . S
C388 C391 1.388 . S
C388 C393 1.418 . S
C389 H384 0.930 . S
C389 C392 1.404 . S
C389 C393 1.353 . S
N390 Co355 2.145 . S
N390 C391 1.397 . S
N390 C392 1.334 . S
C391 H372 0.929 . S
C391 C388 1.388 . S
C391 N390 1.397 . S
C392 H373 0.929 . S
C392 C389 1.404 . S
C392 N390 1.334 . S
C393 H385 0.930 . S
C393 C388 1.418 . S
C393 C389 1.353 . S
C394 H364 0.930 . S
C394 N395 1.330 . S
C394 C396 1.446 . S
N395 Co354 2.151 . S
N395 C394 1.330 . S
N395 C399 1.418 . S
C396 H375 0.929 . S
C396 C394 1.446 . S
C396 C397 1.332 . S
C397 H377 0.931 . S
C397 C396 1.332 . S
C397 C398 1.267 . S
C398 H366 0.929 . S
C398 C397 1.267 . S
C398 C399 1.251 . S
C399 H369 0.929 . S
C399 N395 1.418 . S
C399 C398 1.251 . S
C400 H367 0.930 . S
C400 C402 1.406 . S
C400 C405 1.261 . S
C401 H368 0.930 . S
C401 N403 1.325 . S
C401 C404 1.357 . S
C402 H370 0.928 . S
C402 C400 1.406 . S
C402 N403 1.261 . S
N403 Co354 2.214 . S
N403 C401 1.325 . S
N403 C402 1.261 . S
C404 H374 0.931 . S
C404 C401 1.357 . S
C404 C405 1.312 . S
C405 H376 0.930 . S
C405 C400 1.261 . S
C405 C404 1.312 . S
C406 O378 1.214 . S
C406 O386 1.234 . S
C407 H379 0.929 . S
C407 C410 1.391 . S
C407 C412 1.391 . S
C408 H380 0.929 . S
C408 C409 1.390 . S
C408 N411 1.391 . S
C409 H381 0.930 . S
C409 C408 1.390 . S
C409 C410 1.392 . S
C410 H382 0.929 . S
C410 C407 1.391 . S
C410 C409 1.392 . S
N411 Co355 2.257 . S
N411 C408 1.391 . S
N411 C412 1.388 . S
C412 H383 0.930 . S
C412 C407 1.391 . S
C412 N411 1.388 . S
Co413 O415 2.143 . S
Co413 O421 2.074 1_554 S
Co413 O424 2.093 . S
Co413 O437 2.097 . S
Co413 N454 2.151 . S
Co413 N462 2.214 . S
Co414 O415 2.171 . S
Co414 O420 2.044 1_554 S
Co414 O430 2.059 . S
Co414 O445 2.038 . S
Co414 N449 2.134 1_554 S
Co414 N470 2.271 . S
O415 Co413 2.143 . S
O415 Co414 2.171 . S
C416 O417 1.278 . S
C416 O424 1.224 . S
O417 C416 1.278 . S
C418 O419 1.245 . S
C418 O430 1.232 . S
O419 C418 1.245 . S
O420 Co414 2.044 1_556 S
O420 C446 1.269 . S
O421 Co413 2.074 1_556 S
O421 C446 1.257 . S
H422 C447 0.930 . S
H423 C453 0.930 . S
O424 Co413 2.093 . S
O424 C416 1.224 . S
H425 C457 0.929 1_556 S
H426 C459 0.930 . S
H427 C460 0.930 1_556 S
H428 C458 0.929 1_556 S
H429 C461 0.928 . S
O430 Co414 2.059 . S
O430 C418 1.232 . S
H431 C450 0.929 . S
H432 C451 0.929 . S
H433 C463 0.931 . S
H434 C455 0.929 . S
H435 C464 0.930 . S
H436 C456 0.931 . S
O437 Co413 2.097 . S
O437 C465 1.214 . S
H438 C466 0.929 . S
H439 C467 0.929 . S
H440 C468 0.930 . S
H441 C469 0.929 . S
H442 C471 0.930 . S
H443 C448 0.930 . S
H444 C452 0.930 . S
O445 Co414 2.038 . S
O445 C465 1.234 . S
C446 O420 1.269 . S
C446 O421 1.257 . S
C447 H422 0.930 . S
C447 C450 1.388 . S
C447 C452 1.418 . S
C448 H443 0.930 . S
C448 C451 1.404 . S
C448 C452 1.353 . S
N449 Co414 2.134 1_556 S
N449 C450 1.397 . S
N449 C451 1.334 . S
C450 H431 0.929 . S
C450 C447 1.388 . S
C450 N449 1.397 . S
C451 H432 0.929 . S
C451 C448 1.404 . S
C451 N449 1.334 . S
C452 H444 0.930 . S
C452 C447 1.418 . S
C452 C448 1.353 . S
C453 H423 0.930 . S
C453 N454 1.330 . S
C453 C455 1.446 . S
N454 Co413 2.151 . S
N454 C453 1.330 . S
N454 C458 1.418 . S
C455 H434 0.929 . S
C455 C453 1.446 . S
C455 C456 1.332 . S
C456 H436 0.931 . S
C456 C455 1.332 . S
C456 C457 1.267 . S
C457 H425 0.929 1_554 S
C457 C456 1.267 . S
C457 C458 1.251 . S
C458 H428 0.929 1_554 S
C458 N454 1.418 . S
C458 C457 1.251 . S
C459 H426 0.930 . S
C459 C461 1.406 . S
C459 C464 1.261 . S
C460 H427 0.930 1_554 S
C460 N462 1.325 . S
C460 C463 1.357 1_554 S
C461 H429 0.928 . S
C461 C459 1.406 . S
C461 N462 1.261 . S
N462 Co413 2.214 . S
N462 C460 1.325 . S
N462 C461 1.261 . S
C463 H433 0.931 . S
C463 C460 1.357 1_556 S
C463 C464 1.312 1_556 S
C464 H435 0.930 . S
C464 C459 1.261 . S
C464 C463 1.312 1_554 S
C465 O437 1.214 . S
C465 O445 1.234 . S
C466 H438 0.929 . S
C466 C469 1.391 . S
C466 C471 1.391 . S
C467 H439 0.929 . S
C467 C468 1.390 . S
C467 N470 1.391 . S
C468 H440 0.930 . S
C468 C467 1.390 . S
C468 C469 1.392 . S
C469 H441 0.929 . S
C469 C466 1.391 . S
C469 C468 1.392 . S
N470 Co414 2.271 . S
N470 C467 1.391 . S
N470 C471 1.388 . S
C471 H442 0.930 . S
C471 C466 1.391 . S
C471 N470 1.388 . S
C472 C473 1.349 . S
C472 C474 1.327 . S
C472 H497 0.950 . S
C473 C472 1.349 . S
C473 C489 1.349 . S
C474 C472 1.327 . S
C474 C493 1.429 . S
C474 H498 0.950 . S
C475 C492 1.574 . S
C475 C494 1.368 . S
C475 H499 0.949 . S
H476 C480 0.949 . S
C477 C478 1.349 . S
C477 C479 1.327 . S
C477 H500 0.950 . S
C478 C477 1.349 . S
C478 C490 1.349 . S
C479 C477 1.327 . S
C479 C495 1.429 . S
C479 H501 0.950 . S
C480 H476 0.949 . S
C480 C488 1.574 . S
C480 C496 1.368 . S
H481 C489 0.950 . S
H482 C487 0.950 . S
H483 C488 0.949 . S
H484 C490 0.950 . S
H485 C491 0.950 . S
H486 C492 0.949 . S
C487 H482 0.950 . S
C487 C489 1.327 . S
C487 C493 1.429 . S
C488 C480 1.574 . S
C488 H483 0.949 . S
C488 C494 1.368 . S
C489 C473 1.349 . S
C489 H481 0.950 . S
C489 C487 1.327 . S
C490 C478 1.349 . S
C490 H484 0.950 . S
C490 C491 1.327 . S
C491 H485 0.950 . S
C491 C490 1.327 . S
C491 C495 1.429 . S
C492 C475 1.574 . S
C492 H486 0.949 . S
C492 C496 1.368 . S
C493 C474 1.429 . S
C493 C487 1.429 . S
C493 C494 1.523 . S
C494 C475 1.368 . S
C494 C488 1.368 . S
C494 C493 1.523 . S
C495 C479 1.429 . S
C495 C491 1.429 . S
C495 C496 1.523 . S
C496 C480 1.368 . S
C496 C492 1.368 . S
C496 C495 1.523 . S
H497 C472 0.950 . S
H498 C474 0.950 . S
H499 C475 0.949 . S
H500 C477 0.950 . S
H501 C479 0.950 . S
C502 C503 1.349 . S
C502 C504 1.327 . S
C502 H527 0.950 . S
C503 C502 1.349 . S
C503 C519 1.349 . S
C504 C502 1.327 . S
C504 C523 1.429 . S
C504 H528 0.950 . S
C505 C522 1.574 . S
C505 C524 1.368 . S
C505 H529 0.949 . S
H506 C510 0.949 . S
C507 C508 1.349 . S
C507 C509 1.327 . S
C507 H530 0.950 . S
C508 C507 1.349 . S
C508 C520 1.349 . S
C509 C507 1.327 . S
C509 C525 1.429 . S
C509 H531 0.950 . S
C510 H506 0.949 . S
C510 C518 1.574 . S
C510 C526 1.368 . S
H511 C519 0.950 . S
H512 C517 0.950 . S
H513 C518 0.949 . S
H514 C520 0.950 . S
H515 C521 0.950 . S
H516 C522 0.949 . S
C517 H512 0.950 . S
C517 C519 1.327 . S
C517 C523 1.429 . S
C518 C510 1.574 . S
C518 H513 0.949 . S
C518 C524 1.368 . S
C519 C503 1.349 . S
C519 H511 0.950 . S
C519 C517 1.327 . S
C520 C508 1.349 . S
C520 H514 0.950 . S
C520 C521 1.327 . S
C521 H515 0.950 . S
C521 C520 1.327 . S
C521 C525 1.429 . S
C522 C505 1.574 . S
C522 H516 0.949 . S
C522 C526 1.368 . S
C523 C504 1.429 . S
C523 C517 1.429 . S
C523 C524 1.523 . S
C524 C505 1.368 . S
C524 C518 1.368 . S
C524 C523 1.523 . S
C525 C509 1.429 . S
C525 C521 1.429 . S
C525 C526 1.523 . S
C526 C510 1.368 . S
C526 C522 1.368 . S
C526 C525 1.523 . S
H527 C502 0.950 . S
H528 C504 0.950 . S
H529 C505 0.949 . S
H530 C507 0.950 . S
H531 C509 0.950 . S
C532 C533 1.349 . S
C532 C534 1.327 . S
C532 H557 0.950 . S
C533 C532 1.349 . S
C533 C549 1.349 . S
C534 C532 1.327 . S
C534 C553 1.429 . S
C534 H558 0.950 . S
C535 C552 1.574 . S
C535 C554 1.368 . S
C535 H559 0.949 . S
H536 C540 0.949 . S
C537 C538 1.349 . S
C537 C539 1.327 . S
C537 H560 0.950 . S
C538 C537 1.349 . S
C538 C550 1.349 . S
C539 C537 1.327 . S
C539 C555 1.429 . S
C539 H561 0.950 . S
C540 H536 0.949 . S
C540 C548 1.574 . S
C540 C556 1.368 . S
H541 C549 0.950 . S
H542 C547 0.950 . S
H543 C548 0.949 . S
H544 C550 0.950 . S
H545 C551 0.950 . S
H546 C552 0.949 . S
C547 H542 0.950 . S
C547 C549 1.327 . S
C547 C553 1.429 . S
C548 C540 1.574 . S
C548 H543 0.949 . S
C548 C554 1.368 . S
C549 C533 1.349 . S
C549 H541 0.950 . S
C549 C547 1.327 . S
C550 C538 1.349 . S
C550 H544 0.950 . S
C550 C551 1.327 . S
C551 H545 0.950 . S
C551 C550 1.327 . S
C551 C555 1.429 . S
C552 C535 1.574 . S
C552 H546 0.949 . S
C552 C556 1.368 . S
C553 C534 1.429 . S
C553 C547 1.429 . S
C553 C554 1.523 . S
C554 C535 1.368 . S
C554 C548 1.368 . S
C554 C553 1.523 . S
C555 C539 1.429 . S
C555 C551 1.429 . S
C555 C556 1.523 . S
C556 C540 1.368 . S
C556 C552 1.368 . S
C556 C555 1.523 . S
H557 C532 0.950 . S
H558 C534 0.950 . S
H559 C535 0.949 . S
H560 C537 0.950 . S
H561 C539 0.950 . S
C562 C563 1.349 . S
C562 C564 1.327 . S
C562 H587 0.950 . S
C563 C562 1.349 . S
C563 C579 1.349 . S
C564 C562 1.327 . S
C564 C583 1.429 . S
C564 H588 0.950 . S
C565 C582 1.574 . S
C565 C584 1.368 . S
C565 H589 0.949 . S
H566 C570 0.949 . S
C567 C568 1.349 . S
C567 C569 1.327 . S
C567 H590 0.950 . S
C568 C567 1.349 . S
C568 C580 1.349 . S
C569 C567 1.327 . S
C569 C585 1.429 . S
C569 H591 0.950 . S
C570 H566 0.949 . S
C570 C578 1.574 . S
C570 C586 1.368 . S
H571 C579 0.950 . S
H572 C577 0.950 . S
H573 C578 0.949 . S
H574 C580 0.950 . S
H575 C581 0.950 . S
H576 C582 0.949 . S
C577 H572 0.950 . S
C577 C579 1.327 . S
C577 C583 1.429 . S
C578 C570 1.574 . S
C578 H573 0.949 . S
C578 C584 1.368 . S
C579 C563 1.349 . S
C579 H571 0.950 . S
C579 C577 1.327 . S
C580 C568 1.349 . S
C580 H574 0.950 . S
C580 C581 1.327 . S
C581 H575 0.950 . S
C581 C580 1.327 . S
C581 C585 1.429 . S
C582 C565 1.574 . S
C582 H576 0.949 . S
C582 C586 1.368 . S
C583 C564 1.429 . S
C583 C577 1.429 . S
C583 C584 1.523 . S
C584 C565 1.368 . S
C584 C578 1.368 . S
C584 C583 1.523 . S
C585 C569 1.429 . S
C585 C581 1.429 . S
C585 C586 1.523 . S
C586 C570 1.368 . S
C586 C582 1.368 . S
C586 C585 1.523 . S
H587 C562 0.950 . S
H588 C564 0.950 . S
H589 C565 0.949 . S
H590 C567 0.950 . S
H591 C569 0.950 . S
C592 C593 1.349 . S
C592 C594 1.327 . S
C592 H617 0.950 . S
C593 C592 1.349 . S
C593 C609 1.349 . S
C594 C592 1.327 . S
C594 C613 1.429 . S
C594 H618 0.950 . S
C595 C612 1.574 . S
C595 C614 1.368 . S
C595 H619 0.949 . S
H596 C600 0.949 . S
C597 C598 1.349 . S
C597 C599 1.327 . S
C597 H620 0.950 . S
C598 C597 1.349 . S
C598 C610 1.349 . S
C599 C597 1.327 . S
C599 C615 1.429 . S
C599 H621 0.950 . S
C600 H596 0.949 . S
C600 C608 1.574 . S
C600 C616 1.368 . S
H601 C609 0.950 . S
H602 C607 0.950 . S
H603 C608 0.949 . S
H604 C610 0.950 . S
H605 C611 0.950 . S
H606 C612 0.949 . S
C607 H602 0.950 . S
C607 C609 1.327 . S
C607 C613 1.429 . S
C608 C600 1.574 . S
C608 H603 0.949 . S
C608 C614 1.368 . S
C609 C593 1.349 . S
C609 H601 0.950 . S
C609 C607 1.327 . S
C610 C598 1.349 . S
C610 H604 0.950 . S
C610 C611 1.327 . S
C611 H605 0.950 . S
C611 C610 1.327 . S
C611 C615 1.429 . S
C612 C595 1.574 . S
C612 H606 0.949 . S
C612 C616 1.368 . S
C613 C594 1.429 . S
C613 C607 1.429 . S
C613 C614 1.523 . S
C614 C595 1.368 . S
C614 C608 1.368 . S
C614 C613 1.523 . S
C615 C599 1.429 . S
C615 C611 1.429 . S
C615 C616 1.523 . S
C616 C600 1.368 . S
C616 C612 1.368 . S
C616 C615 1.523 . S
H617 C592 0.950 . S
H618 C594 0.950 . S
H619 C595 0.949 . S
H620 C597 0.950 . S
H621 C599 0.950 . S
C622 C623 1.349 . S
C622 C624 1.327 . S
C622 H647 0.950 . S
C623 C622 1.349 . S
C623 C639 1.349 . S
C624 C622 1.327 . S
C624 C643 1.429 . S
C624 H648 0.950 . S
C625 C642 1.574 . S
C625 C644 1.368 . S
C625 H649 0.949 . S
H626 C630 0.949 . S
C627 C628 1.349 . S
C627 C629 1.327 . S
C627 H650 0.950 . S
C628 C627 1.349 . S
C628 C640 1.349 . S
C629 C627 1.327 . S
C629 C645 1.429 . S
C629 H651 0.950 . S
C630 H626 0.949 . S
C630 C638 1.574 . S
C630 C646 1.368 . S
H631 C639 0.950 . S
H632 C637 0.950 . S
H633 C638 0.949 . S
H634 C640 0.950 . S
H635 C641 0.950 . S
H636 C642 0.949 . S
C637 H632 0.950 . S
C637 C639 1.327 . S
C637 C643 1.429 . S
C638 C630 1.574 . S
C638 H633 0.949 . S
C638 C644 1.368 . S
C639 C623 1.349 . S
C639 H631 0.950 . S
C639 C637 1.327 . S
C640 C628 1.349 . S
C640 H634 0.950 . S
C640 C641 1.327 . S
C641 H635 0.950 . S
C641 C640 1.327 . S
C641 C645 1.429 . S
C642 C625 1.574 . S
C642 H636 0.949 . S
C642 C646 1.368 . S
C643 C624 1.429 . S
C643 C637 1.429 . S
C643 C644 1.523 . S
C644 C625 1.368 . S
C644 C638 1.368 . S
C644 C643 1.523 . S
C645 C629 1.429 . S
C645 C641 1.429 . S
C645 C646 1.523 . S
C646 C630 1.368 . S
C646 C642 1.368 . S
C646 C645 1.523 . S
H647 C622 0.950 . S
H648 C624 0.950 . S
H649 C625 0.949 . S
H650 C627 0.950 . S
H651 C629 0.950 . S
C652 C653 1.349 . S
C652 C654 1.327 . S
C652 H677 0.950 . S
C653 C652 1.349 . S
C653 C669 1.349 . S
C654 C652 1.327 . S
C654 C673 1.429 . S
C654 H678 0.950 . S
C655 C672 1.574 . S
C655 C674 1.368 . S
C655 H679 0.949 . S
H656 C660 0.949 . S
C657 C658 1.349 . S
C657 C659 1.327 . S
C657 H680 0.950 . S
C658 C657 1.349 . S
C658 C670 1.349 . S
C659 C657 1.327 . S
C659 C675 1.429 . S
C659 H681 0.950 . S
C660 H656 0.949 . S
C660 C668 1.574 . S
C660 C676 1.368 . S
H661 C669 0.950 . S
H662 C667 0.950 . S
H663 C668 0.949 . S
H664 C670 0.950 . S
H665 C671 0.950 . S
H666 C672 0.949 . S
C667 H662 0.950 . S
C667 C669 1.327 . S
C667 C673 1.429 . S
C668 C660 1.574 . S
C668 H663 0.949 . S
C668 C674 1.368 . S
C669 C653 1.349 . S
C669 H661 0.950 . S
C669 C667 1.327 . S
C670 C658 1.349 . S
C670 H664 0.950 . S
C670 C671 1.327 . S
C671 H665 0.950 . S
C671 C670 1.327 . S
C671 C675 1.429 . S
C672 C655 1.574 . S
C672 H666 0.949 . S
C672 C676 1.368 . S
C673 C654 1.429 . S
C673 C667 1.429 . S
C673 C674 1.523 . S
C674 C655 1.368 . S
C674 C668 1.368 . S
C674 C673 1.523 . S
C675 C659 1.429 . S
C675 C671 1.429 . S
C675 C676 1.523 . S
C676 C660 1.368 . S
C676 C672 1.368 . S
C676 C675 1.523 . S
H677 C652 0.950 . S
H678 C654 0.950 . S
H679 C655 0.949 . S
H680 C657 0.950 . S
H681 C659 0.950 . S
C682 C683 1.349 . S
C682 C684 1.327 . S
C682 H707 0.950 . S
C683 C682 1.349 . S
C683 C699 1.349 . S
C684 C682 1.327 . S
C684 C703 1.429 . S
C684 H708 0.950 . S
C685 C702 1.574 . S
C685 C704 1.368 . S
C685 H709 0.949 . S
H686 C690 0.949 . S
C687 C688 1.349 . S
C687 C689 1.327 . S
C687 H710 0.950 . S
C688 C687 1.349 . S
C688 C700 1.349 . S
C689 C687 1.327 . S
C689 C705 1.429 . S
C689 H711 0.950 . S
C690 H686 0.949 . S
C690 C698 1.574 . S
C690 C706 1.368 . S
H691 C699 0.950 . S
H692 C697 0.950 . S
H693 C698 0.949 . S
H694 C700 0.950 . S
H695 C701 0.950 . S
H696 C702 0.949 . S
C697 H692 0.950 . S
C697 C699 1.327 . S
C697 C703 1.429 . S
C698 C690 1.574 . S
C698 H693 0.949 . S
C698 C704 1.368 . S
C699 C683 1.349 . S
C699 H691 0.950 . S
C699 C697 1.327 . S
C700 C688 1.349 . S
C700 H694 0.950 . S
C700 C701 1.327 . S
C701 H695 0.950 . S
C701 C700 1.327 . S
C701 C705 1.429 . S
C702 C685 1.574 . S
C702 H696 0.949 . S
C702 C706 1.368 . S
C703 C684 1.429 . S
C703 C697 1.429 . S
C703 C704 1.523 . S
C704 C685 1.368 . S
C704 C698 1.368 . S
C704 C703 1.523 . S
C705 C689 1.429 . S
C705 C701 1.429 . S
C705 C706 1.523 . S
C706 C690 1.368 . S
C706 C702 1.368 . S
C706 C705 1.523 . S
H707 C682 0.950 . S
H708 C684 0.950 . S
H709 C685 0.949 . S
H710 C687 0.950 . S
H711 C689 0.950 . S
C712 C713 1.349 . S
C712 C714 1.327 . S
C712 H737 0.950 . S
C713 C712 1.349 . S
C713 C729 1.349 . S
C714 C712 1.327 . S
C714 C733 1.429 . S
C714 H738 0.950 . S
C715 C732 1.574 1_655 S
C715 C734 1.368 . S
C715 H739 0.949 1_554 S
H716 C720 0.949 . S
C717 C718 1.349 . S
C717 C719 1.327 . S
C717 H740 0.933 1_554 S
C718 C717 1.349 . S
C718 C730 1.349 . S
C719 C717 1.327 . S
C719 C735 1.429 . S
C719 H741 0.950 1_554 S
C720 H716 0.949 . S
C720 C728 1.574 1_455 S
C720 C736 1.368 . S
H721 C729 0.933 1_556 S
H722 C727 0.950 1_556 S
H723 C728 0.949 . S
H724 C730 0.950 . S
H725 C731 0.950 . S
H726 C732 0.949 1_556 S
C727 H722 0.950 1_554 S
C727 C729 1.327 . S
C727 C733 1.429 . S
C728 C720 1.574 1_655 S
C728 H723 0.949 . S
C728 C734 1.368 . S
C729 C713 1.349 . S
C729 H721 0.933 1_554 S
C729 C727 1.327 . S
C730 C718 1.349 . S
C730 H724 0.950 . S
C730 C731 1.327 . S
C731 H725 0.950 . S
C731 C730 1.327 . S
C731 C735 1.429 . S
C732 C715 1.574 1_455 S
C732 H726 0.949 1_554 S
C732 C736 1.368 . S
C733 C714 1.429 . S
C733 C727 1.429 . S
C733 C734 1.523 . S
C734 C715 1.368 . S
C734 C728 1.368 . S
C734 C733 1.523 . S
C735 C719 1.429 . S
C735 C731 1.429 . S
C735 C736 1.523 . S
C736 C720 1.368 . S
C736 C732 1.368 . S
C736 C735 1.523 . S
H737 C712 0.950 . S
H738 C714 0.950 . S
H739 C715 0.949 1_556 S
H740 C717 0.933 1_556 S
H741 C719 0.950 1_556 S
C742 C743 1.349 . S
C742 C744 1.327 . S
C742 H767 0.950 . S
C743 C742 1.349 . S
C743 C759 1.349 . S
C744 C742 1.327 . S
C744 C763 1.429 . S
C744 H768 0.950 . S
C745 C762 1.574 1_565 S
C745 C764 1.368 . S
C745 H769 0.949 . S
H746 C750 0.949 . S
C747 C748 1.349 . S
C747 C749 1.327 . S
C747 H770 0.950 . S
C748 C747 1.349 . S
C748 C760 1.349 . S
C749 C747 1.327 . S
C749 C765 1.429 . S
C749 H771 0.950 . S
C750 H746 0.949 . S
C750 C758 1.574 1_545 S
C750 C766 1.368 . S
H751 C759 0.950 . S
H752 C757 0.950 . S
H753 C758 0.949 . S
H754 C760 0.950 . S
H755 C761 0.950 . S
H756 C762 0.949 . S
C757 H752 0.950 . S
C757 C759 1.327 . S
C757 C763 1.429 . S
C758 C750 1.574 1_565 S
C758 H753 0.949 . S
C758 C764 1.368 . S
C759 C743 1.349 . S
C759 H751 0.950 . S
C759 C757 1.327 . S
C760 C748 1.349 . S
C760 H754 0.950 . S
C760 C761 1.327 . S
C761 H755 0.950 . S
C761 C760 1.327 . S
C761 C765 1.429 . S
C762 C745 1.574 1_545 S
C762 H756 0.949 . S
C762 C766 1.368 . S
C763 C744 1.429 . S
C763 C757 1.429 . S
C763 C764 1.523 . S
C764 C745 1.368 . S
C764 C758 1.368 . S
C764 C763 1.523 . S
C765 C749 1.429 . S
C765 C761 1.429 . S
C765 C766 1.523 . S
C766 C750 1.368 . S
C766 C762 1.368 . S
C766 C765 1.523 . S
H767 C742 0.950 . S
H768 C744 0.950 . S
H769 C745 0.949 . S
H770 C747 0.950 . S
H771 C749 0.950 . S
C772 C773 1.349 . S
C772 C774 1.327 . S
C772 H797 0.950 . S
C773 C772 1.349 . S
C773 C789 1.349 . S
C774 C772 1.327 . S
C774 C793 1.429 . S
C774 H798 0.950 . S
C775 C792 1.574 1_455 S
C775 C794 1.368 . S
C775 H799 0.949 . S
H776 C780 0.949 . S
C777 C778 1.349 . S
C777 C779 1.327 . S
C777 H800 0.950 . S
C778 C777 1.349 . S
C778 C790 1.349 . S
C779 C777 1.327 . S
C779 C795 1.429 . S
C779 H801 0.950 . S
C780 H776 0.949 . S
C780 C788 1.574 1_655 S
C780 C796 1.368 . S
H781 C789 0.950 . S
H782 C787 0.950 . S
H783 C788 0.949 . S
H784 C790 0.950 . S
H785 C791 0.950 . S
H786 C792 0.949 . S
C787 H782 0.950 . S
C787 C789 1.327 . S
C787 C793 1.429 . S
C788 C780 1.574 1_455 S
C788 H783 0.949 . S
C788 C794 1.368 . S
C789 C773 1.349 . S
C789 H781 0.950 . S
C789 C787 1.327 . S
C790 C778 1.349 . S
C790 H784 0.950 . S
C790 C791 1.327 . S
C791 H785 0.950 . S
C791 C790 1.327 . S
C791 C795 1.429 . S
C792 C775 1.574 1_655 S
C792 H786 0.949 . S
C792 C796 1.368 . S
C793 C774 1.429 . S
C793 C787 1.429 . S
C793 C794 1.523 . S
C794 C775 1.368 . S
C794 C788 1.368 . S
C794 C793 1.523 . S
C795 C779 1.429 . S
C795 C791 1.429 . S
C795 C796 1.523 . S
C796 C780 1.368 . S
C796 C792 1.368 . S
C796 C795 1.523 . S
H797 C772 0.950 . S
H798 C774 0.950 . S
H799 C775 0.949 . S
H800 C777 0.950 . S
H801 C779 0.950 . S
C802 C803 1.349 . S
C802 C804 1.327 . S
C802 H827 0.950 . S
C803 C802 1.349 . S
C803 C819 1.349 1_554 S
C804 C802 1.327 . S
C804 C823 1.429 . S
C804 H828 0.950 . S
C805 C822 1.574 1_565 S
C805 C824 1.368 1_556 S
C805 H829 0.949 . S
H806 C810 0.949 . S
C807 C808 1.349 1_556 S
C807 C809 1.327 . S
C807 H830 0.950 . S
C808 C807 1.349 1_554 S
C808 C820 1.349 . S
C809 C807 1.327 . S
C809 C825 1.429 1_556 S
C809 H831 0.950 . S
C810 H806 0.949 . S
C810 C818 1.574 1_545 S
C810 C826 1.368 . S
H811 C819 0.950 . S
H812 C817 0.950 . S
H813 C818 0.949 . S
H814 C820 0.950 . S
H815 C821 0.950 . S
H816 C822 0.949 . S
C817 H812 0.950 . S
C817 C819 1.327 . S
C817 C823 1.429 1_556 S
C818 C810 1.574 1_565 S
C818 H813 0.949 . S
C818 C824 1.368 . S
C819 C803 1.349 1_556 S
C819 H811 0.950 . S
C819 C817 1.327 . S
C820 C808 1.349 . S
C820 H814 0.950 . S
C820 C821 1.327 . S
C821 H815 0.950 . S
C821 C820 1.327 . S
C821 C825 1.429 . S
C822 C805 1.574 1_545 S
C822 H816 0.949 . S
C822 C826 1.368 1_556 S
C823 C804 1.429 . S
C823 C817 1.429 1_554 S
C823 C824 1.523 . S
C824 C805 1.368 1_554 S
C824 C818 1.368 . S
C824 C823 1.523 . S
C825 C809 1.429 1_554 S
C825 C821 1.429 . S
C825 C826 1.523 . S
C826 C810 1.368 . S
C826 C822 1.368 1_554 S
C826 C825 1.523 . S
H827 C802 0.950 . S
H828 C804 0.950 . S
H829 C805 0.949 . S
H830 C807 0.950 . S
H831 C809 0.950 . S
C832 C833 1.349 . S
C832 C834 1.327 . S
C832 H857 0.950 . S
C833 C832 1.349 . S
C833 C849 1.349 . S
C834 C832 1.327 . S
C834 C853 1.429 . S
C834 H858 0.950 . S
C835 C852 1.575 . S
C835 C854 1.368 . S
C835 H859 0.949 1_554 S
H836 C840 0.949 . S
C837 C838 1.349 1_556 S
C837 C839 1.327 . S
C837 H860 0.950 . S
C838 C837 1.349 1_554 S
C838 C850 1.349 . S
C839 C837 1.327 . S
C839 C855 1.429 1_556 S
C839 H861 0.950 . S
C840 H836 0.949 . S
C840 C848 1.574 . S
C840 C856 1.368 . S
H841 C849 0.950 1_556 S
H842 C847 0.950 1_556 S
H843 C848 0.949 . S
H844 C850 0.950 . S
H845 C851 0.950 . S
H846 C852 0.939 1_556 S
C847 H842 0.950 1_554 S
C847 C849 1.327 . S
C847 C853 1.429 . S
C848 C840 1.574 . S
C848 H843 0.949 . S
C848 C854 1.368 . S
C849 C833 1.349 . S
C849 H841 0.950 1_554 S
C849 C847 1.327 . S
C850 C838 1.349 . S
C850 H844 0.950 . S
C850 C851 1.327 . S
C851 H845 0.950 . S
C851 C850 1.327 . S
C851 C855 1.429 . S
C852 C835 1.575 . S
C852 H846 0.939 1_554 S
C852 C856 1.378 . S
C853 C834 1.429 . S
C853 C847 1.429 . S
C853 C854 1.523 . S
C854 C835 1.368 . S
C854 C848 1.368 . S
C854 C853 1.523 . S
C855 C839 1.429 1_554 S
C855 C851 1.429 . S
C855 C856 1.523 . S
C856 C840 1.368 . S
C856 C852 1.378 . S
C856 C855 1.523 . S
H857 C832 0.950 . S
H858 C834 0.950 . S
H859 C835 0.949 1_556 S
H860 C837 0.950 . S
H861 C839 0.950 . S
C862 C863 1.349 . S
C862 C864 1.327 . S
C862 H887 0.950 . S
C863 C862 1.349 . S
C863 C879 1.349 . S
C864 C862 1.327 . S
C864 C883 1.429 . S
C864 H888 0.950 . S
C865 C882 1.574 . S
C865 C884 1.368 . S
C865 H889 0.949 . S
H866 C870 0.949 . S
C867 C868 1.349 . S
C867 C869 1.327 . S
C867 H890 0.950 . S
C868 C867 1.349 . S
C868 C880 1.349 . S
C869 C867 1.327 . S
C869 C885 1.429 . S
C869 H891 0.950 . S
C870 H866 0.949 . S
C870 C878 1.574 . S
C870 C886 1.368 . S
H871 C879 0.950 . S
H872 C877 0.950 . S
H873 C878 0.949 . S
H874 C880 0.950 . S
H875 C881 0.950 . S
H876 C882 0.949 . S
C877 H872 0.950 . S
C877 C879 1.327 . S
C877 C883 1.429 . S
C878 C870 1.574 . S
C878 H873 0.949 . S
C878 C884 1.368 . S
C879 C863 1.349 . S
C879 H871 0.950 . S
C879 C877 1.327 . S
C880 C868 1.349 . S
C880 H874 0.950 . S
C880 C881 1.327 . S
C881 H875 0.950 . S
C881 C880 1.327 . S
C881 C885 1.429 . S
C882 C865 1.574 . S
C882 H876 0.949 . S
C882 C886 1.368 . S
C883 C864 1.429 . S
C883 C877 1.429 . S
C883 C884 1.523 . S
C884 C865 1.368 . S
C884 C878 1.368 . S
C884 C883 1.523 . S
C885 C869 1.429 . S
C885 C881 1.429 . S
C885 C886 1.523 . S
C886 C870 1.368 . S
C886 C882 1.368 . S
C886 C885 1.523 . S
H887 C862 0.950 . S
H888 C864 0.950 . S
H889 C865 0.949 . S
H890 C867 0.950 . S
H891 C869 0.950 . S
C892 C893 1.349 . S
C892 C894 1.327 . S
C892 H917 0.950 . S
C893 C892 1.349 . S
C893 C909 1.349 . S
C894 C892 1.327 . S
C894 C913 1.429 . S
C894 H918 0.950 . S
C895 C912 1.574 . S
C895 C914 1.368 . S
C895 H919 0.949 1_554 S
H896 C900 0.949 . S
C897 C898 1.349 1_556 S
C897 C899 1.328 . S
C897 H920 0.950 . S
C898 C897 1.349 1_554 S
C898 C910 1.349 . S
C899 C897 1.328 . S
C899 C915 1.421 1_556 S
C899 H921 0.957 . S
C900 H896 0.949 . S
C900 C908 1.574 . S
C900 C916 1.368 . S
H901 C909 0.961 . S
H902 C907 0.950 1_556 S
H903 C908 0.949 . S
H904 C910 0.950 . S
H905 C911 0.950 . S
H906 C912 0.949 1_556 S
C907 H902 0.950 1_554 S
C907 C909 1.327 . S
C907 C913 1.429 . S
C908 C900 1.574 . S
C908 H903 0.949 . S
C908 C914 1.368 . S
C909 C893 1.349 . S
C909 H901 0.961 . S
C909 C907 1.327 . S
C910 C898 1.349 . S
C910 H904 0.950 . S
C910 C911 1.327 . S
C911 H905 0.950 . S
C911 C910 1.327 . S
C911 C915 1.429 . S
C912 C895 1.574 . S
C912 H906 0.949 1_554 S
C912 C916 1.368 . S
C913 C894 1.429 . S
C913 C907 1.429 . S
C913 C914 1.523 . S
C914 C895 1.368 . S
C914 C908 1.368 . S
C914 C913 1.523 . S
C915 C899 1.421 1_554 S
C915 C911 1.429 . S
C915 C916 1.523 . S
C916 C900 1.368 . S
C916 C912 1.368 . S
C916 C915 1.523 . S
H917 C892 0.950 . S
H918 C894 0.950 . S
H919 C895 0.949 1_556 S
H920 C897 0.950 . S
H921 C899 0.957 . S
C922 C923 1.349 . S
C922 C924 1.327 . S
C922 H947 0.950 . S
C923 C922 1.349 . S
C923 C939 1.349 . S
C924 C922 1.327 . S
C924 C943 1.429 . S
C924 H948 0.950 . S
C925 C942 1.574 . S
C925 C944 1.368 . S
C925 H949 0.949 . S
H926 C930 0.949 . S
C927 C928 1.349 . S
C927 C929 1.327 . S
C927 H950 0.950 . S
C928 C927 1.349 . S
C928 C940 1.349 . S
C929 C927 1.327 . S
C929 C945 1.429 . S
C929 H951 0.950 . S
C930 H926 0.949 . S
C930 C938 1.574 . S
C930 C946 1.368 . S
H931 C939 0.950 . S
H932 C937 0.950 . S
H933 C938 0.949 . S
H934 C940 0.950 . S
H935 C941 0.950 . S
H936 C942 0.949 . S
C937 H932 0.950 . S
C937 C939 1.327 . S
C937 C943 1.429 . S
C938 C930 1.574 . S
C938 H933 0.949 . S
C938 C944 1.368 . S
C939 C923 1.349 . S
C939 H931 0.950 . S
C939 C937 1.327 . S
C940 C928 1.349 . S
C940 H934 0.950 . S
C940 C941 1.327 . S
C941 H935 0.950 . S
C941 C940 1.327 . S
C941 C945 1.429 . S
C942 C925 1.574 . S
C942 H936 0.949 . S
C942 C946 1.368 . S
C943 C924 1.429 . S
C943 C937 1.429 . S
C943 C944 1.523 . S
C944 C925 1.368 . S
C944 C938 1.368 . S
C944 C943 1.523 . S
C945 C929 1.429 . S
C945 C941 1.429 . S
C945 C946 1.523 . S
C946 C930 1.368 . S
C946 C942 1.368 . S
C946 C945 1.523 . S
H947 C922 0.950 . S
H948 C924 0.950 . S
H949 C925 0.949 . S
H950 C927 0.950 . S
H951 C929 0.950 . S
C473 C33 1.478 . S
C478 C269 1.478 . S
C503 C92 1.478 . S
C508 C328 1.478 . S
C533 C387 1.478 . S
C538 C151 1.478 . S
C563 C446 1.478 . S
C568 C210 1.478 . S
C593 C357 1.173 . S
C598 C121 1.173 . S
C623 C416 1.173 . S
C628 C180 1.173 . S
C653 C3 1.173 . S
C658 C239 1.173 . S
C683 C62 1.173 . S
C688 C298 1.173 . S
C713 C170 1.387 . S
C718 C52 1.387 . S
C743 C229 1.387 . S
C748 C111 1.387 . S
C773 C288 1.387 . S
C778 C406 1.387 . S
C803 C465 1.387 . S
C808 C347 1.387 . S
C833 C5 1.410 . S
C838 C300 1.410 . S
C863 C359 1.410 . S
C868 C64 1.410 . S
C893 C123 1.410 . S
C898 C418 1.410 . S
C923 C182 1.410 . S
C928 C241 1.410 . S
