# Generated by pormake.
# Topology zff, (5)-cn, num edge types: 1
# Building blocks:
#     Node 0, Type 0, BuildingBlock: XOMCOT_clean_sbu_1, # of connection points: 5
#     Node 1, Type 0, BuildingBlock: XOMCOT_clean_sbu_1, # of connection points: 5
#     Node 2, Type 0, BuildingBlock: XOMCOT_clean_sbu_1, # of connection points: 5
#     Node 3, Type 0, BuildingBlock: XOMCOT_clean_sbu_1, # of connection points: 5
#     Node 4, Type 0, BuildingBlock: XOMCOT_clean_sbu_1, # of connection points: 5
#     Node 5, Type 0, BuildingBlock: XOMCOT_clean_sbu_1, # of connection points: 5
#     Node 6, Type 0, BuildingBlock: XOMCOT_clean_sbu_1, # of connection points: 5
#     Node 7, Type 0, BuildingBlock: XOMCOT_clean_sbu_1, # of connection points: 5
#     Node 8, Type 0, BuildingBlock: XOMCOT_clean_sbu_1, # of connection points: 5
#     Node 9, Type 0, BuildingBlock: XOMCOT_clean_sbu_1, # of connection points: 5
#     Node 10, Type 0, BuildingBlock: XOMCOT_clean_sbu_1, # of connection points: 5
#     Node 11, Type 0, BuildingBlock: XOMCOT_clean_sbu_1, # of connection points: 5
#     Node 12, Type 0, BuildingBlock: XOMCOT_clean_sbu_1, # of connection points: 5
#     Node 13, Type 0, BuildingBlock: XOMCOT_clean_sbu_1, # of connection points: 5
#     Node 14, Type 0, BuildingBlock: XOMCOT_clean_sbu_1, # of connection points: 5
#     Node 15, Type 0, BuildingBlock: XOMCOT_clean_sbu_1, # of connection points: 5
#     Edge 16, Type (0, 0), BuildingBlock: XIVTED_clean_linker_0, # of connection points: 2
#     Edge 17, Type (0, 0), BuildingBlock: XIVTED_clean_linker_0, # of connection points: 2
#     Edge 18, Type (0, 0), BuildingBlock: XIVTED_clean_linker_0, # of connection points: 2
#     Edge 19, Type (0, 0), BuildingBlock: XIVTED_clean_linker_0, # of connection points: 2
#     Edge 20, Type (0, 0), BuildingBlock: XIVTED_clean_linker_0, # of connection points: 2
#     Edge 21, Type (0, 0), BuildingBlock: XIVTED_clean_linker_0, # of connection points: 2
#     Edge 22, Type (0, 0), BuildingBlock: XIVTED_clean_linker_0, # of connection points: 2
#     Edge 23, Type (0, 0), BuildingBlock: XIVTED_clean_linker_0, # of connection points: 2
#     Edge 24, Type (0, 0), BuildingBlock: XIVTED_clean_linker_0, # of connection points: 2
#     Edge 25, Type (0, 0), BuildingBlock: XIVTED_clean_linker_0, # of connection points: 2
#     Edge 26, Type (0, 0), BuildingBlock: XIVTED_clean_linker_0, # of connection points: 2
#     Edge 27, Type (0, 0), BuildingBlock: XIVTED_clean_linker_0, # of connection points: 2
#     Edge 28, Type (0, 0), BuildingBlock: XIVTED_clean_linker_0, # of connection points: 2
#     Edge 29, Type (0, 0), BuildingBlock: XIVTED_clean_linker_0, # of connection points: 2
#     Edge 30, Type (0, 0), BuildingBlock: XIVTED_clean_linker_0, # of connection points: 2
#     Edge 31, Type (0, 0), BuildingBlock: XIVTED_clean_linker_0, # of connection points: 2
#     Edge 32, Type (0, 0), BuildingBlock: XIVTED_clean_linker_0, # of connection points: 2
#     Edge 33, Type (0, 0), BuildingBlock: XIVTED_clean_linker_0, # of connection points: 2
#     Edge 34, Type (0, 0), BuildingBlock: XIVTED_clean_linker_0, # of connection points: 2
#     Edge 35, Type (0, 0), BuildingBlock: XIVTED_clean_linker_0, # of connection points: 2
#     Edge 36, Type (0, 0), BuildingBlock: XIVTED_clean_linker_0, # of connection points: 2
#     Edge 37, Type (0, 0), BuildingBlock: XIVTED_clean_linker_0, # of connection points: 2
#     Edge 38, Type (0, 0), BuildingBlock: XIVTED_clean_linker_0, # of connection points: 2
#     Edge 39, Type (0, 0), BuildingBlock: XIVTED_clean_linker_0, # of connection points: 2
#     Edge 40, Type (0, 0), BuildingBlock: XIVTED_clean_linker_0, # of connection points: 2
#     Edge 41, Type (0, 0), BuildingBlock: XIVTED_clean_linker_0, # of connection points: 2
#     Edge 42, Type (0, 0), BuildingBlock: XIVTED_clean_linker_0, # of connection points: 2
#     Edge 43, Type (0, 0), BuildingBlock: XIVTED_clean_linker_0, # of connection points: 2
#     Edge 44, Type (0, 0), BuildingBlock: XIVTED_clean_linker_0, # of connection points: 2
#     Edge 45, Type (0, 0), BuildingBlock: XIVTED_clean_linker_0, # of connection points: 2
#     Edge 46, Type (0, 0), BuildingBlock: XIVTED_clean_linker_0, # of connection points: 2
#     Edge 47, Type (0, 0), BuildingBlock: XIVTED_clean_linker_0, # of connection points: 2
#     Edge 48, Type (0, 0), BuildingBlock: XIVTED_clean_linker_0, # of connection points: 2
#     Edge 49, Type (0, 0), BuildingBlock: XIVTED_clean_linker_0, # of connection points: 2
#     Edge 50, Type (0, 0), BuildingBlock: XIVTED_clean_linker_0, # of connection points: 2
#     Edge 51, Type (0, 0), BuildingBlock: XIVTED_clean_linker_0, # of connection points: 2
#     Edge 52, Type (0, 0), BuildingBlock: XIVTED_clean_linker_0, # of connection points: 2
#     Edge 53, Type (0, 0), BuildingBlock: XIVTED_clean_linker_0, # of connection points: 2
#     Edge 54, Type (0, 0), BuildingBlock: XIVTED_clean_linker_0, # of connection points: 2
#     Edge 55, Type (0, 0), BuildingBlock: XIVTED_clean_linker_0, # of connection points: 2
# Relax obj value: 0.157
# Max RMSD: 0.194
# Mean RMSD: 0.194
data_MOF--net-zff--node1-XOMCOT_clean_sbu_1--edge1-XIVTED_clean_linker_0
_symmetry_space_group_name_H-M    P1
_symmetry_Int_Tables_number       1
_symmetry_cell_setting            triclinic
loop_
_symmetry_equiv_pos_as_xyz
'x, y, z'
_cell_length_a     38.166262
_cell_length_b     38.196879
_cell_length_c     63.849476
_cell_angle_alpha  89.342048
_cell_angle_beta   90.432542
_cell_angle_gamma 90.143683
loop_
_atom_site_label
_atom_site_type_symbol
_atom_site_fract_x
_atom_site_fract_y
_atom_site_fract_z
_atom_type_partial_charge
C0 C 0.91953 0.26777 0.4296 0.0
C1 C 0.91969 0.26443 0.45098 0.0
N2 N 0.95318 0.2635 0.45783 0.0
N3 N 0.95271 0.26872 0.42254 0.0
C4 C 0.97279 0.26632 0.44016 0.0
H5 H 0.89645 0.27071 0.41984 0.0
Co6 Co 0.96274 0.2771 0.39392 0.0
C7 C 0.02206 0.23219 0.38324 0.0
O8 O 0.00753 0.22742 0.36481 0.0
N9 N 0.97209 0.28763 0.36454 0.0
C10 C 0.97147 0.2887 0.32945 0.0
C11 C 0.9579 0.27311 0.34713 0.0
C12 C -0.00589 0.31258 0.35656 0.0
N13 N -0.00575 0.31367 0.33529 0.0
O14 O 0.98517 0.31873 0.4013 0.0
H15 H 0.93957 0.25164 0.34682 0.0
H16 H 0.01021 0.32952 0.36611 0.0
O17 O 0.00689 0.25137 0.39672 0.0
C18 C 0.96191 0.34199 0.40384 0.0
O19 O 0.92879 0.33334 0.40136 0.0
N20 N 0.93726 0.2367 0.38754 0.0
C21 C 0.88606 0.18469 0.38824 0.0
C22 C 0.92013 0.17759 0.39543 0.0
C23 C 0.94532 0.20412 0.3952 0.0
C24 C 0.90433 0.24385 0.3803 0.0
C25 C 0.8785 0.21806 0.38013 0.0
H26 H 0.97014 0.19904 0.4028 0.0
H27 H 0.89761 0.27037 0.37573 0.0
H28 H 0.00111 0.26737 0.44003 0.0
H29 H 0.89665 0.26432 0.46074 0.0
H30 H 0.96464 0.28234 0.31345 0.0
H31 H 0.92682 0.15223 0.40206 0.0
H32 H 0.85226 0.22486 0.37495 0.0
C33 C 0.69591 0.90295 0.45309 0.0
C34 C 0.70334 0.90305 0.47415 0.0
N35 N 0.69666 0.93517 0.4816 0.0
N36 N 0.68501 0.93503 0.44685 0.0
C37 C 0.68587 0.95423 0.46465 0.0
H38 H 0.69639 0.88013 0.44325 0.0
Co39 Co 0.66282 0.94399 0.4205 0.0
C40 C 0.70341 -0.00086 0.40048 0.0
O41 O 0.70213 0.98007 0.38348 0.0
N42 N 0.63767 0.95263 0.39445 0.0
C43 C 0.6015 0.94407 0.36725 0.0
C44 C 0.61901 0.92849 0.38377 0.0
C45 C 0.62849 0.98336 0.3847 0.0
N46 N 0.60759 0.97875 0.36762 0.0
O47 O 0.62619 0.96617 0.4344 0.0
H48 H 0.6158 0.90147 0.3884 0.0
H49 H 0.63644 0.00883 0.39023 0.0
O50 O 0.68859 -0.01176 0.41729 0.0
C51 C 0.60691 0.94226 0.44223 0.0
O52 O 0.61555 0.90938 0.4393 0.0
N53 N 0.6991 0.91865 0.40731 0.0
C54 C 0.7512 0.87079 0.39691 0.0
C55 C 0.76007 0.90317 0.40553 0.0
C56 C 0.73367 0.92652 0.41086 0.0
C57 C 0.69025 0.88702 0.39906 0.0
C58 C 0.71585 0.86309 0.39328 0.0
H59 H 0.74108 0.94971 0.41935 0.0
H60 H 0.66347 0.87849 0.39884 0.0
H61 H 0.6761 0.98075 0.46549 0.0
H62 H 0.7117 0.88066 0.48344 0.0
H63 H 0.58406 0.93091 0.35644 0.0
H64 H 0.78712 0.90978 0.40895 0.0
H65 H 0.7079 0.83771 0.38748 0.0
C66 C 0.04801 0.65902 0.41625 0.0
C67 C 0.04934 0.6622 0.4376 0.0
N68 N 0.01689 0.66899 0.44462 0.0
N69 N 0.01494 0.66397 0.40932 0.0
C70 C -0.00372 0.66968 0.42707 0.0
H71 H 0.06994 0.65293 0.40633 0.0
Co72 Co 0.0052 0.66007 0.38019 0.0
C73 C 0.94572 0.70471 0.36986 0.0
O74 O 0.96189 0.71336 0.35248 0.0
N75 N -0.00364 0.65392 0.35034 0.0
C76 C -0.00012 0.65521 0.31539 0.0
C77 C 0.01371 0.66775 0.33377 0.0
C78 C 0.97178 0.63289 0.34117 0.0
N79 N 0.9735 0.63299 0.31988 0.0
O80 O 0.984 0.6169 0.38552 0.0
H81 H 0.03474 0.68652 0.3345 0.0
H82 H 0.95315 0.61739 0.34998 0.0
O83 O 0.96035 0.68402 0.38317 0.0
C84 C 0.00798 0.59399 0.38455 0.0
O85 O 0.03956 0.60389 0.37886 0.0
N86 N 0.02985 0.70197 0.37608 0.0
C87 C 0.08188 0.75113 0.38495 0.0
C88 C 0.04679 0.75765 0.39002 0.0
C89 C 0.02115 0.73257 0.38563 0.0
C90 C 0.0635 0.69613 0.3701 0.0
C91 C 0.08973 0.72068 0.37389 0.0
H92 H -0.00452 0.73624 0.39218 0.0
H93 H 0.07067 0.67084 0.36401 0.0
H94 H 0.96831 0.67424 0.42714 0.0
H95 H 0.0725 0.65874 0.44727 0.0
H96 H 0.00845 0.6626 0.29984 0.0
H97 H 0.0396 0.78033 0.39904 0.0
H98 H 0.11635 0.71463 0.36948 0.0
C99 C 0.28769 0.029 0.4655 0.0
C100 C 0.28733 0.03208 0.48695 0.0
N101 N 0.29049 -9e-05 0.4957 0.0
N102 N 0.29073 -0.00501 0.46048 0.0
C103 C 0.29236 0.97785 0.47921 0.0
H104 H 0.2865 0.05034 0.45424 0.0
Co105 Co 0.29629 0.97794 0.43294 0.0
C106 C 0.2743 0.90536 0.4374 0.0
O107 O 0.30623 0.89529 0.43291 0.0
N108 N 0.30198 0.95995 0.40515 0.0
C109 C 0.28668 0.93433 0.37524 0.0
C110 C 0.27466 0.95007 0.39298 0.0
C111 C 0.33067 0.94985 0.39412 0.0
N112 N 0.32193 0.93391 0.37586 0.0
O113 O 0.33772 0.95588 0.44183 0.0
H114 H 0.24739 0.95265 0.39717 0.0
H115 H 0.3573 0.95231 0.39986 0.0
O116 O 0.26775 0.93782 0.43947 0.0
C117 C 0.36028 0.98041 0.44224 0.0
O118 O 0.35119 0.01156 0.43512 0.0
N119 N 0.257 0.00322 0.42436 0.0
C120 C 0.20539 0.05206 0.41439 0.0
C121 C 0.19859 0.02469 0.42866 0.0
C122 C 0.22489 0.00049 0.43351 0.0
C123 C 0.26396 0.02935 0.41032 0.0
C124 C 0.23842 0.05389 0.40495 0.0
H125 H 0.22006 0.98076 0.4454 0.0
H126 H 0.28996 0.03185 0.40384 0.0
H127 H 0.29624 0.94987 0.48067 0.0
H128 H 0.28509 0.05636 0.49538 0.0
H129 H 0.27056 0.92307 0.36301 0.0
H130 H 0.17343 0.0224 0.43629 0.0
H131 H 0.24501 0.07497 0.39419 0.0
C132 C 0.94187 0.67786 0.62968 0.0
C133 C 0.93792 0.67882 0.60825 0.0
N134 N 0.96982 0.67692 0.59938 0.0
N135 N 0.97616 0.67569 0.63468 0.0
C136 C -0.00737 0.67516 0.61586 0.0
H137 H 0.9209 0.67816 0.64097 0.0
Co138 Co -0.00675 0.67016 0.66264 0.0
C139 C 0.06587 0.69255 0.66005 0.0
O140 O 0.07562 0.66086 0.66575 0.0
N141 N 0.01078 0.66442 0.6909 0.0
C142 C 0.03365 0.67918 0.72183 0.0
C143 C 0.02101 0.69147 0.70295 0.0
C144 C 0.01783 0.63563 0.70306 0.0
N145 N 0.03175 0.64394 0.7221 0.0
O146 O 0.01535 0.62858 0.65459 0.0
H147 H 0.02019 0.71869 0.69812 0.0
H148 H 0.01308 0.6091 0.698 0.0
O149 O 0.03359 0.69876 0.6564 0.0
C150 C -0.00944 0.60625 0.65487 0.0
O151 O 0.95978 0.61599 0.66184 0.0
N152 N 0.96794 0.70945 0.67044 0.0
C153 C 0.91904 0.76097 0.67935 0.0
C154 C 0.94639 0.76781 0.66529 0.0
C155 C 0.97064 0.74155 0.66097 0.0
C156 C 0.94183 0.70247 0.68428 0.0
C157 C 0.91726 0.72795 0.68912 0.0
H158 H -0.00962 0.74641 0.64925 0.0
H159 H 0.93934 0.67647 0.69101 0.0
H160 H 0.02069 0.67233 0.61433 0.0
H161 H 0.91322 0.68074 0.59991 0.0
H162 H 0.04451 0.69519 0.73416 0.0
H163 H 0.94863 0.79297 0.6574 0.0
H164 H 0.89619 0.7213 0.69972 0.0
C165 C 0.30708 0.91425 0.67993 0.0
C166 C 0.30539 0.91096 0.65851 0.0
N167 N 0.30267 0.94316 0.64973 0.0
N168 N 0.30538 0.94836 0.68491 0.0
C169 C 0.30292 0.96541 0.66618 0.0
H170 H 0.30934 0.89305 0.69124 0.0
Co171 Co 0.30627 0.96494 0.7127 0.0
C172 C 0.29315 0.03943 0.70726 0.0
O173 O 0.32234 0.04655 0.7174 0.0
N174 N 0.30747 0.9821 0.74081 0.0
C175 C 0.29026 0.00857 0.76993 0.0
C176 C 0.27937 -0.00686 0.75161 0.0
C177 C 0.33525 -0.00897 0.75319 0.0
N178 N 0.32553 0.00757 0.77094 0.0
O179 O 0.35102 0.98302 0.70776 0.0
H180 H 0.25257 -0.00838 0.74609 0.0
H181 H 0.36226 -0.01266 0.74876 0.0
O182 O 0.28456 0.00778 0.70382 0.0
C183 C 0.37308 0.95838 0.70997 0.0
O184 O 0.36218 0.92781 0.71703 0.0
N185 N 0.26289 0.94371 0.71701 0.0
C186 C 0.21187 0.89231 0.71193 0.0
C187 C 0.20877 0.92481 0.70158 0.0
C188 C 0.23465 0.95025 0.70432 0.0
C189 C 0.26452 0.91389 0.72884 0.0
C190 C 0.23907 0.88785 0.72666 0.0
H191 H 0.23387 0.97326 0.69436 0.0
H192 H 0.28749 0.90879 0.73842 0.0
H193 H 0.30088 -0.00643 0.66467 0.0
H194 H 0.30657 0.88657 0.65011 0.0
H195 H 0.27334 0.0203 0.78141 0.0
H196 H 0.18851 0.92941 0.68992 0.0
H197 H 0.24212 0.86349 0.73531 0.0
C198 C 0.05819 0.26218 0.63746 0.0
C199 C 0.05626 0.25543 0.61646 0.0
N200 N 0.02477 0.26588 0.60922 0.0
N201 N 0.02785 0.27654 0.64393 0.0
C202 C 0.00781 0.27822 0.62623 0.0
H203 H 0.08143 0.25863 0.64692 0.0
Co204 Co 0.02135 0.29835 0.67044 0.0
C205 C 0.96382 0.26172 0.69134 0.0
O206 O 0.98149 0.26488 0.70896 0.0
N207 N 0.01502 0.32222 0.69671 0.0
C208 C 0.02263 0.34521 0.72841 0.0
C209 C 0.03786 0.32634 0.7128 0.0
C210 C 0.9861 0.34006 0.70306 0.0
N211 N -0.01012 0.35402 0.72245 0.0
O212 O -0.00109 0.336 0.65688 0.0
H213 H 0.06416 0.31647 0.71373 0.0
H214 H 0.96256 0.34237 0.69361 0.0
O215 O 0.97675 0.27349 0.67418 0.0
C216 C 0.02266 0.35542 0.64903 0.0
O217 O 0.0555 0.34544 0.65088 0.0
N218 N 0.04709 0.262 0.68327 0.0
C219 C 0.09712 0.21144 0.69359 0.0
C220 C 0.06221 0.20182 0.68961 0.0
C221 C 0.03769 0.22744 0.68405 0.0
C222 C 0.08097 0.27158 0.68694 0.0
C223 C 0.10621 0.24694 0.69252 0.0
H224 H 0.0121 0.21895 0.67892 0.0
H225 H 0.08903 0.29834 0.68397 0.0
H226 H 0.98237 0.29065 0.6255 0.0
H227 H 0.07713 0.24487 0.60705 0.0
H228 H 0.03493 0.35125 0.74324 0.0
H229 H 0.05424 0.17458 0.68983 0.0
H230 H 0.13311 0.25545 0.69449 0.0
C231 C 0.699 0.03905 0.66009 0.0
C232 C 0.70264 0.0383 0.63879 0.0
N233 N 0.70351 0.00468 0.63266 0.0
N234 N 0.69781 0.00611 0.66786 0.0
C235 C 0.70031 -0.01444 0.65068 0.0
H236 H 0.69594 0.06242 0.66926 0.0
Co237 Co 0.68911 -0.00282 0.69669 0.0
C238 C 0.73435 0.93851 0.70965 0.0
O239 O 0.7374 0.95252 0.72823 0.0
N240 N 0.67822 -0.01098 0.72619 0.0
C241 C 0.67585 -0.00715 0.7611 0.0
C242 C 0.6919 0.00494 0.74326 0.0
C243 C 0.65357 0.96703 0.73458 0.0
N244 N 0.65142 0.96904 0.7558 0.0
O245 O 0.6479 0.97353 0.68929 0.0
H246 H 0.71321 0.02347 0.7433 0.0
H247 H 0.63712 0.95005 0.7253 0.0
O248 O 0.71579 0.9536 0.69545 0.0
C249 C 0.62441 -0.00381 0.68533 0.0
O250 O 0.6327 0.02955 0.68642 0.0
N251 N 0.72907 0.02378 0.70308 0.0
C252 C 0.78077 0.07547 0.70258 0.0
C253 C 0.78849 0.04118 0.69655 0.0
C254 C 0.76215 0.01573 0.69667 0.0
C255 C 0.72126 0.05697 0.70911 0.0
C256 C 0.74684 0.08304 0.70937 0.0
H257 H 0.76792 -0.00942 0.69004 0.0
H258 H 0.69445 0.0636 0.71273 0.0
H259 H 0.69909 0.95726 0.65136 0.0
H260 H 0.70297 0.06104 0.62854 0.0
H261 H 0.68244 0.00064 0.77689 0.0
H262 H 0.81431 0.03441 0.69096 0.0
H263 H 0.73952 0.10939 0.71362 0.0
C264 C 0.42462 0.80098 0.95509 0.0
C265 C 0.42213 0.80044 0.97656 0.0
N266 N 0.45468 0.80197 0.9849 0.0
N267 N 0.45859 0.8025 0.9496 0.0
C268 C 0.47637 0.80309 0.96811 0.0
H269 H 0.40289 0.80083 0.94412 0.0
Co270 Co 0.47403 0.80704 0.92159 0.0
C271 C 0.54726 0.78689 0.9242 0.0
O272 O 0.55628 0.81892 0.91876 0.0
N273 N 0.49019 0.81179 0.8932 0.0
C274 C 0.51195 0.79644 0.86231 0.0
C275 C 0.49751 0.78451 0.8807 0.0
C276 C 0.50092 0.84026 0.88184 0.0
N277 N 0.51432 0.83162 0.86289 0.0
O278 O 0.49591 0.84927 0.92888 0.0
H279 H 0.4941 0.75727 0.88502 0.0
H280 H 0.49979 0.86675 0.88756 0.0
O281 O 0.5152 0.77974 0.92773 0.0
C282 C 0.47149 0.87185 0.92824 0.0
O283 O 0.44069 0.86242 0.92081 0.0
N284 N 0.44878 0.7668 0.91485 0.0
C285 C 0.39981 0.71358 0.90925 0.0
C286 C 0.42991 0.70787 0.92154 0.0
C287 C 0.4539 0.73506 0.92442 0.0
C288 C 0.42013 0.77258 0.90245 0.0
C289 C 0.39521 0.74628 0.89945 0.0
H290 H 0.47535 0.73118 0.9353 0.0
H291 H 0.4159 0.79827 0.89559 0.0
H292 H 0.50458 0.8055 0.9692 0.0
H293 H 0.39798 0.79905 0.9853 0.0
H294 H 0.52156 0.78008 0.84989 0.0
H295 H 0.43399 0.68315 0.92967 0.0
H296 H 0.37232 0.75161 0.8898 0.0
C297 C 0.1703 0.43074 0.93673 0.0
C298 C 0.17266 0.43069 0.95812 0.0
N299 N 0.17798 0.46374 0.96457 0.0
N300 N 0.17429 0.46358 0.92915 0.0
C301 C 0.17861 0.4834 0.9466 0.0
H302 H 0.16502 0.40806 0.92723 0.0
Co303 Co 0.16983 0.47175 0.89973 0.0
C304 C 0.22301 0.52287 0.88798 0.0
O305 O 0.22869 0.50308 0.8717 0.0
N306 N 0.163 0.47916 0.86951 0.0
C307 C 0.16328 0.47334 0.83464 0.0
C308 C 0.17611 0.46067 0.85337 0.0
C309 C 0.14205 0.50333 0.85959 0.0
N310 N 0.14152 0.50014 0.83836 0.0
O311 O 0.12926 0.4981 0.90448 0.0
H312 H 0.19493 0.43982 0.85456 0.0
H313 H 0.12698 0.5227 0.8678 0.0
O314 O 0.19946 0.51401 0.90123 0.0
C315 C 0.1045 0.47602 0.90644 0.0
O316 O 0.11172 0.44252 0.90489 0.0
N317 N 0.20874 0.44214 0.89614 0.0
C318 C 0.25833 0.38863 0.89886 0.0
C319 C 0.26604 0.4221 0.9064 0.0
C320 C 0.2407 0.44831 0.90525 0.0
C321 C 0.20048 0.40933 0.88943 0.0
C322 C 0.22515 0.38244 0.89012 0.0
H323 H 0.24616 0.47272 0.91296 0.0
H324 H 0.17409 0.40377 0.8841 0.0
H325 H 0.18179 0.51155 0.94613 0.0
H326 H 0.16937 0.40795 0.96818 0.0
H327 H 0.17026 0.46375 0.81935 0.0
H328 H 0.29112 0.42773 0.91368 0.0
H329 H 0.21775 0.35662 0.88478 0.0
C330 C 0.54472 0.21162 0.96552 0.0
C331 C 0.54259 0.21941 0.9864 0.0
N332 N 0.51032 0.21086 0.99326 0.0
N333 N 0.5138 0.19865 0.95876 0.0
C334 C 0.49332 0.19844 0.97607 0.0
H335 H 0.56825 0.21312 0.95622 0.0
Co336 Co 0.50765 0.1758 0.93273 0.0
C337 C 0.45211 0.21483 0.9112 0.0
O338 O 0.47173 0.21461 0.89437 0.0
N339 N 0.50222 0.1498 0.90717 0.0
C340 C 0.51543 0.10891 0.88378 0.0
C341 C 0.52774 0.12872 0.90007 0.0
C342 C 0.47367 0.14014 0.89551 0.0
N343 N 0.4812 0.11591 0.88076 0.0
O344 O 0.48507 0.13859 0.94651 0.0
H345 H 0.5532 0.12555 0.90731 0.0
H346 H 0.44734 0.14889 0.89863 0.0
O347 O 0.46294 0.19987 0.92809 0.0
C348 C 0.50696 0.11867 0.95582 0.0
O349 O 0.54009 0.12816 0.95639 0.0
N350 N 0.53291 0.21267 0.91933 0.0
C351 C 0.57884 0.26568 0.90635 0.0
C352 C 0.54674 0.27398 0.91553 0.0
C353 C 0.52429 0.24711 0.92208 0.0
C354 C 0.5644 0.20443 0.91073 0.0
C355 C 0.58735 0.23041 0.90375 0.0
H356 H 0.50092 0.2541 0.9305 0.0
H357 H 0.57335 0.17786 0.91061 0.0
H358 H 0.46719 0.18742 0.97628 0.0
H359 H 0.56419 0.22829 0.99605 0.0
H360 H 0.53061 0.08989 0.87535 0.0
H361 H 0.53944 0.30095 0.91814 0.0
H362 H 0.6125 0.22288 0.89749 0.0
C363 C 0.78156 0.56333 0.90742 0.0
C364 C 0.77983 0.56431 0.92886 0.0
N365 N 0.77977 0.53122 0.93643 0.0
N366 N 0.78219 0.52979 0.90113 0.0
C367 C 0.78108 0.51068 0.9192 0.0
H368 H 0.78322 0.58584 0.89706 0.0
Co369 Co 0.7888 0.51772 0.8728 0.0
C370 C 0.74637 0.45514 0.86498 0.0
O371 O 0.73931 0.46777 0.84624 0.0
N372 N 0.79755 0.50602 0.8438 0.0
C373 C 0.79765 0.50321 0.80879 0.0
C374 C 0.78244 0.51838 0.82592 0.0
C375 C 0.82219 0.48333 0.83673 0.0
N376 N 0.82284 0.48121 0.81554 0.0
O377 O 0.83241 0.4991 0.88036 0.0
H378 H 0.76108 0.53673 0.82497 0.0
H379 H 0.8393 0.46821 0.8469 0.0
O380 O 0.76583 0.47245 0.87759 0.0
C381 C 0.85448 0.52407 0.87965 0.0
O382 O 0.8439 0.55505 0.87308 0.0
N383 N 0.74647 0.54008 0.86632 0.0
C384 C 0.69591 0.59166 0.8717 0.0
C385 C 0.68988 0.55718 0.87865 0.0
C386 C 0.71563 0.53174 0.87593 0.0
C387 C 0.75163 0.57281 0.85818 0.0
C388 C 0.72638 0.59876 0.86026 0.0
H389 H 0.71232 0.50695 0.88394 0.0
H390 H 0.77693 0.57979 0.85182 0.0
H391 H 0.78269 0.4824 0.91976 0.0
H392 H 0.77901 0.5878 0.93816 0.0
H393 H 0.791 0.50853 0.79256 0.0
H394 H 0.66714 0.5506 0.88796 0.0
H395 H 0.73199 0.62486 0.85438 0.0
C396 C 0.41418 0.19661 0.17373 0.0
C397 C 0.41368 0.19927 0.15228 0.0
N398 N 0.44695 0.20008 0.14542 0.0
N399 N 0.44762 0.19599 0.18069 0.0
C400 C 0.46713 0.19822 0.16301 0.0
H401 H 0.39141 0.19404 0.18359 0.0
Co402 Co 0.45958 0.18748 0.20913 0.0
C403 C 0.52016 0.23273 0.21833 0.0
O404 O 0.50886 0.23667 0.2375 0.0
N405 N 0.47123 0.17685 0.23828 0.0
C406 C 0.47296 0.17528 0.27334 0.0
C407 C 0.45873 0.19152 0.25594 0.0
C408 C 0.49309 0.1513 0.24582 0.0
N409 N 0.49461 0.14979 0.26708 0.0
O410 O 0.48175 0.14626 0.20118 0.0
H411 H 0.44092 0.21333 0.25656 0.0
H412 H 0.50796 0.13411 0.23594 0.0
O413 O 0.50299 0.21373 0.20549 0.0
C414 C 0.45807 0.12312 0.19911 0.0
O415 O 0.42537 0.13165 0.20284 0.0
N416 N 0.43416 0.22745 0.21609 0.0
C417 C 0.38154 0.27795 0.21544 0.0
C418 C 0.41524 0.28602 0.20817 0.0
C419 C 0.44116 0.26026 0.20842 0.0
C420 C 0.40179 0.21949 0.22368 0.0
C421 C 0.37527 0.24448 0.22383 0.0
H422 H 0.46561 0.26604 0.20073 0.0
H423 H 0.3959 0.19283 0.22839 0.0
H424 H 0.49545 0.19683 0.16298 0.0
H425 H 0.39045 0.20006 0.14246 0.0
H426 H 0.46721 0.18153 0.28944 0.0
H427 H 0.42106 0.31151 0.20144 0.0
H428 H 0.34943 0.23685 0.22913 0.0
C429 C 0.77414 0.43592 0.11892 0.0
C430 C 0.77083 0.43418 0.09749 0.0
N431 N 0.77343 0.46681 0.08934 0.0
N432 N 0.7786 0.46954 0.12456 0.0
C433 C 0.77819 0.48778 0.10618 0.0
H434 H 0.77421 0.41389 0.12971 0.0
Co435 Co 0.78752 0.48479 0.15226 0.0
C436 C 0.76447 0.55723 0.15076 0.0
O437 O 0.79654 0.56717 0.15544 0.0
N438 N 0.79642 0.50076 0.18024 0.0
C439 C 0.78516 0.52207 0.21183 0.0
C440 C 0.77077 0.50983 0.19357 0.0
C441 C 0.82651 0.50817 0.19095 0.0
N442 N 0.82035 0.52114 0.21037 0.0
O443 O 0.82788 0.50822 0.14272 0.0
H444 H 0.74304 0.50861 0.19001 0.0
H445 H 0.8524 0.5045 0.18457 0.0
O446 O 0.75799 0.52496 0.14765 0.0
C447 C 0.85079 0.48462 0.13995 0.0
O448 O 0.84253 0.45188 0.14422 0.0
N449 N 0.74958 0.45844 0.16163 0.0
C450 C 0.69923 0.41018 0.17443 0.0
C451 C 0.69032 0.43766 0.16061 0.0
C452 C 0.71604 0.46162 0.15432 0.0
C453 C 0.75873 0.43181 0.1749 0.0
C454 C 0.73389 0.40758 0.18168 0.0
H455 H 0.70934 0.4818 0.14302 0.0
H456 H 0.78574 0.42902 0.1799 0.0
H457 H 0.78187 0.51584 0.10523 0.0
H458 H 0.768 0.41037 0.08861 0.0
H459 H 0.77058 0.53213 0.22491 0.0
H460 H 0.66385 0.44044 0.1546 0.0
H461 H 0.74203 0.38634 0.19198 0.0
C462 C 0.54369 0.80692 0.1685 0.0
C463 C 0.54636 0.80687 0.14704 0.0
N464 N 0.51394 0.80402 0.13864 0.0
N465 N 0.50976 0.80407 0.17392 0.0
C466 C 0.49216 0.80256 0.15537 0.0
H467 H 0.56522 0.80872 0.17955 0.0
Co468 Co 0.49468 0.80202 0.20208 0.0
C469 C 0.4202 0.78795 0.19823 0.0
O470 O 0.41354 0.81661 0.20865 0.0
N471 N 0.47911 0.80019 0.23069 0.0
C472 C 0.45605 0.77848 0.2601 0.0
C473 C 0.47082 0.77045 0.24119 0.0
C474 C 0.46902 0.82613 0.24388 0.0
N475 N 0.45448 0.81357 0.26184 0.0
O476 O 0.47575 0.84671 0.19868 0.0
H477 H 0.47368 0.74432 0.23512 0.0
H478 H 0.47024 0.85369 0.2399 0.0
O479 O 0.45165 0.78013 0.19378 0.0
C480 C 0.50034 0.86878 0.20112 0.0
O481 O 0.53152 0.85742 0.2068 0.0
N482 N 0.51675 0.75882 0.20492 0.0
C483 C 0.56719 0.70739 0.1995 0.0
C484 C 0.53477 0.70537 0.18905 0.0
C485 C 0.50982 0.73147 0.19194 0.0
C486 C 0.5467 0.75963 0.2166 0.0
C487 C 0.57224 0.73394 0.21427 0.0
H488 H 0.48673 0.73147 0.18208 0.0
H489 H 0.5521 0.78194 0.22641 0.0
H490 H 0.46399 0.79985 0.15419 0.0
H491 H 0.57048 0.80916 0.13833 0.0
H492 H 0.4463 0.75968 0.27146 0.0
H493 H 0.52983 0.68568 0.17732 0.0
H494 H 0.5966 0.73615 0.22296 0.0
C495 C 0.1873 0.55539 0.1458 0.0
C496 C 0.19173 0.55468 0.12454 0.0
N497 N 0.18164 0.52313 0.11752 0.0
N498 N 0.17492 0.52422 0.15276 0.0
C499 C 0.17183 0.50494 0.13499 0.0
H500 H 0.19107 0.57834 0.15522 0.0
Co501 Co 0.1569 0.51661 0.18046 0.0
C502 C 0.19544 0.45869 0.19953 0.0
O503 O 0.19554 0.47691 0.21686 0.0
N504 N 0.13653 0.50944 0.20804 0.0
C505 C 0.11776 0.51702 0.24073 0.0
C506 C 0.13423 0.53235 0.22397 0.0
C507 C 0.11991 0.48031 0.21573 0.0
N508 N 0.10858 0.4841 0.23576 0.0
O509 O 0.11697 0.49583 0.16867 0.0
H510 H 0.14364 0.55885 0.22403 0.0
H511 H 0.11653 0.45664 0.20678 0.0
O512 O 0.1813 0.47139 0.18282 0.0
C513 C 0.09782 0.52196 0.16376 0.0
O514 O 0.10901 0.55353 0.16845 0.0
N515 N 0.19558 0.5412 0.19138 0.0
C516 C 0.24831 0.59035 0.1987 0.0
C517 C 0.25676 0.55571 0.19372 0.0
C518 C 0.22996 0.53163 0.18971 0.0
C519 C 0.1872 0.57491 0.19588 0.0
C520 C 0.21297 0.59964 0.20007 0.0
H521 H 0.2371 0.50633 0.18378 0.0
H522 H 0.16031 0.58348 0.19442 0.0
H523 H 0.16032 0.47902 0.13468 0.0
H524 H 0.20067 0.57634 0.11488 0.0
H525 H 0.11359 0.52943 0.25563 0.0
H526 H 0.28377 0.54772 0.19197 0.0
H527 H 0.20519 0.62645 0.20275 0.0
H528 H 0.94695 0.56464 0.39859 0.0
H529 H 0.02681 0.37203 0.4009 0.0
H530 H 0.05486 0.5406 0.38486 0.0
H531 H 0.91834 0.39549 0.41332 0.0
H532 H 0.03962 0.43468 0.4002 0.0
H533 H 0.93753 0.50339 0.40847 0.0
C534 C 0.96862 0.54647 0.39767 0.0
C535 C 0.00157 0.55748 0.39067 0.0
C536 C 0.0131 0.42608 0.40333 0.0
C537 C -0.00884 0.48777 0.40202 0.0
C538 C 0.00584 0.39036 0.40381 0.0
C539 C 0.97139 0.37877 0.40677 0.0
C540 C 0.98564 0.4501 0.40577 0.0
C541 C 0.94517 0.40347 0.41059 0.0
C542 C 0.96331 0.5116 0.40341 0.0
C543 C 0.0289 0.53308 0.38998 0.0
N544 N 0.95277 0.43807 0.40973 0.0
N545 N 0.02302 0.49926 0.39546 0.0
H546 H 0.57702 0.00658 0.44752 0.0
H547 H 0.39158 0.91876 0.45426 0.0
H548 H 0.56076 0.89628 0.45963 0.0
H549 H 0.40902 0.03037 0.45005 0.0
H550 H 0.45314 0.91102 0.46411 0.0
H551 H 0.5162 0.01739 0.45684 0.0
C552 C 0.56081 -0.01525 0.4525 0.0
C553 C 0.5734 0.95039 0.45208 0.0
C554 C 0.44332 0.93726 0.46137 0.0
C555 C 0.50398 0.96234 0.46242 0.0
C556 C 0.40828 0.94161 0.45564 0.0
C557 C 0.39568 0.97508 0.45067 0.0
C558 C 0.46565 0.9666 0.46189 0.0
C559 C 0.41804 0.00394 0.45312 0.0
C560 C 0.5261 -0.00913 0.45785 0.0
C561 C 0.55166 0.9231 0.45912 0.0
N562 N 0.45212 -0.00102 0.45822 0.0
N563 N 0.51768 0.92955 0.46354 0.0
H564 H 0.95909 0.38835 0.64723 0.0
H565 H 0.05117 0.57344 0.64314 0.0
H566 H 0.06863 0.40301 0.63298 0.0
H567 H 0.93948 0.55801 0.64879 0.0
H568 H 0.0571 0.5118 0.63363 0.0
H569 H 0.94966 0.45082 0.64137 0.0
C570 C 0.981 0.40461 0.64248 0.0
C571 C 0.01483 0.3908 0.64117 0.0
C572 C 0.03125 0.5221 0.63668 0.0
C573 C 0.0045 0.46213 0.63482 0.0
C574 C 0.02794 0.55717 0.64219 0.0
C575 C -0.00503 0.57046 0.64727 0.0
C576 C 0.00137 0.50045 0.6364 0.0
C577 C 0.96556 0.54856 0.6455 0.0
C578 C 0.97567 0.44029 0.63917 0.0
C579 C 0.04223 0.41284 0.63467 0.0
N580 N 0.96952 0.51452 0.64047 0.0
N581 N 0.03662 0.44764 0.63216 0.0
H582 H 0.59413 0.93244 0.69337 0.0
H583 H 0.40297 0.01566 0.69128 0.0
H584 H 0.57101 0.03749 0.67179 0.0
H585 H 0.42569 0.91065 0.71315 0.0
H586 H 0.46362 0.02163 0.67996 0.0
H587 H 0.5313 0.92068 0.69564 0.0
C588 C 0.57582 0.95277 0.68873 0.0
C589 C 0.58758 -0.01382 0.68282 0.0
C590 C 0.45528 -0.00278 0.68715 0.0
C591 C 0.51612 0.97319 0.68561 0.0
C592 C 0.42076 -0.00608 0.69373 0.0
C593 C 0.40952 0.9628 0.70338 0.0
C594 C 0.47863 0.96926 0.69036 0.0
C595 C 0.43343 0.93524 0.70595 0.0
C596 C 0.54001 0.94614 0.69013 0.0
C597 C 0.56291 0.01157 0.67684 0.0
N598 N 0.46698 0.9392 0.69959 0.0
N599 N 0.52827 0.00469 0.67866 0.0
H600 H 0.53024 0.90025 0.94645 0.0
H601 H 0.44255 0.08762 0.95264 0.0
H602 H 0.422 0.92231 0.93122 0.0
H603 H 0.54998 0.06685 0.97042 0.0
H604 H 0.4315 0.02483 0.95191 0.0
H605 H 0.53583 0.95907 0.96099 0.0
C606 C 0.50771 0.91744 0.9462 0.0
C607 C 0.47585 0.90675 0.93727 0.0
C608 C 0.45736 0.03398 0.95633 0.0
C609 C 0.4818 0.97349 0.95403 0.0
C610 C 0.46361 0.06986 0.95684 0.0
C611 C 0.49747 0.08233 0.96096 0.0
C612 C 0.48531 0.01064 0.95969 0.0
C613 C 0.52365 0.05824 0.96665 0.0
C614 C 0.51078 0.95084 0.95464 0.0
C615 C 0.44726 0.9297 0.93763 0.0
N616 N 0.51724 0.02342 0.96538 0.0
N617 N 0.45101 0.96209 0.9457 0.0
H618 H 0.90692 0.57252 0.87925 0.0
H619 H 0.05022 0.43636 0.91999 0.0
H620 H 0.88462 0.46501 0.89625 0.0
H621 H 0.07557 0.53981 0.89666 0.0
H622 H -0.01178 0.45033 0.91718 0.0
H623 H 0.96751 0.5642 0.89049 0.0
C624 C 0.91477 0.54715 0.88538 0.0
C625 C 0.89088 0.51924 0.88662 0.0
C626 C 0.00728 0.47014 0.91286 0.0
C627 C 0.96 0.50972 0.89961 0.0
C628 C 0.04266 0.46222 0.91449 0.0
C629 C 0.06786 0.48682 0.90818 0.0
C630 C -0.00293 0.5028 0.90469 0.0
C631 C 0.05682 0.52008 0.90154 0.0
C632 C 0.94933 0.5425 0.89186 0.0
C633 C 0.90233 0.48709 0.89485 0.0
N634 N 0.02204 0.52698 0.89966 0.0
N635 N 0.9362 0.48316 0.90095 0.0
H636 H 0.43975 0.90125 0.18888 0.0
H637 H 0.52262 0.09217 0.19943 0.0
H638 H 0.54836 0.92118 0.20425 0.0
H639 H 0.41288 0.07174 0.18779 0.0
H640 H 0.5345 0.02968 0.19577 0.0
H641 H 0.43108 0.96399 0.18346 0.0
C642 C 0.46175 0.91884 0.19107 0.0
C643 C 0.49466 0.9062 0.19729 0.0
C644 C 0.50789 0.03898 0.1938 0.0
C645 C 0.48507 0.97767 0.19108 0.0
C646 C 0.50116 0.07458 0.19583 0.0
C647 C 0.46668 0.08683 0.19427 0.0
C648 C 0.47989 0.01579 0.19023 0.0
C649 C 0.43978 0.06316 0.18949 0.0
C650 C 0.45685 0.95459 0.18791 0.0
C651 C 0.52242 0.92995 0.19969 0.0
N652 N 0.44691 0.02864 0.18784 0.0
N653 N 0.51693 0.96465 0.19672 0.0
H654 H 0.90016 0.44002 0.12586 0.0
H655 H 0.05335 0.5738 0.15149 0.0
H656 H 0.8838 0.54828 0.14176 0.0
H657 H 0.06487 0.4613 0.15206 0.0
H658 H -0.00576 0.56725 0.13756 0.0
H659 H 0.96302 0.45084 0.12439 0.0
C660 C 0.90981 0.46625 0.12871 0.0
C661 C 0.88704 0.49314 0.13452 0.0
C662 C 0.00985 0.54404 0.14048 0.0
C663 C 0.95865 0.5055 0.13297 0.0
C664 C 0.04356 0.54767 0.14851 0.0
C665 C 0.06367 0.51792 0.15339 0.0
C666 C -0.00379 0.51045 0.13733 0.0
C667 C 0.04994 0.48484 0.14885 0.0
C668 C 0.94564 0.47236 0.12785 0.0
C669 C 0.90066 0.52677 0.13753 0.0
N670 N 0.01675 0.48195 0.14129 0.0
N671 N 0.93584 0.53189 0.13711 0.0
H672 H 0.01817 0.29944 0.29628 0.0
H673 H 0.07253 0.49767 0.27162 0.0
H674 H 0.01397 0.38138 0.34204 0.0
H675 H 0.10441 0.41246 0.23224 0.0
H676 H 0.04743 0.45579 0.2961 0.0
H677 H 0.04635 0.34022 0.2717 0.0
C678 C 0.02319 0.32602 0.3012 0.0
C679 C 0.01343 0.33695 0.32132 0.0
C680 C 0.05999 0.44614 0.28215 0.0
C681 C 0.04569 0.38406 0.29301 0.0
C682 C 0.07462 0.47019 0.26803 0.0
C683 C 0.09139 0.45896 0.24968 0.0
C684 C 0.06139 0.4102 0.27804 0.0
C685 C 0.09184 0.42266 0.246 0.0
C686 C 0.03944 0.34927 0.28714 0.0
C687 C 0.02114 0.37166 0.32681 0.0
N688 N 0.07709 0.39968 0.26 0.0
N689 N 0.03646 0.39396 0.31271 0.0
H690 H 0.51642 0.08335 0.25842 0.0
H691 H 0.59666 0.04874 0.37402 0.0
H692 H 0.51732 0.16072 0.30708 0.0
H693 H 0.58653 0.96868 0.32725 0.0
H694 H 0.5714 0.09116 0.34904 0.0
H695 H 0.54589 0.04225 0.28253 0.0
C696 C 0.52304 0.09188 0.27406 0.0
C697 C 0.514 0.12567 0.28064 0.0
C698 C 0.57473 0.06429 0.34425 0.0
C699 C 0.54776 0.0784 0.30856 0.0
C700 C 0.58936 0.04001 0.35853 0.0
C701 C 0.5936 0.00476 0.35295 0.0
C702 C 0.56441 0.05351 0.32408 0.0
C703 C 0.58329 -0.00474 0.33253 0.0
C704 C 0.53971 0.06827 0.28792 0.0
C705 C 0.52311 0.13489 0.3013 0.0
N706 N 0.56927 0.01933 0.31895 0.0
N707 N 0.53934 0.11152 0.31443 0.0
H708 H 0.88738 0.54555 0.20497 0.0
H709 H 0.90844 0.60384 0.32542 0.0
H710 H 0.80982 0.52542 0.25242 0.0
H711 H -0.01049 0.61778 0.2793 0.0
H712 H 0.87258 0.57396 0.29906 0.0
H713 H 0.9259 0.57068 0.23197 0.0
C714 C 0.87849 0.54607 0.22102 0.0
C715 C 0.84493 0.53356 0.22622 0.0
C716 C 0.89827 0.58354 0.29472 0.0
C717 C 0.88895 0.56278 0.25735 0.0
C718 C 0.91891 0.60054 0.30987 0.0
C719 C 0.95219 0.61388 0.30476 0.0
C720 C 0.9108 0.57965 0.27417 0.0
C721 C 0.96391 0.60878 0.28409 0.0
C722 C 0.90045 0.56066 0.23647 0.0
C723 C 0.83499 0.53531 0.24742 0.0
N724 N 0.94333 0.59231 0.26967 0.0
N725 N 0.85667 0.5497 0.26205 0.0
H726 H 0.46814 0.87989 0.27608 0.0
H727 H 0.3085 0.87209 0.35743 0.0
H728 H 0.40017 0.79092 0.2857 0.0
H729 H 0.38533 0.95473 0.35983 0.0
H730 H 0.34177 0.84402 0.32996 0.0
H731 H 0.43818 0.90998 0.30495 0.0
C732 C 0.44698 0.86668 0.28417 0.0
C733 C 0.43702 0.83254 0.27843 0.0
C734 C 0.35168 0.86821 0.33644 0.0
C735 C 0.40256 0.86687 0.3115 0.0
C736 C 0.33254 0.88434 0.35217 0.0
C737 C 0.34395 0.91597 0.36095 0.0
C738 C 0.38267 0.88373 0.32897 0.0
C739 C 0.37565 0.9303 0.35359 0.0
C740 C 0.43003 0.8838 0.30075 0.0
C741 C 0.40942 0.81681 0.28964 0.0
N742 N 0.39376 0.91427 0.3379 0.0
N743 N 0.39331 0.83402 0.30541 0.0
H744 H 0.11456 0.56648 0.84132 0.0
H745 H 0.05269 0.57537 0.72016 0.0
H746 H 0.12383 0.48025 0.79868 0.0
H747 H 0.03894 0.65997 0.76348 0.0
H748 H 0.07701 0.53947 0.74893 0.0
H749 H 0.08521 0.6005 0.81343 0.0
C750 C 0.11034 0.55453 0.82622 0.0
C751 C 0.1223 0.52036 0.82251 0.0
C752 C 0.06858 0.5659 0.75214 0.0
C753 C 0.08867 0.55951 0.79019 0.0
C754 C 0.05446 0.5864 0.73567 0.0
C755 C 0.04392 0.62111 0.73913 0.0
C756 C 0.07226 0.58 0.77237 0.0
C757 C 0.04725 0.63377 0.75974 0.0
C758 C 0.09366 0.57408 0.8102 0.0
C759 C 0.11599 0.50661 0.80238 0.0
N760 N 0.06114 0.61342 0.77541 0.0
N761 N 0.09987 0.52613 0.78712 0.0
H762 H 0.49162 0.05481 0.85963 0.0
H763 H 0.3099 0.06281 0.79595 0.0
H764 H 0.4169 0.13847 0.86665 0.0
H765 H 0.39228 -0.01048 0.7825 0.0
H766 H 0.34694 0.08881 0.82304 0.0
H767 H 0.45421 0.02912 0.83292 0.0
C768 C 0.46749 0.06809 0.8556 0.0
C769 C 0.45791 0.09938 0.86555 0.0
C770 C 0.35696 0.06705 0.81419 0.0
C771 C 0.41411 0.06913 0.83467 0.0
C772 C 0.33568 0.05192 0.79873 0.0
C773 C 0.34771 0.02357 0.78685 0.0
C774 C 0.39071 0.05377 0.81809 0.0
C775 C 0.38181 0.01134 0.79108 0.0
C776 C 0.44594 0.05311 0.84026 0.0
C777 C 0.42556 0.11437 0.85966 0.0
N778 N 0.40193 0.02635 0.80634 0.0
N779 N 0.40496 0.09917 0.84466 0.0
H780 H 0.89009 0.46208 0.82433 0.0
H781 H 0.91854 0.35879 0.71688 0.0
H782 H 0.80957 0.45455 0.77687 0.0
H783 H 0.00291 0.39365 0.75707 0.0
H784 H 0.87694 0.38902 0.73955 0.0
H785 H 0.93026 0.43097 0.80131 0.0
C786 C 0.88072 0.45361 0.80917 0.0
C787 C 0.84634 0.46113 0.80258 0.0
C788 C 0.90463 0.38994 0.74334 0.0
C789 C 0.89241 0.42545 0.77594 0.0
C790 C 0.92852 0.37278 0.73031 0.0
C791 C 0.96464 0.37309 0.73496 0.0
C792 C 0.91677 0.40737 0.76131 0.0
C793 C 0.97554 0.39169 0.75284 0.0
C794 C 0.90377 0.43606 0.79592 0.0
C795 C 0.83591 0.44975 0.78256 0.0
N796 N 0.95184 0.40775 0.7653 0.0
N797 N 0.85874 0.43247 0.77001 0.0
H798 H 0.5436 0.89669 0.86774 0.0
H799 H 0.61689 0.90683 0.7497 0.0
H800 H 0.52287 0.81788 0.82137 0.0
H801 H 0.63275 -0.01203 0.7953 0.0
H802 H 0.58094 0.87469 0.77525 0.0
H803 H 0.57465 0.93134 0.84112 0.0
C804 C 0.54522 0.88671 0.85199 0.0
C805 C 0.53066 0.85393 0.84704 0.0
C806 C 0.59229 0.89959 0.77964 0.0
C807 C 0.5668 0.89358 0.81628 0.0
C808 C 0.61277 0.91808 0.76496 0.0
C809 C 0.62849 0.95019 0.77023 0.0
C810 C 0.58726 0.91316 0.79983 0.0
C811 C 0.62205 0.9631 0.79046 0.0
C812 C 0.56321 0.90648 0.83675 0.0
C813 C 0.5341 0.84252 0.82621 0.0
N814 N 0.6022 0.94461 0.80442 0.0
N815 N 0.55182 0.86211 0.81175 0.0
H816 H 0.04591 0.21345 0.4226 0.0
H817 H 0.18833 0.08169 0.37653 0.0
H818 H 0.06737 0.20111 0.35683 0.0
H819 H 0.16267 0.08543 0.44219 0.0
H820 H 0.14682 0.12886 0.36962 0.0
H821 H 0.09213 0.17068 0.43082 0.0
C822 C 0.0607 0.20218 0.40994 0.0
C823 C 0.0527 0.2106 0.389 0.0
C824 C 0.15019 0.11941 0.38556 0.0
C825 C 0.10505 0.16165 0.39821 0.0
C826 C 0.17397 0.0925 0.38951 0.0
C827 C 0.17893 0.07957 0.40995 0.0
C828 C 0.13117 0.13365 0.40217 0.0
C829 C 0.15929 0.09432 0.42614 0.0
C830 C 0.08684 0.17761 0.41461 0.0
C831 C 0.07245 0.1951 0.37318 0.0
N832 N 0.13627 0.12063 0.42191 0.0
N833 N 0.09754 0.17131 0.37811 0.0
H834 H 0.87226 0.14354 0.42256 0.0
H835 H 0.71648 0.04063 0.36686 0.0
H836 H 0.8349 0.16718 0.36004 0.0
H837 H 0.73941 0.02975 0.43288 0.0
H838 H 0.75888 0.0882 0.3645 0.0
H839 H 0.82409 0.10176 0.42689 0.0
C840 C 0.85406 0.13969 0.40968 0.0
C841 C 0.85772 0.15855 0.39082 0.0
C842 C 0.75446 0.07576 0.37958 0.0
C843 C 0.80235 0.11133 0.39579 0.0
C844 C 0.73024 0.04862 0.38094 0.0
C845 C 0.72473 0.0312 0.40006 0.0
C846 C 0.77375 0.08524 0.39743 0.0
C847 C 0.74294 0.04267 0.41785 0.0
C848 C 0.82637 0.11618 0.41226 0.0
C849 C 0.83299 0.1532 0.37483 0.0
N850 N 0.76711 0.06876 0.41605 0.0
N851 N 0.80646 0.12994 0.37764 0.0
H852 H 0.89714 0.72835 0.3421 0.0
H853 H 0.80335 0.85045 0.42387 0.0
H854 H 0.92018 0.72281 0.4083 0.0
H855 H 0.7599 0.82931 0.36273 0.0
H856 H 0.84756 0.80525 0.41835 0.0
H857 H 0.84708 0.76581 0.34925 0.0
C858 C 0.89132 0.73475 0.35819 0.0
C859 C 0.9128 0.72273 0.37465 0.0
C860 C 0.82825 0.81038 0.4062 0.0
C861 C 0.85601 0.76605 0.38291 0.0
C862 C 0.80331 0.83641 0.40923 0.0
C863 C 0.77827 0.84384 0.3936 0.0
C864 C 0.82839 0.79198 0.38731 0.0
C865 C 0.77883 0.82439 0.37513 0.0
C866 C 0.86275 0.75608 0.36226 0.0
C867 C 0.90411 0.73153 0.39521 0.0
N868 N 0.80371 0.79954 0.37241 0.0
N869 N 0.87659 0.75318 0.39876 0.0
H870 H 0.14556 0.72994 0.40057 0.0
H871 H 0.20416 0.92041 0.43701 0.0
H872 H 0.08318 0.82275 0.38981 0.0
H873 H 0.27673 0.83477 0.43023 0.0
H874 H 0.15666 0.88234 0.4255 0.0
H875 H 0.1914 0.76603 0.41598 0.0
C876 C 0.14162 0.75798 0.40113 0.0
C877 C 0.11051 0.77334 0.39352 0.0
C878 C 0.18294 0.87182 0.42671 0.0
C879 C 0.16268 0.81466 0.41193 0.0
C880 C 0.2101 0.89345 0.43346 0.0
C881 C 0.24466 0.8809 0.43441 0.0
C882 C 0.19026 0.83728 0.42102 0.0
C883 C 0.25058 0.84565 0.42961 0.0
C884 C 0.16773 0.77849 0.41018 0.0
C885 C 0.10658 0.8097 0.39549 0.0
N886 N 0.22366 0.82511 0.42299 0.0
N887 N 0.13237 0.82912 0.40451 0.0
H888 H 0.23256 0.82424 0.70715 0.0
H889 H 0.05168 0.76258 0.65553 0.0
H890 H 0.14216 0.89129 0.70022 0.0
H891 H 0.13414 0.69103 0.67378 0.0
H892 H 0.08727 0.81119 0.66808 0.0
H893 H 0.1987 0.77601 0.69266 0.0
C894 C 0.2054 0.82876 0.70296 0.0
C895 C 0.19018 0.862 0.70512 0.0
C896 C 0.09768 0.78488 0.6692 0.0
C897 C 0.15155 0.80686 0.68777 0.0
C898 C 0.07747 0.75706 0.66188 0.0
C899 C 0.08974 0.72251 0.66376 0.0
C900 C 0.13054 0.77823 0.67839 0.0
C901 C 0.1235 0.71716 0.67207 0.0
C902 C 0.18621 0.80122 0.69441 0.0
C903 C 0.15513 0.86629 0.69873 0.0
N904 N 0.14262 0.74469 0.67921 0.0
N905 N 0.13706 0.83909 0.69029 0.0
H906 H 0.29136 0.1054 0.72352 0.0
H907 H 0.10426 0.14973 0.67271 0.0
H908 H 0.23506 0.03601 0.68222 0.0
H909 H 0.15388 0.21286 0.72018 0.0
H910 H 0.15311 0.10888 0.67494 0.0
H911 H 0.24338 0.14748 0.72035 0.0
C912 C 0.26914 0.09922 0.71356 0.0
C913 C 0.26703 0.06707 0.70324 0.0
C914 C 0.15325 0.13158 0.68495 0.0
C915 C 0.21197 0.11477 0.69978 0.0
C916 C 0.12514 0.15472 0.68386 0.0
C917 C 0.12489 0.18472 0.69634 0.0
C918 C 0.18144 0.13851 0.69855 0.0
C919 C 0.15316 0.19023 0.71013 0.0
C920 C 0.24163 0.12311 0.71191 0.0
C921 C 0.23757 0.06034 0.69064 0.0
N922 N 0.18036 0.1674 0.71082 0.0
N923 N 0.21111 0.08392 0.68934 0.0
H924 H 0.82454 0.08811 0.66956 0.0
H925 H 0.92029 0.24937 0.72392 0.0
H926 H 0.79587 0.12807 0.72999 0.0
H927 H 0.93646 0.22257 0.65926 0.0
H928 H 0.87385 0.20563 0.72607 0.0
H929 H 0.86604 0.13659 0.66542 0.0
C930 C 0.82722 0.10693 0.68204 0.0
C931 C 0.80695 0.10393 0.70023 0.0
C932 C 0.88722 0.20949 0.71132 0.0
C933 C 0.85392 0.15969 0.69545 0.0
C934 C 0.91371 0.2345 0.71008 0.0
C935 C 0.9323 0.2394 0.69142 0.0
C936 C 0.87953 0.18881 0.69385 0.0
C937 C 0.92263 0.21963 0.67392 0.0
C938 C 0.85061 0.13479 0.67956 0.0
C939 C 0.81091 0.12945 0.71569 0.0
N940 N 0.89714 0.19481 0.67564 0.0
N941 N 0.83405 0.15615 0.71299 0.0
H942 H 0.88548 0.80352 0.6507 0.0
H943 H 0.76598 0.89361 0.73704 0.0
H944 H 0.88923 0.7779 0.71668 0.0
H945 H 0.75557 0.9163 0.67091 0.0
H946 H 0.80988 0.84964 0.72935 0.0
H947 H 0.83784 0.84469 0.65735 0.0
C948 C 0.8765 0.80679 0.6666 0.0
C949 C 0.89139 0.7873 0.68318 0.0
C950 C 0.79789 0.86399 0.71646 0.0
C951 C 0.83661 0.83386 0.69083 0.0
C952 C 0.77273 0.88909 0.72084 0.0
C953 C 0.75725 0.90876 0.70459 0.0
C954 C 0.80799 0.85861 0.69566 0.0
C955 C 0.76682 0.90162 0.6839 0.0
C956 C 0.84909 0.83002 0.67035 0.0
C957 C 0.87831 0.79212 0.70341 0.0
N958 N 0.79189 0.87729 0.68002 0.0
N959 N 0.85175 0.81492 0.70665 0.0
H960 H 0.61709 0.79064 0.91462 0.0
H961 H 0.62428 0.59251 0.87691 0.0
H962 H 0.53292 0.71658 0.92428 0.0
H963 H 0.71667 0.65698 0.88412 0.0
H964 H 0.58935 0.63923 0.89216 0.0
H965 H 0.65381 0.74294 0.90214 0.0
C966 C 0.60648 0.76432 0.91445 0.0
C967 C 0.57175 0.75773 0.92042 0.0
C968 C 0.61728 0.6431 0.89034 0.0
C969 C 0.61333 0.70322 0.90573 0.0
C970 C 0.63723 0.61646 0.88159 0.0
C971 C 0.67349 0.62078 0.87904 0.0
C972 C 0.63365 0.67437 0.89648 0.0
C973 C 0.68872 0.65263 0.88526 0.0
C974 C 0.62739 0.73713 0.90723 0.0
C975 C 0.55943 0.72304 0.91982 0.0
N976 N 0.66874 0.67817 0.89365 0.0
N977 N 0.58005 0.69719 0.91236 0.0
H978 H 0.32881 0.71942 0.91414 0.0
H979 H 0.28908 0.52838 0.87328 0.0
H980 H 0.40966 0.64481 0.90002 0.0
H981 H 0.21509 0.58142 0.91261 0.0
H982 H 0.33151 0.57454 0.87958 0.0
H983 H 0.2847 0.67281 0.9105 0.0
C984 C 0.3372 0.69325 0.91021 0.0
C985 C 0.37285 0.68588 0.90724 0.0
C986 C 0.30607 0.57614 0.88691 0.0
C987 C 0.32282 0.63285 0.90308 0.0
C988 C 0.28165 0.54989 0.88322 0.0
C989 C 0.24836 0.55118 0.89235 0.0
C990 C 0.29715 0.60438 0.89959 0.0
C991 C 0.24049 0.57951 0.90529 0.0
C992 C 0.31212 0.66672 0.90833 0.0
C993 C 0.38247 0.65153 0.90248 0.0
N994 N 0.26469 0.60531 0.90839 0.0
N995 N 0.35757 0.62637 0.90036 0.0
H996 H 0.41652 0.24301 0.94419 0.0
H997 H 0.27656 0.34014 0.86973 0.0
H998 H 0.41352 0.23327 0.87693 0.0
H999 H 0.29822 0.37142 0.93325 0.0
H1000 H 0.32006 0.2935 0.8736 0.0
H1001 H 0.36607 0.28268 0.94193 0.0
C1002 C 0.40492 0.24881 0.92901 0.0
C1003 C 0.41932 0.23514 0.9107 0.0
C1004 C 0.31523 0.31053 0.88671 0.0
C1005 C 0.36197 0.2803 0.908 0.0
C1006 C 0.29036 0.33704 0.88452 0.0
C1007 C 0.28409 0.35986 0.90111 0.0
C1008 C 0.33373 0.30661 0.9057 0.0
C1009 C 0.30276 0.35477 0.91994 0.0
C1010 C 0.37634 0.27158 0.92771 0.0
C1011 C 0.40344 0.24357 0.89141 0.0
N1012 N 0.32678 0.32869 0.92173 0.0
N1013 N 0.3757 0.26569 0.89056 0.0
H1014 H 0.72163 0.40254 0.84088 0.0
H1015 H 0.59904 0.3222 0.92961 0.0
H1016 H 0.72632 0.43712 0.90493 0.0
H1017 H 0.61766 0.27155 0.8707 0.0
H1018 H 0.64341 0.36625 0.9206 0.0
H1019 H 0.68246 0.35513 0.85143 0.0
C1020 C 0.71469 0.39984 0.85724 0.0
C1021 C 0.72712 0.42375 0.87206 0.0
C1022 C 0.63783 0.34543 0.9097 0.0
C1023 C 0.68173 0.36993 0.88421 0.0
C1024 C 0.61227 0.32054 0.91471 0.0
C1025 C 0.60455 0.29333 0.90081 0.0
C1026 C 0.65549 0.34327 0.89054 0.0
C1027 C 0.62291 0.29202 0.88189 0.0
C1028 C 0.69231 0.37279 0.86326 0.0
C1029 C 0.71743 0.41906 0.89305 0.0
N1030 N 0.64737 0.31673 0.87727 0.0
N1031 N 0.69487 0.39288 0.89849 0.0
H1032 H 0.53861 0.24891 0.17782 0.0
H1033 H 0.68877 0.38282 0.21356 0.0
H1034 H 0.5677 0.26773 0.2422 0.0
H1035 H 0.65052 0.3767 0.14993 0.0
H1036 H 0.64756 0.33693 0.22376 0.0
H1037 H 0.58319 0.29135 0.16663 0.0
C1038 C 0.55466 0.26161 0.18957 0.0
C1039 C 0.54936 0.25494 0.21098 0.0
C1040 C 0.64808 0.34561 0.20756 0.0
C1041 C 0.6 0.30356 0.19833 0.0
C1042 C 0.67167 0.37175 0.20173 0.0
C1043 C 0.67303 0.38358 0.18088 0.0
C1044 C 0.6257 0.331 0.19242 0.0
C1045 C 0.65001 0.3686 0.16623 0.0
C1046 C 0.57989 0.28599 0.18319 0.0
C1047 C 0.57072 0.27227 0.22554 0.0
N1048 N 0.62732 0.34298 0.17227 0.0
N1049 N 0.59499 0.29583 0.21895 0.0
H1050 H 0.63586 0.72652 0.19471 0.0
H1051 H 0.69421 0.54336 0.14707 0.0
H1052 H 0.56625 0.63787 0.18841 0.0
H1053 H 0.76703 0.62569 0.16311 0.0
H1054 H 0.64607 0.57996 0.1587 0.0
H1055 H 0.68349 0.69144 0.18103 0.0
C1056 C 0.63064 0.69948 0.1908 0.0
C1057 C 0.59692 0.68508 0.19293 0.0
C1058 C 0.67256 0.59011 0.15956 0.0
C1059 C 0.65137 0.64503 0.17657 0.0
C1060 C 0.70011 0.5693 0.15278 0.0
C1061 C 0.73485 0.5813 0.15429 0.0
C1062 C 0.67971 0.62326 0.16783 0.0
C1063 C 0.74073 0.61526 0.16174 0.0
C1064 C 0.65784 0.67959 0.18273 0.0
C1065 C 0.5917 0.65018 0.18694 0.0
N1066 N 0.71345 0.63496 0.16836 0.0
N1067 N 0.61861 0.63138 0.17899 0.0
H1068 H 0.25241 0.64481 0.22612 0.0
H1069 H 0.42184 0.73022 0.17342 0.0
H1070 H 0.30545 0.59943 0.17351 0.0
H1071 H 0.35691 0.78375 0.21787 0.0
H1072 H 0.38068 0.68118 0.17381 0.0
H1073 H 0.29287 0.69439 0.22473 0.0
C1074 C 0.27273 0.64518 0.21437 0.0
C1075 C 0.27552 0.61797 0.19989 0.0
C1076 C 0.37529 0.70378 0.18334 0.0
C1077 C 0.3218 0.67465 0.19815 0.0
C1078 C 0.39871 0.73181 0.18309 0.0
C1079 C 0.39287 0.761 0.19573 0.0
C1080 C 0.34599 0.70483 0.19647 0.0
C1081 C 0.36239 0.7618 0.20784 0.0
C1082 C 0.29573 0.67352 0.21354 0.0
C1083 C 0.30261 0.61957 0.18516 0.0
N1084 N 0.34024 0.73394 0.20806 0.0
N1085 N 0.32463 0.64753 0.18462 0.0
H1086 H 0.23285 0.43111 0.16699 0.0
H1087 H 0.32945 0.29302 0.24313 0.0
H1088 H 0.20692 0.41409 0.23195 0.0
H1089 H 0.36631 0.31914 0.18114 0.0
H1090 H 0.27982 0.33229 0.23758 0.0
H1091 H 0.27661 0.38411 0.16988 0.0
C1092 C 0.23583 0.41693 0.18168 0.0
C1093 C 0.21656 0.42652 0.1993 0.0
C1094 C 0.29876 0.32948 0.22517 0.0
C1095 C 0.26653 0.37346 0.20283 0.0
C1096 C 0.32709 0.30705 0.22835 0.0
C1097 C 0.35223 0.30304 0.21267 0.0
C1098 C 0.29538 0.34803 0.20613 0.0
C1099 C 0.34791 0.32199 0.19382 0.0
C1100 C 0.26099 0.39042 0.1834 0.0
C1101 C 0.22157 0.40767 0.21805 0.0
N1102 N 0.32003 0.34369 0.19108 0.0
N1103 N 0.24619 0.38223 0.21936 0.0
H1104 H 0.91557 0.24032 0.49141 0.0
H1105 H 0.06659 0.27741 0.57566 0.0
H1106 H 0.01629 0.28359 0.4747 0.0
H1107 H 0.95919 0.25781 0.59267 0.0
H1108 H 0.04976 0.27629 0.53872 0.0
H1109 H 0.93232 0.24261 0.52819 0.0
C1110 C 0.94119 0.25053 0.49536 0.0
C1111 C 0.96429 0.26229 0.47965 0.0
C1112 C 0.02979 0.27229 0.55047 0.0
C1113 C 0.98393 0.26433 0.52227 0.0
C1114 C 0.0394 0.27272 0.57163 0.0
C1115 C 0.01429 0.26732 0.58737 0.0
C1116 C -0.00523 0.26608 0.5448 0.0
C1117 C 0.97935 0.26215 0.5811 0.0
C1118 C 0.95076 0.2517 0.51651 0.0
C1119 C -0.00245 0.27416 0.48606 0.0
N1120 N 0.97068 0.26138 0.56032 0.0
N1121 N 0.00631 0.27491 0.50683 0.0
H1122 H 0.7295 0.04071 0.59915 0.0
H1123 H 0.68396 0.89304 0.51534 0.0
H1124 H 0.68112 0.94234 0.61625 0.0
H1125 H 0.70972 -0.00055 0.49816 0.0
H1126 H 0.68682 0.90888 0.55227 0.0
H1127 H 0.72694 0.02411 0.56251 0.0
C1128 C 0.71815 0.01561 0.59529 0.0
C1129 C 0.70496 -0.00681 0.61105 0.0
C1130 C 0.69184 0.92881 0.54047 0.0
C1131 C 0.70254 0.97368 0.56859 0.0
C1132 C 0.69044 0.91976 0.5193 0.0
C1133 C 0.69695 0.9449 0.50349 0.0
C1134 C 0.70014 0.96327 0.54609 0.0
C1135 C 0.70443 0.97926 0.50974 0.0
C1136 C 0.71682 0.00612 0.57423 0.0
C1137 C 0.69164 0.96053 0.60481 0.0
N1138 N 0.70605 -0.01264 0.5305 0.0
N1139 N 0.6907 0.95183 0.58411 0.0
H1140 H 0.03082 0.6938 0.57933 0.0
H1141 H 0.95433 0.65443 0.46373 0.0
H1142 H 0.92528 0.65781 0.56774 0.0
H1143 H 0.05864 0.69304 0.47601 0.0
H1144 H 0.9423 0.65677 0.50154 0.0
H1145 H 0.04132 0.69354 0.5415 0.0
C1146 C 0.00987 0.68571 0.56894 0.0
C1147 C 0.97702 0.67604 0.57701 0.0
C1148 C 0.96781 0.66479 0.49592 0.0
C1149 C -0.0112 0.67592 0.5333 0.0
C1150 C 0.97458 0.66368 0.47428 0.0
C1151 C 0.0077 0.67315 0.46653 0.0
C1152 C -0.00572 0.67556 0.51 0.0
C1153 C 0.03296 0.68475 0.48113 0.0
C1154 C 0.01581 0.68576 0.54724 0.0
C1155 C 0.95087 0.66608 0.56248 0.0
N1156 N 0.02581 0.68547 0.50199 0.0
N1157 N 0.95731 0.66628 0.54149 0.0
H1158 H 0.28118 0.90005 0.6183 0.0
H1159 H 0.31059 0.04331 0.52727 0.0
H1160 H 0.31792 0.00509 0.62976 0.0
H1161 H 0.27614 0.93763 0.51549 0.0
H1162 H 0.31285 0.02987 0.56465 0.0
H1163 H 0.27882 0.91339 0.58089 0.0
C1164 C 0.28898 0.92591 0.61304 0.0
C1165 C 0.30006 0.95136 0.62747 0.0
C1166 C 0.30476 0.00957 0.55393 0.0
C1167 C 0.29694 0.96698 0.58417 0.0
C1168 C 0.30325 0.01728 0.53246 0.0
C1169 C 0.29286 -0.00832 0.51796 0.0
C1170 C 0.29583 0.97593 0.56124 0.0
C1171 C 0.28449 0.95821 0.5259 0.0
C1172 C 0.28742 0.93355 0.59156 0.0
C1173 C 0.30901 -0.01538 0.61943 0.0
N1174 N 0.28606 0.95138 0.54693 0.0
N1175 N 0.30733 -0.00861 0.59841 0.0
H1176 H 0.41289 0.82275 1.01694 0.0
H1177 H 0.55624 0.78406 0.10668 0.0
H1178 H 0.51666 0.7843 1.00412 0.0
H1179 H 0.45179 0.82074 0.11936 0.0
H1180 H 0.5424 0.78426 0.06933 0.0
H1181 H 0.42686 0.82242 0.05422 0.0
C1182 C 0.43861 0.81399 1.02187 0.0
C1183 C 0.46348 0.80318 1.0071 0.0
C1184 C 0.52246 0.79228 0.08024 0.0
C1185 C 0.47987 0.8032 0.05031 0.0
C1186 C 0.5304 0.79236 0.10169 0.0
C1187 C 0.50528 0.80269 0.11644 0.0
C1188 C 0.48908 0.80261 0.0732 0.0
C1189 C 0.472 0.81238 0.10876 0.0
C1190 C 0.44663 0.81401 1.0433 0.0
C1191 C 0.49664 0.793 1.01475 0.0
N1192 N 0.46496 0.8122 0.08775 0.0
N1193 N 0.50378 0.79316 1.03575 0.0
H1194 H 0.18938 0.45834 0.1005 0.0
H1195 H 0.16244 0.52747 0.98153 0.0
H1196 H 0.168 0.56604 0.08419 0.0
H1197 H 0.19914 0.42393 0.99794 0.0
H1198 H 0.16224 0.54194 1.01899 0.0
H1199 H 0.18919 0.44425 0.06296 0.0
C1200 C 0.18441 0.47894 0.08908 0.0
C1201 C 0.17913 0.51348 0.09562 0.0
C1202 C 0.17034 0.51604 1.01434 0.0
C1203 C 0.17897 0.4977 0.05251 0.0
C1204 C 0.17069 0.50787 0.9929 0.0
C1205 C 0.18041 0.47426 0.98638 0.0
C1206 C 0.17973 0.49046 1.02946 0.0
C1207 C 0.19063 0.44992 1.00204 0.0
C1208 C 0.18454 0.471 0.06762 0.0
C1209 C 0.17293 0.53917 0.07999 0.0
N1210 N 0.18985 0.4584 1.02268 0.0
N1211 N 0.17305 0.5308 0.05931 0.0
H1212 H 0.50591 0.22928 0.12868 0.0
H1213 H 0.45706 0.17284 1.01106 0.0
H1214 H 0.41225 0.17221 0.11227 0.0
H1215 H 0.53815 0.24786 1.02575 0.0
H1216 H 0.44209 0.16977 0.04821 0.0
H1217 H 0.52108 0.23263 0.09131 0.0
C1218 C 0.48869 0.21727 0.11727 0.0
C1219 C 0.45761 0.20072 0.12367 0.0
C1220 C 0.46315 0.18695 1.04327 0.0
C1221 C 0.47468 0.20447 0.08085 0.0
C1222 C 0.4716 0.1889 1.02194 0.0
C1223 C 0.49919 0.21047 1.015 0.0
C1224 C 0.48246 0.20651 0.05793 0.0
C1225 C 0.51716 0.23031 1.03019 0.0
C1226 C 0.49719 0.21939 0.09592 0.0
C1227 C 0.43615 0.18577 0.10811 0.0
N1228 N 0.50864 0.22771 0.05083 0.0
N1229 N 0.44507 0.18796 0.08754 0.0
H1230 H 0.80515 0.5688 0.96915 0.0
H1231 H 0.74563 0.42963 0.05691 0.0
H1232 H 0.75545 0.47053 0.95434 0.0
H1233 H 0.8006 0.52564 0.07064 0.0
H1234 H 0.74802 0.44426 1.01964 0.0
H1235 H 0.80285 0.55347 1.00623 0.0
C1236 C 0.79354 0.54399 0.97365 0.0
C1237 C 0.78012 0.52111 0.95842 0.0
C1238 C 0.75957 0.46214 1.03079 0.0
C1239 C 0.77771 0.50312 1.00135 0.0
C1240 C 0.75836 0.45375 0.05219 0.0
C1241 C 0.77317 0.47625 0.06721 0.0
C1242 C 0.77563 0.49338 1.02412 0.0
C1243 C 0.78859 0.5075 0.05986 0.0
C1244 C 0.79242 0.53517 0.99494 0.0
C1245 C 0.76622 0.48896 0.96542 0.0
N1246 N 0.78947 0.51503 1.03893 0.0
N1247 N 0.76522 0.48101 0.98633 0.0
loop_
_geom_bond_atom_site_label_1
_geom_bond_atom_site_label_2
_geom_bond_distance
_geom_bond_site_symmetry_2
_ccdc_geom_bond_type
C0 C1 1.351 . S
C0 N3 1.368 1_655 S
C0 H5 0.931 . S
C1 C0 1.351 . S
C1 N2 1.373 1_655 S
C1 H29 0.930 . S
N2 C1 1.373 1_455 S
N2 C4 1.340 . S
N3 C0 1.368 1_455 S
N3 C4 1.321 . S
N3 Co6 2.135 . S
C4 N2 1.340 . S
C4 N3 1.321 . S
C4 H28 0.930 . S
H5 C0 0.931 . S
Co6 N3 2.135 . S
Co6 N9 2.121 . S
Co6 O14 2.055 . S
Co6 O17 2.039 . S
Co6 N20 2.140 1_455 S
C7 O8 1.227 . S
C7 O17 1.265 . S
O8 C7 1.227 . S
N9 Co6 2.121 . S
N9 C11 1.375 . S
N9 C12 1.313 . S
C10 C11 1.338 . S
C10 N13 1.377 . S
C10 H30 0.930 . S
C11 N9 1.375 . S
C11 C10 1.338 . S
C11 H15 0.931 . S
C12 N9 1.313 . S
C12 N13 1.344 . S
C12 H16 0.930 . S
N13 C10 1.377 . S
N13 C12 1.344 . S
O14 Co6 2.055 . S
O14 C18 1.253 . S
H15 C11 0.931 . S
H16 C12 0.930 . S
O17 Co6 2.039 . S
O17 C7 1.265 . S
C18 O14 1.253 . S
C18 O19 1.227 1_455 S
O19 C18 1.227 1_655 S
N20 Co6 2.140 1_655 S
N20 C23 1.346 . S
N20 C24 1.345 . S
C21 C22 1.387 . S
C21 C25 1.391 . S
C22 C21 1.387 . S
C22 C23 1.369 . S
C22 H31 0.929 . S
C23 N20 1.346 . S
C23 C22 1.369 . S
C23 H26 0.928 . S
C24 N20 1.345 . S
C24 C25 1.371 . S
C24 H27 0.931 . S
C25 C21 1.391 . S
C25 C24 1.371 . S
C25 H32 0.930 . S
H26 C23 0.928 . S
H27 C24 0.931 . S
H28 C4 0.930 . S
H29 C1 0.930 . S
H30 C10 0.930 . S
H31 C22 0.929 . S
H32 C25 0.930 . S
C33 C34 1.351 . S
C33 N36 1.368 1_565 S
C33 H38 0.931 . S
C34 C33 1.351 . S
C34 N35 1.373 1_565 S
C34 H62 0.930 . S
N35 C34 1.373 1_545 S
N35 C37 1.340 . S
N36 C33 1.368 1_545 S
N36 C37 1.321 . S
N36 Co39 2.135 . S
C37 N35 1.340 . S
C37 N36 1.321 . S
C37 H61 0.930 . S
H38 C33 0.931 . S
Co39 N36 2.135 . S
Co39 N42 2.121 . S
Co39 O47 2.055 . S
Co39 O50 2.039 . S
Co39 N53 2.140 1_545 S
C40 O41 1.227 . S
C40 O50 1.265 . S
O41 C40 1.227 . S
N42 Co39 2.121 . S
N42 C44 1.375 . S
N42 C45 1.313 . S
C43 C44 1.338 . S
C43 N46 1.377 . S
C43 H63 0.930 . S
C44 N42 1.375 . S
C44 C43 1.338 . S
C44 H48 0.931 . S
C45 N42 1.313 . S
C45 N46 1.344 . S
C45 H49 0.930 . S
N46 C43 1.377 . S
N46 C45 1.344 . S
O47 Co39 2.055 . S
O47 C51 1.253 . S
H48 C44 0.931 . S
H49 C45 0.930 . S
O50 Co39 2.039 . S
O50 C40 1.265 . S
C51 O47 1.253 . S
C51 O52 1.227 1_545 S
O52 C51 1.227 1_565 S
N53 Co39 2.140 1_565 S
N53 C56 1.346 . S
N53 C57 1.345 . S
C54 C55 1.387 . S
C54 C58 1.391 . S
C55 C54 1.387 . S
C55 C56 1.369 . S
C55 H64 0.929 . S
C56 N53 1.346 . S
C56 C55 1.369 . S
C56 H59 0.928 . S
C57 N53 1.345 . S
C57 C58 1.371 . S
C57 H60 0.931 . S
C58 C54 1.391 . S
C58 C57 1.371 . S
C58 H65 0.930 . S
H59 C56 0.928 . S
H60 C57 0.931 . S
H61 C37 0.930 . S
H62 C34 0.930 . S
H63 C43 0.930 . S
H64 C55 0.929 . S
H65 C58 0.930 . S
C66 C67 1.351 . S
C66 N69 1.368 1_455 S
C66 H71 0.931 . S
C67 C66 1.351 . S
C67 N68 1.373 1_455 S
C67 H95 0.930 . S
N68 C67 1.373 1_655 S
N68 C70 1.340 . S
N69 C66 1.368 1_655 S
N69 C70 1.321 . S
N69 Co72 2.135 . S
C70 N68 1.340 . S
C70 N69 1.321 . S
C70 H94 0.930 . S
H71 C66 0.931 . S
Co72 N69 2.135 . S
Co72 N75 2.121 . S
Co72 O80 2.055 . S
Co72 O83 2.039 . S
Co72 N86 2.140 1_655 S
C73 O74 1.227 . S
C73 O83 1.265 . S
O74 C73 1.227 . S
N75 Co72 2.121 . S
N75 C77 1.375 . S
N75 C78 1.313 . S
C76 C77 1.338 . S
C76 N79 1.377 . S
C76 H96 0.930 . S
C77 N75 1.375 . S
C77 C76 1.338 . S
C77 H81 0.931 . S
C78 N75 1.313 . S
C78 N79 1.344 . S
C78 H82 0.930 . S
N79 C76 1.377 . S
N79 C78 1.344 . S
O80 Co72 2.055 . S
O80 C84 1.253 . S
H81 C77 0.931 . S
H82 C78 0.930 . S
O83 Co72 2.039 . S
O83 C73 1.265 . S
C84 O80 1.253 . S
C84 O85 1.227 1_655 S
O85 C84 1.227 1_455 S
N86 Co72 2.140 1_455 S
N86 C89 1.346 . S
N86 C90 1.345 . S
C87 C88 1.387 . S
C87 C91 1.391 . S
C88 C87 1.387 . S
C88 C89 1.369 . S
C88 H97 0.929 . S
C89 N86 1.346 . S
C89 C88 1.369 . S
C89 H92 0.928 . S
C90 N86 1.345 . S
C90 C91 1.371 . S
C90 H93 0.931 . S
C91 C87 1.391 . S
C91 C90 1.371 . S
C91 H98 0.930 . S
H92 C89 0.928 . S
H93 C90 0.931 . S
H94 C70 0.930 . S
H95 C67 0.930 . S
H96 C76 0.930 . S
H97 C88 0.929 . S
H98 C91 0.930 . S
C99 C100 1.351 . S
C99 N102 1.368 1_545 S
C99 H104 0.931 . S
C100 C99 1.351 . S
C100 N101 1.373 1_545 S
C100 H128 0.930 . S
N101 C100 1.373 1_565 S
N101 C103 1.340 . S
N102 C99 1.368 1_565 S
N102 C103 1.321 . S
N102 Co105 2.135 . S
C103 N101 1.340 . S
C103 N102 1.321 . S
C103 H127 0.930 . S
H104 C99 0.931 . S
Co105 N102 2.135 . S
Co105 N108 2.121 . S
Co105 O113 2.055 . S
Co105 O116 2.039 . S
Co105 N119 2.140 1_565 S
C106 O107 1.227 . S
C106 O116 1.265 . S
O107 C106 1.227 . S
N108 Co105 2.121 . S
N108 C110 1.375 . S
N108 C111 1.313 . S
C109 C110 1.338 . S
C109 N112 1.377 . S
C109 H129 0.930 . S
C110 N108 1.375 . S
C110 C109 1.338 . S
C110 H114 0.931 . S
C111 N108 1.313 . S
C111 N112 1.344 . S
C111 H115 0.930 . S
N112 C109 1.377 . S
N112 C111 1.344 . S
O113 Co105 2.055 . S
O113 C117 1.253 . S
H114 C110 0.931 . S
H115 C111 0.930 . S
O116 Co105 2.039 . S
O116 C106 1.265 . S
C117 O113 1.253 . S
C117 O118 1.227 1_565 S
O118 C117 1.227 1_545 S
N119 Co105 2.140 1_545 S
N119 C122 1.346 . S
N119 C123 1.345 . S
C120 C121 1.387 . S
C120 C124 1.391 . S
C121 C120 1.387 . S
C121 C122 1.369 . S
C121 H130 0.929 . S
C122 N119 1.346 . S
C122 C121 1.369 . S
C122 H125 0.928 . S
C123 N119 1.345 . S
C123 C124 1.371 . S
C123 H126 0.931 . S
C124 C120 1.391 . S
C124 C123 1.371 . S
C124 H131 0.930 . S
H125 C122 0.928 . S
H126 C123 0.931 . S
H127 C103 0.930 . S
H128 C100 0.930 . S
H129 C109 0.930 . S
H130 C121 0.929 . S
H131 C124 0.930 . S
C132 C133 1.351 . S
C132 N135 1.368 1_655 S
C132 H137 0.931 . S
C133 C132 1.351 . S
C133 N134 1.373 1_655 S
C133 H161 0.930 . S
N134 C133 1.373 1_455 S
N134 C136 1.340 . S
N135 C132 1.368 1_455 S
N135 C136 1.321 . S
N135 Co138 2.135 . S
C136 N134 1.340 . S
C136 N135 1.321 . S
C136 H160 0.930 . S
H137 C132 0.931 . S
Co138 N135 2.135 . S
Co138 N141 2.121 . S
Co138 O146 2.055 . S
Co138 O149 2.039 . S
Co138 N152 2.140 1_455 S
C139 O140 1.227 . S
C139 O149 1.265 . S
O140 C139 1.227 . S
N141 Co138 2.121 . S
N141 C143 1.375 . S
N141 C144 1.313 . S
C142 C143 1.338 . S
C142 N145 1.377 . S
C142 H162 0.930 . S
C143 N141 1.375 . S
C143 C142 1.338 . S
C143 H147 0.931 . S
C144 N141 1.313 . S
C144 N145 1.344 . S
C144 H148 0.930 . S
N145 C142 1.377 . S
N145 C144 1.344 . S
O146 Co138 2.055 . S
O146 C150 1.253 . S
H147 C143 0.931 . S
H148 C144 0.930 . S
O149 Co138 2.039 . S
O149 C139 1.265 . S
C150 O146 1.253 . S
C150 O151 1.227 1_455 S
O151 C150 1.227 1_655 S
N152 Co138 2.140 1_655 S
N152 C155 1.346 . S
N152 C156 1.345 . S
C153 C154 1.387 . S
C153 C157 1.391 . S
C154 C153 1.387 . S
C154 C155 1.369 . S
C154 H163 0.929 . S
C155 N152 1.346 . S
C155 C154 1.369 . S
C155 H158 0.928 . S
C156 N152 1.345 . S
C156 C157 1.371 . S
C156 H159 0.931 . S
C157 C153 1.391 . S
C157 C156 1.371 . S
C157 H164 0.930 . S
H158 C155 0.928 . S
H159 C156 0.931 . S
H160 C136 0.930 . S
H161 C133 0.930 . S
H162 C142 0.930 . S
H163 C154 0.929 . S
H164 C157 0.930 . S
C165 C166 1.351 . S
C165 N168 1.368 1_565 S
C165 H170 0.931 . S
C166 C165 1.351 . S
C166 N167 1.373 1_565 S
C166 H194 0.930 . S
N167 C166 1.373 1_545 S
N167 C169 1.340 . S
N168 C165 1.368 1_545 S
N168 C169 1.321 . S
N168 Co171 2.135 . S
C169 N167 1.340 . S
C169 N168 1.321 . S
C169 H193 0.930 . S
H170 C165 0.931 . S
Co171 N168 2.135 . S
Co171 N174 2.121 . S
Co171 O179 2.055 . S
Co171 O182 2.039 . S
Co171 N185 2.140 1_545 S
C172 O173 1.227 . S
C172 O182 1.265 . S
O173 C172 1.227 . S
N174 Co171 2.121 . S
N174 C176 1.375 . S
N174 C177 1.313 . S
C175 C176 1.338 . S
C175 N178 1.377 . S
C175 H195 0.930 . S
C176 N174 1.375 . S
C176 C175 1.338 . S
C176 H180 0.931 . S
C177 N174 1.313 . S
C177 N178 1.344 . S
C177 H181 0.930 . S
N178 C175 1.377 . S
N178 C177 1.344 . S
O179 Co171 2.055 . S
O179 C183 1.253 . S
H180 C176 0.931 . S
H181 C177 0.930 . S
O182 Co171 2.039 . S
O182 C172 1.265 . S
C183 O179 1.253 . S
C183 O184 1.227 1_545 S
O184 C183 1.227 1_565 S
N185 Co171 2.140 1_565 S
N185 C188 1.346 . S
N185 C189 1.345 . S
C186 C187 1.387 . S
C186 C190 1.391 . S
C187 C186 1.387 . S
C187 C188 1.369 . S
C187 H196 0.929 . S
C188 N185 1.346 . S
C188 C187 1.369 . S
C188 H191 0.928 . S
C189 N185 1.345 . S
C189 C190 1.371 . S
C189 H192 0.931 . S
C190 C186 1.391 . S
C190 C189 1.371 . S
C190 H197 0.930 . S
H191 C188 0.928 . S
H192 C189 0.931 . S
H193 C169 0.930 . S
H194 C166 0.930 . S
H195 C175 0.930 . S
H196 C187 0.929 . S
H197 C190 0.930 . S
C198 C199 1.351 . S
C198 N201 1.368 1_455 S
C198 H203 0.931 . S
C199 C198 1.351 . S
C199 N200 1.373 1_455 S
C199 H227 0.930 . S
N200 C199 1.373 1_655 S
N200 C202 1.340 . S
N201 C198 1.368 1_655 S
N201 C202 1.321 . S
N201 Co204 2.135 . S
C202 N200 1.340 . S
C202 N201 1.321 . S
C202 H226 0.930 . S
H203 C198 0.931 . S
Co204 N201 2.135 . S
Co204 N207 2.121 . S
Co204 O212 2.055 . S
Co204 O215 2.039 . S
Co204 N218 2.140 1_655 S
C205 O206 1.227 . S
C205 O215 1.265 . S
O206 C205 1.227 . S
N207 Co204 2.121 . S
N207 C209 1.375 . S
N207 C210 1.313 . S
C208 C209 1.338 . S
C208 N211 1.377 . S
C208 H228 0.930 . S
C209 N207 1.375 . S
C209 C208 1.338 . S
C209 H213 0.931 . S
C210 N207 1.313 . S
C210 N211 1.344 . S
C210 H214 0.930 . S
N211 C208 1.377 . S
N211 C210 1.344 . S
O212 Co204 2.055 . S
O212 C216 1.253 . S
H213 C209 0.931 . S
H214 C210 0.930 . S
O215 Co204 2.039 . S
O215 C205 1.265 . S
C216 O212 1.253 . S
C216 O217 1.227 1_655 S
O217 C216 1.227 1_455 S
N218 Co204 2.140 1_455 S
N218 C221 1.346 . S
N218 C222 1.345 . S
C219 C220 1.387 . S
C219 C223 1.391 . S
C220 C219 1.387 . S
C220 C221 1.369 . S
C220 H229 0.929 . S
C221 N218 1.346 . S
C221 C220 1.369 . S
C221 H224 0.928 . S
C222 N218 1.345 . S
C222 C223 1.371 . S
C222 H225 0.931 . S
C223 C219 1.391 . S
C223 C222 1.371 . S
C223 H230 0.930 . S
H224 C221 0.928 . S
H225 C222 0.931 . S
H226 C202 0.930 . S
H227 C199 0.930 . S
H228 C208 0.930 . S
H229 C220 0.929 . S
H230 C223 0.930 . S
C231 C232 1.351 . S
C231 N234 1.368 1_545 S
C231 H236 0.931 . S
C232 C231 1.351 . S
C232 N233 1.373 1_545 S
C232 H260 0.930 . S
N233 C232 1.373 1_565 S
N233 C235 1.340 . S
N234 C231 1.368 1_565 S
N234 C235 1.321 . S
N234 Co237 2.135 . S
C235 N233 1.340 . S
C235 N234 1.321 . S
C235 H259 0.930 . S
H236 C231 0.931 . S
Co237 N234 2.135 . S
Co237 N240 2.121 . S
Co237 O245 2.055 . S
Co237 O248 2.039 . S
Co237 N251 2.140 1_565 S
C238 O239 1.227 . S
C238 O248 1.265 . S
O239 C238 1.227 . S
N240 Co237 2.121 . S
N240 C242 1.375 . S
N240 C243 1.313 . S
C241 C242 1.338 . S
C241 N244 1.377 . S
C241 H261 0.930 . S
C242 N240 1.375 . S
C242 C241 1.338 . S
C242 H246 0.931 . S
C243 N240 1.313 . S
C243 N244 1.344 . S
C243 H247 0.930 . S
N244 C241 1.377 . S
N244 C243 1.344 . S
O245 Co237 2.055 . S
O245 C249 1.253 . S
H246 C242 0.931 . S
H247 C243 0.930 . S
O248 Co237 2.039 . S
O248 C238 1.265 . S
C249 O245 1.253 . S
C249 O250 1.227 1_565 S
O250 C249 1.227 1_545 S
N251 Co237 2.140 1_545 S
N251 C254 1.346 . S
N251 C255 1.345 . S
C252 C253 1.387 . S
C252 C256 1.391 . S
C253 C252 1.387 . S
C253 C254 1.369 . S
C253 H262 0.929 . S
C254 N251 1.346 . S
C254 C253 1.369 . S
C254 H257 0.928 . S
C255 N251 1.345 . S
C255 C256 1.371 . S
C255 H258 0.931 . S
C256 C252 1.391 . S
C256 C255 1.371 . S
C256 H263 0.930 . S
H257 C254 0.928 . S
H258 C255 0.931 . S
H259 C235 0.930 . S
H260 C232 0.930 . S
H261 C241 0.930 . S
H262 C253 0.929 . S
H263 C256 0.930 . S
C264 C265 1.351 . S
C264 N267 1.368 . S
C264 H269 0.931 . S
C265 C264 1.351 . S
C265 N266 1.373 . S
C265 H293 0.930 . S
N266 C265 1.373 . S
N266 C268 1.340 . S
N267 C264 1.368 . S
N267 C268 1.321 . S
N267 Co270 2.135 . S
C268 N266 1.340 . S
C268 N267 1.321 . S
C268 H292 0.930 . S
H269 C264 0.931 . S
Co270 N267 2.135 . S
Co270 N273 2.121 . S
Co270 O278 2.055 . S
Co270 O281 2.039 . S
Co270 N284 2.140 . S
C271 O272 1.227 . S
C271 O281 1.265 . S
O272 C271 1.227 . S
N273 Co270 2.121 . S
N273 C275 1.375 . S
N273 C276 1.313 . S
C274 C275 1.338 . S
C274 N277 1.377 . S
C274 H294 0.930 . S
C275 N273 1.375 . S
C275 C274 1.338 . S
C275 H279 0.931 . S
C276 N273 1.313 . S
C276 N277 1.344 . S
C276 H280 0.930 . S
N277 C274 1.377 . S
N277 C276 1.344 . S
O278 Co270 2.055 . S
O278 C282 1.253 . S
H279 C275 0.931 . S
H280 C276 0.930 . S
O281 Co270 2.039 . S
O281 C271 1.265 . S
C282 O278 1.253 . S
C282 O283 1.227 . S
O283 C282 1.227 . S
N284 Co270 2.140 . S
N284 C287 1.346 . S
N284 C288 1.345 . S
C285 C286 1.387 . S
C285 C289 1.391 . S
C286 C285 1.387 . S
C286 C287 1.369 . S
C286 H295 0.929 . S
C287 N284 1.346 . S
C287 C286 1.369 . S
C287 H290 0.928 . S
C288 N284 1.345 . S
C288 C289 1.371 . S
C288 H291 0.931 . S
C289 C285 1.391 . S
C289 C288 1.371 . S
C289 H296 0.930 . S
H290 C287 0.928 . S
H291 C288 0.931 . S
H292 C268 0.930 . S
H293 C265 0.930 . S
H294 C274 0.930 . S
H295 C286 0.929 . S
H296 C289 0.930 . S
C297 C298 1.351 . S
C297 N300 1.368 . S
C297 H302 0.931 . S
C298 C297 1.351 . S
C298 N299 1.373 . S
C298 H326 0.930 . S
N299 C298 1.373 . S
N299 C301 1.340 . S
N300 C297 1.368 . S
N300 C301 1.321 . S
N300 Co303 2.135 . S
C301 N299 1.340 . S
C301 N300 1.321 . S
C301 H325 0.930 . S
H302 C297 0.931 . S
Co303 N300 2.135 . S
Co303 N306 2.121 . S
Co303 O311 2.055 . S
Co303 O314 2.039 . S
Co303 N317 2.140 . S
C304 O305 1.227 . S
C304 O314 1.265 . S
O305 C304 1.227 . S
N306 Co303 2.121 . S
N306 C308 1.375 . S
N306 C309 1.313 . S
C307 C308 1.338 . S
C307 N310 1.377 . S
C307 H327 0.930 . S
C308 N306 1.375 . S
C308 C307 1.338 . S
C308 H312 0.931 . S
C309 N306 1.313 . S
C309 N310 1.344 . S
C309 H313 0.930 . S
N310 C307 1.377 . S
N310 C309 1.344 . S
O311 Co303 2.055 . S
O311 C315 1.253 . S
H312 C308 0.931 . S
H313 C309 0.930 . S
O314 Co303 2.039 . S
O314 C304 1.265 . S
C315 O311 1.253 . S
C315 O316 1.227 . S
O316 C315 1.227 . S
N317 Co303 2.140 . S
N317 C320 1.346 . S
N317 C321 1.345 . S
C318 C319 1.387 . S
C318 C322 1.391 . S
C319 C318 1.387 . S
C319 C320 1.369 . S
C319 H328 0.929 . S
C320 N317 1.346 . S
C320 C319 1.369 . S
C320 H323 0.928 . S
C321 N317 1.345 . S
C321 C322 1.371 . S
C321 H324 0.931 . S
C322 C318 1.391 . S
C322 C321 1.371 . S
C322 H329 0.930 . S
H323 C320 0.928 . S
H324 C321 0.931 . S
H325 C301 0.930 . S
H326 C298 0.930 . S
H327 C307 0.930 . S
H328 C319 0.929 . S
H329 C322 0.930 . S
C330 C331 1.351 . S
C330 N333 1.368 . S
C330 H335 0.931 . S
C331 C330 1.351 . S
C331 N332 1.373 . S
C331 H359 0.930 . S
N332 C331 1.373 . S
N332 C334 1.340 . S
N333 C330 1.368 . S
N333 C334 1.321 . S
N333 Co336 2.135 . S
C334 N332 1.340 . S
C334 N333 1.321 . S
C334 H358 0.930 . S
H335 C330 0.931 . S
Co336 N333 2.135 . S
Co336 N339 2.121 . S
Co336 O344 2.055 . S
Co336 O347 2.039 . S
Co336 N350 2.140 . S
C337 O338 1.227 . S
C337 O347 1.265 . S
O338 C337 1.227 . S
N339 Co336 2.121 . S
N339 C341 1.375 . S
N339 C342 1.313 . S
C340 C341 1.338 . S
C340 N343 1.377 . S
C340 H360 0.930 . S
C341 N339 1.375 . S
C341 C340 1.338 . S
C341 H345 0.931 . S
C342 N339 1.313 . S
C342 N343 1.344 . S
C342 H346 0.930 . S
N343 C340 1.377 . S
N343 C342 1.344 . S
O344 Co336 2.055 . S
O344 C348 1.253 . S
H345 C341 0.931 . S
H346 C342 0.930 . S
O347 Co336 2.039 . S
O347 C337 1.265 . S
C348 O344 1.253 . S
C348 O349 1.227 . S
O349 C348 1.227 . S
N350 Co336 2.140 . S
N350 C353 1.346 . S
N350 C354 1.345 . S
C351 C352 1.387 . S
C351 C355 1.391 . S
C352 C351 1.387 . S
C352 C353 1.369 . S
C352 H361 0.929 . S
C353 N350 1.346 . S
C353 C352 1.369 . S
C353 H356 0.928 . S
C354 N350 1.345 . S
C354 C355 1.371 . S
C354 H357 0.931 . S
C355 C351 1.391 . S
C355 C354 1.371 . S
C355 H362 0.930 . S
H356 C353 0.928 . S
H357 C354 0.931 . S
H358 C334 0.930 . S
H359 C331 0.930 . S
H360 C340 0.930 . S
H361 C352 0.929 . S
H362 C355 0.930 . S
C363 C364 1.351 . S
C363 N366 1.368 . S
C363 H368 0.931 . S
C364 C363 1.351 . S
C364 N365 1.373 . S
C364 H392 0.930 . S
N365 C364 1.373 . S
N365 C367 1.340 . S
N366 C363 1.368 . S
N366 C367 1.321 . S
N366 Co369 2.135 . S
C367 N365 1.340 . S
C367 N366 1.321 . S
C367 H391 0.930 . S
H368 C363 0.931 . S
Co369 N366 2.135 . S
Co369 N372 2.121 . S
Co369 O377 2.055 . S
Co369 O380 2.039 . S
Co369 N383 2.140 . S
C370 O371 1.227 . S
C370 O380 1.265 . S
O371 C370 1.227 . S
N372 Co369 2.121 . S
N372 C374 1.375 . S
N372 C375 1.313 . S
C373 C374 1.338 . S
C373 N376 1.377 . S
C373 H393 0.930 . S
C374 N372 1.375 . S
C374 C373 1.338 . S
C374 H378 0.931 . S
C375 N372 1.313 . S
C375 N376 1.344 . S
C375 H379 0.930 . S
N376 C373 1.377 . S
N376 C375 1.344 . S
O377 Co369 2.055 . S
O377 C381 1.253 . S
H378 C374 0.931 . S
H379 C375 0.930 . S
O380 Co369 2.039 . S
O380 C370 1.265 . S
C381 O377 1.253 . S
C381 O382 1.227 . S
O382 C381 1.227 . S
N383 Co369 2.140 . S
N383 C386 1.346 . S
N383 C387 1.345 . S
C384 C385 1.387 . S
C384 C388 1.391 . S
C385 C384 1.387 . S
C385 C386 1.369 . S
C385 H394 0.929 . S
C386 N383 1.346 . S
C386 C385 1.369 . S
C386 H389 0.928 . S
C387 N383 1.345 . S
C387 C388 1.371 . S
C387 H390 0.931 . S
C388 C384 1.391 . S
C388 C387 1.371 . S
C388 H395 0.930 . S
H389 C386 0.928 . S
H390 C387 0.931 . S
H391 C367 0.930 . S
H392 C364 0.930 . S
H393 C373 0.930 . S
H394 C385 0.929 . S
H395 C388 0.930 . S
C396 C397 1.351 . S
C396 N399 1.368 . S
C396 H401 0.931 . S
C397 C396 1.351 . S
C397 N398 1.373 . S
C397 H425 0.930 . S
N398 C397 1.373 . S
N398 C400 1.340 . S
N399 C396 1.368 . S
N399 C400 1.321 . S
N399 Co402 2.135 . S
C400 N398 1.340 . S
C400 N399 1.321 . S
C400 H424 0.930 . S
H401 C396 0.931 . S
Co402 N399 2.135 . S
Co402 N405 2.121 . S
Co402 O410 2.055 . S
Co402 O413 2.039 . S
Co402 N416 2.140 . S
C403 O404 1.227 . S
C403 O413 1.265 . S
O404 C403 1.227 . S
N405 Co402 2.121 . S
N405 C407 1.375 . S
N405 C408 1.313 . S
C406 C407 1.338 . S
C406 N409 1.377 . S
C406 H426 0.930 . S
C407 N405 1.375 . S
C407 C406 1.338 . S
C407 H411 0.931 . S
C408 N405 1.313 . S
C408 N409 1.344 . S
C408 H412 0.930 . S
N409 C406 1.377 . S
N409 C408 1.344 . S
O410 Co402 2.055 . S
O410 C414 1.253 . S
H411 C407 0.931 . S
H412 C408 0.930 . S
O413 Co402 2.039 . S
O413 C403 1.265 . S
C414 O410 1.253 . S
C414 O415 1.227 . S
O415 C414 1.227 . S
N416 Co402 2.140 . S
N416 C419 1.346 . S
N416 C420 1.345 . S
C417 C418 1.387 . S
C417 C421 1.391 . S
C418 C417 1.387 . S
C418 C419 1.369 . S
C418 H427 0.929 . S
C419 N416 1.346 . S
C419 C418 1.369 . S
C419 H422 0.928 . S
C420 N416 1.345 . S
C420 C421 1.371 . S
C420 H423 0.931 . S
C421 C417 1.391 . S
C421 C420 1.371 . S
C421 H428 0.930 . S
H422 C419 0.928 . S
H423 C420 0.931 . S
H424 C400 0.930 . S
H425 C397 0.930 . S
H426 C406 0.930 . S
H427 C418 0.929 . S
H428 C421 0.930 . S
C429 C430 1.351 . S
C429 N432 1.368 . S
C429 H434 0.931 . S
C430 C429 1.351 . S
C430 N431 1.373 . S
C430 H458 0.930 . S
N431 C430 1.373 . S
N431 C433 1.340 . S
N432 C429 1.368 . S
N432 C433 1.321 . S
N432 Co435 2.135 . S
C433 N431 1.340 . S
C433 N432 1.321 . S
C433 H457 0.930 . S
H434 C429 0.931 . S
Co435 N432 2.135 . S
Co435 N438 2.121 . S
Co435 O443 2.055 . S
Co435 O446 2.039 . S
Co435 N449 2.140 . S
C436 O437 1.227 . S
C436 O446 1.265 . S
O437 C436 1.227 . S
N438 Co435 2.121 . S
N438 C440 1.375 . S
N438 C441 1.313 . S
C439 C440 1.338 . S
C439 N442 1.377 . S
C439 H459 0.930 . S
C440 N438 1.375 . S
C440 C439 1.338 . S
C440 H444 0.931 . S
C441 N438 1.313 . S
C441 N442 1.344 . S
C441 H445 0.930 . S
N442 C439 1.377 . S
N442 C441 1.344 . S
O443 Co435 2.055 . S
O443 C447 1.253 . S
H444 C440 0.931 . S
H445 C441 0.930 . S
O446 Co435 2.039 . S
O446 C436 1.265 . S
C447 O443 1.253 . S
C447 O448 1.227 . S
O448 C447 1.227 . S
N449 Co435 2.140 . S
N449 C452 1.346 . S
N449 C453 1.345 . S
C450 C451 1.387 . S
C450 C454 1.391 . S
C451 C450 1.387 . S
C451 C452 1.369 . S
C451 H460 0.929 . S
C452 N449 1.346 . S
C452 C451 1.369 . S
C452 H455 0.928 . S
C453 N449 1.345 . S
C453 C454 1.371 . S
C453 H456 0.931 . S
C454 C450 1.391 . S
C454 C453 1.371 . S
C454 H461 0.930 . S
H455 C452 0.928 . S
H456 C453 0.931 . S
H457 C433 0.930 . S
H458 C430 0.930 . S
H459 C439 0.930 . S
H460 C451 0.929 . S
H461 C454 0.930 . S
C462 C463 1.351 . S
C462 N465 1.368 . S
C462 H467 0.931 . S
C463 C462 1.351 . S
C463 N464 1.373 . S
C463 H491 0.930 . S
N464 C463 1.373 . S
N464 C466 1.340 . S
N465 C462 1.368 . S
N465 C466 1.321 . S
N465 Co468 2.135 . S
C466 N464 1.340 . S
C466 N465 1.321 . S
C466 H490 0.930 . S
H467 C462 0.931 . S
Co468 N465 2.135 . S
Co468 N471 2.121 . S
Co468 O476 2.055 . S
Co468 O479 2.039 . S
Co468 N482 2.140 . S
C469 O470 1.227 . S
C469 O479 1.265 . S
O470 C469 1.227 . S
N471 Co468 2.121 . S
N471 C473 1.375 . S
N471 C474 1.313 . S
C472 C473 1.338 . S
C472 N475 1.377 . S
C472 H492 0.930 . S
C473 N471 1.375 . S
C473 C472 1.338 . S
C473 H477 0.931 . S
C474 N471 1.313 . S
C474 N475 1.344 . S
C474 H478 0.930 . S
N475 C472 1.377 . S
N475 C474 1.344 . S
O476 Co468 2.055 . S
O476 C480 1.253 . S
H477 C473 0.931 . S
H478 C474 0.930 . S
O479 Co468 2.039 . S
O479 C469 1.265 . S
C480 O476 1.253 . S
C480 O481 1.227 . S
O481 C480 1.227 . S
N482 Co468 2.140 . S
N482 C485 1.346 . S
N482 C486 1.345 . S
C483 C484 1.387 . S
C483 C487 1.391 . S
C484 C483 1.387 . S
C484 C485 1.369 . S
C484 H493 0.929 . S
C485 N482 1.346 . S
C485 C484 1.369 . S
C485 H488 0.928 . S
C486 N482 1.345 . S
C486 C487 1.371 . S
C486 H489 0.931 . S
C487 C483 1.391 . S
C487 C486 1.371 . S
C487 H494 0.930 . S
H488 C485 0.928 . S
H489 C486 0.931 . S
H490 C466 0.930 . S
H491 C463 0.930 . S
H492 C472 0.930 . S
H493 C484 0.929 . S
H494 C487 0.930 . S
C495 C496 1.351 . S
C495 N498 1.368 . S
C495 H500 0.931 . S
C496 C495 1.351 . S
C496 N497 1.373 . S
C496 H524 0.930 . S
N497 C496 1.373 . S
N497 C499 1.340 . S
N498 C495 1.368 . S
N498 C499 1.321 . S
N498 Co501 2.135 . S
C499 N497 1.340 . S
C499 N498 1.321 . S
C499 H523 0.930 . S
H500 C495 0.931 . S
Co501 N498 2.135 . S
Co501 N504 2.121 . S
Co501 O509 2.055 . S
Co501 O512 2.039 . S
Co501 N515 2.140 . S
C502 O503 1.227 . S
C502 O512 1.265 . S
O503 C502 1.227 . S
N504 Co501 2.121 . S
N504 C506 1.375 . S
N504 C507 1.313 . S
C505 C506 1.338 . S
C505 N508 1.377 . S
C505 H525 0.930 . S
C506 N504 1.375 . S
C506 C505 1.338 . S
C506 H510 0.931 . S
C507 N504 1.313 . S
C507 N508 1.344 . S
C507 H511 0.930 . S
N508 C505 1.377 . S
N508 C507 1.344 . S
O509 Co501 2.055 . S
O509 C513 1.253 . S
H510 C506 0.931 . S
H511 C507 0.930 . S
O512 Co501 2.039 . S
O512 C502 1.265 . S
C513 O509 1.253 . S
C513 O514 1.227 . S
O514 C513 1.227 . S
N515 Co501 2.140 . S
N515 C518 1.346 . S
N515 C519 1.345 . S
C516 C517 1.387 . S
C516 C520 1.391 . S
C517 C516 1.387 . S
C517 C518 1.369 . S
C517 H526 0.929 . S
C518 N515 1.346 . S
C518 C517 1.369 . S
C518 H521 0.928 . S
C519 N515 1.345 . S
C519 C520 1.371 . S
C519 H522 0.931 . S
C520 C516 1.391 . S
C520 C519 1.371 . S
C520 H527 0.930 . S
H521 C518 0.928 . S
H522 C519 0.931 . S
H523 C499 0.930 . S
H524 C496 0.930 . S
H525 C505 0.930 . S
H526 C517 0.929 . S
H527 C520 0.930 . S
H528 C534 0.930 . S
H529 C538 0.930 . S
H530 C543 0.929 . S
H531 C541 0.929 . S
H532 C536 0.929 . S
H533 C542 0.929 . S
C534 H528 0.930 . S
C534 C535 1.367 1_455 S
C534 C542 1.378 . S
C535 C534 1.367 1_655 S
C535 C543 1.433 . S
C536 H532 0.929 . S
C536 C538 1.378 . S
C536 C540 1.350 1_655 S
C537 C540 1.463 1_655 S
C537 C542 1.350 1_655 S
C537 N545 1.427 . S
C538 H529 0.930 . S
C538 C536 1.378 . S
C538 C539 1.367 1_655 S
C539 C538 1.367 1_455 S
C539 C541 1.433 . S
C540 C536 1.350 1_455 S
C540 C537 1.463 1_455 S
C540 N544 1.427 . S
C541 H531 0.929 . S
C541 C539 1.433 . S
C541 N544 1.384 . S
C542 H533 0.929 . S
C542 C534 1.378 . S
C542 C537 1.350 1_455 S
C543 H530 0.929 . S
C543 C535 1.433 . S
C543 N545 1.384 . S
N544 C540 1.427 . S
N544 C541 1.384 . S
N545 C537 1.427 . S
N545 C543 1.384 . S
H546 C552 0.930 . S
H547 C556 0.930 . S
H548 C561 0.929 . S
H549 C559 0.929 . S
H550 C554 0.929 . S
H551 C560 0.929 . S
C552 H546 0.930 . S
C552 C553 1.367 . S
C552 C560 1.378 . S
C553 C552 1.367 . S
C553 C561 1.433 1_545 S
C554 H550 0.929 . S
C554 C556 1.378 . S
C554 C558 1.350 . S
C555 C558 1.463 1_545 S
C555 C560 1.350 . S
C555 N563 1.427 1_545 S
C556 H547 0.930 . S
C556 C554 1.378 . S
C556 C557 1.367 . S
C557 C556 1.367 . S
C557 C559 1.433 1_565 S
C558 C554 1.350 . S
C558 C555 1.463 1_565 S
C558 N562 1.427 1_565 S
C559 H549 0.929 . S
C559 C557 1.433 1_545 S
C559 N562 1.384 . S
C560 H551 0.929 . S
C560 C552 1.378 . S
C560 C555 1.350 . S
C561 H548 0.929 . S
C561 C553 1.433 1_565 S
C561 N563 1.384 . S
N562 C558 1.427 1_545 S
N562 C559 1.384 . S
N563 C555 1.427 1_565 S
N563 C561 1.384 . S
H564 C570 0.930 . S
H565 C574 0.930 . S
H566 C579 0.929 . S
H567 C577 0.929 . S
H568 C572 0.929 . S
H569 C578 0.929 . S
C570 H564 0.930 . S
C570 C571 1.367 . S
C570 C578 1.378 . S
C571 C570 1.367 . S
C571 C579 1.433 . S
C572 H568 0.929 . S
C572 C574 1.378 . S
C572 C576 1.350 . S
C573 C576 1.463 1_655 S
C573 C578 1.350 . S
C573 N581 1.427 1_655 S
C574 H565 0.930 . S
C574 C572 1.378 . S
C574 C575 1.367 . S
C575 C574 1.367 . S
C575 C577 1.433 . S
C576 C572 1.350 . S
C576 C573 1.463 1_455 S
C576 N580 1.427 1_455 S
C577 H567 0.929 . S
C577 C575 1.433 . S
C577 N580 1.384 1_455 S
C578 H569 0.929 . S
C578 C570 1.378 . S
C578 C573 1.350 . S
C579 H566 0.929 . S
C579 C571 1.433 . S
C579 N581 1.384 1_655 S
N580 C576 1.427 1_655 S
N580 C577 1.384 1_655 S
N581 C573 1.427 1_455 S
N581 C579 1.384 1_455 S
H582 C588 0.930 . S
H583 C592 0.930 . S
H584 C597 0.929 . S
H585 C595 0.929 . S
H586 C590 0.929 . S
H587 C596 0.929 . S
C588 H582 0.930 . S
C588 C589 1.367 . S
C588 C596 1.378 . S
C589 C588 1.367 . S
C589 C597 1.433 1_565 S
C590 H586 0.929 . S
C590 C592 1.378 . S
C590 C594 1.350 . S
C591 C594 1.463 1_565 S
C591 C596 1.350 . S
C591 N599 1.427 1_565 S
C592 H583 0.930 . S
C592 C590 1.378 . S
C592 C593 1.367 . S
C593 C592 1.367 . S
C593 C595 1.433 1_545 S
C594 C590 1.350 . S
C594 C591 1.463 1_545 S
C594 N598 1.427 1_545 S
C595 H585 0.929 . S
C595 C593 1.433 1_565 S
C595 N598 1.384 . S
C596 H587 0.929 . S
C596 C588 1.378 . S
C596 C591 1.350 . S
C597 H584 0.929 . S
C597 C589 1.433 1_545 S
C597 N599 1.384 . S
N598 C594 1.427 1_565 S
N598 C595 1.384 . S
N599 C591 1.427 1_545 S
N599 C597 1.384 . S
H600 C606 0.930 . S
H601 C610 0.930 . S
H602 C615 0.929 . S
H603 C613 0.929 . S
H604 C608 0.929 . S
H605 C614 0.929 . S
C606 H600 0.930 . S
C606 C607 1.367 . S
C606 C614 1.378 . S
C607 C606 1.367 . S
C607 C615 1.433 . S
C608 H604 0.929 . S
C608 C610 1.378 . S
C608 C612 1.350 . S
C609 C612 1.463 1_565 S
C609 C614 1.350 . S
C609 N617 1.427 . S
C610 H601 0.930 . S
C610 C608 1.378 . S
C610 C611 1.367 . S
C611 C610 1.367 . S
C611 C613 1.433 . S
C612 C608 1.350 . S
C612 C609 1.463 1_545 S
C612 N616 1.427 . S
C613 H603 0.929 . S
C613 C611 1.433 . S
C613 N616 1.384 . S
C614 H605 0.929 . S
C614 C606 1.378 . S
C614 C609 1.350 . S
C615 H602 0.929 . S
C615 C607 1.433 . S
C615 N617 1.384 . S
N616 C612 1.427 . S
N616 C613 1.384 . S
N617 C609 1.427 . S
N617 C615 1.384 . S
H618 C624 0.930 . S
H619 C628 0.930 . S
H620 C633 0.929 . S
H621 C631 0.929 . S
H622 C626 0.929 . S
H623 C632 0.929 . S
C624 H618 0.930 . S
C624 C625 1.367 . S
C624 C632 1.378 . S
C625 C624 1.367 . S
C625 C633 1.433 . S
C626 H622 0.929 . S
C626 C628 1.378 . S
C626 C630 1.350 . S
C627 C630 1.463 1_655 S
C627 C632 1.350 . S
C627 N635 1.427 . S
C628 H619 0.930 . S
C628 C626 1.378 . S
C628 C629 1.367 . S
C629 C628 1.367 . S
C629 C631 1.433 . S
C630 C626 1.350 . S
C630 C627 1.463 1_455 S
C630 N634 1.427 . S
C631 H621 0.929 . S
C631 C629 1.433 . S
C631 N634 1.384 . S
C632 H623 0.929 . S
C632 C624 1.378 . S
C632 C627 1.350 . S
C633 H620 0.929 . S
C633 C625 1.433 . S
C633 N635 1.384 . S
N634 C630 1.427 . S
N634 C631 1.384 . S
N635 C627 1.427 . S
N635 C633 1.384 . S
H636 C642 0.930 . S
H637 C646 0.930 . S
H638 C651 0.929 . S
H639 C649 0.929 . S
H640 C644 0.929 . S
H641 C650 0.929 . S
C642 H636 0.930 . S
C642 C643 1.367 . S
C642 C650 1.378 . S
C643 C642 1.367 . S
C643 C651 1.433 . S
C644 H640 0.929 . S
C644 C646 1.378 . S
C644 C648 1.350 . S
C645 C648 1.463 1_565 S
C645 C650 1.350 . S
C645 N653 1.427 . S
C646 H637 0.930 . S
C646 C644 1.378 . S
C646 C647 1.367 . S
C647 C646 1.367 . S
C647 C649 1.433 . S
C648 C644 1.350 . S
C648 C645 1.463 1_545 S
C648 N652 1.427 . S
C649 H639 0.929 . S
C649 C647 1.433 . S
C649 N652 1.384 . S
C650 H641 0.929 . S
C650 C642 1.378 . S
C650 C645 1.350 . S
C651 H638 0.929 . S
C651 C643 1.433 . S
C651 N653 1.384 . S
N652 C648 1.427 . S
N652 C649 1.384 . S
N653 C645 1.427 . S
N653 C651 1.384 . S
H654 C660 0.930 . S
H655 C664 0.930 . S
H656 C669 0.929 . S
H657 C667 0.929 . S
H658 C662 0.929 . S
H659 C668 0.929 . S
C660 H654 0.930 . S
C660 C661 1.367 . S
C660 C668 1.378 . S
C661 C660 1.367 . S
C661 C669 1.433 . S
C662 H658 0.929 . S
C662 C664 1.378 . S
C662 C666 1.350 . S
C663 C666 1.463 1_655 S
C663 C668 1.350 . S
C663 N671 1.427 . S
C664 H655 0.930 . S
C664 C662 1.378 . S
C664 C665 1.367 . S
C665 C664 1.367 . S
C665 C667 1.433 . S
C666 C662 1.350 . S
C666 C663 1.463 1_455 S
C666 N670 1.427 . S
C667 H657 0.929 . S
C667 C665 1.433 . S
C667 N670 1.384 . S
C668 H659 0.929 . S
C668 C660 1.378 . S
C668 C663 1.350 . S
C669 H656 0.929 . S
C669 C661 1.433 . S
C669 N671 1.384 . S
N670 C666 1.427 . S
N670 C667 1.384 . S
N671 C663 1.427 . S
N671 C669 1.384 . S
H672 C678 0.930 . S
H673 C682 0.930 . S
H674 C687 0.929 . S
H675 C685 0.929 . S
H676 C680 0.929 . S
H677 C686 0.929 . S
C678 H672 0.930 . S
C678 C679 1.367 . S
C678 C686 1.378 . S
C679 C678 1.367 . S
C679 C687 1.433 . S
C680 H676 0.929 . S
C680 C682 1.378 . S
C680 C684 1.350 . S
C681 C684 1.463 . S
C681 C686 1.350 . S
C681 N689 1.427 . S
C682 H673 0.930 . S
C682 C680 1.378 . S
C682 C683 1.367 . S
C683 C682 1.367 . S
C683 C685 1.433 . S
C684 C680 1.350 . S
C684 C681 1.463 . S
C684 N688 1.427 . S
C685 H675 0.929 . S
C685 C683 1.433 . S
C685 N688 1.384 . S
C686 H677 0.929 . S
C686 C678 1.378 . S
C686 C681 1.350 . S
C687 H674 0.929 . S
C687 C679 1.433 . S
C687 N689 1.384 . S
N688 C684 1.427 . S
N688 C685 1.384 . S
N689 C681 1.427 . S
N689 C687 1.384 . S
H690 C696 0.930 . S
H691 C700 0.930 . S
H692 C705 0.929 . S
H693 C703 0.929 . S
H694 C698 0.929 . S
H695 C704 0.929 . S
C696 H690 0.930 . S
C696 C697 1.367 . S
C696 C704 1.378 . S
C697 C696 1.367 . S
C697 C705 1.433 . S
C698 H694 0.929 . S
C698 C700 1.378 . S
C698 C702 1.350 . S
C699 C702 1.463 . S
C699 C704 1.350 . S
C699 N707 1.427 . S
C700 H691 0.930 . S
C700 C698 1.378 . S
C700 C701 1.367 . S
C701 C700 1.367 . S
C701 C703 1.433 . S
C702 C698 1.350 . S
C702 C699 1.463 . S
C702 N706 1.427 . S
C703 H693 0.929 . S
C703 C701 1.433 . S
C703 N706 1.384 . S
C704 H695 0.929 . S
C704 C696 1.378 . S
C704 C699 1.350 . S
C705 H692 0.929 . S
C705 C697 1.433 . S
C705 N707 1.384 . S
N706 C702 1.427 . S
N706 C703 1.384 . S
N707 C699 1.427 . S
N707 C705 1.384 . S
H708 C714 0.930 . S
H709 C718 0.930 . S
H710 C723 0.929 . S
H711 C721 0.929 . S
H712 C716 0.929 . S
H713 C722 0.929 . S
C714 H708 0.930 . S
C714 C715 1.367 . S
C714 C722 1.378 . S
C715 C714 1.367 . S
C715 C723 1.433 . S
C716 H712 0.929 . S
C716 C718 1.378 . S
C716 C720 1.350 . S
C717 C720 1.463 . S
C717 C722 1.350 . S
C717 N725 1.427 . S
C718 H709 0.930 . S
C718 C716 1.378 . S
C718 C719 1.367 . S
C719 C718 1.367 . S
C719 C721 1.433 . S
C720 C716 1.350 . S
C720 C717 1.463 . S
C720 N724 1.427 . S
C721 H711 0.929 . S
C721 C719 1.433 . S
C721 N724 1.384 . S
C722 H713 0.929 . S
C722 C714 1.378 . S
C722 C717 1.350 . S
C723 H710 0.929 . S
C723 C715 1.433 . S
C723 N725 1.384 . S
N724 C720 1.427 . S
N724 C721 1.384 . S
N725 C717 1.427 . S
N725 C723 1.384 . S
H726 C732 0.930 . S
H727 C736 0.930 . S
H728 C741 0.929 . S
H729 C739 0.929 . S
H730 C734 0.929 . S
H731 C740 0.929 . S
C732 H726 0.930 . S
C732 C733 1.367 . S
C732 C740 1.378 . S
C733 C732 1.367 . S
C733 C741 1.433 . S
C734 H730 0.929 . S
C734 C736 1.378 . S
C734 C738 1.350 . S
C735 C738 1.463 . S
C735 C740 1.350 . S
C735 N743 1.427 . S
C736 H727 0.930 . S
C736 C734 1.378 . S
C736 C737 1.367 . S
C737 C736 1.367 . S
C737 C739 1.433 . S
C738 C734 1.350 . S
C738 C735 1.463 . S
C738 N742 1.427 . S
C739 H729 0.929 . S
C739 C737 1.433 . S
C739 N742 1.384 . S
C740 H731 0.929 . S
C740 C732 1.378 . S
C740 C735 1.350 . S
C741 H728 0.929 . S
C741 C733 1.433 . S
C741 N743 1.384 . S
N742 C738 1.427 . S
N742 C739 1.384 . S
N743 C735 1.427 . S
N743 C741 1.384 . S
H744 C750 0.930 . S
H745 C754 0.930 . S
H746 C759 0.929 . S
H747 C757 0.929 . S
H748 C752 0.929 . S
H749 C758 0.929 . S
C750 H744 0.930 . S
C750 C751 1.367 . S
C750 C758 1.378 . S
C751 C750 1.367 . S
C751 C759 1.433 . S
C752 H748 0.929 . S
C752 C754 1.378 . S
C752 C756 1.350 . S
C753 C756 1.463 . S
C753 C758 1.350 . S
C753 N761 1.427 . S
C754 H745 0.930 . S
C754 C752 1.378 . S
C754 C755 1.367 . S
C755 C754 1.367 . S
C755 C757 1.433 . S
C756 C752 1.350 . S
C756 C753 1.463 . S
C756 N760 1.427 . S
C757 H747 0.929 . S
C757 C755 1.433 . S
C757 N760 1.384 . S
C758 H749 0.929 . S
C758 C750 1.378 . S
C758 C753 1.350 . S
C759 H746 0.929 . S
C759 C751 1.433 . S
C759 N761 1.384 . S
N760 C756 1.427 . S
N760 C757 1.384 . S
N761 C753 1.427 . S
N761 C759 1.384 . S
H762 C768 0.930 . S
H763 C772 0.930 . S
H764 C777 0.929 . S
H765 C775 0.929 . S
H766 C770 0.929 . S
H767 C776 0.929 . S
C768 H762 0.930 . S
C768 C769 1.367 . S
C768 C776 1.378 . S
C769 C768 1.367 . S
C769 C777 1.433 . S
C770 H766 0.929 . S
C770 C772 1.378 . S
C770 C774 1.350 . S
C771 C774 1.463 . S
C771 C776 1.350 . S
C771 N779 1.427 . S
C772 H763 0.930 . S
C772 C770 1.378 . S
C772 C773 1.367 . S
C773 C772 1.367 . S
C773 C775 1.433 . S
C774 C770 1.350 . S
C774 C771 1.463 . S
C774 N778 1.427 . S
C775 H765 0.929 . S
C775 C773 1.433 . S
C775 N778 1.384 . S
C776 H767 0.929 . S
C776 C768 1.378 . S
C776 C771 1.350 . S
C777 H764 0.929 . S
C777 C769 1.433 . S
C777 N779 1.384 . S
N778 C774 1.427 . S
N778 C775 1.384 . S
N779 C771 1.427 . S
N779 C777 1.384 . S
H780 C786 0.930 . S
H781 C790 0.930 . S
H782 C795 0.929 . S
H783 C793 0.929 . S
H784 C788 0.929 . S
H785 C794 0.929 . S
C786 H780 0.930 . S
C786 C787 1.367 . S
C786 C794 1.378 . S
C787 C786 1.367 . S
C787 C795 1.433 . S
C788 H784 0.929 . S
C788 C790 1.378 . S
C788 C792 1.350 . S
C789 C792 1.463 . S
C789 C794 1.350 . S
C789 N797 1.427 . S
C790 H781 0.930 . S
C790 C788 1.378 . S
C790 C791 1.367 . S
C791 C790 1.367 . S
C791 C793 1.433 . S
C792 C788 1.350 . S
C792 C789 1.463 . S
C792 N796 1.427 . S
C793 H783 0.929 . S
C793 C791 1.433 . S
C793 N796 1.384 . S
C794 H785 0.929 . S
C794 C786 1.378 . S
C794 C789 1.350 . S
C795 H782 0.929 . S
C795 C787 1.433 . S
C795 N797 1.384 . S
N796 C792 1.427 . S
N796 C793 1.384 . S
N797 C789 1.427 . S
N797 C795 1.384 . S
H798 C804 0.930 . S
H799 C808 0.930 . S
H800 C813 0.929 . S
H801 C811 0.929 . S
H802 C806 0.929 . S
H803 C812 0.929 . S
C804 H798 0.930 . S
C804 C805 1.367 . S
C804 C812 1.378 . S
C805 C804 1.367 . S
C805 C813 1.433 . S
C806 H802 0.929 . S
C806 C808 1.378 . S
C806 C810 1.350 . S
C807 C810 1.463 . S
C807 C812 1.350 . S
C807 N815 1.427 . S
C808 H799 0.930 . S
C808 C806 1.378 . S
C808 C809 1.367 . S
C809 C808 1.367 . S
C809 C811 1.433 . S
C810 C806 1.350 . S
C810 C807 1.463 . S
C810 N814 1.427 . S
C811 H801 0.929 . S
C811 C809 1.433 . S
C811 N814 1.384 . S
C812 H803 0.929 . S
C812 C804 1.378 . S
C812 C807 1.350 . S
C813 H800 0.929 . S
C813 C805 1.433 . S
C813 N815 1.384 . S
N814 C810 1.427 . S
N814 C811 1.384 . S
N815 C807 1.427 . S
N815 C813 1.384 . S
H816 C822 0.930 . S
H817 C826 0.930 . S
H818 C831 0.929 . S
H819 C829 0.929 . S
H820 C824 0.929 . S
H821 C830 0.929 . S
C822 H816 0.930 . S
C822 C823 1.367 . S
C822 C830 1.378 . S
C823 C822 1.367 . S
C823 C831 1.433 . S
C824 H820 0.929 . S
C824 C826 1.378 . S
C824 C828 1.350 . S
C825 C828 1.463 . S
C825 C830 1.350 . S
C825 N833 1.427 . S
C826 H817 0.930 . S
C826 C824 1.378 . S
C826 C827 1.367 . S
C827 C826 1.367 . S
C827 C829 1.433 . S
C828 C824 1.350 . S
C828 C825 1.463 . S
C828 N832 1.427 . S
C829 H819 0.929 . S
C829 C827 1.433 . S
C829 N832 1.384 . S
C830 H821 0.929 . S
C830 C822 1.378 . S
C830 C825 1.350 . S
C831 H818 0.929 . S
C831 C823 1.433 . S
C831 N833 1.384 . S
N832 C828 1.427 . S
N832 C829 1.384 . S
N833 C825 1.427 . S
N833 C831 1.384 . S
H834 C840 0.930 . S
H835 C844 0.930 . S
H836 C849 0.929 . S
H837 C847 0.929 . S
H838 C842 0.929 . S
H839 C848 0.929 . S
C840 H834 0.930 . S
C840 C841 1.367 . S
C840 C848 1.378 . S
C841 C840 1.367 . S
C841 C849 1.433 . S
C842 H838 0.929 . S
C842 C844 1.378 . S
C842 C846 1.350 . S
C843 C846 1.463 . S
C843 C848 1.350 . S
C843 N851 1.427 . S
C844 H835 0.930 . S
C844 C842 1.378 . S
C844 C845 1.367 . S
C845 C844 1.367 . S
C845 C847 1.433 . S
C846 C842 1.350 . S
C846 C843 1.463 . S
C846 N850 1.427 . S
C847 H837 0.929 . S
C847 C845 1.433 . S
C847 N850 1.384 . S
C848 H839 0.929 . S
C848 C840 1.378 . S
C848 C843 1.350 . S
C849 H836 0.929 . S
C849 C841 1.433 . S
C849 N851 1.384 . S
N850 C846 1.427 . S
N850 C847 1.384 . S
N851 C843 1.427 . S
N851 C849 1.384 . S
H852 C858 0.930 . S
H853 C862 0.930 . S
H854 C867 0.929 . S
H855 C865 0.929 . S
H856 C860 0.929 . S
H857 C866 0.929 . S
C858 H852 0.930 . S
C858 C859 1.367 . S
C858 C866 1.378 . S
C859 C858 1.367 . S
C859 C867 1.433 . S
C860 H856 0.929 . S
C860 C862 1.378 . S
C860 C864 1.350 . S
C861 C864 1.463 . S
C861 C866 1.350 . S
C861 N869 1.427 . S
C862 H853 0.930 . S
C862 C860 1.378 . S
C862 C863 1.367 . S
C863 C862 1.367 . S
C863 C865 1.433 . S
C864 C860 1.350 . S
C864 C861 1.463 . S
C864 N868 1.427 . S
C865 H855 0.929 . S
C865 C863 1.433 . S
C865 N868 1.384 . S
C866 H857 0.929 . S
C866 C858 1.378 . S
C866 C861 1.350 . S
C867 H854 0.929 . S
C867 C859 1.433 . S
C867 N869 1.384 . S
N868 C864 1.427 . S
N868 C865 1.384 . S
N869 C861 1.427 . S
N869 C867 1.384 . S
H870 C876 0.930 . S
H871 C880 0.930 . S
H872 C885 0.929 . S
H873 C883 0.929 . S
H874 C878 0.929 . S
H875 C884 0.929 . S
C876 H870 0.930 . S
C876 C877 1.367 . S
C876 C884 1.378 . S
C877 C876 1.367 . S
C877 C885 1.433 . S
C878 H874 0.929 . S
C878 C880 1.378 . S
C878 C882 1.350 . S
C879 C882 1.463 . S
C879 C884 1.350 . S
C879 N887 1.427 . S
C880 H871 0.930 . S
C880 C878 1.378 . S
C880 C881 1.367 . S
C881 C880 1.367 . S
C881 C883 1.433 . S
C882 C878 1.350 . S
C882 C879 1.463 . S
C882 N886 1.427 . S
C883 H873 0.929 . S
C883 C881 1.433 . S
C883 N886 1.384 . S
C884 H875 0.929 . S
C884 C876 1.378 . S
C884 C879 1.350 . S
C885 H872 0.929 . S
C885 C877 1.433 . S
C885 N887 1.384 . S
N886 C882 1.427 . S
N886 C883 1.384 . S
N887 C879 1.427 . S
N887 C885 1.384 . S
H888 C894 0.930 . S
H889 C898 0.930 . S
H890 C903 0.929 . S
H891 C901 0.929 . S
H892 C896 0.929 . S
H893 C902 0.929 . S
C894 H888 0.930 . S
C894 C895 1.367 . S
C894 C902 1.378 . S
C895 C894 1.367 . S
C895 C903 1.433 . S
C896 H892 0.929 . S
C896 C898 1.378 . S
C896 C900 1.350 . S
C897 C900 1.463 . S
C897 C902 1.350 . S
C897 N905 1.427 . S
C898 H889 0.930 . S
C898 C896 1.378 . S
C898 C899 1.367 . S
C899 C898 1.367 . S
C899 C901 1.433 . S
C900 C896 1.350 . S
C900 C897 1.463 . S
C900 N904 1.427 . S
C901 H891 0.929 . S
C901 C899 1.433 . S
C901 N904 1.384 . S
C902 H893 0.929 . S
C902 C894 1.378 . S
C902 C897 1.350 . S
C903 H890 0.929 . S
C903 C895 1.433 . S
C903 N905 1.384 . S
N904 C900 1.427 . S
N904 C901 1.384 . S
N905 C897 1.427 . S
N905 C903 1.384 . S
H906 C912 0.930 . S
H907 C916 0.930 . S
H908 C921 0.929 . S
H909 C919 0.929 . S
H910 C914 0.929 . S
H911 C920 0.929 . S
C912 H906 0.930 . S
C912 C913 1.367 . S
C912 C920 1.378 . S
C913 C912 1.367 . S
C913 C921 1.433 . S
C914 H910 0.929 . S
C914 C916 1.378 . S
C914 C918 1.350 . S
C915 C918 1.463 . S
C915 C920 1.350 . S
C915 N923 1.427 . S
C916 H907 0.930 . S
C916 C914 1.378 . S
C916 C917 1.367 . S
C917 C916 1.367 . S
C917 C919 1.433 . S
C918 C914 1.350 . S
C918 C915 1.463 . S
C918 N922 1.427 . S
C919 H909 0.929 . S
C919 C917 1.433 . S
C919 N922 1.384 . S
C920 H911 0.929 . S
C920 C912 1.378 . S
C920 C915 1.350 . S
C921 H908 0.929 . S
C921 C913 1.433 . S
C921 N923 1.384 . S
N922 C918 1.427 . S
N922 C919 1.384 . S
N923 C915 1.427 . S
N923 C921 1.384 . S
H924 C930 0.930 . S
H925 C934 0.930 . S
H926 C939 0.929 . S
H927 C937 0.929 . S
H928 C932 0.929 . S
H929 C938 0.929 . S
C930 H924 0.930 . S
C930 C931 1.367 . S
C930 C938 1.378 . S
C931 C930 1.367 . S
C931 C939 1.433 . S
C932 H928 0.929 . S
C932 C934 1.378 . S
C932 C936 1.350 . S
C933 C936 1.463 . S
C933 C938 1.350 . S
C933 N941 1.427 . S
C934 H925 0.930 . S
C934 C932 1.378 . S
C934 C935 1.367 . S
C935 C934 1.367 . S
C935 C937 1.433 . S
C936 C932 1.350 . S
C936 C933 1.463 . S
C936 N940 1.427 . S
C937 H927 0.929 . S
C937 C935 1.433 . S
C937 N940 1.384 . S
C938 H929 0.929 . S
C938 C930 1.378 . S
C938 C933 1.350 . S
C939 H926 0.929 . S
C939 C931 1.433 . S
C939 N941 1.384 . S
N940 C936 1.427 . S
N940 C937 1.384 . S
N941 C933 1.427 . S
N941 C939 1.384 . S
H942 C948 0.930 . S
H943 C952 0.930 . S
H944 C957 0.929 . S
H945 C955 0.929 . S
H946 C950 0.929 . S
H947 C956 0.929 . S
C948 H942 0.930 . S
C948 C949 1.367 . S
C948 C956 1.378 . S
C949 C948 1.367 . S
C949 C957 1.433 . S
C950 H946 0.929 . S
C950 C952 1.378 . S
C950 C954 1.350 . S
C951 C954 1.463 . S
C951 C956 1.350 . S
C951 N959 1.427 . S
C952 H943 0.930 . S
C952 C950 1.378 . S
C952 C953 1.367 . S
C953 C952 1.367 . S
C953 C955 1.433 . S
C954 C950 1.350 . S
C954 C951 1.463 . S
C954 N958 1.427 . S
C955 H945 0.929 . S
C955 C953 1.433 . S
C955 N958 1.384 . S
C956 H947 0.929 . S
C956 C948 1.378 . S
C956 C951 1.350 . S
C957 H944 0.929 . S
C957 C949 1.433 . S
C957 N959 1.384 . S
N958 C954 1.427 . S
N958 C955 1.384 . S
N959 C951 1.427 . S
N959 C957 1.384 . S
H960 C966 0.930 . S
H961 C970 0.930 . S
H962 C975 0.929 . S
H963 C973 0.929 . S
H964 C968 0.929 . S
H965 C974 0.929 . S
C966 H960 0.930 . S
C966 C967 1.367 . S
C966 C974 1.378 . S
C967 C966 1.367 . S
C967 C975 1.433 . S
C968 H964 0.929 . S
C968 C970 1.378 . S
C968 C972 1.350 . S
C969 C972 1.463 . S
C969 C974 1.350 . S
C969 N977 1.427 . S
C970 H961 0.930 . S
C970 C968 1.378 . S
C970 C971 1.367 . S
C971 C970 1.367 . S
C971 C973 1.433 . S
C972 C968 1.350 . S
C972 C969 1.463 . S
C972 N976 1.427 . S
C973 H963 0.929 . S
C973 C971 1.433 . S
C973 N976 1.384 . S
C974 H965 0.929 . S
C974 C966 1.378 . S
C974 C969 1.350 . S
C975 H962 0.929 . S
C975 C967 1.433 . S
C975 N977 1.384 . S
N976 C972 1.427 . S
N976 C973 1.384 . S
N977 C969 1.427 . S
N977 C975 1.384 . S
H978 C984 0.930 . S
H979 C988 0.930 . S
H980 C993 0.929 . S
H981 C991 0.929 . S
H982 C986 0.929 . S
H983 C992 0.929 . S
C984 H978 0.930 . S
C984 C985 1.367 . S
C984 C992 1.378 . S
C985 C984 1.367 . S
C985 C993 1.433 . S
C986 H982 0.929 . S
C986 C988 1.378 . S
C986 C990 1.350 . S
C987 C990 1.463 . S
C987 C992 1.350 . S
C987 N995 1.427 . S
C988 H979 0.930 . S
C988 C986 1.378 . S
C988 C989 1.367 . S
C989 C988 1.367 . S
C989 C991 1.433 . S
C990 C986 1.350 . S
C990 C987 1.463 . S
C990 N994 1.427 . S
C991 H981 0.929 . S
C991 C989 1.433 . S
C991 N994 1.384 . S
C992 H983 0.929 . S
C992 C984 1.378 . S
C992 C987 1.350 . S
C993 H980 0.929 . S
C993 C985 1.433 . S
C993 N995 1.384 . S
N994 C990 1.427 . S
N994 C991 1.384 . S
N995 C987 1.427 . S
N995 C993 1.384 . S
H996 C1002 0.930 . S
H997 C1006 0.930 . S
H998 C1011 0.929 . S
H999 C1009 0.929 . S
H1000 C1004 0.929 . S
H1001 C1010 0.929 . S
C1002 H996 0.930 . S
C1002 C1003 1.367 . S
C1002 C1010 1.378 . S
C1003 C1002 1.367 . S
C1003 C1011 1.433 . S
C1004 H1000 0.929 . S
C1004 C1006 1.378 . S
C1004 C1008 1.350 . S
C1005 C1008 1.463 . S
C1005 C1010 1.350 . S
C1005 N1013 1.427 . S
C1006 H997 0.930 . S
C1006 C1004 1.378 . S
C1006 C1007 1.367 . S
C1007 C1006 1.367 . S
C1007 C1009 1.433 . S
C1008 C1004 1.350 . S
C1008 C1005 1.463 . S
C1008 N1012 1.427 . S
C1009 H999 0.929 . S
C1009 C1007 1.433 . S
C1009 N1012 1.384 . S
C1010 H1001 0.929 . S
C1010 C1002 1.378 . S
C1010 C1005 1.350 . S
C1011 H998 0.929 . S
C1011 C1003 1.433 . S
C1011 N1013 1.384 . S
N1012 C1008 1.427 . S
N1012 C1009 1.384 . S
N1013 C1005 1.427 . S
N1013 C1011 1.384 . S
H1014 C1020 0.930 . S
H1015 C1024 0.930 . S
H1016 C1029 0.929 . S
H1017 C1027 0.929 . S
H1018 C1022 0.929 . S
H1019 C1028 0.929 . S
C1020 H1014 0.930 . S
C1020 C1021 1.367 . S
C1020 C1028 1.378 . S
C1021 C1020 1.367 . S
C1021 C1029 1.433 . S
C1022 H1018 0.929 . S
C1022 C1024 1.378 . S
C1022 C1026 1.350 . S
C1023 C1026 1.463 . S
C1023 C1028 1.350 . S
C1023 N1031 1.427 . S
C1024 H1015 0.930 . S
C1024 C1022 1.378 . S
C1024 C1025 1.367 . S
C1025 C1024 1.367 . S
C1025 C1027 1.433 . S
C1026 C1022 1.350 . S
C1026 C1023 1.463 . S
C1026 N1030 1.427 . S
C1027 H1017 0.929 . S
C1027 C1025 1.433 . S
C1027 N1030 1.384 . S
C1028 H1019 0.929 . S
C1028 C1020 1.378 . S
C1028 C1023 1.350 . S
C1029 H1016 0.929 . S
C1029 C1021 1.433 . S
C1029 N1031 1.384 . S
N1030 C1026 1.427 . S
N1030 C1027 1.384 . S
N1031 C1023 1.427 . S
N1031 C1029 1.384 . S
H1032 C1038 0.930 . S
H1033 C1042 0.930 . S
H1034 C1047 0.929 . S
H1035 C1045 0.929 . S
H1036 C1040 0.929 . S
H1037 C1046 0.929 . S
C1038 H1032 0.930 . S
C1038 C1039 1.367 . S
C1038 C1046 1.378 . S
C1039 C1038 1.367 . S
C1039 C1047 1.433 . S
C1040 H1036 0.929 . S
C1040 C1042 1.378 . S
C1040 C1044 1.350 . S
C1041 C1044 1.463 . S
C1041 C1046 1.350 . S
C1041 N1049 1.427 . S
C1042 H1033 0.930 . S
C1042 C1040 1.378 . S
C1042 C1043 1.367 . S
C1043 C1042 1.367 . S
C1043 C1045 1.433 . S
C1044 C1040 1.350 . S
C1044 C1041 1.463 . S
C1044 N1048 1.427 . S
C1045 H1035 0.929 . S
C1045 C1043 1.433 . S
C1045 N1048 1.384 . S
C1046 H1037 0.929 . S
C1046 C1038 1.378 . S
C1046 C1041 1.350 . S
C1047 H1034 0.929 . S
C1047 C1039 1.433 . S
C1047 N1049 1.384 . S
N1048 C1044 1.427 . S
N1048 C1045 1.384 . S
N1049 C1041 1.427 . S
N1049 C1047 1.384 . S
H1050 C1056 0.930 . S
H1051 C1060 0.930 . S
H1052 C1065 0.929 . S
H1053 C1063 0.929 . S
H1054 C1058 0.929 . S
H1055 C1064 0.929 . S
C1056 H1050 0.930 . S
C1056 C1057 1.367 . S
C1056 C1064 1.378 . S
C1057 C1056 1.367 . S
C1057 C1065 1.433 . S
C1058 H1054 0.929 . S
C1058 C1060 1.378 . S
C1058 C1062 1.350 . S
C1059 C1062 1.463 . S
C1059 C1064 1.350 . S
C1059 N1067 1.427 . S
C1060 H1051 0.930 . S
C1060 C1058 1.378 . S
C1060 C1061 1.367 . S
C1061 C1060 1.367 . S
C1061 C1063 1.433 . S
C1062 C1058 1.350 . S
C1062 C1059 1.463 . S
C1062 N1066 1.427 . S
C1063 H1053 0.929 . S
C1063 C1061 1.433 . S
C1063 N1066 1.384 . S
C1064 H1055 0.929 . S
C1064 C1056 1.378 . S
C1064 C1059 1.350 . S
C1065 H1052 0.929 . S
C1065 C1057 1.433 . S
C1065 N1067 1.384 . S
N1066 C1062 1.427 . S
N1066 C1063 1.384 . S
N1067 C1059 1.427 . S
N1067 C1065 1.384 . S
H1068 C1074 0.930 . S
H1069 C1078 0.930 . S
H1070 C1083 0.929 . S
H1071 C1081 0.929 . S
H1072 C1076 0.929 . S
H1073 C1082 0.929 . S
C1074 H1068 0.930 . S
C1074 C1075 1.367 . S
C1074 C1082 1.378 . S
C1075 C1074 1.367 . S
C1075 C1083 1.433 . S
C1076 H1072 0.929 . S
C1076 C1078 1.378 . S
C1076 C1080 1.350 . S
C1077 C1080 1.463 . S
C1077 C1082 1.350 . S
C1077 N1085 1.427 . S
C1078 H1069 0.930 . S
C1078 C1076 1.378 . S
C1078 C1079 1.367 . S
C1079 C1078 1.367 . S
C1079 C1081 1.433 . S
C1080 C1076 1.350 . S
C1080 C1077 1.463 . S
C1080 N1084 1.427 . S
C1081 H1071 0.929 . S
C1081 C1079 1.433 . S
C1081 N1084 1.384 . S
C1082 H1073 0.929 . S
C1082 C1074 1.378 . S
C1082 C1077 1.350 . S
C1083 H1070 0.929 . S
C1083 C1075 1.433 . S
C1083 N1085 1.384 . S
N1084 C1080 1.427 . S
N1084 C1081 1.384 . S
N1085 C1077 1.427 . S
N1085 C1083 1.384 . S
H1086 C1092 0.930 . S
H1087 C1096 0.930 . S
H1088 C1101 0.929 . S
H1089 C1099 0.929 . S
H1090 C1094 0.929 . S
H1091 C1100 0.929 . S
C1092 H1086 0.930 . S
C1092 C1093 1.367 . S
C1092 C1100 1.378 . S
C1093 C1092 1.367 . S
C1093 C1101 1.433 . S
C1094 H1090 0.929 . S
C1094 C1096 1.378 . S
C1094 C1098 1.350 . S
C1095 C1098 1.463 . S
C1095 C1100 1.350 . S
C1095 N1103 1.427 . S
C1096 H1087 0.930 . S
C1096 C1094 1.378 . S
C1096 C1097 1.367 . S
C1097 C1096 1.367 . S
C1097 C1099 1.433 . S
C1098 C1094 1.350 . S
C1098 C1095 1.463 . S
C1098 N1102 1.427 . S
C1099 H1089 0.929 . S
C1099 C1097 1.433 . S
C1099 N1102 1.384 . S
C1100 H1091 0.929 . S
C1100 C1092 1.378 . S
C1100 C1095 1.350 . S
C1101 H1088 0.929 . S
C1101 C1093 1.433 . S
C1101 N1103 1.384 . S
N1102 C1098 1.427 . S
N1102 C1099 1.384 . S
N1103 C1095 1.427 . S
N1103 C1101 1.384 . S
H1104 C1110 0.930 . S
H1105 C1114 0.930 . S
H1106 C1119 0.929 . S
H1107 C1117 0.929 . S
H1108 C1112 0.929 . S
H1109 C1118 0.929 . S
C1110 H1104 0.930 . S
C1110 C1111 1.367 1_655 S
C1110 C1118 1.378 . S
C1111 C1110 1.367 1_455 S
C1111 C1119 1.433 . S
C1112 H1108 0.929 . S
C1112 C1114 1.378 . S
C1112 C1116 1.350 1_455 S
C1113 C1116 1.463 1_455 S
C1113 C1118 1.350 1_455 S
C1113 N1121 1.427 . S
C1114 H1105 0.930 . S
C1114 C1112 1.378 . S
C1114 C1115 1.367 1_455 S
C1115 C1114 1.367 1_655 S
C1115 C1117 1.433 . S
C1116 C1112 1.350 1_655 S
C1116 C1113 1.463 1_655 S
C1116 N1120 1.427 . S
C1117 H1107 0.929 . S
C1117 C1115 1.433 . S
C1117 N1120 1.384 . S
C1118 H1109 0.929 . S
C1118 C1110 1.378 . S
C1118 C1113 1.350 1_655 S
C1119 H1106 0.929 . S
C1119 C1111 1.433 . S
C1119 N1121 1.384 . S
N1120 C1116 1.427 . S
N1120 C1117 1.384 . S
N1121 C1113 1.427 . S
N1121 C1119 1.384 . S
H1122 C1128 0.930 . S
H1123 C1132 0.930 . S
H1124 C1137 0.929 . S
H1125 C1135 0.929 . S
H1126 C1130 0.929 . S
H1127 C1136 0.929 . S
C1128 H1122 0.930 . S
C1128 C1129 1.367 1_545 S
C1128 C1136 1.378 . S
C1129 C1128 1.367 1_565 S
C1129 C1137 1.433 . S
C1130 H1126 0.929 . S
C1130 C1132 1.378 . S
C1130 C1134 1.350 1_565 S
C1131 C1134 1.463 1_565 S
C1131 C1136 1.350 1_565 S
C1131 N1139 1.427 . S
C1132 H1123 0.930 . S
C1132 C1130 1.378 . S
C1132 C1133 1.367 1_565 S
C1133 C1132 1.367 1_545 S
C1133 C1135 1.433 . S
C1134 C1130 1.350 1_545 S
C1134 C1131 1.463 1_545 S
C1134 N1138 1.427 . S
C1135 H1125 0.929 . S
C1135 C1133 1.433 . S
C1135 N1138 1.384 . S
C1136 H1127 0.929 . S
C1136 C1128 1.378 . S
C1136 C1131 1.350 1_545 S
C1137 H1124 0.929 . S
C1137 C1129 1.433 . S
C1137 N1139 1.384 . S
N1138 C1134 1.427 . S
N1138 C1135 1.384 . S
N1139 C1131 1.427 . S
N1139 C1137 1.384 . S
H1140 C1146 0.930 . S
H1141 C1150 0.930 . S
H1142 C1155 0.929 . S
H1143 C1153 0.929 . S
H1144 C1148 0.929 . S
H1145 C1154 0.929 . S
C1146 H1140 0.930 . S
C1146 C1147 1.367 . S
C1146 C1154 1.378 . S
C1147 C1146 1.367 . S
C1147 C1155 1.433 1_455 S
C1148 H1144 0.929 . S
C1148 C1150 1.378 . S
C1148 C1152 1.350 . S
C1149 C1152 1.463 1_455 S
C1149 C1154 1.350 . S
C1149 N1157 1.427 1_455 S
C1150 H1141 0.930 . S
C1150 C1148 1.378 . S
C1150 C1151 1.367 . S
C1151 C1150 1.367 . S
C1151 C1153 1.433 1_655 S
C1152 C1148 1.350 . S
C1152 C1149 1.463 1_655 S
C1152 N1156 1.427 1_655 S
C1153 H1143 0.929 . S
C1153 C1151 1.433 1_455 S
C1153 N1156 1.384 . S
C1154 H1145 0.929 . S
C1154 C1146 1.378 . S
C1154 C1149 1.350 . S
C1155 H1142 0.929 . S
C1155 C1147 1.433 1_655 S
C1155 N1157 1.384 . S
N1156 C1152 1.427 1_455 S
N1156 C1153 1.384 . S
N1157 C1149 1.427 1_655 S
N1157 C1155 1.384 . S
H1158 C1164 0.930 . S
H1159 C1168 0.930 . S
H1160 C1173 0.929 . S
H1161 C1171 0.929 . S
H1162 C1166 0.929 . S
H1163 C1172 0.929 . S
C1164 H1158 0.930 . S
C1164 C1165 1.367 1_565 S
C1164 C1172 1.378 . S
C1165 C1164 1.367 1_545 S
C1165 C1173 1.433 . S
C1166 H1162 0.929 . S
C1166 C1168 1.378 . S
C1166 C1170 1.350 1_545 S
C1167 C1170 1.463 1_545 S
C1167 C1172 1.350 1_545 S
C1167 N1175 1.427 . S
C1168 H1159 0.930 . S
C1168 C1166 1.378 . S
C1168 C1169 1.367 1_545 S
C1169 C1168 1.367 1_565 S
C1169 C1171 1.433 . S
C1170 C1166 1.350 1_565 S
C1170 C1167 1.463 1_565 S
C1170 N1174 1.427 . S
C1171 H1161 0.929 . S
C1171 C1169 1.433 . S
C1171 N1174 1.384 . S
C1172 H1163 0.929 . S
C1172 C1164 1.378 . S
C1172 C1167 1.350 1_565 S
C1173 H1160 0.929 . S
C1173 C1165 1.433 . S
C1173 N1175 1.384 . S
N1174 C1170 1.427 . S
N1174 C1171 1.384 . S
N1175 C1167 1.427 . S
N1175 C1173 1.384 . S
H1176 C1182 0.930 . S
H1177 C1186 0.930 . S
H1178 C1191 0.929 . S
H1179 C1189 0.929 . S
H1180 C1184 0.929 . S
H1181 C1190 0.929 . S
C1182 H1176 0.930 . S
C1182 C1183 1.367 . S
C1182 C1190 1.378 . S
C1183 C1182 1.367 . S
C1183 C1191 1.433 . S
C1184 H1180 0.929 . S
C1184 C1186 1.378 . S
C1184 C1188 1.350 . S
C1185 C1188 1.463 1_556 S
C1185 C1190 1.350 . S
C1185 N1193 1.427 . S
C1186 H1177 0.930 . S
C1186 C1184 1.378 . S
C1186 C1187 1.367 . S
C1187 C1186 1.367 . S
C1187 C1189 1.433 . S
C1188 C1184 1.350 . S
C1188 C1185 1.463 1_554 S
C1188 N1192 1.427 . S
C1189 H1179 0.929 . S
C1189 C1187 1.433 . S
C1189 N1192 1.384 . S
C1190 H1181 0.929 . S
C1190 C1182 1.378 . S
C1190 C1185 1.350 . S
C1191 H1178 0.929 . S
C1191 C1183 1.433 . S
C1191 N1193 1.384 . S
N1192 C1188 1.427 . S
N1192 C1189 1.384 . S
N1193 C1185 1.427 . S
N1193 C1191 1.384 . S
H1194 C1200 0.930 . S
H1195 C1204 0.930 . S
H1196 C1209 0.929 . S
H1197 C1207 0.929 . S
H1198 C1202 0.929 . S
H1199 C1208 0.929 . S
C1200 H1194 0.930 . S
C1200 C1201 1.367 . S
C1200 C1208 1.378 . S
C1201 C1200 1.367 . S
C1201 C1209 1.433 . S
C1202 H1198 0.929 . S
C1202 C1204 1.378 . S
C1202 C1206 1.350 . S
C1203 C1206 1.463 1_554 S
C1203 C1208 1.350 . S
C1203 N1211 1.427 . S
C1204 H1195 0.930 . S
C1204 C1202 1.378 . S
C1204 C1205 1.367 . S
C1205 C1204 1.367 . S
C1205 C1207 1.433 . S
C1206 C1202 1.350 . S
C1206 C1203 1.463 1_556 S
C1206 N1210 1.427 . S
C1207 H1197 0.929 . S
C1207 C1205 1.433 . S
C1207 N1210 1.384 . S
C1208 H1199 0.929 . S
C1208 C1200 1.378 . S
C1208 C1203 1.350 . S
C1209 H1196 0.929 . S
C1209 C1201 1.433 . S
C1209 N1211 1.384 . S
N1210 C1206 1.427 . S
N1210 C1207 1.384 . S
N1211 C1203 1.427 . S
N1211 C1209 1.384 . S
H1212 C1218 0.930 . S
H1213 C1222 0.930 . S
H1214 C1227 0.929 . S
H1215 C1225 0.929 . S
H1216 C1220 0.929 . S
H1217 C1226 0.929 . S
C1218 H1212 0.930 . S
C1218 C1219 1.367 . S
C1218 C1226 1.378 . S
C1219 C1218 1.367 . S
C1219 C1227 1.433 . S
C1220 H1216 0.929 . S
C1220 C1222 1.378 . S
C1220 C1224 1.350 . S
C1221 C1224 1.463 1_554 S
C1221 C1226 1.350 . S
C1221 N1229 1.427 . S
C1222 H1213 0.930 . S
C1222 C1220 1.378 . S
C1222 C1223 1.367 . S
C1223 C1222 1.367 . S
C1223 C1225 1.433 . S
C1224 C1220 1.350 . S
C1224 C1221 1.463 1_556 S
C1224 N1228 1.427 . S
C1225 H1215 0.929 . S
C1225 C1223 1.433 . S
C1225 N1228 1.384 . S
C1226 H1217 0.929 . S
C1226 C1218 1.378 . S
C1226 C1221 1.350 . S
C1227 H1214 0.929 . S
C1227 C1219 1.433 . S
C1227 N1229 1.384 . S
N1228 C1224 1.427 . S
N1228 C1225 1.384 . S
N1229 C1221 1.427 . S
N1229 C1227 1.384 . S
H1230 C1236 0.930 . S
H1231 C1240 0.930 . S
H1232 C1245 0.929 . S
H1233 C1243 0.929 . S
H1234 C1238 0.929 . S
H1235 C1244 0.929 . S
C1236 H1230 0.930 . S
C1236 C1237 1.367 . S
C1236 C1244 1.378 . S
C1237 C1236 1.367 . S
C1237 C1245 1.433 . S
C1238 H1234 0.929 . S
C1238 C1240 1.378 . S
C1238 C1242 1.350 . S
C1239 C1242 1.463 1_556 S
C1239 C1244 1.350 . S
C1239 N1247 1.427 . S
C1240 H1231 0.930 . S
C1240 C1238 1.378 . S
C1240 C1241 1.367 . S
C1241 C1240 1.367 . S
C1241 C1243 1.433 . S
C1242 C1238 1.350 . S
C1242 C1239 1.463 1_554 S
C1242 N1246 1.427 . S
C1243 H1233 0.929 . S
C1243 C1241 1.433 . S
C1243 N1246 1.384 . S
C1244 H1235 0.929 . S
C1244 C1236 1.378 . S
C1244 C1239 1.350 . S
C1245 H1232 0.929 . S
C1245 C1237 1.433 . S
C1245 N1247 1.384 . S
N1246 C1242 1.427 . S
N1246 C1243 1.384 . S
N1247 C1239 1.427 . S
N1247 C1245 1.384 . S
C535 C84 0.455 . S
C539 C18 0.450 . S
C553 C51 0.461 . S
C557 C117 0.456 . S
C571 C216 0.459 . S
C575 C150 0.454 . S
C589 C249 0.457 . S
C593 C183 0.461 . S
C607 C282 0.450 . S
C611 C348 0.454 . S
C625 C381 0.449 . S
C629 C315 0.453 . S
C643 C480 0.462 . S
C647 C414 0.459 . S
C661 C447 0.457 . S
C665 C513 0.452 . S
C679 N13 1.760 . S
C683 N508 1.759 . S
C697 N409 1.759 . S
C701 N46 1.750 . S
C715 N442 1.757 . S
C719 N79 1.750 . S
C733 N475 1.760 . S
C737 N112 1.750 . S
C751 N310 1.750 . S
C755 N145 1.759 . S
C769 N343 1.761 . S
C773 N178 1.758 . S
C787 N376 1.762 . S
C791 N211 1.752 . S
C805 N277 1.761 . S
C809 N244 1.751 . S
C823 C7 1.369 . S
C827 C120 1.375 . S
C841 C21 1.365 . S
C845 C40 1.367 . S
C859 C73 1.371 . S
C863 C54 1.364 . S
C877 C87 1.369 . S
C881 C106 1.365 . S
C895 C186 1.366 . S
C899 C139 1.366 . S
C913 C172 1.371 . S
C917 C219 1.364 . S
C931 C252 1.365 . S
C935 C205 1.368 . S
C949 C153 1.364 . S
C953 C238 1.369 . S
C967 C271 1.371 . S
C971 C384 1.364 . S
C985 C285 1.374 . S
C989 C304 1.365 . S
C1003 C337 1.374 . S
C1007 C318 1.365 . S
C1021 C370 1.370 . S
C1025 C351 1.364 . S
C1039 C403 1.371 . S
C1043 C450 1.374 . S
C1057 C483 1.368 . S
C1061 C436 1.365 . S
C1075 C516 1.370 . S
C1079 C469 1.375 . S
C1093 C502 1.371 . S
C1097 C417 1.374 . S
C1111 N2 1.565 . S
C1115 N200 1.575 . S
C1129 N233 1.572 . S
C1133 N35 1.566 . S
C1147 N134 1.572 . S
C1151 N68 1.574 . S
C1165 N167 1.567 . S
C1169 N101 1.572 . S
C1183 N266 1.565 . S
C1187 N464 1.575 . S
C1201 N497 1.570 . S
C1205 N299 1.576 . S
C1219 N398 1.564 . S
C1223 N332 1.579 . S
C1237 N365 1.574 . S
C1241 N431 1.565 . S
