# Generated by pormake.
# Topology wjg, (4)-cn, num edge types: 1
# Building blocks:
#     Node 0, Type 0, BuildingBlock: UXUYUI_clean_sbu_0, # of connection points: 4
#     Node 1, Type 0, BuildingBlock: UXUYUI_clean_sbu_0, # of connection points: 4
#     Node 2, Type 0, BuildingBlock: UXUYUI_clean_sbu_0, # of connection points: 4
#     Node 3, Type 0, BuildingBlock: UXUYUI_clean_sbu_0, # of connection points: 4
#     Node 4, Type 0, BuildingBlock: UXUYUI_clean_sbu_0, # of connection points: 4
#     Node 5, Type 0, BuildingBlock: UXUYUI_clean_sbu_0, # of connection points: 4
#     Node 6, Type 0, BuildingBlock: UXUYUI_clean_sbu_0, # of connection points: 4
#     Node 7, Type 0, BuildingBlock: UXUYUI_clean_sbu_0, # of connection points: 4
#     Node 8, Type 0, BuildingBlock: UXUYUI_clean_sbu_0, # of connection points: 4
#     Node 9, Type 0, BuildingBlock: UXUYUI_clean_sbu_0, # of connection points: 4
#     Node 10, Type 0, BuildingBlock: UXUYUI_clean_sbu_0, # of connection points: 4
#     Node 11, Type 0, BuildingBlock: UXUYUI_clean_sbu_0, # of connection points: 4
#     Edge 12, Type (0, 0), BuildingBlock: UVAHIK_clean_linker_0, # of connection points: 2
#     Edge 13, Type (0, 0), BuildingBlock: UVAHIK_clean_linker_0, # of connection points: 2
#     Edge 14, Type (0, 0), BuildingBlock: UVAHIK_clean_linker_0, # of connection points: 2
#     Edge 15, Type (0, 0), BuildingBlock: UVAHIK_clean_linker_0, # of connection points: 2
#     Edge 16, Type (0, 0), BuildingBlock: UVAHIK_clean_linker_0, # of connection points: 2
#     Edge 17, Type (0, 0), BuildingBlock: UVAHIK_clean_linker_0, # of connection points: 2
#     Edge 18, Type (0, 0), BuildingBlock: UVAHIK_clean_linker_0, # of connection points: 2
#     Edge 19, Type (0, 0), BuildingBlock: UVAHIK_clean_linker_0, # of connection points: 2
#     Edge 20, Type (0, 0), BuildingBlock: UVAHIK_clean_linker_0, # of connection points: 2
#     Edge 21, Type (0, 0), BuildingBlock: UVAHIK_clean_linker_0, # of connection points: 2
#     Edge 22, Type (0, 0), BuildingBlock: UVAHIK_clean_linker_0, # of connection points: 2
#     Edge 23, Type (0, 0), BuildingBlock: UVAHIK_clean_linker_0, # of connection points: 2
#     Edge 24, Type (0, 0), BuildingBlock: UVAHIK_clean_linker_0, # of connection points: 2
#     Edge 25, Type (0, 0), BuildingBlock: UVAHIK_clean_linker_0, # of connection points: 2
#     Edge 26, Type (0, 0), BuildingBlock: UVAHIK_clean_linker_0, # of connection points: 2
#     Edge 27, Type (0, 0), BuildingBlock: UVAHIK_clean_linker_0, # of connection points: 2
#     Edge 28, Type (0, 0), BuildingBlock: UVAHIK_clean_linker_0, # of connection points: 2
#     Edge 29, Type (0, 0), BuildingBlock: UVAHIK_clean_linker_0, # of connection points: 2
#     Edge 30, Type (0, 0), BuildingBlock: UVAHIK_clean_linker_0, # of connection points: 2
#     Edge 31, Type (0, 0), BuildingBlock: UVAHIK_clean_linker_0, # of connection points: 2
#     Edge 32, Type (0, 0), BuildingBlock: UVAHIK_clean_linker_0, # of connection points: 2
#     Edge 33, Type (0, 0), BuildingBlock: UVAHIK_clean_linker_0, # of connection points: 2
#     Edge 34, Type (0, 0), BuildingBlock: UVAHIK_clean_linker_0, # of connection points: 2
#     Edge 35, Type (0, 0), BuildingBlock: UVAHIK_clean_linker_0, # of connection points: 2
# Relax obj value: 0.406
# Max RMSD: 0.171
# Mean RMSD: 0.170
data_MOF--net-wjg--node1-UXUYUI_clean_sbu_0--edge1-UVAHIK_clean_linker_0
_symmetry_space_group_name_H-M    P1
_symmetry_Int_Tables_number       1
_symmetry_cell_setting            triclinic
loop_
_symmetry_equiv_pos_as_xyz
'x, y, z'
_cell_length_a     61.746466
_cell_length_b     61.695287
_cell_length_c     63.198956
_cell_angle_alpha  89.941041
_cell_angle_beta   90.03169
_cell_angle_gamma 120.03569
loop_
_atom_site_label
_atom_site_type_symbol
_atom_site_fract_x
_atom_site_fract_y
_atom_site_fract_z
_atom_type_partial_charge
Li0 Li 0.19789 0.44283 0.2924 0.0
Li1 Li 0.16885 0.40743 0.31436 0.0
Li2 Li 0.19733 0.40366 0.28985 0.0
Li3 Li 0.16185 0.40697 0.27702 0.0
C4 C 0.22372 0.44468 0.32621 0.0
N5 N 0.25943 0.48556 0.34853 0.0
C6 C 0.21778 0.45095 0.34576 0.0
C7 C 0.24793 0.45916 0.3181 0.0
C8 C 0.23608 0.47167 0.3568 0.0
C9 C 0.26567 0.47978 0.32958 0.0
C10 C 0.14549 0.43649 0.28984 0.0
C11 C 0.10307 0.42736 0.28453 0.0
N12 N 0.11143 0.44676 0.27063 0.0
C13 C 0.1537 0.45643 0.27561 0.0
C14 C 0.12001 0.42191 0.29446 0.0
C15 C 0.13617 0.46129 0.26603 0.0
C16 C 0.23733 0.49041 0.27894 0.0
N17 N 0.21818 0.47818 0.29283 0.0
C18 C 0.23139 0.51554 0.31279 0.0
C19 C 0.21442 0.49031 0.30909 0.0
C20 C 0.25221 0.52837 0.29946 0.0
C21 C 0.25469 0.51572 0.28196 0.0
H22 H 0.23979 0.48025 0.26614 0.0
H23 H 0.19894 0.48002 0.31983 0.0
C24 C 0.16303 0.38391 0.35279 0.0
N25 N 0.15611 0.39861 0.34213 0.0
C26 C 0.15851 0.37984 0.37437 0.0
C27 C 0.14003 0.40639 0.37379 0.0
C28 C 0.14436 0.40945 0.35197 0.0
C29 C 0.14757 0.39176 0.38521 0.0
H30 H 0.17338 0.37652 0.34473 0.0
H31 H 0.13976 0.42164 0.34316 0.0
C32 C 0.20913 0.41885 0.25165 0.0
N33 N 0.23375 0.40461 0.22332 0.0
C34 C 0.19556 0.40007 0.23681 0.0
C35 C 0.23522 0.43038 0.2521 0.0
C36 C 0.20836 0.39316 0.2226 0.0
C37 C 0.24731 0.4229 0.23765 0.0
C38 C 0.14527 0.35908 0.30532 0.0
C39 C 0.15253 0.34181 0.31128 0.0
C40 C 0.12193 0.35529 0.31164 0.0
C41 C 0.13632 0.32107 0.3235 0.0
C42 C 0.10626 0.33434 0.32387 0.0
N43 N 0.11372 0.3178 0.32949 0.0
C44 C 0.23802 0.39653 0.29815 0.0
C45 C 0.20726 0.36585 0.27563 0.0
C46 C 0.25084 0.38332 0.29901 0.0
N47 N 0.21649 0.38748 0.28686 0.0
C48 C 0.21931 0.35179 0.2763 0.0
C49 C 0.24114 0.36032 0.28845 0.0
H50 H 0.24466 0.41342 0.3073 0.0
H51 H 0.18989 0.35892 0.26702 0.0
C52 C 0.14295 0.41271 0.23832 0.0
N53 N 0.13756 0.39728 0.25527 0.0
C54 C 0.12594 0.40607 0.22166 0.0
C55 C 0.09811 0.36786 0.24035 0.0
C56 C 0.1157 0.3752 0.25657 0.0
C57 C 0.1032 0.38329 0.2225 0.0
H58 H 0.16063 0.43007 0.23765 0.0
H59 H 0.11195 0.36316 0.27009 0.0
O60 O 0.20586 0.42482 0.31487 0.0
O61 O 0.16228 0.43102 0.29893 0.0
O62 O 0.19692 0.42545 0.26604 0.0
O63 O 0.161 0.37966 0.29352 0.0
H64 H 0.19921 0.44014 0.35232 0.0
H65 H 0.25281 0.4549 0.30284 0.0
H66 H 0.23168 0.47677 0.3719 0.0
H67 H 0.28436 0.49128 0.32336 0.0
H68 H 0.08328 0.41615 0.28786 0.0
H69 H 0.17335 0.46782 0.27179 0.0
H70 H 0.11339 0.40648 0.3055 0.0
H71 H 0.14222 0.47656 0.25488 0.0
H72 H 0.22867 0.52471 0.3263 0.0
H73 H 0.27058 0.5249 0.27141 0.0
H74 H 0.16517 0.36898 0.38276 0.0
H75 H 0.13186 0.41611 0.38177 0.0
H76 H 0.17536 0.39071 0.23641 0.0
H77 H 0.24599 0.44466 0.26369 0.0
H78 H 0.1981 0.37861 0.21107 0.0
H79 H 0.26748 0.43156 0.23789 0.0
H80 H 0.17058 0.34449 0.30675 0.0
H81 H 0.11614 0.36863 0.30746 0.0
H82 H 0.14175 0.30761 0.32828 0.0
H83 H 0.08822 0.33129 0.32897 0.0
H84 H 0.26739 0.39033 0.30883 0.0
H85 H 0.21129 0.33413 0.26792 0.0
H86 H 0.13081 0.41838 0.2081 0.0
H87 H 0.08068 0.35031 0.24182 0.0
Li88 Li 0.76306 0.18326 0.64425 0.0
Li89 Li 0.76111 0.1438 0.65451 0.0
Li90 Li 0.79585 0.17438 0.63228 0.0
Li91 Li 0.75357 0.15044 0.61839 0.0
C92 C 0.79973 0.18975 0.67908 0.0
N93 N 0.8262 0.21247 0.71555 0.0
C94 C 0.78882 0.18108 0.69897 0.0
C95 C 0.82411 0.21012 0.67782 0.0
C96 C 0.8025 0.19276 0.71719 0.0
C97 C 0.83716 0.22132 0.69641 0.0
C98 C 0.71534 0.14406 0.65806 0.0
C99 C 0.67205 0.12157 0.66881 0.0
N100 N 0.67841 0.13436 0.68742 0.0
C101 C 0.72142 0.15696 0.67728 0.0
C102 C 0.69046 0.12621 0.65376 0.0
C103 C 0.7025 0.1518 0.69192 0.0
C104 C 0.74167 0.2136 0.63934 0.0
N105 N 0.75617 0.20883 0.65252 0.0
C106 C 0.76039 0.24069 0.67636 0.0
C107 C 0.76555 0.22191 0.67075 0.0
C108 C 0.74563 0.24625 0.66299 0.0
C109 C 0.73616 0.23236 0.64427 0.0
H110 H 0.73458 0.20292 0.6249 0.0
H111 H 0.77697 0.21776 0.681 0.0
C112 C 0.77774 0.12434 0.6849 0.0
N113 N 0.75608 0.12249 0.6779 0.0
C114 C 0.78002 0.1191 0.70595 0.0
C115 C 0.73658 0.1068 0.71129 0.0
C116 C 0.73509 0.11206 0.69003 0.0
C117 C 0.75978 0.1121 0.71974 0.0
H118 H 0.7941 0.13278 0.67487 0.0
H119 H 0.71789 0.11015 0.68397 0.0
C120 C 0.792 0.21165 0.60954 0.0
N121 N 0.82166 0.2614 0.59844 0.0
C122 C 0.79342 0.21905 0.58844 0.0
C123 C 0.80556 0.22958 0.62501 0.0
C124 C 0.80857 0.24429 0.58314 0.0
C125 C 0.82047 0.25463 0.61908 0.0
C126 C 0.76369 0.11196 0.62545 0.0
C127 C 0.77709 0.10102 0.61751 0.0
C128 C 0.7382 0.09692 0.62995 0.0
C129 C 0.76475 0.07518 0.61413 0.0
C130 C 0.72654 0.07116 0.62634 0.0
N131 N 0.73994 0.06092 0.61857 0.0
C132 C 0.84032 0.17776 0.6431 0.0
C133 C 0.84629 0.20852 0.61765 0.0
C134 C 0.86601 0.1892 0.64658 0.0
N135 N 0.83096 0.18804 0.62944 0.0
C136 C 0.87216 0.22076 0.62079 0.0
C137 C 0.88217 0.21153 0.63595 0.0
H138 H 0.82766 0.16155 0.65232 0.0
H139 H 0.83855 0.21616 0.60659 0.0
C140 C 0.71099 0.13299 0.59337 0.0
N141 N 0.73375 0.13466 0.59451 0.0
C142 C 0.69467 0.11986 0.57686 0.0
C143 C 0.72594 0.11119 0.56268 0.0
C144 C 0.74164 0.12447 0.57949 0.0
C145 C 0.70197 0.10849 0.56139 0.0
H146 H 0.70539 0.14154 0.6055 0.0
H147 H 0.75989 0.12616 0.58086 0.0
O148 O 0.78679 0.17824 0.66098 0.0
O149 O 0.7335 0.14878 0.64342 0.0
O150 O 0.77702 0.18703 0.61492 0.0
O151 O 0.77557 0.13728 0.62864 0.0
H152 H 0.77 0.16547 0.70044 0.0
H153 H 0.83295 0.21729 0.66268 0.0
H154 H 0.79429 0.18613 0.73265 0.0
H155 H 0.85604 0.23705 0.69562 0.0
H156 H 0.65273 0.10779 0.66571 0.0
H157 H 0.74054 0.17062 0.68094 0.0
H158 H 0.68543 0.11597 0.63899 0.0
H159 H 0.70699 0.16162 0.70688 0.0
H160 H 0.76777 0.25064 0.6911 0.0
H161 H 0.725 0.23624 0.63334 0.0
H162 H 0.79825 0.12352 0.71185 0.0
H163 H 0.72047 0.10104 0.72145 0.0
H164 H 0.78293 0.20541 0.5763 0.0
H165 H 0.80464 0.22424 0.64138 0.0
H166 H 0.80988 0.25027 0.56686 0.0
H167 H 0.83109 0.26867 0.6309 0.0
H168 H 0.79683 0.11242 0.61395 0.0
H169 H 0.72747 0.10497 0.6361 0.0
H170 H 0.77489 0.06648 0.60796 0.0
H171 H 0.70683 0.05932 0.62971 0.0
H172 H 0.87295 0.18159 0.65852 0.0
H173 H 0.88411 0.23777 0.61208 0.0
H174 H 0.67647 0.11845 0.5763 0.0
H175 H 0.73218 0.10243 0.55124 0.0
Li176 Li 0.59062 0.75338 0.99338 0.0
Li177 Li 0.55347 0.7435 0.97043 0.0
Li178 Li 0.59085 0.74152 0.95759 0.0
Li179 Li 0.59478 0.78057 0.9642 0.0
C180 C 0.56081 0.70415 -0.00409 0.0
N181 N 0.55005 0.67103 0.02903 0.0
C182 C 0.53651 0.69079 0.00399 0.0
C183 C 0.57958 0.70047 0.00452 0.0
C184 C 0.53146 0.67417 0.02077 0.0
C185 C 0.57379 0.68371 0.02132 0.0
C186 C 0.57493 0.79321 -0.00274 0.0
C187 C 0.55941 0.82179 0.00215 0.0
N188 N 0.5809 0.83786 0.01246 0.0
C189 C 0.59681 0.80995 0.00798 0.0
C190 C 0.55603 0.79912 0.99435 0.0
C191 C 0.59949 0.83245 0.0155 0.0
C192 C 0.62267 0.77062 0.02872 0.0
N193 N 0.5987 0.75524 0.02235 0.0
C194 C 0.58343 0.75413 0.05719 0.0
C195 C 0.57927 0.74643 0.03615 0.0
C196 C 0.60773 0.77159 0.06388 0.0
C197 C 0.62768 0.779 0.04963 0.0
H198 H 0.6376 0.77831 0.01719 0.0
H199 H 0.56032 0.73512 0.03046 0.0
C200 C 0.50408 0.71788 0.95378 0.0
N201 N 0.51846 0.72938 0.971 0.0
C202 C 0.47822 0.70808 0.95465 0.0
C203 C 0.48257 0.72136 0.99118 0.0
C204 C 0.5083 0.73109 0.98953 0.0
C205 C 0.46721 0.70986 0.97354 0.0
H206 H 0.51275 0.7166 0.93932 0.0
H207 H 0.52027 0.74015 0.003 0.0
C208 C 0.63815 0.76765 0.96626 0.0
N209 N 0.67736 0.76238 0.95141 0.0
C210 C 0.64865 0.77724 0.94645 0.0
C211 C 0.64781 0.75567 0.97864 0.0
C212 C 0.66838 0.77429 0.93918 0.0
C213 C 0.6676 0.75314 0.97083 0.0
C214 C 0.57159 0.77149 0.92794 0.0
C215 C 0.59192 0.78406 0.91422 0.0
C216 C 0.55107 0.77513 0.92609 0.0
C217 C 0.59148 0.80026 0.89899 0.0
C218 C 0.55132 0.79145 0.91062 0.0
N219 N 0.57136 0.80359 0.89752 0.0
C220 C 0.59493 0.72339 0.9182 0.0
C221 C 0.60865 0.70839 0.9468 0.0
C222 C 0.60045 0.70974 0.90384 0.0
N223 N 0.59928 0.72265 0.93918 0.0
C224 C 0.61477 0.69467 0.93296 0.0
C225 C 0.61061 0.69526 0.91119 0.0
H226 H 0.58707 0.73452 0.9126 0.0
H227 H 0.61143 0.70771 0.9636 0.0
C228 C 0.63573 0.82925 0.96255 0.0
N229 N 0.61081 0.81568 0.95838 0.0
C230 C 0.64763 0.85527 0.96411 0.0
C231 C 0.60832 0.85301 0.95595 0.0
C232 C 0.59717 0.82703 0.95454 0.0
C233 C 0.63369 0.86739 0.96153 0.0
H234 H 0.64603 0.81981 0.96617 0.0
H235 H 0.57726 0.8159 0.95198 0.0
O236 O 0.56614 0.72064 0.97958 0.0
O237 O 0.57223 0.77141 0.98923 0.0
O238 O 0.61855 0.77002 0.97348 0.0
O239 O 0.57169 0.75555 0.94296 0.0
H240 H 0.5217 0.69319 -0.00263 0.0
H241 H 0.59849 0.71073 -0.00146 0.0
H242 H 0.51276 0.66377 0.02723 0.0
H243 H 0.58818 0.68083 0.02825 0.0
H244 H 0.54501 0.82668 -9e-05 0.0
H245 H 0.61178 0.80587 0.01006 0.0
H246 H 0.53909 0.78649 0.98589 0.0
H247 H 0.61642 0.84567 0.02366 0.0
H248 H 0.56757 0.74775 0.06774 0.0
H249 H 0.64662 0.79274 0.05404 0.0
H250 H 0.46695 0.6992 0.94076 0.0
H251 H 0.47485 0.72337 0.00594 0.0
H252 H 0.64158 0.78678 0.93678 0.0
H253 H 0.63994 0.74811 0.99401 0.0
H254 H 0.67657 0.78147 0.92382 0.0
H255 H 0.67513 0.74374 0.98018 0.0
H256 H 0.60789 0.78138 0.91533 0.0
H257 H 0.53529 0.7658 0.93668 0.0
H258 H 0.60713 0.81017 0.88832 0.0
H259 H 0.53563 0.79456 0.9091 0.0
H260 H 0.59716 0.71079 0.88713 0.0
H261 H 0.62237 0.68351 0.93921 0.0
H262 H 0.66713 0.86555 0.96874 0.0
H263 H 0.59692 0.86163 0.95369 0.0
Li264 Li 0.83754 0.58577 0.31585 0.0
Li265 Li 0.80167 0.55129 0.29752 0.0
Li266 Li 0.83652 0.58496 0.2775 0.0
Li267 Li 0.80742 0.59342 0.29668 0.0
C268 C 0.84066 0.54218 0.30783 0.0
N269 N 0.84548 0.50573 0.32924 0.0
C270 C 0.82912 0.5335 0.32745 0.0
C271 C 0.85472 0.53236 0.2991 0.0
C272 C 0.83175 0.51506 0.33803 0.0
C273 C 0.85694 0.51394 0.31017 0.0
C274 C 0.78205 0.56075 0.33468 0.0
C275 C 0.73791 0.54214 0.34169 0.0
N276 N 0.74203 0.53865 0.36224 0.0
C277 C 0.78589 0.55714 0.35589 0.0
C278 C 0.75792 0.55335 0.32752 0.0
C279 C 0.7654 0.54587 0.36956 0.0
C280 C 0.85148 0.61475 0.35012 0.0
N281 N 0.85518 0.59663 0.34168 0.0
C282 C 0.87022 0.59071 0.37472 0.0
C283 C 0.86572 0.58559 0.35309 0.0
C284 C 0.86434 0.60771 0.38422 0.0
C285 C 0.85618 0.6208 0.37143 0.0
H286 H 0.84286 0.62299 0.34065 0.0
H287 H 0.869 0.57162 0.34593 0.0
C288 C 0.7681 0.50536 0.27883 0.0
N289 N 0.7771 0.51663 0.29783 0.0
C290 C 0.74956 0.48015 0.27792 0.0
C291 C 0.75036 0.47849 0.31611 0.0
C292 C 0.76863 0.50374 0.31629 0.0
C293 C 0.74049 0.46644 0.29676 0.0
H294 H 0.7752 0.51605 0.26439 0.0
H295 H 0.77581 0.51299 0.33125 0.0
C296 C 0.86978 0.63028 0.29565 0.0
N297 N 0.92071 0.66332 0.29429 0.0
C298 C 0.87888 0.65598 0.29379 0.0
C299 C 0.88658 0.62137 0.29689 0.0
C300 C 0.90469 0.67239 0.29311 0.0
C301 C 0.91226 0.63838 0.29616 0.0
C302 C 0.78425 0.57187 0.25884 0.0
C303 C 0.79371 0.58771 0.24129 0.0
C304 C 0.75841 0.55771 0.26195 0.0
C305 C 0.77711 0.58946 0.22732 0.0
C306 C 0.74243 0.56001 0.24764 0.0
N307 N 0.75203 0.57572 0.23077 0.0
C308 C 0.86035 0.57359 0.24563 0.0
C309 C 0.86607 0.6145 0.24324 0.0
C310 C 0.87589 0.57808 0.2282 0.0
N311 N 0.85607 0.59181 0.25288 0.0
C312 C 0.88161 0.61977 0.22568 0.0
C313 C 0.88691 0.60151 0.21814 0.0
H314 H 0.85189 0.55565 0.25354 0.0
H315 H 0.86222 0.6286 0.24936 0.0
C316 C 0.78797 0.61675 0.32054 0.0
N317 N 0.79115 0.6126 0.29995 0.0
C318 C 0.7762 0.63022 0.32578 0.0
C319 C 0.77256 0.63659 0.2885 0.0
C320 C 0.78406 0.62249 0.28395 0.0
C321 C 0.76828 0.64024 0.30967 0.0
H322 H 0.79481 0.60979 0.33302 0.0
H323 H 0.78751 0.61974 0.26772 0.0
O324 O 0.83787 0.55981 0.29692 0.0
O325 O 0.80194 0.57186 0.32111 0.0
O326 O 0.84453 0.61405 0.29617 0.0
O327 O 0.80019 0.56971 0.27256 0.0
H328 H 0.81862 0.54124 0.33461 0.0
H329 H 0.86382 0.53887 0.28393 0.0
H330 H 0.82295 0.50825 0.35327 0.0
H331 H 0.86775 0.50617 0.30359 0.0
H332 H 0.71912 0.53628 0.33637 0.0
H333 H 0.8045 0.56295 0.36171 0.0
H334 H 0.75472 0.55635 0.31125 0.0
H335 H 0.76807 0.54289 0.386 0.0
H336 H 0.87668 0.58038 0.38414 0.0
H337 H 0.85112 0.63379 0.37818 0.0
H338 H 0.74246 0.47145 0.26268 0.0
H339 H 0.74357 0.46865 0.331 0.0
H340 H 0.8661 0.66316 0.29281 0.0
H341 H 0.87995 0.60157 0.29836 0.0
H342 H 0.912 0.69233 0.29164 0.0
H343 H 0.92547 0.63174 0.29706 0.0
H344 H 0.81364 0.59865 0.23856 0.0
H345 H 0.75076 0.54494 0.27519 0.0
H346 H 0.78416 0.60175 0.21374 0.0
H347 H 0.72238 0.54924 0.2499 0.0
H348 H 0.87931 0.56344 0.22271 0.0
H349 H 0.88995 0.63815 0.21847 0.0
H350 H 0.77376 0.63321 0.34229 0.0
H351 H 0.76691 0.64435 0.27569 0.0
Li352 Li 0.25132 0.85588 0.65873 0.0
Li353 Li 0.24836 0.81774 0.64337 0.0
Li354 Li 0.25974 0.85438 0.6218 0.0
Li355 Li 0.2185 0.83046 0.63456 0.0
C356 C 0.29465 0.85098 0.66062 0.0
N357 N 0.32675 0.84883 0.68993 0.0
C358 C 0.28571 0.8401 0.68046 0.0
C359 C 0.31989 0.86069 0.65567 0.0
C360 C 0.30223 0.83922 0.69506 0.0
C361 C 0.33583 0.85945 0.67071 0.0
C362 C 0.20246 0.8009 0.6685 0.0
C363 C 0.16931 0.75822 0.66361 0.0
N364 N 0.15578 0.76147 0.67897 0.0
C365 C 0.18828 0.80375 0.68433 0.0
C366 C 0.19293 0.77792 0.65809 0.0
C367 C 0.1647 0.78362 0.68936 0.0
C368 C 0.23647 0.8736 0.69197 0.0
N369 N 0.25745 0.87516 0.68364 0.0
C370 C 0.28093 0.89618 0.71444 0.0
C371 C 0.27981 0.88747 0.69385 0.0
C372 C 0.25892 0.89251 0.72425 0.0
C373 C 0.23674 0.88219 0.71238 0.0
H374 H 0.21915 0.86432 0.68315 0.0
H375 H 0.29647 0.88932 0.68655 0.0
C376 C 0.2642 0.78271 0.63441 0.0
N377 N 0.25392 0.79073 0.64926 0.0
C378 C 0.26871 0.76314 0.63904 0.0
C379 C 0.252 0.76067 0.67412 0.0
C380 C 0.24784 0.78019 0.66882 0.0
C381 C 0.26251 0.75182 0.65913 0.0
H382 H 0.26891 0.79154 0.61899 0.0
H383 H 0.23987 0.78706 0.68042 0.0
C384 C 0.2518 0.89294 0.63489 0.0
N385 N 0.27751 0.94467 0.63487 0.0
C386 C 0.23922 0.90601 0.63068 0.0
C387 C 0.27747 0.90619 0.63918 0.0
C388 C 0.25255 0.93216 0.63071 0.0
C389 C 0.29013 0.93234 0.63907 0.0
C390 C 0.22701 0.81746 0.5946 0.0
C391 C 0.21872 0.83371 0.58797 0.0
C392 C 0.22682 0.80003 0.58039 0.0
C393 C 0.2104 0.83226 0.56719 0.0
C394 C 0.21834 0.79915 0.55973 0.0
N395 N 0.21038 0.81516 0.55361 0.0
C396 C 0.29974 0.87014 0.59321 0.0
C397 C 0.27476 0.88897 0.58797 0.0
C398 C 0.31545 0.88405 0.57654 0.0
N399 N 0.28003 0.87303 0.59866 0.0
C400 C 0.29021 0.90355 0.57155 0.0
C401 C 0.31088 0.90125 0.56578 0.0
H402 H 0.30328 0.85712 0.60191 0.0
H403 H 0.25863 0.89048 0.59224 0.0
C404 C 0.17433 0.83071 0.6413 0.0
N405 N 0.18386 0.81818 0.63076 0.0
C406 C 0.14853 0.82011 0.64358 0.0
C407 C 0.14288 0.78451 0.62313 0.0
C408 C 0.16882 0.79586 0.62119 0.0
C409 C 0.1325 0.79633 0.63502 0.0
H410 H 0.18685 0.84821 0.64909 0.0
H411 H 0.17696 0.78611 0.61324 0.0
O412 O 0.2788 0.85167 0.64584 0.0
O413 O 0.22519 0.82068 0.66275 0.0
O414 O 0.23882 0.86731 0.63489 0.0
O415 O 0.23546 0.81855 0.61481 0.0
H416 H 0.26628 0.83264 0.68464 0.0
H417 H 0.32707 0.86907 0.64034 0.0
H418 H 0.29557 0.83092 0.71048 0.0
H419 H 0.35542 0.86691 0.66709 0.0
H420 H 0.16164 0.74042 0.65556 0.0
H421 H 0.19529 0.82132 0.69261 0.0
H422 H 0.20343 0.77547 0.64554 0.0
H423 H 0.15348 0.78562 0.70149 0.0
H424 H 0.29848 0.90444 0.72299 0.0
H425 H 0.21933 0.87893 0.71933 0.0
H426 H 0.27666 0.75676 0.62696 0.0
H427 H 0.24734 0.75281 0.68991 0.0
H428 H 0.21934 0.89601 0.62737 0.0
H429 H 0.2876 0.8965 0.6425 0.0
H430 H 0.24304 0.94252 0.62744 0.0
H431 H 0.30999 0.94282 0.64232 0.0
H432 H 0.21869 0.84732 0.5987 0.0
H433 H 0.2332 0.78734 0.58528 0.0
H434 H 0.20396 0.84474 0.56185 0.0
H435 H 0.2181 0.78576 0.54856 0.0
H436 H 0.33125 0.88182 0.5724 0.0
H437 H 0.28597 0.9164 0.56331 0.0
H438 H 0.14133 0.8297 0.65309 0.0
H439 H 0.13113 0.76625 0.61615 0.0
Li440 Li 0.42527 0.24579 0.99104 0.0
Li441 Li 0.3847 0.23984 0.00361 0.0
Li442 Li 0.38663 0.20792 0.98364 0.0
Li443 Li 0.39502 0.24539 0.96653 0.0
C444 C 0.40375 0.20236 0.02066 0.0
N445 N 0.40615 0.16238 0.03783 0.0
C446 C 0.38701 0.18777 0.03654 0.0
C447 C 0.42182 0.1967 0.01361 0.0
C448 C 0.38848 0.1676 0.04497 0.0
C449 C 0.42272 0.17642 0.02249 0.0
C450 C 0.42569 0.28935 0.0034 0.0
C451 C 0.44899 0.33355 0.0111 0.0
N452 N 0.45271 0.32828 0.03122 0.0
C453 C 0.42977 0.28437 0.02416 0.0
C454 C 0.4354 0.31413 -0.00321 0.0
C455 C 0.44346 0.30431 0.03798 0.0
C456 C 0.47692 0.26872 0.98193 0.0
N457 N 0.45965 0.25942 -0.00231 0.0
C458 C 0.49108 0.26637 0.02311 0.0
C459 C 0.46625 0.25839 0.01802 0.0
C460 C 0.50931 0.2754 0.00711 0.0
C461 C 0.50205 0.27692 0.98632 0.0
H462 H 0.47106 0.26915 0.96588 0.0
H463 H 0.45211 0.25077 0.03024 0.0
C464 C 0.3481 0.21903 0.03258 0.0
N465 N 0.3662 0.24222 0.02658 0.0
C466 C 0.33523 0.21558 0.05145 0.0
C467 C 0.35823 0.26038 0.05682 0.0
C468 C 0.37067 0.26296 0.03765 0.0
C469 C 0.34096 0.2363 0.06434 0.0
H470 H 0.34476 0.20297 0.02326 0.0
H471 H 0.38461 0.28134 0.03222 0.0
C472 C 0.40954 0.21608 0.94443 0.0
N473 N 0.39983 0.19315 0.90529 0.0
C474 C 0.38488 0.20145 0.93738 0.0
C475 C 0.42924 0.21902 0.93158 0.0
C476 C 0.38037 0.19003 0.91754 0.0
C477 C 0.42395 0.20727 0.91184 0.0
C478 C 0.34519 0.22704 0.97708 0.0
C479 C 0.32057 0.20886 0.97235 0.0
C480 C 0.35146 0.25209 0.97905 0.0
C481 C 0.30261 0.21606 0.96954 0.0
C482 C 0.33296 0.25853 0.97613 0.0
N483 N 0.30912 0.24054 0.97146 0.0
C484 C 0.34837 0.1602 0.99263 0.0
C485 C 0.38354 0.16045 0.9773 0.0
C486 C 0.33762 0.13488 -0.00244 0.0
N487 N 0.37118 0.17252 0.98323 0.0
C488 C 0.37346 0.13504 0.98195 0.0
C489 C 0.3505 0.12212 0.99275 0.0
H490 H 0.33922 0.17044 -0.00256 0.0
H491 H 0.40186 0.17086 0.97013 0.0
C492 C 0.41228 0.28162 0.93438 0.0
N493 N 0.39228 0.25971 0.9408 0.0
C494 C 0.41107 0.29309 0.9157 0.0
C495 C 0.36871 0.25917 0.91067 0.0
C496 C 0.3709 0.24819 0.92922 0.0
C497 C 0.38894 0.28201 0.90364 0.0
H498 H 0.42917 0.29017 0.94382 0.0
H499 H 0.3554 0.23054 0.93443 0.0
O500 O 0.40207 0.22166 0.01165 0.0
O501 O 0.41282 0.27026 0.98936 0.0
O502 O 0.41459 0.22766 0.96372 0.0
O503 O 0.36285 0.22007 0.97989 0.0
H504 H 0.37294 0.19185 0.04224 0.0
H505 H 0.43464 0.20748 0.00106 0.0
H506 H 0.37555 0.15607 0.05718 0.0
H507 H 0.43647 0.17172 0.01705 0.0
H508 H 0.45661 0.35282 0.00619 0.0
H509 H 0.4222 0.26535 0.02965 0.0
H510 H 0.4325 0.31829 0.98074 0.0
H511 H 0.44668 0.30071 0.0541 0.0
H512 H 0.4959 0.26516 0.03938 0.0
H513 H 0.51545 0.2835 0.97347 0.0
H514 H 0.32235 0.19664 0.05657 0.0
H515 H 0.36291 0.2769 0.0661 0.0
H516 H 0.36936 0.1989 0.94705 0.0
H517 H 0.44843 0.23029 0.93681 0.0
H518 H 0.36139 0.17869 0.91188 0.0
H519 H 0.43902 0.2094 0.90173 0.0
H520 H 0.31542 0.18938 0.97082 0.0
H521 H 0.37035 0.26646 0.98276 0.0
H522 H 0.28348 0.20218 0.96582 0.0
H523 H 0.33755 0.27785 0.97757 0.0
H524 H 0.32008 0.12582 0.00613 0.0
H525 H 0.38388 0.12584 0.97776 0.0
H526 H 0.42734 0.3104 0.91078 0.0
H527 H 0.35111 0.25002 0.90221 0.0
Li528 Li 0.59268 0.85113 0.3745 0.0
Li529 Li 0.60764 0.82204 0.36728 0.0
Li530 Li 0.60048 0.84358 0.33903 0.0
Li531 Li 0.56561 0.81156 0.35784 0.0
C532 C 0.64225 0.88122 0.35421 0.0
N533 N 0.67657 0.92681 0.33688 0.0
C534 C 0.66646 0.8863 0.34951 0.0
C535 C 0.63549 0.89932 0.35011 0.0
C536 C 0.68355 0.90947 0.34075 0.0
C537 C 0.65311 0.92225 0.34134 0.0
C538 C 0.5876 0.81908 0.4075 0.0
C539 C 0.57858 0.8081 0.44437 0.0
N540 N 0.60308 0.82379 0.44912 0.0
C541 C 0.6127 0.83508 0.41275 0.0
C542 C 0.57039 0.80547 0.42342 0.0
C543 C 0.62015 0.83721 0.43388 0.0
C544 C 0.57356 0.87767 0.39625 0.0
N545 N 0.59429 0.87574 0.39304 0.0
C546 C 0.61906 0.91202 0.41397 0.0
C547 C 0.61669 0.89215 0.40181 0.0
C548 C 0.59816 0.91495 0.41715 0.0
C549 C 0.57505 0.89725 0.40844 0.0
H550 H 0.55604 0.86431 0.38896 0.0
H551 H 0.63284 0.89012 0.39896 0.0
C552 C 0.64658 0.81531 0.3583 0.0
N553 N 0.62897 0.80913 0.37353 0.0
C554 C 0.66155 0.80439 0.35803 0.0
C555 C 0.64045 0.78123 0.38959 0.0
C556 C 0.6257 0.79261 0.38917 0.0
C557 C 0.65837 0.78677 0.3736 0.0
H558 H 0.64805 0.82779 0.34567 0.0
H559 H 0.61102 0.78745 0.40075 0.0
C560 C 0.55498 0.84267 0.33366 0.0
N561 N 0.52208 0.83745 0.30176 0.0
C562 C 0.55319 0.82904 0.31544 0.0
C563 C 0.54004 0.85365 0.33564 0.0
C564 C 0.53646 0.82661 0.29949 0.0
C565 C 0.52352 0.8508 0.31934 0.0
C566 C 0.5841 0.78337 0.33915 0.0
C567 C 0.58894 0.77431 0.32055 0.0
C568 C 0.57355 0.76737 0.3565 0.0
C569 C 0.58311 0.74934 0.3196 0.0
C570 C 0.568 0.74253 0.35492 0.0
N571 N 0.57286 0.7341 0.33667 0.0
C572 C 0.62621 0.84695 0.30295 0.0
C573 C 0.60931 0.874 0.30171 0.0
C574 C 0.63388 0.8523 0.28199 0.0
N575 N 0.61351 0.85714 0.31209 0.0
C576 C 0.61669 0.87994 0.28059 0.0
C577 C 0.62847 0.86839 0.27029 0.0
H578 H 0.62934 0.83371 0.31171 0.0
H579 H 0.59932 0.88197 0.3095 0.0
C580 C 0.51484 0.78091 0.37017 0.0
N581 N 0.53184 0.78552 0.35463 0.0
C582 C 0.48972 0.76268 0.36727 0.0
C583 C 0.50029 0.75435 0.33254 0.0
C584 C 0.52507 0.77258 0.33613 0.0
C585 C 0.48218 0.74934 0.34812 0.0
H586 H 0.52076 0.79164 0.38468 0.0
H587 H 0.53887 0.77659 0.32397 0.0
O588 O 0.62507 0.85845 0.36235 0.0
O589 O 0.57965 0.81669 0.38698 0.0
O590 O 0.57109 0.84524 0.34963 0.0
O591 O 0.59017 0.80794 0.34035 0.0
H592 H 0.67203 0.87254 0.35262 0.0
H593 H 0.61672 0.89556 0.35338 0.0
H594 H 0.70235 0.91367 0.33702 0.0
H595 H 0.6481 0.93639 0.33801 0.0
H596 H 0.56546 0.79768 0.45685 0.0
H597 H 0.62636 0.84569 0.40071 0.0
H598 H 0.55089 0.79301 0.41961 0.0
H599 H 0.63951 0.84952 0.43816 0.0
H600 H 0.6371 0.92504 0.42073 0.0
H601 H 0.55855 0.89894 0.41051 0.0
H602 H 0.67452 0.80876 0.34504 0.0
H603 H 0.63738 0.76779 0.40191 0.0
H604 H 0.56458 0.8204 0.31357 0.0
H605 H 0.5412 0.86426 0.34965 0.0
H606 H 0.53489 0.81611 0.28532 0.0
H607 H 0.51183 0.85919 0.32068 0.0
H608 H 0.59714 0.78646 0.307 0.0
H609 H 0.56973 0.77401 0.37106 0.0
H610 H 0.58676 0.74207 0.30531 0.0
H611 H 0.55987 0.72996 0.36823 0.0
H612 H 0.64251 0.8426 0.27472 0.0
H613 H 0.6124 0.89264 0.27222 0.0
H614 H 0.4763 0.75944 0.37964 0.0
H615 H 0.49539 0.7442 0.31771 0.0
Li616 Li 0.78746 0.59254 0.68679 0.0
Li617 Li 0.74546 0.58601 0.69598 0.0
Li618 Li 0.75191 0.55106 0.68434 0.0
Li619 Li 0.75629 0.58279 0.65965 0.0
C620 C 0.78235 0.58019 0.72603 0.0
N621 N 0.81881 0.59823 0.75702 0.0
C622 C 0.78307 0.59702 0.74119 0.0
C623 C 0.80006 0.57241 0.72671 0.0
C624 C 0.80167 0.60594 0.75672 0.0
C625 C 0.81838 0.58179 0.74247 0.0
C626 C 0.77719 0.63309 0.66706 0.0
C627 C 0.76449 0.66014 0.65035 0.0
N628 N 0.78806 0.67451 0.64263 0.0
C629 C 0.80136 0.64831 0.65917 0.0
C630 C 0.75867 0.63919 0.66281 0.0
C631 C 0.80645 0.66909 0.64676 0.0
C632 C 0.83704 0.60713 0.67863 0.0
N633 N 0.82249 0.61277 0.69088 0.0
C634 C 0.85817 0.65119 0.70174 0.0
C635 C 0.83248 0.63405 0.70269 0.0
C636 C 0.87338 0.64636 0.68829 0.0
C637 C 0.86264 0.62366 0.67718 0.0
H638 H 0.82861 0.59043 0.66905 0.0
H639 H 0.82033 0.63835 0.71188 0.0
C640 C 0.70578 0.5767 0.72274 0.0
N641 N 0.72783 0.59501 0.71476 0.0
C642 C 0.6933 0.5824 0.7382 0.0
C643 C 0.72647 0.6257 0.73669 0.0
C644 C 0.73816 0.6192 0.72111 0.0
C645 C 0.70391 0.60709 0.7456 0.0
H646 H 0.69822 0.5576 0.71741 0.0
H647 H 0.75584 0.63326 0.71451 0.0
C648 C 0.77981 0.54979 0.65367 0.0
N649 N 0.78125 0.51019 0.63469 0.0
C650 C 0.76795 0.54049 0.63423 0.0
C651 C 0.79248 0.53899 0.66341 0.0
C652 C 0.76891 0.52048 0.62489 0.0
C653 C 0.79294 0.51895 0.65359 0.0
C654 C 0.70481 0.55541 0.6644 0.0
C655 C 0.69136 0.53437 0.65156 0.0
C656 C 0.69675 0.57281 0.66642 0.0
C657 C 0.67024 0.53126 0.64076 0.0
C658 C 0.67555 0.56906 0.65535 0.0
N659 N 0.66285 0.54855 0.64285 0.0
C660 C 0.74731 0.50926 0.70642 0.0
C661 C 0.72893 0.50015 0.67229 0.0
C662 C 0.74231 0.48468 0.70871 0.0
N663 N 0.74109 0.51659 0.68823 0.0
C664 C 0.72354 0.4754 0.6739 0.0
C665 C 0.73073 0.46755 0.69212 0.0
H666 H 0.75675 0.52265 0.71893 0.0
H667 H 0.72443 0.50652 0.65793 0.0
C668 C 0.78038 0.60355 0.62369 0.0
N669 N 0.75637 0.59109 0.63069 0.0
C670 C 0.78563 0.60954 0.60245 0.0
C671 C 0.7412 0.58943 0.59557 0.0
C672 C 0.73679 0.58436 0.61725 0.0
C673 C 0.76593 0.60198 0.58805 0.0
H674 H 0.79552 0.60794 0.6346 0.0
H675 H 0.71784 0.5743 0.62304 0.0
O676 O 0.76459 0.57162 0.71045 0.0
O677 O 0.7718 0.61255 0.67912 0.0
O678 O 0.77879 0.56916 0.66327 0.0
O679 O 0.72538 0.55858 0.67529 0.0
H680 H 0.7695 0.60319 0.74094 0.0
H681 H 0.79987 0.55952 0.71502 0.0
H682 H 0.80251 0.61904 0.76851 0.0
H683 H 0.83231 0.57606 0.74309 0.0
H684 H 0.75029 0.66499 0.64686 0.0
H685 H 0.81599 0.64397 0.66232 0.0
H686 H 0.74001 0.62794 0.66907 0.0
H687 H 0.82502 0.68089 0.6404 0.0
H688 H 0.86577 0.66861 0.71043 0.0
H689 H 0.8738 0.61913 0.66684 0.0
H690 H 0.67606 0.56753 0.74484 0.0
H691 H 0.73507 0.64498 0.7419 0.0
H692 H 0.75781 0.54835 0.62653 0.0
H693 H 0.80158 0.54578 0.67854 0.0
H694 H 0.75973 0.51303 0.60989 0.0
H695 H 0.80251 0.5103 0.66103 0.0
H696 H 0.69718 0.52062 0.64985 0.0
H697 H 0.70661 0.58897 0.67649 0.0
H698 H 0.65974 0.51513 0.63071 0.0
H699 H 0.66916 0.58244 0.65675 0.0
H700 H 0.74786 0.47927 0.72313 0.0
H701 H 0.71491 0.4629 0.66061 0.0
H702 H 0.80491 0.61869 0.59717 0.0
H703 H 0.72557 0.58314 0.58477 0.0
Li704 Li 0.19925 0.78743 0.03141 0.0
Li705 Li 0.15845 0.74928 0.02845 0.0
Li706 Li 0.1962 0.7504 0.01632 0.0
Li707 Li 0.17897 0.77292 -0.00282 0.0
C708 C 0.19515 0.76352 0.06558 0.0
N709 N 0.21036 0.78371 0.1055 0.0
C710 C 0.17766 0.76246 0.08018 0.0
C711 C 0.22037 0.77481 0.07128 0.0
C712 C 0.18572 0.77277 0.10029 0.0
C713 C 0.22769 0.78493 0.09153 0.0
C714 C 0.15689 0.79674 0.01292 0.0
C715 C 0.12458 0.79774 0.9922 0.0
N716 N 0.13723 0.82316 0.99332 0.0
C717 C 0.16954 0.82289 0.01393 0.0
C718 C 0.13418 0.78405 0.00204 0.0
C719 C 0.1593 0.8359 0.0039 0.0
C720 C 0.24299 0.83263 0.03971 0.0
N721 N 0.21895 0.81795 0.04615 0.0
C722 C 0.22037 0.85191 0.06542 0.0
C723 C 0.20779 0.82672 0.05943 0.0
C724 C 0.24459 0.86799 0.05764 0.0
C725 C 0.25631 0.85778 0.04544 0.0
H726 H 0.2512 0.82538 0.02876 0.0
H727 H 0.18846 0.8147 0.06396 0.0
C728 C 0.12254 0.70617 0.04944 0.0
N729 N 0.12747 0.72891 0.04214 0.0
C730 C 0.10061 0.69104 0.06067 0.0
C731 C 0.08957 0.72335 0.05717 0.0
C732 C 0.11158 0.73771 0.04577 0.0
C733 C 0.08391 0.69971 0.06494 0.0
H734 H 0.13591 0.69999 0.0469 0.0
H735 H 0.11635 0.7562 0.0404 0.0
C736 C 0.23342 0.78483 0.99441 0.0
N737 N 0.27121 0.782 0.97342 0.0
C738 C 0.23221 0.78136 0.97249 0.0
C739 C 0.25394 0.78698 0.00563 0.0
C740 C 0.2515 0.77999 0.96217 0.0
C741 C 0.27281 0.78543 0.99474 0.0
C742 C 0.1434 0.71358 -0.00126 0.0
C743 C 0.14425 0.69226 0.00495 0.0
C744 C 0.12127 0.71106 0.99046 0.0
C745 C 0.12276 0.66876 0.00305 0.0
C746 C 0.10018 0.68723 0.98883 0.0
N747 N 0.10135 0.66675 -0.00487 0.0
C748 C 0.22597 0.72943 0.02848 0.0
C749 C 0.21206 0.7224 0.99285 0.0
C750 C 0.24072 0.71856 0.02478 0.0
N751 N 0.21255 0.73166 0.01246 0.0
C752 C 0.22648 0.71135 0.98845 0.0
C753 C 0.24152 0.70984 0.00441 0.0
H754 H 0.22599 0.73698 0.0439 0.0
H755 H 0.20112 0.72443 0.98045 0.0
C756 C 0.19032 0.81075 0.9685 0.0
N757 N 0.17661 0.78546 0.97055 0.0
C758 C 0.19249 0.82198 0.94893 0.0
C759 C 0.16678 0.78084 0.93372 0.0
C760 C 0.16462 0.77039 0.95379 0.0
C761 C 0.18111 0.80693 0.93118 0.0
H762 H 0.20048 0.82212 0.98195 0.0
H763 H 0.15438 0.75028 0.95582 0.0
O764 O 0.18773 0.75402 0.04566 0.0
O765 O 0.16677 0.78365 0.02239 0.0
O766 O 0.21436 0.7855 0.0049 0.0
O767 O 0.16418 0.73677 0.00063 0.0
H768 H 0.15809 0.75393 0.07601 0.0
H769 H 0.23421 0.7761 0.06007 0.0
H770 H 0.1724 0.77214 0.11174 0.0
H771 H 0.24716 0.79386 0.09612 0.0
H772 H 0.10707 0.78814 0.98366 0.0
H773 H 0.18725 0.83309 0.02207 0.0
H774 H 0.12415 0.76385 0.00111 0.0
H775 H 0.16897 0.85614 0.00445 0.0
H776 H 0.21073 0.85905 0.07491 0.0
H777 H 0.27477 0.86954 0.03881 0.0
H778 H 0.09699 0.67291 0.06618 0.0
H779 H 0.07762 0.73112 0.06051 0.0
H780 H 0.21644 0.77945 0.96352 0.0
H781 H 0.25502 0.78923 0.02264 0.0
H782 H 0.25074 0.7772 0.94523 0.0
H783 H 0.28864 0.78681 0.00326 0.0
H784 H 0.1612 0.69386 0.01144 0.0
H785 H 0.12038 0.72732 0.98534 0.0
H786 H 0.12309 0.65211 0.00794 0.0
H787 H 0.08289 0.68501 0.98255 0.0
H788 H 0.25224 0.71806 0.03749 0.0
H789 H 0.22629 0.70458 0.97261 0.0
H790 H 0.20417 0.8421 0.94744 0.0
H791 H 0.15801 0.76871 0.92024 0.0
Li792 Li 0.39125 0.16763 0.3489 0.0
Li793 Li 0.39862 0.13399 0.35398 0.0
Li794 Li 0.43174 0.17356 0.33676 0.0
Li795 Li 0.39114 0.14296 0.31904 0.0
C796 C 0.4202 0.18395 0.3826 0.0
N797 N 0.42323 0.21507 0.41533 0.0
C798 C 0.40067 0.17601 0.3972 0.0
C799 C 0.44127 0.20778 0.38466 0.0
C800 C 0.40254 0.19201 0.41361 0.0
C801 C 0.44246 0.2232 0.40132 0.0
C802 C 0.34957 0.1114 0.35281 0.0
C803 C 0.32375 0.06652 0.35532 0.0
N804 N 0.31348 0.06921 0.37345 0.0
C805 C 0.33856 0.11374 0.37134 0.0
C806 C 0.34193 0.08763 0.34459 0.0
C807 C 0.32041 0.09218 0.38159 0.0
C808 C 0.35059 0.17507 0.35069 0.0
N809 N 0.37502 0.18603 0.3565 0.0
C810 C 0.37657 0.22507 0.36217 0.0
C811 C 0.38796 0.21042 0.36263 0.0
C812 C 0.35181 0.21465 0.35492 0.0
C813 C 0.33855 0.18906 0.34983 0.0
H814 H 0.34099 0.15598 0.34506 0.0
H815 H 0.40762 0.21913 0.36624 0.0
C816 C 0.40356 0.09257 0.36607 0.0
N817 N 0.395 0.10799 0.37239 0.0
C818 C 0.40248 0.07428 0.37978 0.0
C819 C 0.38345 0.08788 0.40609 0.0
C820 C 0.38507 0.10596 0.39195 0.0
C821 C 0.39252 0.07193 0.40019 0.0
H822 H 0.41168 0.09478 0.35052 0.0
H823 H 0.37852 0.11847 0.39668 0.0
C824 C 0.40522 0.19912 0.31531 0.0
N825 N 0.39823 0.23857 0.3044 0.0
C826 C 0.38357 0.19466 0.30457 0.0
C827 C 0.42339 0.22366 0.32039 0.0
C828 C 0.38036 0.21485 0.29923 0.0
C829 C 0.41949 0.24335 0.31475 0.0
C830 C 0.42233 0.12653 0.31092 0.0
C831 C 0.44397 0.13911 0.29862 0.0
C832 C 0.40383 0.10235 0.30527 0.0
C833 C 0.44651 0.12745 0.28062 0.0
C834 C 0.40706 0.09132 0.28715 0.0
N835 N 0.42814 0.10401 0.27529 0.0
C836 C 0.48398 0.20284 0.34582 0.0
C837 C 0.47081 0.20737 0.31168 0.0
C838 C 0.5085 0.22158 0.34142 0.0
N839 N 0.46571 0.19665 0.33117 0.0
C840 C 0.49505 0.22584 0.30649 0.0
C841 C 0.51422 0.23366 0.32162 0.0
H842 H 0.47938 0.19374 0.36112 0.0
H843 H 0.4559 0.20171 0.30024 0.0
C844 C 0.3518 0.12395 0.28979 0.0
N845 N 0.37698 0.13423 0.2918 0.0
C846 C 0.34171 0.12701 0.27098 0.0
C847 C 0.38344 0.14902 0.25624 0.0
C848 C 0.39274 0.14579 0.27534 0.0
C849 C 0.35782 0.1409 0.25435 0.0
H850 H 0.33987 0.1158 0.30345 0.0
H851 H 0.41272 0.15475 0.27769 0.0
O852 O 0.41882 0.16846 0.36651 0.0
O853 O 0.36756 0.13228 0.34267 0.0
O854 O 0.40842 0.17955 0.32115 0.0
O855 O 0.41941 0.13771 0.32852 0.0
H856 H 0.38406 0.15788 0.39569 0.0
H857 H 0.45643 0.21446 0.37341 0.0
H858 H 0.38748 0.18611 0.42493 0.0
H859 H 0.45863 0.2417 0.40306 0.0
H860 H 0.31778 0.04799 0.3492 0.0
H861 H 0.34408 0.132 0.37783 0.0
H862 H 0.34993 0.08551 0.33008 0.0
H863 H 0.31186 0.0937 0.39602 0.0
H864 H 0.38748 0.24467 0.36638 0.0
H865 H 0.31963 0.18029 0.34374 0.0
H866 H 0.40991 0.06255 0.37464 0.0
H867 H 0.37517 0.08644 0.4215 0.0
H868 H 0.36922 0.17579 0.30068 0.0
H869 H 0.44012 0.22742 0.32891 0.0
H870 H 0.36361 0.21165 0.29107 0.0
H871 H 0.4333 0.26242 0.31871 0.0
H872 H 0.45866 0.15766 0.30291 0.0
H873 H 0.38714 0.09223 0.31476 0.0
H874 H 0.46311 0.13702 0.2709 0.0
H875 H 0.39281 0.07267 0.28254 0.0
H876 H 0.52256 0.22706 0.35365 0.0
H877 H 0.49862 0.23407 0.29084 0.0
H878 H 0.32189 0.12067 0.27026 0.0
H879 H 0.39645 0.15952 0.24369 0.0
Li880 Li 0.25985 0.41252 0.70401 0.0
Li881 Li 0.21815 0.40901 0.70173 0.0
Li882 Li 0.24448 0.41881 0.67048 0.0
Li883 Li 0.2548 0.44966 0.69789 0.0
C884 C 0.21912 0.36854 0.67395 0.0
N885 N 0.19719 0.33071 0.64417 0.0
C886 C 0.19338 0.35677 0.67006 0.0
C887 C 0.23361 0.36083 0.66273 0.0
C888 C 0.18267 0.33775 0.65495 0.0
C889 C 0.22221 0.34176 0.64772 0.0
C890 C 0.23052 0.41892 0.74095 0.0
C891 C 0.19987 0.4187 0.76472 0.0
N892 N 0.20004 0.40005 0.77608 0.0
C893 C 0.2304 0.39975 0.75285 0.0
C894 C 0.21517 0.42852 0.74693 0.0
C895 C 0.21486 0.39048 0.77057 0.0
C896 C 0.29503 0.41632 0.7337 0.0
N897 N 0.27905 0.40112 0.71856 0.0
C898 C 0.28981 0.36974 0.72603 0.0
C899 C 0.27612 0.37817 0.71459 0.0
C900 C 0.30619 0.3848 0.74214 0.0
C901 C 0.3087 0.40845 0.74583 0.0
H902 H 0.29666 0.43435 0.73666 0.0
H903 H 0.26308 0.36637 0.70259 0.0
C904 C 0.1688 0.39857 0.70199 0.0
N905 N 0.18399 0.39072 0.71027 0.0
C906 C 0.14294 0.38359 0.70342 0.0
C907 C 0.14863 0.35293 0.72267 0.0
C908 C 0.17455 0.36867 0.72095 0.0
C909 C 0.13249 0.36007 0.71328 0.0
H910 H 0.17663 0.41568 0.69299 0.0
H911 H 0.18705 0.36258 0.72692 0.0
C912 C 0.29717 0.44251 0.67134 0.0
N913 N 0.33611 0.44615 0.64706 0.0
C914 C 0.31393 0.46516 0.66157 0.0
C915 C 0.30044 0.42184 0.66892 0.0
C916 C 0.33343 0.4666 0.64931 0.0
C917 C 0.32017 0.42399 0.65655 0.0
C918 C 0.22305 0.45422 0.67335 0.0
C919 C 0.23135 0.46443 0.65321 0.0
C920 C 0.21378 0.46541 0.68711 0.0
C921 C 0.23028 0.48568 0.6472 0.0
C922 C 0.21312 0.48669 0.68054 0.0
N923 N 0.22131 0.4963 0.66088 0.0
C924 C 0.21604 0.40282 0.63515 0.0
C925 C 0.25871 0.41948 0.62601 0.0
C926 C 0.20895 0.39809 0.61404 0.0
N927 N 0.24047 0.41311 0.64078 0.0
C928 C 0.25247 0.41558 0.60451 0.0
C929 C 0.22728 0.40472 0.59844 0.0
H930 H 0.20204 0.39879 0.64714 0.0
H931 H 0.27806 0.42804 0.63072 0.0
C932 C 0.26426 0.49347 0.72077 0.0
N933 N 0.26834 0.48455 0.70245 0.0
C934 C 0.27018 0.51846 0.72212 0.0
C935 C 0.28573 0.52479 0.68623 0.0
C936 C 0.27944 0.49974 0.68555 0.0
C937 C 0.28048 0.53427 0.70448 0.0
H938 H 0.25537 0.48095 0.73395 0.0
H939 H 0.28184 0.49198 0.67103 0.0
O940 O 0.23004 0.38749 0.68854 0.0
O941 O 0.24526 0.42795 0.72334 0.0
O942 O 0.27795 0.44079 0.68342 0.0
O943 O 0.22446 0.43373 0.67974 0.0
H944 H 0.18176 0.36252 0.67823 0.0
H945 H 0.25347 0.36949 0.6654 0.0
H946 H 0.16282 0.32867 0.65172 0.0
H947 H 0.23328 0.33575 0.63889 0.0
H948 H 0.1878 0.42586 0.76946 0.0
H949 H 0.24198 0.39194 0.74837 0.0
H950 H 0.2148 0.44313 0.73775 0.0
H951 H 0.21452 0.37559 0.7799 0.0
H952 H 0.28747 0.35156 0.72231 0.0
H953 H 0.32057 0.42055 0.75833 0.0
H954 H 0.13133 0.38968 0.69552 0.0
H955 H 0.14134 0.33495 0.73043 0.0
H956 H 0.312 0.48151 0.66342 0.0
H957 H 0.28791 0.40432 0.67647 0.0
H958 H 0.34646 0.48399 0.64162 0.0
H959 H 0.32281 0.40806 0.65451 0.0
H960 H 0.23889 0.45632 0.6424 0.0
H961 H 0.2076 0.45801 0.70287 0.0
H962 H 0.23675 0.49383 0.6317 0.0
H963 H 0.20622 0.49566 0.69111 0.0
H964 H 0.1894 0.3902 0.6099 0.0
H965 H 0.26708 0.42109 0.59277 0.0
H966 H 0.26603 0.52512 0.73656 0.0
H967 H 0.29318 0.53613 0.67212 0.0
Li968 Li 0.79361 0.21272 0.02086 0.0
Li969 Li 0.83466 0.25179 0.02644 0.0
Li970 Li 0.79513 0.25218 0.01828 0.0
Li971 Li 0.81472 0.24021 0.99186 0.0
C972 C 0.79457 0.22156 0.06012 0.0
N973 N 0.77716 0.18619 0.09204 0.0
C974 C 0.8113 0.21735 0.07187 0.0
C975 C 0.76899 0.20781 0.06462 0.0
C976 C 0.80213 0.19939 0.08795 0.0
C977 C 0.76055 0.18999 0.08081 0.0
C978 C 0.83968 0.21588 -0.00426 0.0
C979 C 0.87632 0.22703 0.9746 0.0
N980 N 0.86437 0.20394 0.96555 0.0
C981 C 0.82781 0.19221 0.9863 0.0
C982 C 0.86415 0.23343 0.98989 0.0
C983 C 0.84059 0.18656 0.97103 0.0
C984 C 0.74975 0.16579 0.02231 0.0
N985 N 0.77457 0.17789 0.02684 0.0
C986 C 0.77376 0.13895 0.03069 0.0
C987 C 0.78654 0.1651 0.03173 0.0
C988 C 0.74847 0.12603 0.02457 0.0
C989 C 0.73621 0.13975 0.0213 0.0
H990 H 0.74075 0.17635 0.01825 0.0
H991 H 0.80642 0.17526 0.03495 0.0
C992 C 0.87066 0.28855 0.05277 0.0
N993 N 0.86449 0.26699 0.04234 0.0
C994 C 0.89211 0.30002 0.06532 0.0
C995 C 0.90053 0.26694 0.05593 0.0
C996 C 0.87881 0.25602 0.0437 0.0
C997 C 0.90736 0.28917 0.06709 0.0
H998 H 0.85869 0.29665 0.05149 0.0
H999 H 0.87321 0.23866 0.03548 0.0
C1000 C 0.76 0.22658 0.99081 0.0
N1001 N 0.72221 0.23389 0.97538 0.0
C1002 C 0.76239 0.23768 0.971 0.0
C1003 C 0.73836 0.21927 0.00279 0.0
C1004 C 0.74306 0.24115 0.96346 0.0
C1005 C 0.7195 0.22314 0.99472 0.0
C1006 C 0.84491 0.29016 0.99129 0.0
C1007 C 0.83506 0.29702 0.97432 0.0
C1008 C 0.87083 0.3008 0.99323 0.0
C1009 C 0.85133 0.31439 0.95954 0.0
C1010 C 0.88647 0.3181 0.97811 0.0
N1011 N 0.87648 0.32449 0.96172 0.0
C1012 C 0.76521 0.26518 0.04302 0.0
C1013 C 0.77381 0.28241 0.00848 0.0
C1014 C 0.74817 0.27344 0.04635 0.0
N1015 N 0.77697 0.26905 0.02407 0.0
C1016 C 0.75677 0.2908 0.01103 0.0
C1017 C 0.74309 0.28568 0.02994 0.0
H1018 H 0.76831 0.25481 0.05527 0.0
H1019 H 0.78332 0.28523 0.99356 0.0
C1020 C 0.8011 0.21391 0.95524 0.0
N1021 N 0.81972 0.23626 0.96253 0.0
C1022 C 0.8027 0.20534 0.93533 0.0
C1023 C 0.84239 0.24325 0.93016 0.0
C1024 C 0.84026 0.25094 0.9505 0.0
C1025 C 0.8236 0.21998 0.92266 0.0
H1026 H 0.78539 0.20219 0.96533 0.0
H1027 H 0.85548 0.26796 0.9569 0.0
O1028 O 0.80312 0.23854 0.04392 0.0
O1029 O 0.82719 0.22207 0.0102 0.0
O1030 O 0.77888 0.2233 -0.00138 0.0
O1031 O 0.82935 0.27362 0.00621 0.0
H1032 H 0.83113 0.2277 0.06852 0.0
H1033 H 0.75573 0.21054 0.05546 0.0
H1034 H 0.81485 0.19589 0.09714 0.0
H1035 H 0.74079 0.17911 0.08437 0.0
H1036 H 0.89519 0.24049 0.96983 0.0
H1037 H 0.80876 0.17851 0.99041 0.0
H1038 H 0.8735 0.25194 -0.00318 0.0
H1039 H 0.83155 0.16841 0.96346 0.0
H1040 H 0.78401 0.12917 0.03321 0.0
H1041 H 0.71662 0.13054 0.01697 0.0
H1042 H 0.89636 0.31687 0.07391 0.0
H1043 H 0.91182 0.25805 0.05661 0.0
H1044 H 0.7791 0.24388 0.96161 0.0
H1045 H 0.73641 0.21131 0.0184 0.0
H1046 H 0.74472 0.24978 0.94819 0.0
H1047 H 0.70279 0.21779 0.00392 0.0
H1048 H 0.8151 0.28877 0.97238 0.0
H1049 H 0.87882 0.29579 0.00625 0.0
H1050 H 0.84395 0.31977 0.94628 0.0
H1051 H 0.90655 0.32646 0.97941 0.0
H1052 H 0.73849 0.26956 0.06137 0.0
H1053 H 0.75335 0.29989 -0.00217 0.0
H1054 H 0.78788 0.18728 0.92995 0.0
H1055 H 0.85888 0.25482 0.92073 0.0
C1056 C 0.28121 0.55996 0.32564 0.0
C1057 C 0.27231 0.55405 0.30476 0.0
C1058 C 0.30168 0.58336 0.33046 0.0
C1059 C 0.3571 0.63503 0.30511 0.0
H1060 H 0.36371 0.66886 0.35846 0.0
C1061 C 0.44491 0.72859 0.32425 0.0
C1062 C 0.45569 0.73017 0.34419 0.0
C1063 C 0.42081 0.70921 0.31972 0.0
C1064 C 0.36213 0.65956 0.34354 0.0
H1065 H 0.27714 0.56832 0.27275 0.0
H1066 H 0.31274 0.60941 0.28119 0.0
H1067 H 0.32423 0.63123 0.34968 0.0
H1068 H 0.44928 0.71324 0.37531 0.0
H1069 H 0.40705 0.67925 0.36739 0.0
H1070 H 0.39501 0.66307 0.29906 0.0
C1071 C 0.3042 0.59577 0.29377 0.0
C1072 C 0.33956 0.63802 0.33851 0.0
C1073 C 0.28379 0.5723 0.28892 0.0
C1074 C 0.44141 0.71259 0.35984 0.0
C1075 C 0.41723 0.69315 0.35531 0.0
C1076 C 0.37957 0.65657 0.3101 0.0
C1077 C 0.31367 0.60142 0.31453 0.0
C1078 C 0.33688 0.62535 0.31932 0.0
C1079 C 0.40691 0.69097 0.33504 0.0
C1080 C 0.38243 0.66894 0.32944 0.0
H1081 H 0.273 0.54613 0.33812 0.0
H1082 H 0.3087 0.58691 0.34653 0.0
H1083 H 0.35589 0.6255 0.2904 0.0
H1084 H 0.45525 0.7422 0.31201 0.0
H1085 H 0.41317 0.70831 0.3041 0.0
C1086 C 0.7595 0.28907 0.67743 0.0
C1087 C 0.74062 0.26675 0.66838 0.0
C1088 C 0.75502 0.30851 0.68232 0.0
C1089 C 0.716 0.33501 0.66736 0.0
H1090 H 0.74139 0.37264 0.71943 0.0
C1091 C 0.70608 0.42123 0.68544 0.0
C1092 C 0.72783 0.44223 0.6931 0.0
C1093 C 0.7044 0.3978 0.68475 0.0
C1094 C 0.73428 0.36239 0.70478 0.0
H1095 H 0.70203 0.24726 0.65769 0.0
H1096 H 0.69437 0.28154 0.66593 0.0
H1097 H 0.74464 0.33529 0.7136 0.0
H1098 H 0.76478 0.45509 0.70618 0.0
H1099 H 0.76194 0.41439 0.70487 0.0
H1100 H 0.7064 0.36252 0.65819 0.0
C1101 C 0.71266 0.2839 0.66914 0.0
C1102 C 0.73612 0.34101 0.70146 0.0
C1103 C 0.7171 0.26434 0.66436 0.0
C1104 C 0.74759 0.4392 0.70054 0.0
C1105 C 0.74595 0.41583 0.69979 0.0
C1106 C 0.71427 0.35648 0.67063 0.0
C1107 C 0.7316 0.30618 0.67816 0.0
C1108 C 0.72743 0.32738 0.68255 0.0
C1109 C 0.72448 0.39492 0.69163 0.0
C1110 C 0.72383 0.37068 0.6892 0.0
H1111 H 0.77798 0.29177 0.68035 0.0
H1112 H 0.77012 0.32566 0.68889 0.0
H1113 H 0.70936 0.325 0.65254 0.0
H1114 H 0.69044 0.42297 0.67982 0.0
H1115 H 0.68748 0.38198 0.67864 0.0
C1116 C 0.42617 0.68779 0.99261 0.0
C1117 C 0.44007 0.70093 0.97473 0.0
C1118 C 0.40131 0.68186 -0.00516 0.0
C1119 C 0.34763 0.68004 0.96625 0.0
H1120 H 0.33222 0.69591 0.0216 0.0
C1121 C 0.27337 0.70865 0.98066 0.0
C1122 C 0.2594 0.7011 -0.00049 0.0
C1123 C 0.2921 0.70276 0.97693 0.0
C1124 C 0.33597 0.69089 0.00616 0.0
H1125 H 0.43864 0.71738 0.94483 0.0
H1126 H 0.39538 0.70743 0.94884 0.0
H1127 H 0.37124 0.69605 0.01625 0.0
H1128 H 0.25326 0.68027 0.02868 0.0
H1129 H 0.28621 0.67016 0.02223 0.0
H1130 H 0.31267 0.67594 0.95604 0.0
C1131 C 0.40348 0.70127 0.96098 0.0
C1132 C 0.35837 0.69095 0.00308 0.0
C1133 C 0.4283 0.70704 0.95869 0.0
C1134 C 0.26396 0.68669 0.01417 0.0
C1135 C 0.28277 0.68086 0.01046 0.0
C1136 C 0.32524 0.68009 0.96933 0.0
C1137 C 0.38987 0.68911 0.97932 0.0
C1138 C 0.36471 0.68602 0.983 0.0
C1139 C 0.29737 0.68927 0.99199 0.0
C1140 C 0.31942 0.68601 0.98922 0.0
H1141 H 0.43469 0.68248 0.00506 0.0
H1142 H 0.3912 0.67205 0.00896 0.0
H1143 H 0.35177 0.67577 0.95067 0.0
H1144 H 0.27064 0.72012 0.96919 0.0
H1145 H 0.30327 0.70984 0.9627 0.0
C1146 C 0.54244 0.27547 0.30496 0.0
C1147 C 0.53964 0.25503 0.31703 0.0
C1148 C 0.5661 0.29591 0.30102 0.0
C1149 C 0.62834 0.33068 0.3233 0.0
H1150 H 0.64659 0.36098 0.26758 0.0
C1151 C 0.72142 0.42208 0.30929 0.0
C1152 C 0.72014 0.43999 0.29643 0.0
C1153 C 0.70137 0.39755 0.31017 0.0
C1154 C 0.64173 0.35286 0.28327 0.0
H1155 H 0.55981 0.24008 0.33412 0.0
H1156 H 0.60122 0.27636 0.32773 0.0
H1157 H 0.60757 0.32149 0.27231 0.0
H1158 H 0.69712 0.44629 0.27422 0.0
H1159 H 0.6619 0.4037 0.27606 0.0
H1160 H 0.66178 0.36248 0.33454 0.0
C1161 C 0.58492 0.27628 0.32129 0.0
C1162 C 0.61945 0.33021 0.28593 0.0
C1163 C 0.5612 0.25561 0.32503 0.0
C1164 C 0.69871 0.43277 0.28407 0.0
C1165 C 0.67857 0.40832 0.2851 0.0
C1166 C 0.6505 0.35347 0.3207 0.0
C1167 C 0.58754 0.29661 0.30926 0.0
C1168 C 0.61236 0.31913 0.30603 0.0
C1169 C 0.67951 0.39047 0.29836 0.0
C1170 C 0.65725 0.36507 0.30071 0.0
H1171 H 0.52631 0.27604 0.29897 0.0
H1172 H 0.56757 0.31156 0.29203 0.0
H1173 H 0.62317 0.32265 0.33901 0.0
H1174 H 0.73789 0.42711 0.31878 0.0
H1175 H 0.70293 0.38419 0.32025 0.0
C1176 C 0.28899 0.7314 0.65837 0.0
C1177 C 0.2669 0.73092 0.66461 0.0
C1178 C 0.2933 0.712 0.66417 0.0
C1179 C 0.27367 0.66058 0.70291 0.0
H1180 H 0.29855 0.63229 0.66128 0.0
C1181 C 0.26421 0.56337 0.712 0.0
C1182 C 0.28339 0.55964 0.70414 0.0
C1183 C 0.2652 0.58629 0.70916 0.0
C1184 C 0.29202 0.64026 0.67322 0.0
H1185 H 0.2317 0.70932 0.68127 0.0
H1186 H 0.23923 0.67558 0.69136 0.0
H1187 H 0.29434 0.66835 0.65192 0.0
H1188 H 0.31929 0.57746 0.68819 0.0
H1189 H 0.32109 0.61761 0.68333 0.0
H1190 H 0.27094 0.63223 0.7241 0.0
C1191 C 0.25345 0.69118 0.68237 0.0
C1192 C 0.28957 0.66089 0.66783 0.0
C1193 C 0.24913 0.71051 0.67656 0.0
C1194 C 0.30409 0.57968 0.69418 0.0
C1195 C 0.30508 0.60263 0.69135 0.0
C1196 C 0.27615 0.63997 0.70831 0.0
C1197 C 0.27563 0.69175 0.67634 0.0
C1198 C 0.27998 0.67102 0.68251 0.0
C1199 C 0.28539 0.60601 0.69842 0.0
C1200 C 0.28499 0.62933 0.69342 0.0
H1201 H 0.30317 0.74701 0.64938 0.0
H1202 H 0.31066 0.71305 0.65943 0.0
H1203 H 0.26666 0.66827 0.7147 0.0
H1204 H 0.2478 0.54818 0.71941 0.0
H1205 H 0.24956 0.58814 0.71454 0.0
C1206 C 0.72359 0.31227 0.02223 0.0
C1207 C 0.72212 0.29092 0.03172 0.0
C1208 C 0.70275 0.31553 0.02188 0.0
C1209 C 0.64072 0.2937 0.04622 0.0
H1210 H 0.62238 0.30698 0.99102 0.0
C1211 C 0.53984 0.26631 0.02542 0.0
C1212 C 0.53538 0.28177 0.01193 0.0
C1213 C 0.56419 0.27151 0.02945 0.0
C1214 C 0.62742 0.30375 0.00665 0.0
H1215 H 0.69757 0.25652 0.0486 0.0
H1216 H 0.66159 0.26248 0.04832 0.0
H1217 H 0.66272 0.30942 -0.00422 0.0
H1218 H 0.55305 0.31515 0.99242 0.0
H1219 H 0.59576 0.32433 -0.00048 0.0
H1220 H 0.60525 0.28754 0.05702 0.0
C1221 C 0.6789 0.27681 0.04133 0.0
C1222 C 0.65055 0.30514 0.00936 0.0
C1223 C 0.69962 0.27344 0.04154 0.0
C1224 C 0.55589 0.30275 0.00272 0.0
C1225 C 0.58033 0.308 0.00679 0.0
C1226 C 0.61766 0.29243 0.04354 0.0
C1227 C 0.68009 0.29763 0.03116 0.0
C1228 C 0.65716 0.29953 0.02905 0.0
C1229 C 0.58474 0.29234 0.02012 0.0
C1230 C 0.61046 0.29679 0.02359 0.0
H1231 H 0.74073 0.32628 0.01479 0.0
H1232 H 0.70426 0.3319 0.01412 0.0
H1233 H 0.6455 0.28966 0.06165 0.0
H1234 H 0.52445 0.24971 0.03244 0.0
H1235 H 0.56684 0.25872 0.03941 0.0
C1236 C 0.23743 0.31924 0.29786 0.0
C1237 C 0.25251 0.34442 0.29195 0.0
C1238 C 0.24827 0.30505 0.30402 0.0
C1239 C 0.30792 0.31307 0.32476 0.0
H1240 H 0.27689 0.242 0.3131 0.0
C1241 C 0.3556 0.25454 0.34114 0.0
C1242 C 0.34082 0.23076 0.35032 0.0
C1243 C 0.34488 0.26872 0.3347 0.0
C1244 C 0.28561 0.26179 0.31664 0.0
H1245 H 0.29062 0.37418 0.28676 0.0
H1246 H 0.30961 0.34924 0.29689 0.0
H1247 H 0.25841 0.26577 0.29871 0.0
H1248 H 0.30326 0.2037 0.36059 0.0
H1249 H 0.28448 0.22838 0.34897 0.0
H1250 H 0.33537 0.30906 0.34237 0.0
C1251 C 0.28944 0.34061 0.2974 0.0
C1252 C 0.27504 0.27543 0.30841 0.0
C1253 C 0.27859 0.35485 0.29144 0.0
C1254 C 0.31513 0.22178 0.35333 0.0
C1255 C 0.30436 0.23588 0.34669 0.0
C1256 C 0.31861 0.29947 0.33281 0.0
C1257 C 0.27444 0.3157 0.30423 0.0
C1258 C 0.28604 0.30124 0.3124 0.0
C1259 C 0.31909 0.25935 0.33707 0.0
C1260 C 0.30752 0.2737 0.32888 0.0
H1261 H 0.21728 0.31083 0.2987 0.0
H1262 H 0.23614 0.28605 0.30942 0.0
H1263 H 0.31662 0.33279 0.32855 0.0
H1264 H 0.37532 0.26185 0.33812 0.0
H1265 H 0.35662 0.28664 0.32712 0.0
C1266 C 0.91926 0.25198 0.64689 0.0
C1267 C 0.90875 0.22637 0.64244 0.0
C1268 C 0.9433 0.26559 0.65535 0.0
C1269 C 0.99086 0.2572 0.68436 0.0
H1270 H 0.03392 0.32688 0.66911 0.0
C1271 C 0.09653 0.31724 0.70528 0.0
C1272 C 0.10523 0.34225 0.71118 0.0
C1273 C 0.07165 0.30182 0.69909 0.0
C1274 C 0.02197 0.30751 0.67371 0.0
H1275 H 0.9154 0.19507 0.64268 0.0
H1276 H 0.95781 0.21903 0.65687 0.0
H1277 H 0.99336 0.30278 0.65207 0.0
H1278 H 0.09409 0.36994 0.71701 0.0
H1279 H 0.05076 0.34308 0.70595 0.0
H1280 H 0.02006 0.26201 0.70562 0.0
C1281 C 0.94723 0.22847 0.65435 0.0
C1282 C -0.0013 0.29367 0.66394 0.0
C1283 C 0.92304 0.21478 0.64607 0.0
C1284 C 0.08809 0.35092 0.71216 0.0
C1285 C 0.06331 0.33558 0.70582 0.0
C1286 C 0.01432 0.27102 0.69396 0.0
C1287 C 0.95753 0.25398 0.65938 0.0
C1288 C 0.98274 0.26838 0.66924 0.0
C1289 C 0.05508 0.31117 0.69857 0.0
C1290 C 0.03 0.29637 0.68884 0.0
H1291 H 0.90849 0.26129 0.64466 0.0
H1292 H 0.95038 0.28505 0.65936 0.0
H1293 H 0.97893 0.23789 0.68908 0.0
H1294 H 0.10928 0.31004 0.70411 0.0
H1295 H 0.06579 0.28308 0.69352 0.0
C1296 C 0.72035 0.08997 0.00132 0.0
C1297 C 0.73565 0.0989 0.01938 0.0
C1298 C 0.70905 0.06482 -0.00439 0.0
C1299 C 0.71449 0.00851 0.00182 0.0
H1300 H 0.64625 0.97474 0.98095 0.0
C1301 C 0.66963 0.9117 0.9611 0.0
C1302 C 0.64488 0.89433 0.96683 0.0
C1303 C 0.68063 0.93667 0.96757 0.0
C1304 C 0.66526 0.98383 0.98686 0.0
H1305 H 0.75098 0.08827 0.04565 0.0
H1306 H 0.73112 0.04408 0.03562 0.0
H1307 H 0.66517 0.0178 0.99335 0.0
H1308 H 0.61239 0.88952 0.9841 0.0
H1309 H 0.63146 0.93301 -0.0048 0.0
H1310 H 0.71442 0.97436 -0.00444 0.0
C1311 C 0.72808 0.05674 0.02584 0.0
C1312 C 0.67618 0.00858 0.99379 0.0
C1313 C 0.7394 0.082 0.0316 0.0
C1314 C 0.63129 0.90254 0.97897 0.0
C1315 C 0.64226 0.92746 0.98542 0.0
C1316 C 0.70357 0.98373 -0.00516 0.0
C1317 C 0.71279 0.0479 0.00775 0.0
C1318 C 0.70095 0.02125 0.00125 0.0
C1319 C 0.6671 0.94478 0.97992 0.0
C1320 C 0.67884 0.97114 0.98724 0.0
H1321 H 0.71759 0.10256 0.99119 0.0
H1322 H 0.69782 0.05874 0.98135 0.0
H1323 H 0.73369 0.01783 0.00729 0.0
H1324 H 0.68052 0.90597 0.95163 0.0
H1325 H 0.69969 0.94965 0.96282 0.0
C1326 C 0.69677 0.78479 0.36381 0.0
C1327 C 0.67216 0.77282 0.37173 0.0
C1328 C 0.70825 0.77096 0.35858 0.0
C1329 C 0.70756 0.71205 0.36672 0.0
H1330 H 0.73079 0.72058 0.30865 0.0
C1331 C 0.73592 0.64493 0.32942 0.0
C1332 C 0.75617 0.6549 0.31531 0.0
C1333 C 0.72576 0.65942 0.33636 0.0
C1334 C 0.72483 0.71821 0.325 0.0
H1335 H 0.64095 0.73699 0.3815 0.0
H1336 H 0.66147 0.71302 0.37305 0.0
H1337 H 0.71449 0.74648 0.32241 0.0
H1338 H 0.78168 0.68763 0.29722 0.0
H1339 H 0.76455 0.71339 0.3098 0.0
H1340 H 0.7184 0.68429 0.36963 0.0
C1341 C 0.67166 0.73311 0.37071 0.0
C1342 C 0.71542 0.73302 0.33284 0.0
C1343 C 0.65999 0.7469 0.37567 0.0
C1344 C 0.76585 0.67948 0.30792 0.0
C1345 C 0.75597 0.69416 0.31513 0.0
C1346 C 0.71736 0.69751 0.359 0.0
C1347 C 0.69557 0.74493 0.36152 0.0
C1348 C 0.70657 0.72996 0.35371 0.0
C1349 C 0.73594 0.6844 0.32963 0.0
C1350 C 0.72593 0.70024 0.33797 0.0
H1351 H 0.70693 0.80481 0.36105 0.0
H1352 H 0.72688 0.78053 0.35183 0.0
H1353 H 0.70099 0.70949 0.38292 0.0
H1354 H 0.72804 0.62591 0.3352 0.0
H1355 H 0.70995 0.65099 0.34705 0.0
C1356 C 0.09183 0.79566 0.64021 0.0
C1357 C 0.10547 0.78302 0.64024 0.0
C1358 C 0.06678 0.78338 0.64657 0.0
C1359 C 0.02094 0.72924 0.67795 0.0
H1360 H 0.9715 0.73575 0.64502 0.0
C1361 C 0.9162 0.67843 0.70113 0.0
C1362 C 0.89983 0.66552 0.68438 0.0
C1363 C 0.94142 0.69562 0.69708 0.0
C1364 C 0.98512 0.7338 0.65441 0.0
H1365 H 0.10362 0.74768 0.64711 0.0
H1366 H 0.05985 0.72613 0.65776 0.0
H1367 H 0.01553 0.75969 0.63496 0.0
H1368 H 0.89659 0.66135 0.65026 0.0
H1369 H 0.94041 0.69098 0.64324 0.0
H1370 H 0.99044 0.7027 0.69695 0.0
C1371 C 0.06854 0.74559 0.65301 0.0
C1372 C 0.01034 0.74766 0.64875 0.0
C1373 C 0.09351 0.75781 0.64659 0.0
C1374 C 0.90889 0.67072 0.66352 0.0
C1375 C 0.93393 0.68795 0.65947 0.0
C1376 C 0.99574 0.71545 0.68365 0.0
C1377 C 0.05495 0.75827 0.65323 0.0
C1378 C 0.02845 0.74514 0.66021 0.0
C1379 C 0.95055 0.70039 0.67619 0.0
C1380 C 0.9775 0.71721 0.67168 0.0
H1381 H 0.10056 0.81508 0.63534 0.0
H1382 H 0.0568 0.79366 0.64665 0.0
H1383 H 0.03454 0.7272 0.68728 0.0
H1384 H 0.90966 0.67478 0.71735 0.0
H1385 H 0.95379 0.70509 0.71027 0.0
C1386 C 0.31506 0.07877 0.00025 0.0
C1387 C 0.34086 0.09614 0.00048 0.0
C1388 C 0.30579 0.05507 0.00925 0.0
C1389 C 0.32355 0.00876 0.02481 0.0
H1390 H 0.26386 0.98198 0.05958 0.0
C1391 C 0.28194 0.91101 0.0619 0.0
C1392 C 0.25603 0.89558 0.059 0.0
C1393 C 0.29336 0.93685 0.05869 0.0
C1394 C 0.28049 0.98914 0.04985 0.0
H1395 H 0.37713 0.10212 0.01031 0.0
H1396 H 0.36092 0.06053 0.02566 0.0
H1397 H 0.28169 0.02406 0.04484 0.0
H1398 H 0.22163 0.89534 0.05149 0.0
H1399 H 0.24142 0.94019 0.04586 0.0
H1400 H 0.322 0.97366 0.02921 0.0
C1401 C 0.34793 0.06527 0.01841 0.0
C1402 C 0.29066 0.01322 0.04138 0.0
C1403 C 0.35721 0.08903 0.0095 0.0
C1404 C 0.24158 0.90672 0.05418 0.0
C1405 C 0.25298 0.93251 0.05089 0.0
C1406 C 0.31331 0.98463 0.03317 0.0
C1407 C 0.32209 0.04815 0.01861 0.0
C1408 C 0.31209 0.02313 0.02852 0.0
C1409 C 0.2791 0.94777 0.05242 0.0
C1410 C 0.29144 0.97439 0.04556 0.0
H1411 H 0.302 0.08353 0.99317 0.0
H1412 H 0.28582 0.04209 0.00881 0.0
H1413 H 0.33995 0.01581 0.01481 0.0
H1414 H 0.29352 0.90296 0.06583 0.0
H1415 H 0.31346 0.94816 0.06044 0.0
C1416 C 0.94493 0.32669 0.08263 0.0
C1417 C 0.92979 0.30052 0.08098 0.0
C1418 C 0.96549 0.33726 0.09629 0.0
C1419 C 0.00928 0.32364 0.12467 0.0
H1420 H 0.01609 0.37523 0.16361 0.0
C1421 C 0.07195 0.35018 0.19833 0.0
C1422 C 0.08506 0.37536 0.20473 0.0
C1423 C 0.0546 0.34253 0.18188 0.0
C1424 C 0.01475 0.36116 0.15262 0.0
H1425 H 0.92445 0.26502 0.09256 0.0
H1426 H 0.96055 0.2835 0.11601 0.0
H1427 H 0.98313 0.35935 0.13693 0.0
H1428 H 0.09027 0.41231 0.19873 0.0
H1429 H 0.06046 0.39906 0.16957 0.0
H1430 H 0.04083 0.32537 0.14027 0.0
C1431 C 0.95659 0.29579 0.10658 0.0
C1432 C 0.99584 0.35204 0.13737 0.0
C1433 C 0.93594 0.28522 0.09309 0.0
C1434 C 0.08064 0.3928 0.19408 0.0
C1435 C 0.06334 0.38516 0.17752 0.0
C1436 C 0.02831 0.33288 0.1398 0.0
C1437 C 0.97147 0.3219 0.10843 0.0
C1438 C 0.99269 0.33292 0.12348 0.0
C1439 C 0.05004 0.3599 0.17129 0.0
C1440 C 0.03101 0.35145 0.15419 0.0
H1441 H 0.941 0.33904 0.07329 0.0
H1442 H 0.97681 0.35746 0.09727 0.0
H1443 H 0.00749 0.30916 0.11394 0.0
H1444 H 0.07516 0.33631 0.20597 0.0
H1445 H 0.04446 0.32287 0.1777 0.0
C1446 C 0.69266 0.09345 0.5239 0.0
C1447 C 0.68427 0.09268 0.54468 0.0
C1448 C 0.67673 0.07651 0.50877 0.0
C1449 C 0.62396 0.01301 0.50617 0.0
H1450 H 0.62785 0.02741 0.44611 0.0
C1451 C 0.58341 0.93363 0.44494 0.0
C1452 C 0.60081 0.93668 0.42923 0.0
C1453 C 0.58741 0.95389 0.45759 0.0
C1454 C 0.62646 0.02312 0.46285 0.0
H1455 H 0.65225 0.07433 0.56566 0.0
H1456 H 0.62433 0.04489 0.53912 0.0
H1457 H 0.64644 0.06189 0.47145 0.0
H1458 H 0.63502 0.96352 0.41343 0.0
H1459 H 0.64226 0.99865 0.43566 0.0
H1460 H 0.60514 0.97434 0.49761 0.0
C1461 C 0.6433 0.05848 0.53461 0.0
C1462 C 0.6371 0.04283 0.47733 0.0
C1463 C 0.65923 0.07547 0.54974 0.0
C1464 C 0.62153 0.96056 0.42567 0.0
C1465 C 0.62547 0.98076 0.43821 0.0
C1466 C 0.61336 0.99332 0.4917 0.0
C1467 C 0.65207 0.05842 0.51412 0.0
C1468 C 0.63674 0.03796 0.49909 0.0
C1469 C 0.60878 0.97755 0.45463 0.0
C1470 C 0.61532 0.99818 0.46986 0.0
H1471 H 0.71177 0.10674 0.51947 0.0
H1472 H 0.68416 0.0768 0.49318 0.0
H1473 H 0.62358 0.00862 0.52281 0.0
H1474 H 0.56727 0.9154 0.448 0.0
H1475 H 0.57414 0.95091 0.47004 0.0
C1476 C 0.64077 0.68304 0.89707 0.0
C1477 C 0.61724 0.68127 0.89606 0.0
C1478 C 0.64783 0.67151 0.88173 0.0
C1479 C 0.63326 0.64869 0.82679 0.0
H1480 H 0.67655 0.62164 0.8395 0.0
C1481 C 0.66627 0.60426 0.76325 0.0
C1482 C 0.69213 0.61319 0.76319 0.0
C1483 C 0.65526 0.60997 0.78002 0.0
C1484 C 0.66449 0.62918 0.83576 0.0
H1485 H 0.58211 0.66509 0.87901 0.0
H1486 H 0.59417 0.64445 0.85244 0.0
H1487 H 0.66002 0.63539 0.86835 0.0
H1488 H 0.72667 0.63451 0.78074 0.0
H1489 H 0.70743 0.64453 0.81002 0.0
H1490 H 0.63783 0.64249 0.79419 0.0
C1491 C 0.60747 0.65529 0.86471 0.0
C1492 C 0.65508 0.63712 0.85224 0.0
C1493 C 0.60052 0.66702 0.87993 0.0
C1494 C 0.70673 0.62765 0.78029 0.0
C1495 C 0.6957 0.63313 0.79713 0.0
C1496 C 0.64249 0.64055 0.81034 0.0
C1497 C 0.63138 0.65779 0.86519 0.0
C1498 C 0.63968 0.64735 0.84792 0.0
C1499 C 0.66989 0.62442 0.79712 0.0
C1500 C 0.65851 0.63111 0.81466 0.0
H1501 H 0.65408 0.69412 0.90926 0.0
H1502 H 0.66652 0.67414 0.88242 0.0
H1503 H 0.62179 0.65685 0.82285 0.0
H1504 H 0.65463 0.59312 0.75021 0.0
H1505 H 0.63529 0.60296 0.7797 0.0
C1506 C 0.0629 0.67171 0.09608 0.0
C1507 C 0.06156 0.68496 0.07849 0.0
C1508 C 0.04258 0.65935 0.10976 0.0
C1509 C 0.97467 0.63703 0.11557 0.0
H1510 H 0.99088 0.64408 0.17538 0.0
C1511 C 0.90384 0.62017 0.18248 0.0
C1512 C 0.90475 0.60729 0.2005 0.0
C1513 C 0.92165 0.62686 0.16645 0.0
C1514 C 0.98606 0.64167 0.15873 0.0
H1515 H 0.03731 0.69465 0.06103 0.0
H1516 H 0.00222 0.67395 0.08539 0.0
H1517 H 0.02442 0.66082 0.14943 0.0
H1518 H 0.92477 0.59103 0.21577 0.0
H1519 H 0.95586 0.60271 0.18777 0.0
H1520 H 0.93619 0.61853 0.12514 0.0
C1521 C 0.01886 0.67278 0.08843 0.0
C1522 C 0.00527 0.65119 0.14383 0.0
C1523 C 0.03913 0.68496 0.07461 0.0
C1524 C 0.92349 0.60078 0.20199 0.0
C1525 C 0.94139 0.60763 0.18606 0.0
C1526 C 0.95542 0.62767 0.13054 0.0
C1527 C 0.0205 0.66016 0.10636 0.0
C1528 C -0.00016 0.64906 0.12206 0.0
C1529 C 0.94082 0.62099 0.16827 0.0
C1530 C 0.96097 0.62997 0.15226 0.0
H1531 H 0.07992 0.6715 0.09974 0.0
H1532 H 0.04433 0.64944 0.1232 0.0
H1533 H 0.96983 0.63477 0.09893 0.0
H1534 H 0.88946 0.62522 0.18086 0.0
H1535 H 0.92088 0.6373 0.15296 0.0
C1536 C 0.38536 0.02899 0.40879 0.0
C1537 C 0.39177 0.05323 0.41542 0.0
C1538 C 0.38305 0.01102 0.42353 0.0
C1539 C 0.39591 0.00311 0.47998 0.0
H1540 H 0.33551 0.93852 0.47441 0.0
C1541 C 0.33804 0.94309 0.54963 0.0
C1542 C 0.32754 0.91703 0.54867 0.0
C1543 C 0.35171 0.95807 0.53261 0.0
C1544 C 0.35274 0.95625 0.47599 0.0
H1545 H 0.40225 0.078 0.44255 0.0
H1546 H 0.39724 0.0466 0.46821 0.0
H1547 H 0.34884 0.9682 0.44521 0.0
H1548 H 0.32358 0.88607 0.52967 0.0
H1549 H 0.34713 0.91239 0.4994 0.0
H1550 H 0.39867 0.99162 0.5114 0.0
C1551 C 0.39433 0.04142 0.45165 0.0
C1552 C 0.36044 0.97329 0.45924 0.0
C1553 C 0.39677 0.05936 0.43695 0.0
C1554 C 0.33163 0.90618 0.53071 0.0
C1555 C 0.34497 0.92116 0.51346 0.0
C1556 C 0.38803 0.98618 0.49681 0.0
C1557 C 0.38706 0.0169 0.44519 0.0
C1558 C 0.38162 0.99727 0.46132 0.0
C1559 C 0.35481 0.9472 0.51418 0.0
C1560 C 0.36594 0.96293 0.49519 0.0
H1561 H 0.38133 0.02364 0.39232 0.0
H1562 H 0.3777 0.9924 0.41798 0.0
H1563 H 0.41266 0.02117 0.48192 0.0
H1564 H 0.33515 0.95181 0.56339 0.0
H1565 H 0.35882 0.97805 0.53348 0.0
C1566 C 0.37175 0.28007 0.86715 0.0
C1567 C 0.38654 0.29441 0.88426 0.0
C1568 C 0.36753 0.29153 0.84983 0.0
C1569 C 0.36929 0.35069 0.83531 0.0
H1570 H 0.35399 0.32036 0.77957 0.0
C1571 C 0.34351 0.39224 0.76396 0.0
C1572 C 0.31971 0.37554 0.75558 0.0
C1573 C 0.35528 0.38377 0.77787 0.0
C1574 C 0.35836 0.32905 0.79505 0.0
H1575 H 0.40941 0.33238 0.89594 0.0
H1576 H 0.40333 0.35239 0.86525 0.0
H1577 H 0.36938 0.30362 0.80703 0.0
H1578 H 0.29002 0.33657 0.75518 0.0
H1579 H 0.31114 0.32181 0.77867 0.0
H1580 H 0.35852 0.37631 0.82304 0.0
C1581 C 0.39419 0.33215 0.86555 0.0
C1582 C 0.36699 0.31939 0.81085 0.0
C1583 C 0.39804 0.32065 0.88306 0.0
C1584 C 0.30849 0.34998 0.76089 0.0
C1585 C 0.3205 0.34147 0.77445 0.0
C1586 C 0.36116 0.36063 0.81938 0.0
C1587 C 0.37839 0.31772 0.84892 0.0
C1588 C 0.37199 0.3297 0.83137 0.0
C1589 C 0.34377 0.35835 0.78332 0.0
C1590 C 0.35512 0.34956 0.79928 0.0
H1591 H 0.36304 0.25986 0.8672 0.0
H1592 H 0.35503 0.27967 0.83752 0.0
H1593 H 0.37247 0.35892 0.85093 0.0
H1594 H 0.35305 0.41193 0.75991 0.0
H1595 H 0.37333 0.39708 0.78445 0.0
C1596 C 0.13891 0.36916 0.41973 0.0
C1597 C 0.14776 0.3917 0.40856 0.0
C1598 C 0.14405 0.36942 0.44127 0.0
C1599 C 0.17114 0.41152 0.48821 0.0
H1600 H 0.19079 0.36304 0.50415 0.0
C1601 C 0.23019 0.42243 0.56237 0.0
C1602 C 0.21982 0.40166 0.57598 0.0
C1603 C 0.22044 0.42042 0.54205 0.0
C1604 C 0.18522 0.37658 0.49992 0.0
H1605 H 0.16789 0.43211 0.41114 0.0
H1606 H 0.17749 0.43273 0.44853 0.0
H1607 H 0.17313 0.36076 0.4692 0.0
H1608 H 0.19206 0.36236 0.57897 0.0
H1609 H 0.17545 0.35866 0.54313 0.0
H1610 H 0.1843 0.42784 0.51879 0.0
C1611 C 0.16605 0.41477 0.44097 0.0
C1612 C 0.17487 0.37518 0.47998 0.0
C1613 C 0.16055 0.41447 0.4195 0.0
C1614 C 0.20034 0.3786 0.56868 0.0
C1615 C 0.19088 0.37649 0.54825 0.0
C1616 C 0.18186 0.41313 0.50803 0.0
C1617 C 0.15858 0.39226 0.45196 0.0
C1618 C 0.16779 0.3927 0.47381 0.0
C1619 C 0.20047 0.39752 0.53495 0.0
C1620 C 0.18911 0.39575 0.51399 0.0
H1621 H 0.12892 0.35137 0.41157 0.0
H1622 H 0.1374 0.35172 0.44935 0.0
H1623 H 0.16554 0.42507 0.48418 0.0
H1624 H 0.24505 0.44044 0.56778 0.0
H1625 H 0.22827 0.43683 0.53197 0.0
C1626 C 0.8243 0.22227 0.88334 0.0
C1627 C 0.82539 0.21037 0.90184 0.0
C1628 C 0.82127 0.21064 0.86373 0.0
C1629 C 0.82111 0.18595 0.82258 0.0
H1630 H 0.77412 0.11441 0.82256 0.0
C1631 C 0.75781 0.13238 0.75299 0.0
C1632 C 0.7647 0.11655 0.74268 0.0
C1633 C 0.76705 0.14171 0.77306 0.0
C1634 C 0.78752 0.1343 0.82244 0.0
H1635 H 0.82598 0.17814 0.91465 0.0
H1636 H 0.82186 0.15825 0.88034 0.0
H1637 H 0.78915 0.13651 0.85615 0.0
H1638 H 0.78559 0.09706 0.74568 0.0
H1639 H 0.80118 0.11292 0.78148 0.0
H1640 H 0.81792 0.18372 0.78877 0.0
C1641 C 0.82243 0.17607 0.88086 0.0
C1642 C 0.79629 0.14701 0.84161 0.0
C1643 C 0.82504 0.18751 0.90046 0.0
C1644 C 0.77987 0.10907 0.75338 0.0
C1645 C 0.78882 0.11815 0.77371 0.0
C1646 C 0.81201 0.17329 0.80347 0.0
C1647 C 0.81962 0.18705 0.86231 0.0
C1648 C 0.81282 0.17311 0.84194 0.0
C1649 C 0.78304 0.13512 0.78331 0.0
C1650 C 0.79485 0.14751 0.80333 0.0
H1651 H 0.82429 0.2398 0.88417 0.0
H1652 H 0.81884 0.21956 0.84989 0.0
H1653 H 0.8342 0.20589 0.82217 0.0
H1654 H 0.74666 0.13895 0.74498 0.0
H1655 H 0.76243 0.15479 0.7803 0.0
C1656 C 0.61287 0.86822 0.23373 0.0
C1657 C 0.63195 0.86996 0.24699 0.0
C1658 C 0.61291 0.86331 0.21219 0.0
C1659 C 0.64948 0.85611 0.16858 0.0
H1660 H 0.5841 0.80179 0.15229 0.0
C1661 C 0.59484 0.79219 0.09111 0.0
C1662 C 0.61167 0.78448 0.0845 0.0
C1663 C 0.59874 0.80529 0.10997 0.0
C1664 C 0.60242 0.81715 0.15646 0.0
H1665 H 0.66756 0.87093 0.24757 0.0
H1666 H 0.66717 0.86147 0.21015 0.0
H1667 H 0.58916 0.82254 0.186 0.0
H1668 H 0.646 0.78479 0.09239 0.0
H1669 H 0.65276 0.80771 0.12563 0.0
H1670 H 0.66271 0.85002 0.13905 0.0
C1671 C 0.6522 0.86395 0.21633 0.0
C1672 C 0.60531 0.82919 0.17575 0.0
C1673 C 0.65228 0.86911 0.23785 0.0
C1674 C 0.63271 0.79048 0.09709 0.0
C1675 C 0.63664 0.80368 0.11603 0.0
C1676 C 0.64658 0.84395 0.14922 0.0
C1677 C 0.63188 0.8598 0.2035 0.0
C1678 C 0.62886 0.84876 0.1821 0.0
C1679 C 0.6196 0.8111 0.12267 0.0
C1680 C 0.623 0.8243 0.14303 0.0
H1681 H 0.59689 0.86875 0.24017 0.0
H1682 H 0.59731 0.86086 0.20258 0.0
H1683 H 0.66784 0.87119 0.17298 0.0
H1684 H 0.57887 0.78858 0.08148 0.0
H1685 H 0.58553 0.81117 0.11447 0.0
C1686 C 0.86974 0.63129 0.41783 0.0
C1687 C 0.86175 0.60843 0.40741 0.0
C1688 C 0.86145 0.63167 0.43831 0.0
C1689 C 0.82669 0.5911 0.4843 0.0
H1690 H 0.80562 0.64022 0.49198 0.0
C1691 C 0.76197 0.58327 0.55241 0.0
C1692 C 0.77173 0.60467 0.56524 0.0
C1693 C 0.77217 0.58451 0.53243 0.0
C1694 C 0.81148 0.62646 0.49004 0.0
H1695 H 0.84003 0.56807 0.41058 0.0
H1696 H 0.82535 0.56864 0.44608 0.0
H1697 H 0.82819 0.64126 0.45998 0.0
H1698 H 0.7983 0.64442 0.56684 0.0
H1699 H 0.81575 0.64675 0.53163 0.0
H1700 H 0.80934 0.57597 0.51417 0.0
C1701 C 0.83833 0.58633 0.43874 0.0
C1702 C 0.82464 0.62717 0.47184 0.0
C1703 C 0.84683 0.58597 0.41837 0.0
C1704 C 0.79046 0.62771 0.55715 0.0
C1705 C 0.80043 0.62902 0.53706 0.0
C1706 C 0.81328 0.59022 0.50236 0.0
C1707 C 0.84477 0.60918 0.44865 0.0
C1708 C 0.83236 0.60945 0.46871 0.0
C1709 C 0.79205 0.60723 0.52489 0.0
C1710 C 0.80547 0.60782 0.50534 0.0
H1711 H 0.88133 0.64887 0.40971 0.0
H1712 H 0.8673 0.64959 0.4457 0.0
H1713 H 0.83265 0.5774 0.48258 0.0
H1714 H 0.74773 0.56525 0.55842 0.0
H1715 H 0.76521 0.56752 0.52319 0.0
C1716 C 0.1979 0.81027 0.89484 0.0
C1717 C 0.18695 0.81845 0.90996 0.0
C1718 C 0.20712 0.82343 0.87595 0.0
C1719 C 0.20138 0.86226 0.83722 0.0
H1720 H 0.27171 0.88705 0.82598 0.0
C1721 C 0.26818 0.88462 0.76086 0.0
C1722 C 0.25782 0.8952 0.74745 0.0
C1723 C 0.26247 0.88159 0.78236 0.0
C1724 C 0.25204 0.88019 0.82879 0.0
H1725 H 0.17607 0.84603 0.91703 0.0
H1726 H 0.19143 0.86861 0.88334 0.0
H1727 H 0.2537 0.86693 0.85976 0.0
H1728 H 0.23518 0.91296 0.74631 0.0
H1729 H 0.22573 0.90835 0.78416 0.0
H1730 H 0.19908 0.8738 0.80583 0.0
C1731 C 0.19315 0.85225 0.88637 0.0
C1732 C 0.24181 0.86879 0.84815 0.0
C1733 C 0.18438 0.83937 0.90551 0.0
C1734 C 0.24321 0.90451 0.75629 0.0
C1735 C 0.23767 0.90169 0.77791 0.0
C1736 C 0.21149 0.87325 0.81765 0.0
C1737 C 0.20513 0.8447 0.87173 0.0
C1738 C 0.21631 0.85923 0.85228 0.0
C1739 C 0.24643 0.88929 0.79105 0.0
C1740 C 0.23681 0.88174 0.81298 0.0
H1741 H 0.20038 0.79439 0.89805 0.0
H1742 H 0.21615 0.81722 0.86474 0.0
H1743 H 0.18164 0.85496 0.84015 0.0
H1744 H 0.27917 0.8769 0.75449 0.0
H1745 H 0.2693 0.87162 0.79181 0.0
C1746 C 0.32557 0.13482 0.22689 0.0
C1747 C 0.34878 0.15018 0.23669 0.0
C1748 C 0.31713 0.14435 0.21075 0.0
C1749 C 0.32896 0.20446 0.18642 0.0
H1750 H 0.30519 0.16523 0.13504 0.0
C1751 C 0.34903 0.24505 0.10303 0.0
C1752 C 0.33207 0.23202 0.08662 0.0
C1753 C 0.34345 0.23642 0.12384 0.0
C1754 C 0.31117 0.17625 0.14942 0.0
H1755 H 0.38076 0.18787 0.23786 0.0
H1756 H 0.36661 0.20407 0.20944 0.0
H1757 H 0.31014 0.14611 0.16697 0.0
H1758 H 0.29462 0.20171 0.07964 0.0
H1759 H 0.28511 0.18639 0.11602 0.0
H1760 H 0.3315 0.23507 0.16837 0.0
C1761 C 0.3547 0.18478 0.21426 0.0
C1762 C 0.31405 0.16527 0.16774 0.0
C1763 C 0.36309 0.17531 0.23029 0.0
C1764 C 0.30834 0.21181 0.09186 0.0
C1765 C 0.30285 0.20304 0.11267 0.0
C1766 C 0.32624 0.21548 0.16805 0.0
C1767 C 0.33166 0.16946 0.20424 0.0
C1768 C 0.32393 0.17954 0.18621 0.0
C1769 C 0.32086 0.21454 0.12865 0.0
C1770 C 0.3182 0.20174 0.14916 0.0
H1771 H 0.31407 0.11542 0.23156 0.0
H1772 H 0.29923 0.13209 0.20339 0.0
H1773 H 0.33603 0.21578 0.20056 0.0
H1774 H 0.36754 0.26055 0.09962 0.0
H1775 H 0.35779 0.24563 0.13579 0.0
loop_
_geom_bond_atom_site_label_1
_geom_bond_atom_site_label_2
_geom_bond_distance
_geom_bond_site_symmetry_2
_ccdc_geom_bond_type
Li0 N17 1.990 . S
Li0 O60 1.956 . S
Li0 O61 1.970 . S
Li0 O62 1.961 . S
Li1 N25 1.990 . S
Li1 O60 1.970 . S
Li1 O61 1.956 . S
Li1 O63 1.961 . S
Li2 N47 1.990 . S
Li2 O60 1.961 . S
Li2 O62 1.956 . S
Li2 O63 1.970 . S
Li3 N53 1.990 . S
Li3 O61 1.961 . S
Li3 O62 1.970 . S
Li3 O63 1.956 . S
C4 C6 1.348 . S
C4 C7 1.356 . S
C4 O60 1.325 . S
N5 C8 1.314 . S
N5 C9 1.279 . S
C6 C4 1.348 . S
C6 C8 1.353 . S
C6 H64 0.929 . S
C7 C4 1.356 . S
C7 C9 1.358 . S
C7 H65 0.930 . S
C8 N5 1.314 . S
C8 C6 1.353 . S
C8 H66 0.930 . S
C9 N5 1.279 . S
C9 C7 1.358 . S
C9 H67 0.930 . S
C10 C13 1.348 . S
C10 C14 1.356 . S
C10 O61 1.325 . S
C11 N12 1.279 . S
C11 C14 1.358 . S
C11 H68 0.930 . S
N12 C11 1.279 . S
N12 C15 1.314 . S
C13 C10 1.348 . S
C13 C15 1.353 . S
C13 H69 0.929 . S
C14 C10 1.356 . S
C14 C11 1.358 . S
C14 H70 0.930 . S
C15 N12 1.314 . S
C15 C13 1.353 . S
C15 H71 0.930 . S
C16 N17 1.314 . S
C16 C21 1.353 . S
C16 H22 0.930 . S
N17 Li0 1.990 . S
N17 C16 1.314 . S
N17 C19 1.279 . S
C18 C19 1.358 . S
C18 C20 1.356 . S
C18 H72 0.930 . S
C19 N17 1.279 . S
C19 C18 1.358 . S
C19 H23 0.930 . S
C20 C18 1.356 . S
C20 C21 1.348 . S
C21 C16 1.353 . S
C21 C20 1.348 . S
C21 H73 0.929 . S
H22 C16 0.930 . S
H23 C19 0.930 . S
C24 N25 1.314 . S
C24 C26 1.353 . S
C24 H30 0.930 . S
N25 Li1 1.990 . S
N25 C24 1.314 . S
N25 C28 1.279 . S
C26 C24 1.353 . S
C26 C29 1.348 . S
C26 H74 0.929 . S
C27 C28 1.358 . S
C27 C29 1.356 . S
C27 H75 0.930 . S
C28 N25 1.279 . S
C28 C27 1.358 . S
C28 H31 0.930 . S
C29 C26 1.348 . S
C29 C27 1.356 . S
H30 C24 0.930 . S
H31 C28 0.930 . S
C32 C34 1.348 . S
C32 C35 1.356 . S
C32 O62 1.325 . S
N33 C36 1.314 . S
N33 C37 1.279 . S
C34 C32 1.348 . S
C34 C36 1.353 . S
C34 H76 0.929 . S
C35 C32 1.356 . S
C35 C37 1.358 . S
C35 H77 0.930 . S
C36 N33 1.314 . S
C36 C34 1.353 . S
C36 H78 0.930 . S
C37 N33 1.279 . S
C37 C35 1.358 . S
C37 H79 0.930 . S
C38 C39 1.348 . S
C38 C40 1.356 . S
C38 O63 1.325 . S
C39 C38 1.348 . S
C39 C41 1.353 . S
C39 H80 0.929 . S
C40 C38 1.356 . S
C40 C42 1.358 . S
C40 H81 0.930 . S
C41 C39 1.353 . S
C41 N43 1.314 . S
C41 H82 0.930 . S
C42 C40 1.358 . S
C42 N43 1.279 . S
C42 H83 0.930 . S
N43 C41 1.314 . S
N43 C42 1.279 . S
C44 C46 1.353 . S
C44 N47 1.314 . S
C44 H50 0.930 . S
C45 N47 1.279 . S
C45 C48 1.358 . S
C45 H51 0.930 . S
C46 C44 1.353 . S
C46 C49 1.348 . S
C46 H84 0.929 . S
N47 Li2 1.990 . S
N47 C44 1.314 . S
N47 C45 1.279 . S
C48 C45 1.358 . S
C48 C49 1.356 . S
C48 H85 0.930 . S
C49 C46 1.348 . S
C49 C48 1.356 . S
H50 C44 0.930 . S
H51 C45 0.930 . S
C52 N53 1.314 . S
C52 C54 1.353 . S
C52 H58 0.930 . S
N53 Li3 1.990 . S
N53 C52 1.314 . S
N53 C56 1.279 . S
C54 C52 1.353 . S
C54 C57 1.348 . S
C54 H86 0.929 . S
C55 C56 1.358 . S
C55 C57 1.356 . S
C55 H87 0.930 . S
C56 N53 1.279 . S
C56 C55 1.358 . S
C56 H59 0.930 . S
C57 C54 1.348 . S
C57 C55 1.356 . S
H58 C52 0.930 . S
H59 C56 0.930 . S
O60 Li0 1.956 . S
O60 Li1 1.970 . S
O60 Li2 1.961 . S
O60 C4 1.325 . S
O61 Li0 1.970 . S
O61 Li1 1.956 . S
O61 Li3 1.961 . S
O61 C10 1.325 . S
O62 Li0 1.961 . S
O62 Li2 1.956 . S
O62 Li3 1.970 . S
O62 C32 1.325 . S
O63 Li1 1.961 . S
O63 Li2 1.970 . S
O63 Li3 1.956 . S
O63 C38 1.325 . S
H64 C6 0.929 . S
H65 C7 0.930 . S
H66 C8 0.930 . S
H67 C9 0.930 . S
H68 C11 0.930 . S
H69 C13 0.929 . S
H70 C14 0.930 . S
H71 C15 0.930 . S
H72 C18 0.930 . S
H73 C21 0.929 . S
H74 C26 0.929 . S
H75 C27 0.930 . S
H76 C34 0.929 . S
H77 C35 0.930 . S
H78 C36 0.930 . S
H79 C37 0.930 . S
H80 C39 0.929 . S
H81 C40 0.930 . S
H82 C41 0.930 . S
H83 C42 0.930 . S
H84 C46 0.929 . S
H85 C48 0.930 . S
H86 C54 0.929 . S
H87 C55 0.930 . S
Li88 N105 1.990 . S
Li88 O148 1.956 . S
Li88 O149 1.970 . S
Li88 O150 1.961 . S
Li89 N113 1.990 . S
Li89 O148 1.970 . S
Li89 O149 1.956 . S
Li89 O151 1.961 . S
Li90 N135 1.990 . S
Li90 O148 1.961 . S
Li90 O150 1.956 . S
Li90 O151 1.970 . S
Li91 N141 1.990 . S
Li91 O149 1.961 . S
Li91 O150 1.970 . S
Li91 O151 1.956 . S
C92 C94 1.348 . S
C92 C95 1.356 . S
C92 O148 1.325 . S
N93 C96 1.314 . S
N93 C97 1.279 . S
C94 C92 1.348 . S
C94 C96 1.353 . S
C94 H152 0.929 . S
C95 C92 1.356 . S
C95 C97 1.358 . S
C95 H153 0.930 . S
C96 N93 1.314 . S
C96 C94 1.353 . S
C96 H154 0.930 . S
C97 N93 1.279 . S
C97 C95 1.358 . S
C97 H155 0.930 . S
C98 C101 1.348 . S
C98 C102 1.356 . S
C98 O149 1.325 . S
C99 N100 1.279 . S
C99 C102 1.358 . S
C99 H156 0.930 . S
N100 C99 1.279 . S
N100 C103 1.314 . S
C101 C98 1.348 . S
C101 C103 1.353 . S
C101 H157 0.929 . S
C102 C98 1.356 . S
C102 C99 1.358 . S
C102 H158 0.930 . S
C103 N100 1.314 . S
C103 C101 1.353 . S
C103 H159 0.930 . S
C104 N105 1.314 . S
C104 C109 1.353 . S
C104 H110 0.930 . S
N105 Li88 1.990 . S
N105 C104 1.314 . S
N105 C107 1.279 . S
C106 C107 1.358 . S
C106 C108 1.356 . S
C106 H160 0.930 . S
C107 N105 1.279 . S
C107 C106 1.358 . S
C107 H111 0.930 . S
C108 C106 1.356 . S
C108 C109 1.348 . S
C109 C104 1.353 . S
C109 C108 1.348 . S
C109 H161 0.929 . S
H110 C104 0.930 . S
H111 C107 0.930 . S
C112 N113 1.314 . S
C112 C114 1.353 . S
C112 H118 0.930 . S
N113 Li89 1.990 . S
N113 C112 1.314 . S
N113 C116 1.279 . S
C114 C112 1.353 . S
C114 C117 1.348 . S
C114 H162 0.929 . S
C115 C116 1.358 . S
C115 C117 1.356 . S
C115 H163 0.930 . S
C116 N113 1.279 . S
C116 C115 1.358 . S
C116 H119 0.930 . S
C117 C114 1.348 . S
C117 C115 1.356 . S
H118 C112 0.930 . S
H119 C116 0.930 . S
C120 C122 1.348 . S
C120 C123 1.356 . S
C120 O150 1.325 . S
N121 C124 1.314 . S
N121 C125 1.279 . S
C122 C120 1.348 . S
C122 C124 1.353 . S
C122 H164 0.929 . S
C123 C120 1.356 . S
C123 C125 1.358 . S
C123 H165 0.930 . S
C124 N121 1.314 . S
C124 C122 1.353 . S
C124 H166 0.930 . S
C125 N121 1.279 . S
C125 C123 1.358 . S
C125 H167 0.930 . S
C126 C127 1.348 . S
C126 C128 1.356 . S
C126 O151 1.325 . S
C127 C126 1.348 . S
C127 C129 1.353 . S
C127 H168 0.929 . S
C128 C126 1.356 . S
C128 C130 1.358 . S
C128 H169 0.930 . S
C129 C127 1.353 . S
C129 N131 1.314 . S
C129 H170 0.930 . S
C130 C128 1.358 . S
C130 N131 1.279 . S
C130 H171 0.930 . S
N131 C129 1.314 . S
N131 C130 1.279 . S
C132 C134 1.353 . S
C132 N135 1.314 . S
C132 H138 0.930 . S
C133 N135 1.279 . S
C133 C136 1.358 . S
C133 H139 0.930 . S
C134 C132 1.353 . S
C134 C137 1.348 . S
C134 H172 0.929 . S
N135 Li90 1.990 . S
N135 C132 1.314 . S
N135 C133 1.279 . S
C136 C133 1.358 . S
C136 C137 1.356 . S
C136 H173 0.930 . S
C137 C134 1.348 . S
C137 C136 1.356 . S
H138 C132 0.930 . S
H139 C133 0.930 . S
C140 N141 1.314 . S
C140 C142 1.353 . S
C140 H146 0.930 . S
N141 Li91 1.990 . S
N141 C140 1.314 . S
N141 C144 1.279 . S
C142 C140 1.353 . S
C142 C145 1.348 . S
C142 H174 0.929 . S
C143 C144 1.358 . S
C143 C145 1.356 . S
C143 H175 0.930 . S
C144 N141 1.279 . S
C144 C143 1.358 . S
C144 H147 0.930 . S
C145 C142 1.348 . S
C145 C143 1.356 . S
H146 C140 0.930 . S
H147 C144 0.930 . S
O148 Li88 1.956 . S
O148 Li89 1.970 . S
O148 Li90 1.961 . S
O148 C92 1.325 . S
O149 Li88 1.970 . S
O149 Li89 1.956 . S
O149 Li91 1.961 . S
O149 C98 1.325 . S
O150 Li88 1.961 . S
O150 Li90 1.956 . S
O150 Li91 1.970 . S
O150 C120 1.325 . S
O151 Li89 1.961 . S
O151 Li90 1.970 . S
O151 Li91 1.956 . S
O151 C126 1.325 . S
H152 C94 0.929 . S
H153 C95 0.930 . S
H154 C96 0.930 . S
H155 C97 0.930 . S
H156 C99 0.930 . S
H157 C101 0.929 . S
H158 C102 0.930 . S
H159 C103 0.930 . S
H160 C106 0.930 . S
H161 C109 0.929 . S
H162 C114 0.929 . S
H163 C115 0.930 . S
H164 C122 0.929 . S
H165 C123 0.930 . S
H166 C124 0.930 . S
H167 C125 0.930 . S
H168 C127 0.929 . S
H169 C128 0.930 . S
H170 C129 0.930 . S
H171 C130 0.930 . S
H172 C134 0.929 . S
H173 C136 0.930 . S
H174 C142 0.929 . S
H175 C143 0.930 . S
Li176 N193 1.990 . S
Li176 O236 1.956 . S
Li176 O237 1.970 . S
Li176 O238 1.961 . S
Li177 N201 1.990 . S
Li177 O236 1.970 1_556 S
Li177 O237 1.956 1_556 S
Li177 O239 1.961 . S
Li178 N223 1.990 . S
Li178 O236 1.961 1_556 S
Li178 O238 1.956 1_556 S
Li178 O239 1.970 . S
Li179 N229 1.990 . S
Li179 O237 1.961 1_556 S
Li179 O238 1.970 1_556 S
Li179 O239 1.956 . S
C180 C182 1.348 . S
C180 C183 1.356 . S
C180 O236 1.325 . S
N181 C184 1.314 . S
N181 C185 1.279 . S
C182 C180 1.348 . S
C182 C184 1.353 . S
C182 H240 0.929 . S
C183 C180 1.356 . S
C183 C185 1.358 . S
C183 H241 0.930 . S
C184 N181 1.314 . S
C184 C182 1.353 . S
C184 H242 0.930 . S
C185 N181 1.279 . S
C185 C183 1.358 . S
C185 H243 0.930 . S
C186 C189 1.348 . S
C186 C190 1.356 . S
C186 O237 1.325 . S
C187 N188 1.279 . S
C187 C190 1.358 . S
C187 H244 0.930 . S
N188 C187 1.279 . S
N188 C191 1.314 . S
C189 C186 1.348 . S
C189 C191 1.353 . S
C189 H245 0.929 . S
C190 C186 1.356 . S
C190 C187 1.358 . S
C190 H246 0.930 . S
C191 N188 1.314 . S
C191 C189 1.353 . S
C191 H247 0.930 . S
C192 N193 1.314 . S
C192 C197 1.353 . S
C192 H198 0.930 . S
N193 Li176 1.990 . S
N193 C192 1.314 . S
N193 C195 1.279 . S
C194 C195 1.358 . S
C194 C196 1.356 . S
C194 H248 0.930 . S
C195 N193 1.279 . S
C195 C194 1.358 . S
C195 H199 0.930 . S
C196 C194 1.356 . S
C196 C197 1.348 . S
C197 C192 1.353 . S
C197 C196 1.348 . S
C197 H249 0.929 . S
H198 C192 0.930 . S
H199 C195 0.930 . S
C200 N201 1.314 . S
C200 C202 1.353 . S
C200 H206 0.930 . S
N201 Li177 1.990 . S
N201 C200 1.314 . S
N201 C204 1.279 1_556 S
C202 C200 1.353 . S
C202 C205 1.348 . S
C202 H250 0.929 . S
C203 C204 1.352 1_556 S
C203 C205 1.395 . S
C203 H251 0.898 1_556 S
C204 N201 1.279 1_554 S
C204 C203 1.352 1_554 S
C204 H207 0.930 . S
C205 C202 1.348 . S
C205 C203 1.395 . S
H206 C200 0.930 . S
H207 C204 0.930 . S
C208 C210 1.348 . S
C208 C211 1.356 . S
C208 O238 1.325 . S
N209 C212 1.314 . S
N209 C213 1.279 . S
C210 C208 1.348 . S
C210 C212 1.353 . S
C210 H252 0.929 1_554 S
C211 C208 1.356 . S
C211 C213 1.358 . S
C211 H253 0.930 . S
C212 N209 1.314 . S
C212 C210 1.353 . S
C212 H254 0.930 . S
C213 N209 1.279 . S
C213 C211 1.358 . S
C213 H255 0.930 . S
C214 C215 1.348 . S
C214 C216 1.356 . S
C214 O239 1.325 . S
C215 C214 1.348 . S
C215 C217 1.353 . S
C215 H256 0.929 . S
C216 C214 1.356 . S
C216 C218 1.358 . S
C216 H257 0.930 . S
C217 C215 1.353 . S
C217 N219 1.314 . S
C217 H258 0.930 . S
C218 C216 1.358 . S
C218 N219 1.279 . S
C218 H259 0.930 . S
N219 C217 1.314 . S
N219 C218 1.279 . S
C220 C222 1.353 . S
C220 N223 1.314 . S
C220 H226 0.930 . S
C221 N223 1.279 . S
C221 C224 1.358 . S
C221 H227 0.930 . S
C222 C220 1.353 . S
C222 C225 1.348 . S
C222 H260 0.929 . S
N223 Li178 1.990 . S
N223 C220 1.314 . S
N223 C221 1.279 . S
C224 C221 1.358 . S
C224 C225 1.356 . S
C224 H261 0.930 . S
C225 C222 1.348 . S
C225 C224 1.356 . S
H226 C220 0.930 . S
H227 C221 0.930 . S
C228 N229 1.314 1_554 S
C228 C230 1.353 . S
C228 H234 0.930 . S
N229 Li179 1.990 . S
N229 C228 1.314 1_556 S
N229 C232 1.279 . S
C230 C228 1.353 . S
C230 C233 1.348 1_554 S
C230 H262 0.929 . S
C231 C232 1.358 . S
C231 C233 1.356 . S
C231 H263 0.930 . S
C232 N229 1.279 . S
C232 C231 1.358 . S
C232 H235 0.930 . S
C233 C230 1.348 1_556 S
C233 C231 1.356 . S
H234 C228 0.930 . S
H235 C232 0.930 . S
O236 Li176 1.956 . S
O236 Li177 1.970 1_554 S
O236 Li178 1.961 1_554 S
O236 C180 1.325 . S
O237 Li176 1.970 . S
O237 Li177 1.956 1_554 S
O237 Li179 1.961 1_554 S
O237 C186 1.325 . S
O238 Li176 1.961 . S
O238 Li178 1.956 1_554 S
O238 Li179 1.970 1_554 S
O238 C208 1.325 . S
O239 Li177 1.961 . S
O239 Li178 1.970 . S
O239 Li179 1.956 . S
O239 C214 1.325 . S
H240 C182 0.929 . S
H241 C183 0.930 . S
H242 C184 0.930 . S
H243 C185 0.930 . S
H244 C187 0.930 . S
H245 C189 0.929 . S
H246 C190 0.930 . S
H247 C191 0.930 . S
H248 C194 0.930 . S
H249 C197 0.929 . S
H250 C202 0.929 . S
H251 C203 0.898 1_554 S
H252 C210 0.929 1_556 S
H253 C211 0.930 . S
H254 C212 0.930 . S
H255 C213 0.930 . S
H256 C215 0.929 . S
H257 C216 0.930 . S
H258 C217 0.930 . S
H259 C218 0.930 . S
H260 C222 0.929 . S
H261 C224 0.930 . S
H262 C230 0.929 . S
H263 C231 0.930 . S
Li264 N281 1.990 . S
Li264 O324 1.956 . S
Li264 O325 1.970 . S
Li264 O326 1.961 . S
Li265 N289 1.990 . S
Li265 O324 1.970 . S
Li265 O325 1.956 . S
Li265 O327 1.961 . S
Li266 N311 1.990 . S
Li266 O324 1.961 . S
Li266 O326 1.956 . S
Li266 O327 1.970 . S
Li267 N317 1.990 . S
Li267 O325 1.961 . S
Li267 O326 1.970 . S
Li267 O327 1.956 . S
C268 C270 1.348 . S
C268 C271 1.356 . S
C268 O324 1.325 . S
N269 C272 1.314 . S
N269 C273 1.279 . S
C270 C268 1.348 . S
C270 C272 1.353 . S
C270 H328 0.929 . S
C271 C268 1.356 . S
C271 C273 1.358 . S
C271 H329 0.930 . S
C272 N269 1.314 . S
C272 C270 1.353 . S
C272 H330 0.930 . S
C273 N269 1.279 . S
C273 C271 1.358 . S
C273 H331 0.930 . S
C274 C277 1.348 . S
C274 C278 1.356 . S
C274 O325 1.325 . S
C275 N276 1.279 . S
C275 C278 1.358 . S
C275 H332 0.930 . S
N276 C275 1.279 . S
N276 C279 1.314 . S
C277 C274 1.348 . S
C277 C279 1.353 . S
C277 H333 0.929 . S
C278 C274 1.356 . S
C278 C275 1.358 . S
C278 H334 0.930 . S
C279 N276 1.314 . S
C279 C277 1.353 . S
C279 H335 0.930 . S
C280 N281 1.314 . S
C280 C285 1.353 . S
C280 H286 0.930 . S
N281 Li264 1.990 . S
N281 C280 1.314 . S
N281 C283 1.279 . S
C282 C283 1.358 . S
C282 C284 1.356 . S
C282 H336 0.930 . S
C283 N281 1.279 . S
C283 C282 1.358 . S
C283 H287 0.930 . S
C284 C282 1.356 . S
C284 C285 1.348 . S
C285 C280 1.353 . S
C285 C284 1.348 . S
C285 H337 0.929 . S
H286 C280 0.930 . S
H287 C283 0.930 . S
C288 N289 1.314 . S
C288 C290 1.353 . S
C288 H294 0.930 . S
N289 Li265 1.990 . S
N289 C288 1.314 . S
N289 C292 1.279 . S
C290 C288 1.353 . S
C290 C293 1.348 . S
C290 H338 0.929 . S
C291 C292 1.358 . S
C291 C293 1.356 . S
C291 H339 0.930 . S
C292 N289 1.279 . S
C292 C291 1.358 . S
C292 H295 0.930 . S
C293 C290 1.348 . S
C293 C291 1.356 . S
H294 C288 0.930 . S
H295 C292 0.930 . S
C296 C298 1.348 . S
C296 C299 1.356 . S
C296 O326 1.325 . S
N297 C300 1.314 . S
N297 C301 1.279 . S
C298 C296 1.348 . S
C298 C300 1.353 . S
C298 H340 0.929 . S
C299 C296 1.356 . S
C299 C301 1.358 . S
C299 H341 0.930 . S
C300 N297 1.314 . S
C300 C298 1.353 . S
C300 H342 0.930 . S
C301 N297 1.279 . S
C301 C299 1.358 . S
C301 H343 0.930 . S
C302 C303 1.348 . S
C302 C304 1.356 . S
C302 O327 1.325 . S
C303 C302 1.348 . S
C303 C305 1.353 . S
C303 H344 0.929 . S
C304 C302 1.356 . S
C304 C306 1.358 . S
C304 H345 0.930 . S
C305 C303 1.353 . S
C305 N307 1.314 . S
C305 H346 0.930 . S
C306 C304 1.358 . S
C306 N307 1.279 . S
C306 H347 0.930 . S
N307 C305 1.314 . S
N307 C306 1.279 . S
C308 C310 1.353 . S
C308 N311 1.314 . S
C308 H314 0.930 . S
C309 N311 1.279 . S
C309 C312 1.358 . S
C309 H315 0.930 . S
C310 C308 1.353 . S
C310 C313 1.348 . S
C310 H348 0.929 . S
N311 Li266 1.990 . S
N311 C308 1.314 . S
N311 C309 1.279 . S
C312 C309 1.358 . S
C312 C313 1.356 . S
C312 H349 0.930 . S
C313 C310 1.348 . S
C313 C312 1.356 . S
H314 C308 0.930 . S
H315 C309 0.930 . S
C316 N317 1.314 . S
C316 C318 1.353 . S
C316 H322 0.930 . S
N317 Li267 1.990 . S
N317 C316 1.314 . S
N317 C320 1.279 . S
C318 C316 1.353 . S
C318 C321 1.348 . S
C318 H350 0.929 . S
C319 C320 1.358 . S
C319 C321 1.356 . S
C319 H351 0.930 . S
C320 N317 1.279 . S
C320 C319 1.358 . S
C320 H323 0.930 . S
C321 C318 1.348 . S
C321 C319 1.356 . S
H322 C316 0.930 . S
H323 C320 0.930 . S
O324 Li264 1.956 . S
O324 Li265 1.970 . S
O324 Li266 1.961 . S
O324 C268 1.325 . S
O325 Li264 1.970 . S
O325 Li265 1.956 . S
O325 Li267 1.961 . S
O325 C274 1.325 . S
O326 Li264 1.961 . S
O326 Li266 1.956 . S
O326 Li267 1.970 . S
O326 C296 1.325 . S
O327 Li265 1.961 . S
O327 Li266 1.970 . S
O327 Li267 1.956 . S
O327 C302 1.325 . S
H328 C270 0.929 . S
H329 C271 0.930 . S
H330 C272 0.930 . S
H331 C273 0.930 . S
H332 C275 0.930 . S
H333 C277 0.929 . S
H334 C278 0.930 . S
H335 C279 0.930 . S
H336 C282 0.930 . S
H337 C285 0.929 . S
H338 C290 0.929 . S
H339 C291 0.930 . S
H340 C298 0.929 . S
H341 C299 0.930 . S
H342 C300 0.930 . S
H343 C301 0.930 . S
H344 C303 0.929 . S
H345 C304 0.930 . S
H346 C305 0.930 . S
H347 C306 0.930 . S
H348 C310 0.929 . S
H349 C312 0.930 . S
H350 C318 0.929 . S
H351 C319 0.930 . S
Li352 N369 1.990 . S
Li352 O412 1.956 . S
Li352 O413 1.970 . S
Li352 O414 1.961 . S
Li353 N377 1.990 . S
Li353 O412 1.970 . S
Li353 O413 1.956 . S
Li353 O415 1.961 . S
Li354 N399 1.990 . S
Li354 O412 1.961 . S
Li354 O414 1.956 . S
Li354 O415 1.970 . S
Li355 N405 1.990 . S
Li355 O413 1.961 . S
Li355 O414 1.970 . S
Li355 O415 1.956 . S
C356 C358 1.348 . S
C356 C359 1.356 . S
C356 O412 1.325 . S
N357 C360 1.314 . S
N357 C361 1.279 . S
C358 C356 1.348 . S
C358 C360 1.353 . S
C358 H416 0.929 . S
C359 C356 1.356 . S
C359 C361 1.358 . S
C359 H417 0.930 . S
C360 N357 1.314 . S
C360 C358 1.353 . S
C360 H418 0.930 . S
C361 N357 1.279 . S
C361 C359 1.358 . S
C361 H419 0.930 . S
C362 C365 1.348 . S
C362 C366 1.356 . S
C362 O413 1.325 . S
C363 N364 1.279 . S
C363 C366 1.358 . S
C363 H420 0.930 . S
N364 C363 1.279 . S
N364 C367 1.314 . S
C365 C362 1.348 . S
C365 C367 1.353 . S
C365 H421 0.929 . S
C366 C362 1.356 . S
C366 C363 1.358 . S
C366 H422 0.930 . S
C367 N364 1.314 . S
C367 C365 1.353 . S
C367 H423 0.930 . S
C368 N369 1.314 . S
C368 C373 1.353 . S
C368 H374 0.930 . S
N369 Li352 1.990 . S
N369 C368 1.314 . S
N369 C371 1.279 . S
C370 C371 1.358 . S
C370 C372 1.356 . S
C370 H424 0.930 . S
C371 N369 1.279 . S
C371 C370 1.358 . S
C371 H375 0.930 . S
C372 C370 1.356 . S
C372 C373 1.348 . S
C373 C368 1.353 . S
C373 C372 1.348 . S
C373 H425 0.929 . S
H374 C368 0.930 . S
H375 C371 0.930 . S
C376 N377 1.314 . S
C376 C378 1.353 . S
C376 H382 0.930 . S
N377 Li353 1.990 . S
N377 C376 1.314 . S
N377 C380 1.279 . S
C378 C376 1.353 . S
C378 C381 1.348 . S
C378 H426 0.929 . S
C379 C380 1.358 . S
C379 C381 1.356 . S
C379 H427 0.930 . S
C380 N377 1.279 . S
C380 C379 1.358 . S
C380 H383 0.930 . S
C381 C378 1.348 . S
C381 C379 1.356 . S
H382 C376 0.930 . S
H383 C380 0.930 . S
C384 C386 1.348 . S
C384 C387 1.356 . S
C384 O414 1.325 . S
N385 C388 1.314 . S
N385 C389 1.279 . S
C386 C384 1.348 . S
C386 C388 1.353 . S
C386 H428 0.929 . S
C387 C384 1.356 . S
C387 C389 1.358 . S
C387 H429 0.930 . S
C388 N385 1.314 . S
C388 C386 1.353 . S
C388 H430 0.930 . S
C389 N385 1.279 . S
C389 C387 1.358 . S
C389 H431 0.930 . S
C390 C391 1.348 . S
C390 C392 1.356 . S
C390 O415 1.325 . S
C391 C390 1.348 . S
C391 C393 1.353 . S
C391 H432 0.929 . S
C392 C390 1.356 . S
C392 C394 1.358 . S
C392 H433 0.930 . S
C393 C391 1.353 . S
C393 N395 1.314 . S
C393 H434 0.930 . S
C394 C392 1.358 . S
C394 N395 1.279 . S
C394 H435 0.930 . S
N395 C393 1.314 . S
N395 C394 1.279 . S
C396 C398 1.353 . S
C396 N399 1.314 . S
C396 H402 0.930 . S
C397 N399 1.279 . S
C397 C400 1.358 . S
C397 H403 0.930 . S
C398 C396 1.353 . S
C398 C401 1.348 . S
C398 H436 0.929 . S
N399 Li354 1.990 . S
N399 C396 1.314 . S
N399 C397 1.279 . S
C400 C397 1.358 . S
C400 C401 1.356 . S
C400 H437 0.930 . S
C401 C398 1.348 . S
C401 C400 1.356 . S
H402 C396 0.930 . S
H403 C397 0.930 . S
C404 N405 1.314 . S
C404 C406 1.353 . S
C404 H410 0.930 . S
N405 Li355 1.990 . S
N405 C404 1.314 . S
N405 C408 1.279 . S
C406 C404 1.353 . S
C406 C409 1.348 . S
C406 H438 0.929 . S
C407 C408 1.358 . S
C407 C409 1.356 . S
C407 H439 0.930 . S
C408 N405 1.279 . S
C408 C407 1.358 . S
C408 H411 0.930 . S
C409 C406 1.348 . S
C409 C407 1.356 . S
H410 C404 0.930 . S
H411 C408 0.930 . S
O412 Li352 1.956 . S
O412 Li353 1.970 . S
O412 Li354 1.961 . S
O412 C356 1.325 . S
O413 Li352 1.970 . S
O413 Li353 1.956 . S
O413 Li355 1.961 . S
O413 C362 1.325 . S
O414 Li352 1.961 . S
O414 Li354 1.956 . S
O414 Li355 1.970 . S
O414 C384 1.325 . S
O415 Li353 1.961 . S
O415 Li354 1.970 . S
O415 Li355 1.956 . S
O415 C390 1.325 . S
H416 C358 0.929 . S
H417 C359 0.930 . S
H418 C360 0.930 . S
H419 C361 0.930 . S
H420 C363 0.930 . S
H421 C365 0.929 . S
H422 C366 0.930 . S
H423 C367 0.930 . S
H424 C370 0.930 . S
H425 C373 0.929 . S
H426 C378 0.929 . S
H427 C379 0.930 . S
H428 C386 0.929 . S
H429 C387 0.930 . S
H430 C388 0.930 . S
H431 C389 0.930 . S
H432 C391 0.929 . S
H433 C392 0.930 . S
H434 C393 0.930 . S
H435 C394 0.930 . S
H436 C398 0.929 . S
H437 C400 0.930 . S
H438 C406 0.929 . S
H439 C407 0.930 . S
Li440 N457 1.990 . S
Li440 O500 1.956 1_556 S
Li440 O501 1.970 1_556 S
Li440 O502 1.961 . S
Li441 N465 1.990 . S
Li441 O500 1.970 . S
Li441 O501 1.956 . S
Li441 O503 1.961 . S
Li442 N487 1.990 . S
Li442 O500 1.961 1_556 S
Li442 O502 1.956 . S
Li442 O503 1.970 1_556 S
Li443 N493 1.990 . S
Li443 O501 1.961 1_556 S
Li443 O502 1.970 . S
Li443 O503 1.956 1_556 S
C444 C446 1.348 . S
C444 C447 1.356 . S
C444 O500 1.325 . S
N445 C448 1.314 . S
N445 C449 1.279 . S
C446 C444 1.348 . S
C446 C448 1.353 . S
C446 H504 0.929 . S
C447 C444 1.356 . S
C447 C449 1.358 . S
C447 H505 0.930 . S
C448 N445 1.314 . S
C448 C446 1.353 . S
C448 H506 0.930 . S
C449 N445 1.279 . S
C449 C447 1.358 . S
C449 H507 0.930 . S
C450 C453 1.348 . S
C450 C454 1.356 . S
C450 O501 1.325 . S
C451 N452 1.279 . S
C451 C454 1.358 . S
C451 H508 0.930 . S
N452 C451 1.279 . S
N452 C455 1.314 . S
C453 C450 1.348 . S
C453 C455 1.353 . S
C453 H509 0.929 . S
C454 C450 1.356 . S
C454 C451 1.358 . S
C454 H510 0.930 . S
C455 N452 1.314 . S
C455 C453 1.353 . S
C455 H511 0.930 . S
C456 N457 1.314 . S
C456 C461 1.353 . S
C456 H462 0.930 . S
N457 Li440 1.990 . S
N457 C456 1.314 . S
N457 C459 1.279 1_556 S
C458 C459 1.352 1_556 S
C458 C460 1.395 . S
C458 H512 0.898 1_556 S
C459 N457 1.279 1_554 S
C459 C458 1.352 1_554 S
C459 H463 0.930 . S
C460 C458 1.395 . S
C460 C461 1.348 . S
C461 C456 1.353 . S
C461 C460 1.348 . S
C461 H513 0.929 . S
H462 C456 0.930 . S
H463 C459 0.930 . S
C464 N465 1.314 . S
C464 C466 1.353 . S
C464 H470 0.930 . S
N465 Li441 1.990 . S
N465 C464 1.314 . S
N465 C468 1.279 . S
C466 C464 1.353 . S
C466 C469 1.348 . S
C466 H514 0.929 . S
C467 C468 1.358 . S
C467 C469 1.356 . S
C467 H515 0.930 . S
C468 N465 1.279 . S
C468 C467 1.358 . S
C468 H471 0.930 . S
C469 C466 1.348 . S
C469 C467 1.356 . S
H470 C464 0.930 . S
H471 C468 0.930 . S
C472 C474 1.348 . S
C472 C475 1.356 . S
C472 O502 1.325 . S
N473 C476 1.314 . S
N473 C477 1.279 . S
C474 C472 1.348 . S
C474 C476 1.353 . S
C474 H516 0.929 . S
C475 C472 1.356 . S
C475 C477 1.358 . S
C475 H517 0.930 . S
C476 N473 1.314 . S
C476 C474 1.353 . S
C476 H518 0.930 . S
C477 N473 1.279 . S
C477 C475 1.358 . S
C477 H519 0.930 . S
C478 C479 1.348 . S
C478 C480 1.356 . S
C478 O503 1.325 . S
C479 C478 1.348 . S
C479 C481 1.353 . S
C479 H520 0.929 1_554 S
C480 C478 1.356 . S
C480 C482 1.358 . S
C480 H521 0.930 . S
C481 C479 1.353 . S
C481 N483 1.314 . S
C481 H522 0.930 . S
C482 C480 1.358 . S
C482 N483 1.279 . S
C482 H523 0.930 . S
N483 C481 1.314 . S
N483 C482 1.279 . S
C484 C486 1.353 . S
C484 N487 1.314 1_554 S
C484 H490 0.930 . S
C485 N487 1.279 . S
C485 C488 1.358 . S
C485 H491 0.930 . S
C486 C484 1.353 . S
C486 C489 1.348 1_554 S
C486 H524 0.929 . S
N487 Li442 1.990 . S
N487 C484 1.314 1_556 S
N487 C485 1.279 . S
C488 C485 1.358 . S
C488 C489 1.356 . S
C488 H525 0.930 . S
C489 C486 1.348 1_556 S
C489 C488 1.356 . S
H490 C484 0.930 . S
H491 C485 0.930 . S
C492 N493 1.314 . S
C492 C494 1.353 . S
C492 H498 0.930 . S
N493 Li443 1.990 . S
N493 C492 1.314 . S
N493 C496 1.279 . S
C494 C492 1.353 . S
C494 C497 1.348 . S
C494 H526 0.929 . S
C495 C496 1.358 . S
C495 C497 1.356 . S
C495 H527 0.930 . S
C496 N493 1.279 . S
C496 C495 1.358 . S
C496 H499 0.930 . S
C497 C494 1.348 . S
C497 C495 1.356 . S
H498 C492 0.930 . S
H499 C496 0.930 . S
O500 Li440 1.956 1_554 S
O500 Li441 1.970 . S
O500 Li442 1.961 1_554 S
O500 C444 1.325 . S
O501 Li440 1.970 1_554 S
O501 Li441 1.956 . S
O501 Li443 1.961 1_554 S
O501 C450 1.325 . S
O502 Li440 1.961 . S
O502 Li442 1.956 . S
O502 Li443 1.970 . S
O502 C472 1.325 . S
O503 Li441 1.961 . S
O503 Li442 1.970 1_554 S
O503 Li443 1.956 1_554 S
O503 C478 1.325 . S
H504 C446 0.929 . S
H505 C447 0.930 . S
H506 C448 0.930 . S
H507 C449 0.930 . S
H508 C451 0.930 . S
H509 C453 0.929 . S
H510 C454 0.930 . S
H511 C455 0.930 . S
H512 C458 0.898 1_554 S
H513 C461 0.929 . S
H514 C466 0.929 . S
H515 C467 0.930 . S
H516 C474 0.929 . S
H517 C475 0.930 . S
H518 C476 0.930 . S
H519 C477 0.930 . S
H520 C479 0.929 1_556 S
H521 C480 0.930 . S
H522 C481 0.930 . S
H523 C482 0.930 . S
H524 C486 0.929 . S
H525 C488 0.930 . S
H526 C494 0.929 . S
H527 C495 0.930 . S
Li528 N545 1.990 . S
Li528 O588 1.956 . S
Li528 O589 1.970 . S
Li528 O590 1.961 . S
Li529 N553 1.990 . S
Li529 O588 1.970 . S
Li529 O589 1.956 . S
Li529 O591 1.961 . S
Li530 N575 1.990 . S
Li530 O588 1.961 . S
Li530 O590 1.956 . S
Li530 O591 1.970 . S
Li531 N581 1.990 . S
Li531 O589 1.961 . S
Li531 O590 1.970 . S
Li531 O591 1.956 . S
C532 C534 1.348 . S
C532 C535 1.356 . S
C532 O588 1.325 . S
N533 C536 1.314 . S
N533 C537 1.279 . S
C534 C532 1.348 . S
C534 C536 1.353 . S
C534 H592 0.929 . S
C535 C532 1.356 . S
C535 C537 1.358 . S
C535 H593 0.930 . S
C536 N533 1.314 . S
C536 C534 1.353 . S
C536 H594 0.930 . S
C537 N533 1.279 . S
C537 C535 1.358 . S
C537 H595 0.930 . S
C538 C541 1.348 . S
C538 C542 1.356 . S
C538 O589 1.325 . S
C539 N540 1.279 . S
C539 C542 1.358 . S
C539 H596 0.930 . S
N540 C539 1.279 . S
N540 C543 1.314 . S
C541 C538 1.348 . S
C541 C543 1.353 . S
C541 H597 0.929 . S
C542 C538 1.356 . S
C542 C539 1.358 . S
C542 H598 0.930 . S
C543 N540 1.314 . S
C543 C541 1.353 . S
C543 H599 0.930 . S
C544 N545 1.314 . S
C544 C549 1.353 . S
C544 H550 0.930 . S
N545 Li528 1.990 . S
N545 C544 1.314 . S
N545 C547 1.279 . S
C546 C547 1.358 . S
C546 C548 1.356 . S
C546 H600 0.930 . S
C547 N545 1.279 . S
C547 C546 1.358 . S
C547 H551 0.930 . S
C548 C546 1.356 . S
C548 C549 1.348 . S
C549 C544 1.353 . S
C549 C548 1.348 . S
C549 H601 0.929 . S
H550 C544 0.930 . S
H551 C547 0.930 . S
C552 N553 1.314 . S
C552 C554 1.353 . S
C552 H558 0.930 . S
N553 Li529 1.990 . S
N553 C552 1.314 . S
N553 C556 1.279 . S
C554 C552 1.353 . S
C554 C557 1.348 . S
C554 H602 0.929 . S
C555 C556 1.358 . S
C555 C557 1.356 . S
C555 H603 0.930 . S
C556 N553 1.279 . S
C556 C555 1.358 . S
C556 H559 0.930 . S
C557 C554 1.348 . S
C557 C555 1.356 . S
H558 C552 0.930 . S
H559 C556 0.930 . S
C560 C562 1.348 . S
C560 C563 1.356 . S
C560 O590 1.325 . S
N561 C564 1.314 . S
N561 C565 1.279 . S
C562 C560 1.348 . S
C562 C564 1.353 . S
C562 H604 0.929 . S
C563 C560 1.356 . S
C563 C565 1.358 . S
C563 H605 0.930 . S
C564 N561 1.314 . S
C564 C562 1.353 . S
C564 H606 0.930 . S
C565 N561 1.279 . S
C565 C563 1.358 . S
C565 H607 0.930 . S
C566 C567 1.348 . S
C566 C568 1.356 . S
C566 O591 1.325 . S
C567 C566 1.348 . S
C567 C569 1.353 . S
C567 H608 0.929 . S
C568 C566 1.356 . S
C568 C570 1.358 . S
C568 H609 0.930 . S
C569 C567 1.353 . S
C569 N571 1.314 . S
C569 H610 0.930 . S
C570 C568 1.358 . S
C570 N571 1.279 . S
C570 H611 0.930 . S
N571 C569 1.314 . S
N571 C570 1.279 . S
C572 C574 1.353 . S
C572 N575 1.314 . S
C572 H578 0.930 . S
C573 N575 1.279 . S
C573 C576 1.358 . S
C573 H579 0.930 . S
C574 C572 1.353 . S
C574 C577 1.348 . S
C574 H612 0.929 . S
N575 Li530 1.990 . S
N575 C572 1.314 . S
N575 C573 1.279 . S
C576 C573 1.358 . S
C576 C577 1.356 . S
C576 H613 0.930 . S
C577 C574 1.348 . S
C577 C576 1.356 . S
H578 C572 0.930 . S
H579 C573 0.930 . S
C580 N581 1.314 . S
C580 C582 1.353 . S
C580 H586 0.930 . S
N581 Li531 1.990 . S
N581 C580 1.314 . S
N581 C584 1.279 . S
C582 C580 1.353 . S
C582 C585 1.348 . S
C582 H614 0.929 . S
C583 C584 1.358 . S
C583 C585 1.356 . S
C583 H615 0.930 . S
C584 N581 1.279 . S
C584 C583 1.358 . S
C584 H587 0.930 . S
C585 C582 1.348 . S
C585 C583 1.356 . S
H586 C580 0.930 . S
H587 C584 0.930 . S
O588 Li528 1.956 . S
O588 Li529 1.970 . S
O588 Li530 1.961 . S
O588 C532 1.325 . S
O589 Li528 1.970 . S
O589 Li529 1.956 . S
O589 Li531 1.961 . S
O589 C538 1.325 . S
O590 Li528 1.961 . S
O590 Li530 1.956 . S
O590 Li531 1.970 . S
O590 C560 1.325 . S
O591 Li529 1.961 . S
O591 Li530 1.970 . S
O591 Li531 1.956 . S
O591 C566 1.325 . S
H592 C534 0.929 . S
H593 C535 0.930 . S
H594 C536 0.930 . S
H595 C537 0.930 . S
H596 C539 0.930 . S
H597 C541 0.929 . S
H598 C542 0.930 . S
H599 C543 0.930 . S
H600 C546 0.930 . S
H601 C549 0.929 . S
H602 C554 0.929 . S
H603 C555 0.930 . S
H604 C562 0.929 . S
H605 C563 0.930 . S
H606 C564 0.930 . S
H607 C565 0.930 . S
H608 C567 0.929 . S
H609 C568 0.930 . S
H610 C569 0.930 . S
H611 C570 0.930 . S
H612 C574 0.929 . S
H613 C576 0.930 . S
H614 C582 0.929 . S
H615 C583 0.930 . S
Li616 N633 1.990 . S
Li616 O676 1.956 . S
Li616 O677 1.970 . S
Li616 O678 1.961 . S
Li617 N641 1.990 . S
Li617 O676 1.970 . S
Li617 O677 1.956 . S
Li617 O679 1.961 . S
Li618 N663 1.990 . S
Li618 O676 1.961 . S
Li618 O678 1.956 . S
Li618 O679 1.970 . S
Li619 N669 1.990 . S
Li619 O677 1.961 . S
Li619 O678 1.970 . S
Li619 O679 1.956 . S
C620 C622 1.348 . S
C620 C623 1.356 . S
C620 O676 1.325 . S
N621 C624 1.314 . S
N621 C625 1.279 . S
C622 C620 1.348 . S
C622 C624 1.353 . S
C622 H680 0.929 . S
C623 C620 1.356 . S
C623 C625 1.358 . S
C623 H681 0.930 . S
C624 N621 1.314 . S
C624 C622 1.353 . S
C624 H682 0.930 . S
C625 N621 1.279 . S
C625 C623 1.358 . S
C625 H683 0.930 . S
C626 C629 1.348 . S
C626 C630 1.356 . S
C626 O677 1.325 . S
C627 N628 1.279 . S
C627 C630 1.358 . S
C627 H684 0.930 . S
N628 C627 1.279 . S
N628 C631 1.314 . S
C629 C626 1.348 . S
C629 C631 1.353 . S
C629 H685 0.929 . S
C630 C626 1.356 . S
C630 C627 1.358 . S
C630 H686 0.930 . S
C631 N628 1.314 . S
C631 C629 1.353 . S
C631 H687 0.930 . S
C632 N633 1.314 . S
C632 C637 1.353 . S
C632 H638 0.930 . S
N633 Li616 1.990 . S
N633 C632 1.314 . S
N633 C635 1.279 . S
C634 C635 1.358 . S
C634 C636 1.356 . S
C634 H688 0.930 . S
C635 N633 1.279 . S
C635 C634 1.358 . S
C635 H639 0.930 . S
C636 C634 1.356 . S
C636 C637 1.348 . S
C637 C632 1.353 . S
C637 C636 1.348 . S
C637 H689 0.929 . S
H638 C632 0.930 . S
H639 C635 0.930 . S
C640 N641 1.314 . S
C640 C642 1.353 . S
C640 H646 0.930 . S
N641 Li617 1.990 . S
N641 C640 1.314 . S
N641 C644 1.279 . S
C642 C640 1.353 . S
C642 C645 1.348 . S
C642 H690 0.929 . S
C643 C644 1.358 . S
C643 C645 1.356 . S
C643 H691 0.930 . S
C644 N641 1.279 . S
C644 C643 1.358 . S
C644 H647 0.930 . S
C645 C642 1.348 . S
C645 C643 1.356 . S
H646 C640 0.930 . S
H647 C644 0.930 . S
C648 C650 1.348 . S
C648 C651 1.356 . S
C648 O678 1.325 . S
N649 C652 1.314 . S
N649 C653 1.279 . S
C650 C648 1.348 . S
C650 C652 1.353 . S
C650 H692 0.929 . S
C651 C648 1.356 . S
C651 C653 1.358 . S
C651 H693 0.930 . S
C652 N649 1.314 . S
C652 C650 1.353 . S
C652 H694 0.930 . S
C653 N649 1.279 . S
C653 C651 1.358 . S
C653 H695 0.930 . S
C654 C655 1.348 . S
C654 C656 1.356 . S
C654 O679 1.325 . S
C655 C654 1.348 . S
C655 C657 1.353 . S
C655 H696 0.929 . S
C656 C654 1.356 . S
C656 C658 1.358 . S
C656 H697 0.930 . S
C657 C655 1.353 . S
C657 N659 1.314 . S
C657 H698 0.930 . S
C658 C656 1.358 . S
C658 N659 1.279 . S
C658 H699 0.930 . S
N659 C657 1.314 . S
N659 C658 1.279 . S
C660 C662 1.353 . S
C660 N663 1.314 . S
C660 H666 0.930 . S
C661 N663 1.279 . S
C661 C664 1.358 . S
C661 H667 0.930 . S
C662 C660 1.353 . S
C662 C665 1.348 . S
C662 H700 0.929 . S
N663 Li618 1.990 . S
N663 C660 1.314 . S
N663 C661 1.279 . S
C664 C661 1.358 . S
C664 C665 1.356 . S
C664 H701 0.930 . S
C665 C662 1.348 . S
C665 C664 1.356 . S
H666 C660 0.930 . S
H667 C661 0.930 . S
C668 N669 1.314 . S
C668 C670 1.353 . S
C668 H674 0.930 . S
N669 Li619 1.990 . S
N669 C668 1.314 . S
N669 C672 1.279 . S
C670 C668 1.353 . S
C670 C673 1.348 . S
C670 H702 0.929 . S
C671 C672 1.358 . S
C671 C673 1.356 . S
C671 H703 0.930 . S
C672 N669 1.279 . S
C672 C671 1.358 . S
C672 H675 0.930 . S
C673 C670 1.348 . S
C673 C671 1.356 . S
H674 C668 0.930 . S
H675 C672 0.930 . S
O676 Li616 1.956 . S
O676 Li617 1.970 . S
O676 Li618 1.961 . S
O676 C620 1.325 . S
O677 Li616 1.970 . S
O677 Li617 1.956 . S
O677 Li619 1.961 . S
O677 C626 1.325 . S
O678 Li616 1.961 . S
O678 Li618 1.956 . S
O678 Li619 1.970 . S
O678 C648 1.325 . S
O679 Li617 1.961 . S
O679 Li618 1.970 . S
O679 Li619 1.956 . S
O679 C654 1.325 . S
H680 C622 0.929 . S
H681 C623 0.930 . S
H682 C624 0.930 . S
H683 C625 0.930 . S
H684 C627 0.930 . S
H685 C629 0.929 . S
H686 C630 0.930 . S
H687 C631 0.930 . S
H688 C634 0.930 . S
H689 C637 0.929 . S
H690 C642 0.929 . S
H691 C643 0.930 . S
H692 C650 0.929 . S
H693 C651 0.930 . S
H694 C652 0.930 . S
H695 C653 0.930 . S
H696 C655 0.929 . S
H697 C656 0.930 . S
H698 C657 0.930 . S
H699 C658 0.930 . S
H700 C662 0.929 . S
H701 C664 0.930 . S
H702 C670 0.929 . S
H703 C671 0.930 . S
Li704 N721 1.990 . S
Li704 O764 1.956 . S
Li704 O765 1.970 1_554 S
Li704 O766 1.961 1_554 S
Li705 N729 1.990 . S
Li705 O764 1.970 . S
Li705 O765 1.956 1_554 S
Li705 O767 1.961 1_554 S
Li706 N751 1.990 . S
Li706 O764 1.961 . S
Li706 O766 1.956 1_554 S
Li706 O767 1.970 1_554 S
Li707 N757 1.990 . S
Li707 O765 1.961 . S
Li707 O766 1.970 . S
Li707 O767 1.956 . S
C708 C710 1.348 . S
C708 C711 1.356 . S
C708 O764 1.325 . S
N709 C712 1.314 . S
N709 C713 1.279 . S
C710 C708 1.348 . S
C710 C712 1.353 . S
C710 H768 0.929 . S
C711 C708 1.356 . S
C711 C713 1.358 . S
C711 H769 0.930 . S
C712 N709 1.314 . S
C712 C710 1.353 . S
C712 H770 0.930 . S
C713 N709 1.279 . S
C713 C711 1.358 . S
C713 H771 0.930 . S
C714 C717 1.348 . S
C714 C718 1.356 . S
C714 O765 1.325 . S
C715 N716 1.279 . S
C715 C718 1.358 . S
C715 H772 0.930 . S
N716 C715 1.279 . S
N716 C719 1.314 . S
C717 C714 1.348 . S
C717 C719 1.353 . S
C717 H773 0.929 1_556 S
C718 C714 1.356 . S
C718 C715 1.358 . S
C718 H774 0.930 . S
C719 N716 1.314 . S
C719 C717 1.353 . S
C719 H775 0.930 . S
C720 N721 1.314 1_556 S
C720 C725 1.353 . S
C720 H726 0.930 . S
N721 Li704 1.990 . S
N721 C720 1.314 1_554 S
N721 C723 1.279 . S
C722 C723 1.358 . S
C722 C724 1.356 . S
C722 H776 0.930 . S
C723 N721 1.279 . S
C723 C722 1.358 . S
C723 H727 0.930 . S
C724 C722 1.356 . S
C724 C725 1.348 1_554 S
C725 C720 1.353 . S
C725 C724 1.348 1_556 S
C725 H777 0.929 . S
H726 C720 0.930 . S
H727 C723 0.930 . S
C728 N729 1.314 . S
C728 C730 1.353 . S
C728 H734 0.930 . S
N729 Li705 1.990 . S
N729 C728 1.314 . S
N729 C732 1.279 . S
C730 C728 1.353 . S
C730 C733 1.348 . S
C730 H778 0.929 . S
C731 C732 1.358 . S
C731 C733 1.356 . S
C731 H779 0.930 . S
C732 N729 1.279 . S
C732 C731 1.358 . S
C732 H735 0.930 . S
C733 C730 1.348 . S
C733 C731 1.356 . S
H734 C728 0.930 . S
H735 C732 0.930 . S
C736 C738 1.348 . S
C736 C739 1.356 . S
C736 O766 1.325 . S
N737 C740 1.314 . S
N737 C741 1.279 . S
C738 C736 1.348 . S
C738 C740 1.353 . S
C738 H780 0.929 . S
C739 C736 1.356 . S
C739 C741 1.358 . S
C739 H781 0.930 . S
C740 N737 1.314 . S
C740 C738 1.353 . S
C740 H782 0.930 . S
C741 N737 1.279 . S
C741 C739 1.358 . S
C741 H783 0.930 . S
C742 C743 1.348 . S
C742 C744 1.356 . S
C742 O767 1.325 . S
C743 C742 1.348 . S
C743 C745 1.353 . S
C743 H784 0.929 . S
C744 C742 1.356 . S
C744 C746 1.358 . S
C744 H785 0.930 . S
C745 C743 1.353 . S
C745 N747 1.314 . S
C745 H786 0.930 . S
C746 C744 1.358 . S
C746 N747 1.279 . S
C746 H787 0.930 . S
N747 C745 1.314 . S
N747 C746 1.279 . S
C748 C750 1.353 . S
C748 N751 1.314 . S
C748 H754 0.930 . S
C749 N751 1.279 1_556 S
C749 C752 1.352 1_556 S
C749 H755 0.930 . S
C750 C748 1.353 . S
C750 C753 1.348 . S
C750 H788 0.929 . S
N751 Li706 1.990 . S
N751 C748 1.314 . S
N751 C749 1.279 1_554 S
C752 C749 1.352 1_554 S
C752 C753 1.395 . S
C752 H789 0.898 1_554 S
C753 C750 1.348 . S
C753 C752 1.395 . S
H754 C748 0.930 . S
H755 C749 0.930 . S
C756 N757 1.314 . S
C756 C758 1.353 . S
C756 H762 0.930 . S
N757 Li707 1.990 . S
N757 C756 1.314 . S
N757 C760 1.279 . S
C758 C756 1.353 . S
C758 C761 1.348 . S
C758 H790 0.929 . S
C759 C760 1.358 . S
C759 C761 1.356 . S
C759 H791 0.930 . S
C760 N757 1.279 . S
C760 C759 1.358 . S
C760 H763 0.930 . S
C761 C758 1.348 . S
C761 C759 1.356 . S
H762 C756 0.930 . S
H763 C760 0.930 . S
O764 Li704 1.956 . S
O764 Li705 1.970 . S
O764 Li706 1.961 . S
O764 C708 1.325 . S
O765 Li704 1.970 1_556 S
O765 Li705 1.956 1_556 S
O765 Li707 1.961 . S
O765 C714 1.325 . S
O766 Li704 1.961 1_556 S
O766 Li706 1.956 1_556 S
O766 Li707 1.970 . S
O766 C736 1.325 . S
O767 Li705 1.961 1_556 S
O767 Li706 1.970 1_556 S
O767 Li707 1.956 . S
O767 C742 1.325 . S
H768 C710 0.929 . S
H769 C711 0.930 . S
H770 C712 0.930 . S
H771 C713 0.930 . S
H772 C715 0.930 . S
H773 C717 0.929 1_554 S
H774 C718 0.930 . S
H775 C719 0.930 . S
H776 C722 0.930 . S
H777 C725 0.929 . S
H778 C730 0.929 . S
H779 C731 0.930 . S
H780 C738 0.929 . S
H781 C739 0.930 . S
H782 C740 0.930 . S
H783 C741 0.930 . S
H784 C743 0.929 . S
H785 C744 0.930 . S
H786 C745 0.930 . S
H787 C746 0.930 . S
H788 C750 0.929 . S
H789 C752 0.898 1_556 S
H790 C758 0.929 . S
H791 C759 0.930 . S
Li792 N809 1.990 . S
Li792 O852 1.956 . S
Li792 O853 1.970 . S
Li792 O854 1.961 . S
Li793 N817 1.990 . S
Li793 O852 1.970 . S
Li793 O853 1.956 . S
Li793 O855 1.961 . S
Li794 N839 1.990 . S
Li794 O852 1.961 . S
Li794 O854 1.956 . S
Li794 O855 1.970 . S
Li795 N845 1.990 . S
Li795 O853 1.961 . S
Li795 O854 1.970 . S
Li795 O855 1.956 . S
C796 C798 1.348 . S
C796 C799 1.356 . S
C796 O852 1.325 . S
N797 C800 1.314 . S
N797 C801 1.279 . S
C798 C796 1.348 . S
C798 C800 1.353 . S
C798 H856 0.929 . S
C799 C796 1.356 . S
C799 C801 1.358 . S
C799 H857 0.930 . S
C800 N797 1.314 . S
C800 C798 1.353 . S
C800 H858 0.930 . S
C801 N797 1.279 . S
C801 C799 1.358 . S
C801 H859 0.930 . S
C802 C805 1.348 . S
C802 C806 1.356 . S
C802 O853 1.325 . S
C803 N804 1.279 . S
C803 C806 1.358 . S
C803 H860 0.930 . S
N804 C803 1.279 . S
N804 C807 1.314 . S
C805 C802 1.348 . S
C805 C807 1.353 . S
C805 H861 0.929 . S
C806 C802 1.356 . S
C806 C803 1.358 . S
C806 H862 0.930 . S
C807 N804 1.314 . S
C807 C805 1.353 . S
C807 H863 0.930 . S
C808 N809 1.314 . S
C808 C813 1.353 . S
C808 H814 0.930 . S
N809 Li792 1.990 . S
N809 C808 1.314 . S
N809 C811 1.279 . S
C810 C811 1.358 . S
C810 C812 1.356 . S
C810 H864 0.930 . S
C811 N809 1.279 . S
C811 C810 1.358 . S
C811 H815 0.930 . S
C812 C810 1.356 . S
C812 C813 1.348 . S
C813 C808 1.353 . S
C813 C812 1.348 . S
C813 H865 0.929 . S
H814 C808 0.930 . S
H815 C811 0.930 . S
C816 N817 1.314 . S
C816 C818 1.353 . S
C816 H822 0.930 . S
N817 Li793 1.990 . S
N817 C816 1.314 . S
N817 C820 1.279 . S
C818 C816 1.353 . S
C818 C821 1.348 . S
C818 H866 0.929 . S
C819 C820 1.358 . S
C819 C821 1.356 . S
C819 H867 0.930 . S
C820 N817 1.279 . S
C820 C819 1.358 . S
C820 H823 0.930 . S
C821 C818 1.348 . S
C821 C819 1.356 . S
H822 C816 0.930 . S
H823 C820 0.930 . S
C824 C826 1.348 . S
C824 C827 1.356 . S
C824 O854 1.325 . S
N825 C828 1.314 . S
N825 C829 1.279 . S
C826 C824 1.348 . S
C826 C828 1.353 . S
C826 H868 0.929 . S
C827 C824 1.356 . S
C827 C829 1.358 . S
C827 H869 0.930 . S
C828 N825 1.314 . S
C828 C826 1.353 . S
C828 H870 0.930 . S
C829 N825 1.279 . S
C829 C827 1.358 . S
C829 H871 0.930 . S
C830 C831 1.348 . S
C830 C832 1.356 . S
C830 O855 1.325 . S
C831 C830 1.348 . S
C831 C833 1.353 . S
C831 H872 0.929 . S
C832 C830 1.356 . S
C832 C834 1.358 . S
C832 H873 0.930 . S
C833 C831 1.353 . S
C833 N835 1.314 . S
C833 H874 0.930 . S
C834 C832 1.358 . S
C834 N835 1.279 . S
C834 H875 0.930 . S
N835 C833 1.314 . S
N835 C834 1.279 . S
C836 C838 1.353 . S
C836 N839 1.314 . S
C836 H842 0.930 . S
C837 N839 1.279 . S
C837 C840 1.358 . S
C837 H843 0.930 . S
C838 C836 1.353 . S
C838 C841 1.348 . S
C838 H876 0.929 . S
N839 Li794 1.990 . S
N839 C836 1.314 . S
N839 C837 1.279 . S
C840 C837 1.358 . S
C840 C841 1.356 . S
C840 H877 0.930 . S
C841 C838 1.348 . S
C841 C840 1.356 . S
H842 C836 0.930 . S
H843 C837 0.930 . S
C844 N845 1.314 . S
C844 C846 1.353 . S
C844 H850 0.930 . S
N845 Li795 1.990 . S
N845 C844 1.314 . S
N845 C848 1.279 . S
C846 C844 1.353 . S
C846 C849 1.348 . S
C846 H878 0.929 . S
C847 C848 1.358 . S
C847 C849 1.356 . S
C847 H879 0.930 . S
C848 N845 1.279 . S
C848 C847 1.358 . S
C848 H851 0.930 . S
C849 C846 1.348 . S
C849 C847 1.356 . S
H850 C844 0.930 . S
H851 C848 0.930 . S
O852 Li792 1.956 . S
O852 Li793 1.970 . S
O852 Li794 1.961 . S
O852 C796 1.325 . S
O853 Li792 1.970 . S
O853 Li793 1.956 . S
O853 Li795 1.961 . S
O853 C802 1.325 . S
O854 Li792 1.961 . S
O854 Li794 1.956 . S
O854 Li795 1.970 . S
O854 C824 1.325 . S
O855 Li793 1.961 . S
O855 Li794 1.970 . S
O855 Li795 1.956 . S
O855 C830 1.325 . S
H856 C798 0.929 . S
H857 C799 0.930 . S
H858 C800 0.930 . S
H859 C801 0.930 . S
H860 C803 0.930 . S
H861 C805 0.929 . S
H862 C806 0.930 . S
H863 C807 0.930 . S
H864 C810 0.930 . S
H865 C813 0.929 . S
H866 C818 0.929 . S
H867 C819 0.930 . S
H868 C826 0.929 . S
H869 C827 0.930 . S
H870 C828 0.930 . S
H871 C829 0.930 . S
H872 C831 0.929 . S
H873 C832 0.930 . S
H874 C833 0.930 . S
H875 C834 0.930 . S
H876 C838 0.929 . S
H877 C840 0.930 . S
H878 C846 0.929 . S
H879 C847 0.930 . S
Li880 N897 1.990 . S
Li880 O940 1.956 . S
Li880 O941 1.970 . S
Li880 O942 1.961 . S
Li881 N905 1.990 . S
Li881 O940 1.970 . S
Li881 O941 1.956 . S
Li881 O943 1.961 . S
Li882 N927 1.990 . S
Li882 O940 1.961 . S
Li882 O942 1.956 . S
Li882 O943 1.970 . S
Li883 N933 1.990 . S
Li883 O941 1.961 . S
Li883 O942 1.970 . S
Li883 O943 1.956 . S
C884 C886 1.348 . S
C884 C887 1.356 . S
C884 O940 1.325 . S
N885 C888 1.314 . S
N885 C889 1.279 . S
C886 C884 1.348 . S
C886 C888 1.353 . S
C886 H944 0.929 . S
C887 C884 1.356 . S
C887 C889 1.358 . S
C887 H945 0.930 . S
C888 N885 1.314 . S
C888 C886 1.353 . S
C888 H946 0.930 . S
C889 N885 1.279 . S
C889 C887 1.358 . S
C889 H947 0.930 . S
C890 C893 1.348 . S
C890 C894 1.356 . S
C890 O941 1.325 . S
C891 N892 1.279 . S
C891 C894 1.358 . S
C891 H948 0.930 . S
N892 C891 1.279 . S
N892 C895 1.314 . S
C893 C890 1.348 . S
C893 C895 1.353 . S
C893 H949 0.929 . S
C894 C890 1.356 . S
C894 C891 1.358 . S
C894 H950 0.930 . S
C895 N892 1.314 . S
C895 C893 1.353 . S
C895 H951 0.930 . S
C896 N897 1.314 . S
C896 C901 1.353 . S
C896 H902 0.930 . S
N897 Li880 1.990 . S
N897 C896 1.314 . S
N897 C899 1.279 . S
C898 C899 1.358 . S
C898 C900 1.356 . S
C898 H952 0.930 . S
C899 N897 1.279 . S
C899 C898 1.358 . S
C899 H903 0.930 . S
C900 C898 1.356 . S
C900 C901 1.348 . S
C901 C896 1.353 . S
C901 C900 1.348 . S
C901 H953 0.929 . S
H902 C896 0.930 . S
H903 C899 0.930 . S
C904 N905 1.314 . S
C904 C906 1.353 . S
C904 H910 0.930 . S
N905 Li881 1.990 . S
N905 C904 1.314 . S
N905 C908 1.279 . S
C906 C904 1.353 . S
C906 C909 1.348 . S
C906 H954 0.929 . S
C907 C908 1.358 . S
C907 C909 1.356 . S
C907 H955 0.930 . S
C908 N905 1.279 . S
C908 C907 1.358 . S
C908 H911 0.930 . S
C909 C906 1.348 . S
C909 C907 1.356 . S
H910 C904 0.930 . S
H911 C908 0.930 . S
C912 C914 1.348 . S
C912 C915 1.356 . S
C912 O942 1.325 . S
N913 C916 1.314 . S
N913 C917 1.279 . S
C914 C912 1.348 . S
C914 C916 1.353 . S
C914 H956 0.929 . S
C915 C912 1.356 . S
C915 C917 1.358 . S
C915 H957 0.930 . S
C916 N913 1.314 . S
C916 C914 1.353 . S
C916 H958 0.930 . S
C917 N913 1.279 . S
C917 C915 1.358 . S
C917 H959 0.930 . S
C918 C919 1.348 . S
C918 C920 1.356 . S
C918 O943 1.325 . S
C919 C918 1.348 . S
C919 C921 1.353 . S
C919 H960 0.929 . S
C920 C918 1.356 . S
C920 C922 1.358 . S
C920 H961 0.930 . S
C921 C919 1.353 . S
C921 N923 1.314 . S
C921 H962 0.930 . S
C922 C920 1.358 . S
C922 N923 1.279 . S
C922 H963 0.930 . S
N923 C921 1.314 . S
N923 C922 1.279 . S
C924 C926 1.353 . S
C924 N927 1.314 . S
C924 H930 0.930 . S
C925 N927 1.279 . S
C925 C928 1.358 . S
C925 H931 0.930 . S
C926 C924 1.353 . S
C926 C929 1.348 . S
C926 H964 0.929 . S
N927 Li882 1.990 . S
N927 C924 1.314 . S
N927 C925 1.279 . S
C928 C925 1.358 . S
C928 C929 1.356 . S
C928 H965 0.930 . S
C929 C926 1.348 . S
C929 C928 1.356 . S
H930 C924 0.930 . S
H931 C925 0.930 . S
C932 N933 1.314 . S
C932 C934 1.353 . S
C932 H938 0.930 . S
N933 Li883 1.990 . S
N933 C932 1.314 . S
N933 C936 1.279 . S
C934 C932 1.353 . S
C934 C937 1.348 . S
C934 H966 0.929 . S
C935 C936 1.358 . S
C935 C937 1.356 . S
C935 H967 0.930 . S
C936 N933 1.279 . S
C936 C935 1.358 . S
C936 H939 0.930 . S
C937 C934 1.348 . S
C937 C935 1.356 . S
H938 C932 0.930 . S
H939 C936 0.930 . S
O940 Li880 1.956 . S
O940 Li881 1.970 . S
O940 Li882 1.961 . S
O940 C884 1.325 . S
O941 Li880 1.970 . S
O941 Li881 1.956 . S
O941 Li883 1.961 . S
O941 C890 1.325 . S
O942 Li880 1.961 . S
O942 Li882 1.956 . S
O942 Li883 1.970 . S
O942 C912 1.325 . S
O943 Li881 1.961 . S
O943 Li882 1.970 . S
O943 Li883 1.956 . S
O943 C918 1.325 . S
H944 C886 0.929 . S
H945 C887 0.930 . S
H946 C888 0.930 . S
H947 C889 0.930 . S
H948 C891 0.930 . S
H949 C893 0.929 . S
H950 C894 0.930 . S
H951 C895 0.930 . S
H952 C898 0.930 . S
H953 C901 0.929 . S
H954 C906 0.929 . S
H955 C907 0.930 . S
H956 C914 0.929 . S
H957 C915 0.930 . S
H958 C916 0.930 . S
H959 C917 0.930 . S
H960 C919 0.929 . S
H961 C920 0.930 . S
H962 C921 0.930 . S
H963 C922 0.930 . S
H964 C926 0.929 . S
H965 C928 0.930 . S
H966 C934 0.929 . S
H967 C935 0.930 . S
Li968 N985 1.990 . S
Li968 O1028 1.956 . S
Li968 O1029 1.970 1_554 S
Li968 O1030 1.961 1_554 S
Li969 N993 1.990 . S
Li969 O1028 1.970 . S
Li969 O1029 1.956 1_554 S
Li969 O1031 1.961 1_554 S
Li970 N1015 1.990 . S
Li970 O1028 1.961 . S
Li970 O1030 1.956 1_554 S
Li970 O1031 1.970 1_554 S
Li971 N1021 1.990 . S
Li971 O1029 1.961 . S
Li971 O1030 1.970 . S
Li971 O1031 1.956 . S
C972 C974 1.348 . S
C972 C975 1.356 . S
C972 O1028 1.325 . S
N973 C976 1.314 . S
N973 C977 1.279 . S
C974 C972 1.348 . S
C974 C976 1.353 . S
C974 H1032 0.929 . S
C975 C972 1.356 . S
C975 C977 1.358 . S
C975 H1033 0.930 . S
C976 N973 1.314 . S
C976 C974 1.353 . S
C976 H1034 0.930 . S
C977 N973 1.279 . S
C977 C975 1.358 . S
C977 H1035 0.930 . S
C978 C981 1.348 . S
C978 C982 1.356 . S
C978 O1029 1.325 . S
C979 N980 1.279 . S
C979 C982 1.358 . S
C979 H1036 0.930 . S
N980 C979 1.279 . S
N980 C983 1.314 . S
C981 C978 1.348 . S
C981 C983 1.353 . S
C981 H1037 0.929 1_556 S
C982 C978 1.356 . S
C982 C979 1.358 . S
C982 H1038 0.930 . S
C983 N980 1.314 . S
C983 C981 1.353 . S
C983 H1039 0.930 . S
C984 N985 1.314 1_556 S
C984 C989 1.353 . S
C984 H990 0.930 . S
N985 Li968 1.990 . S
N985 C984 1.314 1_554 S
N985 C987 1.279 . S
C986 C987 1.358 . S
C986 C988 1.356 . S
C986 H1040 0.930 . S
C987 N985 1.279 . S
C987 C986 1.358 . S
C987 H991 0.930 . S
C988 C986 1.356 . S
C988 C989 1.348 1_554 S
C989 C984 1.353 . S
C989 C988 1.348 1_556 S
C989 H1041 0.929 . S
H990 C984 0.930 . S
H991 C987 0.930 . S
C992 N993 1.314 . S
C992 C994 1.353 . S
C992 H998 0.930 . S
N993 Li969 1.990 . S
N993 C992 1.314 . S
N993 C996 1.279 . S
C994 C992 1.353 . S
C994 C997 1.348 . S
C994 H1042 0.929 . S
C995 C996 1.358 . S
C995 C997 1.356 . S
C995 H1043 0.930 . S
C996 N993 1.279 . S
C996 C995 1.358 . S
C996 H999 0.930 . S
C997 C994 1.348 . S
C997 C995 1.356 . S
H998 C992 0.930 . S
H999 C996 0.930 . S
C1000 C1002 1.348 . S
C1000 C1003 1.356 . S
C1000 O1030 1.325 . S
N1001 C1004 1.314 . S
N1001 C1005 1.279 . S
C1002 C1000 1.348 . S
C1002 C1004 1.353 . S
C1002 H1044 0.929 . S
C1003 C1000 1.356 . S
C1003 C1005 1.358 . S
C1003 H1045 0.930 . S
C1004 N1001 1.314 . S
C1004 C1002 1.353 . S
C1004 H1046 0.930 . S
C1005 N1001 1.279 . S
C1005 C1003 1.358 . S
C1005 H1047 0.930 . S
C1006 C1007 1.348 . S
C1006 C1008 1.356 . S
C1006 O1031 1.325 . S
C1007 C1006 1.348 . S
C1007 C1009 1.353 . S
C1007 H1048 0.929 . S
C1008 C1006 1.356 . S
C1008 C1010 1.358 . S
C1008 H1049 0.930 . S
C1009 C1007 1.353 . S
C1009 N1011 1.314 . S
C1009 H1050 0.930 . S
C1010 C1008 1.358 . S
C1010 N1011 1.279 . S
C1010 H1051 0.930 . S
N1011 C1009 1.314 . S
N1011 C1010 1.279 . S
C1012 C1014 1.353 . S
C1012 N1015 1.314 . S
C1012 H1018 0.930 . S
C1013 N1015 1.279 1_556 S
C1013 C1016 1.352 1_556 S
C1013 H1019 0.930 . S
C1014 C1012 1.353 . S
C1014 C1017 1.348 . S
C1014 H1052 0.929 . S
N1015 Li970 1.990 . S
N1015 C1012 1.314 . S
N1015 C1013 1.279 1_554 S
C1016 C1013 1.352 1_554 S
C1016 C1017 1.395 . S
C1016 H1053 0.898 1_554 S
C1017 C1014 1.348 . S
C1017 C1016 1.395 . S
H1018 C1012 0.930 . S
H1019 C1013 0.930 . S
C1020 N1021 1.314 . S
C1020 C1022 1.353 . S
C1020 H1026 0.930 . S
N1021 Li971 1.990 . S
N1021 C1020 1.314 . S
N1021 C1024 1.279 . S
C1022 C1020 1.353 . S
C1022 C1025 1.348 . S
C1022 H1054 0.929 . S
C1023 C1024 1.358 . S
C1023 C1025 1.356 . S
C1023 H1055 0.930 . S
C1024 N1021 1.279 . S
C1024 C1023 1.358 . S
C1024 H1027 0.930 . S
C1025 C1022 1.348 . S
C1025 C1023 1.356 . S
H1026 C1020 0.930 . S
H1027 C1024 0.930 . S
O1028 Li968 1.956 . S
O1028 Li969 1.970 . S
O1028 Li970 1.961 . S
O1028 C972 1.325 . S
O1029 Li968 1.970 1_556 S
O1029 Li969 1.956 1_556 S
O1029 Li971 1.961 . S
O1029 C978 1.325 . S
O1030 Li968 1.961 1_556 S
O1030 Li970 1.956 1_556 S
O1030 Li971 1.970 . S
O1030 C1000 1.325 . S
O1031 Li969 1.961 1_556 S
O1031 Li970 1.970 1_556 S
O1031 Li971 1.956 . S
O1031 C1006 1.325 . S
H1032 C974 0.929 . S
H1033 C975 0.930 . S
H1034 C976 0.930 . S
H1035 C977 0.930 . S
H1036 C979 0.930 . S
H1037 C981 0.929 1_554 S
H1038 C982 0.930 . S
H1039 C983 0.930 . S
H1040 C986 0.930 . S
H1041 C989 0.929 . S
H1042 C994 0.929 . S
H1043 C995 0.930 . S
H1044 C1002 0.929 . S
H1045 C1003 0.930 . S
H1046 C1004 0.930 . S
H1047 C1005 0.930 . S
H1048 C1007 0.929 . S
H1049 C1008 0.930 . S
H1050 C1009 0.930 . S
H1051 C1010 0.930 . S
H1052 C1014 0.929 . S
H1053 C1016 0.898 1_556 S
H1054 C1022 0.929 . S
H1055 C1023 0.930 . S
C1056 C1057 1.349 . S
C1056 C1058 1.327 . S
C1056 H1081 0.950 . S
C1057 C1056 1.349 . S
C1057 C1073 1.349 . S
C1058 C1056 1.327 . S
C1058 C1077 1.429 . S
C1058 H1082 0.950 . S
C1059 C1076 1.574 . S
C1059 C1078 1.368 . S
C1059 H1083 0.949 . S
H1060 C1064 0.949 . S
C1061 C1062 1.349 . S
C1061 C1063 1.327 . S
C1061 H1084 0.950 . S
C1062 C1061 1.349 . S
C1062 C1074 1.349 . S
C1063 C1061 1.327 . S
C1063 C1079 1.429 . S
C1063 H1085 0.950 . S
C1064 H1060 0.949 . S
C1064 C1072 1.574 . S
C1064 C1080 1.368 . S
H1065 C1073 0.950 . S
H1066 C1071 0.950 . S
H1067 C1072 0.949 . S
H1068 C1074 0.950 . S
H1069 C1075 0.950 . S
H1070 C1076 0.949 . S
C1071 H1066 0.950 . S
C1071 C1073 1.327 . S
C1071 C1077 1.429 . S
C1072 C1064 1.574 . S
C1072 H1067 0.949 . S
C1072 C1078 1.368 . S
C1073 C1057 1.349 . S
C1073 H1065 0.950 . S
C1073 C1071 1.327 . S
C1074 C1062 1.349 . S
C1074 H1068 0.950 . S
C1074 C1075 1.327 . S
C1075 H1069 0.950 . S
C1075 C1074 1.327 . S
C1075 C1079 1.429 . S
C1076 C1059 1.574 . S
C1076 H1070 0.949 . S
C1076 C1080 1.368 . S
C1077 C1058 1.429 . S
C1077 C1071 1.429 . S
C1077 C1078 1.523 . S
C1078 C1059 1.368 . S
C1078 C1072 1.368 . S
C1078 C1077 1.523 . S
C1079 C1063 1.429 . S
C1079 C1075 1.429 . S
C1079 C1080 1.523 . S
C1080 C1064 1.368 . S
C1080 C1076 1.368 . S
C1080 C1079 1.523 . S
H1081 C1056 0.950 . S
H1082 C1058 0.950 . S
H1083 C1059 0.949 . S
H1084 C1061 0.950 . S
H1085 C1063 0.950 . S
C1086 C1087 1.349 . S
C1086 C1088 1.327 . S
C1086 H1111 0.950 . S
C1087 C1086 1.349 . S
C1087 C1103 1.349 . S
C1088 C1086 1.327 . S
C1088 C1107 1.429 . S
C1088 H1112 0.950 . S
C1089 C1106 1.574 . S
C1089 C1108 1.368 . S
C1089 H1113 0.949 . S
H1090 C1094 0.949 . S
C1091 C1092 1.349 . S
C1091 C1093 1.327 . S
C1091 H1114 0.950 . S
C1092 C1091 1.349 . S
C1092 C1104 1.349 . S
C1093 C1091 1.327 . S
C1093 C1109 1.429 . S
C1093 H1115 0.950 . S
C1094 H1090 0.949 . S
C1094 C1102 1.574 . S
C1094 C1110 1.368 . S
H1095 C1103 0.950 . S
H1096 C1101 0.950 . S
H1097 C1102 0.949 . S
H1098 C1104 0.950 . S
H1099 C1105 0.950 . S
H1100 C1106 0.949 . S
C1101 H1096 0.950 . S
C1101 C1103 1.327 . S
C1101 C1107 1.429 . S
C1102 C1094 1.574 . S
C1102 H1097 0.949 . S
C1102 C1108 1.368 . S
C1103 C1087 1.349 . S
C1103 H1095 0.950 . S
C1103 C1101 1.327 . S
C1104 C1092 1.349 . S
C1104 H1098 0.950 . S
C1104 C1105 1.327 . S
C1105 H1099 0.950 . S
C1105 C1104 1.327 . S
C1105 C1109 1.429 . S
C1106 C1089 1.574 . S
C1106 H1100 0.949 . S
C1106 C1110 1.368 . S
C1107 C1088 1.429 . S
C1107 C1101 1.429 . S
C1107 C1108 1.523 . S
C1108 C1089 1.368 . S
C1108 C1102 1.368 . S
C1108 C1107 1.523 . S
C1109 C1093 1.429 . S
C1109 C1105 1.429 . S
C1109 C1110 1.523 . S
C1110 C1094 1.368 . S
C1110 C1106 1.368 . S
C1110 C1109 1.523 . S
H1111 C1086 0.950 . S
H1112 C1088 0.950 . S
H1113 C1089 0.949 . S
H1114 C1091 0.950 . S
H1115 C1093 0.950 . S
C1116 C1117 1.349 . S
C1116 C1118 1.327 . S
C1116 H1141 0.947 1_556 S
C1117 C1116 1.349 . S
C1117 C1133 1.349 . S
C1118 C1116 1.327 . S
C1118 C1137 1.429 . S
C1118 H1142 0.950 1_556 S
C1119 C1136 1.574 . S
C1119 C1138 1.368 . S
C1119 H1143 0.949 . S
H1120 C1124 0.949 . S
C1121 C1122 1.349 . S
C1121 C1123 1.338 . S
C1121 H1144 0.942 1_554 S
C1122 C1121 1.349 . S
C1122 C1134 1.349 . S
C1123 C1121 1.338 . S
C1123 C1139 1.447 . S
C1123 H1145 0.922 1_554 S
C1124 H1120 0.949 . S
C1124 C1132 1.574 . S
C1124 C1140 1.368 . S
H1125 C1133 0.950 . S
H1126 C1131 0.950 . S
H1127 C1132 0.949 . S
H1128 C1134 0.950 . S
H1129 C1135 0.950 . S
H1130 C1136 0.949 . S
C1131 H1126 0.950 . S
C1131 C1133 1.327 . S
C1131 C1137 1.429 . S
C1132 C1124 1.574 . S
C1132 H1127 0.949 . S
C1132 C1138 1.368 1_554 S
C1133 C1117 1.349 . S
C1133 H1125 0.950 . S
C1133 C1131 1.327 . S
C1134 C1122 1.349 . S
C1134 H1128 0.950 . S
C1134 C1135 1.327 . S
C1135 H1129 0.950 . S
C1135 C1134 1.327 . S
C1135 C1139 1.429 . S
C1136 C1119 1.574 . S
C1136 H1130 0.949 . S
C1136 C1140 1.368 1_556 S
C1137 C1118 1.429 . S
C1137 C1131 1.429 . S
C1137 C1138 1.523 . S
C1138 C1119 1.368 . S
C1138 C1132 1.368 1_556 S
C1138 C1137 1.523 . S
C1139 C1123 1.447 . S
C1139 C1135 1.429 . S
C1139 C1140 1.523 . S
C1140 C1124 1.368 . S
C1140 C1136 1.368 1_554 S
C1140 C1139 1.523 . S
H1141 C1116 0.947 1_554 S
H1142 C1118 0.950 1_554 S
H1143 C1119 0.949 . S
H1144 C1121 0.942 1_556 S
H1145 C1123 0.922 1_556 S
C1146 C1147 1.349 . S
C1146 C1148 1.327 . S
C1146 H1171 0.950 . S
C1147 C1146 1.349 . S
C1147 C1163 1.349 . S
C1148 C1146 1.327 . S
C1148 C1167 1.429 . S
C1148 H1172 0.950 . S
C1149 C1166 1.574 . S
C1149 C1168 1.368 . S
C1149 H1173 0.949 . S
H1150 C1154 0.949 . S
C1151 C1152 1.349 . S
C1151 C1153 1.327 . S
C1151 H1174 0.950 . S
C1152 C1151 1.349 . S
C1152 C1164 1.349 . S
C1153 C1151 1.327 . S
C1153 C1169 1.429 . S
C1153 H1175 0.950 . S
C1154 H1150 0.949 . S
C1154 C1162 1.574 . S
C1154 C1170 1.368 . S
H1155 C1163 0.950 . S
H1156 C1161 0.950 . S
H1157 C1162 0.949 . S
H1158 C1164 0.950 . S
H1159 C1165 0.950 . S
H1160 C1166 0.949 . S
C1161 H1156 0.950 . S
C1161 C1163 1.327 . S
C1161 C1167 1.429 . S
C1162 C1154 1.574 . S
C1162 H1157 0.949 . S
C1162 C1168 1.368 . S
C1163 C1147 1.349 . S
C1163 H1155 0.950 . S
C1163 C1161 1.327 . S
C1164 C1152 1.349 . S
C1164 H1158 0.950 . S
C1164 C1165 1.327 . S
C1165 H1159 0.950 . S
C1165 C1164 1.327 . S
C1165 C1169 1.429 . S
C1166 C1149 1.574 . S
C1166 H1160 0.949 . S
C1166 C1170 1.368 . S
C1167 C1148 1.429 . S
C1167 C1161 1.429 . S
C1167 C1168 1.523 . S
C1168 C1149 1.368 . S
C1168 C1162 1.368 . S
C1168 C1167 1.523 . S
C1169 C1153 1.429 . S
C1169 C1165 1.429 . S
C1169 C1170 1.523 . S
C1170 C1154 1.368 . S
C1170 C1166 1.368 . S
C1170 C1169 1.523 . S
H1171 C1146 0.950 . S
H1172 C1148 0.950 . S
H1173 C1149 0.949 . S
H1174 C1151 0.950 . S
H1175 C1153 0.950 . S
C1176 C1177 1.349 . S
C1176 C1178 1.327 . S
C1176 H1201 0.950 . S
C1177 C1176 1.349 . S
C1177 C1193 1.349 . S
C1178 C1176 1.327 . S
C1178 C1197 1.429 . S
C1178 H1202 0.950 . S
C1179 C1196 1.574 . S
C1179 C1198 1.368 . S
C1179 H1203 0.949 . S
H1180 C1184 0.949 . S
C1181 C1182 1.349 . S
C1181 C1183 1.327 . S
C1181 H1204 0.950 . S
C1182 C1181 1.349 . S
C1182 C1194 1.349 . S
C1183 C1181 1.327 . S
C1183 C1199 1.429 . S
C1183 H1205 0.950 . S
C1184 H1180 0.949 . S
C1184 C1192 1.574 . S
C1184 C1200 1.368 . S
H1185 C1193 0.950 . S
H1186 C1191 0.950 . S
H1187 C1192 0.949 . S
H1188 C1194 0.950 . S
H1189 C1195 0.950 . S
H1190 C1196 0.949 . S
C1191 H1186 0.950 . S
C1191 C1193 1.327 . S
C1191 C1197 1.429 . S
C1192 C1184 1.574 . S
C1192 H1187 0.949 . S
C1192 C1198 1.368 . S
C1193 C1177 1.349 . S
C1193 H1185 0.950 . S
C1193 C1191 1.327 . S
C1194 C1182 1.349 . S
C1194 H1188 0.950 . S
C1194 C1195 1.327 . S
C1195 H1189 0.950 . S
C1195 C1194 1.327 . S
C1195 C1199 1.429 . S
C1196 C1179 1.574 . S
C1196 H1190 0.949 . S
C1196 C1200 1.368 . S
C1197 C1178 1.429 . S
C1197 C1191 1.429 . S
C1197 C1198 1.523 . S
C1198 C1179 1.368 . S
C1198 C1192 1.368 . S
C1198 C1197 1.523 . S
C1199 C1183 1.429 . S
C1199 C1195 1.429 . S
C1199 C1200 1.523 . S
C1200 C1184 1.368 . S
C1200 C1196 1.368 . S
C1200 C1199 1.523 . S
H1201 C1176 0.950 . S
H1202 C1178 0.950 . S
H1203 C1179 0.949 . S
H1204 C1181 0.950 . S
H1205 C1183 0.950 . S
C1206 C1207 1.349 . S
C1206 C1208 1.327 . S
C1206 H1231 0.956 . S
C1207 C1206 1.349 . S
C1207 C1223 1.349 . S
C1208 C1206 1.327 . S
C1208 C1227 1.429 . S
C1208 H1232 0.950 1_554 S
C1209 C1226 1.574 . S
C1209 C1228 1.368 . S
C1209 H1233 0.949 . S
H1210 C1214 0.949 . S
C1211 C1212 1.349 . S
C1211 C1213 1.327 . S
C1211 H1234 0.951 . S
C1212 C1211 1.349 . S
C1212 C1224 1.349 . S
C1213 C1211 1.327 . S
C1213 C1229 1.429 . S
C1213 H1235 0.950 1_556 S
C1214 H1210 0.949 . S
C1214 C1222 1.574 . S
C1214 C1230 1.368 . S
H1215 C1223 0.950 . S
H1216 C1221 0.950 . S
H1217 C1222 0.949 . S
H1218 C1224 0.950 . S
H1219 C1225 0.950 . S
H1220 C1226 0.949 . S
C1221 H1216 0.950 . S
C1221 C1223 1.327 . S
C1221 C1227 1.429 . S
C1222 C1214 1.574 . S
C1222 H1217 0.949 . S
C1222 C1228 1.368 1_556 S
C1223 C1207 1.349 . S
C1223 H1215 0.950 . S
C1223 C1221 1.327 . S
C1224 C1212 1.349 . S
C1224 H1218 0.950 . S
C1224 C1225 1.327 . S
C1225 H1219 0.950 . S
C1225 C1224 1.327 . S
C1225 C1229 1.429 . S
C1226 C1209 1.574 . S
C1226 H1220 0.949 . S
C1226 C1230 1.368 1_554 S
C1227 C1208 1.429 . S
C1227 C1221 1.429 . S
C1227 C1228 1.523 . S
C1228 C1209 1.368 . S
C1228 C1222 1.368 1_554 S
C1228 C1227 1.523 . S
C1229 C1213 1.429 . S
C1229 C1225 1.429 . S
C1229 C1230 1.523 . S
C1230 C1214 1.368 . S
C1230 C1226 1.368 1_556 S
C1230 C1229 1.523 . S
H1231 C1206 0.956 . S
H1232 C1208 0.950 1_556 S
H1233 C1209 0.949 . S
H1234 C1211 0.951 . S
H1235 C1213 0.950 1_554 S
C1236 C1237 1.349 . S
C1236 C1238 1.327 . S
C1236 H1261 0.950 . S
C1237 C1236 1.349 . S
C1237 C1253 1.349 . S
C1238 C1236 1.327 . S
C1238 C1257 1.429 . S
C1238 H1262 0.950 . S
C1239 C1256 1.574 . S
C1239 C1258 1.368 . S
C1239 H1263 0.949 . S
H1240 C1244 0.949 . S
C1241 C1242 1.349 . S
C1241 C1243 1.327 . S
C1241 H1264 0.950 . S
C1242 C1241 1.349 . S
C1242 C1254 1.349 . S
C1243 C1241 1.327 . S
C1243 C1259 1.429 . S
C1243 H1265 0.950 . S
C1244 H1240 0.949 . S
C1244 C1252 1.574 . S
C1244 C1260 1.368 . S
H1245 C1253 0.950 . S
H1246 C1251 0.950 . S
H1247 C1252 0.949 . S
H1248 C1254 0.950 . S
H1249 C1255 0.950 . S
H1250 C1256 0.949 . S
C1251 H1246 0.950 . S
C1251 C1253 1.327 . S
C1251 C1257 1.429 . S
C1252 C1244 1.574 . S
C1252 H1247 0.949 . S
C1252 C1258 1.368 . S
C1253 C1237 1.349 . S
C1253 H1245 0.950 . S
C1253 C1251 1.327 . S
C1254 C1242 1.349 . S
C1254 H1248 0.950 . S
C1254 C1255 1.327 . S
C1255 H1249 0.950 . S
C1255 C1254 1.327 . S
C1255 C1259 1.429 . S
C1256 C1239 1.574 . S
C1256 H1250 0.949 . S
C1256 C1260 1.368 . S
C1257 C1238 1.429 . S
C1257 C1251 1.429 . S
C1257 C1258 1.523 . S
C1258 C1239 1.368 . S
C1258 C1252 1.368 . S
C1258 C1257 1.523 . S
C1259 C1243 1.429 . S
C1259 C1255 1.429 . S
C1259 C1260 1.523 . S
C1260 C1244 1.368 . S
C1260 C1256 1.368 . S
C1260 C1259 1.523 . S
H1261 C1236 0.950 . S
H1262 C1238 0.950 . S
H1263 C1239 0.949 . S
H1264 C1241 0.950 . S
H1265 C1243 0.950 . S
C1266 C1267 1.349 . S
C1266 C1268 1.327 . S
C1266 H1291 0.950 . S
C1267 C1266 1.349 . S
C1267 C1283 1.349 . S
C1268 C1266 1.327 . S
C1268 C1287 1.429 . S
C1268 H1292 0.950 . S
C1269 C1286 1.574 1_655 S
C1269 C1288 1.368 . S
C1269 H1293 0.949 . S
H1270 C1274 0.949 . S
C1271 C1272 1.349 . S
C1271 C1273 1.327 . S
C1271 H1294 0.950 . S
C1272 C1271 1.349 . S
C1272 C1284 1.349 . S
C1273 C1271 1.327 . S
C1273 C1289 1.429 . S
C1273 H1295 0.950 . S
C1274 H1270 0.949 . S
C1274 C1282 1.574 1_455 S
C1274 C1290 1.368 . S
H1275 C1283 0.950 . S
H1276 C1281 0.950 . S
H1277 C1282 0.949 . S
H1278 C1284 0.950 . S
H1279 C1285 0.950 . S
H1280 C1286 0.949 . S
C1281 H1276 0.950 . S
C1281 C1283 1.327 . S
C1281 C1287 1.429 . S
C1282 C1274 1.574 1_655 S
C1282 H1277 0.949 . S
C1282 C1288 1.368 . S
C1283 C1267 1.349 . S
C1283 H1275 0.950 . S
C1283 C1281 1.327 . S
C1284 C1272 1.349 . S
C1284 H1278 0.950 . S
C1284 C1285 1.327 . S
C1285 H1279 0.950 . S
C1285 C1284 1.327 . S
C1285 C1289 1.429 . S
C1286 C1269 1.574 1_455 S
C1286 H1280 0.949 . S
C1286 C1290 1.368 . S
C1287 C1268 1.429 . S
C1287 C1281 1.429 . S
C1287 C1288 1.523 . S
C1288 C1269 1.368 . S
C1288 C1282 1.368 . S
C1288 C1287 1.523 . S
C1289 C1273 1.429 . S
C1289 C1285 1.429 . S
C1289 C1290 1.523 . S
C1290 C1274 1.368 . S
C1290 C1286 1.368 . S
C1290 C1289 1.523 . S
H1291 C1266 0.950 . S
H1292 C1268 0.950 . S
H1293 C1269 0.949 . S
H1294 C1271 0.950 . S
H1295 C1273 0.950 . S
C1296 C1297 1.349 1_556 S
C1296 C1298 1.327 . S
C1296 H1321 0.950 . S
C1297 C1296 1.349 1_554 S
C1297 C1313 1.349 . S
C1298 C1296 1.327 . S
C1298 C1317 1.429 1_556 S
C1298 H1322 0.950 . S
C1299 C1316 1.574 1_545 S
C1299 C1318 1.368 . S
C1299 H1323 0.949 . S
H1300 C1304 0.949 . S
C1301 C1302 1.349 1_554 S
C1301 C1303 1.327 . S
C1301 H1324 0.950 . S
C1302 C1301 1.349 1_556 S
C1302 C1314 1.349 . S
C1303 C1301 1.327 . S
C1303 C1319 1.429 1_554 S
C1303 H1325 0.950 . S
C1304 H1300 0.949 . S
C1304 C1312 1.574 1_565 S
C1304 C1320 1.368 . S
H1305 C1313 0.950 . S
H1306 C1311 0.950 . S
H1307 C1312 0.949 . S
H1308 C1314 0.950 . S
H1309 C1315 0.950 . S
H1310 C1316 0.949 . S
C1311 H1306 0.950 . S
C1311 C1313 1.327 . S
C1311 C1317 1.429 . S
C1312 C1304 1.574 1_545 S
C1312 H1307 0.949 . S
C1312 C1318 1.368 1_556 S
C1313 C1297 1.349 . S
C1313 H1305 0.950 . S
C1313 C1311 1.327 . S
C1314 C1302 1.349 . S
C1314 H1308 0.950 . S
C1314 C1315 1.327 . S
C1315 H1309 0.950 . S
C1315 C1314 1.327 . S
C1315 C1319 1.429 . S
C1316 C1299 1.574 1_565 S
C1316 H1310 0.949 . S
C1316 C1320 1.368 1_554 S
C1317 C1298 1.429 1_554 S
C1317 C1311 1.429 . S
C1317 C1318 1.523 . S
C1318 C1299 1.368 . S
C1318 C1312 1.368 1_554 S
C1318 C1317 1.523 . S
C1319 C1303 1.429 1_556 S
C1319 C1315 1.429 . S
C1319 C1320 1.523 . S
C1320 C1304 1.368 . S
C1320 C1316 1.368 1_556 S
C1320 C1319 1.523 . S
H1321 C1296 0.950 . S
H1322 C1298 0.950 . S
H1323 C1299 0.949 . S
H1324 C1301 0.950 . S
H1325 C1303 0.950 . S
C1326 C1327 1.349 . S
C1326 C1328 1.327 . S
C1326 H1351 0.950 . S
C1327 C1326 1.349 . S
C1327 C1343 1.349 . S
C1328 C1326 1.327 . S
C1328 C1347 1.429 . S
C1328 H1352 0.950 . S
C1329 C1346 1.574 . S
C1329 C1348 1.368 . S
C1329 H1353 0.949 . S
H1330 C1334 0.949 . S
C1331 C1332 1.349 . S
C1331 C1333 1.327 . S
C1331 H1354 0.950 . S
C1332 C1331 1.349 . S
C1332 C1344 1.349 . S
C1333 C1331 1.327 . S
C1333 C1349 1.429 . S
C1333 H1355 0.950 . S
C1334 H1330 0.949 . S
C1334 C1342 1.574 . S
C1334 C1350 1.368 . S
H1335 C1343 0.950 . S
H1336 C1341 0.950 . S
H1337 C1342 0.949 . S
H1338 C1344 0.950 . S
H1339 C1345 0.950 . S
H1340 C1346 0.949 . S
C1341 H1336 0.950 . S
C1341 C1343 1.327 . S
C1341 C1347 1.429 . S
C1342 C1334 1.574 . S
C1342 H1337 0.949 . S
C1342 C1348 1.368 . S
C1343 C1327 1.349 . S
C1343 H1335 0.950 . S
C1343 C1341 1.327 . S
C1344 C1332 1.349 . S
C1344 H1338 0.950 . S
C1344 C1345 1.327 . S
C1345 H1339 0.950 . S
C1345 C1344 1.327 . S
C1345 C1349 1.429 . S
C1346 C1329 1.574 . S
C1346 H1340 0.949 . S
C1346 C1350 1.368 . S
C1347 C1328 1.429 . S
C1347 C1341 1.429 . S
C1347 C1348 1.523 . S
C1348 C1329 1.368 . S
C1348 C1342 1.368 . S
C1348 C1347 1.523 . S
C1349 C1333 1.429 . S
C1349 C1345 1.429 . S
C1349 C1350 1.523 . S
C1350 C1334 1.368 . S
C1350 C1346 1.368 . S
C1350 C1349 1.523 . S
H1351 C1326 0.950 . S
H1352 C1328 0.950 . S
H1353 C1329 0.949 . S
H1354 C1331 0.950 . S
H1355 C1333 0.950 . S
C1356 C1357 1.349 . S
C1356 C1358 1.327 . S
C1356 H1381 0.950 . S
C1357 C1356 1.349 . S
C1357 C1373 1.349 . S
C1358 C1356 1.327 . S
C1358 C1377 1.429 . S
C1358 H1382 0.950 . S
C1359 C1376 1.574 1_455 S
C1359 C1378 1.368 . S
C1359 H1383 0.949 . S
H1360 C1364 0.949 . S
C1361 C1362 1.349 . S
C1361 C1363 1.327 . S
C1361 H1384 0.950 . S
C1362 C1361 1.349 . S
C1362 C1374 1.349 . S
C1363 C1361 1.327 . S
C1363 C1379 1.429 . S
C1363 H1385 0.950 . S
C1364 H1360 0.949 . S
C1364 C1372 1.574 1_655 S
C1364 C1380 1.368 . S
H1365 C1373 0.950 . S
H1366 C1371 0.950 . S
H1367 C1372 0.949 . S
H1368 C1374 0.950 . S
H1369 C1375 0.950 . S
H1370 C1376 0.949 . S
C1371 H1366 0.950 . S
C1371 C1373 1.327 . S
C1371 C1377 1.429 . S
C1372 C1364 1.574 1_455 S
C1372 H1367 0.949 . S
C1372 C1378 1.368 . S
C1373 C1357 1.349 . S
C1373 H1365 0.950 . S
C1373 C1371 1.327 . S
C1374 C1362 1.349 . S
C1374 H1368 0.950 . S
C1374 C1375 1.327 . S
C1375 H1369 0.950 . S
C1375 C1374 1.327 . S
C1375 C1379 1.429 . S
C1376 C1359 1.574 1_655 S
C1376 H1370 0.949 . S
C1376 C1380 1.368 . S
C1377 C1358 1.429 . S
C1377 C1371 1.429 . S
C1377 C1378 1.523 . S
C1378 C1359 1.368 . S
C1378 C1372 1.368 . S
C1378 C1377 1.523 . S
C1379 C1363 1.429 . S
C1379 C1375 1.429 . S
C1379 C1380 1.523 . S
C1380 C1364 1.368 . S
C1380 C1376 1.368 . S
C1380 C1379 1.523 . S
H1381 C1356 0.950 . S
H1382 C1358 0.950 . S
H1383 C1359 0.949 . S
H1384 C1361 0.950 . S
H1385 C1363 0.950 . S
C1386 C1387 1.349 . S
C1386 C1388 1.327 1_556 S
C1386 H1411 0.950 1_556 S
C1387 C1386 1.349 . S
C1387 C1403 1.349 . S
C1388 C1386 1.327 1_554 S
C1388 C1407 1.429 1_554 S
C1388 H1412 0.950 . S
C1389 C1406 1.574 1_545 S
C1389 C1408 1.368 . S
C1389 H1413 0.949 . S
H1390 C1394 0.949 . S
C1391 C1392 1.349 . S
C1391 C1393 1.327 1_554 S
C1391 H1414 0.950 1_554 S
C1392 C1391 1.349 . S
C1392 C1404 1.349 . S
C1393 C1391 1.327 1_556 S
C1393 C1409 1.429 1_556 S
C1393 H1415 0.950 . S
C1394 H1390 0.949 . S
C1394 C1402 1.574 1_565 S
C1394 C1410 1.368 . S
H1395 C1403 0.950 . S
H1396 C1401 0.950 . S
H1397 C1402 0.949 . S
H1398 C1404 0.950 . S
H1399 C1405 0.950 . S
H1400 C1406 0.949 . S
C1401 H1396 0.950 . S
C1401 C1403 1.327 . S
C1401 C1407 1.429 . S
C1402 C1394 1.574 1_545 S
C1402 H1397 0.949 . S
C1402 C1408 1.368 1_554 S
C1403 C1387 1.349 . S
C1403 H1395 0.950 . S
C1403 C1401 1.327 . S
C1404 C1392 1.349 . S
C1404 H1398 0.950 . S
C1404 C1405 1.327 . S
C1405 H1399 0.950 . S
C1405 C1404 1.327 . S
C1405 C1409 1.429 . S
C1406 C1389 1.574 1_565 S
C1406 H1400 0.949 . S
C1406 C1410 1.368 1_556 S
C1407 C1388 1.429 1_556 S
C1407 C1401 1.429 . S
C1407 C1408 1.523 . S
C1408 C1389 1.368 . S
C1408 C1402 1.368 1_556 S
C1408 C1407 1.523 . S
C1409 C1393 1.429 1_554 S
C1409 C1405 1.429 . S
C1409 C1410 1.523 . S
C1410 C1394 1.368 . S
C1410 C1406 1.368 1_554 S
C1410 C1409 1.523 . S
H1411 C1386 0.950 1_554 S
H1412 C1388 0.950 . S
H1413 C1389 0.949 . S
H1414 C1391 0.950 1_556 S
H1415 C1393 0.950 . S
C1416 C1417 1.349 . S
C1416 C1418 1.327 . S
C1416 H1441 0.950 . S
C1417 C1416 1.349 . S
C1417 C1433 1.349 . S
C1418 C1416 1.327 . S
C1418 C1437 1.429 . S
C1418 H1442 0.950 . S
C1419 C1436 1.574 1_655 S
C1419 C1438 1.368 . S
C1419 H1443 0.949 . S
H1420 C1424 0.949 . S
C1421 C1422 1.349 . S
C1421 C1423 1.327 . S
C1421 H1444 0.950 . S
C1422 C1421 1.349 . S
C1422 C1434 1.349 . S
C1423 C1421 1.327 . S
C1423 C1439 1.429 . S
C1423 H1445 0.950 . S
C1424 H1420 0.949 . S
C1424 C1432 1.574 1_455 S
C1424 C1440 1.368 . S
H1425 C1433 0.950 . S
H1426 C1431 0.950 . S
H1427 C1432 0.949 . S
H1428 C1434 0.950 . S
H1429 C1435 0.950 . S
H1430 C1436 0.949 . S
C1431 H1426 0.950 . S
C1431 C1433 1.327 . S
C1431 C1437 1.429 . S
C1432 C1424 1.574 1_655 S
C1432 H1427 0.949 . S
C1432 C1438 1.368 . S
C1433 C1417 1.349 . S
C1433 H1425 0.950 . S
C1433 C1431 1.327 . S
C1434 C1422 1.349 . S
C1434 H1428 0.950 . S
C1434 C1435 1.327 . S
C1435 H1429 0.950 . S
C1435 C1434 1.327 . S
C1435 C1439 1.429 . S
C1436 C1419 1.574 1_455 S
C1436 H1430 0.949 . S
C1436 C1440 1.368 . S
C1437 C1418 1.429 . S
C1437 C1431 1.429 . S
C1437 C1438 1.523 . S
C1438 C1419 1.368 . S
C1438 C1432 1.368 . S
C1438 C1437 1.523 . S
C1439 C1423 1.429 . S
C1439 C1435 1.429 . S
C1439 C1440 1.523 . S
C1440 C1424 1.368 . S
C1440 C1436 1.368 . S
C1440 C1439 1.523 . S
H1441 C1416 0.950 . S
H1442 C1418 0.950 . S
H1443 C1419 0.949 . S
H1444 C1421 0.950 . S
H1445 C1423 0.950 . S
C1446 C1447 1.349 . S
C1446 C1448 1.327 . S
C1446 H1471 0.950 . S
C1447 C1446 1.349 . S
C1447 C1463 1.349 . S
C1448 C1446 1.327 . S
C1448 C1467 1.429 . S
C1448 H1472 0.950 . S
C1449 C1466 1.574 . S
C1449 C1468 1.368 1_565 S
C1449 H1473 0.949 . S
H1450 C1454 0.949 . S
C1451 C1452 1.349 . S
C1451 C1453 1.327 . S
C1451 H1474 0.950 . S
C1452 C1451 1.349 . S
C1452 C1464 1.349 . S
C1453 C1451 1.327 . S
C1453 C1469 1.429 . S
C1453 H1475 0.950 . S
C1454 H1450 0.949 . S
C1454 C1462 1.574 . S
C1454 C1470 1.368 1_545 S
H1455 C1463 0.950 . S
H1456 C1461 0.950 . S
H1457 C1462 0.949 . S
H1458 C1464 0.950 . S
H1459 C1465 0.950 . S
H1460 C1466 0.949 . S
C1461 H1456 0.950 . S
C1461 C1463 1.327 . S
C1461 C1467 1.429 . S
C1462 C1454 1.574 . S
C1462 H1457 0.949 . S
C1462 C1468 1.368 . S
C1463 C1447 1.349 . S
C1463 H1455 0.950 . S
C1463 C1461 1.327 . S
C1464 C1452 1.349 . S
C1464 H1458 0.950 . S
C1464 C1465 1.327 . S
C1465 H1459 0.950 . S
C1465 C1464 1.327 . S
C1465 C1469 1.429 . S
C1466 C1449 1.574 . S
C1466 H1460 0.949 . S
C1466 C1470 1.368 . S
C1467 C1448 1.429 . S
C1467 C1461 1.429 . S
C1467 C1468 1.523 . S
C1468 C1449 1.368 1_545 S
C1468 C1462 1.368 . S
C1468 C1467 1.523 . S
C1469 C1453 1.429 . S
C1469 C1465 1.429 . S
C1469 C1470 1.523 . S
C1470 C1454 1.368 1_565 S
C1470 C1466 1.368 . S
C1470 C1469 1.523 . S
H1471 C1446 0.950 . S
H1472 C1448 0.950 . S
H1473 C1449 0.949 . S
H1474 C1451 0.950 . S
H1475 C1453 0.950 . S
C1476 C1477 1.349 . S
C1476 C1478 1.327 . S
C1476 H1501 0.950 . S
C1477 C1476 1.349 . S
C1477 C1493 1.349 . S
C1478 C1476 1.327 . S
C1478 C1497 1.429 . S
C1478 H1502 0.950 . S
C1479 C1496 1.574 . S
C1479 C1498 1.368 . S
C1479 H1503 0.949 . S
H1480 C1484 0.949 . S
C1481 C1482 1.349 . S
C1481 C1483 1.327 . S
C1481 H1504 0.950 . S
C1482 C1481 1.349 . S
C1482 C1494 1.349 . S
C1483 C1481 1.327 . S
C1483 C1499 1.429 . S
C1483 H1505 0.950 . S
C1484 H1480 0.949 . S
C1484 C1492 1.574 . S
C1484 C1500 1.368 . S
H1485 C1493 0.950 . S
H1486 C1491 0.950 . S
H1487 C1492 0.949 . S
H1488 C1494 0.950 . S
H1489 C1495 0.950 . S
H1490 C1496 0.949 . S
C1491 H1486 0.950 . S
C1491 C1493 1.327 . S
C1491 C1497 1.429 . S
C1492 C1484 1.574 . S
C1492 H1487 0.949 . S
C1492 C1498 1.368 . S
C1493 C1477 1.349 . S
C1493 H1485 0.950 . S
C1493 C1491 1.327 . S
C1494 C1482 1.349 . S
C1494 H1488 0.950 . S
C1494 C1495 1.327 . S
C1495 H1489 0.950 . S
C1495 C1494 1.327 . S
C1495 C1499 1.429 . S
C1496 C1479 1.574 . S
C1496 H1490 0.949 . S
C1496 C1500 1.368 . S
C1497 C1478 1.429 . S
C1497 C1491 1.429 . S
C1497 C1498 1.523 . S
C1498 C1479 1.368 . S
C1498 C1492 1.368 . S
C1498 C1497 1.523 . S
C1499 C1483 1.429 . S
C1499 C1495 1.429 . S
C1499 C1500 1.523 . S
C1500 C1484 1.368 . S
C1500 C1496 1.368 . S
C1500 C1499 1.523 . S
H1501 C1476 0.950 . S
H1502 C1478 0.950 . S
H1503 C1479 0.949 . S
H1504 C1481 0.950 . S
H1505 C1483 0.950 . S
C1506 C1507 1.349 . S
C1506 C1508 1.327 . S
C1506 H1531 0.950 . S
C1507 C1506 1.349 . S
C1507 C1523 1.349 . S
C1508 C1506 1.327 . S
C1508 C1527 1.429 . S
C1508 H1532 0.950 . S
C1509 C1526 1.574 . S
C1509 C1528 1.368 1_655 S
C1509 H1533 0.949 . S
H1510 C1514 0.949 . S
C1511 C1512 1.349 . S
C1511 C1513 1.327 . S
C1511 H1534 0.950 . S
C1512 C1511 1.349 . S
C1512 C1524 1.349 . S
C1513 C1511 1.327 . S
C1513 C1529 1.429 . S
C1513 H1535 0.950 . S
C1514 H1510 0.949 . S
C1514 C1522 1.574 . S
C1514 C1530 1.368 1_455 S
H1515 C1523 0.950 . S
H1516 C1521 0.950 . S
H1517 C1522 0.949 . S
H1518 C1524 0.950 . S
H1519 C1525 0.950 . S
H1520 C1526 0.949 . S
C1521 H1516 0.950 . S
C1521 C1523 1.327 . S
C1521 C1527 1.429 . S
C1522 C1514 1.574 . S
C1522 H1517 0.949 . S
C1522 C1528 1.368 . S
C1523 C1507 1.349 . S
C1523 H1515 0.950 . S
C1523 C1521 1.327 . S
C1524 C1512 1.349 . S
C1524 H1518 0.950 . S
C1524 C1525 1.327 . S
C1525 H1519 0.950 . S
C1525 C1524 1.327 . S
C1525 C1529 1.429 . S
C1526 C1509 1.574 . S
C1526 H1520 0.949 . S
C1526 C1530 1.368 . S
C1527 C1508 1.429 . S
C1527 C1521 1.429 . S
C1527 C1528 1.523 . S
C1528 C1509 1.368 1_455 S
C1528 C1522 1.368 . S
C1528 C1527 1.523 . S
C1529 C1513 1.429 . S
C1529 C1525 1.429 . S
C1529 C1530 1.523 . S
C1530 C1514 1.368 1_655 S
C1530 C1526 1.368 . S
C1530 C1529 1.523 . S
H1531 C1506 0.950 . S
H1532 C1508 0.950 . S
H1533 C1509 0.949 . S
H1534 C1511 0.950 . S
H1535 C1513 0.950 . S
C1536 C1537 1.349 . S
C1536 C1538 1.327 . S
C1536 H1561 0.950 . S
C1537 C1536 1.349 . S
C1537 C1553 1.349 . S
C1538 C1536 1.327 . S
C1538 C1557 1.429 . S
C1538 H1562 0.950 . S
C1539 C1556 1.574 . S
C1539 C1558 1.368 . S
C1539 H1563 0.949 . S
H1540 C1544 0.949 . S
C1541 C1542 1.349 . S
C1541 C1543 1.327 . S
C1541 H1564 0.950 . S
C1542 C1541 1.349 . S
C1542 C1554 1.349 . S
C1543 C1541 1.327 . S
C1543 C1559 1.429 . S
C1543 H1565 0.950 . S
C1544 H1540 0.949 . S
C1544 C1552 1.574 . S
C1544 C1560 1.368 . S
H1545 C1553 0.950 . S
H1546 C1551 0.950 . S
H1547 C1552 0.949 . S
H1548 C1554 0.950 . S
H1549 C1555 0.950 . S
H1550 C1556 0.949 . S
C1551 H1546 0.950 . S
C1551 C1553 1.327 . S
C1551 C1557 1.429 . S
C1552 C1544 1.574 . S
C1552 H1547 0.949 . S
C1552 C1558 1.368 1_565 S
C1553 C1537 1.349 . S
C1553 H1545 0.950 . S
C1553 C1551 1.327 . S
C1554 C1542 1.349 . S
C1554 H1548 0.950 . S
C1554 C1555 1.327 . S
C1555 H1549 0.950 . S
C1555 C1554 1.327 . S
C1555 C1559 1.429 . S
C1556 C1539 1.574 . S
C1556 H1550 0.949 . S
C1556 C1560 1.368 1_545 S
C1557 C1538 1.429 . S
C1557 C1551 1.429 . S
C1557 C1558 1.523 . S
C1558 C1539 1.368 . S
C1558 C1552 1.368 1_545 S
C1558 C1557 1.523 . S
C1559 C1543 1.429 . S
C1559 C1555 1.429 . S
C1559 C1560 1.523 . S
C1560 C1544 1.368 . S
C1560 C1556 1.368 1_565 S
C1560 C1559 1.523 . S
H1561 C1536 0.950 . S
H1562 C1538 0.950 . S
H1563 C1539 0.949 . S
H1564 C1541 0.950 . S
H1565 C1543 0.950 . S
C1566 C1567 1.349 . S
C1566 C1568 1.327 . S
C1566 H1591 0.950 . S
C1567 C1566 1.349 . S
C1567 C1583 1.349 . S
C1568 C1566 1.327 . S
C1568 C1587 1.429 . S
C1568 H1592 0.950 . S
C1569 C1586 1.574 . S
C1569 C1588 1.368 . S
C1569 H1593 0.949 . S
H1570 C1574 0.949 . S
C1571 C1572 1.349 . S
C1571 C1573 1.327 . S
C1571 H1594 0.950 . S
C1572 C1571 1.349 . S
C1572 C1584 1.349 . S
C1573 C1571 1.327 . S
C1573 C1589 1.429 . S
C1573 H1595 0.950 . S
C1574 H1570 0.949 . S
C1574 C1582 1.574 . S
C1574 C1590 1.368 . S
H1575 C1583 0.950 . S
H1576 C1581 0.950 . S
H1577 C1582 0.949 . S
H1578 C1584 0.950 . S
H1579 C1585 0.950 . S
H1580 C1586 0.949 . S
C1581 H1576 0.950 . S
C1581 C1583 1.327 . S
C1581 C1587 1.429 . S
C1582 C1574 1.574 . S
C1582 H1577 0.949 . S
C1582 C1588 1.368 . S
C1583 C1567 1.349 . S
C1583 H1575 0.950 . S
C1583 C1581 1.327 . S
C1584 C1572 1.349 . S
C1584 H1578 0.950 . S
C1584 C1585 1.327 . S
C1585 H1579 0.950 . S
C1585 C1584 1.327 . S
C1585 C1589 1.429 . S
C1586 C1569 1.574 . S
C1586 H1580 0.949 . S
C1586 C1590 1.368 . S
C1587 C1568 1.429 . S
C1587 C1581 1.429 . S
C1587 C1588 1.523 . S
C1588 C1569 1.368 . S
C1588 C1582 1.368 . S
C1588 C1587 1.523 . S
C1589 C1573 1.429 . S
C1589 C1585 1.429 . S
C1589 C1590 1.523 . S
C1590 C1574 1.368 . S
C1590 C1586 1.368 . S
C1590 C1589 1.523 . S
H1591 C1566 0.950 . S
H1592 C1568 0.950 . S
H1593 C1569 0.949 . S
H1594 C1571 0.950 . S
H1595 C1573 0.950 . S
C1596 C1597 1.349 . S
C1596 C1598 1.327 . S
C1596 H1621 0.950 . S
C1597 C1596 1.349 . S
C1597 C1613 1.349 . S
C1598 C1596 1.327 . S
C1598 C1617 1.429 . S
C1598 H1622 0.950 . S
C1599 C1616 1.574 . S
C1599 C1618 1.368 . S
C1599 H1623 0.949 . S
H1600 C1604 0.949 . S
C1601 C1602 1.349 . S
C1601 C1603 1.327 . S
C1601 H1624 0.950 . S
C1602 C1601 1.349 . S
C1602 C1614 1.349 . S
C1603 C1601 1.327 . S
C1603 C1619 1.429 . S
C1603 H1625 0.950 . S
C1604 H1600 0.949 . S
C1604 C1612 1.574 . S
C1604 C1620 1.368 . S
H1605 C1613 0.950 . S
H1606 C1611 0.950 . S
H1607 C1612 0.949 . S
H1608 C1614 0.950 . S
H1609 C1615 0.950 . S
H1610 C1616 0.949 . S
C1611 H1606 0.950 . S
C1611 C1613 1.327 . S
C1611 C1617 1.429 . S
C1612 C1604 1.574 . S
C1612 H1607 0.949 . S
C1612 C1618 1.368 . S
C1613 C1597 1.349 . S
C1613 H1605 0.950 . S
C1613 C1611 1.327 . S
C1614 C1602 1.349 . S
C1614 H1608 0.950 . S
C1614 C1615 1.327 . S
C1615 H1609 0.950 . S
C1615 C1614 1.327 . S
C1615 C1619 1.429 . S
C1616 C1599 1.574 . S
C1616 H1610 0.949 . S
C1616 C1620 1.368 . S
C1617 C1598 1.429 . S
C1617 C1611 1.429 . S
C1617 C1618 1.523 . S
C1618 C1599 1.368 . S
C1618 C1612 1.368 . S
C1618 C1617 1.523 . S
C1619 C1603 1.429 . S
C1619 C1615 1.429 . S
C1619 C1620 1.523 . S
C1620 C1604 1.368 . S
C1620 C1616 1.368 . S
C1620 C1619 1.523 . S
H1621 C1596 0.950 . S
H1622 C1598 0.950 . S
H1623 C1599 0.949 . S
H1624 C1601 0.950 . S
H1625 C1603 0.950 . S
C1626 C1627 1.349 . S
C1626 C1628 1.327 . S
C1626 H1651 0.950 . S
C1627 C1626 1.349 . S
C1627 C1643 1.349 . S
C1628 C1626 1.327 . S
C1628 C1647 1.429 . S
C1628 H1652 0.950 . S
C1629 C1646 1.574 . S
C1629 C1648 1.368 . S
C1629 H1653 0.949 . S
H1630 C1634 0.949 . S
C1631 C1632 1.349 . S
C1631 C1633 1.327 . S
C1631 H1654 0.950 . S
C1632 C1631 1.349 . S
C1632 C1644 1.349 . S
C1633 C1631 1.327 . S
C1633 C1649 1.429 . S
C1633 H1655 0.950 . S
C1634 H1630 0.949 . S
C1634 C1642 1.574 . S
C1634 C1650 1.368 . S
H1635 C1643 0.950 . S
H1636 C1641 0.950 . S
H1637 C1642 0.949 . S
H1638 C1644 0.950 . S
H1639 C1645 0.950 . S
H1640 C1646 0.949 . S
C1641 H1636 0.950 . S
C1641 C1643 1.327 . S
C1641 C1647 1.429 . S
C1642 C1634 1.574 . S
C1642 H1637 0.949 . S
C1642 C1648 1.368 . S
C1643 C1627 1.349 . S
C1643 H1635 0.950 . S
C1643 C1641 1.327 . S
C1644 C1632 1.349 . S
C1644 H1638 0.950 . S
C1644 C1645 1.327 . S
C1645 H1639 0.950 . S
C1645 C1644 1.327 . S
C1645 C1649 1.429 . S
C1646 C1629 1.574 . S
C1646 H1640 0.949 . S
C1646 C1650 1.368 . S
C1647 C1628 1.429 . S
C1647 C1641 1.429 . S
C1647 C1648 1.523 . S
C1648 C1629 1.368 . S
C1648 C1642 1.368 . S
C1648 C1647 1.523 . S
C1649 C1633 1.429 . S
C1649 C1645 1.429 . S
C1649 C1650 1.523 . S
C1650 C1634 1.368 . S
C1650 C1646 1.368 . S
C1650 C1649 1.523 . S
H1651 C1626 0.950 . S
H1652 C1628 0.950 . S
H1653 C1629 0.949 . S
H1654 C1631 0.950 . S
H1655 C1633 0.950 . S
C1656 C1657 1.349 . S
C1656 C1658 1.327 . S
C1656 H1681 0.950 . S
C1657 C1656 1.349 . S
C1657 C1673 1.349 . S
C1658 C1656 1.327 . S
C1658 C1677 1.429 . S
C1658 H1682 0.950 . S
C1659 C1676 1.574 . S
C1659 C1678 1.368 . S
C1659 H1683 0.949 . S
H1660 C1664 0.949 . S
C1661 C1662 1.349 . S
C1661 C1663 1.327 . S
C1661 H1684 0.950 . S
C1662 C1661 1.349 . S
C1662 C1674 1.349 . S
C1663 C1661 1.327 . S
C1663 C1679 1.429 . S
C1663 H1685 0.950 . S
C1664 H1660 0.949 . S
C1664 C1672 1.574 . S
C1664 C1680 1.368 . S
H1665 C1673 0.950 . S
H1666 C1671 0.950 . S
H1667 C1672 0.949 . S
H1668 C1674 0.950 . S
H1669 C1675 0.950 . S
H1670 C1676 0.949 . S
C1671 H1666 0.950 . S
C1671 C1673 1.327 . S
C1671 C1677 1.429 . S
C1672 C1664 1.574 . S
C1672 H1667 0.949 . S
C1672 C1678 1.368 . S
C1673 C1657 1.349 . S
C1673 H1665 0.950 . S
C1673 C1671 1.327 . S
C1674 C1662 1.349 . S
C1674 H1668 0.950 . S
C1674 C1675 1.327 . S
C1675 H1669 0.950 . S
C1675 C1674 1.327 . S
C1675 C1679 1.429 . S
C1676 C1659 1.574 . S
C1676 H1670 0.949 . S
C1676 C1680 1.368 . S
C1677 C1658 1.429 . S
C1677 C1671 1.429 . S
C1677 C1678 1.523 . S
C1678 C1659 1.368 . S
C1678 C1672 1.368 . S
C1678 C1677 1.523 . S
C1679 C1663 1.429 . S
C1679 C1675 1.429 . S
C1679 C1680 1.523 . S
C1680 C1664 1.368 . S
C1680 C1676 1.368 . S
C1680 C1679 1.523 . S
H1681 C1656 0.950 . S
H1682 C1658 0.950 . S
H1683 C1659 0.949 . S
H1684 C1661 0.950 . S
H1685 C1663 0.950 . S
C1686 C1687 1.349 . S
C1686 C1688 1.327 . S
C1686 H1711 0.950 . S
C1687 C1686 1.349 . S
C1687 C1703 1.349 . S
C1688 C1686 1.327 . S
C1688 C1707 1.429 . S
C1688 H1712 0.950 . S
C1689 C1706 1.574 . S
C1689 C1708 1.368 . S
C1689 H1713 0.949 . S
H1690 C1694 0.949 . S
C1691 C1692 1.349 . S
C1691 C1693 1.327 . S
C1691 H1714 0.950 . S
C1692 C1691 1.349 . S
C1692 C1704 1.349 . S
C1693 C1691 1.327 . S
C1693 C1709 1.429 . S
C1693 H1715 0.950 . S
C1694 H1690 0.949 . S
C1694 C1702 1.574 . S
C1694 C1710 1.368 . S
H1695 C1703 0.950 . S
H1696 C1701 0.950 . S
H1697 C1702 0.949 . S
H1698 C1704 0.950 . S
H1699 C1705 0.950 . S
H1700 C1706 0.949 . S
C1701 H1696 0.950 . S
C1701 C1703 1.327 . S
C1701 C1707 1.429 . S
C1702 C1694 1.574 . S
C1702 H1697 0.949 . S
C1702 C1708 1.368 . S
C1703 C1687 1.349 . S
C1703 H1695 0.950 . S
C1703 C1701 1.327 . S
C1704 C1692 1.349 . S
C1704 H1698 0.950 . S
C1704 C1705 1.327 . S
C1705 H1699 0.950 . S
C1705 C1704 1.327 . S
C1705 C1709 1.429 . S
C1706 C1689 1.574 . S
C1706 H1700 0.949 . S
C1706 C1710 1.368 . S
C1707 C1688 1.429 . S
C1707 C1701 1.429 . S
C1707 C1708 1.523 . S
C1708 C1689 1.368 . S
C1708 C1702 1.368 . S
C1708 C1707 1.523 . S
C1709 C1693 1.429 . S
C1709 C1705 1.429 . S
C1709 C1710 1.523 . S
C1710 C1694 1.368 . S
C1710 C1706 1.368 . S
C1710 C1709 1.523 . S
H1711 C1686 0.950 . S
H1712 C1688 0.950 . S
H1713 C1689 0.949 . S
H1714 C1691 0.950 . S
H1715 C1693 0.950 . S
C1716 C1717 1.349 . S
C1716 C1718 1.327 . S
C1716 H1741 0.950 . S
C1717 C1716 1.349 . S
C1717 C1733 1.349 . S
C1718 C1716 1.327 . S
C1718 C1737 1.429 . S
C1718 H1742 0.950 . S
C1719 C1736 1.574 . S
C1719 C1738 1.368 . S
C1719 H1743 0.949 . S
H1720 C1724 0.949 . S
C1721 C1722 1.349 . S
C1721 C1723 1.327 . S
C1721 H1744 0.950 . S
C1722 C1721 1.349 . S
C1722 C1734 1.349 . S
C1723 C1721 1.327 . S
C1723 C1739 1.429 . S
C1723 H1745 0.950 . S
C1724 H1720 0.949 . S
C1724 C1732 1.574 . S
C1724 C1740 1.368 . S
H1725 C1733 0.950 . S
H1726 C1731 0.950 . S
H1727 C1732 0.949 . S
H1728 C1734 0.950 . S
H1729 C1735 0.950 . S
H1730 C1736 0.949 . S
C1731 H1726 0.950 . S
C1731 C1733 1.327 . S
C1731 C1737 1.429 . S
C1732 C1724 1.574 . S
C1732 H1727 0.949 . S
C1732 C1738 1.368 . S
C1733 C1717 1.349 . S
C1733 H1725 0.950 . S
C1733 C1731 1.327 . S
C1734 C1722 1.349 . S
C1734 H1728 0.950 . S
C1734 C1735 1.327 . S
C1735 H1729 0.950 . S
C1735 C1734 1.327 . S
C1735 C1739 1.429 . S
C1736 C1719 1.574 . S
C1736 H1730 0.949 . S
C1736 C1740 1.368 . S
C1737 C1718 1.429 . S
C1737 C1731 1.429 . S
C1737 C1738 1.523 . S
C1738 C1719 1.368 . S
C1738 C1732 1.368 . S
C1738 C1737 1.523 . S
C1739 C1723 1.429 . S
C1739 C1735 1.429 . S
C1739 C1740 1.523 . S
C1740 C1724 1.368 . S
C1740 C1736 1.368 . S
C1740 C1739 1.523 . S
H1741 C1716 0.950 . S
H1742 C1718 0.950 . S
H1743 C1719 0.949 . S
H1744 C1721 0.950 . S
H1745 C1723 0.950 . S
C1746 C1747 1.349 . S
C1746 C1748 1.327 . S
C1746 H1771 0.950 . S
C1747 C1746 1.349 . S
C1747 C1763 1.349 . S
C1748 C1746 1.327 . S
C1748 C1767 1.429 . S
C1748 H1772 0.950 . S
C1749 C1766 1.574 . S
C1749 C1768 1.368 . S
C1749 H1773 0.949 . S
H1750 C1754 0.949 . S
C1751 C1752 1.349 . S
C1751 C1753 1.327 . S
C1751 H1774 0.950 . S
C1752 C1751 1.349 . S
C1752 C1764 1.349 . S
C1753 C1751 1.327 . S
C1753 C1769 1.429 . S
C1753 H1775 0.950 . S
C1754 H1750 0.949 . S
C1754 C1762 1.574 . S
C1754 C1770 1.368 . S
H1755 C1763 0.950 . S
H1756 C1761 0.950 . S
H1757 C1762 0.949 . S
H1758 C1764 0.950 . S
H1759 C1765 0.950 . S
H1760 C1766 0.949 . S
C1761 H1756 0.950 . S
C1761 C1763 1.327 . S
C1761 C1767 1.429 . S
C1762 C1754 1.574 . S
C1762 H1757 0.949 . S
C1762 C1768 1.368 . S
C1763 C1747 1.349 . S
C1763 H1755 0.950 . S
C1763 C1761 1.327 . S
C1764 C1752 1.349 . S
C1764 H1758 0.950 . S
C1764 C1765 1.327 . S
C1765 H1759 0.950 . S
C1765 C1764 1.327 . S
C1765 C1769 1.429 . S
C1766 C1749 1.574 . S
C1766 H1760 0.949 . S
C1766 C1770 1.368 . S
C1767 C1748 1.429 . S
C1767 C1761 1.429 . S
C1767 C1768 1.523 . S
C1768 C1749 1.368 . S
C1768 C1762 1.368 . S
C1768 C1767 1.523 . S
C1769 C1753 1.429 . S
C1769 C1765 1.429 . S
C1769 C1770 1.523 . S
C1770 C1754 1.368 . S
C1770 C1766 1.368 . S
C1770 C1769 1.523 . S
H1771 C1746 0.950 . S
H1772 C1748 0.950 . S
H1773 C1749 0.949 . S
H1774 C1751 0.950 . S
H1775 C1753 0.950 . S
C1057 C20 1.298 . S
C1062 C585 1.299 . S
C1087 C108 1.298 . S
C1092 C665 1.298 . S
C1117 C205 1.290 . S
C1122 C753 1.290 . S
C1147 C841 1.299 . S
C1152 C293 1.298 . S
C1177 C381 1.298 . S
C1182 C937 1.298 . S
C1207 C1017 1.290 . S
C1212 C460 1.290 . S
C1237 C49 0.292 . S
C1242 C812 0.291 . S
C1267 C137 0.291 . S
C1272 C909 0.292 . S
C1297 C988 0.300 . S
C1302 C233 0.292 . S
C1327 C557 0.291 . S
C1332 C321 0.292 . S
C1357 C409 0.291 . S
C1362 C636 0.292 . S
C1387 C489 0.299 . S
C1392 C724 0.292 . S
C1417 C997 2.284 . S
C1422 C57 2.278 . S
C1447 C145 2.327 . S
C1452 C548 2.327 . S
C1477 C225 2.284 . S
C1482 C645 2.278 . S
C1507 C733 2.284 . S
C1512 C313 2.278 . S
C1537 C821 2.327 . S
C1542 C401 2.327 . S
C1567 C497 2.284 . S
C1572 C900 2.279 . S
C1597 C29 0.683 . S
C1602 C929 0.683 . S
C1627 C1025 0.675 . S
C1632 C117 0.679 . S
C1657 C577 0.675 . S
C1662 C196 0.679 . S
C1687 C284 0.683 . S
C1692 C673 0.683 . S
C1717 C761 0.675 . S
C1722 C372 0.679 . S
C1747 C849 0.675 . S
C1752 C469 0.679 . S
