# Generated by pormake.
# Topology sml, (6)-cn, num edge types: 1
# Building blocks:
#     Node 0, Type 0, BuildingBlock: OJICUG_clean_sbu_0, # of connection points: 6
#     Node 1, Type 0, BuildingBlock: OJICUG_clean_sbu_0, # of connection points: 6
#     Node 2, Type 0, BuildingBlock: OJICUG_clean_sbu_0, # of connection points: 6
#     Node 3, Type 0, BuildingBlock: OJICUG_clean_sbu_0, # of connection points: 6
#     Node 4, Type 0, BuildingBlock: OJICUG_clean_sbu_0, # of connection points: 6
#     Node 5, Type 0, BuildingBlock: OJICUG_clean_sbu_0, # of connection points: 6
#     Edge 6, Type (0, 0), BuildingBlock: CIFDUS_clean_linker_0, # of connection points: 2
#     Edge 7, Type (0, 0), BuildingBlock: CIFDUS_clean_linker_0, # of connection points: 2
#     Edge 8, Type (0, 0), BuildingBlock: CIFDUS_clean_linker_0, # of connection points: 2
#     Edge 9, Type (0, 0), BuildingBlock: CIFDUS_clean_linker_0, # of connection points: 2
#     Edge 10, Type (0, 0), BuildingBlock: CIFDUS_clean_linker_0, # of connection points: 2
#     Edge 11, Type (0, 0), BuildingBlock: CIFDUS_clean_linker_0, # of connection points: 2
#     Edge 12, Type (0, 0), BuildingBlock: CIFDUS_clean_linker_0, # of connection points: 2
#     Edge 13, Type (0, 0), BuildingBlock: CIFDUS_clean_linker_0, # of connection points: 2
#     Edge 14, Type (0, 0), BuildingBlock: CIFDUS_clean_linker_0, # of connection points: 2
#     Edge 15, Type (0, 0), BuildingBlock: CIFDUS_clean_linker_0, # of connection points: 2
#     Edge 16, Type (0, 0), BuildingBlock: CIFDUS_clean_linker_0, # of connection points: 2
#     Edge 17, Type (0, 0), BuildingBlock: CIFDUS_clean_linker_0, # of connection points: 2
#     Edge 18, Type (0, 0), BuildingBlock: CIFDUS_clean_linker_0, # of connection points: 2
#     Edge 19, Type (0, 0), BuildingBlock: CIFDUS_clean_linker_0, # of connection points: 2
#     Edge 20, Type (0, 0), BuildingBlock: CIFDUS_clean_linker_0, # of connection points: 2
#     Edge 21, Type (0, 0), BuildingBlock: CIFDUS_clean_linker_0, # of connection points: 2
#     Edge 22, Type (0, 0), BuildingBlock: CIFDUS_clean_linker_0, # of connection points: 2
#     Edge 23, Type (0, 0), BuildingBlock: CIFDUS_clean_linker_0, # of connection points: 2
# Relax obj value: 0.230
# Max RMSD: 0.261
# Mean RMSD: 0.261
data_MOF--net-sml--node1-OJICUG_clean_sbu_0--edge1-CIFDUS_clean_linker_0
_symmetry_space_group_name_H-M    P1
_symmetry_Int_Tables_number       1
_symmetry_cell_setting            triclinic
loop_
_symmetry_equiv_pos_as_xyz
'x, y, z'
_cell_length_a     36.83788
_cell_length_b     36.883847
_cell_length_c     13.816424
_cell_angle_alpha  90.353285
_cell_angle_beta   89.557492
_cell_angle_gamma 120.11469
loop_
_atom_site_label
_atom_site_type_symbol
_atom_site_fract_x
_atom_site_fract_y
_atom_site_fract_z
_atom_type_partial_charge
Sc0 Sc 0.17598 0.354 0.98684 0.0
Sc1 Sc 0.26026 0.44508 0.07473 0.0
Sc2 Sc 0.19367 0.45037 0.90442 0.0
O3 O 0.21016 0.41689 0.98829 0.0
C4 C 0.18003 0.37407 0.76917 0.0
C5 C 0.26886 0.37077 -0.00899 0.0
C6 C 0.29088 0.50647 0.89192 0.0
C7 C 0.19276 0.37024 0.20435 0.0
C8 C 0.10646 0.37972 0.98381 0.0
C9 C 0.22427 0.50528 0.09859 0.0
O10 O 0.1854 0.35345 0.83497 0.0
O11 O 0.28629 0.41021 0.0039 0.0
O12 O 0.25669 0.48755 0.84408 0.0
O13 O 0.16559 0.35331 0.1384 0.0
O14 O 0.13119 0.41849 0.96786 0.0
O15 O 0.23759 0.48369 0.14211 0.0
O16 O 0.11718 0.35238 0.96848 0.0
O17 O 0.23062 0.39857 0.18794 0.0
O18 O 0.21055 0.49771 0.01243 0.0
O19 O 0.22988 0.34637 0.00626 0.0
O20 O 0.17614 0.40603 0.78558 0.0
O21 O 0.29479 0.49515 0.97584 0.0
Sc22 Sc 0.73652 0.18412 0.22802 0.0
Sc23 Sc 0.81348 0.2563 0.38576 0.0
Sc24 Sc 0.81834 0.1689 0.30296 0.0
O25 O 0.78948 0.20326 0.3054 0.0
C26 C 0.7217 0.09891 0.31661 0.0
C27 C 0.71728 0.22195 0.4175 0.0
C28 C 0.82879 0.19586 0.52327 0.0
C29 C 0.77873 0.28111 0.20088 0.0
C30 C 0.79085 0.16142 0.08436 0.0
C31 C 0.89546 0.26282 0.29319 0.0
O32 O 0.7073 0.12303 0.29743 0.0
O33 O 0.75332 0.23738 0.45717 0.0
O34 O 0.81974 0.16731 0.46013 0.0
O35 O 0.7604 0.24519 0.15962 0.0
O36 O 0.8191 0.1677 0.14562 0.0
O37 O 0.8746 0.28075 0.31546 0.0
O38 O 0.75785 0.16244 0.10677 0.0
O39 O 0.79726 0.28776 0.28146 0.0
O40 O 0.87985 0.22332 0.2964 0.0
O41 O 0.709 0.20401 0.33568 0.0
O42 O 0.76035 0.11026 0.30935 0.0
O43 O 0.8316 0.2308 0.50374 0.0
Sc44 Sc 0.65231 0.8397 0.68628 0.0
Sc45 Sc 0.55348 0.81956 0.7684 0.0
Sc46 Sc 0.56133 0.75003 0.60567 0.0
O47 O 0.58899 0.80291 0.68721 0.0
C48 C 0.63617 0.81176 0.46561 0.0
C49 C 0.62034 0.90521 0.66901 0.0
C50 C 0.49659 0.78075 0.58047 0.0
C51 C 0.6321 0.84712 0.90715 0.0
C52 C 0.63887 0.7471 0.69569 0.0
C53 C 0.50196 0.72209 0.79382 0.0
O54 O 0.65597 0.83976 0.52934 0.0
O55 O 0.58316 0.88086 0.69971 0.0
O56 O 0.51807 0.76659 0.53892 0.0
O57 O 0.65538 0.84374 0.84345 0.0
O58 O 0.60047 0.72795 0.6702 0.0
O59 O 0.51799 0.75784 0.83575 0.0
O60 O 0.6615 0.78684 0.69741 0.0
O61 O 0.59629 0.84228 0.88815 0.0
O62 O 0.51467 0.71671 0.71244 0.0
O63 O 0.6492 0.89591 0.67163 0.0
O64 O 0.60366 0.77694 0.48475 0.0
O65 O 0.50581 0.79841 0.66258 0.0
Sc66 Sc 0.82171 0.55392 0.90655 0.0
Sc67 Sc 0.74711 0.5544 0.06644 0.0
Sc68 Sc 0.83186 0.64917 0.98289 0.0
O69 O 0.80012 0.58571 0.9854 0.0
C70 C 0.9051 0.62725 -0.00169 0.0
C71 C 0.78446 0.49523 0.09289 0.0
C72 C 0.80483 0.63171 0.20469 0.0
C73 C 0.72467 0.49628 0.87763 0.0
C74 C 0.84194 0.62981 0.76391 0.0
C75 C 0.73625 0.62658 0.97021 0.0
O76 O 0.88277 0.58859 0.9761 0.0
O77 O 0.76761 0.51434 0.13389 0.0
O78 O 0.83192 0.65321 0.14011 0.0
O79 O 0.76098 0.51468 0.83768 0.0
O80 O 0.83473 0.65116 0.82574 0.0
O81 O 0.72017 0.58905 0.00069 0.0
O82 O 0.84206 0.59648 0.78565 0.0
O83 O 0.71708 0.5073 0.95891 0.0
O84 O 0.77553 0.65212 0.96988 0.0
O85 O 0.80328 0.50635 0.01217 0.0
O86 O 0.89177 0.65298 -0.0064 0.0
O87 O 0.77156 0.59734 0.18665 0.0
Sc88 Sc 0.17514 0.82052 0.35122 0.0
Sc89 Sc 0.18805 0.73809 0.43536 0.0
Sc90 Sc 0.25985 0.81051 0.26751 0.0
O91 O 0.20788 0.78971 0.35172 0.0
C92 C 0.19833 0.82368 0.13126 0.0
C93 C 0.10363 0.72438 0.33997 0.0
C94 C 0.22147 0.71287 0.24675 0.0
C95 C 0.16981 0.79772 0.57088 0.0
C96 C 0.27051 0.89484 0.36005 0.0
C97 C 0.28577 0.77916 0.45648 0.0
O98 O 0.1734 0.82089 0.19777 0.0
O99 O 0.12581 0.7095 0.37199 0.0
O100 O 0.23888 0.74871 0.20583 0.0
O101 O 0.17293 0.82257 0.50457 0.0
O102 O 0.28656 0.87346 0.328 0.0
O103 O 0.24986 0.76103 0.49808 0.0
O104 O 0.23114 0.88068 0.36266 0.0
O105 O 0.17131 0.76449 0.55542 0.0
O106 O 0.29236 0.79691 0.37475 0.0
O107 O 0.11609 0.76336 0.33953 0.0
O108 O 0.23245 0.82407 0.14615 0.0
O109 O 0.2038 0.70607 0.32905 0.0
Sc110 Sc 0.45171 0.26448 0.56668 0.0
Sc111 Sc 0.4481 0.19241 0.73477 0.0
Sc112 Sc 0.35607 0.18567 0.65428 0.0
O113 O 0.41908 0.21427 0.65161 0.0
C114 C 0.38238 0.28076 0.65488 0.0
C115 C 0.51078 0.28865 0.75247 0.0
C116 C 0.37505 0.18664 0.871 0.0
C117 C 0.50629 0.22199 0.54468 0.0
C118 C 0.37415 0.20182 0.43618 0.0
C119 C 0.37146 0.10868 0.6602 0.0
O120 O 0.42112 0.29496 0.63709 0.0
O121 O 0.48946 0.25397 0.79763 0.0
O122 O 0.35681 0.19554 0.80589 0.0
O123 O 0.48756 0.23835 0.50063 0.0
O124 O 0.35444 0.17538 0.50243 0.0
O125 O 0.41109 0.13056 0.66985 0.0
O126 O 0.40554 0.23816 0.45201 0.0
O127 O 0.49572 0.20626 0.62876 0.0
O128 O 0.3476 0.12391 0.67359 0.0
O129 O 0.50127 0.2949 0.66859 0.0
O130 O 0.35482 0.24305 0.63638 0.0
O131 O 0.40386 0.1779 0.8534 0.0
H132 H 0.32402 0.25236 0.79468 0.0
H133 H 0.41161 0.36602 0.64734 0.0
H134 H 0.38713 0.40562 0.74565 0.0
H135 H 0.33725 0.40632 0.86833 0.0
H136 H 0.25271 0.29141 0.01707 0.0
H137 H 0.28051 0.25418 0.92532 0.0
C138 C 0.3377 0.28581 0.78353 0.0
C139 C 0.36879 0.30607 0.71212 0.0
C140 C 0.32438 0.30822 0.84172 0.0
C141 C 0.38715 0.34963 0.70087 0.0
C142 C 0.37325 0.37222 0.75735 0.0
C143 C 0.32568 0.37339 0.88212 0.0
C144 C 0.29268 0.35166 0.94929 0.0
C145 C 0.34153 0.35173 0.82765 0.0
C146 C 0.27781 0.30886 0.96557 0.0
C147 C 0.29351 0.28742 0.91267 0.0
H148 H 0.07374 0.32089 0.12072 0.0
H149 H 0.05039 0.40867 0.96835 0.0
H150 H 0.98403 0.38328 0.05846 0.0
H151 H 0.9306 0.33227 0.17491 0.0
H152 H 0.95801 0.24699 0.32714 0.0
H153 H 0.02538 0.27605 0.24456 0.0
C154 C 0.05405 0.33438 0.10655 0.0
C155 C 0.06631 0.36577 0.03608 0.0
C156 C 0.01691 0.3204 0.15975 0.0
C157 C 0.04121 0.38395 0.02116 0.0
C158 C 0.00341 0.36953 0.07294 0.0
C159 C 0.95183 0.32085 0.19141 0.0
C160 C 0.93919 0.28732 0.2568 0.0
C161 C 0.99068 0.33737 0.14197 0.0
C162 C 0.96685 0.27254 0.27679 0.0
C163 C 0.0053 0.28896 0.22919 0.0
H164 H 0.66646 0.07696 0.46788 0.0
H165 H 0.71786 0.02734 0.25882 0.0
H166 H 0.68815 0.96171 0.34829 0.0
H167 H 0.6559 0.92235 0.49502 0.0
H168 H 0.60399 0.96947 0.70819 0.0
H169 H 0.62568 0.03249 0.60875 0.0
C170 C 0.66983 0.05115 0.4406 0.0
C171 C 0.69411 0.05673 0.35669 0.0
C172 C 0.65361 0.01373 0.49442 0.0
C173 C 0.69912 0.02354 0.32288 0.0
C174 C 0.68247 0.98621 0.37443 0.0
C175 C 0.64904 0.94631 0.51942 0.0
C176 C 0.62928 0.94193 0.6094 0.0
C177 C 0.66114 0.98166 0.46191 0.0
C178 C 0.61964 0.97256 0.6395 0.0
C179 C 0.63203 0.00845 0.58262 0.0
H180 H 0.60594 0.67609 0.80767 0.0
H181 H 0.71806 0.76606 0.65652 0.0
H182 H 0.75714 0.73572 0.7267 0.0
H183 H 0.7612 0.6877 0.83806 0.0
H184 H 0.65115 0.59702 -0.00611 0.0
H185 H 0.60943 0.62355 0.91499 0.0
C186 C 0.63868 0.68835 0.78891 0.0
C187 C 0.65917 0.72333 0.72714 0.0
C188 C 0.66146 0.67121 0.83159 0.0
C189 C 0.70171 0.73932 0.70418 0.0
C190 C 0.72413 0.72211 0.74454 0.0
C191 C 0.72811 0.67373 0.8557 0.0
C192 C 0.70954 0.64101 0.92355 0.0
C193 C 0.70462 0.68885 0.81001 0.0
C194 C 0.66633 0.62258 0.94281 0.0
C195 C 0.6425 0.63772 0.89755 0.0
H196 H 0.08171 0.74412 0.17361 0.0
H197 H 0.04063 0.64307 0.37803 0.0
H198 H 0.97674 0.60072 0.28193 0.0
H199 H 0.93025 0.59556 0.14516 0.0
H200 H 0.9744 0.69805 0.94328 0.0
H201 H 0.04031 0.73628 0.03109 0.0
C202 C 0.05877 0.71279 0.19741 0.0
C203 C 0.06521 0.69708 0.28404 0.0
C204 C 0.02307 0.68874 0.14118 0.0
C205 C 0.03593 0.65602 0.31233 0.0
C206 C 0.99957 0.63185 0.2572 0.0
C207 C 0.95492 0.62568 0.11912 0.0
C208 C 0.94771 0.64401 0.03766 0.0
C209 C 0.99252 0.64816 0.17197 0.0
C210 C 0.97944 0.68338 0.00549 0.0
C211 C 0.01691 0.70539 0.05617 0.0
H212 H 0.40235 0.07345 0.5316 0.0
H213 H 0.29425 0.0456 0.70809 0.0
H214 H 0.25418 0.97743 0.63029 0.0
H215 H 0.24767 0.92824 0.50498 0.0
H216 H 0.35437 0.95271 0.32764 0.0
H217 H 0.39708 0.01991 0.41201 0.0
C218 C 0.37036 0.05199 0.55439 0.0
C219 C 0.3513 0.06466 0.62561 0.0
C220 C 0.34696 0.01276 0.50762 0.0
C221 C 0.30962 0.03672 0.65343 0.0
C222 C 0.28656 0.99781 0.60853 0.0
C223 C 0.28025 0.94826 0.48408 0.0
C224 C 0.29752 0.93585 0.40849 0.0
C225 C 0.30452 0.98605 0.53389 0.0
C226 C 0.34013 0.96176 0.38464 0.0
C227 C 0.36455 1.00009 0.43317 0.0
H228 H 0.1275 0.36479 0.62436 0.0
H229 H 0.23901 0.35978 0.69112 0.0
H230 H 0.25117 0.3539 0.51891 0.0
H231 H 0.23451 0.35917 0.34959 0.0
H232 H 0.12068 0.35978 0.28281 0.0
H233 H 0.10424 0.35751 0.4552 0.0
C234 C 0.15394 0.36163 0.60071 0.0
C235 C 0.18271 0.36329 0.66867 0.0
C236 C 0.1603 0.35764 0.50224 0.0
C237 C 0.21662 0.3586 0.63891 0.0
C238 C 0.22367 0.35546 0.54085 0.0
C239 C 0.20576 0.35796 0.37323 0.0
C240 C 0.17911 0.36026 0.305 0.0
C241 C 0.19641 0.35627 0.47189 0.0
C242 C 0.14157 0.35806 0.33501 0.0
C243 C 0.13234 0.35707 0.43327 0.0
H244 H 0.85905 0.20911 0.97179 0.0
H245 H 0.73473 0.10106 0.96504 0.0
H246 H 0.7385 0.09771 0.78853 0.0
H247 H 0.77331 0.13136 0.63494 0.0
H248 H 0.89366 0.24471 0.64167 0.0
H249 H 0.89585 0.24009 0.81805 0.0
C250 C 0.83336 0.18424 0.93155 0.0
C251 C 0.79682 0.15516 0.98096 0.0
C252 C 0.83497 0.1838 0.82963 0.0
C253 C 0.76322 0.12364 0.9282 0.0
C254 C 0.76531 0.12184 0.82733 0.0
C255 C 0.80047 0.15427 0.67513 0.0
C256 C 0.83351 0.18804 0.62584 0.0
C257 C 0.80047 0.15254 0.77697 0.0
C258 C 0.86806 0.21828 0.67848 0.0
C259 C 0.86919 0.21576 0.77926 0.0
H260 H 0.64263 0.8753 0.35629 0.0
H261 H 0.65515 0.76541 0.34487 0.0
H262 H 0.66276 0.77123 0.16843 0.0
H263 H 0.65577 0.8018 0.01624 0.0
H264 H 0.63403 0.9061 0.02813 0.0
H265 H 0.64078 0.909 0.20451 0.0
C266 C 0.64834 0.85351 0.31514 0.0
C267 C 0.64893 0.82034 0.36301 0.0
C268 C 0.65057 0.8559 0.21343 0.0
C269 C 0.65497 0.79138 0.3091 0.0
C270 C 0.65908 0.79459 0.20833 0.0
C271 C 0.65379 0.82586 0.05756 0.0
C272 C 0.64489 0.85399 0.00971 0.0
C273 C 0.65555 0.82591 0.15938 0.0
C274 C 0.6412 0.88437 0.0638 0.0
C275 C 0.64481 0.88586 0.16458 0.0
H276 H 0.79329 0.64937 0.65444 0.0
H277 H 0.90195 0.63442 0.64148 0.0
H278 H 0.90443 0.64125 0.46514 0.0
H279 H 0.86995 0.64179 0.31338 0.0
H280 H 0.75596 0.64722 0.32588 0.0
H281 H 0.76135 0.65442 0.50242 0.0
C282 C 0.8181 0.64875 0.6129 0.0
C283 C 0.8476 0.64175 0.66056 0.0
C284 C 0.81804 0.65061 0.51104 0.0
C285 C 0.87903 0.63996 0.60607 0.0
C286 C 0.88034 0.64368 0.50529 0.0
C287 C 0.84708 0.6458 0.35489 0.0
C288 C 0.81297 0.64463 0.30721 0.0
C289 C 0.84924 0.64768 0.45669 0.0
C290 C 0.78271 0.64854 0.36146 0.0
C291 C 0.78566 0.65236 0.46231 0.0
H292 H 0.13205 0.74771 0.72435 0.0
H293 H 0.20923 0.87719 0.64121 0.0
H294 H 0.22254 0.89822 0.81094 0.0
H295 H 0.21986 0.87811 0.98222 0.0
H296 H 0.141 0.74891 0.0642 0.0
H297 H 0.12022 0.72922 0.89595 0.0
C298 C 0.15108 0.78055 0.74379 0.0
C299 C 0.17019 0.81077 0.67132 0.0
C300 C 0.15857 0.79235 0.84107 0.0
C301 C 0.19427 0.85338 0.69644 0.0
C302 C 0.20217 0.86541 0.79329 0.0
C303 C 0.19756 0.84595 0.96263 0.0
C304 C 0.18201 0.8148 0.03343 0.0
C305 C 0.18571 0.83497 0.86603 0.0
C306 C 0.15303 0.77314 0.00934 0.0
C307 C 0.14135 0.76189 0.91358 0.0
H308 H 0.36655 0.24562 0.29033 0.0
H309 H 0.3591 0.1282 0.35894 0.0
H310 H 0.35536 0.11092 0.1868 0.0
H311 H 0.36315 0.1337 0.0172 0.0
H312 H 0.36612 0.24904 0.94872 0.0
H313 H 0.36202 0.26262 0.12064 0.0
C314 C 0.36325 0.21595 0.26711 0.0
C315 C 0.3636 0.18839 0.33572 0.0
C316 C 0.36064 0.2061 0.16862 0.0
C317 C 0.35881 0.14974 0.30635 0.0
C318 C 0.35698 0.14002 0.20828 0.0
C319 C 0.36218 0.16136 0.04041 0.0
C320 C 0.36552 0.19067 0.97187 0.0
C321 C 0.35925 0.16861 0.13884 0.0
C322 C 0.3636 0.22617 0.00122 0.0
C323 C 0.3615 0.23405 0.0992 0.0
H324 H 0.23348 0.57349 0.00695 0.0
H325 H 0.22054 0.52122 0.2924 0.0
H326 H 0.21879 0.58169 0.36255 0.0
H327 H 0.21823 0.64736 0.34094 0.0
H328 H 0.23251 0.7 0.0553 0.0
H329 H 0.23627 0.6406 0.98611 0.0
C330 C 0.23014 0.57515 0.08469 0.0
C331 C 0.22642 0.54258 0.14457 0.0
C332 C 0.22918 0.60973 0.12382 0.0
C333 C 0.22328 0.54579 0.24506 0.0
C334 C 0.2221 0.5802 0.28484 0.0
C335 C 0.22187 0.6458 0.2633 0.0
C336 C 0.22434 0.67772 0.20285 0.0
C337 C 0.22445 0.61197 0.22462 0.0
C338 C 0.23022 0.67574 0.10301 0.0
C339 C 0.23237 0.64183 0.06367 0.0
H340 H 0.6609 0.23282 0.32 0.0
H341 H 0.6973 0.22269 0.61032 0.0
H342 H 0.63471 0.22255 0.67421 0.0
H343 H 0.56836 0.22104 0.64541 0.0
H344 H 0.5323 0.23129 0.35448 0.0
H345 H 0.59672 0.2353 0.29195 0.0
C346 C 0.65521 0.23057 0.39751 0.0
C347 C 0.68324 0.22699 0.46062 0.0
C348 C 0.6193 0.23008 0.43284 0.0
C349 C 0.67614 0.22533 0.56064 0.0
C350 C 0.64028 0.22495 0.59676 0.0
C351 C 0.57427 0.22381 0.56802 0.0
C352 C 0.54501 0.22492 0.50416 0.0
C353 C 0.61133 0.22645 0.53319 0.0
C354 C 0.55397 0.22988 0.40476 0.0
C355 C 0.59078 0.23223 0.36926 0.0
H356 H 0.34786 0.57038 0.00068 0.0
H357 H 0.31467 0.53144 0.70357 0.0
H358 H 0.37719 0.59588 0.64898 0.0
H359 H 0.44155 0.66113 0.68643 0.0
H360 H 0.47441 0.70131 0.98294 0.0
H361 H 0.4107 0.6378 0.03793 0.0
C362 C 0.35436 0.57579 0.92378 0.0
C363 C 0.32711 0.54576 0.85592 0.0
C364 C 0.38997 0.6128 0.89346 0.0
C365 C 0.33527 0.55386 0.75685 0.0
C366 C 0.37099 0.59059 0.72593 0.0
C367 C 0.43511 0.65598 0.76342 0.0
C368 C 0.46322 0.68543 0.831 0.0
C369 C 0.39866 0.61989 0.79374 0.0
C370 C 0.45354 0.67895 0.92991 0.0
C371 C 0.41724 0.64268 0.96102 0.0
H372 H 0.77527 0.34068 0.30641 0.0
H373 H 0.77291 0.30044 0.01121 0.0
H374 H 0.77215 0.36295 0.95352 0.0
H375 H 0.77639 0.4302 0.98788 0.0
H376 H 0.77853 0.47035 0.28303 0.0
H377 H 0.77478 0.40565 0.34092 0.0
C378 C 0.77478 0.34559 0.22918 0.0
C379 C 0.77517 0.31651 0.16268 0.0
C380 C 0.77434 0.38128 0.19726 0.0
C381 C 0.77304 0.32255 0.06338 0.0
C382 C 0.77272 0.35826 0.03072 0.0
C383 C 0.7762 0.42495 0.06512 0.0
C384 C 0.77873 0.45542 0.13151 0.0
C385 C 0.77411 0.38805 0.09713 0.0
C386 C 0.77699 0.44755 0.23094 0.0
C387 C 0.77499 0.41072 0.26369 0.0
H388 H 0.34819 0.77875 0.35485 0.0
H389 H 0.30172 0.77052 0.6466 0.0
H390 H 0.36214 0.76703 0.7086 0.0
H391 H 0.42906 0.76991 0.67957 0.0
H392 H 0.4758 0.77824 0.38822 0.0
H393 H 0.41308 0.77722 0.32516 0.0
C394 C 0.35134 0.7765 0.43227 0.0
C395 C 0.32105 0.77591 0.49662 0.0
C396 C 0.38574 0.77423 0.46671 0.0
C397 C 0.32484 0.77153 0.59608 0.0
C398 C 0.35928 0.76951 0.63123 0.0
C399 C 0.42562 0.77153 0.60202 0.0
C400 C 0.45736 0.77501 0.53833 0.0
C401 C 0.39006 0.77139 0.56716 0.0
C402 C 0.4519 0.77577 0.43832 0.0
C403 C 0.41627 0.77547 0.40265 0.0
H404 H 0.66409 0.43189 0.97735 0.0
H405 H 0.70699 0.4735 0.68566 0.0
H406 H 0.64456 0.41113 0.62235 0.0
H407 H 0.57663 0.34772 0.65126 0.0
H408 H 0.53411 0.30625 0.9434 0.0
H409 H 0.59845 0.36638 0.00614 0.0
C410 C 0.6598 0.42749 0.89968 0.0
C411 C 0.68961 0.45771 0.83588 0.0
C412 C 0.62412 0.39194 0.86457 0.0
C413 C 0.68434 0.45087 0.73585 0.0
C414 C 0.64864 0.41537 0.69999 0.0
C415 C 0.58124 0.35183 0.72888 0.0
C416 C 0.5502 0.32302 0.79299 0.0
C417 C 0.61809 0.38621 0.76386 0.0
C418 C 0.5573 0.32813 0.89292 0.0
C419 C 0.59398 0.36248 0.92853 0.0
loop_
_geom_bond_atom_site_label_1
_geom_bond_atom_site_label_2
_geom_bond_distance
_geom_bond_site_symmetry_2
_ccdc_geom_bond_type
Sc0 O3 2.025 . S
Sc0 O10 2.105 1_554 S
Sc0 O13 2.105 . S
Sc0 O16 2.105 . S
Sc0 O19 2.105 1_554 S
Sc1 O3 2.025 . S
Sc1 O11 2.105 . S
Sc1 O15 2.105 . S
Sc1 O17 2.105 . S
Sc1 O21 2.105 1_554 S
Sc2 O3 2.025 1_556 S
Sc2 O12 2.105 . S
Sc2 O14 2.105 . S
Sc2 O18 2.105 1_556 S
Sc2 O20 2.105 . S
O3 Sc0 2.025 . S
O3 Sc1 2.025 . S
O3 Sc2 2.025 1_554 S
C4 O10 1.268 . S
C4 O20 1.268 . S
C5 O11 1.268 1_556 S
C5 O19 1.268 . S
C6 O12 1.268 . S
C6 O21 1.268 . S
C7 O13 1.268 . S
C7 O17 1.268 . S
C8 O14 1.268 1_554 S
C8 O16 1.268 . S
C9 O15 1.268 . S
C9 O18 1.268 . S
O10 Sc0 2.105 1_556 S
O10 C4 1.268 . S
O11 Sc1 2.105 . S
O11 C5 1.268 1_554 S
O12 Sc2 2.105 . S
O12 C6 1.268 . S
O13 Sc0 2.105 . S
O13 C7 1.268 . S
O14 Sc2 2.105 . S
O14 C8 1.268 1_556 S
O15 Sc1 2.105 . S
O15 C9 1.268 . S
O16 Sc0 2.105 . S
O16 C8 1.268 . S
O17 Sc1 2.105 . S
O17 C7 1.268 . S
O18 Sc2 2.105 1_554 S
O18 C9 1.268 . S
O19 Sc0 2.105 1_556 S
O19 C5 1.268 . S
O20 Sc2 2.105 . S
O20 C4 1.268 . S
O21 Sc1 2.105 1_556 S
O21 C6 1.268 . S
Sc22 O25 2.025 . S
Sc22 O32 2.105 . S
Sc22 O35 2.105 . S
Sc22 O38 2.105 . S
Sc22 O41 2.105 . S
Sc23 O25 2.025 . S
Sc23 O33 2.105 . S
Sc23 O37 2.105 . S
Sc23 O39 2.105 . S
Sc23 O43 2.105 . S
Sc24 O25 2.025 . S
Sc24 O34 2.105 . S
Sc24 O36 2.105 . S
Sc24 O40 2.105 . S
Sc24 O42 2.105 . S
O25 Sc22 2.025 . S
O25 Sc23 2.025 . S
O25 Sc24 2.025 . S
C26 O32 1.268 . S
C26 O42 1.268 . S
C27 O33 1.268 . S
C27 O41 1.268 . S
C28 O34 1.268 . S
C28 O43 1.268 . S
C29 O35 1.268 . S
C29 O39 1.268 . S
C30 O36 1.268 . S
C30 O38 1.268 . S
C31 O37 1.268 . S
C31 O40 1.268 . S
O32 Sc22 2.105 . S
O32 C26 1.268 . S
O33 Sc23 2.105 . S
O33 C27 1.268 . S
O34 Sc24 2.105 . S
O34 C28 1.268 . S
O35 Sc22 2.105 . S
O35 C29 1.268 . S
O36 Sc24 2.105 . S
O36 C30 1.268 . S
O37 Sc23 2.105 . S
O37 C31 1.268 . S
O38 Sc22 2.105 . S
O38 C30 1.268 . S
O39 Sc23 2.105 . S
O39 C29 1.268 . S
O40 Sc24 2.105 . S
O40 C31 1.268 . S
O41 Sc22 2.105 . S
O41 C27 1.268 . S
O42 Sc24 2.105 . S
O42 C26 1.268 . S
O43 Sc23 2.105 . S
O43 C28 1.268 . S
Sc44 O47 2.025 . S
Sc44 O54 2.105 . S
Sc44 O57 2.105 . S
Sc44 O60 2.105 . S
Sc44 O63 2.105 . S
Sc45 O47 2.025 . S
Sc45 O55 2.105 . S
Sc45 O59 2.105 . S
Sc45 O61 2.105 . S
Sc45 O65 2.105 . S
Sc46 O47 2.025 . S
Sc46 O56 2.105 . S
Sc46 O58 2.105 . S
Sc46 O62 2.105 . S
Sc46 O64 2.105 . S
O47 Sc44 2.025 . S
O47 Sc45 2.025 . S
O47 Sc46 2.025 . S
C48 O54 1.268 . S
C48 O64 1.268 . S
C49 O55 1.268 . S
C49 O63 1.268 . S
C50 O56 1.268 . S
C50 O65 1.268 . S
C51 O57 1.268 . S
C51 O61 1.268 . S
C52 O58 1.268 . S
C52 O60 1.268 . S
C53 O59 1.268 . S
C53 O62 1.268 . S
O54 Sc44 2.105 . S
O54 C48 1.268 . S
O55 Sc45 2.105 . S
O55 C49 1.268 . S
O56 Sc46 2.105 . S
O56 C50 1.268 . S
O57 Sc44 2.105 . S
O57 C51 1.268 . S
O58 Sc46 2.105 . S
O58 C52 1.268 . S
O59 Sc45 2.105 . S
O59 C53 1.268 . S
O60 Sc44 2.105 . S
O60 C52 1.268 . S
O61 Sc45 2.105 . S
O61 C51 1.268 . S
O62 Sc46 2.105 . S
O62 C53 1.268 . S
O63 Sc44 2.105 . S
O63 C49 1.268 . S
O64 Sc46 2.105 . S
O64 C48 1.268 . S
O65 Sc45 2.105 . S
O65 C50 1.268 . S
Sc66 O69 2.025 1_556 S
Sc66 O76 2.105 . S
Sc66 O79 2.105 . S
Sc66 O82 2.105 . S
Sc66 O85 2.105 1_556 S
Sc67 O69 2.025 . S
Sc67 O77 2.105 . S
Sc67 O81 2.105 . S
Sc67 O83 2.105 1_554 S
Sc67 O87 2.105 . S
Sc68 O69 2.025 . S
Sc68 O78 2.105 . S
Sc68 O80 2.105 1_554 S
Sc68 O84 2.105 1_554 S
Sc68 O86 2.105 . S
O69 Sc66 2.025 1_554 S
O69 Sc67 2.025 . S
O69 Sc68 2.025 . S
C70 O76 1.268 1_554 S
C70 O86 1.268 . S
C71 O77 1.268 . S
C71 O85 1.268 . S
C72 O78 1.268 . S
C72 O87 1.268 . S
C73 O79 1.268 . S
C73 O83 1.268 . S
C74 O80 1.268 . S
C74 O82 1.268 . S
C75 O81 1.268 1_556 S
C75 O84 1.268 . S
O76 Sc66 2.105 . S
O76 C70 1.268 1_556 S
O77 Sc67 2.105 . S
O77 C71 1.268 . S
O78 Sc68 2.105 . S
O78 C72 1.268 . S
O79 Sc66 2.105 . S
O79 C73 1.268 . S
O80 Sc68 2.105 1_556 S
O80 C74 1.268 . S
O81 Sc67 2.105 . S
O81 C75 1.268 1_554 S
O82 Sc66 2.105 . S
O82 C74 1.268 . S
O83 Sc67 2.105 1_556 S
O83 C73 1.268 . S
O84 Sc68 2.105 1_556 S
O84 C75 1.268 . S
O85 Sc66 2.105 1_554 S
O85 C71 1.268 . S
O86 Sc68 2.105 . S
O86 C70 1.268 . S
O87 Sc67 2.105 . S
O87 C72 1.268 . S
Sc88 O91 2.025 . S
Sc88 O98 2.105 . S
Sc88 O101 2.105 . S
Sc88 O104 2.105 . S
Sc88 O107 2.105 . S
Sc89 O91 2.025 . S
Sc89 O99 2.105 . S
Sc89 O103 2.105 . S
Sc89 O105 2.105 . S
Sc89 O109 2.105 . S
Sc90 O91 2.025 . S
Sc90 O100 2.105 . S
Sc90 O102 2.105 . S
Sc90 O106 2.105 . S
Sc90 O108 2.105 . S
O91 Sc88 2.025 . S
O91 Sc89 2.025 . S
O91 Sc90 2.025 . S
C92 O98 1.268 . S
C92 O108 1.268 . S
C93 O99 1.268 . S
C93 O107 1.268 . S
C94 O100 1.268 . S
C94 O109 1.268 . S
C95 O101 1.268 . S
C95 O105 1.268 . S
C96 O102 1.268 . S
C96 O104 1.268 . S
C97 O103 1.268 . S
C97 O106 1.268 . S
O98 Sc88 2.105 . S
O98 C92 1.268 . S
O99 Sc89 2.105 . S
O99 C93 1.268 . S
O100 Sc90 2.105 . S
O100 C94 1.268 . S
O101 Sc88 2.105 . S
O101 C95 1.268 . S
O102 Sc90 2.105 . S
O102 C96 1.268 . S
O103 Sc89 2.105 . S
O103 C97 1.268 . S
O104 Sc88 2.105 . S
O104 C96 1.268 . S
O105 Sc89 2.105 . S
O105 C95 1.268 . S
O106 Sc90 2.105 . S
O106 C97 1.268 . S
O107 Sc88 2.105 . S
O107 C93 1.268 . S
O108 Sc90 2.105 . S
O108 C92 1.268 . S
O109 Sc89 2.105 . S
O109 C94 1.268 . S
Sc110 O113 2.025 . S
Sc110 O120 2.105 . S
Sc110 O123 2.105 . S
Sc110 O126 2.105 . S
Sc110 O129 2.105 . S
Sc111 O113 2.025 . S
Sc111 O121 2.105 . S
Sc111 O125 2.105 . S
Sc111 O127 2.105 . S
Sc111 O131 2.105 . S
Sc112 O113 2.025 . S
Sc112 O122 2.105 . S
Sc112 O124 2.105 . S
Sc112 O128 2.105 . S
Sc112 O130 2.105 . S
O113 Sc110 2.025 . S
O113 Sc111 2.025 . S
O113 Sc112 2.025 . S
C114 O120 1.268 . S
C114 O130 1.268 . S
C115 O121 1.268 . S
C115 O129 1.268 . S
C116 O122 1.268 . S
C116 O131 1.268 . S
C117 O123 1.268 . S
C117 O127 1.268 . S
C118 O124 1.268 . S
C118 O126 1.268 . S
C119 O125 1.268 . S
C119 O128 1.268 . S
O120 Sc110 2.105 . S
O120 C114 1.268 . S
O121 Sc111 2.105 . S
O121 C115 1.268 . S
O122 Sc112 2.105 . S
O122 C116 1.268 . S
O123 Sc110 2.105 . S
O123 C117 1.268 . S
O124 Sc112 2.105 . S
O124 C118 1.268 . S
O125 Sc111 2.105 . S
O125 C119 1.268 . S
O126 Sc110 2.105 . S
O126 C118 1.268 . S
O127 Sc111 2.105 . S
O127 C117 1.268 . S
O128 Sc112 2.105 . S
O128 C119 1.268 . S
O129 Sc110 2.105 . S
O129 C115 1.268 . S
O130 Sc112 2.105 . S
O130 C114 1.268 . S
O131 Sc111 2.105 . S
O131 C116 1.268 . S
H132 C138 0.930 . S
H133 C141 0.930 . S
H134 C142 0.930 . S
H135 C143 0.930 . S
H136 C146 0.930 . S
H137 C147 0.930 . S
C138 H132 0.930 . S
C138 C139 1.355 . S
C138 C140 1.415 . S
C139 C138 1.355 . S
C139 C141 1.419 . S
C140 C138 1.415 . S
C140 C145 1.425 . S
C140 C147 1.409 . S
C141 H133 0.930 . S
C141 C139 1.419 . S
C141 C142 1.362 . S
C142 H134 0.930 . S
C142 C141 1.362 . S
C142 C145 1.409 . S
C143 H135 0.930 . S
C143 C144 1.355 . S
C143 C145 1.415 . S
C144 C143 1.355 . S
C144 C146 1.419 . S
C145 C140 1.425 . S
C145 C142 1.409 . S
C145 C143 1.415 . S
C146 H136 0.930 . S
C146 C144 1.419 . S
C146 C147 1.362 . S
C147 H137 0.930 . S
C147 C140 1.409 . S
C147 C146 1.362 . S
H148 C154 0.930 . S
H149 C157 0.930 1_556 S
H150 C158 0.930 . S
H151 C159 0.930 . S
H152 C162 0.930 . S
H153 C163 0.930 . S
C154 H148 0.930 . S
C154 C155 1.355 . S
C154 C156 1.415 . S
C155 C154 1.355 . S
C155 C157 1.419 . S
C156 C154 1.415 . S
C156 C161 1.425 1_455 S
C156 C163 1.409 . S
C157 H149 0.930 1_554 S
C157 C155 1.419 . S
C157 C158 1.362 1_455 S
C158 H150 0.930 . S
C158 C157 1.362 1_655 S
C158 C161 1.409 . S
C159 H151 0.930 . S
C159 C160 1.355 . S
C159 C161 1.415 . S
C160 C159 1.355 . S
C160 C162 1.419 . S
C161 C156 1.425 1_655 S
C161 C158 1.409 . S
C161 C159 1.415 . S
C162 H152 0.930 . S
C162 C160 1.419 . S
C162 C163 1.362 1_655 S
C163 H153 0.930 . S
C163 C156 1.409 . S
C163 C162 1.362 1_455 S
H164 C170 0.930 . S
H165 C173 0.930 . S
H166 C174 0.930 . S
H167 C175 0.930 . S
H168 C178 0.930 . S
H169 C179 0.930 . S
C170 H164 0.930 . S
C170 C171 1.355 . S
C170 C172 1.415 . S
C171 C170 1.355 . S
C171 C173 1.419 . S
C172 C170 1.415 . S
C172 C177 1.425 1_545 S
C172 C179 1.409 . S
C173 H165 0.930 . S
C173 C171 1.419 . S
C173 C174 1.362 1_545 S
C174 H166 0.930 . S
C174 C173 1.362 1_565 S
C174 C177 1.409 . S
C175 H167 0.930 . S
C175 C176 1.355 . S
C175 C177 1.415 . S
C176 C175 1.355 . S
C176 C178 1.419 . S
C177 C172 1.425 1_565 S
C177 C174 1.409 . S
C177 C175 1.415 . S
C178 H168 0.930 . S
C178 C176 1.419 . S
C178 C179 1.362 1_565 S
C179 H169 0.930 . S
C179 C172 1.409 . S
C179 C178 1.362 1_545 S
H180 C186 0.930 . S
H181 C189 0.930 . S
H182 C190 0.930 . S
H183 C191 0.930 1_554 S
H184 C194 0.930 . S
H185 C195 0.930 . S
C186 H180 0.930 . S
C186 C187 1.355 . S
C186 C188 1.415 . S
C187 C186 1.355 . S
C187 C189 1.419 . S
C188 C186 1.415 . S
C188 C193 1.425 . S
C188 C195 1.409 . S
C189 H181 0.930 . S
C189 C187 1.419 . S
C189 C190 1.362 . S
C190 H182 0.930 . S
C190 C189 1.362 . S
C190 C193 1.409 . S
C191 H183 0.930 1_556 S
C191 C192 1.355 . S
C191 C193 1.415 . S
C192 C191 1.355 . S
C192 C194 1.419 . S
C193 C188 1.425 . S
C193 C190 1.409 . S
C193 C191 1.415 . S
C194 H184 0.930 . S
C194 C192 1.419 . S
C194 C195 1.362 . S
C195 H185 0.930 . S
C195 C188 1.409 . S
C195 C194 1.362 . S
H196 C202 0.930 . S
H197 C205 0.930 . S
H198 C206 0.930 . S
H199 C207 0.930 . S
H200 C210 0.930 . S
H201 C211 0.930 . S
C202 H196 0.930 . S
C202 C203 1.355 . S
C202 C204 1.431 . S
C203 C202 1.355 . S
C203 C205 1.419 . S
C204 C202 1.431 . S
C204 C209 1.446 1_455 S
C204 C211 1.383 1_455 S
C205 H197 0.930 . S
C205 C203 1.419 . S
C205 C206 1.362 . S
C206 H198 0.930 . S
C206 C205 1.362 . S
C206 C209 1.383 1_455 S
C207 H199 0.930 . S
C207 C208 1.355 . S
C207 C209 1.431 . S
C208 C207 1.355 . S
C208 C210 1.419 . S
C209 C204 1.446 1_655 S
C209 C206 1.383 1_655 S
C209 C207 1.431 . S
C210 H200 0.930 . S
C210 C208 1.419 . S
C210 C211 1.362 . S
C211 H201 0.930 . S
C211 C204 1.383 1_655 S
C211 C210 1.362 . S
H212 C218 0.930 . S
H213 C221 0.930 . S
H214 C222 0.930 . S
H215 C223 0.930 . S
H216 C226 0.930 . S
H217 C227 0.930 . S
C218 H212 0.930 . S
C218 C219 1.355 . S
C218 C220 1.415 . S
C219 C218 1.355 . S
C219 C221 1.419 . S
C220 C218 1.415 . S
C220 C225 1.425 1_545 S
C220 C227 1.409 1_545 S
C221 H213 0.930 . S
C221 C219 1.419 . S
C221 C222 1.362 . S
C222 H214 0.930 . S
C222 C221 1.362 . S
C222 C225 1.409 1_545 S
C223 H215 0.930 . S
C223 C224 1.355 . S
C223 C225 1.415 . S
C224 C223 1.355 . S
C224 C226 1.419 . S
C225 C220 1.425 1_565 S
C225 C222 1.409 1_565 S
C225 C223 1.415 . S
C226 H216 0.930 . S
C226 C224 1.419 . S
C226 C227 1.362 . S
C227 H217 0.930 . S
C227 C220 1.409 1_565 S
C227 C226 1.362 . S
H228 C234 0.930 . S
H229 C237 0.930 . S
H230 C238 0.930 . S
H231 C239 0.930 . S
H232 C242 0.930 . S
H233 C243 0.930 . S
C234 H228 0.930 . S
C234 C235 1.355 . S
C234 C236 1.415 . S
C235 C234 1.355 . S
C235 C237 1.419 . S
C236 C234 1.415 . S
C236 C241 1.425 . S
C236 C243 1.409 . S
C237 H229 0.930 . S
C237 C235 1.419 . S
C237 C238 1.362 . S
C238 H230 0.930 . S
C238 C237 1.362 . S
C238 C241 1.409 . S
C239 H231 0.930 . S
C239 C240 1.355 . S
C239 C241 1.415 . S
C240 C239 1.355 . S
C240 C242 1.419 . S
C241 C236 1.425 . S
C241 C238 1.409 . S
C241 C239 1.415 . S
C242 H232 0.930 . S
C242 C240 1.419 . S
C242 C243 1.362 . S
C243 H233 0.930 . S
C243 C236 1.409 . S
C243 C242 1.362 . S
H244 C250 0.930 . S
H245 C253 0.930 1_554 S
H246 C254 0.930 . S
H247 C255 0.930 . S
H248 C258 0.930 . S
H249 C259 0.930 . S
C250 H244 0.930 . S
C250 C251 1.355 1_556 S
C250 C252 1.415 . S
C251 C250 1.355 1_554 S
C251 C253 1.419 1_554 S
C252 C250 1.415 . S
C252 C257 1.425 . S
C252 C259 1.409 . S
C253 H245 0.930 1_556 S
C253 C251 1.419 1_556 S
C253 C254 1.362 . S
C254 H246 0.930 . S
C254 C253 1.362 . S
C254 C257 1.409 . S
C255 H247 0.930 . S
C255 C256 1.355 . S
C255 C257 1.415 . S
C256 C255 1.355 . S
C256 C258 1.419 . S
C257 C252 1.425 . S
C257 C254 1.409 . S
C257 C255 1.415 . S
C258 H248 0.930 . S
C258 C256 1.419 . S
C258 C259 1.362 . S
C259 H249 0.930 . S
C259 C252 1.409 . S
C259 C258 1.362 . S
H260 C266 0.930 . S
H261 C269 0.930 . S
H262 C270 0.930 . S
H263 C271 0.930 . S
H264 C274 0.930 1_556 S
H265 C275 0.930 . S
C266 H260 0.930 . S
C266 C267 1.355 . S
C266 C268 1.415 . S
C267 C266 1.355 . S
C267 C269 1.419 . S
C268 C266 1.415 . S
C268 C273 1.425 . S
C268 C275 1.409 . S
C269 H261 0.930 . S
C269 C267 1.419 . S
C269 C270 1.362 . S
C270 H262 0.930 . S
C270 C269 1.362 . S
C270 C273 1.409 . S
C271 H263 0.930 . S
C271 C272 1.355 1_554 S
C271 C273 1.415 . S
C272 C271 1.355 1_556 S
C272 C274 1.419 1_556 S
C273 C268 1.425 . S
C273 C270 1.409 . S
C273 C271 1.415 . S
C274 H264 0.930 1_554 S
C274 C272 1.419 1_554 S
C274 C275 1.362 . S
C275 H265 0.930 . S
C275 C268 1.409 . S
C275 C274 1.362 . S
H276 C282 0.930 . S
H277 C285 0.930 . S
H278 C286 0.930 . S
H279 C287 0.930 . S
H280 C290 0.930 . S
H281 C291 0.930 . S
C282 H276 0.930 . S
C282 C283 1.355 . S
C282 C284 1.415 . S
C283 C282 1.355 . S
C283 C285 1.419 . S
C284 C282 1.415 . S
C284 C289 1.425 . S
C284 C291 1.409 . S
C285 H277 0.930 . S
C285 C283 1.419 . S
C285 C286 1.362 . S
C286 H278 0.930 . S
C286 C285 1.362 . S
C286 C289 1.409 . S
C287 H279 0.930 . S
C287 C288 1.355 . S
C287 C289 1.415 . S
C288 C287 1.355 . S
C288 C290 1.419 . S
C289 C284 1.425 . S
C289 C286 1.409 . S
C289 C287 1.415 . S
C290 H280 0.930 . S
C290 C288 1.419 . S
C290 C291 1.362 . S
C291 H281 0.930 . S
C291 C284 1.409 . S
C291 C290 1.362 . S
H292 C298 0.930 . S
H293 C301 0.930 . S
H294 C302 0.930 . S
H295 C303 0.930 . S
H296 C306 0.930 1_554 S
H297 C307 0.930 . S
C298 H292 0.930 . S
C298 C299 1.355 . S
C298 C300 1.415 . S
C299 C298 1.355 . S
C299 C301 1.419 . S
C300 C298 1.415 . S
C300 C305 1.425 . S
C300 C307 1.409 . S
C301 H293 0.930 . S
C301 C299 1.419 . S
C301 C302 1.362 . S
C302 H294 0.930 . S
C302 C301 1.362 . S
C302 C305 1.409 . S
C303 H295 0.930 . S
C303 C304 1.355 1_556 S
C303 C305 1.415 . S
C304 C303 1.355 1_554 S
C304 C306 1.419 1_554 S
C305 C300 1.425 . S
C305 C302 1.409 . S
C305 C303 1.415 . S
C306 H296 0.930 1_556 S
C306 C304 1.419 1_556 S
C306 C307 1.362 . S
C307 H297 0.930 . S
C307 C300 1.409 . S
C307 C306 1.362 . S
H308 C314 0.930 . S
H309 C317 0.930 . S
H310 C318 0.930 . S
H311 C319 0.930 . S
H312 C322 0.930 1_556 S
H313 C323 0.930 . S
C314 H308 0.930 . S
C314 C315 1.355 . S
C314 C316 1.415 . S
C315 C314 1.355 . S
C315 C317 1.419 . S
C316 C314 1.415 . S
C316 C321 1.425 . S
C316 C323 1.409 . S
C317 H309 0.930 . S
C317 C315 1.419 . S
C317 C318 1.362 . S
C318 H310 0.930 . S
C318 C317 1.362 . S
C318 C321 1.409 . S
C319 H311 0.930 . S
C319 C320 1.355 1_554 S
C319 C321 1.415 . S
C320 C319 1.355 1_556 S
C320 C322 1.419 1_556 S
C321 C316 1.425 . S
C321 C318 1.409 . S
C321 C319 1.415 . S
C322 H312 0.930 1_554 S
C322 C320 1.419 1_554 S
C322 C323 1.362 . S
C323 H313 0.930 . S
C323 C316 1.409 . S
C323 C322 1.362 . S
H324 C330 0.930 . S
H325 C333 0.930 . S
H326 C334 0.930 . S
H327 C335 0.930 . S
H328 C338 0.930 . S
H329 C339 0.930 . S
C330 H324 0.930 . S
C330 C331 1.355 . S
C330 C332 1.415 . S
C331 C330 1.355 . S
C331 C333 1.419 . S
C332 C330 1.415 . S
C332 C337 1.425 . S
C332 C339 1.409 . S
C333 H325 0.930 . S
C333 C331 1.419 . S
C333 C334 1.362 . S
C334 H326 0.930 . S
C334 C333 1.362 . S
C334 C337 1.409 . S
C335 H327 0.930 . S
C335 C336 1.355 . S
C335 C337 1.415 . S
C336 C335 1.355 . S
C336 C338 1.419 . S
C337 C332 1.425 . S
C337 C334 1.409 . S
C337 C335 1.415 . S
C338 H328 0.930 . S
C338 C336 1.419 . S
C338 C339 1.362 . S
C339 H329 0.930 . S
C339 C332 1.409 . S
C339 C338 1.362 . S
H340 C346 0.930 . S
H341 C349 0.930 . S
H342 C350 0.930 . S
H343 C351 0.930 . S
H344 C354 0.930 . S
H345 C355 0.930 . S
C346 H340 0.930 . S
C346 C347 1.355 . S
C346 C348 1.415 . S
C347 C346 1.355 . S
C347 C349 1.419 . S
C348 C346 1.415 . S
C348 C353 1.425 . S
C348 C355 1.409 . S
C349 H341 0.930 . S
C349 C347 1.419 . S
C349 C350 1.362 . S
C350 H342 0.930 . S
C350 C349 1.362 . S
C350 C353 1.409 . S
C351 H343 0.930 . S
C351 C352 1.355 . S
C351 C353 1.415 . S
C352 C351 1.355 . S
C352 C354 1.419 . S
C353 C348 1.425 . S
C353 C350 1.409 . S
C353 C351 1.415 . S
C354 H344 0.930 . S
C354 C352 1.419 . S
C354 C355 1.362 . S
C355 H345 0.930 . S
C355 C348 1.409 . S
C355 C354 1.362 . S
H356 C362 0.930 . S
H357 C365 0.930 . S
H358 C366 0.930 . S
H359 C367 0.930 . S
H360 C370 0.930 . S
H361 C371 0.930 1_554 S
C362 H356 0.930 . S
C362 C363 1.355 . S
C362 C364 1.415 . S
C363 C362 1.355 . S
C363 C365 1.419 . S
C364 C362 1.415 . S
C364 C369 1.425 . S
C364 C371 1.409 . S
C365 H357 0.930 . S
C365 C363 1.419 . S
C365 C366 1.362 . S
C366 H358 0.930 . S
C366 C365 1.362 . S
C366 C369 1.409 . S
C367 H359 0.930 . S
C367 C368 1.355 . S
C367 C369 1.415 . S
C368 C367 1.355 . S
C368 C370 1.419 . S
C369 C364 1.425 . S
C369 C366 1.409 . S
C369 C367 1.415 . S
C370 H360 0.930 . S
C370 C368 1.419 . S
C370 C371 1.362 . S
C371 H361 0.930 1_556 S
C371 C364 1.409 . S
C371 C370 1.362 . S
H372 C378 0.930 . S
H373 C381 0.930 . S
H374 C382 0.930 . S
H375 C383 0.930 . S
H376 C386 0.930 . S
H377 C387 0.930 . S
C378 H372 0.930 . S
C378 C379 1.355 . S
C378 C380 1.415 . S
C379 C378 1.355 . S
C379 C381 1.419 . S
C380 C378 1.415 . S
C380 C385 1.425 . S
C380 C387 1.409 . S
C381 H373 0.930 . S
C381 C379 1.419 . S
C381 C382 1.362 . S
C382 H374 0.930 . S
C382 C381 1.362 . S
C382 C385 1.409 . S
C383 H375 0.930 . S
C383 C384 1.355 . S
C383 C385 1.415 . S
C384 C383 1.355 . S
C384 C386 1.419 . S
C385 C380 1.425 . S
C385 C382 1.409 . S
C385 C383 1.415 . S
C386 H376 0.930 . S
C386 C384 1.419 . S
C386 C387 1.362 . S
C387 H377 0.930 . S
C387 C380 1.409 . S
C387 C386 1.362 . S
H388 C394 0.930 . S
H389 C397 0.930 . S
H390 C398 0.930 . S
H391 C399 0.930 . S
H392 C402 0.930 . S
H393 C403 0.930 . S
C394 H388 0.930 . S
C394 C395 1.355 . S
C394 C396 1.415 . S
C395 C394 1.355 . S
C395 C397 1.419 . S
C396 C394 1.415 . S
C396 C401 1.425 . S
C396 C403 1.409 . S
C397 H389 0.930 . S
C397 C395 1.419 . S
C397 C398 1.362 . S
C398 H390 0.930 . S
C398 C397 1.362 . S
C398 C401 1.409 . S
C399 H391 0.930 . S
C399 C400 1.355 . S
C399 C401 1.415 . S
C400 C399 1.355 . S
C400 C402 1.419 . S
C401 C396 1.425 . S
C401 C398 1.409 . S
C401 C399 1.415 . S
C402 H392 0.930 . S
C402 C400 1.419 . S
C402 C403 1.362 . S
C403 H393 0.930 . S
C403 C396 1.409 . S
C403 C402 1.362 . S
H404 C410 0.930 . S
H405 C413 0.930 . S
H406 C414 0.930 . S
H407 C415 0.930 . S
H408 C418 0.930 . S
H409 C419 0.930 . S
C410 H404 0.930 . S
C410 C411 1.355 . S
C410 C412 1.415 . S
C411 C410 1.355 . S
C411 C413 1.419 . S
C412 C410 1.415 . S
C412 C417 1.425 . S
C412 C419 1.409 . S
C413 H405 0.930 . S
C413 C411 1.419 . S
C413 C414 1.362 . S
C414 H406 0.930 . S
C414 C413 1.362 . S
C414 C417 1.409 . S
C415 H407 0.930 . S
C415 C416 1.355 . S
C415 C417 1.415 . S
C416 C415 1.355 . S
C416 C418 1.419 . S
C417 C412 1.425 . S
C417 C414 1.409 . S
C417 C415 1.415 . S
C418 H408 0.930 . S
C418 C416 1.419 . S
C418 C419 1.362 . S
C419 H409 0.930 . S
C419 C412 1.409 . S
C419 C418 1.362 . S
C139 C114 1.716 . S
C144 C5 1.694 . S
C155 C8 1.713 . S
C160 C31 1.703 . S
C171 C26 1.693 . S
C176 C49 1.716 . S
C187 C52 1.695 . S
C192 C75 1.690 . S
C203 C93 1.712 . S
C208 C70 1.685 . S
C219 C119 1.685 . S
C224 C96 1.710 . S
C235 C4 1.304 . S
C240 C7 1.333 . S
C251 C30 1.302 . S
C256 C28 1.304 . S
C267 C48 1.316 . S
C272 C51 1.294 . S
C283 C74 1.323 . S
C288 C72 1.291 . S
C299 C95 1.333 . S
C304 C92 1.303 . S
C315 C118 1.327 . S
C320 C116 1.315 . S
C331 C9 1.291 . S
C336 C94 1.272 . S
C347 C27 1.249 . S
C352 C117 1.211 . S
C363 C6 1.289 . S
C368 C53 1.288 . S
C379 C29 1.183 . S
C384 C71 1.203 . S
C395 C97 1.251 . S
C400 C50 1.214 . S
C411 C73 1.182 . S
C416 C115 1.198 . S
