# Generated by pormake.
# Topology swa, (7)-cn, num edge types: 1
# Building blocks:
#     Node 0, Type 0, BuildingBlock: HICVOG_clean_sbu_0, # of connection points: 7
#     Node 1, Type 0, BuildingBlock: HICVOG_clean_sbu_0, # of connection points: 7
#     Node 2, Type 0, BuildingBlock: HICVOG_clean_sbu_0, # of connection points: 7
#     Node 3, Type 0, BuildingBlock: HICVOG_clean_sbu_0, # of connection points: 7
#     Node 4, Type 0, BuildingBlock: HICVOG_clean_sbu_0, # of connection points: 7
#     Node 5, Type 0, BuildingBlock: HICVOG_clean_sbu_0, # of connection points: 7
#     Node 6, Type 0, BuildingBlock: HICVOG_clean_sbu_0, # of connection points: 7
#     Node 7, Type 0, BuildingBlock: HICVOG_clean_sbu_0, # of connection points: 7
#     Node 8, Type 0, BuildingBlock: HICVOG_clean_sbu_0, # of connection points: 7
#     Node 9, Type 0, BuildingBlock: HICVOG_clean_sbu_0, # of connection points: 7
#     Node 10, Type 0, BuildingBlock: HICVOG_clean_sbu_0, # of connection points: 7
#     Node 11, Type 0, BuildingBlock: HICVOG_clean_sbu_0, # of connection points: 7
#     Node 12, Type 0, BuildingBlock: HICVOG_clean_sbu_0, # of connection points: 7
#     Node 13, Type 0, BuildingBlock: HICVOG_clean_sbu_0, # of connection points: 7
#     Node 14, Type 0, BuildingBlock: HICVOG_clean_sbu_0, # of connection points: 7
#     Node 15, Type 0, BuildingBlock: HICVOG_clean_sbu_0, # of connection points: 7
#     Node 16, Type 0, BuildingBlock: HICVOG_clean_sbu_0, # of connection points: 7
#     Node 17, Type 0, BuildingBlock: HICVOG_clean_sbu_0, # of connection points: 7
#     Node 18, Type 0, BuildingBlock: HICVOG_clean_sbu_0, # of connection points: 7
#     Node 19, Type 0, BuildingBlock: HICVOG_clean_sbu_0, # of connection points: 7
#     Node 20, Type 0, BuildingBlock: HICVOG_clean_sbu_0, # of connection points: 7
#     Node 21, Type 0, BuildingBlock: HICVOG_clean_sbu_0, # of connection points: 7
#     Node 22, Type 0, BuildingBlock: HICVOG_clean_sbu_0, # of connection points: 7
#     Node 23, Type 0, BuildingBlock: HICVOG_clean_sbu_0, # of connection points: 7
#     Node 24, Type 0, BuildingBlock: HICVOG_clean_sbu_0, # of connection points: 7
#     Node 25, Type 0, BuildingBlock: HICVOG_clean_sbu_0, # of connection points: 7
#     Node 26, Type 0, BuildingBlock: HICVOG_clean_sbu_0, # of connection points: 7
#     Node 27, Type 0, BuildingBlock: HICVOG_clean_sbu_0, # of connection points: 7
#     Node 28, Type 0, BuildingBlock: HICVOG_clean_sbu_0, # of connection points: 7
#     Node 29, Type 0, BuildingBlock: HICVOG_clean_sbu_0, # of connection points: 7
#     Node 30, Type 0, BuildingBlock: HICVOG_clean_sbu_0, # of connection points: 7
#     Node 31, Type 0, BuildingBlock: HICVOG_clean_sbu_0, # of connection points: 7
#     Node 32, Type 0, BuildingBlock: HICVOG_clean_sbu_0, # of connection points: 7
#     Node 33, Type 0, BuildingBlock: HICVOG_clean_sbu_0, # of connection points: 7
#     Node 34, Type 0, BuildingBlock: HICVOG_clean_sbu_0, # of connection points: 7
#     Node 35, Type 0, BuildingBlock: HICVOG_clean_sbu_0, # of connection points: 7
#     Node 36, Type 0, BuildingBlock: HICVOG_clean_sbu_0, # of connection points: 7
#     Node 37, Type 0, BuildingBlock: HICVOG_clean_sbu_0, # of connection points: 7
#     Node 38, Type 0, BuildingBlock: HICVOG_clean_sbu_0, # of connection points: 7
#     Node 39, Type 0, BuildingBlock: HICVOG_clean_sbu_0, # of connection points: 7
#     Node 40, Type 0, BuildingBlock: HICVOG_clean_sbu_0, # of connection points: 7
#     Node 41, Type 0, BuildingBlock: HICVOG_clean_sbu_0, # of connection points: 7
#     Node 42, Type 0, BuildingBlock: HICVOG_clean_sbu_0, # of connection points: 7
#     Node 43, Type 0, BuildingBlock: HICVOG_clean_sbu_0, # of connection points: 7
#     Node 44, Type 0, BuildingBlock: HICVOG_clean_sbu_0, # of connection points: 7
#     Node 45, Type 0, BuildingBlock: HICVOG_clean_sbu_0, # of connection points: 7
#     Node 46, Type 0, BuildingBlock: HICVOG_clean_sbu_0, # of connection points: 7
#     Node 47, Type 0, BuildingBlock: HICVOG_clean_sbu_0, # of connection points: 7
#     Edge 48, Type (0, 0), BuildingBlock: CIFDUS_clean_linker_0, # of connection points: 2
#     Edge 49, Type (0, 0), BuildingBlock: CIFDUS_clean_linker_0, # of connection points: 2
#     Edge 50, Type (0, 0), BuildingBlock: CIFDUS_clean_linker_0, # of connection points: 2
#     Edge 51, Type (0, 0), BuildingBlock: CIFDUS_clean_linker_0, # of connection points: 2
#     Edge 52, Type (0, 0), BuildingBlock: CIFDUS_clean_linker_0, # of connection points: 2
#     Edge 53, Type (0, 0), BuildingBlock: CIFDUS_clean_linker_0, # of connection points: 2
#     Edge 54, Type (0, 0), BuildingBlock: CIFDUS_clean_linker_0, # of connection points: 2
#     Edge 55, Type (0, 0), BuildingBlock: CIFDUS_clean_linker_0, # of connection points: 2
#     Edge 56, Type (0, 0), BuildingBlock: CIFDUS_clean_linker_0, # of connection points: 2
#     Edge 57, Type (0, 0), BuildingBlock: CIFDUS_clean_linker_0, # of connection points: 2
#     Edge 58, Type (0, 0), BuildingBlock: CIFDUS_clean_linker_0, # of connection points: 2
#     Edge 59, Type (0, 0), BuildingBlock: CIFDUS_clean_linker_0, # of connection points: 2
#     Edge 60, Type (0, 0), BuildingBlock: CIFDUS_clean_linker_0, # of connection points: 2
#     Edge 61, Type (0, 0), BuildingBlock: CIFDUS_clean_linker_0, # of connection points: 2
#     Edge 62, Type (0, 0), BuildingBlock: CIFDUS_clean_linker_0, # of connection points: 2
#     Edge 63, Type (0, 0), BuildingBlock: CIFDUS_clean_linker_0, # of connection points: 2
#     Edge 64, Type (0, 0), BuildingBlock: CIFDUS_clean_linker_0, # of connection points: 2
#     Edge 65, Type (0, 0), BuildingBlock: CIFDUS_clean_linker_0, # of connection points: 2
#     Edge 66, Type (0, 0), BuildingBlock: CIFDUS_clean_linker_0, # of connection points: 2
#     Edge 67, Type (0, 0), BuildingBlock: CIFDUS_clean_linker_0, # of connection points: 2
#     Edge 68, Type (0, 0), BuildingBlock: CIFDUS_clean_linker_0, # of connection points: 2
#     Edge 69, Type (0, 0), BuildingBlock: CIFDUS_clean_linker_0, # of connection points: 2
#     Edge 70, Type (0, 0), BuildingBlock: CIFDUS_clean_linker_0, # of connection points: 2
#     Edge 71, Type (0, 0), BuildingBlock: CIFDUS_clean_linker_0, # of connection points: 2
#     Edge 72, Type (0, 0), BuildingBlock: CIFDUS_clean_linker_0, # of connection points: 2
#     Edge 73, Type (0, 0), BuildingBlock: CIFDUS_clean_linker_0, # of connection points: 2
#     Edge 74, Type (0, 0), BuildingBlock: CIFDUS_clean_linker_0, # of connection points: 2
#     Edge 75, Type (0, 0), BuildingBlock: CIFDUS_clean_linker_0, # of connection points: 2
#     Edge 76, Type (0, 0), BuildingBlock: CIFDUS_clean_linker_0, # of connection points: 2
#     Edge 77, Type (0, 0), BuildingBlock: CIFDUS_clean_linker_0, # of connection points: 2
#     Edge 78, Type (0, 0), BuildingBlock: CIFDUS_clean_linker_0, # of connection points: 2
#     Edge 79, Type (0, 0), BuildingBlock: CIFDUS_clean_linker_0, # of connection points: 2
#     Edge 80, Type (0, 0), BuildingBlock: CIFDUS_clean_linker_0, # of connection points: 2
#     Edge 81, Type (0, 0), BuildingBlock: CIFDUS_clean_linker_0, # of connection points: 2
#     Edge 82, Type (0, 0), BuildingBlock: CIFDUS_clean_linker_0, # of connection points: 2
#     Edge 83, Type (0, 0), BuildingBlock: CIFDUS_clean_linker_0, # of connection points: 2
#     Edge 84, Type (0, 0), BuildingBlock: CIFDUS_clean_linker_0, # of connection points: 2
#     Edge 85, Type (0, 0), BuildingBlock: CIFDUS_clean_linker_0, # of connection points: 2
#     Edge 86, Type (0, 0), BuildingBlock: CIFDUS_clean_linker_0, # of connection points: 2
#     Edge 87, Type (0, 0), BuildingBlock: CIFDUS_clean_linker_0, # of connection points: 2
#     Edge 88, Type (0, 0), BuildingBlock: CIFDUS_clean_linker_0, # of connection points: 2
#     Edge 89, Type (0, 0), BuildingBlock: CIFDUS_clean_linker_0, # of connection points: 2
#     Edge 90, Type (0, 0), BuildingBlock: CIFDUS_clean_linker_0, # of connection points: 2
#     Edge 91, Type (0, 0), BuildingBlock: CIFDUS_clean_linker_0, # of connection points: 2
#     Edge 92, Type (0, 0), BuildingBlock: CIFDUS_clean_linker_0, # of connection points: 2
#     Edge 93, Type (0, 0), BuildingBlock: CIFDUS_clean_linker_0, # of connection points: 2
#     Edge 94, Type (0, 0), BuildingBlock: CIFDUS_clean_linker_0, # of connection points: 2
#     Edge 95, Type (0, 0), BuildingBlock: CIFDUS_clean_linker_0, # of connection points: 2
#     Edge 96, Type (0, 0), BuildingBlock: CIFDUS_clean_linker_0, # of connection points: 2
#     Edge 97, Type (0, 0), BuildingBlock: CIFDUS_clean_linker_0, # of connection points: 2
#     Edge 98, Type (0, 0), BuildingBlock: CIFDUS_clean_linker_0, # of connection points: 2
#     Edge 99, Type (0, 0), BuildingBlock: CIFDUS_clean_linker_0, # of connection points: 2
#     Edge 100, Type (0, 0), BuildingBlock: CIFDUS_clean_linker_0, # of connection points: 2
#     Edge 101, Type (0, 0), BuildingBlock: CIFDUS_clean_linker_0, # of connection points: 2
#     Edge 102, Type (0, 0), BuildingBlock: CIFDUS_clean_linker_0, # of connection points: 2
#     Edge 103, Type (0, 0), BuildingBlock: CIFDUS_clean_linker_0, # of connection points: 2
#     Edge 104, Type (0, 0), BuildingBlock: CIFDUS_clean_linker_0, # of connection points: 2
#     Edge 105, Type (0, 0), BuildingBlock: CIFDUS_clean_linker_0, # of connection points: 2
#     Edge 106, Type (0, 0), BuildingBlock: CIFDUS_clean_linker_0, # of connection points: 2
#     Edge 107, Type (0, 0), BuildingBlock: CIFDUS_clean_linker_0, # of connection points: 2
#     Edge 108, Type (0, 0), BuildingBlock: CIFDUS_clean_linker_0, # of connection points: 2
#     Edge 109, Type (0, 0), BuildingBlock: CIFDUS_clean_linker_0, # of connection points: 2
#     Edge 110, Type (0, 0), BuildingBlock: CIFDUS_clean_linker_0, # of connection points: 2
#     Edge 111, Type (0, 0), BuildingBlock: CIFDUS_clean_linker_0, # of connection points: 2
#     Edge 112, Type (0, 0), BuildingBlock: CIFDUS_clean_linker_0, # of connection points: 2
#     Edge 113, Type (0, 0), BuildingBlock: CIFDUS_clean_linker_0, # of connection points: 2
#     Edge 114, Type (0, 0), BuildingBlock: CIFDUS_clean_linker_0, # of connection points: 2
#     Edge 115, Type (0, 0), BuildingBlock: CIFDUS_clean_linker_0, # of connection points: 2
#     Edge 116, Type (0, 0), BuildingBlock: CIFDUS_clean_linker_0, # of connection points: 2
#     Edge 117, Type (0, 0), BuildingBlock: CIFDUS_clean_linker_0, # of connection points: 2
#     Edge 118, Type (0, 0), BuildingBlock: CIFDUS_clean_linker_0, # of connection points: 2
#     Edge 119, Type (0, 0), BuildingBlock: CIFDUS_clean_linker_0, # of connection points: 2
#     Edge 120, Type (0, 0), BuildingBlock: CIFDUS_clean_linker_0, # of connection points: 2
#     Edge 121, Type (0, 0), BuildingBlock: CIFDUS_clean_linker_0, # of connection points: 2
#     Edge 122, Type (0, 0), BuildingBlock: CIFDUS_clean_linker_0, # of connection points: 2
#     Edge 123, Type (0, 0), BuildingBlock: CIFDUS_clean_linker_0, # of connection points: 2
#     Edge 124, Type (0, 0), BuildingBlock: CIFDUS_clean_linker_0, # of connection points: 2
#     Edge 125, Type (0, 0), BuildingBlock: CIFDUS_clean_linker_0, # of connection points: 2
#     Edge 126, Type (0, 0), BuildingBlock: CIFDUS_clean_linker_0, # of connection points: 2
#     Edge 127, Type (0, 0), BuildingBlock: CIFDUS_clean_linker_0, # of connection points: 2
#     Edge 128, Type (0, 0), BuildingBlock: CIFDUS_clean_linker_0, # of connection points: 2
#     Edge 129, Type (0, 0), BuildingBlock: CIFDUS_clean_linker_0, # of connection points: 2
#     Edge 130, Type (0, 0), BuildingBlock: CIFDUS_clean_linker_0, # of connection points: 2
#     Edge 131, Type (0, 0), BuildingBlock: CIFDUS_clean_linker_0, # of connection points: 2
#     Edge 132, Type (0, 0), BuildingBlock: CIFDUS_clean_linker_0, # of connection points: 2
#     Edge 133, Type (0, 0), BuildingBlock: CIFDUS_clean_linker_0, # of connection points: 2
#     Edge 134, Type (0, 0), BuildingBlock: CIFDUS_clean_linker_0, # of connection points: 2
#     Edge 135, Type (0, 0), BuildingBlock: CIFDUS_clean_linker_0, # of connection points: 2
#     Edge 136, Type (0, 0), BuildingBlock: CIFDUS_clean_linker_0, # of connection points: 2
#     Edge 137, Type (0, 0), BuildingBlock: CIFDUS_clean_linker_0, # of connection points: 2
#     Edge 138, Type (0, 0), BuildingBlock: CIFDUS_clean_linker_0, # of connection points: 2
#     Edge 139, Type (0, 0), BuildingBlock: CIFDUS_clean_linker_0, # of connection points: 2
#     Edge 140, Type (0, 0), BuildingBlock: CIFDUS_clean_linker_0, # of connection points: 2
#     Edge 141, Type (0, 0), BuildingBlock: CIFDUS_clean_linker_0, # of connection points: 2
#     Edge 142, Type (0, 0), BuildingBlock: CIFDUS_clean_linker_0, # of connection points: 2
#     Edge 143, Type (0, 0), BuildingBlock: CIFDUS_clean_linker_0, # of connection points: 2
#     Edge 144, Type (0, 0), BuildingBlock: CIFDUS_clean_linker_0, # of connection points: 2
#     Edge 145, Type (0, 0), BuildingBlock: CIFDUS_clean_linker_0, # of connection points: 2
#     Edge 146, Type (0, 0), BuildingBlock: CIFDUS_clean_linker_0, # of connection points: 2
#     Edge 147, Type (0, 0), BuildingBlock: CIFDUS_clean_linker_0, # of connection points: 2
#     Edge 148, Type (0, 0), BuildingBlock: CIFDUS_clean_linker_0, # of connection points: 2
#     Edge 149, Type (0, 0), BuildingBlock: CIFDUS_clean_linker_0, # of connection points: 2
#     Edge 150, Type (0, 0), BuildingBlock: CIFDUS_clean_linker_0, # of connection points: 2
#     Edge 151, Type (0, 0), BuildingBlock: CIFDUS_clean_linker_0, # of connection points: 2
#     Edge 152, Type (0, 0), BuildingBlock: CIFDUS_clean_linker_0, # of connection points: 2
#     Edge 153, Type (0, 0), BuildingBlock: CIFDUS_clean_linker_0, # of connection points: 2
#     Edge 154, Type (0, 0), BuildingBlock: CIFDUS_clean_linker_0, # of connection points: 2
#     Edge 155, Type (0, 0), BuildingBlock: CIFDUS_clean_linker_0, # of connection points: 2
#     Edge 156, Type (0, 0), BuildingBlock: CIFDUS_clean_linker_0, # of connection points: 2
#     Edge 157, Type (0, 0), BuildingBlock: CIFDUS_clean_linker_0, # of connection points: 2
#     Edge 158, Type (0, 0), BuildingBlock: CIFDUS_clean_linker_0, # of connection points: 2
#     Edge 159, Type (0, 0), BuildingBlock: CIFDUS_clean_linker_0, # of connection points: 2
#     Edge 160, Type (0, 0), BuildingBlock: CIFDUS_clean_linker_0, # of connection points: 2
#     Edge 161, Type (0, 0), BuildingBlock: CIFDUS_clean_linker_0, # of connection points: 2
#     Edge 162, Type (0, 0), BuildingBlock: CIFDUS_clean_linker_0, # of connection points: 2
#     Edge 163, Type (0, 0), BuildingBlock: CIFDUS_clean_linker_0, # of connection points: 2
#     Edge 164, Type (0, 0), BuildingBlock: CIFDUS_clean_linker_0, # of connection points: 2
#     Edge 165, Type (0, 0), BuildingBlock: CIFDUS_clean_linker_0, # of connection points: 2
#     Edge 166, Type (0, 0), BuildingBlock: CIFDUS_clean_linker_0, # of connection points: 2
#     Edge 167, Type (0, 0), BuildingBlock: CIFDUS_clean_linker_0, # of connection points: 2
#     Edge 168, Type (0, 0), BuildingBlock: CIFDUS_clean_linker_0, # of connection points: 2
#     Edge 169, Type (0, 0), BuildingBlock: CIFDUS_clean_linker_0, # of connection points: 2
#     Edge 170, Type (0, 0), BuildingBlock: CIFDUS_clean_linker_0, # of connection points: 2
#     Edge 171, Type (0, 0), BuildingBlock: CIFDUS_clean_linker_0, # of connection points: 2
#     Edge 172, Type (0, 0), BuildingBlock: CIFDUS_clean_linker_0, # of connection points: 2
#     Edge 173, Type (0, 0), BuildingBlock: CIFDUS_clean_linker_0, # of connection points: 2
#     Edge 174, Type (0, 0), BuildingBlock: CIFDUS_clean_linker_0, # of connection points: 2
#     Edge 175, Type (0, 0), BuildingBlock: CIFDUS_clean_linker_0, # of connection points: 2
#     Edge 176, Type (0, 0), BuildingBlock: CIFDUS_clean_linker_0, # of connection points: 2
#     Edge 177, Type (0, 0), BuildingBlock: CIFDUS_clean_linker_0, # of connection points: 2
#     Edge 178, Type (0, 0), BuildingBlock: CIFDUS_clean_linker_0, # of connection points: 2
#     Edge 179, Type (0, 0), BuildingBlock: CIFDUS_clean_linker_0, # of connection points: 2
#     Edge 180, Type (0, 0), BuildingBlock: CIFDUS_clean_linker_0, # of connection points: 2
#     Edge 181, Type (0, 0), BuildingBlock: CIFDUS_clean_linker_0, # of connection points: 2
#     Edge 182, Type (0, 0), BuildingBlock: CIFDUS_clean_linker_0, # of connection points: 2
#     Edge 183, Type (0, 0), BuildingBlock: CIFDUS_clean_linker_0, # of connection points: 2
#     Edge 184, Type (0, 0), BuildingBlock: CIFDUS_clean_linker_0, # of connection points: 2
#     Edge 185, Type (0, 0), BuildingBlock: CIFDUS_clean_linker_0, # of connection points: 2
#     Edge 186, Type (0, 0), BuildingBlock: CIFDUS_clean_linker_0, # of connection points: 2
#     Edge 187, Type (0, 0), BuildingBlock: CIFDUS_clean_linker_0, # of connection points: 2
#     Edge 188, Type (0, 0), BuildingBlock: CIFDUS_clean_linker_0, # of connection points: 2
#     Edge 189, Type (0, 0), BuildingBlock: CIFDUS_clean_linker_0, # of connection points: 2
#     Edge 190, Type (0, 0), BuildingBlock: CIFDUS_clean_linker_0, # of connection points: 2
#     Edge 191, Type (0, 0), BuildingBlock: CIFDUS_clean_linker_0, # of connection points: 2
#     Edge 192, Type (0, 0), BuildingBlock: CIFDUS_clean_linker_0, # of connection points: 2
#     Edge 193, Type (0, 0), BuildingBlock: CIFDUS_clean_linker_0, # of connection points: 2
#     Edge 194, Type (0, 0), BuildingBlock: CIFDUS_clean_linker_0, # of connection points: 2
#     Edge 195, Type (0, 0), BuildingBlock: CIFDUS_clean_linker_0, # of connection points: 2
#     Edge 196, Type (0, 0), BuildingBlock: CIFDUS_clean_linker_0, # of connection points: 2
#     Edge 197, Type (0, 0), BuildingBlock: CIFDUS_clean_linker_0, # of connection points: 2
#     Edge 198, Type (0, 0), BuildingBlock: CIFDUS_clean_linker_0, # of connection points: 2
#     Edge 199, Type (0, 0), BuildingBlock: CIFDUS_clean_linker_0, # of connection points: 2
#     Edge 200, Type (0, 0), BuildingBlock: CIFDUS_clean_linker_0, # of connection points: 2
#     Edge 201, Type (0, 0), BuildingBlock: CIFDUS_clean_linker_0, # of connection points: 2
#     Edge 202, Type (0, 0), BuildingBlock: CIFDUS_clean_linker_0, # of connection points: 2
#     Edge 203, Type (0, 0), BuildingBlock: CIFDUS_clean_linker_0, # of connection points: 2
#     Edge 204, Type (0, 0), BuildingBlock: CIFDUS_clean_linker_0, # of connection points: 2
#     Edge 205, Type (0, 0), BuildingBlock: CIFDUS_clean_linker_0, # of connection points: 2
#     Edge 206, Type (0, 0), BuildingBlock: CIFDUS_clean_linker_0, # of connection points: 2
#     Edge 207, Type (0, 0), BuildingBlock: CIFDUS_clean_linker_0, # of connection points: 2
#     Edge 208, Type (0, 0), BuildingBlock: CIFDUS_clean_linker_0, # of connection points: 2
#     Edge 209, Type (0, 0), BuildingBlock: CIFDUS_clean_linker_0, # of connection points: 2
#     Edge 210, Type (0, 0), BuildingBlock: CIFDUS_clean_linker_0, # of connection points: 2
#     Edge 211, Type (0, 0), BuildingBlock: CIFDUS_clean_linker_0, # of connection points: 2
#     Edge 212, Type (0, 0), BuildingBlock: CIFDUS_clean_linker_0, # of connection points: 2
#     Edge 213, Type (0, 0), BuildingBlock: CIFDUS_clean_linker_0, # of connection points: 2
#     Edge 214, Type (0, 0), BuildingBlock: CIFDUS_clean_linker_0, # of connection points: 2
#     Edge 215, Type (0, 0), BuildingBlock: CIFDUS_clean_linker_0, # of connection points: 2
# Relax obj value: 0.389
# Max RMSD: 0.253
# Mean RMSD: 0.253
data_MOF--net-swa--node1-HICVOG_clean_sbu_0--edge1-CIFDUS_clean_linker_0
_symmetry_space_group_name_H-M    P1
_symmetry_Int_Tables_number       1
_symmetry_cell_setting            triclinic
loop_
_symmetry_equiv_pos_as_xyz
'x, y, z'
_cell_length_a     56.806296
_cell_length_b     56.761551
_cell_length_c     56.814557
_cell_angle_alpha  90.052467
_cell_angle_beta   90.011309
_cell_angle_gamma 90.025644
loop_
_atom_site_label
_atom_site_type_symbol
_atom_site_fract_x
_atom_site_fract_y
_atom_site_fract_z
_atom_type_partial_charge
Zn0 Zn 0.12046 0.66213 0.19203 0.0
C1 C 0.07227 0.63475 0.23576 0.0
N2 N 0.09124 0.62906 0.24872 0.0
C3 C 0.10935 0.63525 0.23493 0.0
N4 N 0.10196 0.64451 0.21435 0.0
N5 N 0.07857 0.64396 0.21465 0.0
C6 C 0.03879 0.70002 0.19748 0.0
O7 O 0.04771 0.70137 0.21878 0.0
O8 O 0.1558 0.65589 0.19294 0.0
Zn9 Zn 0.05777 0.6496 0.18751 0.0
N10 N 0.11662 0.69448 0.20044 0.0
C11 C 0.09627 0.73093 0.19946 0.0
C12 C 0.09782 0.70723 0.1932 0.0
C13 C 0.13411 0.70434 0.21332 0.0
N14 N 0.11461 0.74121 0.2109 0.0
C15 C 0.13397 0.72868 0.21761 0.0
O16 O 0.07399 0.64659 0.15579 0.0
C17 C 0.09368 0.65091 0.14595 0.0
O18 O 0.11148 0.65748 0.15785 0.0
H19 H 0.08448 0.69906 0.18242 0.0
H20 H 0.14859 0.69335 0.21883 0.0
C21 C 0.01072 0.62902 0.18229 0.0
C22 C 0.99481 0.60991 0.18217 0.0
C23 C 0.02604 0.58437 0.19343 0.0
C24 C 0.04168 0.6032 0.19322 0.0
N25 N 0.03381 0.62511 0.18775 0.0
N26 N 1.00316 0.58813 0.18783 0.0
H27 H 0.00508 0.6466 0.17759 0.0
C28 C 0.1658 0.6377 0.1845 0.0
O29 O 0.15272 0.61972 0.17807 0.0
O30 O 0.04166 0.6815 0.18519 0.0
H31 H 0.06007 0.60041 0.19727 0.0
H32 H 0.08126 0.74137 0.19415 0.0
H33 H 0.03205 0.56683 0.19779 0.0
Zn34 Zn 0.87177 0.12006 0.19507 0.0
C35 C 0.8752 0.05922 0.23162 0.0
N36 N 0.88185 0.07385 0.249 0.0
C37 C 0.88415 0.09452 0.23774 0.0
N38 N 0.87868 0.09279 0.21464 0.0
N39 N 0.8733 0.07035 0.21081 0.0
C40 C 0.81918 0.03665 0.18728 0.0
O41 O 0.81572 0.05207 0.20414 0.0
O42 O 0.89547 0.14584 0.20437 0.0
Zn43 Zn 0.86917 0.05395 0.18122 0.0
N44 N 0.8407 0.12951 0.20507 0.0
C45 C 0.80349 0.11877 0.22089 0.0
C46 C 0.82591 0.11258 0.21329 0.0
C47 C 0.83402 0.15245 0.20442 0.0
N48 N 0.79632 0.14145 0.21873 0.0
C49 C 0.81082 0.15863 0.21032 0.0
O50 O 0.86967 0.07542 0.15355 0.0
C51 C 0.87042 0.09627 0.14552 0.0
O52 O 0.87135 0.11411 0.15912 0.0
H53 H 0.83158 0.09448 0.21418 0.0
H54 H 0.84659 0.16549 0.19905 0.0
C55 C 0.89531 0.00947 0.17478 0.0
C56 C 0.91649 0.99677 0.17145 0.0
C57 C 0.93771 0.03299 0.17278 0.0
C58 C 0.91687 0.0453 0.17609 0.0
N59 N 0.89616 0.03344 0.17705 0.0
N60 N 0.937 0.00924 0.17057 0.0
H61 H 0.87849 1.00065 0.17597 0.0
C62 C 0.90218 0.16704 0.20075 0.0
O63 O 0.91947 0.17522 0.21378 0.0
O64 O 0.83929 0.0349 0.17762 0.0
H65 H 0.91707 0.06428 0.17785 0.0
H66 H 0.79157 0.10555 0.22768 0.0
H67 H 0.95436 0.0422 0.17196 0.0
Zn68 Zn 0.45198 0.86252 0.18525 0.0
C69 C 0.40913 0.88926 0.23575 0.0
N70 N 0.43006 0.89214 0.24655 0.0
C71 C 0.44528 0.88256 0.2312 0.0
N72 N 0.43429 0.87417 0.21203 0.0
N73 N 0.41145 0.87798 0.21484 0.0
C74 C 0.35236 0.89436 0.18242 0.0
O75 O 0.37086 0.90429 0.1727 0.0
O76 O 0.46785 0.83118 0.19079 0.0
Zn77 Zn 0.38774 0.86134 0.19699 0.0
N78 N 0.47648 0.88576 0.17929 0.0
C79 C 0.48404 0.92658 0.17398 0.0
C80 C 0.4684 0.90823 0.17814 0.0
C81 C 0.49987 0.88078 0.17644 0.0
N82 N 0.50719 0.92173 0.17096 0.0
C83 C 0.51586 0.89937 0.17199 0.0
O84 O 0.39513 0.85606 0.1622 0.0
C85 C 0.41238 0.85657 0.14788 0.0
O86 O 0.43338 0.85975 0.15502 0.0
H87 H 0.44984 0.91179 0.18047 0.0
H88 H 0.50571 0.86267 0.17719 0.0
C89 C 0.3619 0.8219 0.21034 0.0
C90 C 0.35601 0.80198 0.22373 0.0
C91 C 0.39418 0.80288 0.24087 0.0
C92 C 0.39984 0.82264 0.22745 0.0
N93 N 0.38345 0.83177 0.21261 0.0
N94 N 0.37253 0.79296 0.23861 0.0
H95 H 0.34986 0.82956 0.19779 0.0
C96 C 0.45988 0.81241 0.18142 0.0
O97 O 0.43905 0.81286 0.17139 0.0
O98 O 0.3556 0.87711 0.19628 0.0
H99 H 0.41683 0.83098 0.22932 0.0
H100 H 0.47784 0.94457 0.17305 0.0
H101 H 0.40689 0.79543 0.25294 0.0
Zn102 Zn 0.64355 0.44987 0.19057 0.0
C103 C 0.62111 0.40159 0.23774 0.0
N104 N 0.61802 0.42097 0.2511 0.0
C105 C 0.6257 0.4384 0.23709 0.0
N106 N 0.63308 0.43005 0.21622 0.0
N107 N 0.63091 0.40682 0.21668 0.0
C108 C 0.62683 0.3424 0.18906 0.0
O109 O 0.60982 0.35575 0.18085 0.0
O110 O 0.67435 0.46695 0.19626 0.0
Zn111 Zn 0.65136 0.38727 0.19776 0.0
N112 N 0.61942 0.47354 0.18639 0.0
C113 C 0.57842 0.4813 0.18399 0.0
C114 C 0.5969 0.46553 0.18689 0.0
C115 C 0.62434 0.49679 0.18281 0.0
N116 N 0.58322 0.50443 0.18049 0.0
C117 C 0.60567 0.51291 0.17974 0.0
O118 O 0.6524 0.39496 0.16233 0.0
C119 C 0.6492 0.41333 0.14985 0.0
O120 O 0.64546 0.43327 0.15937 0.0
H121 H 0.59341 0.447 0.18959 0.0
H122 H 0.64252 0.50235 0.18198 0.0
C123 C 0.69555 0.37138 0.21215 0.0
C124 C 0.71641 0.37092 0.22544 0.0
C125 C 0.70868 0.41003 0.23809 0.0
C126 C 0.68801 0.41026 0.22486 0.0
N127 N 0.6818 0.39081 0.21231 0.0
N128 N 0.72244 0.39048 0.23799 0.0
H129 H 0.6902 0.35673 0.20127 0.0
C130 C 0.69253 0.46225 0.184 0.0
O131 O 0.69234 0.44356 0.17037 0.0
O132 O 0.64433 0.35217 0.19902 0.0
H133 H 0.67694 0.42566 0.22496 0.0
H134 H 0.56037 0.47523 0.18444 0.0
H135 H 0.71381 0.42531 0.24827 0.0
Zn136 Zn 0.05665 0.86658 0.3198 0.0
C137 C 0.1031 0.87973 0.2669 0.0
N138 N 0.08343 0.87772 0.25391 0.0
C139 C 0.06703 0.87118 0.26965 0.0
N140 N 0.07621 0.86934 0.29144 0.0
N141 N 0.09908 0.87411 0.28976 0.0
C142 C 0.15936 0.89595 0.32381 0.0
O143 O 0.14182 0.90704 0.33403 0.0
O144 O 0.03851 0.8364 0.32468 0.0
Zn145 Zn 0.12229 0.86267 0.3122 0.0
N146 N 0.03449 0.89293 0.31978 0.0
C147 C 0.03215 0.93455 0.31648 0.0
C148 C 0.04535 0.914 0.31678 0.0
C149 C 0.01056 0.89151 0.32261 0.0
N150 N 0.0085 0.93326 0.31926 0.0
C151 C 0.99692 0.91244 0.32235 0.0
O152 O 0.1133 0.86367 0.34692 0.0
C153 C 0.09502 0.86663 0.35952 0.0
O154 O 0.07472 0.86863 0.35027 0.0
H155 H 0.06426 0.91472 0.31464 0.0
H156 H 1.00245 0.87441 0.3247 0.0
C157 C 0.14973 0.82252 0.30657 0.0
C158 C 0.15564 0.79963 0.29944 0.0
C159 C 0.11652 0.79449 0.28536 0.0
C160 C 0.11065 0.81697 0.29331 0.0
N161 N 0.12743 0.83042 0.30379 0.0
N162 N 0.13871 0.78627 0.28886 0.0
H163 H 0.16253 0.83433 0.31408 0.0
C164 C 0.03603 0.81571 0.31651 0.0
O165 O 0.04715 0.80932 0.29729 0.0
O166 O 0.15475 0.87825 0.31087 0.0
H167 H 0.09313 0.82383 0.29066 0.0
H168 H 0.04059 0.95146 0.31409 0.0
H169 H 0.10351 0.78354 0.27675 0.0
Zn170 Zn 0.64414 0.05425 0.316 0.0
C171 C 0.62954 0.10146 0.26421 0.0
N172 N 0.62875 0.08166 0.25123 0.0
C173 C 0.63562 0.06502 0.26655 0.0
N174 N 0.64027 0.07402 0.288 0.0
N175 N 0.63652 0.09705 0.28658 0.0
C176 C 0.61792 0.161 0.32071 0.0
O177 O 0.60603 0.14628 0.33401 0.0
O178 O 0.67556 0.03675 0.31864 0.0
Zn179 Zn 0.64658 0.11945 0.31 0.0
N180 N 0.61835 0.03167 0.31508 0.0
C181 C 0.57777 0.02693 0.3059 0.0
C182 C 0.59786 0.04085 0.30681 0.0
C183 C 0.61953 0.0089 0.32278 0.0
N184 N 0.57878 1.00446 0.3138 0.0
C185 C 0.59901 0.99484 0.32237 0.0
O186 O 0.64312 0.1103 0.34453 0.0
C187 C 0.64095 0.09161 0.35669 0.0
O188 O 0.64069 0.07138 0.34703 0.0
H189 H 0.59708 0.05901 0.30118 0.0
H190 H 0.63591 1.00218 0.3298 0.0
C191 C 0.68643 0.14495 0.31309 0.0
C192 C 0.70926 0.15275 0.30869 0.0
C193 C 0.71663 0.11742 0.28739 0.0
C194 C 0.69369 0.10983 0.29194 0.0
N195 N 0.6792 0.12396 0.30466 0.0
N196 N 0.72388 0.13867 0.29584 0.0
H197 H 0.67399 0.15547 0.32275 0.0
C198 C 0.69142 0.04536 0.33201 0.0
O199 O 0.68836 0.06652 0.34083 0.0
O200 O 0.63318 0.15274 0.30656 0.0
H201 H 0.68738 0.09324 0.28499 0.0
H202 H 0.56138 0.03402 0.29931 0.0
H203 H 0.72852 0.10662 0.27716 0.0
Zn204 Zn 0.38148 0.66086 0.31235 0.0
C205 C 0.43729 0.64357 0.27391 0.0
N206 N 0.42141 0.63409 0.25917 0.0
C207 C 0.40121 0.6346 0.27147 0.0
N208 N 0.40445 0.6444 0.29303 0.0
N209 N 0.42729 0.64929 0.29466 0.0
C210 C 0.46712 0.70533 0.31063 0.0
O211 O 0.45736 0.70696 0.28977 0.0
O212 O 0.34811 0.64747 0.31187 0.0
Zn213 Zn 0.44575 0.65662 0.32293 0.0
N214 N 0.37901 0.69173 0.29844 0.0
C215 C 0.39067 0.72016 0.27005 0.0
C216 C 0.39558 0.70019 0.28341 0.0
C217 C 0.35795 0.70255 0.30095 0.0
N218 N 0.36943 0.73088 0.27236 0.0
C219 C 0.35266 0.72263 0.2874 0.0
O220 O 0.42731 0.65787 0.35334 0.0
C221 C 0.40663 0.66097 0.36136 0.0
O222 O 0.38902 0.66289 0.34759 0.0
H223 H 0.41209 0.69113 0.28119 0.0
H224 H 0.34576 0.69512 0.31343 0.0
C225 C 0.49181 0.63427 0.33127 0.0
C226 C 0.50671 0.61437 0.33304 0.0
C227 C 0.47379 0.58967 0.32485 0.0
C228 C 0.45927 0.60929 0.32319 0.0
N229 N 0.46845 0.63115 0.32636 0.0
N230 N 0.49695 0.59267 0.32971 0.0
H231 H 0.49847 0.65191 0.33396 0.0
C232 C 0.3428 0.62793 0.32136 0.0
O233 O 0.35989 0.61397 0.32832 0.0
O234 O 0.46377 0.68722 0.3233 0.0
H235 H 0.44074 0.60719 0.31934 0.0
H236 H 0.40356 0.72703 0.25783 0.0
H237 H 0.46673 0.57215 0.32232 0.0
Zn238 Zn 0.85485 0.38326 0.31131 0.0
C239 C 0.87171 0.43921 0.2718 0.0
N240 N 0.88135 0.42316 0.25736 0.0
C241 C 0.8796 0.40308 0.26981 0.0
N242 N 0.86925 0.40665 0.29099 0.0
N243 N 0.86457 0.42953 0.2922 0.0
C244 C 0.80945 0.46354 0.32959 0.0
O245 O 0.80887 0.44369 0.34143 0.0
O246 O 0.87103 0.35124 0.31117 0.0
Zn247 Zn 0.85729 0.44853 0.31972 0.0
N248 N 0.82388 0.3788 0.29859 0.0
C249 C 0.79011 0.39219 0.27791 0.0
C250 C 0.81224 0.39654 0.28754 0.0
C251 C 0.81453 0.35693 0.3002 0.0
N252 N 0.78022 0.37058 0.2806 0.0
C253 C 0.79166 0.35267 0.29175 0.0
O254 O 0.85538 0.43018 0.3498 0.0
C255 C 0.85348 0.40996 0.35918 0.0
O256 O 0.8526 0.39138 0.34661 0.0
H257 H 0.82009 0.41381 0.28609 0.0
H258 H 0.82501 0.3434 0.30837 0.0
C259 C 0.8838 0.49306 0.32449 0.0
C260 C 0.90507 0.50557 0.32787 0.0
C261 C 0.92561 0.46908 0.33011 0.0
C262 C 0.90467 0.45691 0.32682 0.0
N263 N 0.88425 0.469 0.32405 0.0
N264 N 0.92529 0.49294 0.33054 0.0
H265 H 0.86727 0.50213 0.32192 0.0
C266 C 0.89011 0.3486 0.32256 0.0
O267 O 0.90098 0.36749 0.3304 0.0
O268 O 0.82773 0.46856 0.3176 0.0
H269 H 0.90457 0.43785 0.32644 0.0
H270 H 0.78059 0.40601 0.26891 0.0
H271 H 0.94203 0.45969 0.3323 0.0
Zn272 Zn 0.18972 0.0631 0.64721 0.0
C273 C 0.24097 0.10667 0.62201 0.0
N274 N 0.25163 0.08568 0.61882 0.0
C275 C 0.23636 0.07025 0.62816 0.0
N276 N 0.217 0.0811 0.63634 0.0
N277 N 0.21987 0.10406 0.63302 0.0
C278 C 0.18896 0.16329 0.61845 0.0
O279 O 0.18247 0.14507 0.60572 0.0
O280 O 0.19425 0.04558 0.67806 0.0
Zn281 Zn 0.20231 0.12675 0.65155 0.0
N282 N 0.1838 0.03934 0.62322 0.0
C283 C 0.17963 0.03194 0.58226 0.0
C284 C 0.18402 0.04741 0.60073 0.0
C285 C 0.17936 0.01619 0.62808 0.0
N286 N 0.17508 0.00898 0.58701 0.0
C287 C 0.17477 1.00037 0.60939 0.0
O288 O 0.16758 0.11936 0.65651 0.0
C289 C 0.1529 0.10254 0.65454 0.0
O290 O 0.15963 0.08168 0.64992 0.0
H291 H 0.18751 0.06581 0.59726 0.0
H292 H 0.17896 0.01041 0.64621 0.0
C293 C 0.21303 0.14688 0.69574 0.0
C294 C 0.22648 0.1509 0.71614 0.0
C295 C 0.24967 0.11734 0.70697 0.0
C296 C 0.23643 0.11369 0.68665 0.0
N297 N 0.21841 0.12859 0.68145 0.0
N298 N 0.24439 0.13578 0.72122 0.0
H299 H 0.19827 0.1579 0.691 0.0
C300 C 0.18156 0.04965 0.6961 0.0
O301 O 0.16728 0.06783 0.69595 0.0
O302 O 0.2002 0.15965 0.63747 0.0
H303 H 0.24095 0.09952 0.67485 0.0
H304 H 0.17972 0.03812 0.56426 0.0
H305 H 0.26412 0.10573 0.7113 0.0
Zn306 Zn 0.45094 0.1921 0.64725 0.0
C307 C 0.40792 0.24466 0.62356 0.0
N308 N 0.42879 0.25585 0.62226 0.0
C309 C 0.44402 0.24043 0.63165 0.0
N310 N 0.43314 0.22036 0.63817 0.0
N311 N 0.41034 0.22298 0.63353 0.0
C312 C 0.35357 0.18633 0.61425 0.0
O313 O 0.37303 0.17721 0.60569 0.0
O314 O 0.46861 0.19544 0.67813 0.0
Zn315 Zn 0.38647 0.20357 0.64866 0.0
N316 N 0.47461 0.18723 0.62285 0.0
C317 C 0.48243 0.18768 0.58176 0.0
C318 C 0.46706 0.19104 0.6005 0.0
C319 C 0.49716 0.18007 0.62729 0.0
N320 N 0.50478 0.18052 0.58608 0.0
C321 C 0.51289 0.17651 0.6083 0.0
O322 O 0.39447 0.16895 0.65369 0.0
C323 C 0.41145 0.15439 0.65249 0.0
O324 O 0.43244 0.1614 0.64892 0.0
H325 H 0.44912 0.19653 0.5973 0.0
H326 H 0.50248 0.17679 0.64526 0.0
C327 C 0.35898 0.21365 0.68817 0.0
C328 C 0.35108 0.22695 0.70746 0.0
C329 C 0.38664 0.24898 0.70634 0.0
C330 C 0.39423 0.23579 0.68708 0.0
N331 N 0.38015 0.21846 0.67841 0.0
N332 N 0.36535 0.24422 0.71611 0.0
H333 H 0.34869 0.19948 0.68073 0.0
C334 C 0.46363 0.18249 0.69574 0.0
O335 O 0.44449 0.16953 0.69512 0.0
O336 O 0.35518 0.2009 0.63119 0.0
H337 H 0.41078 0.23985 0.67867 0.0
H338 H 0.47664 0.19065 0.56387 0.0
H339 H 0.39752 0.26294 0.71342 0.0
Zn340 Zn 0.31819 0.45396 0.6461 0.0
C341 C 0.26723 0.40923 0.62218 0.0
N342 N 0.2556 0.42977 0.62009 0.0
C343 C 0.27021 0.44545 0.63005 0.0
N344 N 0.29021 0.43522 0.6377 0.0
N345 N 0.28836 0.41231 0.63303 0.0
C346 C 0.32644 0.35628 0.61503 0.0
O347 O 0.33496 0.37623 0.60697 0.0
O348 O 0.31477 0.47459 0.6751 0.0
Zn349 Zn 0.30765 0.38874 0.64859 0.0
N350 N 0.32378 0.47447 0.61917 0.0
C351 C 0.32437 0.4758 0.57738 0.0
C352 C 0.32096 0.46341 0.59815 0.0
C353 C 0.33011 0.49771 0.6203 0.0
N354 N 0.33077 0.49876 0.5784 0.0
C355 C 0.33389 0.51037 0.59918 0.0
O356 O 0.34171 0.39741 0.65419 0.0
C357 C 0.35573 0.41484 0.65441 0.0
O358 O 0.34846 0.43574 0.65101 0.0
H359 H 0.31612 0.44499 0.5976 0.0
H360 H 0.33259 0.50592 0.63731 0.0
C361 C 0.29637 0.36205 0.68853 0.0
C362 C 0.28311 0.35547 0.7083 0.0
C363 C 0.26322 0.39225 0.70674 0.0
C364 C 0.27639 0.39857 0.68706 0.0
N365 N 0.29259 0.38324 0.67835 0.0
N366 N 0.26695 0.37096 0.71693 0.0
H367 H 0.30975 0.35075 0.68111 0.0
C368 C 0.32496 0.46943 0.69442 0.0
O369 O 0.33518 0.44879 0.69656 0.0
O370 O 0.31126 0.35715 0.63149 0.0
H371 H 0.27327 0.41526 0.67849 0.0
H372 H 0.32212 0.46721 0.56052 0.0
H373 H 0.25015 0.40412 0.71387 0.0
Zn374 Zn 0.05865 0.32441 0.6452 0.0
C375 C 0.10313 0.27084 0.62787 0.0
N376 N 0.08281 0.25865 0.62778 0.0
C377 C 0.06689 0.27468 0.63491 0.0
N378 N 0.07694 0.29581 0.63904 0.0
N379 N 0.09982 0.29341 0.63501 0.0
C380 C 0.15622 0.32896 0.61207 0.0
O381 O 0.13676 0.33805 0.60347 0.0
O382 O 0.03813 0.32187 0.67406 0.0
Zn383 Zn 0.12355 0.31459 0.64746 0.0
N384 N 0.0384 0.32873 0.61807 0.0
C385 C 0.03812 0.33493 0.57675 0.0
C386 C 0.05039 0.33146 0.5976 0.0
C387 C 0.01435 0.32935 0.61865 0.0
N388 N 0.01428 0.33556 0.57721 0.0
C389 C 1.00173 0.33292 0.59749 0.0
O390 O 0.11519 0.34908 0.65025 0.0
C391 C 0.09769 0.36298 0.65024 0.0
O392 O 0.07678 0.35521 0.64816 0.0
H393 H 0.06943 0.33095 0.5976 0.0
H394 H 0.00538 0.3268 0.63523 0.0
C395 C 0.15266 0.30285 0.68515 0.0
C396 C 0.15877 0.29296 0.70695 0.0
C397 C 0.11824 0.28442 0.71369 0.0
C398 C 0.11237 0.29494 0.69236 0.0
N399 N 0.1298 0.30366 0.67852 0.0
N400 N 0.14113 0.28391 0.72053 0.0
H401 H 0.16551 0.31006 0.67327 0.0
C402 C 0.04275 0.33329 0.6928 0.0
O403 O 0.06256 0.34513 0.69425 0.0
O404 O 0.15459 0.31504 0.62952 0.0
H405 H 0.09428 0.29552 0.68651 0.0
H406 H 0.04743 0.33712 0.56029 0.0
H407 H 0.10473 0.277 0.72487 0.0
Zn408 Zn 0.19951 0.38707 0.85699 0.0
C409 C 0.2357 0.44438 0.87465 0.0
N410 N 0.25119 0.42913 0.88394 0.0
C411 C 0.23979 0.40835 0.88307 0.0
N412 N 0.21798 0.41081 0.87349 0.0
N413 N 0.2153 0.43363 0.86894 0.0
C414 C 0.17722 0.46599 0.81228 0.0
O415 O 0.16523 0.44624 0.81118 0.0
O416 O 0.20033 0.35374 0.87038 0.0
Zn417 Zn 0.18657 0.45144 0.86072 0.0
N418 N 0.21391 0.38467 0.82637 0.0
C419 C 0.24281 0.39691 0.79866 0.0
C420 C 0.22888 0.40151 0.81831 0.0
C421 C 0.21223 0.36346 0.81559 0.0
N422 N 0.24134 0.37555 0.78802 0.0
C423 C 0.22657 0.35846 0.79609 0.0
O424 O 0.15707 0.4318 0.85726 0.0
C425 C 0.15004 0.41074 0.85427 0.0
O426 O 0.16445 0.3936 0.85366 0.0
H427 H 0.23073 0.41793 0.82756 0.0
H428 H 0.19994 0.35072 0.82253 0.0
C429 C 0.1809 0.49715 0.8856 0.0
C430 C 0.1765 0.51047 0.90622 0.0
C431 C 0.17139 0.4747 0.92753 0.0
C432 C 0.17584 0.46174 0.90727 0.0
N433 N 0.18055 0.47304 0.88677 0.0
N434 N 0.17189 0.49854 0.92652 0.0
H435 H 0.18497 0.5057 0.86909 0.0
C436 C 0.18598 0.3467 0.88605 0.0
O437 O 0.17349 0.36242 0.89755 0.0
O438 O 0.18837 0.47109 0.83106 0.0
H439 H 0.17564 0.44268 0.90778 0.0
H440 H 0.25491 0.41007 0.7921 0.0
H441 H 0.16764 0.46591 0.94399 0.0
Zn442 Zn 0.12251 0.20457 0.85773 0.0
C443 C 0.06452 0.23808 0.8782 0.0
N444 N 0.07931 0.25191 0.89042 0.0
C445 C 0.10014 0.24078 0.88836 0.0
N446 N 0.0982 0.22089 0.87527 0.0
N447 N 0.07565 0.21908 0.86938 0.0
C448 C 0.04711 0.18343 0.80866 0.0
O449 O 0.06609 0.1703 0.80958 0.0
O450 O 0.15506 0.20387 0.87301 0.0
Zn451 Zn 0.0586 0.19169 0.85746 0.0
N452 N 0.125 0.22157 0.82836 0.0
C453 C 0.11381 0.25307 0.80308 0.0
C454 C 0.11002 0.23955 0.82317 0.0
C455 C 0.14345 0.21648 0.8142 0.0
N456 N 0.13236 0.24804 0.78892 0.0
C457 C 0.1475 0.23014 0.79393 0.0
O458 O 0.07803 0.16197 0.85461 0.0
C459 C 0.09915 0.15498 0.85199 0.0
O460 O 0.11631 0.16944 0.85216 0.0
H461 H 0.09558 0.24381 0.83471 0.0
H462 H 0.15445 0.20167 0.81882 0.0
C463 C 0.01155 0.18077 0.87615 0.0
C464 C 0.99589 0.17562 0.89478 0.0
C465 C 0.02771 0.17923 0.92184 0.0
C466 C 0.04303 0.18415 0.90342 0.0
N467 N 0.03477 0.18483 0.88101 0.0
N468 N 0.0047 0.17507 0.9171 0.0
H469 H 0.00561 0.18112 0.85807 0.0
C470 C 0.1577 0.19123 0.89129 0.0
O471 O 0.13876 0.18308 0.90179 0.0
O472 O 0.04169 0.19612 0.82634 0.0
H473 H 0.06148 0.18737 0.90688 0.0
H474 H 0.10213 0.26748 0.79877 0.0
H475 H 0.03404 0.17863 0.93978 0.0
Zn476 Zn 0.31529 0.05936 0.86763 0.0
C477 C 0.2665 0.1083 0.88635 0.0
N478 N 0.25338 0.08885 0.88975 0.0
C479 C 0.26721 0.07141 0.88182 0.0
N480 N 0.28814 0.07963 0.87419 0.0
N481 N 0.28773 0.10289 0.8767 0.0
C482 C 0.32745 0.15794 0.89244 0.0
O483 O 0.33479 0.13859 0.90279 0.0
O484 O 0.32013 0.04625 0.83468 0.0
Zn485 Zn 0.31006 0.12302 0.86046 0.0
N486 N 0.31413 0.03309 0.88973 0.0
C487 C 0.30625 0.02178 0.92924 0.0
C488 C 0.30683 0.03887 0.91176 0.0
C489 C 0.32126 0.01068 0.88449 0.0
N490 N 0.31355 0.99963 0.92419 0.0
C491 C 0.3212 0.99336 0.90234 0.0
O492 O 0.34411 0.11121 0.85861 0.0
C493 C 0.35624 0.09381 0.86594 0.0
O494 O 0.34648 0.07505 0.87336 0.0
H495 H 0.30173 0.05678 0.91578 0.0
H496 H 0.3276 0.00671 0.86697 0.0
C497 C 0.30058 0.1478 0.819 0.0
C498 C 0.28776 0.15345 0.79865 0.0
C499 C 0.27004 0.11552 0.79979 0.0
C500 C 0.2824 0.11033 0.8203 0.0
N501 N 0.29735 0.12664 0.82945 0.0
N502 N 0.27299 0.13689 0.78949 0.0
H503 H 0.3129 0.15992 0.82692 0.0
C504 C 0.31486 0.0447 0.81296 0.0
O505 O 0.29676 0.05629 0.80446 0.0
O506 O 0.31377 0.15593 0.87481 0.0
H507 H 0.27951 0.0938 0.82925 0.0
H508 H 0.3004 0.02615 0.94683 0.0
H509 H 0.25799 0.10283 0.79225 0.0
Zn510 Zn 0.38563 0.31261 0.85921 0.0
C511 C 0.44272 0.27482 0.8727 0.0
N512 N 0.4277 0.25889 0.88159 0.0
C513 C 0.40706 0.27054 0.88235 0.0
N514 N 0.4094 0.29292 0.87404 0.0
N515 N 0.43201 0.29559 0.86868 0.0
C516 C 0.46724 0.33854 0.81782 0.0
O517 O 0.44775 0.35096 0.81721 0.0
O518 O 0.35402 0.31449 0.87618 0.0
Zn519 Zn 0.45011 0.3247 0.86425 0.0
N520 N 0.38016 0.29813 0.82903 0.0
C521 C 0.38877 0.26864 0.80056 0.0
C522 C 0.39547 0.2821 0.81995 0.0
C523 C 0.35865 0.30147 0.81941 0.0
N524 N 0.3671 0.27183 0.79102 0.0
C525 C 0.35162 0.28783 0.79999 0.0
O526 O 0.43119 0.35465 0.86273 0.0
C527 C 0.41057 0.36184 0.85785 0.0
O528 O 0.39362 0.34746 0.8549 0.0
H529 H 0.41236 0.27919 0.82811 0.0
H530 H 0.34738 0.31469 0.82715 0.0
C531 C 0.49366 0.33348 0.89073 0.0
C532 C 0.50668 0.3353 0.91186 0.0
C533 C 0.4723 0.32471 0.93335 0.0
C534 C 0.45956 0.3231 0.91253 0.0
N535 N 0.47036 0.3275 0.89168 0.0
N536 N 0.49536 0.33079 0.93252 0.0
H537 H 0.50165 0.3372 0.87387 0.0
C538 C 0.35203 0.32888 0.89325 0.0
O539 O 0.3713 0.33804 0.90222 0.0
O540 O 0.47123 0.32522 0.83541 0.0
H541 H 0.4411 0.31843 0.91291 0.0
H542 H 0.40063 0.25567 0.7932 0.0
H543 H 0.46393 0.32127 0.9501 0.0
Zn544 Zn 0.6493 0.19064 0.05536 0.0
C545 C 0.62423 0.2379 0.10224 0.0
N546 N 0.6208 0.25055 0.08247 0.0
C547 C 0.63074 0.23706 0.06579 0.0
N548 N 0.63953 0.21701 0.07484 0.0
N549 N 0.63598 0.21762 0.0979 0.0
C550 C 0.62176 0.18555 0.15625 0.0
O551 O 0.60984 0.17872 0.13762 0.0
O552 O 0.68017 0.194 0.03791 0.0
Zn553 Zn 0.65415 0.19878 0.1199 0.0
N554 N 0.62513 0.1865 0.03152 0.0
C555 C 0.58409 0.18472 0.02362 0.0
C556 C 0.60259 0.18832 0.03925 0.0
C557 C 0.63003 0.18126 0.00856 0.0
N558 N 0.58887 0.17921 1.00089 0.0
C559 C 0.61133 0.17732 0.99269 0.0
O560 O 0.65741 0.16384 0.11114 0.0
C561 C 0.65438 0.1511 0.09291 0.0
O562 O 0.65053 0.16017 0.07284 0.0
H563 H 0.59907 0.19232 0.05753 0.0
H564 H 0.64816 0.17953 1.00299 0.0
C565 C 0.69651 0.21319 0.14227 0.0
C566 C 0.71743 0.22622 0.1448 0.0
C567 C 0.71261 0.24078 0.10593 0.0
C568 C 0.69205 0.22764 0.10351 0.0
N569 N 0.68437 0.21418 0.12175 0.0
N570 N 0.72488 0.23962 0.12636 0.0
H571 H 0.69001 0.20185 0.1561 0.0
C572 C 0.69762 0.18042 0.04159 0.0
O573 O 0.69724 0.16632 0.05989 0.0
O574 O 0.64058 0.19727 0.15311 0.0
H575 H 0.68218 0.22847 0.08734 0.0
H576 H 0.56604 0.18606 0.02953 0.0
H577 H 0.7189 0.25165 0.09161 0.0
Zn578 Zn 0.64836 0.30489 0.38607 0.0
C579 C 0.62127 0.27211 0.44151 0.0
N580 N 0.61186 0.25726 0.42568 0.0
C581 C 0.61562 0.26822 0.40499 0.0
N582 N 0.62748 0.28872 0.40789 0.0
N583 N 0.6302 0.29133 0.43095 0.0
C584 C 0.69158 0.30532 0.47217 0.0
O585 O 0.69459 0.2826 0.46907 0.0
O586 O 0.64087 0.30242 0.35111 0.0
Zn587 Zn 0.64169 0.31839 0.44856 0.0
N588 N 0.67861 0.28984 0.39009 0.0
C589 C 0.70444 0.2646 0.41133 0.0
C590 C 0.68356 0.27733 0.40986 0.0
C591 C 0.69399 0.29056 0.37188 0.0
N592 N 0.71993 0.26547 0.3932 0.0
C593 C 0.71537 0.27815 0.37339 0.0
O594 O 0.6453 0.3478 0.42931 0.0
C595 C 0.6493 0.35487 0.40847 0.0
O596 O 0.65106 0.34044 0.39138 0.0
H597 H 0.67148 0.27716 0.42437 0.0
H598 H 0.68969 0.30137 0.35683 0.0
C599 C 0.62285 0.33015 0.49531 0.0
C600 C 0.60421 0.33583 0.51078 0.0
C601 C 0.57722 0.3317 0.479 0.0
C602 C 0.59564 0.32627 0.46385 0.0
N603 N 0.61803 0.32559 0.47219 0.0
N604 N 0.58192 0.33638 0.50193 0.0
H605 H 0.64092 0.32982 0.50132 0.0
C606 C 0.62432 0.31405 0.34153 0.0
O607 O 0.60837 0.3239 0.35507 0.0
O608 O 0.67307 0.31533 0.46463 0.0
H609 H 0.59222 0.32269 0.44546 0.0
H610 H 0.70851 0.25442 0.42689 0.0
H611 H 0.5593 0.33232 0.4726 0.0
Zn612 Zn 0.18342 0.64534 0.45114 0.0
C613 C 0.23244 0.63074 0.40102 0.0
N614 N 0.24578 0.62509 0.41965 0.0
C615 C 0.23258 0.63132 0.43827 0.0
N616 N 0.21131 0.63945 0.43125 0.0
N617 N 0.21162 0.6401 0.40786 0.0
C618 C 0.19098 0.64368 0.34212 0.0
O619 O 0.18941 0.62264 0.35159 0.0
O620 O 0.18241 0.67641 0.46996 0.0
Zn621 Zn 0.19244 0.66278 0.39131 0.0
N622 N 0.18006 0.61805 0.47172 0.0
C623 C 0.17812 0.57628 0.47153 0.0
C624 C 0.18063 0.59744 0.45961 0.0
C625 C 0.17687 0.61845 0.49557 0.0
N626 N 0.17513 0.57656 0.49518 0.0
C627 C 0.17443 0.59692 0.5079 0.0
O628 O 0.15699 0.66 0.39733 0.0
C629 C 0.14416 0.65143 0.41359 0.0
O630 O 0.15305 0.64477 0.433 0.0
H631 H 0.18298 0.59756 0.44071 0.0
H632 H 0.17667 0.63523 0.50454 0.0
C633 C 0.20793 0.70897 0.38334 0.0
C634 C 0.22146 0.72935 0.38713 0.0
C635 C 0.22854 0.71693 0.4263 0.0
C636 C 0.21563 0.69643 0.42214 0.0
N637 N 0.20553 0.69288 0.40071 0.0
N638 N 0.23116 0.73293 0.40875 0.0
H639 H 0.1993 0.70565 0.36672 0.0
C640 C 0.17045 0.6938 0.46223 0.0
O641 O 0.16154 0.69265 0.44095 0.0
O642 O 0.19423 0.66141 0.35544 0.0
H643 H 0.21419 0.68339 0.4358 0.0
H644 H 0.17854 0.55971 0.46212 0.0
H645 H 0.2366 0.72 0.44328 0.0
Zn646 Zn 0.86043 0.19539 0.38604 0.0
C647 C 0.88996 0.232 0.4381 0.0
N648 N 0.89722 0.24698 0.42135 0.0
C649 C 0.89159 0.23573 0.40116 0.0
N650 N 0.88107 0.21464 0.40552 0.0
N651 N 0.88043 0.21251 0.42874 0.0
C652 C 0.82046 0.18054 0.46278 0.0
O653 O 0.82026 0.16586 0.44491 0.0
O654 O 0.86763 0.19557 0.35093 0.0
Zn655 Zn 0.86933 0.18695 0.44847 0.0
N656 N 0.83011 0.20965 0.39043 0.0
C657 C 0.80409 0.23299 0.41348 0.0
C658 C 0.82419 0.21908 0.41158 0.0
C659 C 0.8166 0.21318 0.37116 0.0
N660 N 0.79046 0.23646 0.39418 0.0
C661 C 0.79625 0.22705 0.3729 0.0
O662 O 0.86671 0.15596 0.43185 0.0
C663 C 0.8625 0.14701 0.41179 0.0
O664 O 0.85924 0.15998 0.3938 0.0
H665 H 0.83521 0.21618 0.42668 0.0
H666 H 0.82169 0.2049 0.35479 0.0
C667 C 0.88882 0.1781 0.49477 0.0
C668 C 0.90747 0.1741 0.51062 0.0
C669 C 0.9347 0.17896 0.4792 0.0
C670 C 0.9162 0.18267 0.46362 0.0
N671 N 0.8937 0.18221 0.47166 0.0
N672 N 0.92992 0.17469 0.50219 0.0
H673 H 0.87067 0.17738 0.50048 0.0
C674 C 0.88447 0.18346 0.34248 0.0
O675 O 0.89997 0.17435 0.35702 0.0
O676 O 0.83879 0.19299 0.46643 0.0
H677 H 0.91968 0.18582 0.44517 0.0
H678 H 0.79921 0.24074 0.43019 0.0
H679 H 0.95273 0.17929 0.47309 0.0
Zn680 Zn 0.32157 0.87066 0.449 0.0
C681 C 0.27069 0.88512 0.40143 0.0
N682 N 0.25708 0.88461 0.42078 0.0
C683 C 0.27146 0.87649 0.43773 0.0
N684 N 0.29332 0.87314 0.42915 0.0
N685 N 0.29275 0.87738 0.4062 0.0
C686 C 0.32332 0.8845 0.34239 0.0
O687 O 0.3323 0.90024 0.3568 0.0
O688 O 0.32725 0.8401 0.4664 0.0
Zn689 Zn 0.3137 0.85948 0.38612 0.0
N690 N 0.32064 0.89645 0.47177 0.0
C691 C 0.30907 0.9362 0.47817 0.0
C692 C 0.30999 0.91636 0.46387 0.0
C693 C 0.33069 0.89564 0.49366 0.0
N694 N 0.31921 0.93554 0.49974 0.0
C695 C 0.33015 0.91592 0.50814 0.0
O696 O 0.34855 0.862 0.39425 0.0
C697 C 0.36125 0.8688 0.41143 0.0
O698 O 0.35223 0.87403 0.43128 0.0
H699 H 0.3025 0.91691 0.44639 0.0
H700 H 0.33952 0.87974 0.49931 0.0
C701 C 0.2976 0.81514 0.37042 0.0
C702 C 0.28668 0.79293 0.37229 0.0
C703 C 0.28786 0.79671 0.41398 0.0
C704 C 0.29892 0.8185 0.4118 0.0
N705 N 0.3032 0.82741 0.39007 0.0
N706 N 0.28213 0.78445 0.39427 0.0
H707 H 0.30189 0.82304 0.35377 0.0
C708 C 0.31767 0.82184 0.47507 0.0
O709 O 0.29476 0.81909 0.4739 0.0
O710 O 0.3122 0.86709 0.35106 0.0
H711 H 0.30344 0.82854 0.42724 0.0
H712 H 0.30063 0.95215 0.47207 0.0
H713 H 0.28397 0.78952 0.43117 0.0
Zn714 Zn 0.85608 0.31349 0.05658 0.0
C715 C 0.87218 0.26128 0.10239 0.0
N716 N 0.87329 0.24888 0.08221 0.0
C717 C 0.86713 0.26482 0.06598 0.0
N718 N 0.86243 0.28592 0.07563 0.0
N719 N 0.86557 0.28393 0.09868 0.0
C720 C 0.8773 0.31811 0.16367 0.0
O721 O 0.89054 0.33016 0.14903 0.0
O722 O 0.82493 0.3126 0.03928 0.0
Zn723 Zn 0.8508 0.30546 0.12088 0.0
N724 N 0.88077 0.31466 0.03306 0.0
C725 C 0.92166 0.31025 0.02543 0.0
C726 C 0.90273 0.30942 0.04091 0.0
C727 C 0.87686 0.32074 0.01014 0.0
N728 N 0.9179 0.31653 1.00272 0.0
C729 C 0.89604 0.32187 0.99441 0.0
O730 O 0.85246 0.34051 0.11248 0.0
C731 C 0.85577 0.3532 0.09431 0.0
O732 O 0.85784 0.34411 0.07397 0.0
H733 H 0.90548 0.30475 0.05916 0.0
H734 H 0.85922 0.32518 0.00452 0.0
C735 C 0.8083 0.29509 0.14307 0.0
C736 C 0.78427 0.29 0.14529 0.0
C737 C 0.7826 0.28303 0.10405 0.0
C738 C 0.80615 0.28971 0.1019 0.0
N739 N 0.81838 0.29584 0.12152 0.0
N740 N 0.7721 0.28381 0.12554 0.0
H741 H 0.81902 0.29904 0.15816 0.0
C742 C 0.8085 0.32741 0.04298 0.0
O743 O 0.81048 0.34235 0.06053 0.0
O744 O 0.86173 0.30431 0.15529 0.0
H745 H 0.81458 0.29001 0.08486 0.0
H746 H 0.93925 0.30614 0.03143 0.0
H747 H 0.77254 0.27801 0.08867 0.0
Zn748 Zn 0.19186 0.85514 0.05818 0.0
C749 C 0.24143 0.87879 0.10395 0.0
N750 N 0.25347 0.88102 0.08364 0.0
C751 C 0.23865 0.87217 0.06754 0.0
N752 N 0.2185 0.86471 0.07739 0.0
N753 N 0.22012 0.86843 0.10043 0.0
C754 C 0.1857 0.88655 0.15773 0.0
O755 O 0.17792 0.89712 0.13868 0.0
O756 O 0.19603 0.8245 0.03977 0.0
Zn757 Zn 0.20006 0.85223 0.12322 0.0
N758 N 0.18666 0.88037 0.03567 0.0
C759 C 0.18452 0.92183 0.03027 0.0
C760 C 0.18855 0.90246 0.04467 0.0
C761 C 0.18061 0.87677 0.01267 0.0
N762 N 0.17848 0.91834 0.00745 0.0
C763 C 0.17629 0.89638 0.99797 0.0
O764 O 0.165 0.84872 0.11461 0.0
C765 C 0.15241 0.85041 0.09613 0.0
O766 O 0.1617 0.85323 0.07601 0.0
H767 H 0.19308 0.90496 0.06299 0.0
H768 H 0.17869 0.85894 0.00625 0.0
C769 C 0.21137 0.81157 0.14919 0.0
C770 C 0.22498 0.79183 0.1555 0.0
C771 C 0.24413 0.79385 0.11834 0.0
C772 C 0.23059 0.8134 0.11232 0.0
N773 N 0.21461 0.82192 0.12797 0.0
N774 N 0.24097 0.78352 0.13965 0.0
H775 H 0.19817 0.81891 0.16071 0.0
C776 C 0.18271 0.80691 0.04401 0.0
O777 O 0.169 0.80754 0.0626 0.0
O778 O 0.19825 0.86816 0.15533 0.0
H779 H 0.23336 0.82213 0.09567 0.0
H780 H 0.18602 0.93953 0.03718 0.0
H781 H 0.25709 0.78694 0.10621 0.0
Zn782 Zn 0.31553 0.65189 0.12043 0.0
C783 C 0.27677 0.63705 0.0639 0.0
N784 N 0.26066 0.63078 0.08003 0.0
C785 C 0.27308 0.63084 0.10017 0.0
N786 N 0.29569 0.6375 0.09665 0.0
N787 N 0.298 0.64103 0.07366 0.0
C788 C 0.31798 0.69466 0.03379 0.0
O789 O 0.29927 0.69854 0.04677 0.0
O790 O 0.31477 0.63611 0.15271 0.0
Zn791 Zn 0.32667 0.64579 0.05535 0.0
N792 N 0.30199 0.68244 0.12522 0.0
C793 C 0.27599 0.71332 0.11435 0.0
C794 C 0.28875 0.6932 0.10847 0.0
C795 C 0.30346 0.69113 0.14735 0.0
N796 N 0.27734 0.72198 0.1366 0.0
C797 C 0.29073 0.71144 0.15351 0.0
O798 O 0.35577 0.64769 0.0749 0.0
C799 C 0.36405 0.65169 0.09529 0.0
O800 O 0.35063 0.6547 0.11297 0.0
H801 H 0.28732 0.68569 0.09106 0.0
H802 H 0.31476 0.68212 0.15963 0.0
C803 C 0.33813 0.61979 0.01216 0.0
C804 C 0.34108 0.59881 0.99909 0.0
C805 C 0.32839 0.57682 0.03242 0.0
C806 C 0.32574 0.5975 0.04525 0.0
N807 N 0.33059 0.61854 0.03498 0.0
N808 N 0.33603 0.57796 0.00984 0.0
H809 H 0.34224 0.63679 0.0046 0.0
C810 C 0.32854 0.61904 0.15715 0.0
O811 O 0.33954 0.60886 0.13952 0.0
O812 O 0.32882 0.67514 0.03523 0.0
H813 H 0.3199 0.59688 0.06336 0.0
H814 H 0.26507 0.72198 0.10138 0.0
H815 H 0.32457 0.55993 0.04036 0.0
Zn816 Zn 0.88832 0.35724 0.81111 0.0
C817 C 0.9425 0.38368 0.77457 0.0
N818 N 0.92589 0.39154 0.75975 0.0
C819 C 0.9056 0.38718 0.77122 0.0
N820 N 0.90966 0.37659 0.79231 0.0
N821 N 0.93292 0.37482 0.7943 0.0
C822 C 0.97499 0.31758 0.80771 0.0
O823 O 0.96537 0.31608 0.78677 0.0
O824 O 0.85428 0.36923 0.81294 0.0
Zn825 Zn 0.95252 0.36612 0.82125 0.0
N826 N 0.88862 0.32688 0.79578 0.0
C827 C 0.90462 0.30083 0.76712 0.0
C828 C 0.90621 0.3213 0.78055 0.0
C829 C 0.86963 0.31273 0.79834 0.0
N830 N 0.88553 0.28669 0.76957 0.0
C831 C 0.86777 0.29206 0.78476 0.0
O832 O 0.93428 0.36292 0.85095 0.0
C833 C 0.91431 0.35758 0.85939 0.0
O834 O 0.89664 0.35389 0.84609 0.0
H835 H 0.92111 0.33283 0.77846 0.0
H836 H 0.85644 0.31777 0.81107 0.0
C837 C 0.99767 0.39183 0.82795 0.0
C838 C 0.01031 0.41294 0.83209 0.0
C839 C 0.97396 0.43375 0.83417 0.0
C840 C 0.96168 0.41302 0.83002 0.0
N841 N 0.97361 0.39254 0.8269 0.0
N842 N 0.99778 0.4332 0.83506 0.0
H843 H 0.00666 0.37528 0.82511 0.0
C844 C 0.8507 0.38746 0.8255 0.0
O845 O 0.8691 0.39937 0.83296 0.0
O846 O 0.97132 0.33556 0.82058 0.0
H847 H 0.94266 0.41314 0.8292 0.0
H848 H 0.91842 0.29622 0.75484 0.0
H849 H 0.96468 0.4502 0.83664 0.0
Zn850 Zn 0.14172 0.95585 0.82402 0.0
C851 C 0.12738 0.91022 0.77022 0.0
N852 N 0.12693 0.9305 0.75801 0.0
C853 C 0.13277 0.9467 0.77424 0.0
N854 N 0.13683 0.93692 0.79544 0.0
N855 N 0.13372 0.91381 0.79297 0.0
C856 C 0.11719 0.84873 0.82697 0.0
O857 O 0.10681 0.86342 0.84152 0.0
O858 O 0.17209 0.97455 0.82663 0.0
Zn859 Zn 0.14552 0.89025 0.81481 0.0
N860 N 0.11528 0.9776 0.82654 0.0
C861 C 0.07359 0.97919 0.8289 0.0
C862 C 0.09425 0.96627 0.82715 0.0
C863 C 0.11659 1.00167 0.82774 0.0
N864 N 0.07475 1.003 0.82995 0.0
C865 C 0.09556 0.01498 0.82942 0.0
O866 O 0.14445 0.89828 0.84968 0.0
C867 C 0.14272 0.91642 0.86272 0.0
O868 O 0.14135 0.937 0.85401 0.0
H869 H 0.09366 0.94724 0.82624 0.0
H870 H 0.13361 0.01015 0.82691 0.0
C871 C 0.18613 0.86434 0.81196 0.0
C872 C 0.20855 0.85754 0.80429 0.0
C873 C 0.21305 0.89514 0.78627 0.0
C874 C 0.19068 0.90162 0.79401 0.0
N875 N 0.17783 0.886 0.80673 0.0
N876 N 0.22144 0.87337 0.79162 0.0
H877 H 0.17471 0.8527 0.82153 0.0
C878 C 0.19198 0.97501 0.81637 0.0
O879 O 0.19577 0.96169 0.79787 0.0
O880 O 0.1315 0.85697 0.81181 0.0
H881 H 0.1833 0.91846 0.78922 0.0
H882 H 0.0567 0.97039 0.82938 0.0
H883 H 0.22359 0.9072 0.77596 0.0
Zn884 Zn 0.62063 0.14408 0.80775 0.0
C885 C 0.56362 0.12441 0.77202 0.0
N886 N 0.57894 0.11523 0.75655 0.0
C887 C 0.59965 0.11661 0.76808 0.0
N888 N 0.59721 0.12677 0.78956 0.0
N889 N 0.57439 0.13118 0.79195 0.0
C890 C 0.53704 0.19158 0.81356 0.0
O891 O 0.54325 0.19688 0.79194 0.0
O892 O 0.65361 0.12974 0.80833 0.0
Zn893 Zn 0.55685 0.13933 0.81998 0.0
N894 N 0.62327 0.17404 0.79186 0.0
C895 C 0.6114 0.20019 0.76137 0.0
C896 C 0.60743 0.18024 0.77502 0.0
C897 C 0.64271 0.18723 0.79589 0.0
N898 N 0.63089 0.21339 0.76535 0.0
C899 C 0.64685 0.20755 0.78226 0.0
O900 O 0.57604 0.13795 0.84923 0.0
C901 C 0.59635 0.1431 0.85704 0.0
O902 O 0.61338 0.14796 0.84323 0.0
H903 H 0.5922 0.16949 0.77175 0.0
H904 H 0.65436 0.18176 0.80985 0.0
C905 C 0.50936 0.12128 0.82924 0.0
C906 C 0.49295 0.1029 0.8327 0.0
C907 C 0.52317 0.07502 0.82467 0.0
C908 C 0.53928 0.09319 0.82148 0.0
N909 N 0.53216 0.1159 0.82381 0.0
N910 N 0.50057 0.08027 0.83026 0.0
H911 H 0.50432 0.13954 0.83138 0.0
C912 C 0.6571 0.11207 0.82162 0.0
O913 O 0.6387 0.10122 0.83051 0.0
O914 O 0.54203 0.17152 0.82211 0.0
H915 H 0.55744 0.08929 0.81729 0.0
H916 H 0.59908 0.2052 0.74774 0.0
H917 H 0.5286 0.05684 0.82288 0.0
Zn918 Zn 0.36189 0.62229 0.80958 0.0
C919 C 0.38366 0.56602 0.77528 0.0
N920 N 0.39189 0.58157 0.75948 0.0
C921 C 0.39044 0.60229 0.77089 0.0
N922 N 0.38106 0.59975 0.79261 0.0
N923 N 0.37765 0.57681 0.79556 0.0
C924 C 0.3235 0.53713 0.82016 0.0
O925 O 0.31908 0.54384 0.7985 0.0
O926 O 0.3707 0.65687 0.80622 0.0
Zn927 Zn 0.37307 0.56029 0.82531 0.0
N928 N 0.33083 0.6198 0.79595 0.0
C929 C 0.30327 0.6013 0.77042 0.0
C930 C 0.32462 0.60106 0.78242 0.0
C931 C 0.31635 0.63859 0.79837 0.0
N932 N 0.28882 0.62018 0.7727 0.0
C933 C 0.29464 0.63905 0.78636 0.0
O934 O 0.37295 0.5812 0.85412 0.0
C935 C 0.36627 0.60172 0.86026 0.0
O936 O 0.36057 0.6172 0.84507 0.0
H937 H 0.3362 0.58622 0.78069 0.0
H938 H 0.322 0.65264 0.80983 0.0
C939 C 0.39742 0.51546 0.83517 0.0
C940 C 0.418 0.5016 0.83714 0.0
C941 C 0.44088 0.53487 0.82582 0.0
C942 C 0.42062 0.54844 0.82409 0.0
N943 N 0.39934 0.5386 0.82875 0.0
N944 N 0.4391 0.51198 0.83232 0.0
H945 H 0.38024 0.5082 0.83903 0.0
C946 C 0.38764 0.66634 0.81739 0.0
O947 O 0.40325 0.65267 0.8276 0.0
O948 O 0.34295 0.54237 0.82983 0.0
H949 H 0.42174 0.56677 0.81904 0.0
H950 H 0.29816 0.58657 0.75945 0.0
H951 H 0.45795 0.54247 0.82213 0.0
Zn952 Zn 0.95442 0.14318 0.68797 0.0
C953 C 0.90592 0.12643 0.73781 0.0
N954 N 0.92578 0.12333 0.75044 0.0
C955 C 0.94272 0.12996 0.73536 0.0
N956 N 0.93383 0.13688 0.71464 0.0
N957 N 0.9106 0.13499 0.71598 0.0
C958 C 0.85219 0.12055 0.6822 0.0
O959 O 0.87038 0.10772 0.67586 0.0
O960 O 0.97176 0.17495 0.68789 0.0
Zn961 Zn 0.89007 0.15169 0.69442 0.0
N962 N 0.97706 0.11734 0.68715 0.0
C963 C 0.98091 0.07594 0.69219 0.0
C964 C 0.96726 0.0962 0.69264 0.0
C965 C 1.00019 0.11899 0.68066 0.0
N966 N 1.00375 0.07745 0.68559 0.0
C967 C 0.01402 0.09829 0.67959 0.0
O968 O 0.90002 0.1508 0.6599 0.0
C969 C 0.91798 0.14544 0.6476 0.0
O970 O 0.93784 0.1413 0.65701 0.0
H971 H 0.94883 0.09509 0.69722 0.0
H972 H 0.00736 0.13593 0.67569 0.0
C973 C 0.8689 0.19423 0.7083 0.0
C974 C 0.86697 0.21478 0.72197 0.0
C975 C 0.90816 0.21333 0.72917 0.0
C976 C 0.90973 0.19258 0.71616 0.0
N977 N 0.89001 0.18339 0.70619 0.0
N978 N 0.88688 0.22388 0.73182 0.0
H979 H 0.85388 0.18634 0.69974 0.0
C980 C 0.9631 0.19151 0.67544 0.0
O981 O 0.94188 0.18894 0.66669 0.0
O982 O 0.85606 0.13966 0.69328 0.0
H983 H 0.92635 0.18348 0.7147 0.0
H984 H 0.97335 0.05904 0.69669 0.0
H985 H 0.92364 0.22083 0.73736 0.0
Zn986 Zn 0.35924 0.89095 0.69414 0.0
C987 C 0.37267 0.94766 0.73176 0.0
N988 N 0.38109 0.9324 0.74776 0.0
C989 C 0.38206 0.91199 0.73577 0.0
N990 N 0.37444 0.91453 0.71335 0.0
N991 N 0.36916 0.93718 0.71068 0.0
C992 C 0.31997 0.96461 0.66087 0.0
O993 O 0.32321 0.944 0.65093 0.0
O994 O 0.36961 0.85658 0.69761 0.0
Zn995 Zn 0.3661 0.95465 0.68065 0.0
N996 N 0.32695 0.89235 0.70416 0.0
C997 C 0.29271 0.91436 0.7137 0.0
C998 C 0.31574 0.91343 0.7054 0.0
C999 C 0.31613 0.87215 0.71086 0.0
N1000 N 0.28145 0.894 0.71917 0.0
C1001 C 0.29233 0.87264 0.71768 0.0
O1002 O 0.36948 0.93444 0.65111 0.0
C1003 C 0.36556 0.91336 0.64436 0.0
O1004 O 0.36076 0.89713 0.65903 0.0
H1005 H 0.32464 0.92931 0.70005 0.0
H1006 H 0.32607 0.85599 0.71028 0.0
C1007 C 0.39126 1.00053 0.67374 0.0
C1008 C 0.41218 0.01417 0.67405 0.0
C1009 C 0.43321 0.98062 0.68782 0.0
C1010 C 0.41275 0.96726 0.68718 0.0
N1011 N 0.39219 0.97728 0.68022 0.0
N1012 N 0.43244 1.00351 0.6812 0.0
H1013 H 0.37473 0.00802 0.66798 0.0
C1014 C 0.38541 0.84789 0.68429 0.0
O1015 O 0.39891 0.86233 0.67227 0.0
O1016 O 0.33514 0.97238 0.67549 0.0
H1017 H 0.41319 0.94887 0.69213 0.0
H1018 H 0.28357 0.93103 0.71501 0.0
H1019 H 0.44967 0.97282 0.69336 0.0
Zn1020 Zn 0.55407 0.37242 0.68767 0.0
C1021 C 0.60407 0.38925 0.73669 0.0
N1022 N 0.58474 0.39486 0.74919 0.0
C1023 C 0.56689 0.3891 0.73478 0.0
N1024 N 0.57488 0.38052 0.7142 0.0
N1025 N 0.59821 0.38009 0.71538 0.0
C1026 C 0.66177 0.38012 0.6851 0.0
O1027 O 0.6488 0.39717 0.67637 0.0
O1028 O 0.53808 0.34002 0.68744 0.0
Zn1029 Zn 0.61584 0.35875 0.69561 0.0
N1030 N 0.53151 0.39814 0.68507 0.0
C1031 C 0.53003 0.43989 0.68262 0.0
C1032 C 0.54285 0.41919 0.68434 0.0
C1033 C 0.50749 0.39687 0.68384 0.0
N1034 N 0.50626 0.43878 0.68153 0.0
C1035 C 0.49429 0.41797 0.68204 0.0
O1036 O 0.60771 0.35978 0.66058 0.0
C1037 C 0.59056 0.36627 0.64769 0.0
O1038 O 0.57098 0.37245 0.65661 0.0
H1039 H 0.56187 0.41978 0.68517 0.0
H1040 H 0.49894 0.37987 0.68459 0.0
C1041 C 0.6273 0.3134 0.71144 0.0
C1042 C 0.62449 0.29271 0.72457 0.0
C1043 C 0.58456 0.30268 0.73132 0.0
C1044 C 0.58759 0.32338 0.71846 0.0
N1045 N 0.60894 0.32831 0.70881 0.0
N1046 N 0.60301 0.28771 0.73393 0.0
H1047 H 0.64391 0.31778 0.70322 0.0
C1048 C 0.52148 0.33118 0.69959 0.0
O1049 O 0.51239 0.34342 0.71694 0.0
O1050 O 0.65161 0.36337 0.69602 0.0
H1051 H 0.57319 0.33557 0.71671 0.0
H1052 H 0.53886 0.45677 0.68212 0.0
H1053 H 0.56769 0.29854 0.73913 0.0
Zn1054 Zn 0.14296 0.55984 0.68383 0.0
C1055 C 0.12294 0.60329 0.73751 0.0
N1056 N 0.12077 0.58228 0.74826 0.0
C1057 C 0.12882 0.567 0.73212 0.0
N1058 N 0.13589 0.57796 0.71241 0.0
N1059 N 0.13243 0.60091 0.71565 0.0
C1060 C 0.11371 0.6611 0.6835 0.0
O1061 O 0.10283 0.64318 0.67367 0.0
O1062 O 0.17255 0.53964 0.68374 0.0
Zn1063 Zn 0.14743 0.62482 0.69636 0.0
N1064 N 0.1157 0.53954 0.67868 0.0
C1065 C 0.0739 0.53906 0.67843 0.0
C1066 C 0.09496 0.55115 0.68111 0.0
C1067 C 0.11628 0.51601 0.67342 0.0
N1068 N 0.07437 0.51578 0.67322 0.0
C1069 C 0.09484 0.50354 0.67049 0.0
O1070 O 0.15074 0.6175 0.66153 0.0
C1071 C 0.14986 0.60021 0.6473 0.0
O1072 O 0.14659 0.57928 0.65452 0.0
H1073 H 0.09487 0.56977 0.68522 0.0
H1074 H 0.13313 0.50744 0.67132 0.0
C1075 C 0.18754 0.65114 0.70525 0.0
C1076 C 0.20705 0.65896 0.71827 0.0
C1077 C 0.20698 0.62261 0.73907 0.0
C1078 C 0.1873 0.61526 0.72639 0.0
N1079 N 0.17801 0.62979 0.70982 0.0
N1080 N 0.21635 0.64421 0.73475 0.0
H1081 H 0.17948 0.6617 0.69169 0.0
C1082 C 0.1921 0.54 0.69467 0.0
O1083 O 0.19559 0.55515 0.71178 0.0
O1084 O 0.13161 0.65704 0.69628 0.0
H1085 H 0.17897 0.59861 0.73035 0.0
H1086 H 0.05725 0.54808 0.68041 0.0
H1087 H 0.21458 0.61141 0.75246 0.0
Zn1088 Zn 0.81021 0.88196 0.36113 0.0
C1089 C 0.77193 0.93978 0.37347 0.0
N1090 N 0.7564 0.92502 0.38338 0.0
C1091 C 0.76784 0.90421 0.38372 0.0
N1092 N 0.78978 0.90626 0.37419 0.0
N1093 N 0.79218 0.92874 0.36812 0.0
C1094 C 0.82362 0.95804 0.30777 0.0
O1095 O 0.8362 0.93864 0.30718 0.0
O1096 O 0.81308 0.85148 0.37999 0.0
Zn1097 Zn 0.81945 0.94682 0.35737 0.0
N1098 N 0.79579 0.87306 0.33194 0.0
C1099 C 0.76448 0.87493 0.30434 0.0
C1100 C 0.77767 0.88529 0.32225 0.0
C1101 C 0.8015 0.85122 0.32441 0.0
N1102 N 0.77006 0.85286 0.29692 0.0
C1103 C 0.78817 0.84047 0.30659 0.0
O1104 O 0.85025 0.92915 0.35354 0.0
C1105 C 0.85817 0.90822 0.35257 0.0
O1106 O 0.84458 0.89057 0.35502 0.0
H1107 H 0.77286 0.90241 0.32903 0.0
H1108 H 0.81629 0.84261 0.33264 0.0
C1109 C 0.82951 0.99388 0.37695 0.0
C1110 C 0.83345 0.00952 0.39595 0.0
C1111 C 0.82772 0.97766 0.42259 0.0
C1112 C 0.82402 0.96237 0.40383 0.0
N1113 N 0.82497 0.97065 0.38144 0.0
N1114 N 0.83237 1.00066 0.41822 0.0
H1115 H 0.83044 0.99985 0.3589 0.0
C1116 C 0.82942 0.84898 0.39507 0.0
O1117 O 0.84103 0.86776 0.40204 0.0
O1118 O 0.81348 0.96393 0.32686 0.0
H1119 H 0.82044 0.94393 0.40703 0.0
H1120 H 0.74982 0.88423 0.29652 0.0
H1121 H 0.82701 0.9713 0.44052 0.0
Zn1122 Zn 0.62364 0.8068 0.35491 0.0
C1123 C 0.56557 0.77504 0.37836 0.0
N1124 N 0.58041 0.75955 0.38826 0.0
C1125 C 0.60174 0.76936 0.38478 0.0
N1126 N 0.59991 0.79017 0.37304 0.0
N1127 N 0.57708 0.79373 0.36951 0.0
C1128 C 0.54668 0.83174 0.31016 0.0
O1129 O 0.56501 0.8458 0.31103 0.0
O1130 O 0.65565 0.80931 0.37115 0.0
Zn1131 Zn 0.56003 0.82165 0.35874 0.0
N1132 N 0.62625 0.78985 0.32545 0.0
C1133 C 0.61409 0.75887 0.29991 0.0
C1134 C 0.6107 0.7724 0.3201 0.0
C1135 C 0.64488 0.79447 0.31134 0.0
N1136 N 0.63276 0.76347 0.28576 0.0
C1137 C 0.64845 0.78088 0.2909 0.0
O1138 O 0.57986 0.85081 0.3563 0.0
C1139 C 0.60078 0.85683 0.35115 0.0
O1140 O 0.61706 0.84161 0.34879 0.0
H1141 H 0.59601 0.76869 0.33156 0.0
H1142 H 0.65635 0.80891 0.31605 0.0
C1143 C 0.51361 0.83363 0.37816 0.0
C1144 C 0.49823 0.83918 0.39693 0.0
C1145 C 0.52998 0.834 0.42378 0.0
C1146 C 0.54502 0.82866 0.40523 0.0
N1147 N 0.53667 0.82859 0.38284 0.0
N1148 N 0.50712 0.83916 0.41921 0.0
H1149 H 0.5076 0.83378 0.3601 0.0
C1150 C 0.65607 0.8231 0.38882 0.0
O1151 O 0.63585 0.83032 0.39745 0.0
O1152 O 0.54233 0.81836 0.32764 0.0
H1153 H 0.56335 0.82472 0.40856 0.0
H1154 H 0.60194 0.74487 0.29547 0.0
H1155 H 0.53641 0.83417 0.4417 0.0
Zn1156 Zn 0.68184 0.55314 0.36926 0.0
C1157 C 0.73247 0.59814 0.3922 0.0
N1158 N 0.74447 0.57774 0.39361 0.0
C1159 C 0.72909 0.56183 0.38531 0.0
N1160 N 0.70867 0.57195 0.37903 0.0
N1161 N 0.71068 0.59495 0.38288 0.0
C1162 C 0.67631 0.65397 0.39807 0.0
O1163 O 0.66655 0.6354 0.40784 0.0
O1164 O 0.687 0.53342 0.33982 0.0
Zn1165 Zn 0.69158 0.61805 0.3662 0.0
N1166 N 0.67516 0.53197 0.3952 0.0
C1167 C 0.66567 0.53079 0.43588 0.0
C1168 C 0.67079 0.54351 0.41566 0.0
C1169 C 0.67453 0.50791 0.394 0.0
N1170 N 0.66514 0.50695 0.43483 0.0
C1171 C 0.6694 0.49483 0.41454 0.0
O1172 O 0.65655 0.61018 0.3614 0.0
C1173 C 0.64344 0.59198 0.36193 0.0
O1174 O 0.65206 0.57158 0.36505 0.0
H1175 H 0.67131 0.56256 0.41616 0.0
H1176 H 0.67839 0.49926 0.37748 0.0
C1177 C 0.70866 0.64284 0.32686 0.0
C1178 C 0.7233 0.64659 0.30728 0.0
C1179 C 0.73393 0.60609 0.30802 0.0
C1180 C 0.71919 0.60252 0.32726 0.0
N1181 N 0.70712 0.62105 0.33642 0.0
N1182 N 0.73554 0.62792 0.29844 0.0
H1183 H 0.69827 0.65679 0.33451 0.0
C1184 C 0.6755 0.5378 0.32106 0.0
O1185 O 0.66292 0.55717 0.31991 0.0
O1186 O 0.6906 0.65075 0.38115 0.0
H1187 H 0.7179 0.5853 0.33518 0.0
H1188 H 0.66217 0.53974 0.45232 0.0
H1189 H 0.74392 0.59162 0.30067 0.0
Zn1190 Zn 0.94485 0.68118 0.35371 0.0
C1191 C 0.90385 0.73475 0.37829 0.0
N1192 N 0.9248 0.74582 0.37859 0.0
C1193 C 0.93936 0.73035 0.36823 0.0
N1194 N 0.92802 0.71034 0.36225 0.0
N1195 N 0.9055 0.71314 0.36808 0.0
C1196 C 0.84023 0.68187 0.38261 0.0
O1197 O 0.85578 0.66922 0.39413 0.0
O1198 O 0.96473 0.68029 0.32404 0.0
Zn1199 Zn 0.88065 0.695 0.35279 0.0
N1200 N 0.96665 0.67514 0.37931 0.0
C1201 C 0.9715 0.66799 0.42022 0.0
C1202 C 0.95701 0.67261 0.40102 0.0
C1203 C 0.99039 0.67339 0.37596 0.0
N1204 N 0.99508 0.6661 0.41693 0.0
C1205 C 0.00522 0.66869 0.39534 0.0
O1206 O 0.88641 0.65985 0.34919 0.0
C1207 C 0.90349 0.64539 0.34879 0.0
O1208 O 0.92465 0.65233 0.35076 0.0
H1209 H 0.93817 0.6741 0.40329 0.0
H1210 H 0.99746 0.67522 0.35838 0.0
C1211 C 0.85606 0.70898 0.31263 0.0
C1212 C 0.8513 0.72267 0.29263 0.0
C1213 C 0.89115 0.73542 0.29246 0.0
C1214 C 0.89553 0.72212 0.31257 0.0
N1215 N 0.87785 0.70922 0.32223 0.0
N1216 N 0.86924 0.7353 0.28295 0.0
H1217 H 0.84283 0.69802 0.32073 0.0
C1218 C 0.95842 0.67844 0.30262 0.0
O1219 O 0.93609 0.68024 0.29692 0.0
O1220 O 0.84743 0.69621 0.36696 0.0
H1221 H 0.91267 0.72259 0.32065 0.0
H1222 H 0.96409 0.66586 0.43762 0.0
H1223 H 0.90497 0.74583 0.28451 0.0
Zn1224 Zn 0.81917 0.5539 0.14687 0.0
C1225 C 0.76839 0.59926 0.12448 0.0
N1226 N 0.75648 0.5788 0.12275 0.0
C1227 C 0.77175 0.56282 0.13103 0.0
N1228 N 0.79208 0.57288 0.13774 0.0
N1229 N 0.79018 0.5959 0.13394 0.0
C1230 C 0.8267 0.65409 0.1162 0.0
O1231 O 0.83595 0.63555 0.10589 0.0
O1232 O 0.81841 0.53732 0.17847 0.0
Zn1233 Zn 0.81091 0.61864 0.1494 0.0
N1234 N 0.82319 0.53014 0.12266 0.0
C1235 C 0.82552 0.52278 0.08156 0.0
C1236 C 0.82231 0.5383 0.10023 0.0
C1237 C 0.82726 0.5069 0.12731 0.0
N1238 N 0.82968 0.49971 0.08609 0.0
C1239 C 0.83071 0.49107 0.10844 0.0
O1240 O 0.8457 0.60982 0.15299 0.0
C1241 C 0.85855 0.59158 0.15091 0.0
O1242 O 0.84956 0.57136 0.1477 0.0
H1243 H 0.81918 0.55681 0.09694 0.0
H1244 H 0.82829 0.50106 0.14539 0.0
C1245 C 0.7994 0.64601 0.18812 0.0
C1246 C 0.78448 0.65407 0.20607 0.0
C1247 C 0.76644 0.61631 0.20731 0.0
C1248 C 0.78075 0.60879 0.18884 0.0
N1249 N 0.79683 0.62391 0.17962 0.0
N1250 N 0.76857 0.63873 0.21543 0.0
H1251 H 0.81262 0.65715 0.18022 0.0
C1252 C 0.80655 0.5361 0.19741 0.0
O1253 O 0.78703 0.54821 0.19978 0.0
O1254 O 0.813 0.65092 0.1336 0.0
H1255 H 0.77829 0.59152 0.18123 0.0
H1256 H 0.82484 0.52902 0.06359 0.0
H1257 H 0.75342 0.60461 0.21482 0.0
Zn1258 Zn 0.88651 0.80747 0.15309 0.0
C1259 C 0.94183 0.77111 0.13011 0.0
N1260 N 0.92591 0.75587 0.12148 0.0
C1261 C 0.90525 0.76689 0.12529 0.0
N1262 N 0.90849 0.78812 0.13582 0.0
N1263 N 0.93153 0.79071 0.13855 0.0
C1264 C 0.95646 0.82855 0.19827 0.0
O1265 O 0.93554 0.83816 0.19624 0.0
O1266 O 0.85227 0.8052 0.1428 0.0
Zn1267 Zn 0.94967 0.81835 0.14851 0.0
N1268 N 0.88741 0.79534 0.18455 0.0
C1269 C 0.90478 0.77172 0.21438 0.0
C1270 C 0.90663 0.78412 0.1933 0.0
C1271 C 0.86658 0.795 0.19607 0.0
N1272 N 0.88376 0.77101 0.22572 0.0
C1273 C 0.86439 0.78217 0.21703 0.0
O1274 O 0.93155 0.84886 0.14808 0.0
C1275 C 0.91071 0.85665 0.15061 0.0
O1276 O 0.89327 0.84276 0.15301 0.0
H1277 H 0.923 0.78426 0.18374 0.0
H1278 H 0.85201 0.80468 0.18866 0.0
C1279 C 0.99776 0.82518 0.12991 0.0
C1280 C 0.01386 0.82746 0.11105 0.0
C1281 C 0.98219 0.82236 0.08405 0.0
C1282 C 0.96645 0.82039 0.10263 0.0
N1283 N 0.97441 0.82178 0.12512 0.0
N1284 N 0.00532 0.82588 0.08868 0.0
H1285 H 1.00347 0.82652 0.14802 0.0
C1286 C 0.84399 0.81661 0.12544 0.0
O1287 O 0.85872 0.8266 0.11067 0.0
O1288 O 0.96498 0.8172 0.18088 0.0
H1289 H 0.9479 0.81772 0.09922 0.0
H1290 H 0.91986 0.76258 0.22158 0.0
H1291 H 0.97611 0.82122 0.06604 0.0
Zn1292 Zn 0.70263 0.88701 0.15086 0.0
C1293 C 0.74034 0.94073 0.1259 0.0
N1294 N 0.75306 0.92395 0.11512 0.0
C1295 C 0.74074 0.90419 0.11949 0.0
N1296 N 0.72128 0.90867 0.13249 0.0
N1297 N 0.72096 0.93173 0.13624 0.0
C1298 C 0.70074 0.9641 0.19851 0.0
O1299 O 0.71633 0.94779 0.20345 0.0
O1300 O 0.70206 0.8538 0.1377 0.0
Zn1301 Zn 0.69396 0.9507 0.14554 0.0
N1302 N 0.71829 0.885 0.18082 0.0
C1303 C 0.7497 0.89544 0.2065 0.0
C1304 C 0.73626 0.89981 0.18648 0.0
C1305 C 0.71322 0.86605 0.19432 0.0
N1306 N 0.74474 0.87633 0.21995 0.0
C1307 C 0.72692 0.86125 0.21438 0.0
O1308 O 0.66355 0.93289 0.14447 0.0
C1309 C 0.65454 0.91289 0.14902 0.0
O1310 O 0.66737 0.89507 0.1537 0.0
H1311 H 0.74061 0.91451 0.17526 0.0
H1312 H 0.69858 0.85506 0.18914 0.0
C1313 C 0.68646 0.99812 0.12641 0.0
C1314 C 0.68399 0.0141 0.10754 0.0
C1315 C 0.69136 0.9828 0.08065 0.0
C1316 C 0.69345 0.96711 0.09927 0.0
N1317 N 0.69106 0.97498 0.12172 0.0
N1318 N 0.68662 0.00575 0.0852 0.0
H1319 H 0.68419 1.00374 0.14447 0.0
C1320 C 0.6913 0.84928 0.11861 0.0
O1321 O 0.68418 0.86696 0.10551 0.0
O1322 O 0.69278 0.96634 0.1777 0.0
H1323 H 0.69686 0.94867 0.09591 0.0
H1324 H 0.76408 0.907 0.21123 0.0
H1325 H 0.69328 0.9768 0.06267 0.0
Zn1326 Zn 0.56092 0.69402 0.15609 0.0
C1327 C 0.60921 0.74231 0.13541 0.0
N1328 N 0.59033 0.75652 0.13702 0.0
C1329 C 0.57341 0.74209 0.14504 0.0
N1330 N 0.58154 0.7201 0.14827 0.0
N1331 N 0.60423 0.72014 0.14278 0.0
C1332 C 0.65834 0.68184 0.11969 0.0
O1333 O 0.63842 0.67421 0.1107 0.0
O1334 O 0.54385 0.6971 0.18728 0.0
Zn1335 Zn 0.62625 0.6972 0.15528 0.0
N1336 N 0.53768 0.69242 0.13121 0.0
C1337 C 0.53095 0.69531 0.09004 0.0
C1338 C 0.54608 0.69657 0.10922 0.0
C1339 C 0.51458 0.68688 0.13489 0.0
N1340 N 0.50805 0.68963 0.09357 0.0
C1341 C 0.49922 0.68529 0.11544 0.0
O1342 O 0.61517 0.66305 0.1569 0.0
C1343 C 0.59584 0.65174 0.15659 0.0
O1344 O 0.57618 0.66233 0.15594 0.0
H1345 H 0.56448 0.70072 0.10665 0.0
H1346 H 0.50854 0.68322 0.15256 0.0
C1347 C 0.65524 0.70574 0.19429 0.0
C1348 C 0.66175 0.71569 0.21601 0.0
C1349 C 0.62251 0.72978 0.22059 0.0
C1350 C 0.61625 0.71959 0.19922 0.0
N1351 N 0.63281 0.7079 0.18653 0.0
N1352 N 0.64492 0.72742 0.2285 0.0
H1353 H 0.66744 0.69626 0.18331 0.0
C1354 C 0.55081 0.68594 0.20546 0.0
O1355 O 0.57139 0.67541 0.2049 0.0
O1356 O 0.65746 0.69509 0.13773 0.0
H1357 H 0.59852 0.72142 0.19258 0.0
H1358 H 0.53738 0.6986 0.07242 0.0
H1359 H 0.60968 0.73933 0.23093 0.0
Zn1360 Zn 0.37037 0.81849 0.95153 0.0
C1361 C 0.39218 0.77151 0.9026 0.0
N1362 N 0.39498 0.75794 0.92183 0.0
C1363 C 0.38574 0.77118 0.9391 0.0
N1364 N 0.37799 0.79205 0.9309 0.0
N1365 N 0.38148 0.79219 0.90778 0.0
C1366 C 0.38647 0.82771 0.84356 0.0
O1367 O 0.39925 0.8404 0.8581 0.0
O1368 O 0.34124 0.81451 0.9719 0.0
Zn1369 Zn 0.36242 0.81137 0.88673 0.0
N1370 N 0.39739 0.82256 0.97233 0.0
C1371 C 0.43911 0.82085 0.97467 0.0
C1372 C 0.41847 0.81851 0.96181 0.0
C1373 C 0.39609 0.82916 0.99546 0.0
N1374 N 0.43793 0.82748 0.99755 0.0
C1375 C 0.41709 0.83186 0.00861 0.0
O1376 O 0.3585 0.84612 0.89624 0.0
C1377 C 0.36126 0.85855 0.91474 0.0
O1378 O 0.36621 0.84913 0.93443 0.0
H1379 H 0.41921 0.81355 0.94344 0.0
H1380 H 0.37906 0.83269 1.00319 0.0
C1381 C 0.32044 0.796 0.86575 0.0
C1382 C 0.30054 0.78166 0.86277 0.0
C1383 C 0.30627 0.76627 0.90114 0.0
C1384 C 0.3259 0.78071 0.904 0.0
N1385 N 0.33265 0.7952 0.88619 0.0
N1386 N 0.29392 0.76722 0.88072 0.0
H1387 H 0.32605 0.80817 0.85226 0.0
C1388 C 0.32207 0.8252 0.96732 0.0
O1389 O 0.32028 0.83715 0.94762 0.0
O1390 O 0.37232 0.81252 0.85202 0.0
H1391 H 0.33592 0.7799 0.92001 0.0
H1392 H 0.45602 0.81761 0.96653 0.0
H1393 H 0.30077 0.75454 0.9151 0.0
Zn1394 Zn 0.36635 0.68486 0.55904 0.0
C1395 C 0.38638 0.73923 0.60084 0.0
N1396 N 0.38645 0.7507 0.58012 0.0
C1397 C 0.37707 0.73492 0.56515 0.0
N1398 N 0.37204 0.71447 0.57609 0.0
N1399 N 0.37709 0.71733 0.59876 0.0
C1400 C 0.38817 0.687 0.6639 0.0
O1401 O 0.39941 0.67368 0.64869 0.0
O1402 O 0.33956 0.68423 0.53586 0.0
Zn1403 Zn 0.36009 0.70034 0.623 0.0
N1404 N 0.39398 0.67848 0.53973 0.0
C1405 C 0.43451 0.66835 0.53909 0.0
C1406 C 0.41413 0.67363 0.55158 0.0
C1407 C 0.39332 0.67829 0.51564 0.0
N1408 N 0.43391 0.66809 0.51522 0.0
C1409 C 0.41394 0.67285 0.50278 0.0
O1410 O 0.35523 0.66512 0.61727 0.0
C1411 C 0.3568 0.6501 0.60068 0.0
O1412 O 0.36143 0.65638 0.57969 0.0
H1413 H 0.41425 0.67381 0.57062 0.0
H1414 H 0.37705 0.68258 0.50678 0.0
C1415 C 0.31905 0.71366 0.64633 0.0
C1416 C 0.2991 0.72739 0.65128 0.0
C1417 C 0.30222 0.74477 0.61341 0.0
C1418 C 0.32218 0.73126 0.60879 0.0
N1419 N 0.33019 0.71603 0.62542 0.0
N1420 N 0.29111 0.74246 0.63444 0.0
H1421 H 0.32581 0.70092 0.65871 0.0
C1422 C 0.31901 0.67613 0.53954 0.0
O1423 O 0.31233 0.67123 0.56111 0.0
O1424 O 0.37339 0.70198 0.65627 0.0
H1425 H 0.33157 0.7335 0.59248 0.0
H1426 H 0.45073 0.66444 0.54828 0.0
H1427 H 0.29565 0.75707 0.60044 0.0
Zn1428 Zn 0.81255 0.35645 0.62608 0.0
C1429 C 0.77445 0.36276 0.56754 0.0
N1430 N 0.75863 0.3729 0.58192 0.0
C1431 C 0.77068 0.37547 0.60215 0.0
N1432 N 0.79293 0.36706 0.60029 0.0
N1433 N 0.79532 0.35942 0.5783 0.0
C1434 C 0.84046 0.30577 0.54495 0.0
O1435 O 0.85598 0.30867 0.56182 0.0
O1436 O 0.81264 0.37668 0.65582 0.0
Zn1437 Zn 0.82416 0.35196 0.56067 0.0
N1438 N 0.7988 0.32721 0.63572 0.0
C1439 C 0.77224 0.29531 0.63069 0.0
C1440 C 0.78472 0.31424 0.62134 0.0
C1441 C 0.80153 0.32169 0.65872 0.0
N1442 N 0.77511 0.28966 0.65373 0.0
C1443 C 0.78957 0.30223 0.66824 0.0
O1444 O 0.85381 0.35201 0.58026 0.0
C1445 C 0.8614 0.35122 0.6013 0.0
O1446 O 0.84742 0.35198 0.61879 0.0
H1447 H 0.78243 0.31914 0.60312 0.0
H1448 H 0.81344 0.33234 0.66895 0.0
C1449 C 0.83114 0.37289 0.51379 0.0
C1450 C 0.83313 0.39228 0.49825 0.0
C1451 C 0.82785 0.41817 0.53088 0.0
C1452 C 0.82594 0.39904 0.546 0.0
N1453 N 0.82762 0.37684 0.53729 0.0
N1454 N 0.83138 0.41435 0.50759 0.0
H1455 H 0.83265 0.35497 0.50753 0.0
C1456 C 0.82811 0.39271 0.6582 0.0
O1457 O 0.83984 0.39959 0.63949 0.0
O1458 O 0.82411 0.32094 0.5424 0.0
H1459 H 0.82311 0.40177 0.56463 0.0
H1460 H 0.76056 0.28502 0.61969 0.0
H1461 H 0.82654 0.43597 0.53757 0.0
Zn1462 Zn 0.15211 0.81511 0.62382 0.0
C1463 C 0.13348 0.77358 0.5705 0.0
N1464 N 0.12505 0.7593 0.58731 0.0
C1465 C 0.12609 0.77257 0.60693 0.0
N1466 N 0.13531 0.79415 0.60245 0.0
N1467 N 0.13911 0.79485 0.57941 0.0
C1468 C 0.18902 0.81378 0.52978 0.0
O1469 O 0.1758 0.79895 0.51793 0.0
O1470 O 0.13894 0.81623 0.65718 0.0
Zn1471 Zn 0.14729 0.82192 0.55995 0.0
N1472 N 0.18366 0.80263 0.62514 0.0
C1473 C 0.21361 0.77909 0.60788 0.0
C1474 C 0.19243 0.7912 0.60605 0.0
C1475 C 0.19558 0.80316 0.64583 0.0
N1476 N 0.22559 0.77966 0.6285 0.0
C1477 C 0.21742 0.79152 0.64773 0.0
O1478 O 0.14393 0.85306 0.5764 0.0
C1479 C 0.14786 0.86242 0.59637 0.0
O1480 O 0.15262 0.84995 0.61438 0.0
H1481 H 0.18293 0.79115 0.58965 0.0
H1482 H 0.18787 0.81283 0.66023 0.0
C1483 C 0.12961 0.83086 0.51151 0.0
C1484 C 0.11121 0.83199 0.49478 0.0
C1485 C 0.08463 0.81735 0.5236 0.0
C1486 C 0.10272 0.8165 0.54004 0.0
N1487 N 0.12487 0.82304 0.53379 0.0
N1488 N 0.08927 0.82509 0.50154 0.0
H1489 H 0.14718 0.83674 0.50714 0.0
C1490 C 0.11987 0.8275 0.66044 0.0
O1491 O 0.10765 0.83396 0.6419 0.0
O1492 O 0.18092 0.82305 0.54843 0.0
H1493 H 0.09908 0.81087 0.55784 0.0
H1494 H 0.22067 0.76959 0.59296 0.0
H1495 H 0.06696 0.81213 0.52838 0.0
Zn1496 Zn 0.68893 0.14373 0.55472 0.0
C1497 C 0.74195 0.12797 0.60061 0.0
N1498 N 0.75475 0.12891 0.58072 0.0
C1499 C 0.73872 0.13453 0.56428 0.0
N1500 N 0.71702 0.137 0.57356 0.0
N1501 N 0.719 0.13323 0.59657 0.0
C1502 C 0.68424 0.11457 0.66113 0.0
O1503 O 0.67028 0.1035 0.64637 0.0
O1504 O 0.69072 0.17464 0.53694 0.0
Zn1505 Zn 0.69576 0.14286 0.61977 0.0
N1506 N 0.68561 0.11908 0.53111 0.0
C1507 C 0.68635 0.07803 0.52291 0.0
C1508 C 0.68938 0.09667 0.53854 0.0
C1509 C 0.67873 0.12367 0.50853 0.0
N1510 N 0.67946 0.08252 0.50049 0.0
C1511 C 0.67548 0.10482 0.49259 0.0
O1512 O 0.66089 0.1406 0.61129 0.0
C1513 C 0.64861 0.1418 0.59261 0.0
O1514 O 0.65824 0.14319 0.57246 0.0
H1515 H 0.69459 0.09338 0.55655 0.0
H1516 H 0.67531 0.14168 0.50336 0.0
C1517 C 0.69086 0.18259 0.64518 0.0
C1518 C 0.69391 0.20568 0.6529 0.0
C1519 C 0.7177 0.2133 0.61933 0.0
C1520 C 0.71425 0.19019 0.61161 0.0
N1521 N 0.70099 0.17542 0.62495 0.0
N1522 N 0.70743 0.22053 0.63974 0.0
H1523 H 0.68067 0.17003 0.65513 0.0
C1524 C 0.67648 0.19157 0.5407 0.0
O1525 O 0.66239 0.19055 0.559 0.0
O1526 O 0.69927 0.12904 0.65292 0.0
H1527 H 0.72241 0.18397 0.59557 0.0
H1528 H 0.68931 0.06008 0.52856 0.0
H1529 H 0.72838 0.22539 0.60921 0.0
Zn1530 Zn 0.14806 0.7005 0.88158 0.0
C1531 C 0.12825 0.73134 0.94161 0.0
N1532 N 0.11701 0.74684 0.92782 0.0
C1533 C 0.11904 0.73725 0.90617 0.0
N1534 N 0.13144 0.71676 0.90673 0.0
N1535 N 0.13675 0.71313 0.92919 0.0
C1536 C 0.1982 0.68259 0.96009 0.0
O1537 O 0.19986 0.66897 0.94147 0.0
O1538 O 0.13081 0.69914 0.85027 0.0
Zn1539 Zn 0.14937 0.686 0.9456 0.0
N1540 N 0.17713 0.71768 0.87723 0.0
C1541 C 0.20263 0.74959 0.88661 0.0
C1542 C 0.1824 0.73651 0.89111 0.0
C1543 C 0.19153 0.71108 0.8594 0.0
N1544 N 0.21704 0.74302 0.86875 0.0
C1545 C 0.21216 0.72407 0.85486 0.0
O1546 O 0.1551 0.65722 0.92561 0.0
C1547 C 0.15724 0.65074 0.9043 0.0
O1548 O 0.15515 0.66541 0.88745 0.0
H1549 H 0.17082 0.74167 0.90525 0.0
H1550 H 0.18693 0.6955 0.8495 0.0
C1551 C 0.12902 0.67478 0.99181 0.0
C1552 C 0.1101 0.66844 0.00674 0.0
C1553 C 0.08496 0.66687 0.97322 0.0
C1554 C 0.10362 0.67315 0.9587 0.0
N1555 N 0.12523 0.67696 0.96816 0.0
N1556 N 0.08863 0.66468 0.9967 0.0
H1557 H 0.14653 0.6777 0.99863 0.0
C1558 C 0.11395 0.68442 0.84901 0.0
O1559 O 0.10583 0.6754 0.8687 0.0
O1560 O 0.17888 0.69319 0.96415 0.0
H1561 H 0.10099 0.67503 0.93993 0.0
H1562 H 0.20696 0.76476 0.89731 0.0
H1563 H 0.06764 0.66377 0.96592 0.0
Zn1564 Zn 0.81928 0.14435 0.94703 0.0
C1565 C 0.76896 0.12163 0.90124 0.0
N1566 N 0.75735 0.11812 0.92163 0.0
C1567 C 0.77252 0.1259 0.938 0.0
N1568 N 0.79249 0.13393 0.92818 0.0
N1569 N 0.79038 0.13165 0.90501 0.0
C1570 C 0.82151 0.118 0.8457 0.0
O1571 O 0.82806 0.10506 0.86372 0.0
O1572 O 0.8177 0.17638 0.96271 0.0
Zn1573 Zn 0.80994 0.14967 0.88334 0.0
N1574 N 0.82426 0.12112 0.9716 0.0
C1575 C 0.82747 0.08034 0.98039 0.0
C1576 C 0.823 0.09833 0.96443 0.0
C1577 C 0.83005 0.12677 0.99426 0.0
N1578 N 0.83343 0.08586 1.00284 0.0
C1579 C 0.83498 0.10858 0.01046 0.0
O1580 O 0.84524 0.15161 0.89118 0.0
C1581 C 0.8583 0.14839 0.90911 0.0
O1582 O 0.84954 0.14482 0.92935 0.0
H1583 H 0.81867 0.09424 0.94634 0.0
H1584 H 0.83151 0.1451 0.99929 0.0
C1585 C 0.80023 0.19383 0.86333 0.0
C1586 C 0.78755 0.21485 0.85992 0.0
C1587 C 0.76775 0.20819 0.89616 0.0
C1588 C 0.78006 0.1872 0.89907 0.0
N1589 N 0.79606 0.18053 0.8826 0.0
N1590 N 0.77182 0.22148 0.87676 0.0
H1591 H 0.81336 0.18763 0.85111 0.0
C1592 C 0.80489 0.19459 0.96504 0.0
O1593 O 0.78417 0.19568 0.95492 0.0
O1594 O 0.81057 0.13712 0.84974 0.0
H1595 H 0.77639 0.17603 0.91394 0.0
H1596 H 0.82647 0.0621 0.97496 0.0
H1597 H 0.75493 0.21378 0.90908 0.0
Zn1598 Zn 0.68363 0.3607 0.94778 0.0
C1599 C 0.73645 0.38099 0.90338 0.0
N1600 N 0.74694 0.38533 0.92422 0.0
C1601 C 0.73102 0.37801 0.94007 0.0
N1602 N 0.71159 0.3695 0.92953 0.0
N1603 N 0.7149 0.37098 0.90642 0.0
C1604 C 0.68625 0.38488 0.84698 0.0
O1605 O 0.68089 0.398 0.86528 0.0
O1606 O 0.68359 0.32937 0.96486 0.0
Zn1607 Zn 0.69654 0.35224 0.88435 0.0
N1608 N 0.67938 0.38497 0.97172 0.0
C1609 C 0.67706 0.42612 0.979 0.0
C1610 C 0.6799 0.4074 0.96348 0.0
C1611 C 0.67605 0.38041 0.99513 0.0
N1612 N 0.67364 0.42169 1.0022 0.0
C1613 C 0.67298 0.39937 0.01103 0.0
O1614 O 0.66149 0.34971 0.89196 0.0
C1615 C 0.64681 0.35391 0.90839 0.0
O1616 O 0.65362 0.3597 0.92893 0.0
H1617 H 0.68257 0.41063 0.94491 0.0
H1618 H 0.6754 0.36233 1.00107 0.0
C1619 C 0.70759 0.30713 0.86562 0.0
C1620 C 0.72081 0.28625 0.86354 0.0
C1621 C 0.73997 0.2953 0.89958 0.0
C1622 C 0.72703 0.31603 0.9013 0.0
N1623 N 0.71114 0.32153 0.88429 0.0
N1624 N 0.73655 0.28092 0.88082 0.0
H1625 H 0.6945 0.31219 0.85281 0.0
C1626 C 0.69533 0.31044 0.96695 0.0
O1627 O 0.71525 0.30775 0.95562 0.0
O1628 O 0.69577 0.36493 0.85062 0.0
H1629 H 0.7301 0.32793 0.91572 0.0
H1630 H 0.67749 0.44409 0.97269 0.0
H1631 H 0.75274 0.29072 0.91295 0.0
H1632 H 0.17967 0.71385 0.21126 0.0
H1633 H 0.13881 0.7732 0.23586 0.0
H1634 H 0.1708 0.79969 0.22492 0.0
H1635 H 0.20264 0.80618 0.19658 0.0
H1636 H 0.23675 0.74612 0.16445 0.0
H1637 H 0.21632 0.71998 0.19117 0.0
C1638 C 0.17774 0.73239 0.21518 0.0
C1639 C 0.15608 0.74162 0.22308 0.0
C1640 C 0.19514 0.74762 0.20682 0.0
C1641 C 0.1549 0.7657 0.22888 0.0
C1642 C 0.17313 0.7809 0.22238 0.0
C1643 C 0.20563 0.78739 0.19526 0.0
C1644 C 0.21985 0.77806 0.17715 0.0
C1645 C 0.19209 0.77218 0.20916 0.0
C1646 C 0.22527 0.75388 0.17753 0.0
C1647 C 0.21337 0.73879 0.19274 0.0
H1648 H 0.76466 0.23147 0.14602 0.0
H1649 H 0.70549 0.21459 0.19067 0.0
H1650 H 0.73193 0.19683 0.21935 0.0
H1651 H 0.76985 0.17743 0.22603 0.0
H1652 H 0.82807 0.19257 0.17932 0.0
H1653 H 0.80432 0.22067 0.15828 0.0
C1654 C 0.75752 0.22451 0.16231 0.0
C1655 C 0.73303 0.22291 0.16544 0.0
C1656 C 0.77273 0.21385 0.17846 0.0
C1657 C 0.7242 0.2147 0.18708 0.0
C1658 C 0.73933 0.2047 0.20362 0.0
C1659 C 0.77759 0.18727 0.21162 0.0
C1660 C 0.80044 0.18177 0.20376 0.0
C1661 C 0.76339 0.20263 0.19858 0.0
C1662 C 0.81044 0.19559 0.1857 0.0
C1663 C 0.79672 0.21171 0.17332 0.0
H1664 H 0.34758 0.75583 0.23233 0.0
H1665 H 0.31345 0.8185 0.2059 0.0
H1666 H 0.28533 0.79434 0.18449 0.0
H1667 H 0.27887 0.75631 0.16513 0.0
H1668 H 0.30942 0.69351 0.19548 0.0
H1669 H 0.32989 0.71724 0.22443 0.0
C1670 C 0.33344 0.76439 0.2228 0.0
C1671 C 0.33387 0.78887 0.2192 0.0
C1672 C 0.317 0.75047 0.21089 0.0
C1673 C 0.3148 0.79956 0.20744 0.0
C1674 C 0.29846 0.78577 0.19538 0.0
C1675 C 0.28927 0.74754 0.1785 0.0
C1676 C 0.29443 0.72339 0.17651 0.0
C1677 C 0.30073 0.76123 0.19548 0.0
C1678 C 0.30689 0.71236 0.19495 0.0
C1679 C 0.31841 0.72589 0.21187 0.0
H1680 H 0.70747 0.32444 0.21432 0.0
H1681 H 0.7639 0.37247 0.23173 0.0
H1682 H 0.79212 0.3461 0.21343 0.0
H1683 H 0.79804 0.3181 0.18242 0.0
H1684 H 0.74073 0.27409 0.15826 0.0
H1685 H 0.71534 0.29088 0.18847 0.0
C1686 C 0.72593 0.32923 0.2141 0.0
C1687 C 0.73333 0.35126 0.22284 0.0
C1688 C 0.74177 0.31509 0.20162 0.0
C1689 C 0.75755 0.35605 0.22438 0.0
C1690 C 0.77371 0.34107 0.21365 0.0
C1691 C 0.78044 0.31111 0.18405 0.0
C1692 C 0.77138 0.29484 0.16757 0.0
C1693 C 0.76566 0.32175 0.20051 0.0
C1694 C 0.74818 0.28669 0.17044 0.0
C1695 C 0.7336 0.29639 0.18769 0.0
H1696 H 0.18733 0.81409 0.33345 0.0
H1697 H 0.17581 0.76001 0.28089 0.0
H1698 H 0.2037 0.73453 0.30119 0.0
H1699 H 0.22114 0.72416 0.33917 0.0
H1700 H 0.22598 0.77668 0.39396 0.0
H1701 H 0.21274 0.80682 0.36653 0.0
C1702 C 0.19125 0.79719 0.32562 0.0
C1703 C 0.17839 0.78862 0.30615 0.0
C1704 C 0.20623 0.7822 0.33803 0.0
C1705 C 0.18471 0.76674 0.29638 0.0
C1706 C 0.20067 0.75213 0.30798 0.0
C1707 C 0.21936 0.74223 0.34509 0.0
C1708 C 0.22263 0.74792 0.36899 0.0
C1709 C 0.20984 0.759 0.32985 0.0
C1710 C 0.22248 0.77167 0.37589 0.0
C1711 C 0.21472 0.78889 0.36025 0.0
H1712 H 0.74947 0.22618 0.3775 0.0
H1713 H 0.80404 0.22768 0.32483 0.0
H1714 H 0.77804 0.2078 0.2969 0.0
H1715 H 0.74497 0.18003 0.29264 0.0
H1716 H 0.69309 0.17603 0.34835 0.0
H1717 H 0.7123 0.20739 0.36917 0.0
C1718 C 0.75536 0.22311 0.35959 0.0
C1719 C 0.77895 0.22688 0.35361 0.0
C1720 C 0.74084 0.21067 0.3442 0.0
C1721 C 0.78616 0.2237 0.33014 0.0
C1722 C 0.77137 0.21223 0.31422 0.0
C1723 C 0.73764 0.18633 0.30912 0.0
C1724 C 0.71793 0.1751 0.31894 0.0
C1725 C 0.74951 0.20376 0.3219 0.0
C1726 C 0.7082 0.184 0.34001 0.0
C1727 C 0.71932 0.20201 0.35225 0.0
H1728 H 0.29178 0.80298 0.32442 0.0
H1729 H 0.27343 0.74649 0.37208 0.0
H1730 H 0.28443 0.71787 0.34237 0.0
H1731 H 0.31136 0.70949 0.31024 0.0
H1732 H 0.34336 0.76752 0.27269 0.0
H1733 H 0.31512 0.79438 0.28993 0.0
C1734 C 0.29049 0.78452 0.32883 0.0
C1735 C 0.28379 0.77711 0.35154 0.0
C1736 C 0.29995 0.76816 0.31311 0.0
C1737 C 0.27956 0.75295 0.35524 0.0
C1738 C 0.28611 0.73644 0.33827 0.0
C1739 C 0.31265 0.728 0.30596 0.0
C1740 C 0.33083 0.73656 0.29139 0.0
C1741 C 0.29857 0.74391 0.31836 0.0
C1742 C 0.3301 0.7603 0.28427 0.0
C1743 C 0.31406 0.77584 0.29442 0.0
H1744 H 0.71107 0.28799 0.32612 0.0
H1745 H 0.7624 0.2757 0.38089 0.0
H1746 H 0.79314 0.29195 0.35613 0.0
H1747 H 0.80251 0.31888 0.32508 0.0
H1748 H 0.75041 0.33686 0.27247 0.0
H1749 H 0.72286 0.30942 0.29052 0.0
C1750 C 0.72898 0.2888 0.33264 0.0
C1751 C 0.73421 0.28165 0.35579 0.0
C1752 C 0.74634 0.29973 0.31897 0.0
C1753 C 0.75775 0.28149 0.36334 0.0
C1754 C 0.77536 0.291 0.34925 0.0
C1755 C 0.78556 0.31659 0.31678 0.0
C1756 C 0.77845 0.33085 0.29776 0.0
C1757 C 0.76946 0.30169 0.32785 0.0
C1758 C 0.75626 0.32671 0.28749 0.0
C1759 C 0.74041 0.31103 0.29786 0.0
H1760 H 0.20324 0.19256 0.70759 0.0
H1761 H 0.2363 0.15226 0.76295 0.0
H1762 H 0.21949 0.17849 0.79232 0.0
H1763 H 0.18916 0.20702 0.80241 0.0
H1764 H 0.14884 0.24021 0.7471 0.0
H1765 H 0.17485 0.22308 0.71768 0.0
C1766 C 0.2066 0.1892 0.72605 0.0
C1767 C 0.22023 0.16973 0.73306 0.0
C1768 C 0.19528 0.20307 0.74293 0.0
C1769 C 0.22569 0.16691 0.75702 0.0
C1770 C 0.21586 0.18177 0.77388 0.0
C1771 C 0.18575 0.21033 0.78395 0.0
C1772 C 0.16629 0.22397 0.77697 0.0
C1773 C 0.19951 0.19892 0.76706 0.0
C1774 C 0.16339 0.22941 0.75301 0.0
C1775 C 0.17815 0.21946 0.73612 0.0
H1776 H 0.34111 0.23542 0.75318 0.0
H1777 H 0.31109 0.20438 0.69052 0.0
H1778 H 0.28439 0.18108 0.71453 0.0
H1779 H 0.27813 0.16244 0.75285 0.0
H1780 H 0.30533 0.19605 0.81553 0.0
H1781 H 0.32417 0.22603 0.79163 0.0
C1782 C 0.32815 0.22433 0.74461 0.0
C1783 C 0.32937 0.22031 0.72025 0.0
C1784 C 0.31275 0.21106 0.75846 0.0
C1785 C 0.31182 0.20647 0.70944 0.0
C1786 C 0.29633 0.19327 0.72313 0.0
C1787 C 0.28746 0.17669 0.76148 0.0
C1788 C 0.29191 0.17579 0.78579 0.0
C1789 C 0.29804 0.19412 0.74769 0.0
C1790 C 0.30323 0.19506 0.79664 0.0
C1791 C 0.31378 0.2125 0.78302 0.0
H1792 H 0.27557 0.34758 0.75445 0.0
H1793 H 0.30254 0.31364 0.69192 0.0
H1794 H 0.32335 0.28513 0.71618 0.0
H1795 H 0.34141 0.2776 0.7546 0.0
H1796 H 0.31047 0.30822 0.81703 0.0
H1797 H 0.28243 0.32963 0.7929 0.0
C1798 C 0.28489 0.3333 0.74591 0.0
C1799 C 0.28859 0.33368 0.72149 0.0
C1800 C 0.29635 0.31664 0.75986 0.0
C1801 C 0.30068 0.31481 0.71084 0.0
C1802 C 0.31239 0.29827 0.72467 0.0
C1803 C 0.328 0.28815 0.76313 0.0
C1804 C 0.32936 0.29283 0.78738 0.0
C1805 C 0.31169 0.3002 0.74922 0.0
C1806 C 0.31117 0.30583 0.79815 0.0
C1807 C 0.29488 0.31791 0.78441 0.0
H1808 H 0.23468 0.35212 0.74988 0.0
H1809 H 0.21244 0.31448 0.81199 0.0
H1810 H 0.19347 0.2848 0.78748 0.0
H1811 H 0.17403 0.27781 0.74968 0.0
H1812 H 0.19956 0.31384 0.68759 0.0
H1813 H 0.22798 0.33471 0.71106 0.0
C1814 C 0.22686 0.33683 0.75818 0.0
C1815 C 0.22359 0.33637 0.78263 0.0
C1816 C 0.21638 0.31966 0.74406 0.0
C1817 C 0.21372 0.31615 0.79307 0.0
C1818 C 0.20311 0.29898 0.77908 0.0
C1819 C 0.18626 0.28955 0.74095 0.0
C1820 C 0.18269 0.29596 0.71729 0.0
C1821 C 0.20267 0.30181 0.75461 0.0
C1822 C 0.19996 0.30998 0.70617 0.0
C1823 C 0.21662 0.32195 0.71958 0.0
H1824 H 0.8233 0.30016 0.80242 0.0
H1825 H 0.8681 0.24512 0.77482 0.0
H1826 H 0.84111 0.21546 0.78965 0.0
H1827 H 0.81115 0.20541 0.81822 0.0
H1828 H 0.77395 0.26079 0.85501 0.0
H1829 H 0.79092 0.28981 0.82858 0.0
C1830 C 0.82747 0.28172 0.79986 0.0
C1831 C 0.84847 0.27495 0.78859 0.0
C1832 C 0.81321 0.26471 0.81045 0.0
C1833 C 0.85236 0.25094 0.78385 0.0
C1834 C 0.83701 0.2339 0.79252 0.0
C1835 C 0.80697 0.22378 0.82103 0.0
C1836 C 0.79261 0.23094 0.83993 0.0
C1837 C 0.81846 0.24061 0.8073 0.0
C1838 C 0.78564 0.25471 0.84126 0.0
C1839 C 0.79548 0.27142 0.82621 0.0
H1840 H 0.2488 0.838 0.78742 0.0
H1841 H 0.19217 0.82399 0.83669 0.0
H1842 H 0.21459 0.79321 0.85433 0.0
H1843 H 0.25352 0.77854 0.86344 0.0
H1844 H 0.31156 0.79338 0.81681 0.0
H1845 H 0.28529 0.81509 0.79063 0.0
C1846 C 0.24112 0.82802 0.80177 0.0
C1847 C 0.21913 0.83456 0.81114 0.0
C1848 C 0.25458 0.81056 0.81281 0.0
C1849 C 0.20917 0.82048 0.82907 0.0
C1850 C 0.2221 0.80253 0.83948 0.0
C1851 C 0.2603 0.78563 0.84706 0.0
C1852 C 0.28455 0.78554 0.84269 0.0
C1853 C 0.24535 0.79868 0.83262 0.0
C1854 C 0.29302 0.79431 0.82113 0.0
C1855 C 0.27802 0.80672 0.80616 0.0
H1856 H 0.68815 0.19894 0.80656 0.0
H1857 H 0.65046 0.25369 0.76951 0.0
H1858 H 0.67588 0.2833 0.78703 0.0
H1859 H 0.70161 0.29407 0.8196 0.0
H1860 H 0.73105 0.23949 0.86362 0.0
H1861 H 0.71656 0.20959 0.83667 0.0
C1862 C 0.68509 0.2173 0.80246 0.0
C1863 C 0.66632 0.22408 0.78779 0.0
C1864 C 0.6983 0.23443 0.81422 0.0
C1865 C 0.66435 0.24788 0.78116 0.0
C1866 C 0.67875 0.26493 0.79139 0.0
C1867 C 0.70468 0.27569 0.82362 0.0
C1868 C 0.71646 0.26907 0.84437 0.0
C1869 C 0.69454 0.25849 0.8092 0.0
C1870 C 0.72178 0.24516 0.84801 0.0
C1871 C 0.71327 0.22798 0.8327 0.0
H1872 H 0.30113 0.68362 0.80555 0.0
H1873 H 0.24812 0.63867 0.77428 0.0
H1874 H 0.2175 0.66509 0.7882 0.0
H1875 H 0.20559 0.6958 0.81577 0.0
H1876 H 0.2588 0.73511 0.85354 0.0
H1877 H 0.28935 0.7163 0.83035 0.0
C1878 C 0.28299 0.67909 0.80203 0.0
C1879 C 0.27706 0.65812 0.79011 0.0
C1880 C 0.26533 0.69341 0.81148 0.0
C1881 C 0.25334 0.65419 0.78405 0.0
C1882 C 0.23572 0.66926 0.79213 0.0
C1883 C 0.22381 0.70015 0.81928 0.0
C1884 C 0.2298 0.71615 0.83727 0.0
C1885 C 0.24147 0.68802 0.8071 0.0
C1886 C 0.25353 0.72268 0.84009 0.0
C1887 C 0.27112 0.71173 0.82696 0.0
H1888 H 0.77683 0.25983 0.68661 0.0
H1889 H 0.81542 0.32272 0.70539 0.0
H1890 H 0.84194 0.29961 0.72943 0.0
H1891 H 0.86125 0.26099 0.73241 0.0
H1892 H 0.82114 0.19815 0.71691 0.0
H1893 H 0.78807 0.22212 0.70429 0.0
C1894 C 0.79055 0.26875 0.69646 0.0
C1895 C 0.79599 0.29245 0.6917 0.0
C1896 C 0.80594 0.25532 0.7102 0.0
C1897 C 0.81241 0.30396 0.70639 0.0
C1898 C 0.82755 0.29079 0.72049 0.0
C1899 C 0.84502 0.25238 0.72717 0.0
C1900 C 0.84448 0.2279 0.72356 0.0
C1901 C 0.82586 0.26621 0.72036 0.0
C1902 C 0.82286 0.2171 0.71788 0.0
C1903 C 0.80371 0.23078 0.711 0.0
H1904 H 0.20831 0.8117 0.6918 0.0
H1905 H 0.26319 0.77768 0.65136 0.0
H1906 H 0.29268 0.79451 0.67695 0.0
H1907 H 0.30271 0.82819 0.70056 0.0
H1908 H 0.24839 0.86733 0.73689 0.0
H1909 H 0.21907 0.83919 0.72309 0.0
C1910 C 0.22661 0.80786 0.68831 0.0
C1911 C 0.2334 0.79477 0.6683 0.0
C1912 C 0.24377 0.81904 0.70211 0.0
C1913 C 0.25725 0.78841 0.66593 0.0
C1914 C 0.2743 0.7982 0.68053 0.0
C1915 C 0.28473 0.83051 0.70631 0.0
C1916 C 0.2777 0.8509 0.71863 0.0
C1917 C 0.2678 0.81517 0.69718 0.0
C1918 C 0.25424 0.85242 0.7265 0.0
C1919 C 0.23738 0.83637 0.71852 0.0
H1920 H 0.70761 0.2407 0.68223 0.0
H1921 H 0.65162 0.19022 0.67097 0.0
H1922 H 0.6278 0.20942 0.70034 0.0
H1923 H 0.61861 0.24619 0.72 0.0
H1924 H 0.67234 0.29915 0.72856 0.0
H1925 H 0.70131 0.27316 0.71025 0.0
C1926 C 0.69038 0.23368 0.68655 0.0
C1927 C 0.68142 0.21436 0.674 0.0
C1928 C 0.67611 0.24545 0.70284 0.0
C1929 C 0.65926 0.20502 0.68022 0.0
C1930 C 0.64537 0.21612 0.697 0.0
C1931 C 0.63688 0.25166 0.71874 0.0
C1932 C 0.64318 0.27482 0.7243 0.0
C1933 C 0.653 0.23719 0.70716 0.0
C1934 C 0.66699 0.28158 0.72333 0.0
C1935 C 0.68349 0.26682 0.71276 0.0
H1936 H 0.25147 0.67196 0.73024 0.0
H1937 H 0.1895 0.69851 0.6949 0.0
H1938 H 0.21339 0.72664 0.6735 0.0
H1939 H 0.25247 0.73521 0.65737 0.0
H1940 H 0.3142 0.71165 0.69491 0.0
H1941 H 0.2895 0.69117 0.72327 0.0
C1942 C 0.24298 0.68424 0.71833 0.0
C1943 C 0.2191 0.68145 0.71249 0.0
C1944 C 0.25678 0.70061 0.70614 0.0
C1945 C 0.20825 0.6986 0.69816 0.0
C1946 C 0.22185 0.71504 0.68609 0.0
C1947 C 0.26062 0.72637 0.6722 0.0
C1948 C 0.28513 0.7233 0.67291 0.0
C1949 C 0.24634 0.71481 0.68858 0.0
C1950 C 0.29531 0.71265 0.69285 0.0
C1951 C 0.2812 0.70114 0.70928 0.0
H1952 H 0.86015 0.77603 0.2638 0.0
H1953 H 0.81847 0.78919 0.20164 0.0
H1954 H 0.78661 0.80428 0.22595 0.0
H1955 H 0.77648 0.8232 0.26352 0.0
H1956 H 0.81565 0.80468 0.32601 0.0
H1957 H 0.84189 0.78032 0.30272 0.0
C1958 C 0.84375 0.78105 0.25551 0.0
C1959 C 0.8424 0.78303 0.23095 0.0
C1960 C 0.82515 0.78883 0.26955 0.0
C1961 C 0.82073 0.78915 0.22055 0.0
C1962 C 0.80228 0.79745 0.23443 0.0
C1963 C 0.79021 0.81326 0.27229 0.0
C1964 C 0.79576 0.81785 0.29596 0.0
C1965 C 0.80516 0.79905 0.25884 0.0
C1966 C 0.81248 0.80343 0.30729 0.0
C1967 C 0.82741 0.78922 0.29405 0.0
H1968 H 0.69101 0.80241 0.29925 0.0
H1969 H 0.64853 0.77223 0.24383 0.0
H1970 H 0.6742 0.78969 0.21437 0.0
H1971 H 0.70276 0.82015 0.20469 0.0
H1972 H 0.73889 0.85715 0.26048 0.0
H1973 H 0.72215 0.83024 0.28933 0.0
C1974 C 0.68715 0.79976 0.28076 0.0
C1975 C 0.66717 0.78687 0.27379 0.0
C1976 C 0.7008 0.81141 0.26393 0.0
C1977 C 0.6636 0.78228 0.24974 0.0
C1978 C 0.67813 0.7925 0.23284 0.0
C1979 C 0.70681 0.82268 0.22314 0.0
C1980 C 0.72104 0.84161 0.23053 0.0
C1981 C 0.69578 0.8083 0.23978 0.0
C1982 C 0.72753 0.84314 0.25435 0.0
C1983 C 0.71783 0.82784 0.2709 0.0
H1984 H 0.67667 0.72986 0.2593 0.0
H1985 H 0.70129 0.69149 0.19818 0.0
H1986 H 0.72824 0.66961 0.22244 0.0
H1987 H 0.73429 0.65285 0.26154 0.0
H1988 H 0.71154 0.69169 0.32286 0.0
H1989 H 0.69465 0.72195 0.29769 0.0
C1990 C 0.68826 0.71714 0.25102 0.0
C1991 C 0.68489 0.71067 0.22732 0.0
C1992 C 0.70372 0.7042 0.26516 0.0
C1993 C 0.70152 0.69551 0.21674 0.0
C1994 C 0.71736 0.68299 0.23061 0.0
C1995 C 0.72656 0.66836 0.26958 0.0
C1996 C 0.72249 0.66901 0.29394 0.0
C1997 C 0.71687 0.68567 0.25507 0.0
C1998 C 0.71328 0.68975 0.304 0.0
C1999 C 0.70381 0.70726 0.28963 0.0
H2000 H 0.84271 0.73232 0.24678 0.0
H2001 H 0.80732 0.70994 0.31022 0.0
H2002 H 0.77781 0.68954 0.28683 0.0
H2003 H 0.77181 0.66807 0.24971 0.0
H2004 H 0.80359 0.69453 0.18601 0.0
H2005 H 0.82443 0.72441 0.20851 0.0
C2006 C 0.82797 0.72407 0.25566 0.0
C2007 C 0.82849 0.72069 0.28013 0.0
C2008 C 0.8108 0.71278 0.24215 0.0
C2009 C 0.80861 0.71086 0.29125 0.0
C2010 C 0.79148 0.69944 0.27791 0.0
C2011 C 0.78227 0.68104 0.24048 0.0
C2012 C 0.78788 0.67768 0.21667 0.0
C2013 C 0.79387 0.69846 0.25342 0.0
C2014 C 0.80071 0.69531 0.20481 0.0
C2015 C 0.81242 0.71267 0.21759 0.0
H2016 H 0.12739 0.67039 0.11739 0.0
H2017 H 0.06325 0.62956 0.11547 0.0
H2018 H 0.06368 0.63046 0.07258 0.0
H2019 H 0.08097 0.64418 0.03576 0.0
H2020 H 0.14393 0.68695 0.03722 0.0
H2021 H 0.14534 0.68355 0.07995 0.0
C2022 C 0.11364 0.66145 0.1076 0.0
C2023 C 0.09528 0.64992 0.11978 0.0
C2024 C 0.11373 0.66238 0.08277 0.0
C2025 C 0.07754 0.63864 0.10669 0.0
C2026 C 0.07776 0.63915 0.0821 0.0
C2027 C 0.09511 0.6528 0.04529 0.0
C2028 C 0.11238 0.66567 0.03288 0.0
C2029 C 0.09556 0.65124 0.06998 0.0
C2030 C 0.13056 0.67651 0.04586 0.0
C2031 C 0.13129 0.67476 0.07048 0.0
H2032 H 0.84925 0.13118 0.11919 0.0
H2033 H 0.88948 0.06693 0.11352 0.0
H2034 H 0.88359 0.06644 0.07113 0.0
H2035 H 0.86419 0.08176 0.0363 0.0
H2036 H 0.8223 0.14496 0.0407 0.0
H2037 H 0.83188 0.14854 0.08266 0.0
C2038 C 0.85707 0.11738 0.10855 0.0
C2039 C 0.86966 0.09901 0.11955 0.0
C2040 C 0.85312 0.11686 0.08395 0.0
C2041 C 0.87955 0.08114 0.10555 0.0
C2042 C 0.87616 0.08081 0.08128 0.0
C2043 C 0.8572 0.09644 0.04634 0.0
C2044 C 0.84242 0.11293 0.03528 0.0
C2045 C 0.86245 0.09815 0.07041 0.0
C2046 C 0.83387 0.13204 0.0486 0.0
C2047 C 0.83922 0.134 0.0727 0.0
H2048 H 0.38299 0.82792 0.04378 0.0
H2049 H 0.45347 0.85351 0.03055 0.0
H2050 H 0.45789 0.86371 0.07173 0.0
H2051 H 0.44292 0.86412 0.11188 0.0
H2052 H 0.37243 0.83971 0.12613 0.0
H2053 H 0.36687 0.83074 0.08431 0.0
C2054 C 0.39917 0.83609 0.04973 0.0
C2055 C 0.41789 0.83974 0.03376 0.0
C2056 C 0.40173 0.84209 0.07379 0.0
C2057 C 0.43879 0.85012 0.04224 0.0
C2058 C 0.44139 0.85607 0.0659 0.0
C2059 C 0.42626 0.85691 0.10591 0.0
C2060 C 0.40822 0.85246 0.12228 0.0
C2061 C 0.42316 0.85186 0.08188 0.0
C2062 C 0.38669 0.84333 0.11401 0.0
C2063 C 0.38351 0.83813 0.09005 0.0
H2064 H 0.66729 0.37815 0.1212 0.0
H2065 H 0.63362 0.44638 0.11915 0.0
H2066 H 0.63711 0.44719 0.07661 0.0
H2067 H 0.65083 0.42983 0.04007 0.0
H2068 H 0.6858 0.36234 0.04069 0.0
H2069 H 0.68033 0.35988 0.08336 0.0
C2070 C 0.66055 0.39308 0.11141 0.0
C2071 C 0.65031 0.41224 0.1236 0.0
C2072 C 0.66282 0.39364 0.08658 0.0
C2073 C 0.64176 0.43145 0.11048 0.0
C2074 C 0.64371 0.43196 0.08603 0.0
C2075 C 0.65731 0.41449 0.0494 0.0
C2076 C 0.66868 0.39632 0.03688 0.0
C2077 C 0.65445 0.41335 0.07394 0.0
C2078 C 0.67666 0.37652 0.04954 0.0
C2079 C 0.6737 0.37518 0.0741 0.0
H2080 H 0.07944 0.85561 0.4687 0.0
H2081 H 0.14986 0.82743 0.46528 0.0
H2082 H 0.15199 0.83765 0.42339 0.0
H2083 H 0.1322 0.85145 0.38682 0.0
H2084 H 0.0613 0.87864 0.39133 0.0
H2085 H 0.06113 0.87198 0.43358 0.0
C2086 C 0.09538 0.85182 0.45888 0.0
C2087 C 0.11439 0.84065 0.4702 0.0
C2088 C 0.09634 0.85745 0.43484 0.0
C2089 C 0.13499 0.8362 0.45718 0.0
C2090 C 0.13614 0.84188 0.43313 0.0
C2091 C 0.11685 0.85626 0.3971 0.0
C2092 C 0.09669 0.86537 0.38569 0.0
C2093 C 0.1167 0.85209 0.42163 0.0
C2094 C 0.07699 0.87143 0.39942 0.0
C2095 C 0.07684 0.8676 0.42367 0.0
H2096 H 0.65721 0.12771 0.38461 0.0
H2097 H 0.62752 0.05774 0.3878 0.0
H2098 H 0.63431 0.05653 0.4301 0.0
H2099 H 0.6513 0.07378 0.46564 0.0
H2100 H 0.68248 0.1431 0.46294 0.0
H2101 H 0.67221 0.14616 0.42127 0.0
C2102 C 0.65182 0.11238 0.39463 0.0
C2103 C 0.64189 0.0928 0.38288 0.0
C2104 C 0.65622 0.11157 0.4191 0.0
C2105 C 0.63526 0.07302 0.39623 0.0
C2106 C 0.63921 0.07227 0.42048 0.0
C2107 C 0.65581 0.08966 0.45604 0.0
C2108 C 0.66769 0.10813 0.46765 0.0
C2109 C 0.65016 0.09118 0.43199 0.0
C2110 C 0.67309 0.12864 0.45478 0.0
C2111 C 0.66736 0.13036 0.4308 0.0
H2112 H 0.44044 0.66784 0.39458 0.0
H2113 H 0.36538 0.65927 0.38693 0.0
H2114 H 0.36052 0.66266 0.42969 0.0
H2115 H 0.37791 0.66716 0.46954 0.0
H2116 H 0.45318 0.6769 0.47587 0.0
H2117 H 0.4574 0.67381 0.43355 0.0
C2118 C 0.42297 0.66664 0.40217 0.0
C2119 C 0.40335 0.66312 0.38739 0.0
C2120 C 0.42027 0.66883 0.42671 0.0
C2121 C 0.38085 0.66193 0.39776 0.0
C2122 C 0.37806 0.66387 0.42227 0.0
C2123 C 0.39522 0.66899 0.46178 0.0
C2124 C 0.41518 0.6723 0.47635 0.0
C2125 C 0.39768 0.66729 0.43701 0.0
C2126 C 0.43742 0.67416 0.46549 0.0
C2127 C 0.43993 0.67244 0.44112 0.0
H2128 H 0.83978 0.37271 0.38767 0.0
H2129 H 0.86457 0.44467 0.39006 0.0
H2130 H 0.86142 0.44477 0.43261 0.0
H2131 H 0.85072 0.42552 0.46909 0.0
H2132 H 0.82435 0.35415 0.46818 0.0
H2133 H 0.82944 0.35275 0.42547 0.0
C2134 C 0.84462 0.38834 0.39753 0.0
C2135 C 0.85229 0.4087 0.38542 0.0
C2136 C 0.84256 0.38846 0.42239 0.0
C2137 C 0.85842 0.42878 0.39864 0.0
C2138 C 0.85668 0.42889 0.42311 0.0
C2139 C 0.84601 0.40954 0.45972 0.0
C2140 C 0.8372 0.39 0.47224 0.0
C2141 C 0.84856 0.40897 0.43513 0.0
C2142 C 0.83151 0.36947 0.45942 0.0
C2143 C 0.83424 0.3687 0.43481 0.0
H2144 H 0.04908 0.13224 0.68389 0.0
H2145 H 0.03524 0.06251 0.65662 0.0
H2146 H 0.07633 0.05809 0.64592 0.0
H2147 H 0.11656 0.07272 0.64588 0.0
H2148 H 0.13165 0.1423 0.67252 0.0
H2149 H 0.08987 0.14808 0.68153 0.0
C2150 C 0.05496 0.11626 0.67525 0.0
C2151 C 0.03891 0.09769 0.67124 0.0
C2152 C 0.07896 0.11367 0.66912 0.0
C2153 C 0.0471 0.07702 0.66025 0.0
C2154 C 0.07067 0.07443 0.65404 0.0
C2155 C 0.11079 0.08923 0.65357 0.0
C2156 C 0.12737 0.10693 0.65865 0.0
C2157 C 0.08682 0.09243 0.65872 0.0
C2158 C 0.11936 0.12829 0.66843 0.0
C2159 C 0.09542 0.13161 0.67365 0.0
H2160 H 0.37845 0.04981 0.67651 0.0
H2161 H 0.44991 0.03573 0.65466 0.0
H2162 H 0.45581 0.07711 0.64585 0.0
H2163 H 0.44182 0.11776 0.64587 0.0
H2164 H 0.37044 0.13291 0.66689 0.0
H2165 H 0.36349 0.09099 0.67421 0.0
C2166 C 0.39516 0.0557 0.66944 0.0
C2167 C 0.41371 0.0394 0.66643 0.0
C2168 C 0.39863 0.07992 0.66439 0.0
C2169 C 0.43532 0.04769 0.65748 0.0
C2170 C 0.43879 0.07147 0.65237 0.0
C2171 C 0.42468 0.11197 0.65198 0.0
C2172 C 0.40679 0.12868 0.65595 0.0
C2173 C 0.42074 0.08782 0.65609 0.0
C2174 C 0.38465 0.12059 0.6637 0.0
C2175 C 0.38063 0.09653 0.66793 0.0
H2176 H 0.38692 0.44553 0.67352 0.0
H2177 H 0.3815 0.37475 0.64646 0.0
H2178 H 0.42361 0.36857 0.65357 0.0
H2179 H 0.46253 0.38413 0.66591 0.0
H2180 H 0.46648 0.45459 0.69464 0.0
H2181 H 0.4246 0.45982 0.68849 0.0
C2182 C 0.39494 0.42875 0.66914 0.0
C2183 C 0.38113 0.41076 0.65921 0.0
C2184 C 0.41902 0.42519 0.67361 0.0
C2185 C 0.39175 0.38896 0.65406 0.0
C2186 C 0.41585 0.38541 0.65812 0.0
C2187 C 0.45424 0.40047 0.67126 0.0
C2188 C 0.46801 0.41898 0.68058 0.0
C2189 C 0.42977 0.40348 0.66776 0.0
C2190 C 0.45664 0.44007 0.68711 0.0
C2191 C 0.43256 0.44316 0.68363 0.0
H2192 H 0.12877 0.46787 0.67383 0.0
H2193 H 0.05656 0.4806 0.65322 0.0
H2194 H 0.0512 0.4391 0.64517 0.0
H2195 H 0.06613 0.39874 0.64467 0.0
H2196 H 0.13842 0.38536 0.66368 0.0
H2197 H 0.14449 0.42734 0.67119 0.0
C2198 C 0.11195 0.46181 0.66725 0.0
C2199 C 0.09314 0.47785 0.66431 0.0
C2200 C 0.10884 0.43755 0.66234 0.0
C2201 C 0.07144 0.46902 0.656 0.0
C2202 C 0.06826 0.44512 0.65127 0.0
C2203 C 0.08326 0.40496 0.65039 0.0
C2204 C 0.1017 0.38874 0.6537 0.0
C2205 C 0.08672 0.42917 0.65455 0.0
C2206 C 0.12383 0.39732 0.66096 0.0
C2207 C 0.12733 0.4214 0.66532 0.0
H2208 H 0.11731 0.44218 0.83962 0.0
H2209 H 0.12531 0.36937 0.85965 0.0
H2210 H 0.08303 0.36287 0.85364 0.0
H2211 H 0.0433 0.37855 0.84408 0.0
H2212 H 0.03688 0.45136 0.82272 0.0
H2213 H 0.07885 0.45697 0.82786 0.0
C2214 C 0.10985 0.42486 0.84276 0.0
C2215 C 0.12448 0.40639 0.85036 0.0
C2216 C 0.08568 0.42119 0.83898 0.0
C2217 C 0.11448 0.38397 0.85388 0.0
C2218 C 0.09027 0.38024 0.85044 0.0
C2219 C 0.05107 0.39553 0.84015 0.0
C2220 C 0.03659 0.41452 0.83313 0.0
C2221 C 0.0756 0.39878 0.8431 0.0
C2222 C 0.04727 0.43643 0.82844 0.0
C2223 C 0.0714 0.43973 0.83134 0.0
H2224 H 0.12991 0.0475 0.84357 0.0
H2225 H 0.05852 0.04253 0.81753 0.0
H2226 H 0.05357 0.08461 0.82216 0.0
H2227 H 0.06831 0.12282 0.8349 0.0
H2228 H 0.13982 0.12956 0.85943 0.0
H2229 H 0.14585 0.08709 0.85384 0.0
C2230 C 0.1134 0.05557 0.83853 0.0
C2231 C 0.09458 0.0414 0.83038 0.0
C2232 C 0.11052 0.08025 0.84112 0.0
C2233 C 0.0733 0.05259 0.82419 0.0
C2234 C 0.07037 0.07682 0.82678 0.0
C2235 C 0.08526 0.11506 0.83907 0.0
C2236 C 0.10347 0.12939 0.84785 0.0
C2237 C 0.08867 0.09077 0.83555 0.0
C2238 C 0.12543 0.11898 0.85271 0.0
C2239 C 0.12887 0.09465 0.84954 0.0
H2240 H 0.38453 0.12732 0.84511 0.0
H2241 H 0.38718 0.06129 0.88282 0.0
H2242 H 0.42948 0.05928 0.87689 0.0
H2243 H 0.4654 0.07461 0.8591 0.0
H2244 H 0.46371 0.14013 0.8207 0.0
H2245 H 0.42161 0.14408 0.82909 0.0
C2246 C 0.39439 0.11263 0.85227 0.0
C2247 C 0.38244 0.0944 0.86427 0.0
C2248 C 0.41896 0.1114 0.84862 0.0
C2249 C 0.39567 0.07553 0.8734 0.0
C2250 C 0.41996 0.07431 0.86999 0.0
C2251 C 0.4559 0.08985 0.85261 0.0
C2252 C 0.46784 0.107 0.83926 0.0
C2253 C 0.43171 0.09188 0.85728 0.0
C2254 C 0.45518 0.12675 0.83126 0.0
C2255 C 0.43099 0.12893 0.83591 0.0
H2256 H 0.38357 0.46718 0.83113 0.0
H2257 H 0.45304 0.47885 0.8599 0.0
H2258 H 0.45644 0.43733 0.86938 0.0
H2259 H 0.44096 0.39737 0.86806 0.0
H2260 H 0.37156 0.38452 0.83996 0.0
H2261 H 0.36685 0.42669 0.83208 0.0
C2262 C 0.39927 0.46076 0.83985 0.0
C2263 C 0.41805 0.47637 0.84466 0.0
C2264 C 0.40125 0.43652 0.84532 0.0
C2265 C 0.43837 0.4674 0.85569 0.0
C2266 C 0.44036 0.44357 0.86121 0.0
C2267 C 0.4247 0.40371 0.8603 0.0
C2268 C 0.40675 0.38763 0.85447 0.0
C2269 C 0.42212 0.42791 0.8558 0.0
C2270 C 0.38575 0.39639 0.84462 0.0
C2271 C 0.38305 0.42056 0.84005 0.0
H2272 H 0.6602 0.04153 0.07719 0.0
H2273 H 0.69474 0.0441 0.1448 0.0
H2274 H 0.68722 0.08655 0.14715 0.0
H2275 H 0.67296 0.12363 0.12847 0.0
H2276 H 0.63964 0.11963 0.06018 0.0
H2277 H 0.64472 0.07722 0.05971 0.0
C2278 C 0.66611 0.05128 0.09253 0.0
C2279 C 0.67807 0.0395 0.11072 0.0
C2280 C 0.66207 0.0756 0.09359 0.0
C2281 C 0.68525 0.05251 0.13059 0.0
C2282 C 0.68111 0.07689 0.13186 0.0
C2283 C 0.66663 0.11342 0.11362 0.0
C2284 C 0.65611 0.12499 0.0943 0.0
C2285 C 0.66981 0.08873 0.11327 0.0
C2286 C 0.64802 0.1114 0.0752 0.0
C2287 C 0.65088 0.08705 0.07489 0.0
H2288 H 0.66199 0.3872 0.44101 0.0
H2289 H 0.64592 0.38021 0.36716 0.0
H2290 H 0.65169 0.42276 0.36182 0.0
H2291 H 0.65975 0.46238 0.37885 0.0
H2292 H 0.67708 0.46762 0.45279 0.0
H2293 H 0.67234 0.42545 0.45719 0.0
C2294 C 0.65965 0.39492 0.4237 0.0
C2295 C 0.6532 0.38052 0.4046 0.0
C2296 C 0.66325 0.4192 0.42074 0.0
C2297 C 0.65076 0.39087 0.38223 0.0
C2298 C 0.65405 0.41522 0.37917 0.0
C2299 C 0.66289 0.45432 0.39583 0.0
C2300 C 0.66864 0.46851 0.41548 0.0
C2301 C 0.66017 0.42966 0.39838 0.0
C2302 C 0.67234 0.45745 0.43736 0.0
C2303 C 0.66967 0.4332 0.43996 0.0
H2304 H 0.11615 0.67291 0.38022 0.0
H2305 H 0.11319 0.628 0.44152 0.0
H2306 H 0.07046 0.62866 0.44035 0.0
H2307 H 0.03387 0.64325 0.4235 0.0
H2308 H 0.03572 0.68898 0.36287 0.0
H2309 H 0.07867 0.68638 0.36207 0.0
C2310 C 0.10615 0.66308 0.39316 0.0
C2311 C 0.11806 0.65055 0.41103 0.0
C2312 C 0.08128 0.66366 0.39258 0.0
C2313 C 0.10468 0.63796 0.42766 0.0
C2314 C 0.08015 0.6383 0.42704 0.0
C2315 C 0.04357 0.65266 0.41002 0.0
C2316 C 0.03134 0.66622 0.39327 0.0
C2317 C 0.06827 0.65135 0.40984 0.0
C2318 C 0.04441 0.67807 0.37583 0.0
C2319 C 0.0691 0.67675 0.37547 0.0
H2320 H 0.84307 0.11968 0.37635 0.0
H2321 H 0.87809 0.11518 0.44372 0.0
H2322 H 0.87329 0.07271 0.44374 0.0
H2323 H 0.85775 0.03702 0.42612 0.0
H2324 H 0.8214 0.04011 0.35948 0.0
H2325 H 0.8285 0.08263 0.35758 0.0
C2326 C 0.84983 0.10936 0.3909 0.0
C2327 C 0.86079 0.12083 0.41009 0.0
C2328 C 0.84679 0.0846 0.391 0.0
C2329 C 0.86939 0.10706 0.42881 0.0
C2330 C 0.86669 0.08266 0.42886 0.0
C2331 C 0.85135 0.04687 0.41107 0.0
C2332 C 0.83903 0.03513 0.39302 0.0
C2333 C 0.85513 0.0713 0.41028 0.0
C2334 C 0.8312 0.04839 0.37358 0.0
C2335 C 0.83509 0.07285 0.37257 0.0
H2336 H 0.38845 0.84778 0.37728 0.0
H2337 H 0.39315 0.88873 0.44124 0.0
H2338 H 0.43576 0.88438 0.44121 0.0
H2339 H 0.4714 0.86678 0.42495 0.0
H2340 H 0.46742 0.8246 0.36182 0.0
H2341 H 0.42506 0.83193 0.35948 0.0
C2342 C 0.39882 0.85605 0.39102 0.0
C2343 C 0.38742 0.86847 0.40933 0.0
C2344 C 0.42352 0.85317 0.39115 0.0
C2345 C 0.40126 0.87895 0.42701 0.0
C2346 C 0.42571 0.87645 0.42705 0.0
C2347 C 0.46136 0.85923 0.41056 0.0
C2348 C 0.4728 0.84513 0.39363 0.0
C2349 C 0.43697 0.8632 0.40952 0.0
C2350 C 0.45936 0.83577 0.375 0.0
C2351 C 0.435 0.8398 0.37375 0.0
H2352 H 0.85564 0.46302 0.07936 0.0
H2353 H 0.81684 0.46123 0.14464 0.0
H2354 H 0.82303 0.41864 0.14724 0.0
H2355 H 0.83707 0.38123 0.12921 0.0
H2356 H 0.87441 0.38407 0.06305 0.0
H2357 H 0.87113 0.42676 0.06266 0.0
C2358 C 0.84855 0.45341 0.09426 0.0
C2359 C 0.83579 0.46549 0.11173 0.0
C2360 C 0.85183 0.42894 0.09544 0.0
C2361 C 0.82701 0.45262 0.13102 0.0
C2362 C 0.83039 0.42815 0.13243 0.0
C2363 C 0.84477 0.39124 0.1149 0.0
C2364 C 0.85585 0.37934 0.09611 0.0
C2365 C 0.84249 0.41603 0.11454 0.0
C2366 C 0.86561 0.39264 0.07765 0.0
C2367 C 0.86375 0.41712 0.07738 0.0
H2368 H 0.12398 0.83368 0.13211 0.0
H2369 H 0.1217 0.86463 0.06266 0.0
H2370 H 0.07919 0.8614 0.06217 0.0
H2371 H 0.04279 0.84864 0.08011 0.0
H2372 H 0.04334 0.81613 0.14876 0.0
H2373 H 0.08608 0.82154 0.151 0.0
C2374 C 0.11413 0.83984 0.11697 0.0
C2375 C 0.12624 0.84922 0.09737 0.0
C2376 C 0.08929 0.83771 0.1166 0.0
C2377 C 0.11308 0.8571 0.07791 0.0
C2378 C 0.08866 0.85532 0.07758 0.0
C2379 C 0.05212 0.84267 0.09566 0.0
C2380 C 0.03962 0.83196 0.11418 0.0
C2381 C 0.07663 0.84541 0.09664 0.0
C2382 C 0.05223 0.8247 0.13427 0.0
C2383 C 0.07681 0.82762 0.13548 0.0
H2384 H 0.47381 0.66109 0.08369 0.0
H2385 H 0.46775 0.69439 0.1517 0.0
H2386 H 0.42553 0.68544 0.15239 0.0
H2387 H 0.38967 0.67036 0.13213 0.0
H2388 H 0.39707 0.63806 0.0636 0.0
H2389 H 0.43927 0.64449 0.06476 0.0
C2390 C 0.46332 0.66638 0.09875 0.0
C2391 C 0.47401 0.67844 0.11755 0.0
C2392 C 0.43915 0.66146 0.09889 0.0
C2393 C 0.46013 0.68485 0.13705 0.0
C2394 C 0.4359 0.67989 0.13738 0.0
C2395 C 0.40057 0.66452 0.11758 0.0
C2396 C 0.39003 0.65393 0.0977 0.0
C2397 C 0.42512 0.66848 0.1182 0.0
C2398 C 0.40451 0.64648 0.07903 0.0
C2399 C 0.42874 0.65012 0.07964 0.0
H2400 H 0.92808 0.34537 0.96871 0.0
H2401 H 0.85886 0.31455 0.96355 0.0
H2402 H 0.8576 0.32413 0.9215 0.0
H2403 H 0.87756 0.33917 0.88546 0.0
H2404 H 0.94713 0.36938 0.89207 0.0
H2405 H 0.94674 0.36204 0.93408 0.0
C2406 C 0.91263 0.34077 0.95846 0.0
C2407 C 0.89366 0.3292 0.96936 0.0
C2408 C 0.91213 0.34611 0.93437 0.0
C2409 C 0.87367 0.32368 0.95577 0.0
C2410 C 0.87301 0.32901 0.93163 0.0
C2411 C 0.89252 0.34433 0.89614 0.0
C2412 C 0.91244 0.35461 0.88538 0.0
C2413 C 0.89232 0.33994 0.92063 0.0
C2414 C 0.93163 0.36123 0.89962 0.0
C2415 C 0.93147 0.35706 0.92377 0.0
H2416 H 0.15162 0.92814 0.97258 0.0
H2417 H 0.18531 0.86026 0.96606 0.0
H2418 H 0.17583 0.85947 0.92411 0.0
H2419 H 0.16052 0.87956 0.88847 0.0
H2420 H 0.1287 0.94828 0.8956 0.0
H2421 H 0.13497 0.94714 0.93798 0.0
C2422 C 0.15689 0.91306 0.96209 0.0
C2423 C 0.16919 0.89432 0.97272 0.0
C2424 C 0.1518 0.91291 0.93791 0.0
C2425 C 0.17556 0.87487 0.95868 0.0
C2426 C 0.1703 0.87448 0.93454 0.0
C2427 C 0.15465 0.89412 0.89935 0.0
C2428 C 0.14422 0.91404 0.88875 0.0
C2429 C 0.15873 0.89358 0.92387 0.0
C2430 C 0.1369 0.93281 0.90317 0.0
C2431 C 0.14049 0.93219 0.92745 0.0
H2432 H 0.5841 0.14833 0.96697 0.0
H2433 H 0.64633 0.19151 0.96172 0.0
H2434 H 0.64861 0.18322 0.91938 0.0
H2435 H 0.63064 0.1661 0.88305 0.0
H2436 H 0.568 0.12342 0.88989 0.0
H2437 H 0.5683 0.1291 0.93218 0.0
C2438 C 0.59829 0.15587 0.95664 0.0
C2439 C 0.6149 0.17063 0.96756 0.0
C2440 C 0.59935 0.15121 0.93241 0.0
C2441 C 0.63336 0.17994 0.95388 0.0
C2442 C 0.63457 0.17532 0.92959 0.0
C2443 C 0.61728 0.15779 0.89385 0.0
C2444 C 0.59915 0.14459 0.88309 0.0
C2445 C 0.61736 0.1613 0.91853 0.0
C2446 C 0.582 0.13394 0.89748 0.0
C2447 C 0.58212 0.13715 0.92177 0.0
H2448 H 0.37763 0.57353 0.8973 0.0
H2449 H 0.34712 0.64119 0.88099 0.0
H2450 H 0.33784 0.64725 0.92262 0.0
H2451 H 0.33571 0.63186 0.96345 0.0
H2452 H 0.36624 0.56387 0.97871 0.0
H2453 H 0.37798 0.55954 0.93784 0.0
C2454 C 0.36915 0.58975 0.90278 0.0
C2455 C 0.36298 0.60677 0.88584 0.0
C2456 C 0.36363 0.59302 0.92668 0.0
C2457 C 0.35208 0.6277 0.89352 0.0
C2458 C 0.34667 0.63116 0.91738 0.0
C2459 C 0.34531 0.6163 0.95797 0.0
C2460 C 0.34996 0.59819 0.97435 0.0
C2461 C 0.35199 0.61375 0.93412 0.0
C2462 C 0.36214 0.57802 0.96661 0.0
C2463 C 0.36896 0.5755 0.94316 0.0
H2464 H 0.88475 0.16655 0.6196 0.0
H2465 H 0.9488 0.12564 0.61692 0.0
H2466 H 0.95016 0.12991 0.57438 0.0
H2467 H 0.93495 0.14722 0.5383 0.0
H2468 H 0.87175 0.18935 0.54014 0.0
H2469 H 0.86814 0.18235 0.58247 0.0
C2470 C 0.8988 0.1583 0.60965 0.0
C2471 C 0.91673 0.14593 0.62153 0.0
C2472 C 0.89973 0.16111 0.58502 0.0
C2473 C 0.93487 0.13543 0.60834 0.0
C2474 C 0.9357 0.13786 0.58396 0.0
C2475 C 0.92031 0.15485 0.54789 0.0
C2476 C 0.9037 0.16878 0.53596 0.0
C2477 C 0.91853 0.15105 0.5722 0.0
C2478 C 0.88468 0.17829 0.54871 0.0
C2479 C 0.88269 0.17444 0.573 0.0
H2480 H 0.33578 0.88093 0.54179 0.0
H2481 H 0.34958 0.95451 0.52822 0.0
H2482 H 0.36375 0.95968 0.56824 0.0
H2483 H 0.36924 0.94453 0.60803 0.0
H2484 H 0.35508 0.87129 0.62267 0.0
H2485 H 0.34461 0.86481 0.58143 0.0
C2486 C 0.34234 0.89797 0.54742 0.0
C2487 C 0.34141 0.91732 0.53186 0.0
C2488 C 0.35035 0.901 0.57081 0.0
C2489 C 0.34976 0.93932 0.53976 0.0
C2490 C 0.35795 0.94234 0.56271 0.0
C2491 C 0.36425 0.92702 0.60222 0.0
C2492 C 0.36286 0.90851 0.61865 0.0
C2493 C 0.35786 0.92347 0.57855 0.0
C2494 C 0.35629 0.88597 0.61056 0.0
C2495 C 0.35018 0.88224 0.58692 0.0
H2496 H 0.62383 0.34351 0.62067 0.0
H2497 H 0.56137 0.38663 0.61571 0.0
H2498 H 0.5613 0.38212 0.57316 0.0
H2499 H 0.5771 0.36415 0.53761 0.0
H2500 H 0.63871 0.31987 0.54158 0.0
H2501 H 0.64114 0.32696 0.58402 0.0
C2502 C 0.61038 0.35215 0.61025 0.0
C2503 C 0.59252 0.36526 0.62155 0.0
C2504 C 0.61021 0.34925 0.58554 0.0
C2505 C 0.57522 0.37627 0.60766 0.0
C2506 C 0.57514 0.37371 0.58324 0.0
C2507 C 0.59117 0.35606 0.54767 0.0
C2508 C 0.60765 0.34147 0.53624 0.0
C2509 C 0.59224 0.3599 0.57206 0.0
C2510 C 0.6259 0.33143 0.54967 0.0
C2511 C 0.62719 0.33532 0.57406 0.0
H2512 H 0.16213 0.63159 0.5409 0.0
H2513 H 0.17966 0.55761 0.53457 0.0
H2514 H 0.17321 0.55228 0.57625 0.0
H2515 H 0.16234 0.56783 0.61461 0.0
H2516 H 0.14642 0.64171 0.6225 0.0
H2517 H 0.1528 0.64772 0.58024 0.0
C2518 C 0.16489 0.61434 0.54848 0.0
C2519 C 0.17139 0.59508 0.53406 0.0
C2520 C 0.16135 0.61124 0.57291 0.0
C2521 C 0.17447 0.57287 0.54477 0.0
C2522 C 0.17083 0.5697 0.56879 0.0
C2523 C 0.16015 0.58527 0.60714 0.0
C2524 C 0.1537 0.60422 0.62173 0.0
C2525 C 0.16413 0.58866 0.58299 0.0
C2526 C 0.15133 0.62676 0.6117 0.0
C2527 C 0.15497 0.63021 0.58751 0.0
H2528 H 0.889 0.93882 0.3325 0.0
H2529 H 0.88495 0.86886 0.3617 0.0
H2530 H 0.92714 0.86321 0.3545 0.0
H2531 H 0.96571 0.87886 0.34098 0.0
H2532 H 0.96807 0.94852 0.31019 0.0
H2533 H 0.92634 0.95331 0.31701 0.0
C2534 C 0.8973 0.92232 0.33737 0.0
C2535 C 0.88376 0.90442 0.34787 0.0
C2536 C 0.92147 0.91906 0.33288 0.0
C2537 C 0.89488 0.88301 0.35365 0.0
C2538 C 0.91907 0.87977 0.34954 0.0
C2539 C 0.95718 0.89497 0.33541 0.0
C2540 C 0.97058 0.91333 0.32517 0.0
C2541 C 0.93265 0.89774 0.33923 0.0
C2542 C 0.9587 0.93408 0.31838 0.0
C2543 C 0.93463 0.93693 0.32223 0.0
H2544 H 0.63275 0.95964 0.32056 0.0
H2545 H 0.56237 0.97486 0.34491 0.0
H2546 H 0.55723 0.9341 0.35682 0.0
H2547 H 0.5714 0.89377 0.35835 0.0
H2548 H 0.64141 0.87717 0.33401 0.0
H2549 H 0.64804 0.91872 0.32438 0.0
C2550 C 0.61648 0.9541 0.32885 0.0
C2551 C 0.59794 0.97038 0.33173 0.0
C2552 C 0.61345 0.9303 0.33552 0.0
C2553 C 0.57685 0.96274 0.34224 0.0
C2554 C 0.57387 0.93939 0.3491 0.0
C2555 C 0.5882 0.89915 0.35104 0.0
C2556 C 0.60577 0.88222 0.34675 0.0
C2557 C 0.59184 0.92295 0.34545 0.0
C2558 C 0.62749 0.88974 0.33745 0.0
C2559 C 0.63129 0.91353 0.33189 0.0
H2560 H 0.61716 0.63007 0.34643 0.0
H2561 H 0.61084 0.55818 0.37068 0.0
H2562 H 0.56859 0.55954 0.36487 0.0
H2563 H 0.5335 0.5801 0.35212 0.0
H2564 H 0.5384 0.6514 0.32616 0.0
H2565 H 0.5808 0.65132 0.33381 0.0
C2566 C 0.60651 0.61476 0.35054 0.0
C2567 C 0.61742 0.594 0.35889 0.0
C2568 C 0.58185 0.6155 0.34694 0.0
C2569 C 0.60319 0.57436 0.36407 0.0
C2570 C 0.5789 0.57508 0.3608 0.0
C2571 C 0.5437 0.59573 0.34806 0.0
C2572 C 0.53244 0.61573 0.33864 0.0
C2573 C 0.56808 0.59543 0.35206 0.0
C2574 C 0.54624 0.6358 0.33378 0.0
C2575 C 0.57065 0.6357 0.33797 0.0
H2576 H 0.93435 0.61264 0.33317 0.0
H2577 H 0.86229 0.62075 0.35565 0.0
H2578 H 0.85567 0.57838 0.35021 0.0
H2579 H 0.87114 0.53861 0.34061 0.0
H2580 H 0.94319 0.53197 0.31699 0.0
H2581 H 0.94886 0.57408 0.3214 0.0
C2582 C 0.91717 0.60519 0.33695 0.0
C2583 C 0.89894 0.61985 0.34508 0.0
C2584 C 0.91344 0.58098 0.33357 0.0
C2585 C 0.87668 0.60988 0.34946 0.0
C2586 C 0.8729 0.58563 0.34635 0.0
C2587 C 0.88795 0.54636 0.336 0.0
C2588 C 0.90672 0.53183 0.32855 0.0
C2589 C 0.89122 0.57092 0.33854 0.0
C2590 C 0.92844 0.54245 0.32303 0.0
C2591 C 0.93177 0.56664 0.32551 0.0
H2592 H 0.96799 0.57699 0.16112 0.0
H2593 H 0.9645 0.64778 0.18858 0.0
H2594 H 0.92222 0.6491 0.17997 0.0
H2595 H 0.88557 0.6289 0.16672 0.0
H2596 H 0.89045 0.55765 0.14022 0.0
H2597 H 0.93268 0.55787 0.14647 0.0
C2598 C 0.95807 0.59279 0.16522 0.0
C2599 C 0.96953 0.61221 0.17551 0.0
C2600 C 0.93384 0.59331 0.1605 0.0
C2601 C 0.95631 0.63262 0.18039 0.0
C2602 C 0.93204 0.63332 0.17563 0.0
C2603 C 0.89591 0.61352 0.16212 0.0
C2604 C 0.88462 0.59321 0.15318 0.0
C2605 C 0.92051 0.61361 0.16595 0.0
C2606 C 0.89844 0.57347 0.14733 0.0
C2607 C 0.92269 0.57354 0.15088 0.0
H2608 H 0.94364 0.88922 0.16185 0.0
H2609 H 0.8698 0.88226 0.14558 0.0
H2610 H 0.86454 0.92485 0.15086 0.0
H2611 H 0.8813 0.96423 0.15967 0.0
H2612 H 0.95515 0.9695 0.17772 0.0
H2613 H 0.95979 0.92754 0.17202 0.0
C2614 C 0.92638 0.89697 0.15924 0.0
C2615 C 0.90722 0.88253 0.15304 0.0
C2616 C 0.92341 0.92128 0.16271 0.0
C2617 C 0.88491 0.89294 0.15024 0.0
C2618 C 0.88189 0.91731 0.1533 0.0
C2619 C 0.89836 0.95631 0.16272 0.0
C2620 C 0.91782 0.97049 0.16913 0.0
C2621 C 0.90105 0.93172 0.15958 0.0
C2622 C 0.93978 0.95944 0.17257 0.0
C2623 C 0.94255 0.93527 0.16935 0.0
H2624 H 0.5446 0.92715 0.14646 0.0
H2625 H 0.54559 0.86407 0.18878 0.0
H2626 H 0.58841 0.86156 0.1841 0.0
H2627 H 0.62622 0.87908 0.16992 0.0
H2628 H 0.62365 0.94306 0.12884 0.0
H2629 H 0.58103 0.94335 0.13129 0.0
C2630 C 0.55406 0.91275 0.1547 0.0
C2631 C 0.54166 0.89588 0.16798 0.0
C2632 C 0.57862 0.91165 0.15228 0.0
C2633 C 0.55442 0.87722 0.1782 0.0
C2634 C 0.57903 0.87588 0.17568 0.0
C2635 C 0.6163 0.89292 0.16132 0.0
C2636 C 0.62834 0.91113 0.14936 0.0
C2637 C 0.59142 0.89322 0.16301 0.0
C2638 C 0.61507 0.92895 0.13838 0.0
C2639 C 0.59059 0.92915 0.13972 0.0
H2640 H 0.63066 0.62197 0.17226 0.0
H2641 H 0.56044 0.62267 0.14309 0.0
H2642 H 0.55812 0.58006 0.14667 0.0
H2643 H 0.57494 0.5429 0.15937 0.0
H2644 H 0.64426 0.54136 0.19065 0.0
H2645 H 0.64805 0.58375 0.18458 0.0
C2646 C 0.61497 0.61274 0.1665 0.0
C2647 C 0.59572 0.6256 0.1575 0.0
C2648 C 0.61352 0.58803 0.16897 0.0
C2649 C 0.57545 0.61333 0.15025 0.0
C2650 C 0.57409 0.58891 0.15226 0.0
C2651 C 0.59096 0.55169 0.16493 0.0
C2652 C 0.60926 0.53862 0.17536 0.0
C2653 C 0.59285 0.57614 0.16188 0.0
C2654 C 0.62992 0.55059 0.18219 0.0
C2655 C 0.63206 0.575 0.17891 0.0
H2656 H 0.34475 0.88643 0.87827 0.0
H2657 H 0.36878 0.88951 0.95043 0.0
H2658 H 0.35969 0.93116 0.9521 0.0
H2659 H 0.34316 0.96636 0.93439 0.0
H2660 H 0.31859 0.9649 0.86259 0.0
H2661 H 0.32997 0.92329 0.85943 0.0
C2662 C 0.34818 0.89627 0.89428 0.0
C2663 C 0.35728 0.88455 0.91425 0.0
C2664 C 0.3428 0.9206 0.89526 0.0
C2665 C 0.36164 0.89776 0.9348 0.0
C2666 C 0.35645 0.92171 0.93583 0.0
C2667 C 0.34032 0.95702 0.91796 0.0
C2668 C 0.32991 0.96881 0.89883 0.0
C2669 C 0.3467 0.93321 0.91636 0.0
C2670 C 0.32673 0.95642 0.87759 0.0
C2671 C 0.33309 0.93253 0.87583 0.0
H2672 H 0.32706 0.54666 0.63168 0.0
H2673 H 0.35822 0.5312 0.56398 0.0
H2674 H 0.36831 0.57235 0.55887 0.0
H2675 H 0.36705 0.61304 0.57229 0.0
H2676 H 0.33706 0.62968 0.64003 0.0
H2677 H 0.32816 0.58791 0.64646 0.0
C2678 C 0.33641 0.55216 0.616 0.0
C2679 C 0.34167 0.53555 0.5982 0.0
C2680 C 0.34232 0.57621 0.61303 0.0
C2681 C 0.35358 0.54339 0.57791 0.0
C2682 C 0.35946 0.56703 0.57492 0.0
C2683 C 0.35862 0.60761 0.58853 0.0
C2684 C 0.35257 0.62462 0.60552 0.0
C2685 C 0.35363 0.58364 0.59215 0.0
C2686 C 0.3419 0.61705 0.62657 0.0
C2687 C 0.33675 0.59312 0.63025 0.0
H2688 H 0.89438 0.33832 0.56925 0.0
H2689 H 0.88654 0.35743 0.64234 0.0
H2690 H 0.92904 0.35275 0.64824 0.0
H2691 H 0.96875 0.34431 0.63209 0.0
H2692 H 0.97506 0.32376 0.55904 0.0
H2693 H 0.93293 0.32792 0.5539 0.0
C2694 C 0.90186 0.34147 0.58653 0.0
C2695 C 0.88718 0.34836 0.60526 0.0
C2696 C 0.92617 0.33846 0.58987 0.0
C2697 C 0.89735 0.35214 0.62755 0.0
C2698 C 0.9217 0.34946 0.63094 0.0
C2699 C 0.96097 0.34033 0.61515 0.0
C2700 C 0.97543 0.33376 0.59599 0.0
C2701 C 0.93635 0.34268 0.61218 0.0
C2702 C 0.96468 0.32909 0.57412 0.0
C2703 C 0.94046 0.33143 0.57109 0.0
H2704 H 0.14909 0.97234 0.58079 0.0
H2705 H 0.18879 0.97044 0.64555 0.0
H2706 H 0.18226 0.92793 0.64835 0.0
H2707 H 0.16761 0.89058 0.63068 0.0
H2708 H 0.12924 0.89345 0.56509 0.0
H2709 H 0.13301 0.9361 0.56445 0.0
C2710 C 0.15631 0.96273 0.59562 0.0
C2711 C 0.16943 0.97481 0.61288 0.0
C2712 C 0.15283 0.93827 0.59692 0.0
C2713 C 0.17835 0.9619 0.63208 0.0
C2714 C 0.17478 0.93745 0.63361 0.0
C2715 C 0.15982 0.90057 0.61642 0.0
C2716 C 0.14828 0.88864 0.59787 0.0
C2717 C 0.16233 0.92535 0.61592 0.0
C2718 C 0.13839 0.90198 0.5795 0.0
C2719 C 0.14053 0.92646 0.57909 0.0
H2720 H 0.62119 0.15689 0.62961 0.0
H2721 H 0.61722 0.13097 0.55825 0.0
H2722 H 0.57494 0.13794 0.55773 0.0
H2723 H 0.53964 0.15374 0.57615 0.0
H2724 H 0.54293 0.18167 0.64679 0.0
H2725 H 0.58462 0.17124 0.64903 0.0
C2726 C 0.61098 0.15241 0.61411 0.0
C2727 C 0.62248 0.14344 0.59396 0.0
C2728 C 0.5865 0.15694 0.61371 0.0
C2729 C 0.60896 0.13799 0.57395 0.0
C2730 C 0.58472 0.142 0.57361 0.0
C2731 C 0.54934 0.15753 0.59215 0.0
C2732 C 0.53786 0.16854 0.61122 0.0
C2733 C 0.57341 0.15191 0.59317 0.0
C2734 C 0.55093 0.17298 0.63185 0.0
C2735 C 0.57495 0.16716 0.6331 0.0
H2736 H 0.1651 0.5436 0.87174 0.0
H2737 H 0.18887 0.53703 0.94369 0.0
H2738 H 0.18576 0.57931 0.94902 0.0
H2739 H 0.17426 0.61799 0.93457 0.0
H2740 H 0.15089 0.62614 0.86283 0.0
H2741 H 0.15614 0.58373 0.85614 0.0
C2742 C 0.17001 0.55144 0.88843 0.0
C2743 C 0.17706 0.53684 0.90733 0.0
C2744 C 0.16808 0.57616 0.89156 0.0
C2745 C 0.18309 0.54756 0.92888 0.0
C2746 C 0.18135 0.57186 0.93201 0.0
C2747 C 0.17035 0.61058 0.9174 0.0
C2748 C 0.16195 0.62532 0.89934 0.0
C2749 C 0.17345 0.58627 0.91368 0.0
C2750 C 0.15735 0.6153 0.87712 0.0
C2751 C 0.1603 0.59098 0.8733 0.0
H2752 H 0.96823 0.14924 0.92287 0.0
H2753 H 0.96553 0.19078 0.85934 0.0
H2754 H 0.92295 0.18448 0.85696 0.0
H2755 H 0.88573 0.16936 0.8748 0.0
H2756 H 0.8898 0.12931 0.9393 0.0
H2757 H 0.93237 0.13299 0.93935 0.0
C2758 C 0.95844 0.15694 0.9084 0.0
C2759 C 0.97029 0.17051 0.89138 0.0
C2760 C 0.93399 0.15364 0.90738 0.0
C2761 C 0.95714 0.18001 0.87262 0.0
C2762 C 0.93266 0.17657 0.87135 0.0
C2763 C 0.89599 0.16123 0.88869 0.0
C2764 C 0.88442 0.14923 0.90713 0.0
C2765 C 0.92079 0.1637 0.88886 0.0
C2766 C 0.89807 0.13886 0.92502 0.0
C2767 C 0.9225 0.14093 0.92508 0.0
H2768 H 0.54196 0.32889 0.87852 0.0
H2769 H 0.52883 0.35731 0.94788 0.0
H2770 H 0.57037 0.36623 0.95248 0.0
H2771 H 0.6107 0.36456 0.93799 0.0
H2772 H 0.62482 0.33652 0.86879 0.0
H2773 H 0.58274 0.3293 0.86294 0.0
C2774 C 0.54805 0.33741 0.89447 0.0
C2775 C 0.53203 0.34233 0.91283 0.0
C2776 C 0.57228 0.34252 0.89715 0.0
C2777 C 0.5406 0.35305 0.93349 0.0
C2778 C 0.56444 0.35825 0.93618 0.0
C2779 C 0.60466 0.35697 0.92153 0.0
C2780 C 0.62108 0.35098 0.90396 0.0
C2781 C 0.58048 0.35278 0.9183 0.0
C2782 C 0.6127 0.3413 0.88271 0.0
C2783 C 0.58858 0.3371 0.87935 0.0
H2784 H 0.19409 0.60198 0.16914 0.0
H2785 H 0.19357 0.67702 0.18147 0.0
H2786 H 0.23042 0.68112 0.15981 0.0
H2787 H 0.25811 0.66434 0.13097 0.0
H2788 H 0.2587 0.58962 0.11837 0.0
H2789 H 0.22672 0.58432 0.14669 0.0
C2790 C 0.20232 0.61915 0.16758 0.0
C2791 C 0.19073 0.63919 0.17653 0.0
C2792 C 0.2235 0.62145 0.15489 0.0
C2793 C 0.20188 0.66127 0.17461 0.0
C2794 C 0.22296 0.66368 0.16209 0.0
C2795 C 0.25222 0.64681 0.13541 0.0
C2796 C 0.26116 0.62734 0.12298 0.0
C2797 C 0.23338 0.64403 0.1513 0.0
C2798 C 0.25242 0.60479 0.12811 0.0
C2799 C 0.23391 0.60181 0.14407 0.0
H2800 H 0.85644 0.21831 0.11351 0.0
H2801 H 0.89621 0.27663 0.14127 0.0
H2802 H 0.90701 0.25302 0.17583 0.0
H2803 H 0.9087 0.21429 0.19549 0.0
H2804 H 0.872 0.15532 0.16503 0.0
H2805 H 0.85687 0.18034 0.13375 0.0
C2806 C 0.86711 0.22599 0.12739 0.0
C2807 C 0.87499 0.24939 0.1253 0.0
C2808 C 0.87429 0.2119 0.1463 0.0
C2809 C 0.88906 0.25905 0.14311 0.0
C2810 C 0.89565 0.24534 0.16255 0.0
C2811 C 0.89728 0.20688 0.18209 0.0
C2812 C 0.89162 0.18264 0.18255 0.0
C2813 C 0.88888 0.22153 0.16397 0.0
C2814 C 0.87686 0.17358 0.16498 0.0
C2815 C 0.86809 0.18802 0.14716 0.0
H2816 H 0.26916 0.9155 0.11392 0.0
H2817 H 0.2426 0.85145 0.1443 0.0
H2818 H 0.27327 0.85251 0.17431 0.0
H2819 H 0.31214 0.86785 0.18699 0.0
H2820 H 0.33915 0.93138 0.15509 0.0
H2821 H 0.30382 0.93457 0.131 0.0
C2822 C 0.2696 0.90218 0.12762 0.0
C2823 C 0.25364 0.88323 0.12665 0.0
C2824 C 0.28779 0.90266 0.14437 0.0
C2825 C 0.25444 0.86619 0.14451 0.0
C2826 C 0.27228 0.86671 0.16159 0.0
C2827 C 0.31002 0.88276 0.17525 0.0
C2828 C 0.32856 0.89914 0.17258 0.0
C2829 C 0.28975 0.88425 0.16096 0.0
C2830 C 0.32539 0.91835 0.15731 0.0
C2831 C 0.30517 0.92017 0.14345 0.0
H2832 H 0.65606 0.25055 0.13581 0.0
H2833 H 0.58221 0.25139 0.11888 0.0
H2834 H 0.57547 0.28228 0.14803 0.0
H2835 H 0.59197 0.31431 0.17192 0.0
H2836 H 0.66618 0.31449 0.18811 0.0
H2837 H 0.67134 0.27786 0.16618 0.0
C2838 C 0.63836 0.25666 0.13941 0.0
C2839 C 0.6196 0.24858 0.12543 0.0
C2840 C 0.63479 0.27513 0.15564 0.0
C2841 C 0.59683 0.25718 0.1297 0.0
C2842 C 0.59303 0.27508 0.14614 0.0
C2843 C 0.60916 0.30602 0.17116 0.0
C2844 C 0.62869 0.31746 0.18123 0.0
C2845 C 0.61209 0.28507 0.15824 0.0
C2846 C 0.65081 0.30626 0.18037 0.0
C2847 C 0.65383 0.2853 0.16769 0.0
H2848 H 0.19713 0.86577 0.32327 0.0
H2849 H 0.17639 0.93596 0.34387 0.0
H2850 H 0.21297 0.94064 0.36585 0.0
H2851 H 0.24685 0.92221 0.38518 0.0
H2852 H 0.26617 0.85119 0.3676 0.0
H2853 H 0.23479 0.84948 0.33813 0.0
C2854 C 0.20093 0.88235 0.33197 0.0
C2855 C 0.18384 0.90043 0.33208 0.0
C2856 C 0.22184 0.88469 0.34526 0.0
C2857 C 0.18906 0.9217 0.34363 0.0
C2858 C 0.20999 0.92438 0.35629 0.0
C2859 C 0.24486 0.90679 0.37406 0.0
C2860 C 0.25924 0.88704 0.37813 0.0
C2861 C 0.226 0.90565 0.35805 0.0
C2862 C 0.25601 0.86687 0.36419 0.0
C2863 C 0.23766 0.86577 0.34767 0.0
H2864 H 0.58319 0.18701 0.34066 0.0
H2865 H 0.65488 0.19191 0.31635 0.0
H2866 H 0.65999 0.22893 0.33769 0.0
H2867 H 0.64597 0.25588 0.36938 0.0
H2868 H 0.57382 0.25108 0.39222 0.0
H2869 H 0.56677 0.21874 0.36489 0.0
C2870 C 0.59971 0.19653 0.33946 0.0
C2871 C 0.61876 0.18631 0.32747 0.0
C2872 C 0.60246 0.21797 0.35162 0.0
C2873 C 0.63997 0.19909 0.32578 0.0
C2874 C 0.64295 0.22032 0.33807 0.0
C2875 C 0.62846 0.2485 0.36747 0.0
C2876 C 0.61038 0.2559 0.3827 0.0
C2877 C 0.62461 0.22942 0.35191 0.0
C2878 C 0.58793 0.24576 0.38052 0.0
C2879 C 0.58394 0.22707 0.36508 0.0
H2880 H 0.30665 0.65956 0.32653 0.0
H2881 H 0.32396 0.58598 0.33479 0.0
H2882 H 0.28715 0.57944 0.35589 0.0
H2883 H 0.25416 0.59593 0.3782 0.0
H2884 H 0.23862 0.66991 0.37351 0.0
H2885 H 0.26985 0.67492 0.34425 0.0
C2886 C 0.30206 0.64196 0.33237 0.0
C2887 C 0.31826 0.62331 0.32931 0.0
C2888 C 0.28107 0.63844 0.34522 0.0
C2889 C 0.31201 0.60068 0.33711 0.0
C2890 C 0.29094 0.59692 0.34923 0.0
C2891 C 0.25697 0.61294 0.36995 0.0
C2892 C 0.24373 0.63242 0.37762 0.0
C2893 C 0.27587 0.61584 0.35425 0.0
C2894 C 0.24795 0.65451 0.36735 0.0
C2895 C 0.26622 0.65743 0.35097 0.0
H2896 H 0.92496 0.26547 0.38592 0.0
H2897 H 0.85709 0.23776 0.36725 0.0
H2898 H 0.85199 0.26874 0.33795 0.0
H2899 H 0.86408 0.30784 0.32286 0.0
H2900 H 0.93139 0.33648 0.34362 0.0
H2901 H 0.9396 0.30115 0.36654 0.0
C2902 C 0.90938 0.26577 0.37486 0.0
C2903 C 0.89142 0.24912 0.37871 0.0
C2904 C 0.90634 0.28425 0.35867 0.0
C2905 C 0.87131 0.24989 0.3644 0.0
C2906 C 0.86828 0.26795 0.34784 0.0
C2907 C 0.88082 0.3061 0.33188 0.0
C2908 C 0.89696 0.32503 0.33174 0.0
C2909 C 0.88526 0.28584 0.34557 0.0
C2910 C 0.91853 0.32238 0.34359 0.0
C2911 C 0.92324 0.30216 0.35678 0.0
H2912 H 0.12113 0.24639 0.59122 0.0
H2913 H 0.13316 0.26276 0.66397 0.0
H2914 H 0.165 0.23452 0.66592 0.0
H2915 H 0.18439 0.19994 0.64907 0.0
H2916 H 0.16841 0.17895 0.57784 0.0
H2917 H 0.14338 0.21365 0.57302 0.0
C2918 C 0.13145 0.24438 0.60716 0.0
C2919 C 0.12587 0.2581 0.62704 0.0
C2920 C 0.14865 0.2265 0.60854 0.0
C2921 C 0.13849 0.25436 0.64792 0.0
C2922 C 0.15624 0.23741 0.64921 0.0
C2923 C 0.17596 0.20325 0.63226 0.0
C2924 C 0.17818 0.18672 0.6139 0.0
C2925 C 0.16089 0.22278 0.62989 0.0
C2926 C 0.16691 0.19128 0.59233 0.0
C2927 C 0.15251 0.21111 0.58958 0.0
H2928 H 0.27319 0.1153 0.58857 0.0
H2929 H 0.24121 0.14728 0.64931 0.0
H2930 H 0.27185 0.17719 0.65033 0.0
H2931 H 0.31148 0.19026 0.63771 0.0
H2932 H 0.34396 0.15703 0.57754 0.0
H2933 H 0.30949 0.132 0.57237 0.0
C2934 C 0.27255 0.1292 0.60168 0.0
C2935 C 0.25483 0.12877 0.61902 0.0
C2936 C 0.29071 0.14603 0.60243 0.0
C2937 C 0.25431 0.14699 0.63574 0.0
C2938 C 0.27213 0.16409 0.63644 0.0
C2939 C 0.31079 0.17798 0.62309 0.0
C2940 C 0.33053 0.17535 0.60823 0.0
C2941 C 0.29098 0.16319 0.62045 0.0
C2942 C 0.32921 0.1593 0.5894 0.0
C2943 C 0.30949 0.14489 0.58646 0.0
H2944 H 0.32154 0.31264 0.63577 0.0
H2945 H 0.35925 0.34932 0.5809 0.0
H2946 H 0.38557 0.31584 0.57622 0.0
H2947 H 0.40162 0.279 0.5917 0.0
H2948 H 0.36443 0.24193 0.64614 0.0
H2949 H 0.33411 0.27215 0.64668 0.0
C2950 C 0.33514 0.3131 0.62239 0.0
C2951 C 0.33857 0.33377 0.60899 0.0
C2952 C 0.35056 0.29372 0.61988 0.0
C2953 C 0.35628 0.33388 0.59169 0.0
C2954 C 0.37145 0.3147 0.589 0.0
C2955 C 0.38658 0.27718 0.60332 0.0
C2956 C 0.38579 0.25825 0.61935 0.0
C2957 C 0.36932 0.29494 0.60362 0.0
C2958 C 0.36594 0.25616 0.63393 0.0
C2959 C 0.34853 0.2737 0.63428 0.0
H2960 H 0.23554 0.40123 0.58807 0.0
H2961 H 0.26916 0.36673 0.64638 0.0
H2962 H 0.23892 0.33639 0.6465 0.0
H2963 H 0.1989 0.32385 0.63435 0.0
H2964 H 0.16532 0.35909 0.57596 0.0
H2965 H 0.19953 0.3845 0.57129 0.0
C2966 C 0.23666 0.38669 0.60041 0.0
C2967 C 0.25449 0.38671 0.61766 0.0
C2968 C 0.21883 0.3695 0.60052 0.0
C2969 C 0.25573 0.36755 0.6332 0.0
C2970 C 0.23819 0.35016 0.63332 0.0
C2971 C 0.1993 0.33665 0.62018 0.0
C2972 C 0.17926 0.3398 0.60582 0.0
C2973 C 0.21901 0.3516 0.61776 0.0
C2974 C 0.18027 0.35642 0.5875 0.0
C2975 C 0.19985 0.37107 0.58483 0.0
H2976 H 0.16216 0.32391 0.92073 0.0
H2977 H 0.19276 0.31306 0.85213 0.0
H2978 H 0.17214 0.27546 0.84848 0.0
H2979 H 0.13962 0.24973 0.8618 0.0
H2980 H 0.10858 0.26142 0.92993 0.0
H2981 H 0.13564 0.29399 0.93713 0.0
C2982 C 0.16481 0.31303 0.90525 0.0
C2983 C 0.17865 0.32155 0.88659 0.0
C2984 C 0.15271 0.29149 0.90316 0.0
C2985 C 0.18212 0.30706 0.86676 0.0
C2986 C 0.1702 0.28555 0.86458 0.0
C2987 C 0.13944 0.25872 0.87855 0.0
C2988 C 0.12201 0.25319 0.89525 0.0
C2989 C 0.15462 0.27808 0.88224 0.0
C2990 C 0.12189 0.26531 0.91683 0.0
C2991 C 0.13718 0.28415 0.92085 0.0
H2992 H 0.19862 0.19176 0.86528 0.0
H2993 H 0.16937 0.16731 0.93102 0.0
H2994 H 0.20388 0.14274 0.93755 0.0
H2995 H 0.2385 0.12289 0.92131 0.0
H2996 H 0.26736 0.14575 0.85527 0.0
H2997 H 0.23756 0.17653 0.8524 0.0
C2998 C 0.20008 0.18156 0.88135 0.0
C2999 C 0.18112 0.18113 0.89744 0.0
C3000 C 0.21994 0.16698 0.88486 0.0
C3001 C 0.18345 0.1678 0.91817 0.0
C3002 C 0.20321 0.15366 0.92192 0.0
C3003 C 0.2388 0.13518 0.90669 0.0
C3004 C 0.2552 0.13185 0.88841 0.0
C3005 C 0.22104 0.15234 0.90492 0.0
C3006 C 0.25526 0.14787 0.86962 0.0
C3007 C 0.23787 0.16536 0.86786 0.0
H3008 H 0.32216 0.201 0.8705 0.0
H3009 H 0.35967 0.16635 0.92683 0.0
H3010 H 0.38526 0.20041 0.93115 0.0
H3011 H 0.40096 0.23713 0.915 0.0
H3012 H 0.36366 0.27263 0.85962 0.0
H3013 H 0.33394 0.24169 0.85916 0.0
C3014 C 0.33557 0.2011 0.88408 0.0
C3015 C 0.33919 0.18079 0.89798 0.0
C3016 C 0.35049 0.22091 0.88651 0.0
C3017 C 0.35658 0.18146 0.91562 0.0
C3018 C 0.37133 0.20099 0.91812 0.0
C3019 C 0.38595 0.23848 0.90326 0.0
C3020 C 0.38496 0.2571 0.88692 0.0
C3021 C 0.36902 0.22039 0.90308 0.0
C3022 C 0.36525 0.2586 0.87209 0.0
C3023 C 0.34821 0.24066 0.87178 0.0
H3024 H 0.31033 0.32476 0.86912 0.0
H3025 H 0.34171 0.35811 0.92984 0.0
H3026 H 0.30711 0.38307 0.93437 0.0
H3027 H 0.27112 0.39982 0.91737 0.0
H3028 H 0.24056 0.36785 0.85597 0.0
H3029 H 0.27101 0.33781 0.85571 0.0
C3030 C 0.30936 0.33703 0.88373 0.0
C3031 C 0.32885 0.33973 0.89892 0.0
C3032 C 0.28949 0.35179 0.88601 0.0
C3033 C 0.32716 0.35578 0.91772 0.0
C3034 C 0.30737 0.37016 0.92031 0.0
C3035 C 0.27069 0.38581 0.90436 0.0
C3036 C 0.25329 0.38616 0.8867 0.0
C3037 C 0.28887 0.36897 0.904 0.0
C3038 C 0.2532 0.36798 0.86994 0.0
C3039 C 0.27099 0.35087 0.86964 0.0
H3040 H 0.64897 0.1853 0.19635 0.0
H3041 H 0.58238 0.16127 0.16858 0.0
H3042 H 0.57689 0.13604 0.20277 0.0
H3043 H 0.59411 0.11565 0.23665 0.0
H3044 H 0.66102 0.13816 0.2641 0.0
H3045 H 0.66303 0.16942 0.23454 0.0
C3046 C 0.63296 0.17503 0.19807 0.0
C3047 C 0.61631 0.17491 0.17959 0.0
C3048 C 0.63003 0.16012 0.21776 0.0
C3049 C 0.59565 0.16152 0.18227 0.0
C3050 C 0.59249 0.147 0.20184 0.0
C3051 C 0.60869 0.12802 0.2367 0.0
C3052 C 0.62727 0.12475 0.25271 0.0
C3053 C 0.61 0.14541 0.21915 0.0
C3054 C 0.64625 0.1406 0.2524 0.0
C3055 C 0.64756 0.15827 0.23516 0.0
H3056 H 0.65449 0.36994 0.25155 0.0
H3057 H 0.57976 0.38222 0.24909 0.0
H3058 H 0.5734 0.35265 0.27958 0.0
H3059 H 0.58985 0.32967 0.31228 0.0
H3060 H 0.66467 0.3173 0.31538 0.0
H3061 H 0.67024 0.34002 0.27929 0.0
C3062 C 0.63678 0.36521 0.25689 0.0
C3063 C 0.61756 0.378 0.24796 0.0
C3064 C 0.63333 0.3486 0.27507 0.0
C3065 C 0.59474 0.37229 0.2555 0.0
C3066 C 0.59113 0.35562 0.27318 0.0
C3067 C 0.60728 0.33139 0.30469 0.0
C3068 C 0.62679 0.32213 0.31676 0.0
C3069 C 0.6104 0.34462 0.28397 0.0
C3070 C 0.64928 0.3243 0.30654 0.0
C3071 C 0.65253 0.33747 0.28594 0.0
H3072 H 0.13228 0.67228 0.25385 0.0
H3073 H 0.13813 0.59798 0.24024 0.0
H3074 H 0.16779 0.59429 0.27121 0.0
H3075 H 0.18519 0.6108 0.30739 0.0
H3076 H 0.17902 0.68536 0.32109 0.0
H3077 H 0.15703 0.6905 0.28462 0.0
C3078 C 0.14117 0.65563 0.25668 0.0
C3079 C 0.13343 0.63551 0.24449 0.0
C3080 C 0.15766 0.65356 0.2751 0.0
C3081 C 0.14423 0.61377 0.24908 0.0
C3082 C 0.1609 0.6116 0.26708 0.0
C3083 C 0.17955 0.62827 0.30211 0.0
C3084 C 0.18323 0.6475 0.31737 0.0
C3085 C 0.1667 0.63114 0.28109 0.0
C3086 C 0.17617 0.6701 0.30997 0.0
C3087 C 0.16347 0.6731 0.28908 0.0
H3088 H 0.91858 0.16087 0.31753 0.0
H3089 H 0.84698 0.18563 0.31218 0.0
H3090 H 0.84157 0.16294 0.27604 0.0
H3091 H 0.85501 0.13043 0.2504 0.0
H3092 H 0.92628 0.10541 0.25614 0.0
H3093 H 0.9341 0.13387 0.28752 0.0
C3094 C 0.90197 0.16176 0.30817 0.0
C3095 C 0.88312 0.17461 0.31786 0.0
C3096 C 0.89886 0.14841 0.28751 0.0
C3097 C 0.86179 0.17578 0.30529 0.0
C3098 C 0.85861 0.16266 0.28464 0.0
C3099 C 0.87254 0.13206 0.25768 0.0
C3100 C 0.89021 0.11622 0.25067 0.0
C3101 C 0.87671 0.14815 0.27613 0.0
C3102 C 0.91257 0.11775 0.26104 0.0
C3103 C 0.91697 0.13386 0.27913 0.0
H3104 H 0.37358 0.85887 0.2477 0.0
H3105 H 0.39664 0.93075 0.25456 0.0
H3106 H 0.36878 0.93698 0.28667 0.0
H3107 H 0.34354 0.91989 0.31725 0.0
H3108 H 0.3214 0.84739 0.31142 0.0
H3109 H 0.34275 0.84357 0.27428 0.0
C3110 C 0.37173 0.87612 0.25541 0.0
C3111 C 0.38701 0.89437 0.24854 0.0
C3112 C 0.35617 0.87931 0.27451 0.0
C3113 C 0.38487 0.91651 0.25938 0.0
C3114 C 0.36912 0.92 0.27793 0.0
C3115 C 0.34291 0.90341 0.30759 0.0
C3116 C 0.33121 0.88388 0.3174 0.0
C3117 C 0.35554 0.9012 0.2864 0.0
C3118 C 0.33036 0.86272 0.30445 0.0
C3119 C 0.34271 0.86047 0.2832 0.0
H3120 H 0.84954 0.36726 0.25832 0.0
H3121 H 0.92181 0.38966 0.2538 0.0
H3122 H 0.92881 0.36199 0.22169 0.0
H3123 H 0.91222 0.33779 0.18987 0.0
H3124 H 0.83998 0.31499 0.19402 0.0
H3125 H 0.83516 0.336 0.23127 0.0
C3126 C 0.86707 0.36514 0.25113 0.0
C3127 C 0.88522 0.38031 0.25856 0.0
C3128 C 0.87079 0.34959 0.23205 0.0
C3129 C 0.90769 0.37792 0.24856 0.0
C3130 C 0.91161 0.36233 0.22994 0.0
C3131 C 0.89562 0.33689 0.19925 0.0
C3132 C 0.87638 0.32525 0.18887 0.0
C3133 C 0.89297 0.34905 0.22071 0.0
C3134 C 0.85505 0.32398 0.20144 0.0
C3135 C 0.85223 0.33612 0.22276 0.0
H3136 H 0.18644 0.86056 0.19839 0.0
H3137 H 0.16061 0.92582 0.16921 0.0
H3138 H 0.13576 0.93174 0.20369 0.0
H3139 H 0.11628 0.91497 0.23848 0.0
H3140 H 0.13995 0.84863 0.266 0.0
H3141 H 0.171 0.84681 0.2366 0.0
C3142 C 0.17587 0.87641 0.19984 0.0
C3143 C 0.17518 0.89255 0.18098 0.0
C3144 C 0.16111 0.87948 0.21958 0.0
C3145 C 0.16133 0.91296 0.18326 0.0
C3146 C 0.14703 0.91635 0.20299 0.0
C3147 C 0.1289 0.90062 0.23861 0.0
C3148 C 0.12618 0.88226 0.25501 0.0
C3149 C 0.14604 0.89925 0.22077 0.0
C3150 C 0.1422 0.86345 0.25451 0.0
C3151 C 0.1597 0.86219 0.23719 0.0
H3152 H 0.39061 0.5971 0.24517 0.0
H3153 H 0.36255 0.66378 0.26755 0.0
H3154 H 0.33418 0.66308 0.2353 0.0
H3155 H 0.32292 0.64702 0.19626 0.0
H3156 H 0.35319 0.58122 0.17306 0.0
H3157 H 0.37473 0.57784 0.21001 0.0
C3158 C 0.3776 0.61101 0.24354 0.0
C3159 C 0.37867 0.63044 0.25892 0.0
C3160 C 0.36202 0.61084 0.22432 0.0
C3161 C 0.36196 0.64847 0.25639 0.0
C3162 C 0.34592 0.64821 0.23759 0.0
C3163 C 0.3337 0.6316 0.19955 0.0
C3164 C 0.33668 0.61455 0.18166 0.0
C3165 C 0.3466 0.63003 0.22075 0.0
C3166 C 0.35076 0.59473 0.18632 0.0
C3167 C 0.36315 0.5928 0.20747 0.0
H3168 H 0.81013 0.36064 0.82356 0.0
H3169 H 0.83805 0.42594 0.85094 0.0
H3170 H 0.80284 0.43144 0.87463 0.0
H3171 H 0.76714 0.41497 0.89215 0.0
H3172 H 0.73858 0.35007 0.86545 0.0
H3173 H 0.77044 0.34739 0.83677 0.0
C3174 C 0.80827 0.37635 0.83428 0.0
C3175 C 0.82705 0.39264 0.83569 0.0
C3176 C 0.78785 0.37939 0.84822 0.0
C3177 C 0.82416 0.41292 0.84966 0.0
C3178 C 0.80398 0.4161 0.8633 0.0
C3179 C 0.76749 0.40055 0.8796 0.0
C3180 C 0.75052 0.38254 0.88128 0.0
C3181 C 0.78614 0.39904 0.8634 0.0
C3182 C 0.75123 0.36411 0.86479 0.0
C3183 C 0.76971 0.3625 0.84842 0.0
H3184 H 0.08399 0.8241 0.85101 0.0
H3185 H 0.15092 0.81569 0.8163 0.0
H3186 H 0.15583 0.77697 0.83451 0.0
H3187 H 0.14392 0.74872 0.86571 0.0
H3188 H 0.07732 0.75825 0.90063 0.0
H3189 H 0.06895 0.79246 0.87621 0.0
C3190 C 0.09937 0.81355 0.84692 0.0
C3191 C 0.11724 0.82308 0.83267 0.0
C3192 C 0.10213 0.7913 0.85754 0.0
C3193 C 0.13693 0.80897 0.82735 0.0
C3194 C 0.13981 0.78678 0.83787 0.0
C3195 C 0.12733 0.75778 0.86746 0.0
C3196 C 0.11145 0.75105 0.88528 0.0
C3197 C 0.12296 0.77816 0.8538 0.0
C3198 C 0.08988 0.76307 0.8871 0.0
C3199 C 0.08518 0.78285 0.87331 0.0
H3200 H 0.74065 0.08618 0.88853 0.0
H3201 H 0.76672 0.15287 0.86388 0.0
H3202 H 0.73566 0.15442 0.83421 0.0
H3203 H 0.6969 0.13979 0.82004 0.0
H3204 H 0.67072 0.07332 0.84611 0.0
H3205 H 0.70595 0.06854 0.87003 0.0
C3206 C 0.74001 0.10069 0.87613 0.0
C3207 C 0.75605 0.11945 0.87856 0.0
C3208 C 0.72167 0.10166 0.85954 0.0
C3209 C 0.7549 0.13814 0.86242 0.0
C3210 C 0.73684 0.13913 0.84556 0.0
C3211 C 0.69919 0.12395 0.83045 0.0
C3212 C 0.6809 0.10709 0.83148 0.0
C3213 C 0.71948 0.12146 0.84465 0.0
C3214 C 0.68427 0.08672 0.84514 0.0
C3215 C 0.70445 0.08397 0.85891 0.0
H3216 H 0.35939 0.75866 0.87003 0.0
H3217 H 0.43379 0.75905 0.8843 0.0
H3218 H 0.43988 0.72777 0.85542 0.0
H3219 H 0.42285 0.69494 0.83288 0.0
H3220 H 0.34824 0.69402 0.81885 0.0
H3221 H 0.34344 0.73095 0.84038 0.0
C3222 C 0.37703 0.75281 0.86584 0.0
C3223 C 0.39617 0.76134 0.87905 0.0
C3224 C 0.38027 0.73416 0.84972 0.0
C3225 C 0.41888 0.75298 0.87404 0.0
C3226 C 0.42231 0.73483 0.85779 0.0
C3227 C 0.40566 0.70318 0.83396 0.0
C3228 C 0.38593 0.69147 0.82463 0.0
C3229 C 0.40297 0.72439 0.84654 0.0
C3230 C 0.36377 0.70253 0.82595 0.0
C3231 C 0.36096 0.72364 0.83842 0.0
H3232 H 0.81227 0.14822 0.68232 0.0
H3233 H 0.83898 0.08111 0.65843 0.0
H3234 H 0.80419 0.07554 0.63409 0.0
H3235 H 0.7698 0.09264 0.61442 0.0
H3236 H 0.74302 0.15975 0.63713 0.0
H3237 H 0.77358 0.16217 0.66735 0.0
C3238 C 0.81021 0.13211 0.67226 0.0
C3239 C 0.82857 0.11533 0.67195 0.0
C3240 C 0.79007 0.12905 0.65793 0.0
C3241 C 0.82542 0.09452 0.65884 0.0
C3242 C 0.80548 0.09129 0.64482 0.0
C3243 C 0.7701 0.10734 0.62664 0.0
C3244 C 0.75395 0.12586 0.62368 0.0
C3245 C 0.78819 0.10884 0.6435 0.0
C3246 C 0.75479 0.14501 0.63932 0.0
C3247 C 0.77261 0.14655 0.65639 0.0
H3248 H 0.35704 0.75219 0.63702 0.0
H3249 H 0.42842 0.75723 0.61216 0.0
H3250 H 0.43582 0.79003 0.63897 0.0
H3251 H 0.41982 0.82172 0.6637 0.0
H3252 H 0.3481 0.81744 0.68818 0.0
H3253 H 0.34307 0.77985 0.66774 0.0
C3254 C 0.37447 0.75969 0.63828 0.0
C3255 C 0.39225 0.75203 0.62279 0.0
C3256 C 0.37837 0.77915 0.65332 0.0
C3257 C 0.41458 0.76257 0.62417 0.0
C3258 C 0.41873 0.78155 0.63929 0.0
C3259 C 0.40329 0.81226 0.66509 0.0
C3260 C 0.38432 0.82262 0.67721 0.0
C3261 C 0.40043 0.79072 0.65308 0.0
C3262 C 0.36304 0.80998 0.67898 0.0
C3263 C 0.36008 0.78849 0.66712 0.0
H3264 H 0.68979 0.41335 0.66455 0.0
H3265 H 0.69 0.34109 0.68815 0.0
H3266 H 0.72733 0.33436 0.66795 0.0
H3267 H 0.75558 0.34707 0.63768 0.0
H3268 H 0.75508 0.41878 0.61337 0.0
H3269 H 0.72244 0.42783 0.63996 0.0
C3270 C 0.69825 0.39627 0.66575 0.0
C3271 C 0.68678 0.37767 0.67754 0.0
C3272 C 0.71968 0.39241 0.65384 0.0
C3273 C 0.69822 0.35573 0.67909 0.0
C3274 C 0.71959 0.35181 0.66742 0.0
C3275 C 0.7493 0.36493 0.63914 0.0
C3276 C 0.75821 0.38235 0.62396 0.0
C3277 C 0.72999 0.36975 0.65397 0.0
C3278 C 0.74889 0.40522 0.62528 0.0
C3279 C 0.72999 0.4103 0.64025 0.0
H3280 H 0.08881 0.7476 0.62063 0.0
H3281 H 0.15747 0.76971 0.64362 0.0
H3282 H 0.15801 0.73843 0.67319 0.0
H3283 H 0.14218 0.70002 0.68651 0.0
H3284 H 0.07455 0.67669 0.6608 0.0
H3285 H 0.07016 0.71318 0.63863 0.0
C3286 C 0.10344 0.74617 0.63285 0.0
C3287 C 0.123 0.76112 0.6301 0.0
C3288 C 0.10399 0.72743 0.64896 0.0
C3289 C 0.14202 0.75888 0.64569 0.0
C3290 C 0.14246 0.74062 0.66234 0.0
C3291 C 0.12618 0.7032 0.6766 0.0
C3292 C 0.10885 0.6854 0.67504 0.0
C3293 C 0.12405 0.72406 0.66327 0.0
C3294 C 0.08827 0.68989 0.66209 0.0
C3295 C 0.08576 0.71077 0.64935 0.0
H3296 H 0.82225 0.80808 0.37042 0.0
H3297 H 0.85968 0.83666 0.43008 0.0
H3298 H 0.88314 0.80078 0.4328 0.0
H3299 H 0.89753 0.76461 0.4142 0.0
H3300 H 0.86252 0.73742 0.35283 0.0
H3301 H 0.83337 0.76883 0.35503 0.0
C3302 C 0.8351 0.80621 0.38441 0.0
C3303 C 0.83936 0.82523 0.39988 0.0
C3304 C 0.84912 0.78572 0.38543 0.0
C3305 C 0.85615 0.82246 0.41783 0.0
C3306 C 0.86965 0.80194 0.41935 0.0
C3307 C 0.88303 0.76511 0.40177 0.0
C3308 C 0.88214 0.74841 0.38345 0.0
C3309 C 0.86695 0.78391 0.40266 0.0
C3310 C 0.86343 0.74949 0.36736 0.0
C3311 C 0.84691 0.76783 0.36845 0.0
H3312 H 0.73154 0.89953 0.41368 0.0
H3313 H 0.77269 0.85907 0.3648 0.0
H3314 H 0.74245 0.82885 0.3634 0.0
H3315 H 0.70103 0.81712 0.37149 0.0
H3316 H 0.66077 0.85746 0.42187 0.0
H3317 H 0.69383 0.88405 0.42755 0.0
C3318 C 0.73422 0.88382 0.40312 0.0
C3319 C 0.75423 0.88219 0.38854 0.0
C3320 C 0.71654 0.86648 0.40251 0.0
C3321 C 0.75747 0.86141 0.37554 0.0
C3322 C 0.73996 0.84399 0.37477 0.0
C3323 C 0.69967 0.8314 0.38411 0.0
C3324 C 0.67813 0.83549 0.39582 0.0
C3325 C 0.71889 0.84687 0.38736 0.0
C3326 C 0.6769 0.85396 0.41232 0.0
C3327 C 0.69583 0.8693 0.41558 0.0
H3328 H 0.68248 0.69503 0.373 0.0
H3329 H 0.64724 0.66643 0.43398 0.0
H3330 H 0.62372 0.7021 0.43745 0.0
H3331 H 0.60871 0.73827 0.41958 0.0
H3332 H 0.64312 0.76713 0.35865 0.0
H3333 H 0.67157 0.73503 0.35903 0.0
C3334 C 0.67008 0.69683 0.38741 0.0
C3335 C 0.6664 0.67778 0.40297 0.0
C3336 C 0.65622 0.71742 0.38916 0.0
C3337 C 0.65029 0.68058 0.42156 0.0
C3338 C 0.63674 0.701 0.42355 0.0
C3339 C 0.62281 0.73791 0.40671 0.0
C3340 C 0.62334 0.75499 0.38875 0.0
C3341 C 0.63888 0.71908 0.4069 0.0
C3342 C 0.64193 0.75433 0.37247 0.0
C3343 C 0.65822 0.73573 0.37263 0.0
H3344 H 0.74424 0.63253 0.36052 0.0
H3345 H 0.75127 0.61223 0.43308 0.0
H3346 H 0.7844 0.63923 0.43778 0.0
H3347 H 0.81576 0.66271 0.41914 0.0
H3348 H 0.80833 0.68376 0.34665 0.0
H3349 H 0.77074 0.66296 0.3441 0.0
C3350 C 0.75203 0.63505 0.37765 0.0
C3351 C 0.74491 0.62068 0.39653 0.0
C3352 C 0.7715 0.65035 0.38007 0.0
C3353 C 0.75613 0.6234 0.4184 0.0
C3354 C 0.77532 0.63862 0.42101 0.0
C3355 C 0.80559 0.6633 0.40299 0.0
C3356 C 0.81505 0.67455 0.38306 0.0
C3357 C 0.78389 0.65129 0.40165 0.0
C3358 C 0.80153 0.67528 0.36229 0.0
C3359 C 0.78005 0.66321 0.36076 0.0
H3360 H 0.82522 0.69364 0.144 0.0
H3361 H 0.85092 0.66786 0.07728 0.0
H3362 H 0.87438 0.70348 0.07232 0.0
H3363 H 0.89252 0.73855 0.08979 0.0
H3364 H 0.86928 0.76317 0.1575 0.0
H3365 H 0.83961 0.73204 0.15902 0.0
C3366 C 0.83546 0.69609 0.12808 0.0
C3367 C 0.83648 0.67788 0.11114 0.0
C3368 C 0.84949 0.71648 0.1256 0.0
C3369 C 0.84995 0.6814 0.09069 0.0
C3370 C 0.86344 0.70178 0.08786 0.0
C3371 C 0.88039 0.73756 0.10451 0.0
C3372 C 0.88292 0.75344 0.12338 0.0
C3373 C 0.86407 0.71896 0.10561 0.0
C3374 C 0.86734 0.75173 0.14249 0.0
C3375 C 0.8506 0.73357 0.14351 0.0
H3376 H 0.75041 0.86848 0.15033 0.0
H3377 H 0.75691 0.88922 0.07777 0.0
H3378 H 0.78795 0.86015 0.07181 0.0
H3379 H 0.81866 0.83541 0.08945 0.0
H3380 H 0.81309 0.81531 0.16244 0.0
H3381 H 0.77624 0.83714 0.16597 0.0
C3382 C 0.75782 0.86585 0.133 0.0
C3383 C 0.75136 0.88097 0.11451 0.0
C3384 C 0.77637 0.84961 0.12995 0.0
C3385 C 0.76151 0.87765 0.09222 0.0
C3386 C 0.7795 0.86123 0.08888 0.0
C3387 C 0.80906 0.83527 0.10595 0.0
C3388 C 0.81893 0.82415 0.12573 0.0
C3389 C 0.78798 0.84812 0.10796 0.0
C3390 C 0.80606 0.82386 0.14692 0.0
C3391 C 0.78498 0.83649 0.14902 0.0
H3392 H 0.62353 0.76543 0.09702 0.0
H3393 H 0.64575 0.74544 0.16646 0.0
H3394 H 0.67711 0.77461 0.16546 0.0
H3395 H 0.69248 0.81126 0.14816 0.0
H3396 H 0.66771 0.83347 0.07985 0.0
H3397 H 0.64345 0.79814 0.07688 0.0
C3398 C 0.63598 0.76678 0.11145 0.0
C3399 C 0.63273 0.7527 0.13154 0.0
C3400 C 0.65316 0.78462 0.11116 0.0
C3401 C 0.64847 0.75509 0.15042 0.0
C3402 C 0.66611 0.77232 0.15003 0.0
C3403 C 0.6823 0.80808 0.13232 0.0
C3404 C 0.68161 0.8253 0.11444 0.0
C3405 C 0.66783 0.78796 0.13098 0.0
C3406 C 0.66836 0.82074 0.09402 0.0
C3407 C 0.6544 0.80053 0.09233 0.0
H3408 H 0.73518 0.60802 0.09205 0.0
H3409 H 0.77169 0.64125 0.14934 0.0
H3410 H 0.742 0.67204 0.15121 0.0
H3411 H 0.70182 0.6855 0.14071 0.0
H3412 H 0.66543 0.65167 0.0831 0.0
H3413 H 0.69884 0.62556 0.07693 0.0
C3414 C 0.73702 0.62237 0.10455 0.0
C3415 C 0.75559 0.62191 0.12099 0.0
C3416 C 0.71951 0.63983 0.10561 0.0
C3417 C 0.75773 0.64081 0.13676 0.0
C3418 C 0.74049 0.65845 0.13787 0.0
C3419 C 0.70141 0.67284 0.12641 0.0
C3420 C 0.68083 0.67031 0.1127 0.0
C3421 C 0.7207 0.65752 0.12307 0.0
C3422 C 0.6808 0.65386 0.09416 0.0
C3423 C 0.69993 0.63882 0.09063 0.0
H3424 H 0.35332 0.87589 0.74966 0.0
H3425 H 0.42495 0.90059 0.75132 0.0
H3426 H 0.43388 0.87393 0.78379 0.0
H3427 H 0.4194 0.84927 0.81625 0.0
H3428 H 0.34783 0.82404 0.81496 0.0
H3429 H 0.34087 0.84475 0.77789 0.0
C3430 C 0.37112 0.87452 0.75641 0.0
C3431 C 0.38858 0.88993 0.7479 0.0
C3432 C 0.37598 0.85946 0.77563 0.0
C3433 C 0.41139 0.88857 0.75732 0.0
C3434 C 0.41641 0.87356 0.77612 0.0
C3435 C 0.40246 0.84781 0.80754 0.0
C3436 C 0.38412 0.83537 0.81859 0.0
C3437 C 0.39857 0.85979 0.78617 0.0
C3438 C 0.36231 0.83349 0.80693 0.0
C3439 C 0.35825 0.84549 0.78573 0.0
H3440 H 0.3605 0.63818 0.75881 0.0
H3441 H 0.43223 0.61433 0.75323 0.0
H3442 H 0.4393 0.64154 0.72081 0.0
H3443 H 0.42289 0.66621 0.68936 0.0
H3444 H 0.35128 0.69057 0.69454 0.0
H3445 H 0.34641 0.66959 0.73176 0.0
C3446 C 0.37793 0.63983 0.75122 0.0
C3447 C 0.39591 0.62445 0.75849 0.0
C3448 C 0.38172 0.65523 0.73205 0.0
C3449 C 0.41825 0.62623 0.74806 0.0
C3450 C 0.42222 0.64159 0.72931 0.0
C3451 C 0.40645 0.66747 0.69899 0.0
C3452 C 0.38742 0.67969 0.68901 0.0
C3453 C 0.40376 0.65528 0.7204 0.0
C3454 C 0.36625 0.6813 0.70179 0.0
C3455 C 0.36338 0.66913 0.72306 0.0
H3456 H 0.89339 0.42179 0.74182 0.0
H3457 H 0.8678 0.35621 0.76977 0.0
H3458 H 0.83829 0.354 0.73859 0.0
H3459 H 0.82477 0.36737 0.6992 0.0
H3460 H 0.85297 0.43173 0.67028 0.0
H3461 H 0.87608 0.43798 0.70593 0.0
C3462 C 0.88084 0.40736 0.74153 0.0
C3463 C 0.88296 0.3891 0.75818 0.0
C3464 C 0.86456 0.40586 0.72296 0.0
C3465 C 0.8666 0.37056 0.7575 0.0
C3466 C 0.84983 0.36919 0.73936 0.0
C3467 C 0.83544 0.3831 0.70099 0.0
C3468 C 0.83726 0.39899 0.68193 0.0
C3469 C 0.84938 0.38622 0.72137 0.0
C3470 C 0.85134 0.41917 0.68454 0.0
C3471 C 0.86465 0.42271 0.70492 0.0
H3472 H 0.09235 0.89695 0.74157 0.0
H3473 H 0.15892 0.87349 0.76879 0.0
H3474 H 0.16092 0.84281 0.73887 0.0
H3475 H 0.14689 0.82737 0.70059 0.0
H3476 H 0.08064 0.85214 0.67275 0.0
H3477 H 0.07522 0.87716 0.70716 0.0
C3478 C 0.10687 0.88453 0.74146 0.0
C3479 C 0.12533 0.88735 0.75773 0.0
C3480 C 0.10816 0.86738 0.72361 0.0
C3481 C 0.1442 0.87141 0.75711 0.0
C3482 C 0.14551 0.85404 0.7396 0.0
C3483 C 0.13097 0.83777 0.70232 0.0
C3484 C 0.11441 0.83813 0.6838 0.0
C3485 C 0.12806 0.85252 0.72212 0.0
C3486 C 0.09386 0.85169 0.68649 0.0
C3487 C 0.09074 0.8661 0.70619 0.0
H3488 H 0.63749 0.14462 0.75634 0.0
H3489 H 0.60987 0.07418 0.75063 0.0
H3490 H 0.63681 0.06573 0.71834 0.0
H3491 H 0.66219 0.08089 0.68687 0.0
H3492 H 0.69043 0.15119 0.69217 0.0
H3493 H 0.66954 0.15715 0.7293 0.0
C3494 C 0.63814 0.12715 0.74875 0.0
C3495 C 0.62173 0.11001 0.75595 0.0
C3496 C 0.65336 0.12259 0.72957 0.0
C3497 C 0.62248 0.08757 0.74553 0.0
C3498 C 0.63769 0.08281 0.72683 0.0
C3499 C 0.66434 0.09726 0.6965 0.0
C3500 C 0.67746 0.11568 0.68643 0.0
C3501 C 0.65231 0.10056 0.71792 0.0
C3502 C 0.68027 0.13673 0.6993 0.0
C3503 C 0.66821 0.14021 0.72058 0.0
H3504 H 0.13616 0.68885 0.80626 0.0
H3505 H 0.07835 0.65345 0.84066 0.0
H3506 H 0.07373 0.62746 0.80685 0.0
H3507 H 0.09005 0.61075 0.77059 0.0
H3508 H 0.14808 0.64526 0.73646 0.0
H3509 H 0.14839 0.67572 0.76651 0.0
C3510 C 0.12215 0.67587 0.80613 0.0
C3511 C 0.10787 0.67293 0.82624 0.0
C3512 C 0.11979 0.66058 0.78667 0.0
C3513 C 0.08978 0.656 0.82562 0.0
C3514 C 0.08716 0.64102 0.80628 0.0
C3515 C 0.10241 0.62528 0.76937 0.0
C3516 C 0.1193 0.6254 0.75121 0.0
C3517 C 0.10267 0.64253 0.78715 0.0
C3518 C 0.13497 0.64447 0.74993 0.0
C3519 C 0.13523 0.66192 0.76742 0.0
H3520 H 0.82398 0.14765 0.80762 0.0
H3521 H 0.84279 0.07772 0.83077 0.0
H3522 H 0.86755 0.07258 0.79613 0.0
H3523 H 0.88911 0.09041 0.76321 0.0
H3524 H 0.87238 0.1608 0.74129 0.0
H3525 H 0.84125 0.16319 0.77078 0.0
C3526 C 0.83298 0.13104 0.80477 0.0
C3527 C 0.83176 0.11322 0.82206 0.0
C3528 C 0.84769 0.12834 0.78494 0.0
C3529 C 0.84358 0.09184 0.81798 0.0
C3530 C 0.85783 0.08889 0.79816 0.0
C3531 C 0.87799 0.10592 0.76433 0.0
C3532 C 0.88272 0.12529 0.74965 0.0
C3533 C 0.86079 0.10737 0.78207 0.0
C3534 C 0.86856 0.14543 0.75161 0.0
C3535 C 0.85103 0.14691 0.76892 0.0
H3536 H 0.62412 0.42223 0.76384 0.0
H3537 H 0.63397 0.35131 0.73935 0.0
H3538 H 0.66355 0.34444 0.76977 0.0
H3539 H 0.68126 0.3567 0.80782 0.0
H3540 H 0.66937 0.42746 0.83308 0.0
H3541 H 0.64629 0.43637 0.79808 0.0
C3542 C 0.63342 0.40555 0.76463 0.0
C3543 C 0.62705 0.38737 0.74902 0.0
C3544 C 0.64974 0.40157 0.78283 0.0
C3545 C 0.63892 0.36575 0.75055 0.0
C3546 C 0.6556 0.36173 0.76834 0.0
C3547 C 0.67413 0.37425 0.80539 0.0
C3548 C 0.67681 0.39127 0.82335 0.0
C3549 C 0.66038 0.37921 0.78525 0.0
C3550 C 0.6674 0.41391 0.81979 0.0
C3551 C 0.65413 0.41904 0.79973 0.0
H3552 H 0.99146 0.64547 0.30915 0.0
H3553 H 0.96394 0.69286 0.25677 0.0
H3554 H 0.99508 0.68069 0.22918 0.0
H3555 H 0.03242 0.65897 0.22198 0.0
H3556 H 0.05849 0.61137 0.27481 0.0
H3557 H 0.02502 0.62029 0.29984 0.0
C3558 C 0.99225 0.65309 0.29166 0.0
C3559 C 0.97591 0.67043 0.28512 0.0
C3560 C 0.00978 0.64573 0.27594 0.0
C3561 C 0.9766 0.67968 0.26221 0.0
C3562 C 0.99435 0.67269 0.24648 0.0
C3563 C 0.03063 0.65044 0.23874 0.0
C3564 C 0.04848 0.63525 0.24669 0.0
C3565 C 0.01138 0.65606 0.25338 0.0
C3566 C 0.04535 0.62356 0.26831 0.0
C3567 C 0.02626 0.62876 0.28279 0.0
H3568 H 0.85669 0.95955 0.27315 0.0
H3569 H 0.7957 0.99623 0.29987 0.0
H3570 H 0.80449 0.02979 0.27452 0.0
H3571 H 0.83327 0.05119 0.25057 0.0
H3572 H 0.89586 0.01616 0.22624 0.0
H3573 H 0.88267 0.97926 0.24454 0.0
C3574 C 0.84496 0.97462 0.27296 0.0
C3575 C 0.82576 0.97556 0.28864 0.0
C3576 C 0.8506 0.99421 0.25893 0.0
C3577 C 0.81075 0.99522 0.28819 0.0
C3578 C 0.81581 0.01444 0.27376 0.0
C3579 C 0.84354 0.03518 0.24863 0.0
C3580 C 0.86519 0.03601 0.23682 0.0
C3581 C 0.83624 0.01451 0.25992 0.0
C3582 C 0.87883 0.01557 0.23479 0.0
C3583 C 0.8714 0.99463 0.2455 0.0
H3584 H 0.54321 0.8682 0.27935 0.0
H3585 H 0.50955 0.80305 0.29938 0.0
H3586 H 0.47676 0.8116 0.27291 0.0
H3587 H 0.45522 0.8401 0.24855 0.0
H3588 H 0.48657 0.90716 0.23219 0.0
H3589 H 0.52293 0.89538 0.25243 0.0
C3590 C 0.52895 0.85562 0.27759 0.0
C3591 C 0.52883 0.83498 0.29139 0.0
C3592 C 0.50967 0.86117 0.2631 0.0
C3593 C 0.51009 0.81901 0.28898 0.0
C3594 C 0.49128 0.82396 0.27393 0.0
C3595 C 0.47031 0.85183 0.24896 0.0
C3596 C 0.46855 0.87431 0.23883 0.0
C3597 C 0.49054 0.84532 0.26153 0.0
C3598 C 0.4878 0.8897 0.23976 0.0
C3599 C 0.50845 0.88299 0.25144 0.0
H3600 H 0.6645 0.44418 0.26283 0.0
H3601 H 0.60513 0.48202 0.23481 0.0
H3602 H 0.61753 0.51764 0.25604 0.0
H3603 H 0.64286 0.53632 0.28594 0.0
H3604 H 0.70085 0.49722 0.31572 0.0
H3605 H 0.69167 0.46383 0.29015 0.0
C3606 C 0.6546 0.46042 0.26104 0.0
C3607 C 0.63417 0.46076 0.24711 0.0
C3608 C 0.66151 0.48045 0.27377 0.0
C3609 C 0.62114 0.4816 0.24513 0.0
C3610 C 0.62815 0.50184 0.25742 0.0
C3611 C 0.65378 0.52067 0.28656 0.0
C3612 C 0.67243 0.51923 0.30291 0.0
C3613 C 0.64799 0.50128 0.27225 0.0
C3614 C 0.68633 0.49876 0.30346 0.0
C3615 C 0.68103 0.47962 0.28889 0.0
H3616 H 0.02027 0.88329 0.27044 0.0
H3617 H 0.06877 0.82874 0.24978 0.0
H3618 H 0.0377 0.80845 0.22813 0.0
H3619 H 0.9985 0.80929 0.21044 0.0
H3620 H 0.94953 0.86383 0.23039 0.0
H3621 H 0.97861 0.88063 0.25727 0.0
C3622 C 0.0237 0.8666 0.2618 0.0
C3623 C 0.04661 0.85739 0.26168 0.0
C3624 C 0.00573 0.85515 0.24899 0.0
C3625 C 0.05112 0.83601 0.25008 0.0
C3626 C 0.03343 0.82446 0.23762 0.0
C3627 C 0.99401 0.82457 0.22101 0.0
C3628 C 0.97203 0.83547 0.21807 0.0
C3629 C 0.0109 0.83433 0.23622 0.0
C3630 C 0.9664 0.85512 0.23215 0.0
C3631 C 0.98309 0.86487 0.24746 0.0
H3632 H 0.67659 0.04171 0.27379 0.0
H3633 H 0.60919 0.0364 0.23947 0.0
H3634 H 0.62313 1.00276 0.21651 0.0
H3635 H 0.65603 0.97889 0.20234 0.0
H3636 H 0.72369 0.98351 0.23635 0.0
H3637 H 0.7081 0.01316 0.26375 0.0
C3638 C 0.66464 0.03236 0.26222 0.0
C3639 C 0.64177 0.04112 0.25859 0.0
C3640 C 0.67303 0.01336 0.24866 0.0
C3641 C 0.62676 0.02969 0.24266 0.0
C3642 C 0.6348 0.01064 0.2294 0.0
C3643 C 0.66728 0.9862 0.21595 0.0
C3644 C 0.69105 0.97947 0.21711 0.0
C3645 C 0.65817 1.003 0.23157 0.0
C3646 C 0.70536 0.98861 0.23507 0.0
C3647 C 0.69645 0.00557 0.25068 0.0
H3648 H 0.485 0.63684 0.28022 0.0
H3649 H 0.43371 0.67944 0.24403 0.0
H3650 H 0.46473 0.69908 0.22197 0.0
H3651 H 0.50566 0.70102 0.2096 0.0
H3652 H 0.5576 0.65763 0.24404 0.0
H3653 H 0.52745 0.64213 0.27058 0.0
C3654 C 0.48082 0.65087 0.26801 0.0
C3655 C 0.4572 0.65688 0.26388 0.0
C3656 C 0.49887 0.6619 0.25493 0.0
C3657 C 0.45184 0.67463 0.24751 0.0
C3658 C 0.46955 0.68586 0.23486 0.0
C3659 C 0.51053 0.68849 0.22316 0.0
C3660 C 0.53382 0.68028 0.22452 0.0
C3661 C 0.49304 0.67919 0.23792 0.0
C3662 C 0.53977 0.66416 0.2424 0.0
C3663 C 0.52248 0.65515 0.25754 0.0
H3664 H 0.85181 0.52487 0.20645 0.0
H3665 H 0.78111 0.5133 0.23154 0.0
H3666 H 0.79582 0.48438 0.26006 0.0
H3667 H 0.82823 0.45855 0.27358 0.0
H3668 H 0.89864 0.47046 0.24816 0.0
H3669 H 0.88469 0.50328 0.22404 0.0
C3670 C 0.83963 0.5162 0.21834 0.0
C3671 C 0.81537 0.52088 0.21664 0.0
C3672 C 0.84821 0.49972 0.2346 0.0
C3673 C 0.79985 0.50988 0.23243 0.0
C3674 C 0.80826 0.49331 0.24868 0.0
C3675 C 0.84066 0.46917 0.26375 0.0
C3676 C 0.86452 0.46256 0.26306 0.0
C3677 C 0.83235 0.48766 0.2495 0.0
C3678 C 0.88028 0.47554 0.24919 0.0
C3679 C 0.87226 0.49412 0.23525 0.0
H3680 H 0.29146 0.99436 0.68534 0.0
H3681 H 0.30735 0.96971 0.61535 0.0
H3682 H 0.28027 0.9986 0.59856 0.0
H3683 H 0.25545 0.03395 0.60367 0.0
H3684 H 0.23809 0.05719 0.6737 0.0
H3685 H 0.26155 0.02551 0.6906 0.0
C3686 C 0.28868 0.99519 0.66646 0.0
C3687 C 0.30153 0.98027 0.65155 0.0
C3688 C 0.27263 0.01147 0.65694 0.0
C3689 C 0.29762 0.98114 0.62714 0.0
C3690 C 0.28219 0.99767 0.61751 0.0
C3691 C 0.25623 0.03149 0.62259 0.0
C3692 C 0.24476 0.04755 0.63742 0.0
C3693 C 0.27 0.0133 0.6322 0.0
C3694 C 0.24617 0.04457 0.66193 0.0
C3695 C 0.25996 0.0267 0.67163 0.0
H3696 H 0.45387 0.24603 0.67759 0.0
H3697 H 0.4824 0.25671 0.60826 0.0
H3698 H 0.51194 0.28383 0.62429 0.0
H3699 H 0.5247 0.30965 0.65673 0.0
H3700 H 0.49252 0.30247 0.72513 0.0
H3701 H 0.46941 0.26897 0.71094 0.0
C3702 C 0.4672 0.25357 0.6662 0.0
C3703 C 0.46631 0.24908 0.64185 0.0
C3704 C 0.48302 0.27036 0.67535 0.0
C3705 C 0.48312 0.25955 0.62711 0.0
C3706 C 0.49975 0.27533 0.63625 0.0
C3707 C 0.51299 0.30047 0.66869 0.0
C3708 C 0.51019 0.30876 0.69194 0.0
C3709 C 0.49912 0.28172 0.66016 0.0
C3710 C 0.49483 0.29667 0.70711 0.0
C3711 C 0.48162 0.27747 0.699 0.0
H3712 H 0.20223 0.52901 0.64963 0.0
H3713 H 0.22563 0.51717 0.72079 0.0
H3714 H 0.25531 0.48908 0.70652 0.0
H3715 H 0.27058 0.46411 0.67405 0.0
H3716 H 0.24756 0.47721 0.60303 0.0
H3717 H 0.22187 0.50885 0.61688 0.0
C3718 C 0.21396 0.52039 0.662 0.0
C3719 C 0.21147 0.52471 0.68625 0.0
C3720 C 0.2311 0.50463 0.65363 0.0
C3721 C 0.22711 0.51391 0.70206 0.0
C3722 C 0.24404 0.49787 0.69389 0.0
C3723 C 0.26096 0.4748 0.66151 0.0
C3724 C 0.2614 0.46877 0.63746 0.0
C3725 C 0.24583 0.49269 0.66974 0.0
C3726 C 0.24779 0.48185 0.62153 0.0
C3727 C 0.2329 0.49973 0.6295 0.0
H3728 H 0.03042 0.25339 0.61287 0.0
H3729 H 0.05469 0.27649 0.68083 0.0
H3730 H 0.02404 0.25319 0.70015 0.0
H3731 H 0.99333 0.22203 0.69766 0.0
H3732 H 0.96771 0.20106 0.62936 0.0
H3733 H 0.99571 0.22747 0.61026 0.0
C3734 C 0.02838 0.25393 0.63185 0.0
C3735 C 0.04445 0.2669 0.6454 0.0
C3736 C 0.0108 0.24035 0.64281 0.0
C3737 C 0.04206 0.26714 0.67002 0.0
C3738 C 0.02478 0.25348 0.68109 0.0
C3739 C 0.99377 0.22354 0.67864 0.0
C3740 C 0.97874 0.20945 0.66491 0.0
C3741 C 0.00955 0.23934 0.6677 0.0
C3742 C 0.97918 0.21173 0.64028 0.0
C3743 C 0.9952 0.2268 0.62932 0.0
H3744 H 0.26537 0.4768 0.89291 0.0
H3745 H 0.22847 0.45802 0.82955 0.0
H3746 H 0.24995 0.4876 0.80747 0.0
H3747 H 0.28368 0.51469 0.80479 0.0
H3748 H 0.32382 0.53004 0.8675 0.0
H3749 H 0.29728 0.50593 0.89088 0.0
C3750 C 0.2615 0.47986 0.87446 0.0
C3751 C 0.24428 0.46613 0.86323 0.0
C3752 C 0.27525 0.49583 0.86147 0.0
C3753 C 0.24017 0.46954 0.83908 0.0
C3754 C 0.2531 0.48601 0.82622 0.0
C3755 C 0.28642 0.51299 0.82361 0.0
C3756 C 0.30592 0.52391 0.83423 0.0
C3757 C 0.27126 0.4987 0.83704 0.0
C3758 C 0.30918 0.52154 0.8587 0.0
C3759 C 0.29393 0.50781 0.87219 0.0
H3760 H 0.05022 0.23982 0.83278 0.0
H3761 H 0.03035 0.26009 0.90307 0.0
H3762 H 0.99955 0.28573 0.88726 0.0
H3763 H 0.98174 0.30586 0.85342 0.0
H3764 H 1.00135 0.28565 0.78292 0.0
H3765 H 0.02864 0.25619 0.79876 0.0
C3766 C 0.03831 0.24884 0.84464 0.0
C3767 C 0.04208 0.24756 0.8691 0.0
C3768 C 0.02105 0.26401 0.83533 0.0
C3769 C 0.02744 0.26049 0.88423 0.0
C3770 C 0.01004 0.27534 0.87516 0.0
C3771 C 0.99183 0.29486 0.8415 0.0
C3772 C 0.98983 0.2982 0.81702 0.0
C3773 C 0.00727 0.27786 0.85074 0.0
C3774 C 1.00268 0.28351 0.80182 0.0
C3775 C 0.01827 0.26667 0.81088 0.0
H3776 H 0.19543 0.99132 0.86101 0.0
H3777 H 0.2315 0.99177 0.79421 0.0
H3778 H 0.26114 0.01879 0.81025 0.0
H3779 H 0.27356 0.0461 0.84197 0.0
H3780 H 0.23672 0.04594 0.90806 0.0
H3781 H 0.21085 0.01456 0.89391 0.0
C3782 C 0.20984 0.99722 0.84996 0.0
C3783 C 0.211 0.98992 0.8263 0.0
C3784 C 0.22676 0.01265 0.85931 0.0
C3785 C 0.23008 0.99731 0.8124 0.0
C3786 C 0.24703 0.01275 0.82158 0.0
C3787 C 0.26059 0.03842 0.85352 0.0
C3788 C 0.25721 0.04809 0.87604 0.0
C3789 C 0.24524 0.02095 0.84487 0.0
C3790 C 0.23974 0.03861 0.8907 0.0
C3791 C 0.22478 0.02087 0.88251 0.0
H3792 H 0.51387 0.23183 0.8002 0.0
H3793 H 0.53039 0.18913 0.86086 0.0
H3794 H 0.50557 0.21381 0.8855 0.0
H3795 H 0.47556 0.24468 0.88912 0.0
H3796 H 0.45604 0.28487 0.82801 0.0
H3797 H 0.48605 0.26496 0.80467 0.0
C3798 C 0.51231 0.22817 0.81887 0.0
C3799 C 0.52377 0.20844 0.82851 0.0
C3800 C 0.4976 0.24229 0.83304 0.0
C3801 C 0.52153 0.20397 0.8528 0.0
C3802 C 0.50736 0.21813 0.867 0.0
C3803 C 0.4785 0.24957 0.8709 0.0
C3804 C 0.46441 0.26707 0.86063 0.0
C3805 C 0.49483 0.23696 0.85722 0.0
C3806 C 0.46771 0.27264 0.83676 0.0
C3807 C 0.48446 0.26072 0.8232 0.0
H3808 H 0.67388 0.23616 0.0461 0.0
H3809 H 0.60362 0.26245 0.03577 0.0
H3810 H 0.6173 0.28652 1.0027 0.0
H3811 H 0.65005 0.30298 0.97976 0.0
H3812 H 0.72042 0.27627 0.98986 0.0
H3813 H 0.70583 0.24869 0.01963 0.0
C3814 C 0.66134 0.24603 0.03574 0.0
C3815 C 0.63763 0.2469 0.04278 0.0
C3816 C 0.66948 0.26003 0.01705 0.0
C3817 C 0.62185 0.26122 0.03032 0.0
C3818 C 0.62972 0.27508 0.01157 0.0
C3819 C 0.66216 0.29093 0.98829 0.0
C3820 C 0.68634 0.29187 0.98287 0.0
C3821 C 0.65363 0.27514 0.00527 0.0
C3822 C 0.70176 0.27593 0.99378 0.0
C3823 C 0.69342 0.26021 0.01083 0.0
H3824 H 0.64375 0.22701 0.54023 0.0
H3825 H 0.69949 0.1959 0.49881 0.0
H3826 H 0.68799 0.21973 0.46511 0.0
H3827 H 0.65922 0.24522 0.44603 0.0
H3828 H 0.60363 0.27722 0.48636 0.0
H3829 H 0.61773 0.25696 0.52198 0.0
C3830 C 0.65366 0.22575 0.52398 0.0
C3831 C 0.67228 0.20937 0.52202 0.0
C3832 C 0.64676 0.23938 0.50444 0.0
C3833 C 0.685 0.20814 0.50084 0.0
C3834 C 0.67837 0.22169 0.48148 0.0
C3835 C 0.65067 0.24838 0.46279 0.0
C3836 C 0.63075 0.26297 0.46381 0.0
C3837 C 0.65887 0.23674 0.48289 0.0
C3838 C 0.61922 0.2663 0.48536 0.0
C3839 C 0.62724 0.25464 0.50561 0.0
H3840 H 0.2791 0.6304 0.44732 0.0
H3841 H 0.21294 0.64713 0.48025 0.0
H3842 H 0.23351 0.66151 0.51503 0.0
H3843 H 0.27114 0.67159 0.53526 0.0
H3844 H 0.33662 0.65983 0.49851 0.0
H3845 H 0.31556 0.64198 0.46582 0.0
C3846 C 0.26894 0.63689 0.46212 0.0
C3847 C 0.24415 0.63709 0.46113 0.0
C3848 C 0.28101 0.64663 0.48128 0.0
C3849 C 0.23174 0.64607 0.48053 0.0
C3850 C 0.24365 0.65466 0.50039 0.0
C3851 C 0.28068 0.66519 0.52001 0.0
C3852 C 0.30539 0.66712 0.51929 0.0
C3853 C 0.26836 0.65542 0.5008 0.0
C3854 C 0.3176 0.65886 0.49941 0.0
C3855 C 0.30559 0.64843 0.48077 0.0
H3856 H 0.88124 0.28243 0.53603 0.0
H3857 H 0.80939 0.28912 0.51217 0.0
H3858 H 0.81808 0.26377 0.47843 0.0
H3859 H 0.84718 0.24415 0.45337 0.0
H3860 H 0.91963 0.24007 0.47511 0.0
H3861 H 0.90976 0.26004 0.51224 0.0
C3862 C 0.86735 0.278 0.52371 0.0
C3863 C 0.84469 0.28774 0.52656 0.0
C3864 C 0.8727 0.26411 0.50392 0.0
C3865 C 0.82697 0.28196 0.5103 0.0
C3866 C 0.83196 0.26752 0.491 0.0
C3867 C 0.86063 0.24698 0.46657 0.0
C3868 C 0.88398 0.24036 0.46187 0.0
C3869 C 0.8549 0.2591 0.4873 0.0
C3870 C 0.90151 0.24487 0.47862 0.0
C3871 C 0.89585 0.25634 0.49972 0.0
H3872 H 0.20877 0.80174 0.48802 0.0
H3873 H 0.2166 0.85001 0.5462 0.0
H3874 H 0.24555 0.87272 0.52392 0.0
H3875 H 0.2645 0.88206 0.48546 0.0
H3876 H 0.25404 0.83444 0.42729 0.0
H3877 H 0.23073 0.80832 0.45188 0.0
C3878 C 0.21713 0.81694 0.49605 0.0
C3879 C 0.21018 0.82431 0.51859 0.0
C3880 C 0.23331 0.83025 0.48297 0.0
C3881 C 0.22142 0.84399 0.52876 0.0
C3882 C 0.23793 0.85712 0.51597 0.0
C3883 C 0.25756 0.86567 0.47852 0.0
C3884 C 0.26128 0.85987 0.4548 0.0
C3885 C 0.24339 0.85094 0.4927 0.0
C3886 C 0.25184 0.83886 0.44571 0.0
C3887 C 0.23828 0.82404 0.45968 0.0
H3888 H 0.82419 0.26743 0.04605 0.0
H3889 H 0.89518 0.24392 0.03383 0.0
H3890 H 0.88223 0.22183 0.99914 0.0
H3891 H 0.84996 0.20481 0.9762 0.0
H3892 H 0.77853 0.22724 0.98891 0.0
H3893 H 0.79237 0.25466 0.01925 0.0
C3894 C 0.83694 0.25846 0.03504 0.0
C3895 C 0.86067 0.25768 0.04199 0.0
C3896 C 0.82917 0.24524 0.0156 0.0
C3897 C 0.87691 0.24498 0.02845 0.0
C3898 C 0.86946 0.23221 0.0088 0.0
C3899 C 0.83744 0.21595 0.98538 0.0
C3900 C 0.81323 0.21374 0.98063 0.0
C3901 C 0.8455 0.23146 1.00283 0.0
C3902 C 0.79725 0.22855 0.99234 0.0
C3903 C 0.80515 0.24416 0.00973 0.0
H3904 H 0.2868 0.85759 0.96939 0.0
H3905 H 0.31664 0.79867 0.00699 0.0
H3906 H 0.29029 0.80623 0.0401 0.0
H3907 H 0.26251 0.83251 0.06028 0.0
H3908 H 0.23559 0.89367 0.02456 0.0
H3909 H 0.2567 0.88224 0.98861 0.0
C3910 C 0.28724 0.84612 0.98463 0.0
C3911 C 0.30374 0.8276 0.98573 0.0
C3912 C 0.27261 0.85111 1.00398 0.0
C3913 C 0.30416 0.81303 0.0057 0.0
C3914 C 0.28916 0.8174 0.02468 0.0
C3915 C 0.26089 0.84296 0.04437 0.0
C3916 C 0.24735 0.86364 0.04473 0.0
C3917 C 0.27385 0.83679 0.02428 0.0
C3918 C 0.2456 0.87744 0.02439 0.0
C3919 C 0.25785 0.87101 1.00398 0.0
H3920 H 0.25232 0.67609 0.05579 0.0
H3921 H 0.28385 0.61673 0.02073 0.0
H3922 H 0.265 0.62828 0.98363 0.0
H3923 H 0.23503 0.652 0.96312 0.0
H3924 H 0.20174 0.71 0.99942 0.0
H3925 H 0.22611 0.70259 0.03401 0.0
C3926 C 0.25545 0.66607 0.03981 0.0
C3927 C 0.2696 0.64584 0.04069 0.0
C3928 C 0.24404 0.67248 0.01891 0.0
C3929 C 0.27345 0.63268 0.02019 0.0
C3930 C 0.26245 0.63917 0.9991 0.0
C3931 C 0.23346 0.66337 0.97839 0.0
C3932 C 0.21631 0.68132 0.9788 0.0
C3933 C 0.24708 0.65859 0.99848 0.0
C3934 C 0.21459 0.69591 0.99873 0.0
C3935 C 0.22846 0.69163 0.01855 0.0
H3936 H 0.04119 0.36636 0.72767 0.0
H3937 H 1.0023 0.30809 0.69787 0.0
H3938 H 0.96857 0.31771 0.72262 0.0
H3939 H 0.94861 0.34533 0.74881 0.0
H3940 H 0.98612 0.40435 0.7781 0.0
H3941 H 0.0221 0.39192 0.75739 0.0
C3942 C 0.0255 0.35549 0.72692 0.0
C3943 C 0.02415 0.33669 0.71071 0.0
C3944 C 0.00593 0.36144 0.74088 0.0
C3945 C 1.0037 0.32279 0.70998 0.0
C3946 C 0.98439 0.32831 0.72407 0.0
C3947 C 0.96488 0.35508 0.75112 0.0
C3948 C 0.96509 0.37534 0.76525 0.0
C3949 C 0.98509 0.348 0.73897 0.0
C3950 C 0.98589 0.38837 0.76768 0.0
C3951 C 0.00631 0.38133 0.75572 0.0
H3952 H 0.17375 0.95573 0.75354 0.0
H3953 H 0.10997 0.98899 0.77728 0.0
H3954 H 0.12167 0.02586 0.75792 0.0
H3955 H 0.14743 0.04635 0.72965 0.0
H3956 H 0.20988 0.01155 0.70375 0.0
H3957 H 0.20163 0.97766 0.72887 0.0
C3958 C 0.16281 0.97135 0.75499 0.0
C3959 C 0.14135 0.97005 0.76716 0.0
C3960 C 0.16932 0.99202 0.74317 0.0
C3961 C 0.12687 0.98996 0.76852 0.0
C3962 C 0.13346 0.01087 0.75722 0.0
C3963 C 0.15953 0.03158 0.72985 0.0
C3964 C 0.17911 0.03139 0.71459 0.0
C3965 C 0.15429 0.01184 0.74385 0.0
C3966 C 0.19458 0.01208 0.71513 0.0
C3967 C 0.18983 0.99265 0.72943 0.0
H3968 H 0.55668 0.16658 0.75266 0.0
H3969 H 0.52037 0.10311 0.7726 0.0
H3970 H 0.48436 0.11751 0.75342 0.0
H3971 H 0.46522 0.14604 0.72687 0.0
H3972 H 0.50308 0.20833 0.70511 0.0
H3973 H 0.53645 0.19682 0.72964 0.0
C3974 C 0.54068 0.15623 0.75337 0.0
C3975 C 0.5409 0.13406 0.76427 0.0
C3976 C 0.52047 0.16437 0.74181 0.0
C3977 C 0.52036 0.1204 0.76456 0.0
C3978 C 0.49989 0.1286 0.75348 0.0
C3979 C 0.48056 0.15738 0.72787 0.0
C3980 C 0.48173 0.17794 0.71397 0.0
C3981 C 0.49998 0.15027 0.74146 0.0
C3982 C 0.50178 0.19236 0.71546 0.0
C3983 C 0.5209 0.18574 0.72941 0.0
H3984 H 0.35546 0.46815 0.73164 0.0
H3985 H 0.30477 0.51291 0.69685 0.0
H3986 H 0.31718 0.54613 0.72111 0.0
H3987 H 0.34584 0.56355 0.74794 0.0
H3988 H 0.3973 0.52 0.78251 0.0
H3989 H 0.38125 0.48503 0.76255 0.0
C3990 C 0.34679 0.48504 0.72969 0.0
C3991 C 0.3294 0.48809 0.71217 0.0
C3992 C 0.35434 0.50427 0.74346 0.0
C3993 C 0.31834 0.51011 0.70996 0.0
C3994 C 0.32547 0.52915 0.72379 0.0
C3995 C 0.35303 0.54627 0.75172 0.0
C3996 C 0.37236 0.54416 0.767 0.0
C3997 C 0.34394 0.52658 0.73997 0.0
C3998 C 0.38208 0.52188 0.77121 0.0
C3999 C 0.37302 0.50199 0.75962 0.0
H4000 H 0.95644 0.17352 0.74628 0.0
H4001 H 0.98051 0.10165 0.7439 0.0
H4002 H 0.01745 0.11316 0.7632 0.0
H4003 H 0.04028 0.14273 0.785 0.0
H4004 H 0.01346 0.21347 0.79212 0.0
H4005 H 0.98023 0.2036 0.76645 0.0
C4006 C 0.97009 0.16057 0.74956 0.0
C4007 C 0.96619 0.13691 0.74351 0.0
C4008 C 0.99057 0.16715 0.76167 0.0
C4009 C 0.98348 0.12 0.74824 0.0
C4010 C 0.00445 0.12658 0.75935 0.0
C4011 C 0.02746 0.15614 0.78048 0.0
C4012 C 0.02933 0.17886 0.79028 0.0
C4013 C 0.00786 0.14998 0.76675 0.0
C4014 C 0.01236 0.19592 0.7847 0.0
C4015 C 0.99335 0.19024 0.77013 0.0
H4016 H 0.30409 0.02537 0.77008 0.0
H4017 H 0.36001 0.03137 0.8212 0.0
H4018 H 0.38458 0.00503 0.79797 0.0
H4019 H 0.38875 0.97692 0.7655 0.0
H4020 H 0.33121 0.96688 0.7174 0.0
H4021 H 0.30932 0.99869 0.73605 0.0
C4022 C 0.32177 0.02115 0.77592 0.0
C4023 C 0.33006 0.03017 0.79747 0.0
C4024 C 0.33576 0.00548 0.76268 0.0
C4025 C 0.35301 0.02445 0.80485 0.0
C4026 C 0.36717 0.00944 0.79152 0.0
C4027 C 0.37172 0.98225 0.75868 0.0
C4028 C 0.36214 0.97031 0.73924 0.0
C4029 C 0.35854 0.9994 0.77071 0.0
C4030 C 0.33974 0.97686 0.73109 0.0
C4031 C 0.32687 0.99461 0.74234 0.0
H4032 H 0.46978 0.37413 0.78572 0.0
H4033 H 0.50673 0.31234 0.81023 0.0
H4034 H 0.5399 0.32179 0.78462 0.0
H4035 H 0.5599 0.34949 0.75836 0.0
H4036 H 0.52441 0.41227 0.73502 0.0
H4037 H 0.48895 0.40057 0.75698 0.0
C4038 C 0.48494 0.36254 0.78521 0.0
C4039 C 0.48585 0.34263 0.80004 0.0
C4040 C 0.50421 0.36838 0.77081 0.0
C4041 C 0.50565 0.32784 0.79917 0.0
C4042 C 0.52465 0.33326 0.78457 0.0
C4043 C 0.54419 0.36035 0.75779 0.0
C4044 C 0.5444 0.38146 0.74494 0.0
C4045 C 0.52433 0.35376 0.77082 0.0
C4046 C 0.52432 0.39574 0.74452 0.0
C4047 C 0.5042 0.38911 0.7572 0.0
H4048 H 0.14334 0.46831 0.77844 0.0
H4049 H 0.20507 0.50424 0.80457 0.0
H4050 H 0.19716 0.53739 0.77844 0.0
H4051 H 0.16961 0.5585 0.75296 0.0
H4052 H 0.10634 0.52445 0.7289 0.0
H4053 H 0.11791 0.48802 0.74922 0.0
C4054 C 0.15534 0.48317 0.77804 0.0
C4055 C 0.17464 0.48394 0.79361 0.0
C4056 C 0.15025 0.50253 0.76349 0.0
C4057 C 0.18998 0.50334 0.79294 0.0
C4058 C 0.18545 0.52232 0.77804 0.0
C4059 C 0.15881 0.54278 0.75158 0.0
C4060 C 0.13745 0.54376 0.73926 0.0
C4061 C 0.1652 0.52244 0.76393 0.0
C4062 C 0.12307 0.52375 0.73801 0.0
C4063 C 0.12961 0.50309 0.74978 0.0
H4064 H 0.75681 0.98043 0.39364 0.0
H4065 H 0.76704 0.94624 0.32677 0.0
H4066 H 0.74376 0.97666 0.30715 0.0
H4067 H 0.71623 0.01039 0.30997 0.0
H4068 H 0.70816 0.04598 0.37657 0.0
H4069 H 0.73475 0.01791 0.39526 0.0
C4070 C 0.75452 0.98016 0.37469 0.0
C4071 C 0.76378 0.96137 0.3616 0.0
C4072 C 0.74108 0.99775 0.36353 0.0
C4073 C 0.76043 0.96086 0.3371 0.0
C4074 C 0.74686 0.97809 0.32592 0.0
C4075 C 0.72063 0.01215 0.32847 0.0
C4076 C 0.71004 0.03004 0.34191 0.0
C4077 C 0.73642 0.9962 0.33907 0.0
C4078 C 0.71608 0.03234 0.36582 0.0
C4079 C 0.73123 0.01624 0.37658 0.0
H4080 H 0.47528 0.71662 0.3561 0.0
H4081 H 0.4949 0.73532 0.28519 0.0
H4082 H 0.52553 0.76162 0.30046 0.0
H4083 H 0.54981 0.7749 0.33383 0.0
H4084 H 0.53052 0.75583 0.40455 0.0
H4085 H 0.49634 0.73409 0.38958 0.0
C4086 C 0.48602 0.72677 0.344 0.0
C4087 C 0.48308 0.72387 0.31956 0.0
C4088 C 0.50348 0.74181 0.35291 0.0
C4089 C 0.49686 0.73729 0.30406 0.0
C4090 C 0.51439 0.75226 0.3128 0.0
C4091 C 0.53736 0.76712 0.346 0.0
C4092 C 0.54211 0.76758 0.37029 0.0
C4093 C 0.51819 0.75424 0.33716 0.0
C4094 C 0.52682 0.75605 0.38585 0.0
C4095 C 0.50747 0.74349 0.37726 0.0
H4096 H 0.77619 0.46427 0.36414 0.0
H4097 H 0.80188 0.50389 0.30458 0.0
H4098 H 0.77622 0.53676 0.31515 0.0
H4099 H 0.7506 0.55608 0.3441 0.0
H4100 H 0.72703 0.51799 0.40519 0.0
H4101 H 0.74749 0.48247 0.39119 0.0
C4102 C 0.77586 0.47991 0.3532 0.0
C4103 C 0.79113 0.48169 0.3337 0.0
C4104 C 0.76156 0.49904 0.3598 0.0
C4105 C 0.79047 0.50212 0.31976 0.0
C4106 C 0.77584 0.52095 0.32583 0.0
C4107 C 0.74953 0.53977 0.35399 0.0
C4108 C 0.73729 0.53935 0.37545 0.0
C4109 C 0.76193 0.51988 0.34621 0.0
C4110 C 0.73621 0.51845 0.38848 0.0
C4111 C 0.74802 0.49828 0.38054 0.0
H4112 H 0.01389 0.77583 0.30074 0.0
H4113 H 0.02622 0.81741 0.36318 0.0
H4114 H 1.00062 0.79162 0.38589 0.0
H4115 H 0.9713 0.75996 0.3872 0.0
H4116 H 0.95459 0.72225 0.3238 0.0
H4117 H 0.98581 0.74263 0.30267 0.0
C4118 C 0.01119 0.77901 0.31938 0.0
C4119 C 0.02175 0.79866 0.33015 0.0
C4120 C 0.99589 0.76438 0.33233 0.0
C4121 C 0.01801 0.80262 0.35432 0.0
C4122 C 1.00345 0.78781 0.3674 0.0
C4123 C 0.97511 0.75569 0.36897 0.0
C4124 C 0.96159 0.73849 0.35743 0.0
C4125 C 0.99185 0.76898 0.35649 0.0
C4126 C 0.966 0.73384 0.33356 0.0
C4127 C 0.98337 0.7462 0.32125 0.0
H4128 H 0.72662 0.46381 0.15027 0.0
H4129 H 0.69945 0.50204 0.21015 0.0
H4130 H 0.7241 0.53579 0.20008 0.0
H4131 H 0.74886 0.55629 0.17124 0.0
H4132 H 0.77463 0.51928 0.11036 0.0
H4133 H 0.75506 0.48308 0.12372 0.0
C4134 C 0.72645 0.47932 0.16143 0.0
C4135 C 0.71095 0.48048 0.1808 0.0
C4136 C 0.7402 0.49894 0.15514 0.0
C4137 C 0.71102 0.50073 0.19505 0.0
C4138 C 0.72503 0.52009 0.18924 0.0
C4139 C 0.75066 0.54005 0.16131 0.0
C4140 C 0.76346 0.5401 0.14019 0.0
C4141 C 0.73899 0.51967 0.16888 0.0
C4142 C 0.76526 0.51935 0.12695 0.0
C4143 C 0.75393 0.49878 0.13453 0.0
H4144 H 0.02877 0.70805 0.15161 0.0
H4145 H 0.01621 0.73525 0.22144 0.0
H4146 H 0.9875 0.76319 0.20556 0.0
H4147 H 0.96166 0.77475 0.17292 0.0
H4148 H 0.97335 0.74699 0.10344 0.0
H4149 H 0.00689 0.72415 0.11803 0.0
C4150 C 0.01998 0.72031 0.16333 0.0
C4151 C 0.02426 0.7193 0.18773 0.0
C4152 C 1.00338 0.73609 0.15411 0.0
C4153 C 0.01309 0.73557 0.20263 0.0
C4154 C 0.99664 0.75149 0.19356 0.0
C4155 C 0.97239 0.76488 0.16073 0.0
C4156 C 0.9655 0.76308 0.13703 0.0
C4157 C 0.99112 0.75136 0.16945 0.0
C4158 C 0.97862 0.74888 0.12167 0.0
C4159 C 0.99762 0.73569 0.13007 0.0
H4160 H 0.81299 0.02103 0.14284 0.0
H4161 H 0.78129 0.01977 0.21178 0.0
H4162 H 0.75091 0.99254 0.19748 0.0
H4163 H 0.73704 0.96523 0.16653 0.0
H4164 H 0.76876 0.96686 0.09788 0.0
H4165 H 0.79538 0.99821 0.11065 0.0
C4166 C 0.79932 0.01492 0.15469 0.0
C4167 C 0.79959 0.02197 0.17843 0.0
C4168 C 0.78191 0.99951 0.1463 0.0
C4169 C 0.78151 0.01439 0.19348 0.0
C4170 C 0.76417 0.99885 0.1853 0.0
C4171 C 0.7489 0.97329 0.15413 0.0
C4172 C 0.7507 0.96398 0.13129 0.0
C4173 C 0.76455 0.99087 0.16187 0.0
C4174 C 0.76696 0.97388 0.11553 0.0
C4175 C 0.78233 0.99161 0.1229 0.0
H4176 H 0.52681 0.73917 0.13302 0.0
H4177 H 0.57469 0.76702 0.18485 0.0
H4178 H 0.5427 0.78903 0.20332 0.0
H4179 H 0.50248 0.80425 0.20147 0.0
H4180 H 0.45413 0.77639 0.14988 0.0
H4181 H 0.48455 0.74974 0.13525 0.0
C4182 C 0.52997 0.74942 0.14879 0.0
C4183 C 0.55292 0.75158 0.15764 0.0
C4184 C 0.51144 0.76212 0.1593 0.0
C4185 C 0.55705 0.76531 0.17778 0.0
C4186 C 0.53881 0.77788 0.18831 0.0
C4187 C 0.49844 0.79203 0.18733 0.0
C4188 C 0.47622 0.79267 0.17651 0.0
C4189 C 0.5161 0.77704 0.17875 0.0
C4190 C 0.47116 0.77644 0.15844 0.0
C4191 C 0.48862 0.76129 0.14991 0.0
H4192 H 0.36336 0.70046 0.02048 0.0
H4193 H 0.29418 0.73067 0.01233 0.0
H4194 H 0.3099 0.75941 0.98424 0.0
H4195 H 0.34254 0.77291 0.95917 0.0
H4196 H 0.41164 0.74302 0.9676 0.0
H4197 H 0.39681 0.71715 0.99873 0.0
C4198 C 0.35174 0.71346 0.01268 0.0
C4199 C 0.32756 0.71324 0.01819 0.0
C4200 C 0.36096 0.73004 0.99683 0.0
C4201 C 0.31281 0.73042 0.00829 0.0
C4202 C 0.32181 0.74685 0.99225 0.0
C4203 C 0.35462 0.7617 0.96865 0.0
C4204 C 0.37834 0.76045 0.96161 0.0
C4205 C 0.34579 0.74659 0.98615 0.0
C4206 C 0.39343 0.74462 0.97306 0.0
C4207 C 0.38489 0.72968 0.99067 0.0
H4208 H 0.39373 0.7657 0.53301 0.0
H4209 H 0.33258 0.7248 0.55113 0.0
H4210 H 0.30906 0.74623 0.52246 0.0
H4211 H 0.30442 0.78084 0.49675 0.0
H4212 H 0.36526 0.82365 0.48091 0.0
H4213 H 0.39005 0.79768 0.50418 0.0
C4214 C 0.37546 0.76098 0.53 0.0
C4215 C 0.36517 0.74302 0.54351 0.0
C4216 C 0.3617 0.77435 0.51439 0.0
C4217 C 0.3413 0.73753 0.54001 0.0
C4218 C 0.32763 0.7503 0.52404 0.0
C4219 C 0.32314 0.78433 0.49816 0.0
C4220 C 0.33278 0.80444 0.48738 0.0
C4221 C 0.33743 0.76935 0.51179 0.0
C4222 C 0.35718 0.80851 0.48923 0.0
C4223 C 0.37148 0.79362 0.50252 0.0
H4224 H 0.747 0.37977 0.53287 0.0
H4225 H 0.78234 0.31707 0.55642 0.0
H4226 H 0.76202 0.29373 0.52653 0.0
H4227 H 0.72975 0.29029 0.49762 0.0
H4228 H 0.69236 0.35304 0.47643 0.0
H4229 H 0.71756 0.37701 0.50139 0.0
C4230 C 0.75076 0.36114 0.53084 0.0
C4231 C 0.76685 0.35031 0.54609 0.0
C4232 C 0.73806 0.34766 0.51444 0.0
C4233 C 0.77109 0.32603 0.54393 0.0
C4234 C 0.75897 0.31256 0.52723 0.0
C4235 C 0.72736 0.30923 0.49821 0.0
C4236 C 0.70891 0.31971 0.48543 0.0
C4237 C 0.74181 0.32305 0.51291 0.0
C4238 C 0.70616 0.34436 0.48634 0.0
C4239 C 0.72062 0.35818 0.50059 0.0
H4240 H 0.11802 0.76912 0.52499 0.0
H4241 H 0.17575 0.75312 0.57142 0.0
H4242 H 0.1938 0.72833 0.54138 0.0
H4243 H 0.19083 0.70747 0.50357 0.0
H4244 H 0.13366 0.72403 0.45642 0.0
H4245 H 0.11803 0.75236 0.48467 0.0
C4246 C 0.13487 0.76075 0.52815 0.0
C4247 C 0.14578 0.7632 0.55017 0.0
C4248 C 0.14512 0.74627 0.51075 0.0
C4249 C 0.16736 0.75186 0.55435 0.0
C4250 C 0.17756 0.73747 0.53728 0.0
C4251 C 0.17514 0.71752 0.49936 0.0
C4252 C 0.16329 0.71333 0.47807 0.0
C4253 C 0.16626 0.73396 0.51566 0.0
C4254 C 0.14314 0.72676 0.47274 0.0
C4255 C 0.13407 0.74296 0.48894 0.0
H4256 H 0.76189 0.17465 0.55635 0.0
H4257 H 0.73375 0.11366 0.52113 0.0
H4258 H 0.75396 0.12502 0.48474 0.0
H4259 H 0.78432 0.149 0.46515 0.0
H4260 H 0.81482 0.20834 0.50175 0.0
H4261 H 0.78893 0.20114 0.53529 0.0
C4262 C 0.75973 0.16426 0.54044 0.0
C4263 C 0.74607 0.14361 0.54114 0.0
C4264 C 0.77218 0.17042 0.52 0.0
C4265 C 0.74362 0.12995 0.52074 0.0
C4266 C 0.75548 0.1363 0.50006 0.0
C4267 C 0.78501 0.16067 0.48025 0.0
C4268 C 0.80177 0.17901 0.48101 0.0
C4269 C 0.77048 0.15603 0.49977 0.0
C4270 C 0.80229 0.19397 0.50074 0.0
C4271 C 0.78752 0.18982 0.51998 0.0
H4272 H 0.14558 0.77693 0.04033 0.0
H4273 H 0.21081 0.79603 0.00636 0.0
H4274 H 0.20102 0.77052 0.97301 0.0
H4275 H 0.17148 0.74734 0.95124 0.0
H4276 H 0.10464 0.73183 0.98337 0.0
H4277 H 0.11752 0.75101 0.01994 0.0
C4278 C 0.15791 0.77518 0.02587 0.0
C4279 C 0.17886 0.78853 0.02579 0.0
C4280 C 0.15172 0.76121 0.00637 0.0
C4281 C 0.19453 0.78609 0.00681 0.0
C4282 C 0.1889 0.77155 0.98771 0.0
C4283 C 0.16004 0.7477 0.96653 0.0
C4284 C 0.13728 0.73812 0.96492 0.0
C4285 C 0.16721 0.75969 0.98696 0.0
C4286 C 0.12229 0.73898 0.98446 0.0
C4287 C 0.12963 0.75006 0.00523 0.0
H4288 H 0.74861 0.16535 0.94509 0.0
H4289 H 0.77587 0.1047 0.98135 0.0
H4290 H 0.75764 0.11831 0.01816 0.0
H4291 H 0.73066 0.14564 0.0386 0.0
H4292 H 0.70305 0.20588 1.00126 0.0
H4293 H 0.72548 0.19479 0.96643 0.0
C4294 C 0.75104 0.15549 0.96125 0.0
C4295 C 0.76395 0.13445 0.96085 0.0
C4296 C 0.74044 0.16338 0.98205 0.0
C4297 C 0.76644 0.12126 0.98152 0.0
C4298 C 0.75591 0.129 1.00246 0.0
C4299 C 0.72991 0.15662 0.02302 0.0
C4300 C 0.71494 0.17644 0.0225 0.0
C4301 C 0.74247 0.14983 1.00279 0.0
C4302 C 0.71427 0.19049 1.00214 0.0
C4303 C 0.72698 0.18407 0.98214 0.0
H4304 H 0.75093 0.33696 0.94975 0.0
H4305 H 0.73032 0.40243 0.98182 0.0
H4306 H 0.75008 0.3908 0.01857 0.0
H4307 H 0.77728 0.36384 0.03933 0.0
H4308 H 0.79841 0.2989 0.00571 0.0
H4309 H 0.7735 0.30799 0.97201 0.0
C4310 C 0.74994 0.34822 0.96512 0.0
C4311 C 0.73872 0.37015 0.96347 0.0
C4312 C 0.76158 0.34153 0.98576 0.0
C4313 C 0.7385 0.38524 0.983 0.0
C4314 C 0.74991 0.37862 1.00387 0.0
C4315 C 0.77606 0.35144 0.02486 0.0
C4316 C 0.78997 0.33084 0.02494 0.0
C4317 C 0.7621 0.35707 0.00519 0.0
C4318 C 0.7881 0.31495 0.00605 0.0
C4319 C 0.77393 0.32018 0.9867 0.0
loop_
_geom_bond_atom_site_label_1
_geom_bond_atom_site_label_2
_geom_bond_distance
_geom_bond_site_symmetry_2
_ccdc_geom_bond_type
Zn0 N4 2.020 . S
Zn0 O8 2.019 . S
Zn0 N10 2.119 . S
Zn0 O18 1.975 . S
C1 N2 1.334 . S
C1 N5 1.336 . S
N2 C1 1.334 . S
N2 C3 1.334 . S
C3 N2 1.334 . S
C3 N4 1.336 . S
N4 Zn0 2.020 . S
N4 C3 1.336 . S
N4 N5 1.354 . S
N5 C1 1.336 . S
N5 N4 1.354 . S
N5 Zn9 2.020 . S
C6 O7 1.244 . S
C6 O30 1.257 . S
O7 C6 1.244 . S
O8 Zn0 2.019 . S
O8 C28 1.257 . S
Zn9 N5 2.020 . S
Zn9 O16 1.975 . S
Zn9 N25 2.119 . S
Zn9 O30 2.019 . S
N10 Zn0 2.119 . S
N10 C12 1.334 . S
N10 C13 1.328 . S
C11 C12 1.391 . S
C11 N14 1.329 . S
C11 H32 0.930 . S
C12 N10 1.334 . S
C12 C11 1.391 . S
C12 H19 0.930 . S
C13 N10 1.328 . S
C13 C15 1.392 . S
C13 H20 0.930 . S
N14 C11 1.329 . S
N14 C15 1.331 . S
C15 C13 1.392 . S
C15 N14 1.331 . S
O16 Zn9 1.975 . S
O16 C17 1.252 . S
C17 O16 1.252 . S
C17 O18 1.252 . S
O18 Zn0 1.975 . S
O18 C17 1.252 . S
H19 C12 0.930 . S
H20 C13 0.930 . S
C21 C22 1.392 . S
C21 N25 1.328 . S
C21 H27 0.930 . S
C22 C21 1.392 . S
C22 N26 1.331 . S
C23 C24 1.391 . S
C23 N26 1.329 . S
C23 H33 0.930 . S
C24 C23 1.391 . S
C24 N25 1.334 . S
C24 H31 0.930 . S
N25 Zn9 2.119 . S
N25 C21 1.328 . S
N25 C24 1.334 . S
N26 C22 1.331 . S
N26 C23 1.329 . S
H27 C21 0.930 . S
C28 O8 1.257 . S
C28 O29 1.244 . S
O29 C28 1.244 . S
O30 C6 1.257 . S
O30 Zn9 2.019 . S
H31 C24 0.930 . S
H32 C11 0.930 . S
H33 C23 0.930 . S
Zn34 N38 2.020 . S
Zn34 O42 2.019 . S
Zn34 N44 2.119 . S
Zn34 O52 1.975 . S
C35 N36 1.334 . S
C35 N39 1.336 . S
N36 C35 1.334 . S
N36 C37 1.334 . S
C37 N36 1.334 . S
C37 N38 1.336 . S
N38 Zn34 2.020 . S
N38 C37 1.336 . S
N38 N39 1.354 . S
N39 C35 1.336 . S
N39 N38 1.354 . S
N39 Zn43 2.020 . S
C40 O41 1.244 . S
C40 O64 1.257 . S
O41 C40 1.244 . S
O42 Zn34 2.019 . S
O42 C62 1.257 . S
Zn43 N39 2.020 . S
Zn43 O50 1.975 . S
Zn43 N59 2.119 . S
Zn43 O64 2.019 . S
N44 Zn34 2.119 . S
N44 C46 1.334 . S
N44 C47 1.328 . S
C45 C46 1.391 . S
C45 N48 1.329 . S
C45 H66 0.930 . S
C46 N44 1.334 . S
C46 C45 1.391 . S
C46 H53 0.930 . S
C47 N44 1.328 . S
C47 C49 1.392 . S
C47 H54 0.930 . S
N48 C45 1.329 . S
N48 C49 1.331 . S
C49 C47 1.392 . S
C49 N48 1.331 . S
O50 Zn43 1.975 . S
O50 C51 1.252 . S
C51 O50 1.252 . S
C51 O52 1.252 . S
O52 Zn34 1.975 . S
O52 C51 1.252 . S
H53 C46 0.930 . S
H54 C47 0.930 . S
C55 C56 1.392 . S
C55 N59 1.328 . S
C55 H61 0.930 . S
C56 C55 1.392 . S
C56 N60 1.331 . S
C57 C58 1.391 . S
C57 N60 1.329 . S
C57 H67 0.930 . S
C58 C57 1.391 . S
C58 N59 1.334 . S
C58 H65 0.930 . S
N59 Zn43 2.119 . S
N59 C55 1.328 . S
N59 C58 1.334 . S
N60 C56 1.331 . S
N60 C57 1.329 . S
H61 C55 0.930 . S
C62 O42 1.257 . S
C62 O63 1.244 . S
O63 C62 1.244 . S
O64 C40 1.257 . S
O64 Zn43 2.019 . S
H65 C58 0.930 . S
H66 C45 0.930 . S
H67 C57 0.930 . S
Zn68 N72 2.020 . S
Zn68 O76 2.019 . S
Zn68 N78 2.119 . S
Zn68 O86 1.975 . S
C69 N70 1.334 . S
C69 N73 1.336 . S
N70 C69 1.334 . S
N70 C71 1.334 . S
C71 N70 1.334 . S
C71 N72 1.336 . S
N72 Zn68 2.020 . S
N72 C71 1.336 . S
N72 N73 1.354 . S
N73 C69 1.336 . S
N73 N72 1.354 . S
N73 Zn77 2.020 . S
C74 O75 1.244 . S
C74 O98 1.257 . S
O75 C74 1.244 . S
O76 Zn68 2.019 . S
O76 C96 1.257 . S
Zn77 N73 2.020 . S
Zn77 O84 1.975 . S
Zn77 N93 2.119 . S
Zn77 O98 2.019 . S
N78 Zn68 2.119 . S
N78 C80 1.334 . S
N78 C81 1.328 . S
C79 C80 1.391 . S
C79 N82 1.329 . S
C79 H100 0.930 . S
C80 N78 1.334 . S
C80 C79 1.391 . S
C80 H87 0.930 . S
C81 N78 1.328 . S
C81 C83 1.392 . S
C81 H88 0.930 . S
N82 C79 1.329 . S
N82 C83 1.331 . S
C83 C81 1.392 . S
C83 N82 1.331 . S
O84 Zn77 1.975 . S
O84 C85 1.252 . S
C85 O84 1.252 . S
C85 O86 1.252 . S
O86 Zn68 1.975 . S
O86 C85 1.252 . S
H87 C80 0.930 . S
H88 C81 0.930 . S
C89 C90 1.392 . S
C89 N93 1.328 . S
C89 H95 0.930 . S
C90 C89 1.392 . S
C90 N94 1.331 . S
C91 C92 1.391 . S
C91 N94 1.329 . S
C91 H101 0.930 . S
C92 C91 1.391 . S
C92 N93 1.334 . S
C92 H99 0.930 . S
N93 Zn77 2.119 . S
N93 C89 1.328 . S
N93 C92 1.334 . S
N94 C90 1.331 . S
N94 C91 1.329 . S
H95 C89 0.930 . S
C96 O76 1.257 . S
C96 O97 1.244 . S
O97 C96 1.244 . S
O98 C74 1.257 . S
O98 Zn77 2.019 . S
H99 C92 0.930 . S
H100 C79 0.930 . S
H101 C91 0.930 . S
Zn102 N106 2.020 . S
Zn102 O110 2.019 . S
Zn102 N112 2.119 . S
Zn102 O120 1.975 . S
C103 N104 1.334 . S
C103 N107 1.336 . S
N104 C103 1.334 . S
N104 C105 1.334 . S
C105 N104 1.334 . S
C105 N106 1.336 . S
N106 Zn102 2.020 . S
N106 C105 1.336 . S
N106 N107 1.354 . S
N107 C103 1.336 . S
N107 N106 1.354 . S
N107 Zn111 2.020 . S
C108 O109 1.244 . S
C108 O132 1.257 . S
O109 C108 1.244 . S
O110 Zn102 2.019 . S
O110 C130 1.257 . S
Zn111 N107 2.020 . S
Zn111 O118 1.975 . S
Zn111 N127 2.119 . S
Zn111 O132 2.019 . S
N112 Zn102 2.119 . S
N112 C114 1.334 . S
N112 C115 1.328 . S
C113 C114 1.391 . S
C113 N116 1.329 . S
C113 H134 0.930 . S
C114 N112 1.334 . S
C114 C113 1.391 . S
C114 H121 0.930 . S
C115 N112 1.328 . S
C115 C117 1.392 . S
C115 H122 0.930 . S
N116 C113 1.329 . S
N116 C117 1.331 . S
C117 C115 1.392 . S
C117 N116 1.331 . S
O118 Zn111 1.975 . S
O118 C119 1.252 . S
C119 O118 1.252 . S
C119 O120 1.252 . S
O120 Zn102 1.975 . S
O120 C119 1.252 . S
H121 C114 0.930 . S
H122 C115 0.930 . S
C123 C124 1.392 . S
C123 N127 1.328 . S
C123 H129 0.930 . S
C124 C123 1.392 . S
C124 N128 1.331 . S
C125 C126 1.391 . S
C125 N128 1.329 . S
C125 H135 0.930 . S
C126 C125 1.391 . S
C126 N127 1.334 . S
C126 H133 0.930 . S
N127 Zn111 2.119 . S
N127 C123 1.328 . S
N127 C126 1.334 . S
N128 C124 1.331 . S
N128 C125 1.329 . S
H129 C123 0.930 . S
C130 O110 1.257 . S
C130 O131 1.244 . S
O131 C130 1.244 . S
O132 C108 1.257 . S
O132 Zn111 2.019 . S
H133 C126 0.930 . S
H134 C113 0.930 . S
H135 C125 0.930 . S
Zn136 N140 2.020 . S
Zn136 O144 2.019 . S
Zn136 N146 2.119 . S
Zn136 O154 1.975 . S
C137 N138 1.334 . S
C137 N141 1.336 . S
N138 C137 1.334 . S
N138 C139 1.334 . S
C139 N138 1.334 . S
C139 N140 1.336 . S
N140 Zn136 2.020 . S
N140 C139 1.336 . S
N140 N141 1.354 . S
N141 C137 1.336 . S
N141 N140 1.354 . S
N141 Zn145 2.020 . S
C142 O143 1.244 . S
C142 O166 1.257 . S
O143 C142 1.244 . S
O144 Zn136 2.019 . S
O144 C164 1.257 . S
Zn145 N141 2.020 . S
Zn145 O152 1.975 . S
Zn145 N161 2.119 . S
Zn145 O166 2.019 . S
N146 Zn136 2.119 . S
N146 C148 1.334 . S
N146 C149 1.328 . S
C147 C148 1.391 . S
C147 N150 1.329 . S
C147 H168 0.930 . S
C148 N146 1.334 . S
C148 C147 1.391 . S
C148 H155 0.930 . S
C149 N146 1.328 . S
C149 C151 1.392 . S
C149 H156 0.930 . S
N150 C147 1.329 . S
N150 C151 1.331 . S
C151 C149 1.392 . S
C151 N150 1.331 . S
O152 Zn145 1.975 . S
O152 C153 1.252 . S
C153 O152 1.252 . S
C153 O154 1.252 . S
O154 Zn136 1.975 . S
O154 C153 1.252 . S
H155 C148 0.930 . S
H156 C149 0.930 . S
C157 C158 1.392 . S
C157 N161 1.328 . S
C157 H163 0.930 . S
C158 C157 1.392 . S
C158 N162 1.331 . S
C159 C160 1.391 . S
C159 N162 1.329 . S
C159 H169 0.930 . S
C160 C159 1.391 . S
C160 N161 1.334 . S
C160 H167 0.930 . S
N161 Zn145 2.119 . S
N161 C157 1.328 . S
N161 C160 1.334 . S
N162 C158 1.331 . S
N162 C159 1.329 . S
H163 C157 0.930 . S
C164 O144 1.257 . S
C164 O165 1.244 . S
O165 C164 1.244 . S
O166 C142 1.257 . S
O166 Zn145 2.019 . S
H167 C160 0.930 . S
H168 C147 0.930 . S
H169 C159 0.930 . S
Zn170 N174 2.020 . S
Zn170 O178 2.019 . S
Zn170 N180 2.119 . S
Zn170 O188 1.975 . S
C171 N172 1.334 . S
C171 N175 1.336 . S
N172 C171 1.334 . S
N172 C173 1.334 . S
C173 N172 1.334 . S
C173 N174 1.336 . S
N174 Zn170 2.020 . S
N174 C173 1.336 . S
N174 N175 1.354 . S
N175 C171 1.336 . S
N175 N174 1.354 . S
N175 Zn179 2.020 . S
C176 O177 1.244 . S
C176 O200 1.257 . S
O177 C176 1.244 . S
O178 Zn170 2.019 . S
O178 C198 1.257 . S
Zn179 N175 2.020 . S
Zn179 O186 1.975 . S
Zn179 N195 2.119 . S
Zn179 O200 2.019 . S
N180 Zn170 2.119 . S
N180 C182 1.334 . S
N180 C183 1.328 . S
C181 C182 1.391 . S
C181 N184 1.329 . S
C181 H202 0.930 . S
C182 N180 1.334 . S
C182 C181 1.391 . S
C182 H189 0.930 . S
C183 N180 1.328 . S
C183 C185 1.392 . S
C183 H190 0.930 . S
N184 C181 1.329 . S
N184 C185 1.331 . S
C185 C183 1.392 . S
C185 N184 1.331 . S
O186 Zn179 1.975 . S
O186 C187 1.252 . S
C187 O186 1.252 . S
C187 O188 1.252 . S
O188 Zn170 1.975 . S
O188 C187 1.252 . S
H189 C182 0.930 . S
H190 C183 0.930 . S
C191 C192 1.392 . S
C191 N195 1.328 . S
C191 H197 0.930 . S
C192 C191 1.392 . S
C192 N196 1.331 . S
C193 C194 1.391 . S
C193 N196 1.329 . S
C193 H203 0.930 . S
C194 C193 1.391 . S
C194 N195 1.334 . S
C194 H201 0.930 . S
N195 Zn179 2.119 . S
N195 C191 1.328 . S
N195 C194 1.334 . S
N196 C192 1.331 . S
N196 C193 1.329 . S
H197 C191 0.930 . S
C198 O178 1.257 . S
C198 O199 1.244 . S
O199 C198 1.244 . S
O200 C176 1.257 . S
O200 Zn179 2.019 . S
H201 C194 0.930 . S
H202 C181 0.930 . S
H203 C193 0.930 . S
Zn204 N208 2.020 . S
Zn204 O212 2.019 . S
Zn204 N214 2.119 . S
Zn204 O222 1.975 . S
C205 N206 1.334 . S
C205 N209 1.336 . S
N206 C205 1.334 . S
N206 C207 1.334 . S
C207 N206 1.334 . S
C207 N208 1.336 . S
N208 Zn204 2.020 . S
N208 C207 1.336 . S
N208 N209 1.354 . S
N209 C205 1.336 . S
N209 N208 1.354 . S
N209 Zn213 2.020 . S
C210 O211 1.244 . S
C210 O234 1.257 . S
O211 C210 1.244 . S
O212 Zn204 2.019 . S
O212 C232 1.257 . S
Zn213 N209 2.020 . S
Zn213 O220 1.975 . S
Zn213 N229 2.119 . S
Zn213 O234 2.019 . S
N214 Zn204 2.119 . S
N214 C216 1.334 . S
N214 C217 1.328 . S
C215 C216 1.391 . S
C215 N218 1.329 . S
C215 H236 0.930 . S
C216 N214 1.334 . S
C216 C215 1.391 . S
C216 H223 0.930 . S
C217 N214 1.328 . S
C217 C219 1.392 . S
C217 H224 0.930 . S
N218 C215 1.329 . S
N218 C219 1.331 . S
C219 C217 1.392 . S
C219 N218 1.331 . S
O220 Zn213 1.975 . S
O220 C221 1.252 . S
C221 O220 1.252 . S
C221 O222 1.252 . S
O222 Zn204 1.975 . S
O222 C221 1.252 . S
H223 C216 0.930 . S
H224 C217 0.930 . S
C225 C226 1.392 . S
C225 N229 1.328 . S
C225 H231 0.930 . S
C226 C225 1.392 . S
C226 N230 1.331 . S
C227 C228 1.391 . S
C227 N230 1.329 . S
C227 H237 0.930 . S
C228 C227 1.391 . S
C228 N229 1.334 . S
C228 H235 0.930 . S
N229 Zn213 2.119 . S
N229 C225 1.328 . S
N229 C228 1.334 . S
N230 C226 1.331 . S
N230 C227 1.329 . S
H231 C225 0.930 . S
C232 O212 1.257 . S
C232 O233 1.244 . S
O233 C232 1.244 . S
O234 C210 1.257 . S
O234 Zn213 2.019 . S
H235 C228 0.930 . S
H236 C215 0.930 . S
H237 C227 0.930 . S
Zn238 N242 2.020 . S
Zn238 O246 2.019 . S
Zn238 N248 2.119 . S
Zn238 O256 1.975 . S
C239 N240 1.334 . S
C239 N243 1.336 . S
N240 C239 1.334 . S
N240 C241 1.334 . S
C241 N240 1.334 . S
C241 N242 1.336 . S
N242 Zn238 2.020 . S
N242 C241 1.336 . S
N242 N243 1.354 . S
N243 C239 1.336 . S
N243 N242 1.354 . S
N243 Zn247 2.020 . S
C244 O245 1.244 . S
C244 O268 1.257 . S
O245 C244 1.244 . S
O246 Zn238 2.019 . S
O246 C266 1.257 . S
Zn247 N243 2.020 . S
Zn247 O254 1.975 . S
Zn247 N263 2.119 . S
Zn247 O268 2.019 . S
N248 Zn238 2.119 . S
N248 C250 1.334 . S
N248 C251 1.328 . S
C249 C250 1.391 . S
C249 N252 1.329 . S
C249 H270 0.930 . S
C250 N248 1.334 . S
C250 C249 1.391 . S
C250 H257 0.930 . S
C251 N248 1.328 . S
C251 C253 1.392 . S
C251 H258 0.930 . S
N252 C249 1.329 . S
N252 C253 1.331 . S
C253 C251 1.392 . S
C253 N252 1.331 . S
O254 Zn247 1.975 . S
O254 C255 1.252 . S
C255 O254 1.252 . S
C255 O256 1.252 . S
O256 Zn238 1.975 . S
O256 C255 1.252 . S
H257 C250 0.930 . S
H258 C251 0.930 . S
C259 C260 1.392 . S
C259 N263 1.328 . S
C259 H265 0.930 . S
C260 C259 1.392 . S
C260 N264 1.331 . S
C261 C262 1.391 . S
C261 N264 1.329 . S
C261 H271 0.930 . S
C262 C261 1.391 . S
C262 N263 1.334 . S
C262 H269 0.930 . S
N263 Zn247 2.119 . S
N263 C259 1.328 . S
N263 C262 1.334 . S
N264 C260 1.331 . S
N264 C261 1.329 . S
H265 C259 0.930 . S
C266 O246 1.257 . S
C266 O267 1.244 . S
O267 C266 1.244 . S
O268 C244 1.257 . S
O268 Zn247 2.019 . S
H269 C262 0.930 . S
H270 C249 0.930 . S
H271 C261 0.930 . S
Zn272 N276 2.020 . S
Zn272 O280 2.019 . S
Zn272 N282 2.119 . S
Zn272 O290 1.975 . S
C273 N274 1.334 . S
C273 N277 1.336 . S
N274 C273 1.334 . S
N274 C275 1.334 . S
C275 N274 1.334 . S
C275 N276 1.336 . S
N276 Zn272 2.020 . S
N276 C275 1.336 . S
N276 N277 1.354 . S
N277 C273 1.336 . S
N277 N276 1.354 . S
N277 Zn281 2.020 . S
C278 O279 1.244 . S
C278 O302 1.257 . S
O279 C278 1.244 . S
O280 Zn272 2.019 . S
O280 C300 1.257 . S
Zn281 N277 2.020 . S
Zn281 O288 1.975 . S
Zn281 N297 2.119 . S
Zn281 O302 2.019 . S
N282 Zn272 2.119 . S
N282 C284 1.334 . S
N282 C285 1.328 . S
C283 C284 1.391 . S
C283 N286 1.329 . S
C283 H304 0.930 . S
C284 N282 1.334 . S
C284 C283 1.391 . S
C284 H291 0.930 . S
C285 N282 1.328 . S
C285 C287 1.392 . S
C285 H292 0.930 . S
N286 C283 1.329 . S
N286 C287 1.331 . S
C287 C285 1.392 . S
C287 N286 1.331 . S
O288 Zn281 1.975 . S
O288 C289 1.252 . S
C289 O288 1.252 . S
C289 O290 1.252 . S
O290 Zn272 1.975 . S
O290 C289 1.252 . S
H291 C284 0.930 . S
H292 C285 0.930 . S
C293 C294 1.392 . S
C293 N297 1.328 . S
C293 H299 0.930 . S
C294 C293 1.392 . S
C294 N298 1.331 . S
C295 C296 1.391 . S
C295 N298 1.329 . S
C295 H305 0.930 . S
C296 C295 1.391 . S
C296 N297 1.334 . S
C296 H303 0.930 . S
N297 Zn281 2.119 . S
N297 C293 1.328 . S
N297 C296 1.334 . S
N298 C294 1.331 . S
N298 C295 1.329 . S
H299 C293 0.930 . S
C300 O280 1.257 . S
C300 O301 1.244 . S
O301 C300 1.244 . S
O302 C278 1.257 . S
O302 Zn281 2.019 . S
H303 C296 0.930 . S
H304 C283 0.930 . S
H305 C295 0.930 . S
Zn306 N310 2.020 . S
Zn306 O314 2.019 . S
Zn306 N316 2.119 . S
Zn306 O324 1.975 . S
C307 N308 1.334 . S
C307 N311 1.336 . S
N308 C307 1.334 . S
N308 C309 1.334 . S
C309 N308 1.334 . S
C309 N310 1.336 . S
N310 Zn306 2.020 . S
N310 C309 1.336 . S
N310 N311 1.354 . S
N311 C307 1.336 . S
N311 N310 1.354 . S
N311 Zn315 2.020 . S
C312 O313 1.244 . S
C312 O336 1.257 . S
O313 C312 1.244 . S
O314 Zn306 2.019 . S
O314 C334 1.257 . S
Zn315 N311 2.020 . S
Zn315 O322 1.975 . S
Zn315 N331 2.119 . S
Zn315 O336 2.019 . S
N316 Zn306 2.119 . S
N316 C318 1.334 . S
N316 C319 1.328 . S
C317 C318 1.391 . S
C317 N320 1.329 . S
C317 H338 0.930 . S
C318 N316 1.334 . S
C318 C317 1.391 . S
C318 H325 0.930 . S
C319 N316 1.328 . S
C319 C321 1.392 . S
C319 H326 0.930 . S
N320 C317 1.329 . S
N320 C321 1.331 . S
C321 C319 1.392 . S
C321 N320 1.331 . S
O322 Zn315 1.975 . S
O322 C323 1.252 . S
C323 O322 1.252 . S
C323 O324 1.252 . S
O324 Zn306 1.975 . S
O324 C323 1.252 . S
H325 C318 0.930 . S
H326 C319 0.930 . S
C327 C328 1.392 . S
C327 N331 1.328 . S
C327 H333 0.930 . S
C328 C327 1.392 . S
C328 N332 1.331 . S
C329 C330 1.391 . S
C329 N332 1.329 . S
C329 H339 0.930 . S
C330 C329 1.391 . S
C330 N331 1.334 . S
C330 H337 0.930 . S
N331 Zn315 2.119 . S
N331 C327 1.328 . S
N331 C330 1.334 . S
N332 C328 1.331 . S
N332 C329 1.329 . S
H333 C327 0.930 . S
C334 O314 1.257 . S
C334 O335 1.244 . S
O335 C334 1.244 . S
O336 C312 1.257 . S
O336 Zn315 2.019 . S
H337 C330 0.930 . S
H338 C317 0.930 . S
H339 C329 0.930 . S
Zn340 N344 2.020 . S
Zn340 O348 2.019 . S
Zn340 N350 2.119 . S
Zn340 O358 1.975 . S
C341 N342 1.334 . S
C341 N345 1.336 . S
N342 C341 1.334 . S
N342 C343 1.334 . S
C343 N342 1.334 . S
C343 N344 1.336 . S
N344 Zn340 2.020 . S
N344 C343 1.336 . S
N344 N345 1.354 . S
N345 C341 1.336 . S
N345 N344 1.354 . S
N345 Zn349 2.020 . S
C346 O347 1.244 . S
C346 O370 1.257 . S
O347 C346 1.244 . S
O348 Zn340 2.019 . S
O348 C368 1.257 . S
Zn349 N345 2.020 . S
Zn349 O356 1.975 . S
Zn349 N365 2.119 . S
Zn349 O370 2.019 . S
N350 Zn340 2.119 . S
N350 C352 1.334 . S
N350 C353 1.328 . S
C351 C352 1.391 . S
C351 N354 1.329 . S
C351 H372 0.930 . S
C352 N350 1.334 . S
C352 C351 1.391 . S
C352 H359 0.930 . S
C353 N350 1.328 . S
C353 C355 1.392 . S
C353 H360 0.930 . S
N354 C351 1.329 . S
N354 C355 1.331 . S
C355 C353 1.392 . S
C355 N354 1.331 . S
O356 Zn349 1.975 . S
O356 C357 1.252 . S
C357 O356 1.252 . S
C357 O358 1.252 . S
O358 Zn340 1.975 . S
O358 C357 1.252 . S
H359 C352 0.930 . S
H360 C353 0.930 . S
C361 C362 1.392 . S
C361 N365 1.328 . S
C361 H367 0.930 . S
C362 C361 1.392 . S
C362 N366 1.331 . S
C363 C364 1.391 . S
C363 N366 1.329 . S
C363 H373 0.930 . S
C364 C363 1.391 . S
C364 N365 1.334 . S
C364 H371 0.930 . S
N365 Zn349 2.119 . S
N365 C361 1.328 . S
N365 C364 1.334 . S
N366 C362 1.331 . S
N366 C363 1.329 . S
H367 C361 0.930 . S
C368 O348 1.257 . S
C368 O369 1.244 . S
O369 C368 1.244 . S
O370 C346 1.257 . S
O370 Zn349 2.019 . S
H371 C364 0.930 . S
H372 C351 0.930 . S
H373 C363 0.930 . S
Zn374 N378 2.020 . S
Zn374 O382 2.019 . S
Zn374 N384 2.119 . S
Zn374 O392 1.975 . S
C375 N376 1.334 . S
C375 N379 1.336 . S
N376 C375 1.334 . S
N376 C377 1.334 . S
C377 N376 1.334 . S
C377 N378 1.336 . S
N378 Zn374 2.020 . S
N378 C377 1.336 . S
N378 N379 1.354 . S
N379 C375 1.336 . S
N379 N378 1.354 . S
N379 Zn383 2.020 . S
C380 O381 1.244 . S
C380 O404 1.257 . S
O381 C380 1.244 . S
O382 Zn374 2.019 . S
O382 C402 1.257 . S
Zn383 N379 2.020 . S
Zn383 O390 1.975 . S
Zn383 N399 2.119 . S
Zn383 O404 2.019 . S
N384 Zn374 2.119 . S
N384 C386 1.334 . S
N384 C387 1.328 . S
C385 C386 1.391 . S
C385 N388 1.329 . S
C385 H406 0.930 . S
C386 N384 1.334 . S
C386 C385 1.391 . S
C386 H393 0.930 . S
C387 N384 1.328 . S
C387 C389 1.392 . S
C387 H394 0.930 . S
N388 C385 1.329 . S
N388 C389 1.331 . S
C389 C387 1.392 . S
C389 N388 1.331 . S
O390 Zn383 1.975 . S
O390 C391 1.252 . S
C391 O390 1.252 . S
C391 O392 1.252 . S
O392 Zn374 1.975 . S
O392 C391 1.252 . S
H393 C386 0.930 . S
H394 C387 0.930 . S
C395 C396 1.392 . S
C395 N399 1.328 . S
C395 H401 0.930 . S
C396 C395 1.392 . S
C396 N400 1.331 . S
C397 C398 1.391 . S
C397 N400 1.329 . S
C397 H407 0.930 . S
C398 C397 1.391 . S
C398 N399 1.334 . S
C398 H405 0.930 . S
N399 Zn383 2.119 . S
N399 C395 1.328 . S
N399 C398 1.334 . S
N400 C396 1.331 . S
N400 C397 1.329 . S
H401 C395 0.930 . S
C402 O382 1.257 . S
C402 O403 1.244 . S
O403 C402 1.244 . S
O404 C380 1.257 . S
O404 Zn383 2.019 . S
H405 C398 0.930 . S
H406 C385 0.930 . S
H407 C397 0.930 . S
Zn408 N412 2.020 . S
Zn408 O416 2.019 . S
Zn408 N418 2.119 . S
Zn408 O426 1.975 . S
C409 N410 1.334 . S
C409 N413 1.336 . S
N410 C409 1.334 . S
N410 C411 1.334 . S
C411 N410 1.334 . S
C411 N412 1.336 . S
N412 Zn408 2.020 . S
N412 C411 1.336 . S
N412 N413 1.354 . S
N413 C409 1.336 . S
N413 N412 1.354 . S
N413 Zn417 2.020 . S
C414 O415 1.244 . S
C414 O438 1.257 . S
O415 C414 1.244 . S
O416 Zn408 2.019 . S
O416 C436 1.257 . S
Zn417 N413 2.020 . S
Zn417 O424 1.975 . S
Zn417 N433 2.119 . S
Zn417 O438 2.019 . S
N418 Zn408 2.119 . S
N418 C420 1.334 . S
N418 C421 1.328 . S
C419 C420 1.391 . S
C419 N422 1.329 . S
C419 H440 0.930 . S
C420 N418 1.334 . S
C420 C419 1.391 . S
C420 H427 0.930 . S
C421 N418 1.328 . S
C421 C423 1.392 . S
C421 H428 0.930 . S
N422 C419 1.329 . S
N422 C423 1.331 . S
C423 C421 1.392 . S
C423 N422 1.331 . S
O424 Zn417 1.975 . S
O424 C425 1.252 . S
C425 O424 1.252 . S
C425 O426 1.252 . S
O426 Zn408 1.975 . S
O426 C425 1.252 . S
H427 C420 0.930 . S
H428 C421 0.930 . S
C429 C430 1.392 . S
C429 N433 1.328 . S
C429 H435 0.930 . S
C430 C429 1.392 . S
C430 N434 1.331 . S
C431 C432 1.391 . S
C431 N434 1.329 . S
C431 H441 0.930 . S
C432 C431 1.391 . S
C432 N433 1.334 . S
C432 H439 0.930 . S
N433 Zn417 2.119 . S
N433 C429 1.328 . S
N433 C432 1.334 . S
N434 C430 1.331 . S
N434 C431 1.329 . S
H435 C429 0.930 . S
C436 O416 1.257 . S
C436 O437 1.244 . S
O437 C436 1.244 . S
O438 C414 1.257 . S
O438 Zn417 2.019 . S
H439 C432 0.930 . S
H440 C419 0.930 . S
H441 C431 0.930 . S
Zn442 N446 2.020 . S
Zn442 O450 2.019 . S
Zn442 N452 2.119 . S
Zn442 O460 1.975 . S
C443 N444 1.334 . S
C443 N447 1.336 . S
N444 C443 1.334 . S
N444 C445 1.334 . S
C445 N444 1.334 . S
C445 N446 1.336 . S
N446 Zn442 2.020 . S
N446 C445 1.336 . S
N446 N447 1.354 . S
N447 C443 1.336 . S
N447 N446 1.354 . S
N447 Zn451 2.020 . S
C448 O449 1.244 . S
C448 O472 1.257 . S
O449 C448 1.244 . S
O450 Zn442 2.019 . S
O450 C470 1.257 . S
Zn451 N447 2.020 . S
Zn451 O458 1.975 . S
Zn451 N467 2.119 . S
Zn451 O472 2.019 . S
N452 Zn442 2.119 . S
N452 C454 1.334 . S
N452 C455 1.328 . S
C453 C454 1.391 . S
C453 N456 1.329 . S
C453 H474 0.930 . S
C454 N452 1.334 . S
C454 C453 1.391 . S
C454 H461 0.930 . S
C455 N452 1.328 . S
C455 C457 1.392 . S
C455 H462 0.930 . S
N456 C453 1.329 . S
N456 C457 1.331 . S
C457 C455 1.392 . S
C457 N456 1.331 . S
O458 Zn451 1.975 . S
O458 C459 1.252 . S
C459 O458 1.252 . S
C459 O460 1.252 . S
O460 Zn442 1.975 . S
O460 C459 1.252 . S
H461 C454 0.930 . S
H462 C455 0.930 . S
C463 C464 1.392 . S
C463 N467 1.328 . S
C463 H469 0.930 . S
C464 C463 1.392 . S
C464 N468 1.331 . S
C465 C466 1.391 . S
C465 N468 1.329 . S
C465 H475 0.930 . S
C466 C465 1.391 . S
C466 N467 1.334 . S
C466 H473 0.930 . S
N467 Zn451 2.119 . S
N467 C463 1.328 . S
N467 C466 1.334 . S
N468 C464 1.331 . S
N468 C465 1.329 . S
H469 C463 0.930 . S
C470 O450 1.257 . S
C470 O471 1.244 . S
O471 C470 1.244 . S
O472 C448 1.257 . S
O472 Zn451 2.019 . S
H473 C466 0.930 . S
H474 C453 0.930 . S
H475 C465 0.930 . S
Zn476 N480 2.020 . S
Zn476 O484 2.019 . S
Zn476 N486 2.119 . S
Zn476 O494 1.975 . S
C477 N478 1.334 . S
C477 N481 1.336 . S
N478 C477 1.334 . S
N478 C479 1.334 . S
C479 N478 1.334 . S
C479 N480 1.336 . S
N480 Zn476 2.020 . S
N480 C479 1.336 . S
N480 N481 1.354 . S
N481 C477 1.336 . S
N481 N480 1.354 . S
N481 Zn485 2.020 . S
C482 O483 1.244 . S
C482 O506 1.257 . S
O483 C482 1.244 . S
O484 Zn476 2.019 . S
O484 C504 1.257 . S
Zn485 N481 2.020 . S
Zn485 O492 1.975 . S
Zn485 N501 2.119 . S
Zn485 O506 2.019 . S
N486 Zn476 2.119 . S
N486 C488 1.334 . S
N486 C489 1.328 . S
C487 C488 1.391 . S
C487 N490 1.329 . S
C487 H508 0.930 . S
C488 N486 1.334 . S
C488 C487 1.391 . S
C488 H495 0.930 . S
C489 N486 1.328 . S
C489 C491 1.392 . S
C489 H496 0.930 . S
N490 C487 1.329 . S
N490 C491 1.331 . S
C491 C489 1.392 . S
C491 N490 1.331 . S
O492 Zn485 1.975 . S
O492 C493 1.252 . S
C493 O492 1.252 . S
C493 O494 1.252 . S
O494 Zn476 1.975 . S
O494 C493 1.252 . S
H495 C488 0.930 . S
H496 C489 0.930 . S
C497 C498 1.392 . S
C497 N501 1.328 . S
C497 H503 0.930 . S
C498 C497 1.392 . S
C498 N502 1.331 . S
C499 C500 1.391 . S
C499 N502 1.329 . S
C499 H509 0.930 . S
C500 C499 1.391 . S
C500 N501 1.334 . S
C500 H507 0.930 . S
N501 Zn485 2.119 . S
N501 C497 1.328 . S
N501 C500 1.334 . S
N502 C498 1.331 . S
N502 C499 1.329 . S
H503 C497 0.930 . S
C504 O484 1.257 . S
C504 O505 1.244 . S
O505 C504 1.244 . S
O506 C482 1.257 . S
O506 Zn485 2.019 . S
H507 C500 0.930 . S
H508 C487 0.930 . S
H509 C499 0.930 . S
Zn510 N514 2.020 . S
Zn510 O518 2.019 . S
Zn510 N520 2.119 . S
Zn510 O528 1.975 . S
C511 N512 1.334 . S
C511 N515 1.336 . S
N512 C511 1.334 . S
N512 C513 1.334 . S
C513 N512 1.334 . S
C513 N514 1.336 . S
N514 Zn510 2.020 . S
N514 C513 1.336 . S
N514 N515 1.354 . S
N515 C511 1.336 . S
N515 N514 1.354 . S
N515 Zn519 2.020 . S
C516 O517 1.244 . S
C516 O540 1.257 . S
O517 C516 1.244 . S
O518 Zn510 2.019 . S
O518 C538 1.257 . S
Zn519 N515 2.020 . S
Zn519 O526 1.975 . S
Zn519 N535 2.119 . S
Zn519 O540 2.019 . S
N520 Zn510 2.119 . S
N520 C522 1.334 . S
N520 C523 1.328 . S
C521 C522 1.391 . S
C521 N524 1.329 . S
C521 H542 0.930 . S
C522 N520 1.334 . S
C522 C521 1.391 . S
C522 H529 0.930 . S
C523 N520 1.328 . S
C523 C525 1.392 . S
C523 H530 0.930 . S
N524 C521 1.329 . S
N524 C525 1.331 . S
C525 C523 1.392 . S
C525 N524 1.331 . S
O526 Zn519 1.975 . S
O526 C527 1.252 . S
C527 O526 1.252 . S
C527 O528 1.252 . S
O528 Zn510 1.975 . S
O528 C527 1.252 . S
H529 C522 0.930 . S
H530 C523 0.930 . S
C531 C532 1.392 . S
C531 N535 1.328 . S
C531 H537 0.930 . S
C532 C531 1.392 . S
C532 N536 1.331 . S
C533 C534 1.391 . S
C533 N536 1.329 . S
C533 H543 0.930 . S
C534 C533 1.391 . S
C534 N535 1.334 . S
C534 H541 0.930 . S
N535 Zn519 2.119 . S
N535 C531 1.328 . S
N535 C534 1.334 . S
N536 C532 1.331 . S
N536 C533 1.329 . S
H537 C531 0.930 . S
C538 O518 1.257 . S
C538 O539 1.244 . S
O539 C538 1.244 . S
O540 C516 1.257 . S
O540 Zn519 2.019 . S
H541 C534 0.930 . S
H542 C521 0.930 . S
H543 C533 0.930 . S
Zn544 N548 2.020 . S
Zn544 O552 2.019 . S
Zn544 N554 2.119 . S
Zn544 O562 1.975 . S
C545 N546 1.334 . S
C545 N549 1.336 . S
N546 C545 1.334 . S
N546 C547 1.334 . S
C547 N546 1.334 . S
C547 N548 1.336 . S
N548 Zn544 2.020 . S
N548 C547 1.336 . S
N548 N549 1.354 . S
N549 C545 1.336 . S
N549 N548 1.354 . S
N549 Zn553 2.020 . S
C550 O551 1.244 . S
C550 O574 1.257 . S
O551 C550 1.244 . S
O552 Zn544 2.019 . S
O552 C572 1.257 . S
Zn553 N549 2.020 . S
Zn553 O560 1.975 . S
Zn553 N569 2.119 . S
Zn553 O574 2.019 . S
N554 Zn544 2.119 . S
N554 C556 1.334 . S
N554 C557 1.328 . S
C555 C556 1.391 . S
C555 N558 1.329 . S
C555 H576 0.930 . S
C556 N554 1.334 . S
C556 C555 1.391 . S
C556 H563 0.930 . S
C557 N554 1.328 . S
C557 C559 1.392 . S
C557 H564 0.930 . S
N558 C555 1.329 . S
N558 C559 1.331 . S
C559 C557 1.392 . S
C559 N558 1.331 . S
O560 Zn553 1.975 . S
O560 C561 1.252 . S
C561 O560 1.252 . S
C561 O562 1.252 . S
O562 Zn544 1.975 . S
O562 C561 1.252 . S
H563 C556 0.930 . S
H564 C557 0.930 . S
C565 C566 1.392 . S
C565 N569 1.328 . S
C565 H571 0.930 . S
C566 C565 1.392 . S
C566 N570 1.331 . S
C567 C568 1.391 . S
C567 N570 1.329 . S
C567 H577 0.930 . S
C568 C567 1.391 . S
C568 N569 1.334 . S
C568 H575 0.930 . S
N569 Zn553 2.119 . S
N569 C565 1.328 . S
N569 C568 1.334 . S
N570 C566 1.331 . S
N570 C567 1.329 . S
H571 C565 0.930 . S
C572 O552 1.257 . S
C572 O573 1.244 . S
O573 C572 1.244 . S
O574 C550 1.257 . S
O574 Zn553 2.019 . S
H575 C568 0.930 . S
H576 C555 0.930 . S
H577 C567 0.930 . S
Zn578 N582 2.020 . S
Zn578 O586 2.019 . S
Zn578 N588 2.119 . S
Zn578 O596 1.975 . S
C579 N580 1.334 . S
C579 N583 1.336 . S
N580 C579 1.334 . S
N580 C581 1.334 . S
C581 N580 1.334 . S
C581 N582 1.336 . S
N582 Zn578 2.020 . S
N582 C581 1.336 . S
N582 N583 1.354 . S
N583 C579 1.336 . S
N583 N582 1.354 . S
N583 Zn587 2.020 . S
C584 O585 1.244 . S
C584 O608 1.257 . S
O585 C584 1.244 . S
O586 Zn578 2.019 . S
O586 C606 1.257 . S
Zn587 N583 2.020 . S
Zn587 O594 1.975 . S
Zn587 N603 2.119 . S
Zn587 O608 2.019 . S
N588 Zn578 2.119 . S
N588 C590 1.334 . S
N588 C591 1.328 . S
C589 C590 1.391 . S
C589 N592 1.329 . S
C589 H610 0.930 . S
C590 N588 1.334 . S
C590 C589 1.391 . S
C590 H597 0.930 . S
C591 N588 1.328 . S
C591 C593 1.392 . S
C591 H598 0.930 . S
N592 C589 1.329 . S
N592 C593 1.331 . S
C593 C591 1.392 . S
C593 N592 1.331 . S
O594 Zn587 1.975 . S
O594 C595 1.252 . S
C595 O594 1.252 . S
C595 O596 1.252 . S
O596 Zn578 1.975 . S
O596 C595 1.252 . S
H597 C590 0.930 . S
H598 C591 0.930 . S
C599 C600 1.392 . S
C599 N603 1.328 . S
C599 H605 0.930 . S
C600 C599 1.392 . S
C600 N604 1.331 . S
C601 C602 1.391 . S
C601 N604 1.329 . S
C601 H611 0.930 . S
C602 C601 1.391 . S
C602 N603 1.334 . S
C602 H609 0.930 . S
N603 Zn587 2.119 . S
N603 C599 1.328 . S
N603 C602 1.334 . S
N604 C600 1.331 . S
N604 C601 1.329 . S
H605 C599 0.930 . S
C606 O586 1.257 . S
C606 O607 1.244 . S
O607 C606 1.244 . S
O608 C584 1.257 . S
O608 Zn587 2.019 . S
H609 C602 0.930 . S
H610 C589 0.930 . S
H611 C601 0.930 . S
Zn612 N616 2.020 . S
Zn612 O620 2.019 . S
Zn612 N622 2.119 . S
Zn612 O630 1.975 . S
C613 N614 1.334 . S
C613 N617 1.336 . S
N614 C613 1.334 . S
N614 C615 1.334 . S
C615 N614 1.334 . S
C615 N616 1.336 . S
N616 Zn612 2.020 . S
N616 C615 1.336 . S
N616 N617 1.354 . S
N617 C613 1.336 . S
N617 N616 1.354 . S
N617 Zn621 2.020 . S
C618 O619 1.244 . S
C618 O642 1.257 . S
O619 C618 1.244 . S
O620 Zn612 2.019 . S
O620 C640 1.257 . S
Zn621 N617 2.020 . S
Zn621 O628 1.975 . S
Zn621 N637 2.119 . S
Zn621 O642 2.019 . S
N622 Zn612 2.119 . S
N622 C624 1.334 . S
N622 C625 1.328 . S
C623 C624 1.391 . S
C623 N626 1.329 . S
C623 H644 0.930 . S
C624 N622 1.334 . S
C624 C623 1.391 . S
C624 H631 0.930 . S
C625 N622 1.328 . S
C625 C627 1.392 . S
C625 H632 0.930 . S
N626 C623 1.329 . S
N626 C627 1.331 . S
C627 C625 1.392 . S
C627 N626 1.331 . S
O628 Zn621 1.975 . S
O628 C629 1.252 . S
C629 O628 1.252 . S
C629 O630 1.252 . S
O630 Zn612 1.975 . S
O630 C629 1.252 . S
H631 C624 0.930 . S
H632 C625 0.930 . S
C633 C634 1.392 . S
C633 N637 1.328 . S
C633 H639 0.930 . S
C634 C633 1.392 . S
C634 N638 1.331 . S
C635 C636 1.391 . S
C635 N638 1.329 . S
C635 H645 0.930 . S
C636 C635 1.391 . S
C636 N637 1.334 . S
C636 H643 0.930 . S
N637 Zn621 2.119 . S
N637 C633 1.328 . S
N637 C636 1.334 . S
N638 C634 1.331 . S
N638 C635 1.329 . S
H639 C633 0.930 . S
C640 O620 1.257 . S
C640 O641 1.244 . S
O641 C640 1.244 . S
O642 C618 1.257 . S
O642 Zn621 2.019 . S
H643 C636 0.930 . S
H644 C623 0.930 . S
H645 C635 0.930 . S
Zn646 N650 2.020 . S
Zn646 O654 2.019 . S
Zn646 N656 2.119 . S
Zn646 O664 1.975 . S
C647 N648 1.334 . S
C647 N651 1.336 . S
N648 C647 1.334 . S
N648 C649 1.334 . S
C649 N648 1.334 . S
C649 N650 1.336 . S
N650 Zn646 2.020 . S
N650 C649 1.336 . S
N650 N651 1.354 . S
N651 C647 1.336 . S
N651 N650 1.354 . S
N651 Zn655 2.020 . S
C652 O653 1.244 . S
C652 O676 1.257 . S
O653 C652 1.244 . S
O654 Zn646 2.019 . S
O654 C674 1.257 . S
Zn655 N651 2.020 . S
Zn655 O662 1.975 . S
Zn655 N671 2.119 . S
Zn655 O676 2.019 . S
N656 Zn646 2.119 . S
N656 C658 1.334 . S
N656 C659 1.328 . S
C657 C658 1.391 . S
C657 N660 1.329 . S
C657 H678 0.930 . S
C658 N656 1.334 . S
C658 C657 1.391 . S
C658 H665 0.930 . S
C659 N656 1.328 . S
C659 C661 1.392 . S
C659 H666 0.930 . S
N660 C657 1.329 . S
N660 C661 1.331 . S
C661 C659 1.392 . S
C661 N660 1.331 . S
O662 Zn655 1.975 . S
O662 C663 1.252 . S
C663 O662 1.252 . S
C663 O664 1.252 . S
O664 Zn646 1.975 . S
O664 C663 1.252 . S
H665 C658 0.930 . S
H666 C659 0.930 . S
C667 C668 1.392 . S
C667 N671 1.328 . S
C667 H673 0.930 . S
C668 C667 1.392 . S
C668 N672 1.331 . S
C669 C670 1.391 . S
C669 N672 1.329 . S
C669 H679 0.930 . S
C670 C669 1.391 . S
C670 N671 1.334 . S
C670 H677 0.930 . S
N671 Zn655 2.119 . S
N671 C667 1.328 . S
N671 C670 1.334 . S
N672 C668 1.331 . S
N672 C669 1.329 . S
H673 C667 0.930 . S
C674 O654 1.257 . S
C674 O675 1.244 . S
O675 C674 1.244 . S
O676 C652 1.257 . S
O676 Zn655 2.019 . S
H677 C670 0.930 . S
H678 C657 0.930 . S
H679 C669 0.930 . S
Zn680 N684 2.020 . S
Zn680 O688 2.019 . S
Zn680 N690 2.119 . S
Zn680 O698 1.975 . S
C681 N682 1.334 . S
C681 N685 1.336 . S
N682 C681 1.334 . S
N682 C683 1.334 . S
C683 N682 1.334 . S
C683 N684 1.336 . S
N684 Zn680 2.020 . S
N684 C683 1.336 . S
N684 N685 1.354 . S
N685 C681 1.336 . S
N685 N684 1.354 . S
N685 Zn689 2.020 . S
C686 O687 1.244 . S
C686 O710 1.257 . S
O687 C686 1.244 . S
O688 Zn680 2.019 . S
O688 C708 1.257 . S
Zn689 N685 2.020 . S
Zn689 O696 1.975 . S
Zn689 N705 2.119 . S
Zn689 O710 2.019 . S
N690 Zn680 2.119 . S
N690 C692 1.334 . S
N690 C693 1.328 . S
C691 C692 1.391 . S
C691 N694 1.329 . S
C691 H712 0.930 . S
C692 N690 1.334 . S
C692 C691 1.391 . S
C692 H699 0.930 . S
C693 N690 1.328 . S
C693 C695 1.392 . S
C693 H700 0.930 . S
N694 C691 1.329 . S
N694 C695 1.331 . S
C695 C693 1.392 . S
C695 N694 1.331 . S
O696 Zn689 1.975 . S
O696 C697 1.252 . S
C697 O696 1.252 . S
C697 O698 1.252 . S
O698 Zn680 1.975 . S
O698 C697 1.252 . S
H699 C692 0.930 . S
H700 C693 0.930 . S
C701 C702 1.392 . S
C701 N705 1.328 . S
C701 H707 0.930 . S
C702 C701 1.392 . S
C702 N706 1.331 . S
C703 C704 1.391 . S
C703 N706 1.329 . S
C703 H713 0.930 . S
C704 C703 1.391 . S
C704 N705 1.334 . S
C704 H711 0.930 . S
N705 Zn689 2.119 . S
N705 C701 1.328 . S
N705 C704 1.334 . S
N706 C702 1.331 . S
N706 C703 1.329 . S
H707 C701 0.930 . S
C708 O688 1.257 . S
C708 O709 1.244 . S
O709 C708 1.244 . S
O710 C686 1.257 . S
O710 Zn689 2.019 . S
H711 C704 0.930 . S
H712 C691 0.930 . S
H713 C703 0.930 . S
Zn714 N718 2.020 . S
Zn714 O722 2.019 . S
Zn714 N724 2.119 . S
Zn714 O732 1.975 . S
C715 N716 1.334 . S
C715 N719 1.336 . S
N716 C715 1.334 . S
N716 C717 1.334 . S
C717 N716 1.334 . S
C717 N718 1.336 . S
N718 Zn714 2.020 . S
N718 C717 1.336 . S
N718 N719 1.354 . S
N719 C715 1.336 . S
N719 N718 1.354 . S
N719 Zn723 2.020 . S
C720 O721 1.244 . S
C720 O744 1.257 . S
O721 C720 1.244 . S
O722 Zn714 2.019 . S
O722 C742 1.257 . S
Zn723 N719 2.020 . S
Zn723 O730 1.975 . S
Zn723 N739 2.119 . S
Zn723 O744 2.019 . S
N724 Zn714 2.119 . S
N724 C726 1.334 . S
N724 C727 1.328 . S
C725 C726 1.391 . S
C725 N728 1.329 . S
C725 H746 0.930 . S
C726 N724 1.334 . S
C726 C725 1.391 . S
C726 H733 0.930 . S
C727 N724 1.328 . S
C727 C729 1.392 . S
C727 H734 0.930 . S
N728 C725 1.329 . S
N728 C729 1.331 . S
C729 C727 1.392 . S
C729 N728 1.331 . S
O730 Zn723 1.975 . S
O730 C731 1.252 . S
C731 O730 1.252 . S
C731 O732 1.252 . S
O732 Zn714 1.975 . S
O732 C731 1.252 . S
H733 C726 0.930 . S
H734 C727 0.930 . S
C735 C736 1.392 . S
C735 N739 1.328 . S
C735 H741 0.930 . S
C736 C735 1.392 . S
C736 N740 1.331 . S
C737 C738 1.391 . S
C737 N740 1.329 . S
C737 H747 0.930 . S
C738 C737 1.391 . S
C738 N739 1.334 . S
C738 H745 0.930 . S
N739 Zn723 2.119 . S
N739 C735 1.328 . S
N739 C738 1.334 . S
N740 C736 1.331 . S
N740 C737 1.329 . S
H741 C735 0.930 . S
C742 O722 1.257 . S
C742 O743 1.244 . S
O743 C742 1.244 . S
O744 C720 1.257 . S
O744 Zn723 2.019 . S
H745 C738 0.930 . S
H746 C725 0.930 . S
H747 C737 0.930 . S
Zn748 N752 2.020 . S
Zn748 O756 2.019 . S
Zn748 N758 2.119 . S
Zn748 O766 1.975 . S
C749 N750 1.334 . S
C749 N753 1.336 . S
N750 C749 1.334 . S
N750 C751 1.334 . S
C751 N750 1.334 . S
C751 N752 1.336 . S
N752 Zn748 2.020 . S
N752 C751 1.336 . S
N752 N753 1.354 . S
N753 C749 1.336 . S
N753 N752 1.354 . S
N753 Zn757 2.020 . S
C754 O755 1.244 . S
C754 O778 1.257 . S
O755 C754 1.244 . S
O756 Zn748 2.019 . S
O756 C776 1.257 . S
Zn757 N753 2.020 . S
Zn757 O764 1.975 . S
Zn757 N773 2.119 . S
Zn757 O778 2.019 . S
N758 Zn748 2.119 . S
N758 C760 1.334 . S
N758 C761 1.328 . S
C759 C760 1.391 . S
C759 N762 1.329 . S
C759 H780 0.930 . S
C760 N758 1.334 . S
C760 C759 1.391 . S
C760 H767 0.930 . S
C761 N758 1.328 . S
C761 C763 1.392 . S
C761 H768 0.930 . S
N762 C759 1.329 . S
N762 C763 1.331 . S
C763 C761 1.392 . S
C763 N762 1.331 . S
O764 Zn757 1.975 . S
O764 C765 1.252 . S
C765 O764 1.252 . S
C765 O766 1.252 . S
O766 Zn748 1.975 . S
O766 C765 1.252 . S
H767 C760 0.930 . S
H768 C761 0.930 . S
C769 C770 1.392 . S
C769 N773 1.328 . S
C769 H775 0.930 . S
C770 C769 1.392 . S
C770 N774 1.331 . S
C771 C772 1.391 . S
C771 N774 1.329 . S
C771 H781 0.930 . S
C772 C771 1.391 . S
C772 N773 1.334 . S
C772 H779 0.930 . S
N773 Zn757 2.119 . S
N773 C769 1.328 . S
N773 C772 1.334 . S
N774 C770 1.331 . S
N774 C771 1.329 . S
H775 C769 0.930 . S
C776 O756 1.257 . S
C776 O777 1.244 . S
O777 C776 1.244 . S
O778 C754 1.257 . S
O778 Zn757 2.019 . S
H779 C772 0.930 . S
H780 C759 0.930 . S
H781 C771 0.930 . S
Zn782 N786 2.020 . S
Zn782 O790 2.019 . S
Zn782 N792 2.119 . S
Zn782 O800 1.975 . S
C783 N784 1.334 . S
C783 N787 1.336 . S
N784 C783 1.334 . S
N784 C785 1.334 . S
C785 N784 1.334 . S
C785 N786 1.336 . S
N786 Zn782 2.020 . S
N786 C785 1.336 . S
N786 N787 1.354 . S
N787 C783 1.336 . S
N787 N786 1.354 . S
N787 Zn791 2.020 . S
C788 O789 1.244 . S
C788 O812 1.257 . S
O789 C788 1.244 . S
O790 Zn782 2.019 . S
O790 C810 1.257 . S
Zn791 N787 2.020 . S
Zn791 O798 1.975 . S
Zn791 N807 2.119 . S
Zn791 O812 2.019 . S
N792 Zn782 2.119 . S
N792 C794 1.334 . S
N792 C795 1.328 . S
C793 C794 1.391 . S
C793 N796 1.329 . S
C793 H814 0.930 . S
C794 N792 1.334 . S
C794 C793 1.391 . S
C794 H801 0.930 . S
C795 N792 1.328 . S
C795 C797 1.392 . S
C795 H802 0.930 . S
N796 C793 1.329 . S
N796 C797 1.331 . S
C797 C795 1.392 . S
C797 N796 1.331 . S
O798 Zn791 1.975 . S
O798 C799 1.252 . S
C799 O798 1.252 . S
C799 O800 1.252 . S
O800 Zn782 1.975 . S
O800 C799 1.252 . S
H801 C794 0.930 . S
H802 C795 0.930 . S
C803 C804 1.392 . S
C803 N807 1.328 . S
C803 H809 0.930 . S
C804 C803 1.392 . S
C804 N808 1.331 . S
C805 C806 1.391 . S
C805 N808 1.329 . S
C805 H815 0.930 . S
C806 C805 1.391 . S
C806 N807 1.334 . S
C806 H813 0.930 . S
N807 Zn791 2.119 . S
N807 C803 1.328 . S
N807 C806 1.334 . S
N808 C804 1.331 . S
N808 C805 1.329 . S
H809 C803 0.930 . S
C810 O790 1.257 . S
C810 O811 1.244 . S
O811 C810 1.244 . S
O812 C788 1.257 . S
O812 Zn791 2.019 . S
H813 C806 0.930 . S
H814 C793 0.930 . S
H815 C805 0.930 . S
Zn816 N820 2.020 . S
Zn816 O824 2.019 . S
Zn816 N826 2.119 . S
Zn816 O834 1.975 . S
C817 N818 1.334 . S
C817 N821 1.336 . S
N818 C817 1.334 . S
N818 C819 1.334 . S
C819 N818 1.334 . S
C819 N820 1.336 . S
N820 Zn816 2.020 . S
N820 C819 1.336 . S
N820 N821 1.354 . S
N821 C817 1.336 . S
N821 N820 1.354 . S
N821 Zn825 2.020 . S
C822 O823 1.244 . S
C822 O846 1.257 . S
O823 C822 1.244 . S
O824 Zn816 2.019 . S
O824 C844 1.257 . S
Zn825 N821 2.020 . S
Zn825 O832 1.975 . S
Zn825 N841 2.119 . S
Zn825 O846 2.019 . S
N826 Zn816 2.119 . S
N826 C828 1.334 . S
N826 C829 1.328 . S
C827 C828 1.391 . S
C827 N830 1.329 . S
C827 H848 0.930 . S
C828 N826 1.334 . S
C828 C827 1.391 . S
C828 H835 0.930 . S
C829 N826 1.328 . S
C829 C831 1.392 . S
C829 H836 0.930 . S
N830 C827 1.329 . S
N830 C831 1.331 . S
C831 C829 1.392 . S
C831 N830 1.331 . S
O832 Zn825 1.975 . S
O832 C833 1.252 . S
C833 O832 1.252 . S
C833 O834 1.252 . S
O834 Zn816 1.975 . S
O834 C833 1.252 . S
H835 C828 0.930 . S
H836 C829 0.930 . S
C837 C838 1.392 . S
C837 N841 1.328 . S
C837 H843 0.930 . S
C838 C837 1.392 . S
C838 N842 1.331 . S
C839 C840 1.391 . S
C839 N842 1.329 . S
C839 H849 0.930 . S
C840 C839 1.391 . S
C840 N841 1.334 . S
C840 H847 0.930 . S
N841 Zn825 2.119 . S
N841 C837 1.328 . S
N841 C840 1.334 . S
N842 C838 1.331 . S
N842 C839 1.329 . S
H843 C837 0.930 . S
C844 O824 1.257 . S
C844 O845 1.244 . S
O845 C844 1.244 . S
O846 C822 1.257 . S
O846 Zn825 2.019 . S
H847 C840 0.930 . S
H848 C827 0.930 . S
H849 C839 0.930 . S
Zn850 N854 2.020 . S
Zn850 O858 2.019 . S
Zn850 N860 2.119 . S
Zn850 O868 1.975 . S
C851 N852 1.334 . S
C851 N855 1.336 . S
N852 C851 1.334 . S
N852 C853 1.334 . S
C853 N852 1.334 . S
C853 N854 1.336 . S
N854 Zn850 2.020 . S
N854 C853 1.336 . S
N854 N855 1.354 . S
N855 C851 1.336 . S
N855 N854 1.354 . S
N855 Zn859 2.020 . S
C856 O857 1.244 . S
C856 O880 1.257 . S
O857 C856 1.244 . S
O858 Zn850 2.019 . S
O858 C878 1.257 . S
Zn859 N855 2.020 . S
Zn859 O866 1.975 . S
Zn859 N875 2.119 . S
Zn859 O880 2.019 . S
N860 Zn850 2.119 . S
N860 C862 1.334 . S
N860 C863 1.328 . S
C861 C862 1.391 . S
C861 N864 1.329 . S
C861 H882 0.930 . S
C862 N860 1.334 . S
C862 C861 1.391 . S
C862 H869 0.930 . S
C863 N860 1.328 . S
C863 C865 1.392 . S
C863 H870 0.930 . S
N864 C861 1.329 . S
N864 C865 1.331 . S
C865 C863 1.392 . S
C865 N864 1.331 . S
O866 Zn859 1.975 . S
O866 C867 1.252 . S
C867 O866 1.252 . S
C867 O868 1.252 . S
O868 Zn850 1.975 . S
O868 C867 1.252 . S
H869 C862 0.930 . S
H870 C863 0.930 . S
C871 C872 1.392 . S
C871 N875 1.328 . S
C871 H877 0.930 . S
C872 C871 1.392 . S
C872 N876 1.331 . S
C873 C874 1.391 . S
C873 N876 1.329 . S
C873 H883 0.930 . S
C874 C873 1.391 . S
C874 N875 1.334 . S
C874 H881 0.930 . S
N875 Zn859 2.119 . S
N875 C871 1.328 . S
N875 C874 1.334 . S
N876 C872 1.331 . S
N876 C873 1.329 . S
H877 C871 0.930 . S
C878 O858 1.257 . S
C878 O879 1.244 . S
O879 C878 1.244 . S
O880 C856 1.257 . S
O880 Zn859 2.019 . S
H881 C874 0.930 . S
H882 C861 0.930 . S
H883 C873 0.930 . S
Zn884 N888 2.020 . S
Zn884 O892 2.019 . S
Zn884 N894 2.119 . S
Zn884 O902 1.975 . S
C885 N886 1.334 . S
C885 N889 1.336 . S
N886 C885 1.334 . S
N886 C887 1.334 . S
C887 N886 1.334 . S
C887 N888 1.336 . S
N888 Zn884 2.020 . S
N888 C887 1.336 . S
N888 N889 1.354 . S
N889 C885 1.336 . S
N889 N888 1.354 . S
N889 Zn893 2.020 . S
C890 O891 1.244 . S
C890 O914 1.257 . S
O891 C890 1.244 . S
O892 Zn884 2.019 . S
O892 C912 1.257 . S
Zn893 N889 2.020 . S
Zn893 O900 1.975 . S
Zn893 N909 2.119 . S
Zn893 O914 2.019 . S
N894 Zn884 2.119 . S
N894 C896 1.334 . S
N894 C897 1.328 . S
C895 C896 1.391 . S
C895 N898 1.329 . S
C895 H916 0.930 . S
C896 N894 1.334 . S
C896 C895 1.391 . S
C896 H903 0.930 . S
C897 N894 1.328 . S
C897 C899 1.392 . S
C897 H904 0.930 . S
N898 C895 1.329 . S
N898 C899 1.331 . S
C899 C897 1.392 . S
C899 N898 1.331 . S
O900 Zn893 1.975 . S
O900 C901 1.252 . S
C901 O900 1.252 . S
C901 O902 1.252 . S
O902 Zn884 1.975 . S
O902 C901 1.252 . S
H903 C896 0.930 . S
H904 C897 0.930 . S
C905 C906 1.392 . S
C905 N909 1.328 . S
C905 H911 0.930 . S
C906 C905 1.392 . S
C906 N910 1.331 . S
C907 C908 1.391 . S
C907 N910 1.329 . S
C907 H917 0.930 . S
C908 C907 1.391 . S
C908 N909 1.334 . S
C908 H915 0.930 . S
N909 Zn893 2.119 . S
N909 C905 1.328 . S
N909 C908 1.334 . S
N910 C906 1.331 . S
N910 C907 1.329 . S
H911 C905 0.930 . S
C912 O892 1.257 . S
C912 O913 1.244 . S
O913 C912 1.244 . S
O914 C890 1.257 . S
O914 Zn893 2.019 . S
H915 C908 0.930 . S
H916 C895 0.930 . S
H917 C907 0.930 . S
Zn918 N922 2.020 . S
Zn918 O926 2.019 . S
Zn918 N928 2.119 . S
Zn918 O936 1.975 . S
C919 N920 1.334 . S
C919 N923 1.336 . S
N920 C919 1.334 . S
N920 C921 1.334 . S
C921 N920 1.334 . S
C921 N922 1.336 . S
N922 Zn918 2.020 . S
N922 C921 1.336 . S
N922 N923 1.354 . S
N923 C919 1.336 . S
N923 N922 1.354 . S
N923 Zn927 2.020 . S
C924 O925 1.244 . S
C924 O948 1.257 . S
O925 C924 1.244 . S
O926 Zn918 2.019 . S
O926 C946 1.257 . S
Zn927 N923 2.020 . S
Zn927 O934 1.975 . S
Zn927 N943 2.119 . S
Zn927 O948 2.019 . S
N928 Zn918 2.119 . S
N928 C930 1.334 . S
N928 C931 1.328 . S
C929 C930 1.391 . S
C929 N932 1.329 . S
C929 H950 0.930 . S
C930 N928 1.334 . S
C930 C929 1.391 . S
C930 H937 0.930 . S
C931 N928 1.328 . S
C931 C933 1.392 . S
C931 H938 0.930 . S
N932 C929 1.329 . S
N932 C933 1.331 . S
C933 C931 1.392 . S
C933 N932 1.331 . S
O934 Zn927 1.975 . S
O934 C935 1.252 . S
C935 O934 1.252 . S
C935 O936 1.252 . S
O936 Zn918 1.975 . S
O936 C935 1.252 . S
H937 C930 0.930 . S
H938 C931 0.930 . S
C939 C940 1.392 . S
C939 N943 1.328 . S
C939 H945 0.930 . S
C940 C939 1.392 . S
C940 N944 1.331 . S
C941 C942 1.391 . S
C941 N944 1.329 . S
C941 H951 0.930 . S
C942 C941 1.391 . S
C942 N943 1.334 . S
C942 H949 0.930 . S
N943 Zn927 2.119 . S
N943 C939 1.328 . S
N943 C942 1.334 . S
N944 C940 1.331 . S
N944 C941 1.329 . S
H945 C939 0.930 . S
C946 O926 1.257 . S
C946 O947 1.244 . S
O947 C946 1.244 . S
O948 C924 1.257 . S
O948 Zn927 2.019 . S
H949 C942 0.930 . S
H950 C929 0.930 . S
H951 C941 0.930 . S
Zn952 N956 2.020 . S
Zn952 O960 2.019 . S
Zn952 N962 2.119 . S
Zn952 O970 1.975 . S
C953 N954 1.334 . S
C953 N957 1.336 . S
N954 C953 1.334 . S
N954 C955 1.334 . S
C955 N954 1.334 . S
C955 N956 1.336 . S
N956 Zn952 2.020 . S
N956 C955 1.336 . S
N956 N957 1.354 . S
N957 C953 1.336 . S
N957 N956 1.354 . S
N957 Zn961 2.020 . S
C958 O959 1.244 . S
C958 O982 1.257 . S
O959 C958 1.244 . S
O960 Zn952 2.019 . S
O960 C980 1.257 . S
Zn961 N957 2.020 . S
Zn961 O968 1.975 . S
Zn961 N977 2.119 . S
Zn961 O982 2.019 . S
N962 Zn952 2.119 . S
N962 C964 1.334 . S
N962 C965 1.328 . S
C963 C964 1.391 . S
C963 N966 1.329 . S
C963 H984 0.930 . S
C964 N962 1.334 . S
C964 C963 1.391 . S
C964 H971 0.930 . S
C965 N962 1.328 . S
C965 C967 1.392 . S
C965 H972 0.930 . S
N966 C963 1.329 . S
N966 C967 1.331 . S
C967 C965 1.392 . S
C967 N966 1.331 . S
O968 Zn961 1.975 . S
O968 C969 1.252 . S
C969 O968 1.252 . S
C969 O970 1.252 . S
O970 Zn952 1.975 . S
O970 C969 1.252 . S
H971 C964 0.930 . S
H972 C965 0.930 . S
C973 C974 1.392 . S
C973 N977 1.328 . S
C973 H979 0.930 . S
C974 C973 1.392 . S
C974 N978 1.331 . S
C975 C976 1.391 . S
C975 N978 1.329 . S
C975 H985 0.930 . S
C976 C975 1.391 . S
C976 N977 1.334 . S
C976 H983 0.930 . S
N977 Zn961 2.119 . S
N977 C973 1.328 . S
N977 C976 1.334 . S
N978 C974 1.331 . S
N978 C975 1.329 . S
H979 C973 0.930 . S
C980 O960 1.257 . S
C980 O981 1.244 . S
O981 C980 1.244 . S
O982 C958 1.257 . S
O982 Zn961 2.019 . S
H983 C976 0.930 . S
H984 C963 0.930 . S
H985 C975 0.930 . S
Zn986 N990 2.020 . S
Zn986 O994 2.019 . S
Zn986 N996 2.119 . S
Zn986 O1004 1.975 . S
C987 N988 1.334 . S
C987 N991 1.336 . S
N988 C987 1.334 . S
N988 C989 1.334 . S
C989 N988 1.334 . S
C989 N990 1.336 . S
N990 Zn986 2.020 . S
N990 C989 1.336 . S
N990 N991 1.354 . S
N991 C987 1.336 . S
N991 N990 1.354 . S
N991 Zn995 2.020 . S
C992 O993 1.244 . S
C992 O1016 1.257 . S
O993 C992 1.244 . S
O994 Zn986 2.019 . S
O994 C1014 1.257 . S
Zn995 N991 2.020 . S
Zn995 O1002 1.975 . S
Zn995 N1011 2.119 . S
Zn995 O1016 2.019 . S
N996 Zn986 2.119 . S
N996 C998 1.334 . S
N996 C999 1.328 . S
C997 C998 1.391 . S
C997 N1000 1.329 . S
C997 H1018 0.930 . S
C998 N996 1.334 . S
C998 C997 1.391 . S
C998 H1005 0.930 . S
C999 N996 1.328 . S
C999 C1001 1.392 . S
C999 H1006 0.930 . S
N1000 C997 1.329 . S
N1000 C1001 1.331 . S
C1001 C999 1.392 . S
C1001 N1000 1.331 . S
O1002 Zn995 1.975 . S
O1002 C1003 1.252 . S
C1003 O1002 1.252 . S
C1003 O1004 1.252 . S
O1004 Zn986 1.975 . S
O1004 C1003 1.252 . S
H1005 C998 0.930 . S
H1006 C999 0.930 . S
C1007 C1008 1.392 . S
C1007 N1011 1.328 . S
C1007 H1013 0.930 . S
C1008 C1007 1.392 . S
C1008 N1012 1.331 . S
C1009 C1010 1.391 . S
C1009 N1012 1.329 . S
C1009 H1019 0.930 . S
C1010 C1009 1.391 . S
C1010 N1011 1.334 . S
C1010 H1017 0.930 . S
N1011 Zn995 2.119 . S
N1011 C1007 1.328 . S
N1011 C1010 1.334 . S
N1012 C1008 1.331 . S
N1012 C1009 1.329 . S
H1013 C1007 0.930 . S
C1014 O994 1.257 . S
C1014 O1015 1.244 . S
O1015 C1014 1.244 . S
O1016 C992 1.257 . S
O1016 Zn995 2.019 . S
H1017 C1010 0.930 . S
H1018 C997 0.930 . S
H1019 C1009 0.930 . S
Zn1020 N1024 2.020 . S
Zn1020 O1028 2.019 . S
Zn1020 N1030 2.119 . S
Zn1020 O1038 1.975 . S
C1021 N1022 1.334 . S
C1021 N1025 1.336 . S
N1022 C1021 1.334 . S
N1022 C1023 1.334 . S
C1023 N1022 1.334 . S
C1023 N1024 1.336 . S
N1024 Zn1020 2.020 . S
N1024 C1023 1.336 . S
N1024 N1025 1.354 . S
N1025 C1021 1.336 . S
N1025 N1024 1.354 . S
N1025 Zn1029 2.020 . S
C1026 O1027 1.244 . S
C1026 O1050 1.257 . S
O1027 C1026 1.244 . S
O1028 Zn1020 2.019 . S
O1028 C1048 1.257 . S
Zn1029 N1025 2.020 . S
Zn1029 O1036 1.975 . S
Zn1029 N1045 2.119 . S
Zn1029 O1050 2.019 . S
N1030 Zn1020 2.119 . S
N1030 C1032 1.334 . S
N1030 C1033 1.328 . S
C1031 C1032 1.391 . S
C1031 N1034 1.329 . S
C1031 H1052 0.930 . S
C1032 N1030 1.334 . S
C1032 C1031 1.391 . S
C1032 H1039 0.930 . S
C1033 N1030 1.328 . S
C1033 C1035 1.392 . S
C1033 H1040 0.930 . S
N1034 C1031 1.329 . S
N1034 C1035 1.331 . S
C1035 C1033 1.392 . S
C1035 N1034 1.331 . S
O1036 Zn1029 1.975 . S
O1036 C1037 1.252 . S
C1037 O1036 1.252 . S
C1037 O1038 1.252 . S
O1038 Zn1020 1.975 . S
O1038 C1037 1.252 . S
H1039 C1032 0.930 . S
H1040 C1033 0.930 . S
C1041 C1042 1.392 . S
C1041 N1045 1.328 . S
C1041 H1047 0.930 . S
C1042 C1041 1.392 . S
C1042 N1046 1.331 . S
C1043 C1044 1.391 . S
C1043 N1046 1.329 . S
C1043 H1053 0.930 . S
C1044 C1043 1.391 . S
C1044 N1045 1.334 . S
C1044 H1051 0.930 . S
N1045 Zn1029 2.119 . S
N1045 C1041 1.328 . S
N1045 C1044 1.334 . S
N1046 C1042 1.331 . S
N1046 C1043 1.329 . S
H1047 C1041 0.930 . S
C1048 O1028 1.257 . S
C1048 O1049 1.244 . S
O1049 C1048 1.244 . S
O1050 C1026 1.257 . S
O1050 Zn1029 2.019 . S
H1051 C1044 0.930 . S
H1052 C1031 0.930 . S
H1053 C1043 0.930 . S
Zn1054 N1058 2.020 . S
Zn1054 O1062 2.019 . S
Zn1054 N1064 2.119 . S
Zn1054 O1072 1.975 . S
C1055 N1056 1.334 . S
C1055 N1059 1.336 . S
N1056 C1055 1.334 . S
N1056 C1057 1.334 . S
C1057 N1056 1.334 . S
C1057 N1058 1.336 . S
N1058 Zn1054 2.020 . S
N1058 C1057 1.336 . S
N1058 N1059 1.354 . S
N1059 C1055 1.336 . S
N1059 N1058 1.354 . S
N1059 Zn1063 2.020 . S
C1060 O1061 1.244 . S
C1060 O1084 1.257 . S
O1061 C1060 1.244 . S
O1062 Zn1054 2.019 . S
O1062 C1082 1.257 . S
Zn1063 N1059 2.020 . S
Zn1063 O1070 1.975 . S
Zn1063 N1079 2.119 . S
Zn1063 O1084 2.019 . S
N1064 Zn1054 2.119 . S
N1064 C1066 1.334 . S
N1064 C1067 1.328 . S
C1065 C1066 1.391 . S
C1065 N1068 1.329 . S
C1065 H1086 0.930 . S
C1066 N1064 1.334 . S
C1066 C1065 1.391 . S
C1066 H1073 0.930 . S
C1067 N1064 1.328 . S
C1067 C1069 1.392 . S
C1067 H1074 0.930 . S
N1068 C1065 1.329 . S
N1068 C1069 1.331 . S
C1069 C1067 1.392 . S
C1069 N1068 1.331 . S
O1070 Zn1063 1.975 . S
O1070 C1071 1.252 . S
C1071 O1070 1.252 . S
C1071 O1072 1.252 . S
O1072 Zn1054 1.975 . S
O1072 C1071 1.252 . S
H1073 C1066 0.930 . S
H1074 C1067 0.930 . S
C1075 C1076 1.392 . S
C1075 N1079 1.328 . S
C1075 H1081 0.930 . S
C1076 C1075 1.392 . S
C1076 N1080 1.331 . S
C1077 C1078 1.391 . S
C1077 N1080 1.329 . S
C1077 H1087 0.930 . S
C1078 C1077 1.391 . S
C1078 N1079 1.334 . S
C1078 H1085 0.930 . S
N1079 Zn1063 2.119 . S
N1079 C1075 1.328 . S
N1079 C1078 1.334 . S
N1080 C1076 1.331 . S
N1080 C1077 1.329 . S
H1081 C1075 0.930 . S
C1082 O1062 1.257 . S
C1082 O1083 1.244 . S
O1083 C1082 1.244 . S
O1084 C1060 1.257 . S
O1084 Zn1063 2.019 . S
H1085 C1078 0.930 . S
H1086 C1065 0.930 . S
H1087 C1077 0.930 . S
Zn1088 N1092 2.020 . S
Zn1088 O1096 2.019 . S
Zn1088 N1098 2.119 . S
Zn1088 O1106 1.975 . S
C1089 N1090 1.334 . S
C1089 N1093 1.336 . S
N1090 C1089 1.334 . S
N1090 C1091 1.334 . S
C1091 N1090 1.334 . S
C1091 N1092 1.336 . S
N1092 Zn1088 2.020 . S
N1092 C1091 1.336 . S
N1092 N1093 1.354 . S
N1093 C1089 1.336 . S
N1093 N1092 1.354 . S
N1093 Zn1097 2.020 . S
C1094 O1095 1.244 . S
C1094 O1118 1.257 . S
O1095 C1094 1.244 . S
O1096 Zn1088 2.019 . S
O1096 C1116 1.257 . S
Zn1097 N1093 2.020 . S
Zn1097 O1104 1.975 . S
Zn1097 N1113 2.119 . S
Zn1097 O1118 2.019 . S
N1098 Zn1088 2.119 . S
N1098 C1100 1.334 . S
N1098 C1101 1.328 . S
C1099 C1100 1.391 . S
C1099 N1102 1.329 . S
C1099 H1120 0.930 . S
C1100 N1098 1.334 . S
C1100 C1099 1.391 . S
C1100 H1107 0.930 . S
C1101 N1098 1.328 . S
C1101 C1103 1.392 . S
C1101 H1108 0.930 . S
N1102 C1099 1.329 . S
N1102 C1103 1.331 . S
C1103 C1101 1.392 . S
C1103 N1102 1.331 . S
O1104 Zn1097 1.975 . S
O1104 C1105 1.252 . S
C1105 O1104 1.252 . S
C1105 O1106 1.252 . S
O1106 Zn1088 1.975 . S
O1106 C1105 1.252 . S
H1107 C1100 0.930 . S
H1108 C1101 0.930 . S
C1109 C1110 1.392 . S
C1109 N1113 1.328 . S
C1109 H1115 0.930 . S
C1110 C1109 1.392 . S
C1110 N1114 1.331 . S
C1111 C1112 1.391 . S
C1111 N1114 1.329 . S
C1111 H1121 0.930 . S
C1112 C1111 1.391 . S
C1112 N1113 1.334 . S
C1112 H1119 0.930 . S
N1113 Zn1097 2.119 . S
N1113 C1109 1.328 . S
N1113 C1112 1.334 . S
N1114 C1110 1.331 . S
N1114 C1111 1.329 . S
H1115 C1109 0.930 . S
C1116 O1096 1.257 . S
C1116 O1117 1.244 . S
O1117 C1116 1.244 . S
O1118 C1094 1.257 . S
O1118 Zn1097 2.019 . S
H1119 C1112 0.930 . S
H1120 C1099 0.930 . S
H1121 C1111 0.930 . S
Zn1122 N1126 2.020 . S
Zn1122 O1130 2.019 . S
Zn1122 N1132 2.119 . S
Zn1122 O1140 1.975 . S
C1123 N1124 1.334 . S
C1123 N1127 1.336 . S
N1124 C1123 1.334 . S
N1124 C1125 1.334 . S
C1125 N1124 1.334 . S
C1125 N1126 1.336 . S
N1126 Zn1122 2.020 . S
N1126 C1125 1.336 . S
N1126 N1127 1.354 . S
N1127 C1123 1.336 . S
N1127 N1126 1.354 . S
N1127 Zn1131 2.020 . S
C1128 O1129 1.244 . S
C1128 O1152 1.257 . S
O1129 C1128 1.244 . S
O1130 Zn1122 2.019 . S
O1130 C1150 1.257 . S
Zn1131 N1127 2.020 . S
Zn1131 O1138 1.975 . S
Zn1131 N1147 2.119 . S
Zn1131 O1152 2.019 . S
N1132 Zn1122 2.119 . S
N1132 C1134 1.334 . S
N1132 C1135 1.328 . S
C1133 C1134 1.391 . S
C1133 N1136 1.329 . S
C1133 H1154 0.930 . S
C1134 N1132 1.334 . S
C1134 C1133 1.391 . S
C1134 H1141 0.930 . S
C1135 N1132 1.328 . S
C1135 C1137 1.392 . S
C1135 H1142 0.930 . S
N1136 C1133 1.329 . S
N1136 C1137 1.331 . S
C1137 C1135 1.392 . S
C1137 N1136 1.331 . S
O1138 Zn1131 1.975 . S
O1138 C1139 1.252 . S
C1139 O1138 1.252 . S
C1139 O1140 1.252 . S
O1140 Zn1122 1.975 . S
O1140 C1139 1.252 . S
H1141 C1134 0.930 . S
H1142 C1135 0.930 . S
C1143 C1144 1.392 . S
C1143 N1147 1.328 . S
C1143 H1149 0.930 . S
C1144 C1143 1.392 . S
C1144 N1148 1.331 . S
C1145 C1146 1.391 . S
C1145 N1148 1.329 . S
C1145 H1155 0.930 . S
C1146 C1145 1.391 . S
C1146 N1147 1.334 . S
C1146 H1153 0.930 . S
N1147 Zn1131 2.119 . S
N1147 C1143 1.328 . S
N1147 C1146 1.334 . S
N1148 C1144 1.331 . S
N1148 C1145 1.329 . S
H1149 C1143 0.930 . S
C1150 O1130 1.257 . S
C1150 O1151 1.244 . S
O1151 C1150 1.244 . S
O1152 C1128 1.257 . S
O1152 Zn1131 2.019 . S
H1153 C1146 0.930 . S
H1154 C1133 0.930 . S
H1155 C1145 0.930 . S
Zn1156 N1160 2.020 . S
Zn1156 O1164 2.019 . S
Zn1156 N1166 2.119 . S
Zn1156 O1174 1.975 . S
C1157 N1158 1.334 . S
C1157 N1161 1.336 . S
N1158 C1157 1.334 . S
N1158 C1159 1.334 . S
C1159 N1158 1.334 . S
C1159 N1160 1.336 . S
N1160 Zn1156 2.020 . S
N1160 C1159 1.336 . S
N1160 N1161 1.354 . S
N1161 C1157 1.336 . S
N1161 N1160 1.354 . S
N1161 Zn1165 2.020 . S
C1162 O1163 1.244 . S
C1162 O1186 1.257 . S
O1163 C1162 1.244 . S
O1164 Zn1156 2.019 . S
O1164 C1184 1.257 . S
Zn1165 N1161 2.020 . S
Zn1165 O1172 1.975 . S
Zn1165 N1181 2.119 . S
Zn1165 O1186 2.019 . S
N1166 Zn1156 2.119 . S
N1166 C1168 1.334 . S
N1166 C1169 1.328 . S
C1167 C1168 1.391 . S
C1167 N1170 1.329 . S
C1167 H1188 0.930 . S
C1168 N1166 1.334 . S
C1168 C1167 1.391 . S
C1168 H1175 0.930 . S
C1169 N1166 1.328 . S
C1169 C1171 1.392 . S
C1169 H1176 0.930 . S
N1170 C1167 1.329 . S
N1170 C1171 1.331 . S
C1171 C1169 1.392 . S
C1171 N1170 1.331 . S
O1172 Zn1165 1.975 . S
O1172 C1173 1.252 . S
C1173 O1172 1.252 . S
C1173 O1174 1.252 . S
O1174 Zn1156 1.975 . S
O1174 C1173 1.252 . S
H1175 C1168 0.930 . S
H1176 C1169 0.930 . S
C1177 C1178 1.392 . S
C1177 N1181 1.328 . S
C1177 H1183 0.930 . S
C1178 C1177 1.392 . S
C1178 N1182 1.331 . S
C1179 C1180 1.391 . S
C1179 N1182 1.329 . S
C1179 H1189 0.930 . S
C1180 C1179 1.391 . S
C1180 N1181 1.334 . S
C1180 H1187 0.930 . S
N1181 Zn1165 2.119 . S
N1181 C1177 1.328 . S
N1181 C1180 1.334 . S
N1182 C1178 1.331 . S
N1182 C1179 1.329 . S
H1183 C1177 0.930 . S
C1184 O1164 1.257 . S
C1184 O1185 1.244 . S
O1185 C1184 1.244 . S
O1186 C1162 1.257 . S
O1186 Zn1165 2.019 . S
H1187 C1180 0.930 . S
H1188 C1167 0.930 . S
H1189 C1179 0.930 . S
Zn1190 N1194 2.020 . S
Zn1190 O1198 2.019 . S
Zn1190 N1200 2.119 . S
Zn1190 O1208 1.975 . S
C1191 N1192 1.334 . S
C1191 N1195 1.336 . S
N1192 C1191 1.334 . S
N1192 C1193 1.334 . S
C1193 N1192 1.334 . S
C1193 N1194 1.336 . S
N1194 Zn1190 2.020 . S
N1194 C1193 1.336 . S
N1194 N1195 1.354 . S
N1195 C1191 1.336 . S
N1195 N1194 1.354 . S
N1195 Zn1199 2.020 . S
C1196 O1197 1.244 . S
C1196 O1220 1.257 . S
O1197 C1196 1.244 . S
O1198 Zn1190 2.019 . S
O1198 C1218 1.257 . S
Zn1199 N1195 2.020 . S
Zn1199 O1206 1.975 . S
Zn1199 N1215 2.119 . S
Zn1199 O1220 2.019 . S
N1200 Zn1190 2.119 . S
N1200 C1202 1.334 . S
N1200 C1203 1.328 . S
C1201 C1202 1.391 . S
C1201 N1204 1.329 . S
C1201 H1222 0.930 . S
C1202 N1200 1.334 . S
C1202 C1201 1.391 . S
C1202 H1209 0.930 . S
C1203 N1200 1.328 . S
C1203 C1205 1.392 . S
C1203 H1210 0.930 . S
N1204 C1201 1.329 . S
N1204 C1205 1.331 . S
C1205 C1203 1.392 . S
C1205 N1204 1.331 . S
O1206 Zn1199 1.975 . S
O1206 C1207 1.252 . S
C1207 O1206 1.252 . S
C1207 O1208 1.252 . S
O1208 Zn1190 1.975 . S
O1208 C1207 1.252 . S
H1209 C1202 0.930 . S
H1210 C1203 0.930 . S
C1211 C1212 1.392 . S
C1211 N1215 1.328 . S
C1211 H1217 0.930 . S
C1212 C1211 1.392 . S
C1212 N1216 1.331 . S
C1213 C1214 1.391 . S
C1213 N1216 1.329 . S
C1213 H1223 0.930 . S
C1214 C1213 1.391 . S
C1214 N1215 1.334 . S
C1214 H1221 0.930 . S
N1215 Zn1199 2.119 . S
N1215 C1211 1.328 . S
N1215 C1214 1.334 . S
N1216 C1212 1.331 . S
N1216 C1213 1.329 . S
H1217 C1211 0.930 . S
C1218 O1198 1.257 . S
C1218 O1219 1.244 . S
O1219 C1218 1.244 . S
O1220 C1196 1.257 . S
O1220 Zn1199 2.019 . S
H1221 C1214 0.930 . S
H1222 C1201 0.930 . S
H1223 C1213 0.930 . S
Zn1224 N1228 2.020 . S
Zn1224 O1232 2.019 . S
Zn1224 N1234 2.119 . S
Zn1224 O1242 1.975 . S
C1225 N1226 1.334 . S
C1225 N1229 1.336 . S
N1226 C1225 1.334 . S
N1226 C1227 1.334 . S
C1227 N1226 1.334 . S
C1227 N1228 1.336 . S
N1228 Zn1224 2.020 . S
N1228 C1227 1.336 . S
N1228 N1229 1.354 . S
N1229 C1225 1.336 . S
N1229 N1228 1.354 . S
N1229 Zn1233 2.020 . S
C1230 O1231 1.244 . S
C1230 O1254 1.257 . S
O1231 C1230 1.244 . S
O1232 Zn1224 2.019 . S
O1232 C1252 1.257 . S
Zn1233 N1229 2.020 . S
Zn1233 O1240 1.975 . S
Zn1233 N1249 2.119 . S
Zn1233 O1254 2.019 . S
N1234 Zn1224 2.119 . S
N1234 C1236 1.334 . S
N1234 C1237 1.328 . S
C1235 C1236 1.391 . S
C1235 N1238 1.329 . S
C1235 H1256 0.930 . S
C1236 N1234 1.334 . S
C1236 C1235 1.391 . S
C1236 H1243 0.930 . S
C1237 N1234 1.328 . S
C1237 C1239 1.392 . S
C1237 H1244 0.930 . S
N1238 C1235 1.329 . S
N1238 C1239 1.331 . S
C1239 C1237 1.392 . S
C1239 N1238 1.331 . S
O1240 Zn1233 1.975 . S
O1240 C1241 1.252 . S
C1241 O1240 1.252 . S
C1241 O1242 1.252 . S
O1242 Zn1224 1.975 . S
O1242 C1241 1.252 . S
H1243 C1236 0.930 . S
H1244 C1237 0.930 . S
C1245 C1246 1.392 . S
C1245 N1249 1.328 . S
C1245 H1251 0.930 . S
C1246 C1245 1.392 . S
C1246 N1250 1.331 . S
C1247 C1248 1.391 . S
C1247 N1250 1.329 . S
C1247 H1257 0.930 . S
C1248 C1247 1.391 . S
C1248 N1249 1.334 . S
C1248 H1255 0.930 . S
N1249 Zn1233 2.119 . S
N1249 C1245 1.328 . S
N1249 C1248 1.334 . S
N1250 C1246 1.331 . S
N1250 C1247 1.329 . S
H1251 C1245 0.930 . S
C1252 O1232 1.257 . S
C1252 O1253 1.244 . S
O1253 C1252 1.244 . S
O1254 C1230 1.257 . S
O1254 Zn1233 2.019 . S
H1255 C1248 0.930 . S
H1256 C1235 0.930 . S
H1257 C1247 0.930 . S
Zn1258 N1262 2.020 . S
Zn1258 O1266 2.019 . S
Zn1258 N1268 2.119 . S
Zn1258 O1276 1.975 . S
C1259 N1260 1.334 . S
C1259 N1263 1.336 . S
N1260 C1259 1.334 . S
N1260 C1261 1.334 . S
C1261 N1260 1.334 . S
C1261 N1262 1.336 . S
N1262 Zn1258 2.020 . S
N1262 C1261 1.336 . S
N1262 N1263 1.354 . S
N1263 C1259 1.336 . S
N1263 N1262 1.354 . S
N1263 Zn1267 2.020 . S
C1264 O1265 1.244 . S
C1264 O1288 1.257 . S
O1265 C1264 1.244 . S
O1266 Zn1258 2.019 . S
O1266 C1286 1.257 . S
Zn1267 N1263 2.020 . S
Zn1267 O1274 1.975 . S
Zn1267 N1283 2.119 . S
Zn1267 O1288 2.019 . S
N1268 Zn1258 2.119 . S
N1268 C1270 1.334 . S
N1268 C1271 1.328 . S
C1269 C1270 1.391 . S
C1269 N1272 1.329 . S
C1269 H1290 0.930 . S
C1270 N1268 1.334 . S
C1270 C1269 1.391 . S
C1270 H1277 0.930 . S
C1271 N1268 1.328 . S
C1271 C1273 1.392 . S
C1271 H1278 0.930 . S
N1272 C1269 1.329 . S
N1272 C1273 1.331 . S
C1273 C1271 1.392 . S
C1273 N1272 1.331 . S
O1274 Zn1267 1.975 . S
O1274 C1275 1.252 . S
C1275 O1274 1.252 . S
C1275 O1276 1.252 . S
O1276 Zn1258 1.975 . S
O1276 C1275 1.252 . S
H1277 C1270 0.930 . S
H1278 C1271 0.930 . S
C1279 C1280 1.392 . S
C1279 N1283 1.328 . S
C1279 H1285 0.930 . S
C1280 C1279 1.392 . S
C1280 N1284 1.331 . S
C1281 C1282 1.391 . S
C1281 N1284 1.329 . S
C1281 H1291 0.930 . S
C1282 C1281 1.391 . S
C1282 N1283 1.334 . S
C1282 H1289 0.930 . S
N1283 Zn1267 2.119 . S
N1283 C1279 1.328 . S
N1283 C1282 1.334 . S
N1284 C1280 1.331 . S
N1284 C1281 1.329 . S
H1285 C1279 0.930 . S
C1286 O1266 1.257 . S
C1286 O1287 1.244 . S
O1287 C1286 1.244 . S
O1288 C1264 1.257 . S
O1288 Zn1267 2.019 . S
H1289 C1282 0.930 . S
H1290 C1269 0.930 . S
H1291 C1281 0.930 . S
Zn1292 N1296 2.020 . S
Zn1292 O1300 2.019 . S
Zn1292 N1302 2.119 . S
Zn1292 O1310 1.975 . S
C1293 N1294 1.334 . S
C1293 N1297 1.336 . S
N1294 C1293 1.334 . S
N1294 C1295 1.334 . S
C1295 N1294 1.334 . S
C1295 N1296 1.336 . S
N1296 Zn1292 2.020 . S
N1296 C1295 1.336 . S
N1296 N1297 1.354 . S
N1297 C1293 1.336 . S
N1297 N1296 1.354 . S
N1297 Zn1301 2.020 . S
C1298 O1299 1.244 . S
C1298 O1322 1.257 . S
O1299 C1298 1.244 . S
O1300 Zn1292 2.019 . S
O1300 C1320 1.257 . S
Zn1301 N1297 2.020 . S
Zn1301 O1308 1.975 . S
Zn1301 N1317 2.119 . S
Zn1301 O1322 2.019 . S
N1302 Zn1292 2.119 . S
N1302 C1304 1.334 . S
N1302 C1305 1.328 . S
C1303 C1304 1.391 . S
C1303 N1306 1.329 . S
C1303 H1324 0.930 . S
C1304 N1302 1.334 . S
C1304 C1303 1.391 . S
C1304 H1311 0.930 . S
C1305 N1302 1.328 . S
C1305 C1307 1.392 . S
C1305 H1312 0.930 . S
N1306 C1303 1.329 . S
N1306 C1307 1.331 . S
C1307 C1305 1.392 . S
C1307 N1306 1.331 . S
O1308 Zn1301 1.975 . S
O1308 C1309 1.252 . S
C1309 O1308 1.252 . S
C1309 O1310 1.252 . S
O1310 Zn1292 1.975 . S
O1310 C1309 1.252 . S
H1311 C1304 0.930 . S
H1312 C1305 0.930 . S
C1313 C1314 1.392 . S
C1313 N1317 1.328 . S
C1313 H1319 0.930 . S
C1314 C1313 1.392 . S
C1314 N1318 1.331 . S
C1315 C1316 1.391 . S
C1315 N1318 1.329 . S
C1315 H1325 0.930 . S
C1316 C1315 1.391 . S
C1316 N1317 1.334 . S
C1316 H1323 0.930 . S
N1317 Zn1301 2.119 . S
N1317 C1313 1.328 . S
N1317 C1316 1.334 . S
N1318 C1314 1.331 . S
N1318 C1315 1.329 . S
H1319 C1313 0.930 . S
C1320 O1300 1.257 . S
C1320 O1321 1.244 . S
O1321 C1320 1.244 . S
O1322 C1298 1.257 . S
O1322 Zn1301 2.019 . S
H1323 C1316 0.930 . S
H1324 C1303 0.930 . S
H1325 C1315 0.930 . S
Zn1326 N1330 2.020 . S
Zn1326 O1334 2.019 . S
Zn1326 N1336 2.119 . S
Zn1326 O1344 1.975 . S
C1327 N1328 1.334 . S
C1327 N1331 1.336 . S
N1328 C1327 1.334 . S
N1328 C1329 1.334 . S
C1329 N1328 1.334 . S
C1329 N1330 1.336 . S
N1330 Zn1326 2.020 . S
N1330 C1329 1.336 . S
N1330 N1331 1.354 . S
N1331 C1327 1.336 . S
N1331 N1330 1.354 . S
N1331 Zn1335 2.020 . S
C1332 O1333 1.244 . S
C1332 O1356 1.257 . S
O1333 C1332 1.244 . S
O1334 Zn1326 2.019 . S
O1334 C1354 1.257 . S
Zn1335 N1331 2.020 . S
Zn1335 O1342 1.975 . S
Zn1335 N1351 2.119 . S
Zn1335 O1356 2.019 . S
N1336 Zn1326 2.119 . S
N1336 C1338 1.334 . S
N1336 C1339 1.328 . S
C1337 C1338 1.391 . S
C1337 N1340 1.329 . S
C1337 H1358 0.930 . S
C1338 N1336 1.334 . S
C1338 C1337 1.391 . S
C1338 H1345 0.930 . S
C1339 N1336 1.328 . S
C1339 C1341 1.392 . S
C1339 H1346 0.930 . S
N1340 C1337 1.329 . S
N1340 C1341 1.331 . S
C1341 C1339 1.392 . S
C1341 N1340 1.331 . S
O1342 Zn1335 1.975 . S
O1342 C1343 1.252 . S
C1343 O1342 1.252 . S
C1343 O1344 1.252 . S
O1344 Zn1326 1.975 . S
O1344 C1343 1.252 . S
H1345 C1338 0.930 . S
H1346 C1339 0.930 . S
C1347 C1348 1.392 . S
C1347 N1351 1.328 . S
C1347 H1353 0.930 . S
C1348 C1347 1.392 . S
C1348 N1352 1.331 . S
C1349 C1350 1.391 . S
C1349 N1352 1.329 . S
C1349 H1359 0.930 . S
C1350 C1349 1.391 . S
C1350 N1351 1.334 . S
C1350 H1357 0.930 . S
N1351 Zn1335 2.119 . S
N1351 C1347 1.328 . S
N1351 C1350 1.334 . S
N1352 C1348 1.331 . S
N1352 C1349 1.329 . S
H1353 C1347 0.930 . S
C1354 O1334 1.257 . S
C1354 O1355 1.244 . S
O1355 C1354 1.244 . S
O1356 C1332 1.257 . S
O1356 Zn1335 2.019 . S
H1357 C1350 0.930 . S
H1358 C1337 0.930 . S
H1359 C1349 0.930 . S
Zn1360 N1364 2.020 . S
Zn1360 O1368 2.019 . S
Zn1360 N1370 2.119 . S
Zn1360 O1378 1.975 . S
C1361 N1362 1.334 . S
C1361 N1365 1.336 . S
N1362 C1361 1.334 . S
N1362 C1363 1.334 . S
C1363 N1362 1.334 . S
C1363 N1364 1.336 . S
N1364 Zn1360 2.020 . S
N1364 C1363 1.336 . S
N1364 N1365 1.354 . S
N1365 C1361 1.336 . S
N1365 N1364 1.354 . S
N1365 Zn1369 2.020 . S
C1366 O1367 1.244 . S
C1366 O1390 1.257 . S
O1367 C1366 1.244 . S
O1368 Zn1360 2.019 . S
O1368 C1388 1.257 . S
Zn1369 N1365 2.020 . S
Zn1369 O1376 1.975 . S
Zn1369 N1385 2.119 . S
Zn1369 O1390 2.019 . S
N1370 Zn1360 2.119 . S
N1370 C1372 1.334 . S
N1370 C1373 1.328 . S
C1371 C1372 1.391 . S
C1371 N1374 1.329 . S
C1371 H1392 0.930 . S
C1372 N1370 1.334 . S
C1372 C1371 1.391 . S
C1372 H1379 0.930 . S
C1373 N1370 1.328 . S
C1373 C1375 1.392 . S
C1373 H1380 0.930 . S
N1374 C1371 1.329 . S
N1374 C1375 1.331 . S
C1375 C1373 1.392 . S
C1375 N1374 1.331 . S
O1376 Zn1369 1.975 . S
O1376 C1377 1.252 . S
C1377 O1376 1.252 . S
C1377 O1378 1.252 . S
O1378 Zn1360 1.975 . S
O1378 C1377 1.252 . S
H1379 C1372 0.930 . S
H1380 C1373 0.930 . S
C1381 C1382 1.392 . S
C1381 N1385 1.328 . S
C1381 H1387 0.930 . S
C1382 C1381 1.392 . S
C1382 N1386 1.331 . S
C1383 C1384 1.391 . S
C1383 N1386 1.329 . S
C1383 H1393 0.930 . S
C1384 C1383 1.391 . S
C1384 N1385 1.334 . S
C1384 H1391 0.930 . S
N1385 Zn1369 2.119 . S
N1385 C1381 1.328 . S
N1385 C1384 1.334 . S
N1386 C1382 1.331 . S
N1386 C1383 1.329 . S
H1387 C1381 0.930 . S
C1388 O1368 1.257 . S
C1388 O1389 1.244 . S
O1389 C1388 1.244 . S
O1390 C1366 1.257 . S
O1390 Zn1369 2.019 . S
H1391 C1384 0.930 . S
H1392 C1371 0.930 . S
H1393 C1383 0.930 . S
Zn1394 N1398 2.020 . S
Zn1394 O1402 2.019 . S
Zn1394 N1404 2.119 . S
Zn1394 O1412 1.975 . S
C1395 N1396 1.334 . S
C1395 N1399 1.336 . S
N1396 C1395 1.334 . S
N1396 C1397 1.334 . S
C1397 N1396 1.334 . S
C1397 N1398 1.336 . S
N1398 Zn1394 2.020 . S
N1398 C1397 1.336 . S
N1398 N1399 1.354 . S
N1399 C1395 1.336 . S
N1399 N1398 1.354 . S
N1399 Zn1403 2.020 . S
C1400 O1401 1.244 . S
C1400 O1424 1.257 . S
O1401 C1400 1.244 . S
O1402 Zn1394 2.019 . S
O1402 C1422 1.257 . S
Zn1403 N1399 2.020 . S
Zn1403 O1410 1.975 . S
Zn1403 N1419 2.119 . S
Zn1403 O1424 2.019 . S
N1404 Zn1394 2.119 . S
N1404 C1406 1.334 . S
N1404 C1407 1.328 . S
C1405 C1406 1.391 . S
C1405 N1408 1.329 . S
C1405 H1426 0.930 . S
C1406 N1404 1.334 . S
C1406 C1405 1.391 . S
C1406 H1413 0.930 . S
C1407 N1404 1.328 . S
C1407 C1409 1.392 . S
C1407 H1414 0.930 . S
N1408 C1405 1.329 . S
N1408 C1409 1.331 . S
C1409 C1407 1.392 . S
C1409 N1408 1.331 . S
O1410 Zn1403 1.975 . S
O1410 C1411 1.252 . S
C1411 O1410 1.252 . S
C1411 O1412 1.252 . S
O1412 Zn1394 1.975 . S
O1412 C1411 1.252 . S
H1413 C1406 0.930 . S
H1414 C1407 0.930 . S
C1415 C1416 1.392 . S
C1415 N1419 1.328 . S
C1415 H1421 0.930 . S
C1416 C1415 1.392 . S
C1416 N1420 1.331 . S
C1417 C1418 1.391 . S
C1417 N1420 1.329 . S
C1417 H1427 0.930 . S
C1418 C1417 1.391 . S
C1418 N1419 1.334 . S
C1418 H1425 0.930 . S
N1419 Zn1403 2.119 . S
N1419 C1415 1.328 . S
N1419 C1418 1.334 . S
N1420 C1416 1.331 . S
N1420 C1417 1.329 . S
H1421 C1415 0.930 . S
C1422 O1402 1.257 . S
C1422 O1423 1.244 . S
O1423 C1422 1.244 . S
O1424 C1400 1.257 . S
O1424 Zn1403 2.019 . S
H1425 C1418 0.930 . S
H1426 C1405 0.930 . S
H1427 C1417 0.930 . S
Zn1428 N1432 2.020 . S
Zn1428 O1436 2.019 . S
Zn1428 N1438 2.119 . S
Zn1428 O1446 1.975 . S
C1429 N1430 1.334 . S
C1429 N1433 1.336 . S
N1430 C1429 1.334 . S
N1430 C1431 1.334 . S
C1431 N1430 1.334 . S
C1431 N1432 1.336 . S
N1432 Zn1428 2.020 . S
N1432 C1431 1.336 . S
N1432 N1433 1.354 . S
N1433 C1429 1.336 . S
N1433 N1432 1.354 . S
N1433 Zn1437 2.020 . S
C1434 O1435 1.244 . S
C1434 O1458 1.257 . S
O1435 C1434 1.244 . S
O1436 Zn1428 2.019 . S
O1436 C1456 1.257 . S
Zn1437 N1433 2.020 . S
Zn1437 O1444 1.975 . S
Zn1437 N1453 2.119 . S
Zn1437 O1458 2.019 . S
N1438 Zn1428 2.119 . S
N1438 C1440 1.334 . S
N1438 C1441 1.328 . S
C1439 C1440 1.391 . S
C1439 N1442 1.329 . S
C1439 H1460 0.930 . S
C1440 N1438 1.334 . S
C1440 C1439 1.391 . S
C1440 H1447 0.930 . S
C1441 N1438 1.328 . S
C1441 C1443 1.392 . S
C1441 H1448 0.930 . S
N1442 C1439 1.329 . S
N1442 C1443 1.331 . S
C1443 C1441 1.392 . S
C1443 N1442 1.331 . S
O1444 Zn1437 1.975 . S
O1444 C1445 1.252 . S
C1445 O1444 1.252 . S
C1445 O1446 1.252 . S
O1446 Zn1428 1.975 . S
O1446 C1445 1.252 . S
H1447 C1440 0.930 . S
H1448 C1441 0.930 . S
C1449 C1450 1.392 . S
C1449 N1453 1.328 . S
C1449 H1455 0.930 . S
C1450 C1449 1.392 . S
C1450 N1454 1.331 . S
C1451 C1452 1.391 . S
C1451 N1454 1.329 . S
C1451 H1461 0.930 . S
C1452 C1451 1.391 . S
C1452 N1453 1.334 . S
C1452 H1459 0.930 . S
N1453 Zn1437 2.119 . S
N1453 C1449 1.328 . S
N1453 C1452 1.334 . S
N1454 C1450 1.331 . S
N1454 C1451 1.329 . S
H1455 C1449 0.930 . S
C1456 O1436 1.257 . S
C1456 O1457 1.244 . S
O1457 C1456 1.244 . S
O1458 C1434 1.257 . S
O1458 Zn1437 2.019 . S
H1459 C1452 0.930 . S
H1460 C1439 0.930 . S
H1461 C1451 0.930 . S
Zn1462 N1466 2.020 . S
Zn1462 O1470 2.019 . S
Zn1462 N1472 2.119 . S
Zn1462 O1480 1.975 . S
C1463 N1464 1.334 . S
C1463 N1467 1.336 . S
N1464 C1463 1.334 . S
N1464 C1465 1.334 . S
C1465 N1464 1.334 . S
C1465 N1466 1.336 . S
N1466 Zn1462 2.020 . S
N1466 C1465 1.336 . S
N1466 N1467 1.354 . S
N1467 C1463 1.336 . S
N1467 N1466 1.354 . S
N1467 Zn1471 2.020 . S
C1468 O1469 1.244 . S
C1468 O1492 1.257 . S
O1469 C1468 1.244 . S
O1470 Zn1462 2.019 . S
O1470 C1490 1.257 . S
Zn1471 N1467 2.020 . S
Zn1471 O1478 1.975 . S
Zn1471 N1487 2.119 . S
Zn1471 O1492 2.019 . S
N1472 Zn1462 2.119 . S
N1472 C1474 1.334 . S
N1472 C1475 1.328 . S
C1473 C1474 1.391 . S
C1473 N1476 1.329 . S
C1473 H1494 0.930 . S
C1474 N1472 1.334 . S
C1474 C1473 1.391 . S
C1474 H1481 0.930 . S
C1475 N1472 1.328 . S
C1475 C1477 1.392 . S
C1475 H1482 0.930 . S
N1476 C1473 1.329 . S
N1476 C1477 1.331 . S
C1477 C1475 1.392 . S
C1477 N1476 1.331 . S
O1478 Zn1471 1.975 . S
O1478 C1479 1.252 . S
C1479 O1478 1.252 . S
C1479 O1480 1.252 . S
O1480 Zn1462 1.975 . S
O1480 C1479 1.252 . S
H1481 C1474 0.930 . S
H1482 C1475 0.930 . S
C1483 C1484 1.392 . S
C1483 N1487 1.328 . S
C1483 H1489 0.930 . S
C1484 C1483 1.392 . S
C1484 N1488 1.331 . S
C1485 C1486 1.391 . S
C1485 N1488 1.329 . S
C1485 H1495 0.930 . S
C1486 C1485 1.391 . S
C1486 N1487 1.334 . S
C1486 H1493 0.930 . S
N1487 Zn1471 2.119 . S
N1487 C1483 1.328 . S
N1487 C1486 1.334 . S
N1488 C1484 1.331 . S
N1488 C1485 1.329 . S
H1489 C1483 0.930 . S
C1490 O1470 1.257 . S
C1490 O1491 1.244 . S
O1491 C1490 1.244 . S
O1492 C1468 1.257 . S
O1492 Zn1471 2.019 . S
H1493 C1486 0.930 . S
H1494 C1473 0.930 . S
H1495 C1485 0.930 . S
Zn1496 N1500 2.020 . S
Zn1496 O1504 2.019 . S
Zn1496 N1506 2.119 . S
Zn1496 O1514 1.975 . S
C1497 N1498 1.334 . S
C1497 N1501 1.336 . S
N1498 C1497 1.334 . S
N1498 C1499 1.334 . S
C1499 N1498 1.334 . S
C1499 N1500 1.336 . S
N1500 Zn1496 2.020 . S
N1500 C1499 1.336 . S
N1500 N1501 1.354 . S
N1501 C1497 1.336 . S
N1501 N1500 1.354 . S
N1501 Zn1505 2.020 . S
C1502 O1503 1.244 . S
C1502 O1526 1.257 . S
O1503 C1502 1.244 . S
O1504 Zn1496 2.019 . S
O1504 C1524 1.257 . S
Zn1505 N1501 2.020 . S
Zn1505 O1512 1.975 . S
Zn1505 N1521 2.119 . S
Zn1505 O1526 2.019 . S
N1506 Zn1496 2.119 . S
N1506 C1508 1.334 . S
N1506 C1509 1.328 . S
C1507 C1508 1.391 . S
C1507 N1510 1.329 . S
C1507 H1528 0.930 . S
C1508 N1506 1.334 . S
C1508 C1507 1.391 . S
C1508 H1515 0.930 . S
C1509 N1506 1.328 . S
C1509 C1511 1.392 . S
C1509 H1516 0.930 . S
N1510 C1507 1.329 . S
N1510 C1511 1.331 . S
C1511 C1509 1.392 . S
C1511 N1510 1.331 . S
O1512 Zn1505 1.975 . S
O1512 C1513 1.252 . S
C1513 O1512 1.252 . S
C1513 O1514 1.252 . S
O1514 Zn1496 1.975 . S
O1514 C1513 1.252 . S
H1515 C1508 0.930 . S
H1516 C1509 0.930 . S
C1517 C1518 1.392 . S
C1517 N1521 1.328 . S
C1517 H1523 0.930 . S
C1518 C1517 1.392 . S
C1518 N1522 1.331 . S
C1519 C1520 1.391 . S
C1519 N1522 1.329 . S
C1519 H1529 0.930 . S
C1520 C1519 1.391 . S
C1520 N1521 1.334 . S
C1520 H1527 0.930 . S
N1521 Zn1505 2.119 . S
N1521 C1517 1.328 . S
N1521 C1520 1.334 . S
N1522 C1518 1.331 . S
N1522 C1519 1.329 . S
H1523 C1517 0.930 . S
C1524 O1504 1.257 . S
C1524 O1525 1.244 . S
O1525 C1524 1.244 . S
O1526 C1502 1.257 . S
O1526 Zn1505 2.019 . S
H1527 C1520 0.930 . S
H1528 C1507 0.930 . S
H1529 C1519 0.930 . S
Zn1530 N1534 2.020 . S
Zn1530 O1538 2.019 . S
Zn1530 N1540 2.119 . S
Zn1530 O1548 1.975 . S
C1531 N1532 1.334 . S
C1531 N1535 1.336 . S
N1532 C1531 1.334 . S
N1532 C1533 1.334 . S
C1533 N1532 1.334 . S
C1533 N1534 1.336 . S
N1534 Zn1530 2.020 . S
N1534 C1533 1.336 . S
N1534 N1535 1.354 . S
N1535 C1531 1.336 . S
N1535 N1534 1.354 . S
N1535 Zn1539 2.020 . S
C1536 O1537 1.244 . S
C1536 O1560 1.257 . S
O1537 C1536 1.244 . S
O1538 Zn1530 2.019 . S
O1538 C1558 1.257 . S
Zn1539 N1535 2.020 . S
Zn1539 O1546 1.975 . S
Zn1539 N1555 2.119 . S
Zn1539 O1560 2.019 . S
N1540 Zn1530 2.119 . S
N1540 C1542 1.334 . S
N1540 C1543 1.328 . S
C1541 C1542 1.391 . S
C1541 N1544 1.329 . S
C1541 H1562 0.930 . S
C1542 N1540 1.334 . S
C1542 C1541 1.391 . S
C1542 H1549 0.930 . S
C1543 N1540 1.328 . S
C1543 C1545 1.392 . S
C1543 H1550 0.930 . S
N1544 C1541 1.329 . S
N1544 C1545 1.331 . S
C1545 C1543 1.392 . S
C1545 N1544 1.331 . S
O1546 Zn1539 1.975 . S
O1546 C1547 1.252 . S
C1547 O1546 1.252 . S
C1547 O1548 1.252 . S
O1548 Zn1530 1.975 . S
O1548 C1547 1.252 . S
H1549 C1542 0.930 . S
H1550 C1543 0.930 . S
C1551 C1552 1.392 . S
C1551 N1555 1.328 . S
C1551 H1557 0.930 . S
C1552 C1551 1.392 . S
C1552 N1556 1.331 . S
C1553 C1554 1.391 . S
C1553 N1556 1.329 . S
C1553 H1563 0.930 . S
C1554 C1553 1.391 . S
C1554 N1555 1.334 . S
C1554 H1561 0.930 . S
N1555 Zn1539 2.119 . S
N1555 C1551 1.328 . S
N1555 C1554 1.334 . S
N1556 C1552 1.331 . S
N1556 C1553 1.329 . S
H1557 C1551 0.930 . S
C1558 O1538 1.257 . S
C1558 O1559 1.244 . S
O1559 C1558 1.244 . S
O1560 C1536 1.257 . S
O1560 Zn1539 2.019 . S
H1561 C1554 0.930 . S
H1562 C1541 0.930 . S
H1563 C1553 0.930 . S
Zn1564 N1568 2.020 . S
Zn1564 O1572 2.019 . S
Zn1564 N1574 2.119 . S
Zn1564 O1582 1.975 . S
C1565 N1566 1.334 . S
C1565 N1569 1.336 . S
N1566 C1565 1.334 . S
N1566 C1567 1.334 . S
C1567 N1566 1.334 . S
C1567 N1568 1.336 . S
N1568 Zn1564 2.020 . S
N1568 C1567 1.336 . S
N1568 N1569 1.354 . S
N1569 C1565 1.336 . S
N1569 N1568 1.354 . S
N1569 Zn1573 2.020 . S
C1570 O1571 1.244 . S
C1570 O1594 1.257 . S
O1571 C1570 1.244 . S
O1572 Zn1564 2.019 . S
O1572 C1592 1.257 . S
Zn1573 N1569 2.020 . S
Zn1573 O1580 1.975 . S
Zn1573 N1589 2.119 . S
Zn1573 O1594 2.019 . S
N1574 Zn1564 2.119 . S
N1574 C1576 1.334 . S
N1574 C1577 1.328 . S
C1575 C1576 1.391 . S
C1575 N1578 1.329 . S
C1575 H1596 0.930 . S
C1576 N1574 1.334 . S
C1576 C1575 1.391 . S
C1576 H1583 0.930 . S
C1577 N1574 1.328 . S
C1577 C1579 1.392 . S
C1577 H1584 0.930 . S
N1578 C1575 1.329 . S
N1578 C1579 1.331 . S
C1579 C1577 1.392 . S
C1579 N1578 1.331 . S
O1580 Zn1573 1.975 . S
O1580 C1581 1.252 . S
C1581 O1580 1.252 . S
C1581 O1582 1.252 . S
O1582 Zn1564 1.975 . S
O1582 C1581 1.252 . S
H1583 C1576 0.930 . S
H1584 C1577 0.930 . S
C1585 C1586 1.392 . S
C1585 N1589 1.328 . S
C1585 H1591 0.930 . S
C1586 C1585 1.392 . S
C1586 N1590 1.331 . S
C1587 C1588 1.391 . S
C1587 N1590 1.329 . S
C1587 H1597 0.930 . S
C1588 C1587 1.391 . S
C1588 N1589 1.334 . S
C1588 H1595 0.930 . S
N1589 Zn1573 2.119 . S
N1589 C1585 1.328 . S
N1589 C1588 1.334 . S
N1590 C1586 1.331 . S
N1590 C1587 1.329 . S
H1591 C1585 0.930 . S
C1592 O1572 1.257 . S
C1592 O1593 1.244 . S
O1593 C1592 1.244 . S
O1594 C1570 1.257 . S
O1594 Zn1573 2.019 . S
H1595 C1588 0.930 . S
H1596 C1575 0.930 . S
H1597 C1587 0.930 . S
Zn1598 N1602 2.020 . S
Zn1598 O1606 2.019 . S
Zn1598 N1608 2.119 . S
Zn1598 O1616 1.975 . S
C1599 N1600 1.334 . S
C1599 N1603 1.336 . S
N1600 C1599 1.334 . S
N1600 C1601 1.334 . S
C1601 N1600 1.334 . S
C1601 N1602 1.336 . S
N1602 Zn1598 2.020 . S
N1602 C1601 1.336 . S
N1602 N1603 1.354 . S
N1603 C1599 1.336 . S
N1603 N1602 1.354 . S
N1603 Zn1607 2.020 . S
C1604 O1605 1.244 . S
C1604 O1628 1.257 . S
O1605 C1604 1.244 . S
O1606 Zn1598 2.019 . S
O1606 C1626 1.257 . S
Zn1607 N1603 2.020 . S
Zn1607 O1614 1.975 . S
Zn1607 N1623 2.119 . S
Zn1607 O1628 2.019 . S
N1608 Zn1598 2.119 . S
N1608 C1610 1.334 . S
N1608 C1611 1.328 . S
C1609 C1610 1.391 . S
C1609 N1612 1.329 . S
C1609 H1630 0.930 . S
C1610 N1608 1.334 . S
C1610 C1609 1.391 . S
C1610 H1617 0.930 . S
C1611 N1608 1.328 . S
C1611 C1613 1.392 . S
C1611 H1618 0.930 . S
N1612 C1609 1.329 . S
N1612 C1613 1.331 . S
C1613 C1611 1.392 . S
C1613 N1612 1.331 . S
O1614 Zn1607 1.975 . S
O1614 C1615 1.252 . S
C1615 O1614 1.252 . S
C1615 O1616 1.252 . S
O1616 Zn1598 1.975 . S
O1616 C1615 1.252 . S
H1617 C1610 0.930 . S
H1618 C1611 0.930 . S
C1619 C1620 1.392 . S
C1619 N1623 1.328 . S
C1619 H1625 0.930 . S
C1620 C1619 1.392 . S
C1620 N1624 1.331 . S
C1621 C1622 1.391 . S
C1621 N1624 1.329 . S
C1621 H1631 0.930 . S
C1622 C1621 1.391 . S
C1622 N1623 1.334 . S
C1622 H1629 0.930 . S
N1623 Zn1607 2.119 . S
N1623 C1619 1.328 . S
N1623 C1622 1.334 . S
N1624 C1620 1.331 . S
N1624 C1621 1.329 . S
H1625 C1619 0.930 . S
C1626 O1606 1.257 . S
C1626 O1627 1.244 . S
O1627 C1626 1.244 . S
O1628 C1604 1.257 . S
O1628 Zn1607 2.019 . S
H1629 C1622 0.930 . S
H1630 C1609 0.930 . S
H1631 C1621 0.930 . S
H1632 C1638 0.930 . S
H1633 C1641 0.930 . S
H1634 C1642 0.930 . S
H1635 C1643 0.930 . S
H1636 C1646 0.930 . S
H1637 C1647 0.930 . S
C1638 H1632 0.930 . S
C1638 C1639 1.355 . S
C1638 C1640 1.415 . S
C1639 C1638 1.355 . S
C1639 C1641 1.419 . S
C1640 C1638 1.415 . S
C1640 C1645 1.425 . S
C1640 C1647 1.409 . S
C1641 H1633 0.930 . S
C1641 C1639 1.419 . S
C1641 C1642 1.362 . S
C1642 H1634 0.930 . S
C1642 C1641 1.362 . S
C1642 C1645 1.409 . S
C1643 H1635 0.930 . S
C1643 C1644 1.355 . S
C1643 C1645 1.415 . S
C1644 C1643 1.355 . S
C1644 C1646 1.419 . S
C1645 C1640 1.425 . S
C1645 C1642 1.409 . S
C1645 C1643 1.415 . S
C1646 H1636 0.930 . S
C1646 C1644 1.419 . S
C1646 C1647 1.362 . S
C1647 H1637 0.930 . S
C1647 C1640 1.409 . S
C1647 C1646 1.362 . S
H1648 C1654 0.930 . S
H1649 C1657 0.930 . S
H1650 C1658 0.930 . S
H1651 C1659 0.930 . S
H1652 C1662 0.930 . S
H1653 C1663 0.930 . S
C1654 H1648 0.930 . S
C1654 C1655 1.355 . S
C1654 C1656 1.415 . S
C1655 C1654 1.355 . S
C1655 C1657 1.419 . S
C1656 C1654 1.415 . S
C1656 C1661 1.425 . S
C1656 C1663 1.409 . S
C1657 H1649 0.930 . S
C1657 C1655 1.419 . S
C1657 C1658 1.362 . S
C1658 H1650 0.930 . S
C1658 C1657 1.362 . S
C1658 C1661 1.409 . S
C1659 H1651 0.930 . S
C1659 C1660 1.355 . S
C1659 C1661 1.415 . S
C1660 C1659 1.355 . S
C1660 C1662 1.419 . S
C1661 C1656 1.425 . S
C1661 C1658 1.409 . S
C1661 C1659 1.415 . S
C1662 H1652 0.930 . S
C1662 C1660 1.419 . S
C1662 C1663 1.362 . S
C1663 H1653 0.930 . S
C1663 C1656 1.409 . S
C1663 C1662 1.362 . S
H1664 C1670 0.930 . S
H1665 C1673 0.930 . S
H1666 C1674 0.930 . S
H1667 C1675 0.930 . S
H1668 C1678 0.930 . S
H1669 C1679 0.930 . S
C1670 H1664 0.930 . S
C1670 C1671 1.355 . S
C1670 C1672 1.415 . S
C1671 C1670 1.355 . S
C1671 C1673 1.419 . S
C1672 C1670 1.415 . S
C1672 C1677 1.425 . S
C1672 C1679 1.409 . S
C1673 H1665 0.930 . S
C1673 C1671 1.419 . S
C1673 C1674 1.362 . S
C1674 H1666 0.930 . S
C1674 C1673 1.362 . S
C1674 C1677 1.409 . S
C1675 H1667 0.930 . S
C1675 C1676 1.355 . S
C1675 C1677 1.415 . S
C1676 C1675 1.355 . S
C1676 C1678 1.419 . S
C1677 C1672 1.425 . S
C1677 C1674 1.409 . S
C1677 C1675 1.415 . S
C1678 H1668 0.930 . S
C1678 C1676 1.419 . S
C1678 C1679 1.362 . S
C1679 H1669 0.930 . S
C1679 C1672 1.409 . S
C1679 C1678 1.362 . S
H1680 C1686 0.930 . S
H1681 C1689 0.930 . S
H1682 C1690 0.930 . S
H1683 C1691 0.930 . S
H1684 C1694 0.930 . S
H1685 C1695 0.930 . S
C1686 H1680 0.930 . S
C1686 C1687 1.355 . S
C1686 C1688 1.415 . S
C1687 C1686 1.355 . S
C1687 C1689 1.419 . S
C1688 C1686 1.415 . S
C1688 C1693 1.425 . S
C1688 C1695 1.409 . S
C1689 H1681 0.930 . S
C1689 C1687 1.419 . S
C1689 C1690 1.362 . S
C1690 H1682 0.930 . S
C1690 C1689 1.362 . S
C1690 C1693 1.409 . S
C1691 H1683 0.930 . S
C1691 C1692 1.355 . S
C1691 C1693 1.415 . S
C1692 C1691 1.355 . S
C1692 C1694 1.419 . S
C1693 C1688 1.425 . S
C1693 C1690 1.409 . S
C1693 C1691 1.415 . S
C1694 H1684 0.930 . S
C1694 C1692 1.419 . S
C1694 C1695 1.362 . S
C1695 H1685 0.930 . S
C1695 C1688 1.409 . S
C1695 C1694 1.362 . S
H1696 C1702 0.930 . S
H1697 C1705 0.930 . S
H1698 C1706 0.930 . S
H1699 C1707 0.930 . S
H1700 C1710 0.930 . S
H1701 C1711 0.930 . S
C1702 H1696 0.930 . S
C1702 C1703 1.355 . S
C1702 C1704 1.415 . S
C1703 C1702 1.355 . S
C1703 C1705 1.419 . S
C1704 C1702 1.415 . S
C1704 C1709 1.425 . S
C1704 C1711 1.409 . S
C1705 H1697 0.930 . S
C1705 C1703 1.419 . S
C1705 C1706 1.362 . S
C1706 H1698 0.930 . S
C1706 C1705 1.362 . S
C1706 C1709 1.409 . S
C1707 H1699 0.930 . S
C1707 C1708 1.355 . S
C1707 C1709 1.415 . S
C1708 C1707 1.355 . S
C1708 C1710 1.419 . S
C1709 C1704 1.425 . S
C1709 C1706 1.409 . S
C1709 C1707 1.415 . S
C1710 H1700 0.930 . S
C1710 C1708 1.419 . S
C1710 C1711 1.362 . S
C1711 H1701 0.930 . S
C1711 C1704 1.409 . S
C1711 C1710 1.362 . S
H1712 C1718 0.930 . S
H1713 C1721 0.930 . S
H1714 C1722 0.930 . S
H1715 C1723 0.930 . S
H1716 C1726 0.930 . S
H1717 C1727 0.930 . S
C1718 H1712 0.930 . S
C1718 C1719 1.355 . S
C1718 C1720 1.415 . S
C1719 C1718 1.355 . S
C1719 C1721 1.419 . S
C1720 C1718 1.415 . S
C1720 C1725 1.425 . S
C1720 C1727 1.409 . S
C1721 H1713 0.930 . S
C1721 C1719 1.419 . S
C1721 C1722 1.362 . S
C1722 H1714 0.930 . S
C1722 C1721 1.362 . S
C1722 C1725 1.409 . S
C1723 H1715 0.930 . S
C1723 C1724 1.355 . S
C1723 C1725 1.415 . S
C1724 C1723 1.355 . S
C1724 C1726 1.419 . S
C1725 C1720 1.425 . S
C1725 C1722 1.409 . S
C1725 C1723 1.415 . S
C1726 H1716 0.930 . S
C1726 C1724 1.419 . S
C1726 C1727 1.362 . S
C1727 H1717 0.930 . S
C1727 C1720 1.409 . S
C1727 C1726 1.362 . S
H1728 C1734 0.930 . S
H1729 C1737 0.930 . S
H1730 C1738 0.930 . S
H1731 C1739 0.930 . S
H1732 C1742 0.930 . S
H1733 C1743 0.930 . S
C1734 H1728 0.930 . S
C1734 C1735 1.355 . S
C1734 C1736 1.415 . S
C1735 C1734 1.355 . S
C1735 C1737 1.419 . S
C1736 C1734 1.415 . S
C1736 C1741 1.425 . S
C1736 C1743 1.409 . S
C1737 H1729 0.930 . S
C1737 C1735 1.419 . S
C1737 C1738 1.362 . S
C1738 H1730 0.930 . S
C1738 C1737 1.362 . S
C1738 C1741 1.409 . S
C1739 H1731 0.930 . S
C1739 C1740 1.355 . S
C1739 C1741 1.415 . S
C1740 C1739 1.355 . S
C1740 C1742 1.419 . S
C1741 C1736 1.425 . S
C1741 C1738 1.409 . S
C1741 C1739 1.415 . S
C1742 H1732 0.930 . S
C1742 C1740 1.419 . S
C1742 C1743 1.362 . S
C1743 H1733 0.930 . S
C1743 C1736 1.409 . S
C1743 C1742 1.362 . S
H1744 C1750 0.930 . S
H1745 C1753 0.930 . S
H1746 C1754 0.930 . S
H1747 C1755 0.930 . S
H1748 C1758 0.930 . S
H1749 C1759 0.930 . S
C1750 H1744 0.930 . S
C1750 C1751 1.355 . S
C1750 C1752 1.415 . S
C1751 C1750 1.355 . S
C1751 C1753 1.419 . S
C1752 C1750 1.415 . S
C1752 C1757 1.425 . S
C1752 C1759 1.409 . S
C1753 H1745 0.930 . S
C1753 C1751 1.419 . S
C1753 C1754 1.362 . S
C1754 H1746 0.930 . S
C1754 C1753 1.362 . S
C1754 C1757 1.409 . S
C1755 H1747 0.930 . S
C1755 C1756 1.355 . S
C1755 C1757 1.415 . S
C1756 C1755 1.355 . S
C1756 C1758 1.419 . S
C1757 C1752 1.425 . S
C1757 C1754 1.409 . S
C1757 C1755 1.415 . S
C1758 H1748 0.930 . S
C1758 C1756 1.419 . S
C1758 C1759 1.362 . S
C1759 H1749 0.930 . S
C1759 C1752 1.409 . S
C1759 C1758 1.362 . S
H1760 C1766 0.930 . S
H1761 C1769 0.930 . S
H1762 C1770 0.930 . S
H1763 C1771 0.930 . S
H1764 C1774 0.930 . S
H1765 C1775 0.930 . S
C1766 H1760 0.930 . S
C1766 C1767 1.355 . S
C1766 C1768 1.415 . S
C1767 C1766 1.355 . S
C1767 C1769 1.419 . S
C1768 C1766 1.415 . S
C1768 C1773 1.425 . S
C1768 C1775 1.409 . S
C1769 H1761 0.930 . S
C1769 C1767 1.419 . S
C1769 C1770 1.362 . S
C1770 H1762 0.930 . S
C1770 C1769 1.362 . S
C1770 C1773 1.409 . S
C1771 H1763 0.930 . S
C1771 C1772 1.355 . S
C1771 C1773 1.415 . S
C1772 C1771 1.355 . S
C1772 C1774 1.419 . S
C1773 C1768 1.425 . S
C1773 C1770 1.409 . S
C1773 C1771 1.415 . S
C1774 H1764 0.930 . S
C1774 C1772 1.419 . S
C1774 C1775 1.362 . S
C1775 H1765 0.930 . S
C1775 C1768 1.409 . S
C1775 C1774 1.362 . S
H1776 C1782 0.930 . S
H1777 C1785 0.930 . S
H1778 C1786 0.930 . S
H1779 C1787 0.930 . S
H1780 C1790 0.930 . S
H1781 C1791 0.930 . S
C1782 H1776 0.930 . S
C1782 C1783 1.355 . S
C1782 C1784 1.415 . S
C1783 C1782 1.355 . S
C1783 C1785 1.419 . S
C1784 C1782 1.415 . S
C1784 C1789 1.425 . S
C1784 C1791 1.409 . S
C1785 H1777 0.930 . S
C1785 C1783 1.419 . S
C1785 C1786 1.362 . S
C1786 H1778 0.930 . S
C1786 C1785 1.362 . S
C1786 C1789 1.409 . S
C1787 H1779 0.930 . S
C1787 C1788 1.355 . S
C1787 C1789 1.415 . S
C1788 C1787 1.355 . S
C1788 C1790 1.419 . S
C1789 C1784 1.425 . S
C1789 C1786 1.409 . S
C1789 C1787 1.415 . S
C1790 H1780 0.930 . S
C1790 C1788 1.419 . S
C1790 C1791 1.362 . S
C1791 H1781 0.930 . S
C1791 C1784 1.409 . S
C1791 C1790 1.362 . S
H1792 C1798 0.930 . S
H1793 C1801 0.930 . S
H1794 C1802 0.930 . S
H1795 C1803 0.930 . S
H1796 C1806 0.930 . S
H1797 C1807 0.930 . S
C1798 H1792 0.930 . S
C1798 C1799 1.355 . S
C1798 C1800 1.415 . S
C1799 C1798 1.355 . S
C1799 C1801 1.419 . S
C1800 C1798 1.415 . S
C1800 C1805 1.425 . S
C1800 C1807 1.409 . S
C1801 H1793 0.930 . S
C1801 C1799 1.419 . S
C1801 C1802 1.362 . S
C1802 H1794 0.930 . S
C1802 C1801 1.362 . S
C1802 C1805 1.409 . S
C1803 H1795 0.930 . S
C1803 C1804 1.355 . S
C1803 C1805 1.415 . S
C1804 C1803 1.355 . S
C1804 C1806 1.419 . S
C1805 C1800 1.425 . S
C1805 C1802 1.409 . S
C1805 C1803 1.415 . S
C1806 H1796 0.930 . S
C1806 C1804 1.419 . S
C1806 C1807 1.362 . S
C1807 H1797 0.930 . S
C1807 C1800 1.409 . S
C1807 C1806 1.362 . S
H1808 C1814 0.930 . S
H1809 C1817 0.930 . S
H1810 C1818 0.930 . S
H1811 C1819 0.930 . S
H1812 C1822 0.930 . S
H1813 C1823 0.930 . S
C1814 H1808 0.930 . S
C1814 C1815 1.355 . S
C1814 C1816 1.415 . S
C1815 C1814 1.355 . S
C1815 C1817 1.419 . S
C1816 C1814 1.415 . S
C1816 C1821 1.425 . S
C1816 C1823 1.409 . S
C1817 H1809 0.930 . S
C1817 C1815 1.419 . S
C1817 C1818 1.362 . S
C1818 H1810 0.930 . S
C1818 C1817 1.362 . S
C1818 C1821 1.409 . S
C1819 H1811 0.930 . S
C1819 C1820 1.355 . S
C1819 C1821 1.415 . S
C1820 C1819 1.355 . S
C1820 C1822 1.419 . S
C1821 C1816 1.425 . S
C1821 C1818 1.409 . S
C1821 C1819 1.415 . S
C1822 H1812 0.930 . S
C1822 C1820 1.419 . S
C1822 C1823 1.362 . S
C1823 H1813 0.930 . S
C1823 C1816 1.409 . S
C1823 C1822 1.362 . S
H1824 C1830 0.930 . S
H1825 C1833 0.930 . S
H1826 C1834 0.930 . S
H1827 C1835 0.930 . S
H1828 C1838 0.930 . S
H1829 C1839 0.930 . S
C1830 H1824 0.930 . S
C1830 C1831 1.355 . S
C1830 C1832 1.415 . S
C1831 C1830 1.355 . S
C1831 C1833 1.419 . S
C1832 C1830 1.415 . S
C1832 C1837 1.425 . S
C1832 C1839 1.409 . S
C1833 H1825 0.930 . S
C1833 C1831 1.419 . S
C1833 C1834 1.362 . S
C1834 H1826 0.930 . S
C1834 C1833 1.362 . S
C1834 C1837 1.409 . S
C1835 H1827 0.930 . S
C1835 C1836 1.355 . S
C1835 C1837 1.415 . S
C1836 C1835 1.355 . S
C1836 C1838 1.419 . S
C1837 C1832 1.425 . S
C1837 C1834 1.409 . S
C1837 C1835 1.415 . S
C1838 H1828 0.930 . S
C1838 C1836 1.419 . S
C1838 C1839 1.362 . S
C1839 H1829 0.930 . S
C1839 C1832 1.409 . S
C1839 C1838 1.362 . S
H1840 C1846 0.930 . S
H1841 C1849 0.930 . S
H1842 C1850 0.930 . S
H1843 C1851 0.930 . S
H1844 C1854 0.930 . S
H1845 C1855 0.930 . S
C1846 H1840 0.930 . S
C1846 C1847 1.355 . S
C1846 C1848 1.415 . S
C1847 C1846 1.355 . S
C1847 C1849 1.419 . S
C1848 C1846 1.415 . S
C1848 C1853 1.425 . S
C1848 C1855 1.409 . S
C1849 H1841 0.930 . S
C1849 C1847 1.419 . S
C1849 C1850 1.362 . S
C1850 H1842 0.930 . S
C1850 C1849 1.362 . S
C1850 C1853 1.409 . S
C1851 H1843 0.930 . S
C1851 C1852 1.355 . S
C1851 C1853 1.415 . S
C1852 C1851 1.355 . S
C1852 C1854 1.419 . S
C1853 C1848 1.425 . S
C1853 C1850 1.409 . S
C1853 C1851 1.415 . S
C1854 H1844 0.930 . S
C1854 C1852 1.419 . S
C1854 C1855 1.362 . S
C1855 H1845 0.930 . S
C1855 C1848 1.409 . S
C1855 C1854 1.362 . S
H1856 C1862 0.930 . S
H1857 C1865 0.930 . S
H1858 C1866 0.930 . S
H1859 C1867 0.930 . S
H1860 C1870 0.930 . S
H1861 C1871 0.930 . S
C1862 H1856 0.930 . S
C1862 C1863 1.355 . S
C1862 C1864 1.415 . S
C1863 C1862 1.355 . S
C1863 C1865 1.419 . S
C1864 C1862 1.415 . S
C1864 C1869 1.425 . S
C1864 C1871 1.409 . S
C1865 H1857 0.930 . S
C1865 C1863 1.419 . S
C1865 C1866 1.362 . S
C1866 H1858 0.930 . S
C1866 C1865 1.362 . S
C1866 C1869 1.409 . S
C1867 H1859 0.930 . S
C1867 C1868 1.355 . S
C1867 C1869 1.415 . S
C1868 C1867 1.355 . S
C1868 C1870 1.419 . S
C1869 C1864 1.425 . S
C1869 C1866 1.409 . S
C1869 C1867 1.415 . S
C1870 H1860 0.930 . S
C1870 C1868 1.419 . S
C1870 C1871 1.362 . S
C1871 H1861 0.930 . S
C1871 C1864 1.409 . S
C1871 C1870 1.362 . S
H1872 C1878 0.930 . S
H1873 C1881 0.930 . S
H1874 C1882 0.930 . S
H1875 C1883 0.930 . S
H1876 C1886 0.930 . S
H1877 C1887 0.930 . S
C1878 H1872 0.930 . S
C1878 C1879 1.355 . S
C1878 C1880 1.415 . S
C1879 C1878 1.355 . S
C1879 C1881 1.419 . S
C1880 C1878 1.415 . S
C1880 C1885 1.425 . S
C1880 C1887 1.409 . S
C1881 H1873 0.930 . S
C1881 C1879 1.419 . S
C1881 C1882 1.362 . S
C1882 H1874 0.930 . S
C1882 C1881 1.362 . S
C1882 C1885 1.409 . S
C1883 H1875 0.930 . S
C1883 C1884 1.355 . S
C1883 C1885 1.415 . S
C1884 C1883 1.355 . S
C1884 C1886 1.419 . S
C1885 C1880 1.425 . S
C1885 C1882 1.409 . S
C1885 C1883 1.415 . S
C1886 H1876 0.930 . S
C1886 C1884 1.419 . S
C1886 C1887 1.362 . S
C1887 H1877 0.930 . S
C1887 C1880 1.409 . S
C1887 C1886 1.362 . S
H1888 C1894 0.930 . S
H1889 C1897 0.930 . S
H1890 C1898 0.930 . S
H1891 C1899 0.930 . S
H1892 C1902 0.930 . S
H1893 C1903 0.930 . S
C1894 H1888 0.930 . S
C1894 C1895 1.355 . S
C1894 C1896 1.415 . S
C1895 C1894 1.355 . S
C1895 C1897 1.419 . S
C1896 C1894 1.415 . S
C1896 C1901 1.425 . S
C1896 C1903 1.409 . S
C1897 H1889 0.930 . S
C1897 C1895 1.419 . S
C1897 C1898 1.362 . S
C1898 H1890 0.930 . S
C1898 C1897 1.362 . S
C1898 C1901 1.409 . S
C1899 H1891 0.930 . S
C1899 C1900 1.355 . S
C1899 C1901 1.415 . S
C1900 C1899 1.355 . S
C1900 C1902 1.419 . S
C1901 C1896 1.425 . S
C1901 C1898 1.409 . S
C1901 C1899 1.415 . S
C1902 H1892 0.930 . S
C1902 C1900 1.419 . S
C1902 C1903 1.362 . S
C1903 H1893 0.930 . S
C1903 C1896 1.409 . S
C1903 C1902 1.362 . S
H1904 C1910 0.930 . S
H1905 C1913 0.930 . S
H1906 C1914 0.930 . S
H1907 C1915 0.930 . S
H1908 C1918 0.930 . S
H1909 C1919 0.930 . S
C1910 H1904 0.930 . S
C1910 C1911 1.355 . S
C1910 C1912 1.415 . S
C1911 C1910 1.355 . S
C1911 C1913 1.419 . S
C1912 C1910 1.415 . S
C1912 C1917 1.425 . S
C1912 C1919 1.409 . S
C1913 H1905 0.930 . S
C1913 C1911 1.419 . S
C1913 C1914 1.362 . S
C1914 H1906 0.930 . S
C1914 C1913 1.362 . S
C1914 C1917 1.409 . S
C1915 H1907 0.930 . S
C1915 C1916 1.355 . S
C1915 C1917 1.415 . S
C1916 C1915 1.355 . S
C1916 C1918 1.419 . S
C1917 C1912 1.425 . S
C1917 C1914 1.409 . S
C1917 C1915 1.415 . S
C1918 H1908 0.930 . S
C1918 C1916 1.419 . S
C1918 C1919 1.362 . S
C1919 H1909 0.930 . S
C1919 C1912 1.409 . S
C1919 C1918 1.362 . S
H1920 C1926 0.930 . S
H1921 C1929 0.930 . S
H1922 C1930 0.930 . S
H1923 C1931 0.930 . S
H1924 C1934 0.930 . S
H1925 C1935 0.930 . S
C1926 H1920 0.930 . S
C1926 C1927 1.355 . S
C1926 C1928 1.415 . S
C1927 C1926 1.355 . S
C1927 C1929 1.419 . S
C1928 C1926 1.415 . S
C1928 C1933 1.425 . S
C1928 C1935 1.409 . S
C1929 H1921 0.930 . S
C1929 C1927 1.419 . S
C1929 C1930 1.362 . S
C1930 H1922 0.930 . S
C1930 C1929 1.362 . S
C1930 C1933 1.409 . S
C1931 H1923 0.930 . S
C1931 C1932 1.355 . S
C1931 C1933 1.415 . S
C1932 C1931 1.355 . S
C1932 C1934 1.419 . S
C1933 C1928 1.425 . S
C1933 C1930 1.409 . S
C1933 C1931 1.415 . S
C1934 H1924 0.930 . S
C1934 C1932 1.419 . S
C1934 C1935 1.362 . S
C1935 H1925 0.930 . S
C1935 C1928 1.409 . S
C1935 C1934 1.362 . S
H1936 C1942 0.930 . S
H1937 C1945 0.930 . S
H1938 C1946 0.930 . S
H1939 C1947 0.930 . S
H1940 C1950 0.930 . S
H1941 C1951 0.930 . S
C1942 H1936 0.930 . S
C1942 C1943 1.355 . S
C1942 C1944 1.415 . S
C1943 C1942 1.355 . S
C1943 C1945 1.419 . S
C1944 C1942 1.415 . S
C1944 C1949 1.425 . S
C1944 C1951 1.409 . S
C1945 H1937 0.930 . S
C1945 C1943 1.419 . S
C1945 C1946 1.362 . S
C1946 H1938 0.930 . S
C1946 C1945 1.362 . S
C1946 C1949 1.409 . S
C1947 H1939 0.930 . S
C1947 C1948 1.355 . S
C1947 C1949 1.415 . S
C1948 C1947 1.355 . S
C1948 C1950 1.419 . S
C1949 C1944 1.425 . S
C1949 C1946 1.409 . S
C1949 C1947 1.415 . S
C1950 H1940 0.930 . S
C1950 C1948 1.419 . S
C1950 C1951 1.362 . S
C1951 H1941 0.930 . S
C1951 C1944 1.409 . S
C1951 C1950 1.362 . S
H1952 C1958 0.930 . S
H1953 C1961 0.930 . S
H1954 C1962 0.930 . S
H1955 C1963 0.930 . S
H1956 C1966 0.930 . S
H1957 C1967 0.930 . S
C1958 H1952 0.930 . S
C1958 C1959 1.355 . S
C1958 C1960 1.415 . S
C1959 C1958 1.355 . S
C1959 C1961 1.419 . S
C1960 C1958 1.415 . S
C1960 C1965 1.425 . S
C1960 C1967 1.409 . S
C1961 H1953 0.930 . S
C1961 C1959 1.419 . S
C1961 C1962 1.362 . S
C1962 H1954 0.930 . S
C1962 C1961 1.362 . S
C1962 C1965 1.409 . S
C1963 H1955 0.930 . S
C1963 C1964 1.355 . S
C1963 C1965 1.415 . S
C1964 C1963 1.355 . S
C1964 C1966 1.419 . S
C1965 C1960 1.425 . S
C1965 C1962 1.409 . S
C1965 C1963 1.415 . S
C1966 H1956 0.930 . S
C1966 C1964 1.419 . S
C1966 C1967 1.362 . S
C1967 H1957 0.930 . S
C1967 C1960 1.409 . S
C1967 C1966 1.362 . S
H1968 C1974 0.930 . S
H1969 C1977 0.930 . S
H1970 C1978 0.930 . S
H1971 C1979 0.930 . S
H1972 C1982 0.930 . S
H1973 C1983 0.930 . S
C1974 H1968 0.930 . S
C1974 C1975 1.355 . S
C1974 C1976 1.415 . S
C1975 C1974 1.355 . S
C1975 C1977 1.419 . S
C1976 C1974 1.415 . S
C1976 C1981 1.425 . S
C1976 C1983 1.409 . S
C1977 H1969 0.930 . S
C1977 C1975 1.419 . S
C1977 C1978 1.362 . S
C1978 H1970 0.930 . S
C1978 C1977 1.362 . S
C1978 C1981 1.409 . S
C1979 H1971 0.930 . S
C1979 C1980 1.355 . S
C1979 C1981 1.415 . S
C1980 C1979 1.355 . S
C1980 C1982 1.419 . S
C1981 C1976 1.425 . S
C1981 C1978 1.409 . S
C1981 C1979 1.415 . S
C1982 H1972 0.930 . S
C1982 C1980 1.419 . S
C1982 C1983 1.362 . S
C1983 H1973 0.930 . S
C1983 C1976 1.409 . S
C1983 C1982 1.362 . S
H1984 C1990 0.930 . S
H1985 C1993 0.930 . S
H1986 C1994 0.930 . S
H1987 C1995 0.930 . S
H1988 C1998 0.930 . S
H1989 C1999 0.930 . S
C1990 H1984 0.930 . S
C1990 C1991 1.355 . S
C1990 C1992 1.415 . S
C1991 C1990 1.355 . S
C1991 C1993 1.419 . S
C1992 C1990 1.415 . S
C1992 C1997 1.425 . S
C1992 C1999 1.409 . S
C1993 H1985 0.930 . S
C1993 C1991 1.419 . S
C1993 C1994 1.362 . S
C1994 H1986 0.930 . S
C1994 C1993 1.362 . S
C1994 C1997 1.409 . S
C1995 H1987 0.930 . S
C1995 C1996 1.355 . S
C1995 C1997 1.415 . S
C1996 C1995 1.355 . S
C1996 C1998 1.419 . S
C1997 C1992 1.425 . S
C1997 C1994 1.409 . S
C1997 C1995 1.415 . S
C1998 H1988 0.930 . S
C1998 C1996 1.419 . S
C1998 C1999 1.362 . S
C1999 H1989 0.930 . S
C1999 C1992 1.409 . S
C1999 C1998 1.362 . S
H2000 C2006 0.930 . S
H2001 C2009 0.930 . S
H2002 C2010 0.930 . S
H2003 C2011 0.930 . S
H2004 C2014 0.930 . S
H2005 C2015 0.930 . S
C2006 H2000 0.930 . S
C2006 C2007 1.355 . S
C2006 C2008 1.415 . S
C2007 C2006 1.355 . S
C2007 C2009 1.419 . S
C2008 C2006 1.415 . S
C2008 C2013 1.425 . S
C2008 C2015 1.409 . S
C2009 H2001 0.930 . S
C2009 C2007 1.419 . S
C2009 C2010 1.362 . S
C2010 H2002 0.930 . S
C2010 C2009 1.362 . S
C2010 C2013 1.409 . S
C2011 H2003 0.930 . S
C2011 C2012 1.355 . S
C2011 C2013 1.415 . S
C2012 C2011 1.355 . S
C2012 C2014 1.419 . S
C2013 C2008 1.425 . S
C2013 C2010 1.409 . S
C2013 C2011 1.415 . S
C2014 H2004 0.930 . S
C2014 C2012 1.419 . S
C2014 C2015 1.362 . S
C2015 H2005 0.930 . S
C2015 C2008 1.409 . S
C2015 C2014 1.362 . S
H2016 C2022 0.930 . S
H2017 C2025 0.930 . S
H2018 C2026 0.930 . S
H2019 C2027 0.930 . S
H2020 C2030 0.930 . S
H2021 C2031 0.930 . S
C2022 H2016 0.930 . S
C2022 C2023 1.355 . S
C2022 C2024 1.415 . S
C2023 C2022 1.355 . S
C2023 C2025 1.419 . S
C2024 C2022 1.415 . S
C2024 C2029 1.425 . S
C2024 C2031 1.409 . S
C2025 H2017 0.930 . S
C2025 C2023 1.419 . S
C2025 C2026 1.362 . S
C2026 H2018 0.930 . S
C2026 C2025 1.362 . S
C2026 C2029 1.409 . S
C2027 H2019 0.930 . S
C2027 C2028 1.355 . S
C2027 C2029 1.415 . S
C2028 C2027 1.355 . S
C2028 C2030 1.419 . S
C2029 C2024 1.425 . S
C2029 C2026 1.409 . S
C2029 C2027 1.415 . S
C2030 H2020 0.930 . S
C2030 C2028 1.419 . S
C2030 C2031 1.362 . S
C2031 H2021 0.930 . S
C2031 C2024 1.409 . S
C2031 C2030 1.362 . S
H2032 C2038 0.930 . S
H2033 C2041 0.930 . S
H2034 C2042 0.930 . S
H2035 C2043 0.930 . S
H2036 C2046 0.930 . S
H2037 C2047 0.930 . S
C2038 H2032 0.930 . S
C2038 C2039 1.355 . S
C2038 C2040 1.415 . S
C2039 C2038 1.355 . S
C2039 C2041 1.419 . S
C2040 C2038 1.415 . S
C2040 C2045 1.425 . S
C2040 C2047 1.409 . S
C2041 H2033 0.930 . S
C2041 C2039 1.419 . S
C2041 C2042 1.362 . S
C2042 H2034 0.930 . S
C2042 C2041 1.362 . S
C2042 C2045 1.409 . S
C2043 H2035 0.930 . S
C2043 C2044 1.355 . S
C2043 C2045 1.415 . S
C2044 C2043 1.355 . S
C2044 C2046 1.419 . S
C2045 C2040 1.425 . S
C2045 C2042 1.409 . S
C2045 C2043 1.415 . S
C2046 H2036 0.930 . S
C2046 C2044 1.419 . S
C2046 C2047 1.362 . S
C2047 H2037 0.930 . S
C2047 C2040 1.409 . S
C2047 C2046 1.362 . S
H2048 C2054 0.930 . S
H2049 C2057 0.930 . S
H2050 C2058 0.930 . S
H2051 C2059 0.930 . S
H2052 C2062 0.930 . S
H2053 C2063 0.930 . S
C2054 H2048 0.930 . S
C2054 C2055 1.355 . S
C2054 C2056 1.415 . S
C2055 C2054 1.355 . S
C2055 C2057 1.419 . S
C2056 C2054 1.415 . S
C2056 C2061 1.425 . S
C2056 C2063 1.409 . S
C2057 H2049 0.930 . S
C2057 C2055 1.419 . S
C2057 C2058 1.362 . S
C2058 H2050 0.930 . S
C2058 C2057 1.362 . S
C2058 C2061 1.409 . S
C2059 H2051 0.930 . S
C2059 C2060 1.355 . S
C2059 C2061 1.415 . S
C2060 C2059 1.355 . S
C2060 C2062 1.419 . S
C2061 C2056 1.425 . S
C2061 C2058 1.409 . S
C2061 C2059 1.415 . S
C2062 H2052 0.930 . S
C2062 C2060 1.419 . S
C2062 C2063 1.362 . S
C2063 H2053 0.930 . S
C2063 C2056 1.409 . S
C2063 C2062 1.362 . S
H2064 C2070 0.930 . S
H2065 C2073 0.930 . S
H2066 C2074 0.930 . S
H2067 C2075 0.930 . S
H2068 C2078 0.930 . S
H2069 C2079 0.930 . S
C2070 H2064 0.930 . S
C2070 C2071 1.355 . S
C2070 C2072 1.415 . S
C2071 C2070 1.355 . S
C2071 C2073 1.419 . S
C2072 C2070 1.415 . S
C2072 C2077 1.425 . S
C2072 C2079 1.409 . S
C2073 H2065 0.930 . S
C2073 C2071 1.419 . S
C2073 C2074 1.362 . S
C2074 H2066 0.930 . S
C2074 C2073 1.362 . S
C2074 C2077 1.409 . S
C2075 H2067 0.930 . S
C2075 C2076 1.355 . S
C2075 C2077 1.415 . S
C2076 C2075 1.355 . S
C2076 C2078 1.419 . S
C2077 C2072 1.425 . S
C2077 C2074 1.409 . S
C2077 C2075 1.415 . S
C2078 H2068 0.930 . S
C2078 C2076 1.419 . S
C2078 C2079 1.362 . S
C2079 H2069 0.930 . S
C2079 C2072 1.409 . S
C2079 C2078 1.362 . S
H2080 C2086 0.930 . S
H2081 C2089 0.930 . S
H2082 C2090 0.930 . S
H2083 C2091 0.930 . S
H2084 C2094 0.930 . S
H2085 C2095 0.930 . S
C2086 H2080 0.930 . S
C2086 C2087 1.355 . S
C2086 C2088 1.415 . S
C2087 C2086 1.355 . S
C2087 C2089 1.419 . S
C2088 C2086 1.415 . S
C2088 C2093 1.425 . S
C2088 C2095 1.409 . S
C2089 H2081 0.930 . S
C2089 C2087 1.419 . S
C2089 C2090 1.362 . S
C2090 H2082 0.930 . S
C2090 C2089 1.362 . S
C2090 C2093 1.409 . S
C2091 H2083 0.930 . S
C2091 C2092 1.355 . S
C2091 C2093 1.415 . S
C2092 C2091 1.355 . S
C2092 C2094 1.419 . S
C2093 C2088 1.425 . S
C2093 C2090 1.409 . S
C2093 C2091 1.415 . S
C2094 H2084 0.930 . S
C2094 C2092 1.419 . S
C2094 C2095 1.362 . S
C2095 H2085 0.930 . S
C2095 C2088 1.409 . S
C2095 C2094 1.362 . S
H2096 C2102 0.930 . S
H2097 C2105 0.930 . S
H2098 C2106 0.930 . S
H2099 C2107 0.930 . S
H2100 C2110 0.930 . S
H2101 C2111 0.930 . S
C2102 H2096 0.930 . S
C2102 C2103 1.355 . S
C2102 C2104 1.415 . S
C2103 C2102 1.355 . S
C2103 C2105 1.419 . S
C2104 C2102 1.415 . S
C2104 C2109 1.425 . S
C2104 C2111 1.409 . S
C2105 H2097 0.930 . S
C2105 C2103 1.419 . S
C2105 C2106 1.362 . S
C2106 H2098 0.930 . S
C2106 C2105 1.362 . S
C2106 C2109 1.409 . S
C2107 H2099 0.930 . S
C2107 C2108 1.355 . S
C2107 C2109 1.415 . S
C2108 C2107 1.355 . S
C2108 C2110 1.419 . S
C2109 C2104 1.425 . S
C2109 C2106 1.409 . S
C2109 C2107 1.415 . S
C2110 H2100 0.930 . S
C2110 C2108 1.419 . S
C2110 C2111 1.362 . S
C2111 H2101 0.930 . S
C2111 C2104 1.409 . S
C2111 C2110 1.362 . S
H2112 C2118 0.930 . S
H2113 C2121 0.930 . S
H2114 C2122 0.930 . S
H2115 C2123 0.930 . S
H2116 C2126 0.930 . S
H2117 C2127 0.930 . S
C2118 H2112 0.930 . S
C2118 C2119 1.355 . S
C2118 C2120 1.415 . S
C2119 C2118 1.355 . S
C2119 C2121 1.419 . S
C2120 C2118 1.415 . S
C2120 C2125 1.425 . S
C2120 C2127 1.409 . S
C2121 H2113 0.930 . S
C2121 C2119 1.419 . S
C2121 C2122 1.362 . S
C2122 H2114 0.930 . S
C2122 C2121 1.362 . S
C2122 C2125 1.409 . S
C2123 H2115 0.930 . S
C2123 C2124 1.355 . S
C2123 C2125 1.415 . S
C2124 C2123 1.355 . S
C2124 C2126 1.419 . S
C2125 C2120 1.425 . S
C2125 C2122 1.409 . S
C2125 C2123 1.415 . S
C2126 H2116 0.930 . S
C2126 C2124 1.419 . S
C2126 C2127 1.362 . S
C2127 H2117 0.930 . S
C2127 C2120 1.409 . S
C2127 C2126 1.362 . S
H2128 C2134 0.930 . S
H2129 C2137 0.930 . S
H2130 C2138 0.930 . S
H2131 C2139 0.930 . S
H2132 C2142 0.930 . S
H2133 C2143 0.930 . S
C2134 H2128 0.930 . S
C2134 C2135 1.355 . S
C2134 C2136 1.415 . S
C2135 C2134 1.355 . S
C2135 C2137 1.419 . S
C2136 C2134 1.415 . S
C2136 C2141 1.425 . S
C2136 C2143 1.409 . S
C2137 H2129 0.930 . S
C2137 C2135 1.419 . S
C2137 C2138 1.362 . S
C2138 H2130 0.930 . S
C2138 C2137 1.362 . S
C2138 C2141 1.409 . S
C2139 H2131 0.930 . S
C2139 C2140 1.355 . S
C2139 C2141 1.415 . S
C2140 C2139 1.355 . S
C2140 C2142 1.419 . S
C2141 C2136 1.425 . S
C2141 C2138 1.409 . S
C2141 C2139 1.415 . S
C2142 H2132 0.930 . S
C2142 C2140 1.419 . S
C2142 C2143 1.362 . S
C2143 H2133 0.930 . S
C2143 C2136 1.409 . S
C2143 C2142 1.362 . S
H2144 C2150 0.930 . S
H2145 C2153 0.930 . S
H2146 C2154 0.930 . S
H2147 C2155 0.930 . S
H2148 C2158 0.930 . S
H2149 C2159 0.930 . S
C2150 H2144 0.930 . S
C2150 C2151 1.355 . S
C2150 C2152 1.415 . S
C2151 C2150 1.355 . S
C2151 C2153 1.419 . S
C2152 C2150 1.415 . S
C2152 C2157 1.425 . S
C2152 C2159 1.409 . S
C2153 H2145 0.930 . S
C2153 C2151 1.419 . S
C2153 C2154 1.362 . S
C2154 H2146 0.930 . S
C2154 C2153 1.362 . S
C2154 C2157 1.409 . S
C2155 H2147 0.930 . S
C2155 C2156 1.355 . S
C2155 C2157 1.415 . S
C2156 C2155 1.355 . S
C2156 C2158 1.419 . S
C2157 C2152 1.425 . S
C2157 C2154 1.409 . S
C2157 C2155 1.415 . S
C2158 H2148 0.930 . S
C2158 C2156 1.419 . S
C2158 C2159 1.362 . S
C2159 H2149 0.930 . S
C2159 C2152 1.409 . S
C2159 C2158 1.362 . S
H2160 C2166 0.930 . S
H2161 C2169 0.930 . S
H2162 C2170 0.930 . S
H2163 C2171 0.930 . S
H2164 C2174 0.930 . S
H2165 C2175 0.930 . S
C2166 H2160 0.930 . S
C2166 C2167 1.355 . S
C2166 C2168 1.415 . S
C2167 C2166 1.355 . S
C2167 C2169 1.419 . S
C2168 C2166 1.415 . S
C2168 C2173 1.425 . S
C2168 C2175 1.409 . S
C2169 H2161 0.930 . S
C2169 C2167 1.419 . S
C2169 C2170 1.362 . S
C2170 H2162 0.930 . S
C2170 C2169 1.362 . S
C2170 C2173 1.409 . S
C2171 H2163 0.930 . S
C2171 C2172 1.355 . S
C2171 C2173 1.415 . S
C2172 C2171 1.355 . S
C2172 C2174 1.419 . S
C2173 C2168 1.425 . S
C2173 C2170 1.409 . S
C2173 C2171 1.415 . S
C2174 H2164 0.930 . S
C2174 C2172 1.419 . S
C2174 C2175 1.362 . S
C2175 H2165 0.930 . S
C2175 C2168 1.409 . S
C2175 C2174 1.362 . S
H2176 C2182 0.930 . S
H2177 C2185 0.930 . S
H2178 C2186 0.930 . S
H2179 C2187 0.930 . S
H2180 C2190 0.930 . S
H2181 C2191 0.930 . S
C2182 H2176 0.930 . S
C2182 C2183 1.355 . S
C2182 C2184 1.415 . S
C2183 C2182 1.355 . S
C2183 C2185 1.419 . S
C2184 C2182 1.415 . S
C2184 C2189 1.425 . S
C2184 C2191 1.409 . S
C2185 H2177 0.930 . S
C2185 C2183 1.419 . S
C2185 C2186 1.362 . S
C2186 H2178 0.930 . S
C2186 C2185 1.362 . S
C2186 C2189 1.409 . S
C2187 H2179 0.930 . S
C2187 C2188 1.355 . S
C2187 C2189 1.415 . S
C2188 C2187 1.355 . S
C2188 C2190 1.419 . S
C2189 C2184 1.425 . S
C2189 C2186 1.409 . S
C2189 C2187 1.415 . S
C2190 H2180 0.930 . S
C2190 C2188 1.419 . S
C2190 C2191 1.362 . S
C2191 H2181 0.930 . S
C2191 C2184 1.409 . S
C2191 C2190 1.362 . S
H2192 C2198 0.930 . S
H2193 C2201 0.930 . S
H2194 C2202 0.930 . S
H2195 C2203 0.930 . S
H2196 C2206 0.930 . S
H2197 C2207 0.930 . S
C2198 H2192 0.930 . S
C2198 C2199 1.355 . S
C2198 C2200 1.415 . S
C2199 C2198 1.355 . S
C2199 C2201 1.419 . S
C2200 C2198 1.415 . S
C2200 C2205 1.425 . S
C2200 C2207 1.409 . S
C2201 H2193 0.930 . S
C2201 C2199 1.419 . S
C2201 C2202 1.362 . S
C2202 H2194 0.930 . S
C2202 C2201 1.362 . S
C2202 C2205 1.409 . S
C2203 H2195 0.930 . S
C2203 C2204 1.355 . S
C2203 C2205 1.415 . S
C2204 C2203 1.355 . S
C2204 C2206 1.419 . S
C2205 C2200 1.425 . S
C2205 C2202 1.409 . S
C2205 C2203 1.415 . S
C2206 H2196 0.930 . S
C2206 C2204 1.419 . S
C2206 C2207 1.362 . S
C2207 H2197 0.930 . S
C2207 C2200 1.409 . S
C2207 C2206 1.362 . S
H2208 C2214 0.930 . S
H2209 C2217 0.930 . S
H2210 C2218 0.930 . S
H2211 C2219 0.930 . S
H2212 C2222 0.930 . S
H2213 C2223 0.930 . S
C2214 H2208 0.930 . S
C2214 C2215 1.355 . S
C2214 C2216 1.415 . S
C2215 C2214 1.355 . S
C2215 C2217 1.419 . S
C2216 C2214 1.415 . S
C2216 C2221 1.425 . S
C2216 C2223 1.409 . S
C2217 H2209 0.930 . S
C2217 C2215 1.419 . S
C2217 C2218 1.362 . S
C2218 H2210 0.930 . S
C2218 C2217 1.362 . S
C2218 C2221 1.409 . S
C2219 H2211 0.930 . S
C2219 C2220 1.355 . S
C2219 C2221 1.415 . S
C2220 C2219 1.355 . S
C2220 C2222 1.419 . S
C2221 C2216 1.425 . S
C2221 C2218 1.409 . S
C2221 C2219 1.415 . S
C2222 H2212 0.930 . S
C2222 C2220 1.419 . S
C2222 C2223 1.362 . S
C2223 H2213 0.930 . S
C2223 C2216 1.409 . S
C2223 C2222 1.362 . S
H2224 C2230 0.930 . S
H2225 C2233 0.930 . S
H2226 C2234 0.930 . S
H2227 C2235 0.930 . S
H2228 C2238 0.930 . S
H2229 C2239 0.930 . S
C2230 H2224 0.930 . S
C2230 C2231 1.355 . S
C2230 C2232 1.415 . S
C2231 C2230 1.355 . S
C2231 C2233 1.419 . S
C2232 C2230 1.415 . S
C2232 C2237 1.425 . S
C2232 C2239 1.409 . S
C2233 H2225 0.930 . S
C2233 C2231 1.419 . S
C2233 C2234 1.362 . S
C2234 H2226 0.930 . S
C2234 C2233 1.362 . S
C2234 C2237 1.409 . S
C2235 H2227 0.930 . S
C2235 C2236 1.355 . S
C2235 C2237 1.415 . S
C2236 C2235 1.355 . S
C2236 C2238 1.419 . S
C2237 C2232 1.425 . S
C2237 C2234 1.409 . S
C2237 C2235 1.415 . S
C2238 H2228 0.930 . S
C2238 C2236 1.419 . S
C2238 C2239 1.362 . S
C2239 H2229 0.930 . S
C2239 C2232 1.409 . S
C2239 C2238 1.362 . S
H2240 C2246 0.930 . S
H2241 C2249 0.930 . S
H2242 C2250 0.930 . S
H2243 C2251 0.930 . S
H2244 C2254 0.930 . S
H2245 C2255 0.930 . S
C2246 H2240 0.930 . S
C2246 C2247 1.355 . S
C2246 C2248 1.415 . S
C2247 C2246 1.355 . S
C2247 C2249 1.419 . S
C2248 C2246 1.415 . S
C2248 C2253 1.425 . S
C2248 C2255 1.409 . S
C2249 H2241 0.930 . S
C2249 C2247 1.419 . S
C2249 C2250 1.362 . S
C2250 H2242 0.930 . S
C2250 C2249 1.362 . S
C2250 C2253 1.409 . S
C2251 H2243 0.930 . S
C2251 C2252 1.355 . S
C2251 C2253 1.415 . S
C2252 C2251 1.355 . S
C2252 C2254 1.419 . S
C2253 C2248 1.425 . S
C2253 C2250 1.409 . S
C2253 C2251 1.415 . S
C2254 H2244 0.930 . S
C2254 C2252 1.419 . S
C2254 C2255 1.362 . S
C2255 H2245 0.930 . S
C2255 C2248 1.409 . S
C2255 C2254 1.362 . S
H2256 C2262 0.930 . S
H2257 C2265 0.930 . S
H2258 C2266 0.930 . S
H2259 C2267 0.930 . S
H2260 C2270 0.930 . S
H2261 C2271 0.930 . S
C2262 H2256 0.930 . S
C2262 C2263 1.355 . S
C2262 C2264 1.415 . S
C2263 C2262 1.355 . S
C2263 C2265 1.419 . S
C2264 C2262 1.415 . S
C2264 C2269 1.425 . S
C2264 C2271 1.409 . S
C2265 H2257 0.930 . S
C2265 C2263 1.419 . S
C2265 C2266 1.362 . S
C2266 H2258 0.930 . S
C2266 C2265 1.362 . S
C2266 C2269 1.409 . S
C2267 H2259 0.930 . S
C2267 C2268 1.355 . S
C2267 C2269 1.415 . S
C2268 C2267 1.355 . S
C2268 C2270 1.419 . S
C2269 C2264 1.425 . S
C2269 C2266 1.409 . S
C2269 C2267 1.415 . S
C2270 H2260 0.930 . S
C2270 C2268 1.419 . S
C2270 C2271 1.362 . S
C2271 H2261 0.930 . S
C2271 C2264 1.409 . S
C2271 C2270 1.362 . S
H2272 C2278 0.930 . S
H2273 C2281 0.930 . S
H2274 C2282 0.930 . S
H2275 C2283 0.930 . S
H2276 C2286 0.930 . S
H2277 C2287 0.930 . S
C2278 H2272 0.930 . S
C2278 C2279 1.355 . S
C2278 C2280 1.415 . S
C2279 C2278 1.355 . S
C2279 C2281 1.419 . S
C2280 C2278 1.415 . S
C2280 C2285 1.425 . S
C2280 C2287 1.409 . S
C2281 H2273 0.930 . S
C2281 C2279 1.419 . S
C2281 C2282 1.362 . S
C2282 H2274 0.930 . S
C2282 C2281 1.362 . S
C2282 C2285 1.409 . S
C2283 H2275 0.930 . S
C2283 C2284 1.355 . S
C2283 C2285 1.415 . S
C2284 C2283 1.355 . S
C2284 C2286 1.419 . S
C2285 C2280 1.425 . S
C2285 C2282 1.409 . S
C2285 C2283 1.415 . S
C2286 H2276 0.930 . S
C2286 C2284 1.419 . S
C2286 C2287 1.362 . S
C2287 H2277 0.930 . S
C2287 C2280 1.409 . S
C2287 C2286 1.362 . S
H2288 C2294 0.930 . S
H2289 C2297 0.930 . S
H2290 C2298 0.930 . S
H2291 C2299 0.930 . S
H2292 C2302 0.930 . S
H2293 C2303 0.930 . S
C2294 H2288 0.930 . S
C2294 C2295 1.355 . S
C2294 C2296 1.415 . S
C2295 C2294 1.355 . S
C2295 C2297 1.419 . S
C2296 C2294 1.415 . S
C2296 C2301 1.425 . S
C2296 C2303 1.409 . S
C2297 H2289 0.930 . S
C2297 C2295 1.419 . S
C2297 C2298 1.362 . S
C2298 H2290 0.930 . S
C2298 C2297 1.362 . S
C2298 C2301 1.409 . S
C2299 H2291 0.930 . S
C2299 C2300 1.355 . S
C2299 C2301 1.415 . S
C2300 C2299 1.355 . S
C2300 C2302 1.419 . S
C2301 C2296 1.425 . S
C2301 C2298 1.409 . S
C2301 C2299 1.415 . S
C2302 H2292 0.930 . S
C2302 C2300 1.419 . S
C2302 C2303 1.362 . S
C2303 H2293 0.930 . S
C2303 C2296 1.409 . S
C2303 C2302 1.362 . S
H2304 C2310 0.930 . S
H2305 C2313 0.930 . S
H2306 C2314 0.930 . S
H2307 C2315 0.930 . S
H2308 C2318 0.930 . S
H2309 C2319 0.930 . S
C2310 H2304 0.930 . S
C2310 C2311 1.355 . S
C2310 C2312 1.415 . S
C2311 C2310 1.355 . S
C2311 C2313 1.419 . S
C2312 C2310 1.415 . S
C2312 C2317 1.425 . S
C2312 C2319 1.409 . S
C2313 H2305 0.930 . S
C2313 C2311 1.419 . S
C2313 C2314 1.362 . S
C2314 H2306 0.930 . S
C2314 C2313 1.362 . S
C2314 C2317 1.409 . S
C2315 H2307 0.930 . S
C2315 C2316 1.355 . S
C2315 C2317 1.415 . S
C2316 C2315 1.355 . S
C2316 C2318 1.419 . S
C2317 C2312 1.425 . S
C2317 C2314 1.409 . S
C2317 C2315 1.415 . S
C2318 H2308 0.930 . S
C2318 C2316 1.419 . S
C2318 C2319 1.362 . S
C2319 H2309 0.930 . S
C2319 C2312 1.409 . S
C2319 C2318 1.362 . S
H2320 C2326 0.930 . S
H2321 C2329 0.930 . S
H2322 C2330 0.930 . S
H2323 C2331 0.930 . S
H2324 C2334 0.930 . S
H2325 C2335 0.930 . S
C2326 H2320 0.930 . S
C2326 C2327 1.355 . S
C2326 C2328 1.415 . S
C2327 C2326 1.355 . S
C2327 C2329 1.419 . S
C2328 C2326 1.415 . S
C2328 C2333 1.425 . S
C2328 C2335 1.409 . S
C2329 H2321 0.930 . S
C2329 C2327 1.419 . S
C2329 C2330 1.362 . S
C2330 H2322 0.930 . S
C2330 C2329 1.362 . S
C2330 C2333 1.409 . S
C2331 H2323 0.930 . S
C2331 C2332 1.355 . S
C2331 C2333 1.415 . S
C2332 C2331 1.355 . S
C2332 C2334 1.419 . S
C2333 C2328 1.425 . S
C2333 C2330 1.409 . S
C2333 C2331 1.415 . S
C2334 H2324 0.930 . S
C2334 C2332 1.419 . S
C2334 C2335 1.362 . S
C2335 H2325 0.930 . S
C2335 C2328 1.409 . S
C2335 C2334 1.362 . S
H2336 C2342 0.930 . S
H2337 C2345 0.930 . S
H2338 C2346 0.930 . S
H2339 C2347 0.930 . S
H2340 C2350 0.930 . S
H2341 C2351 0.930 . S
C2342 H2336 0.930 . S
C2342 C2343 1.355 . S
C2342 C2344 1.415 . S
C2343 C2342 1.355 . S
C2343 C2345 1.419 . S
C2344 C2342 1.415 . S
C2344 C2349 1.425 . S
C2344 C2351 1.409 . S
C2345 H2337 0.930 . S
C2345 C2343 1.419 . S
C2345 C2346 1.362 . S
C2346 H2338 0.930 . S
C2346 C2345 1.362 . S
C2346 C2349 1.409 . S
C2347 H2339 0.930 . S
C2347 C2348 1.355 . S
C2347 C2349 1.415 . S
C2348 C2347 1.355 . S
C2348 C2350 1.419 . S
C2349 C2344 1.425 . S
C2349 C2346 1.409 . S
C2349 C2347 1.415 . S
C2350 H2340 0.930 . S
C2350 C2348 1.419 . S
C2350 C2351 1.362 . S
C2351 H2341 0.930 . S
C2351 C2344 1.409 . S
C2351 C2350 1.362 . S
H2352 C2358 0.930 . S
H2353 C2361 0.930 . S
H2354 C2362 0.930 . S
H2355 C2363 0.930 . S
H2356 C2366 0.930 . S
H2357 C2367 0.930 . S
C2358 H2352 0.930 . S
C2358 C2359 1.355 . S
C2358 C2360 1.415 . S
C2359 C2358 1.355 . S
C2359 C2361 1.419 . S
C2360 C2358 1.415 . S
C2360 C2365 1.425 . S
C2360 C2367 1.409 . S
C2361 H2353 0.930 . S
C2361 C2359 1.419 . S
C2361 C2362 1.362 . S
C2362 H2354 0.930 . S
C2362 C2361 1.362 . S
C2362 C2365 1.409 . S
C2363 H2355 0.930 . S
C2363 C2364 1.355 . S
C2363 C2365 1.415 . S
C2364 C2363 1.355 . S
C2364 C2366 1.419 . S
C2365 C2360 1.425 . S
C2365 C2362 1.409 . S
C2365 C2363 1.415 . S
C2366 H2356 0.930 . S
C2366 C2364 1.419 . S
C2366 C2367 1.362 . S
C2367 H2357 0.930 . S
C2367 C2360 1.409 . S
C2367 C2366 1.362 . S
H2368 C2374 0.930 . S
H2369 C2377 0.930 . S
H2370 C2378 0.930 . S
H2371 C2379 0.930 . S
H2372 C2382 0.930 . S
H2373 C2383 0.930 . S
C2374 H2368 0.930 . S
C2374 C2375 1.355 . S
C2374 C2376 1.415 . S
C2375 C2374 1.355 . S
C2375 C2377 1.419 . S
C2376 C2374 1.415 . S
C2376 C2381 1.425 . S
C2376 C2383 1.409 . S
C2377 H2369 0.930 . S
C2377 C2375 1.419 . S
C2377 C2378 1.362 . S
C2378 H2370 0.930 . S
C2378 C2377 1.362 . S
C2378 C2381 1.409 . S
C2379 H2371 0.930 . S
C2379 C2380 1.355 . S
C2379 C2381 1.415 . S
C2380 C2379 1.355 . S
C2380 C2382 1.419 . S
C2381 C2376 1.425 . S
C2381 C2378 1.409 . S
C2381 C2379 1.415 . S
C2382 H2372 0.930 . S
C2382 C2380 1.419 . S
C2382 C2383 1.362 . S
C2383 H2373 0.930 . S
C2383 C2376 1.409 . S
C2383 C2382 1.362 . S
H2384 C2390 0.930 . S
H2385 C2393 0.930 . S
H2386 C2394 0.930 . S
H2387 C2395 0.930 . S
H2388 C2398 0.930 . S
H2389 C2399 0.930 . S
C2390 H2384 0.930 . S
C2390 C2391 1.355 . S
C2390 C2392 1.415 . S
C2391 C2390 1.355 . S
C2391 C2393 1.419 . S
C2392 C2390 1.415 . S
C2392 C2397 1.425 . S
C2392 C2399 1.409 . S
C2393 H2385 0.930 . S
C2393 C2391 1.419 . S
C2393 C2394 1.362 . S
C2394 H2386 0.930 . S
C2394 C2393 1.362 . S
C2394 C2397 1.409 . S
C2395 H2387 0.930 . S
C2395 C2396 1.355 . S
C2395 C2397 1.415 . S
C2396 C2395 1.355 . S
C2396 C2398 1.419 . S
C2397 C2392 1.425 . S
C2397 C2394 1.409 . S
C2397 C2395 1.415 . S
C2398 H2388 0.930 . S
C2398 C2396 1.419 . S
C2398 C2399 1.362 . S
C2399 H2389 0.930 . S
C2399 C2392 1.409 . S
C2399 C2398 1.362 . S
H2400 C2406 0.930 . S
H2401 C2409 0.930 . S
H2402 C2410 0.930 . S
H2403 C2411 0.930 . S
H2404 C2414 0.930 . S
H2405 C2415 0.930 . S
C2406 H2400 0.930 . S
C2406 C2407 1.355 . S
C2406 C2408 1.415 . S
C2407 C2406 1.355 . S
C2407 C2409 1.419 . S
C2408 C2406 1.415 . S
C2408 C2413 1.425 . S
C2408 C2415 1.409 . S
C2409 H2401 0.930 . S
C2409 C2407 1.419 . S
C2409 C2410 1.362 . S
C2410 H2402 0.930 . S
C2410 C2409 1.362 . S
C2410 C2413 1.409 . S
C2411 H2403 0.930 . S
C2411 C2412 1.355 . S
C2411 C2413 1.415 . S
C2412 C2411 1.355 . S
C2412 C2414 1.419 . S
C2413 C2408 1.425 . S
C2413 C2410 1.409 . S
C2413 C2411 1.415 . S
C2414 H2404 0.930 . S
C2414 C2412 1.419 . S
C2414 C2415 1.362 . S
C2415 H2405 0.930 . S
C2415 C2408 1.409 . S
C2415 C2414 1.362 . S
H2416 C2422 0.930 . S
H2417 C2425 0.930 . S
H2418 C2426 0.930 . S
H2419 C2427 0.930 . S
H2420 C2430 0.930 . S
H2421 C2431 0.930 . S
C2422 H2416 0.930 . S
C2422 C2423 1.355 . S
C2422 C2424 1.415 . S
C2423 C2422 1.355 . S
C2423 C2425 1.419 . S
C2424 C2422 1.415 . S
C2424 C2429 1.425 . S
C2424 C2431 1.409 . S
C2425 H2417 0.930 . S
C2425 C2423 1.419 . S
C2425 C2426 1.362 . S
C2426 H2418 0.930 . S
C2426 C2425 1.362 . S
C2426 C2429 1.409 . S
C2427 H2419 0.930 . S
C2427 C2428 1.355 . S
C2427 C2429 1.415 . S
C2428 C2427 1.355 . S
C2428 C2430 1.419 . S
C2429 C2424 1.425 . S
C2429 C2426 1.409 . S
C2429 C2427 1.415 . S
C2430 H2420 0.930 . S
C2430 C2428 1.419 . S
C2430 C2431 1.362 . S
C2431 H2421 0.930 . S
C2431 C2424 1.409 . S
C2431 C2430 1.362 . S
H2432 C2438 0.930 . S
H2433 C2441 0.930 . S
H2434 C2442 0.930 . S
H2435 C2443 0.930 . S
H2436 C2446 0.930 . S
H2437 C2447 0.930 . S
C2438 H2432 0.930 . S
C2438 C2439 1.355 . S
C2438 C2440 1.415 . S
C2439 C2438 1.355 . S
C2439 C2441 1.419 . S
C2440 C2438 1.415 . S
C2440 C2445 1.425 . S
C2440 C2447 1.409 . S
C2441 H2433 0.930 . S
C2441 C2439 1.419 . S
C2441 C2442 1.362 . S
C2442 H2434 0.930 . S
C2442 C2441 1.362 . S
C2442 C2445 1.409 . S
C2443 H2435 0.930 . S
C2443 C2444 1.355 . S
C2443 C2445 1.415 . S
C2444 C2443 1.355 . S
C2444 C2446 1.419 . S
C2445 C2440 1.425 . S
C2445 C2442 1.409 . S
C2445 C2443 1.415 . S
C2446 H2436 0.930 . S
C2446 C2444 1.419 . S
C2446 C2447 1.362 . S
C2447 H2437 0.930 . S
C2447 C2440 1.409 . S
C2447 C2446 1.362 . S
H2448 C2454 0.930 . S
H2449 C2457 0.930 . S
H2450 C2458 0.930 . S
H2451 C2459 0.930 . S
H2452 C2462 0.930 . S
H2453 C2463 0.930 . S
C2454 H2448 0.930 . S
C2454 C2455 1.355 . S
C2454 C2456 1.415 . S
C2455 C2454 1.355 . S
C2455 C2457 1.419 . S
C2456 C2454 1.415 . S
C2456 C2461 1.425 . S
C2456 C2463 1.409 . S
C2457 H2449 0.930 . S
C2457 C2455 1.419 . S
C2457 C2458 1.362 . S
C2458 H2450 0.930 . S
C2458 C2457 1.362 . S
C2458 C2461 1.409 . S
C2459 H2451 0.930 . S
C2459 C2460 1.355 . S
C2459 C2461 1.415 . S
C2460 C2459 1.355 . S
C2460 C2462 1.419 . S
C2461 C2456 1.425 . S
C2461 C2458 1.409 . S
C2461 C2459 1.415 . S
C2462 H2452 0.930 . S
C2462 C2460 1.419 . S
C2462 C2463 1.362 . S
C2463 H2453 0.930 . S
C2463 C2456 1.409 . S
C2463 C2462 1.362 . S
H2464 C2470 0.930 . S
H2465 C2473 0.930 . S
H2466 C2474 0.930 . S
H2467 C2475 0.930 . S
H2468 C2478 0.930 . S
H2469 C2479 0.930 . S
C2470 H2464 0.930 . S
C2470 C2471 1.355 . S
C2470 C2472 1.415 . S
C2471 C2470 1.355 . S
C2471 C2473 1.419 . S
C2472 C2470 1.415 . S
C2472 C2477 1.425 . S
C2472 C2479 1.409 . S
C2473 H2465 0.930 . S
C2473 C2471 1.419 . S
C2473 C2474 1.362 . S
C2474 H2466 0.930 . S
C2474 C2473 1.362 . S
C2474 C2477 1.409 . S
C2475 H2467 0.930 . S
C2475 C2476 1.355 . S
C2475 C2477 1.415 . S
C2476 C2475 1.355 . S
C2476 C2478 1.419 . S
C2477 C2472 1.425 . S
C2477 C2474 1.409 . S
C2477 C2475 1.415 . S
C2478 H2468 0.930 . S
C2478 C2476 1.419 . S
C2478 C2479 1.362 . S
C2479 H2469 0.930 . S
C2479 C2472 1.409 . S
C2479 C2478 1.362 . S
H2480 C2486 0.930 . S
H2481 C2489 0.930 . S
H2482 C2490 0.930 . S
H2483 C2491 0.930 . S
H2484 C2494 0.930 . S
H2485 C2495 0.930 . S
C2486 H2480 0.930 . S
C2486 C2487 1.355 . S
C2486 C2488 1.415 . S
C2487 C2486 1.355 . S
C2487 C2489 1.419 . S
C2488 C2486 1.415 . S
C2488 C2493 1.425 . S
C2488 C2495 1.409 . S
C2489 H2481 0.930 . S
C2489 C2487 1.419 . S
C2489 C2490 1.362 . S
C2490 H2482 0.930 . S
C2490 C2489 1.362 . S
C2490 C2493 1.409 . S
C2491 H2483 0.930 . S
C2491 C2492 1.355 . S
C2491 C2493 1.415 . S
C2492 C2491 1.355 . S
C2492 C2494 1.419 . S
C2493 C2488 1.425 . S
C2493 C2490 1.409 . S
C2493 C2491 1.415 . S
C2494 H2484 0.930 . S
C2494 C2492 1.419 . S
C2494 C2495 1.362 . S
C2495 H2485 0.930 . S
C2495 C2488 1.409 . S
C2495 C2494 1.362 . S
H2496 C2502 0.930 . S
H2497 C2505 0.930 . S
H2498 C2506 0.930 . S
H2499 C2507 0.930 . S
H2500 C2510 0.930 . S
H2501 C2511 0.930 . S
C2502 H2496 0.930 . S
C2502 C2503 1.355 . S
C2502 C2504 1.415 . S
C2503 C2502 1.355 . S
C2503 C2505 1.419 . S
C2504 C2502 1.415 . S
C2504 C2509 1.425 . S
C2504 C2511 1.409 . S
C2505 H2497 0.930 . S
C2505 C2503 1.419 . S
C2505 C2506 1.362 . S
C2506 H2498 0.930 . S
C2506 C2505 1.362 . S
C2506 C2509 1.409 . S
C2507 H2499 0.930 . S
C2507 C2508 1.355 . S
C2507 C2509 1.415 . S
C2508 C2507 1.355 . S
C2508 C2510 1.419 . S
C2509 C2504 1.425 . S
C2509 C2506 1.409 . S
C2509 C2507 1.415 . S
C2510 H2500 0.930 . S
C2510 C2508 1.419 . S
C2510 C2511 1.362 . S
C2511 H2501 0.930 . S
C2511 C2504 1.409 . S
C2511 C2510 1.362 . S
H2512 C2518 0.930 . S
H2513 C2521 0.930 . S
H2514 C2522 0.930 . S
H2515 C2523 0.930 . S
H2516 C2526 0.930 . S
H2517 C2527 0.930 . S
C2518 H2512 0.930 . S
C2518 C2519 1.355 . S
C2518 C2520 1.415 . S
C2519 C2518 1.355 . S
C2519 C2521 1.419 . S
C2520 C2518 1.415 . S
C2520 C2525 1.425 . S
C2520 C2527 1.409 . S
C2521 H2513 0.930 . S
C2521 C2519 1.419 . S
C2521 C2522 1.362 . S
C2522 H2514 0.930 . S
C2522 C2521 1.362 . S
C2522 C2525 1.409 . S
C2523 H2515 0.930 . S
C2523 C2524 1.355 . S
C2523 C2525 1.415 . S
C2524 C2523 1.355 . S
C2524 C2526 1.419 . S
C2525 C2520 1.425 . S
C2525 C2522 1.409 . S
C2525 C2523 1.415 . S
C2526 H2516 0.930 . S
C2526 C2524 1.419 . S
C2526 C2527 1.362 . S
C2527 H2517 0.930 . S
C2527 C2520 1.409 . S
C2527 C2526 1.362 . S
H2528 C2534 0.930 . S
H2529 C2537 0.930 . S
H2530 C2538 0.930 . S
H2531 C2539 0.930 . S
H2532 C2542 0.930 . S
H2533 C2543 0.930 . S
C2534 H2528 0.930 . S
C2534 C2535 1.355 . S
C2534 C2536 1.415 . S
C2535 C2534 1.355 . S
C2535 C2537 1.419 . S
C2536 C2534 1.415 . S
C2536 C2541 1.425 . S
C2536 C2543 1.409 . S
C2537 H2529 0.930 . S
C2537 C2535 1.419 . S
C2537 C2538 1.362 . S
C2538 H2530 0.930 . S
C2538 C2537 1.362 . S
C2538 C2541 1.409 . S
C2539 H2531 0.930 . S
C2539 C2540 1.355 . S
C2539 C2541 1.415 . S
C2540 C2539 1.355 . S
C2540 C2542 1.419 . S
C2541 C2536 1.425 . S
C2541 C2538 1.409 . S
C2541 C2539 1.415 . S
C2542 H2532 0.930 . S
C2542 C2540 1.419 . S
C2542 C2543 1.362 . S
C2543 H2533 0.930 . S
C2543 C2536 1.409 . S
C2543 C2542 1.362 . S
H2544 C2550 0.930 . S
H2545 C2553 0.930 . S
H2546 C2554 0.930 . S
H2547 C2555 0.930 . S
H2548 C2558 0.930 . S
H2549 C2559 0.930 . S
C2550 H2544 0.930 . S
C2550 C2551 1.355 . S
C2550 C2552 1.415 . S
C2551 C2550 1.355 . S
C2551 C2553 1.419 . S
C2552 C2550 1.415 . S
C2552 C2557 1.425 . S
C2552 C2559 1.409 . S
C2553 H2545 0.930 . S
C2553 C2551 1.419 . S
C2553 C2554 1.362 . S
C2554 H2546 0.930 . S
C2554 C2553 1.362 . S
C2554 C2557 1.409 . S
C2555 H2547 0.930 . S
C2555 C2556 1.355 . S
C2555 C2557 1.415 . S
C2556 C2555 1.355 . S
C2556 C2558 1.419 . S
C2557 C2552 1.425 . S
C2557 C2554 1.409 . S
C2557 C2555 1.415 . S
C2558 H2548 0.930 . S
C2558 C2556 1.419 . S
C2558 C2559 1.362 . S
C2559 H2549 0.930 . S
C2559 C2552 1.409 . S
C2559 C2558 1.362 . S
H2560 C2566 0.930 . S
H2561 C2569 0.930 . S
H2562 C2570 0.930 . S
H2563 C2571 0.930 . S
H2564 C2574 0.930 . S
H2565 C2575 0.930 . S
C2566 H2560 0.930 . S
C2566 C2567 1.355 . S
C2566 C2568 1.415 . S
C2567 C2566 1.355 . S
C2567 C2569 1.419 . S
C2568 C2566 1.415 . S
C2568 C2573 1.425 . S
C2568 C2575 1.409 . S
C2569 H2561 0.930 . S
C2569 C2567 1.419 . S
C2569 C2570 1.362 . S
C2570 H2562 0.930 . S
C2570 C2569 1.362 . S
C2570 C2573 1.409 . S
C2571 H2563 0.930 . S
C2571 C2572 1.355 . S
C2571 C2573 1.415 . S
C2572 C2571 1.355 . S
C2572 C2574 1.419 . S
C2573 C2568 1.425 . S
C2573 C2570 1.409 . S
C2573 C2571 1.415 . S
C2574 H2564 0.930 . S
C2574 C2572 1.419 . S
C2574 C2575 1.362 . S
C2575 H2565 0.930 . S
C2575 C2568 1.409 . S
C2575 C2574 1.362 . S
H2576 C2582 0.930 . S
H2577 C2585 0.930 . S
H2578 C2586 0.930 . S
H2579 C2587 0.930 . S
H2580 C2590 0.930 . S
H2581 C2591 0.930 . S
C2582 H2576 0.930 . S
C2582 C2583 1.355 . S
C2582 C2584 1.415 . S
C2583 C2582 1.355 . S
C2583 C2585 1.419 . S
C2584 C2582 1.415 . S
C2584 C2589 1.425 . S
C2584 C2591 1.409 . S
C2585 H2577 0.930 . S
C2585 C2583 1.419 . S
C2585 C2586 1.362 . S
C2586 H2578 0.930 . S
C2586 C2585 1.362 . S
C2586 C2589 1.409 . S
C2587 H2579 0.930 . S
C2587 C2588 1.355 . S
C2587 C2589 1.415 . S
C2588 C2587 1.355 . S
C2588 C2590 1.419 . S
C2589 C2584 1.425 . S
C2589 C2586 1.409 . S
C2589 C2587 1.415 . S
C2590 H2580 0.930 . S
C2590 C2588 1.419 . S
C2590 C2591 1.362 . S
C2591 H2581 0.930 . S
C2591 C2584 1.409 . S
C2591 C2590 1.362 . S
H2592 C2598 0.930 . S
H2593 C2601 0.930 . S
H2594 C2602 0.930 . S
H2595 C2603 0.930 . S
H2596 C2606 0.930 . S
H2597 C2607 0.930 . S
C2598 H2592 0.930 . S
C2598 C2599 1.355 . S
C2598 C2600 1.415 . S
C2599 C2598 1.355 . S
C2599 C2601 1.419 . S
C2600 C2598 1.415 . S
C2600 C2605 1.425 . S
C2600 C2607 1.409 . S
C2601 H2593 0.930 . S
C2601 C2599 1.419 . S
C2601 C2602 1.362 . S
C2602 H2594 0.930 . S
C2602 C2601 1.362 . S
C2602 C2605 1.409 . S
C2603 H2595 0.930 . S
C2603 C2604 1.355 . S
C2603 C2605 1.415 . S
C2604 C2603 1.355 . S
C2604 C2606 1.419 . S
C2605 C2600 1.425 . S
C2605 C2602 1.409 . S
C2605 C2603 1.415 . S
C2606 H2596 0.930 . S
C2606 C2604 1.419 . S
C2606 C2607 1.362 . S
C2607 H2597 0.930 . S
C2607 C2600 1.409 . S
C2607 C2606 1.362 . S
H2608 C2614 0.930 . S
H2609 C2617 0.930 . S
H2610 C2618 0.930 . S
H2611 C2619 0.930 . S
H2612 C2622 0.930 . S
H2613 C2623 0.930 . S
C2614 H2608 0.930 . S
C2614 C2615 1.355 . S
C2614 C2616 1.415 . S
C2615 C2614 1.355 . S
C2615 C2617 1.419 . S
C2616 C2614 1.415 . S
C2616 C2621 1.425 . S
C2616 C2623 1.409 . S
C2617 H2609 0.930 . S
C2617 C2615 1.419 . S
C2617 C2618 1.362 . S
C2618 H2610 0.930 . S
C2618 C2617 1.362 . S
C2618 C2621 1.409 . S
C2619 H2611 0.930 . S
C2619 C2620 1.355 . S
C2619 C2621 1.415 . S
C2620 C2619 1.355 . S
C2620 C2622 1.419 . S
C2621 C2616 1.425 . S
C2621 C2618 1.409 . S
C2621 C2619 1.415 . S
C2622 H2612 0.930 . S
C2622 C2620 1.419 . S
C2622 C2623 1.362 . S
C2623 H2613 0.930 . S
C2623 C2616 1.409 . S
C2623 C2622 1.362 . S
H2624 C2630 0.930 . S
H2625 C2633 0.930 . S
H2626 C2634 0.930 . S
H2627 C2635 0.930 . S
H2628 C2638 0.930 . S
H2629 C2639 0.930 . S
C2630 H2624 0.930 . S
C2630 C2631 1.355 . S
C2630 C2632 1.415 . S
C2631 C2630 1.355 . S
C2631 C2633 1.419 . S
C2632 C2630 1.415 . S
C2632 C2637 1.425 . S
C2632 C2639 1.409 . S
C2633 H2625 0.930 . S
C2633 C2631 1.419 . S
C2633 C2634 1.362 . S
C2634 H2626 0.930 . S
C2634 C2633 1.362 . S
C2634 C2637 1.409 . S
C2635 H2627 0.930 . S
C2635 C2636 1.355 . S
C2635 C2637 1.415 . S
C2636 C2635 1.355 . S
C2636 C2638 1.419 . S
C2637 C2632 1.425 . S
C2637 C2634 1.409 . S
C2637 C2635 1.415 . S
C2638 H2628 0.930 . S
C2638 C2636 1.419 . S
C2638 C2639 1.362 . S
C2639 H2629 0.930 . S
C2639 C2632 1.409 . S
C2639 C2638 1.362 . S
H2640 C2646 0.930 . S
H2641 C2649 0.930 . S
H2642 C2650 0.930 . S
H2643 C2651 0.930 . S
H2644 C2654 0.930 . S
H2645 C2655 0.930 . S
C2646 H2640 0.930 . S
C2646 C2647 1.355 . S
C2646 C2648 1.415 . S
C2647 C2646 1.355 . S
C2647 C2649 1.419 . S
C2648 C2646 1.415 . S
C2648 C2653 1.425 . S
C2648 C2655 1.409 . S
C2649 H2641 0.930 . S
C2649 C2647 1.419 . S
C2649 C2650 1.362 . S
C2650 H2642 0.930 . S
C2650 C2649 1.362 . S
C2650 C2653 1.409 . S
C2651 H2643 0.930 . S
C2651 C2652 1.355 . S
C2651 C2653 1.415 . S
C2652 C2651 1.355 . S
C2652 C2654 1.419 . S
C2653 C2648 1.425 . S
C2653 C2650 1.409 . S
C2653 C2651 1.415 . S
C2654 H2644 0.930 . S
C2654 C2652 1.419 . S
C2654 C2655 1.362 . S
C2655 H2645 0.930 . S
C2655 C2648 1.409 . S
C2655 C2654 1.362 . S
H2656 C2662 0.930 . S
H2657 C2665 0.930 . S
H2658 C2666 0.930 . S
H2659 C2667 0.930 . S
H2660 C2670 0.930 . S
H2661 C2671 0.930 . S
C2662 H2656 0.930 . S
C2662 C2663 1.355 . S
C2662 C2664 1.415 . S
C2663 C2662 1.355 . S
C2663 C2665 1.419 . S
C2664 C2662 1.415 . S
C2664 C2669 1.425 . S
C2664 C2671 1.409 . S
C2665 H2657 0.930 . S
C2665 C2663 1.419 . S
C2665 C2666 1.362 . S
C2666 H2658 0.930 . S
C2666 C2665 1.362 . S
C2666 C2669 1.409 . S
C2667 H2659 0.930 . S
C2667 C2668 1.355 . S
C2667 C2669 1.415 . S
C2668 C2667 1.355 . S
C2668 C2670 1.419 . S
C2669 C2664 1.425 . S
C2669 C2666 1.409 . S
C2669 C2667 1.415 . S
C2670 H2660 0.930 . S
C2670 C2668 1.419 . S
C2670 C2671 1.362 . S
C2671 H2661 0.930 . S
C2671 C2664 1.409 . S
C2671 C2670 1.362 . S
H2672 C2678 0.930 . S
H2673 C2681 0.930 . S
H2674 C2682 0.930 . S
H2675 C2683 0.930 . S
H2676 C2686 0.930 . S
H2677 C2687 0.930 . S
C2678 H2672 0.930 . S
C2678 C2679 1.355 . S
C2678 C2680 1.415 . S
C2679 C2678 1.355 . S
C2679 C2681 1.419 . S
C2680 C2678 1.415 . S
C2680 C2685 1.425 . S
C2680 C2687 1.409 . S
C2681 H2673 0.930 . S
C2681 C2679 1.419 . S
C2681 C2682 1.362 . S
C2682 H2674 0.930 . S
C2682 C2681 1.362 . S
C2682 C2685 1.409 . S
C2683 H2675 0.930 . S
C2683 C2684 1.355 . S
C2683 C2685 1.415 . S
C2684 C2683 1.355 . S
C2684 C2686 1.419 . S
C2685 C2680 1.425 . S
C2685 C2682 1.409 . S
C2685 C2683 1.415 . S
C2686 H2676 0.930 . S
C2686 C2684 1.419 . S
C2686 C2687 1.362 . S
C2687 H2677 0.930 . S
C2687 C2680 1.409 . S
C2687 C2686 1.362 . S
H2688 C2694 0.930 . S
H2689 C2697 0.930 . S
H2690 C2698 0.930 . S
H2691 C2699 0.930 . S
H2692 C2702 0.930 . S
H2693 C2703 0.930 . S
C2694 H2688 0.930 . S
C2694 C2695 1.355 . S
C2694 C2696 1.415 . S
C2695 C2694 1.355 . S
C2695 C2697 1.419 . S
C2696 C2694 1.415 . S
C2696 C2701 1.425 . S
C2696 C2703 1.409 . S
C2697 H2689 0.930 . S
C2697 C2695 1.419 . S
C2697 C2698 1.362 . S
C2698 H2690 0.930 . S
C2698 C2697 1.362 . S
C2698 C2701 1.409 . S
C2699 H2691 0.930 . S
C2699 C2700 1.355 . S
C2699 C2701 1.415 . S
C2700 C2699 1.355 . S
C2700 C2702 1.419 . S
C2701 C2696 1.425 . S
C2701 C2698 1.409 . S
C2701 C2699 1.415 . S
C2702 H2692 0.930 . S
C2702 C2700 1.419 . S
C2702 C2703 1.362 . S
C2703 H2693 0.930 . S
C2703 C2696 1.409 . S
C2703 C2702 1.362 . S
H2704 C2710 0.930 . S
H2705 C2713 0.930 . S
H2706 C2714 0.930 . S
H2707 C2715 0.930 . S
H2708 C2718 0.930 . S
H2709 C2719 0.930 . S
C2710 H2704 0.930 . S
C2710 C2711 1.355 . S
C2710 C2712 1.415 . S
C2711 C2710 1.355 . S
C2711 C2713 1.419 . S
C2712 C2710 1.415 . S
C2712 C2717 1.425 . S
C2712 C2719 1.409 . S
C2713 H2705 0.930 . S
C2713 C2711 1.419 . S
C2713 C2714 1.362 . S
C2714 H2706 0.930 . S
C2714 C2713 1.362 . S
C2714 C2717 1.409 . S
C2715 H2707 0.930 . S
C2715 C2716 1.355 . S
C2715 C2717 1.415 . S
C2716 C2715 1.355 . S
C2716 C2718 1.419 . S
C2717 C2712 1.425 . S
C2717 C2714 1.409 . S
C2717 C2715 1.415 . S
C2718 H2708 0.930 . S
C2718 C2716 1.419 . S
C2718 C2719 1.362 . S
C2719 H2709 0.930 . S
C2719 C2712 1.409 . S
C2719 C2718 1.362 . S
H2720 C2726 0.930 . S
H2721 C2729 0.930 . S
H2722 C2730 0.930 . S
H2723 C2731 0.930 . S
H2724 C2734 0.930 . S
H2725 C2735 0.930 . S
C2726 H2720 0.930 . S
C2726 C2727 1.355 . S
C2726 C2728 1.415 . S
C2727 C2726 1.355 . S
C2727 C2729 1.419 . S
C2728 C2726 1.415 . S
C2728 C2733 1.425 . S
C2728 C2735 1.409 . S
C2729 H2721 0.930 . S
C2729 C2727 1.419 . S
C2729 C2730 1.362 . S
C2730 H2722 0.930 . S
C2730 C2729 1.362 . S
C2730 C2733 1.409 . S
C2731 H2723 0.930 . S
C2731 C2732 1.355 . S
C2731 C2733 1.415 . S
C2732 C2731 1.355 . S
C2732 C2734 1.419 . S
C2733 C2728 1.425 . S
C2733 C2730 1.409 . S
C2733 C2731 1.415 . S
C2734 H2724 0.930 . S
C2734 C2732 1.419 . S
C2734 C2735 1.362 . S
C2735 H2725 0.930 . S
C2735 C2728 1.409 . S
C2735 C2734 1.362 . S
H2736 C2742 0.930 . S
H2737 C2745 0.930 . S
H2738 C2746 0.930 . S
H2739 C2747 0.930 . S
H2740 C2750 0.930 . S
H2741 C2751 0.930 . S
C2742 H2736 0.930 . S
C2742 C2743 1.355 . S
C2742 C2744 1.415 . S
C2743 C2742 1.355 . S
C2743 C2745 1.419 . S
C2744 C2742 1.415 . S
C2744 C2749 1.425 . S
C2744 C2751 1.409 . S
C2745 H2737 0.930 . S
C2745 C2743 1.419 . S
C2745 C2746 1.362 . S
C2746 H2738 0.930 . S
C2746 C2745 1.362 . S
C2746 C2749 1.409 . S
C2747 H2739 0.930 . S
C2747 C2748 1.355 . S
C2747 C2749 1.415 . S
C2748 C2747 1.355 . S
C2748 C2750 1.419 . S
C2749 C2744 1.425 . S
C2749 C2746 1.409 . S
C2749 C2747 1.415 . S
C2750 H2740 0.930 . S
C2750 C2748 1.419 . S
C2750 C2751 1.362 . S
C2751 H2741 0.930 . S
C2751 C2744 1.409 . S
C2751 C2750 1.362 . S
H2752 C2758 0.930 . S
H2753 C2761 0.930 . S
H2754 C2762 0.930 . S
H2755 C2763 0.930 . S
H2756 C2766 0.930 . S
H2757 C2767 0.930 . S
C2758 H2752 0.930 . S
C2758 C2759 1.355 . S
C2758 C2760 1.415 . S
C2759 C2758 1.355 . S
C2759 C2761 1.419 . S
C2760 C2758 1.415 . S
C2760 C2765 1.425 . S
C2760 C2767 1.409 . S
C2761 H2753 0.930 . S
C2761 C2759 1.419 . S
C2761 C2762 1.362 . S
C2762 H2754 0.930 . S
C2762 C2761 1.362 . S
C2762 C2765 1.409 . S
C2763 H2755 0.930 . S
C2763 C2764 1.355 . S
C2763 C2765 1.415 . S
C2764 C2763 1.355 . S
C2764 C2766 1.419 . S
C2765 C2760 1.425 . S
C2765 C2762 1.409 . S
C2765 C2763 1.415 . S
C2766 H2756 0.930 . S
C2766 C2764 1.419 . S
C2766 C2767 1.362 . S
C2767 H2757 0.930 . S
C2767 C2760 1.409 . S
C2767 C2766 1.362 . S
H2768 C2774 0.930 . S
H2769 C2777 0.930 . S
H2770 C2778 0.930 . S
H2771 C2779 0.930 . S
H2772 C2782 0.930 . S
H2773 C2783 0.930 . S
C2774 H2768 0.930 . S
C2774 C2775 1.355 . S
C2774 C2776 1.415 . S
C2775 C2774 1.355 . S
C2775 C2777 1.419 . S
C2776 C2774 1.415 . S
C2776 C2781 1.425 . S
C2776 C2783 1.409 . S
C2777 H2769 0.930 . S
C2777 C2775 1.419 . S
C2777 C2778 1.362 . S
C2778 H2770 0.930 . S
C2778 C2777 1.362 . S
C2778 C2781 1.409 . S
C2779 H2771 0.930 . S
C2779 C2780 1.355 . S
C2779 C2781 1.415 . S
C2780 C2779 1.355 . S
C2780 C2782 1.419 . S
C2781 C2776 1.425 . S
C2781 C2778 1.409 . S
C2781 C2779 1.415 . S
C2782 H2772 0.930 . S
C2782 C2780 1.419 . S
C2782 C2783 1.362 . S
C2783 H2773 0.930 . S
C2783 C2776 1.409 . S
C2783 C2782 1.362 . S
H2784 C2790 0.930 . S
H2785 C2793 0.930 . S
H2786 C2794 0.930 . S
H2787 C2795 0.930 . S
H2788 C2798 0.930 . S
H2789 C2799 0.930 . S
C2790 H2784 0.930 . S
C2790 C2791 1.355 . S
C2790 C2792 1.415 . S
C2791 C2790 1.355 . S
C2791 C2793 1.419 . S
C2792 C2790 1.415 . S
C2792 C2797 1.425 . S
C2792 C2799 1.409 . S
C2793 H2785 0.930 . S
C2793 C2791 1.419 . S
C2793 C2794 1.362 . S
C2794 H2786 0.930 . S
C2794 C2793 1.362 . S
C2794 C2797 1.409 . S
C2795 H2787 0.930 . S
C2795 C2796 1.355 . S
C2795 C2797 1.415 . S
C2796 C2795 1.355 . S
C2796 C2798 1.419 . S
C2797 C2792 1.425 . S
C2797 C2794 1.409 . S
C2797 C2795 1.415 . S
C2798 H2788 0.930 . S
C2798 C2796 1.419 . S
C2798 C2799 1.362 . S
C2799 H2789 0.930 . S
C2799 C2792 1.409 . S
C2799 C2798 1.362 . S
H2800 C2806 0.930 . S
H2801 C2809 0.930 . S
H2802 C2810 0.930 . S
H2803 C2811 0.930 . S
H2804 C2814 0.930 . S
H2805 C2815 0.930 . S
C2806 H2800 0.930 . S
C2806 C2807 1.355 . S
C2806 C2808 1.415 . S
C2807 C2806 1.355 . S
C2807 C2809 1.419 . S
C2808 C2806 1.415 . S
C2808 C2813 1.425 . S
C2808 C2815 1.409 . S
C2809 H2801 0.930 . S
C2809 C2807 1.419 . S
C2809 C2810 1.362 . S
C2810 H2802 0.930 . S
C2810 C2809 1.362 . S
C2810 C2813 1.409 . S
C2811 H2803 0.930 . S
C2811 C2812 1.355 . S
C2811 C2813 1.415 . S
C2812 C2811 1.355 . S
C2812 C2814 1.419 . S
C2813 C2808 1.425 . S
C2813 C2810 1.409 . S
C2813 C2811 1.415 . S
C2814 H2804 0.930 . S
C2814 C2812 1.419 . S
C2814 C2815 1.362 . S
C2815 H2805 0.930 . S
C2815 C2808 1.409 . S
C2815 C2814 1.362 . S
H2816 C2822 0.930 . S
H2817 C2825 0.930 . S
H2818 C2826 0.930 . S
H2819 C2827 0.930 . S
H2820 C2830 0.930 . S
H2821 C2831 0.930 . S
C2822 H2816 0.930 . S
C2822 C2823 1.355 . S
C2822 C2824 1.415 . S
C2823 C2822 1.355 . S
C2823 C2825 1.419 . S
C2824 C2822 1.415 . S
C2824 C2829 1.425 . S
C2824 C2831 1.409 . S
C2825 H2817 0.930 . S
C2825 C2823 1.419 . S
C2825 C2826 1.362 . S
C2826 H2818 0.930 . S
C2826 C2825 1.362 . S
C2826 C2829 1.409 . S
C2827 H2819 0.930 . S
C2827 C2828 1.355 . S
C2827 C2829 1.415 . S
C2828 C2827 1.355 . S
C2828 C2830 1.419 . S
C2829 C2824 1.425 . S
C2829 C2826 1.409 . S
C2829 C2827 1.415 . S
C2830 H2820 0.930 . S
C2830 C2828 1.419 . S
C2830 C2831 1.362 . S
C2831 H2821 0.930 . S
C2831 C2824 1.409 . S
C2831 C2830 1.362 . S
H2832 C2838 0.930 . S
H2833 C2841 0.930 . S
H2834 C2842 0.930 . S
H2835 C2843 0.930 . S
H2836 C2846 0.930 . S
H2837 C2847 0.930 . S
C2838 H2832 0.930 . S
C2838 C2839 1.355 . S
C2838 C2840 1.415 . S
C2839 C2838 1.355 . S
C2839 C2841 1.419 . S
C2840 C2838 1.415 . S
C2840 C2845 1.425 . S
C2840 C2847 1.409 . S
C2841 H2833 0.930 . S
C2841 C2839 1.419 . S
C2841 C2842 1.362 . S
C2842 H2834 0.930 . S
C2842 C2841 1.362 . S
C2842 C2845 1.409 . S
C2843 H2835 0.930 . S
C2843 C2844 1.355 . S
C2843 C2845 1.415 . S
C2844 C2843 1.355 . S
C2844 C2846 1.419 . S
C2845 C2840 1.425 . S
C2845 C2842 1.409 . S
C2845 C2843 1.415 . S
C2846 H2836 0.930 . S
C2846 C2844 1.419 . S
C2846 C2847 1.362 . S
C2847 H2837 0.930 . S
C2847 C2840 1.409 . S
C2847 C2846 1.362 . S
H2848 C2854 0.930 . S
H2849 C2857 0.930 . S
H2850 C2858 0.930 . S
H2851 C2859 0.930 . S
H2852 C2862 0.930 . S
H2853 C2863 0.930 . S
C2854 H2848 0.930 . S
C2854 C2855 1.355 . S
C2854 C2856 1.415 . S
C2855 C2854 1.355 . S
C2855 C2857 1.419 . S
C2856 C2854 1.415 . S
C2856 C2861 1.425 . S
C2856 C2863 1.409 . S
C2857 H2849 0.930 . S
C2857 C2855 1.419 . S
C2857 C2858 1.362 . S
C2858 H2850 0.930 . S
C2858 C2857 1.362 . S
C2858 C2861 1.409 . S
C2859 H2851 0.930 . S
C2859 C2860 1.355 . S
C2859 C2861 1.415 . S
C2860 C2859 1.355 . S
C2860 C2862 1.419 . S
C2861 C2856 1.425 . S
C2861 C2858 1.409 . S
C2861 C2859 1.415 . S
C2862 H2852 0.930 . S
C2862 C2860 1.419 . S
C2862 C2863 1.362 . S
C2863 H2853 0.930 . S
C2863 C2856 1.409 . S
C2863 C2862 1.362 . S
H2864 C2870 0.930 . S
H2865 C2873 0.930 . S
H2866 C2874 0.930 . S
H2867 C2875 0.930 . S
H2868 C2878 0.930 . S
H2869 C2879 0.930 . S
C2870 H2864 0.930 . S
C2870 C2871 1.355 . S
C2870 C2872 1.415 . S
C2871 C2870 1.355 . S
C2871 C2873 1.419 . S
C2872 C2870 1.415 . S
C2872 C2877 1.425 . S
C2872 C2879 1.409 . S
C2873 H2865 0.930 . S
C2873 C2871 1.419 . S
C2873 C2874 1.362 . S
C2874 H2866 0.930 . S
C2874 C2873 1.362 . S
C2874 C2877 1.409 . S
C2875 H2867 0.930 . S
C2875 C2876 1.355 . S
C2875 C2877 1.415 . S
C2876 C2875 1.355 . S
C2876 C2878 1.419 . S
C2877 C2872 1.425 . S
C2877 C2874 1.409 . S
C2877 C2875 1.415 . S
C2878 H2868 0.930 . S
C2878 C2876 1.419 . S
C2878 C2879 1.362 . S
C2879 H2869 0.930 . S
C2879 C2872 1.409 . S
C2879 C2878 1.362 . S
H2880 C2886 0.930 . S
H2881 C2889 0.930 . S
H2882 C2890 0.930 . S
H2883 C2891 0.930 . S
H2884 C2894 0.930 . S
H2885 C2895 0.930 . S
C2886 H2880 0.930 . S
C2886 C2887 1.355 . S
C2886 C2888 1.415 . S
C2887 C2886 1.355 . S
C2887 C2889 1.419 . S
C2888 C2886 1.415 . S
C2888 C2893 1.425 . S
C2888 C2895 1.409 . S
C2889 H2881 0.930 . S
C2889 C2887 1.419 . S
C2889 C2890 1.362 . S
C2890 H2882 0.930 . S
C2890 C2889 1.362 . S
C2890 C2893 1.409 . S
C2891 H2883 0.930 . S
C2891 C2892 1.355 . S
C2891 C2893 1.415 . S
C2892 C2891 1.355 . S
C2892 C2894 1.419 . S
C2893 C2888 1.425 . S
C2893 C2890 1.409 . S
C2893 C2891 1.415 . S
C2894 H2884 0.930 . S
C2894 C2892 1.419 . S
C2894 C2895 1.362 . S
C2895 H2885 0.930 . S
C2895 C2888 1.409 . S
C2895 C2894 1.362 . S
H2896 C2902 0.930 . S
H2897 C2905 0.930 . S
H2898 C2906 0.930 . S
H2899 C2907 0.930 . S
H2900 C2910 0.930 . S
H2901 C2911 0.930 . S
C2902 H2896 0.930 . S
C2902 C2903 1.355 . S
C2902 C2904 1.415 . S
C2903 C2902 1.355 . S
C2903 C2905 1.419 . S
C2904 C2902 1.415 . S
C2904 C2909 1.425 . S
C2904 C2911 1.409 . S
C2905 H2897 0.930 . S
C2905 C2903 1.419 . S
C2905 C2906 1.362 . S
C2906 H2898 0.930 . S
C2906 C2905 1.362 . S
C2906 C2909 1.409 . S
C2907 H2899 0.930 . S
C2907 C2908 1.355 . S
C2907 C2909 1.415 . S
C2908 C2907 1.355 . S
C2908 C2910 1.419 . S
C2909 C2904 1.425 . S
C2909 C2906 1.409 . S
C2909 C2907 1.415 . S
C2910 H2900 0.930 . S
C2910 C2908 1.419 . S
C2910 C2911 1.362 . S
C2911 H2901 0.930 . S
C2911 C2904 1.409 . S
C2911 C2910 1.362 . S
H2912 C2918 0.930 . S
H2913 C2921 0.930 . S
H2914 C2922 0.930 . S
H2915 C2923 0.930 . S
H2916 C2926 0.930 . S
H2917 C2927 0.930 . S
C2918 H2912 0.930 . S
C2918 C2919 1.355 . S
C2918 C2920 1.415 . S
C2919 C2918 1.355 . S
C2919 C2921 1.419 . S
C2920 C2918 1.415 . S
C2920 C2925 1.425 . S
C2920 C2927 1.409 . S
C2921 H2913 0.930 . S
C2921 C2919 1.419 . S
C2921 C2922 1.362 . S
C2922 H2914 0.930 . S
C2922 C2921 1.362 . S
C2922 C2925 1.409 . S
C2923 H2915 0.930 . S
C2923 C2924 1.355 . S
C2923 C2925 1.415 . S
C2924 C2923 1.355 . S
C2924 C2926 1.419 . S
C2925 C2920 1.425 . S
C2925 C2922 1.409 . S
C2925 C2923 1.415 . S
C2926 H2916 0.930 . S
C2926 C2924 1.419 . S
C2926 C2927 1.362 . S
C2927 H2917 0.930 . S
C2927 C2920 1.409 . S
C2927 C2926 1.362 . S
H2928 C2934 0.930 . S
H2929 C2937 0.930 . S
H2930 C2938 0.930 . S
H2931 C2939 0.930 . S
H2932 C2942 0.930 . S
H2933 C2943 0.930 . S
C2934 H2928 0.930 . S
C2934 C2935 1.355 . S
C2934 C2936 1.415 . S
C2935 C2934 1.355 . S
C2935 C2937 1.419 . S
C2936 C2934 1.415 . S
C2936 C2941 1.425 . S
C2936 C2943 1.409 . S
C2937 H2929 0.930 . S
C2937 C2935 1.419 . S
C2937 C2938 1.362 . S
C2938 H2930 0.930 . S
C2938 C2937 1.362 . S
C2938 C2941 1.409 . S
C2939 H2931 0.930 . S
C2939 C2940 1.355 . S
C2939 C2941 1.415 . S
C2940 C2939 1.355 . S
C2940 C2942 1.419 . S
C2941 C2936 1.425 . S
C2941 C2938 1.409 . S
C2941 C2939 1.415 . S
C2942 H2932 0.930 . S
C2942 C2940 1.419 . S
C2942 C2943 1.362 . S
C2943 H2933 0.930 . S
C2943 C2936 1.409 . S
C2943 C2942 1.362 . S
H2944 C2950 0.930 . S
H2945 C2953 0.930 . S
H2946 C2954 0.930 . S
H2947 C2955 0.930 . S
H2948 C2958 0.930 . S
H2949 C2959 0.930 . S
C2950 H2944 0.930 . S
C2950 C2951 1.355 . S
C2950 C2952 1.415 . S
C2951 C2950 1.355 . S
C2951 C2953 1.419 . S
C2952 C2950 1.415 . S
C2952 C2957 1.425 . S
C2952 C2959 1.409 . S
C2953 H2945 0.930 . S
C2953 C2951 1.419 . S
C2953 C2954 1.362 . S
C2954 H2946 0.930 . S
C2954 C2953 1.362 . S
C2954 C2957 1.409 . S
C2955 H2947 0.930 . S
C2955 C2956 1.355 . S
C2955 C2957 1.415 . S
C2956 C2955 1.355 . S
C2956 C2958 1.419 . S
C2957 C2952 1.425 . S
C2957 C2954 1.409 . S
C2957 C2955 1.415 . S
C2958 H2948 0.930 . S
C2958 C2956 1.419 . S
C2958 C2959 1.362 . S
C2959 H2949 0.930 . S
C2959 C2952 1.409 . S
C2959 C2958 1.362 . S
H2960 C2966 0.930 . S
H2961 C2969 0.930 . S
H2962 C2970 0.930 . S
H2963 C2971 0.930 . S
H2964 C2974 0.930 . S
H2965 C2975 0.930 . S
C2966 H2960 0.930 . S
C2966 C2967 1.355 . S
C2966 C2968 1.415 . S
C2967 C2966 1.355 . S
C2967 C2969 1.419 . S
C2968 C2966 1.415 . S
C2968 C2973 1.425 . S
C2968 C2975 1.409 . S
C2969 H2961 0.930 . S
C2969 C2967 1.419 . S
C2969 C2970 1.362 . S
C2970 H2962 0.930 . S
C2970 C2969 1.362 . S
C2970 C2973 1.409 . S
C2971 H2963 0.930 . S
C2971 C2972 1.355 . S
C2971 C2973 1.415 . S
C2972 C2971 1.355 . S
C2972 C2974 1.419 . S
C2973 C2968 1.425 . S
C2973 C2970 1.409 . S
C2973 C2971 1.415 . S
C2974 H2964 0.930 . S
C2974 C2972 1.419 . S
C2974 C2975 1.362 . S
C2975 H2965 0.930 . S
C2975 C2968 1.409 . S
C2975 C2974 1.362 . S
H2976 C2982 0.930 . S
H2977 C2985 0.930 . S
H2978 C2986 0.930 . S
H2979 C2987 0.930 . S
H2980 C2990 0.930 . S
H2981 C2991 0.930 . S
C2982 H2976 0.930 . S
C2982 C2983 1.355 . S
C2982 C2984 1.415 . S
C2983 C2982 1.355 . S
C2983 C2985 1.419 . S
C2984 C2982 1.415 . S
C2984 C2989 1.425 . S
C2984 C2991 1.409 . S
C2985 H2977 0.930 . S
C2985 C2983 1.419 . S
C2985 C2986 1.362 . S
C2986 H2978 0.930 . S
C2986 C2985 1.362 . S
C2986 C2989 1.409 . S
C2987 H2979 0.930 . S
C2987 C2988 1.355 . S
C2987 C2989 1.415 . S
C2988 C2987 1.355 . S
C2988 C2990 1.419 . S
C2989 C2984 1.425 . S
C2989 C2986 1.409 . S
C2989 C2987 1.415 . S
C2990 H2980 0.930 . S
C2990 C2988 1.419 . S
C2990 C2991 1.362 . S
C2991 H2981 0.930 . S
C2991 C2984 1.409 . S
C2991 C2990 1.362 . S
H2992 C2998 0.930 . S
H2993 C3001 0.930 . S
H2994 C3002 0.930 . S
H2995 C3003 0.930 . S
H2996 C3006 0.930 . S
H2997 C3007 0.930 . S
C2998 H2992 0.930 . S
C2998 C2999 1.355 . S
C2998 C3000 1.415 . S
C2999 C2998 1.355 . S
C2999 C3001 1.419 . S
C3000 C2998 1.415 . S
C3000 C3005 1.425 . S
C3000 C3007 1.409 . S
C3001 H2993 0.930 . S
C3001 C2999 1.419 . S
C3001 C3002 1.362 . S
C3002 H2994 0.930 . S
C3002 C3001 1.362 . S
C3002 C3005 1.409 . S
C3003 H2995 0.930 . S
C3003 C3004 1.355 . S
C3003 C3005 1.415 . S
C3004 C3003 1.355 . S
C3004 C3006 1.419 . S
C3005 C3000 1.425 . S
C3005 C3002 1.409 . S
C3005 C3003 1.415 . S
C3006 H2996 0.930 . S
C3006 C3004 1.419 . S
C3006 C3007 1.362 . S
C3007 H2997 0.930 . S
C3007 C3000 1.409 . S
C3007 C3006 1.362 . S
H3008 C3014 0.930 . S
H3009 C3017 0.930 . S
H3010 C3018 0.930 . S
H3011 C3019 0.930 . S
H3012 C3022 0.930 . S
H3013 C3023 0.930 . S
C3014 H3008 0.930 . S
C3014 C3015 1.355 . S
C3014 C3016 1.415 . S
C3015 C3014 1.355 . S
C3015 C3017 1.419 . S
C3016 C3014 1.415 . S
C3016 C3021 1.425 . S
C3016 C3023 1.409 . S
C3017 H3009 0.930 . S
C3017 C3015 1.419 . S
C3017 C3018 1.362 . S
C3018 H3010 0.930 . S
C3018 C3017 1.362 . S
C3018 C3021 1.409 . S
C3019 H3011 0.930 . S
C3019 C3020 1.355 . S
C3019 C3021 1.415 . S
C3020 C3019 1.355 . S
C3020 C3022 1.419 . S
C3021 C3016 1.425 . S
C3021 C3018 1.409 . S
C3021 C3019 1.415 . S
C3022 H3012 0.930 . S
C3022 C3020 1.419 . S
C3022 C3023 1.362 . S
C3023 H3013 0.930 . S
C3023 C3016 1.409 . S
C3023 C3022 1.362 . S
H3024 C3030 0.930 . S
H3025 C3033 0.930 . S
H3026 C3034 0.930 . S
H3027 C3035 0.930 . S
H3028 C3038 0.930 . S
H3029 C3039 0.930 . S
C3030 H3024 0.930 . S
C3030 C3031 1.355 . S
C3030 C3032 1.415 . S
C3031 C3030 1.355 . S
C3031 C3033 1.419 . S
C3032 C3030 1.415 . S
C3032 C3037 1.425 . S
C3032 C3039 1.409 . S
C3033 H3025 0.930 . S
C3033 C3031 1.419 . S
C3033 C3034 1.362 . S
C3034 H3026 0.930 . S
C3034 C3033 1.362 . S
C3034 C3037 1.409 . S
C3035 H3027 0.930 . S
C3035 C3036 1.355 . S
C3035 C3037 1.415 . S
C3036 C3035 1.355 . S
C3036 C3038 1.419 . S
C3037 C3032 1.425 . S
C3037 C3034 1.409 . S
C3037 C3035 1.415 . S
C3038 H3028 0.930 . S
C3038 C3036 1.419 . S
C3038 C3039 1.362 . S
C3039 H3029 0.930 . S
C3039 C3032 1.409 . S
C3039 C3038 1.362 . S
H3040 C3046 0.930 . S
H3041 C3049 0.930 . S
H3042 C3050 0.930 . S
H3043 C3051 0.930 . S
H3044 C3054 0.930 . S
H3045 C3055 0.930 . S
C3046 H3040 0.930 . S
C3046 C3047 1.355 . S
C3046 C3048 1.415 . S
C3047 C3046 1.355 . S
C3047 C3049 1.419 . S
C3048 C3046 1.415 . S
C3048 C3053 1.425 . S
C3048 C3055 1.409 . S
C3049 H3041 0.930 . S
C3049 C3047 1.419 . S
C3049 C3050 1.362 . S
C3050 H3042 0.930 . S
C3050 C3049 1.362 . S
C3050 C3053 1.409 . S
C3051 H3043 0.930 . S
C3051 C3052 1.355 . S
C3051 C3053 1.415 . S
C3052 C3051 1.355 . S
C3052 C3054 1.419 . S
C3053 C3048 1.425 . S
C3053 C3050 1.409 . S
C3053 C3051 1.415 . S
C3054 H3044 0.930 . S
C3054 C3052 1.419 . S
C3054 C3055 1.362 . S
C3055 H3045 0.930 . S
C3055 C3048 1.409 . S
C3055 C3054 1.362 . S
H3056 C3062 0.930 . S
H3057 C3065 0.930 . S
H3058 C3066 0.930 . S
H3059 C3067 0.930 . S
H3060 C3070 0.930 . S
H3061 C3071 0.930 . S
C3062 H3056 0.930 . S
C3062 C3063 1.355 . S
C3062 C3064 1.415 . S
C3063 C3062 1.355 . S
C3063 C3065 1.419 . S
C3064 C3062 1.415 . S
C3064 C3069 1.425 . S
C3064 C3071 1.409 . S
C3065 H3057 0.930 . S
C3065 C3063 1.419 . S
C3065 C3066 1.362 . S
C3066 H3058 0.930 . S
C3066 C3065 1.362 . S
C3066 C3069 1.409 . S
C3067 H3059 0.930 . S
C3067 C3068 1.355 . S
C3067 C3069 1.415 . S
C3068 C3067 1.355 . S
C3068 C3070 1.419 . S
C3069 C3064 1.425 . S
C3069 C3066 1.409 . S
C3069 C3067 1.415 . S
C3070 H3060 0.930 . S
C3070 C3068 1.419 . S
C3070 C3071 1.362 . S
C3071 H3061 0.930 . S
C3071 C3064 1.409 . S
C3071 C3070 1.362 . S
H3072 C3078 0.930 . S
H3073 C3081 0.930 . S
H3074 C3082 0.930 . S
H3075 C3083 0.930 . S
H3076 C3086 0.930 . S
H3077 C3087 0.930 . S
C3078 H3072 0.930 . S
C3078 C3079 1.355 . S
C3078 C3080 1.415 . S
C3079 C3078 1.355 . S
C3079 C3081 1.419 . S
C3080 C3078 1.415 . S
C3080 C3085 1.425 . S
C3080 C3087 1.409 . S
C3081 H3073 0.930 . S
C3081 C3079 1.419 . S
C3081 C3082 1.362 . S
C3082 H3074 0.930 . S
C3082 C3081 1.362 . S
C3082 C3085 1.409 . S
C3083 H3075 0.930 . S
C3083 C3084 1.355 . S
C3083 C3085 1.415 . S
C3084 C3083 1.355 . S
C3084 C3086 1.419 . S
C3085 C3080 1.425 . S
C3085 C3082 1.409 . S
C3085 C3083 1.415 . S
C3086 H3076 0.930 . S
C3086 C3084 1.419 . S
C3086 C3087 1.362 . S
C3087 H3077 0.930 . S
C3087 C3080 1.409 . S
C3087 C3086 1.362 . S
H3088 C3094 0.930 . S
H3089 C3097 0.930 . S
H3090 C3098 0.930 . S
H3091 C3099 0.930 . S
H3092 C3102 0.930 . S
H3093 C3103 0.930 . S
C3094 H3088 0.930 . S
C3094 C3095 1.355 . S
C3094 C3096 1.415 . S
C3095 C3094 1.355 . S
C3095 C3097 1.419 . S
C3096 C3094 1.415 . S
C3096 C3101 1.425 . S
C3096 C3103 1.409 . S
C3097 H3089 0.930 . S
C3097 C3095 1.419 . S
C3097 C3098 1.362 . S
C3098 H3090 0.930 . S
C3098 C3097 1.362 . S
C3098 C3101 1.409 . S
C3099 H3091 0.930 . S
C3099 C3100 1.355 . S
C3099 C3101 1.415 . S
C3100 C3099 1.355 . S
C3100 C3102 1.419 . S
C3101 C3096 1.425 . S
C3101 C3098 1.409 . S
C3101 C3099 1.415 . S
C3102 H3092 0.930 . S
C3102 C3100 1.419 . S
C3102 C3103 1.362 . S
C3103 H3093 0.930 . S
C3103 C3096 1.409 . S
C3103 C3102 1.362 . S
H3104 C3110 0.930 . S
H3105 C3113 0.930 . S
H3106 C3114 0.930 . S
H3107 C3115 0.930 . S
H3108 C3118 0.930 . S
H3109 C3119 0.930 . S
C3110 H3104 0.930 . S
C3110 C3111 1.355 . S
C3110 C3112 1.415 . S
C3111 C3110 1.355 . S
C3111 C3113 1.419 . S
C3112 C3110 1.415 . S
C3112 C3117 1.425 . S
C3112 C3119 1.409 . S
C3113 H3105 0.930 . S
C3113 C3111 1.419 . S
C3113 C3114 1.362 . S
C3114 H3106 0.930 . S
C3114 C3113 1.362 . S
C3114 C3117 1.409 . S
C3115 H3107 0.930 . S
C3115 C3116 1.355 . S
C3115 C3117 1.415 . S
C3116 C3115 1.355 . S
C3116 C3118 1.419 . S
C3117 C3112 1.425 . S
C3117 C3114 1.409 . S
C3117 C3115 1.415 . S
C3118 H3108 0.930 . S
C3118 C3116 1.419 . S
C3118 C3119 1.362 . S
C3119 H3109 0.930 . S
C3119 C3112 1.409 . S
C3119 C3118 1.362 . S
H3120 C3126 0.930 . S
H3121 C3129 0.930 . S
H3122 C3130 0.930 . S
H3123 C3131 0.930 . S
H3124 C3134 0.930 . S
H3125 C3135 0.930 . S
C3126 H3120 0.930 . S
C3126 C3127 1.355 . S
C3126 C3128 1.415 . S
C3127 C3126 1.355 . S
C3127 C3129 1.419 . S
C3128 C3126 1.415 . S
C3128 C3133 1.425 . S
C3128 C3135 1.409 . S
C3129 H3121 0.930 . S
C3129 C3127 1.419 . S
C3129 C3130 1.362 . S
C3130 H3122 0.930 . S
C3130 C3129 1.362 . S
C3130 C3133 1.409 . S
C3131 H3123 0.930 . S
C3131 C3132 1.355 . S
C3131 C3133 1.415 . S
C3132 C3131 1.355 . S
C3132 C3134 1.419 . S
C3133 C3128 1.425 . S
C3133 C3130 1.409 . S
C3133 C3131 1.415 . S
C3134 H3124 0.930 . S
C3134 C3132 1.419 . S
C3134 C3135 1.362 . S
C3135 H3125 0.930 . S
C3135 C3128 1.409 . S
C3135 C3134 1.362 . S
H3136 C3142 0.930 . S
H3137 C3145 0.930 . S
H3138 C3146 0.930 . S
H3139 C3147 0.930 . S
H3140 C3150 0.930 . S
H3141 C3151 0.930 . S
C3142 H3136 0.930 . S
C3142 C3143 1.355 . S
C3142 C3144 1.415 . S
C3143 C3142 1.355 . S
C3143 C3145 1.419 . S
C3144 C3142 1.415 . S
C3144 C3149 1.425 . S
C3144 C3151 1.409 . S
C3145 H3137 0.930 . S
C3145 C3143 1.419 . S
C3145 C3146 1.362 . S
C3146 H3138 0.930 . S
C3146 C3145 1.362 . S
C3146 C3149 1.409 . S
C3147 H3139 0.930 . S
C3147 C3148 1.355 . S
C3147 C3149 1.415 . S
C3148 C3147 1.355 . S
C3148 C3150 1.419 . S
C3149 C3144 1.425 . S
C3149 C3146 1.409 . S
C3149 C3147 1.415 . S
C3150 H3140 0.930 . S
C3150 C3148 1.419 . S
C3150 C3151 1.362 . S
C3151 H3141 0.930 . S
C3151 C3144 1.409 . S
C3151 C3150 1.362 . S
H3152 C3158 0.930 . S
H3153 C3161 0.930 . S
H3154 C3162 0.930 . S
H3155 C3163 0.930 . S
H3156 C3166 0.930 . S
H3157 C3167 0.930 . S
C3158 H3152 0.930 . S
C3158 C3159 1.355 . S
C3158 C3160 1.415 . S
C3159 C3158 1.355 . S
C3159 C3161 1.419 . S
C3160 C3158 1.415 . S
C3160 C3165 1.425 . S
C3160 C3167 1.409 . S
C3161 H3153 0.930 . S
C3161 C3159 1.419 . S
C3161 C3162 1.362 . S
C3162 H3154 0.930 . S
C3162 C3161 1.362 . S
C3162 C3165 1.409 . S
C3163 H3155 0.930 . S
C3163 C3164 1.355 . S
C3163 C3165 1.415 . S
C3164 C3163 1.355 . S
C3164 C3166 1.419 . S
C3165 C3160 1.425 . S
C3165 C3162 1.409 . S
C3165 C3163 1.415 . S
C3166 H3156 0.930 . S
C3166 C3164 1.419 . S
C3166 C3167 1.362 . S
C3167 H3157 0.930 . S
C3167 C3160 1.409 . S
C3167 C3166 1.362 . S
H3168 C3174 0.930 . S
H3169 C3177 0.930 . S
H3170 C3178 0.930 . S
H3171 C3179 0.930 . S
H3172 C3182 0.930 . S
H3173 C3183 0.930 . S
C3174 H3168 0.930 . S
C3174 C3175 1.355 . S
C3174 C3176 1.415 . S
C3175 C3174 1.355 . S
C3175 C3177 1.419 . S
C3176 C3174 1.415 . S
C3176 C3181 1.425 . S
C3176 C3183 1.409 . S
C3177 H3169 0.930 . S
C3177 C3175 1.419 . S
C3177 C3178 1.362 . S
C3178 H3170 0.930 . S
C3178 C3177 1.362 . S
C3178 C3181 1.409 . S
C3179 H3171 0.930 . S
C3179 C3180 1.355 . S
C3179 C3181 1.415 . S
C3180 C3179 1.355 . S
C3180 C3182 1.419 . S
C3181 C3176 1.425 . S
C3181 C3178 1.409 . S
C3181 C3179 1.415 . S
C3182 H3172 0.930 . S
C3182 C3180 1.419 . S
C3182 C3183 1.362 . S
C3183 H3173 0.930 . S
C3183 C3176 1.409 . S
C3183 C3182 1.362 . S
H3184 C3190 0.930 . S
H3185 C3193 0.930 . S
H3186 C3194 0.930 . S
H3187 C3195 0.930 . S
H3188 C3198 0.930 . S
H3189 C3199 0.930 . S
C3190 H3184 0.930 . S
C3190 C3191 1.355 . S
C3190 C3192 1.415 . S
C3191 C3190 1.355 . S
C3191 C3193 1.419 . S
C3192 C3190 1.415 . S
C3192 C3197 1.425 . S
C3192 C3199 1.409 . S
C3193 H3185 0.930 . S
C3193 C3191 1.419 . S
C3193 C3194 1.362 . S
C3194 H3186 0.930 . S
C3194 C3193 1.362 . S
C3194 C3197 1.409 . S
C3195 H3187 0.930 . S
C3195 C3196 1.355 . S
C3195 C3197 1.415 . S
C3196 C3195 1.355 . S
C3196 C3198 1.419 . S
C3197 C3192 1.425 . S
C3197 C3194 1.409 . S
C3197 C3195 1.415 . S
C3198 H3188 0.930 . S
C3198 C3196 1.419 . S
C3198 C3199 1.362 . S
C3199 H3189 0.930 . S
C3199 C3192 1.409 . S
C3199 C3198 1.362 . S
H3200 C3206 0.930 . S
H3201 C3209 0.930 . S
H3202 C3210 0.930 . S
H3203 C3211 0.930 . S
H3204 C3214 0.930 . S
H3205 C3215 0.930 . S
C3206 H3200 0.930 . S
C3206 C3207 1.355 . S
C3206 C3208 1.415 . S
C3207 C3206 1.355 . S
C3207 C3209 1.419 . S
C3208 C3206 1.415 . S
C3208 C3213 1.425 . S
C3208 C3215 1.409 . S
C3209 H3201 0.930 . S
C3209 C3207 1.419 . S
C3209 C3210 1.362 . S
C3210 H3202 0.930 . S
C3210 C3209 1.362 . S
C3210 C3213 1.409 . S
C3211 H3203 0.930 . S
C3211 C3212 1.355 . S
C3211 C3213 1.415 . S
C3212 C3211 1.355 . S
C3212 C3214 1.419 . S
C3213 C3208 1.425 . S
C3213 C3210 1.409 . S
C3213 C3211 1.415 . S
C3214 H3204 0.930 . S
C3214 C3212 1.419 . S
C3214 C3215 1.362 . S
C3215 H3205 0.930 . S
C3215 C3208 1.409 . S
C3215 C3214 1.362 . S
H3216 C3222 0.930 . S
H3217 C3225 0.930 . S
H3218 C3226 0.930 . S
H3219 C3227 0.930 . S
H3220 C3230 0.930 . S
H3221 C3231 0.930 . S
C3222 H3216 0.930 . S
C3222 C3223 1.355 . S
C3222 C3224 1.415 . S
C3223 C3222 1.355 . S
C3223 C3225 1.419 . S
C3224 C3222 1.415 . S
C3224 C3229 1.425 . S
C3224 C3231 1.409 . S
C3225 H3217 0.930 . S
C3225 C3223 1.419 . S
C3225 C3226 1.362 . S
C3226 H3218 0.930 . S
C3226 C3225 1.362 . S
C3226 C3229 1.409 . S
C3227 H3219 0.930 . S
C3227 C3228 1.355 . S
C3227 C3229 1.415 . S
C3228 C3227 1.355 . S
C3228 C3230 1.419 . S
C3229 C3224 1.425 . S
C3229 C3226 1.409 . S
C3229 C3227 1.415 . S
C3230 H3220 0.930 . S
C3230 C3228 1.419 . S
C3230 C3231 1.362 . S
C3231 H3221 0.930 . S
C3231 C3224 1.409 . S
C3231 C3230 1.362 . S
H3232 C3238 0.930 . S
H3233 C3241 0.930 . S
H3234 C3242 0.930 . S
H3235 C3243 0.930 . S
H3236 C3246 0.930 . S
H3237 C3247 0.930 . S
C3238 H3232 0.930 . S
C3238 C3239 1.355 . S
C3238 C3240 1.415 . S
C3239 C3238 1.355 . S
C3239 C3241 1.419 . S
C3240 C3238 1.415 . S
C3240 C3245 1.425 . S
C3240 C3247 1.409 . S
C3241 H3233 0.930 . S
C3241 C3239 1.419 . S
C3241 C3242 1.362 . S
C3242 H3234 0.930 . S
C3242 C3241 1.362 . S
C3242 C3245 1.409 . S
C3243 H3235 0.930 . S
C3243 C3244 1.355 . S
C3243 C3245 1.415 . S
C3244 C3243 1.355 . S
C3244 C3246 1.419 . S
C3245 C3240 1.425 . S
C3245 C3242 1.409 . S
C3245 C3243 1.415 . S
C3246 H3236 0.930 . S
C3246 C3244 1.419 . S
C3246 C3247 1.362 . S
C3247 H3237 0.930 . S
C3247 C3240 1.409 . S
C3247 C3246 1.362 . S
H3248 C3254 0.930 . S
H3249 C3257 0.930 . S
H3250 C3258 0.930 . S
H3251 C3259 0.930 . S
H3252 C3262 0.930 . S
H3253 C3263 0.930 . S
C3254 H3248 0.930 . S
C3254 C3255 1.355 . S
C3254 C3256 1.415 . S
C3255 C3254 1.355 . S
C3255 C3257 1.419 . S
C3256 C3254 1.415 . S
C3256 C3261 1.425 . S
C3256 C3263 1.409 . S
C3257 H3249 0.930 . S
C3257 C3255 1.419 . S
C3257 C3258 1.362 . S
C3258 H3250 0.930 . S
C3258 C3257 1.362 . S
C3258 C3261 1.409 . S
C3259 H3251 0.930 . S
C3259 C3260 1.355 . S
C3259 C3261 1.415 . S
C3260 C3259 1.355 . S
C3260 C3262 1.419 . S
C3261 C3256 1.425 . S
C3261 C3258 1.409 . S
C3261 C3259 1.415 . S
C3262 H3252 0.930 . S
C3262 C3260 1.419 . S
C3262 C3263 1.362 . S
C3263 H3253 0.930 . S
C3263 C3256 1.409 . S
C3263 C3262 1.362 . S
H3264 C3270 0.930 . S
H3265 C3273 0.930 . S
H3266 C3274 0.930 . S
H3267 C3275 0.930 . S
H3268 C3278 0.930 . S
H3269 C3279 0.930 . S
C3270 H3264 0.930 . S
C3270 C3271 1.355 . S
C3270 C3272 1.415 . S
C3271 C3270 1.355 . S
C3271 C3273 1.419 . S
C3272 C3270 1.415 . S
C3272 C3277 1.425 . S
C3272 C3279 1.409 . S
C3273 H3265 0.930 . S
C3273 C3271 1.419 . S
C3273 C3274 1.362 . S
C3274 H3266 0.930 . S
C3274 C3273 1.362 . S
C3274 C3277 1.409 . S
C3275 H3267 0.930 . S
C3275 C3276 1.355 . S
C3275 C3277 1.415 . S
C3276 C3275 1.355 . S
C3276 C3278 1.419 . S
C3277 C3272 1.425 . S
C3277 C3274 1.409 . S
C3277 C3275 1.415 . S
C3278 H3268 0.930 . S
C3278 C3276 1.419 . S
C3278 C3279 1.362 . S
C3279 H3269 0.930 . S
C3279 C3272 1.409 . S
C3279 C3278 1.362 . S
H3280 C3286 0.930 . S
H3281 C3289 0.930 . S
H3282 C3290 0.930 . S
H3283 C3291 0.930 . S
H3284 C3294 0.930 . S
H3285 C3295 0.930 . S
C3286 H3280 0.930 . S
C3286 C3287 1.355 . S
C3286 C3288 1.415 . S
C3287 C3286 1.355 . S
C3287 C3289 1.419 . S
C3288 C3286 1.415 . S
C3288 C3293 1.425 . S
C3288 C3295 1.409 . S
C3289 H3281 0.930 . S
C3289 C3287 1.419 . S
C3289 C3290 1.362 . S
C3290 H3282 0.930 . S
C3290 C3289 1.362 . S
C3290 C3293 1.409 . S
C3291 H3283 0.930 . S
C3291 C3292 1.355 . S
C3291 C3293 1.415 . S
C3292 C3291 1.355 . S
C3292 C3294 1.419 . S
C3293 C3288 1.425 . S
C3293 C3290 1.409 . S
C3293 C3291 1.415 . S
C3294 H3284 0.930 . S
C3294 C3292 1.419 . S
C3294 C3295 1.362 . S
C3295 H3285 0.930 . S
C3295 C3288 1.409 . S
C3295 C3294 1.362 . S
H3296 C3302 0.930 . S
H3297 C3305 0.930 . S
H3298 C3306 0.930 . S
H3299 C3307 0.930 . S
H3300 C3310 0.930 . S
H3301 C3311 0.930 . S
C3302 H3296 0.930 . S
C3302 C3303 1.355 . S
C3302 C3304 1.415 . S
C3303 C3302 1.355 . S
C3303 C3305 1.419 . S
C3304 C3302 1.415 . S
C3304 C3309 1.425 . S
C3304 C3311 1.409 . S
C3305 H3297 0.930 . S
C3305 C3303 1.419 . S
C3305 C3306 1.362 . S
C3306 H3298 0.930 . S
C3306 C3305 1.362 . S
C3306 C3309 1.409 . S
C3307 H3299 0.930 . S
C3307 C3308 1.355 . S
C3307 C3309 1.415 . S
C3308 C3307 1.355 . S
C3308 C3310 1.419 . S
C3309 C3304 1.425 . S
C3309 C3306 1.409 . S
C3309 C3307 1.415 . S
C3310 H3300 0.930 . S
C3310 C3308 1.419 . S
C3310 C3311 1.362 . S
C3311 H3301 0.930 . S
C3311 C3304 1.409 . S
C3311 C3310 1.362 . S
H3312 C3318 0.930 . S
H3313 C3321 0.930 . S
H3314 C3322 0.930 . S
H3315 C3323 0.930 . S
H3316 C3326 0.930 . S
H3317 C3327 0.930 . S
C3318 H3312 0.930 . S
C3318 C3319 1.355 . S
C3318 C3320 1.415 . S
C3319 C3318 1.355 . S
C3319 C3321 1.419 . S
C3320 C3318 1.415 . S
C3320 C3325 1.425 . S
C3320 C3327 1.409 . S
C3321 H3313 0.930 . S
C3321 C3319 1.419 . S
C3321 C3322 1.362 . S
C3322 H3314 0.930 . S
C3322 C3321 1.362 . S
C3322 C3325 1.409 . S
C3323 H3315 0.930 . S
C3323 C3324 1.355 . S
C3323 C3325 1.415 . S
C3324 C3323 1.355 . S
C3324 C3326 1.419 . S
C3325 C3320 1.425 . S
C3325 C3322 1.409 . S
C3325 C3323 1.415 . S
C3326 H3316 0.930 . S
C3326 C3324 1.419 . S
C3326 C3327 1.362 . S
C3327 H3317 0.930 . S
C3327 C3320 1.409 . S
C3327 C3326 1.362 . S
H3328 C3334 0.930 . S
H3329 C3337 0.930 . S
H3330 C3338 0.930 . S
H3331 C3339 0.930 . S
H3332 C3342 0.930 . S
H3333 C3343 0.930 . S
C3334 H3328 0.930 . S
C3334 C3335 1.355 . S
C3334 C3336 1.415 . S
C3335 C3334 1.355 . S
C3335 C3337 1.419 . S
C3336 C3334 1.415 . S
C3336 C3341 1.425 . S
C3336 C3343 1.409 . S
C3337 H3329 0.930 . S
C3337 C3335 1.419 . S
C3337 C3338 1.362 . S
C3338 H3330 0.930 . S
C3338 C3337 1.362 . S
C3338 C3341 1.409 . S
C3339 H3331 0.930 . S
C3339 C3340 1.355 . S
C3339 C3341 1.415 . S
C3340 C3339 1.355 . S
C3340 C3342 1.419 . S
C3341 C3336 1.425 . S
C3341 C3338 1.409 . S
C3341 C3339 1.415 . S
C3342 H3332 0.930 . S
C3342 C3340 1.419 . S
C3342 C3343 1.362 . S
C3343 H3333 0.930 . S
C3343 C3336 1.409 . S
C3343 C3342 1.362 . S
H3344 C3350 0.930 . S
H3345 C3353 0.930 . S
H3346 C3354 0.930 . S
H3347 C3355 0.930 . S
H3348 C3358 0.930 . S
H3349 C3359 0.930 . S
C3350 H3344 0.930 . S
C3350 C3351 1.355 . S
C3350 C3352 1.415 . S
C3351 C3350 1.355 . S
C3351 C3353 1.419 . S
C3352 C3350 1.415 . S
C3352 C3357 1.425 . S
C3352 C3359 1.409 . S
C3353 H3345 0.930 . S
C3353 C3351 1.419 . S
C3353 C3354 1.362 . S
C3354 H3346 0.930 . S
C3354 C3353 1.362 . S
C3354 C3357 1.409 . S
C3355 H3347 0.930 . S
C3355 C3356 1.355 . S
C3355 C3357 1.415 . S
C3356 C3355 1.355 . S
C3356 C3358 1.419 . S
C3357 C3352 1.425 . S
C3357 C3354 1.409 . S
C3357 C3355 1.415 . S
C3358 H3348 0.930 . S
C3358 C3356 1.419 . S
C3358 C3359 1.362 . S
C3359 H3349 0.930 . S
C3359 C3352 1.409 . S
C3359 C3358 1.362 . S
H3360 C3366 0.930 . S
H3361 C3369 0.930 . S
H3362 C3370 0.930 . S
H3363 C3371 0.930 . S
H3364 C3374 0.930 . S
H3365 C3375 0.930 . S
C3366 H3360 0.930 . S
C3366 C3367 1.355 . S
C3366 C3368 1.415 . S
C3367 C3366 1.355 . S
C3367 C3369 1.419 . S
C3368 C3366 1.415 . S
C3368 C3373 1.425 . S
C3368 C3375 1.409 . S
C3369 H3361 0.930 . S
C3369 C3367 1.419 . S
C3369 C3370 1.362 . S
C3370 H3362 0.930 . S
C3370 C3369 1.362 . S
C3370 C3373 1.409 . S
C3371 H3363 0.930 . S
C3371 C3372 1.355 . S
C3371 C3373 1.415 . S
C3372 C3371 1.355 . S
C3372 C3374 1.419 . S
C3373 C3368 1.425 . S
C3373 C3370 1.409 . S
C3373 C3371 1.415 . S
C3374 H3364 0.930 . S
C3374 C3372 1.419 . S
C3374 C3375 1.362 . S
C3375 H3365 0.930 . S
C3375 C3368 1.409 . S
C3375 C3374 1.362 . S
H3376 C3382 0.930 . S
H3377 C3385 0.930 . S
H3378 C3386 0.930 . S
H3379 C3387 0.930 . S
H3380 C3390 0.930 . S
H3381 C3391 0.930 . S
C3382 H3376 0.930 . S
C3382 C3383 1.355 . S
C3382 C3384 1.415 . S
C3383 C3382 1.355 . S
C3383 C3385 1.419 . S
C3384 C3382 1.415 . S
C3384 C3389 1.425 . S
C3384 C3391 1.409 . S
C3385 H3377 0.930 . S
C3385 C3383 1.419 . S
C3385 C3386 1.362 . S
C3386 H3378 0.930 . S
C3386 C3385 1.362 . S
C3386 C3389 1.409 . S
C3387 H3379 0.930 . S
C3387 C3388 1.355 . S
C3387 C3389 1.415 . S
C3388 C3387 1.355 . S
C3388 C3390 1.419 . S
C3389 C3384 1.425 . S
C3389 C3386 1.409 . S
C3389 C3387 1.415 . S
C3390 H3380 0.930 . S
C3390 C3388 1.419 . S
C3390 C3391 1.362 . S
C3391 H3381 0.930 . S
C3391 C3384 1.409 . S
C3391 C3390 1.362 . S
H3392 C3398 0.930 . S
H3393 C3401 0.930 . S
H3394 C3402 0.930 . S
H3395 C3403 0.930 . S
H3396 C3406 0.930 . S
H3397 C3407 0.930 . S
C3398 H3392 0.930 . S
C3398 C3399 1.355 . S
C3398 C3400 1.415 . S
C3399 C3398 1.355 . S
C3399 C3401 1.419 . S
C3400 C3398 1.415 . S
C3400 C3405 1.425 . S
C3400 C3407 1.409 . S
C3401 H3393 0.930 . S
C3401 C3399 1.419 . S
C3401 C3402 1.362 . S
C3402 H3394 0.930 . S
C3402 C3401 1.362 . S
C3402 C3405 1.409 . S
C3403 H3395 0.930 . S
C3403 C3404 1.355 . S
C3403 C3405 1.415 . S
C3404 C3403 1.355 . S
C3404 C3406 1.419 . S
C3405 C3400 1.425 . S
C3405 C3402 1.409 . S
C3405 C3403 1.415 . S
C3406 H3396 0.930 . S
C3406 C3404 1.419 . S
C3406 C3407 1.362 . S
C3407 H3397 0.930 . S
C3407 C3400 1.409 . S
C3407 C3406 1.362 . S
H3408 C3414 0.930 . S
H3409 C3417 0.930 . S
H3410 C3418 0.930 . S
H3411 C3419 0.930 . S
H3412 C3422 0.930 . S
H3413 C3423 0.930 . S
C3414 H3408 0.930 . S
C3414 C3415 1.355 . S
C3414 C3416 1.415 . S
C3415 C3414 1.355 . S
C3415 C3417 1.419 . S
C3416 C3414 1.415 . S
C3416 C3421 1.425 . S
C3416 C3423 1.409 . S
C3417 H3409 0.930 . S
C3417 C3415 1.419 . S
C3417 C3418 1.362 . S
C3418 H3410 0.930 . S
C3418 C3417 1.362 . S
C3418 C3421 1.409 . S
C3419 H3411 0.930 . S
C3419 C3420 1.355 . S
C3419 C3421 1.415 . S
C3420 C3419 1.355 . S
C3420 C3422 1.419 . S
C3421 C3416 1.425 . S
C3421 C3418 1.409 . S
C3421 C3419 1.415 . S
C3422 H3412 0.930 . S
C3422 C3420 1.419 . S
C3422 C3423 1.362 . S
C3423 H3413 0.930 . S
C3423 C3416 1.409 . S
C3423 C3422 1.362 . S
H3424 C3430 0.930 . S
H3425 C3433 0.930 . S
H3426 C3434 0.930 . S
H3427 C3435 0.930 . S
H3428 C3438 0.930 . S
H3429 C3439 0.930 . S
C3430 H3424 0.930 . S
C3430 C3431 1.355 . S
C3430 C3432 1.415 . S
C3431 C3430 1.355 . S
C3431 C3433 1.419 . S
C3432 C3430 1.415 . S
C3432 C3437 1.425 . S
C3432 C3439 1.409 . S
C3433 H3425 0.930 . S
C3433 C3431 1.419 . S
C3433 C3434 1.362 . S
C3434 H3426 0.930 . S
C3434 C3433 1.362 . S
C3434 C3437 1.409 . S
C3435 H3427 0.930 . S
C3435 C3436 1.355 . S
C3435 C3437 1.415 . S
C3436 C3435 1.355 . S
C3436 C3438 1.419 . S
C3437 C3432 1.425 . S
C3437 C3434 1.409 . S
C3437 C3435 1.415 . S
C3438 H3428 0.930 . S
C3438 C3436 1.419 . S
C3438 C3439 1.362 . S
C3439 H3429 0.930 . S
C3439 C3432 1.409 . S
C3439 C3438 1.362 . S
H3440 C3446 0.930 . S
H3441 C3449 0.930 . S
H3442 C3450 0.930 . S
H3443 C3451 0.930 . S
H3444 C3454 0.930 . S
H3445 C3455 0.930 . S
C3446 H3440 0.930 . S
C3446 C3447 1.355 . S
C3446 C3448 1.415 . S
C3447 C3446 1.355 . S
C3447 C3449 1.419 . S
C3448 C3446 1.415 . S
C3448 C3453 1.425 . S
C3448 C3455 1.409 . S
C3449 H3441 0.930 . S
C3449 C3447 1.419 . S
C3449 C3450 1.362 . S
C3450 H3442 0.930 . S
C3450 C3449 1.362 . S
C3450 C3453 1.409 . S
C3451 H3443 0.930 . S
C3451 C3452 1.355 . S
C3451 C3453 1.415 . S
C3452 C3451 1.355 . S
C3452 C3454 1.419 . S
C3453 C3448 1.425 . S
C3453 C3450 1.409 . S
C3453 C3451 1.415 . S
C3454 H3444 0.930 . S
C3454 C3452 1.419 . S
C3454 C3455 1.362 . S
C3455 H3445 0.930 . S
C3455 C3448 1.409 . S
C3455 C3454 1.362 . S
H3456 C3462 0.930 . S
H3457 C3465 0.930 . S
H3458 C3466 0.930 . S
H3459 C3467 0.930 . S
H3460 C3470 0.930 . S
H3461 C3471 0.930 . S
C3462 H3456 0.930 . S
C3462 C3463 1.355 . S
C3462 C3464 1.415 . S
C3463 C3462 1.355 . S
C3463 C3465 1.419 . S
C3464 C3462 1.415 . S
C3464 C3469 1.425 . S
C3464 C3471 1.409 . S
C3465 H3457 0.930 . S
C3465 C3463 1.419 . S
C3465 C3466 1.362 . S
C3466 H3458 0.930 . S
C3466 C3465 1.362 . S
C3466 C3469 1.409 . S
C3467 H3459 0.930 . S
C3467 C3468 1.355 . S
C3467 C3469 1.415 . S
C3468 C3467 1.355 . S
C3468 C3470 1.419 . S
C3469 C3464 1.425 . S
C3469 C3466 1.409 . S
C3469 C3467 1.415 . S
C3470 H3460 0.930 . S
C3470 C3468 1.419 . S
C3470 C3471 1.362 . S
C3471 H3461 0.930 . S
C3471 C3464 1.409 . S
C3471 C3470 1.362 . S
H3472 C3478 0.930 . S
H3473 C3481 0.930 . S
H3474 C3482 0.930 . S
H3475 C3483 0.930 . S
H3476 C3486 0.930 . S
H3477 C3487 0.930 . S
C3478 H3472 0.930 . S
C3478 C3479 1.355 . S
C3478 C3480 1.415 . S
C3479 C3478 1.355 . S
C3479 C3481 1.419 . S
C3480 C3478 1.415 . S
C3480 C3485 1.425 . S
C3480 C3487 1.409 . S
C3481 H3473 0.930 . S
C3481 C3479 1.419 . S
C3481 C3482 1.362 . S
C3482 H3474 0.930 . S
C3482 C3481 1.362 . S
C3482 C3485 1.409 . S
C3483 H3475 0.930 . S
C3483 C3484 1.355 . S
C3483 C3485 1.415 . S
C3484 C3483 1.355 . S
C3484 C3486 1.419 . S
C3485 C3480 1.425 . S
C3485 C3482 1.409 . S
C3485 C3483 1.415 . S
C3486 H3476 0.930 . S
C3486 C3484 1.419 . S
C3486 C3487 1.362 . S
C3487 H3477 0.930 . S
C3487 C3480 1.409 . S
C3487 C3486 1.362 . S
H3488 C3494 0.930 . S
H3489 C3497 0.930 . S
H3490 C3498 0.930 . S
H3491 C3499 0.930 . S
H3492 C3502 0.930 . S
H3493 C3503 0.930 . S
C3494 H3488 0.930 . S
C3494 C3495 1.355 . S
C3494 C3496 1.415 . S
C3495 C3494 1.355 . S
C3495 C3497 1.419 . S
C3496 C3494 1.415 . S
C3496 C3501 1.425 . S
C3496 C3503 1.409 . S
C3497 H3489 0.930 . S
C3497 C3495 1.419 . S
C3497 C3498 1.362 . S
C3498 H3490 0.930 . S
C3498 C3497 1.362 . S
C3498 C3501 1.409 . S
C3499 H3491 0.930 . S
C3499 C3500 1.355 . S
C3499 C3501 1.415 . S
C3500 C3499 1.355 . S
C3500 C3502 1.419 . S
C3501 C3496 1.425 . S
C3501 C3498 1.409 . S
C3501 C3499 1.415 . S
C3502 H3492 0.930 . S
C3502 C3500 1.419 . S
C3502 C3503 1.362 . S
C3503 H3493 0.930 . S
C3503 C3496 1.409 . S
C3503 C3502 1.362 . S
H3504 C3510 0.930 . S
H3505 C3513 0.930 . S
H3506 C3514 0.930 . S
H3507 C3515 0.930 . S
H3508 C3518 0.930 . S
H3509 C3519 0.930 . S
C3510 H3504 0.930 . S
C3510 C3511 1.355 . S
C3510 C3512 1.415 . S
C3511 C3510 1.355 . S
C3511 C3513 1.419 . S
C3512 C3510 1.415 . S
C3512 C3517 1.425 . S
C3512 C3519 1.409 . S
C3513 H3505 0.930 . S
C3513 C3511 1.419 . S
C3513 C3514 1.362 . S
C3514 H3506 0.930 . S
C3514 C3513 1.362 . S
C3514 C3517 1.409 . S
C3515 H3507 0.930 . S
C3515 C3516 1.355 . S
C3515 C3517 1.415 . S
C3516 C3515 1.355 . S
C3516 C3518 1.419 . S
C3517 C3512 1.425 . S
C3517 C3514 1.409 . S
C3517 C3515 1.415 . S
C3518 H3508 0.930 . S
C3518 C3516 1.419 . S
C3518 C3519 1.362 . S
C3519 H3509 0.930 . S
C3519 C3512 1.409 . S
C3519 C3518 1.362 . S
H3520 C3526 0.930 . S
H3521 C3529 0.930 . S
H3522 C3530 0.930 . S
H3523 C3531 0.930 . S
H3524 C3534 0.930 . S
H3525 C3535 0.930 . S
C3526 H3520 0.930 . S
C3526 C3527 1.355 . S
C3526 C3528 1.415 . S
C3527 C3526 1.355 . S
C3527 C3529 1.419 . S
C3528 C3526 1.415 . S
C3528 C3533 1.425 . S
C3528 C3535 1.409 . S
C3529 H3521 0.930 . S
C3529 C3527 1.419 . S
C3529 C3530 1.362 . S
C3530 H3522 0.930 . S
C3530 C3529 1.362 . S
C3530 C3533 1.409 . S
C3531 H3523 0.930 . S
C3531 C3532 1.355 . S
C3531 C3533 1.415 . S
C3532 C3531 1.355 . S
C3532 C3534 1.419 . S
C3533 C3528 1.425 . S
C3533 C3530 1.409 . S
C3533 C3531 1.415 . S
C3534 H3524 0.930 . S
C3534 C3532 1.419 . S
C3534 C3535 1.362 . S
C3535 H3525 0.930 . S
C3535 C3528 1.409 . S
C3535 C3534 1.362 . S
H3536 C3542 0.930 . S
H3537 C3545 0.930 . S
H3538 C3546 0.930 . S
H3539 C3547 0.930 . S
H3540 C3550 0.930 . S
H3541 C3551 0.930 . S
C3542 H3536 0.930 . S
C3542 C3543 1.355 . S
C3542 C3544 1.415 . S
C3543 C3542 1.355 . S
C3543 C3545 1.419 . S
C3544 C3542 1.415 . S
C3544 C3549 1.425 . S
C3544 C3551 1.409 . S
C3545 H3537 0.930 . S
C3545 C3543 1.419 . S
C3545 C3546 1.362 . S
C3546 H3538 0.930 . S
C3546 C3545 1.362 . S
C3546 C3549 1.409 . S
C3547 H3539 0.930 . S
C3547 C3548 1.355 . S
C3547 C3549 1.415 . S
C3548 C3547 1.355 . S
C3548 C3550 1.419 . S
C3549 C3544 1.425 . S
C3549 C3546 1.409 . S
C3549 C3547 1.415 . S
C3550 H3540 0.930 . S
C3550 C3548 1.419 . S
C3550 C3551 1.362 . S
C3551 H3541 0.930 . S
C3551 C3544 1.409 . S
C3551 C3550 1.362 . S
H3552 C3558 0.930 . S
H3553 C3561 0.930 . S
H3554 C3562 0.930 . S
H3555 C3563 0.930 . S
H3556 C3566 0.930 . S
H3557 C3567 0.930 . S
C3558 H3552 0.930 . S
C3558 C3559 1.355 1_455 S
C3558 C3560 1.415 . S
C3559 C3558 1.355 1_655 S
C3559 C3561 1.419 . S
C3560 C3558 1.415 . S
C3560 C3565 1.425 . S
C3560 C3567 1.409 . S
C3561 H3553 0.930 . S
C3561 C3559 1.419 . S
C3561 C3562 1.362 . S
C3562 H3554 0.930 . S
C3562 C3561 1.362 . S
C3562 C3565 1.409 1_655 S
C3563 H3555 0.930 . S
C3563 C3564 1.355 . S
C3563 C3565 1.415 . S
C3564 C3563 1.355 . S
C3564 C3566 1.419 . S
C3565 C3560 1.425 . S
C3565 C3562 1.409 1_455 S
C3565 C3563 1.415 . S
C3566 H3556 0.930 . S
C3566 C3564 1.419 . S
C3566 C3567 1.362 . S
C3567 H3557 0.930 . S
C3567 C3560 1.409 . S
C3567 C3566 1.362 . S
H3568 C3574 0.930 . S
H3569 C3577 0.930 . S
H3570 C3578 0.930 . S
H3571 C3579 0.930 . S
H3572 C3582 0.930 . S
H3573 C3583 0.930 1_565 S
C3574 H3568 0.930 . S
C3574 C3575 1.355 1_565 S
C3574 C3576 1.415 1_565 S
C3575 C3574 1.355 1_545 S
C3575 C3577 1.419 . S
C3576 C3574 1.415 1_545 S
C3576 C3581 1.425 . S
C3576 C3583 1.409 . S
C3577 H3569 0.930 . S
C3577 C3575 1.419 . S
C3577 C3578 1.362 . S
C3578 H3570 0.930 . S
C3578 C3577 1.362 . S
C3578 C3581 1.409 . S
C3579 H3571 0.930 . S
C3579 C3580 1.355 . S
C3579 C3581 1.415 . S
C3580 C3579 1.355 . S
C3580 C3582 1.419 . S
C3581 C3576 1.425 . S
C3581 C3578 1.409 . S
C3581 C3579 1.415 . S
C3582 H3572 0.930 . S
C3582 C3580 1.419 . S
C3582 C3583 1.362 . S
C3583 H3573 0.930 1_545 S
C3583 C3576 1.409 . S
C3583 C3582 1.362 . S
H3584 C3590 0.930 . S
H3585 C3593 0.930 . S
H3586 C3594 0.930 . S
H3587 C3595 0.930 . S
H3588 C3598 0.930 . S
H3589 C3599 0.930 . S
C3590 H3584 0.930 . S
C3590 C3591 1.355 . S
C3590 C3592 1.415 . S
C3591 C3590 1.355 . S
C3591 C3593 1.419 . S
C3592 C3590 1.415 . S
C3592 C3597 1.425 . S
C3592 C3599 1.409 . S
C3593 H3585 0.930 . S
C3593 C3591 1.419 . S
C3593 C3594 1.362 . S
C3594 H3586 0.930 . S
C3594 C3593 1.362 . S
C3594 C3597 1.409 . S
C3595 H3587 0.930 . S
C3595 C3596 1.355 . S
C3595 C3597 1.415 . S
C3596 C3595 1.355 . S
C3596 C3598 1.419 . S
C3597 C3592 1.425 . S
C3597 C3594 1.409 . S
C3597 C3595 1.415 . S
C3598 H3588 0.930 . S
C3598 C3596 1.419 . S
C3598 C3599 1.362 . S
C3599 H3589 0.930 . S
C3599 C3592 1.409 . S
C3599 C3598 1.362 . S
H3600 C3606 0.930 . S
H3601 C3609 0.930 . S
H3602 C3610 0.930 . S
H3603 C3611 0.930 . S
H3604 C3614 0.930 . S
H3605 C3615 0.930 . S
C3606 H3600 0.930 . S
C3606 C3607 1.355 . S
C3606 C3608 1.415 . S
C3607 C3606 1.355 . S
C3607 C3609 1.419 . S
C3608 C3606 1.415 . S
C3608 C3613 1.425 . S
C3608 C3615 1.409 . S
C3609 H3601 0.930 . S
C3609 C3607 1.419 . S
C3609 C3610 1.362 . S
C3610 H3602 0.930 . S
C3610 C3609 1.362 . S
C3610 C3613 1.409 . S
C3611 H3603 0.930 . S
C3611 C3612 1.355 . S
C3611 C3613 1.415 . S
C3612 C3611 1.355 . S
C3612 C3614 1.419 . S
C3613 C3608 1.425 . S
C3613 C3610 1.409 . S
C3613 C3611 1.415 . S
C3614 H3604 0.930 . S
C3614 C3612 1.419 . S
C3614 C3615 1.362 . S
C3615 H3605 0.930 . S
C3615 C3608 1.409 . S
C3615 C3614 1.362 . S
H3616 C3622 0.930 . S
H3617 C3625 0.930 . S
H3618 C3626 0.930 . S
H3619 C3627 0.930 . S
H3620 C3630 0.930 . S
H3621 C3631 0.930 . S
C3622 H3616 0.930 . S
C3622 C3623 1.355 . S
C3622 C3624 1.415 . S
C3623 C3622 1.355 . S
C3623 C3625 1.419 . S
C3624 C3622 1.415 . S
C3624 C3629 1.425 . S
C3624 C3631 1.409 1_455 S
C3625 H3617 0.930 . S
C3625 C3623 1.419 . S
C3625 C3626 1.362 . S
C3626 H3618 0.930 . S
C3626 C3625 1.362 . S
C3626 C3629 1.409 . S
C3627 H3619 0.930 . S
C3627 C3628 1.355 1_455 S
C3627 C3629 1.415 . S
C3628 C3627 1.355 1_655 S
C3628 C3630 1.419 . S
C3629 C3624 1.425 . S
C3629 C3626 1.409 . S
C3629 C3627 1.415 . S
C3630 H3620 0.930 . S
C3630 C3628 1.419 . S
C3630 C3631 1.362 . S
C3631 H3621 0.930 . S
C3631 C3624 1.409 1_655 S
C3631 C3630 1.362 . S
H3632 C3638 0.930 . S
H3633 C3641 0.930 . S
H3634 C3642 0.930 . S
H3635 C3643 0.930 . S
H3636 C3646 0.930 . S
H3637 C3647 0.930 . S
C3638 H3632 0.930 . S
C3638 C3639 1.355 . S
C3638 C3640 1.415 . S
C3639 C3638 1.355 . S
C3639 C3641 1.419 . S
C3640 C3638 1.415 . S
C3640 C3645 1.425 . S
C3640 C3647 1.409 1_545 S
C3641 H3633 0.930 . S
C3641 C3639 1.419 . S
C3641 C3642 1.362 . S
C3642 H3634 0.930 . S
C3642 C3641 1.362 . S
C3642 C3645 1.409 . S
C3643 H3635 0.930 . S
C3643 C3644 1.355 1_545 S
C3643 C3645 1.415 . S
C3644 C3643 1.355 1_565 S
C3644 C3646 1.419 . S
C3645 C3640 1.425 . S
C3645 C3642 1.409 . S
C3645 C3643 1.415 . S
C3646 H3636 0.930 . S
C3646 C3644 1.419 . S
C3646 C3647 1.362 . S
C3647 H3637 0.930 . S
C3647 C3640 1.409 1_565 S
C3647 C3646 1.362 . S
H3648 C3654 0.930 . S
H3649 C3657 0.930 . S
H3650 C3658 0.930 . S
H3651 C3659 0.930 . S
H3652 C3662 0.930 . S
H3653 C3663 0.930 . S
C3654 H3648 0.930 . S
C3654 C3655 1.355 . S
C3654 C3656 1.415 . S
C3655 C3654 1.355 . S
C3655 C3657 1.419 . S
C3656 C3654 1.415 . S
C3656 C3661 1.425 . S
C3656 C3663 1.409 . S
C3657 H3649 0.930 . S
C3657 C3655 1.419 . S
C3657 C3658 1.362 . S
C3658 H3650 0.930 . S
C3658 C3657 1.362 . S
C3658 C3661 1.409 . S
C3659 H3651 0.930 . S
C3659 C3660 1.355 . S
C3659 C3661 1.415 . S
C3660 C3659 1.355 . S
C3660 C3662 1.419 . S
C3661 C3656 1.425 . S
C3661 C3658 1.409 . S
C3661 C3659 1.415 . S
C3662 H3652 0.930 . S
C3662 C3660 1.419 . S
C3662 C3663 1.362 . S
C3663 H3653 0.930 . S
C3663 C3656 1.409 . S
C3663 C3662 1.362 . S
H3664 C3670 0.930 . S
H3665 C3673 0.930 . S
H3666 C3674 0.930 . S
H3667 C3675 0.930 . S
H3668 C3678 0.930 . S
H3669 C3679 0.930 . S
C3670 H3664 0.930 . S
C3670 C3671 1.355 . S
C3670 C3672 1.415 . S
C3671 C3670 1.355 . S
C3671 C3673 1.419 . S
C3672 C3670 1.415 . S
C3672 C3677 1.425 . S
C3672 C3679 1.409 . S
C3673 H3665 0.930 . S
C3673 C3671 1.419 . S
C3673 C3674 1.362 . S
C3674 H3666 0.930 . S
C3674 C3673 1.362 . S
C3674 C3677 1.409 . S
C3675 H3667 0.930 . S
C3675 C3676 1.355 . S
C3675 C3677 1.415 . S
C3676 C3675 1.355 . S
C3676 C3678 1.419 . S
C3677 C3672 1.425 . S
C3677 C3674 1.409 . S
C3677 C3675 1.415 . S
C3678 H3668 0.930 . S
C3678 C3676 1.419 . S
C3678 C3679 1.362 . S
C3679 H3669 0.930 . S
C3679 C3672 1.409 . S
C3679 C3678 1.362 . S
H3680 C3686 0.930 1_565 S
H3681 C3689 0.930 . S
H3682 C3690 0.930 . S
H3683 C3691 0.930 . S
H3684 C3694 0.930 . S
H3685 C3695 0.930 . S
C3686 H3680 0.930 1_545 S
C3686 C3687 1.353 1_545 S
C3686 C3688 1.415 . S
C3687 C3686 1.353 1_565 S
C3687 C3689 1.413 1_565 S
C3688 C3686 1.415 . S
C3688 C3693 1.425 . S
C3688 C3695 1.409 . S
C3689 H3681 0.930 . S
C3689 C3687 1.413 1_545 S
C3689 C3690 1.362 . S
C3690 H3682 0.930 . S
C3690 C3689 1.362 . S
C3690 C3693 1.409 . S
C3691 H3683 0.930 . S
C3691 C3692 1.355 . S
C3691 C3693 1.415 . S
C3692 C3691 1.355 . S
C3692 C3694 1.419 . S
C3693 C3688 1.425 . S
C3693 C3690 1.409 . S
C3693 C3691 1.415 . S
C3694 H3684 0.930 . S
C3694 C3692 1.419 . S
C3694 C3695 1.362 . S
C3695 H3685 0.930 . S
C3695 C3688 1.409 . S
C3695 C3694 1.362 . S
H3696 C3702 0.930 . S
H3697 C3705 0.930 . S
H3698 C3706 0.930 . S
H3699 C3707 0.930 . S
H3700 C3710 0.930 . S
H3701 C3711 0.930 . S
C3702 H3696 0.930 . S
C3702 C3703 1.355 . S
C3702 C3704 1.415 . S
C3703 C3702 1.355 . S
C3703 C3705 1.419 . S
C3704 C3702 1.415 . S
C3704 C3709 1.425 . S
C3704 C3711 1.409 . S
C3705 H3697 0.930 . S
C3705 C3703 1.419 . S
C3705 C3706 1.362 . S
C3706 H3698 0.930 . S
C3706 C3705 1.362 . S
C3706 C3709 1.409 . S
C3707 H3699 0.930 . S
C3707 C3708 1.355 . S
C3707 C3709 1.415 . S
C3708 C3707 1.355 . S
C3708 C3710 1.419 . S
C3709 C3704 1.425 . S
C3709 C3706 1.409 . S
C3709 C3707 1.415 . S
C3710 H3700 0.930 . S
C3710 C3708 1.419 . S
C3710 C3711 1.362 . S
C3711 H3701 0.930 . S
C3711 C3704 1.409 . S
C3711 C3710 1.362 . S
H3712 C3718 0.930 . S
H3713 C3721 0.930 . S
H3714 C3722 0.930 . S
H3715 C3723 0.930 . S
H3716 C3726 0.930 . S
H3717 C3727 0.930 . S
C3718 H3712 0.930 . S
C3718 C3719 1.355 . S
C3718 C3720 1.415 . S
C3719 C3718 1.355 . S
C3719 C3721 1.419 . S
C3720 C3718 1.415 . S
C3720 C3725 1.425 . S
C3720 C3727 1.409 . S
C3721 H3713 0.930 . S
C3721 C3719 1.419 . S
C3721 C3722 1.362 . S
C3722 H3714 0.930 . S
C3722 C3721 1.362 . S
C3722 C3725 1.409 . S
C3723 H3715 0.930 . S
C3723 C3724 1.355 . S
C3723 C3725 1.415 . S
C3724 C3723 1.355 . S
C3724 C3726 1.419 . S
C3725 C3720 1.425 . S
C3725 C3722 1.409 . S
C3725 C3723 1.415 . S
C3726 H3716 0.930 . S
C3726 C3724 1.419 . S
C3726 C3727 1.362 . S
C3727 H3717 0.930 . S
C3727 C3720 1.409 . S
C3727 C3726 1.362 . S
H3728 C3734 0.930 . S
H3729 C3737 0.930 . S
H3730 C3738 0.930 . S
H3731 C3739 0.930 . S
H3732 C3742 0.930 . S
H3733 C3743 0.930 . S
C3734 H3728 0.930 . S
C3734 C3735 1.355 . S
C3734 C3736 1.415 . S
C3735 C3734 1.355 . S
C3735 C3737 1.419 . S
C3736 C3734 1.415 . S
C3736 C3741 1.425 . S
C3736 C3743 1.409 1_455 S
C3737 H3729 0.930 . S
C3737 C3735 1.419 . S
C3737 C3738 1.362 . S
C3738 H3730 0.930 . S
C3738 C3737 1.362 . S
C3738 C3741 1.409 . S
C3739 H3731 0.930 . S
C3739 C3740 1.355 1_455 S
C3739 C3741 1.415 . S
C3740 C3739 1.355 1_655 S
C3740 C3742 1.419 . S
C3741 C3736 1.425 . S
C3741 C3738 1.409 . S
C3741 C3739 1.415 . S
C3742 H3732 0.930 . S
C3742 C3740 1.419 . S
C3742 C3743 1.362 . S
C3743 H3733 0.930 . S
C3743 C3736 1.409 1_655 S
C3743 C3742 1.362 . S
H3744 C3750 0.930 . S
H3745 C3753 0.930 . S
H3746 C3754 0.930 . S
H3747 C3755 0.930 . S
H3748 C3758 0.930 . S
H3749 C3759 0.930 . S
C3750 H3744 0.930 . S
C3750 C3751 1.355 . S
C3750 C3752 1.415 . S
C3751 C3750 1.355 . S
C3751 C3753 1.419 . S
C3752 C3750 1.415 . S
C3752 C3757 1.425 . S
C3752 C3759 1.409 . S
C3753 H3745 0.930 . S
C3753 C3751 1.419 . S
C3753 C3754 1.362 . S
C3754 H3746 0.930 . S
C3754 C3753 1.362 . S
C3754 C3757 1.409 . S
C3755 H3747 0.930 . S
C3755 C3756 1.355 . S
C3755 C3757 1.415 . S
C3756 C3755 1.355 . S
C3756 C3758 1.419 . S
C3757 C3752 1.425 . S
C3757 C3754 1.409 . S
C3757 C3755 1.415 . S
C3758 H3748 0.930 . S
C3758 C3756 1.419 . S
C3758 C3759 1.362 . S
C3759 H3749 0.930 . S
C3759 C3752 1.409 . S
C3759 C3758 1.362 . S
H3760 C3766 0.930 . S
H3761 C3769 0.930 . S
H3762 C3770 0.930 . S
H3763 C3771 0.930 . S
H3764 C3774 0.930 . S
H3765 C3775 0.930 . S
C3766 H3760 0.930 . S
C3766 C3767 1.355 . S
C3766 C3768 1.415 . S
C3767 C3766 1.355 . S
C3767 C3769 1.419 . S
C3768 C3766 1.415 . S
C3768 C3773 1.425 . S
C3768 C3775 1.409 . S
C3769 H3761 0.930 . S
C3769 C3767 1.419 . S
C3769 C3770 1.362 . S
C3770 H3762 0.930 . S
C3770 C3769 1.362 . S
C3770 C3773 1.409 . S
C3771 H3763 0.930 . S
C3771 C3772 1.355 1_455 S
C3771 C3773 1.415 . S
C3772 C3771 1.355 1_655 S
C3772 C3774 1.419 . S
C3773 C3768 1.425 . S
C3773 C3770 1.409 . S
C3773 C3771 1.415 . S
C3774 H3764 0.930 . S
C3774 C3772 1.419 . S
C3774 C3775 1.362 1_655 S
C3775 H3765 0.930 . S
C3775 C3768 1.409 . S
C3775 C3774 1.362 1_455 S
H3776 C3782 0.930 . S
H3777 C3785 0.930 . S
H3778 C3786 0.930 . S
H3779 C3787 0.930 . S
H3780 C3790 0.930 . S
H3781 C3791 0.930 . S
C3782 H3776 0.930 . S
C3782 C3783 1.355 1_545 S
C3782 C3784 1.415 . S
C3783 C3782 1.355 1_565 S
C3783 C3785 1.419 . S
C3784 C3782 1.415 . S
C3784 C3789 1.425 . S
C3784 C3791 1.409 . S
C3785 H3777 0.930 . S
C3785 C3783 1.419 . S
C3785 C3786 1.362 . S
C3786 H3778 0.930 . S
C3786 C3785 1.362 . S
C3786 C3789 1.409 1_565 S
C3787 H3779 0.930 . S
C3787 C3788 1.355 . S
C3787 C3789 1.415 . S
C3788 C3787 1.355 . S
C3788 C3790 1.419 . S
C3789 C3784 1.425 . S
C3789 C3786 1.409 1_545 S
C3789 C3787 1.415 . S
C3790 H3780 0.930 . S
C3790 C3788 1.419 . S
C3790 C3791 1.362 . S
C3791 H3781 0.930 . S
C3791 C3784 1.409 . S
C3791 C3790 1.362 . S
H3792 C3798 0.930 . S
H3793 C3801 0.930 . S
H3794 C3802 0.930 . S
H3795 C3803 0.930 . S
H3796 C3806 0.930 . S
H3797 C3807 0.930 . S
C3798 H3792 0.930 . S
C3798 C3799 1.355 . S
C3798 C3800 1.415 . S
C3799 C3798 1.355 . S
C3799 C3801 1.419 . S
C3800 C3798 1.415 . S
C3800 C3805 1.425 . S
C3800 C3807 1.409 . S
C3801 H3793 0.930 . S
C3801 C3799 1.419 . S
C3801 C3802 1.362 . S
C3802 H3794 0.930 . S
C3802 C3801 1.362 . S
C3802 C3805 1.409 . S
C3803 H3795 0.930 . S
C3803 C3804 1.355 . S
C3803 C3805 1.415 . S
C3804 C3803 1.355 . S
C3804 C3806 1.419 . S
C3805 C3800 1.425 . S
C3805 C3802 1.409 . S
C3805 C3803 1.415 . S
C3806 H3796 0.930 . S
C3806 C3804 1.419 . S
C3806 C3807 1.362 . S
C3807 H3797 0.930 . S
C3807 C3800 1.409 . S
C3807 C3806 1.362 . S
H3808 C3814 0.930 . S
H3809 C3817 0.930 . S
H3810 C3818 0.930 . S
H3811 C3819 0.930 . S
H3812 C3822 0.930 . S
H3813 C3823 0.937 . S
C3814 H3808 0.930 . S
C3814 C3815 1.355 . S
C3814 C3816 1.415 . S
C3815 C3814 1.355 . S
C3815 C3817 1.419 . S
C3816 C3814 1.415 . S
C3816 C3821 1.425 . S
C3816 C3823 1.409 . S
C3817 H3809 0.930 . S
C3817 C3815 1.419 . S
C3817 C3818 1.362 . S
C3818 H3810 0.930 . S
C3818 C3817 1.362 . S
C3818 C3821 1.409 . S
C3819 H3811 0.930 . S
C3819 C3820 1.355 1_554 S
C3819 C3821 1.415 . S
C3820 C3819 1.355 1_556 S
C3820 C3822 1.419 . S
C3821 C3816 1.425 . S
C3821 C3818 1.409 . S
C3821 C3819 1.415 . S
C3822 H3812 0.930 . S
C3822 C3820 1.419 . S
C3822 C3823 1.362 1_556 S
C3823 H3813 0.937 . S
C3823 C3816 1.409 . S
C3823 C3822 1.362 1_554 S
H3824 C3830 0.930 . S
H3825 C3833 0.930 . S
H3826 C3834 0.930 . S
H3827 C3835 0.930 . S
H3828 C3838 0.930 . S
H3829 C3839 0.930 . S
C3830 H3824 0.930 . S
C3830 C3831 1.355 . S
C3830 C3832 1.415 . S
C3831 C3830 1.355 . S
C3831 C3833 1.419 . S
C3832 C3830 1.415 . S
C3832 C3837 1.425 . S
C3832 C3839 1.409 . S
C3833 H3825 0.930 . S
C3833 C3831 1.419 . S
C3833 C3834 1.362 . S
C3834 H3826 0.930 . S
C3834 C3833 1.362 . S
C3834 C3837 1.409 . S
C3835 H3827 0.930 . S
C3835 C3836 1.355 . S
C3835 C3837 1.415 . S
C3836 C3835 1.355 . S
C3836 C3838 1.419 . S
C3837 C3832 1.425 . S
C3837 C3834 1.409 . S
C3837 C3835 1.415 . S
C3838 H3828 0.930 . S
C3838 C3836 1.419 . S
C3838 C3839 1.362 . S
C3839 H3829 0.930 . S
C3839 C3832 1.409 . S
C3839 C3838 1.362 . S
H3840 C3846 0.930 . S
H3841 C3849 0.930 . S
H3842 C3850 0.930 . S
H3843 C3851 0.930 . S
H3844 C3854 0.930 . S
H3845 C3855 0.930 . S
C3846 H3840 0.930 . S
C3846 C3847 1.355 . S
C3846 C3848 1.415 . S
C3847 C3846 1.355 . S
C3847 C3849 1.419 . S
C3848 C3846 1.415 . S
C3848 C3853 1.425 . S
C3848 C3855 1.409 . S
C3849 H3841 0.930 . S
C3849 C3847 1.419 . S
C3849 C3850 1.362 . S
C3850 H3842 0.930 . S
C3850 C3849 1.362 . S
C3850 C3853 1.409 . S
C3851 H3843 0.930 . S
C3851 C3852 1.355 . S
C3851 C3853 1.415 . S
C3852 C3851 1.355 . S
C3852 C3854 1.419 . S
C3853 C3848 1.425 . S
C3853 C3850 1.409 . S
C3853 C3851 1.415 . S
C3854 H3844 0.930 . S
C3854 C3852 1.419 . S
C3854 C3855 1.362 . S
C3855 H3845 0.930 . S
C3855 C3848 1.409 . S
C3855 C3854 1.362 . S
H3856 C3862 0.930 . S
H3857 C3865 0.930 . S
H3858 C3866 0.930 . S
H3859 C3867 0.930 . S
H3860 C3870 0.930 . S
H3861 C3871 0.930 . S
C3862 H3856 0.930 . S
C3862 C3863 1.355 . S
C3862 C3864 1.415 . S
C3863 C3862 1.355 . S
C3863 C3865 1.419 . S
C3864 C3862 1.415 . S
C3864 C3869 1.425 . S
C3864 C3871 1.409 . S
C3865 H3857 0.930 . S
C3865 C3863 1.419 . S
C3865 C3866 1.362 . S
C3866 H3858 0.930 . S
C3866 C3865 1.362 . S
C3866 C3869 1.409 . S
C3867 H3859 0.930 . S
C3867 C3868 1.355 . S
C3867 C3869 1.415 . S
C3868 C3867 1.355 . S
C3868 C3870 1.419 . S
C3869 C3864 1.425 . S
C3869 C3866 1.409 . S
C3869 C3867 1.415 . S
C3870 H3860 0.930 . S
C3870 C3868 1.419 . S
C3870 C3871 1.362 . S
C3871 H3861 0.930 . S
C3871 C3864 1.409 . S
C3871 C3870 1.362 . S
H3872 C3878 0.930 . S
H3873 C3881 0.930 . S
H3874 C3882 0.930 . S
H3875 C3883 0.930 . S
H3876 C3886 0.930 . S
H3877 C3887 0.930 . S
C3878 H3872 0.930 . S
C3878 C3879 1.355 . S
C3878 C3880 1.415 . S
C3879 C3878 1.355 . S
C3879 C3881 1.419 . S
C3880 C3878 1.415 . S
C3880 C3885 1.425 . S
C3880 C3887 1.409 . S
C3881 H3873 0.930 . S
C3881 C3879 1.419 . S
C3881 C3882 1.362 . S
C3882 H3874 0.930 . S
C3882 C3881 1.362 . S
C3882 C3885 1.409 . S
C3883 H3875 0.930 . S
C3883 C3884 1.355 . S
C3883 C3885 1.415 . S
C3884 C3883 1.355 . S
C3884 C3886 1.419 . S
C3885 C3880 1.425 . S
C3885 C3882 1.409 . S
C3885 C3883 1.415 . S
C3886 H3876 0.930 . S
C3886 C3884 1.419 . S
C3886 C3887 1.362 . S
C3887 H3877 0.930 . S
C3887 C3880 1.409 . S
C3887 C3886 1.362 . S
H3888 C3894 0.930 . S
H3889 C3897 0.930 . S
H3890 C3898 0.930 . S
H3891 C3899 0.930 . S
H3892 C3902 0.930 . S
H3893 C3903 0.930 1_556 S
C3894 H3888 0.930 . S
C3894 C3895 1.355 . S
C3894 C3896 1.415 . S
C3895 C3894 1.355 . S
C3895 C3897 1.419 . S
C3896 C3894 1.415 . S
C3896 C3901 1.425 . S
C3896 C3903 1.409 . S
C3897 H3889 0.930 . S
C3897 C3895 1.419 . S
C3897 C3898 1.362 . S
C3898 H3890 0.930 . S
C3898 C3897 1.362 . S
C3898 C3901 1.409 . S
C3899 H3891 0.930 . S
C3899 C3900 1.355 1_554 S
C3899 C3901 1.415 . S
C3900 C3899 1.355 1_556 S
C3900 C3902 1.419 . S
C3901 C3896 1.425 . S
C3901 C3898 1.409 . S
C3901 C3899 1.415 . S
C3902 H3892 0.930 . S
C3902 C3900 1.419 . S
C3902 C3903 1.362 1_556 S
C3903 H3893 0.930 1_554 S
C3903 C3896 1.409 . S
C3903 C3902 1.362 1_554 S
H3904 C3910 0.930 . S
H3905 C3913 0.930 . S
H3906 C3914 0.930 . S
H3907 C3915 0.930 . S
H3908 C3918 0.930 . S
H3909 C3919 0.930 1_556 S
C3910 H3904 0.930 . S
C3910 C3911 1.355 1_556 S
C3910 C3912 1.415 1_556 S
C3911 C3910 1.355 1_554 S
C3911 C3913 1.419 . S
C3912 C3910 1.415 1_554 S
C3912 C3917 1.425 . S
C3912 C3919 1.409 . S
C3913 H3905 0.930 . S
C3913 C3911 1.419 . S
C3913 C3914 1.362 . S
C3914 H3906 0.930 . S
C3914 C3913 1.362 . S
C3914 C3917 1.409 . S
C3915 H3907 0.930 . S
C3915 C3916 1.355 . S
C3915 C3917 1.415 . S
C3916 C3915 1.355 . S
C3916 C3918 1.419 . S
C3917 C3912 1.425 . S
C3917 C3914 1.409 . S
C3917 C3915 1.415 . S
C3918 H3908 0.930 . S
C3918 C3916 1.419 . S
C3918 C3919 1.362 . S
C3919 H3909 0.930 1_554 S
C3919 C3912 1.409 . S
C3919 C3918 1.362 . S
H3920 C3926 0.930 . S
H3921 C3929 0.930 . S
H3922 C3930 0.930 1_556 S
H3923 C3931 0.930 . S
H3924 C3934 0.930 . S
H3925 C3935 0.930 . S
C3926 H3920 0.930 . S
C3926 C3927 1.355 . S
C3926 C3928 1.415 . S
C3927 C3926 1.355 . S
C3927 C3929 1.419 . S
C3928 C3926 1.415 . S
C3928 C3933 1.425 . S
C3928 C3935 1.409 . S
C3929 H3921 0.930 . S
C3929 C3927 1.419 . S
C3929 C3930 1.362 . S
C3930 H3922 0.930 1_554 S
C3930 C3929 1.362 . S
C3930 C3933 1.409 . S
C3931 H3923 0.930 . S
C3931 C3932 1.355 1_556 S
C3931 C3933 1.415 1_556 S
C3932 C3931 1.355 1_554 S
C3932 C3934 1.419 . S
C3933 C3928 1.425 . S
C3933 C3930 1.409 . S
C3933 C3931 1.415 1_554 S
C3934 H3924 0.930 . S
C3934 C3932 1.419 . S
C3934 C3935 1.362 . S
C3935 H3925 0.930 . S
C3935 C3928 1.409 . S
C3935 C3934 1.362 . S
H3936 C3942 0.914 1_455 S
H3937 C3945 0.930 . S
H3938 C3946 0.930 . S
H3939 C3947 0.930 . S
H3940 C3950 0.930 . S
H3941 C3951 0.930 . S
C3942 H3936 0.914 1_655 S
C3942 C3943 1.354 . S
C3942 C3944 1.431 . S
C3943 C3942 1.354 . S
C3943 C3945 1.417 . S
C3944 C3942 1.431 . S
C3944 C3949 1.425 . S
C3944 C3951 1.409 . S
C3945 H3937 0.930 . S
C3945 C3943 1.417 . S
C3945 C3946 1.362 . S
C3946 H3938 0.930 . S
C3946 C3945 1.362 . S
C3946 C3949 1.409 . S
C3947 H3939 0.930 . S
C3947 C3948 1.355 . S
C3947 C3949 1.415 . S
C3948 C3947 1.355 . S
C3948 C3950 1.419 . S
C3949 C3944 1.425 . S
C3949 C3946 1.409 . S
C3949 C3947 1.415 . S
C3950 H3940 0.930 . S
C3950 C3948 1.419 . S
C3950 C3951 1.362 . S
C3951 H3941 0.930 . S
C3951 C3944 1.409 . S
C3951 C3950 1.362 . S
H3952 C3958 0.930 . S
H3953 C3961 0.930 . S
H3954 C3962 0.930 1_545 S
H3955 C3963 0.930 . S
H3956 C3966 0.930 . S
H3957 C3967 0.930 . S
C3958 H3952 0.930 . S
C3958 C3959 1.355 . S
C3958 C3960 1.415 . S
C3959 C3958 1.355 . S
C3959 C3961 1.419 . S
C3960 C3958 1.415 . S
C3960 C3965 1.425 . S
C3960 C3967 1.409 . S
C3961 H3953 0.930 . S
C3961 C3959 1.419 . S
C3961 C3962 1.362 . S
C3962 H3954 0.930 1_565 S
C3962 C3961 1.362 . S
C3962 C3965 1.409 . S
C3963 H3955 0.930 . S
C3963 C3964 1.355 1_545 S
C3963 C3965 1.415 1_545 S
C3964 C3963 1.355 1_565 S
C3964 C3966 1.419 . S
C3965 C3960 1.425 . S
C3965 C3962 1.409 . S
C3965 C3963 1.415 1_565 S
C3966 H3956 0.930 . S
C3966 C3964 1.419 . S
C3966 C3967 1.362 . S
C3967 H3957 0.930 . S
C3967 C3960 1.409 . S
C3967 C3966 1.362 . S
H3968 C3974 0.930 . S
H3969 C3977 0.930 . S
H3970 C3978 0.930 . S
H3971 C3979 0.930 . S
H3972 C3982 0.930 . S
H3973 C3983 0.930 . S
C3974 H3968 0.930 . S
C3974 C3975 1.355 . S
C3974 C3976 1.415 . S
C3975 C3974 1.355 . S
C3975 C3977 1.419 . S
C3976 C3974 1.415 . S
C3976 C3981 1.425 . S
C3976 C3983 1.409 . S
C3977 H3969 0.930 . S
C3977 C3975 1.419 . S
C3977 C3978 1.362 . S
C3978 H3970 0.930 . S
C3978 C3977 1.362 . S
C3978 C3981 1.409 . S
C3979 H3971 0.930 . S
C3979 C3980 1.355 . S
C3979 C3981 1.415 . S
C3980 C3979 1.355 . S
C3980 C3982 1.419 . S
C3981 C3976 1.425 . S
C3981 C3978 1.409 . S
C3981 C3979 1.415 . S
C3982 H3972 0.930 . S
C3982 C3980 1.419 . S
C3982 C3983 1.362 . S
C3983 H3973 0.930 . S
C3983 C3976 1.409 . S
C3983 C3982 1.362 . S
H3984 C3990 0.930 . S
H3985 C3993 0.930 . S
H3986 C3994 0.930 . S
H3987 C3995 0.930 . S
H3988 C3998 0.930 . S
H3989 C3999 0.930 . S
C3990 H3984 0.930 . S
C3990 C3991 1.355 . S
C3990 C3992 1.415 . S
C3991 C3990 1.355 . S
C3991 C3993 1.419 . S
C3992 C3990 1.415 . S
C3992 C3997 1.425 . S
C3992 C3999 1.409 . S
C3993 H3985 0.930 . S
C3993 C3991 1.419 . S
C3993 C3994 1.362 . S
C3994 H3986 0.930 . S
C3994 C3993 1.362 . S
C3994 C3997 1.409 . S
C3995 H3987 0.930 . S
C3995 C3996 1.355 . S
C3995 C3997 1.415 . S
C3996 C3995 1.355 . S
C3996 C3998 1.419 . S
C3997 C3992 1.425 . S
C3997 C3994 1.409 . S
C3997 C3995 1.415 . S
C3998 H3988 0.930 . S
C3998 C3996 1.419 . S
C3998 C3999 1.362 . S
C3999 H3989 0.930 . S
C3999 C3992 1.409 . S
C3999 C3998 1.362 . S
H4000 C4006 0.930 . S
H4001 C4009 0.930 . S
H4002 C4010 0.930 . S
H4003 C4011 0.930 . S
H4004 C4014 0.930 . S
H4005 C4015 0.930 . S
C4006 H4000 0.930 . S
C4006 C4007 1.355 . S
C4006 C4008 1.415 . S
C4007 C4006 1.355 . S
C4007 C4009 1.419 . S
C4008 C4006 1.415 . S
C4008 C4013 1.425 . S
C4008 C4015 1.409 . S
C4009 H4001 0.930 . S
C4009 C4007 1.419 . S
C4009 C4010 1.362 . S
C4010 H4002 0.930 . S
C4010 C4009 1.362 . S
C4010 C4013 1.409 . S
C4011 H4003 0.930 . S
C4011 C4012 1.361 . S
C4011 C4013 1.415 . S
C4012 C4011 1.361 . S
C4012 C4014 1.425 . S
C4013 C4008 1.425 . S
C4013 C4010 1.409 . S
C4013 C4011 1.415 . S
C4014 H4004 0.930 . S
C4014 C4012 1.425 . S
C4014 C4015 1.362 . S
C4015 H4005 0.930 . S
C4015 C4008 1.409 . S
C4015 C4014 1.362 . S
H4016 C4022 0.930 . S
H4017 C4025 0.930 . S
H4018 C4026 0.921 1_545 S
H4019 C4027 0.930 . S
H4020 C4030 0.930 . S
H4021 C4031 0.930 . S
C4022 H4016 0.930 . S
C4022 C4023 1.355 1_565 S
C4022 C4024 1.415 . S
C4023 C4022 1.355 1_545 S
C4023 C4025 1.419 . S
C4024 C4022 1.415 . S
C4024 C4029 1.425 . S
C4024 C4031 1.409 . S
C4025 H4017 0.930 . S
C4025 C4023 1.419 . S
C4025 C4026 1.351 1_545 S
C4026 H4018 0.921 1_565 S
C4026 C4025 1.351 1_565 S
C4026 C4029 1.430 . S
C4027 H4019 0.930 . S
C4027 C4028 1.355 . S
C4027 C4029 1.415 . S
C4028 C4027 1.355 . S
C4028 C4030 1.419 . S
C4029 C4024 1.425 . S
C4029 C4026 1.430 . S
C4029 C4027 1.415 . S
C4030 H4020 0.930 . S
C4030 C4028 1.419 . S
C4030 C4031 1.362 . S
C4031 H4021 0.930 . S
C4031 C4024 1.409 . S
C4031 C4030 1.362 . S
H4032 C4038 0.930 . S
H4033 C4041 0.930 . S
H4034 C4042 0.930 . S
H4035 C4043 0.930 . S
H4036 C4046 0.930 . S
H4037 C4047 0.930 . S
C4038 H4032 0.930 . S
C4038 C4039 1.355 . S
C4038 C4040 1.415 . S
C4039 C4038 1.355 . S
C4039 C4041 1.419 . S
C4040 C4038 1.415 . S
C4040 C4045 1.425 . S
C4040 C4047 1.409 . S
C4041 H4033 0.930 . S
C4041 C4039 1.419 . S
C4041 C4042 1.362 . S
C4042 H4034 0.930 . S
C4042 C4041 1.362 . S
C4042 C4045 1.409 . S
C4043 H4035 0.930 . S
C4043 C4044 1.355 . S
C4043 C4045 1.415 . S
C4044 C4043 1.355 . S
C4044 C4046 1.419 . S
C4045 C4040 1.425 . S
C4045 C4042 1.409 . S
C4045 C4043 1.415 . S
C4046 H4036 0.930 . S
C4046 C4044 1.419 . S
C4046 C4047 1.362 . S
C4047 H4037 0.930 . S
C4047 C4040 1.409 . S
C4047 C4046 1.362 . S
H4048 C4054 0.930 . S
H4049 C4057 0.930 . S
H4050 C4058 0.930 . S
H4051 C4059 0.930 . S
H4052 C4062 0.930 . S
H4053 C4063 0.930 . S
C4054 H4048 0.930 . S
C4054 C4055 1.355 . S
C4054 C4056 1.415 . S
C4055 C4054 1.355 . S
C4055 C4057 1.419 . S
C4056 C4054 1.415 . S
C4056 C4061 1.425 . S
C4056 C4063 1.409 . S
C4057 H4049 0.930 . S
C4057 C4055 1.419 . S
C4057 C4058 1.362 . S
C4058 H4050 0.930 . S
C4058 C4057 1.362 . S
C4058 C4061 1.409 . S
C4059 H4051 0.930 . S
C4059 C4060 1.355 . S
C4059 C4061 1.415 . S
C4060 C4059 1.355 . S
C4060 C4062 1.419 . S
C4061 C4056 1.425 . S
C4061 C4058 1.409 . S
C4061 C4059 1.415 . S
C4062 H4052 0.930 . S
C4062 C4060 1.419 . S
C4062 C4063 1.362 . S
C4063 H4053 0.930 . S
C4063 C4056 1.409 . S
C4063 C4062 1.362 . S
H4064 C4070 0.930 . S
H4065 C4073 0.930 . S
H4066 C4074 0.930 . S
H4067 C4075 0.930 . S
H4068 C4078 0.930 . S
H4069 C4079 0.930 . S
C4070 H4064 0.930 . S
C4070 C4071 1.355 . S
C4070 C4072 1.415 . S
C4071 C4070 1.355 . S
C4071 C4073 1.419 . S
C4072 C4070 1.415 . S
C4072 C4077 1.425 . S
C4072 C4079 1.409 1_565 S
C4073 H4065 0.930 . S
C4073 C4071 1.419 . S
C4073 C4074 1.362 . S
C4074 H4066 0.930 . S
C4074 C4073 1.362 . S
C4074 C4077 1.409 . S
C4075 H4067 0.930 . S
C4075 C4076 1.355 1_565 S
C4075 C4077 1.415 . S
C4076 C4075 1.355 1_545 S
C4076 C4078 1.419 . S
C4077 C4072 1.425 . S
C4077 C4074 1.409 . S
C4077 C4075 1.415 . S
C4078 H4068 0.930 . S
C4078 C4076 1.419 . S
C4078 C4079 1.362 . S
C4079 H4069 0.930 . S
C4079 C4072 1.409 1_545 S
C4079 C4078 1.362 . S
H4080 C4086 0.930 . S
H4081 C4089 0.930 . S
H4082 C4090 0.930 . S
H4083 C4091 0.930 . S
H4084 C4094 0.930 . S
H4085 C4095 0.930 . S
C4086 H4080 0.930 . S
C4086 C4087 1.355 . S
C4086 C4088 1.415 . S
C4087 C4086 1.355 . S
C4087 C4089 1.419 . S
C4088 C4086 1.415 . S
C4088 C4093 1.425 . S
C4088 C4095 1.409 . S
C4089 H4081 0.930 . S
C4089 C4087 1.419 . S
C4089 C4090 1.362 . S
C4090 H4082 0.930 . S
C4090 C4089 1.362 . S
C4090 C4093 1.409 . S
C4091 H4083 0.930 . S
C4091 C4092 1.355 . S
C4091 C4093 1.415 . S
C4092 C4091 1.355 . S
C4092 C4094 1.419 . S
C4093 C4088 1.425 . S
C4093 C4090 1.409 . S
C4093 C4091 1.415 . S
C4094 H4084 0.930 . S
C4094 C4092 1.419 . S
C4094 C4095 1.362 . S
C4095 H4085 0.930 . S
C4095 C4088 1.409 . S
C4095 C4094 1.362 . S
H4096 C4102 0.930 . S
H4097 C4105 0.930 . S
H4098 C4106 0.930 . S
H4099 C4107 0.930 . S
H4100 C4110 0.930 . S
H4101 C4111 0.930 . S
C4102 H4096 0.930 . S
C4102 C4103 1.355 . S
C4102 C4104 1.415 . S
C4103 C4102 1.355 . S
C4103 C4105 1.419 . S
C4104 C4102 1.415 . S
C4104 C4109 1.425 . S
C4104 C4111 1.409 . S
C4105 H4097 0.930 . S
C4105 C4103 1.419 . S
C4105 C4106 1.362 . S
C4106 H4098 0.930 . S
C4106 C4105 1.362 . S
C4106 C4109 1.409 . S
C4107 H4099 0.930 . S
C4107 C4108 1.355 . S
C4107 C4109 1.415 . S
C4108 C4107 1.355 . S
C4108 C4110 1.419 . S
C4109 C4104 1.425 . S
C4109 C4106 1.409 . S
C4109 C4107 1.415 . S
C4110 H4100 0.930 . S
C4110 C4108 1.419 . S
C4110 C4111 1.362 . S
C4111 H4101 0.930 . S
C4111 C4104 1.409 . S
C4111 C4110 1.362 . S
H4112 C4118 0.930 . S
H4113 C4121 0.930 . S
H4114 C4122 0.930 . S
H4115 C4123 0.930 . S
H4116 C4126 0.930 . S
H4117 C4127 0.930 . S
C4118 H4112 0.930 . S
C4118 C4119 1.355 1_655 S
C4118 C4120 1.415 . S
C4119 C4118 1.355 1_455 S
C4119 C4121 1.419 . S
C4120 C4118 1.415 . S
C4120 C4125 1.425 . S
C4120 C4127 1.409 . S
C4121 H4113 0.930 . S
C4121 C4119 1.419 . S
C4121 C4122 1.362 . S
C4122 H4114 0.930 . S
C4122 C4121 1.362 . S
C4122 C4125 1.409 1_455 S
C4123 H4115 0.930 . S
C4123 C4124 1.355 . S
C4123 C4125 1.415 . S
C4124 C4123 1.355 . S
C4124 C4126 1.419 . S
C4125 C4120 1.425 . S
C4125 C4122 1.409 1_655 S
C4125 C4123 1.415 . S
C4126 H4116 0.930 . S
C4126 C4124 1.419 . S
C4126 C4127 1.362 . S
C4127 H4117 0.930 . S
C4127 C4120 1.409 . S
C4127 C4126 1.362 . S
H4128 C4134 0.930 . S
H4129 C4137 0.930 . S
H4130 C4138 0.930 . S
H4131 C4139 0.930 . S
H4132 C4142 0.930 . S
H4133 C4143 0.930 . S
C4134 H4128 0.930 . S
C4134 C4135 1.355 . S
C4134 C4136 1.415 . S
C4135 C4134 1.355 . S
C4135 C4137 1.419 . S
C4136 C4134 1.415 . S
C4136 C4141 1.425 . S
C4136 C4143 1.409 . S
C4137 H4129 0.930 . S
C4137 C4135 1.419 . S
C4137 C4138 1.362 . S
C4138 H4130 0.930 . S
C4138 C4137 1.362 . S
C4138 C4141 1.409 . S
C4139 H4131 0.930 . S
C4139 C4140 1.355 . S
C4139 C4141 1.415 . S
C4140 C4139 1.355 . S
C4140 C4142 1.419 . S
C4141 C4136 1.425 . S
C4141 C4138 1.409 . S
C4141 C4139 1.415 . S
C4142 H4132 0.930 . S
C4142 C4140 1.419 . S
C4142 C4143 1.362 . S
C4143 H4133 0.930 . S
C4143 C4136 1.409 . S
C4143 C4142 1.362 . S
H4144 C4150 0.930 . S
H4145 C4153 0.939 . S
H4146 C4154 0.930 . S
H4147 C4155 0.930 . S
H4148 C4158 0.930 . S
H4149 C4159 0.930 . S
C4150 H4144 0.930 . S
C4150 C4151 1.343 1_655 S
C4150 C4152 1.415 . S
C4151 C4150 1.343 1_455 S
C4151 C4153 1.409 1_455 S
C4152 C4150 1.415 . S
C4152 C4157 1.425 . S
C4152 C4159 1.409 . S
C4153 H4145 0.939 . S
C4153 C4151 1.409 1_655 S
C4153 C4154 1.362 . S
C4154 H4146 0.930 . S
C4154 C4153 1.362 . S
C4154 C4157 1.409 . S
C4155 H4147 0.930 . S
C4155 C4156 1.355 . S
C4155 C4157 1.415 . S
C4156 C4155 1.355 . S
C4156 C4158 1.419 . S
C4157 C4152 1.425 . S
C4157 C4154 1.409 . S
C4157 C4155 1.415 . S
C4158 H4148 0.930 . S
C4158 C4156 1.419 . S
C4158 C4159 1.362 . S
C4159 H4149 0.930 . S
C4159 C4152 1.409 . S
C4159 C4158 1.362 . S
H4160 C4166 0.930 . S
H4161 C4169 0.930 . S
H4162 C4170 0.930 . S
H4163 C4171 0.930 . S
H4164 C4174 0.930 . S
H4165 C4175 0.930 . S
C4166 H4160 0.930 . S
C4166 C4167 1.355 1_565 S
C4166 C4168 1.415 . S
C4167 C4166 1.355 1_545 S
C4167 C4169 1.419 . S
C4168 C4166 1.415 . S
C4168 C4173 1.425 . S
C4168 C4175 1.409 . S
C4169 H4161 0.930 . S
C4169 C4167 1.419 . S
C4169 C4170 1.362 . S
C4170 H4162 0.930 . S
C4170 C4169 1.362 . S
C4170 C4173 1.409 1_545 S
C4171 H4163 0.930 . S
C4171 C4172 1.355 . S
C4171 C4173 1.415 . S
C4172 C4171 1.355 . S
C4172 C4174 1.419 . S
C4173 C4168 1.425 . S
C4173 C4170 1.409 1_565 S
C4173 C4171 1.415 . S
C4174 H4164 0.930 . S
C4174 C4172 1.419 . S
C4174 C4175 1.362 . S
C4175 H4165 0.930 . S
C4175 C4168 1.409 . S
C4175 C4174 1.362 . S
H4176 C4182 0.930 . S
H4177 C4185 0.930 . S
H4178 C4186 0.930 . S
H4179 C4187 0.930 . S
H4180 C4190 0.930 . S
H4181 C4191 0.930 . S
C4182 H4176 0.930 . S
C4182 C4183 1.355 . S
C4182 C4184 1.415 . S
C4183 C4182 1.355 . S
C4183 C4185 1.419 . S
C4184 C4182 1.415 . S
C4184 C4189 1.425 . S
C4184 C4191 1.409 . S
C4185 H4177 0.930 . S
C4185 C4183 1.419 . S
C4185 C4186 1.362 . S
C4186 H4178 0.930 . S
C4186 C4185 1.362 . S
C4186 C4189 1.409 . S
C4187 H4179 0.930 . S
C4187 C4188 1.355 . S
C4187 C4189 1.415 . S
C4188 C4187 1.355 . S
C4188 C4190 1.419 . S
C4189 C4184 1.425 . S
C4189 C4186 1.409 . S
C4189 C4187 1.415 . S
C4190 H4180 0.930 . S
C4190 C4188 1.419 . S
C4190 C4191 1.362 . S
C4191 H4181 0.930 . S
C4191 C4184 1.409 . S
C4191 C4190 1.362 . S
H4192 C4198 0.930 . S
H4193 C4201 0.930 . S
H4194 C4202 0.930 . S
H4195 C4203 0.930 . S
H4196 C4206 0.930 . S
H4197 C4207 0.930 . S
C4198 H4192 0.930 . S
C4198 C4199 1.355 1_556 S
C4198 C4200 1.415 . S
C4199 C4198 1.355 1_554 S
C4199 C4201 1.419 . S
C4200 C4198 1.415 . S
C4200 C4205 1.425 . S
C4200 C4207 1.409 . S
C4201 H4193 0.930 . S
C4201 C4199 1.419 . S
C4201 C4202 1.362 . S
C4202 H4194 0.930 . S
C4202 C4201 1.362 . S
C4202 C4205 1.409 1_554 S
C4203 H4195 0.930 . S
C4203 C4204 1.355 . S
C4203 C4205 1.415 . S
C4204 C4203 1.355 . S
C4204 C4206 1.419 . S
C4205 C4200 1.425 . S
C4205 C4202 1.409 1_556 S
C4205 C4203 1.415 . S
C4206 H4196 0.930 . S
C4206 C4204 1.419 . S
C4206 C4207 1.362 . S
C4207 H4197 0.930 . S
C4207 C4200 1.409 . S
C4207 C4206 1.362 . S
H4208 C4214 0.930 . S
H4209 C4217 0.930 . S
H4210 C4218 0.930 . S
H4211 C4219 0.930 . S
H4212 C4222 0.930 . S
H4213 C4223 0.930 . S
C4214 H4208 0.930 . S
C4214 C4215 1.355 . S
C4214 C4216 1.415 . S
C4215 C4214 1.355 . S
C4215 C4217 1.419 . S
C4216 C4214 1.415 . S
C4216 C4221 1.425 . S
C4216 C4223 1.409 . S
C4217 H4209 0.930 . S
C4217 C4215 1.419 . S
C4217 C4218 1.362 . S
C4218 H4210 0.930 . S
C4218 C4217 1.362 . S
C4218 C4221 1.409 . S
C4219 H4211 0.930 . S
C4219 C4220 1.355 . S
C4219 C4221 1.415 . S
C4220 C4219 1.355 . S
C4220 C4222 1.419 . S
C4221 C4216 1.425 . S
C4221 C4218 1.409 . S
C4221 C4219 1.415 . S
C4222 H4212 0.930 . S
C4222 C4220 1.419 . S
C4222 C4223 1.362 . S
C4223 H4213 0.930 . S
C4223 C4216 1.409 . S
C4223 C4222 1.362 . S
H4224 C4230 0.930 . S
H4225 C4233 0.930 . S
H4226 C4234 0.930 . S
H4227 C4235 0.930 . S
H4228 C4238 0.930 . S
H4229 C4239 0.930 . S
C4230 H4224 0.930 . S
C4230 C4231 1.355 . S
C4230 C4232 1.415 . S
C4231 C4230 1.355 . S
C4231 C4233 1.419 . S
C4232 C4230 1.415 . S
C4232 C4237 1.425 . S
C4232 C4239 1.409 . S
C4233 H4225 0.930 . S
C4233 C4231 1.419 . S
C4233 C4234 1.362 . S
C4234 H4226 0.930 . S
C4234 C4233 1.362 . S
C4234 C4237 1.409 . S
C4235 H4227 0.930 . S
C4235 C4236 1.355 . S
C4235 C4237 1.415 . S
C4236 C4235 1.355 . S
C4236 C4238 1.419 . S
C4237 C4232 1.425 . S
C4237 C4234 1.409 . S
C4237 C4235 1.415 . S
C4238 H4228 0.930 . S
C4238 C4236 1.419 . S
C4238 C4239 1.362 . S
C4239 H4229 0.930 . S
C4239 C4232 1.409 . S
C4239 C4238 1.362 . S
H4240 C4246 0.930 . S
H4241 C4249 0.930 . S
H4242 C4250 0.930 . S
H4243 C4251 0.930 . S
H4244 C4254 0.930 . S
H4245 C4255 0.930 . S
C4246 H4240 0.930 . S
C4246 C4247 1.355 . S
C4246 C4248 1.415 . S
C4247 C4246 1.355 . S
C4247 C4249 1.419 . S
C4248 C4246 1.415 . S
C4248 C4253 1.425 . S
C4248 C4255 1.409 . S
C4249 H4241 0.930 . S
C4249 C4247 1.419 . S
C4249 C4250 1.362 . S
C4250 H4242 0.930 . S
C4250 C4249 1.362 . S
C4250 C4253 1.409 . S
C4251 H4243 0.930 . S
C4251 C4252 1.355 . S
C4251 C4253 1.415 . S
C4252 C4251 1.355 . S
C4252 C4254 1.419 . S
C4253 C4248 1.425 . S
C4253 C4250 1.409 . S
C4253 C4251 1.415 . S
C4254 H4244 0.930 . S
C4254 C4252 1.419 . S
C4254 C4255 1.362 . S
C4255 H4245 0.930 . S
C4255 C4248 1.409 . S
C4255 C4254 1.362 . S
H4256 C4262 0.930 . S
H4257 C4265 0.930 . S
H4258 C4266 0.930 . S
H4259 C4267 0.930 . S
H4260 C4270 0.930 . S
H4261 C4271 0.930 . S
C4262 H4256 0.930 . S
C4262 C4263 1.355 . S
C4262 C4264 1.415 . S
C4263 C4262 1.355 . S
C4263 C4265 1.419 . S
C4264 C4262 1.415 . S
C4264 C4269 1.425 . S
C4264 C4271 1.409 . S
C4265 H4257 0.930 . S
C4265 C4263 1.419 . S
C4265 C4266 1.362 . S
C4266 H4258 0.930 . S
C4266 C4265 1.362 . S
C4266 C4269 1.409 . S
C4267 H4259 0.930 . S
C4267 C4268 1.355 . S
C4267 C4269 1.415 . S
C4268 C4267 1.355 . S
C4268 C4270 1.419 . S
C4269 C4264 1.425 . S
C4269 C4266 1.409 . S
C4269 C4267 1.415 . S
C4270 H4260 0.930 . S
C4270 C4268 1.419 . S
C4270 C4271 1.362 . S
C4271 H4261 0.930 . S
C4271 C4264 1.409 . S
C4271 C4270 1.362 . S
H4272 C4278 0.930 . S
H4273 C4281 0.930 . S
H4274 C4282 0.930 . S
H4275 C4283 0.930 . S
H4276 C4286 0.930 . S
H4277 C4287 0.930 1_554 S
C4278 H4272 0.930 . S
C4278 C4279 1.355 1_554 S
C4278 C4280 1.415 1_554 S
C4279 C4278 1.355 1_556 S
C4279 C4281 1.419 . S
C4280 C4278 1.415 1_556 S
C4280 C4285 1.425 . S
C4280 C4287 1.409 . S
C4281 H4273 0.930 . S
C4281 C4279 1.419 . S
C4281 C4282 1.362 . S
C4282 H4274 0.930 . S
C4282 C4281 1.362 . S
C4282 C4285 1.409 . S
C4283 H4275 0.930 . S
C4283 C4284 1.355 . S
C4283 C4285 1.415 . S
C4284 C4283 1.355 . S
C4284 C4286 1.419 . S
C4285 C4280 1.425 . S
C4285 C4282 1.409 . S
C4285 C4283 1.415 . S
C4286 H4276 0.930 . S
C4286 C4284 1.419 . S
C4286 C4287 1.362 . S
C4287 H4277 0.930 1_556 S
C4287 C4280 1.409 . S
C4287 C4286 1.362 . S
H4288 C4294 0.930 . S
H4289 C4297 0.930 . S
H4290 C4298 0.930 1_554 S
H4291 C4299 0.930 . S
H4292 C4302 0.930 . S
H4293 C4303 0.930 . S
C4294 H4288 0.930 . S
C4294 C4295 1.355 . S
C4294 C4296 1.415 . S
C4295 C4294 1.355 . S
C4295 C4297 1.419 . S
C4296 C4294 1.415 . S
C4296 C4301 1.425 . S
C4296 C4303 1.409 . S
C4297 H4289 0.930 . S
C4297 C4295 1.419 . S
C4297 C4298 1.362 . S
C4298 H4290 0.930 1_556 S
C4298 C4297 1.362 . S
C4298 C4301 1.409 . S
C4299 H4291 0.930 . S
C4299 C4300 1.355 1_554 S
C4299 C4301 1.415 1_554 S
C4300 C4299 1.355 1_556 S
C4300 C4302 1.419 . S
C4301 C4296 1.425 . S
C4301 C4298 1.409 . S
C4301 C4299 1.415 1_556 S
C4302 H4292 0.930 . S
C4302 C4300 1.419 . S
C4302 C4303 1.362 . S
C4303 H4293 0.930 . S
C4303 C4296 1.409 . S
C4303 C4302 1.362 . S
H4304 C4310 0.930 . S
H4305 C4313 0.930 . S
H4306 C4314 0.930 . S
H4307 C4315 0.930 . S
H4308 C4318 0.930 . S
H4309 C4319 0.926 1_554 S
C4310 H4304 0.930 . S
C4310 C4311 1.355 . S
C4310 C4312 1.415 . S
C4311 C4310 1.355 . S
C4311 C4313 1.419 . S
C4312 C4310 1.415 . S
C4312 C4317 1.425 . S
C4312 C4319 1.418 . S
C4313 H4305 0.930 . S
C4313 C4311 1.419 . S
C4313 C4314 1.362 . S
C4314 H4306 0.930 . S
C4314 C4313 1.362 . S
C4314 C4317 1.409 . S
C4315 H4307 0.930 . S
C4315 C4316 1.355 1_556 S
C4315 C4317 1.415 . S
C4316 C4315 1.355 1_554 S
C4316 C4318 1.419 . S
C4317 C4312 1.425 . S
C4317 C4314 1.409 . S
C4317 C4315 1.415 . S
C4318 H4308 0.930 . S
C4318 C4316 1.419 . S
C4318 C4319 1.357 1_554 S
C4319 H4309 0.926 1_556 S
C4319 C4312 1.418 . S
C4319 C4318 1.357 1_556 S
C1639 C15 0.679 . S
C1644 C770 0.610 . S
C1655 C566 0.799 . S
C1660 C49 0.833 . S
C1671 C90 0.743 . S
C1676 C797 0.853 . S
C1687 C124 0.593 . S
C1692 C736 0.726 . S
C1703 C158 0.605 . S
C1708 C634 0.689 . S
C1719 C661 0.795 . S
C1724 C192 0.836 . S
C1735 C702 0.634 . S
C1740 C219 0.646 . S
C1751 C593 0.675 . S
C1756 C253 0.613 . S
C1767 C294 0.677 . S
C1772 C457 0.611 . S
C1783 C328 0.600 . S
C1788 C498 0.782 . S
C1799 C362 0.658 . S
C1804 C525 0.838 . S
C1815 C423 0.851 . S
C1820 C396 0.751 . S
C1831 C831 0.678 . S
C1836 C1586 0.610 . S
C1847 C872 0.843 . S
C1852 C1382 0.779 . S
C1863 C899 0.593 . S
C1868 C1620 0.759 . S
C1879 C933 0.655 . S
C1884 C1545 0.626 . S
C1895 C1443 0.805 . S
C1900 C974 0.829 . S
C1911 C1477 0.612 . S
C1916 C1001 0.676 . S
C1927 C1518 0.772 . S
C1932 C1042 0.846 . S
C1943 C1076 0.851 . S
C1948 C1416 0.696 . S
C1959 C1273 0.828 . S
C1964 C1103 0.641 . S
C1975 C1137 0.603 . S
C1980 C1307 0.693 . S
C1991 C1348 0.847 . S
C1996 C1178 0.768 . S
C2007 C1212 0.853 . S
C2012 C1246 0.736 . S
C2023 C17 2.051 . S
C2028 C1552 2.018 1_554 S
C2039 C51 2.044 . S
C2044 C1579 2.027 1_554 S
C2055 C1375 2.039 1_554 S
C2060 C85 2.050 . S
C2071 C119 2.046 . S
C2076 C1613 2.013 1_554 S
C2087 C1484 2.014 . S
C2092 C153 2.047 . S
C2103 C187 2.043 . S
C2108 C1511 2.012 . S
C2119 C221 2.059 . S
C2124 C1409 2.044 . S
C2135 C255 2.051 . S
C2140 C1450 2.019 . S
C2151 C967 2.038 1_455 S
C2156 C289 2.049 . S
C2167 C1008 2.028 1_545 S
C2172 C323 2.044 . S
C2183 C357 2.058 . S
C2188 C1035 2.035 . S
C2199 C1069 2.035 . S
C2204 C391 2.047 . S
C2215 C425 2.058 . S
C2220 C838 2.045 1_455 S
C2231 C865 2.046 1_545 S
C2236 C459 2.057 . S
C2247 C493 2.044 . S
C2252 C906 2.012 . S
C2263 C940 2.030 . S
C2268 C527 2.045 . S
C2279 C1314 2.031 1_545 S
C2284 C561 2.056 . S
C2295 C595 2.058 . S
C2300 C1171 2.038 . S
C2311 C629 2.042 . S
C2316 C1205 2.016 1_455 S
C2327 C663 2.045 . S
C2332 C1110 2.012 1_545 S
C2343 C697 2.049 . S
C2348 C1144 2.016 . S
C2359 C1239 2.014 . S
C2364 C731 2.047 . S
C2375 C765 2.050 . S
C2380 C1280 2.017 1_455 S
C2391 C1341 2.014 . S
C2396 C799 2.042 . S
C2407 C729 2.029 1_556 S
C2412 C833 2.056 . S
C2423 C763 2.017 1_556 S
C2428 C867 2.042 . S
C2439 C559 2.019 1_556 S
C2444 C901 2.051 . S
C2455 C935 2.046 . S
C2460 C804 2.031 1_556 S
C2471 C969 2.042 . S
C2476 C668 2.014 . S
C2487 C695 2.035 . S
C2492 C1003 2.058 . S
C2503 C1037 2.058 . S
C2508 C600 2.037 . S
C2519 C627 2.039 . S
C2524 C1071 2.059 . S
C2535 C1105 2.059 . S
C2540 C151 2.042 1_655 S
C2551 C185 2.046 1_565 S
C2556 C1139 2.057 . S
C2567 C1173 2.059 . S
C2572 C226 2.039 . S
C2583 C1207 2.058 . S
C2588 C260 2.045 . S
C2599 C22 2.017 1_655 S
C2604 C1241 2.042 . S
C2615 C1275 2.052 . S
C2620 C56 2.042 1_565 S
C2631 C83 2.013 . S
C2636 C1309 2.046 . S
C2647 C1343 2.052 . S
C2652 C117 2.021 . S
C2663 C1377 2.044 . S
C2668 C491 2.012 1_565 S
C2679 C355 2.039 . S
C2684 C1411 2.050 . S
C2695 C1445 2.056 . S
C2700 C389 2.046 1_655 S
C2711 C287 2.025 1_565 S
C2716 C1479 2.054 . S
C2727 C1513 2.055 . S
C2732 C321 2.028 . S
C2743 C430 2.035 . S
C2748 C1547 2.058 . S
C2759 C464 2.016 1_655 S
C2764 C1581 2.042 . S
C2775 C532 2.036 . S
C2780 C1615 2.058 . S
C2791 C28 1.616 . S
C2796 C785 1.742 . S
C2807 C715 1.741 . S
C2812 C62 1.616 . S
C2823 C749 1.772 . S
C2828 C74 1.655 . S
C2839 C545 1.695 . S
C2844 C108 1.660 . S
C2855 C142 1.713 . S
C2860 C681 1.719 . S
C2871 C176 1.642 . S
C2876 C581 1.703 . S
C2887 C232 1.713 . S
C2892 C613 1.718 . S
C2903 C649 1.707 . S
C2908 C266 1.709 . S
C2919 C375 1.705 . S
C2924 C278 1.707 . S
C2935 C273 1.768 . S
C2940 C312 1.675 . S
C2951 C346 1.708 . S
C2956 C307 1.706 . S
C2967 C341 1.740 . S
C2972 C380 1.709 . S
C2983 C436 1.701 . S
C2988 C445 1.699 . S
C2999 C470 1.697 . S
C3004 C477 1.755 . S
C3015 C482 1.710 . S
C3020 C513 1.708 . S
C3031 C538 1.713 . S
C3036 C411 1.719 . S
C3047 C550 1.634 . S
C3052 C171 1.768 . S
C3063 C103 1.715 . S
C3068 C606 1.627 . S
C3079 C3 1.765 . S
C3084 C618 1.630 . S
C3095 C674 1.653 . S
C3100 C37 1.698 . S
C3111 C69 1.695 . S
C3116 C686 1.660 . S
C3127 C241 1.744 . S
C3132 C720 1.616 . S
C3143 C754 1.689 . S
C3148 C137 1.694 . S
C3159 C207 1.693 . S
C3164 C810 1.666 . S
C3175 C844 1.704 . S
C3180 C1599 1.701 . S
C3191 C856 1.632 . S
C3196 C1533 1.711 . S
C3207 C1565 1.769 . S
C3212 C912 1.639 . S
C3223 C1361 1.739 . S
C3228 C946 1.616 . S
C3239 C958 1.709 . S
C3244 C1497 1.740 . S
C3255 C1395 1.697 . S
C3260 C1014 1.698 . S
C3271 C1026 1.646 . S
C3276 C1431 1.700 . S
C3287 C1465 1.771 . S
C3292 C1060 1.656 . S
C3303 C1116 1.683 . S
C3308 C1191 1.693 . S
C3319 C1091 1.750 . S
C3324 C1150 1.702 . S
C3335 C1162 1.696 . S
C3340 C1125 1.696 . S
C3351 C1157 1.732 . S
C3356 C1196 1.618 . S
C3367 C1230 1.689 . S
C3372 C1261 1.694 . S
C3383 C1295 1.754 . S
C3388 C1286 1.619 . S
C3399 C1327 1.771 . S
C3404 C1320 1.646 . S
C3415 C1225 1.771 . S
C3420 C1332 1.645 . S
C3431 C989 1.732 . S
C3436 C1366 1.618 . S
C3447 C921 1.746 . S
C3452 C1400 1.616 . S
C3463 C819 1.771 . S
C3468 C1456 1.663 . S
C3479 C851 1.716 . S
C3484 C1490 1.713 . S
C3495 C887 1.692 . S
C3500 C1502 1.675 . S
C3511 C1558 1.708 . S
C3516 C1055 1.706 . S
C3527 C1570 1.711 . S
C3532 C953 1.710 . S
C3543 C1021 1.731 . S
C3548 C1604 1.713 . S
C3559 C1218 1.252 . S
C3564 C1 1.178 . S
C3575 C1094 1.305 1_545 S
C3580 C35 1.274 . S
C3591 C1128 1.268 . S
C3596 C71 1.201 . S
C3607 C105 1.176 . S
C3612 C1184 1.245 . S
C3623 C139 1.179 . S
C3628 C1264 1.246 . S
C3639 C173 1.178 . S
C3644 C1298 1.245 . S
C3655 C205 1.177 . S
C3660 C1354 1.245 . S
C3671 C1252 1.308 . S
C3676 C239 1.265 . S
C3687 C992 1.280 . S
C3692 C275 1.225 . S
C3703 C309 1.207 . S
C3708 C1048 1.273 . S
C3719 C1082 1.274 . S
C3724 C343 1.210 . S
C3735 C377 1.197 . S
C3740 C980 1.254 . S
C3751 C409 1.186 . S
C3756 C924 1.249 . S
C3767 C443 1.199 . S
C3772 C822 1.267 . S
C3783 C878 1.265 . S
C3788 C479 1.196 . S
C3799 C890 1.279 . S
C3804 C511 1.238 . S
C3815 C547 1.192 . S
C3820 C1626 1.262 . S
C3831 C1524 1.314 . S
C3836 C579 1.283 . S
C3847 C615 1.258 . S
C3852 C1422 1.292 . S
C3863 C1434 1.294 . S
C3868 C647 1.242 . S
C3879 C1468 1.245 . S
C3884 C683 1.173 . S
C3895 C717 1.189 . S
C3900 C1592 1.260 . S
C3911 C1388 1.314 1_554 S
C3916 C751 1.283 . S
C3927 C783 1.282 . S
C3932 C1536 1.312 1_554 S
C3943 C402 1.298 1_655 S
C3948 C817 1.244 . S
C3959 C853 1.271 . S
C3964 C300 1.302 1_565 S
C3975 C885 1.283 . S
C3980 C334 1.314 . S
C3991 C368 1.292 . S
C3996 C919 1.237 . S
C4007 C955 1.256 . S
C4012 C448 1.286 1_655 S
C4023 C504 1.259 . S
C4028 C987 1.205 . S
C4039 C516 1.314 . S
C4044 C1023 1.281 . S
C4055 C414 1.309 . S
C4060 C1057 1.268 . S
C4071 C1089 1.176 . S
C4076 C198 1.245 . S
C4087 C210 1.247 . S
C4092 C1123 1.174 . S
C4103 C244 1.265 . S
C4108 C1159 1.196 . S
C4119 C164 1.245 . S
C4124 C1193 1.173 . S
C4135 C130 1.313 . S
C4140 C1227 1.283 . S
C4151 C6 1.311 . S
C4156 C1259 1.220 . S
C4167 C40 1.247 . S
C4172 C1293 1.174 . S
C4183 C1329 1.179 . S
C4188 C96 1.246 . S
C4199 C788 1.251 . S
C4204 C1363 1.178 . S
C4215 C1397 1.227 . S
C4220 C708 1.272 . S
C4231 C1429 1.173 . S
C4236 C584 1.245 . S
C4247 C1463 1.178 . S
C4252 C640 1.245 . S
C4263 C1499 1.258 . S
C4268 C652 1.293 . S
C4279 C776 1.315 1_556 S
C4284 C1531 1.282 . S
C4295 C1567 1.264 . S
C4300 C572 1.297 1_556 S
C4311 C1601 1.213 . S
C4316 C742 1.277 . S
