# Generated by pormake.
# Topology sol, (6)-cn, num edge types: 1
# Building blocks:
#     Node 0, Type 0, BuildingBlock: IZENUY_clean_sbu_0, # of connection points: 6
#     Node 1, Type 0, BuildingBlock: IZENUY_clean_sbu_0, # of connection points: 6
#     Node 2, Type 0, BuildingBlock: IZENUY_clean_sbu_0, # of connection points: 6
#     Node 3, Type 0, BuildingBlock: IZENUY_clean_sbu_0, # of connection points: 6
#     Node 4, Type 0, BuildingBlock: IZENUY_clean_sbu_0, # of connection points: 6
#     Node 5, Type 0, BuildingBlock: IZENUY_clean_sbu_0, # of connection points: 6
#     Node 6, Type 0, BuildingBlock: IZENUY_clean_sbu_0, # of connection points: 6
#     Node 7, Type 0, BuildingBlock: IZENUY_clean_sbu_0, # of connection points: 6
#     Edge 8, Type (0, 0), BuildingBlock: MIFKUJ_clean_linker_0, # of connection points: 2
#     Edge 9, Type (0, 0), BuildingBlock: MIFKUJ_clean_linker_0, # of connection points: 2
#     Edge 10, Type (0, 0), BuildingBlock: MIFKUJ_clean_linker_0, # of connection points: 2
#     Edge 11, Type (0, 0), BuildingBlock: MIFKUJ_clean_linker_0, # of connection points: 2
#     Edge 12, Type (0, 0), BuildingBlock: MIFKUJ_clean_linker_0, # of connection points: 2
#     Edge 13, Type (0, 0), BuildingBlock: MIFKUJ_clean_linker_0, # of connection points: 2
#     Edge 14, Type (0, 0), BuildingBlock: MIFKUJ_clean_linker_0, # of connection points: 2
#     Edge 15, Type (0, 0), BuildingBlock: MIFKUJ_clean_linker_0, # of connection points: 2
#     Edge 16, Type (0, 0), BuildingBlock: MIFKUJ_clean_linker_0, # of connection points: 2
#     Edge 17, Type (0, 0), BuildingBlock: MIFKUJ_clean_linker_0, # of connection points: 2
#     Edge 18, Type (0, 0), BuildingBlock: MIFKUJ_clean_linker_0, # of connection points: 2
#     Edge 19, Type (0, 0), BuildingBlock: MIFKUJ_clean_linker_0, # of connection points: 2
#     Edge 20, Type (0, 0), BuildingBlock: MIFKUJ_clean_linker_0, # of connection points: 2
#     Edge 21, Type (0, 0), BuildingBlock: MIFKUJ_clean_linker_0, # of connection points: 2
#     Edge 22, Type (0, 0), BuildingBlock: MIFKUJ_clean_linker_0, # of connection points: 2
#     Edge 23, Type (0, 0), BuildingBlock: MIFKUJ_clean_linker_0, # of connection points: 2
#     Edge 24, Type (0, 0), BuildingBlock: MIFKUJ_clean_linker_0, # of connection points: 2
#     Edge 25, Type (0, 0), BuildingBlock: MIFKUJ_clean_linker_0, # of connection points: 2
#     Edge 26, Type (0, 0), BuildingBlock: MIFKUJ_clean_linker_0, # of connection points: 2
#     Edge 27, Type (0, 0), BuildingBlock: MIFKUJ_clean_linker_0, # of connection points: 2
#     Edge 28, Type (0, 0), BuildingBlock: MIFKUJ_clean_linker_0, # of connection points: 2
#     Edge 29, Type (0, 0), BuildingBlock: MIFKUJ_clean_linker_0, # of connection points: 2
#     Edge 30, Type (0, 0), BuildingBlock: MIFKUJ_clean_linker_0, # of connection points: 2
#     Edge 31, Type (0, 0), BuildingBlock: MIFKUJ_clean_linker_0, # of connection points: 2
# Relax obj value: 0.163
# Max RMSD: 0.160
# Mean RMSD: 0.159
data_MOF--net-sol--node1-IZENUY_clean_sbu_0--edge1-MIFKUJ_clean_linker_0
_symmetry_space_group_name_H-M    P1
_symmetry_Int_Tables_number       1
_symmetry_cell_setting            triclinic
loop_
_symmetry_equiv_pos_as_xyz
'x, y, z'
_cell_length_a     45.919302
_cell_length_b     34.571931
_cell_length_c     36.296242
_cell_angle_alpha  89.962176
_cell_angle_beta   89.933616
_cell_angle_gamma 89.94555
loop_
_atom_site_label
_atom_site_type_symbol
_atom_site_fract_x
_atom_site_fract_y
_atom_site_fract_z
_atom_type_partial_charge
Fe0 Fe 0.15802 0.15788 0.1204 0.0
Fe1 Fe 0.20346 0.20043 0.07368 0.0
O2 O 0.16669 0.18849 0.08284 0.0
Fe3 Fe 0.13833 0.20796 0.05513 0.0
O4 O 0.11131 0.2105 0.09297 0.0
O5 O 0.13703 0.19574 0.14195 0.0
O6 O 0.18855 0.17322 0.14982 0.0
C7 C 0.204 0.20354 0.14938 0.0
C8 C 0.11778 0.13481 0.06454 0.0
O9 O 0.20854 0.22114 0.11945 0.0
C10 C 0.1841 0.1934 1.00293 0.0
O11 O 0.17901 0.11844 0.10151 0.0
O12 O 0.21779 0.15336 0.08812 0.0
O13 O 0.12609 0.16011 0.04173 0.0
O14 O 0.12568 0.13654 0.09805 0.0
C15 C 0.17354 0.27092 0.0631 0.0
O16 O 0.2014 0.1811 0.02726 0.0
O17 O 0.1603 0.20955 1.01222 0.0
C18 C 0.20559 0.12096 0.09315 0.0
O19 O 0.1954 0.24938 0.05764 0.0
O20 O 0.14844 0.25689 0.06713 0.0
C21 C 0.11562 0.2125 0.12743 0.0
Fe22 Fe 0.35766 0.3301 0.61865 0.0
Fe23 Fe 0.31462 0.28194 0.5736 0.0
O24 O 0.35071 0.29754 0.5821 0.0
Fe25 Fe 0.38003 0.28051 0.55464 0.0
O26 O 0.40677 0.2811 0.59277 0.0
O27 O 0.38031 0.29479 0.64166 0.0
O28 O 0.32758 0.31354 0.6483 0.0
C29 C 0.31421 0.28155 0.64927 0.0
C30 C 0.39747 0.35499 0.56306 0.0
O31 O 0.31075 0.26229 0.62006 0.0
C32 C 0.33358 0.28962 0.50242 0.0
O33 O 0.33514 0.36683 0.59743 0.0
O34 O 0.298 0.32816 0.58665 0.0
O35 O 0.38976 0.32931 0.54038 0.0
O36 O 0.3894 0.35301 0.59644 0.0
C37 C 0.34844 0.21432 0.56323 0.0
O38 O 0.3155 0.29998 0.52669 0.0
O39 O 0.35834 0.27631 0.5117 0.0
C40 C 0.30887 0.36179 0.58837 0.0
O41 O 0.32519 0.23337 0.55866 0.0
O42 O 0.37263 0.23086 0.56729 0.0
C43 C 0.40255 0.27963 0.62732 0.0
Fe44 Fe 0.66324 0.3406 0.91569 0.0
Fe45 Fe 0.70472 0.28196 0.9509 0.0
O46 O 0.66966 0.3031 0.94806 0.0
Fe47 Fe 0.64137 0.28583 0.97719 0.0
O48 O 0.61869 0.27294 0.93777 0.0
O49 O 0.62595 0.3261 0.90559 0.0
O50 O 0.67475 0.31035 0.87678 0.0
C51 C 0.69922 0.29381 0.87454 0.0
C52 C 0.63055 0.3672 0.97399 0.0
O53 O 0.71473 0.28991 0.90288 0.0
C54 C 0.68739 0.28406 0.02537 0.0
O55 O 0.69965 0.36161 0.92073 0.0
O56 O 0.72081 0.32753 0.96457 0.0
O57 O 0.62325 0.33285 0.98184 0.0
O58 O 0.65078 0.37396 0.95122 0.0
C59 C 0.67035 0.21793 0.95417 0.0
O60 O 0.70213 0.26949 0.99953 0.0
O61 O 0.66214 0.29726 0.01908 0.0
C62 C 0.7189 0.35803 0.94556 0.0
O63 O 0.69033 0.23553 0.93715 0.0
O64 O 0.65428 0.23554 0.97709 0.0
C65 C 0.61205 0.29515 0.91138 0.0
Fe66 Fe 0.85921 0.14888 0.41503 0.0
Fe67 Fe 0.81626 0.20532 0.45054 0.0
O68 O 0.85191 0.18605 0.44738 0.0
Fe69 Fe 0.8798 0.20514 0.47599 0.0
O70 O 0.90164 0.21913 0.43623 0.0
O71 O 0.89562 0.16602 0.40356 0.0
O72 O 0.84615 0.17818 0.37629 0.0
C73 C 0.82105 0.19288 0.3743 0.0
C74 C 0.89365 0.12447 0.4727 0.0
O75 O 0.80575 0.19592 0.40293 0.0
C76 C 0.83439 0.20615 0.5249 0.0
O77 O 0.82367 0.1256 0.42147 0.0
O78 O 0.80186 0.15919 0.46527 0.0
O79 O 0.89954 0.15927 0.48064 0.0
O80 O 0.87348 0.11644 0.45029 0.0
C81 C 0.8488 0.27099 0.45215 0.0
O82 O 0.81901 0.21892 0.49883 0.0
O83 O 0.85967 0.19307 0.51838 0.0
C84 C 0.80454 0.12855 0.44663 0.0
O85 O 0.82917 0.25217 0.43571 0.0
O86 O 0.86528 0.25463 0.47544 0.0
C87 C 0.90788 0.19827 0.40877 0.0
Fe88 Fe 0.8091 0.78752 0.9574 0.0
Fe89 Fe 0.85121 0.84309 0.91896 0.0
O90 O 0.84476 0.80602 0.9517 0.0
Fe91 Fe 0.8738 0.7865 0.97826 0.0
O92 O 0.85859 0.73741 0.98038 0.0
O93 O 0.82086 0.73987 0.9433 0.0
O94 O 0.79736 0.79547 0.90987 0.0
C95 C 0.81185 0.79904 0.88052 0.0
C96 C 0.83062 0.78956 0.03025 0.0
O97 O 0.8369 0.81389 0.88124 0.0
C98 C 0.88778 0.86684 0.97419 0.0
O99 O 0.79529 0.83415 0.97154 0.0
O100 O 0.81599 0.86688 0.92651 0.0
O101 O 0.85611 0.80013 0.02158 0.0
O102 O 0.81364 0.776 1.00613 0.0
C103 C 0.89876 0.79253 0.90945 0.0
O104 O 0.86653 0.87524 0.95357 0.0
O105 O 0.89441 0.83189 0.98059 0.0
C106 C 0.79728 0.86429 0.95213 0.0
O107 O 0.88719 0.82551 0.90595 0.0
O108 O 0.89322 0.77127 0.93691 0.0
C109 C 0.84059 0.72083 0.95924 0.0
Fe110 Fe 0.70899 0.7012 0.45737 0.0
Fe111 Fe 0.66551 0.64775 0.41882 0.0
O112 O 0.67295 0.68413 0.45181 0.0
Fe113 Fe 0.64451 0.70454 0.47886 0.0
O114 O 0.66103 0.7527 0.48163 0.0
O115 O 0.69812 0.74938 0.44355 0.0
O116 O 0.72066 0.69307 0.40984 0.0
C117 C 0.70617 0.69015 0.38052 0.0
C118 C 0.68764 0.69932 0.53042 0.0
O119 O 0.68072 0.67653 0.38124 0.0
C120 C 0.6277 0.6253 0.47322 0.0
O121 O 0.72179 0.65398 0.47114 0.0
O122 O 0.70002 0.62217 0.42634 0.0
O123 O 0.66199 0.68931 0.52189 0.0
O124 O 0.7047 0.71254 0.50613 0.0
C125 C 0.61952 0.70109 0.41014 0.0
O126 O 0.64913 0.61592 0.45326 0.0
O127 O 0.62244 0.66046 0.48027 0.0
C128 C 0.71903 0.62404 0.45164 0.0
O129 O 0.63017 0.66764 0.40578 0.0
O130 O 0.62551 0.72144 0.43799 0.0
C131 C 0.67882 0.76887 0.4599 0.0
Fe132 Fe 0.35893 0.65227 0.12177 0.0
Fe133 Fe 0.3831 0.70605 0.06189 0.0
O134 O 0.35331 0.68845 0.08819 0.0
Fe135 Fe 0.31787 0.70734 0.08164 0.0
O136 O 0.31557 0.72379 0.1292 0.0
O137 O 0.32957 0.66856 0.15288 0.0
O138 O 0.38292 0.68357 0.14717 0.0
C139 C 0.40547 0.69925 0.13422 0.0
C140 C 0.30846 0.62713 0.09164 0.0
O141 O 0.40984 0.70085 0.09968 0.0
C142 C 0.336 0.70298 1.01012 0.0
O143 O 0.38958 0.62904 0.09747 0.0
O144 O 0.39142 0.65829 0.04385 0.0
O145 O 0.2993 0.6617 0.09228 0.0
O146 O 0.33485 0.61945 0.09801 0.0
C147 C 0.35382 0.77287 0.07672 0.0
O148 O 0.36116 0.71478 0.01967 0.0
O149 O 0.31772 0.69242 0.03402 0.0
C150 C 0.39791 0.62991 0.06415 0.0
O151 O 0.37744 0.75472 0.07859 0.0
O152 O 0.3301 0.75607 0.06962 0.0
C153 C 0.31765 0.70142 0.15651 0.0
Fe154 Fe 0.13926 0.7823 0.56239 0.0
Fe155 Fe 0.20436 0.78111 0.58303 0.0
O156 O 0.16891 0.80012 0.589 0.0
Fe157 Fe 0.16303 0.83681 0.62221 0.0
O158 O 0.13861 0.80578 0.64758 0.0
O159 O 0.11218 0.78846 0.59972 0.0
O160 O 0.14433 0.73362 0.57949 0.0
C161 C 0.1681 0.71559 0.57987 0.0
C162 C 0.12485 0.85862 0.56358 0.0
O163 O 0.19199 0.73217 0.5729 0.0
C164 C 0.21368 0.86149 0.59122 0.0
O165 O 0.16143 0.77237 0.52053 0.0
O166 O 0.20484 0.79441 0.53492 0.0
O167 O 0.13277 0.85989 0.59704 0.0
O168 O 0.13144 0.82995 0.5437 0.0
C169 C 0.20447 0.78849 0.65792 0.0
O170 O 0.22285 0.82696 0.59226 0.0
O171 O 0.18746 0.86944 0.59849 0.0
C172 C 0.18686 0.78312 0.51106 0.0
O173 O 0.20674 0.76604 0.63079 0.0
O174 O 0.192 0.82097 0.65421 0.0
C175 C 0.11611 0.79035 0.6343 0.0
H176 H 0.12485 0.25498 0.18885 0.0
H177 H 0.0894 0.27061 0.23692 0.0
H178 H 0.02124 0.21895 0.17163 0.0
H179 H 0.05654 0.20516 0.12259 0.0
H180 H 0.99935 0.2765 0.2111 0.0
H181 H 0.0613 0.16626 0.23643 0.0
H182 H 0.10865 0.13355 0.24442 0.0
H183 H 0.12989 0.21064 0.33311 0.0
H184 H 0.08279 0.24415 0.32528 0.0
H185 H 0.91025 0.17802 0.33691 0.0
H186 H 0.94575 0.19772 0.2907 0.0
H187 H 0.99018 0.26732 0.37155 0.0
H188 H 0.95405 0.24809 0.41836 0.0
H189 H 0.02612 0.21359 0.32934 0.0
H190 H 0.95765 0.31499 0.30986 0.0
H191 H 0.90875 0.34307 0.30145 0.0
H192 H 0.89779 0.27785 0.2018 0.0
H193 H 0.9465 0.24891 0.20987 0.0
C194 C 0.10212 0.24798 0.18441 0.0
C195 C 0.09336 0.22857 0.15231 0.0
C196 C 0.08192 0.25673 0.21192 0.0
C197 C 0.05281 0.24491 0.2084 0.0
C198 C 0.04361 0.22817 0.17508 0.0
C199 C 0.06375 0.22027 0.14707 0.0
C200 C 0.03287 0.24589 0.24069 0.0
C201 C 1.00519 0.26276 0.23693 0.0
C202 C 0.04066 0.22859 0.27476 0.0
C203 C 0.0687 0.20797 0.28 0.0
C204 C 0.07614 0.17633 0.25752 0.0
C205 C 0.10292 0.15766 0.26201 0.0
C206 C 0.12231 0.17009 0.28917 0.0
C207 C 0.11488 0.2011 0.31202 0.0
C208 C 0.08815 0.21994 0.30758 0.0
C209 C 0.92753 0.19758 0.34498 0.0
C210 C 0.92954 0.21128 0.38135 0.0
C211 C 0.94764 0.20905 0.31842 0.0
C212 C 0.97038 0.2342 0.32767 0.0
C213 C 0.97259 0.24807 0.36393 0.0
C214 C 0.95203 0.23709 0.39055 0.0
C215 C 0.99255 0.24361 0.29947 0.0
C216 C 0.02059 0.22834 0.30388 0.0
C217 C 0.9849 0.26186 0.26594 0.0
C218 C 0.95573 0.27962 0.26059 0.0
C219 C 0.94476 0.30643 0.28626 0.0
C220 C 0.91707 0.32255 0.28153 0.0
C221 C 0.90016 0.31222 0.25113 0.0
C222 C 0.91093 0.28584 0.22533 0.0
C223 C 0.93861 0.26962 0.22993 0.0
H224 H 0.87871 0.32469 0.24754 0.0
H225 H 0.14306 0.15565 0.29257 0.0
H226 H 0.40316 0.22076 0.67678 0.0
H227 H 0.43977 0.209 0.7247 0.0
H228 H 0.49006 0.30557 0.68387 0.0
H229 H 0.45457 0.31517 0.63447 0.0
H230 H 0.5257 0.25612 0.70719 0.0
H231 H 0.43715 0.31 0.75886 0.0
H232 H 0.38437 0.31054 0.77179 0.0
H233 H 0.39221 0.20283 0.82994 0.0
H234 H 0.44499 0.2014 0.81689 0.0
H235 H 0.58723 0.34292 0.86086 0.0
H236 H 0.55123 0.32691 0.81435 0.0
H237 H 0.54468 0.21112 0.85764 0.0
H238 H 0.58143 0.22677 0.90472 0.0
H239 H 0.48813 0.25588 0.8355 0.0
H240 H 0.5816 0.21245 0.78968 0.0
H241 H 0.63416 0.22101 0.77819 0.0
H242 H 0.61623 0.31974 0.71006 0.0
H243 H 0.5636 0.31223 0.72169 0.0
C244 C 0.42252 0.23864 0.67764 0.0
C245 C 0.42636 0.26865 0.6521 0.0
C246 C 0.44324 0.23227 0.70521 0.0
C247 C 0.46737 0.25705 0.70868 0.0
C248 C 0.47171 0.286 0.68195 0.0
C249 C 0.45148 0.29154 0.65371 0.0
C250 C 0.48715 0.25481 0.74116 0.0
C251 C 0.51737 0.25599 0.73517 0.0
C252 C 0.47649 0.25405 0.77793 0.0
C253 C 0.44492 0.25538 0.78656 0.0
C254 C 0.42758 0.28637 0.77429 0.0
C255 C 0.39768 0.28683 0.78162 0.0
C256 C 0.38493 0.25668 0.80158 0.0
C257 C 0.4021 0.22612 0.81442 0.0
C258 C 0.43201 0.22547 0.80707 0.0
C259 C 0.57812 0.31403 0.86088 0.0
C260 C 0.58756 0.28592 0.8863 0.0
C261 C 0.55745 0.30502 0.83424 0.0
C262 C 0.54563 0.26778 0.83237 0.0
C263 C 0.5537 0.24004 0.85873 0.0
C264 C 0.57465 0.24901 0.88552 0.0
C265 C 0.52629 0.25805 0.80117 0.0
C266 C 0.49628 0.25488 0.80744 0.0
C267 C 0.53703 0.25799 0.76464 0.0
C268 C 0.56864 0.26184 0.75669 0.0
C269 C 0.58887 0.23611 0.7724 0.0
C270 C 0.61868 0.24077 0.76587 0.0
C271 C 0.62852 0.27091 0.74343 0.0
C272 C 0.60857 0.29639 0.72741 0.0
C273 C 0.57875 0.29191 0.73393 0.0
H274 H 0.65159 0.27447 0.73838 0.0
H275 H 0.36177 0.25704 0.80714 0.0
H276 H 0.94524 0.74262 0.91633 0.0
H277 H 0.98211 0.7281 0.86899 0.0
H278 H 0.93587 0.79992 0.79135 0.0
H279 H 0.89944 0.81464 0.8381 0.0
H280 H 0.9573 0.7317 0.75973 0.0
H281 H 0.98958 0.83809 0.83758 0.0
H282 H 1.00255 0.8676 0.8972 0.0
H283 H 0.06858 0.78125 0.91355 0.0
H284 H 0.05567 0.7509 0.85422 0.0
H285 H 0.0575 0.80104 0.62697 0.0
H286 H 0.02016 0.78886 0.67369 0.0
H287 H 0.08541 0.73956 0.74549 0.0
H288 H 0.12291 0.75418 0.69974 0.0
H289 H 0.05566 0.78544 0.78308 0.0
H290 H 0.02836 0.68412 0.70031 0.0
H291 H 0.01558 0.65535 0.64031 0.0
H292 H 0.941 0.72993 0.63267 0.0
H293 H 0.95349 0.75942 0.69245 0.0
C294 C 0.94285 0.75483 0.88901 0.0
C295 C 0.9198 0.78023 0.88101 0.0
C296 C 0.96384 0.74655 0.86207 0.0
C297 C 0.96171 0.76314 0.82678 0.0
C298 C 0.93786 0.78679 0.81835 0.0
C299 C 0.91724 0.79545 0.84523 0.0
C300 C 0.98536 0.75908 0.79934 0.0
C301 C 0.97889 0.74326 0.76471 0.0
C302 C 0.01358 0.7736 0.80621 0.0
C303 C 0.02142 0.79196 0.84174 0.0
C304 C 1.00669 0.82522 0.85405 0.0
C305 C 0.01406 0.84213 0.88775 0.0
C306 C 0.03631 0.82624 0.90921 0.0
C307 C 0.0513 0.79347 0.89695 0.0
C308 C 0.04397 0.77641 0.86329 0.0
C309 C 0.06366 0.78706 0.65253 0.0
C310 C 0.09295 0.77855 0.65994 0.0
C311 C 0.04232 0.77985 0.67918 0.0
C312 C 0.0498 0.76273 0.7131 0.0
C313 C 0.07902 0.75286 0.71969 0.0
C314 C 0.10041 0.76109 0.69354 0.0
C315 C 0.02779 0.75814 0.7429 0.0
C316 C 0.03445 0.77271 0.77805 0.0
C317 C 0.99982 0.74222 0.73647 0.0
C318 C 0.99195 0.72409 0.70079 0.0
C319 C 1.00929 0.69448 0.68577 0.0
C320 C 1.00209 0.67803 0.6518 0.0
C321 C 0.97751 0.69083 0.63267 0.0
C322 C 0.96002 0.72002 0.64753 0.0
C323 C 0.96711 0.73655 0.68149 0.0
H324 H 0.972 0.6781 0.60635 0.0
H325 H 0.042 0.83938 0.93528 0.0
H326 H 0.62451 0.69377 0.33656 0.0
H327 H 0.58806 0.70945 0.2898 0.0
H328 H 0.53095 0.75384 0.37423 0.0
H329 H 0.56801 0.73929 0.42128 0.0
H330 H 0.50997 0.68899 0.3268 0.0
H331 H 0.55073 0.81577 0.3199 0.0
H332 H 0.58924 0.86487 0.31356 0.0
H333 H 0.61068 0.82113 0.2062 0.0
H334 H 0.57265 0.77123 0.21218 0.0
H335 H 0.39698 0.72407 0.20403 0.0
H336 H 0.43383 0.73788 0.25048 0.0
H337 H 0.50165 0.71617 0.17071 0.0
H338 H 0.4646 0.70312 0.12354 0.0
H339 H 0.51591 0.77589 0.21812 0.0
H340 H 0.48219 0.64546 0.22643 0.0
H341 H 0.44564 0.59343 0.23028 0.0
H342 H 0.41437 0.63953 0.33282 0.0
H343 H 0.45055 0.69217 0.32932 0.0
C344 C 0.6044 0.7076 0.34501 0.0
C345 C 0.59883 0.71514 0.38237 0.0
C346 C 0.58374 0.71674 0.31833 0.0
C347 C 0.55698 0.73289 0.32867 0.0
C348 C 0.55167 0.74165 0.36586 0.0
C349 C 0.57273 0.73338 0.39258 0.0
C350 C 0.53351 0.73558 0.3011 0.0
C351 C 0.51082 0.70866 0.30351 0.0
C352 C 0.53556 0.76009 0.27001 0.0
C353 C 0.55894 0.78952 0.26663 0.0
C354 C 0.56389 0.81627 0.29513 0.0
C355 C 0.58561 0.84433 0.29156 0.0
C356 C 0.6024 0.84613 0.2595 0.0
C357 C 0.59765 0.81971 0.23103 0.0
C358 C 0.576 0.79154 0.23448 0.0
C359 C 0.41975 0.72271 0.19623 0.0
C360 C 0.42801 0.71199 0.16038 0.0
C361 C 0.44075 0.73067 0.22276 0.0
C362 C 0.47042 0.72737 0.21417 0.0
C363 C 0.47882 0.71884 0.17784 0.0
C364 C 0.4577 0.7113 0.151 0.0
C365 C 0.49231 0.72941 0.24399 0.0
C366 C 0.5148 0.75675 0.24177 0.0
C367 C 0.49053 0.70472 0.27504 0.0
C368 C 0.46886 0.67298 0.27741 0.0
C369 C 0.46738 0.64466 0.24967 0.0
C370 C 0.44676 0.61504 0.2518 0.0
C371 C 0.42763 0.61324 0.28173 0.0
C372 C 0.42917 0.641 0.30963 0.0
C373 C 0.44975 0.67072 0.3076 0.0
H374 H 0.41167 0.59029 0.28334 0.0
H375 H 0.61899 0.86813 0.25662 0.0
H376 H 0.10027 0.07001 0.10189 0.0
H377 H 0.06079 0.02557 0.0859 0.0
H378 H 0.04383 0.09099 0.98707 0.0
H379 H 0.08347 0.13541 1.00263 0.0
H380 H 0.99314 0.07421 0.02854 0.0
H381 H 0.07627 0.00734 0.97887 0.0
H382 H 0.12529 0.97827 0.98093 0.0
H383 H 0.09732 0.90008 0.06581 0.0
H384 H 0.04821 0.92908 0.06464 0.0
H385 H 0.89556 0.9394 0.94498 0.0
H386 H 0.93381 0.98589 0.96018 0.0
H387 H 0.96436 0.91038 0.04666 0.0
H388 H 0.92692 0.86324 0.03057 0.0
H389 H 1.00856 0.93352 1.01027 0.0
H390 H 0.9265 -0.00063 0.0624 0.0
H391 H 0.8774 0.02834 0.06322 0.0
H392 H 0.9027 0.10813 0.97833 0.0
H393 H 0.95184 0.07927 0.97665 0.0
C394 C 0.08831 0.07482 0.07659 0.0
C395 C 0.09513 0.1063 0.05354 0.0
C396 C 0.06575 0.04935 0.06748 0.0
C397 C 0.04935 0.05492 0.03527 0.0
C398 C 0.05615 0.08617 1.01209 0.0
C399 C 0.07896 0.1114 0.02094 0.0
C400 C 0.02486 0.02841 0.0261 0.0
C401 C 0.9965 0.0435 0.02405 0.0
C402 C 0.02914 0.98821 0.02126 0.0
C403 C 0.05864 0.97066 0.02192 0.0
C404 C 0.08063 0.98418 0.99821 0.0
C405 C 0.10843 0.96766 0.99916 0.0
C406 C 0.11444 0.93742 0.02355 0.0
C407 C 0.09264 0.92355 0.04697 0.0
C408 C 0.06482 0.93999 0.04615 0.0
C409 C 0.91012 0.933 0.96763 0.0
C410 C 0.90814 0.89758 0.98657 0.0
C411 C 0.93203 0.95968 0.97638 0.0
C412 C 0.95204 0.95195 1.00482 0.0
C413 C 0.94941 0.9171 0.02448 0.0
C414 C 0.92785 0.8902 1.01539 0.0
C415 C 0.97653 0.9791 1.01302 0.0
C416 C 1.00501 0.96417 1.01482 0.0
C417 C 0.97227 0.01938 1.01811 0.0
C418 C 0.94276 0.03689 0.01914 0.0
C419 C 0.92152 0.0229 0.04371 0.0
C420 C 0.8937 0.03934 0.04437 0.0
C421 C 0.88691 0.06999 0.02077 0.0
C422 C 0.90797 0.08435 0.99655 0.0
C423 C 0.93582 0.06798 0.99576 0.0
H424 H 0.86536 0.08267 0.02131 0.0
H425 H 0.13597 0.92467 0.02425 0.0
H426 H 0.63399 0.54642 0.48275 0.0
H427 H 0.59564 0.4995 0.49792 0.0
H428 H 0.53207 0.59162 0.49816 0.0
H429 H 0.57022 0.63827 0.48541 0.0
H430 H 0.51905 0.54979 0.55009 0.0
H431 H 0.54197 0.52124 0.42439 0.0
H432 H 0.57333 0.50396 0.37168 0.0
H433 H 0.59544 0.39641 0.42393 0.0
H434 H 0.56446 0.41327 0.47717 0.0
H435 H 0.41239 0.38095 0.49388 0.0
H436 H 0.45129 0.42657 0.47764 0.0
H437 H 0.4748 0.43567 0.59239 0.0
H438 H 0.43533 0.39197 0.60875 0.0
H439 H 0.50684 0.4271 0.48118 0.0
H440 H 0.50229 0.52097 0.61424 0.0
H441 H 0.46589 0.54381 0.65933 0.0
H442 H 0.3982 0.53102 0.57875 0.0
H443 H 0.43422 0.50861 0.53305 0.0
C444 C 0.61184 0.55653 0.48634 0.0
C445 C 0.60525 0.59612 0.48316 0.0
C446 C 0.58982 0.52966 0.49469 0.0
C447 C 0.56064 0.54171 0.49881 0.0
C448 C 0.55426 0.5813 0.4955 0.0
C449 C 0.57622 0.60809 0.48814 0.0
C450 C 0.53657 0.51372 0.50696 0.0
C451 C 0.51651 0.52298 0.53492 0.0
C452 C 0.53254 0.47895 0.48686 0.0
C453 C 0.55115 0.4687 0.45491 0.0
C454 C 0.55368 0.49402 0.42474 0.0
C455 C 0.57136 0.48429 0.39476 0.0
C456 C 0.58643 0.44916 0.3945 0.0
C457 C 0.58379 0.42364 0.42419 0.0
C458 C 0.56616 0.43326 0.45426 0.0
C459 C 0.42569 0.39308 0.51561 0.0
C460 C 0.42042 0.38329 0.55264 0.0
C461 C 0.44806 0.41898 0.50631 0.0
C462 C 0.46584 0.43526 0.53379 0.0
C463 C 0.46098 0.4246 0.57066 0.0
C464 C 0.43834 0.39945 0.58001 0.0
C465 C 0.48945 0.46334 0.52419 0.0
C466 C 0.50944 0.45398 0.4962 0.0
C467 C 0.49273 0.49892 0.54312 0.0
C468 C 0.47094 0.51273 0.57036 0.0
C469 C 0.47965 0.52317 0.60611 0.0
C470 C 0.45908 0.53602 0.63178 0.0
C471 C 0.42974 0.53874 0.62195 0.0
C472 C 0.42091 0.52876 0.58638 0.0
C473 C 0.4414 0.51594 0.5606 0.0
H474 H 0.41385 0.54867 0.64187 0.0
H475 H 0.60011 0.44167 0.37127 0.0
H476 H 0.4147 0.56304 0.09845 0.0
H477 H 0.45513 0.52047 0.08214 0.0
H478 H 0.47242 0.58952 0.9856 0.0
H479 H 0.43151 0.63193 1.00133 0.0
H480 H 0.48026 0.51415 0.9706 0.0
H481 H 0.51191 0.60144 0.06461 0.0
H482 H 0.50861 0.63495 0.12445 0.0
H483 H 0.51536 0.52619 0.18099 0.0
H484 H 0.51817 0.49194 0.12146 0.0
H485 H 0.6229 0.43909 0.94316 0.0
H486 H 0.58513 0.4866 0.95857 0.0
H487 H 0.55676 0.41493 0.04895 0.0
H488 H 0.59422 0.36723 0.0336 0.0
H489 H 0.55638 0.49478 0.0659 0.0
H490 H 0.52234 0.40785 0.97148 0.0
H491 H 0.52582 0.37457 0.91155 0.0
H492 H 0.5242 0.48401 0.85559 0.0
H493 H 0.52131 0.518 0.91528 0.0
C494 C 0.42684 0.56899 0.07348 0.0
C495 C 0.41995 0.60123 0.05143 0.0
C496 C 0.4501 0.54468 0.06428 0.0
C497 C 0.46734 0.55225 0.03308 0.0
C498 C 0.45962 0.5832 1.00994 0.0
C499 C 0.43617 0.60744 0.019 0.0
C500 C 0.49402 0.52881 0.02558 0.0
C501 C 0.49709 0.51044 0.99126 0.0
C502 C 0.51595 0.52348 0.05264 0.0
C503 C 0.51502 0.54408 0.08853 0.0
C504 C 0.51255 0.58464 0.0898 0.0
C505 C 0.51075 0.60377 0.12366 0.0
C506 C 0.51172 0.5827 0.15649 0.0
C507 C 0.51459 0.54246 0.15553 0.0
C508 C 0.5163 0.52317 0.12173 0.0
C509 C 0.60907 0.43383 0.96682 0.0
C510 C 0.61151 0.39922 0.98703 0.0
C511 C 0.58736 0.46092 0.97546 0.0
C512 C 0.56788 0.45411 1.00466 0.0
C513 C 0.57147 0.42079 0.02627 0.0
C514 C 0.59289 0.3935 1.01739 0.0
C515 C 0.54245 0.48006 1.01108 0.0
C516 C 0.53963 0.49882 0.04519 0.0
C517 C 0.52083 0.48589 0.98381 0.0
C518 C 0.52194 0.46549 0.94787 0.0
C519 C 0.52295 0.42484 0.94641 0.0
C520 C 0.5248 0.40584 0.91249 0.0
C521 C 0.52531 0.42716 0.87979 0.0
C522 C 0.52386 0.46753 0.88095 0.0
C523 C 0.52212 0.48668 0.91482 0.0
H524 H 0.52676 0.4124 0.85356 0.0
H525 H 0.51031 0.59754 0.18268 0.0
H526 H 0.93686 0.13064 0.52412 0.0
H527 H 0.97474 0.08365 0.53871 0.0
H528 H 0.93528 0.00139 0.46488 0.0
H529 H 0.89688 0.04833 0.45027 0.0
H530 H 0.95673 0.96574 0.52703 0.0
H531 H 0.99207 0.054 0.43607 0.0
H532 H 1.00221 0.11803 0.409 0.0
H533 H 0.0582 0.14536 0.49999 0.0
H534 H 0.048 0.08171 0.52794 0.0
H535 H 0.08531 0.85026 0.50752 0.0
H536 H 0.04529 0.89406 0.49139 0.0
H537 H 0.07455 0.97515 0.57351 0.0
H538 H 0.11432 0.93124 0.59029 0.0
H539 H 0.05809 0.00969 0.50435 0.0
H540 H 0.02143 0.9213 0.59566 0.0
H541 H 0.01169 0.85667 0.62165 0.0
H542 H 0.9586 0.82878 0.52807 0.0
H543 H 0.96848 0.89305 0.50117 0.0
C544 C 0.93589 0.1024 0.51127 0.0
C545 C 0.91387 0.09355 0.48565 0.0
C546 C 0.95772 0.07555 0.51958 0.0
C547 C 0.95829 0.03921 0.50232 0.0
C548 C 0.93544 0.02932 0.47839 0.0
C549 C 0.91346 0.05623 0.47007 0.0
C550 C 0.98361 0.01269 0.50789 0.0
C551 C 0.97884 0.97519 0.52156 0.0
C552 C 0.01259 0.02504 0.50119 0.0
C553 C 0.01906 0.0632 0.48427 0.0
C554 C 1.00638 0.07377 0.45045 0.0
C555 C 0.01216 0.10998 0.43493 0.0
C556 C 0.03079 0.13578 0.4528 0.0
C557 C 0.04374 0.12536 0.4862 0.0
C558 C 0.03799 0.08921 0.50188 0.0
C559 C 0.08353 0.87767 0.52178 0.0
C560 C 0.10303 0.88721 0.55026 0.0
C561 C 0.06052 0.90257 0.51267 0.0
C562 C 0.05678 0.93774 0.53146 0.0
C563 C 0.07698 0.94815 0.5587 0.0
C564 C 0.09969 0.92299 0.56827 0.0
C565 C 0.0312 0.96301 0.52376 0.0
C566 C 0.03596 0.00025 0.50965 0.0
C567 C 1.00226 0.95032 0.52987 0.0
C568 C 0.99597 0.91184 0.54619 0.0
C569 C 1.0079 0.90127 0.58045 0.0
C570 C 1.00232 0.86472 0.59538 0.0
C571 C 0.98461 0.83859 0.57647 0.0
C572 C 0.97237 0.84902 0.54265 0.0
C573 C 0.97794 0.88552 0.52755 0.0
H574 H 0.98032 0.81031 0.58808 0.0
H575 H 0.03523 0.16381 0.44075 0.0
H576 H 0.35323 0.80691 0.14316 0.0
H577 H 0.33794 0.87363 0.15588 0.0
H578 H 0.33604 0.89732 0.03919 0.0
H579 H 0.35068 0.83036 0.02648 0.0
H580 H 0.35391 0.96381 0.09526 0.0
H581 H 0.27799 0.86373 0.06311 0.0
H582 H 0.25756 0.799 0.07573 0.0
H583 H 0.24784 0.82833 0.19002 0.0
H584 H 0.26833 0.89308 0.17805 0.0
H585 H 0.2494 0.10069 0.04711 0.0
H586 H 0.28208 0.04521 0.05305 0.0
H587 H 0.23751 0.01082 0.15278 0.0
H588 H 0.20349 0.0647 0.14512 0.0
H589 H 0.24774 0.95112 0.1185 0.0
H590 H 0.30851 0.0548 0.15156 0.0
H591 H 0.33217 0.11865 0.1479 0.0
H592 H 0.37505 0.08517 0.04768 0.0
H593 H 0.35131 0.02128 0.05038 0.0
C594 C 0.35075 0.82701 0.12044 0.0
C595 C 0.35313 0.81421 0.08395 0.0
C596 C 0.34214 0.86492 0.12769 0.0
C597 C 0.33604 0.89011 0.09842 0.0
C598 C 0.3411 0.87826 0.06202 0.0
C599 C 0.34928 0.84018 0.05477 0.0
C600 C 0.31829 0.9248 0.10482 0.0
C601 C 0.3307 0.96143 0.10037 0.0
C602 C 0.28838 0.92123 0.11305 0.0
C603 C 0.27472 0.88307 0.11972 0.0
C604 C 0.27142 0.85632 0.0909 0.0
C605 C 0.25982 0.81965 0.09794 0.0
C606 C 0.25127 0.80959 0.13365 0.0
C607 C 0.25424 0.83622 0.16235 0.0
C608 C 0.26583 0.87289 0.15545 0.0
C609 C 0.24654 0.08094 0.07003 0.0
C610 C 0.22399 0.08649 0.0955 0.0
C611 C 0.26543 0.04963 0.07378 0.0
C612 C 0.26282 0.02435 0.10397 0.0
C613 C 0.24005 0.02991 0.12932 0.0
C614 C 0.22058 0.06052 0.12489 0.0
C615 C 0.28296 0.9911 0.10794 0.0
C616 C 0.27099 0.95433 0.11423 0.0
C617 C 0.31349 -0.00511 0.10285 0.0
C618 C 0.32795 0.03327 0.10107 0.0
C619 C 0.32283 0.06111 0.1286 0.0
C620 C 0.33628 0.09732 0.12671 0.0
C621 C 0.35506 0.10598 0.09756 0.0
C622 C 0.36049 0.07842 0.07025 0.0
C623 C 0.34707 0.04217 0.07197 0.0
H624 H 0.36545 0.13403 0.09615 0.0
H625 H 0.24243 0.78114 0.13913 0.0
H626 H 0.20162 0.67861 0.62882 0.0
H627 H 0.21295 0.60969 0.62919 0.0
H628 H 0.14855 0.5902 0.54479 0.0
H629 H 0.13643 0.65961 0.54519 0.0
H630 H 0.16472 0.52318 0.6035 0.0
H631 H 0.20198 0.6093 0.50821 0.0
H632 H 0.21886 0.6751 0.49298 0.0
H633 H 0.29189 0.66099 0.56552 0.0
H634 H 0.27466 0.59576 0.58251 0.0
H635 H 0.25581 0.36322 0.55477 0.0
H636 H 0.22318 0.41861 0.54757 0.0
H637 H 0.28564 0.49139 0.60299 0.0
H638 H 0.31872 0.4365 0.60923 0.0
H639 H 0.26316 0.52838 0.54668 0.0
H640 H 0.2254 0.44927 0.64686 0.0
H641 H 0.20588 0.38918 0.67385 0.0
H642 H 0.13436 0.39172 0.59784 0.0
H643 H 0.1538 0.45146 0.56983 0.0
C644 C 0.18906 0.65932 0.61148 0.0
C645 C 0.16862 0.67397 0.5865 0.0
C646 C 0.19532 0.62004 0.61195 0.0
C647 C 0.18183 0.59527 0.58665 0.0
C648 C 0.159 0.60906 0.56458 0.0
C649 C 0.1523 0.64856 0.56461 0.0
C650 C 0.19688 0.55903 0.5773 0.0
C651 C 0.18588 0.52384 0.59017 0.0
C652 C 0.22458 0.56052 0.56029 0.0
C653 C 0.23689 0.59773 0.54683 0.0
C654 C 0.22159 0.62026 0.52099 0.0
C655 C 0.23106 0.6576 0.51232 0.0
C656 C 0.2563 0.67232 0.5285 0.0
C657 C 0.27226 0.64959 0.55313 0.0
C658 C 0.26261 0.61246 0.56237 0.0
C659 C 0.2626 0.39108 0.56533 0.0
C660 C 0.28968 0.3955 0.58293 0.0
C661 C 0.24393 0.42265 0.5612 0.0
C662 C 0.25181 0.45895 0.57522 0.0
C663 C 0.27914 0.46359 0.59195 0.0
C664 C 0.29798 0.4322 0.59564 0.0
C665 C 0.23144 0.49208 0.57373 0.0
C666 C 0.24157 0.52702 0.55878 0.0
C667 C 0.20298 0.49022 0.58891 0.0
C668 C 0.19125 0.45451 0.60595 0.0
C669 C 0.20563 0.43684 0.63572 0.0
C670 C 0.19457 0.40288 0.65123 0.0
C671 C 0.16893 0.3866 0.63756 0.0
C672 C 0.15426 0.40431 0.60836 0.0
C673 C 0.1653 0.43819 0.59262 0.0
H674 H 0.16041 0.36031 0.64965 0.0
H675 H 0.26362 0.70121 0.5217 0.0
H676 H 0.72614 0.42067 0.90134 0.0
H677 H 0.7617 0.47202 0.90719 0.0
H678 H 0.7981 0.4165 1.00321 0.0
H679 H 0.76198 0.36445 0.99778 0.0
H680 H 0.78636 0.49322 1.01381 0.0
H681 H 0.83896 0.41984 0.92589 0.0
H682 H 0.84537 0.37983 0.87026 0.0
H683 H 0.81777 0.47477 0.80243 0.0
H684 H 0.81084 0.51526 0.85763 0.0
H685 H 0.86704 0.6692 1.00558 0.0
H686 H 0.86097 0.59884 1.00625 0.0
H687 H 0.80631 0.60628 0.90987 0.0
H688 H 0.81225 0.67635 0.90893 0.0
H689 H 0.84312 0.54333 0.90762 0.0
H690 H 0.77644 0.60629 0.99295 0.0
H691 H 0.76245 0.64538 0.04697 0.0
H692 H 0.81142 0.56981 0.11754 0.0
H693 H 0.82605 0.53055 0.06377 0.0
C694 C 0.74176 0.41903 0.92363 0.0
C695 C 0.7412 0.38846 0.94914 0.0
C696 C 0.76233 0.44827 0.92667 0.0
C697 C 0.78292 0.44756 0.95513 0.0
C698 C 0.78258 0.41716 0.98075 0.0
C699 C 0.76194 0.3876 0.97765 0.0
C700 C 0.80268 0.4809 0.95942 0.0
C701 C 0.7997 0.50359 0.99117 0.0
C702 C 0.81961 0.49453 0.92953 0.0
C703 C 0.82442 0.47064 0.89601 0.0
C704 C 0.8342 0.43219 0.89913 0.0
C705 C 0.83792 0.40942 0.86765 0.0
C706 C 0.83202 0.42477 0.83284 0.0
C707 C 0.82243 0.46297 0.82941 0.0
C708 C 0.81869 0.48589 0.8608 0.0
C709 C 0.85412 0.65575 0.98419 0.0
C710 C 0.83979 0.67827 0.95746 0.0
C711 C 0.85069 0.61562 0.98465 0.0
C712 C 0.83306 0.59755 0.95828 0.0
C713 C 0.82007 0.61975 0.93042 0.0
C714 C 0.82329 0.6598 0.93009 0.0
C715 C 0.82562 0.55617 0.96129 0.0
C716 C 0.83095 0.53212 0.93092 0.0
C717 C 0.8105 0.54142 0.99224 0.0
C718 C 0.8027 0.56586 0.02432 0.0
C719 C 0.78455 0.59833 0.01992 0.0
C720 C 0.7764 0.62041 0.0505 0.0
C721 C 0.78599 0.61002 0.08566 0.0
C722 C 0.80397 0.57775 0.09028 0.0
C723 C 0.81224 0.55563 0.05977 0.0
H724 H 0.77944 0.62694 0.10933 0.0
H725 H 0.83485 0.40706 0.80851 0.0
H726 H 0.76071 0.12259 0.49791 0.0
H727 H 0.72466 0.07055 0.50325 0.0
H728 H 0.76338 0.0129 0.40983 0.0
H729 H 0.79908 0.0643 0.40412 0.0
H730 H 0.70377 0.013 0.40645 0.0
H731 H 0.78116 0.98612 0.49558 0.0
H732 H 0.81131 0.00124 0.54989 0.0
H733 H 0.73438 0.0105 0.61669 0.0
H734 H 0.70374 -0.00426 0.56258 0.0
H735 H 0.70781 0.81301 0.40972 0.0
H736 H 0.71321 0.8831 0.40992 0.0
H737 H 0.65728 0.89101 0.50528 0.0
H738 H 0.65185 0.82064 0.50544 0.0
H739 H 0.70885 0.92677 0.51556 0.0
H740 H 0.63436 0.93097 0.42572 0.0
H741 H 0.60728 0.91199 0.36998 0.0
H742 H 0.68071 0.94229 0.30261 0.0
H743 H 0.70842 0.96092 0.35792 0.0
C744 C 0.76143 0.09886 0.47845 0.0
C745 C 0.78282 0.09746 0.45068 0.0
C746 C 0.74081 0.06931 0.4815 0.0
C747 C 0.74137 0.03813 0.45681 0.0
C748 C 0.76244 0.03699 0.42889 0.0
C749 C 0.78301 0.06626 0.42591 0.0
C750 C 0.72147 0.00498 0.46083 0.0
C751 C 0.70458 0.99417 0.43036 0.0
C752 C 0.72187 0.98133 0.49259 0.0
C753 C 0.74018 0.99041 0.525 0.0
C754 C 0.77068 0.99172 0.52179 0.0
C755 C 0.78784 0.00013 0.55252 0.0
C756 C 0.77475 0.00692 0.58668 0.0
C757 C 0.74447 0.00529 0.59019 0.0
C758 C 0.72719 -0.00309 0.55951 0.0
C759 C 0.69635 0.82967 0.43045 0.0
C760 C 0.67969 0.81136 0.45779 0.0
C761 C 0.69918 0.86975 0.4303 0.0
C762 C 0.68535 0.89217 0.4574 0.0
C763 C 0.6679 0.87413 0.484 0.0
C764 C 0.66489 0.83398 0.48404 0.0
C765 C 0.6924 0.93364 0.4603 0.0
C766 C 0.70685 0.94616 0.49216 0.0
C767 C 0.69003 0.9586 0.4296 0.0
C768 C 0.67347 0.94742 0.39608 0.0
C769 C 0.64481 0.93341 0.39905 0.0
C770 C 0.62933 0.92273 0.36751 0.0
C771 C 0.64224 0.92606 0.33279 0.0
C772 C 0.67069 0.93991 0.32953 0.0
C773 C 0.68628 0.9506 0.36097 0.0
H774 H 0.6302 0.91792 0.30839 0.0
H775 H 0.78811 0.01327 0.61044 0.0
H776 H 0.69876 0.17145 0.90542 0.0
H777 H 0.70202 0.10133 0.90678 0.0
H778 H 0.64197 0.09764 0.99828 0.0
H779 H 0.63883 0.1683 0.99744 0.0
H780 H 0.6911 0.0602 1.01366 0.0
H781 H 0.62283 0.0541 0.91759 0.0
H782 H 0.59856 0.07246 0.85962 0.0
H783 H 0.67535 0.04197 0.79858 0.0
H784 H 0.70029 0.024 0.85618 0.0
H785 H 0.75093 0.86712 1.00001 0.0
H786 H 0.71274 0.91668 1.00269 0.0
H787 H 0.7548 0.97899 0.91444 0.0
H788 H 0.79268 0.93001 0.91137 0.0
H789 H 0.69512 0.97359 0.90489 0.0
H790 H 0.76566 0.00461 1.00311 0.0
H791 H 0.79167 0.98939 0.06079 0.0
H792 H 0.71003 0.97431 0.11683 0.0
H793 H 0.68357 0.98909 0.05929 0.0
C794 C 0.68583 0.15578 0.92545 0.0
C795 C 0.66891 0.17543 0.95169 0.0
C796 C 0.68744 0.1156 0.92593 0.0
C797 C 0.67199 0.09426 0.95243 0.0
C798 C 0.6539 0.11363 0.9775 0.0
C799 C 0.6522 0.15396 0.97699 0.0
C800 C 0.6785 0.05268 0.95686 0.0
C801 C 0.69101 0.0407 0.99024 0.0
C802 C 0.6784 0.02732 0.92632 0.0
C803 C 0.66344 0.03763 0.89134 0.0
C804 C 0.63461 0.05144 0.89184 0.0
C805 C 0.62072 0.06179 0.85902 0.0
C806 C 0.63539 0.05836 0.82544 0.0
C807 C 0.66398 0.04453 0.82461 0.0
C808 C 0.67798 0.03415 0.85735 0.0
C809 C 0.75202 0.89143 0.98122 0.0
C810 C 0.77487 0.89468 0.9555 0.0
C811 C 0.73014 0.91953 0.98269 0.0
C812 C 0.73091 0.95119 0.95854 0.0
C813 C 0.75365 0.95443 0.93296 0.0
C814 C 0.77545 0.92657 0.9315 0.0
C815 C 0.7093 0.98267 0.96072 0.0
C816 C 0.6939 0.99248 0.92869 0.0
C817 C 0.70678 0.00613 0.99241 0.0
C818 C 0.72269 -0.00258 0.02689 0.0
C819 C 0.75329 -0.00223 0.02769 0.0
C820 C 0.76811 0.98928 0.06034 0.0
C821 C 0.75252 0.98074 0.09242 0.0
C822 C 0.72208 0.98082 0.09194 0.0
C823 C 0.70717 0.98926 0.05933 0.0
H824 H 0.76402 0.97417 0.11768 0.0
H825 H 0.62461 0.06643 0.80007 0.0
H826 H 0.72145 0.55749 0.41178 0.0
H827 H 0.75935 0.50836 0.41279 0.0
H828 H 0.80515 0.57159 0.49717 0.0
H829 H 0.76701 0.62119 0.49662 0.0
H830 H 0.81837 0.51329 0.39881 0.0
H831 H 0.83672 0.50031 0.55292 0.0
H832 H 0.81249 0.51517 0.61204 0.0
H833 H 0.72883 0.49922 0.56155 0.0
H834 H 0.75259 0.48386 0.50232 0.0
H835 H 0.88128 0.32251 0.49189 0.0
H836 H 0.87722 0.39306 0.49106 0.0
H837 H 0.81344 0.3854 0.4041 0.0
H838 H 0.81766 0.31537 0.40429 0.0
H839 H 0.82833 0.4294 0.50899 0.0
H840 H 0.81166 0.46163 0.3517 0.0
H841 H 0.83388 0.44175 0.29286 0.0
H842 H 0.91355 0.41374 0.34864 0.0
H843 H 0.89205 0.43412 0.40778 0.0
C844 C 0.73949 0.56105 0.43067 0.0
C845 C 0.74116 0.59322 0.45418 0.0
C846 C 0.76129 0.53312 0.43092 0.0
C847 C 0.7851 0.53663 0.45479 0.0
C848 C 0.78691 0.56853 0.4785 0.0
C849 C 0.76503 0.59664 0.47827 0.0
C850 C 0.80682 0.50525 0.45582 0.0
C851 C 0.82088 0.49498 0.42289 0.0
C852 C 0.811 0.48256 0.48776 0.0
C853 C 0.79642 0.49155 0.52317 0.0
C854 C 0.81316 0.5 0.5545 0.0
C855 C 0.79951 0.50847 0.58801 0.0
C856 C 0.76914 0.50831 0.5905 0.0
C857 C 0.75234 0.49951 0.55954 0.0
C858 C 0.76589 0.49097 0.526 0.0
C859 C 0.86684 0.33595 0.47206 0.0
C860 C 0.84941 0.31341 0.44854 0.0
C861 C 0.86465 0.37621 0.47159 0.0
C862 C 0.84526 0.39442 0.44734 0.0
C863 C 0.82902 0.37201 0.42254 0.0
C864 C 0.83118 0.33189 0.42299 0.0
C865 C 0.83834 0.43589 0.45123 0.0
C866 C 0.82714 0.44835 0.48519 0.0
C867 C 0.83673 0.46045 0.42014 0.0
C868 C 0.85017 0.44946 0.38431 0.0
C869 C 0.83403 0.4517 0.35143 0.0
C870 C 0.84649 0.4402 0.318 0.0
C871 C 0.8751 0.42647 0.31701 0.0
C872 C 0.89137 0.42435 0.34944 0.0
C873 C 0.87905 0.43585 0.38294 0.0
H874 H 0.88466 0.41746 0.29113 0.0
H875 H 0.75861 0.51489 0.61646 0.0
H876 H 0.22462 0.30938 0.05525 0.0
H877 H 0.23325 0.37812 0.06302 0.0
H878 H 0.14158 0.39742 0.08117 0.0
H879 H 0.13244 0.32777 0.07374 0.0
H880 H 0.18162 0.45271 0.02776 0.0
H881 H 0.16598 0.40621 0.15115 0.0
H882 H 0.17 0.35742 0.20048 0.0
H883 H 0.26325 0.36463 0.19564 0.0
H884 H 0.25982 0.41302 0.14582 0.0
H885 H 0.24951 0.63265 0.08228 0.0
H886 H 0.21423 0.5797 0.08116 0.0
H887 H 0.28409 0.49722 0.09379 0.0
H888 H 0.31943 0.54968 0.09526 0.0
H889 H 0.23834 0.4828 0.1405 0.0
H890 H 0.25484 0.51423 1.01087 0.0
H891 H 0.25453 0.55857 0.95758 0.0
H892 H 0.16264 0.57668 0.97146 0.0
H893 H 0.16252 0.53284 0.0252 0.0
C894 C 0.20612 0.32807 0.06048 0.0
C895 C 0.17785 0.31308 0.06417 0.0
C896 C 0.21113 0.36734 0.06483 0.0
C897 C 0.18804 0.39238 0.07284 0.0
C898 C 0.15955 0.37818 0.07497 0.0
C899 C 0.15446 0.33854 0.07081 0.0
C900 C 0.195 0.43277 0.08133 0.0
C901 C 0.19306 0.46008 0.05293 0.0
C902 C 0.21035 0.44156 0.11395 0.0
C903 C 0.21261 0.41322 0.14465 0.0
C904 C 0.18735 0.39726 0.16046 0.0
C905 C 0.18953 0.36968 0.18852 0.0
C906 C 0.21687 0.35794 0.20119 0.0
C907 C 0.24209 0.37381 0.18584 0.0
C908 C 0.24003 0.40139 0.15773 0.0
C909 C 0.25737 0.60322 0.08474 0.0
C910 C 0.28727 0.59531 0.08894 0.0
C911 C 0.23717 0.57311 0.08415 0.0
C912 C 0.24663 0.53475 0.08758 0.0
C913 C 0.27642 0.52678 0.09147 0.0
C914 C 0.29659 0.55676 0.09206 0.0
C915 C 0.2259 0.50234 0.08635 0.0
C916 C 0.22558 0.47645 0.1161 0.0
C917 C 0.2087 0.49479 0.05486 0.0
C918 C 0.20875 0.52073 0.02233 0.0
C919 C 0.23462 0.52791 1.00272 0.0
C920 C 0.23452 0.5529 0.97241 0.0
C921 C 0.2086 0.57055 0.96123 0.0
C922 C 0.18271 0.56308 0.98022 0.0
C923 C 0.18272 0.53817 1.0106 0.0
H924 H 0.20856 0.58996 0.93784 0.0
H925 H 0.21849 0.3366 0.22292 0.0
H926 H 0.27098 0.8548 0.57218 0.0
H927 H 0.30694 0.90661 0.5672 0.0
H928 H 0.24047 0.99079 0.59247 0.0
H929 H 0.20436 0.9393 0.59779 0.0
H930 H 0.3096 0.97145 0.52263 0.0
H931 H 0.27047 0.0572 0.65245 0.0
H932 H 0.24665 0.04284 0.71177 0.0
H933 H 0.27865 0.92624 0.70732 0.0
H934 H 0.30406 0.9404 0.64924 0.0
H935 H 0.31143 0.1712 0.52259 0.0
H936 H 0.3046 0.10138 0.5254 0.0
H937 H 0.37475 0.09206 0.60392 0.0
H938 H 0.38209 0.16247 0.6007 0.0
H939 H 0.32133 0.06167 0.62789 0.0
H940 H 0.38507 0.0466 0.52745 0.0
H941 H 0.40738 0.06131 0.46726 0.0
H942 H 0.32655 0.03608 0.41304 0.0
H943 H 0.3036 0.02177 0.47292 0.0
C944 C 0.26397 0.88436 0.5766 0.0
C945 C 0.23488 0.89297 0.58581 0.0
C946 C 0.28454 0.91384 0.57361 0.0
C947 C 0.27637 0.95224 0.58006 0.0
C948 C 0.2472 0.96111 0.58801 0.0
C949 C 0.2266 0.93171 0.59091 0.0
C950 C 0.29823 0.98338 0.57906 0.0
C951 C 0.31251 0.991 0.54569 0.0
C952 C 0.30268 0.00788 0.60975 0.0
C953 C 0.28904 -0.00016 0.64617 0.0
C954 C 0.27289 0.02867 0.66442 0.0
C955 C 0.25915 0.02058 0.69796 0.0
C956 C 0.26124 0.98368 0.71345 0.0
C957 C 0.27728 0.95492 0.69559 0.0
C958 C 0.29144 0.963 0.66239 0.0
C959 C 0.32576 0.15419 0.53992 0.0
C960 C 0.3471 0.172 0.56168 0.0
C961 C 0.32204 0.11433 0.54123 0.0
C962 C 0.33936 0.09171 0.56462 0.0
C963 C 0.36144 0.10918 0.58545 0.0
C964 C 0.36556 0.14919 0.58361 0.0
C965 C 0.33107 0.0511 0.57074 0.0
C966 C 0.31924 0.04151 0.60515 0.0
C967 C 0.32892 0.02482 0.54108 0.0
C968 C 0.3426 0.03312 0.50479 0.0
C969 C 0.37199 0.04438 0.50273 0.0
C970 C 0.38476 0.05263 0.46864 0.0
C971 C 0.36839 0.04963 0.43635 0.0
C972 C 0.33922 0.03833 0.43808 0.0
C973 C 0.32633 0.03005 0.4721 0.0
H974 H 0.37832 0.05605 0.40999 0.0
H975 H 0.25038 0.97735 0.73925 0.0
H976 H 0.15744 0.22849 0.94383 0.0
H977 H 0.17721 0.23853 0.88194 0.0
H978 H 0.25432 0.17449 0.9116 0.0
H979 H 0.23458 0.1639 0.97331 0.0
H980 H 0.2238 0.27758 0.86194 0.0
H981 H 0.28489 0.13359 0.83429 0.0
H982 H 0.2801 0.0641 0.8485 0.0
H983 H 0.18769 0.07765 0.86138 0.0
H984 H 0.19186 0.14708 0.84672 0.0
H985 H 0.32598 0.30718 0.71898 0.0
H986 H 0.30289 0.288 0.77677 0.0
H987 H 0.24796 0.20806 0.71786 0.0
H988 H 0.27177 0.22628 0.6599 0.0
H989 H 0.26382 0.17596 0.77978 0.0
H990 H 0.22331 0.30005 0.74875 0.0
H991 H 0.22458 0.36926 0.73242 0.0
H992 H 0.26926 0.39479 0.8333 0.0
H993 H 0.26856 0.32563 0.8501 0.0
C994 C 0.17839 0.21593 0.93708 0.0
C995 C 0.19434 0.19537 0.96382 0.0
C996 C 0.18978 0.22192 0.90162 0.0
C997 C 0.2173 0.20726 0.8918 0.0
C998 C 0.2329 0.18574 0.9181 0.0
C999 C 0.22155 0.17979 0.95357 0.0
C1000 C 0.23035 0.21635 0.85491 0.0
C1001 C 0.23249 0.25526 0.84402 0.0
C1002 C 0.24154 0.18741 0.83108 0.0
C1003 C 0.23875 0.14564 0.83978 0.0
C1004 C 0.26353 0.12172 0.84004 0.0
C1005 C 0.26093 0.08234 0.84818 0.0
C1006 C 0.23362 0.0665 0.85596 0.0
C1007 C 0.20885 0.08999 0.8555 0.0
C1008 C 0.21133 0.12937 0.84733 0.0
C1009 C 0.30898 0.2855 0.71822 0.0
C1010 C 0.30054 0.26864 0.68457 0.0
C1011 C 0.29566 0.27462 0.75141 0.0
C1012 C 0.27309 0.24713 0.75188 0.0
C1013 C 0.26516 0.22947 0.71843 0.0
C1014 C 0.27876 0.24 0.6852 0.0
C1015 C 0.25762 0.23723 0.7871 0.0
C1016 C 0.2551 0.19823 0.79771 0.0
C1017 C 0.24571 0.26604 0.81054 0.0
C1018 C 0.24609 0.30763 0.80052 0.0
C1019 C 0.23357 0.32039 0.76734 0.0
C1020 C 0.23416 0.35962 0.75801 0.0
C1021 C 0.24705 0.3864 0.78173 0.0
C1022 C 0.25931 0.37401 0.81492 0.0
C1023 C 0.25879 0.33482 0.82439 0.0
H1024 H 0.24747 0.41675 0.77442 0.0
H1025 H 0.23165 0.03601 0.86227 0.0
H1026 H 0.24143 0.26507 0.15953 0.0
H1027 H 0.26682 0.28373 0.21619 0.0
H1028 H 0.22467 0.19056 0.2745 0.0
H1029 H 0.19973 0.17137 0.21815 0.0
H1030 H 0.25024 0.30789 0.28251 0.0
H1031 H 0.26977 0.15225 0.33821 0.0
H1032 H 0.27771 0.08654 0.31368 0.0
H1033 H 0.31105 0.13436 0.21293 0.0
H1034 H 0.30377 0.20031 0.23705 0.0
H1035 H 0.28039 0.31003 0.47401 0.0
H1036 H 0.2622 0.29996 0.41173 0.0
H1037 H 0.34571 0.25423 0.37897 0.0
H1038 H 0.36393 0.2633 0.44179 0.0
H1039 H 0.3056 0.20946 0.35323 0.0
H1040 H 0.31995 0.34557 0.35011 0.0
H1041 H 0.31603 0.41321 0.37104 0.0
H1042 H 0.22298 0.40813 0.36066 0.0
H1043 H 0.22629 0.34026 0.34016 0.0
C1044 C 0.23761 0.24846 0.18438 0.0
C1045 C 0.21876 0.21632 0.18397 0.0
C1046 C 0.2521 0.25928 0.21686 0.0
C1047 C 0.24815 0.2382 0.24965 0.0
C1048 C 0.22867 0.20686 0.2495 0.0
C1049 C 0.21428 0.19598 0.21714 0.0
C1050 C 0.2644 0.24855 0.28402 0.0
C1051 C 0.26236 0.28637 0.29795 0.0
C1052 C 0.28097 0.22087 0.30384 0.0
C1053 C 0.28595 0.18125 0.28936 0.0
C1054 C 0.27894 0.14875 0.3109 0.0
C1055 C 0.28331 0.11145 0.29705 0.0
C1056 C 0.29479 0.10628 0.26172 0.0
C1057 C 0.30206 0.1384 0.24023 0.0
C1058 C 0.2978 0.17575 0.25398 0.0
C1059 C 0.29511 0.29823 0.45356 0.0
C1060 C 0.32374 0.28751 0.4632 0.0
C1061 C 0.28464 0.29263 0.4177 0.0
C1062 C 0.30255 0.27662 0.39021 0.0
C1063 C 0.33135 0.26661 0.39952 0.0
C1064 C 0.34183 0.27204 0.43551 0.0
C1065 C 0.29073 0.26858 0.35245 0.0
C1066 C 0.29359 0.23111 0.33782 0.0
C1067 C 0.27547 0.29683 0.33162 0.0
C1068 C 0.27337 0.33768 0.34389 0.0
C1069 C 0.29863 0.35877 0.35255 0.0
C1070 C 0.29652 0.39717 0.3643 0.0
C1071 C 0.26927 0.41492 0.36726 0.0
C1072 C 0.24407 0.39433 0.35839 0.0
C1073 C 0.24606 0.3559 0.34666 0.0
H1074 H 0.26769 0.44466 0.37636 0.0
H1075 H 0.2981 0.07739 0.25102 0.0
H1076 H 0.76669 0.22201 0.36281 0.0
H1077 H 0.7441 0.24112 0.30515 0.0
H1078 H 0.82221 0.20988 0.24617 0.0
H1079 H 0.84545 0.19083 0.3045 0.0
H1080 H 0.79943 0.27891 0.22203 0.0
H1081 H 0.76295 0.15105 0.24472 0.0
H1082 H 0.73982 0.09941 0.28135 0.0
H1083 H 0.66172 0.16718 0.29027 0.0
H1084 H 0.68454 0.2195 0.25412 0.0
H1085 H 0.74315 0.26674 0.04327 0.0
H1086 H 0.76417 0.25624 0.10353 0.0
H1087 H 0.68202 0.28459 0.15457 0.0
H1088 H 0.66018 0.29438 0.09321 0.0
H1089 H 0.70536 0.22033 0.18465 0.0
H1090 H 0.74094 0.34678 0.15825 0.0
H1091 H 0.76417 0.39797 0.12117 0.0
H1092 H 0.84405 0.33337 0.11916 0.0
H1093 H 0.82119 0.28145 0.15569 0.0
C1094 C 0.77924 0.21899 0.33769 0.0
C1095 C 0.80791 0.20441 0.33841 0.0
C1096 C 0.76614 0.22992 0.3046 0.0
C1097 C 0.78119 0.2264 0.27116 0.0
C1098 C 0.81007 0.21264 0.27164 0.0
C1099 C 0.82329 0.20161 0.30496 0.0
C1100 C 0.76653 0.23712 0.23594 0.0
C1101 C 0.77907 0.26575 0.21358 0.0
C1102 C 0.73941 0.2209 0.2255 0.0
C1103 C 0.72556 0.18935 0.247 0.0
C1104 C 0.74092 0.15507 0.25472 0.0
C1105 C 0.72785 0.12566 0.27536 0.0
C1106 C 0.69934 0.13005 0.28821 0.0
C1107 C 0.68381 0.16384 0.28034 0.0
C1108 C 0.69679 0.19337 0.25975 0.0
C1109 C 0.72934 0.27101 0.06715 0.0
C1110 C 0.69979 0.28128 0.0632 0.0
C1111 C 0.74161 0.26525 0.1018 0.0
C1112 C 0.72492 0.27011 0.1338 0.0
C1113 C 0.69542 0.28084 0.13025 0.0
C1114 C 0.68298 0.28661 0.09522 0.0
C1115 C 0.73835 0.26199 0.17046 0.0
C1116 C 0.72561 0.23378 0.19315 0.0
C1117 C 0.76529 0.27863 0.18119 0.0
C1118 C 0.77924 0.31003 0.1595 0.0
C1119 C 0.7634 0.34333 0.14969 0.0
C1120 C 0.77651 0.37251 0.12878 0.0
C1121 C 0.80554 0.36889 0.11774 0.0
C1122 C 0.82155 0.33613 0.12769 0.0
C1123 C 0.80853 0.30683 0.14854 0.0
H1124 H 0.81564 0.39149 0.10153 0.0
H1125 H 0.68927 0.10725 0.30419 0.0
H1126 H 0.85755 0.18249 0.59234 0.0
H1127 H 0.83675 0.19455 0.65408 0.0
H1128 H 0.7647 0.25529 0.60453 0.0
H1129 H 0.78472 0.24361 0.54403 0.0
H1130 H 0.78737 0.29582 0.66163 0.0
H1131 H 0.75695 0.16396 0.63557 0.0
H1132 H 0.76484 0.09476 0.62218 0.0
H1133 H 0.81387 0.08254 0.72219 0.0
H1134 H 0.8066 0.15178 0.73591 0.0
H1135 H 0.68127 0.31246 0.80384 0.0
H1136 H 0.70567 0.29521 0.74577 0.0
H1137 H 0.77013 0.2304 0.80626 0.0
H1138 H 0.74606 0.24712 0.86379 0.0
H1139 H 0.75517 0.19164 0.74628 0.0
H1140 H 0.78511 0.32042 0.77467 0.0
H1141 H 0.77874 0.38936 0.79006 0.0
H1142 H 0.73391 0.408 0.68781 0.0
H1143 H 0.73956 0.33896 0.67209 0.0
C1144 C 0.8373 0.19836 0.59473 0.0
C1145 C 0.82298 0.21204 0.56301 0.0
C1146 C 0.82538 0.20518 0.62997 0.0
C1147 C 0.79912 0.22595 0.63394 0.0
C1148 C 0.78501 0.23947 0.60232 0.0
C1149 C 0.79661 0.23251 0.56752 0.0
C1150 C 0.78577 0.23425 0.67057 0.0
C1151 C 0.78018 0.27299 0.68002 0.0
C1152 C 0.77695 0.20462 0.69507 0.0
C1153 C 0.78154 0.16314 0.68654 0.0
C1154 C 0.76967 0.1466 0.6545 0.0
C1155 C 0.77397 0.10736 0.6469 0.0
C1156 C 0.78991 0.08432 0.67128 0.0
C1157 C 0.80157 0.10045 0.7033 0.0
C1158 C 0.79736 0.13967 0.71101 0.0
C1159 C 0.7005 0.29432 0.80469 0.0
C1160 C 0.71186 0.28164 0.83857 0.0
C1161 C 0.71451 0.28458 0.77151 0.0
C1162 C 0.74001 0.26184 0.77163 0.0
C1163 C 0.75061 0.24801 0.80533 0.0
C1164 C 0.73682 0.25786 0.83831 0.0
C1165 C 0.75628 0.2532 0.73697 0.0
C1166 C 0.76247 0.21448 0.72797 0.0
C1167 C 0.76595 0.28287 0.71303 0.0
C1168 C 0.76249 0.32441 0.72237 0.0
C1169 C 0.77367 0.33914 0.7556 0.0
C1170 C 0.77024 0.37825 0.76437 0.0
C1171 C 0.75589 0.40303 0.73996 0.0
C1172 C 0.74498 0.38875 0.70672 0.0
C1173 C 0.74829 0.34963 0.69786 0.0
H1174 H 0.75328 0.43331 0.74678 0.0
H1175 H 0.79316 0.05394 0.66548 0.0
H1176 H 0.86352 0.78935 0.09419 0.0
H1177 H 0.8455 0.77844 0.15727 0.0
H1178 H 0.75735 0.77478 0.11643 0.0
H1179 H 0.77492 0.78627 0.05428 0.0
H1180 H 0.75883 0.81171 0.18042 0.0
H1181 H 0.79946 0.69412 0.12934 0.0
H1182 H 0.83899 0.65413 0.10341 0.0
H1183 H 0.88792 0.6668 0.20335 0.0
H1184 H 0.84916 0.70802 0.22943 0.0
H1185 H 0.68072 0.70078 0.31259 0.0
H1186 H 0.70456 0.72194 0.25547 0.0
H1187 H 0.78722 0.72574 0.3116 0.0
H1188 H 0.76377 0.70468 0.36846 0.0
H1189 H 0.79228 0.69251 0.24376 0.0
H1190 H 0.75134 0.80717 0.29616 0.0
H1191 H 0.71235 0.84772 0.32259 0.0
H1192 H 0.66459 0.84052 0.2212 0.0
H1193 H 0.70292 0.79917 0.19447 0.0
C1194 C 0.8403 0.7869 0.09888 0.0
C1195 C 0.82071 0.78813 0.06915 0.0
C1196 C 0.83002 0.78046 0.13486 0.0
C1197 C 0.80005 0.77518 0.14154 0.0
C1198 C 0.78052 0.77861 0.11209 0.0
C1199 C 0.79069 0.78494 0.07643 0.0
C1200 C 0.78865 0.7636 0.17837 0.0
C1201 C 0.76608 0.78555 0.19417 0.0
C1202 C 0.79844 0.72983 0.19676 0.0
C1203 C 0.82154 0.70456 0.18118 0.0
C1204 C 0.81875 0.68866 0.14569 0.0
C1205 C 0.84101 0.66575 0.13096 0.0
C1206 C 0.8659 0.65787 0.15174 0.0
C1207 C 0.86863 0.67296 0.18727 0.0
C1208 C 0.84657 0.6962 0.20199 0.0
C1209 C 0.70399 0.70588 0.31268 0.0
C1210 C 0.72027 0.70114 0.34517 0.0
C1211 C 0.71758 0.71814 0.28008 0.0
C1212 C 0.74767 0.72574 0.27935 0.0
C1213 C 0.76402 0.72009 0.31148 0.0
C1214 C 0.75048 0.70818 0.34404 0.0
C1215 C 0.76213 0.74024 0.24533 0.0
C1216 C 0.78523 0.71885 0.23015 0.0
C1217 C 0.75289 0.77453 0.22751 0.0
C1218 C 0.72988 0.7997 0.24343 0.0
C1219 C 0.73239 0.81392 0.27961 0.0
C1220 C 0.7104 0.83705 0.29466 0.0
C1221 C 0.68593 0.84649 0.27366 0.0
C1222 C 0.68346 0.833 0.23752 0.0
C1223 C 0.70532 0.80972 0.2224 0.0
H1224 H 0.66894 0.86432 0.28536 0.0
H1225 H 0.88306 0.64005 0.14031 0.0
H1226 H 0.75728 0.76977 0.87032 0.0
H1227 H 0.73417 0.75056 0.81288 0.0
H1228 H 0.81153 0.7826 0.75274 0.0
H1229 H 0.83492 0.80255 0.81044 0.0
H1230 H 0.76299 0.80767 0.71812 0.0
H1231 H 0.79599 0.68851 0.77033 0.0
H1232 H 0.80153 0.63925 0.81899 0.0
H1233 H 0.70897 0.62182 0.82073 0.0
H1234 H 0.70281 0.67152 0.77252 0.0
H1235 H 0.74317 0.70705 0.55402 0.0
H1236 H 0.76031 0.72126 0.61577 0.0
H1237 H 0.67277 0.7112 0.65761 0.0
H1238 H 0.65496 0.6974 0.59484 0.0
H1239 H 0.72264 0.67547 0.70268 0.0
H1240 H 0.69109 0.79457 0.64699 0.0
H1241 H 0.68787 0.84252 0.59685 0.0
H1242 H 0.78053 0.85851 0.60033 0.0
H1243 H 0.78439 0.81001 0.64999 0.0
C1244 C 0.76951 0.77284 0.84495 0.0
C1245 C 0.79806 0.78772 0.8451 0.0
C1246 C 0.75622 0.76163 0.81207 0.0
C1247 C 0.77118 0.76466 0.7785 0.0
C1248 C 0.79956 0.77994 0.77835 0.0
C1249 C 0.81294 0.79125 0.81136 0.0
C1250 C 0.75706 0.75197 0.74364 0.0
C1251 C 0.75442 0.77867 0.71469 0.0
C1252 C 0.74525 0.71433 0.73938 0.0
C1253 C 0.74891 0.68406 0.76807 0.0
C1254 C 0.77678 0.6744 0.78128 0.0
C1255 C 0.78005 0.64637 0.80876 0.0
C1256 C 0.75562 0.62749 0.82301 0.0
C1257 C 0.72788 0.63652 0.80971 0.0
C1258 C 0.72448 0.66461 0.7823 0.0
C1259 C 0.72739 0.70749 0.57624 0.0
C1260 C 0.69753 0.7017 0.5693 0.0
C1261 C 0.73734 0.71556 0.6116 0.0
C1262 C 0.71779 0.71783 0.6411 0.0
C1263 C 0.68817 0.7097 0.63503 0.0
C1264 C 0.67804 0.70179 0.59925 0.0
C1265 C 0.72867 0.73118 0.6774 0.0
C1266 C 0.73088 0.7046 0.70645 0.0
C1267 C 0.74032 0.76883 0.68169 0.0
C1268 C 0.73805 0.79834 0.65203 0.0
C1269 C 0.71082 0.80801 0.63684 0.0
C1270 C 0.70887 0.83534 0.60853 0.0
C1271 C 0.73398 0.8535 0.59536 0.0
C1272 C 0.76109 0.84439 0.61053 0.0
C1273 C 0.76317 0.81699 0.63878 0.0
H1274 H 0.73242 0.87468 0.57346 0.0
H1275 H 0.75819 0.60581 0.84429 0.0
H1276 H 0.20099 0.82599 0.72453 0.0
H1277 H 0.22587 0.80954 0.78201 0.0
H1278 H 0.26709 0.71245 0.72845 0.0
H1279 H 0.24155 0.72793 0.6714 0.0
H1280 H 0.25097 0.69031 0.79204 0.0
H1281 H 0.30413 0.80159 0.74994 0.0
H1282 H 0.31284 0.86882 0.72997 0.0
H1283 H 0.2763 0.91099 0.83123 0.0
H1284 H 0.26719 0.84404 0.85169 0.0
H1285 H 0.36579 0.73164 0.94993 0.0
H1286 H 0.34675 0.74256 0.88765 0.0
H1287 H 0.26374 0.6957 0.92087 0.0
H1288 H 0.28268 0.68366 0.98228 0.0
H1289 H 0.3053 0.78795 0.86454 0.0
H1290 H 0.22755 0.65648 0.84941 0.0
H1291 H 0.22487 0.58822 0.86892 0.0
H1292 H 0.31801 0.58387 0.87815 0.0
H1293 H 0.32133 0.65185 0.85798 0.0
C1294 C 0.21534 0.80113 0.72498 0.0
C1295 C 0.21927 0.7784 0.69319 0.0
C1296 C 0.22978 0.79188 0.75787 0.0
C1297 C 0.24887 0.76006 0.75966 0.0
C1298 C 0.25258 0.73717 0.72799 0.0
C1299 C 0.23793 0.74613 0.69525 0.0
C1300 C 0.26444 0.74995 0.79459 0.0
C1301 C 0.26288 0.71174 0.80778 0.0
C1302 C 0.28046 0.77754 0.81517 0.0
C1303 C 0.28479 0.81781 0.80221 0.0
C1304 C 0.29768 0.82521 0.76777 0.0
C1305 C 0.30277 0.86327 0.75643 0.0
C1306 C 0.29515 0.89415 0.77935 0.0
C1307 C 0.28222 0.88705 0.81354 0.0
C1308 C 0.27712 0.84907 0.82503 0.0
C1309 C 0.34364 0.72309 0.94378 0.0
C1310 C 0.32587 0.70672 0.97127 0.0
C1311 C 0.3327 0.72954 0.90818 0.0
C1312 C 0.30382 0.71968 0.89927 0.0
C1313 C 0.28624 0.7029 0.92659 0.0
C1314 C 0.29715 0.69621 0.96195 0.0
C1315 C 0.29149 0.72855 0.86212 0.0
C1316 C 0.29352 0.76652 0.84863 0.0
C1317 C 0.27634 0.70059 0.84098 0.0
C1318 C 0.27465 0.65942 0.85249 0.0
C1319 C 0.24748 0.64091 0.8554 0.0
C1320 C 0.24585 0.60227 0.86661 0.0
C1321 C 0.27124 0.58178 0.87493 0.0
C1322 C 0.29835 0.59982 0.87184 0.0
C1323 C 0.30012 0.63841 0.86052 0.0
H1324 H 0.26991 0.5519 0.8837 0.0
H1325 H 0.29935 0.92359 0.77073 0.0
H1326 H 0.15879 0.74923 0.45194 0.0
H1327 H 0.17904 0.73576 0.39055 0.0
H1328 H 0.25943 0.79096 0.4218 0.0
H1329 H 0.23967 0.80424 0.48272 0.0
H1330 H 0.20017 0.78103 0.33466 0.0
H1331 H 0.31168 0.75198 0.39402 0.0
H1332 H 0.33661 0.71914 0.44565 0.0
H1333 H 0.26744 0.63587 0.4517 0.0
H1334 H 0.2415 0.6694 0.40139 0.0
H1335 H 0.29887 0.77271 0.18045 0.0
H1336 H 0.27452 0.7882 0.23887 0.0
H1337 H 0.27845 0.66795 0.27029 0.0
H1338 H 0.3033 0.65259 0.21278 0.0
H1339 H 0.29337 0.70897 0.32568 0.0
H1340 H 0.21515 0.71472 0.23871 0.0
H1341 H 0.1889 0.73728 0.18353 0.0
H1342 H 0.18667 0.85268 0.22707 0.0
H1343 H 0.21359 0.83103 0.28213 0.0
C1344 C 0.18069 0.75877 0.44563 0.0
C1345 C 0.19755 0.7777 0.47252 0.0
C1346 C 0.19228 0.75097 0.41052 0.0
C1347 C 0.22101 0.76167 0.40167 0.0
C1348 C 0.23748 0.78157 0.4281 0.0
C1349 C 0.22598 0.78941 0.46299 0.0
C1350 C 0.23407 0.75217 0.36504 0.0
C1351 C 0.22055 0.76529 0.33261 0.0
C1352 C 0.26045 0.73126 0.36208 0.0
C1353 C 0.2746 0.71337 0.39441 0.0
C1354 C 0.30163 0.72703 0.40686 0.0
C1355 C 0.31584 0.70843 0.43597 0.0
C1356 C 0.30346 0.67566 0.45221 0.0
C1357 C 0.27675 0.66164 0.43956 0.0
C1358 C 0.26213 0.68068 0.41106 0.0
C1359 C 0.29438 0.74959 0.19977 0.0
C1360 C 0.30296 0.71139 0.19182 0.0
C1361 C 0.28034 0.75845 0.23312 0.0
C1362 C 0.27422 0.7292 0.25897 0.0
C1363 C 0.28288 0.69112 0.25098 0.0
C1364 C 0.29714 0.68235 0.21796 0.0
C1365 C 0.25967 0.73796 0.2949 0.0
C1366 C 0.27302 0.72486 0.32738 0.0
C1367 C 0.23284 0.75821 0.29757 0.0
C1368 C 0.21669 0.7713 0.26441 0.0
C1369 C 0.20934 0.74499 0.23638 0.0
C1370 C 0.1943 0.75761 0.20513 0.0
C1371 C 0.18613 0.79639 0.20179 0.0
C1372 C 0.19298 0.82263 0.22972 0.0
C1373 C 0.2082 0.81022 0.26091 0.0
H1374 H 0.17452 0.80611 0.17755 0.0
H1375 H 0.31463 0.66102 0.47446 0.0
loop_
_geom_bond_atom_site_label_1
_geom_bond_atom_site_label_2
_geom_bond_distance
_geom_bond_site_symmetry_2
_ccdc_geom_bond_type
Fe0 O2 1.918 . S
Fe0 O5 1.997 . S
Fe0 O6 2.002 . S
Fe0 O11 1.976 . S
Fe0 O14 1.996 . S
Fe1 O2 1.918 . S
Fe1 O9 1.997 . S
Fe1 O12 1.996 . S
Fe1 O16 1.976 . S
Fe1 O19 2.002 . S
O2 Fe0 1.918 . S
O2 Fe1 1.918 . S
O2 Fe3 1.918 . S
Fe3 O2 1.918 . S
Fe3 O4 2.002 . S
Fe3 O13 1.976 . S
Fe3 O17 1.996 . S
Fe3 O20 1.997 . S
O4 Fe3 2.002 . S
O4 C21 1.295 . S
O5 Fe0 1.997 . S
O5 C21 1.235 . S
O6 Fe0 2.002 . S
O6 C7 1.295 . S
C7 O6 1.295 . S
C7 O9 1.235 . S
C8 O13 1.287 . S
C8 O14 1.255 . S
O9 Fe1 1.997 . S
O9 C7 1.235 . S
C10 O16 1.287 . S
C10 O17 1.255 . S
O11 Fe0 1.976 . S
O11 C18 1.287 . S
O12 Fe1 1.996 . S
O12 C18 1.255 . S
O13 Fe3 1.976 . S
O13 C8 1.287 . S
O14 Fe0 1.996 . S
O14 C8 1.255 . S
C15 O19 1.295 . S
C15 O20 1.235 . S
O16 Fe1 1.976 . S
O16 C10 1.287 . S
O17 Fe3 1.996 . S
O17 C10 1.255 . S
C18 O11 1.287 . S
C18 O12 1.255 . S
O19 Fe1 2.002 . S
O19 C15 1.295 . S
O20 Fe3 1.997 . S
O20 C15 1.235 . S
C21 O4 1.295 . S
C21 O5 1.235 . S
Fe22 O24 1.918 . S
Fe22 O27 1.997 . S
Fe22 O28 2.002 . S
Fe22 O33 1.976 . S
Fe22 O36 1.996 . S
Fe23 O24 1.918 . S
Fe23 O31 1.997 . S
Fe23 O34 1.996 . S
Fe23 O38 1.976 . S
Fe23 O41 2.002 . S
O24 Fe22 1.918 . S
O24 Fe23 1.918 . S
O24 Fe25 1.918 . S
Fe25 O24 1.918 . S
Fe25 O26 2.002 . S
Fe25 O35 1.976 . S
Fe25 O39 1.996 . S
Fe25 O42 1.997 . S
O26 Fe25 2.002 . S
O26 C43 1.295 . S
O27 Fe22 1.997 . S
O27 C43 1.235 . S
O28 Fe22 2.002 . S
O28 C29 1.295 . S
C29 O28 1.295 . S
C29 O31 1.235 . S
C30 O35 1.287 . S
C30 O36 1.255 . S
O31 Fe23 1.997 . S
O31 C29 1.235 . S
C32 O38 1.287 . S
C32 O39 1.255 . S
O33 Fe22 1.976 . S
O33 C40 1.287 . S
O34 Fe23 1.996 . S
O34 C40 1.255 . S
O35 Fe25 1.976 . S
O35 C30 1.287 . S
O36 Fe22 1.996 . S
O36 C30 1.255 . S
C37 O41 1.295 . S
C37 O42 1.235 . S
O38 Fe23 1.976 . S
O38 C32 1.287 . S
O39 Fe25 1.996 . S
O39 C32 1.255 . S
C40 O33 1.287 . S
C40 O34 1.255 . S
O41 Fe23 2.002 . S
O41 C37 1.295 . S
O42 Fe25 1.997 . S
O42 C37 1.235 . S
C43 O26 1.295 . S
C43 O27 1.235 . S
Fe44 O46 1.918 . S
Fe44 O49 1.997 . S
Fe44 O50 2.002 . S
Fe44 O55 1.976 . S
Fe44 O58 1.996 . S
Fe45 O46 1.918 . S
Fe45 O53 1.997 . S
Fe45 O56 1.996 . S
Fe45 O60 1.976 . S
Fe45 O63 2.002 . S
O46 Fe44 1.918 . S
O46 Fe45 1.918 . S
O46 Fe47 1.918 . S
Fe47 O46 1.918 . S
Fe47 O48 2.002 . S
Fe47 O57 1.976 . S
Fe47 O61 1.996 . S
Fe47 O64 1.997 . S
O48 Fe47 2.002 . S
O48 C65 1.295 . S
O49 Fe44 1.997 . S
O49 C65 1.235 . S
O50 Fe44 2.002 . S
O50 C51 1.295 . S
C51 O50 1.295 . S
C51 O53 1.235 . S
C52 O57 1.287 . S
C52 O58 1.255 . S
O53 Fe45 1.997 . S
O53 C51 1.235 . S
C54 O60 1.287 . S
C54 O61 1.255 . S
O55 Fe44 1.976 . S
O55 C62 1.287 . S
O56 Fe45 1.996 . S
O56 C62 1.255 . S
O57 Fe47 1.976 . S
O57 C52 1.287 . S
O58 Fe44 1.996 . S
O58 C52 1.255 . S
C59 O63 1.295 . S
C59 O64 1.235 . S
O60 Fe45 1.976 . S
O60 C54 1.287 . S
O61 Fe47 1.996 . S
O61 C54 1.255 . S
C62 O55 1.287 . S
C62 O56 1.255 . S
O63 Fe45 2.002 . S
O63 C59 1.295 . S
O64 Fe47 1.997 . S
O64 C59 1.235 . S
C65 O48 1.295 . S
C65 O49 1.235 . S
Fe66 O68 1.918 . S
Fe66 O71 1.997 . S
Fe66 O72 2.002 . S
Fe66 O77 1.976 . S
Fe66 O80 1.996 . S
Fe67 O68 1.918 . S
Fe67 O75 1.997 . S
Fe67 O78 1.996 . S
Fe67 O82 1.976 . S
Fe67 O85 2.002 . S
O68 Fe66 1.918 . S
O68 Fe67 1.918 . S
O68 Fe69 1.918 . S
Fe69 O68 1.918 . S
Fe69 O70 2.002 . S
Fe69 O79 1.976 . S
Fe69 O83 1.996 . S
Fe69 O86 1.997 . S
O70 Fe69 2.002 . S
O70 C87 1.295 . S
O71 Fe66 1.997 . S
O71 C87 1.235 . S
O72 Fe66 2.002 . S
O72 C73 1.295 . S
C73 O72 1.295 . S
C73 O75 1.235 . S
C74 O79 1.287 . S
C74 O80 1.255 . S
O75 Fe67 1.997 . S
O75 C73 1.235 . S
C76 O82 1.287 . S
C76 O83 1.255 . S
O77 Fe66 1.976 . S
O77 C84 1.287 . S
O78 Fe67 1.996 . S
O78 C84 1.255 . S
O79 Fe69 1.976 . S
O79 C74 1.287 . S
O80 Fe66 1.996 . S
O80 C74 1.255 . S
C81 O85 1.295 . S
C81 O86 1.235 . S
O82 Fe67 1.976 . S
O82 C76 1.287 . S
O83 Fe69 1.996 . S
O83 C76 1.255 . S
C84 O77 1.287 . S
C84 O78 1.255 . S
O85 Fe67 2.002 . S
O85 C81 1.295 . S
O86 Fe69 1.997 . S
O86 C81 1.235 . S
C87 O70 1.295 . S
C87 O71 1.235 . S
Fe88 O90 1.918 . S
Fe88 O93 1.997 . S
Fe88 O94 2.002 . S
Fe88 O99 1.976 . S
Fe88 O102 1.996 . S
Fe89 O90 1.918 . S
Fe89 O97 1.997 . S
Fe89 O100 1.996 . S
Fe89 O104 1.976 . S
Fe89 O107 2.002 . S
O90 Fe88 1.918 . S
O90 Fe89 1.918 . S
O90 Fe91 1.918 . S
Fe91 O90 1.918 . S
Fe91 O92 2.002 . S
Fe91 O101 1.976 . S
Fe91 O105 1.996 . S
Fe91 O108 1.997 . S
O92 Fe91 2.002 . S
O92 C109 1.295 . S
O93 Fe88 1.997 . S
O93 C109 1.235 . S
O94 Fe88 2.002 . S
O94 C95 1.295 . S
C95 O94 1.295 . S
C95 O97 1.235 . S
C96 O101 1.287 . S
C96 O102 1.255 . S
O97 Fe89 1.997 . S
O97 C95 1.235 . S
C98 O104 1.287 . S
C98 O105 1.255 . S
O99 Fe88 1.976 . S
O99 C106 1.287 . S
O100 Fe89 1.996 . S
O100 C106 1.255 . S
O101 Fe91 1.976 . S
O101 C96 1.287 . S
O102 Fe88 1.996 . S
O102 C96 1.255 . S
C103 O107 1.295 . S
C103 O108 1.235 . S
O104 Fe89 1.976 . S
O104 C98 1.287 . S
O105 Fe91 1.996 . S
O105 C98 1.255 . S
C106 O99 1.287 . S
C106 O100 1.255 . S
O107 Fe89 2.002 . S
O107 C103 1.295 . S
O108 Fe91 1.997 . S
O108 C103 1.235 . S
C109 O92 1.295 . S
C109 O93 1.235 . S
Fe110 O112 1.918 . S
Fe110 O115 1.997 . S
Fe110 O116 2.002 . S
Fe110 O121 1.976 . S
Fe110 O124 1.996 . S
Fe111 O112 1.918 . S
Fe111 O119 1.997 . S
Fe111 O122 1.996 . S
Fe111 O126 1.976 . S
Fe111 O129 2.002 . S
O112 Fe110 1.918 . S
O112 Fe111 1.918 . S
O112 Fe113 1.918 . S
Fe113 O112 1.918 . S
Fe113 O114 2.002 . S
Fe113 O123 1.976 . S
Fe113 O127 1.996 . S
Fe113 O130 1.997 . S
O114 Fe113 2.002 . S
O114 C131 1.295 . S
O115 Fe110 1.997 . S
O115 C131 1.235 . S
O116 Fe110 2.002 . S
O116 C117 1.295 . S
C117 O116 1.295 . S
C117 O119 1.235 . S
C118 O123 1.287 . S
C118 O124 1.255 . S
O119 Fe111 1.997 . S
O119 C117 1.235 . S
C120 O126 1.287 . S
C120 O127 1.255 . S
O121 Fe110 1.976 . S
O121 C128 1.287 . S
O122 Fe111 1.996 . S
O122 C128 1.255 . S
O123 Fe113 1.976 . S
O123 C118 1.287 . S
O124 Fe110 1.996 . S
O124 C118 1.255 . S
C125 O129 1.295 . S
C125 O130 1.235 . S
O126 Fe111 1.976 . S
O126 C120 1.287 . S
O127 Fe113 1.996 . S
O127 C120 1.255 . S
C128 O121 1.287 . S
C128 O122 1.255 . S
O129 Fe111 2.002 . S
O129 C125 1.295 . S
O130 Fe113 1.997 . S
O130 C125 1.235 . S
C131 O114 1.295 . S
C131 O115 1.235 . S
Fe132 O134 1.918 . S
Fe132 O137 1.997 . S
Fe132 O138 2.002 . S
Fe132 O143 1.976 . S
Fe132 O146 1.996 . S
Fe133 O134 1.918 . S
Fe133 O141 1.997 . S
Fe133 O144 1.996 . S
Fe133 O148 1.976 . S
Fe133 O151 2.002 . S
O134 Fe132 1.918 . S
O134 Fe133 1.918 . S
O134 Fe135 1.918 . S
Fe135 O134 1.918 . S
Fe135 O136 2.002 . S
Fe135 O145 1.976 . S
Fe135 O149 1.996 . S
Fe135 O152 1.997 . S
O136 Fe135 2.002 . S
O136 C153 1.295 . S
O137 Fe132 1.997 . S
O137 C153 1.235 . S
O138 Fe132 2.002 . S
O138 C139 1.295 . S
C139 O138 1.295 . S
C139 O141 1.235 . S
C140 O145 1.287 . S
C140 O146 1.255 . S
O141 Fe133 1.997 . S
O141 C139 1.235 . S
C142 O148 1.287 . S
C142 O149 1.255 . S
O143 Fe132 1.976 . S
O143 C150 1.287 . S
O144 Fe133 1.996 . S
O144 C150 1.255 . S
O145 Fe135 1.976 . S
O145 C140 1.287 . S
O146 Fe132 1.996 . S
O146 C140 1.255 . S
C147 O151 1.295 . S
C147 O152 1.235 . S
O148 Fe133 1.976 . S
O148 C142 1.287 . S
O149 Fe135 1.996 . S
O149 C142 1.255 . S
C150 O143 1.287 . S
C150 O144 1.255 . S
O151 Fe133 2.002 . S
O151 C147 1.295 . S
O152 Fe135 1.997 . S
O152 C147 1.235 . S
C153 O136 1.295 . S
C153 O137 1.235 . S
Fe154 O156 1.918 . S
Fe154 O159 1.997 . S
Fe154 O160 2.002 . S
Fe154 O165 1.976 . S
Fe154 O168 1.996 . S
Fe155 O156 1.918 . S
Fe155 O163 1.997 . S
Fe155 O166 1.996 . S
Fe155 O170 1.976 . S
Fe155 O173 2.002 . S
O156 Fe154 1.918 . S
O156 Fe155 1.918 . S
O156 Fe157 1.918 . S
Fe157 O156 1.918 . S
Fe157 O158 2.002 . S
Fe157 O167 1.976 . S
Fe157 O171 1.996 . S
Fe157 O174 1.997 . S
O158 Fe157 2.002 . S
O158 C175 1.295 . S
O159 Fe154 1.997 . S
O159 C175 1.235 . S
O160 Fe154 2.002 . S
O160 C161 1.295 . S
C161 O160 1.295 . S
C161 O163 1.235 . S
C162 O167 1.287 . S
C162 O168 1.255 . S
O163 Fe155 1.997 . S
O163 C161 1.235 . S
C164 O170 1.287 . S
C164 O171 1.255 . S
O165 Fe154 1.976 . S
O165 C172 1.287 . S
O166 Fe155 1.996 . S
O166 C172 1.255 . S
O167 Fe157 1.976 . S
O167 C162 1.287 . S
O168 Fe154 1.996 . S
O168 C162 1.255 . S
C169 O173 1.295 . S
C169 O174 1.235 . S
O170 Fe155 1.976 . S
O170 C164 1.287 . S
O171 Fe157 1.996 . S
O171 C164 1.255 . S
C172 O165 1.287 . S
C172 O166 1.255 . S
O173 Fe155 2.002 . S
O173 C169 1.295 . S
O174 Fe157 1.997 . S
O174 C169 1.235 . S
C175 O158 1.295 . S
C175 O159 1.235 . S
H176 C194 0.951 . S
H177 C196 0.951 . S
H178 C198 0.950 . S
H179 C199 0.950 . S
H180 C201 0.950 . S
H181 C204 0.950 . S
H182 C205 0.950 . S
H183 C207 0.950 . S
H184 C208 0.950 . S
H185 C209 0.951 . S
H186 C211 0.951 . S
H187 C213 0.950 . S
H188 C214 0.950 . S
H189 C216 0.950 . S
H190 C219 0.950 . S
H191 C220 0.950 . S
H192 C222 0.950 . S
H193 C223 0.950 . S
C194 H176 0.951 . S
C194 C195 1.366 . S
C194 C196 1.388 . S
C195 C194 1.366 . S
C195 C199 1.385 . S
C196 H177 0.951 . S
C196 C194 1.388 . S
C196 C197 1.366 . S
C197 C196 1.366 . S
C197 C198 1.414 . S
C197 C200 1.499 . S
C198 H178 0.950 . S
C198 C197 1.414 . S
C198 C199 1.374 . S
C199 H179 0.950 . S
C199 C195 1.385 . S
C199 C198 1.374 . S
C200 C197 1.499 . S
C200 C201 1.373 1_455 S
C200 C202 1.389 . S
C201 H180 0.950 . S
C201 C200 1.373 1_655 S
C201 C217 1.377 . S
C202 C200 1.389 . S
C202 C203 1.524 . S
C202 C216 1.377 . S
C203 C202 1.524 . S
C203 C204 1.397 . S
C203 C208 1.363 . S
C204 H181 0.950 . S
C204 C203 1.397 . S
C204 C205 1.334 . S
C205 H182 0.950 . S
C205 C204 1.334 . S
C205 C206 1.287 . S
C206 C205 1.287 . S
C206 C207 1.524 . S
C206 H225 0.913 . S
C207 H183 0.950 . S
C207 C206 1.524 . S
C207 C208 1.415 . S
C208 H184 0.950 . S
C208 C203 1.363 . S
C208 C207 1.415 . S
C209 H185 0.951 . S
C209 C210 1.366 . S
C209 C211 1.388 . S
C210 C209 1.366 . S
C210 C214 1.385 . S
C211 H186 0.951 . S
C211 C209 1.388 . S
C211 C212 1.366 . S
C212 C211 1.366 . S
C212 C213 1.414 . S
C212 C215 1.499 . S
C213 H187 0.950 . S
C213 C212 1.414 . S
C213 C214 1.374 . S
C214 H188 0.950 . S
C214 C210 1.385 . S
C214 C213 1.374 . S
C215 C212 1.499 . S
C215 C216 1.373 1_655 S
C215 C217 1.389 . S
C216 H189 0.950 . S
C216 C202 1.377 . S
C216 C215 1.373 1_455 S
C217 C201 1.377 . S
C217 C215 1.389 . S
C217 C218 1.524 . S
C218 C217 1.524 . S
C218 C219 1.397 . S
C218 C223 1.363 . S
C219 H190 0.950 . S
C219 C218 1.397 . S
C219 C220 1.334 . S
C220 H191 0.950 . S
C220 C219 1.334 . S
C220 C221 1.287 . S
C221 C220 1.287 . S
C221 C222 1.524 . S
C221 H224 0.999 . S
C222 H192 0.950 . S
C222 C221 1.524 . S
C222 C223 1.415 . S
C223 H193 0.950 . S
C223 C218 1.363 . S
C223 C222 1.415 . S
H224 C221 0.999 . S
H225 C206 0.913 . S
H226 C244 0.951 . S
H227 C246 0.951 . S
H228 C248 0.950 . S
H229 C249 0.950 . S
H230 C251 0.950 . S
H231 C254 0.950 . S
H232 C255 0.950 . S
H233 C257 0.950 . S
H234 C258 0.950 . S
H235 C259 0.951 . S
H236 C261 0.951 . S
H237 C263 0.950 . S
H238 C264 0.950 . S
H239 C266 0.950 . S
H240 C269 0.950 . S
H241 C270 0.950 . S
H242 C272 0.950 . S
H243 C273 0.950 . S
C244 H226 0.951 . S
C244 C245 1.366 . S
C244 C246 1.388 . S
C245 C244 1.366 . S
C245 C249 1.385 . S
C246 H227 0.951 . S
C246 C244 1.388 . S
C246 C247 1.366 . S
C247 C246 1.366 . S
C247 C248 1.414 . S
C247 C250 1.499 . S
C248 H228 0.950 . S
C248 C247 1.414 . S
C248 C249 1.374 . S
C249 H229 0.950 . S
C249 C245 1.385 . S
C249 C248 1.374 . S
C250 C247 1.499 . S
C250 C251 1.373 . S
C250 C252 1.389 . S
C251 H230 0.950 . S
C251 C250 1.373 . S
C251 C267 1.377 . S
C252 C250 1.389 . S
C252 C253 1.524 . S
C252 C266 1.377 . S
C253 C252 1.524 . S
C253 C254 1.397 . S
C253 C258 1.363 . S
C254 H231 0.950 . S
C254 C253 1.397 . S
C254 C255 1.334 . S
C255 H232 0.950 . S
C255 C254 1.334 . S
C255 C256 1.287 . S
C256 C255 1.287 . S
C256 C257 1.524 . S
C256 H275 0.913 . S
C257 H233 0.950 . S
C257 C256 1.524 . S
C257 C258 1.415 . S
C258 H234 0.950 . S
C258 C253 1.363 . S
C258 C257 1.415 . S
C259 H235 0.951 . S
C259 C260 1.366 . S
C259 C261 1.388 . S
C260 C259 1.366 . S
C260 C264 1.385 . S
C261 H236 0.951 . S
C261 C259 1.388 . S
C261 C262 1.366 . S
C262 C261 1.366 . S
C262 C263 1.414 . S
C262 C265 1.499 . S
C263 H237 0.950 . S
C263 C262 1.414 . S
C263 C264 1.374 . S
C264 H238 0.950 . S
C264 C260 1.385 . S
C264 C263 1.374 . S
C265 C262 1.499 . S
C265 C266 1.373 . S
C265 C267 1.389 . S
C266 H239 0.950 . S
C266 C252 1.377 . S
C266 C265 1.373 . S
C267 C251 1.377 . S
C267 C265 1.389 . S
C267 C268 1.524 . S
C268 C267 1.524 . S
C268 C269 1.397 . S
C268 C273 1.363 . S
C269 H240 0.950 . S
C269 C268 1.397 . S
C269 C270 1.334 . S
C270 H241 0.950 . S
C270 C269 1.334 . S
C270 C271 1.287 . S
C271 C270 1.287 . S
C271 C272 1.524 . S
C271 H274 0.999 . S
C272 H242 0.950 . S
C272 C271 1.524 . S
C272 C273 1.415 . S
C273 H243 0.950 . S
C273 C268 1.363 . S
C273 C272 1.415 . S
H274 C271 0.999 . S
H275 C256 0.913 . S
H276 C294 0.951 . S
H277 C296 0.951 . S
H278 C298 0.950 . S
H279 C299 0.950 . S
H280 C301 0.950 . S
H281 C304 0.950 1_655 S
H282 C305 0.950 . S
H283 C307 0.950 . S
H284 C308 0.950 . S
H285 C309 0.951 . S
H286 C311 0.951 . S
H287 C313 0.950 . S
H288 C314 0.950 . S
H289 C316 0.950 . S
H290 C319 0.950 1_455 S
H291 C320 0.950 . S
H292 C322 0.950 . S
H293 C323 0.950 . S
C294 H276 0.951 . S
C294 C295 1.366 . S
C294 C296 1.388 . S
C295 C294 1.366 . S
C295 C299 1.385 . S
C296 H277 0.951 . S
C296 C294 1.388 . S
C296 C297 1.366 . S
C297 C296 1.366 . S
C297 C298 1.414 . S
C297 C300 1.499 . S
C298 H278 0.950 . S
C298 C297 1.414 . S
C298 C299 1.374 . S
C299 H279 0.950 . S
C299 C295 1.385 . S
C299 C298 1.374 . S
C300 C297 1.499 . S
C300 C301 1.373 . S
C300 C302 1.389 1_655 S
C301 H280 0.950 . S
C301 C300 1.373 . S
C301 C317 1.377 . S
C302 C300 1.389 1_455 S
C302 C303 1.524 . S
C302 C316 1.377 . S
C303 C302 1.524 . S
C303 C304 1.397 . S
C303 C308 1.363 . S
C304 H281 0.950 1_455 S
C304 C303 1.397 . S
C304 C305 1.334 . S
C305 H282 0.950 . S
C305 C304 1.334 . S
C305 C306 1.287 . S
C306 C305 1.287 . S
C306 C307 1.524 . S
C306 H325 0.913 . S
C307 H283 0.950 . S
C307 C306 1.524 . S
C307 C308 1.415 . S
C308 H284 0.950 . S
C308 C303 1.363 . S
C308 C307 1.415 . S
C309 H285 0.951 . S
C309 C310 1.366 . S
C309 C311 1.388 . S
C310 C309 1.366 . S
C310 C314 1.385 . S
C311 H286 0.951 . S
C311 C309 1.388 . S
C311 C312 1.366 . S
C312 C311 1.366 . S
C312 C313 1.414 . S
C312 C315 1.499 . S
C313 H287 0.950 . S
C313 C312 1.414 . S
C313 C314 1.374 . S
C314 H288 0.950 . S
C314 C310 1.385 . S
C314 C313 1.374 . S
C315 C312 1.499 . S
C315 C316 1.373 . S
C315 C317 1.389 1_455 S
C316 H289 0.950 . S
C316 C302 1.377 . S
C316 C315 1.373 . S
C317 C301 1.377 . S
C317 C315 1.389 1_655 S
C317 C318 1.524 . S
C318 C317 1.524 . S
C318 C319 1.397 . S
C318 C323 1.363 . S
C319 H290 0.950 1_655 S
C319 C318 1.397 . S
C319 C320 1.334 . S
C320 H291 0.950 . S
C320 C319 1.334 . S
C320 C321 1.287 . S
C321 C320 1.287 . S
C321 C322 1.524 . S
C321 H324 0.999 . S
C322 H292 0.950 . S
C322 C321 1.524 . S
C322 C323 1.415 . S
C323 H293 0.950 . S
C323 C318 1.363 . S
C323 C322 1.415 . S
H324 C321 0.999 . S
H325 C306 0.913 . S
H326 C344 0.951 . S
H327 C346 0.951 . S
H328 C348 0.950 . S
H329 C349 0.950 . S
H330 C351 0.950 . S
H331 C354 0.950 . S
H332 C355 0.950 . S
H333 C357 0.950 . S
H334 C358 0.950 . S
H335 C359 0.951 . S
H336 C361 0.951 . S
H337 C363 0.950 . S
H338 C364 0.950 . S
H339 C366 0.950 . S
H340 C369 0.950 . S
H341 C370 0.950 . S
H342 C372 0.950 . S
H343 C373 0.950 . S
C344 H326 0.951 . S
C344 C345 1.366 . S
C344 C346 1.388 . S
C345 C344 1.366 . S
C345 C349 1.385 . S
C346 H327 0.951 . S
C346 C344 1.388 . S
C346 C347 1.366 . S
C347 C346 1.366 . S
C347 C348 1.414 . S
C347 C350 1.499 . S
C348 H328 0.950 . S
C348 C347 1.414 . S
C348 C349 1.374 . S
C349 H329 0.950 . S
C349 C345 1.385 . S
C349 C348 1.374 . S
C350 C347 1.499 . S
C350 C351 1.373 . S
C350 C352 1.389 . S
C351 H330 0.950 . S
C351 C350 1.373 . S
C351 C367 1.377 . S
C352 C350 1.389 . S
C352 C353 1.524 . S
C352 C366 1.377 . S
C353 C352 1.524 . S
C353 C354 1.397 . S
C353 C358 1.363 . S
C354 H331 0.950 . S
C354 C353 1.397 . S
C354 C355 1.334 . S
C355 H332 0.950 . S
C355 C354 1.334 . S
C355 C356 1.287 . S
C356 C355 1.287 . S
C356 C357 1.524 . S
C356 H375 0.913 . S
C357 H333 0.950 . S
C357 C356 1.524 . S
C357 C358 1.415 . S
C358 H334 0.950 . S
C358 C353 1.363 . S
C358 C357 1.415 . S
C359 H335 0.951 . S
C359 C360 1.366 . S
C359 C361 1.388 . S
C360 C359 1.366 . S
C360 C364 1.385 . S
C361 H336 0.951 . S
C361 C359 1.388 . S
C361 C362 1.366 . S
C362 C361 1.366 . S
C362 C363 1.414 . S
C362 C365 1.499 . S
C363 H337 0.950 . S
C363 C362 1.414 . S
C363 C364 1.374 . S
C364 H338 0.950 . S
C364 C360 1.385 . S
C364 C363 1.374 . S
C365 C362 1.499 . S
C365 C366 1.373 . S
C365 C367 1.389 . S
C366 H339 0.950 . S
C366 C352 1.377 . S
C366 C365 1.373 . S
C367 C351 1.377 . S
C367 C365 1.389 . S
C367 C368 1.524 . S
C368 C367 1.524 . S
C368 C369 1.397 . S
C368 C373 1.363 . S
C369 H340 0.950 . S
C369 C368 1.397 . S
C369 C370 1.334 . S
C370 H341 0.950 . S
C370 C369 1.334 . S
C370 C371 1.287 . S
C371 C370 1.287 . S
C371 C372 1.524 . S
C371 H374 0.999 . S
C372 H342 0.950 . S
C372 C371 1.524 . S
C372 C373 1.415 . S
C373 H343 0.950 . S
C373 C368 1.363 . S
C373 C372 1.415 . S
H374 C371 0.999 . S
H375 C356 0.913 . S
H376 C394 0.951 . S
H377 C396 0.951 . S
H378 C398 0.922 1_556 S
H379 C399 0.950 1_556 S
H380 C401 0.950 . S
H381 C404 0.950 . S
H382 C405 0.950 . S
H383 C407 0.950 . S
H384 C408 0.950 . S
H385 C409 0.951 . S
H386 C411 0.951 . S
H387 C413 0.954 . S
H388 C414 0.950 1_554 S
H389 C416 0.950 . S
H390 C419 0.950 . S
H391 C420 0.950 . S
H392 C422 0.950 . S
H393 C423 0.950 . S
C394 H376 0.951 . S
C394 C395 1.366 . S
C394 C396 1.388 . S
C395 C394 1.366 . S
C395 C399 1.385 . S
C396 H377 0.951 . S
C396 C394 1.388 . S
C396 C397 1.366 . S
C397 C396 1.366 . S
C397 C398 1.433 . S
C397 C400 1.499 . S
C398 H378 0.922 1_554 S
C398 C397 1.433 . S
C398 C399 1.384 . S
C399 H379 0.950 1_554 S
C399 C395 1.385 . S
C399 C398 1.384 . S
C400 C397 1.499 . S
C400 C401 1.373 1_554 S
C400 C402 1.389 1_545 S
C401 H380 0.950 . S
C401 C400 1.373 1_556 S
C401 C417 1.377 1_455 S
C402 C400 1.389 1_565 S
C402 C403 1.524 . S
C402 C416 1.377 1_455 S
C403 C402 1.524 . S
C403 C404 1.397 . S
C403 C408 1.363 . S
C404 H381 0.950 . S
C404 C403 1.397 . S
C404 C405 1.334 . S
C405 H382 0.950 . S
C405 C404 1.334 . S
C405 C406 1.287 . S
C406 C405 1.287 . S
C406 C407 1.524 . S
C406 H425 0.913 . S
C407 H383 0.950 . S
C407 C406 1.524 . S
C407 C408 1.415 . S
C408 H384 0.950 . S
C408 C403 1.363 . S
C408 C407 1.415 . S
C409 H385 0.951 . S
C409 C410 1.366 . S
C409 C411 1.388 . S
C410 C409 1.366 . S
C410 C414 1.385 . S
C411 H386 0.951 . S
C411 C409 1.388 . S
C411 C412 1.366 . S
C412 C411 1.366 . S
C412 C413 1.412 1_556 S
C412 C415 1.499 . S
C413 H387 0.954 . S
C413 C412 1.412 1_554 S
C413 C414 1.373 1_554 S
C414 H388 0.950 1_556 S
C414 C410 1.385 . S
C414 C413 1.373 1_556 S
C415 C412 1.499 . S
C415 C416 1.373 1_556 S
C415 C417 1.389 1_565 S
C416 H389 0.950 . S
C416 C402 1.377 1_655 S
C416 C415 1.373 1_554 S
C417 C401 1.377 1_655 S
C417 C415 1.389 1_545 S
C417 C418 1.524 . S
C418 C417 1.524 . S
C418 C419 1.397 . S
C418 C423 1.363 . S
C419 H390 0.950 . S
C419 C418 1.397 . S
C419 C420 1.334 . S
C420 H391 0.950 . S
C420 C419 1.334 . S
C420 C421 1.287 . S
C421 C420 1.287 . S
C421 C422 1.524 . S
C421 H424 0.999 . S
C422 H392 0.950 . S
C422 C421 1.524 . S
C422 C423 1.415 . S
C423 H393 0.950 . S
C423 C418 1.363 . S
C423 C422 1.415 . S
H424 C421 0.999 . S
H425 C406 0.913 . S
H426 C444 0.951 . S
H427 C446 0.951 . S
H428 C448 0.950 . S
H429 C449 0.950 . S
H430 C451 0.950 . S
H431 C454 0.950 . S
H432 C455 0.950 . S
H433 C457 0.950 . S
H434 C458 0.950 . S
H435 C459 0.951 . S
H436 C461 0.951 . S
H437 C463 0.950 . S
H438 C464 0.950 . S
H439 C466 0.950 . S
H440 C469 0.950 . S
H441 C470 0.950 . S
H442 C472 0.950 . S
H443 C473 0.950 . S
C444 H426 0.951 . S
C444 C445 1.366 . S
C444 C446 1.388 . S
C445 C444 1.366 . S
C445 C449 1.385 . S
C446 H427 0.951 . S
C446 C444 1.388 . S
C446 C447 1.366 . S
C447 C446 1.366 . S
C447 C448 1.414 . S
C447 C450 1.499 . S
C448 H428 0.950 . S
C448 C447 1.414 . S
C448 C449 1.374 . S
C449 H429 0.950 . S
C449 C445 1.385 . S
C449 C448 1.374 . S
C450 C447 1.499 . S
C450 C451 1.373 . S
C450 C452 1.389 . S
C451 H430 0.950 . S
C451 C450 1.373 . S
C451 C467 1.377 . S
C452 C450 1.389 . S
C452 C453 1.524 . S
C452 C466 1.377 . S
C453 C452 1.524 . S
C453 C454 1.397 . S
C453 C458 1.363 . S
C454 H431 0.950 . S
C454 C453 1.397 . S
C454 C455 1.334 . S
C455 H432 0.950 . S
C455 C454 1.334 . S
C455 C456 1.287 . S
C456 C455 1.287 . S
C456 C457 1.524 . S
C456 H475 0.913 . S
C457 H433 0.950 . S
C457 C456 1.524 . S
C457 C458 1.415 . S
C458 H434 0.950 . S
C458 C453 1.363 . S
C458 C457 1.415 . S
C459 H435 0.951 . S
C459 C460 1.366 . S
C459 C461 1.388 . S
C460 C459 1.366 . S
C460 C464 1.385 . S
C461 H436 0.951 . S
C461 C459 1.388 . S
C461 C462 1.366 . S
C462 C461 1.366 . S
C462 C463 1.414 . S
C462 C465 1.499 . S
C463 H437 0.950 . S
C463 C462 1.414 . S
C463 C464 1.374 . S
C464 H438 0.950 . S
C464 C460 1.385 . S
C464 C463 1.374 . S
C465 C462 1.499 . S
C465 C466 1.373 . S
C465 C467 1.389 . S
C466 H439 0.950 . S
C466 C452 1.377 . S
C466 C465 1.373 . S
C467 C451 1.377 . S
C467 C465 1.389 . S
C467 C468 1.524 . S
C468 C467 1.524 . S
C468 C469 1.397 . S
C468 C473 1.363 . S
C469 H440 0.950 . S
C469 C468 1.397 . S
C469 C470 1.334 . S
C470 H441 0.950 . S
C470 C469 1.334 . S
C470 C471 1.287 . S
C471 C470 1.287 . S
C471 C472 1.524 . S
C471 H474 0.999 . S
C472 H442 0.950 . S
C472 C471 1.524 . S
C472 C473 1.415 . S
C473 H443 0.950 . S
C473 C468 1.363 . S
C473 C472 1.415 . S
H474 C471 0.999 . S
H475 C456 0.913 . S
H476 C494 0.951 . S
H477 C496 0.951 . S
H478 C498 0.950 . S
H479 C499 0.950 . S
H480 C501 0.950 . S
H481 C504 0.950 . S
H482 C505 0.950 . S
H483 C507 0.950 . S
H484 C508 0.950 . S
H485 C509 0.951 . S
H486 C511 0.951 . S
H487 C513 0.950 . S
H488 C514 0.950 . S
H489 C516 0.950 . S
H490 C519 0.950 . S
H491 C520 0.950 . S
H492 C522 0.950 . S
H493 C523 0.950 . S
C494 H476 0.951 . S
C494 C495 1.366 . S
C494 C496 1.388 . S
C495 C494 1.366 . S
C495 C499 1.385 . S
C496 H477 0.951 . S
C496 C494 1.388 . S
C496 C497 1.366 . S
C497 C496 1.366 . S
C497 C498 1.414 . S
C497 C500 1.499 . S
C498 H478 0.950 . S
C498 C497 1.414 . S
C498 C499 1.374 . S
C499 H479 0.950 . S
C499 C495 1.385 . S
C499 C498 1.374 . S
C500 C497 1.499 . S
C500 C501 1.373 1_554 S
C500 C502 1.389 . S
C501 H480 0.950 . S
C501 C500 1.373 1_556 S
C501 C517 1.377 . S
C502 C500 1.389 . S
C502 C503 1.524 . S
C502 C516 1.377 . S
C503 C502 1.524 . S
C503 C504 1.397 . S
C503 C508 1.363 . S
C504 H481 0.950 . S
C504 C503 1.397 . S
C504 C505 1.334 . S
C505 H482 0.950 . S
C505 C504 1.334 . S
C505 C506 1.287 . S
C506 C505 1.287 . S
C506 C507 1.524 . S
C506 H525 0.913 . S
C507 H483 0.950 . S
C507 C506 1.524 . S
C507 C508 1.415 . S
C508 H484 0.950 . S
C508 C503 1.363 . S
C508 C507 1.415 . S
C509 H485 0.951 . S
C509 C510 1.366 . S
C509 C511 1.388 . S
C510 C509 1.366 . S
C510 C514 1.385 . S
C511 H486 0.951 . S
C511 C509 1.388 . S
C511 C512 1.366 . S
C512 C511 1.366 . S
C512 C513 1.414 . S
C512 C515 1.499 . S
C513 H487 0.950 . S
C513 C512 1.414 . S
C513 C514 1.374 . S
C514 H488 0.950 . S
C514 C510 1.385 . S
C514 C513 1.374 . S
C515 C512 1.499 . S
C515 C516 1.373 1_556 S
C515 C517 1.389 . S
C516 H489 0.950 . S
C516 C502 1.377 . S
C516 C515 1.373 1_554 S
C517 C501 1.377 . S
C517 C515 1.389 . S
C517 C518 1.524 . S
C518 C517 1.524 . S
C518 C519 1.397 . S
C518 C523 1.363 . S
C519 H490 0.950 . S
C519 C518 1.397 . S
C519 C520 1.334 . S
C520 H491 0.950 . S
C520 C519 1.334 . S
C520 C521 1.287 . S
C521 C520 1.287 . S
C521 C522 1.524 . S
C521 H524 0.999 . S
C522 H492 0.950 . S
C522 C521 1.524 . S
C522 C523 1.415 . S
C523 H493 0.950 . S
C523 C518 1.363 . S
C523 C522 1.415 . S
H524 C521 0.999 . S
H525 C506 0.913 . S
H526 C544 0.951 . S
H527 C546 0.951 . S
H528 C548 0.950 . S
H529 C549 0.950 . S
H530 C551 0.950 . S
H531 C554 0.950 . S
H532 C555 0.950 . S
H533 C557 0.950 . S
H534 C558 0.950 . S
H535 C559 0.951 . S
H536 C561 0.951 . S
H537 C563 0.950 . S
H538 C564 0.950 . S
H539 C566 0.950 . S
H540 C569 0.950 . S
H541 C570 0.950 . S
H542 C572 0.950 . S
H543 C573 0.950 . S
C544 H526 0.951 . S
C544 C545 1.366 . S
C544 C546 1.388 . S
C545 C544 1.366 . S
C545 C549 1.385 . S
C546 H527 0.951 . S
C546 C544 1.388 . S
C546 C547 1.366 . S
C547 C546 1.366 . S
C547 C548 1.414 . S
C547 C550 1.499 . S
C548 H528 0.950 . S
C548 C547 1.414 . S
C548 C549 1.374 . S
C549 H529 0.950 . S
C549 C545 1.385 . S
C549 C548 1.374 . S
C550 C547 1.499 . S
C550 C551 1.373 1_545 S
C550 C552 1.389 1_655 S
C551 H530 0.950 . S
C551 C550 1.373 1_565 S
C551 C567 1.377 . S
C552 C550 1.389 1_455 S
C552 C553 1.524 . S
C552 C566 1.377 . S
C553 C552 1.524 . S
C553 C554 1.397 . S
C553 C558 1.363 . S
C554 H531 0.950 . S
C554 C553 1.397 . S
C554 C555 1.334 . S
C555 H532 0.950 . S
C555 C554 1.334 . S
C555 C556 1.287 . S
C556 C555 1.287 . S
C556 C557 1.524 . S
C556 H575 0.913 . S
C557 H533 0.950 . S
C557 C556 1.524 . S
C557 C558 1.415 . S
C558 H534 0.950 . S
C558 C553 1.363 . S
C558 C557 1.415 . S
C559 H535 0.951 . S
C559 C560 1.366 . S
C559 C561 1.388 . S
C560 C559 1.366 . S
C560 C564 1.385 . S
C561 H536 0.951 . S
C561 C559 1.388 . S
C561 C562 1.366 . S
C562 C561 1.366 . S
C562 C563 1.414 . S
C562 C565 1.499 . S
C563 H537 0.950 . S
C563 C562 1.414 . S
C563 C564 1.374 . S
C564 H538 0.950 . S
C564 C560 1.385 . S
C564 C563 1.374 . S
C565 C562 1.499 . S
C565 C566 1.373 1_565 S
C565 C567 1.389 1_455 S
C566 H539 0.950 . S
C566 C552 1.377 . S
C566 C565 1.373 1_545 S
C567 C551 1.377 . S
C567 C565 1.389 1_655 S
C567 C568 1.524 . S
C568 C567 1.524 . S
C568 C569 1.397 . S
C568 C573 1.363 . S
C569 H540 0.950 . S
C569 C568 1.397 . S
C569 C570 1.334 . S
C570 H541 0.950 . S
C570 C569 1.334 . S
C570 C571 1.287 . S
C571 C570 1.287 . S
C571 C572 1.524 . S
C571 H574 0.999 . S
C572 H542 0.950 . S
C572 C571 1.524 . S
C572 C573 1.415 . S
C573 H543 0.950 . S
C573 C568 1.363 . S
C573 C572 1.415 . S
H574 C571 0.999 . S
H575 C556 0.913 . S
H576 C594 0.951 . S
H577 C596 0.951 . S
H578 C598 0.950 . S
H579 C599 0.950 . S
H580 C601 0.950 . S
H581 C604 0.950 . S
H582 C605 0.950 . S
H583 C607 0.950 . S
H584 C608 0.950 . S
H585 C609 0.951 . S
H586 C611 0.951 . S
H587 C613 0.950 . S
H588 C614 0.950 . S
H589 C616 0.950 . S
H590 C619 0.950 . S
H591 C620 0.950 . S
H592 C622 0.950 . S
H593 C623 0.950 . S
C594 H576 0.951 . S
C594 C595 1.366 . S
C594 C596 1.388 . S
C595 C594 1.366 . S
C595 C599 1.385 . S
C596 H577 0.951 . S
C596 C594 1.388 . S
C596 C597 1.366 . S
C597 C596 1.366 . S
C597 C598 1.414 . S
C597 C600 1.499 . S
C598 H578 0.950 . S
C598 C597 1.414 . S
C598 C599 1.374 . S
C599 H579 0.950 . S
C599 C595 1.385 . S
C599 C598 1.374 . S
C600 C597 1.499 . S
C600 C601 1.373 . S
C600 C602 1.389 . S
C601 H580 0.950 . S
C601 C600 1.373 . S
C601 C617 1.377 . S
C602 C600 1.389 . S
C602 C603 1.524 . S
C602 C616 1.377 . S
C603 C602 1.524 . S
C603 C604 1.397 . S
C603 C608 1.363 . S
C604 H581 0.950 . S
C604 C603 1.397 . S
C604 C605 1.334 . S
C605 H582 0.950 . S
C605 C604 1.334 . S
C605 C606 1.287 . S
C606 C605 1.287 . S
C606 C607 1.524 . S
C606 H625 0.913 . S
C607 H583 0.950 . S
C607 C606 1.524 . S
C607 C608 1.415 . S
C608 H584 0.950 . S
C608 C603 1.363 . S
C608 C607 1.415 . S
C609 H585 0.951 . S
C609 C610 1.366 . S
C609 C611 1.388 . S
C610 C609 1.366 . S
C610 C614 1.385 . S
C611 H586 0.951 . S
C611 C609 1.388 . S
C611 C612 1.366 . S
C612 C611 1.366 . S
C612 C613 1.414 . S
C612 C615 1.482 1_545 S
C613 H587 0.950 . S
C613 C612 1.414 . S
C613 C614 1.374 . S
C614 H588 0.950 . S
C614 C610 1.385 . S
C614 C613 1.374 . S
C615 C612 1.482 1_565 S
C615 C616 1.389 . S
C615 C617 1.391 . S
C616 H589 0.950 . S
C616 C602 1.377 . S
C616 C615 1.389 . S
C617 C601 1.377 . S
C617 C615 1.391 . S
C617 C618 1.524 1_565 S
C618 C617 1.524 1_545 S
C618 C619 1.397 . S
C618 C623 1.363 . S
C619 H590 0.950 . S
C619 C618 1.397 . S
C619 C620 1.334 . S
C620 H591 0.950 . S
C620 C619 1.334 . S
C620 C621 1.287 . S
C621 C620 1.287 . S
C621 C622 1.524 . S
C621 H624 0.999 . S
C622 H592 0.950 . S
C622 C621 1.524 . S
C622 C623 1.415 . S
C623 H593 0.950 . S
C623 C618 1.363 . S
C623 C622 1.415 . S
H624 C621 0.999 . S
H625 C606 0.913 . S
H626 C644 0.951 . S
H627 C646 0.951 . S
H628 C648 0.950 . S
H629 C649 0.950 . S
H630 C651 0.950 . S
H631 C654 0.950 . S
H632 C655 0.950 . S
H633 C657 0.950 . S
H634 C658 0.950 . S
H635 C659 0.951 . S
H636 C661 0.951 . S
H637 C663 0.950 . S
H638 C664 0.950 . S
H639 C666 0.950 . S
H640 C669 0.950 . S
H641 C670 0.950 . S
H642 C672 0.950 . S
H643 C673 0.950 . S
C644 H626 0.951 . S
C644 C645 1.366 . S
C644 C646 1.388 . S
C645 C644 1.366 . S
C645 C649 1.385 . S
C646 H627 0.951 . S
C646 C644 1.388 . S
C646 C647 1.366 . S
C647 C646 1.366 . S
C647 C648 1.414 . S
C647 C650 1.499 . S
C648 H628 0.950 . S
C648 C647 1.414 . S
C648 C649 1.374 . S
C649 H629 0.950 . S
C649 C645 1.385 . S
C649 C648 1.374 . S
C650 C647 1.499 . S
C650 C651 1.373 . S
C650 C652 1.389 . S
C651 H630 0.950 . S
C651 C650 1.373 . S
C651 C667 1.377 . S
C652 C650 1.389 . S
C652 C653 1.524 . S
C652 C666 1.377 . S
C653 C652 1.524 . S
C653 C654 1.397 . S
C653 C658 1.363 . S
C654 H631 0.950 . S
C654 C653 1.397 . S
C654 C655 1.334 . S
C655 H632 0.950 . S
C655 C654 1.334 . S
C655 C656 1.287 . S
C656 C655 1.287 . S
C656 C657 1.524 . S
C656 H675 0.913 . S
C657 H633 0.950 . S
C657 C656 1.524 . S
C657 C658 1.415 . S
C658 H634 0.950 . S
C658 C653 1.363 . S
C658 C657 1.415 . S
C659 H635 0.951 . S
C659 C660 1.366 . S
C659 C661 1.388 . S
C660 C659 1.366 . S
C660 C664 1.385 . S
C661 H636 0.951 . S
C661 C659 1.388 . S
C661 C662 1.366 . S
C662 C661 1.366 . S
C662 C663 1.414 . S
C662 C665 1.499 . S
C663 H637 0.950 . S
C663 C662 1.414 . S
C663 C664 1.374 . S
C664 H638 0.950 . S
C664 C660 1.385 . S
C664 C663 1.374 . S
C665 C662 1.499 . S
C665 C666 1.373 . S
C665 C667 1.389 . S
C666 H639 0.950 . S
C666 C652 1.377 . S
C666 C665 1.373 . S
C667 C651 1.377 . S
C667 C665 1.389 . S
C667 C668 1.524 . S
C668 C667 1.524 . S
C668 C669 1.397 . S
C668 C673 1.363 . S
C669 H640 0.950 . S
C669 C668 1.397 . S
C669 C670 1.334 . S
C670 H641 0.950 . S
C670 C669 1.334 . S
C670 C671 1.287 . S
C671 C670 1.287 . S
C671 C672 1.524 . S
C671 H674 0.999 . S
C672 H642 0.950 . S
C672 C671 1.524 . S
C672 C673 1.415 . S
C673 H643 0.950 . S
C673 C668 1.363 . S
C673 C672 1.415 . S
H674 C671 0.999 . S
H675 C656 0.913 . S
H676 C694 0.951 . S
H677 C696 0.951 . S
H678 C698 0.950 . S
H679 C699 0.950 . S
H680 C701 0.950 . S
H681 C704 0.950 . S
H682 C705 0.950 . S
H683 C707 0.950 . S
H684 C708 0.950 . S
H685 C709 0.951 . S
H686 C711 0.951 . S
H687 C713 0.950 . S
H688 C714 0.950 . S
H689 C716 0.950 . S
H690 C719 0.950 . S
H691 C720 0.950 . S
H692 C722 0.950 . S
H693 C723 0.950 . S
C694 H676 0.951 . S
C694 C695 1.366 . S
C694 C696 1.388 . S
C695 C694 1.366 . S
C695 C699 1.385 . S
C696 H677 0.951 . S
C696 C694 1.388 . S
C696 C697 1.366 . S
C697 C696 1.366 . S
C697 C698 1.414 . S
C697 C700 1.499 . S
C698 H678 0.950 . S
C698 C697 1.414 . S
C698 C699 1.374 . S
C699 H679 0.950 . S
C699 C695 1.385 . S
C699 C698 1.374 . S
C700 C697 1.499 . S
C700 C701 1.373 . S
C700 C702 1.389 . S
C701 H680 0.950 . S
C701 C700 1.373 . S
C701 C717 1.377 . S
C702 C700 1.389 . S
C702 C703 1.524 . S
C702 C716 1.377 . S
C703 C702 1.524 . S
C703 C704 1.397 . S
C703 C708 1.363 . S
C704 H681 0.950 . S
C704 C703 1.397 . S
C704 C705 1.334 . S
C705 H682 0.950 . S
C705 C704 1.334 . S
C705 C706 1.287 . S
C706 C705 1.287 . S
C706 C707 1.524 . S
C706 H725 0.913 . S
C707 H683 0.950 . S
C707 C706 1.524 . S
C707 C708 1.415 . S
C708 H684 0.950 . S
C708 C703 1.363 . S
C708 C707 1.415 . S
C709 H685 0.951 . S
C709 C710 1.366 . S
C709 C711 1.388 . S
C710 C709 1.366 . S
C710 C714 1.385 . S
C711 H686 0.951 . S
C711 C709 1.388 . S
C711 C712 1.366 . S
C712 C711 1.366 . S
C712 C713 1.414 . S
C712 C715 1.499 . S
C713 H687 0.950 . S
C713 C712 1.414 . S
C713 C714 1.374 . S
C714 H688 0.950 . S
C714 C710 1.385 . S
C714 C713 1.374 . S
C715 C712 1.499 . S
C715 C716 1.373 . S
C715 C717 1.389 . S
C716 H689 0.950 . S
C716 C702 1.377 . S
C716 C715 1.373 . S
C717 C701 1.377 . S
C717 C715 1.389 . S
C717 C718 1.524 . S
C718 C717 1.524 . S
C718 C719 1.397 . S
C718 C723 1.363 . S
C719 H690 0.950 . S
C719 C718 1.397 . S
C719 C720 1.334 . S
C720 H691 0.950 . S
C720 C719 1.334 . S
C720 C721 1.287 . S
C721 C720 1.287 . S
C721 C722 1.524 . S
C721 H724 0.999 . S
C722 H692 0.950 . S
C722 C721 1.524 . S
C722 C723 1.415 . S
C723 H693 0.950 . S
C723 C718 1.363 . S
C723 C722 1.415 . S
H724 C721 0.999 . S
H725 C706 0.913 . S
H726 C744 0.951 . S
H727 C746 0.951 . S
H728 C748 0.950 . S
H729 C749 0.950 . S
H730 C751 0.950 . S
H731 C754 0.950 . S
H732 C755 0.950 . S
H733 C757 0.950 . S
H734 C758 0.950 . S
H735 C759 0.951 . S
H736 C761 0.951 . S
H737 C763 0.950 . S
H738 C764 0.950 . S
H739 C766 0.950 . S
H740 C769 0.950 . S
H741 C770 0.950 . S
H742 C772 0.950 . S
H743 C773 0.950 . S
C744 H726 0.951 . S
C744 C745 1.366 . S
C744 C746 1.388 . S
C745 C744 1.366 . S
C745 C749 1.385 . S
C746 H727 0.951 . S
C746 C744 1.388 . S
C746 C747 1.366 . S
C747 C746 1.366 . S
C747 C748 1.414 . S
C747 C750 1.499 1_545 S
C748 H728 0.950 . S
C748 C747 1.414 . S
C748 C749 1.374 . S
C749 H729 0.950 . S
C749 C745 1.385 . S
C749 C748 1.374 . S
C750 C747 1.499 1_565 S
C750 C751 1.373 . S
C750 C752 1.389 . S
C751 H730 0.950 . S
C751 C750 1.373 . S
C751 C767 1.377 . S
C752 C750 1.389 . S
C752 C753 1.524 . S
C752 C766 1.377 . S
C753 C752 1.524 . S
C753 C754 1.397 . S
C753 C758 1.363 . S
C754 H731 0.950 . S
C754 C753 1.397 . S
C754 C755 1.334 1_565 S
C755 H732 0.950 . S
C755 C754 1.334 1_545 S
C755 C756 1.287 . S
C756 C755 1.287 . S
C756 C757 1.524 . S
C756 H775 0.913 . S
C757 H733 0.950 . S
C757 C756 1.524 . S
C757 C758 1.415 1_545 S
C758 H734 0.950 . S
C758 C753 1.363 . S
C758 C757 1.415 1_565 S
C759 H735 0.951 . S
C759 C760 1.366 . S
C759 C761 1.388 . S
C760 C759 1.366 . S
C760 C764 1.385 . S
C761 H736 0.951 . S
C761 C759 1.388 . S
C761 C762 1.366 . S
C762 C761 1.366 . S
C762 C763 1.414 . S
C762 C765 1.499 . S
C763 H737 0.950 . S
C763 C762 1.414 . S
C763 C764 1.374 . S
C764 H738 0.950 . S
C764 C760 1.385 . S
C764 C763 1.374 . S
C765 C762 1.499 . S
C765 C766 1.373 . S
C765 C767 1.389 . S
C766 H739 0.950 . S
C766 C752 1.377 . S
C766 C765 1.373 . S
C767 C751 1.377 . S
C767 C765 1.389 . S
C767 C768 1.524 . S
C768 C767 1.524 . S
C768 C769 1.397 . S
C768 C773 1.363 . S
C769 H740 0.950 . S
C769 C768 1.397 . S
C769 C770 1.334 . S
C770 H741 0.950 . S
C770 C769 1.334 . S
C770 C771 1.287 . S
C771 C770 1.287 . S
C771 C772 1.524 . S
C771 H774 0.999 . S
C772 H742 0.950 . S
C772 C771 1.524 . S
C772 C773 1.415 . S
C773 H743 0.950 . S
C773 C768 1.363 . S
C773 C772 1.415 . S
H774 C771 0.999 . S
H775 C756 0.913 . S
H776 C794 0.951 . S
H777 C796 0.951 . S
H778 C798 0.950 . S
H779 C799 0.950 . S
H780 C801 0.950 . S
H781 C804 0.950 . S
H782 C805 0.950 . S
H783 C807 0.950 . S
H784 C808 0.950 . S
H785 C809 0.951 . S
H786 C811 0.951 . S
H787 C813 0.950 . S
H788 C814 0.950 . S
H789 C816 0.950 . S
H790 C819 0.950 . S
H791 C820 0.950 1_554 S
H792 C822 0.950 . S
H793 C823 0.950 . S
C794 H776 0.951 . S
C794 C795 1.366 . S
C794 C796 1.388 . S
C795 C794 1.366 . S
C795 C799 1.385 . S
C796 H777 0.951 . S
C796 C794 1.388 . S
C796 C797 1.366 . S
C797 C796 1.366 . S
C797 C798 1.414 . S
C797 C800 1.499 . S
C798 H778 0.950 . S
C798 C797 1.414 . S
C798 C799 1.374 . S
C799 H779 0.950 . S
C799 C795 1.385 . S
C799 C798 1.374 . S
C800 C797 1.499 . S
C800 C801 1.373 . S
C800 C802 1.389 . S
C801 H780 0.950 . S
C801 C800 1.373 . S
C801 C817 1.377 . S
C802 C800 1.389 . S
C802 C803 1.524 . S
C802 C816 1.377 . S
C803 C802 1.524 . S
C803 C804 1.397 . S
C803 C808 1.363 . S
C804 H781 0.950 . S
C804 C803 1.397 . S
C804 C805 1.334 . S
C805 H782 0.950 . S
C805 C804 1.334 . S
C805 C806 1.287 . S
C806 C805 1.287 . S
C806 C807 1.524 . S
C806 H825 0.913 . S
C807 H783 0.950 . S
C807 C806 1.524 . S
C807 C808 1.415 . S
C808 H784 0.950 . S
C808 C803 1.363 . S
C808 C807 1.415 . S
C809 H785 0.951 . S
C809 C810 1.366 . S
C809 C811 1.388 . S
C810 C809 1.366 . S
C810 C814 1.385 . S
C811 H786 0.951 . S
C811 C809 1.388 . S
C811 C812 1.366 . S
C812 C811 1.366 . S
C812 C813 1.414 . S
C812 C815 1.499 1_565 S
C813 H787 0.950 . S
C813 C812 1.414 . S
C813 C814 1.374 . S
C814 H788 0.950 . S
C814 C810 1.385 . S
C814 C813 1.374 . S
C815 C812 1.499 1_545 S
C815 C816 1.373 . S
C815 C817 1.389 . S
C816 H789 0.950 . S
C816 C802 1.377 . S
C816 C815 1.373 . S
C817 C801 1.377 . S
C817 C815 1.389 . S
C817 C818 1.524 1_545 S
C818 C817 1.524 1_565 S
C818 C819 1.397 . S
C818 C823 1.363 . S
C819 H790 0.950 . S
C819 C818 1.397 . S
C819 C820 1.334 . S
C820 H791 0.950 1_556 S
C820 C819 1.334 . S
C820 C821 1.287 . S
C821 C820 1.287 . S
C821 C822 1.524 . S
C821 H824 0.999 1_556 S
C822 H792 0.950 . S
C822 C821 1.524 . S
C822 C823 1.415 . S
C823 H793 0.950 . S
C823 C818 1.363 . S
C823 C822 1.415 . S
H824 C821 0.999 1_554 S
H825 C806 0.913 . S
H826 C844 0.951 . S
H827 C846 0.951 . S
H828 C848 0.950 . S
H829 C849 0.950 . S
H830 C851 0.950 . S
H831 C854 0.950 . S
H832 C855 0.950 . S
H833 C857 0.950 . S
H834 C858 0.950 . S
H835 C859 0.951 . S
H836 C861 0.951 . S
H837 C863 0.950 . S
H838 C864 0.950 . S
H839 C866 0.950 . S
H840 C869 0.950 . S
H841 C870 0.950 . S
H842 C872 0.950 . S
H843 C873 0.950 . S
C844 H826 0.951 . S
C844 C845 1.366 . S
C844 C846 1.388 . S
C845 C844 1.366 . S
C845 C849 1.385 . S
C846 H827 0.951 . S
C846 C844 1.388 . S
C846 C847 1.366 . S
C847 C846 1.366 . S
C847 C848 1.414 . S
C847 C850 1.499 . S
C848 H828 0.950 . S
C848 C847 1.414 . S
C848 C849 1.374 . S
C849 H829 0.950 . S
C849 C845 1.385 . S
C849 C848 1.374 . S
C850 C847 1.499 . S
C850 C851 1.373 . S
C850 C852 1.389 . S
C851 H830 0.950 . S
C851 C850 1.373 . S
C851 C867 1.377 . S
C852 C850 1.389 . S
C852 C853 1.524 . S
C852 C866 1.377 . S
C853 C852 1.524 . S
C853 C854 1.397 . S
C853 C858 1.363 . S
C854 H831 0.950 . S
C854 C853 1.397 . S
C854 C855 1.334 . S
C855 H832 0.950 . S
C855 C854 1.334 . S
C855 C856 1.287 . S
C856 C855 1.287 . S
C856 C857 1.524 . S
C856 H875 0.913 . S
C857 H833 0.950 . S
C857 C856 1.524 . S
C857 C858 1.415 . S
C858 H834 0.950 . S
C858 C853 1.363 . S
C858 C857 1.415 . S
C859 H835 0.951 . S
C859 C860 1.366 . S
C859 C861 1.388 . S
C860 C859 1.366 . S
C860 C864 1.385 . S
C861 H836 0.951 . S
C861 C859 1.388 . S
C861 C862 1.366 . S
C862 C861 1.366 . S
C862 C863 1.414 . S
C862 C865 1.499 . S
C863 H837 0.950 . S
C863 C862 1.414 . S
C863 C864 1.374 . S
C864 H838 0.950 . S
C864 C860 1.385 . S
C864 C863 1.374 . S
C865 C862 1.499 . S
C865 C866 1.373 . S
C865 C867 1.389 . S
C866 H839 0.950 . S
C866 C852 1.377 . S
C866 C865 1.373 . S
C867 C851 1.377 . S
C867 C865 1.389 . S
C867 C868 1.524 . S
C868 C867 1.524 . S
C868 C869 1.397 . S
C868 C873 1.363 . S
C869 H840 0.950 . S
C869 C868 1.397 . S
C869 C870 1.334 . S
C870 H841 0.950 . S
C870 C869 1.334 . S
C870 C871 1.287 . S
C871 C870 1.287 . S
C871 C872 1.524 . S
C871 H874 0.999 . S
C872 H842 0.950 . S
C872 C871 1.524 . S
C872 C873 1.415 . S
C873 H843 0.950 . S
C873 C868 1.363 . S
C873 C872 1.415 . S
H874 C871 0.999 . S
H875 C856 0.913 . S
H876 C894 0.951 . S
H877 C896 0.951 . S
H878 C898 0.950 . S
H879 C899 0.950 . S
H880 C901 0.950 . S
H881 C904 0.950 . S
H882 C905 0.950 . S
H883 C907 0.950 . S
H884 C908 0.950 . S
H885 C909 0.951 . S
H886 C911 0.951 . S
H887 C913 0.950 . S
H888 C914 0.950 . S
H889 C916 0.950 . S
H890 C919 0.950 . S
H891 C920 0.950 . S
H892 C922 0.950 . S
H893 C923 0.950 . S
C894 H876 0.951 . S
C894 C895 1.366 . S
C894 C896 1.388 . S
C895 C894 1.366 . S
C895 C899 1.385 . S
C896 H877 0.951 . S
C896 C894 1.388 . S
C896 C897 1.366 . S
C897 C896 1.366 . S
C897 C898 1.414 . S
C897 C900 1.499 . S
C898 H878 0.950 . S
C898 C897 1.414 . S
C898 C899 1.374 . S
C899 H879 0.950 . S
C899 C895 1.385 . S
C899 C898 1.374 . S
C900 C897 1.499 . S
C900 C901 1.373 . S
C900 C902 1.389 . S
C901 H880 0.950 . S
C901 C900 1.373 . S
C901 C917 1.377 . S
C902 C900 1.389 . S
C902 C903 1.524 . S
C902 C916 1.377 . S
C903 C902 1.524 . S
C903 C904 1.397 . S
C903 C908 1.363 . S
C904 H881 0.950 . S
C904 C903 1.397 . S
C904 C905 1.334 . S
C905 H882 0.950 . S
C905 C904 1.334 . S
C905 C906 1.287 . S
C906 C905 1.287 . S
C906 C907 1.524 . S
C906 H925 0.913 . S
C907 H883 0.950 . S
C907 C906 1.524 . S
C907 C908 1.415 . S
C908 H884 0.950 . S
C908 C903 1.363 . S
C908 C907 1.415 . S
C909 H885 0.951 . S
C909 C910 1.366 . S
C909 C911 1.388 . S
C910 C909 1.366 . S
C910 C914 1.385 . S
C911 H886 0.951 . S
C911 C909 1.388 . S
C911 C912 1.366 . S
C912 C911 1.366 . S
C912 C913 1.414 . S
C912 C915 1.499 . S
C913 H887 0.950 . S
C913 C912 1.414 . S
C913 C914 1.374 . S
C914 H888 0.950 . S
C914 C910 1.385 . S
C914 C913 1.374 . S
C915 C912 1.499 . S
C915 C916 1.373 . S
C915 C917 1.389 . S
C916 H889 0.950 . S
C916 C902 1.377 . S
C916 C915 1.373 . S
C917 C901 1.377 . S
C917 C915 1.389 . S
C917 C918 1.524 . S
C918 C917 1.524 . S
C918 C919 1.397 . S
C918 C923 1.363 . S
C919 H890 0.950 . S
C919 C918 1.397 . S
C919 C920 1.334 1_554 S
C920 H891 0.950 . S
C920 C919 1.334 1_556 S
C920 C921 1.287 . S
C921 C920 1.287 . S
C921 C922 1.524 . S
C921 H924 0.999 . S
C922 H892 0.950 . S
C922 C921 1.524 . S
C922 C923 1.415 1_556 S
C923 H893 0.950 . S
C923 C918 1.363 . S
C923 C922 1.415 1_554 S
H924 C921 0.999 . S
H925 C906 0.913 . S
H926 C944 0.951 . S
H927 C946 0.951 . S
H928 C948 0.950 . S
H929 C949 0.950 . S
H930 C951 0.950 1_565 S
H931 C954 0.950 . S
H932 C955 0.950 . S
H933 C957 0.950 . S
H934 C958 0.950 . S
H935 C959 0.951 . S
H936 C961 0.951 . S
H937 C963 0.950 . S
H938 C964 0.950 . S
H939 C966 0.950 . S
H940 C969 0.950 . S
H941 C970 0.950 . S
H942 C972 0.950 . S
H943 C973 0.950 . S
C944 H926 0.951 . S
C944 C945 1.366 . S
C944 C946 1.388 . S
C945 C944 1.366 . S
C945 C949 1.385 . S
C946 H927 0.951 . S
C946 C944 1.388 . S
C946 C947 1.366 . S
C947 C946 1.366 . S
C947 C948 1.414 . S
C947 C950 1.499 1_565 S
C948 H928 0.950 . S
C948 C947 1.414 . S
C948 C949 1.374 . S
C949 H929 0.950 . S
C949 C945 1.385 . S
C949 C948 1.374 . S
C950 C947 1.499 1_545 S
C950 C951 1.373 . S
C950 C952 1.389 . S
C951 H930 0.950 1_545 S
C951 C950 1.373 . S
C951 C967 1.377 . S
C952 C950 1.389 . S
C952 C953 1.524 . S
C952 C966 1.377 . S
C953 C952 1.524 . S
C953 C954 1.397 . S
C953 C958 1.363 . S
C954 H931 0.950 . S
C954 C953 1.397 . S
C954 C955 1.334 . S
C955 H932 0.950 . S
C955 C954 1.334 . S
C955 C956 1.287 . S
C956 C955 1.287 . S
C956 C957 1.524 . S
C956 H975 0.913 . S
C957 H933 0.950 . S
C957 C956 1.524 . S
C957 C958 1.415 . S
C958 H934 0.950 . S
C958 C953 1.363 . S
C958 C957 1.415 . S
C959 H935 0.951 . S
C959 C960 1.366 . S
C959 C961 1.388 . S
C960 C959 1.366 . S
C960 C964 1.385 . S
C961 H936 0.951 . S
C961 C959 1.388 . S
C961 C962 1.366 . S
C962 C961 1.366 . S
C962 C963 1.414 . S
C962 C965 1.499 . S
C963 H937 0.950 . S
C963 C962 1.414 . S
C963 C964 1.374 . S
C964 H938 0.950 . S
C964 C960 1.385 . S
C964 C963 1.374 . S
C965 C962 1.499 . S
C965 C966 1.373 . S
C965 C967 1.389 . S
C966 H939 0.950 . S
C966 C952 1.377 . S
C966 C965 1.373 . S
C967 C951 1.377 . S
C967 C965 1.389 . S
C967 C968 1.524 . S
C968 C967 1.524 . S
C968 C969 1.397 . S
C968 C973 1.363 . S
C969 H940 0.950 . S
C969 C968 1.397 . S
C969 C970 1.334 . S
C970 H941 0.950 . S
C970 C969 1.334 . S
C970 C971 1.287 . S
C971 C970 1.287 . S
C971 C972 1.524 . S
C971 H974 0.999 . S
C972 H942 0.950 . S
C972 C971 1.524 . S
C972 C973 1.415 . S
C973 H943 0.950 . S
C973 C968 1.363 . S
C973 C972 1.415 . S
H974 C971 0.999 . S
H975 C956 0.913 . S
H976 C994 0.951 . S
H977 C996 0.951 . S
H978 C998 0.950 . S
H979 C999 0.950 1_554 S
H980 C1001 0.950 . S
H981 C1004 0.950 . S
H982 C1005 0.950 . S
H983 C1007 0.950 . S
H984 C1008 0.950 . S
H985 C1009 0.951 . S
H986 C1011 0.951 . S
H987 C1013 0.950 . S
H988 C1014 0.950 . S
H989 C1016 0.950 . S
H990 C1019 0.950 . S
H991 C1020 0.950 . S
H992 C1022 0.950 . S
H993 C1023 0.950 . S
C994 H976 0.951 . S
C994 C995 1.366 . S
C994 C996 1.388 . S
C995 C994 1.366 . S
C995 C999 1.385 . S
C996 H977 0.951 . S
C996 C994 1.388 . S
C996 C997 1.366 . S
C997 C996 1.366 . S
C997 C998 1.414 . S
C997 C1000 1.499 . S
C998 H978 0.950 . S
C998 C997 1.414 . S
C998 C999 1.374 . S
C999 H979 0.950 1_556 S
C999 C995 1.385 . S
C999 C998 1.374 . S
C1000 C997 1.499 . S
C1000 C1001 1.373 . S
C1000 C1002 1.389 . S
C1001 H980 0.950 . S
C1001 C1000 1.373 . S
C1001 C1017 1.377 . S
C1002 C1000 1.389 . S
C1002 C1003 1.524 . S
C1002 C1016 1.377 . S
C1003 C1002 1.524 . S
C1003 C1004 1.397 . S
C1003 C1008 1.363 . S
C1004 H981 0.950 . S
C1004 C1003 1.397 . S
C1004 C1005 1.334 . S
C1005 H982 0.950 . S
C1005 C1004 1.334 . S
C1005 C1006 1.287 . S
C1006 C1005 1.287 . S
C1006 C1007 1.524 . S
C1006 H1025 0.913 . S
C1007 H983 0.950 . S
C1007 C1006 1.524 . S
C1007 C1008 1.415 . S
C1008 H984 0.950 . S
C1008 C1003 1.363 . S
C1008 C1007 1.415 . S
C1009 H985 0.951 . S
C1009 C1010 1.366 . S
C1009 C1011 1.388 . S
C1010 C1009 1.366 . S
C1010 C1014 1.385 . S
C1011 H986 0.951 . S
C1011 C1009 1.388 . S
C1011 C1012 1.366 . S
C1012 C1011 1.366 . S
C1012 C1013 1.414 . S
C1012 C1015 1.499 . S
C1013 H987 0.950 . S
C1013 C1012 1.414 . S
C1013 C1014 1.374 . S
C1014 H988 0.950 . S
C1014 C1010 1.385 . S
C1014 C1013 1.374 . S
C1015 C1012 1.499 . S
C1015 C1016 1.373 . S
C1015 C1017 1.389 . S
C1016 H989 0.950 . S
C1016 C1002 1.377 . S
C1016 C1015 1.373 . S
C1017 C1001 1.377 . S
C1017 C1015 1.389 . S
C1017 C1018 1.524 . S
C1018 C1017 1.524 . S
C1018 C1019 1.397 . S
C1018 C1023 1.363 . S
C1019 H990 0.950 . S
C1019 C1018 1.397 . S
C1019 C1020 1.334 . S
C1020 H991 0.950 . S
C1020 C1019 1.334 . S
C1020 C1021 1.287 . S
C1021 C1020 1.287 . S
C1021 C1022 1.524 . S
C1021 H1024 0.999 . S
C1022 H992 0.950 . S
C1022 C1021 1.524 . S
C1022 C1023 1.415 . S
C1023 H993 0.950 . S
C1023 C1018 1.363 . S
C1023 C1022 1.415 . S
H1024 C1021 0.999 . S
H1025 C1006 0.913 . S
H1026 C1044 0.951 . S
H1027 C1046 0.951 . S
H1028 C1048 0.950 . S
H1029 C1049 0.950 . S
H1030 C1051 0.950 . S
H1031 C1054 0.950 . S
H1032 C1055 0.950 . S
H1033 C1057 0.950 . S
H1034 C1058 0.950 . S
H1035 C1059 0.951 . S
H1036 C1061 0.951 . S
H1037 C1063 0.950 . S
H1038 C1064 0.950 . S
H1039 C1066 0.950 . S
H1040 C1069 0.950 . S
H1041 C1070 0.950 . S
H1042 C1072 0.950 . S
H1043 C1073 0.950 . S
C1044 H1026 0.951 . S
C1044 C1045 1.366 . S
C1044 C1046 1.388 . S
C1045 C1044 1.366 . S
C1045 C1049 1.385 . S
C1046 H1027 0.951 . S
C1046 C1044 1.388 . S
C1046 C1047 1.366 . S
C1047 C1046 1.366 . S
C1047 C1048 1.414 . S
C1047 C1050 1.499 . S
C1048 H1028 0.950 . S
C1048 C1047 1.414 . S
C1048 C1049 1.374 . S
C1049 H1029 0.950 . S
C1049 C1045 1.385 . S
C1049 C1048 1.374 . S
C1050 C1047 1.499 . S
C1050 C1051 1.373 . S
C1050 C1052 1.389 . S
C1051 H1030 0.950 . S
C1051 C1050 1.373 . S
C1051 C1067 1.377 . S
C1052 C1050 1.389 . S
C1052 C1053 1.524 . S
C1052 C1066 1.377 . S
C1053 C1052 1.524 . S
C1053 C1054 1.397 . S
C1053 C1058 1.363 . S
C1054 H1031 0.950 . S
C1054 C1053 1.397 . S
C1054 C1055 1.334 . S
C1055 H1032 0.950 . S
C1055 C1054 1.334 . S
C1055 C1056 1.287 . S
C1056 C1055 1.287 . S
C1056 C1057 1.524 . S
C1056 H1075 0.913 . S
C1057 H1033 0.950 . S
C1057 C1056 1.524 . S
C1057 C1058 1.415 . S
C1058 H1034 0.950 . S
C1058 C1053 1.363 . S
C1058 C1057 1.415 . S
C1059 H1035 0.951 . S
C1059 C1060 1.366 . S
C1059 C1061 1.388 . S
C1060 C1059 1.366 . S
C1060 C1064 1.385 . S
C1061 H1036 0.951 . S
C1061 C1059 1.388 . S
C1061 C1062 1.366 . S
C1062 C1061 1.366 . S
C1062 C1063 1.414 . S
C1062 C1065 1.499 . S
C1063 H1037 0.950 . S
C1063 C1062 1.414 . S
C1063 C1064 1.374 . S
C1064 H1038 0.950 . S
C1064 C1060 1.385 . S
C1064 C1063 1.374 . S
C1065 C1062 1.499 . S
C1065 C1066 1.373 . S
C1065 C1067 1.389 . S
C1066 H1039 0.950 . S
C1066 C1052 1.377 . S
C1066 C1065 1.373 . S
C1067 C1051 1.377 . S
C1067 C1065 1.389 . S
C1067 C1068 1.524 . S
C1068 C1067 1.524 . S
C1068 C1069 1.397 . S
C1068 C1073 1.363 . S
C1069 H1040 0.950 . S
C1069 C1068 1.397 . S
C1069 C1070 1.334 . S
C1070 H1041 0.950 . S
C1070 C1069 1.334 . S
C1070 C1071 1.287 . S
C1071 C1070 1.287 . S
C1071 C1072 1.524 . S
C1071 H1074 0.999 . S
C1072 H1042 0.950 . S
C1072 C1071 1.524 . S
C1072 C1073 1.415 . S
C1073 H1043 0.950 . S
C1073 C1068 1.363 . S
C1073 C1072 1.415 . S
H1074 C1071 0.999 . S
H1075 C1056 0.913 . S
H1076 C1094 0.951 . S
H1077 C1096 0.951 . S
H1078 C1098 0.950 . S
H1079 C1099 0.950 . S
H1080 C1101 0.950 . S
H1081 C1104 0.950 . S
H1082 C1105 0.950 . S
H1083 C1107 0.950 . S
H1084 C1108 0.950 . S
H1085 C1109 0.951 . S
H1086 C1111 0.951 . S
H1087 C1113 0.950 . S
H1088 C1114 0.950 . S
H1089 C1116 0.950 . S
H1090 C1119 0.950 . S
H1091 C1120 0.950 . S
H1092 C1122 0.950 . S
H1093 C1123 0.950 . S
C1094 H1076 0.951 . S
C1094 C1095 1.366 . S
C1094 C1096 1.388 . S
C1095 C1094 1.366 . S
C1095 C1099 1.385 . S
C1096 H1077 0.951 . S
C1096 C1094 1.388 . S
C1096 C1097 1.366 . S
C1097 C1096 1.366 . S
C1097 C1098 1.414 . S
C1097 C1100 1.499 . S
C1098 H1078 0.950 . S
C1098 C1097 1.414 . S
C1098 C1099 1.374 . S
C1099 H1079 0.950 . S
C1099 C1095 1.385 . S
C1099 C1098 1.374 . S
C1100 C1097 1.499 . S
C1100 C1101 1.373 . S
C1100 C1102 1.389 . S
C1101 H1080 0.950 . S
C1101 C1100 1.373 . S
C1101 C1117 1.377 . S
C1102 C1100 1.389 . S
C1102 C1103 1.524 . S
C1102 C1116 1.377 . S
C1103 C1102 1.524 . S
C1103 C1104 1.397 . S
C1103 C1108 1.363 . S
C1104 H1081 0.950 . S
C1104 C1103 1.397 . S
C1104 C1105 1.334 . S
C1105 H1082 0.950 . S
C1105 C1104 1.334 . S
C1105 C1106 1.287 . S
C1106 C1105 1.287 . S
C1106 C1107 1.524 . S
C1106 H1125 0.913 . S
C1107 H1083 0.950 . S
C1107 C1106 1.524 . S
C1107 C1108 1.415 . S
C1108 H1084 0.950 . S
C1108 C1103 1.363 . S
C1108 C1107 1.415 . S
C1109 H1085 0.951 . S
C1109 C1110 1.366 . S
C1109 C1111 1.388 . S
C1110 C1109 1.366 . S
C1110 C1114 1.385 . S
C1111 H1086 0.951 . S
C1111 C1109 1.388 . S
C1111 C1112 1.366 . S
C1112 C1111 1.366 . S
C1112 C1113 1.414 . S
C1112 C1115 1.499 . S
C1113 H1087 0.950 . S
C1113 C1112 1.414 . S
C1113 C1114 1.374 . S
C1114 H1088 0.950 . S
C1114 C1110 1.385 . S
C1114 C1113 1.374 . S
C1115 C1112 1.499 . S
C1115 C1116 1.373 . S
C1115 C1117 1.389 . S
C1116 H1089 0.950 . S
C1116 C1102 1.377 . S
C1116 C1115 1.373 . S
C1117 C1101 1.377 . S
C1117 C1115 1.389 . S
C1117 C1118 1.524 . S
C1118 C1117 1.524 . S
C1118 C1119 1.397 . S
C1118 C1123 1.363 . S
C1119 H1090 0.950 . S
C1119 C1118 1.397 . S
C1119 C1120 1.334 . S
C1120 H1091 0.950 . S
C1120 C1119 1.334 . S
C1120 C1121 1.287 . S
C1121 C1120 1.287 . S
C1121 C1122 1.524 . S
C1121 H1124 0.999 . S
C1122 H1092 0.950 . S
C1122 C1121 1.524 . S
C1122 C1123 1.415 . S
C1123 H1093 0.950 . S
C1123 C1118 1.363 . S
C1123 C1122 1.415 . S
H1124 C1121 0.999 . S
H1125 C1106 0.913 . S
H1126 C1144 0.951 . S
H1127 C1146 0.951 . S
H1128 C1148 0.950 . S
H1129 C1149 0.950 . S
H1130 C1151 0.950 . S
H1131 C1154 0.950 . S
H1132 C1155 0.950 . S
H1133 C1157 0.950 . S
H1134 C1158 0.950 . S
H1135 C1159 0.951 . S
H1136 C1161 0.951 . S
H1137 C1163 0.950 . S
H1138 C1164 0.950 . S
H1139 C1166 0.950 . S
H1140 C1169 0.950 . S
H1141 C1170 0.950 . S
H1142 C1172 0.950 . S
H1143 C1173 0.950 . S
C1144 H1126 0.951 . S
C1144 C1145 1.366 . S
C1144 C1146 1.388 . S
C1145 C1144 1.366 . S
C1145 C1149 1.385 . S
C1146 H1127 0.951 . S
C1146 C1144 1.388 . S
C1146 C1147 1.366 . S
C1147 C1146 1.366 . S
C1147 C1148 1.414 . S
C1147 C1150 1.499 . S
C1148 H1128 0.950 . S
C1148 C1147 1.414 . S
C1148 C1149 1.374 . S
C1149 H1129 0.950 . S
C1149 C1145 1.385 . S
C1149 C1148 1.374 . S
C1150 C1147 1.499 . S
C1150 C1151 1.373 . S
C1150 C1152 1.389 . S
C1151 H1130 0.950 . S
C1151 C1150 1.373 . S
C1151 C1167 1.377 . S
C1152 C1150 1.389 . S
C1152 C1153 1.524 . S
C1152 C1166 1.377 . S
C1153 C1152 1.524 . S
C1153 C1154 1.397 . S
C1153 C1158 1.363 . S
C1154 H1131 0.950 . S
C1154 C1153 1.397 . S
C1154 C1155 1.334 . S
C1155 H1132 0.950 . S
C1155 C1154 1.334 . S
C1155 C1156 1.287 . S
C1156 C1155 1.287 . S
C1156 C1157 1.524 . S
C1156 H1175 0.913 . S
C1157 H1133 0.950 . S
C1157 C1156 1.524 . S
C1157 C1158 1.415 . S
C1158 H1134 0.950 . S
C1158 C1153 1.363 . S
C1158 C1157 1.415 . S
C1159 H1135 0.951 . S
C1159 C1160 1.366 . S
C1159 C1161 1.388 . S
C1160 C1159 1.366 . S
C1160 C1164 1.385 . S
C1161 H1136 0.951 . S
C1161 C1159 1.388 . S
C1161 C1162 1.366 . S
C1162 C1161 1.366 . S
C1162 C1163 1.414 . S
C1162 C1165 1.499 . S
C1163 H1137 0.950 . S
C1163 C1162 1.414 . S
C1163 C1164 1.374 . S
C1164 H1138 0.950 . S
C1164 C1160 1.385 . S
C1164 C1163 1.374 . S
C1165 C1162 1.499 . S
C1165 C1166 1.373 . S
C1165 C1167 1.389 . S
C1166 H1139 0.950 . S
C1166 C1152 1.377 . S
C1166 C1165 1.373 . S
C1167 C1151 1.377 . S
C1167 C1165 1.389 . S
C1167 C1168 1.524 . S
C1168 C1167 1.524 . S
C1168 C1169 1.397 . S
C1168 C1173 1.363 . S
C1169 H1140 0.950 . S
C1169 C1168 1.397 . S
C1169 C1170 1.334 . S
C1170 H1141 0.950 . S
C1170 C1169 1.334 . S
C1170 C1171 1.287 . S
C1171 C1170 1.287 . S
C1171 C1172 1.524 . S
C1171 H1174 0.999 . S
C1172 H1142 0.950 . S
C1172 C1171 1.524 . S
C1172 C1173 1.415 . S
C1173 H1143 0.950 . S
C1173 C1168 1.363 . S
C1173 C1172 1.415 . S
H1174 C1171 0.999 . S
H1175 C1156 0.913 . S
H1176 C1194 0.951 . S
H1177 C1196 0.951 . S
H1178 C1198 0.950 . S
H1179 C1199 0.950 1_556 S
H1180 C1201 0.950 . S
H1181 C1204 0.950 . S
H1182 C1205 0.950 . S
H1183 C1207 0.950 . S
H1184 C1208 0.950 . S
H1185 C1209 0.951 . S
H1186 C1211 0.951 . S
H1187 C1213 0.950 . S
H1188 C1214 0.950 . S
H1189 C1216 0.950 . S
H1190 C1219 0.950 . S
H1191 C1220 0.950 . S
H1192 C1222 0.950 . S
H1193 C1223 0.950 . S
C1194 H1176 0.951 . S
C1194 C1195 1.366 . S
C1194 C1196 1.388 . S
C1195 C1194 1.366 . S
C1195 C1199 1.385 . S
C1196 H1177 0.951 . S
C1196 C1194 1.388 . S
C1196 C1197 1.366 . S
C1197 C1196 1.366 . S
C1197 C1198 1.414 . S
C1197 C1200 1.499 . S
C1198 H1178 0.950 . S
C1198 C1197 1.414 . S
C1198 C1199 1.374 . S
C1199 H1179 0.950 1_554 S
C1199 C1195 1.385 . S
C1199 C1198 1.374 . S
C1200 C1197 1.499 . S
C1200 C1201 1.373 . S
C1200 C1202 1.389 . S
C1201 H1180 0.950 . S
C1201 C1200 1.373 . S
C1201 C1217 1.377 . S
C1202 C1200 1.389 . S
C1202 C1203 1.524 . S
C1202 C1216 1.377 . S
C1203 C1202 1.524 . S
C1203 C1204 1.397 . S
C1203 C1208 1.363 . S
C1204 H1181 0.950 . S
C1204 C1203 1.397 . S
C1204 C1205 1.334 . S
C1205 H1182 0.950 . S
C1205 C1204 1.334 . S
C1205 C1206 1.287 . S
C1206 C1205 1.287 . S
C1206 C1207 1.524 . S
C1206 H1225 0.913 . S
C1207 H1183 0.950 . S
C1207 C1206 1.524 . S
C1207 C1208 1.415 . S
C1208 H1184 0.950 . S
C1208 C1203 1.363 . S
C1208 C1207 1.415 . S
C1209 H1185 0.951 . S
C1209 C1210 1.366 . S
C1209 C1211 1.388 . S
C1210 C1209 1.366 . S
C1210 C1214 1.385 . S
C1211 H1186 0.951 . S
C1211 C1209 1.388 . S
C1211 C1212 1.366 . S
C1212 C1211 1.366 . S
C1212 C1213 1.414 . S
C1212 C1215 1.499 . S
C1213 H1187 0.950 . S
C1213 C1212 1.414 . S
C1213 C1214 1.374 . S
C1214 H1188 0.950 . S
C1214 C1210 1.385 . S
C1214 C1213 1.374 . S
C1215 C1212 1.499 . S
C1215 C1216 1.373 . S
C1215 C1217 1.389 . S
C1216 H1189 0.950 . S
C1216 C1202 1.377 . S
C1216 C1215 1.373 . S
C1217 C1201 1.377 . S
C1217 C1215 1.389 . S
C1217 C1218 1.524 . S
C1218 C1217 1.524 . S
C1218 C1219 1.397 . S
C1218 C1223 1.363 . S
C1219 H1190 0.950 . S
C1219 C1218 1.397 . S
C1219 C1220 1.334 . S
C1220 H1191 0.950 . S
C1220 C1219 1.334 . S
C1220 C1221 1.287 . S
C1221 C1220 1.287 . S
C1221 C1222 1.524 . S
C1221 H1224 0.999 . S
C1222 H1192 0.950 . S
C1222 C1221 1.524 . S
C1222 C1223 1.415 . S
C1223 H1193 0.950 . S
C1223 C1218 1.363 . S
C1223 C1222 1.415 . S
H1224 C1221 0.999 . S
H1225 C1206 0.913 . S
H1226 C1244 0.951 . S
H1227 C1246 0.951 . S
H1228 C1248 0.950 . S
H1229 C1249 0.950 . S
H1230 C1251 0.950 . S
H1231 C1254 0.950 . S
H1232 C1255 0.950 . S
H1233 C1257 0.950 . S
H1234 C1258 0.950 . S
H1235 C1259 0.951 . S
H1236 C1261 0.951 . S
H1237 C1263 0.950 . S
H1238 C1264 0.950 . S
H1239 C1266 0.950 . S
H1240 C1269 0.950 . S
H1241 C1270 0.950 . S
H1242 C1272 0.950 . S
H1243 C1273 0.950 . S
C1244 H1226 0.951 . S
C1244 C1245 1.366 . S
C1244 C1246 1.388 . S
C1245 C1244 1.366 . S
C1245 C1249 1.385 . S
C1246 H1227 0.951 . S
C1246 C1244 1.388 . S
C1246 C1247 1.366 . S
C1247 C1246 1.366 . S
C1247 C1248 1.414 . S
C1247 C1250 1.499 . S
C1248 H1228 0.950 . S
C1248 C1247 1.414 . S
C1248 C1249 1.374 . S
C1249 H1229 0.950 . S
C1249 C1245 1.385 . S
C1249 C1248 1.374 . S
C1250 C1247 1.499 . S
C1250 C1251 1.373 . S
C1250 C1252 1.389 . S
C1251 H1230 0.950 . S
C1251 C1250 1.373 . S
C1251 C1267 1.377 . S
C1252 C1250 1.389 . S
C1252 C1253 1.524 . S
C1252 C1266 1.377 . S
C1253 C1252 1.524 . S
C1253 C1254 1.397 . S
C1253 C1258 1.363 . S
C1254 H1231 0.950 . S
C1254 C1253 1.397 . S
C1254 C1255 1.334 . S
C1255 H1232 0.950 . S
C1255 C1254 1.334 . S
C1255 C1256 1.287 . S
C1256 C1255 1.287 . S
C1256 C1257 1.524 . S
C1256 H1275 0.913 . S
C1257 H1233 0.950 . S
C1257 C1256 1.524 . S
C1257 C1258 1.415 . S
C1258 H1234 0.950 . S
C1258 C1253 1.363 . S
C1258 C1257 1.415 . S
C1259 H1235 0.951 . S
C1259 C1260 1.366 . S
C1259 C1261 1.388 . S
C1260 C1259 1.366 . S
C1260 C1264 1.385 . S
C1261 H1236 0.951 . S
C1261 C1259 1.388 . S
C1261 C1262 1.366 . S
C1262 C1261 1.366 . S
C1262 C1263 1.414 . S
C1262 C1265 1.499 . S
C1263 H1237 0.950 . S
C1263 C1262 1.414 . S
C1263 C1264 1.374 . S
C1264 H1238 0.950 . S
C1264 C1260 1.385 . S
C1264 C1263 1.374 . S
C1265 C1262 1.499 . S
C1265 C1266 1.373 . S
C1265 C1267 1.389 . S
C1266 H1239 0.950 . S
C1266 C1252 1.377 . S
C1266 C1265 1.373 . S
C1267 C1251 1.377 . S
C1267 C1265 1.389 . S
C1267 C1268 1.524 . S
C1268 C1267 1.524 . S
C1268 C1269 1.397 . S
C1268 C1273 1.363 . S
C1269 H1240 0.950 . S
C1269 C1268 1.397 . S
C1269 C1270 1.334 . S
C1270 H1241 0.950 . S
C1270 C1269 1.334 . S
C1270 C1271 1.287 . S
C1271 C1270 1.287 . S
C1271 C1272 1.524 . S
C1271 H1274 0.999 . S
C1272 H1242 0.950 . S
C1272 C1271 1.524 . S
C1272 C1273 1.415 . S
C1273 H1243 0.950 . S
C1273 C1268 1.363 . S
C1273 C1272 1.415 . S
H1274 C1271 0.999 . S
H1275 C1256 0.913 . S
H1276 C1294 0.951 . S
H1277 C1296 0.951 . S
H1278 C1298 0.950 . S
H1279 C1299 0.950 . S
H1280 C1301 0.950 . S
H1281 C1304 0.950 . S
H1282 C1305 0.950 . S
H1283 C1307 0.950 . S
H1284 C1308 0.950 . S
H1285 C1309 0.951 . S
H1286 C1311 0.951 . S
H1287 C1313 0.950 . S
H1288 C1314 0.950 1_554 S
H1289 C1316 0.950 . S
H1290 C1319 0.950 . S
H1291 C1320 0.950 . S
H1292 C1322 0.950 . S
H1293 C1323 0.950 . S
C1294 H1276 0.951 . S
C1294 C1295 1.366 . S
C1294 C1296 1.388 . S
C1295 C1294 1.366 . S
C1295 C1299 1.385 . S
C1296 H1277 0.951 . S
C1296 C1294 1.388 . S
C1296 C1297 1.366 . S
C1297 C1296 1.366 . S
C1297 C1298 1.414 . S
C1297 C1300 1.499 . S
C1298 H1278 0.950 . S
C1298 C1297 1.414 . S
C1298 C1299 1.374 . S
C1299 H1279 0.950 . S
C1299 C1295 1.385 . S
C1299 C1298 1.374 . S
C1300 C1297 1.499 . S
C1300 C1301 1.373 . S
C1300 C1302 1.389 . S
C1301 H1280 0.950 . S
C1301 C1300 1.373 . S
C1301 C1317 1.377 . S
C1302 C1300 1.389 . S
C1302 C1303 1.524 . S
C1302 C1316 1.377 . S
C1303 C1302 1.524 . S
C1303 C1304 1.397 . S
C1303 C1308 1.363 . S
C1304 H1281 0.950 . S
C1304 C1303 1.397 . S
C1304 C1305 1.334 . S
C1305 H1282 0.950 . S
C1305 C1304 1.334 . S
C1305 C1306 1.287 . S
C1306 C1305 1.287 . S
C1306 C1307 1.524 . S
C1306 H1325 0.913 . S
C1307 H1283 0.950 . S
C1307 C1306 1.524 . S
C1307 C1308 1.415 . S
C1308 H1284 0.950 . S
C1308 C1303 1.363 . S
C1308 C1307 1.415 . S
C1309 H1285 0.951 . S
C1309 C1310 1.366 . S
C1309 C1311 1.388 . S
C1310 C1309 1.366 . S
C1310 C1314 1.385 . S
C1311 H1286 0.951 . S
C1311 C1309 1.388 . S
C1311 C1312 1.366 . S
C1312 C1311 1.366 . S
C1312 C1313 1.414 . S
C1312 C1315 1.499 . S
C1313 H1287 0.950 . S
C1313 C1312 1.414 . S
C1313 C1314 1.374 . S
C1314 H1288 0.950 1_556 S
C1314 C1310 1.385 . S
C1314 C1313 1.374 . S
C1315 C1312 1.499 . S
C1315 C1316 1.373 . S
C1315 C1317 1.389 . S
C1316 H1289 0.950 . S
C1316 C1302 1.377 . S
C1316 C1315 1.373 . S
C1317 C1301 1.377 . S
C1317 C1315 1.389 . S
C1317 C1318 1.524 . S
C1318 C1317 1.524 . S
C1318 C1319 1.397 . S
C1318 C1323 1.363 . S
C1319 H1290 0.950 . S
C1319 C1318 1.397 . S
C1319 C1320 1.334 . S
C1320 H1291 0.950 . S
C1320 C1319 1.334 . S
C1320 C1321 1.287 . S
C1321 C1320 1.287 . S
C1321 C1322 1.524 . S
C1321 H1324 0.999 . S
C1322 H1292 0.950 . S
C1322 C1321 1.524 . S
C1322 C1323 1.415 . S
C1323 H1293 0.950 . S
C1323 C1318 1.363 . S
C1323 C1322 1.415 . S
H1324 C1321 0.999 . S
H1325 C1306 0.913 . S
H1326 C1344 0.951 . S
H1327 C1346 0.951 . S
H1328 C1348 0.950 . S
H1329 C1349 0.950 . S
H1330 C1351 0.950 . S
H1331 C1354 0.950 . S
H1332 C1355 0.950 . S
H1333 C1357 0.950 . S
H1334 C1358 0.950 . S
H1335 C1359 0.951 . S
H1336 C1361 0.951 . S
H1337 C1363 0.950 . S
H1338 C1364 0.950 . S
H1339 C1366 0.950 . S
H1340 C1369 0.950 . S
H1341 C1370 0.950 . S
H1342 C1372 0.950 . S
H1343 C1373 0.950 . S
C1344 H1326 0.951 . S
C1344 C1345 1.366 . S
C1344 C1346 1.388 . S
C1345 C1344 1.366 . S
C1345 C1349 1.385 . S
C1346 H1327 0.951 . S
C1346 C1344 1.388 . S
C1346 C1347 1.366 . S
C1347 C1346 1.366 . S
C1347 C1348 1.414 . S
C1347 C1350 1.499 . S
C1348 H1328 0.950 . S
C1348 C1347 1.414 . S
C1348 C1349 1.374 . S
C1349 H1329 0.950 . S
C1349 C1345 1.385 . S
C1349 C1348 1.374 . S
C1350 C1347 1.499 . S
C1350 C1351 1.373 . S
C1350 C1352 1.389 . S
C1351 H1330 0.950 . S
C1351 C1350 1.373 . S
C1351 C1367 1.377 . S
C1352 C1350 1.389 . S
C1352 C1353 1.524 . S
C1352 C1366 1.377 . S
C1353 C1352 1.524 . S
C1353 C1354 1.397 . S
C1353 C1358 1.363 . S
C1354 H1331 0.950 . S
C1354 C1353 1.397 . S
C1354 C1355 1.334 . S
C1355 H1332 0.950 . S
C1355 C1354 1.334 . S
C1355 C1356 1.287 . S
C1356 C1355 1.287 . S
C1356 C1357 1.524 . S
C1356 H1375 0.913 . S
C1357 H1333 0.950 . S
C1357 C1356 1.524 . S
C1357 C1358 1.415 . S
C1358 H1334 0.950 . S
C1358 C1353 1.363 . S
C1358 C1357 1.415 . S
C1359 H1335 0.951 . S
C1359 C1360 1.366 . S
C1359 C1361 1.388 . S
C1360 C1359 1.366 . S
C1360 C1364 1.385 . S
C1361 H1336 0.951 . S
C1361 C1359 1.388 . S
C1361 C1362 1.366 . S
C1362 C1361 1.366 . S
C1362 C1363 1.414 . S
C1362 C1365 1.499 . S
C1363 H1337 0.950 . S
C1363 C1362 1.414 . S
C1363 C1364 1.374 . S
C1364 H1338 0.950 . S
C1364 C1360 1.385 . S
C1364 C1363 1.374 . S
C1365 C1362 1.499 . S
C1365 C1366 1.373 . S
C1365 C1367 1.389 . S
C1366 H1339 0.950 . S
C1366 C1352 1.377 . S
C1366 C1365 1.373 . S
C1367 C1351 1.377 . S
C1367 C1365 1.389 . S
C1367 C1368 1.524 . S
C1368 C1367 1.524 . S
C1368 C1369 1.397 . S
C1368 C1373 1.363 . S
C1369 H1340 0.950 . S
C1369 C1368 1.397 . S
C1369 C1370 1.334 . S
C1370 H1341 0.950 . S
C1370 C1369 1.334 . S
C1370 C1371 1.287 . S
C1371 C1370 1.287 . S
C1371 C1372 1.524 . S
C1371 H1374 0.999 . S
C1372 H1342 0.950 . S
C1372 C1371 1.524 . S
C1372 C1373 1.415 . S
C1373 H1343 0.950 . S
C1373 C1368 1.363 . S
C1373 C1372 1.415 . S
H1374 C1371 0.999 . S
H1375 C1356 0.913 . S
C195 C21 0.718 . S
C210 C87 0.716 . S
C245 C43 0.716 . S
C260 C65 0.717 . S
C295 C103 0.697 . S
C310 C175 0.697 . S
C345 C125 0.696 . S
C360 C139 0.698 . S
C395 C8 2.054 . S
C410 C98 2.059 . S
C445 C120 2.059 . S
C460 C30 2.054 . S
C495 C150 2.059 . S
C510 C52 2.054 . S
C545 C74 2.053 . S
C560 C162 2.059 . S
C595 C147 0.735 . S
C610 C18 0.733 . S
C645 C161 0.735 . S
C660 C40 0.733 . S
C695 C62 0.733 . S
C710 C109 0.735 . S
C745 C84 0.733 . S
C760 C131 0.733 . S
C795 C59 0.734 . S
C810 C106 0.733 . S
C845 C128 0.733 . S
C860 C81 0.734 . S
C895 C15 0.734 . S
C910 C140 0.733 . S
C945 C164 0.733 . S
C960 C37 0.734 . S
C995 C10 1.557 1_556 S
C1010 C29 1.561 . S
C1045 C7 1.561 . S
C1060 C32 1.557 . S
C1095 C73 1.561 . S
C1110 C54 1.557 1_554 S
C1145 C76 1.557 . S
C1160 C51 1.561 . S
C1195 C96 1.568 1_554 S
C1210 C117 1.571 . S
C1245 C95 1.572 . S
C1260 C118 1.568 . S
C1295 C169 1.572 . S
C1310 C142 1.568 1_556 S
C1345 C172 1.568 . S
C1360 C153 1.572 . S
