# Generated by pormake.
# Topology wkj, (6)-cn, num edge types: 1
# Building blocks:
#     Node 0, Type 0, BuildingBlock: UKALOJ_clean_sbu_0, # of connection points: 6
#     Node 1, Type 0, BuildingBlock: UKALOJ_clean_sbu_0, # of connection points: 6
#     Node 2, Type 0, BuildingBlock: UKALOJ_clean_sbu_0, # of connection points: 6
#     Node 3, Type 0, BuildingBlock: UKALOJ_clean_sbu_0, # of connection points: 6
#     Node 4, Type 0, BuildingBlock: UKALOJ_clean_sbu_0, # of connection points: 6
#     Node 5, Type 0, BuildingBlock: UKALOJ_clean_sbu_0, # of connection points: 6
#     Node 6, Type 0, BuildingBlock: UKALOJ_clean_sbu_0, # of connection points: 6
#     Node 7, Type 0, BuildingBlock: UKALOJ_clean_sbu_0, # of connection points: 6
#     Node 8, Type 0, BuildingBlock: UKALOJ_clean_sbu_0, # of connection points: 6
#     Node 9, Type 0, BuildingBlock: UKALOJ_clean_sbu_0, # of connection points: 6
#     Node 10, Type 0, BuildingBlock: UKALOJ_clean_sbu_0, # of connection points: 6
#     Node 11, Type 0, BuildingBlock: UKALOJ_clean_sbu_0, # of connection points: 6
#     Edge 12, Type (0, 0), BuildingBlock: EZIPEK_clean_linker_0, # of connection points: 2
#     Edge 13, Type (0, 0), BuildingBlock: EZIPEK_clean_linker_0, # of connection points: 2
#     Edge 14, Type (0, 0), BuildingBlock: EZIPEK_clean_linker_0, # of connection points: 2
#     Edge 15, Type (0, 0), BuildingBlock: EZIPEK_clean_linker_0, # of connection points: 2
#     Edge 16, Type (0, 0), BuildingBlock: EZIPEK_clean_linker_0, # of connection points: 2
#     Edge 17, Type (0, 0), BuildingBlock: EZIPEK_clean_linker_0, # of connection points: 2
#     Edge 18, Type (0, 0), BuildingBlock: EZIPEK_clean_linker_0, # of connection points: 2
#     Edge 19, Type (0, 0), BuildingBlock: EZIPEK_clean_linker_0, # of connection points: 2
#     Edge 20, Type (0, 0), BuildingBlock: EZIPEK_clean_linker_0, # of connection points: 2
#     Edge 21, Type (0, 0), BuildingBlock: EZIPEK_clean_linker_0, # of connection points: 2
#     Edge 22, Type (0, 0), BuildingBlock: EZIPEK_clean_linker_0, # of connection points: 2
#     Edge 23, Type (0, 0), BuildingBlock: EZIPEK_clean_linker_0, # of connection points: 2
#     Edge 24, Type (0, 0), BuildingBlock: EZIPEK_clean_linker_0, # of connection points: 2
#     Edge 25, Type (0, 0), BuildingBlock: EZIPEK_clean_linker_0, # of connection points: 2
#     Edge 26, Type (0, 0), BuildingBlock: EZIPEK_clean_linker_0, # of connection points: 2
#     Edge 27, Type (0, 0), BuildingBlock: EZIPEK_clean_linker_0, # of connection points: 2
#     Edge 28, Type (0, 0), BuildingBlock: EZIPEK_clean_linker_0, # of connection points: 2
#     Edge 29, Type (0, 0), BuildingBlock: EZIPEK_clean_linker_0, # of connection points: 2
#     Edge 30, Type (0, 0), BuildingBlock: EZIPEK_clean_linker_0, # of connection points: 2
#     Edge 31, Type (0, 0), BuildingBlock: EZIPEK_clean_linker_0, # of connection points: 2
#     Edge 32, Type (0, 0), BuildingBlock: EZIPEK_clean_linker_0, # of connection points: 2
#     Edge 33, Type (0, 0), BuildingBlock: EZIPEK_clean_linker_0, # of connection points: 2
#     Edge 34, Type (0, 0), BuildingBlock: EZIPEK_clean_linker_0, # of connection points: 2
#     Edge 35, Type (0, 0), BuildingBlock: EZIPEK_clean_linker_0, # of connection points: 2
#     Edge 36, Type (0, 0), BuildingBlock: EZIPEK_clean_linker_0, # of connection points: 2
#     Edge 37, Type (0, 0), BuildingBlock: EZIPEK_clean_linker_0, # of connection points: 2
#     Edge 38, Type (0, 0), BuildingBlock: EZIPEK_clean_linker_0, # of connection points: 2
#     Edge 39, Type (0, 0), BuildingBlock: EZIPEK_clean_linker_0, # of connection points: 2
#     Edge 40, Type (0, 0), BuildingBlock: EZIPEK_clean_linker_0, # of connection points: 2
#     Edge 41, Type (0, 0), BuildingBlock: EZIPEK_clean_linker_0, # of connection points: 2
#     Edge 42, Type (0, 0), BuildingBlock: EZIPEK_clean_linker_0, # of connection points: 2
#     Edge 43, Type (0, 0), BuildingBlock: EZIPEK_clean_linker_0, # of connection points: 2
#     Edge 44, Type (0, 0), BuildingBlock: EZIPEK_clean_linker_0, # of connection points: 2
#     Edge 45, Type (0, 0), BuildingBlock: EZIPEK_clean_linker_0, # of connection points: 2
#     Edge 46, Type (0, 0), BuildingBlock: EZIPEK_clean_linker_0, # of connection points: 2
#     Edge 47, Type (0, 0), BuildingBlock: EZIPEK_clean_linker_0, # of connection points: 2
# Relax obj value: 1.034
# Max RMSD: 0.242
# Mean RMSD: 0.242
data_MOF--net-wkj--node1-UKALOJ_clean_sbu_0--edge1-EZIPEK_clean_linker_0
_symmetry_space_group_name_H-M    P1
_symmetry_Int_Tables_number       1
_symmetry_cell_setting            triclinic
loop_
_symmetry_equiv_pos_as_xyz
'x, y, z'
_cell_length_a     51.683451
_cell_length_b     51.741641
_cell_length_c     16.000385
_cell_angle_alpha  90.115017
_cell_angle_beta   89.908878
_cell_angle_gamma 119.81826
loop_
_atom_site_label
_atom_site_type_symbol
_atom_site_fract_x
_atom_site_fract_y
_atom_site_fract_z
_atom_type_partial_charge
Zn0 Zn 0.48071 0.05884 0.24418 0.0
O1 O 0.44785 0.03643 0.33751 0.0
C2 C 0.52615 0.10268 0.37168 0.0
Zn3 Zn 0.47411 0.0976 0.2512 0.0
C4 C 0.43457 0.0477 0.37671 0.0
O5 O 0.44113 0.0744 0.35751 0.0
C6 C 0.52025 0.10451 0.11813 0.0
O7 O 0.4342 0.07234 0.15881 0.0
O8 O 0.44958 0.04034 0.15482 0.0
N9 N 0.46898 0.13649 0.25874 0.0
C10 C 0.46987 0.15639 0.20144 0.0
C11 C 0.46573 0.17224 0.32056 0.0
N12 N 0.46633 0.14666 0.33251 0.0
N13 N 0.46796 0.17912 0.23864 0.0
C14 C 0.48796 1.00766 0.28087 0.0
C15 C 0.50519 1.00183 0.16873 0.0
N16 N 0.48276 0.02259 0.22276 0.0
N17 N 0.49196 0.01777 0.15077 0.0
N18 N 0.50687 0.99889 0.25221 0.0
H19 H 0.44331 0.98575 0.32969 0.0
H20 H 0.4664 0.97185 0.36904 0.0
H21 H 0.47211 1.00779 0.40392 0.0
C22 C 0.46627 0.99231 0.35019 0.0
C23 C 0.47339 0.15397 0.10952 0.0
H24 H 0.46429 0.13033 0.09111 0.0
H25 H 0.46201 0.16392 0.07425 0.0
H26 H 0.49747 0.16648 0.09362 0.0
O27 O 0.50751 0.11883 0.14421 0.0
O28 O 0.51222 0.07944 0.15043 0.0
C29 C 0.43083 0.04735 0.13168 0.0
O30 O 0.51632 0.07675 0.34017 0.0
O31 O 0.51349 0.11756 0.34736 0.0
Zn32 Zn 0.38161 0.4677 0.58196 0.0
O33 O 0.36957 0.43369 0.47011 0.0
C34 C 0.41903 0.51917 0.46143 0.0
Zn35 Zn 0.42781 0.47685 0.57869 0.0
C36 C 0.39151 0.42942 0.45318 0.0
O37 O 0.41473 0.44434 0.49494 0.0
C38 C 0.42615 0.51776 0.71378 0.0
O39 O 0.42194 0.44481 0.67184 0.0
O40 O 0.3742 0.42957 0.6753 0.0
N41 N 0.46688 0.4819 0.54271 0.0
C42 C 0.48508 0.47621 0.58687 0.0
C43 C 0.50992 0.5029 0.48759 0.0
N44 N 0.48164 0.49637 0.47525 0.0
N45 N 0.51349 0.4958 0.56661 0.0
C46 C 0.31726 0.46162 0.53867 0.0
C47 C 0.29487 0.44917 0.65566 0.0
N48 N 0.33623 0.45919 0.59313 0.0
N49 N 0.32194 0.45141 0.66564 0.0
N50 N 0.29116 0.45558 0.5764 0.0
H51 H 0.34045 0.4636 0.42499 0.0
H52 H 0.30372 0.45959 0.41067 0.0
H53 H 0.33457 0.49468 0.44326 0.0
C54 C 0.32437 0.47016 0.44887 0.0
C55 C 0.4758 0.44507 0.61305 0.0
H56 H 0.46981 0.44203 0.68027 0.0
H57 H 0.45626 0.429 0.57594 0.0
H58 H 0.49421 0.44039 0.6025 0.0
O59 O 0.44412 0.5121 0.67345 0.0
O60 O 0.39826 0.50246 0.69309 0.0
C61 C 0.39633 0.42649 0.70031 0.0
O62 O 0.39251 0.50608 0.49118 0.0
O63 O 0.43608 0.50964 0.48484 0.0
Zn64 Zn 0.9197 0.37216 0.92435 0.0
O65 O 0.93837 0.35478 0.82177 0.0
C66 C 0.91472 0.41446 0.79654 0.0
Zn67 Zn 0.96221 0.41464 0.91122 0.0
C68 C 0.96501 0.372 0.79501 0.0
O69 O 0.97857 0.39839 0.8213 0.0
C70 C 0.92178 0.41853 0.05143 0.0
O71 O 0.98399 0.40409 0.99904 0.0
O72 O 0.94492 0.36093 0.0249 0.0
N73 N 0.99915 0.45237 0.88732 0.0
C74 C 1.0155 0.46955 0.94959 0.0
C75 C 0.01669 0.49743 0.85203 0.0
N76 N 1.00114 0.46943 0.82382 0.0
N77 N 0.02301 0.49802 0.93456 0.0
C78 C 0.85936 0.31037 0.87878 0.0
C79 C 0.84581 0.28973 0.99782 0.0
N80 N 0.87991 0.32929 0.93488 0.0
N81 N 0.87114 0.31612 1.00865 0.0
N82 N 0.83767 0.28539 0.9167 0.0
H83 H 0.88309 0.3337 0.76773 0.0
H84 H 0.85345 0.29553 0.75131 0.0
H85 H 0.84449 0.32423 0.77277 0.0
C86 C 0.86043 0.31636 0.78713 0.0
C87 C 0.03594 0.46162 0.9952 0.0
H88 H 0.02689 0.45282 0.05817 0.0
H89 H 0.03839 0.44435 0.96053 0.0
H90 H 0.05829 0.48148 1.00172 0.0
O91 O 0.94693 0.43287 0.01396 0.0
O92 O 0.90419 0.39163 0.02753 0.0
C93 C 0.97226 0.38045 0.04118 0.0
O94 O 0.89788 0.38823 0.82642 0.0
O95 O 0.94158 0.42809 0.82001 0.0
Zn96 Zn 0.55965 0.91646 0.25954 0.0
O97 O 0.59761 0.9339 0.16076 0.0
C98 C 0.51356 0.9199 0.13442 0.0
Zn99 Zn 0.56178 0.95965 0.25446 0.0
C100 C 0.60468 0.95975 0.13191 0.0
O101 O 0.59069 0.97181 0.15914 0.0
C102 C 0.51424 0.92172 0.386 0.0
O103 O 0.5981 0.97559 0.33741 0.0
O104 O 0.59497 0.93364 0.36817 0.0
N105 N 0.57508 1.00253 0.23591 0.0
C106 C 0.59089 0.03022 0.3207 0.0
C107 C 0.59941 0.06038 0.14961 0.0
N108 N 0.57982 0.0189 0.14062 0.0
N109 N 0.60467 0.06635 0.2688 0.0
C110 C 0.55954 0.85557 0.20362 0.0
C111 C 0.54925 0.83179 0.31828 0.0
N112 N 0.55592 0.87286 0.26168 0.0
N113 N 0.54949 0.8577 0.33261 0.0
N114 N 0.55557 0.82967 0.23761 0.0
H115 H 0.55756 0.87811 0.09343 0.0
H116 H 0.59172 0.87734 0.10748 0.0
H117 H 0.55873 0.84404 0.07395 0.0
C118 C 0.56711 0.86415 0.11406 0.0
C119 C 0.60492 0.02807 0.39739 0.0
H120 H 0.62655 0.03203 0.3754 0.0
H121 H 0.60986 0.04661 0.44058 0.0
H122 H 0.59137 1.00624 0.42637 0.0
O123 O 0.52873 0.94857 0.35829 0.0
O124 O 0.52189 0.9031 0.35728 0.0
C125 C 0.6073 0.96182 0.38189 0.0
O126 O 0.52376 0.90249 0.15458 0.0
O127 O 0.52563 0.94522 0.17024 0.0
Zn128 Zn 0.64786 0.54904 0.59308 0.0
O129 O 0.66695 0.58924 0.49859 0.0
C130 C 0.59793 0.50341 0.46609 0.0
Zn131 Zn 0.60727 0.55026 0.58586 0.0
C132 C 0.647 0.59362 0.46372 0.0
O133 O 0.62065 0.57737 0.4864 0.0
C134 C 0.59974 0.50435 0.71706 0.0
O135 O 0.62833 0.58749 0.66774 0.0
O136 O 0.66454 0.58122 0.70662 0.0
N137 N 0.57884 0.56327 0.59273 0.0
C138 C 0.56516 0.56755 0.69552 0.0
C139 C 0.54777 0.59649 0.55444 0.0
N140 N 0.5696 0.57939 0.51478 0.0
N141 N 0.54404 0.58699 0.67158 0.0
C142 C 0.70846 0.54847 0.53209 0.0
C143 C 0.72385 0.54112 0.64788 0.0
N144 N 0.68841 0.54627 0.5913 0.0
N145 N 0.69839 0.5417 0.66287 0.0
N146 N 0.731 0.54538 0.56607 0.0
H147 H 0.68358 0.5504 0.4267 0.0
H148 H 0.72316 0.57678 0.42527 0.0
H149 H 0.71041 0.53832 0.40324 0.0
C150 C 0.70598 0.55364 0.44139 0.0
C151 C 0.57499 0.56361 0.77973 0.0
H152 H 0.59518 0.56183 0.77842 0.0
H153 H 0.57723 0.58171 0.82083 0.0
H154 H 0.55836 0.54235 0.80608 0.0
O155 O 0.58795 0.51915 0.68942 0.0
O156 O 0.62531 0.51053 0.68682 0.0
C157 C 0.64915 0.59413 0.71874 0.0
O158 O 0.62582 0.5147 0.4853 0.0
O159 O 0.58317 0.51389 0.50223 0.0
Zn160 Zn 0.06336 0.59507 0.93658 0.0
O161 O 0.05031 0.6152 0.02675 0.0
C162 C 0.10837 0.59328 0.05598 0.0
Zn163 Zn 0.1036 0.63795 0.92398 0.0
C164 C 0.05934 0.64143 0.04972 0.0
O165 O 0.08476 0.66096 0.01899 0.0
C166 C 0.09959 0.58457 0.81351 0.0
O167 O 0.0828 0.65024 0.81085 0.0
O168 O 0.04495 0.60918 0.85145 0.0
N169 N 0.14695 0.67661 0.90602 0.0
C170 C 0.15953 0.70663 0.89509 0.0
C171 C 0.19448 0.69648 0.88207 0.0
N172 N 0.16908 0.67082 0.89786 0.0
N173 N 0.18949 0.71967 0.87949 0.0
C174 C 1.00408 0.55284 0.05019 0.0
C175 C 0.95744 0.53217 0.9088 0.0
N176 N 0.02179 0.56317 0.9466 0.0
N177 N 0.99629 0.55213 0.86834 0.0
N178 N 0.9634 0.5317 0.02711 0.0
H179 H 1.01269 0.58689 0.13818 0.0
H180 H 1.00969 0.55618 0.18723 0.0
H181 H 0.04244 0.57862 0.12793 0.0
C182 C 0.01806 0.56913 0.13001 0.0
C183 C 0.14232 0.72278 0.89918 0.0
H184 H 0.12849 0.7162 0.95669 0.0
H185 H 0.15739 0.74727 0.89834 0.0
H186 H 0.12692 0.71609 0.845 0.0
O187 O 0.11746 0.6117 0.83565 0.0
O188 O 0.07321 0.57245 0.84227 0.0
C189 C 0.05519 0.63055 0.80151 0.0
O190 O 0.08193 0.57706 0.0278 0.0
O191 O 0.1223 0.62076 0.03161 0.0
Zn192 Zn 0.92394 0.54948 0.43124 0.0
O193 O 0.93811 0.58375 0.53566 0.0
C194 C 0.92608 0.50625 0.5629 0.0
Zn195 Zn 0.96822 0.55163 0.43253 0.0
C196 C 0.96628 0.59709 0.54676 0.0
O197 O 0.9804 0.58808 0.50384 0.0
C198 C 0.92649 0.4998 0.31848 0.0
O199 O 0.9836 0.58012 0.32405 0.0
O200 O 0.94608 0.58813 0.32797 0.0
N201 N 1.01348 0.56514 0.46215 0.0
C202 C 0.04558 0.5927 0.39986 0.0
C203 C 0.06554 0.58207 0.57163 0.0
N204 N 0.02436 0.55938 0.55682 0.0
N205 N 0.07864 0.60247 0.46612 0.0
C206 C 0.86176 0.54841 0.47909 0.0
C207 C 0.84146 0.54272 0.36001 0.0
N208 N 0.88075 0.54691 0.42245 0.0
N209 N 0.86774 0.54335 0.3487 0.0
N210 N 0.83695 0.54594 0.44149 0.0
H211 H 0.87758 0.57645 0.58639 0.0
H212 H 0.84632 0.5401 0.60621 0.0
H213 H 0.88324 0.54479 0.58991 0.0
C214 C 0.86754 0.55244 0.57096 0.0
C215 C 0.04539 0.61369 0.33983 0.0
H216 H 0.0317 0.62174 0.36982 0.0
H217 H 0.06835 0.6325 0.33163 0.0
H218 H 0.03624 0.60239 0.27953 0.0
O219 O 0.95245 0.51097 0.35327 0.0
O220 O 0.91119 0.51283 0.33349 0.0
C221 C 0.97178 0.5948 0.29636 0.0
O222 O 0.90718 0.51213 0.52782 0.0
O223 O 0.9534 0.5223 0.54189 0.0
Zn224 Zn 0.4217 0.95528 0.77477 0.0
O225 O 0.41434 0.97686 0.68326 0.0
C226 C 0.42609 0.91181 0.64208 0.0
Zn227 Zn 0.37973 0.91207 0.76768 0.0
C228 C 0.39039 0.96501 0.64257 0.0
O229 O 0.37023 0.93808 0.66215 0.0
C230 C 0.41934 0.90923 0.90165 0.0
O231 O 0.36335 0.93271 0.8685 0.0
O232 O 0.40592 0.97368 0.85775 0.0
N233 N 0.33673 0.87204 0.75829 0.0
C234 C 0.31335 0.85677 0.81161 0.0
C235 C 0.30447 0.82955 0.70389 0.0
N236 N 0.33078 0.85479 0.69157 0.0
N237 N 0.29277 0.82984 0.77911 0.0
C238 C 0.47843 0.01316 0.75609 0.0
C239 C 0.50354 0.0142 0.8596 0.0
N240 N 0.45998 0.99179 0.807 0.0
N241 N 0.47499 0.99403 0.87579 0.0
N242 N 0.507 0.02306 0.77864 0.0
H243 H 0.4499 0.03195 0.74223 0.0
H244 H 0.48729 0.05524 0.70499 0.0
H245 H 0.46173 0.02322 0.64521 0.0
C246 C 0.46883 0.03202 0.70935 0.0
C247 C 0.31102 0.86826 0.89551 0.0
H248 H 0.30878 0.88833 0.88698 0.0
H249 H 0.29143 0.85145 0.93104 0.0
H250 H 0.33174 0.87491 0.93148 0.0
O251 O 0.39386 0.89016 0.87189 0.0
O252 O 0.43136 0.93482 0.86974 0.0
C253 C 0.38057 0.95999 0.89032 0.0
O254 O 0.43996 0.9373 0.67797 0.0
O255 O 0.39909 0.89452 0.66608 0.0
Zn256 Zn 0.47115 0.3703 0.08854 0.0
O257 O 0.43611 0.35354 0.19559 0.0
C258 C 0.51393 0.41896 0.21866 0.0
Zn259 Zn 0.46861 0.41046 0.08713 0.0
C260 C 0.42359 0.36936 0.2078 0.0
O261 O 0.43245 0.39201 0.16334 0.0
C262 C 0.51772 0.41939 0.9676 0.0
O263 O 0.441 0.39549 0.98916 0.0
O264 O 0.43422 0.3511 0.9817 0.0
N265 N 0.45794 0.4405 0.08413 0.0
C266 C 0.46242 0.46149 0.98773 0.0
C267 C 0.43188 0.478 0.12603 0.0
N268 N 0.44075 0.4491 0.16073 0.0
N269 N 0.44795 0.48656 0.01473 0.0
C270 C 0.47091 0.30962 0.14776 0.0
C271 C 0.47968 0.29491 0.03249 0.0
N272 N 0.47413 0.33011 0.08911 0.0
N273 N 0.4796 0.3206 0.01784 0.0
N274 N 0.4742 0.28722 0.11372 0.0
H275 H 0.47366 0.33509 0.25695 0.0
H276 H 0.43984 0.29979 0.24686 0.0
H277 H 0.47367 0.30051 0.27755 0.0
C278 C 0.46437 0.31149 0.23784 0.0
C279 C 0.46159 0.44995 0.90132 0.0
H280 H 0.44078 0.42901 0.89209 0.0
H281 H 0.4602 0.46442 0.85407 0.0
H282 H 0.48065 0.44631 0.89014 0.0
O283 O 0.50609 0.43315 1.00328 0.0
O284 O 0.50721 0.39172 0.98638 0.0
C285 C 0.42828 0.37087 0.95352 0.0
O286 O 0.50811 0.39348 0.18835 0.0
O287 O 0.49882 0.43043 0.19087 0.0
Zn288 Zn 0.10459 0.46398 0.43504 0.0
O289 O 0.07858 0.42931 0.53942 0.0
C290 C 0.1085 0.50696 0.56769 0.0
Zn291 Zn 0.06677 0.47154 0.42524 0.0
C292 C 0.05084 0.42193 0.54467 0.0
O293 O 0.04204 0.43464 0.49468 0.0
C294 C 0.114 0.51637 0.31132 0.0
O295 O 0.04978 0.4453 0.3212 0.0
O296 O 0.08007 0.42776 0.335 0.0
N297 N 0.0322 0.47835 0.42533 0.0
C298 C 0.02724 0.49041 0.35829 0.0
C299 C 1.00712 0.49869 0.46009 0.0
N300 N 0.01829 0.48198 0.48911 0.0
N301 N 0.01679 0.5086 0.38137 0.0
C302 C 0.16334 0.45971 0.49223 0.0
C303 C 0.17505 0.44715 0.37793 0.0
N304 N 0.14239 0.45658 0.43503 0.0
N305 N 0.15005 0.44874 0.36435 0.0
N306 N 0.18422 0.45406 0.45782 0.0
H307 H 0.17524 0.46019 0.62135 0.0
H308 H 0.17525 0.49317 0.58559 0.0
H309 H 0.14023 0.45973 0.60385 0.0
C310 C 0.16342 0.4685 0.58129 0.0
C311 C 1.01459 0.47024 0.28439 0.0
H312 H 0.03286 0.47465 0.24039 0.0
H313 H 1.0042 0.44659 0.30398 0.0
H314 H 0.99643 0.47192 0.25442 0.0
O315 O 0.09013 0.51046 0.34879 0.0
O316 O 0.12594 0.5003 0.33001 0.0
C317 C 0.05747 0.42684 0.29859 0.0
O318 O 0.12589 0.49887 0.53475 0.0
O319 O 0.08281 0.49705 0.53566 0.0
Zn320 Zn 0.60608 0.0562 0.7594 0.0
O321 O 0.6238 0.03745 0.67384 0.0
C322 C 0.60576 0.10182 0.62989 0.0
Zn323 Zn 0.6496 0.09591 0.75838 0.0
C324 C 0.6488 0.04785 0.63902 0.0
O325 O 0.66762 0.07518 0.657 0.0
C326 C 0.59938 0.0962 0.87672 0.0
O327 O 0.66339 0.07275 0.86221 0.0
O328 O 0.61727 0.03812 0.85477 0.0
N329 N 0.69192 0.13654 0.76307 0.0
C330 C 0.70889 0.15656 0.82301 0.0
C331 C 0.73245 0.17236 0.70838 0.0
N332 N 0.70692 0.14673 0.69223 0.0
N333 N 0.73444 0.17932 0.79017 0.0
C334 C 0.55751 0.99764 0.65344 0.0
C335 C 0.53604 0.95321 0.7997 0.0
N336 N 0.57313 0.01627 0.75394 0.0
N337 N 0.56157 0.99191 0.8349 0.0
N338 N 0.53274 0.95818 0.68175 0.0
H339 H 0.58765 0.9974 0.56712 0.0
H340 H 0.55589 0.9963 0.52289 0.0
H341 H 0.5857 0.03118 0.56835 0.0
C342 C 0.57264 1.00675 0.57251 0.0
C343 C 0.70039 0.15383 0.91316 0.0
H344 H 0.68327 0.13058 0.92829 0.0
H345 H 0.72039 0.16108 0.95306 0.0
H346 H 0.69113 0.16871 0.92631 0.0
O347 O 0.62706 0.11264 0.85522 0.0
O348 O 0.58557 0.07 0.84715 0.0
C349 C 0.64232 0.04723 0.88713 0.0
O350 O 0.58983 0.0753 0.65876 0.0
O351 O 0.6329 0.11631 0.65619 0.0
Zn352 Zn 0.55429 0.63904 0.10929 0.0
O353 O 0.59156 0.65472 0.2107 0.0
C354 C 0.50594 0.60346 0.24651 0.0
Zn355 Zn 0.54825 0.59394 0.13626 0.0
C356 C 0.59865 0.63588 0.23996 0.0
O357 O 0.58304 0.6091 0.2186 0.0
C358 C 0.50344 0.5927 0.99364 0.0
O359 O 0.57907 0.59976 0.0368 0.0
O360 O 0.59005 0.6455 1.01068 0.0
N361 N 0.54403 0.55397 0.17505 0.0
C362 C 0.5499 0.53549 0.13228 0.0
C363 C 0.52138 0.51024 0.22819 0.0
N364 N 0.52871 0.53886 0.24123 0.0
N365 N 0.53049 0.50665 0.15153 0.0
C366 C 0.55894 0.70253 0.15213 0.0
C367 C 0.56643 0.72318 0.0331 0.0
N368 N 0.56085 0.68356 0.09635 0.0
N369 N 0.56556 0.69677 0.02256 0.0
N370 N 0.56228 0.72754 0.11406 0.0
H371 H 0.56036 0.68051 0.26466 0.0
H372 H 0.56447 0.71721 0.2799 0.0
H373 H 0.52865 0.68597 0.25471 0.0
C374 C 0.55298 0.6962 0.24339 0.0
C375 C 0.57911 0.54551 0.08964 0.0
H376 H 0.57912 0.55406 0.02652 0.0
H377 H 0.597 0.5631 0.12809 0.0
H378 H 0.5838 0.52709 0.08175 0.0
O379 O 0.5105 0.57718 0.04114 0.0
O380 O 0.51826 0.62102 1.00596 0.0
C381 C 0.59437 0.62343 0.99456 0.0
O382 O 0.51686 0.62793 0.20525 0.0
O383 O 0.51714 0.58696 0.23374 0.0
C384 C 0.44288 0.20701 0.18868 0.0
C385 C 0.46948 0.20601 0.20372 0.0
C386 C 0.49891 0.25983 0.16972 0.0
C387 C 0.47237 0.26046 0.15068 0.0
N388 N 0.41926 0.23429 0.13413 0.0
N389 N 0.52287 0.23065 0.20377 0.0
C390 C 0.44437 0.23389 0.15842 0.0
C391 C 0.49753 0.23229 0.19274 0.0
N392 N 0.41613 0.18214 0.20475 0.0
N393 N 0.52541 0.28597 0.16731 0.0
H394 H 0.52231 0.21105 0.22219 0.0
H395 H 0.54424 0.2479 0.19061 0.0
H396 H 0.52675 0.30612 0.15104 0.0
H397 H 0.5457 0.28828 0.1861 0.0
H398 H 0.39575 0.1816 0.2037 0.0
H399 H 0.41455 0.16207 0.22328 0.0
H400 H 0.39827 0.21541 0.12983 0.0
H401 H 0.4198 0.25371 0.11385 0.0
C402 C 0.26421 0.48265 0.53368 0.0
C403 C 0.26461 0.45553 0.54372 0.0
C404 C 0.2107 0.42776 0.50894 0.0
C405 C 0.21077 0.45483 0.49331 0.0
N406 N 0.23843 0.50805 0.48109 0.0
N407 N 0.23919 0.40234 0.53171 0.0
C408 C 0.23781 0.4823 0.50335 0.0
C409 C 0.238 0.4281 0.5289 0.0
N410 N 0.28894 0.50873 0.55565 0.0
N411 N 0.18415 0.40168 0.50653 0.0
H412 H 0.25881 0.40213 0.54553 0.0
H413 H 0.22163 0.38162 0.51434 0.0
H414 H 0.1641 0.40101 0.49275 0.0
H415 H 0.18152 0.38118 0.52431 0.0
H416 H 0.28959 0.52914 0.55833 0.0
H417 H 0.30843 0.50955 0.57671 0.0
H418 H 0.25784 0.52868 0.47826 0.0
H419 H 0.21949 0.50838 0.46012 0.0
C420 C 0.78462 0.25896 0.86749 0.0
C421 C 0.81174 0.25897 0.88227 0.0
C422 C 0.78604 0.20507 0.84852 0.0
C423 C 0.75945 0.20547 0.82882 0.0
N424 N 0.73398 0.23316 0.8115 0.0
N425 N 0.83934 0.23304 0.87929 0.0
C426 C 0.75893 0.23259 0.8364 0.0
C427 C 0.81264 0.23218 0.87084 0.0
N428 N 0.78334 0.2841 0.88547 0.0
N429 N 0.78552 0.17843 0.84691 0.0
H430 H 0.8589 0.25254 0.8951 0.0
H431 H 0.84271 0.2153 0.86525 0.0
H432 H 0.76642 0.15858 0.83059 0.0
H433 H 0.80301 0.1755 0.86704 0.0
H434 H 0.7638 0.28522 0.88433 0.0
H435 H 0.80188 0.30362 0.9065 0.0
H436 H 0.73268 0.25254 0.80677 0.0
H437 H 0.71482 0.21408 0.79112 0.0
C438 C 0.53256 0.75188 0.15487 0.0
C439 C 0.56057 0.75308 0.14761 0.0
C440 C 0.58549 0.80558 0.19666 0.0
C441 C 0.55759 0.80471 0.20101 0.0
N442 N 0.50488 0.77828 0.17746 0.0
N443 N 0.61391 0.78157 0.15412 0.0
C444 C 0.5312 0.77808 0.17823 0.0
C445 C 0.5871 0.78018 0.16642 0.0
N446 N 0.50723 0.72539 0.13998 0.0
N447 N 0.61037 0.83057 0.22411 0.0
H448 H 0.61551 0.76306 0.13574 0.0
H449 H 0.63441 0.80107 0.15816 0.0
H450 H 0.60978 0.84945 0.24438 0.0
H451 H 0.63116 0.83225 0.23091 0.0
H452 H 0.48575 0.7216 0.15028 0.0
H453 H 0.50779 0.70638 0.12096 0.0
H454 H 0.4848 0.76077 0.15594 0.0
H455 H 0.50355 0.79711 0.19405 0.0
C456 C 0.78377 0.57309 0.51352 0.0
C457 C 0.75711 0.54569 0.52853 0.0
C458 C 0.78446 0.51879 0.49503 0.0
C459 C 0.81069 0.54609 0.47611 0.0
N460 N 0.83462 0.59902 0.45861 0.0
N461 N 0.73104 0.49235 0.52538 0.0
C462 C 0.81006 0.57319 0.483 0.0
C463 C 0.75729 0.51851 0.51698 0.0
N464 N 0.78411 0.59907 0.53134 0.0
N465 N 0.78588 0.49314 0.49326 0.0
H466 H 0.71111 0.49175 0.54071 0.0
H467 H 0.72838 0.47151 0.5117 0.0
H468 H 0.8053 0.49291 0.47677 0.0
H469 H 0.76874 0.47255 0.51302 0.0
H470 H 0.80326 0.61992 0.5303 0.0
H471 H 0.76517 0.5995 0.55202 0.0
H472 H 0.83516 0.61933 0.4534 0.0
H473 H 0.85422 0.5997 0.439 0.0
C474 C 0.23793 0.79399 0.76835 0.0
C475 C 0.26517 0.80505 0.81336 0.0
C476 C 0.23853 0.76403 0.91461 0.0
C477 C 0.21282 0.75046 0.86262 0.0
N478 N 0.19023 0.75099 0.73181 0.0
N479 N 0.29216 0.79663 0.92251 0.0
C480 C 0.21297 0.76522 0.78758 0.0
C481 C 0.2656 0.78915 0.88532 0.0
N482 N 0.23589 0.81125 0.70729 0.0
N483 N 0.23695 0.75276 0.99263 0.0
H484 H 0.31246 0.81377 0.90058 0.0
H485 H 0.29431 0.78406 0.96992 0.0
H486 H 0.21732 0.73486 0.01578 0.0
H487 H 0.25391 0.76301 0.03672 0.0
H488 H 0.21602 0.80582 0.67677 0.0
H489 H 0.25347 0.83248 0.69348 0.0
H490 H 0.19051 0.75914 0.67213 0.0
H491 H 0.17225 0.72975 0.74253 0.0
C492 C 0.55028 0.09513 0.90998 0.0
C493 C 0.58113 0.10638 0.92999 0.0
C494 C 0.57251 0.13048 0.0538 0.0
C495 C 0.54108 0.11307 0.04345 0.0
N496 N 0.49998 0.07905 0.95838 0.0
N497 N 0.62097 0.13483 0.02783 0.0
C498 C 0.53013 0.09591 0.96985 0.0
C499 C 0.59228 0.12472 1.00291 0.0
N500 N 0.53991 0.08435 0.83215 0.0
N501 N 0.58333 0.15183 0.11447 0.0
H502 H 0.63578 0.13054 0.99484 0.0
H503 H 0.62932 0.1454 0.08493 0.0
H504 H 0.5691 0.15572 0.1522 0.0
H505 H 0.60594 0.16701 0.12215 0.0
H506 H 0.51947 0.08101 0.81078 0.0
H507 H 0.55246 0.0815 0.78616 0.0
H508 H 0.49025 0.0626 0.91262 0.0
H509 H 0.48464 0.08068 0.9974 0.0
C510 C 0.45019 0.56939 0.2673 0.0
C511 C 0.47806 0.59094 0.30095 0.0
C512 C 0.45339 0.57468 0.4371 0.0
C513 C 0.43223 0.54642 0.40454 0.0
N514 N 0.40873 0.51888 0.27937 0.0
N515 N 0.50406 0.61622 0.42624 0.0
C516 C 0.42996 0.54429 0.31651 0.0
C517 C 0.47912 0.59436 0.38877 0.0
N518 N 0.44132 0.57517 0.19367 0.0
N519 N 0.44698 0.58403 0.50921 0.0
H520 H 0.52263 0.63131 0.3917 0.0
H521 H 0.50611 0.61825 0.49114 0.0
H522 H 0.42621 0.57109 0.53759 0.0
H523 H 0.4604 0.60549 0.53272 0.0
H524 H 0.41972 0.56184 0.1708 0.0
H525 H 0.45484 0.59504 0.16172 0.0
H526 H 0.4077 0.51616 0.21456 0.0
H527 H 0.39322 0.50066 0.31415 0.0
C528 C 0.91747 0.43179 0.64896 0.0
C529 C 0.90598 0.42981 0.72968 0.0
C530 C 0.89963 0.47343 0.69439 0.0
C531 C 0.91681 0.47875 0.61938 0.0
N532 N 0.94431 0.46237 0.53203 0.0
N533 N 0.87885 0.44375 0.82241 0.0
C534 C 0.92608 0.4576 0.59861 0.0
C535 C 0.89471 0.44917 0.75011 0.0
N536 N 0.91876 0.40788 0.61844 0.0
N537 N 0.8891 0.49223 0.71392 0.0
H538 H 0.87385 0.42518 0.85912 0.0
H539 H 0.87022 0.45669 0.8455 0.0
H540 H 0.89279 0.51008 0.67608 0.0
H541 H 0.87661 0.49037 0.7668 0.0
H542 H 0.92277 0.40578 0.55561 0.0
H543 H 0.91162 0.3886 0.65398 0.0
H544 H 0.95443 0.44963 0.52051 0.0
H545 H 0.9501 0.47943 0.48935 0.0
C546 C 0.45647 0.93202 0.01668 0.0
C547 C 0.4371 0.90548 0.9733 0.0
C548 C 0.46512 0.88371 0.04398 0.0
C549 C 0.48799 0.91276 0.07146 0.0
N550 N 0.50895 0.96465 0.0336 0.0
N551 N 0.42594 0.85551 0.94063 0.0
C552 C 0.48468 0.93704 0.04363 0.0
C553 C 0.44214 0.88096 0.98557 0.0
N554 N 0.44873 0.95341 0.02782 0.0
N555 N 0.46464 0.85878 0.07335 0.0
H556 H 0.40899 0.85275 0.90009 0.0
H557 H 0.43066 0.83813 0.94021 0.0
H558 H 0.48037 0.85942 0.11494 0.0
H559 H 0.44712 0.83738 0.06117 0.0
H560 H 0.46276 0.97358 0.05667 0.0
H561 H 0.42737 0.94967 0.01428 0.0
H562 H 0.50719 0.98214 1.0072 0.0
H563 H 0.53075 0.96867 0.03971 0.0
C564 C 0.54229 0.42836 0.36063 0.0
C565 C 0.54 0.43778 0.27851 0.0
C566 C 0.58119 0.48863 0.31473 0.0
C567 C 0.58229 0.47985 0.39794 0.0
N568 N 0.57047 0.43931 0.49127 0.0
N569 N 0.56589 0.47405 0.17145 0.0
C570 C 0.56474 0.44901 0.41816 0.0
C571 C 0.562 0.46709 0.25416 0.0
N572 N 0.52279 0.39985 0.38437 0.0
N573 N 0.59778 0.518 0.29355 0.0
H574 H 0.55146 0.46005 0.12548 0.0
H575 H 0.58566 0.49174 0.14891 0.0
H576 H 0.61289 0.5342 0.33445 0.0
H577 H 0.59549 0.52638 0.2367 0.0
H578 H 0.52037 0.39235 0.44574 0.0
H579 H 0.50827 0.38381 0.3423 0.0
H580 H 0.56041 0.41701 0.50865 0.0
H581 H 0.58774 0.45365 0.53089 0.0
C582 C 0.13008 0.57705 0.69374 0.0
C583 C 0.10868 0.56552 0.76021 0.0
C584 C 0.09538 0.51451 0.71366 0.0
C585 C 0.11553 0.52598 0.64594 0.0
N586 N 0.1602 0.56773 0.59311 0.0
N587 N 0.08191 0.52269 0.85051 0.0
C588 C 0.13604 0.55711 0.64464 0.0
C589 C 0.09468 0.53412 0.77524 0.0
N590 N 0.14304 0.60639 0.67219 0.0
N591 N 0.07613 0.48452 0.71865 0.0
H592 H 0.07984 0.53518 0.89811 0.0
H593 H 0.07611 0.50113 0.86835 0.0
H594 H 0.07775 0.46922 0.67951 0.0
H595 H 0.058 0.4751 0.75948 0.0
H596 H 0.15623 0.6151 0.61904 0.0
H597 H 0.13841 0.62148 0.70213 0.0
H598 H 0.17721 0.5899 0.59337 0.0
H599 H 0.16429 0.55357 0.55581 0.0
C600 C 0.38062 1.00572 0.94301 0.0
C601 C 0.3753 0.97654 0.95992 0.0
C602 C 0.39403 0.99253 0.10222 0.0
C603 C 0.40511 0.0234 0.08031 0.0
N604 N 0.40661 0.0585 0.97911 0.0
N605 N 0.36549 0.93987 0.06343 0.0
C606 C 0.39689 0.02966 1.00129 0.0
C607 C 0.37805 0.96926 0.0426 0.0
N608 N 0.36945 0.01001 0.87063 0.0
N609 N 0.40087 0.98552 0.17823 0.0
H610 H 0.35358 0.923 0.02001 0.0
H611 H 0.36403 0.93207 0.1241 0.0
H612 H 0.39775 0.96466 0.19391 0.0
H613 H 0.41118 1.00106 0.22546 0.0
H614 H 0.37032 0.02991 0.85448 0.0
H615 H 0.35651 0.99212 0.83085 0.0
H616 H 0.40465 0.06502 0.91906 0.0
H617 H 0.41774 0.07623 0.02047 0.0
C618 C 0.37994 0.36552 0.29544 0.0
C619 C 0.41034 0.37228 0.28918 0.0
C620 C 0.42439 0.41811 0.36364 0.0
C621 C 0.39456 0.40994 0.38556 0.0
N622 N 0.34285 0.37159 0.37576 0.0
N623 N 0.45902 0.40015 0.34965 0.0
C624 C 0.37176 0.38213 0.35299 0.0
C625 C 0.43124 0.39617 0.33789 0.0
N626 N 0.35922 0.34397 0.24505 0.0
N627 N 0.4459 0.44734 0.359 0.0
H628 H 0.46421 0.38402 0.33013 0.0
H629 H 0.47507 0.4177 0.38544 0.0
H630 H 0.44064 0.46435 0.36353 0.0
H631 H 0.46754 0.45404 0.33862 0.0
H632 H 0.33734 0.33974 0.24057 0.0
H633 H 0.3648 0.3314 0.20546 0.0
H634 H 0.3258 0.35046 0.35887 0.0
H635 H 0.33648 0.38341 0.41553 0.0
C636 C 0.03134 0.38337 0.6706 0.0
C637 C 0.02733 0.40082 0.6081 0.0
C638 C 0.97403 0.37432 0.6458 0.0
C639 C 0.97959 0.36558 0.72269 0.0
N640 N 1.01375 0.35791 0.80514 0.0
N641 N 0.99485 0.42145 0.58172 0.0
C642 C 1.00838 0.36859 0.73358 0.0
C643 C 0.9983 0.39812 0.60516 0.0
N644 N 0.05638 0.38089 0.67122 0.0
N645 N 0.94558 0.36438 0.62026 0.0
H646 H 1.01279 0.44305 0.58557 0.0
H647 H 0.97409 0.42012 0.58024 0.0
H648 H 0.92743 0.34811 0.65382 0.0
H649 H 0.94106 0.37058 0.56241 0.0
H650 H 0.05926 0.36691 0.71222 0.0
H651 H 0.07298 0.39059 0.6261 0.0
H652 H 0.03486 0.36197 0.82271 0.0
H653 H 0.99654 0.34553 0.84741 0.0
C654 C 0.64965 1.00655 0.08192 0.0
C655 C 0.62658 0.97699 0.06319 0.0
C656 C 0.62794 0.99374 0.91962 0.0
C657 C 0.64442 0.02449 0.94377 0.0
N658 N 0.67367 0.05975 0.05024 0.0
N659 N 0.59506 0.94225 0.95989 0.0
C660 C 0.65657 0.03085 0.02547 0.0
C661 C 0.61684 0.97043 0.98007 0.0
N662 N 0.66503 0.01081 0.15406 0.0
N663 N 0.62283 0.98669 0.83755 0.0
H664 H 0.58771 0.9246 1.00201 0.0
H665 H 0.58358 0.9368 0.90327 0.0
H666 H 0.62873 1.00302 0.79235 0.0
H667 H 0.61523 0.96517 0.81529 0.0
H668 H 0.6831 0.03111 0.17228 0.0
H669 H 0.6615 0.99233 0.18883 0.0
H670 H 0.68147 0.06601 0.11101 0.0
H671 H 0.67926 0.07756 1.00991 0.0
C672 C 0.65627 0.61975 0.32205 0.0
C673 C 0.65142 0.61945 0.40909 0.0
C674 C 0.6224 0.64519 0.38414 0.0
C675 C 0.62469 0.64263 0.29692 0.0
N676 N 0.65692 0.64285 0.18922 0.0
N677 N 0.64169 0.64394 0.52149 0.0
C678 C 0.64604 0.63493 0.268 0.0
C679 C 0.63872 0.63666 0.43918 0.0
N680 N 0.66907 0.60432 0.29042 0.0
N681 N 0.60333 0.65397 0.41459 0.0
H682 H 0.6531 0.63709 0.561 0.0
H683 H 0.6358 0.65887 0.54683 0.0
H684 H 0.5919 0.66095 0.37524 0.0
H685 H 0.59828 0.65334 0.47789 0.0
H686 H 0.67035 0.60121 0.22646 0.0
H687 H 0.67721 0.59378 0.32926 0.0
H688 H 0.67431 0.64013 0.16619 0.0
H689 H 0.65008 0.65465 0.15077 0.0
C690 C 0.03034 0.64958 0.69074 0.0
C691 C 0.03366 0.62678 0.73066 0.0
C692 C 0.98336 0.59056 0.68152 0.0
C693 C 0.98202 0.61122 0.6275 0.0
N694 N 1.00705 0.66134 0.57474 0.0
N695 N 0.01783 0.57443 0.71904 0.0
C696 C 1.00637 0.64123 0.63067 0.0
C697 C 1.01137 0.59687 0.713 0.0
N698 N 0.04956 0.67866 0.70922 0.0
N699 N 0.95873 0.56343 0.6942 0.0
H700 H 0.03934 0.57845 0.73122 0.0
H701 H 1.00241 0.55239 0.70384 0.0
H702 H 0.93787 0.55854 0.67148 0.0
H703 H 0.95886 0.54745 0.73352 0.0
H704 H 0.04677 0.69601 0.68673 0.0
H705 H 0.06715 0.68501 0.75109 0.0
H706 H 0.02534 0.68267 0.56794 0.0
H707 H 0.98949 0.65574 0.53307 0.0
C708 C 0.54065 0.02779 0.36901 0.0
C709 C 0.53659 0.0156 0.28591 0.0
C710 C 0.56244 0.0631 0.24435 0.0
C711 C 0.58294 0.07396 0.30586 0.0
N712 N 0.57595 0.06779 0.45696 0.0
N713 N 0.616 0.03757 0.21475 0.0
C714 C 0.56518 0.05822 0.38025 0.0
C715 C 0.56157 0.03499 0.23078 0.0
N716 N 0.52641 0.00994 0.43384 0.0
N717 N 0.56237 0.08064 0.18259 0.0
H718 H 0.63838 0.05475 0.20558 0.0
H719 H 0.63838 0.05475 0.20558 0.0
H720 H 0.5713 0.10332 0.19378 0.0
H721 H 0.55463 0.07178 0.12314 0.0
H722 H 0.51348 0.98701 0.42479 0.0
H723 H 0.51348 0.98701 0.42479 0.0
H724 H 0.56458 0.05632 0.51046 0.0
H725 H 0.56458 0.05632 0.51046 0.0
C726 C 0.53332 0.55101 0.59181 0.0
C727 C 0.5256 0.52096 0.62343 0.0
C728 C 0.50677 0.53854 0.74038 0.0
C729 C 0.51308 0.56376 0.68772 0.0
N730 N 0.48891 0.55449 0.55517 0.0
N731 N 0.51198 0.49371 0.75579 0.0
C732 C 0.50588 0.55044 0.61155 0.0
C733 C 0.51427 0.51642 0.70888 0.0
N734 N 0.5853 0.60414 0.61928 0.0
N735 N 0.48662 0.53174 0.8011 0.0
H736 H 0.50775 0.49278 0.81931 0.0
H737 H 0.51852 0.47909 0.73216 0.0
H738 H 0.47482 0.51065 0.82733 0.0
H739 H 0.47482 0.51065 0.82733 0.0
H740 H 0.59079 0.6264 0.63275 0.0
H741 H 0.59079 0.6264 0.63275 0.0
H742 H 0.49135 0.55204 0.49133 0.0
H743 H 0.47317 0.55992 0.57558 0.0
C744 C 1.00318 0.50083 0.07571 0.0
C745 C 1.00973 0.51033 0.98906 0.0
C746 C 0.96115 0.49136 0.97654 0.0
C747 C 0.95617 0.50139 0.04995 0.0
N748 N 0.97479 0.50544 0.18965 0.0
N749 N 0.98767 0.57113 0.9664 0.0
C750 C 0.97558 0.49807 0.10958 0.0
C751 C 0.98806 0.51806 0.95401 0.0
N752 N 0.0231 0.49857 0.124 0.0
N753 N 0.93968 0.47437 0.92106 0.0
H754 H 1.00437 0.59339 0.9558 0.0
H755 H 0.9699 0.57545 0.9781 0.0
H756 H 0.91781 0.46075 0.94019 0.0
H757 H 0.94485 0.47592 0.85757 0.0
H758 H 0.04453 0.50474 0.10302 0.0
H759 H 0.04453 0.50474 0.10302 0.0
H760 H 0.9911 0.50866 0.23281 0.0
H761 H 0.96322 0.51667 0.20203 0.0
C762 C 0.0576 0.55539 0.30717 0.0
C763 C 0.03788 0.54033 0.37784 0.0
C764 C 0.07982 0.56193 0.4504 0.0
C765 C 0.09294 0.5893 0.41554 0.0
N766 N 0.09756 0.60651 0.27366 0.0
N767 N 0.04354 0.60255 0.52324 0.0
C768 C 0.08545 0.58329 0.32731 0.0
C769 C 0.04956 0.55657 0.45709 0.0
N770 N 0.05155 0.54315 0.23097 0.0
N771 N 0.09357 0.55437 0.50793 0.0
H772 H 0.02909 0.61096 0.51239 0.0
H773 H 0.05827 0.62156 0.55957 0.0
H774 H 0.1166 0.56367 0.50409 0.0
H775 H 0.08128 0.54112 0.5581 0.0
H776 H 0.06638 0.55271 0.18152 0.0
H777 H 0.06638 0.55271 0.18152 0.0
H778 H 0.08912 0.60533 0.21372 0.0
H779 H 0.08912 0.60533 0.21372 0.0
C780 C 0.52651 0.98749 0.75789 0.0
C781 C 0.52205 0.01199 0.72523 0.0
C782 C 0.50047 0.97613 0.60922 0.0
C783 C 0.50335 0.95509 0.66398 0.0
N784 N 0.48081 0.94192 0.79847 0.0
N785 N 0.51187 0.02775 0.59024 0.0
C786 C 0.49737 0.96249 0.74017 0.0
C787 C 0.51231 1.00657 0.63852 0.0
N788 N 0.57442 0.97858 0.73235 0.0
N789 N 0.4799 0.96563 0.5484 0.0
H790 H 0.52094 0.04967 0.61105 0.0
H791 H 0.52094 0.04967 0.61105 0.0
H792 H 0.47203 0.97857 0.52034 0.0
H793 H 0.47203 0.97857 0.52034 0.0
H794 H 0.57699 0.95981 0.71985 0.0
H795 H 0.57699 0.95981 0.71985 0.0
H796 H 0.48477 0.94737 0.86169 0.0
H797 H 0.46592 0.91989 0.78232 0.0
C798 C 0.47702 0.48655 0.10546 0.0
C799 C 0.50739 0.49106 0.08819 0.0
C800 C 0.50305 0.5198 0.97301 0.0
C801 C 0.47591 0.51564 0.01506 0.0
N802 N 0.47723 0.5313 0.15727 0.0
N803 N 0.5394 0.50163 0.96622 0.0
C804 C 0.48368 0.51693 0.09671 0.0
C805 C 0.51681 0.50303 1.00495 0.0
N806 N 0.42184 0.44294 0.047 0.0
N807 N 0.5203 0.54593 0.93397 0.0
H808 H 0.54737 0.5109 0.90784 0.0
H809 H 0.54897 0.49014 0.99381 0.0
H810 H 0.54301 0.55441 0.92458 0.0
H811 H 0.54301 0.55441 0.92458 0.0
H812 H 0.40305 0.44435 0.02546 0.0
H813 H 0.4126 0.41972 0.03715 0.0
H814 H 0.47409 0.52401 0.21923 0.0
H815 H 0.47376 0.54888 0.1441 0.0
C816 C 0.38254 0.97619 0.49016 0.0
C817 C 0.38879 0.98487 0.57513 0.0
C818 C 0.41691 0.03782 0.52991 0.0
C819 C 0.41275 0.02886 0.44501 0.0
N820 N 0.3779 0.99199 0.35096 0.0
N821 N 0.40033 0.02438 0.67334 0.0
C822 C 0.39134 0.99868 0.42707 0.0
C823 C 0.40201 0.01593 0.59375 0.0
N824 N 0.36929 0.94687 0.46862 0.0
N825 N 0.43598 0.06681 0.55048 0.0
H826 H 0.38955 1.00868 0.72022 0.0
H827 H 0.40711 0.04627 0.69046 0.0
H828 H 0.44563 0.08363 0.50593 0.0
H829 H 0.44299 0.07385 0.61151 0.0
H830 H 0.36739 0.93978 0.40674 0.0
H831 H 0.36143 0.92988 0.51287 0.0
H832 H 0.36066 0.97083 0.3351 0.0
H833 H 0.38155 1.00891 0.30893 0.0
C834 C 0.38651 0.37812 0.89863 0.0
C835 C 0.40784 0.36891 0.8813 0.0
C836 C 0.4082 0.38496 0.73471 0.0
C837 C 0.39392 0.40154 0.75845 0.0
N838 N 0.3676 0.41177 0.86593 0.0
N839 N 0.43556 0.35981 0.77709 0.0
C840 C 0.38179 0.39682 0.8407 0.0
C841 C 0.41719 0.37076 0.79702 0.0
N842 N 0.37146 0.36954 0.97262 0.0
N843 N 0.41232 0.38207 0.65173 0.0
H844 H 0.44094 0.3482 0.82056 0.0
H845 H 0.44614 0.36314 0.71948 0.0
H846 H 0.4047 0.39091 0.6056 0.0
H847 H 0.42047 0.36868 0.62855 0.0
H848 H 0.354 0.37324 0.98821 0.0
H849 H 0.37509 0.35635 0.01512 0.0
H850 H 0.36107 0.41194 0.9274 0.0
H851 H 0.36376 0.42539 0.82599 0.0
C852 C 0.02291 0.39046 0.08902 0.0
C853 C 0.99211 0.37875 0.10887 0.0
C854 C 1.00632 0.38549 0.25826 0.0
C855 C 0.03703 0.40348 0.23652 0.0
N856 N 0.0748 0.42162 0.13055 0.0
N857 N 0.95418 0.36127 0.21513 0.0
C858 C 0.04543 0.4049 0.15176 0.0
C859 C 0.98366 0.37448 0.19452 0.0
N860 N 0.03048 0.3879 1.00899 0.0
N861 N 0.99904 0.37924 0.34071 0.0
H862 H 0.93727 0.35134 0.17085 0.0
H863 H 0.94638 0.36079 0.27541 0.0
H864 H 1.01531 0.38656 0.38727 0.0
H865 H 0.9776 0.36483 0.3624 0.0
H866 H 0.052 0.39366 0.99037 0.0
H867 H 1.01432 0.37729 0.96297 0.0
H868 H 0.08231 0.42711 0.06924 0.0
H869 H 0.09164 0.43105 0.17541 0.0
C870 C 0.66218 0.03354 0.49362 0.0
C871 C 0.6527 0.02667 0.5778 0.0
C872 C 0.62433 0.97301 0.53788 0.0
C873 C 0.62974 0.98014 0.4519 0.0
N874 N 0.6678 0.01428 0.35937 0.0
N875 N 0.64805 0.98903 0.67266 0.0
C876 C 0.65376 0.00946 0.43411 0.0
C877 C 0.64018 0.99597 0.59901 0.0
N878 N 0.67778 0.06252 0.46892 0.0
N879 N 0.60455 0.94476 0.56239 0.0
H880 H 0.66398 1.00585 0.71072 0.0
H881 H 0.64226 0.96724 0.68834 0.0
H882 H 0.59336 0.92739 0.51993 0.0
H883 H 0.59916 0.93917 0.62507 0.0
H884 H 0.68267 0.06881 0.40649 0.0
H885 H 0.68474 0.0801 0.51113 0.0
H886 H 0.68614 0.03457 0.34232 0.0
H887 H 0.66297 0.9962 0.32094 0.0
C888 C 0.63249 0.60778 0.94607 0.0
C889 C 0.61697 0.6238 0.92944 0.0
C890 C 0.64078 0.63376 0.789 0.0
C891 C 0.64843 0.61095 0.79811 0.0
N892 N 0.65329 0.57782 0.89386 0.0
N893 N 0.6071 0.65197 0.82642 0.0
C894 C 0.64523 0.59881 0.87956 0.0
C895 C 0.62183 0.63732 0.84891 0.0
N896 N 0.63646 0.60229 0.02671 0.0
N897 N 0.65281 0.65294 0.72381 0.0
H898 H 0.59245 0.65443 0.86585 0.0
H899 H 0.6076 0.65955 0.76583 0.0
H900 H 0.66926 0.65258 0.68682 0.0
H901 H 0.64996 0.67133 0.71509 0.0
H902 H 0.65026 0.59391 0.04449 0.0
H903 H 0.62803 0.60883 0.07618 0.0
H904 H 0.64742 0.56495 0.948 0.0
H905 H 0.66527 0.57283 0.85079 0.0
C906 C 0.04282 0.655 0.19104 0.0
C907 C 0.03715 0.64574 0.10633 0.0
C908 C 0.98286 0.61585 0.14338 0.0
C909 C 0.9898 0.61948 0.22988 0.0
N910 N 0.02105 0.65908 0.32336 0.0
N911 N 0.99997 0.63546 1.00224 0.0
C912 C 0.01812 0.6447 0.24962 0.0
C913 C 1.00639 0.6319 0.08236 0.0
N914 N 0.07148 0.67299 0.2161 0.0
N915 N 0.95416 0.59711 0.11974 0.0
H916 H 0.01699 0.64739 0.95899 0.0
H917 H 0.9784 0.6284 0.98127 0.0
H918 H 0.93725 0.58586 0.16366 0.0
H919 H 0.94717 0.59311 0.05781 0.0
H920 H 0.07735 0.67936 0.27813 0.0
H921 H 0.08921 0.68092 0.17387 0.0
H922 H 0.04024 0.67881 0.3396 0.0
H923 H 1.00321 0.65163 0.36521 0.0
C924 C 0.58144 0.12636 0.42416 0.0
C925 C 0.5502 0.1134 0.44177 0.0
C926 C 0.56342 0.11244 0.59075 0.0
C927 C 0.59134 0.1151 0.5695 0.0
N928 N 0.63019 0.133 0.46586 0.0
N929 N 0.51299 0.09906 0.54881 0.0
C930 C 0.60192 0.12614 0.48698 0.0
C931 C 0.5418 0.10822 0.5274 0.0
N932 N 0.59135 0.13838 0.34701 0.0
N933 N 0.55898 0.11724 0.67159 0.0
H934 H 0.49709 0.09675 0.50495 0.0
H935 H 0.50483 0.09295 0.60929 0.0
H936 H 0.54054 0.11867 0.69163 0.0
H937 H 0.5762 0.12409 0.71522 0.0
H938 H 0.61373 0.14983 0.32986 0.0
H939 H 0.5769 0.13878 0.30219 0.0
H940 H 0.63848 0.13757 0.40514 0.0
H941 H 0.64507 0.13299 0.50973 0.0
C942 C 0.43247 0.53152 0.87245 0.0
C943 C 0.43856 0.54061 0.78767 0.0
C944 C 0.484 0.58729 0.83791 0.0
C945 C 0.47916 0.57732 0.92266 0.0
N946 N 0.43982 0.54697 0.01729 0.0
N947 N 0.46169 0.58384 0.70149 0.0
C948 C 0.45063 0.55142 0.93857 0.0
C949 C 0.46176 0.57068 0.7744 0.0
N950 N 0.40982 0.50359 0.89052 0.0
N951 N 0.51032 0.61169 0.81592 0.0
H952 H 0.4438 0.57262 0.6611 0.0
H953 H 0.47624 0.6062 0.68795 0.0
H954 H 0.5274 0.62379 0.85838 0.0
H955 H 0.51609 0.61845 0.75413 0.0
H956 H 0.40547 0.49463 0.95049 0.0
H957 H 0.396 0.48891 0.84458 0.0
H958 H 0.41855 0.53034 0.03469 0.0
H959 H 0.45155 0.56324 0.06106 0.0
C960 C 0.89844 0.44822 0.11756 0.0
C961 C 0.91484 0.43292 0.12651 0.0
C962 C 0.92297 0.45019 0.27383 0.0
C963 C 0.91569 0.47285 0.25688 0.0
N964 N 0.89508 0.49206 0.15423 0.0
N965 N 0.94116 0.41804 0.22092 0.0
C966 C 0.90227 0.47104 0.17703 0.0
C967 C 0.92667 0.43358 0.20715 0.0
N968 N 0.87888 0.44079 0.05294 0.0
N969 N 0.92356 0.44269 0.35469 0.0
H970 H 0.94374 0.4054 0.1743 0.0
H971 H 0.95168 0.41892 0.27718 0.0
H972 H 0.91486 0.45052 0.40065 0.0
H973 H 0.92706 0.42535 0.37298 0.0
H974 H 0.86458 0.44942 0.04619 0.0
H975 H 0.87507 0.42365 1.01148 0.0
H976 H 0.88866 0.49364 0.09358 0.0
H977 H 0.89769 0.50927 0.19328 0.0
C978 C 0.4614 0.91328 0.42332 0.0
C979 C 0.48754 0.91221 0.44773 0.0
C980 C 0.46374 0.89584 0.58904 0.0
C981 C 0.4417 0.90392 0.57047 0.0
N982 N 0.41729 0.91652 0.46396 0.0
N983 N 0.51239 0.90103 0.55695 0.0
C984 C 0.43935 0.91052 0.4849 0.0
C985 C 0.48796 0.90243 0.53106 0.0
N986 N 0.45737 0.91652 0.34046 0.0
N987 N 0.46142 0.88172 0.6628 0.0
H988 H 0.5302 0.90558 0.51736 0.0
H989 H 0.51598 0.89746 0.61881 0.0
H990 H 0.44356 0.87599 0.70349 0.0
H991 H 0.47509 0.87307 0.67929 0.0
H992 H 0.43796 0.91485 0.31602 0.0
H993 H 0.47274 0.91862 0.29481 0.0
H994 H 0.41595 0.92522 0.40662 0.0
H995 H 0.40077 0.91378 0.50641 0.0
C996 C 0.59082 0.47923 0.86292 0.0
C997 C 0.58176 0.47865 0.77847 0.0
C998 C 0.53272 0.4345 0.8147 0.0
C999 C 0.54132 0.43574 0.89958 0.0
N1000 N 0.58187 0.45331 0.99658 0.0
N1001 N 0.54695 0.44981 0.67061 0.0
C1002 C 0.57147 0.45631 0.92106 0.0
C1003 C 0.55364 0.45434 0.75361 0.0
N1004 N 0.61753 0.50225 0.88867 0.0
N1005 N 0.50393 0.4151 0.79271 0.0
H1006 H 0.56027 0.46493 0.62496 0.0
H1007 H 0.52982 0.42982 0.64708 0.0
H1008 H 0.48848 0.39995 0.8349 0.0
H1009 H 0.49505 0.415 0.73434 0.0
H1010 H 0.62407 0.50627 0.95105 0.0
H1011 H 0.63252 0.51828 0.8474 0.0
H1012 H 0.60407 0.46585 0.01495 0.0
H1013 H 0.56862 0.4359 0.03719 0.0
C1014 C 0.13655 0.57035 0.25522 0.0
C1015 C 0.12403 0.53916 0.23941 0.0
C1016 C 0.11711 0.54962 0.09221 0.0
C1017 C 0.12177 0.57836 0.11333 0.0
N1018 N 0.15223 0.62038 0.20093 0.0
N1019 N 0.1063 0.50017 0.13676 0.0
C1020 C 0.13688 0.59024 0.19043 0.0
C1021 C 0.11588 0.52928 0.15564 0.0
N1022 N 0.14717 0.58074 0.33339 0.0
N1023 N 0.11756 0.54337 1.00991 0.0
H1024 H 0.10595 0.48513 0.18065 0.0
H1025 H 0.09828 0.49077 0.07841 0.0
H1026 H 0.12291 0.55984 0.96479 0.0
H1027 H 0.11722 0.52423 0.98809 0.0
H1028 H 0.15386 0.6023 0.35344 0.0
H1029 H 0.14837 0.56707 0.37936 0.0
H1030 H 0.16574 0.63098 0.25227 0.0
H1031 H 0.15306 0.63492 0.15471 0.0
loop_
_geom_bond_atom_site_label_1
_geom_bond_atom_site_label_2
_geom_bond_distance
_geom_bond_site_symmetry_2
_ccdc_geom_bond_type
Zn0 O1 2.055 . S
Zn0 O8 2.046 . S
Zn0 N16 2.036 . S
Zn0 O28 2.053 . S
Zn0 O30 2.066 . S
O1 Zn0 2.055 . S
O1 C4 1.259 . S
C2 O30 1.256 . S
C2 O31 1.244 . S
Zn3 O5 2.046 . S
Zn3 O7 2.055 . S
Zn3 N9 2.036 . S
Zn3 O27 2.066 . S
Zn3 O31 2.053 . S
C4 O1 1.259 . S
C4 O5 1.254 . S
O5 Zn3 2.046 . S
O5 C4 1.254 . S
C6 O27 1.256 . S
C6 O28 1.244 . S
O7 Zn3 2.055 . S
O7 C29 1.259 . S
O8 Zn0 2.046 . S
O8 C29 1.254 . S
N9 Zn3 2.036 . S
N9 C10 1.298 . S
N9 N12 1.398 . S
C10 N9 1.298 . S
C10 N13 1.367 . S
C10 C23 1.481 . S
C11 N12 1.299 . S
C11 N13 1.379 . S
N12 N9 1.398 . S
N12 C11 1.299 . S
N13 C10 1.367 . S
N13 C11 1.379 . S
C14 N16 1.298 . S
C14 N18 1.367 1_545 S
C14 C22 1.479 . S
C15 N17 1.299 1_565 S
C15 N18 1.379 . S
N16 Zn0 2.036 . S
N16 C14 1.298 . S
N16 N17 1.398 . S
N17 C15 1.299 1_545 S
N17 N16 1.398 . S
N18 C14 1.367 1_565 S
N18 C15 1.379 . S
H19 C22 0.988 . S
H20 C22 0.971 1_565 S
H21 C22 0.984 . S
C22 C14 1.479 . S
C22 H19 0.988 . S
C22 H20 0.971 1_545 S
C22 H21 0.984 . S
C23 C10 1.481 . S
C23 H24 0.980 . S
C23 H25 0.981 . S
C23 H26 0.981 . S
H24 C23 0.980 . S
H25 C23 0.981 . S
H26 C23 0.981 . S
O27 Zn3 2.066 . S
O27 C6 1.256 . S
O28 Zn0 2.053 . S
O28 C6 1.244 . S
C29 O7 1.259 . S
C29 O8 1.254 . S
O30 Zn0 2.066 . S
O30 C2 1.256 . S
O31 C2 1.244 . S
O31 Zn3 2.053 . S
Zn32 O33 2.055 . S
Zn32 O40 2.046 . S
Zn32 N48 2.036 . S
Zn32 O60 2.053 . S
Zn32 O62 2.066 . S
O33 Zn32 2.055 . S
O33 C36 1.259 . S
C34 O62 1.256 . S
C34 O63 1.244 . S
Zn35 O37 2.046 . S
Zn35 O39 2.055 . S
Zn35 N41 2.036 . S
Zn35 O59 2.066 . S
Zn35 O63 2.053 . S
C36 O33 1.259 . S
C36 O37 1.254 . S
O37 Zn35 2.046 . S
O37 C36 1.254 . S
C38 O59 1.256 . S
C38 O60 1.244 . S
O39 Zn35 2.055 . S
O39 C61 1.259 . S
O40 Zn32 2.046 . S
O40 C61 1.254 . S
N41 Zn35 2.036 . S
N41 C42 1.298 . S
N41 N44 1.398 . S
C42 N41 1.298 . S
C42 N45 1.367 . S
C42 C55 1.481 . S
C43 N44 1.299 . S
C43 N45 1.379 . S
N44 N41 1.398 . S
N44 C43 1.299 . S
N45 C42 1.367 . S
N45 C43 1.379 . S
C46 N48 1.298 . S
C46 N50 1.367 . S
C46 C54 1.481 . S
C47 N49 1.299 . S
C47 N50 1.379 . S
N48 Zn32 2.036 . S
N48 C46 1.298 . S
N48 N49 1.398 . S
N49 C47 1.299 . S
N49 N48 1.398 . S
N50 C46 1.367 . S
N50 C47 1.379 . S
H51 C54 0.980 . S
H52 C54 0.981 . S
H53 C54 0.981 . S
C54 C46 1.481 . S
C54 H51 0.980 . S
C54 H52 0.981 . S
C54 H53 0.981 . S
C55 C42 1.481 . S
C55 H56 0.980 . S
C55 H57 0.981 . S
C55 H58 0.981 . S
H56 C55 0.980 . S
H57 C55 0.981 . S
H58 C55 0.981 . S
O59 Zn35 2.066 . S
O59 C38 1.256 . S
O60 Zn32 2.053 . S
O60 C38 1.244 . S
C61 O39 1.259 . S
C61 O40 1.254 . S
O62 Zn32 2.066 . S
O62 C34 1.256 . S
O63 C34 1.244 . S
O63 Zn35 2.053 . S
Zn64 O65 2.055 . S
Zn64 O72 2.046 1_556 S
Zn64 N80 2.036 . S
Zn64 O92 2.053 1_556 S
Zn64 O94 2.066 . S
O65 Zn64 2.055 . S
O65 C68 1.259 . S
C66 O94 1.256 . S
C66 O95 1.244 . S
Zn67 O69 2.046 . S
Zn67 O71 2.055 1_556 S
Zn67 N73 2.036 . S
Zn67 O91 2.066 1_556 S
Zn67 O95 2.053 . S
C68 O65 1.259 . S
C68 O69 1.254 . S
O69 Zn67 2.046 . S
O69 C68 1.254 . S
C70 O91 1.256 . S
C70 O92 1.244 . S
O71 Zn67 2.055 1_554 S
O71 C93 1.259 . S
O72 Zn64 2.046 1_554 S
O72 C93 1.254 . S
N73 Zn67 2.036 . S
N73 C74 1.298 . S
N73 N76 1.398 . S
C74 N73 1.298 . S
C74 N77 1.367 1_655 S
C74 C87 1.484 1_556 S
C75 N76 1.299 1_455 S
C75 N77 1.379 . S
N76 N73 1.398 . S
N76 C75 1.299 1_655 S
N77 C74 1.367 1_455 S
N77 C75 1.379 . S
C78 N80 1.298 . S
C78 N82 1.367 . S
C78 C86 1.481 . S
C79 N81 1.299 1_556 S
C79 N82 1.379 . S
N80 Zn64 2.036 . S
N80 C78 1.298 . S
N80 N81 1.398 1_556 S
N81 C79 1.299 1_554 S
N81 N80 1.398 1_554 S
N82 C78 1.367 . S
N82 C79 1.379 . S
H83 C86 0.980 . S
H84 C86 0.981 . S
H85 C86 0.981 . S
C86 C78 1.481 . S
C86 H83 0.980 . S
C86 H84 0.981 . S
C86 H85 0.981 . S
C87 C74 1.484 1_554 S
C87 H88 0.977 . S
C87 H89 0.971 1_655 S
C87 H90 0.990 . S
H88 C87 0.977 . S
H89 C87 0.971 1_455 S
H90 C87 0.990 . S
O91 Zn67 2.066 1_554 S
O91 C70 1.256 . S
O92 Zn64 2.053 1_554 S
O92 C70 1.244 . S
C93 O71 1.259 . S
C93 O72 1.254 . S
O94 Zn64 2.066 . S
O94 C66 1.256 . S
O95 C66 1.244 . S
O95 Zn67 2.053 . S
Zn96 O97 2.055 . S
Zn96 O104 2.046 . S
Zn96 N112 2.036 . S
Zn96 O124 2.053 . S
Zn96 O126 2.066 . S
O97 Zn96 2.055 . S
O97 C100 1.259 . S
C98 O126 1.256 . S
C98 O127 1.244 . S
Zn99 O101 2.046 . S
Zn99 O103 2.055 . S
Zn99 N105 2.036 . S
Zn99 O123 2.066 . S
Zn99 O127 2.053 . S
C100 O97 1.259 . S
C100 O101 1.254 . S
O101 Zn99 2.046 . S
O101 C100 1.254 . S
C102 O123 1.256 . S
C102 O124 1.244 . S
O103 Zn99 2.055 . S
O103 C125 1.259 . S
O104 Zn96 2.046 . S
O104 C125 1.254 . S
N105 Zn99 2.036 . S
N105 C106 1.298 . S
N105 N108 1.398 . S
C106 N105 1.298 . S
C106 N109 1.367 1_565 S
C106 C119 1.479 . S
C107 N108 1.300 1_545 S
C107 N109 1.379 . S
N108 N105 1.398 . S
N108 C107 1.300 1_565 S
N109 C106 1.367 1_545 S
N109 C107 1.379 . S
C110 N112 1.298 . S
C110 N114 1.367 . S
C110 C118 1.481 . S
C111 N113 1.299 . S
C111 N114 1.379 . S
N112 Zn96 2.036 . S
N112 C110 1.298 . S
N112 N113 1.398 . S
N113 C111 1.299 . S
N113 N112 1.398 . S
N114 C110 1.367 . S
N114 C111 1.379 . S
H115 C118 0.980 . S
H116 C118 0.981 . S
H117 C118 0.981 . S
C118 C110 1.481 . S
C118 H115 0.980 . S
C118 H116 0.981 . S
C118 H117 0.981 . S
C119 C106 1.479 . S
C119 H120 0.988 . S
C119 H121 0.971 1_565 S
C119 H122 0.984 . S
H120 C119 0.988 . S
H121 C119 0.971 1_545 S
H122 C119 0.984 . S
O123 Zn99 2.066 . S
O123 C102 1.256 . S
O124 Zn96 2.053 . S
O124 C102 1.244 . S
C125 O103 1.259 . S
C125 O104 1.254 . S
O126 Zn96 2.066 . S
O126 C98 1.256 . S
O127 C98 1.244 . S
O127 Zn99 2.053 . S
Zn128 O129 2.055 . S
Zn128 O136 2.046 . S
Zn128 N144 2.036 . S
Zn128 O156 2.053 . S
Zn128 O158 2.066 . S
O129 Zn128 2.055 . S
O129 C132 1.259 . S
C130 O158 1.256 . S
C130 O159 1.244 . S
Zn131 O133 2.046 . S
Zn131 O135 2.055 . S
Zn131 N137 2.036 . S
Zn131 O155 2.066 . S
Zn131 O159 2.053 . S
C132 O129 1.259 . S
C132 O133 1.254 . S
O133 Zn131 2.046 . S
O133 C132 1.254 . S
C134 O155 1.256 . S
C134 O156 1.244 . S
O135 Zn131 2.055 . S
O135 C157 1.259 . S
O136 Zn128 2.046 . S
O136 C157 1.254 . S
N137 Zn131 2.036 . S
N137 C138 1.298 . S
N137 N140 1.398 . S
C138 N137 1.298 . S
C138 N141 1.367 . S
C138 C151 1.481 . S
C139 N140 1.299 . S
C139 N141 1.379 . S
N140 N137 1.398 . S
N140 C139 1.299 . S
N141 C138 1.367 . S
N141 C139 1.379 . S
C142 N144 1.298 . S
C142 N146 1.367 . S
C142 C150 1.481 . S
C143 N145 1.299 . S
C143 N146 1.379 . S
N144 Zn128 2.036 . S
N144 C142 1.298 . S
N144 N145 1.398 . S
N145 C143 1.299 . S
N145 N144 1.398 . S
N146 C142 1.367 . S
N146 C143 1.379 . S
H147 C150 0.980 . S
H148 C150 0.981 . S
H149 C150 0.981 . S
C150 C142 1.481 . S
C150 H147 0.980 . S
C150 H148 0.981 . S
C150 H149 0.981 . S
C151 C138 1.481 . S
C151 H152 0.980 . S
C151 H153 0.981 . S
C151 H154 0.981 . S
H152 C151 0.980 . S
H153 C151 0.981 . S
H154 C151 0.981 . S
O155 Zn131 2.066 . S
O155 C134 1.256 . S
O156 Zn128 2.053 . S
O156 C134 1.244 . S
C157 O135 1.259 . S
C157 O136 1.254 . S
O158 Zn128 2.066 . S
O158 C130 1.256 . S
O159 C130 1.244 . S
O159 Zn131 2.053 . S
Zn160 O161 2.055 1_556 S
Zn160 O168 2.046 . S
Zn160 N176 2.036 . S
Zn160 O188 2.053 . S
Zn160 O190 2.066 1_556 S
O161 Zn160 2.055 1_554 S
O161 C164 1.259 . S
C162 O190 1.256 . S
C162 O191 1.244 . S
Zn163 O165 2.046 1_556 S
Zn163 O167 2.055 . S
Zn163 N169 2.036 . S
Zn163 O187 2.066 . S
Zn163 O191 2.053 1_556 S
C164 O161 1.259 . S
C164 O165 1.254 . S
O165 Zn163 2.046 1_554 S
O165 C164 1.254 . S
C166 O187 1.256 . S
C166 O188 1.244 . S
O167 Zn163 2.055 . S
O167 C189 1.259 . S
O168 Zn160 2.046 . S
O168 C189 1.254 . S
N169 Zn163 2.036 . S
N169 C170 1.298 . S
N169 N172 1.398 1_556 S
C170 N169 1.298 . S
C170 N173 1.367 . S
C170 C183 1.481 . S
C171 N172 1.299 1_556 S
C171 N173 1.379 . S
N172 N169 1.398 1_554 S
N172 C171 1.299 1_554 S
N173 C170 1.367 . S
N173 C171 1.379 . S
C174 N176 1.298 . S
C174 N178 1.367 1_455 S
C174 C182 1.484 1_556 S
C175 N177 1.299 1_655 S
C175 N178 1.379 . S
N176 Zn160 2.036 . S
N176 C174 1.298 . S
N176 N177 1.398 . S
N177 C175 1.299 1_455 S
N177 N176 1.398 . S
N178 C174 1.367 1_655 S
N178 C175 1.379 . S
H179 C182 0.977 . S
H180 C182 0.972 1_655 S
H181 C182 0.990 . S
C182 C174 1.484 1_554 S
C182 H179 0.977 . S
C182 H180 0.972 1_455 S
C182 H181 0.990 . S
C183 C170 1.481 . S
C183 H184 0.980 . S
C183 H185 0.981 . S
C183 H186 0.981 . S
H184 C183 0.980 . S
H185 C183 0.981 . S
H186 C183 0.981 . S
O187 Zn163 2.066 . S
O187 C166 1.256 . S
O188 Zn160 2.053 . S
O188 C166 1.244 . S
C189 O167 1.259 . S
C189 O168 1.254 . S
O190 Zn160 2.066 1_554 S
O190 C162 1.256 . S
O191 C162 1.244 . S
O191 Zn163 2.053 1_554 S
Zn192 O193 2.055 . S
Zn192 O200 2.046 . S
Zn192 N208 2.036 . S
Zn192 O220 2.053 . S
Zn192 O222 2.066 . S
O193 Zn192 2.055 . S
O193 C196 1.259 . S
C194 O222 1.256 . S
C194 O223 1.244 . S
Zn195 O197 2.046 . S
Zn195 O199 2.055 . S
Zn195 N201 2.036 . S
Zn195 O219 2.066 . S
Zn195 O223 2.053 . S
C196 O193 1.259 . S
C196 O197 1.254 . S
O197 Zn195 2.046 . S
O197 C196 1.254 . S
C198 O219 1.256 . S
C198 O220 1.244 . S
O199 Zn195 2.055 . S
O199 C221 1.259 . S
O200 Zn192 2.046 . S
O200 C221 1.254 . S
N201 Zn195 2.036 . S
N201 C202 1.298 . S
N201 N204 1.398 . S
C202 N201 1.298 . S
C202 N205 1.367 1_655 S
C202 C215 1.479 . S
C203 N204 1.300 1_455 S
C203 N205 1.379 . S
N204 N201 1.398 . S
N204 C203 1.300 1_655 S
N205 C202 1.367 1_455 S
N205 C203 1.379 . S
C206 N208 1.298 . S
C206 N210 1.367 . S
C206 C214 1.481 . S
C207 N209 1.299 . S
C207 N210 1.379 . S
N208 Zn192 2.036 . S
N208 C206 1.298 . S
N208 N209 1.398 . S
N209 C207 1.299 . S
N209 N208 1.398 . S
N210 C206 1.367 . S
N210 C207 1.379 . S
H211 C214 0.980 . S
H212 C214 0.981 . S
H213 C214 0.981 . S
C214 C206 1.481 . S
C214 H211 0.980 . S
C214 H212 0.981 . S
C214 H213 0.981 . S
C215 C202 1.479 . S
C215 H216 0.988 . S
C215 H217 0.971 1_655 S
C215 H218 0.984 . S
H216 C215 0.988 . S
H217 C215 0.971 1_455 S
H218 C215 0.984 . S
O219 Zn195 2.066 . S
O219 C198 1.256 . S
O220 Zn192 2.053 . S
O220 C198 1.244 . S
C221 O199 1.259 . S
C221 O200 1.254 . S
O222 Zn192 2.066 . S
O222 C194 1.256 . S
O223 C194 1.244 . S
O223 Zn195 2.053 . S
Zn224 O225 2.055 . S
Zn224 O232 2.046 . S
Zn224 N240 2.036 . S
Zn224 O252 2.053 . S
Zn224 O254 2.066 . S
O225 Zn224 2.055 . S
O225 C228 1.259 . S
C226 O254 1.256 . S
C226 O255 1.244 . S
Zn227 O229 2.046 . S
Zn227 O231 2.055 . S
Zn227 N233 2.036 . S
Zn227 O251 2.066 . S
Zn227 O255 2.053 . S
C228 O225 1.259 . S
C228 O229 1.254 . S
O229 Zn227 2.046 . S
O229 C228 1.254 . S
C230 O251 1.256 . S
C230 O252 1.244 . S
O231 Zn227 2.055 . S
O231 C253 1.259 . S
O232 Zn224 2.046 . S
O232 C253 1.254 . S
N233 Zn227 2.036 . S
N233 C234 1.298 . S
N233 N236 1.398 . S
C234 N233 1.298 . S
C234 N237 1.367 . S
C234 C247 1.481 . S
C235 N236 1.299 . S
C235 N237 1.379 . S
N236 N233 1.398 . S
N236 C235 1.299 . S
N237 C234 1.367 . S
N237 C235 1.379 . S
C238 N240 1.298 . S
C238 N242 1.367 1_565 S
C238 C246 1.484 . S
C239 N241 1.299 1_545 S
C239 N242 1.379 . S
N240 Zn224 2.036 . S
N240 C238 1.298 . S
N240 N241 1.398 . S
N241 C239 1.299 1_565 S
N241 N240 1.398 . S
N242 C238 1.367 1_545 S
N242 C239 1.379 . S
H243 C246 0.977 . S
H244 C246 0.971 1_545 S
H245 C246 0.990 . S
C246 C238 1.484 . S
C246 H243 0.977 . S
C246 H244 0.971 1_565 S
C246 H245 0.990 . S
C247 C234 1.481 . S
C247 H248 0.980 . S
C247 H249 0.981 . S
C247 H250 0.981 . S
H248 C247 0.980 . S
H249 C247 0.981 . S
H250 C247 0.981 . S
O251 Zn227 2.066 . S
O251 C230 1.256 . S
O252 Zn224 2.053 . S
O252 C230 1.244 . S
C253 O231 1.259 . S
C253 O232 1.254 . S
O254 Zn224 2.066 . S
O254 C226 1.256 . S
O255 C226 1.244 . S
O255 Zn227 2.053 . S
Zn256 O257 2.055 . S
Zn256 O264 2.046 1_554 S
Zn256 N272 2.036 . S
Zn256 O284 2.053 1_554 S
Zn256 O286 2.066 . S
O257 Zn256 2.055 . S
O257 C260 1.259 . S
C258 O286 1.256 . S
C258 O287 1.244 . S
Zn259 O261 2.046 . S
Zn259 O263 2.055 1_554 S
Zn259 N265 2.036 . S
Zn259 O283 2.066 1_554 S
Zn259 O287 2.053 . S
C260 O257 1.259 . S
C260 O261 1.254 . S
O261 Zn259 2.046 . S
O261 C260 1.254 . S
C262 O283 1.256 . S
C262 O284 1.244 . S
O263 Zn259 2.055 1_556 S
O263 C285 1.259 . S
O264 Zn256 2.046 1_556 S
O264 C285 1.254 . S
N265 Zn259 2.036 . S
N265 C266 1.298 . S
N265 N268 1.398 . S
C266 N265 1.298 . S
C266 N269 1.367 . S
C266 C279 1.481 1_554 S
C267 N268 1.299 . S
C267 N269 1.379 . S
N268 N265 1.398 . S
N268 C267 1.299 . S
N269 C266 1.367 . S
N269 C267 1.379 . S
C270 N272 1.298 . S
C270 N274 1.367 . S
C270 C278 1.481 . S
C271 N273 1.299 1_554 S
C271 N274 1.379 . S
N272 Zn256 2.036 . S
N272 C270 1.298 . S
N272 N273 1.398 1_554 S
N273 C271 1.299 1_556 S
N273 N272 1.398 1_556 S
N274 C270 1.367 . S
N274 C271 1.379 . S
H275 C278 0.980 . S
H276 C278 0.981 . S
H277 C278 0.981 . S
C278 C270 1.481 . S
C278 H275 0.980 . S
C278 H276 0.981 . S
C278 H277 0.981 . S
C279 C266 1.481 1_556 S
C279 H280 0.980 . S
C279 H281 0.981 . S
C279 H282 0.981 . S
H280 C279 0.980 . S
H281 C279 0.981 . S
H282 C279 0.981 . S
O283 Zn259 2.066 1_556 S
O283 C262 1.256 . S
O284 Zn256 2.053 1_556 S
O284 C262 1.244 . S
C285 O263 1.259 . S
C285 O264 1.254 . S
O286 Zn256 2.066 . S
O286 C258 1.256 . S
O287 C258 1.244 . S
O287 Zn259 2.053 . S
Zn288 O289 2.055 . S
Zn288 O296 2.046 . S
Zn288 N304 2.036 . S
Zn288 O316 2.053 . S
Zn288 O318 2.066 . S
O289 Zn288 2.055 . S
O289 C292 1.259 . S
C290 O318 1.256 . S
C290 O319 1.244 . S
Zn291 O293 2.046 . S
Zn291 O295 2.055 . S
Zn291 N297 2.036 . S
Zn291 O315 2.066 . S
Zn291 O319 2.053 . S
C292 O289 1.259 . S
C292 O293 1.254 . S
O293 Zn291 2.046 . S
O293 C292 1.254 . S
C294 O315 1.256 . S
C294 O316 1.244 . S
O295 Zn291 2.055 . S
O295 C317 1.259 . S
O296 Zn288 2.046 . S
O296 C317 1.254 . S
N297 Zn291 2.036 . S
N297 C298 1.298 . S
N297 N300 1.398 . S
C298 N297 1.298 . S
C298 N301 1.367 1_455 S
C298 C311 1.479 . S
C299 N300 1.299 1_655 S
C299 N301 1.379 . S
N300 N297 1.398 . S
N300 C299 1.299 1_455 S
N301 C298 1.367 1_655 S
N301 C299 1.379 . S
C302 N304 1.298 . S
C302 N306 1.367 . S
C302 C310 1.481 . S
C303 N305 1.299 . S
C303 N306 1.379 . S
N304 Zn288 2.036 . S
N304 C302 1.298 . S
N304 N305 1.398 . S
N305 C303 1.299 . S
N305 N304 1.398 . S
N306 C302 1.367 . S
N306 C303 1.379 . S
H307 C310 0.980 . S
H308 C310 0.981 . S
H309 C310 0.981 . S
C310 C302 1.481 . S
C310 H307 0.980 . S
C310 H308 0.981 . S
C310 H309 0.981 . S
C311 C298 1.479 . S
C311 H312 0.988 . S
C311 H313 0.971 1_455 S
C311 H314 0.984 . S
H312 C311 0.988 . S
H313 C311 0.971 1_655 S
H314 C311 0.984 . S
O315 Zn291 2.066 . S
O315 C294 1.256 . S
O316 Zn288 2.053 . S
O316 C294 1.244 . S
C317 O295 1.259 . S
C317 O296 1.254 . S
O318 Zn288 2.066 . S
O318 C290 1.256 . S
O319 C290 1.244 . S
O319 Zn291 2.053 . S
Zn320 O321 2.055 . S
Zn320 O328 2.046 . S
Zn320 N336 2.036 . S
Zn320 O348 2.053 . S
Zn320 O350 2.066 . S
O321 Zn320 2.055 . S
O321 C324 1.259 . S
C322 O350 1.256 . S
C322 O351 1.244 . S
Zn323 O325 2.046 . S
Zn323 O327 2.055 . S
Zn323 N329 2.036 . S
Zn323 O347 2.066 . S
Zn323 O351 2.053 . S
C324 O321 1.259 . S
C324 O325 1.254 . S
O325 Zn323 2.046 . S
O325 C324 1.254 . S
C326 O347 1.256 . S
C326 O348 1.244 . S
O327 Zn323 2.055 . S
O327 C349 1.259 . S
O328 Zn320 2.046 . S
O328 C349 1.254 . S
N329 Zn323 2.036 . S
N329 C330 1.298 . S
N329 N332 1.398 . S
C330 N329 1.298 . S
C330 N333 1.367 . S
C330 C343 1.481 . S
C331 N332 1.299 . S
C331 N333 1.379 . S
N332 N329 1.398 . S
N332 C331 1.299 . S
N333 C330 1.367 . S
N333 C331 1.379 . S
C334 N336 1.298 . S
C334 N338 1.367 1_545 S
C334 C342 1.484 . S
C335 N337 1.299 1_565 S
C335 N338 1.379 . S
N336 Zn320 2.036 . S
N336 C334 1.298 . S
N336 N337 1.398 . S
N337 C335 1.299 1_545 S
N337 N336 1.398 . S
N338 C334 1.367 1_565 S
N338 C335 1.379 . S
H339 C342 0.977 . S
H340 C342 0.972 1_565 S
H341 C342 0.990 . S
C342 C334 1.484 . S
C342 H339 0.977 . S
C342 H340 0.972 1_545 S
C342 H341 0.990 . S
C343 C330 1.481 . S
C343 H344 0.980 . S
C343 H345 0.981 . S
C343 H346 0.981 . S
H344 C343 0.980 . S
H345 C343 0.981 . S
H346 C343 0.981 . S
O347 Zn323 2.066 . S
O347 C326 1.256 . S
O348 Zn320 2.053 . S
O348 C326 1.244 . S
C349 O327 1.259 . S
C349 O328 1.254 . S
O350 Zn320 2.066 . S
O350 C322 1.256 . S
O351 C322 1.244 . S
O351 Zn323 2.053 . S
Zn352 O353 2.055 . S
Zn352 O360 2.046 1_554 S
Zn352 N368 2.036 . S
Zn352 O380 2.053 1_554 S
Zn352 O382 2.066 . S
O353 Zn352 2.055 . S
O353 C356 1.259 . S
C354 O382 1.256 . S
C354 O383 1.244 . S
Zn355 O357 2.046 . S
Zn355 O359 2.055 1_554 S
Zn355 N361 2.036 . S
Zn355 O379 2.066 1_554 S
Zn355 O383 2.053 . S
C356 O353 1.259 . S
C356 O357 1.254 . S
O357 Zn355 2.046 . S
O357 C356 1.254 . S
C358 O379 1.256 . S
C358 O380 1.244 . S
O359 Zn355 2.055 1_556 S
O359 C381 1.259 . S
O360 Zn352 2.046 1_556 S
O360 C381 1.254 . S
N361 Zn355 2.036 . S
N361 C362 1.298 . S
N361 N364 1.398 . S
C362 N361 1.298 . S
C362 N365 1.367 . S
C362 C375 1.481 1_554 S
C363 N364 1.299 . S
C363 N365 1.379 . S
N364 N361 1.398 . S
N364 C363 1.299 . S
N365 C362 1.367 . S
N365 C363 1.379 . S
C366 N368 1.298 . S
C366 N370 1.367 . S
C366 C374 1.481 . S
C367 N369 1.299 1_554 S
C367 N370 1.379 . S
N368 Zn352 2.036 . S
N368 C366 1.298 . S
N368 N369 1.398 1_554 S
N369 C367 1.299 1_556 S
N369 N368 1.398 1_556 S
N370 C366 1.367 . S
N370 C367 1.379 . S
H371 C374 0.980 . S
H372 C374 0.981 . S
H373 C374 0.981 . S
C374 C366 1.481 . S
C374 H371 0.980 . S
C374 H372 0.981 . S
C374 H373 0.981 . S
C375 C362 1.481 1_556 S
C375 H376 0.980 . S
C375 H377 0.981 . S
C375 H378 0.981 . S
H376 C375 0.980 . S
H377 C375 0.981 . S
H378 C375 0.981 . S
O379 Zn355 2.066 1_556 S
O379 C358 1.256 . S
O380 Zn352 2.053 1_556 S
O380 C358 1.244 . S
C381 O359 1.259 . S
C381 O360 1.254 . S
O382 Zn352 2.066 . S
O382 C354 1.256 . S
O383 C354 1.244 . S
O383 Zn355 2.053 . S
C384 C385 1.363 . S
C384 C390 1.379 . S
C384 N392 1.356 . S
C385 C384 1.363 . S
C385 C391 1.363 . S
C386 C387 1.363 . S
C386 C391 1.379 . S
C386 N393 1.356 . S
C387 C386 1.363 . S
C387 C390 1.363 . S
N388 C390 1.356 . S
N388 H400 0.984 . S
N388 H401 0.985 . S
N389 C391 1.356 . S
N389 H394 0.984 . S
N389 H395 0.985 . S
C390 C384 1.379 . S
C390 C387 1.363 . S
C390 N388 1.356 . S
C391 C385 1.363 . S
C391 C386 1.379 . S
C391 N389 1.356 . S
N392 C384 1.356 . S
N392 H398 0.984 . S
N392 H399 0.984 . S
N393 C386 1.356 . S
N393 H396 0.984 . S
N393 H397 0.985 1_554 S
H394 N389 0.984 . S
H395 N389 0.985 . S
H396 N393 0.984 . S
H397 N393 0.985 1_556 S
H398 N392 0.984 . S
H399 N392 0.984 . S
H400 N388 0.984 . S
H401 N388 0.985 . S
C402 C403 1.363 . S
C402 C408 1.379 . S
C402 N410 1.356 . S
C403 C402 1.363 . S
C403 C409 1.363 . S
C404 C405 1.363 . S
C404 C409 1.379 . S
C404 N411 1.356 . S
C405 C404 1.363 . S
C405 C408 1.363 . S
N406 C408 1.356 . S
N406 H418 0.984 . S
N406 H419 0.985 . S
N407 C409 1.356 . S
N407 H412 0.984 . S
N407 H413 0.985 . S
C408 C402 1.379 . S
C408 C405 1.363 . S
C408 N406 1.356 . S
C409 C403 1.363 . S
C409 C404 1.379 . S
C409 N407 1.356 . S
N410 C402 1.356 . S
N410 H416 0.984 . S
N410 H417 0.984 . S
N411 C404 1.356 . S
N411 H414 0.984 . S
N411 H415 0.985 . S
H412 N407 0.984 . S
H413 N407 0.985 . S
H414 N411 0.984 . S
H415 N411 0.985 . S
H416 N410 0.984 . S
H417 N410 0.984 . S
H418 N406 0.984 . S
H419 N406 0.985 . S
C420 C421 1.363 . S
C420 C426 1.379 . S
C420 N428 1.356 . S
C421 C420 1.363 . S
C421 C427 1.363 . S
C422 C423 1.363 . S
C422 C427 1.379 . S
C422 N429 1.356 . S
C423 C422 1.363 . S
C423 C426 1.363 . S
N424 C426 1.356 . S
N424 H436 0.984 . S
N424 H437 0.985 . S
N425 C427 1.356 . S
N425 H430 0.984 . S
N425 H431 0.985 . S
C426 C420 1.379 . S
C426 C423 1.363 . S
C426 N424 1.356 . S
C427 C421 1.363 . S
C427 C422 1.379 . S
C427 N425 1.356 . S
N428 C420 1.356 . S
N428 H434 0.984 . S
N428 H435 0.984 . S
N429 C422 1.356 . S
N429 H432 0.984 . S
N429 H433 0.985 . S
H430 N425 0.984 . S
H431 N425 0.985 . S
H432 N429 0.984 . S
H433 N429 0.985 . S
H434 N428 0.984 . S
H435 N428 0.984 . S
H436 N424 0.984 . S
H437 N424 0.985 . S
C438 C439 1.363 . S
C438 C444 1.379 . S
C438 N446 1.356 . S
C439 C438 1.363 . S
C439 C445 1.363 . S
C440 C441 1.363 . S
C440 C445 1.379 . S
C440 N447 1.356 . S
C441 C440 1.363 . S
C441 C444 1.363 . S
N442 C444 1.356 . S
N442 H454 0.984 . S
N442 H455 0.985 . S
N443 C445 1.356 . S
N443 H448 0.984 . S
N443 H449 0.985 . S
C444 C438 1.379 . S
C444 C441 1.363 . S
C444 N442 1.356 . S
C445 C439 1.363 . S
C445 C440 1.379 . S
C445 N443 1.356 . S
N446 C438 1.356 . S
N446 H452 0.984 . S
N446 H453 0.984 . S
N447 C440 1.356 . S
N447 H450 0.984 . S
N447 H451 0.985 . S
H448 N443 0.984 . S
H449 N443 0.985 . S
H450 N447 0.984 . S
H451 N447 0.985 . S
H452 N446 0.984 . S
H453 N446 0.984 . S
H454 N442 0.984 . S
H455 N442 0.985 . S
C456 C457 1.363 . S
C456 C462 1.379 . S
C456 N464 1.356 . S
C457 C456 1.363 . S
C457 C463 1.363 . S
C458 C459 1.363 . S
C458 C463 1.379 . S
C458 N465 1.356 . S
C459 C458 1.363 . S
C459 C462 1.363 . S
N460 C462 1.356 . S
N460 H472 0.984 . S
N460 H473 0.985 . S
N461 C463 1.356 . S
N461 H466 0.984 . S
N461 H467 0.985 . S
C462 C456 1.379 . S
C462 C459 1.363 . S
C462 N460 1.356 . S
C463 C457 1.363 . S
C463 C458 1.379 . S
C463 N461 1.356 . S
N464 C456 1.356 . S
N464 H470 0.984 . S
N464 H471 0.984 . S
N465 C458 1.356 . S
N465 H468 0.984 . S
N465 H469 0.985 . S
H466 N461 0.984 . S
H467 N461 0.985 . S
H468 N465 0.984 . S
H469 N465 0.985 . S
H470 N464 0.984 . S
H471 N464 0.984 . S
H472 N460 0.984 . S
H473 N460 0.985 . S
C474 C475 1.363 . S
C474 C480 1.379 . S
C474 N482 1.356 . S
C475 C474 1.363 . S
C475 C481 1.363 . S
C476 C477 1.363 . S
C476 C481 1.379 . S
C476 N483 1.356 . S
C477 C476 1.363 . S
C477 C480 1.363 . S
N478 C480 1.356 . S
N478 H490 0.984 . S
N478 H491 0.985 . S
N479 C481 1.356 . S
N479 H484 0.984 . S
N479 H485 0.985 . S
C480 C474 1.379 . S
C480 C477 1.363 . S
C480 N478 1.356 . S
C481 C475 1.363 . S
C481 C476 1.379 . S
C481 N479 1.356 . S
N482 C474 1.356 . S
N482 H488 0.984 . S
N482 H489 0.984 . S
N483 C476 1.356 . S
N483 H486 0.984 . S
N483 H487 0.985 1_556 S
H484 N479 0.984 . S
H485 N479 0.985 . S
H486 N483 0.984 . S
H487 N483 0.985 1_554 S
H488 N482 0.984 . S
H489 N482 0.984 . S
H490 N478 0.984 . S
H491 N478 0.985 . S
C492 C493 1.363 . S
C492 C498 1.379 . S
C492 N500 1.356 . S
C493 C492 1.363 . S
C493 C499 1.363 1_556 S
C494 C495 1.363 . S
C494 C499 1.379 . S
C494 N501 1.356 . S
C495 C494 1.363 . S
C495 C498 1.363 1_554 S
N496 C498 1.356 1_554 S
N496 H508 0.984 1_554 S
N496 H509 0.985 . S
N497 C499 1.356 1_556 S
N497 H502 0.984 . S
N497 H503 0.985 1_556 S
C498 C492 1.379 . S
C498 C495 1.363 1_556 S
C498 N496 1.356 1_556 S
C499 C493 1.363 1_554 S
C499 C494 1.379 . S
C499 N497 1.356 1_554 S
N500 C492 1.356 . S
N500 H506 0.984 . S
N500 H507 0.984 . S
N501 C494 1.356 . S
N501 H504 0.984 . S
N501 H505 0.985 . S
H502 N497 0.984 . S
H503 N497 0.985 1_554 S
H504 N501 0.984 . S
H505 N501 0.985 . S
H506 N500 0.984 . S
H507 N500 0.984 . S
H508 N496 0.984 1_556 S
H509 N496 0.985 . S
C510 C511 1.363 . S
C510 C516 1.379 . S
C510 N518 1.356 . S
C511 C510 1.363 . S
C511 C517 1.363 . S
C512 C513 1.363 . S
C512 C517 1.379 . S
C512 N519 1.356 . S
C513 C512 1.363 . S
C513 C516 1.363 . S
N514 C516 1.356 . S
N514 H526 0.984 . S
N514 H527 0.985 . S
N515 C517 1.356 . S
N515 H520 0.984 . S
N515 H521 0.985 . S
C516 C510 1.379 . S
C516 C513 1.363 . S
C516 N514 1.356 . S
C517 C511 1.363 . S
C517 C512 1.379 . S
C517 N515 1.356 . S
N518 C510 1.356 . S
N518 H524 0.984 . S
N518 H525 0.984 . S
N519 C512 1.356 . S
N519 H522 0.984 . S
N519 H523 0.985 . S
H520 N515 0.984 . S
H521 N515 0.985 . S
H522 N519 0.984 . S
H523 N519 0.985 . S
H524 N518 0.984 . S
H525 N518 0.984 . S
H526 N514 0.984 . S
H527 N514 0.985 . S
C528 C529 1.363 . S
C528 C534 1.379 . S
C528 N536 1.356 . S
C529 C528 1.363 . S
C529 C535 1.363 . S
C530 C531 1.363 . S
C530 C535 1.379 . S
C530 N537 1.356 . S
C531 C530 1.363 . S
C531 C534 1.363 . S
N532 C534 1.356 . S
N532 H544 0.984 . S
N532 H545 0.985 . S
N533 C535 1.356 . S
N533 H538 0.984 . S
N533 H539 0.985 . S
C534 C528 1.379 . S
C534 C531 1.363 . S
C534 N532 1.356 . S
C535 C529 1.363 . S
C535 C530 1.379 . S
C535 N533 1.356 . S
N536 C528 1.356 . S
N536 H542 0.984 . S
N536 H543 0.984 . S
N537 C530 1.356 . S
N537 H540 0.984 . S
N537 H541 0.985 . S
H538 N533 0.984 . S
H539 N533 0.985 . S
H540 N537 0.984 . S
H541 N537 0.985 . S
H542 N536 0.984 . S
H543 N536 0.984 . S
H544 N532 0.984 . S
H545 N532 0.985 . S
C546 C547 1.363 . S
C546 C552 1.379 . S
C546 N554 1.356 . S
C547 C546 1.363 . S
C547 C553 1.363 1_556 S
C548 C549 1.363 . S
C548 C553 1.379 . S
C548 N555 1.356 . S
C549 C548 1.363 . S
C549 C552 1.363 1_554 S
N550 C552 1.356 1_554 S
N550 H562 0.984 1_554 S
N550 H563 0.985 . S
N551 C553 1.356 1_556 S
N551 H556 0.984 . S
N551 H557 0.985 1_556 S
C552 C546 1.379 . S
C552 C549 1.363 1_556 S
C552 N550 1.356 1_556 S
C553 C547 1.363 1_554 S
C553 C548 1.379 . S
C553 N551 1.356 1_554 S
N554 C546 1.356 . S
N554 H560 0.984 . S
N554 H561 0.984 . S
N555 C548 1.356 . S
N555 H558 0.984 . S
N555 H559 0.985 . S
H556 N551 0.984 . S
H557 N551 0.985 1_554 S
H558 N555 0.984 . S
H559 N555 0.985 . S
H560 N554 0.984 . S
H561 N554 0.984 . S
H562 N550 0.984 1_556 S
H563 N550 0.985 . S
C564 C565 1.363 . S
C564 C570 1.379 . S
C564 N572 1.356 . S
C565 C564 1.363 . S
C565 C571 1.363 . S
C566 C567 1.363 . S
C566 C571 1.379 . S
C566 N573 1.356 . S
C567 C566 1.363 . S
C567 C570 1.363 . S
N568 C570 1.356 . S
N568 H580 0.984 . S
N568 H581 0.985 . S
N569 C571 1.356 . S
N569 H574 0.984 . S
N569 H575 0.985 . S
C570 C564 1.379 . S
C570 C567 1.363 . S
C570 N568 1.356 . S
C571 C565 1.363 . S
C571 C566 1.379 . S
C571 N569 1.356 . S
N572 C564 1.356 . S
N572 H578 0.984 . S
N572 H579 0.984 . S
N573 C566 1.356 . S
N573 H576 0.984 . S
N573 H577 0.985 . S
H574 N569 0.984 . S
H575 N569 0.985 . S
H576 N573 0.984 . S
H577 N573 0.985 . S
H578 N572 0.984 . S
H579 N572 0.984 . S
H580 N568 0.984 . S
H581 N568 0.985 . S
C582 C583 1.363 . S
C582 C588 1.379 . S
C582 N590 1.356 . S
C583 C582 1.363 . S
C583 C589 1.363 . S
C584 C585 1.363 . S
C584 C589 1.379 . S
C584 N591 1.356 . S
C585 C584 1.363 . S
C585 C588 1.363 . S
N586 C588 1.356 . S
N586 H598 0.984 . S
N586 H599 0.985 . S
N587 C589 1.356 . S
N587 H592 0.984 . S
N587 H593 0.985 . S
C588 C582 1.379 . S
C588 C585 1.363 . S
C588 N586 1.356 . S
C589 C583 1.363 . S
C589 C584 1.379 . S
C589 N587 1.356 . S
N590 C582 1.356 . S
N590 H596 0.984 . S
N590 H597 0.984 . S
N591 C584 1.356 . S
N591 H594 0.984 . S
N591 H595 0.985 . S
H592 N587 0.984 . S
H593 N587 0.985 . S
H594 N591 0.984 . S
H595 N591 0.985 . S
H596 N590 0.984 . S
H597 N590 0.984 . S
H598 N586 0.984 . S
H599 N586 0.985 . S
C600 C601 1.363 . S
C600 C606 1.379 1_565 S
C600 N608 1.356 . S
C601 C600 1.363 . S
C601 C607 1.363 1_556 S
C602 C603 1.363 . S
C602 C607 1.379 1_545 S
C602 N609 1.356 . S
C603 C602 1.363 . S
C603 C606 1.363 1_554 S
N604 C606 1.356 1_554 S
N604 H616 0.984 1_554 S
N604 H617 0.985 . S
N605 C607 1.356 1_556 S
N605 H610 0.984 . S
N605 H611 0.985 1_556 S
C606 C600 1.379 1_545 S
C606 C603 1.363 1_556 S
C606 N604 1.356 1_556 S
C607 C601 1.363 1_554 S
C607 C602 1.379 1_565 S
C607 N605 1.356 1_554 S
N608 C600 1.356 . S
N608 H614 0.949 1_565 S
N608 H615 0.984 . S
N609 C602 1.356 . S
N609 H612 0.984 . S
N609 H613 0.949 1_545 S
H610 N605 0.984 . S
H611 N605 0.985 1_554 S
H612 N609 0.984 . S
H613 N609 0.949 1_565 S
H614 N608 0.949 1_545 S
H615 N608 0.984 . S
H616 N604 0.984 1_556 S
H617 N604 0.985 . S
C618 C619 1.363 . S
C618 C624 1.379 . S
C618 N626 1.356 . S
C619 C618 1.363 . S
C619 C625 1.363 . S
C620 C621 1.363 . S
C620 C625 1.379 . S
C620 N627 1.356 . S
C621 C620 1.363 . S
C621 C624 1.363 . S
N622 C624 1.356 . S
N622 H634 0.984 . S
N622 H635 0.985 . S
N623 C625 1.356 . S
N623 H628 0.984 . S
N623 H629 0.985 . S
C624 C618 1.379 . S
C624 C621 1.363 . S
C624 N622 1.356 . S
C625 C619 1.363 . S
C625 C620 1.379 . S
C625 N623 1.356 . S
N626 C618 1.356 . S
N626 H632 0.984 . S
N626 H633 0.984 . S
N627 C620 1.356 . S
N627 H630 0.984 . S
N627 H631 0.985 . S
H628 N623 0.984 . S
H629 N623 0.985 . S
H630 N627 0.984 . S
H631 N627 0.985 . S
H632 N626 0.984 . S
H633 N626 0.984 . S
H634 N622 0.984 . S
H635 N622 0.985 . S
C636 C637 1.363 . S
C636 C642 1.379 1_455 S
C636 N644 1.356 . S
C637 C636 1.363 . S
C637 C643 1.363 . S
C638 C639 1.363 . S
C638 C643 1.379 1_655 S
C638 N645 1.356 . S
C639 C638 1.363 . S
C639 C642 1.363 . S
N640 C642 1.356 . S
N640 H652 0.984 . S
N640 H653 0.985 . S
N641 C643 1.356 . S
N641 H646 0.984 . S
N641 H647 0.985 . S
C642 C636 1.379 1_655 S
C642 C639 1.363 . S
C642 N640 1.356 . S
C643 C637 1.363 . S
C643 C638 1.379 1_455 S
C643 N641 1.356 . S
N644 C636 1.356 . S
N644 H650 0.984 . S
N644 H651 0.984 . S
N645 C638 1.356 . S
N645 H648 0.984 . S
N645 H649 0.985 . S
H646 N641 0.984 . S
H647 N641 0.985 . S
H648 N645 0.984 . S
H649 N645 0.985 . S
H650 N644 0.984 . S
H651 N644 0.984 . S
H652 N640 0.984 . S
H653 N640 0.985 . S
C654 C655 1.363 1_545 S
C654 C660 1.379 . S
C654 N662 1.356 . S
C655 C654 1.363 1_565 S
C655 C661 1.363 1_554 S
C656 C657 1.363 1_565 S
C656 C661 1.379 . S
C656 N663 1.356 . S
C657 C656 1.363 1_545 S
C657 C660 1.363 1_556 S
N658 C660 1.356 . S
N658 H670 0.984 . S
N658 H671 0.985 1_554 S
N659 C661 1.356 . S
N659 H664 0.984 1_556 S
N659 H665 0.985 . S
C660 C654 1.379 . S
C660 C657 1.363 1_554 S
C660 N658 1.356 . S
C661 C655 1.363 1_556 S
C661 C656 1.379 . S
C661 N659 1.356 . S
N662 C654 1.356 . S
N662 H668 0.984 . S
N662 H669 0.984 1_545 S
N663 C656 1.356 . S
N663 H666 0.984 1_565 S
N663 H667 0.985 . S
H664 N659 0.984 1_554 S
H665 N659 0.985 . S
H666 N663 0.984 1_545 S
H667 N663 0.985 . S
H668 N662 0.984 . S
H669 N662 0.984 1_565 S
H670 N658 0.984 . S
H671 N658 0.985 1_556 S
C672 C673 1.363 . S
C672 C678 1.379 . S
C672 N680 1.356 . S
C673 C672 1.363 . S
C673 C679 1.363 . S
C674 C675 1.363 . S
C674 C679 1.379 . S
C674 N681 1.356 . S
C675 C674 1.363 . S
C675 C678 1.363 . S
N676 C678 1.356 . S
N676 H688 0.984 . S
N676 H689 0.985 . S
N677 C679 1.356 . S
N677 H682 0.984 . S
N677 H683 0.985 . S
C678 C672 1.379 . S
C678 C675 1.363 . S
C678 N676 1.356 . S
C679 C673 1.363 . S
C679 C674 1.379 . S
C679 N677 1.356 . S
N680 C672 1.356 . S
N680 H686 0.984 . S
N680 H687 0.984 . S
N681 C674 1.356 . S
N681 H684 0.984 . S
N681 H685 0.985 . S
H682 N677 0.984 . S
H683 N677 0.985 . S
H684 N681 0.984 . S
H685 N681 0.985 . S
H686 N680 0.984 . S
H687 N680 0.984 . S
H688 N676 0.984 . S
H689 N676 0.985 . S
C690 C691 1.363 . S
C690 C696 1.379 1_455 S
C690 N698 1.356 . S
C691 C690 1.363 . S
C691 C697 1.363 . S
C692 C693 1.363 . S
C692 C697 1.379 1_655 S
C692 N699 1.356 . S
C693 C692 1.363 . S
C693 C696 1.363 . S
N694 C696 1.356 . S
N694 H706 0.984 . S
N694 H707 0.985 . S
N695 C697 1.356 . S
N695 H700 0.984 . S
N695 H701 0.985 . S
C696 C690 1.379 1_655 S
C696 C693 1.363 . S
C696 N694 1.356 . S
C697 C691 1.363 . S
C697 C692 1.379 1_455 S
C697 N695 1.356 . S
N698 C690 1.356 . S
N698 H704 0.984 . S
N698 H705 0.984 . S
N699 C692 1.356 . S
N699 H702 0.984 . S
N699 H703 0.985 . S
H700 N695 0.984 . S
H701 N695 0.985 . S
H702 N699 0.984 . S
H703 N699 0.985 . S
H704 N698 0.984 . S
H705 N698 0.984 . S
H706 N694 0.984 . S
H707 N694 0.985 . S
C708 C709 1.363 . S
C708 C714 1.379 1_565 S
C708 N716 1.356 . S
C709 C708 1.363 . S
C709 C715 1.363 . S
C710 C711 1.363 . S
C710 C715 1.379 1_545 S
C710 N717 1.356 . S
C711 C710 1.363 . S
C711 C714 1.363 . S
N712 C714 1.356 . S
N712 H724 0.984 . S
N712 H725 0.985 . S
N713 C715 1.356 . S
N713 H718 0.984 . S
N713 H719 0.985 . S
C714 C708 1.379 1_545 S
C714 C711 1.363 . S
C714 N712 1.356 . S
C715 C709 1.363 . S
C715 C710 1.379 1_565 S
C715 N713 1.356 . S
N716 C708 1.356 . S
N716 H722 0.984 . S
N716 H723 0.984 . S
N717 C710 1.356 . S
N717 H720 0.984 . S
N717 H721 0.985 . S
H718 N713 0.984 . S
H719 N713 0.985 . S
H720 N717 0.984 . S
H721 N717 0.985 . S
H722 N716 0.984 . S
H723 N716 0.984 . S
H724 N712 0.984 . S
H725 N712 0.985 . S
C726 C727 1.363 . S
C726 C732 1.379 . S
C726 N734 1.356 . S
C727 C726 1.363 . S
C727 C733 1.363 . S
C728 C729 1.363 . S
C728 C733 1.379 . S
C728 N735 1.356 . S
C729 C728 1.363 . S
C729 C732 1.363 . S
N730 C732 1.356 . S
N730 H742 0.984 . S
N730 H743 0.985 . S
N731 C733 1.356 . S
N731 H736 0.984 . S
N731 H737 0.985 . S
C732 C726 1.379 . S
C732 C729 1.363 . S
C732 N730 1.356 . S
C733 C727 1.363 . S
C733 C728 1.379 . S
C733 N731 1.356 . S
N734 C726 1.356 . S
N734 H740 0.984 . S
N734 H741 0.984 . S
N735 C728 1.356 . S
N735 H738 0.984 . S
N735 H739 0.985 . S
H736 N731 0.984 . S
H737 N731 0.985 . S
H738 N735 0.984 . S
H739 N735 0.985 . S
H740 N734 0.984 . S
H741 N734 0.984 . S
H742 N730 0.984 . S
H743 N730 0.985 . S
C744 C745 1.363 1_554 S
C744 C750 1.379 1_455 S
C744 N752 1.356 . S
C745 C744 1.363 1_556 S
C745 C751 1.363 . S
C746 C747 1.363 . S
C746 C751 1.379 1_655 S
C746 N753 1.356 . S
C747 C746 1.363 . S
C747 C750 1.363 1_556 S
N748 C750 1.356 . S
N748 H760 0.984 . S
N748 H761 0.985 . S
N749 C751 1.356 . S
N749 H754 0.984 . S
N749 H755 0.985 . S
C750 C744 1.379 1_655 S
C750 C747 1.363 1_554 S
C750 N748 1.356 . S
C751 C745 1.363 . S
C751 C746 1.379 1_455 S
C751 N749 1.356 . S
N752 C744 1.356 . S
N752 H758 0.984 . S
N752 H759 0.984 . S
N753 C746 1.356 . S
N753 H756 0.984 . S
N753 H757 0.985 . S
H754 N749 0.984 . S
H755 N749 0.985 . S
H756 N753 0.984 . S
H757 N753 0.985 . S
H758 N752 0.984 . S
H759 N752 0.984 . S
H760 N748 0.984 . S
H761 N748 0.985 . S
C762 C763 1.363 . S
C762 C768 1.379 1_655 S
C762 N770 1.356 . S
C763 C762 1.363 . S
C763 C769 1.363 . S
C764 C765 1.363 . S
C764 C769 1.379 1_455 S
C764 N771 1.356 . S
C765 C764 1.363 . S
C765 C768 1.363 . S
N766 C768 1.356 . S
N766 H778 0.984 . S
N766 H779 0.985 . S
N767 C769 1.356 . S
N767 H772 0.984 . S
N767 H773 0.985 . S
C768 C762 1.379 1_455 S
C768 C765 1.363 . S
C768 N766 1.356 . S
C769 C763 1.363 . S
C769 C764 1.379 1_655 S
C769 N767 1.356 . S
N770 C762 1.356 . S
N770 H776 0.984 . S
N770 H777 0.984 . S
N771 C764 1.356 . S
N771 H774 0.984 . S
N771 H775 0.985 . S
H772 N767 0.984 . S
H773 N767 0.985 . S
H774 N771 0.984 . S
H775 N771 0.985 . S
H776 N770 0.984 . S
H777 N770 0.984 . S
H778 N766 0.984 . S
H779 N766 0.985 . S
C780 C781 1.363 . S
C780 C786 1.379 1_545 S
C780 N788 1.356 . S
C781 C780 1.363 . S
C781 C787 1.363 . S
C782 C783 1.363 . S
C782 C787 1.379 1_565 S
C782 N789 1.356 . S
C783 C782 1.363 . S
C783 C786 1.363 . S
N784 C786 1.356 . S
N784 H796 0.984 . S
N784 H797 0.985 . S
N785 C787 1.356 . S
N785 H790 0.984 . S
N785 H791 0.985 . S
C786 C780 1.379 1_565 S
C786 C783 1.363 . S
C786 N784 1.356 . S
C787 C781 1.363 . S
C787 C782 1.379 1_545 S
C787 N785 1.356 . S
N788 C780 1.356 . S
N788 H794 0.984 . S
N788 H795 0.984 . S
N789 C782 1.356 . S
N789 H792 0.984 . S
N789 H793 0.985 . S
H790 N785 0.984 . S
H791 N785 0.985 . S
H792 N789 0.984 . S
H793 N789 0.985 . S
H794 N788 0.984 . S
H795 N788 0.984 . S
H796 N784 0.984 . S
H797 N784 0.985 . S
C798 C799 1.363 . S
C798 C804 1.379 . S
C798 N806 1.356 . S
C799 C798 1.363 . S
C799 C805 1.363 1_554 S
C800 C801 1.363 1_556 S
C800 C805 1.379 . S
C800 N807 1.356 . S
C801 C800 1.363 1_554 S
C801 C804 1.363 . S
N802 C804 1.356 . S
N802 H814 0.984 . S
N802 H815 0.985 . S
N803 C805 1.356 . S
N803 H808 0.984 . S
N803 H809 0.985 . S
C804 C798 1.379 . S
C804 C801 1.363 . S
C804 N802 1.356 . S
C805 C799 1.363 1_556 S
C805 C800 1.379 . S
C805 N803 1.356 . S
N806 C798 1.356 . S
N806 H812 0.984 . S
N806 H813 0.984 . S
N807 C800 1.356 . S
N807 H810 0.984 . S
N807 H811 0.985 . S
H808 N803 0.984 . S
H809 N803 0.985 . S
H810 N807 0.984 . S
H811 N807 0.985 . S
H812 N806 0.984 . S
H813 N806 0.984 . S
H814 N802 0.984 . S
H815 N802 0.985 . S
C816 C817 1.363 . S
C816 C822 1.379 1_565 S
C816 N824 1.356 . S
C817 C816 1.363 . S
C817 C823 1.363 . S
C818 C819 1.363 . S
C818 C823 1.379 1_545 S
C818 N825 1.356 . S
C819 C818 1.363 . S
C819 C822 1.363 . S
N820 C822 1.356 . S
N820 H832 0.956 1_545 S
N820 H833 0.985 . S
N821 C823 1.356 . S
N821 H826 0.984 . S
N821 H827 0.956 1_565 S
C822 C816 1.379 1_545 S
C822 C819 1.363 . S
C822 N820 1.356 . S
C823 C817 1.363 . S
C823 C818 1.379 1_565 S
C823 N821 1.356 . S
N824 C816 1.356 . S
N824 H830 0.984 . S
N824 H831 0.984 . S
N825 C818 1.356 . S
N825 H828 0.984 . S
N825 H829 0.985 . S
H826 N821 0.984 . S
H827 N821 0.956 1_545 S
H828 N825 0.984 . S
H829 N825 0.985 . S
H830 N824 0.984 . S
H831 N824 0.984 . S
H832 N820 0.956 1_565 S
H833 N820 0.985 . S
C834 C835 1.363 . S
C834 C840 1.379 . S
C834 N842 1.356 . S
C835 C834 1.363 . S
C835 C841 1.363 . S
C836 C837 1.363 . S
C836 C841 1.379 . S
C836 N843 1.356 . S
C837 C836 1.363 . S
C837 C840 1.363 . S
N838 C840 1.356 . S
N838 H850 0.984 . S
N838 H851 0.985 . S
N839 C841 1.356 . S
N839 H844 0.984 . S
N839 H845 0.985 . S
C840 C834 1.379 . S
C840 C837 1.363 . S
C840 N838 1.356 . S
C841 C835 1.363 . S
C841 C836 1.379 . S
C841 N839 1.356 . S
N842 C834 1.356 . S
N842 H848 0.984 1_556 S
N842 H849 0.984 1_556 S
N843 C836 1.356 . S
N843 H846 0.984 . S
N843 H847 0.985 . S
H844 N839 0.984 . S
H845 N839 0.985 . S
H846 N843 0.984 . S
H847 N843 0.985 . S
H848 N842 0.984 1_554 S
H849 N842 0.984 1_554 S
H850 N838 0.984 . S
H851 N838 0.985 . S
C852 C853 1.384 . S
C852 C858 1.358 1_655 S
C852 N860 1.365 . S
C853 C852 1.384 . S
C853 C859 1.363 . S
C854 C855 1.383 . S
C854 C859 1.358 1_455 S
C854 N861 1.365 . S
C855 C854 1.383 . S
C855 C858 1.363 . S
N856 C858 1.356 . S
N856 H868 0.984 . S
N856 H869 0.985 . S
N857 C859 1.356 . S
N857 H862 0.984 . S
N857 H863 0.985 . S
C858 C852 1.358 1_455 S
C858 C855 1.363 . S
C858 N856 1.356 . S
C859 C853 1.363 . S
C859 C854 1.358 1_655 S
C859 N857 1.356 . S
N860 C852 1.365 . S
N860 H866 0.984 1_654 S
N860 H867 0.984 1_554 S
N861 C854 1.365 . S
N861 H864 0.984 . S
N861 H865 0.985 1_455 S
H862 N857 0.984 . S
H863 N857 0.985 . S
H864 N861 0.984 . S
H865 N861 0.985 1_655 S
H866 N860 0.984 1_456 S
H867 N860 0.984 1_556 S
H868 N856 0.984 . S
H869 N856 0.985 . S
C870 C871 1.363 . S
C870 C876 1.379 1_545 S
C870 N878 1.356 . S
C871 C870 1.363 . S
C871 C877 1.363 . S
C872 C873 1.363 . S
C872 C877 1.379 1_565 S
C872 N879 1.356 . S
C873 C872 1.363 . S
C873 C876 1.363 . S
N874 C876 1.356 . S
N874 H886 0.969 1_565 S
N874 H887 0.985 . S
N875 C877 1.356 . S
N875 H880 0.984 . S
N875 H881 0.969 1_545 S
C876 C870 1.379 1_565 S
C876 C873 1.363 . S
C876 N874 1.356 . S
C877 C871 1.363 . S
C877 C872 1.379 1_545 S
C877 N875 1.356 . S
N878 C870 1.356 . S
N878 H884 0.984 . S
N878 H885 0.984 . S
N879 C872 1.356 . S
N879 H882 0.984 . S
N879 H883 0.985 . S
H880 N875 0.984 . S
H881 N875 0.969 1_565 S
H882 N879 0.984 . S
H883 N879 0.985 . S
H884 N878 0.984 . S
H885 N878 0.984 . S
H886 N874 0.969 1_545 S
H887 N874 0.985 . S
C888 C889 1.363 . S
C888 C894 1.379 . S
C888 N896 1.356 . S
C889 C888 1.363 . S
C889 C895 1.363 . S
C890 C891 1.363 . S
C890 C895 1.379 . S
C890 N897 1.356 . S
C891 C890 1.363 . S
C891 C894 1.363 . S
N892 C894 1.356 . S
N892 H904 0.984 . S
N892 H905 0.985 . S
N893 C895 1.356 . S
N893 H898 0.984 . S
N893 H899 0.985 . S
C894 C888 1.379 . S
C894 C891 1.363 . S
C894 N892 1.356 . S
C895 C889 1.363 . S
C895 C890 1.379 . S
C895 N893 1.356 . S
N896 C888 1.356 . S
N896 H902 0.984 1_556 S
N896 H903 0.984 . S
N897 C890 1.356 . S
N897 H900 0.984 . S
N897 H901 0.985 . S
H898 N893 0.984 . S
H899 N893 0.985 . S
H900 N897 0.984 . S
H901 N897 0.985 . S
H902 N896 0.984 1_554 S
H903 N896 0.984 . S
H904 N892 0.984 . S
H905 N892 0.985 . S
C906 C907 1.363 . S
C906 C912 1.354 1_455 S
C906 N914 1.356 . S
C907 C906 1.363 . S
C907 C913 1.386 . S
C908 C909 1.363 . S
C908 C913 1.354 1_655 S
C908 N915 1.356 . S
C909 C908 1.363 . S
C909 C912 1.386 . S
N910 C912 1.367 . S
N910 H922 0.984 1_655 S
N910 H923 0.985 . S
N911 C913 1.367 . S
N911 H916 0.984 1_554 S
N911 H917 0.985 1_454 S
C912 C906 1.354 1_655 S
C912 C909 1.386 . S
C912 N910 1.367 . S
C913 C907 1.386 . S
C913 C908 1.354 1_455 S
C913 N911 1.367 . S
N914 C906 1.356 . S
N914 H920 0.984 . S
N914 H921 0.984 . S
N915 C908 1.356 . S
N915 H918 0.984 . S
N915 H919 0.985 . S
H916 N911 0.984 1_556 S
H917 N911 0.985 1_656 S
H918 N915 0.984 . S
H919 N915 0.985 . S
H920 N914 0.984 . S
H921 N914 0.984 . S
H922 N910 0.984 1_455 S
H923 N910 0.985 . S
C924 C925 1.363 . S
C924 C930 1.379 . S
C924 N932 1.356 . S
C925 C924 1.363 . S
C925 C931 1.363 . S
C926 C927 1.363 . S
C926 C931 1.379 . S
C926 N933 1.356 . S
C927 C926 1.363 . S
C927 C930 1.363 . S
N928 C930 1.356 . S
N928 H940 0.984 . S
N928 H941 0.985 . S
N929 C931 1.356 . S
N929 H934 0.984 . S
N929 H935 0.985 . S
C930 C924 1.379 . S
C930 C927 1.363 . S
C930 N928 1.356 . S
C931 C925 1.363 . S
C931 C926 1.379 . S
C931 N929 1.356 . S
N932 C924 1.356 . S
N932 H938 0.984 . S
N932 H939 0.984 . S
N933 C926 1.356 . S
N933 H936 0.984 . S
N933 H937 0.985 . S
H934 N929 0.984 . S
H935 N929 0.985 . S
H936 N933 0.984 . S
H937 N933 0.985 . S
H938 N932 0.984 . S
H939 N932 0.984 . S
H940 N928 0.984 . S
H941 N928 0.985 . S
C942 C943 1.363 . S
C942 C948 1.379 . S
C942 N950 1.356 . S
C943 C942 1.363 . S
C943 C949 1.363 . S
C944 C945 1.363 . S
C944 C949 1.379 . S
C944 N951 1.356 . S
C945 C944 1.363 . S
C945 C948 1.363 . S
N946 C948 1.356 . S
N946 H958 0.984 1_556 S
N946 H959 0.985 . S
N947 C949 1.356 . S
N947 H952 0.984 . S
N947 H953 0.985 . S
C948 C942 1.379 . S
C948 C945 1.363 . S
C948 N946 1.356 . S
C949 C943 1.363 . S
C949 C944 1.379 . S
C949 N947 1.356 . S
N950 C942 1.356 . S
N950 H956 0.984 . S
N950 H957 0.984 . S
N951 C944 1.356 . S
N951 H954 0.984 . S
N951 H955 0.985 . S
H952 N947 0.984 . S
H953 N947 0.985 . S
H954 N951 0.984 . S
H955 N951 0.985 . S
H956 N950 0.984 . S
H957 N950 0.984 . S
H958 N946 0.984 1_554 S
H959 N946 0.985 . S
C960 C961 1.363 . S
C960 C966 1.379 . S
C960 N968 1.356 . S
C961 C960 1.363 . S
C961 C967 1.363 . S
C962 C963 1.363 . S
C962 C967 1.379 . S
C962 N969 1.356 . S
C963 C962 1.363 . S
C963 C966 1.363 . S
N964 C966 1.356 . S
N964 H976 0.984 . S
N964 H977 0.985 . S
N965 C967 1.356 . S
N965 H970 0.984 . S
N965 H971 0.985 . S
C966 C960 1.379 . S
C966 C963 1.363 . S
C966 N964 1.356 . S
C967 C961 1.363 . S
C967 C962 1.379 . S
C967 N965 1.356 . S
N968 C960 1.356 . S
N968 H974 0.984 . S
N968 H975 0.984 . S
N969 C962 1.356 . S
N969 H972 0.984 . S
N969 H973 0.985 . S
H970 N965 0.984 . S
H971 N965 0.985 . S
H972 N969 0.984 . S
H973 N969 0.985 . S
H974 N968 0.984 . S
H975 N968 0.984 . S
H976 N964 0.984 . S
H977 N964 0.985 . S
C978 C979 1.363 . S
C978 C984 1.379 . S
C978 N986 1.356 . S
C979 C978 1.363 . S
C979 C985 1.363 . S
C980 C981 1.363 . S
C980 C985 1.379 . S
C980 N987 1.356 . S
C981 C980 1.363 . S
C981 C984 1.363 . S
N982 C984 1.356 . S
N982 H994 0.984 . S
N982 H995 0.985 . S
N983 C985 1.356 . S
N983 H988 0.984 . S
N983 H989 0.985 . S
C984 C978 1.379 . S
C984 C981 1.363 . S
C984 N982 1.356 . S
C985 C979 1.363 . S
C985 C980 1.379 . S
C985 N983 1.356 . S
N986 C978 1.356 . S
N986 H992 0.984 . S
N986 H993 0.984 . S
N987 C980 1.356 . S
N987 H990 0.984 . S
N987 H991 0.985 . S
H988 N983 0.984 . S
H989 N983 0.985 . S
H990 N987 0.984 . S
H991 N987 0.985 . S
H992 N986 0.984 . S
H993 N986 0.984 . S
H994 N982 0.984 . S
H995 N982 0.985 . S
C996 C997 1.363 . S
C996 C1002 1.379 . S
C996 N1004 1.356 . S
C997 C996 1.363 . S
C997 C1003 1.363 . S
C998 C999 1.363 . S
C998 C1003 1.379 . S
C998 N1005 1.356 . S
C999 C998 1.363 . S
C999 C1002 1.363 . S
N1000 C1002 1.356 . S
N1000 H1012 0.984 . S
N1000 H1013 0.985 . S
N1001 C1003 1.356 . S
N1001 H1006 0.984 . S
N1001 H1007 0.985 . S
C1002 C996 1.379 . S
C1002 C999 1.363 . S
C1002 N1000 1.356 . S
C1003 C997 1.363 . S
C1003 C998 1.379 . S
C1003 N1001 1.356 . S
N1004 C996 1.356 . S
N1004 H1010 0.984 . S
N1004 H1011 0.984 . S
N1005 C998 1.356 . S
N1005 H1008 0.984 . S
N1005 H1009 0.985 . S
H1006 N1001 0.984 . S
H1007 N1001 0.985 . S
H1008 N1005 0.984 . S
H1009 N1005 0.985 . S
H1010 N1004 0.984 . S
H1011 N1004 0.984 . S
H1012 N1000 0.984 . S
H1013 N1000 0.985 . S
C1014 C1015 1.363 . S
C1014 C1020 1.379 . S
C1014 N1022 1.356 . S
C1015 C1014 1.363 . S
C1015 C1021 1.363 . S
C1016 C1017 1.363 . S
C1016 C1021 1.379 . S
C1016 N1023 1.356 . S
C1017 C1016 1.363 . S
C1017 C1020 1.363 . S
N1018 C1020 1.356 . S
N1018 H1030 0.984 . S
N1018 H1031 0.985 . S
N1019 C1021 1.356 . S
N1019 H1024 0.984 . S
N1019 H1025 0.985 . S
C1020 C1014 1.379 . S
C1020 C1017 1.363 . S
C1020 N1018 1.356 . S
C1021 C1015 1.363 . S
C1021 C1016 1.379 . S
C1021 N1019 1.356 . S
N1022 C1014 1.356 . S
N1022 H1028 0.984 . S
N1022 H1029 0.984 . S
N1023 C1016 1.356 . S
N1023 H1026 0.984 1_554 S
N1023 H1027 0.985 1_554 S
H1024 N1019 0.984 . S
H1025 N1019 0.985 . S
H1026 N1023 0.984 1_556 S
H1027 N1023 0.985 1_556 S
H1028 N1022 0.984 . S
H1029 N1022 0.984 . S
H1030 N1018 0.984 . S
H1031 N1018 0.985 . S
C385 N13 1.338 . S
C387 N274 1.338 . S
C403 N50 1.338 . S
C405 N306 1.338 . S
C421 N82 1.338 . S
C423 N333 1.338 . S
C439 N370 1.338 . S
C441 N114 1.338 . S
C457 N146 1.338 . S
C459 N210 1.338 . S
C475 N237 1.338 . S
C477 N173 1.338 . S
C493 C326 2.440 . S
C495 C6 2.440 . S
C511 C354 2.440 . S
C513 C34 2.440 . S
C529 C66 2.440 . S
C531 C194 2.440 . S
C547 C230 2.440 . S
C549 C98 2.440 . S
C565 C258 2.440 . S
C567 C130 2.440 . S
C583 C166 2.440 . S
C585 C290 2.440 . S
C601 C253 2.016 . S
C603 C29 2.016 . S
C619 C260 2.016 . S
C621 C36 2.016 . S
C637 C292 2.016 . S
C639 C68 2.016 . S
C655 C100 2.016 . S
C657 C349 2.016 . S
C673 C132 2.016 . S
C675 C356 2.016 . S
C691 C189 2.016 . S
C693 C196 2.016 . S
C709 N18 1.154 . S
C711 N109 1.154 . S
C727 N45 1.154 . S
C729 N141 1.154 . S
C745 N77 1.154 . S
C747 N178 1.154 . S
C763 N301 1.154 . S
C765 N205 1.154 . S
C781 N242 1.154 . S
C783 N338 1.154 . S
C799 N365 1.154 . S
C801 N269 1.154 . S
C817 C228 1.738 . S
C819 C4 1.738 . S
C835 C285 1.738 . S
C837 C61 1.738 . S
C853 C93 1.738 . S
C855 C317 1.738 . S
C871 C324 1.738 . S
C873 C125 1.738 . S
C889 C381 1.738 . S
C891 C157 1.738 . S
C907 C164 1.738 . S
C909 C221 1.738 . S
C925 C2 1.947 . S
C927 C322 1.947 . S
C943 C38 1.947 . S
C945 C358 1.947 . S
C961 C70 1.947 . S
C963 C198 1.947 . S
C979 C102 1.947 . S
C981 C226 1.947 . S
C997 C134 1.947 . S
C999 C262 1.947 . S
C1015 C294 1.947 . S
C1017 C162 1.947 . S
