# Generated by pormake.
# Topology ukm, (4)-cn, num edge types: 1
# Building blocks:
#     Node 0, Type 0, BuildingBlock: GALJAG_clean_sbu_0, # of connection points: 4
#     Node 1, Type 0, BuildingBlock: GALJAG_clean_sbu_0, # of connection points: 4
#     Node 2, Type 0, BuildingBlock: GALJAG_clean_sbu_0, # of connection points: 4
#     Node 3, Type 0, BuildingBlock: GALJAG_clean_sbu_0, # of connection points: 4
#     Node 4, Type 0, BuildingBlock: GALJAG_clean_sbu_0, # of connection points: 4
#     Node 5, Type 0, BuildingBlock: GALJAG_clean_sbu_0, # of connection points: 4
#     Node 6, Type 0, BuildingBlock: GALJAG_clean_sbu_0, # of connection points: 4
#     Node 7, Type 0, BuildingBlock: GALJAG_clean_sbu_0, # of connection points: 4
#     Node 8, Type 0, BuildingBlock: GALJAG_clean_sbu_0, # of connection points: 4
#     Node 9, Type 0, BuildingBlock: GALJAG_clean_sbu_0, # of connection points: 4
#     Node 10, Type 0, BuildingBlock: GALJAG_clean_sbu_0, # of connection points: 4
#     Node 11, Type 0, BuildingBlock: GALJAG_clean_sbu_0, # of connection points: 4
#     Node 12, Type 0, BuildingBlock: GALJAG_clean_sbu_0, # of connection points: 4
#     Node 13, Type 0, BuildingBlock: GALJAG_clean_sbu_0, # of connection points: 4
#     Node 14, Type 0, BuildingBlock: GALJAG_clean_sbu_0, # of connection points: 4
#     Node 15, Type 0, BuildingBlock: GALJAG_clean_sbu_0, # of connection points: 4
#     Node 16, Type 0, BuildingBlock: GALJAG_clean_sbu_0, # of connection points: 4
#     Node 17, Type 0, BuildingBlock: GALJAG_clean_sbu_0, # of connection points: 4
#     Node 18, Type 0, BuildingBlock: GALJAG_clean_sbu_0, # of connection points: 4
#     Node 19, Type 0, BuildingBlock: GALJAG_clean_sbu_0, # of connection points: 4
#     Node 20, Type 0, BuildingBlock: GALJAG_clean_sbu_0, # of connection points: 4
#     Node 21, Type 0, BuildingBlock: GALJAG_clean_sbu_0, # of connection points: 4
#     Node 22, Type 0, BuildingBlock: GALJAG_clean_sbu_0, # of connection points: 4
#     Node 23, Type 0, BuildingBlock: GALJAG_clean_sbu_0, # of connection points: 4
#     Node 24, Type 0, BuildingBlock: GALJAG_clean_sbu_0, # of connection points: 4
#     Node 25, Type 0, BuildingBlock: GALJAG_clean_sbu_0, # of connection points: 4
#     Node 26, Type 0, BuildingBlock: GALJAG_clean_sbu_0, # of connection points: 4
#     Node 27, Type 0, BuildingBlock: GALJAG_clean_sbu_0, # of connection points: 4
#     Node 28, Type 0, BuildingBlock: GALJAG_clean_sbu_0, # of connection points: 4
#     Node 29, Type 0, BuildingBlock: GALJAG_clean_sbu_0, # of connection points: 4
#     Node 30, Type 0, BuildingBlock: GALJAG_clean_sbu_0, # of connection points: 4
#     Node 31, Type 0, BuildingBlock: GALJAG_clean_sbu_0, # of connection points: 4
#     Edge 32, Type (0, 0), BuildingBlock: MIFKUJ_clean_linker_0, # of connection points: 2
#     Edge 33, Type (0, 0), BuildingBlock: MIFKUJ_clean_linker_0, # of connection points: 2
#     Edge 34, Type (0, 0), BuildingBlock: MIFKUJ_clean_linker_0, # of connection points: 2
#     Edge 35, Type (0, 0), BuildingBlock: MIFKUJ_clean_linker_0, # of connection points: 2
#     Edge 36, Type (0, 0), BuildingBlock: MIFKUJ_clean_linker_0, # of connection points: 2
#     Edge 37, Type (0, 0), BuildingBlock: MIFKUJ_clean_linker_0, # of connection points: 2
#     Edge 38, Type (0, 0), BuildingBlock: MIFKUJ_clean_linker_0, # of connection points: 2
#     Edge 39, Type (0, 0), BuildingBlock: MIFKUJ_clean_linker_0, # of connection points: 2
#     Edge 40, Type (0, 0), BuildingBlock: MIFKUJ_clean_linker_0, # of connection points: 2
#     Edge 41, Type (0, 0), BuildingBlock: MIFKUJ_clean_linker_0, # of connection points: 2
#     Edge 42, Type (0, 0), BuildingBlock: MIFKUJ_clean_linker_0, # of connection points: 2
#     Edge 43, Type (0, 0), BuildingBlock: MIFKUJ_clean_linker_0, # of connection points: 2
#     Edge 44, Type (0, 0), BuildingBlock: MIFKUJ_clean_linker_0, # of connection points: 2
#     Edge 45, Type (0, 0), BuildingBlock: MIFKUJ_clean_linker_0, # of connection points: 2
#     Edge 46, Type (0, 0), BuildingBlock: MIFKUJ_clean_linker_0, # of connection points: 2
#     Edge 47, Type (0, 0), BuildingBlock: MIFKUJ_clean_linker_0, # of connection points: 2
#     Edge 48, Type (0, 0), BuildingBlock: MIFKUJ_clean_linker_0, # of connection points: 2
#     Edge 49, Type (0, 0), BuildingBlock: MIFKUJ_clean_linker_0, # of connection points: 2
#     Edge 50, Type (0, 0), BuildingBlock: MIFKUJ_clean_linker_0, # of connection points: 2
#     Edge 51, Type (0, 0), BuildingBlock: MIFKUJ_clean_linker_0, # of connection points: 2
#     Edge 52, Type (0, 0), BuildingBlock: MIFKUJ_clean_linker_0, # of connection points: 2
#     Edge 53, Type (0, 0), BuildingBlock: MIFKUJ_clean_linker_0, # of connection points: 2
#     Edge 54, Type (0, 0), BuildingBlock: MIFKUJ_clean_linker_0, # of connection points: 2
#     Edge 55, Type (0, 0), BuildingBlock: MIFKUJ_clean_linker_0, # of connection points: 2
#     Edge 56, Type (0, 0), BuildingBlock: MIFKUJ_clean_linker_0, # of connection points: 2
#     Edge 57, Type (0, 0), BuildingBlock: MIFKUJ_clean_linker_0, # of connection points: 2
#     Edge 58, Type (0, 0), BuildingBlock: MIFKUJ_clean_linker_0, # of connection points: 2
#     Edge 59, Type (0, 0), BuildingBlock: MIFKUJ_clean_linker_0, # of connection points: 2
#     Edge 60, Type (0, 0), BuildingBlock: MIFKUJ_clean_linker_0, # of connection points: 2
#     Edge 61, Type (0, 0), BuildingBlock: MIFKUJ_clean_linker_0, # of connection points: 2
#     Edge 62, Type (0, 0), BuildingBlock: MIFKUJ_clean_linker_0, # of connection points: 2
#     Edge 63, Type (0, 0), BuildingBlock: MIFKUJ_clean_linker_0, # of connection points: 2
#     Edge 64, Type (0, 0), BuildingBlock: MIFKUJ_clean_linker_0, # of connection points: 2
#     Edge 65, Type (0, 0), BuildingBlock: MIFKUJ_clean_linker_0, # of connection points: 2
#     Edge 66, Type (0, 0), BuildingBlock: MIFKUJ_clean_linker_0, # of connection points: 2
#     Edge 67, Type (0, 0), BuildingBlock: MIFKUJ_clean_linker_0, # of connection points: 2
#     Edge 68, Type (0, 0), BuildingBlock: MIFKUJ_clean_linker_0, # of connection points: 2
#     Edge 69, Type (0, 0), BuildingBlock: MIFKUJ_clean_linker_0, # of connection points: 2
#     Edge 70, Type (0, 0), BuildingBlock: MIFKUJ_clean_linker_0, # of connection points: 2
#     Edge 71, Type (0, 0), BuildingBlock: MIFKUJ_clean_linker_0, # of connection points: 2
#     Edge 72, Type (0, 0), BuildingBlock: MIFKUJ_clean_linker_0, # of connection points: 2
#     Edge 73, Type (0, 0), BuildingBlock: MIFKUJ_clean_linker_0, # of connection points: 2
#     Edge 74, Type (0, 0), BuildingBlock: MIFKUJ_clean_linker_0, # of connection points: 2
#     Edge 75, Type (0, 0), BuildingBlock: MIFKUJ_clean_linker_0, # of connection points: 2
#     Edge 76, Type (0, 0), BuildingBlock: MIFKUJ_clean_linker_0, # of connection points: 2
#     Edge 77, Type (0, 0), BuildingBlock: MIFKUJ_clean_linker_0, # of connection points: 2
#     Edge 78, Type (0, 0), BuildingBlock: MIFKUJ_clean_linker_0, # of connection points: 2
#     Edge 79, Type (0, 0), BuildingBlock: MIFKUJ_clean_linker_0, # of connection points: 2
#     Edge 80, Type (0, 0), BuildingBlock: MIFKUJ_clean_linker_0, # of connection points: 2
#     Edge 81, Type (0, 0), BuildingBlock: MIFKUJ_clean_linker_0, # of connection points: 2
#     Edge 82, Type (0, 0), BuildingBlock: MIFKUJ_clean_linker_0, # of connection points: 2
#     Edge 83, Type (0, 0), BuildingBlock: MIFKUJ_clean_linker_0, # of connection points: 2
#     Edge 84, Type (0, 0), BuildingBlock: MIFKUJ_clean_linker_0, # of connection points: 2
#     Edge 85, Type (0, 0), BuildingBlock: MIFKUJ_clean_linker_0, # of connection points: 2
#     Edge 86, Type (0, 0), BuildingBlock: MIFKUJ_clean_linker_0, # of connection points: 2
#     Edge 87, Type (0, 0), BuildingBlock: MIFKUJ_clean_linker_0, # of connection points: 2
#     Edge 88, Type (0, 0), BuildingBlock: MIFKUJ_clean_linker_0, # of connection points: 2
#     Edge 89, Type (0, 0), BuildingBlock: MIFKUJ_clean_linker_0, # of connection points: 2
#     Edge 90, Type (0, 0), BuildingBlock: MIFKUJ_clean_linker_0, # of connection points: 2
#     Edge 91, Type (0, 0), BuildingBlock: MIFKUJ_clean_linker_0, # of connection points: 2
#     Edge 92, Type (0, 0), BuildingBlock: MIFKUJ_clean_linker_0, # of connection points: 2
#     Edge 93, Type (0, 0), BuildingBlock: MIFKUJ_clean_linker_0, # of connection points: 2
#     Edge 94, Type (0, 0), BuildingBlock: MIFKUJ_clean_linker_0, # of connection points: 2
#     Edge 95, Type (0, 0), BuildingBlock: MIFKUJ_clean_linker_0, # of connection points: 2
# Relax obj value: 0.098
# Max RMSD: 0.122
# Mean RMSD: 0.122
data_MOF--net-ukm--node1-GALJAG_clean_sbu_0--edge1-MIFKUJ_clean_linker_0
_symmetry_space_group_name_H-M    P1
_symmetry_Int_Tables_number       1
_symmetry_cell_setting            triclinic
loop_
_symmetry_equiv_pos_as_xyz
'x, y, z'
_cell_length_a     32.515198
_cell_length_b     132.62594
_cell_length_c     58.128421
_cell_angle_alpha  90.00454
_cell_angle_beta   90.016167
_cell_angle_gamma 89.985949
loop_
_atom_site_label
_atom_site_type_symbol
_atom_site_fract_x
_atom_site_fract_y
_atom_site_fract_z
_atom_type_partial_charge
In0 In 0.09322 0.31825 0.28362 0.0
O1 O 0.03871 0.32646 0.30067 0.0
O2 O 0.09563 0.33418 0.29736 0.0
C3 C 0.04753 0.3013 0.27886 0.0
C4 C 0.16365 0.31464 0.30692 0.0
C5 C 0.11176 0.32351 0.24012 0.0
O6 O 0.0459 0.30858 0.26504 0.0
O7 O 0.07102 0.30269 0.29582 0.0
O8 O 0.12929 0.31635 0.25048 0.0
O9 O 0.08508 0.32815 0.25182 0.0
C10 C 0.05882 0.33446 0.30411 0.0
O11 O 0.162 0.31528 0.2853 0.0
O12 O 0.12948 0.31567 0.31697 0.0
In13 In 0.15171 0.92905 0.28738 0.0
O14 O 0.08193 0.92986 0.28905 0.0
O15 O 0.11363 0.9274 0.32045 0.0
C16 C 0.1488 0.92504 0.24213 0.0
C17 C 0.19506 0.9134 0.30455 0.0
C18 C 0.17816 0.94843 0.28728 0.0
O19 O 0.11911 0.92327 0.25551 0.0
O20 O 0.18048 0.92862 0.25168 0.0
O21 O 0.20179 0.94116 0.29187 0.0
O22 O 0.14138 0.94594 0.28376 0.0
C23 C 0.07948 0.92847 0.31043 0.0
O24 O 0.1934 0.92183 0.31463 0.0
O25 O 0.17512 0.91294 0.28599 0.0
In26 In 0.09177 0.93768 0.95384 0.0
O27 O 0.05391 0.92969 0.92602 0.0
O28 O 0.07128 0.92136 0.95568 0.0
C29 C 0.05729 0.95623 0.95417 0.0
C30 C 0.1628 0.93828 0.93 0.0
C31 C 0.10059 0.93363 -0.00111 0.0
O32 O 0.03619 0.94827 0.95397 0.0
O33 O 0.09551 0.95483 0.95315 0.0
O34 O 0.12955 0.93257 0.98465 0.0
O35 O 0.0671 0.93667 0.99038 0.0
C36 C 0.05299 0.92138 0.93659 0.0
O37 O 0.16099 0.93974 0.95142 0.0
O38 O 0.12859 0.93662 0.92045 0.0
In39 In 0.13598 0.31097 0.95325 0.0
O40 O 0.06586 0.30988 0.95331 0.0
O41 O 0.09575 0.31176 0.92113 0.0
C42 C 0.13601 0.3167 0.99767 0.0
C43 C 0.1802 0.32523 0.93129 0.0
C44 C 0.16439 0.29186 0.95531 0.0
O45 O 0.10933 0.31976 0.98352 0.0
O46 O 0.16258 0.31081 0.98937 0.0
O47 O 0.18771 0.29935 0.95244 0.0
O48 O 0.12663 0.29397 0.95625 0.0
C49 C 0.06222 0.31085 0.93183 0.0
O50 O 0.17586 0.31645 0.92333 0.0
O51 O 0.16274 0.32674 0.95033 0.0
In52 In 0.89646 0.68535 0.70654 0.0
O53 O 0.82731 0.6831 0.70386 0.0
O54 O 0.85984 0.6863 0.673 0.0
C55 C 0.89103 0.68365 0.75259 0.0
C56 C 0.93195 0.66856 0.68977 0.0
C57 C 0.93319 0.70362 0.70502 0.0
O58 O 0.86215 0.6871 0.74042 0.0
O59 O 0.92257 0.68099 0.74151 0.0
O60 O 0.95324 0.69551 0.7062 0.0
O61 O 0.89483 0.70249 0.70356 0.0
C62 C 0.82569 0.68441 0.6824 0.0
O63 O 0.93853 0.67715 0.68113 0.0
O64 O 0.9079 0.66853 0.70678 0.0
In65 In 0.87582 0.06346 0.7136 0.0
O66 O 0.84313 0.06934 0.68148 0.0
O67 O 0.84973 0.0793 0.70981 0.0
C68 C 0.84107 0.04514 0.71881 0.0
C69 C 0.94897 0.06277 0.69181 0.0
C70 C 0.87994 0.06797 0.75859 0.0
O71 O 0.82146 0.05258 0.71091 0.0
O72 O 0.8783 0.04688 0.72328 0.0
O73 O 0.91142 0.06603 0.74669 0.0
O74 O 0.84638 0.06783 0.74766 0.0
C75 C 0.83672 0.07801 0.68961 0.0
O76 O 0.94166 0.06875 0.70818 0.0
O77 O 0.91919 0.05718 0.68621 0.0
In78 In 0.88807 0.0674 0.05087 0.0
O79 O 0.81856 0.06909 0.05234 0.0
O80 O 0.84981 0.06606 0.08373 0.0
C81 C 0.88818 0.0692 0.00482 0.0
C82 C 0.92841 0.08378 0.06684 0.0
C83 C 0.91679 0.04834 0.05175 0.0
O84 O 0.8563 0.07069 0.01676 0.0
O85 O 0.91999 0.06699 0.01616 0.0
O86 O 0.94004 0.0559 0.05387 0.0
O87 O 0.87905 0.05041 0.05048 0.0
C88 C 0.81587 0.06755 0.0737 0.0
O89 O 0.92938 0.07542 0.0772 0.0
O90 O 0.90684 0.08386 0.04886 0.0
In91 In 0.86951 0.68346 0.04476 0.0
O92 O 0.93947 0.68327 0.04465 0.0
O93 O 0.90958 0.6837 0.07712 0.0
C94 C 0.86915 0.68102 -0.00114 0.0
C95 C 0.82955 0.66729 0.06211 0.0
C96 C 0.84007 0.70248 0.04598 0.0
O97 O 0.8991 0.67831 0.01125 0.0
O98 O 0.83908 0.6847 0.00971 0.0
O99 O 0.81721 0.69489 0.04867 0.0
O100 O 0.87776 0.70046 0.04399 0.0
C101 C 0.94315 0.68351 0.06623 0.0
O102 O 0.8311 0.67562 0.07257 0.0
O103 O 0.84786 0.66717 0.04303 0.0
In104 In 0.10875 0.81688 0.79352 0.0
O105 O 0.06914 0.82221 0.82364 0.0
O106 O 0.08717 0.83302 0.7986 0.0
C107 C 0.0827 0.79762 0.78966 0.0
C108 C 0.18224 0.8166 0.81501 0.0
C109 C 0.10502 0.82236 0.74901 0.0
O110 O 0.05849 0.80485 0.79354 0.0
O111 O 0.1201 0.80005 0.78876 0.0
O112 O 0.1371 0.8235 0.76098 0.0
O113 O 0.07474 0.81869 0.75967 0.0
C114 C 0.06806 0.83127 0.81704 0.0
O115 O 0.17881 0.81724 0.79344 0.0
O116 O 0.14861 0.81606 0.82576 0.0
In117 In 0.14858 0.43124 0.78928 0.0
O118 O 0.18885 0.42347 0.81646 0.0
O119 O 0.16181 0.41447 0.79031 0.0
C120 C 0.18309 0.4497 0.78547 0.0
C121 C 0.08 0.43273 0.81507 0.0
C122 C 0.14073 0.42733 0.74411 0.0
O123 O 0.20436 0.44179 0.78735 0.0
O124 O 0.14486 0.4483 0.78641 0.0
O125 O 0.11016 0.42899 0.75695 0.0
O126 O 0.17518 0.42759 0.7541 0.0
C127 C 0.1842 0.41479 0.80797 0.0
O128 O 0.07936 0.43028 0.7941 0.0
O129 O 0.11543 0.43433 0.8232 0.0
In130 In 0.10963 0.43214 0.45546 0.0
O131 O 0.17951 0.43315 0.45396 0.0
O132 O 0.14799 0.43112 0.42237 0.0
C133 C 0.1077 0.42612 0.49974 0.0
C134 C 0.06242 0.41831 0.43405 0.0
C135 C 0.08686 0.45169 0.45855 0.0
O136 O 0.13703 0.424 0.48639 0.0
O137 O 0.07891 0.43108 0.49061 0.0
O138 O 0.06262 0.44487 0.45184 0.0
O139 O 0.12273 0.44868 0.46298 0.0
C140 C 0.18208 0.4321 0.43248 0.0
O141 O 0.06133 0.42755 0.42883 0.0
O142 O 0.08745 0.4161 0.44986 0.0
In143 In 0.13874 0.81524 0.45931 0.0
O144 O 0.18228 0.81929 0.42991 0.0
O145 O 0.16661 0.8308 0.45376 0.0
C146 C 0.16921 0.79646 0.46543 0.0
C147 C 0.06891 0.8172 0.43452 0.0
C148 C 0.12736 0.81966 0.50406 0.0
O149 O 0.19118 0.80426 0.46657 0.0
O150 O 0.13206 0.79809 0.46051 0.0
O151 O 0.10034 0.81533 0.49201 0.0
O152 O 0.16003 0.82187 0.49347 0.0
C153 C 0.18629 0.82838 0.43591 0.0
O154 O 0.0742 0.82149 0.45365 0.0
O155 O 0.09887 0.8119 0.42782 0.0
In156 In 0.88964 0.1826 0.21105 0.0
O157 O 0.93048 0.17988 0.17938 0.0
O158 O 0.92827 0.16855 0.20503 0.0
C159 C 0.92055 0.20129 0.21866 0.0
C160 C 0.81465 0.182 0.19085 0.0
C161 C 0.87682 0.17523 0.25359 0.0
O162 O 0.90587 0.19872 0.19945 0.0
O163 O 0.92057 0.19441 0.23352 0.0
O164 O 0.84771 0.17815 0.24085 0.0
O165 O 0.9121 0.17585 0.24466 0.0
C166 C 0.94249 0.1713 0.1859 0.0
O167 O 0.83952 0.17471 0.19011 0.0
O168 O 0.82756 0.18959 0.20178 0.0
In169 In 0.85612 0.5633 0.20878 0.0
O170 O 0.92626 0.56268 0.20688 0.0
O171 O 0.89295 0.56065 0.17587 0.0
C172 C 0.85473 0.56993 0.25244 0.0
C173 C 0.81754 0.57828 0.18594 0.0
C174 C 0.82593 0.54453 0.2149 0.0
O175 O 0.88622 0.57067 0.23983 0.0
O176 O 0.82371 0.56603 0.24284 0.0
O177 O 0.80557 0.55139 0.20505 0.0
O178 O 0.86157 0.54709 0.22108 0.0
C179 C 0.92761 0.56116 0.1855 0.0
O180 O 0.8144 0.56916 0.18 0.0
O181 O 0.83967 0.57978 0.2034 0.0
In182 In 0.88964 0.56491 0.53995 0.0
O183 O 0.92249 0.57994 0.54463 0.0
O184 O 0.91882 0.57023 0.57355 0.0
C185 C 0.92262 0.54648 0.53231 0.0
C186 C 0.81753 0.5648 0.56282 0.0
C187 C 0.88097 0.571 0.49612 0.0
O188 O 0.9435 0.55373 0.54008 0.0
O189 O 0.88523 0.54847 0.52906 0.0
O190 O 0.85124 0.56788 0.50811 0.0
O191 O 0.91524 0.57116 0.50634 0.0
C192 C 0.9306 0.57858 0.56559 0.0
O193 O 0.8245 0.57058 0.54605 0.0
O194 O 0.847 0.55906 0.56816 0.0
In195 In 0.8591 0.18334 0.54219 0.0
O196 O 0.82095 0.17603 0.57092 0.0
O197 O 0.84408 0.1667 0.5442 0.0
C198 C 0.82676 0.202 0.53885 0.0
C199 C 0.93054 0.1843 0.56566 0.0
C200 C 0.85759 0.17898 0.49706 0.0
O201 O 0.80538 0.1944 0.54401 0.0
O202 O 0.86459 0.20025 0.53637 0.0
O203 O 0.89079 0.17967 0.50826 0.0
O204 O 0.82536 0.18047 0.50867 0.0
C205 C 0.82382 0.16727 0.5626 0.0
O206 O 0.92863 0.18162 0.54486 0.0
O207 O 0.89642 0.1866 0.57459 0.0
In208 In 0.60811 0.31629 0.78525 0.0
O209 O 0.67718 0.31817 0.78954 0.0
O210 O 0.64351 0.3126 0.81818 0.0
C211 C 0.61052 0.31967 0.73966 0.0
C212 C 0.57356 0.33255 0.80535 0.0
C213 C 0.57512 0.29767 0.78277 0.0
O214 O 0.64255 0.31856 0.75165 0.0
O215 O 0.57721 0.3193 0.75077 0.0
O216 O 0.55372 0.30539 0.787 0.0
O217 O 0.61308 0.29932 0.78063 0.0
C218 C 0.67803 0.31512 0.81008 0.0
O219 O 0.5663 0.32368 0.81205 0.0
O220 O 0.59746 0.33316 0.78835 0.0
In221 In 0.62134 0.93333 0.78799 0.0
O222 O 0.55299 0.92995 0.79132 0.0
O223 O 0.582 0.93759 0.81904 0.0
C224 C 0.62208 0.92994 0.7424 0.0
C225 C 0.65827 0.9176 0.80904 0.0
C226 C 0.65267 0.95212 0.78595 0.0
O227 O 0.58924 0.93101 0.7537 0.0
O228 O 0.65465 0.9304 0.75419 0.0
O229 O 0.67394 0.94462 0.79203 0.0
O230 O 0.61557 0.95016 0.78158 0.0
C231 C 0.54928 0.93393 0.8109 0.0
O232 O 0.66093 0.92649 0.81656 0.0
O233 O 0.63739 0.91669 0.7909 0.0
In234 In 0.6203 0.93325 0.45112 0.0
O235 O 0.68344 0.92624 0.44546 0.0
O236 O 0.66293 0.93722 0.42136 0.0
C237 C 0.62255 0.92869 0.49615 0.0
C238 C 0.57337 0.92037 0.42675 0.0
C239 C 0.59671 0.95254 0.45752 0.0
O240 O 0.65469 0.93044 0.48464 0.0
O241 O 0.58953 0.92898 0.48478 0.0
O242 O 0.57145 0.94552 0.45377 0.0
O243 O 0.63395 0.94992 0.45695 0.0
C244 C 0.69098 0.93119 0.4274 0.0
O245 O 0.5793 0.92936 0.42049 0.0
O246 O 0.59061 0.91796 0.44537 0.0
In247 In 0.62444 0.3114 0.44764 0.0
O248 O 0.55578 0.31444 0.44491 0.0
O249 O 0.58629 0.30925 0.41486 0.0
C250 C 0.62216 0.31345 0.49365 0.0
C251 C 0.66529 0.32775 0.43194 0.0
C252 C 0.65598 0.29257 0.44728 0.0
O253 O 0.59004 0.31344 0.48145 0.0
O254 O 0.65533 0.31246 0.48262 0.0
O255 O 0.6776 0.3003 0.44371 0.0
O256 O 0.61819 0.29431 0.44996 0.0
C257 C 0.55288 0.31196 0.42404 0.0
O258 O 0.66462 0.31954 0.42099 0.0
O259 O 0.64487 0.32772 0.45032 0.0
In260 In 0.41071 0.68681 0.19997 0.0
O261 O 0.34069 0.68617 0.19984 0.0
O262 O 0.37073 0.68796 0.1677 0.0
C263 C 0.41086 0.68331 0.24561 0.0
C264 C 0.45101 0.67135 0.17964 0.0
C265 C 0.4391 0.70589 0.2002 0.0
O266 O 0.38349 0.67983 0.23241 0.0
O267 O 0.43873 0.6883 0.23571 0.0
O268 O 0.46232 0.69841 0.19676 0.0
O269 O 0.40156 0.70374 0.20264 0.0
C270 C 0.33715 0.68705 0.17834 0.0
O271 O 0.45044 0.68011 0.17123 0.0
O272 O 0.43253 0.67051 0.19857 0.0
In273 In 0.36131 0.06486 0.21933 0.0
O274 O 0.43063 0.06446 0.21587 0.0
O275 O 0.39566 0.06191 0.18549 0.0
C276 C 0.36032 0.0712 0.26337 0.0
C277 C 0.32428 0.08078 0.19919 0.0
C278 C 0.33518 0.04561 0.22368 0.0
O279 O 0.39293 0.07047 0.25179 0.0
O280 O 0.328 0.06887 0.25264 0.0
O281 O 0.31625 0.05195 0.21139 0.0
O282 O 0.36736 0.04893 0.23303 0.0
C283 C 0.43087 0.06273 0.19454 0.0
O284 O 0.30569 0.07252 0.20212 0.0
O285 O 0.361 0.08087 0.20612 0.0
In286 In 0.40559 0.06279 0.55104 0.0
O287 O 0.33916 0.05811 0.55615 0.0
O288 O 0.37338 0.06216 0.58598 0.0
C289 C 0.39435 0.06767 0.50639 0.0
C290 C 0.43528 0.07987 0.56979 0.0
C291 C 0.44638 0.04504 0.54911 0.0
O292 O 0.36504 0.06677 0.52039 0.0
O293 O 0.42944 0.06611 0.51488 0.0
O294 O 0.46475 0.05341 0.54948 0.0
O295 O 0.40783 0.04565 0.55046 0.0
C296 C 0.3393 0.05938 0.57766 0.0
O297 O 0.45179 0.0714 0.57351 0.0
O298 O 0.40436 0.07964 0.55672 0.0
In299 In 0.36976 0.68283 0.53705 0.0
O300 O 0.43784 0.67885 0.53994 0.0
O301 O 0.40925 0.68552 0.56902 0.0
C302 C 0.38114 0.68076 0.49144 0.0
C303 C 0.32911 0.66761 0.55771 0.0
C304 C 0.32933 0.70062 0.53546 0.0
O305 O 0.40189 0.68679 0.50356 0.0
O306 O 0.35482 0.67567 0.50238 0.0
O307 O 0.31199 0.69232 0.53127 0.0
O308 O 0.36658 0.69991 0.54121 0.0
C309 C 0.4417 0.68198 0.5603 0.0
O310 O 0.32744 0.67657 0.56498 0.0
O311 O 0.35095 0.66638 0.54 0.0
In312 In 0.61676 0.81807 0.28536 0.0
O313 O 0.57197 0.8259 0.30997 0.0
O314 O 0.59501 0.83429 0.28168 0.0
C315 C 0.59194 0.7987 0.2883 0.0
C316 C 0.68779 0.81952 0.30934 0.0
C317 C 0.61815 0.81918 0.23915 0.0
O318 O 0.56751 0.80599 0.29099 0.0
O319 O 0.62895 0.8012 0.28547 0.0
O320 O 0.64794 0.82205 0.25147 0.0
O321 O 0.58722 0.81609 0.2502 0.0
C322 C 0.57239 0.83418 0.29928 0.0
O323 O 0.6865 0.81916 0.28768 0.0
O324 O 0.65313 0.81917 0.31906 0.0
In325 In 0.64635 0.42943 0.29531 0.0
O326 O 0.58241 0.42305 0.30223 0.0
O327 O 0.6033 0.43484 0.32395 0.0
C328 C 0.64237 0.4231 0.25149 0.0
C329 C 0.69494 0.41662 0.31934 0.0
C330 C 0.66963 0.44858 0.28639 0.0
O331 O 0.61087 0.42409 0.264 0.0
O332 O 0.67608 0.42516 0.26123 0.0
O333 O 0.69262 0.44244 0.29682 0.0
O334 O 0.63482 0.44515 0.28107 0.0
C335 C 0.57466 0.42882 0.31889 0.0
O336 O 0.68459 0.42515 0.32698 0.0
O337 O 0.68098 0.41461 0.29967 0.0
In338 In 0.63651 0.43506 0.96697 0.0
O339 O 0.58563 0.42663 0.94736 0.0
O340 O 0.64473 0.41987 0.95004 0.0
C341 C 0.60113 0.45324 0.97392 0.0
C342 C 0.70588 0.43985 0.9441 0.0
C343 C 0.63488 0.42662 0.00905 0.0
O344 O 0.59 0.44746 0.95782 0.0
O345 O 0.6302 0.44991 0.98605 0.0
O346 O 0.66796 0.42892 -0.001 0.0
O347 O 0.60262 0.4285 0.99776 0.0
C348 C 0.60848 0.41922 0.94252 0.0
O349 O 0.70571 0.4375 0.96512 0.0
O350 O 0.67085 0.4401 0.93475 0.0
In351 In 0.64949 0.81022 0.94737 0.0
O352 O 0.58306 0.81564 0.94646 0.0
O353 O 0.60566 0.80763 0.91738 0.0
C354 C 0.64605 0.81073 0.99365 0.0
C355 C 0.68671 0.82627 0.92793 0.0
C356 C 0.68372 0.79174 0.94462 0.0
O357 O 0.61565 0.80832 0.98132 0.0
O358 O 0.67804 0.81312 0.98261 0.0
O359 O 0.70496 0.79969 0.94439 0.0
O360 O 0.64545 0.79317 0.94505 0.0
C361 C 0.57576 0.81212 0.92671 0.0
O362 O 0.68216 0.81801 0.9175 0.0
O363 O 0.67339 0.82636 0.94829 0.0
In364 In 0.37867 0.18263 0.71873 0.0
O365 O 0.42723 0.17609 0.69447 0.0
O366 O 0.39101 0.16592 0.71414 0.0
C367 C 0.40628 0.20181 0.71974 0.0
C368 C 0.30868 0.1835 0.69376 0.0
C369 C 0.37942 0.17804 0.76393 0.0
O370 O 0.42928 0.19445 0.7149 0.0
O371 O 0.36925 0.19952 0.72341 0.0
O372 O 0.34858 0.17645 0.75126 0.0
O373 O 0.40996 0.18182 0.75374 0.0
C374 C 0.41919 0.16704 0.69947 0.0
O375 O 0.30896 0.18366 0.71545 0.0
O376 O 0.34378 0.18299 0.68458 0.0
In377 In 0.3506 0.56271 0.69683 0.0
O378 O 0.31422 0.56953 0.66692 0.0
O379 O 0.32003 0.57814 0.69752 0.0
C380 C 0.32175 0.54364 0.69509 0.0
C381 C 0.42505 0.56315 0.67633 0.0
C382 C 0.35353 0.56661 0.74224 0.0
O383 O 0.29832 0.55122 0.69529 0.0
O384 O 0.35954 0.54571 0.6947 0.0
O385 O 0.37823 0.57058 0.72814 0.0
O386 O 0.32718 0.56082 0.73336 0.0
C387 C 0.30635 0.57766 0.67728 0.0
O388 O 0.4205 0.56132 0.69746 0.0
O389 O 0.39206 0.56474 0.66551 0.0
In390 In 0.37039 0.56604 0.03091 0.0
O391 O 0.30127 0.56502 0.03536 0.0
O392 O 0.33837 0.56056 0.06371 0.0
C393 C 0.36578 0.57231 0.98696 0.0
C394 C 0.4001 0.58262 0.05206 0.0
C395 C 0.4068 0.54786 0.02559 0.0
O396 O 0.33532 0.56887 0.99784 0.0
O397 O 0.39859 0.5729 0.9985 0.0
O398 O 0.3774 0.5509 0.01338 0.0
O399 O 0.41796 0.55394 0.0411 0.0
C400 C 0.30257 0.56179 0.05574 0.0
O401 O 0.42325 0.57544 0.04601 0.0
O402 O 0.36259 0.58139 0.04738 0.0
In403 In 0.34933 0.18071 0.05459 0.0
O404 O 0.4117 0.17399 0.06376 0.0
O405 O 0.39074 0.18638 0.08373 0.0
C406 C 0.35907 0.17655 0.00949 0.0
C407 C 0.30381 0.1668 0.07691 0.0
C408 C 0.31673 0.1992 0.04806 0.0
O409 O 0.38757 0.18017 0.02167 0.0
O410 O 0.32601 0.17489 0.02014 0.0
O411 O 0.29482 0.19145 0.05088 0.0
O412 O 0.35491 0.19767 0.04949 0.0
C413 C 0.41888 0.18002 0.08005 0.0
O414 O 0.3045 0.17593 0.08312 0.0
O415 O 0.32596 0.1648 0.05971 0.0
H416 H 0.06515 0.39805 0.44058 0.0
H417 H 0.03486 0.38506 0.4164 0.0
H418 H 0.97443 0.40788 0.37566 0.0
H419 H 0.00593 0.42103 0.39956 0.0
H420 H 0.96225 0.37811 0.40126 0.0
H421 H 0.98243 0.4007 0.32028 0.0
H422 H 0.01658 0.41609 0.30577 0.0
H423 H 0.11595 0.41162 0.35341 0.0
H424 H 0.08251 0.39618 0.36799 0.0
H425 H 0.97784 0.33864 0.31443 0.0
H426 H 0.95085 0.35403 0.33276 0.0
H427 H 0.07441 0.36577 0.33746 0.0
H428 H 0.10091 0.35078 0.31878 0.0
H429 H 0.02433 0.38 0.32348 0.0
H430 H 0.01971 0.35286 0.38217 0.0
H431 H 0.99157 0.33707 0.39818 0.0
H432 H 0.87009 0.3498 0.39764 0.0
H433 H 0.89757 0.36564 0.38156 0.0
C434 C 0.04488 0.40032 0.42672 0.0
C435 C 0.03863 0.41055 0.42163 0.0
C436 C 0.02718 0.39287 0.41303 0.0
C437 C 0.00276 0.39549 0.39403 0.0
C438 C 0.99358 0.40569 0.39007 0.0
C439 C 0.01169 0.41319 0.40368 0.0
C440 C 0.99332 0.3876 0.37672 0.0
C441 C 0.97499 0.37857 0.38404 0.0
C442 C 0.00922 0.38823 0.35412 0.0
C443 C 0.02979 0.3974 0.34534 0.0
C444 C 0.0116 0.40302 0.32759 0.0
C445 C 0.03081 0.41173 0.31937 0.0
C446 C 0.06834 0.41485 0.32872 0.0
C447 C 0.08684 0.40922 0.34622 0.0
C448 C 0.06779 0.40049 0.35446 0.0
C449 C 0.99903 0.34456 0.31934 0.0
C450 C 0.04147 0.34352 0.31521 0.0
C451 C 0.9836 0.35332 0.32978 0.0
C452 C 0.0106 0.36107 0.33647 0.0
C453 C 0.05286 0.35997 0.33222 0.0
C454 C 0.06807 0.35135 0.32165 0.0
C455 C 0.99651 0.37025 0.34873 0.0
C456 C 0.00984 0.37961 0.34027 0.0
C457 C 0.97674 0.36984 0.37041 0.0
C458 C 0.96052 0.36033 0.38016 0.0
C459 C 0.98696 0.35224 0.38526 0.0
C460 C 0.97115 0.3433 0.39442 0.0
C461 C 0.92903 0.3424 0.39878 0.0
C462 C 0.90267 0.35048 0.39413 0.0
C463 C 0.91834 0.35943 0.38497 0.0
H464 H 0.91686 0.33548 0.40587 0.0
H465 H 0.08313 0.42161 0.32236 0.0
H466 H 0.22631 0.91116 0.34793 0.0
H467 H 0.24822 0.89542 0.36611 0.0
H468 H 0.23184 0.87972 0.30172 0.0
H469 H 0.20909 0.89538 0.28364 0.0
H470 H 0.18849 0.87119 0.33334 0.0
H471 H 0.32736 0.88075 0.3277 0.0
H472 H 0.38867 0.89162 0.33002 0.0
H473 H 0.37502 0.89357 0.40332 0.0
H474 H 0.31333 0.88279 0.40146 0.0
H475 H 0.21775 0.8259 0.39275 0.0
H476 H 0.24276 0.83918 0.36708 0.0
H477 H 0.23019 0.86097 0.4217 0.0
H478 H 0.20495 0.84776 0.44742 0.0
H479 H 0.29957 0.86452 0.38987 0.0
H480 H 0.15103 0.85782 0.39125 0.0
H481 H 0.09154 0.84637 0.38791 0.0
H482 H 0.1285 0.83844 0.31933 0.0
H483 H 0.18864 0.84973 0.32246 0.0
C484 C 0.22834 0.9044 0.33754 0.0
C485 C 0.21539 0.90445 0.31449 0.0
C486 C 0.2412 0.89542 0.34789 0.0
C487 C 0.24172 0.88637 0.33528 0.0
C488 C 0.23159 0.88659 0.31181 0.0
C489 C 0.21849 0.89554 0.30152 0.0
C490 C 0.24594 0.87657 0.34736 0.0
C491 C 0.21355 0.86964 0.34515 0.0
C492 C 0.27824 0.87454 0.36306 0.0
C493 C 0.3153 0.88106 0.36439 0.0
C494 C 0.33711 0.88359 0.3443 0.0
C495 C 0.372 0.88972 0.34553 0.0
C496 C 0.38545 0.89337 0.36677 0.0
C497 C 0.36439 0.89078 0.38686 0.0
C498 C 0.3295 0.88464 0.38573 0.0
C499 C 0.22137 0.83346 0.39947 0.0
C500 C 0.20873 0.83585 0.42193 0.0
C501 C 0.23584 0.84102 0.38482 0.0
C502 C 0.23801 0.85104 0.39251 0.0
C503 C 0.22889 0.85326 0.41552 0.0
C504 C 0.21411 0.84573 0.43011 0.0
C505 C 0.24207 0.85938 0.37583 0.0
C506 C 0.27551 0.86603 0.37742 0.0
C507 C 0.21111 0.86112 0.35924 0.0
C508 C 0.17452 0.85451 0.35719 0.0
C509 C 0.14659 0.85358 0.37553 0.0
C510 C 0.11277 0.84713 0.37367 0.0
C511 C 0.10631 0.84165 0.35344 0.0
C512 C 0.13359 0.84266 0.335 0.0
C513 C 0.16755 0.84908 0.33681 0.0
H514 H 0.08012 0.83666 0.35204 0.0
H515 H 0.41233 0.89816 0.36767 0.0
H516 H 0.03455 0.904 0.95907 0.0
H517 H 0.01731 0.88773 0.94188 0.0
H518 H 0.01677 0.90139 0.87451 0.0
H519 H 0.03277 0.91778 0.89173 0.0
H520 H 0.96012 0.88624 0.87728 0.0
H521 H 0.104 0.89112 0.89576 0.0
H522 H 0.16221 0.89494 0.92155 0.0
H523 H 0.12965 0.86985 0.96452 0.0
H524 H 0.07086 0.86597 0.93913 0.0
H525 H 0.05025 0.85031 0.80291 0.0
H526 H 0.0277 0.86445 0.82672 0.0
H527 H 0.02135 0.84483 0.8858 0.0
H528 H 0.04358 0.83058 0.86193 0.0
H529 H 0.07171 0.8615 0.89186 0.0
H530 H 0.93406 0.85504 0.86862 0.0
H531 H 0.87895 0.85108 0.84092 0.0
H532 H 0.90253 0.87878 0.80505 0.0
H533 H 0.95781 0.88291 0.83253 0.0
C534 C 0.02983 0.90357 0.94064 0.0
C535 C 0.03563 0.91209 0.92665 0.0
C536 C 0.01996 0.89428 0.93086 0.0
C537 C 0.01666 0.89332 0.90689 0.0
C538 C 0.0193 0.90197 0.89305 0.0
C539 C 0.02861 0.91132 0.90288 0.0
C540 C 0.01587 0.88321 0.8961 0.0
C541 C 0.98446 0.88082 0.88044 0.0
C542 C 0.04727 0.87606 0.90057 0.0
C543 C 0.08278 0.87833 0.91573 0.0
C544 C 0.10911 0.88646 0.9108 0.0
C545 C 0.14221 0.88864 0.92533 0.0
C546 C 0.14954 0.88266 0.9447 0.0
C547 C 0.12386 0.87448 0.94954 0.0
C548 C 0.09066 0.87229 0.93509 0.0
C549 C 0.04323 0.84897 0.82086 0.0
C550 C 0.04894 0.83939 0.83065 0.0
C551 C 0.03008 0.85703 0.8344 0.0
C552 C 0.02268 0.85566 0.85797 0.0
C553 C 0.0267 0.846 0.8676 0.0
C554 C 0.03938 0.83789 0.85397 0.0
C555 C 0.01626 0.86456 0.87284 0.0
C556 C 0.04664 0.86678 0.88916 0.0
C557 C 0.98418 0.87154 0.8688 0.0
C558 C 0.95026 0.86925 0.85256 0.0
C559 C 0.92756 0.86028 0.85479 0.0
C560 C 0.89622 0.85801 0.83916 0.0
C561 C 0.8873 0.86466 0.82122 0.0
C562 C 0.90941 0.87365 0.81899 0.0
C563 C 0.94066 0.87597 0.83464 0.0
H564 H 0.86334 0.86283 0.80902 0.0
H565 H 0.17519 0.88435 0.95593 0.0
H566 H 0.21174 0.41218 0.852 0.0
H567 H 0.22945 0.39619 0.87055 0.0
H568 H 0.2135 0.38069 0.80583 0.0
H569 H 0.19424 0.39657 0.78753 0.0
H570 H 0.17004 0.37201 0.83651 0.0
H571 H 0.30997 0.38273 0.83392 0.0
H572 H 0.36929 0.39405 0.83944 0.0
H573 H 0.34869 0.39402 0.91239 0.0
H574 H 0.28895 0.38279 0.90731 0.0
H575 H 0.20643 0.32495 0.88667 0.0
H576 H 0.22648 0.33954 0.86342 0.0
H577 H 0.21788 0.35866 0.92326 0.0
H578 H 0.19789 0.34413 0.94659 0.0
H579 H 0.28178 0.36441 0.89201 0.0
H580 H 0.13605 0.35609 0.89293 0.0
H581 H 0.0776 0.34445 0.88784 0.0
H582 H 0.11094 0.34008 0.81705 0.0
H583 H 0.17005 0.35158 0.82187 0.0
C584 C 0.21283 0.40538 0.84168 0.0
C585 C 0.20119 0.40556 0.81843 0.0
C586 C 0.22324 0.39625 0.85225 0.0
C587 C 0.22299 0.38722 0.83957 0.0
C588 C 0.21376 0.38754 0.81599 0.0
C589 C 0.20273 0.39661 0.80555 0.0
C590 C 0.22689 0.37733 0.85137 0.0
C591 C 0.19515 0.37029 0.84816 0.0
C592 C 0.25901 0.37514 0.86708 0.0
C593 C 0.29473 0.38197 0.8702 0.0
C594 C 0.31785 0.38521 0.85112 0.0
C595 C 0.35163 0.39159 0.85418 0.0
C596 C 0.36268 0.39477 0.87625 0.0
C597 C 0.34006 0.39155 0.89531 0.0
C598 C 0.30629 0.38516 0.89235 0.0
C599 C 0.20989 0.33221 0.89498 0.0
C600 C 0.19996 0.33346 0.91832 0.0
C601 C 0.22141 0.34052 0.8817 0.0
C602 C 0.22317 0.35017 0.89162 0.0
C603 C 0.21673 0.35127 0.91533 0.0
C604 C 0.20501 0.34298 0.92858 0.0
C605 C 0.22515 0.35925 0.87693 0.0
C606 C 0.25749 0.36613 0.87983 0.0
C607 C 0.19368 0.36134 0.86085 0.0
C608 C 0.15771 0.35459 0.85783 0.0
C609 C 0.13107 0.35259 0.87633 0.0
C610 C 0.09782 0.34603 0.87349 0.0
C611 C 0.09063 0.3415 0.85215 0.0
C612 C 0.1166 0.34357 0.83359 0.0
C613 C 0.14998 0.35011 0.83636 0.0
H614 H 0.06489 0.33642 0.85 0.0
H615 H 0.3888 0.39972 0.87861 0.0
H616 H 0.96978 0.5957 0.5517 0.0
H617 H 0.9868 0.61037 0.57555 0.0
H618 H 0.94514 0.59448 0.63589 0.0
H619 H 0.92895 0.57971 0.61231 0.0
H620 H 0.90267 0.61364 0.62211 0.0
H621 H 0.03605 0.59939 0.63819 0.0
H622 H 0.1031 0.59201 0.62772 0.0
H623 H 0.1342 0.61884 0.59036 0.0
H624 H 0.06732 0.62637 0.60044 0.0
H625 H 0.923 0.64961 0.70664 0.0
H626 H 0.93899 0.63381 0.68714 0.0
H627 H 0.99258 0.65029 0.63066 0.0
H628 H 0.9767 0.66624 0.65018 0.0
H629 H 0.03334 0.63096 0.64196 0.0
H630 H 0.90215 0.64494 0.62272 0.0
H631 H 0.83529 0.6529 0.6311 0.0
H632 H 0.79906 0.627 0.67048 0.0
H633 H 0.86613 0.61895 0.66269 0.0
C634 C 0.96532 0.59525 0.57014 0.0
C635 C 0.94776 0.58662 0.58018 0.0
C636 C 0.97521 0.6036 0.58371 0.0
C637 C 0.96718 0.60345 0.60739 0.0
C638 C 0.95173 0.59466 0.61763 0.0
C639 C 0.94252 0.58625 0.60415 0.0
C640 C 0.96879 0.6129 0.62073 0.0
C641 C 0.93125 0.61734 0.62679 0.0
C642 C 0.0061 0.61788 0.62588 0.0
C643 C 0.04647 0.6134 0.61987 0.0
C644 C 0.05707 0.60369 0.62757 0.0
C645 C 0.09513 0.59949 0.62177 0.0
C646 C 0.12293 0.60495 0.60834 0.0
C647 C 0.11275 0.61463 0.60077 0.0
C648 C 0.07478 0.61888 0.60656 0.0
C649 C 0.93897 0.64989 0.6903 0.0
C650 C 0.94799 0.65915 0.67972 0.0
C651 C 0.94825 0.64086 0.67925 0.0
C652 C 0.96656 0.64092 0.65742 0.0
C653 C 0.97854 0.65011 0.64756 0.0
C654 C 0.96921 0.6592 0.65864 0.0
C655 C 0.9672 0.63154 0.64374 0.0
C656 C 0.00487 0.6272 0.63739 0.0
C657 C 0.92995 0.62668 0.63787 0.0
C658 C 0.88933 0.6314 0.64234 0.0
C659 C 0.88008 0.64098 0.63334 0.0
C660 C 0.84214 0.6455 0.63796 0.0
C661 C 0.81302 0.64047 0.65137 0.0
C662 C 0.82171 0.63089 0.66013 0.0
C663 C 0.85968 0.62634 0.65562 0.0
H664 H 0.78369 0.64399 0.65491 0.0
H665 H 0.15233 0.60168 0.60381 0.0
H666 H 0.81291 0.09654 0.70486 0.0
H667 H 0.79294 0.11105 0.6814 0.0
H668 H 0.80085 0.09276 0.6202 0.0
H669 H 0.82058 0.07819 0.64358 0.0
H670 H 0.85129 0.10969 0.62 0.0
H671 H 0.70999 0.10175 0.63497 0.0
H672 H 0.6497 0.09776 0.65904 0.0
H673 H 0.66172 0.12619 0.69372 0.0
H674 H 0.72236 0.13031 0.67004 0.0
H675 H 0.81372 0.14869 0.54397 0.0
H676 H 0.79898 0.13301 0.56431 0.0
H677 H 0.78491 0.14952 0.62778 0.0
H678 H 0.79875 0.16534 0.60732 0.0
H679 H 0.73224 0.133 0.62538 0.0
H680 H 0.87559 0.14021 0.61569 0.0
H681 H 0.93831 0.14469 0.59417 0.0
H682 H 0.92576 0.11797 0.55304 0.0
H683 H 0.86252 0.11342 0.5741 0.0
C684 C 0.80953 0.09556 0.68645 0.0
C685 C 0.81871 0.08628 0.67598 0.0
C686 C 0.79784 0.10383 0.67311 0.0
C687 C 0.79534 0.10295 0.64911 0.0
C688 C 0.80247 0.09356 0.63873 0.0
C689 C 0.81377 0.08526 0.65209 0.0
C690 C 0.79133 0.1121 0.63476 0.0
C691 C 0.82481 0.11466 0.62076 0.0
C692 C 0.75751 0.11876 0.63659 0.0
C693 C 0.721 0.1163 0.65086 0.0
C694 C 0.70002 0.10712 0.64786 0.0
C695 C 0.66571 0.10484 0.6614 0.0
C696 C 0.65201 0.1117 0.67796 0.0
C697 C 0.67243 0.12087 0.68092 0.0
C698 C 0.70672 0.1232 0.66741 0.0
C699 C 0.80664 0.14901 0.56217 0.0
C700 C 0.80803 0.15819 0.57419 0.0
C701 C 0.79816 0.14005 0.57374 0.0
C702 C 0.79167 0.1401 0.5976 0.0
C703 C 0.78994 0.14934 0.60936 0.0
C704 C 0.79801 0.15835 0.5977 0.0
C705 C 0.79201 0.13049 0.61049 0.0
C706 C 0.75828 0.12791 0.62436 0.0
C707 C 0.82596 0.12384 0.60896 0.0
C708 C 0.86407 0.12653 0.5963 0.0
C709 C 0.88601 0.13534 0.60193 0.0
C710 C 0.92169 0.13788 0.58984 0.0
C711 C 0.93597 0.13163 0.57222 0.0
C712 C 0.91463 0.12282 0.56668 0.0
C713 C 0.87887 0.12024 0.57868 0.0
H714 H 0.96363 0.13361 0.5629 0.0
H715 H 0.62554 0.10991 0.68848 0.0
H716 H 0.97918 0.1537 0.19847 0.0
H717 H 0.00257 0.14032 0.17276 0.0
H718 H 0.98173 0.15967 0.11428 0.0
H719 H 0.95849 0.17314 0.13997 0.0
H720 H 0.93222 0.14309 0.11542 0.0
H721 H 0.07429 0.1499 0.12126 0.0
H722 H 0.14157 0.1534 0.13907 0.0
H723 H 0.13915 0.12457 0.17255 0.0
H724 H 0.07146 0.12094 0.15531 0.0
H725 H 0.94011 0.10136 0.04383 0.0
H726 H 0.96557 0.11728 0.05939 0.0
H727 H 0.98805 0.10294 0.1248 0.0
H728 H 0.96336 0.08687 0.10912 0.0
H729 H 0.04607 0.11818 0.11467 0.0
H730 H 0.89851 0.11359 0.11674 0.0
H731 H 0.83057 0.10983 0.09992 0.0
H732 H 0.8439 0.13471 0.05322 0.0
H733 H 0.91222 0.13853 0.0696 0.0
C734 C 0.98093 0.15522 0.18018 0.0
C735 C 0.96627 0.16437 0.17115 0.0
C736 C 0.9947 0.1476 0.16552 0.0
C737 C 0.99378 0.14899 0.14161 0.0
C738 C 0.98283 0.15847 0.1327 0.0
C739 C 0.96942 0.16614 0.14739 0.0
C740 C 0.99434 0.14004 0.12639 0.0
C741 C 0.95769 0.13781 0.11473 0.0
C742 C 0.02702 0.13297 0.1262 0.0
C743 C 0.06737 0.1352 0.13715 0.0
C744 C 0.08775 0.14435 0.13267 0.0
C745 C 0.12606 0.14635 0.14262 0.0
C746 C 0.14446 0.13924 0.15705 0.0
C747 C 0.12471 0.13009 0.16147 0.0
C748 C 0.08637 0.12806 0.15158 0.0
C749 C 0.95119 0.10155 0.06141 0.0
C750 C 0.94904 0.09294 0.07544 0.0
C751 C 0.96593 0.11063 0.07022 0.0
C752 C 0.97811 0.11131 0.09332 0.0
C753 C 0.97882 0.10256 0.10691 0.0
C754 C 0.96441 0.09341 0.09801 0.0
C755 C 0.98394 0.12132 0.10409 0.0
C756 C 0.02129 0.12365 0.11501 0.0
C757 C 0.9518 0.12851 0.10396 0.0
C758 C 0.91064 0.12627 0.09418 0.0
C759 C 0.88707 0.11821 0.10276 0.0
C760 C 0.84849 0.11608 0.09333 0.0
C761 C 0.83299 0.12201 0.07546 0.0
C762 C 0.85599 0.13011 0.06703 0.0
C763 C 0.89464 0.13226 0.07638 0.0
H764 H 0.80311 0.12035 0.06818 0.0
H765 H 0.17407 0.14081 0.16477 0.0
H766 H 0.78577 0.5776 0.14245 0.0
H767 H 0.76783 0.59205 0.1181 0.0
H768 H 0.79228 0.61223 0.17465 0.0
H769 H 0.81047 0.59788 0.19898 0.0
H770 H 0.72374 0.61814 0.14576 0.0
H771 H 0.86771 0.60713 0.14075 0.0
H772 H 0.92032 0.59411 0.13334 0.0
H773 H 0.87325 0.58995 0.06497 0.0
H774 H 0.8199 0.60282 0.07214 0.0
H775 H 0.80461 0.66429 0.10641 0.0
H776 H 0.78305 0.64839 0.12384 0.0
H777 H 0.78956 0.63384 0.0575 0.0
H778 H 0.81252 0.64965 0.04018 0.0
H779 H 0.83082 0.62351 0.08622 0.0
H780 H 0.69615 0.63678 0.08743 0.0
H781 H 0.63985 0.6489 0.09392 0.0
H782 H 0.66372 0.64836 0.16656 0.0
H783 H 0.72055 0.63634 0.1605 0.0
C784 C 0.78636 0.5851 0.14982 0.0
C785 C 0.80003 0.58666 0.17248 0.0
C786 C 0.77605 0.59333 0.13592 0.0
C787 C 0.77904 0.60318 0.14459 0.0
C788 C 0.78967 0.60467 0.16771 0.0
C789 C 0.80035 0.59648 0.18152 0.0
C790 C 0.77707 0.61197 0.12902 0.0
C791 C 0.74701 0.61938 0.1327 0.0
C792 C 0.80675 0.61336 0.11155 0.0
C793 C 0.83954 0.60583 0.10707 0.0
C794 C 0.86844 0.60339 0.12419 0.0
C795 C 0.89838 0.59604 0.12004 0.0
C796 C 0.89999 0.59117 0.09873 0.0
C797 C 0.87187 0.5937 0.08149 0.0
C798 C 0.84178 0.60102 0.08559 0.0
C799 C 0.80067 0.65774 0.09549 0.0
C800 C 0.81063 0.65816 0.07202 0.0
C801 C 0.78802 0.64866 0.10543 0.0
C802 C 0.7844 0.6399 0.09197 0.0
C803 C 0.7922 0.64048 0.06825 0.0
C804 C 0.80534 0.64952 0.05838 0.0
C805 C 0.77781 0.62995 0.10312 0.0
C806 C 0.80663 0.62229 0.09877 0.0
C807 C 0.74659 0.62832 0.11971 0.0
C808 C 0.71286 0.63569 0.12347 0.0
C809 C 0.68968 0.63931 0.10477 0.0
C810 C 0.65759 0.64615 0.10838 0.0
C811 C 0.64825 0.64941 0.13063 0.0
C812 C 0.67099 0.64583 0.14933 0.0
C813 C 0.70311 0.63899 0.14582 0.0
H814 H 0.62335 0.65469 0.13339 0.0
H815 H 0.92308 0.58546 0.09557 0.0
H816 H 0.65636 0.40448 0.92468 0.0
H817 H 0.63518 0.3899 0.90232 0.0
H818 H 0.50828 0.39917 0.9079 0.0
H819 H 0.52973 0.41411 0.92989 0.0
H820 H 0.59132 0.37443 0.91246 0.0
H821 H 0.45676 0.39027 0.85883 0.0
H822 H 0.43167 0.40651 0.84349 0.0
H823 H 0.55497 0.41807 0.84307 0.0
H824 H 0.58087 0.40186 0.85802 0.0
H825 H 0.52903 0.33328 0.84524 0.0
H826 H 0.51677 0.34815 0.86928 0.0
H827 H 0.57466 0.36693 0.81807 0.0
H828 H 0.58639 0.35218 0.7939 0.0
H829 H 0.5133 0.37704 0.83933 0.0
H830 H 0.63122 0.35677 0.85997 0.0
H831 H 0.66628 0.34105 0.87138 0.0
H832 H 0.59298 0.33961 0.93273 0.0
H833 H 0.5569 0.35523 0.92142 0.0
C834 C 0.62392 0.40345 0.92115 0.0
C835 C 0.59468 0.41043 0.929 0.0
C836 C 0.6118 0.39507 0.90844 0.0
C837 C 0.57013 0.39342 0.90341 0.0
C838 C 0.54066 0.40035 0.91137 0.0
C839 C 0.5529 0.40885 0.92394 0.0
C840 C 0.55849 0.38442 0.88967 0.0
C841 C 0.57375 0.375 0.89664 0.0
C842 C 0.53579 0.38514 0.86893 0.0
C843 C 0.52061 0.39491 0.85991 0.0
C844 C 0.47848 0.39628 0.85546 0.0
C845 C 0.46413 0.40547 0.84682 0.0
C846 C 0.49167 0.41333 0.84245 0.0
C847 C 0.53365 0.41199 0.84658 0.0
C848 C 0.54817 0.40281 0.85516 0.0
C849 C 0.53818 0.34062 0.83888 0.0
C850 C 0.55927 0.34157 0.81789 0.0
C851 C 0.53115 0.3491 0.85261 0.0
C852 C 0.54537 0.35861 0.84559 0.0
C853 C 0.56343 0.35967 0.82381 0.0
C854 C 0.57037 0.35121 0.81008 0.0
C855 C 0.547 0.36717 0.86193 0.0
C856 C 0.52978 0.37646 0.85551 0.0
C857 C 0.56922 0.36644 0.8828 0.0
C858 C 0.59098 0.35708 0.8897 0.0
C859 C 0.62235 0.35305 0.87579 0.0
C860 C 0.64241 0.34417 0.88224 0.0
C861 C 0.63177 0.33932 0.90273 0.0
C862 C 0.60109 0.34336 0.91683 0.0
C863 C 0.58079 0.35222 0.9104 0.0
H864 H 0.64742 0.33245 0.90772 0.0
H865 H 0.48048 0.42044 0.83578 0.0
H866 H 0.7134 0.84363 0.9481 0.0
H867 H 0.72723 0.85973 0.9291 0.0
H868 H 0.70533 0.84589 0.86302 0.0
H869 H 0.69336 0.82969 0.88189 0.0
H870 H 0.76124 0.86003 0.8583 0.0
H871 H 0.6274 0.8578 0.89357 0.0
H872 H 0.57845 0.85514 0.9254 0.0
H873 H 0.63267 0.87973 0.96269 0.0
H874 H 0.6823 0.88245 0.93115 0.0
H875 H 0.66084 0.89816 0.79417 0.0
H876 H 0.68333 0.88335 0.81572 0.0
H877 H 0.71754 0.90234 0.87288 0.0
H878 H 0.69488 0.91724 0.85136 0.0
H879 H 0.66587 0.88681 0.88497 0.0
H880 H 0.79267 0.89031 0.84329 0.0
H881 H 0.83298 0.89299 0.80788 0.0
H882 H 0.7834 0.86579 0.77902 0.0
H883 H 0.74259 0.86297 0.81421 0.0
C884 C 0.71249 0.84399 0.92949 0.0
C885 C 0.70177 0.83547 0.91646 0.0
C886 C 0.72027 0.85319 0.91866 0.0
C887 C 0.71627 0.85408 0.89467 0.0
C888 C 0.70845 0.8454 0.88154 0.0
C889 C 0.70147 0.83615 0.89235 0.0
C890 C 0.71559 0.86414 0.88352 0.0
C891 C 0.74044 0.86589 0.86415 0.0
C892 C 0.68868 0.87185 0.89121 0.0
C893 C 0.65886 0.87024 0.91016 0.0
C894 C 0.62905 0.86259 0.90863 0.0
C895 C 0.60117 0.86108 0.92661 0.0
C896 C 0.60254 0.86724 0.94609 0.0
C897 C 0.63172 0.87495 0.94761 0.0
C898 C 0.65972 0.87648 0.92969 0.0
C899 C 0.67373 0.8992 0.81119 0.0
C900 C 0.67594 0.90884 0.82115 0.0
C901 C 0.68683 0.89074 0.82342 0.0
C902 C 0.70245 0.89177 0.84581 0.0
C903 C 0.70578 0.90141 0.85556 0.0
C904 C 0.69286 0.9099 0.84327 0.0
C905 C 0.71119 0.88266 0.85971 0.0
C906 C 0.68756 0.88107 0.87952 0.0
C907 C 0.73846 0.87505 0.85208 0.0
C908 C 0.76442 0.87646 0.83134 0.0
C909 C 0.79031 0.88491 0.82937 0.0
C910 C 0.81318 0.88647 0.80933 0.0
C911 C 0.81054 0.8796 0.79116 0.0
C912 C 0.78529 0.87112 0.79308 0.0
C913 C 0.76243 0.86951 0.81312 0.0
H914 H 0.82828 0.88082 0.77565 0.0
H915 H 0.58093 0.86606 0.95999 0.0
H916 H 0.53382 0.83689 0.3406 0.0
H917 H 0.51094 0.85288 0.35713 0.0
H918 H 0.54016 0.86806 0.29354 0.0
H919 H 0.56385 0.85214 0.27712 0.0
H920 H 0.58069 0.87604 0.32707 0.0
H921 H 0.44141 0.86807 0.31515 0.0
H922 H 0.37592 0.85874 0.31506 0.0
H923 H 0.37659 0.85795 0.38887 0.0
H924 H 0.44242 0.86714 0.38946 0.0
H925 H 0.55036 0.9224 0.38187 0.0
H926 H 0.52838 0.90888 0.35595 0.0
H927 H 0.5269 0.888 0.41281 0.0
H928 H 0.54919 0.90144 0.43879 0.0
H929 H 0.46353 0.88458 0.37806 0.0
H930 H 0.61125 0.88944 0.38668 0.0
H931 H 0.67433 0.89978 0.3861 0.0
H932 H 0.65246 0.90727 0.31528 0.0
H933 H 0.5889 0.89708 0.31557 0.0
C934 C 0.53439 0.84359 0.32997 0.0
C935 C 0.55132 0.84332 0.30774 0.0
C936 C 0.52094 0.85272 0.33936 0.0
C937 C 0.52386 0.86169 0.32659 0.0
C938 C 0.53772 0.86125 0.30374 0.0
C939 C 0.5514 0.85215 0.29441 0.0
C940 C 0.52005 0.87158 0.33832 0.0
C941 C 0.55431 0.87803 0.33757 0.0
C942 C 0.48613 0.87412 0.35251 0.0
C943 C 0.44731 0.8682 0.35232 0.0
C944 C 0.428 0.86577 0.33137 0.0
C945 C 0.39068 0.86053 0.33123 0.0
C946 C 0.37221 0.8577 0.35194 0.0
C947 C 0.391 0.86011 0.37283 0.0
C948 C 0.42832 0.86535 0.37308 0.0
C949 C 0.54425 0.915 0.38895 0.0
C950 C 0.55212 0.9129 0.41223 0.0
C951 C 0.53161 0.9073 0.37415 0.0
C952 C 0.52645 0.89746 0.38251 0.0
C953 C 0.53067 0.89557 0.40611 0.0
C954 C 0.5437 0.90323 0.42087 0.0
C955 C 0.52365 0.88889 0.36639 0.0
C956 C 0.48878 0.88268 0.3667 0.0
C957 C 0.55664 0.88659 0.3515 0.0
C958 C 0.59509 0.89261 0.35123 0.0
C959 C 0.61973 0.89336 0.37105 0.0
C960 C 0.65558 0.89918 0.37077 0.0
C961 C 0.6673 0.90421 0.3507 0.0
C962 C 0.64328 0.90339 0.33084 0.0
C963 C 0.60735 0.89759 0.33104 0.0
H964 H 0.69505 0.90872 0.35052 0.0
H965 H 0.34324 0.85369 0.35179 0.0
H966 H 0.68216 0.3447 0.45637 0.0
H967 H 0.71073 0.36051 0.44198 0.0
H968 H 0.72535 0.34723 0.37472 0.0
H969 H 0.69768 0.33124 0.38923 0.0
H970 H 0.78772 0.36102 0.38469 0.0
H971 H 0.63897 0.35934 0.3871 0.0
H972 H 0.57149 0.35682 0.40558 0.0
H973 H 0.59751 0.38076 0.45316 0.0
H974 H 0.66548 0.38331 0.43517 0.0
H975 H 0.72516 0.3985 0.30517 0.0
H976 H 0.74685 0.38454 0.32969 0.0
H977 H 0.73603 0.40363 0.38946 0.0
H978 H 0.71436 0.41767 0.36497 0.0
H979 H 0.68254 0.38805 0.38932 0.0
H980 H 0.82619 0.39199 0.38055 0.0
H981 H 0.89284 0.39449 0.36113 0.0
H982 H 0.87623 0.36685 0.32384 0.0
H983 H 0.80932 0.36421 0.34289 0.0
C984 C 0.69208 0.34509 0.43861 0.0
C985 C 0.687 0.33682 0.42377 0.0
C986 C 0.70859 0.35411 0.43045 0.0
C987 C 0.71954 0.35508 0.40721 0.0
C988 C 0.71709 0.34663 0.39272 0.0
C989 C 0.70098 0.33754 0.40097 0.0
C990 C 0.72783 0.36517 0.39738 0.0
C991 C 0.76482 0.36696 0.38557 0.0
C992 C 0.6983 0.37297 0.39913 0.0
C993 C 0.65751 0.37142 0.41001 0.0
C994 C 0.63045 0.364 0.40164 0.0
C995 C 0.5921 0.36258 0.41201 0.0
C996 C 0.58028 0.3686 0.43059 0.0
C997 C 0.60676 0.37608 0.43881 0.0
C998 C 0.6452 0.37751 0.42855 0.0
C999 C 0.72869 0.39982 0.32346 0.0
C1000 C 0.71722 0.40909 0.33326 0.0
C1001 C 0.74156 0.39186 0.33743 0.0
C1002 C 0.74299 0.39305 0.3614 0.0
C1003 C 0.73529 0.40258 0.37098 0.0
C1004 C 0.72269 0.41058 0.35699 0.0
C1005 C 0.74228 0.38397 0.37621 0.0
C1006 C 0.70623 0.38228 0.38887 0.0
C1007 C 0.77254 0.37631 0.37495 0.0
C1008 C 0.81241 0.37795 0.36302 0.0
C1009 C 0.83647 0.3865 0.36802 0.0
C1010 C 0.87438 0.38793 0.35713 0.0
C1011 C 0.88858 0.38087 0.34115 0.0
C1012 C 0.86505 0.37234 0.33613 0.0
C1013 C 0.82718 0.37085 0.34703 0.0
H1014 H 0.91787 0.38201 0.33271 0.0
H1015 H 0.55056 0.3675 0.43858 0.0
H1016 H 0.47962 0.5893 0.05643 0.0
H1017 H 0.50299 0.6048 0.0755 0.0
H1018 H 0.37749 0.61173 0.09393 0.0
H1019 H 0.35411 0.59659 0.07425 0.0
H1020 H 0.41154 0.62787 0.07977 0.0
H1021 H 0.45114 0.60126 0.13237 0.0
H1022 H 0.48753 0.58578 0.14416 0.0
H1023 H 0.60352 0.5997 0.12871 0.0
H1024 H 0.56774 0.61523 0.11655 0.0
H1025 H 0.4518 0.65182 0.19393 0.0
H1026 H 0.46066 0.63692 0.16985 0.0
H1027 H 0.49293 0.65584 0.11226 0.0
H1028 H 0.48338 0.67085 0.13623 0.0
H1029 H 0.51578 0.62753 0.14213 0.0
H1030 H 0.43627 0.64747 0.06637 0.0
H1031 H 0.39293 0.66243 0.0591 0.0
H1032 H 0.34455 0.66062 0.1277 0.0
H1033 H 0.38694 0.64554 0.1352 0.0
C1034 C 0.45716 0.59416 0.06457 0.0
C1035 C 0.41507 0.59176 0.06386 0.0
C1036 C 0.47052 0.60299 0.07551 0.0
C1037 C 0.44204 0.60942 0.08629 0.0
C1038 C 0.40007 0.60695 0.08561 0.0
C1039 C 0.38673 0.59826 0.07442 0.0
C1040 C 0.45519 0.61874 0.09843 0.0
C1041 C 0.4347 0.62779 0.09322 0.0
C1042 C 0.48528 0.61869 0.11607 0.0
C1043 C 0.50675 0.60935 0.12326 0.0
C1044 C 0.48438 0.60099 0.1313 0.0
C1045 C 0.5049 0.59221 0.13808 0.0
C1046 C 0.5478 0.59174 0.1371 0.0
C1047 C 0.57029 0.60006 0.1294 0.0
C1048 C 0.54991 0.60885 0.12256 0.0
C1049 C 0.46184 0.65281 0.1763 0.0
C1050 C 0.46611 0.66249 0.16681 0.0
C1051 C 0.46714 0.64427 0.16259 0.0
C1052 C 0.47671 0.64529 0.13918 0.0
C1053 C 0.48501 0.65492 0.13024 0.0
C1054 C 0.47957 0.66347 0.14395 0.0
C1055 C 0.47149 0.6365 0.12372 0.0
C1056 C 0.49345 0.62761 0.12826 0.0
C1057 C 0.4417 0.63658 0.10596 0.0
C1058 C 0.41525 0.64548 0.10143 0.0
C1059 C 0.41627 0.65025 0.07986 0.0
C1060 C 0.39186 0.65874 0.0757 0.0
C1061 C 0.3662 0.66251 0.09298 0.0
C1062 C 0.36461 0.65773 0.11438 0.0
C1063 C 0.38877 0.64921 0.11858 0.0
H1064 H 0.34738 0.66909 0.08974 0.0
H1065 H 0.56363 0.58495 0.14238 0.0
H1066 H 0.25401 0.16879 0.11485 0.0
H1067 H 0.22666 0.15509 0.13878 0.0
H1068 H 0.27774 0.13326 0.09168 0.0
H1069 H 0.30351 0.14679 0.06752 0.0
H1070 H 0.21017 0.12576 0.11027 0.0
H1071 H 0.33522 0.14344 0.13889 0.0
H1072 H 0.37056 0.15867 0.1533 0.0
H1073 H 0.27965 0.16187 0.20641 0.0
H1074 H 0.24364 0.1467 0.19212 0.0
H1075 H 0.36354 0.09734 0.18354 0.0
H1076 H 0.33383 0.11247 0.16698 0.0
H1077 H 0.21195 0.10009 0.17539 0.0
H1078 H 0.24214 0.08458 0.19147 0.0
H1079 H 0.28574 0.12618 0.18435 0.0
H1080 H 0.1505 0.11214 0.13226 0.0
H1081 H 0.12235 0.09659 0.11509 0.0
H1082 H 0.24474 0.08516 0.10541 0.0
H1083 H 0.27354 0.1007 0.12232 0.0
C1084 C 0.25847 0.16106 0.10939 0.0
C1085 C 0.28166 0.15884 0.08961 0.0
C1086 C 0.24277 0.15324 0.12302 0.0
C1087 C 0.25081 0.14314 0.11726 0.0
C1088 C 0.27106 0.14098 0.09652 0.0
C1089 C 0.28623 0.14874 0.08282 0.0
C1090 C 0.24499 0.13483 0.13405 0.0
C1091 C 0.22594 0.12588 0.12672 0.0
C1092 C 0.26491 0.13501 0.15569 0.0
C1093 C 0.28662 0.14404 0.16435 0.0
C1094 C 0.32279 0.14743 0.1536 0.0
C1095 C 0.34289 0.15604 0.16173 0.0
C1096 C 0.3273 0.16125 0.18072 0.0
C1097 C 0.29163 0.15784 0.19167 0.0
C1098 C 0.27136 0.14924 0.18357 0.0
C1099 C 0.3304 0.0978 0.18185 0.0
C1100 C 0.30516 0.08978 0.18876 0.0
C1101 C 0.31336 0.10649 0.17251 0.0
C1102 C 0.27059 0.10748 0.17005 0.0
C1103 C 0.24504 0.09949 0.177 0.0
C1104 C 0.26228 0.09065 0.18614 0.0
C1105 C 0.25424 0.11687 0.15958 0.0
C1106 C 0.26842 0.1261 0.16839 0.0
C1107 C 0.23078 0.11686 0.13906 0.0
C1108 C 0.21406 0.10749 0.12891 0.0
C1109 C 0.17134 0.10629 0.12651 0.0
C1110 C 0.15529 0.09749 0.1168 0.0
C1111 C 0.18174 0.08986 0.10928 0.0
C1112 C 0.22429 0.09105 0.11136 0.0
C1113 C 0.24049 0.09985 0.12102 0.0
H1114 H 0.16926 0.08305 0.10178 0.0
H1115 H 0.3429 0.16791 0.187 0.0
H1116 H 0.50886 0.08369 0.59128 0.0
H1117 H 0.52904 0.09928 0.6111 0.0
H1118 H 0.41155 0.11248 0.59385 0.0
H1119 H 0.39251 0.09728 0.5732 0.0
H1120 H 0.46562 0.12621 0.59052 0.0
H1121 H 0.43639 0.09997 0.64883 0.0
H1122 H 0.45041 0.0837 0.66796 0.0
H1123 H 0.57496 0.0929 0.68088 0.0
H1124 H 0.56162 0.10918 0.66162 0.0
H1125 H 0.40084 0.14722 0.70492 0.0
H1126 H 0.42629 0.13307 0.6824 0.0
H1127 H 0.50829 0.15299 0.64575 0.0
H1128 H 0.4818 0.16733 0.66792 0.0
H1129 H 0.49589 0.12362 0.67394 0.0
H1130 H 0.51083 0.14522 0.58971 0.0
H1131 H 0.48781 0.16109 0.57156 0.0
H1132 H 0.37723 0.1605 0.61194 0.0
H1133 H 0.39944 0.14458 0.6301 0.0
C1134 C 0.48768 0.08999 0.59158 0.0
C1135 C 0.44905 0.08928 0.58085 0.0
C1136 C 0.49915 0.09887 0.60294 0.0
C1137 C 0.47163 0.10704 0.60426 0.0
C1138 C 0.43352 0.10635 0.59299 0.0
C1139 C 0.4225 0.09761 0.58128 0.0
C1140 C 0.48038 0.11612 0.61841 0.0
C1141 C 0.47293 0.12564 0.60869 0.0
C1142 C 0.49036 0.11546 0.64208 0.0
C1143 C 0.49817 0.10571 0.65365 0.0
C1144 C 0.46677 0.09849 0.65568 0.0
C1145 C 0.47459 0.08928 0.66654 0.0
C1146 C 0.51358 0.08726 0.67558 0.0
C1147 C 0.5448 0.09446 0.67384 0.0
C1148 C 0.53714 0.10368 0.66298 0.0
C1149 C 0.42467 0.14859 0.69228 0.0
C1150 C 0.43887 0.1584 0.68791 0.0
C1151 C 0.43945 0.14047 0.67952 0.0
C1152 C 0.46887 0.14198 0.66219 0.0
C1153 C 0.48517 0.15168 0.65882 0.0
C1154 C 0.47004 0.15985 0.67148 0.0
C1155 C 0.47843 0.13356 0.64629 0.0
C1156 C 0.48991 0.12421 0.65562 0.0
C1157 C 0.47093 0.13432 0.62237 0.0
C1158 C 0.45707 0.14382 0.61145 0.0
C1159 C 0.4816 0.14849 0.59467 0.0
C1160 C 0.46869 0.15748 0.58439 0.0
C1161 C 0.43116 0.16182 0.59066 0.0
C1162 C 0.40636 0.15715 0.60715 0.0
C1163 C 0.4191 0.14815 0.61745 0.0
H1164 H 0.42125 0.16879 0.58271 0.0
H1165 H 0.51957 0.08012 0.68397 0.0
H1166 H 0.32181 0.64826 0.54267 0.0
H1167 H 0.29715 0.63372 0.56443 0.0
H1168 H 0.26817 0.65307 0.62183 0.0
H1169 H 0.29279 0.6677 0.60007 0.0
H1170 H 0.31882 0.63742 0.63336 0.0
H1171 H 0.1915 0.64154 0.59417 0.0
H1172 H 0.14514 0.64393 0.56106 0.0
H1173 H 0.18566 0.61583 0.53223 0.0
H1174 H 0.23272 0.61332 0.56501 0.0
H1175 H 0.27502 0.59452 0.69746 0.0
H1176 H 0.25741 0.61039 0.67843 0.0
H1177 H 0.28018 0.59669 0.61231 0.0
H1178 H 0.29633 0.5807 0.63123 0.0
H1179 H 0.2212 0.61078 0.60867 0.0
H1180 H 0.35751 0.60855 0.64166 0.0
H1181 H 0.40736 0.60581 0.67305 0.0
H1182 H 0.35382 0.63023 0.71122 0.0
H1183 H 0.30331 0.63303 0.68013 0.0
C1184 C 0.3095 0.64945 0.55977 0.0
C1185 C 0.30949 0.65909 0.56976 0.0
C1186 C 0.29514 0.64114 0.57212 0.0
C1187 C 0.28059 0.64233 0.59468 0.0
C1188 C 0.2791 0.65202 0.60439 0.0
C1189 C 0.29316 0.66035 0.59196 0.0
C1190 C 0.27194 0.63333 0.60891 0.0
C1191 C 0.29663 0.63172 0.62833 0.0
C1192 C 0.24389 0.62577 0.60189 0.0
C1193 C 0.21591 0.62728 0.582 0.0
C1194 C 0.19087 0.63592 0.58066 0.0
C1195 C 0.16438 0.63728 0.56197 0.0
C1196 C 0.16253 0.63005 0.54453 0.0
C1197 C 0.18715 0.62143 0.54574 0.0
C1198 C 0.21371 0.62003 0.56439 0.0
C1199 C 0.27519 0.59483 0.67884 0.0
C1200 C 0.28771 0.58646 0.6658 0.0
C1201 C 0.26517 0.60389 0.66799 0.0
C1202 C 0.26855 0.60479 0.64399 0.0
C1203 C 0.27757 0.59618 0.63085 0.0
C1204 C 0.28695 0.58706 0.64168 0.0
C1205 C 0.26843 0.61485 0.63291 0.0
C1206 C 0.24247 0.61662 0.61403 0.0
C1207 C 0.29584 0.62253 0.64013 0.0
C1208 C 0.32637 0.62092 0.65873 0.0
C1209 C 0.35623 0.61329 0.65682 0.0
C1210 C 0.38461 0.61173 0.67454 0.0
C1211 C 0.38367 0.61782 0.69415 0.0
C1212 C 0.35445 0.62551 0.69604 0.0
C1213 C 0.32595 0.62708 0.67838 0.0
H1214 H 0.40565 0.6166 0.70785 0.0
H1215 H 0.14195 0.63111 0.53009 0.0
H1216 H 0.47696 0.31583 0.44176 0.0
H1217 H 0.41099 0.31562 0.4216 0.0
H1218 H 0.47284 0.30801 0.35829 0.0
H1219 H 0.53916 0.30821 0.3784 0.0
H1220 H 0.41506 0.32316 0.35289 0.0
H1221 H 0.4222 0.29015 0.38657 0.0
H1222 H 0.43145 0.27791 0.41808 0.0
H1223 H 0.32813 0.29063 0.45378 0.0
H1224 H 0.31862 0.30305 0.42262 0.0
H1225 H 0.23883 0.31068 0.28842 0.0
H1226 H 0.30474 0.30958 0.3084 0.0
H1227 H 0.24368 0.31477 0.37323 0.0
H1228 H 0.17731 0.31565 0.35332 0.0
H1229 H 0.30157 0.30064 0.37774 0.0
H1230 H 0.29477 0.33381 0.34533 0.0
H1231 H 0.28531 0.34643 0.31462 0.0
H1232 H 0.38757 0.33394 0.27756 0.0
H1233 H 0.39729 0.32116 0.30791 0.0
C1234 C 0.47655 0.31412 0.42354 0.0
C1235 C 0.5132 0.31201 0.41165 0.0
C1236 C 0.43881 0.31396 0.41207 0.0
C1237 C 0.437 0.3117 0.38852 0.0
C1238 C 0.47361 0.30975 0.3765 0.0
C1239 C 0.51141 0.30984 0.388 0.0
C1240 C 0.39687 0.31146 0.37643 0.0
C1241 C 0.39043 0.31813 0.35807 0.0
C1242 C 0.36443 0.30509 0.38366 0.0
C1243 C 0.36994 0.29759 0.40236 0.0
C1244 C 0.40165 0.29039 0.40123 0.0
C1245 C 0.40691 0.28341 0.41901 0.0
C1246 C 0.38046 0.28351 0.43795 0.0
C1247 C 0.34863 0.29057 0.43911 0.0
C1248 C 0.34327 0.29758 0.42139 0.0
C1249 C 0.23938 0.31152 0.30695 0.0
C1250 C 0.20296 0.31332 0.31931 0.0
C1251 C 0.27711 0.31094 0.31834 0.0
C1252 C 0.27927 0.31228 0.34226 0.0
C1253 C 0.24276 0.31375 0.35474 0.0
C1254 C 0.20489 0.31427 0.34336 0.0
C1255 C 0.3197 0.31234 0.35414 0.0
C1256 C 0.3262 0.30565 0.37249 0.0
C1257 C 0.35215 0.31876 0.34702 0.0
C1258 C 0.3465 0.32646 0.32879 0.0
C1259 C 0.31505 0.33371 0.33055 0.0
C1260 C 0.30967 0.3409 0.31322 0.0
C1261 C 0.33575 0.34097 0.29412 0.0
C1262 C 0.36735 0.33387 0.29234 0.0
C1263 C 0.37283 0.32665 0.30961 0.0
H1264 H 0.33154 0.34654 0.28072 0.0
H1265 H 0.38457 0.2781 0.45169 0.0
H1266 H 0.00502 0.93434 0.29391 0.0
H1267 H 0.93885 0.9341 0.3139 0.0
H1268 H 0.99726 0.92156 0.37404 0.0
H1269 H 0.06398 0.92192 0.35422 0.0
H1270 H 0.91933 0.9119 0.35906 0.0
H1271 H 0.97745 0.94452 0.37729 0.0
H1272 H 0.00932 0.96085 0.36769 0.0
H1273 H 0.90432 0.96872 0.32661 0.0
H1274 H 0.87209 0.95235 0.3357 0.0
H1275 H 0.75878 0.92034 0.4397 0.0
H1276 H 0.82415 0.91912 0.41913 0.0
H1277 H 0.77607 0.93821 0.36533 0.0
H1278 H 0.71098 0.93966 0.38615 0.0
H1279 H 0.84951 0.94426 0.37681 0.0
H1280 H 0.78955 0.91257 0.35783 0.0
H1281 H 0.75622 0.89615 0.36471 0.0
H1282 H 0.86107 0.88627 0.40355 0.0
H1283 H 0.89486 0.9027 0.3972 0.0
C1284 C 0.0038 0.93152 0.31138 0.0
C1285 C 0.03963 0.92818 0.32257 0.0
C1286 C 0.96601 0.93139 0.32275 0.0
C1287 C 0.96332 0.92783 0.34541 0.0
C1288 C 0.99884 0.92431 0.35651 0.0
C1289 C 0.03686 0.92457 0.34524 0.0
C1290 C 0.92344 0.92808 0.35761 0.0
C1291 C 0.9042 0.91896 0.3633 0.0
C1292 C 0.90333 0.9373 0.36234 0.0
C1293 C 0.92256 0.94717 0.35699 0.0
C1294 C 0.96132 0.94969 0.36604 0.0
C1295 C 0.97942 0.95896 0.36073 0.0
C1296 C 0.95891 0.96581 0.3465 0.0
C1297 C 0.9202 0.9634 0.3376 0.0
C1298 C 0.90199 0.95413 0.34285 0.0
C1299 C 0.7621 0.92423 0.42343 0.0
C1300 C 0.72986 0.93012 0.41454 0.0
C1301 C 0.79939 0.92349 0.41162 0.0
C1302 C 0.80491 0.92849 0.39055 0.0
C1303 C 0.77253 0.93429 0.38156 0.0
C1304 C 0.73535 0.9351 0.39344 0.0
C1305 C 0.84501 0.92805 0.3784 0.0
C1306 C 0.86441 0.93717 0.37267 0.0
C1307 C 0.86487 0.9188 0.37331 0.0
C1308 C 0.84459 0.90892 0.37723 0.0
C1309 C 0.80537 0.90694 0.36802 0.0
C1310 C 0.78641 0.89762 0.37179 0.0
C1311 C 0.80646 0.89019 0.38462 0.0
C1312 C 0.84556 0.89205 0.39365 0.0
C1313 C 0.86465 0.90136 0.38995 0.0
H1314 H 0.79174 0.88298 0.38751 0.0
H1315 H 0.97296 0.97298 0.3424 0.0
H1316 H 0.53477 0.94094 0.8543 0.0
H1317 H 0.46868 0.94174 0.8744 0.0
H1318 H 0.40833 0.92875 0.81531 0.0
H1319 H 0.47425 0.92795 0.79509 0.0
H1320 H 0.36693 0.94523 0.83267 0.0
H1321 H 0.42635 0.91442 0.86104 0.0
H1322 H 0.48036 0.90395 0.87881 0.0
H1323 H 0.47433 0.92182 0.94032 0.0
H1324 H 0.42066 0.9325 0.92278 0.0
H1325 H 0.17586 0.93318 0.88508 0.0
H1326 H 0.24161 0.93263 0.86467 0.0
H1327 H 0.30396 0.94296 0.92584 0.0
H1328 H 0.23849 0.94329 0.94647 0.0
H1329 H 0.3447 0.92788 0.90726 0.0
H1330 H 0.28613 0.95874 0.87955 0.0
H1331 H 0.233 0.96958 0.86207 0.0
H1332 H 0.2383 0.95216 0.79987 0.0
H1333 H 0.29109 0.94113 0.8171 0.0
C1334 C 0.50741 0.93824 0.84562 0.0
C1335 C 0.50961 0.93436 0.82317 0.0
C1336 C 0.46975 0.93868 0.85713 0.0
C1337 C 0.43374 0.93524 0.84637 0.0
C1338 C 0.43582 0.93144 0.82388 0.0
C1339 C 0.47348 0.93096 0.81241 0.0
C1340 C 0.3938 0.93565 0.85853 0.0
C1341 C 0.36181 0.94133 0.84883 0.0
C1342 C 0.38765 0.93077 0.87988 0.0
C1343 C 0.41977 0.92432 0.8905 0.0
C1344 C 0.43678 0.91617 0.87828 0.0
C1345 C 0.46729 0.91019 0.88833 0.0
C1346 C 0.48085 0.91223 0.91066 0.0
C1347 C 0.46384 0.92025 0.92301 0.0
C1348 C 0.43335 0.92627 0.91303 0.0
C1349 C 0.20358 0.93538 0.89412 0.0
C1350 C 0.20209 0.9383 0.91733 0.0
C1351 C 0.2411 0.9351 0.88243 0.0
C1352 C 0.27766 0.93786 0.89366 0.0
C1353 C 0.27614 0.9408 0.91684 0.0
C1354 C 0.23871 0.94101 0.92857 0.0
C1355 C 0.31766 0.93748 0.88144 0.0
C1356 C 0.34971 0.93179 0.89111 0.0
C1357 C 0.32395 0.94241 0.86013 0.0
C1358 C 0.29227 0.94905 0.8497 0.0
C1359 C 0.27573 0.95717 0.86221 0.0
C1360 C 0.24572 0.96336 0.85233 0.0
C1361 C 0.2322 0.96154 0.82989 0.0
C1362 C 0.24876 0.95355 0.81726 0.0
C1363 C 0.27875 0.94733 0.82706 0.0
H1364 H 0.20897 0.96634 0.82228 0.0
H1365 H 0.50447 0.90759 0.9184 0.0
H1366 H 0.6872 0.31009 0.85541 0.0
H1367 H 0.75144 0.30912 0.87736 0.0
H1368 H 0.81969 0.31794 0.81699 0.0
H1369 H 0.75576 0.31886 0.79496 0.0
H1370 H 0.85469 0.30193 0.83884 0.0
H1371 H 0.80165 0.33469 0.85929 0.0
H1372 H 0.74947 0.34656 0.87397 0.0
H1373 H 0.74915 0.33126 0.93907 0.0
H1374 H 0.80099 0.31922 0.92467 0.0
H1375 H 0.04695 0.31471 0.88657 0.0
H1376 H 0.98027 0.31517 0.86721 0.0
H1377 H 0.9198 0.30786 0.93115 0.0
H1378 H 0.98649 0.3076 0.95074 0.0
H1379 H 0.87905 0.3224 0.90898 0.0
H1380 H 0.93305 0.28998 0.88949 0.0
H1381 H 0.98459 0.27788 0.87516 0.0
H1382 H 0.98191 0.29204 0.80876 0.0
H1383 H 0.93075 0.30432 0.82279 0.0
C1384 C 0.71592 0.31182 0.84685 0.0
C1385 C 0.71652 0.31455 0.82349 0.0
C1386 C 0.75253 0.3113 0.85941 0.0
C1387 C 0.79026 0.31353 0.84882 0.0
C1388 C 0.79089 0.31619 0.82547 0.0
C1389 C 0.75434 0.31674 0.81294 0.0
C1390 C 0.82929 0.31299 0.86192 0.0
C1391 C 0.86023 0.30648 0.85404 0.0
C1392 C 0.83593 0.31872 0.88212 0.0
C1393 C 0.80492 0.32599 0.89083 0.0
C1394 C 0.79023 0.33381 0.87668 0.0
C1395 C 0.76078 0.34058 0.88496 0.0
C1396 C 0.74599 0.33966 0.90743 0.0
C1397 C 0.76064 0.33197 0.92167 0.0
C1398 C 0.79009 0.32517 0.91347 0.0
C1399 C 0.01947 0.31317 0.89649 0.0
C1400 C 0.02192 0.31105 0.92013 0.0
C1401 C 0.98138 0.31341 0.8854 0.0
C1402 C 0.94508 0.3114 0.89767 0.0
C1403 C 0.94742 0.30941 0.92135 0.0
C1404 C 0.98553 0.30922 0.93249 0.0
C1405 C 0.90473 0.31142 0.88573 0.0
C1406 C 0.8735 0.31781 0.89385 0.0
C1407 C 0.89768 0.30554 0.86579 0.0
C1408 C 0.92832 0.29813 0.85726 0.0
C1409 C 0.94367 0.29056 0.87188 0.0
C1410 C 0.97278 0.28366 0.86381 0.0
C1411 C 0.98659 0.2842 0.84108 0.0
C1412 C 0.97122 0.29163 0.82636 0.0
C1413 C 0.94213 0.29856 0.83436 0.0
H1414 H 0.00913 0.27885 0.83486 0.0
H1415 H 0.72324 0.34492 0.91382 0.0
H1416 H 0.74795 0.68403 0.69969 0.0
H1417 H 0.68343 0.68299 0.67835 0.0
H1418 H 0.75103 0.68178 0.6145 0.0
H1419 H 0.81574 0.68322 0.63582 0.0
H1420 H 0.68939 0.69393 0.60981 0.0
H1421 H 0.70334 0.66037 0.6391 0.0
H1422 H 0.71345 0.6471 0.66831 0.0
H1423 H 0.60521 0.65698 0.70403 0.0
H1424 H 0.59455 0.67036 0.67516 0.0
H1425 H 0.51757 0.67793 0.54264 0.0
H1426 H 0.58343 0.67786 0.56309 0.0
H1427 H 0.52103 0.68516 0.6264 0.0
H1428 H 0.45503 0.68535 0.60601 0.0
H1429 H 0.58027 0.66937 0.63024 0.0
H1430 H 0.56841 0.70319 0.60053 0.0
H1431 H 0.55796 0.71592 0.57017 0.0
H1432 H 0.66359 0.70475 0.5339 0.0
H1433 H 0.67431 0.69185 0.5639 0.0
C1434 C 0.74905 0.68353 0.6811 0.0
C1435 C 0.78682 0.6837 0.6694 0.0
C1436 C 0.71215 0.68286 0.66892 0.0
C1437 C 0.71231 0.68212 0.64481 0.0
C1438 C 0.7501 0.68232 0.63309 0.0
C1439 C 0.78704 0.68313 0.64527 0.0
C1440 C 0.67302 0.68148 0.63184 0.0
C1441 C 0.66588 0.68844 0.61406 0.0
C1442 C 0.64188 0.67444 0.63762 0.0
C1443 C 0.64836 0.66643 0.65507 0.0
C1444 C 0.68187 0.65977 0.65328 0.0
C1445 C 0.68767 0.65222 0.66976 0.0
C1446 C 0.6601 0.65123 0.68805 0.0
C1447 C 0.62657 0.65777 0.68987 0.0
C1448 C 0.62059 0.66532 0.67344 0.0
C1449 C 0.51788 0.6795 0.56093 0.0
C1450 C 0.48124 0.68168 0.57274 0.0
C1451 C 0.55549 0.67947 0.57255 0.0
C1452 C 0.55701 0.68156 0.5962 0.0
C1453 C 0.5204 0.68354 0.60814 0.0
C1454 C 0.48282 0.68368 0.59647 0.0
C1455 C 0.59691 0.68181 0.60842 0.0
C1456 C 0.60405 0.6748 0.62601 0.0
C1457 C 0.62819 0.68871 0.60233 0.0
C1458 C 0.62189 0.69649 0.58433 0.0
C1459 C 0.58919 0.70339 0.58597 0.0
C1460 C 0.58326 0.71065 0.56885 0.0
C1461 C 0.61002 0.71113 0.55008 0.0
C1462 C 0.64284 0.70436 0.54843 0.0
C1463 C 0.64888 0.69708 0.56549 0.0
H1464 H 0.60539 0.71675 0.53684 0.0
H1465 H 0.66467 0.64538 0.70077 0.0
H1466 H 0.01986 0.07202 0.70511 0.0
H1467 H 0.08747 0.07083 0.68702 0.0
H1468 H 0.03725 0.05127 0.63473 0.0
H1469 H 0.96972 0.05219 0.65322 0.0
H1470 H 0.10831 0.04424 0.64854 0.0
H1471 H 0.05909 0.07648 0.62417 0.0
H1472 H 0.03026 0.09357 0.62861 0.0
H1473 H 0.13457 0.1023 0.6693 0.0
H1474 H 0.16378 0.08521 0.66537 0.0
H1475 H 0.26687 0.05078 0.56485 0.0
H1476 H 0.20226 0.05057 0.58637 0.0
H1477 H 0.26139 0.06581 0.64299 0.0
H1478 H 0.3264 0.06596 0.62159 0.0
H1479 H 0.18744 0.07491 0.62793 0.0
H1480 H 0.23727 0.04217 0.64978 0.0
H1481 H 0.26507 0.02514 0.64281 0.0
H1482 H 0.15764 0.0175 0.60354 0.0
H1483 H 0.12944 0.03454 0.60999 0.0
C1484 C 0.02321 0.06749 0.68972 0.0
C1485 C 0.98953 0.06223 0.68051 0.0
C1486 C 0.06184 0.06684 0.67934 0.0
C1487 C 0.06735 0.06107 0.65932 0.0
C1488 C 0.03373 0.05578 0.65015 0.0
C1489 C 0.99515 0.05633 0.66068 0.0
C1490 C 0.10826 0.06049 0.64809 0.0
C1491 C 0.12536 0.05095 0.64379 0.0
C1492 C 0.1309 0.06925 0.64226 0.0
C1493 C 0.11341 0.07953 0.64468 0.0
C1494 C 0.07572 0.08202 0.63423 0.0
C1495 C 0.05934 0.09171 0.63662 0.0
C1496 C 0.08051 0.09901 0.64929 0.0
C1497 C 0.11817 0.09663 0.65953 0.0
C1498 C 0.13467 0.08695 0.65721 0.0
C1499 C 0.26624 0.05397 0.582 0.0
C1500 C 0.3016 0.05839 0.59157 0.0
C1501 C 0.22937 0.05382 0.59428 0.0
C1502 C 0.22717 0.05815 0.61626 0.0
C1503 C 0.26259 0.06242 0.62604 0.0
C1504 C 0.29966 0.06246 0.61386 0.0
C1505 C 0.18729 0.05869 0.62844 0.0
C1506 C 0.17039 0.06822 0.63284 0.0
C1507 C 0.1646 0.04993 0.63402 0.0
C1508 C 0.18142 0.03967 0.6302 0.0
C1509 C 0.21973 0.03689 0.63949 0.0
C1510 C 0.23552 0.02723 0.63567 0.0
C1511 C 0.21318 0.02025 0.62269 0.0
C1512 C 0.17493 0.02292 0.61357 0.0
C1513 C 0.15901 0.03257 0.61732 0.0
H1514 H 0.22546 0.01278 0.61976 0.0
H1515 H 0.06779 0.10651 0.65111 0.0
H1516 H 0.44057 0.06254 0.14773 0.0
H1517 H 0.50542 0.06308 0.12628 0.0
H1518 H 0.57312 0.06227 0.19013 0.0
H1519 H 0.50863 0.062 0.21157 0.0
H1520 H 0.6032 0.07631 0.16348 0.0
H1521 H 0.56603 0.04151 0.15353 0.0
H1522 H 0.52107 0.02733 0.14255 0.0
H1523 H 0.51812 0.03802 0.07285 0.0
H1524 H 0.56264 0.05235 0.08348 0.0
H1525 H 0.80217 0.06521 0.11977 0.0
H1526 H 0.7357 0.06421 0.13944 0.0
H1527 H 0.67307 0.06799 0.07458 0.0
H1528 H 0.73937 0.06896 0.05479 0.0
H1529 H 0.63981 0.0527 0.10054 0.0
H1530 H 0.67862 0.08732 0.1108 0.0
H1531 H 0.72479 0.10123 0.12202 0.0
H1532 H 0.72546 0.09053 0.19174 0.0
H1533 H 0.67977 0.07646 0.18086 0.0
C1534 C 0.46933 0.06239 0.15714 0.0
C1535 C 0.46958 0.06224 0.1813 0.0
C1536 C 0.50636 0.06267 0.14488 0.0
C1537 C 0.54421 0.06265 0.15659 0.0
C1538 C 0.54435 0.06232 0.18072 0.0
C1539 C 0.50745 0.06213 0.19294 0.0
C1540 C 0.58374 0.06335 0.14389 0.0
C1541 C 0.61138 0.07105 0.14993 0.0
C1542 C 0.59405 0.05667 0.12579 0.0
C1543 C 0.56732 0.04806 0.11936 0.0
C1544 C 0.55552 0.04088 0.1359 0.0
C1545 C 0.53017 0.03281 0.12973 0.0
C1546 C 0.51665 0.03179 0.10703 0.0
C1547 C 0.52856 0.03883 0.09043 0.0
C1548 C 0.55388 0.04692 0.09652 0.0
C1549 C 0.77424 0.06586 0.10972 0.0
C1550 C 0.77594 0.0672 0.08577 0.0
C1551 C 0.73632 0.06531 0.12097 0.0
C1552 C 0.69949 0.06609 0.10846 0.0
C1553 C 0.70113 0.06736 0.08453 0.0
C1554 C 0.73902 0.06796 0.07329 0.0
C1555 C 0.65924 0.06556 0.12035 0.0
C1556 C 0.63149 0.05793 0.11411 0.0
C1557 C 0.64887 0.07228 0.13834 0.0
C1558 C 0.67607 0.08078 0.14496 0.0
C1559 C 0.68886 0.08789 0.12849 0.0
C1560 C 0.7149 0.09581 0.13479 0.0
C1561 C 0.72812 0.09675 0.15757 0.0
C1562 C 0.71523 0.08978 0.1741 0.0
C1563 C 0.68923 0.08184 0.16788 0.0
H1564 H 0.74829 0.10288 0.16241 0.0
H1565 H 0.49703 0.02554 0.10229 0.0
H1566 H 0.95929 0.68212 0.11224 0.0
H1567 H 0.02658 0.68257 0.13108 0.0
H1568 H 0.08549 0.68596 0.06502 0.0
H1569 H 0.01843 0.68525 0.04607 0.0
H1570 H 0.12661 0.67293 0.09048 0.0
H1571 H 0.0717 0.70618 0.10196 0.0
H1572 H 0.02011 0.71871 0.11422 0.0
H1573 H 0.02846 0.70795 0.18374 0.0
H1574 H 0.07973 0.69526 0.17183 0.0
H1575 H 0.32188 0.68872 0.13228 0.0
H1576 H 0.25502 0.68808 0.11296 0.0
H1577 H 0.19502 0.68396 0.17851 0.0
H1578 H 0.26162 0.6848 0.19793 0.0
H1579 H 0.15484 0.69743 0.15301 0.0
H1580 H 0.21021 0.66416 0.14125 0.0
H1581 H 0.26182 0.65168 0.1287 0.0
H1582 H 0.2532 0.66268 0.0594 0.0
H1583 H 0.20191 0.67531 0.07158 0.0
C1584 C 0.98661 0.68295 0.10176 0.0
C1585 C 0.98364 0.68369 0.07771 0.0
C1586 C 0.02502 0.68325 0.11253 0.0
C1587 C 0.06107 0.68444 0.09948 0.0
C1588 C 0.05812 0.68505 0.07543 0.0
C1589 C 0.01978 0.68467 0.06464 0.0
C1590 C 0.10186 0.68507 0.11085 0.0
C1591 C 0.13295 0.67838 0.10394 0.0
C1592 C 0.10992 0.69205 0.12873 0.0
C1593 C 0.07927 0.69971 0.13596 0.0
C1594 C 0.06232 0.70644 0.11983 0.0
C1595 C 0.03317 0.71358 0.12672 0.0
C1596 C 0.02094 0.71411 0.14974 0.0
C1597 C 0.03793 0.70752 0.16592 0.0
C1598 C 0.06706 0.70036 0.15911 0.0
C1599 C 0.2944 0.6877 0.14255 0.0
C1600 C 0.29692 0.68681 0.1666 0.0
C1601 C 0.25627 0.68728 0.1315 0.0
C1602 C 0.22008 0.68586 0.14428 0.0
C1603 C 0.22255 0.68506 0.16831 0.0
C1604 C 0.26062 0.68552 0.17938 0.0
C1605 C 0.17951 0.68527 0.13269 0.0
C1606 C 0.14849 0.69199 0.13954 0.0
C1607 C 0.17159 0.67833 0.11472 0.0
C1608 C 0.20244 0.67073 0.10737 0.0
C1609 C 0.21953 0.66396 0.12336 0.0
C1610 C 0.24865 0.65685 0.11631 0.0
C1611 C 0.26072 0.65638 0.09326 0.0
C1612 C 0.24376 0.66304 0.07724 0.0
C1613 C 0.21463 0.67017 0.0842 0.0
H1614 H 0.28321 0.65086 0.08783 0.0
H1615 H 0.99836 0.71964 0.15504 0.0
H1616 H 0.55664 0.80828 0.8819 0.0
H1617 H 0.48917 0.80972 0.86343 0.0
H1618 H 0.43603 0.81936 0.92775 0.0
H1619 H 0.50353 0.81806 0.94629 0.0
H1620 H 0.39164 0.80377 0.90456 0.0
H1621 H 0.45034 0.83638 0.88965 0.0
H1622 H 0.50396 0.84808 0.87602 0.0
H1623 H 0.49348 0.83596 0.80777 0.0
H1624 H 0.44023 0.82406 0.82108 0.0
H1625 H 0.19722 0.81831 0.86101 0.0
H1626 H 0.26395 0.81811 0.88039 0.0
H1627 H 0.32463 0.81414 0.81497 0.0
H1628 H 0.25803 0.81469 0.79544 0.0
H1629 H 0.36545 0.82718 0.8396 0.0
H1630 H 0.3098 0.79427 0.85355 0.0
H1631 H 0.25813 0.78188 0.86636 0.0
H1632 H 0.26468 0.79364 0.93509 0.0
H1633 H 0.31603 0.8062 0.92261 0.0
C1634 C 0.53059 0.81073 0.89208 0.0
C1635 C 0.53526 0.81307 0.91551 0.0
C1636 C 0.49217 0.81157 0.88151 0.0
C1637 C 0.45779 0.81468 0.89425 0.0
C1638 C 0.46228 0.81695 0.91768 0.0
C1639 C 0.50081 0.81624 0.92819 0.0
C1640 C 0.41702 0.81544 0.88312 0.0
C1641 C 0.38561 0.80898 0.89058 0.0
C1642 C 0.40977 0.82206 0.8645 0.0
C1643 C 0.44157 0.82926 0.85642 0.0
C1644 C 0.45971 0.83614 0.87178 0.0
C1645 C 0.49 0.84282 0.8641 0.0
C1646 C 0.50219 0.84274 0.84106 0.0
C1647 C 0.48404 0.836 0.82562 0.0
C1648 C 0.45378 0.82929 0.83322 0.0
C1649 C 0.22481 0.81739 0.85078 0.0
C1650 C 0.22248 0.81647 0.82674 0.0
C1651 C 0.26291 0.81724 0.86187 0.0
C1652 C 0.29931 0.81595 0.84918 0.0
C1653 C 0.29699 0.81513 0.82513 0.0
C1654 C 0.25893 0.81541 0.814 0.0
C1655 C 0.3398 0.81546 0.86094 0.0
C1656 C 0.37127 0.82197 0.85361 0.0
C1657 C 0.34726 0.8088 0.87953 0.0
C1658 C 0.31644 0.80124 0.88709 0.0
C1659 C 0.29999 0.79427 0.87136 0.0
C1660 C 0.2708 0.78721 0.87856 0.0
C1661 C 0.25805 0.78699 0.90151 0.0
C1662 C 0.27454 0.79383 0.91731 0.0
C1663 C 0.30372 0.80091 0.91019 0.0
H1664 H 0.23545 0.78152 0.90706 0.0
H1665 H 0.52564 0.84792 0.83515 0.0
H1666 H 0.78399 0.44111 0.961 0.0
H1667 H 0.84816 0.44118 0.93897 0.0
H1668 H 0.77892 0.44126 0.87567 0.0
H1669 H 0.71462 0.44125 0.89757 0.0
H1670 H 0.83802 0.42603 0.87814 0.0
H1671 H 0.82894 0.46182 0.89055 0.0
H1672 H 0.82165 0.47725 0.91384 0.0
H1673 H 0.93159 0.46978 0.95107 0.0
H1674 H 0.93922 0.45422 0.92821 0.0
H1675 H 0.00102 0.43203 0.79966 0.0
H1676 H 0.93812 0.43419 0.82203 0.0
H1677 H 0.01016 0.43804 0.88378 0.0
H1678 H 0.07342 0.43615 0.8613 0.0
H1679 H 0.94987 0.45139 0.88278 0.0
H1680 H 0.95961 0.41577 0.87221 0.0
H1681 H 0.96771 0.39988 0.85067 0.0
H1682 H 0.85779 0.40628 0.8124 0.0
H1683 H 0.84934 0.42229 0.8335 0.0
C1684 C 0.78246 0.44131 0.94239 0.0
C1685 C 0.74435 0.44116 0.93098 0.0
C1686 C 0.81911 0.44137 0.92985 0.0
C1687 C 0.81819 0.44124 0.90572 0.0
C1688 C 0.78019 0.44137 0.89429 0.0
C1689 C 0.74354 0.4414 0.90682 0.0
C1690 C 0.8568 0.44028 0.89242 0.0
C1691 C 0.86225 0.43164 0.87884 0.0
C1692 C 0.88888 0.44743 0.89409 0.0
C1693 C 0.88442 0.4568 0.90781 0.0
C1694 C 0.85137 0.46342 0.90384 0.0
C1695 C 0.84721 0.4722 0.91693 0.0
C1696 C 0.87608 0.47448 0.93397 0.0
C1697 C 0.90922 0.468 0.93789 0.0
C1698 C 0.9135 0.4592 0.92485 0.0
C1699 C 0.00347 0.43331 0.81802 0.0
C1700 C 0.04209 0.43387 0.82878 0.0
C1701 C 0.96749 0.43452 0.8308 0.0
C1702 C 0.96938 0.43613 0.85465 0.0
C1703 C 0.00797 0.43678 0.86541 0.0
C1704 C 0.04405 0.43566 0.85257 0.0
C1705 C 0.93103 0.43716 0.86827 0.0
C1706 C 0.92565 0.44577 0.88201 0.0
C1707 C 0.89914 0.42991 0.867 0.0
C1708 C 0.90407 0.42028 0.85429 0.0
C1709 C 0.93734 0.41383 0.85908 0.0
C1710 C 0.94196 0.40479 0.84697 0.0
C1711 C 0.91334 0.40208 0.83014 0.0
C1712 C 0.87997 0.40839 0.82542 0.0
C1713 C 0.87523 0.41744 0.83747 0.0
H1714 H 0.91697 0.39508 0.82079 0.0
H1715 H 0.87281 0.48129 0.94409 0.0
H1716 H 0.55532 0.43778 0.35979 0.0
H1717 H 0.48825 0.43796 0.3791 0.0
H1718 H 0.43661 0.42018 0.32412 0.0
H1719 H 0.50366 0.41981 0.30493 0.0
H1720 H 0.38973 0.43782 0.33687 0.0
H1721 H 0.45375 0.40862 0.37087 0.0
H1722 H 0.50911 0.39949 0.39104 0.0
H1723 H 0.49634 0.41919 0.44923 0.0
H1724 H 0.44127 0.42854 0.42925 0.0
H1725 H 0.19729 0.42633 0.38815 0.0
H1726 H 0.26398 0.42552 0.36872 0.0
H1727 H 0.32333 0.43687 0.42991 0.0
H1728 H 0.25701 0.43731 0.44962 0.0
H1729 H 0.36697 0.42234 0.41351 0.0
H1730 H 0.30533 0.45183 0.38084 0.0
H1731 H 0.25166 0.46179 0.36129 0.0
H1732 H 0.26168 0.44286 0.30162 0.0
H1733 H 0.31506 0.4327 0.32094 0.0
C1734 C 0.5297 0.43387 0.3519 0.0
C1735 C 0.53467 0.42876 0.3309 0.0
C1736 C 0.4915 0.43397 0.36293 0.0
C1737 C 0.45761 0.42907 0.35301 0.0
C1738 C 0.46244 0.42401 0.332 0.0
C1739 C 0.50075 0.42377 0.32114 0.0
C1740 C 0.41696 0.4293 0.36445 0.0
C1741 C 0.38447 0.43433 0.35349 0.0
C1742 C 0.41068 0.42498 0.38638 0.0
C1743 C 0.44368 0.41935 0.39846 0.0
C1744 C 0.463 0.41107 0.38788 0.0
C1745 C 0.49427 0.40584 0.39929 0.0
C1746 C 0.50631 0.40878 0.42138 0.0
C1747 C 0.48702 0.41693 0.43211 0.0
C1748 C 0.45575 0.42219 0.42076 0.0
C1749 C 0.22458 0.42868 0.39739 0.0
C1750 C 0.22198 0.43191 0.42036 0.0
C1751 C 0.26267 0.42826 0.38625 0.0
C1752 C 0.29872 0.43127 0.39773 0.0
C1753 C 0.29603 0.4345 0.42068 0.0
C1754 C 0.25808 0.43479 0.43191 0.0
C1755 C 0.33935 0.43091 0.38601 0.0
C1756 C 0.37198 0.42585 0.39689 0.0
C1757 C 0.34592 0.43533 0.36412 0.0
C1758 C 0.31389 0.44144 0.35243 0.0
C1759 C 0.29587 0.44974 0.36362 0.0
C1760 C 0.26554 0.45543 0.35257 0.0
C1761 C 0.25319 0.45294 0.33025 0.0
C1762 C 0.27123 0.44477 0.31892 0.0
C1763 C 0.30155 0.43905 0.32991 0.0
H1764 H 0.2297 0.45736 0.32173 0.0
H1765 H 0.53052 0.40472 0.43019 0.0
H1766 H 0.69899 0.82342 0.35512 0.0
H1767 H 0.76432 0.82389 0.37625 0.0
H1768 H 0.82995 0.81708 0.31368 0.0
H1769 H 0.765 0.81673 0.29244 0.0
H1770 H 0.85159 0.80479 0.35153 0.0
H1771 H 0.83425 0.83993 0.33295 0.0
H1772 H 0.79794 0.85624 0.33196 0.0
H1773 H 0.79437 0.85683 0.40578 0.0
H1774 H 0.8301 0.84042 0.40722 0.0
H1775 H 0.05532 0.8119 0.38981 0.0
H1776 H 0.99082 0.81307 0.36831 0.0
H1777 H 0.93065 0.82545 0.42818 0.0
H1778 H 0.99549 0.82465 0.44943 0.0
H1779 H 0.90516 0.83501 0.39194 0.0
H1780 H 0.91969 0.80017 0.4117 0.0
H1781 H 0.95434 0.78366 0.41416 0.0
H1782 H 0.96025 0.7821 0.34045 0.0
H1783 H 0.92611 0.79867 0.33756 0.0
C1784 C 0.72739 0.82207 0.34588 0.0
C1785 C 0.72696 0.82004 0.32215 0.0
C1786 C 0.76462 0.82238 0.35794 0.0
C1787 C 0.80189 0.82056 0.34647 0.0
C1788 C 0.80149 0.81852 0.32281 0.0
C1789 C 0.76439 0.81834 0.31071 0.0
C1790 C 0.8413 0.82046 0.35924 0.0
C1791 C 0.86363 0.81142 0.36014 0.0
C1792 C 0.85619 0.82905 0.37102 0.0
C1793 C 0.83443 0.83888 0.37018 0.0
C1794 C 0.82533 0.84348 0.34897 0.0
C1795 C 0.80494 0.85275 0.34833 0.0
C1796 C 0.79374 0.85755 0.36879 0.0
C1797 C 0.80299 0.85309 0.38995 0.0
C1798 C 0.82332 0.8438 0.39068 0.0
C1799 C 0.02833 0.81489 0.39834 0.0
C1800 C 0.0303 0.81811 0.42132 0.0
C1801 C 0.99143 0.81552 0.38609 0.0
C1802 C 0.95559 0.81917 0.39675 0.0
C1803 C 0.9578 0.82258 0.41958 0.0
C1804 C 0.99484 0.8221 0.43173 0.0
C1805 C 0.91574 0.81933 0.38421 0.0
C1806 C 0.89321 0.82836 0.38337 0.0
C1807 C 0.9003 0.81069 0.37275 0.0
C1808 C 0.92071 0.80071 0.37442 0.0
C1809 C 0.92865 0.79634 0.39602 0.0
C1810 C 0.94815 0.78697 0.39749 0.0
C1811 C 0.95958 0.78185 0.37748 0.0
C1812 C 0.95143 0.78608 0.35594 0.0
C1813 C 0.93197 0.79546 0.35437 0.0
H1814 H 0.97468 0.77459 0.37865 0.0
H1815 H 0.778 0.86474 0.36826 0.0
H1816 H 0.75449 0.19635 0.19252 0.0
H1817 H 0.68638 0.19576 0.17465 0.0
H1818 H 0.71367 0.16633 0.14693 0.0
H1819 H 0.78195 0.1669 0.16467 0.0
H1820 H 0.67893 0.17877 0.11491 0.0
H1821 H 0.65121 0.16865 0.19282 0.0
H1822 H 0.6528 0.17035 0.23506 0.0
H1823 H 0.58497 0.19806 0.23042 0.0
H1824 H 0.58348 0.19659 0.18811 0.0
H1825 H 0.47916 0.16576 0.07841 0.0
H1826 H 0.54528 0.16588 0.09837 0.0
H1827 H 0.51368 0.19418 0.13047 0.0
H1828 H 0.44684 0.19393 0.11102 0.0
H1829 H 0.55077 0.18237 0.16051 0.0
H1830 H 0.57884 0.19291 0.08323 0.0
H1831 H 0.57777 0.19171 0.0409 0.0
H1832 H 0.6456 0.16396 0.04409 0.0
H1833 H 0.64658 0.16492 0.08648 0.0
C1834 C 0.74597 0.18975 0.18264 0.0
C1835 C 0.77351 0.18166 0.18002 0.0
C1836 C 0.70698 0.18941 0.17252 0.0
C1837 C 0.69481 0.18096 0.15965 0.0
C1838 C 0.72242 0.17292 0.15683 0.0
C1839 C 0.76137 0.17324 0.16701 0.0
C1840 C 0.65347 0.18057 0.14885 0.0
C1841 C 0.65087 0.17942 0.12491 0.0
C1842 C 0.61693 0.18169 0.16183 0.0
C1843 C 0.61759 0.18256 0.18728 0.0
C1844 C 0.63692 0.17514 0.20079 0.0
C1845 C 0.63774 0.17606 0.22475 0.0
C1846 C 0.61909 0.18432 0.23541 0.0
C1847 C 0.59945 0.19167 0.22213 0.0
C1848 C 0.59858 0.1908 0.19817 0.0
C1849 C 0.48621 0.17198 0.08981 0.0
C1850 C 0.45796 0.17987 0.09305 0.0
C1851 C 0.52411 0.17207 0.10113 0.0
C1852 C 0.53484 0.18014 0.11559 0.0
C1853 C 0.50617 0.18789 0.11933 0.0
C1854 C 0.46803 0.18776 0.10818 0.0
C1855 C 0.57615 0.18055 0.12653 0.0
C1856 C 0.57879 0.18172 0.15049 0.0
C1857 C 0.61279 0.17952 0.11354 0.0
C1858 C 0.61243 0.17894 0.08804 0.0
C1859 C 0.59327 0.18651 0.07491 0.0
C1860 C 0.59272 0.18588 0.05091 0.0
C1861 C 0.61151 0.17775 0.03982 0.0
C1862 C 0.631 0.17024 0.05271 0.0
C1863 C 0.6316 0.17084 0.07672 0.0
H1864 H 0.61105 0.17727 0.02123 0.0
H1865 H 0.61976 0.18502 0.25396 0.0
H1866 H 0.29634 0.55876 0.10215 0.0
H1867 H 0.23313 0.55764 0.12491 0.0
H1868 H 0.16092 0.55989 0.0628 0.0
H1869 H 0.22383 0.56131 0.04013 0.0
H1870 H 0.13262 0.57236 0.09356 0.0
H1871 H 0.17152 0.53738 0.09383 0.0
H1872 H 0.21777 0.52291 0.10018 0.0
H1873 H 0.22532 0.5302 0.17203 0.0
H1874 H 0.17953 0.5448 0.16605 0.0
H1875 H 0.93776 0.55975 0.13905 0.0
H1876 H 0.00254 0.55897 0.11774 0.0
H1877 H 0.07022 0.55992 0.18154 0.0
H1878 H 0.00547 0.56067 0.20301 0.0
H1879 H 0.10136 0.54582 0.15109 0.0
H1880 H 0.06228 0.5807 0.15065 0.0
H1881 H 0.0166 0.59528 0.14421 0.0
H1882 H 0.00956 0.58808 0.07231 0.0
H1883 H 0.05472 0.57336 0.07837 0.0
C1884 C 0.26696 0.5589 0.09337 0.0
C1885 C 0.26494 0.56015 0.0694 0.0
C1886 C 0.23086 0.55822 0.10637 0.0
C1887 C 0.19223 0.55862 0.09555 0.0
C1888 C 0.19034 0.5596 0.07153 0.0
C1889 C 0.22631 0.56039 0.05859 0.0
C1890 C 0.15367 0.55856 0.10922 0.0
C1891 C 0.12555 0.56646 0.10586 0.0
C1892 C 0.14496 0.55104 0.1258 0.0
C1893 C 0.17241 0.54224 0.12944 0.0
C1894 C 0.18329 0.53595 0.11095 0.0
C1895 C 0.20938 0.52771 0.11449 0.0
C1896 C 0.22456 0.52565 0.13648 0.0
C1897 C 0.21359 0.53181 0.155 0.0
C1898 C 0.18753 0.54006 0.15155 0.0
C1899 C 0.96643 0.55975 0.14855 0.0
C1900 C 0.96662 0.56031 0.17268 0.0
C1901 C 0.00338 0.55933 0.13635 0.0
C1902 C 0.04112 0.55948 0.14808 0.0
C1903 C 0.04139 0.5598 0.1722 0.0
C1904 C 0.00442 0.56027 0.18441 0.0
C1905 C 0.08029 0.55953 0.1351 0.0
C1906 C 0.10851 0.55168 0.13868 0.0
C1907 C 0.08913 0.56708 0.11866 0.0
C1908 C 0.06162 0.57588 0.115 0.0
C1909 C 0.05069 0.58217 0.1335 0.0
C1910 C 0.02498 0.59047 0.12991 0.0
C1911 C 0.01027 0.59261 0.10786 0.0
C1912 C 0.02107 0.58643 0.08937 0.0
C1913 C 0.04672 0.5781 0.09287 0.0
H1914 H 0.99052 0.59907 0.10509 0.0
H1915 H 0.24476 0.51927 0.13919 0.0
H1916 H 0.80056 0.55659 0.60479 0.0
H1917 H 0.73454 0.55651 0.62496 0.0
H1918 H 0.67861 0.57235 0.56807 0.0
H1919 H 0.74498 0.57284 0.54839 0.0
H1920 H 0.65166 0.57998 0.60567 0.0
H1921 H 0.66604 0.5461 0.57789 0.0
H1922 H 0.70006 0.52965 0.57243 0.0
H1923 H 0.70017 0.52482 0.64547 0.0
H1924 H 0.66662 0.5413 0.65138 0.0
H1925 H 0.44287 0.56883 0.63236 0.0
H1926 H 0.51048 0.56924 0.61387 0.0
H1927 H 0.56655 0.55836 0.67639 0.0
H1928 H 0.49903 0.55796 0.69503 0.0
H1929 H 0.59329 0.54825 0.63689 0.0
H1930 H 0.57565 0.58241 0.66341 0.0
H1931 H 0.5387 0.59856 0.66719 0.0
H1932 H 0.54161 0.60245 0.59388 0.0
H1933 H 0.57806 0.58624 0.58963 0.0
C1934 C 0.77414 0.56006 0.59663 0.0
C1935 C 0.77778 0.56469 0.57502 0.0
C1936 C 0.73637 0.55996 0.6081 0.0
C1937 C 0.70134 0.56427 0.59787 0.0
C1938 C 0.70513 0.56897 0.57633 0.0
C1939 C 0.74303 0.56923 0.56506 0.0
C1940 C 0.6608 0.56397 0.60964 0.0
C1941 C 0.63874 0.57301 0.61221 0.0
C1942 C 0.6441 0.55491 0.6186 0.0
C1943 C 0.6642 0.54498 0.61508 0.0
C1944 C 0.67359 0.54156 0.59279 0.0
C1945 C 0.69274 0.53223 0.58961 0.0
C1946 C 0.70237 0.52621 0.60859 0.0
C1947 C 0.69275 0.5295 0.63079 0.0
C1948 C 0.67364 0.53883 0.63406 0.0
C1949 C 0.46961 0.56654 0.64216 0.0
C1950 C 0.46575 0.56338 0.66514 0.0
C1951 C 0.50818 0.5668 0.63161 0.0
C1952 C 0.54347 0.5639 0.64384 0.0
C1953 C 0.53964 0.56064 0.66669 0.0
C1954 C 0.50112 0.56044 0.67732 0.0
C1955 C 0.58438 0.56422 0.63273 0.0
C1956 C 0.60641 0.5552 0.63032 0.0
C1957 C 0.60076 0.57325 0.62364 0.0
C1958 C 0.57927 0.58306 0.62619 0.0
C1959 C 0.56815 0.58667 0.64808 0.0
C1960 C 0.54733 0.59584 0.65031 0.0
C1961 C 0.53772 0.60152 0.63078 0.0
C1962 C 0.54903 0.59804 0.60899 0.0
C1963 C 0.56981 0.58887 0.60666 0.0
H1964 H 0.52158 0.60861 0.63254 0.0
H1965 H 0.71719 0.51898 0.6061 0.0
H1966 H 0.00741 0.17992 0.54976 0.0
H1967 H 0.07183 0.17994 0.57147 0.0
H1968 H 0.00628 0.18904 0.63258 0.0
H1969 H 0.94178 0.18919 0.61085 0.0
H1970 H 0.07618 0.19951 0.62801 0.0
H1971 H 0.037 0.1648 0.6256 0.0
H1972 H 0.0153 0.14889 0.60734 0.0
H1973 H 0.12748 0.14807 0.56843 0.0
H1974 H 0.14963 0.16407 0.58624 0.0
H1975 H 0.23099 0.18688 0.70958 0.0
H1976 H 0.16716 0.1872 0.68729 0.0
H1977 H 0.23543 0.18093 0.62531 0.0
H1978 H 0.29954 0.18063 0.6475 0.0
H1979 H 0.16455 0.16901 0.6303 0.0
H1980 H 0.20302 0.20401 0.63397 0.0
H1981 H 0.22339 0.21975 0.65344 0.0
H1982 H 0.11052 0.21963 0.69177 0.0
H1983 H 0.08973 0.20379 0.67275 0.0
C1984 C 0.00674 0.18195 0.56781 0.0
C1985 C 0.96957 0.18453 0.57864 0.0
C1986 C 0.04354 0.18191 0.58021 0.0
C1987 C 0.04378 0.18437 0.60371 0.0
C1988 C 0.00678 0.1871 0.61447 0.0
C1989 C 0.96996 0.18717 0.60206 0.0
C1990 C 0.08264 0.18407 0.61706 0.0
C1991 C 0.09522 0.1928 0.62875 0.0
C1992 C 0.10783 0.17536 0.61771 0.0
C1993 C 0.09479 0.16569 0.60709 0.0
C1994 C 0.05691 0.16127 0.61302 0.0
C1995 C 0.04454 0.15223 0.60277 0.0
C1996 C 0.06993 0.14749 0.58668 0.0
C1997 C 0.10782 0.15177 0.58087 0.0
C1998 C 0.12031 0.16081 0.59106 0.0
C1999 C 0.23242 0.18559 0.69119 0.0
C2000 C 0.27023 0.18377 0.68025 0.0
C2001 C 0.19596 0.18579 0.67849 0.0
C2002 C 0.19666 0.18415 0.65465 0.0
C2003 C 0.2343 0.18222 0.6437 0.0
C2004 C 0.27086 0.1821 0.65637 0.0
C2005 C 0.15801 0.18445 0.64117 0.0
C2006 C 0.14548 0.17571 0.6295 0.0
C2007 C 0.13266 0.19311 0.64073 0.0
C2008 C 0.14501 0.20266 0.6521 0.0
C2009 C 0.1827 0.20729 0.64669 0.0
C2010 C 0.19429 0.21624 0.65762 0.0
C2011 C 0.16832 0.22067 0.67387 0.0
C2012 C 0.13063 0.21618 0.67919 0.0
C2013 C 0.11891 0.20722 0.66833 0.0
H2014 H 0.17735 0.2276 0.68232 0.0
H2015 H 0.06029 0.1405 0.57875 0.0
H2016 H 0.92189 0.21772 0.19015 0.0
H2017 H 0.94082 0.23506 0.20032 0.0
H2018 H 0.96845 0.22549 0.26956 0.0
H2019 H 0.94931 0.20823 0.25961 0.0
H2020 H 0.92262 0.24237 0.26959 0.0
H2021 H 0.0449 0.23058 0.23226 0.0
H2022 H 0.08586 0.223 0.20104 0.0
H2023 H 0.0485 0.24669 0.15524 0.0
H2024 H 0.00681 0.25435 0.18613 0.0
H2025 H 0.04335 0.28466 0.30659 0.0
H2026 H 0.01705 0.26794 0.29625 0.0
H2027 H 0.98142 0.27917 0.22952 0.0
H2028 H 0.00722 0.29588 0.23977 0.0
H2029 H 0.02931 0.26174 0.22757 0.0
H2030 H 0.90896 0.27385 0.26626 0.0
H2031 H 0.86963 0.28135 0.29822 0.0
H2032 H 0.90547 0.25693 0.34238 0.0
H2033 H 0.94556 0.24935 0.31076 0.0
C2034 C 0.93231 0.21932 0.20748 0.0
C2035 C 0.93425 0.21163 0.22406 0.0
C2036 C 0.94313 0.22921 0.21326 0.0
C2037 C 0.95618 0.23154 0.23569 0.0
C2038 C 0.95835 0.22385 0.25219 0.0
C2039 C 0.94762 0.21399 0.24643 0.0
C2040 C 0.96713 0.24202 0.24212 0.0
C2041 C 0.94628 0.24657 0.26057 0.0
C2042 C 0.99739 0.24756 0.23005 0.0
C2043 C 0.02235 0.24297 0.21143 0.0
C2044 C 0.04511 0.23412 0.21547 0.0
C2045 C 0.06852 0.22982 0.19785 0.0
C2046 C 0.06968 0.23434 0.17615 0.0
C2047 C 0.0475 0.24319 0.17205 0.0
C2048 C 0.024 0.24752 0.18961 0.0
C2049 C 0.02928 0.28359 0.28988 0.0
C2050 C 0.02734 0.29156 0.27399 0.0
C2051 C 0.01428 0.27405 0.284 0.0
C2052 C 0.99736 0.27234 0.26211 0.0
C2053 C 0.99444 0.28035 0.24647 0.0
C2054 C 0.00901 0.2899 0.25241 0.0
C2055 C 0.98488 0.26206 0.25504 0.0
C2056 C 0.00552 0.25755 0.23651 0.0
C2057 C 0.95464 0.25654 0.26713 0.0
C2058 C 0.93063 0.26109 0.2862 0.0
C2059 C 0.90879 0.27013 0.28285 0.0
C2060 C 0.88629 0.27438 0.30089 0.0
C2061 C 0.88515 0.26964 0.32234 0.0
C2062 C 0.90644 0.26061 0.32577 0.0
C2063 C 0.92903 0.25632 0.30778 0.0
H2064 H 0.86769 0.27294 0.33628 0.0
H2065 H 0.08784 0.23101 0.16253 0.0
H2066 H 0.25446 0.95619 0.29654 0.0
H2067 H 0.28002 0.97305 0.28661 0.0
H2068 H 0.16098 0.98084 0.25911 0.0
H2069 H 0.13513 0.96412 0.26921 0.0
H2070 H 0.2268 0.98475 0.2289 0.0
H2071 H 0.18768 0.99108 0.30718 0.0
H2072 H 0.18661 0.98813 0.34905 0.0
H2073 H 0.31724 0.99267 0.35218 0.0
H2074 H 0.31918 0.99551 0.31024 0.0
H2075 H 0.26151 0.03732 0.2108 0.0
H2076 H 0.23423 0.0208 0.22185 0.0
H2077 H 0.34687 0.01425 0.2582 0.0
H2078 H 0.37385 0.03078 0.24763 0.0
H2079 H 0.28314 0.00969 0.28412 0.0
H2080 H 0.32366 0.00303 0.20636 0.0
H2081 H 0.32631 0.00571 0.16441 0.0
H2082 H 0.19567 0.0014 0.15998 0.0
H2083 H 0.19216 -0.00117 0.20197 0.0
C2084 C 0.23363 0.96155 0.28869 0.0
C2085 C 0.19283 0.95885 0.28367 0.0
C2086 C 0.24823 0.97116 0.28303 0.0
C2087 C 0.22234 0.97816 0.2721 0.0
C2088 C 0.18142 0.97553 0.26749 0.0
C2089 C 0.16668 0.96599 0.27339 0.0
C2090 C 0.23834 0.98808 0.26457 0.0
C2091 C 0.23864 0.99027 0.24096 0.0
C2092 C 0.25468 0.99513 0.28032 0.0
C2093 C 0.25363 0.99339 0.30552 0.0
C2094 C 0.21624 0.99135 0.31675 0.0
C2095 C 0.21546 0.98972 0.34051 0.0
C2096 C 0.25185 0.99018 0.35326 0.0
C2097 C 0.28908 0.9923 0.34228 0.0
C2098 C 0.29004 0.99392 0.31852 0.0
C2099 C 0.28057 0.03231 0.22093 0.0
C2100 C 0.31979 0.03533 0.22834 0.0
C2101 C 0.26501 0.02286 0.22721 0.0
C2102 C 0.2886 0.01626 0.24078 0.0
C2103 C 0.32806 0.01923 0.24781 0.0
C2104 C 0.3435 0.02866 0.24165 0.0
C2105 C 0.27183 0.00639 0.24835 0.0
C2106 C 0.27134 0.00419 0.27199 0.0
C2107 C 0.2556 -0.00071 0.2326 0.0
C2108 C 0.25759 0.00085 0.20735 0.0
C2109 C 0.29545 0.00274 0.19647 0.0
C2110 C 0.29712 0.00423 0.17268 0.0
C2111 C 0.26117 0.00376 0.15955 0.0
C2112 C 0.22348 0.00178 0.17018 0.0
C2113 C 0.22164 0.0003 0.19397 0.0
H2114 H 0.26253 0.0049 0.14113 0.0
H2115 H 0.25118 0.98892 0.37165 0.0
H2116 H 0.99567 0.04298 0.04175 0.0
H2117 H 0.01849 0.02698 0.02516 0.0
H2118 H 0.89629 0.01483 0.03307 0.0
H2119 H 0.87311 0.03084 0.04953 0.0
H2120 H 0.96056 0.00085 0.04285 0.0
H2121 H 0.91808 0.02419 0.98428 0.0
H2122 H 0.91784 0.04057 0.9642 0.0
H2123 H 0.04617 0.03719 0.94865 0.0
H2124 H 0.0474 0.02087 0.96907 0.0
H2125 H 0.97757 0.96066 0.96479 0.0
H2126 H 0.95152 0.97657 0.98036 0.0
H2127 H 0.07078 0.99017 0.97084 0.0
H2128 H 0.09703 0.97431 0.95518 0.0
H2129 H 0.00623 0.00343 0.96152 0.0
H2130 H 0.0493 0.98044 0.02099 0.0
H2131 H 0.0501 0.96414 0.0414 0.0
H2132 H 0.92094 0.96696 0.05538 0.0
H2133 H 0.91923 0.9832 0.03468 0.0
C2134 C 0.97393 0.03682 0.04052 0.0
C2135 C 0.93255 0.03816 0.04675 0.0
C2136 C 0.98695 0.02772 0.03092 0.0
C2137 C 0.95884 0.01982 0.02758 0.0
C2138 C 0.91832 0.02087 0.03544 0.0
C2139 C 0.90516 0.03001 0.04483 0.0
C2140 C 0.97084 0.01082 0.01421 0.0
C2141 C 0.97007 0.00138 0.025 0.0
C2142 C 0.9837 0.0116 0.99101 0.0
C2143 C 0.98294 0.02135 0.97843 0.0
C2144 C 0.94635 0.02697 0.97676 0.0
C2145 C 0.94601 0.03624 0.9653 0.0
C2146 C 0.98198 0.03993 0.9552 0.0
C2147 C 0.01834 0.03433 0.95651 0.0
C2148 C 0.01888 0.02507 0.96803 0.0
C2149 C 0.99796 0.96711 0.96549 0.0
C2150 C 0.03943 0.96623 0.95901 0.0
C2151 C 0.98309 0.97617 0.97447 0.0
C2152 C 0.00948 0.98446 0.9771 0.0
C2153 C 0.05002 0.98384 0.96902 0.0
C2154 C 0.06496 0.97477 0.96012 0.0
C2155 C 0.99605 0.99345 0.99017 0.0
C2156 C 0.99658 0.00289 0.97934 0.0
C2157 C 0.98299 0.99268 0.01335 0.0
C2158 C 0.98404 0.98298 0.02607 0.0
C2159 C 0.021 0.97755 0.02826 0.0
C2160 C 0.02163 0.96832 0.0399 0.0
C2161 C 0.98557 0.9645 0.04963 0.0
C2162 C 0.94883 0.96992 0.0478 0.0
C2163 C 0.94801 0.97913 0.03612 0.0
H2164 H 0.98612 0.95736 0.05864 0.0
H2165 H 0.98165 0.0471 0.94632 0.0
H2166 H 0.23664 0.20369 0.03836 0.0
H2167 H 0.20984 0.21939 0.02207 0.0
H2168 H 0.33117 0.23248 0.02504 0.0
H2169 H 0.35813 0.21683 0.04144 0.0
H2170 H 0.27186 0.24588 0.03807 0.0
H2171 H 0.29683 0.22305 0.9756 0.0
H2172 H 0.29103 0.20705 0.95425 0.0
H2173 H 0.1602 0.21094 0.94946 0.0
H2174 H 0.16515 0.2269 0.97112 0.0
H2175 H 0.24433 0.28622 0.96114 0.0
H2176 H 0.26954 0.27007 0.97575 0.0
H2177 H 0.14572 0.25842 0.97608 0.0
H2178 H 0.12018 0.27458 0.96148 0.0
H2179 H 0.20527 0.24426 0.96127 0.0
H2180 H 0.18121 0.26728 0.02381 0.0
H2181 H 0.18823 0.28347 0.04429 0.0
H2182 H 0.31897 0.27926 0.04834 0.0
H2183 H 0.3128 0.26312 0.0275 0.0
C2184 C 0.25747 0.20996 0.03585 0.0
C2185 C 0.2995 0.20903 0.04106 0.0
C2186 C 0.24217 0.2189 0.02643 0.0
C2187 C 0.26867 0.22703 0.02203 0.0
C2188 C 0.31026 0.22628 0.02822 0.0
C2189 C 0.3256 0.21734 0.03758 0.0
C2190 C 0.25343 0.23618 0.01019 0.0
C2191 C 0.25771 0.24554 0.02118 0.0
C2192 C 0.23439 0.2357 0.98829 0.0
C2193 C 0.23132 0.22612 0.9752 0.0
C2194 C 0.26678 0.22045 0.97017 0.0
C2195 C 0.26366 0.2114 0.95798 0.0
C2196 C 0.22526 0.20797 0.95055 0.0
C2197 C 0.18992 0.2136 0.95526 0.0
C2198 C 0.19286 0.22265 0.96748 0.0
C2199 C 0.22256 0.28016 0.9639 0.0
C2200 C 0.18025 0.28167 0.96037 0.0
C2201 C 0.23699 0.27096 0.97232 0.0
C2202 C 0.20937 0.26313 0.97729 0.0
C2203 C 0.16745 0.2644 0.9724 0.0
C2204 C 0.15294 0.27362 0.96411 0.0
C2205 C 0.22384 0.25392 0.98915 0.0
C2206 C 0.21938 0.24457 0.97818 0.0
C2207 C 0.24285 0.25441 0.01103 0.0
C2208 C 0.24658 0.26404 0.02389 0.0
C2209 C 0.21149 0.26984 0.02892 0.0
C2210 C 0.21531 0.27901 0.0406 0.0
C2211 C 0.25403 0.2824 0.04756 0.0
C2212 C 0.289 0.27662 0.04291 0.0
C2213 C 0.28536 0.26746 0.03117 0.0
H2214 H 0.25693 0.28951 0.0566 0.0
H2215 H 0.22291 0.20096 0.94111 0.0
H2216 H 0.89505 0.7219 0.70624 0.0
H2217 H 0.92473 0.73794 0.71833 0.0
H2218 H 0.04413 0.72394 0.72392 0.0
H2219 H 0.0144 0.70779 0.71216 0.0
H2220 H 0.02554 0.7338 0.76218 0.0
H2221 H 0.02413 0.7415 0.68223 0.0
H2222 H 0.99561 0.7432 0.64312 0.0
H2223 H 0.90701 0.76464 0.66773 0.0
H2224 H 0.93458 0.76296 0.70708 0.0
H2225 H 0.12909 0.78075 0.78295 0.0
H2226 H 0.10596 0.76451 0.76765 0.0
H2227 H 0.98093 0.77538 0.76648 0.0
H2228 H 0.00378 0.79162 0.78186 0.0
H2229 H 0.00668 0.76709 0.72476 0.0
H2230 H 0.00704 0.75848 0.80526 0.0
H2231 H 0.03727 0.75685 0.84399 0.0
H2232 H 0.13048 0.73711 0.81732 0.0
H2233 H 0.10111 0.73874 0.77835 0.0
C2234 C 0.92779 0.72228 0.70958 0.0
C2235 C 0.95239 0.71359 0.70835 0.0
C2236 C 0.94475 0.73147 0.71643 0.0
C2237 C 0.98669 0.73215 0.72198 0.0
C2238 C 0.01169 0.72357 0.71975 0.0
C2239 C 0.99471 0.71437 0.71293 0.0
C2240 C 0.00346 0.74156 0.73201 0.0
C2241 C 0.02211 0.74105 0.75378 0.0
C2242 C 0.99812 0.75105 0.72129 0.0
C2243 C 0.9812 0.75203 0.69767 0.0
C2244 C 0.9983 0.7465 0.67936 0.0
C2245 C 0.98236 0.74748 0.65713 0.0
C2246 C 0.94946 0.754 0.65296 0.0
C2247 C 0.93247 0.75958 0.671 0.0
C2248 C 0.94827 0.75863 0.69326 0.0
C2249 C 0.09658 0.77961 0.7798 0.0
C2250 C 0.0682 0.78743 0.78359 0.0
C2251 C 0.08345 0.77035 0.77106 0.0
C2252 C 0.04178 0.76878 0.76592 0.0
C2253 C 0.01324 0.77648 0.7703 0.0
C2254 C 0.02629 0.78571 0.77922 0.0
C2255 C 0.02823 0.75929 0.75493 0.0
C2256 C 0.01026 0.7598 0.73302 0.0
C2257 C 0.03442 0.7498 0.76543 0.0
C2258 C 0.05214 0.74883 0.78884 0.0
C2259 C 0.03421 0.75387 0.80761 0.0
C2260 C 0.05114 0.75293 0.82962 0.0
C2261 C 0.08585 0.74691 0.8331 0.0
C2262 C 0.10364 0.74179 0.81459 0.0
C2263 C 0.08684 0.74271 0.79254 0.0
H2264 H 0.0989 0.74618 0.85015 0.0
H2265 H 0.93718 0.75476 0.63573 0.0
H2266 H 0.61433 0.96859 0.76811 0.0
H2267 H 0.64549 0.98473 0.75773 0.0
H2268 H 0.76215 0.97458 0.78443 0.0
H2269 H 0.73118 0.95836 0.79484 0.0
H2270 H 0.74259 0.99478 0.79594 0.0
H2271 H 0.74755 0.97315 0.72936 0.0
H2272 H 0.71789 0.96179 0.70016 0.0
H2273 H 0.63766 0.98546 0.67717 0.0
H2274 H 0.66639 0.99692 0.70651 0.0
H2275 H 0.87561 0.02909 0.74063 0.0
H2276 H 0.84166 0.01356 0.75288 0.0
H2277 H 0.72816 0.02374 0.72222 0.0
H2278 H 0.762 0.03934 0.70987 0.0
H2279 H 0.74435 0.00376 0.71302 0.0
H2280 H 0.73845 0.02549 0.77824 0.0
H2281 H 0.76423 0.03697 0.80831 0.0
H2282 H 0.84286 0.01359 0.83429 0.0
H2283 H 0.81796 0.00198 0.80414 0.0
C2284 C 0.6465 0.96984 0.77204 0.0
C2285 C 0.67044 0.96221 0.78215 0.0
C2286 C 0.66424 0.97904 0.76603 0.0
C2287 C 0.70617 0.98077 0.77007 0.0
C2288 C 0.72974 0.97335 0.78114 0.0
C2289 C 0.71205 0.9641 0.78703 0.0
C2290 C 0.72578 0.99013 0.76174 0.0
C2291 C 0.74352 0.9967 0.7778 0.0
C2292 C 0.72584 0.99271 0.73812 0.0
C2293 C 0.70883 0.98586 0.7203 0.0
C2294 C 0.72335 0.97591 0.71821 0.0
C2295 C 0.70674 0.96946 0.70161 0.0
C2296 C 0.67584 0.9729 0.68686 0.0
C2297 C 0.66156 0.98281 0.68863 0.0
C2298 C 0.67801 0.98928 0.70523 0.0
C2299 C 0.84352 0.02799 0.7363 0.0
C2300 C 0.82138 0.03543 0.72434 0.0
C2301 C 0.82413 0.01915 0.74344 0.0
C2302 C 0.78231 0.01759 0.73872 0.0
C2303 C 0.76044 0.02484 0.72609 0.0
C2304 C 0.77978 0.03373 0.71906 0.0
C2305 C 0.76143 0.00841 0.74721 0.0
C2306 C 0.74346 0.00186 0.73117 0.0
C2307 C 0.76091 0.00589 0.77088 0.0
C2308 C 0.77659 0.01289 0.78879 0.0
C2309 C 0.76156 0.02282 0.7902 0.0
C2310 C 0.77592 0.02934 0.80731 0.0
C2311 C 0.80509 0.026 0.82322 0.0
C2312 C 0.82018 0.01615 0.82197 0.0
C2313 C 0.80594 0.0096 0.80489 0.0
H2314 H 0.81596 0.03104 0.83654 0.0
H2315 H 0.66301 0.96789 0.67402 0.0
H2316 H 0.64288 0.7741 0.95128 0.0
H2317 H 0.67135 0.75856 0.96722 0.0
H2318 H 0.79347 0.77111 0.96336 0.0
H2319 H 0.76518 0.78678 0.94756 0.0
H2320 H 0.78539 0.74915 0.95335 0.0
H2321 H 0.74996 0.77466 0.00943 0.0
H2322 H 0.7015 0.78718 0.02523 0.0
H2323 H 0.61553 0.76359 0.04086 0.0
H2324 H 0.66293 0.75096 0.02442 0.0
H2325 H 0.88374 0.71937 0.03555 0.0
H2326 H 0.85702 0.73489 0.0186 0.0
H2327 H 0.73301 0.72404 0.02739 0.0
H2328 H 0.75954 0.70841 0.04435 0.0
H2329 H 0.74196 0.74523 0.03484 0.0
H2330 H 0.77324 0.71994 0.97858 0.0
H2331 H 0.81611 0.70716 0.95929 0.0
H2332 H 0.90581 0.72978 0.94279 0.0
H2333 H 0.86366 0.74269 0.96228 0.0
C2334 C 0.67591 0.77346 0.95319 0.0
C2335 C 0.7018 0.7817 0.94851 0.0
C2336 C 0.69208 0.76459 0.96231 0.0
C2337 C 0.73432 0.7638 0.96675 0.0
C2338 C 0.76074 0.77163 0.96007 0.0
C2339 C 0.74453 0.78056 0.95109 0.0
C2340 C 0.74991 0.75545 0.98107 0.0
C2341 C 0.77644 0.74835 0.97123 0.0
C2342 C 0.73731 0.75437 0.00426 0.0
C2343 C 0.70983 0.76187 0.01544 0.0
C2344 C 0.72059 0.77214 0.01607 0.0
C2345 C 0.69324 0.77927 0.02504 0.0
C2346 C 0.65535 0.77619 0.0339 0.0
C2347 C 0.64484 0.76597 0.03391 0.0
C2348 C 0.67191 0.75882 0.02472 0.0
C2349 C 0.85074 0.72038 0.03444 0.0
C2350 C 0.82371 0.71263 0.04101 0.0
C2351 C 0.83556 0.72924 0.02469 0.0
C2352 C 0.79315 0.7305 0.02141 0.0
C2353 C 0.76588 0.72316 0.02973 0.0
C2354 C 0.78107 0.71425 0.0394 0.0
C2355 C 0.77778 0.73893 0.00716 0.0
C2356 C 0.75119 0.74605 0.017 0.0
C2357 C 0.79006 0.74 0.98389 0.0
C2358 C 0.81552 0.73226 0.97212 0.0
C2359 C 0.80229 0.72218 0.97103 0.0
C2360 C 0.82642 0.7149 0.96003 0.0
C2361 C 0.86373 0.71764 0.94989 0.0
C2362 C 0.87693 0.72766 0.95069 0.0
C2363 C 0.85292 0.73497 0.9617 0.0
H2364 H 0.88234 0.712 0.94135 0.0
H2365 H 0.63429 0.78171 0.04092 0.0
H2366 H 0.24315 0.53773 0.70431 0.0
H2367 H 0.22118 0.52125 0.71862 0.0
H2368 H 0.34438 0.50981 0.70991 0.0
H2369 H 0.36663 0.52627 0.69553 0.0
H2370 H 0.28309 0.49566 0.69869 0.0
H2371 H 0.31941 0.51814 0.76018 0.0
H2372 H 0.31666 0.53417 0.78163 0.0
H2373 H 0.18777 0.52979 0.79419 0.0
H2374 H 0.18958 0.51382 0.77242 0.0
H2375 H 0.26271 0.45403 0.77411 0.0
H2376 H 0.28898 0.46998 0.75874 0.0
H2377 H 0.16949 0.48355 0.76783 0.0
H2378 H 0.14313 0.46769 0.78328 0.0
H2379 H 0.23207 0.49652 0.7792 0.0
H2380 H 0.19529 0.47435 0.71676 0.0
H2381 H 0.19757 0.45848 0.69469 0.0
H2382 H 0.32725 0.46231 0.68382 0.0
H2383 H 0.32585 0.47814 0.70616 0.0
C2384 C 0.26533 0.53164 0.70491 0.0
C2385 C 0.30669 0.5333 0.69904 0.0
C2386 C 0.25279 0.52225 0.71318 0.0
C2387 C 0.28139 0.5144 0.71569 0.0
C2388 C 0.32195 0.5158 0.70819 0.0
C2389 C 0.33458 0.52521 0.70001 0.0
C2390 C 0.26984 0.50506 0.72797 0.0
C2391 C 0.27242 0.49581 0.71637 0.0
C2392 C 0.25558 0.50532 0.75097 0.0
C2393 C 0.25455 0.51483 0.76447 0.0
C2394 C 0.29041 0.52063 0.76737 0.0
C2395 C 0.28903 0.5297 0.7796 0.0
C2396 C 0.25205 0.53301 0.78922 0.0
C2397 C 0.21639 0.52723 0.7867 0.0
C2398 C 0.21757 0.51816 0.77442 0.0
C2399 C 0.2423 0.46047 0.77324 0.0
C2400 C 0.20082 0.45961 0.77972 0.0
C2401 C 0.25726 0.46955 0.76435 0.0
C2402 C 0.23096 0.47788 0.76183 0.0
C2403 C 0.19022 0.4772 0.76956 0.0
C2404 C 0.17521 0.46813 0.77835 0.0
C2405 C 0.24496 0.48711 0.74987 0.0
C2406 C 0.24291 0.49635 0.76155 0.0
C2407 C 0.25971 0.48683 0.72695 0.0
C2408 C 0.26055 0.47737 0.71335 0.0
C2409 C 0.22435 0.47177 0.70982 0.0
C2410 C 0.22547 0.46279 0.69724 0.0
C2411 C 0.26255 0.45938 0.68791 0.0
C2412 C 0.29856 0.46496 0.69109 0.0
C2413 C 0.29762 0.47393 0.70371 0.0
H2414 H 0.26335 0.45242 0.67817 0.0
H2415 H 0.25104 0.54004 0.79867 0.0
H2416 H 0.01166 0.46 0.44979 0.0
H2417 H 0.9874 0.47675 0.4611 0.0
H2418 H 0.10699 0.48358 0.48924 0.0
H2419 H 0.13143 0.46684 0.47803 0.0
H2420 H 0.04521 0.48774 0.51946 0.0
H2421 H 0.07681 0.49489 0.44094 0.0
H2422 H 0.07553 0.49238 0.39893 0.0
H2423 H 0.94441 0.49624 0.39856 0.0
H2424 H 0.94482 0.49863 0.44066 0.0
H2425 H 0.00158 0.54004 0.53916 0.0
H2426 H 0.03224 0.52415 0.52607 0.0
H2427 H 0.91545 0.51507 0.49758 0.0
H2428 H 0.88466 0.53088 0.51061 0.0
H2429 H 0.97951 0.51252 0.46712 0.0
H2430 H 0.94777 0.50454 0.54578 0.0
H2431 H 0.94894 0.50697 0.58783 0.0
H2432 H 0.08066 0.50464 0.58779 0.0
H2433 H 0.08032 0.50235 0.54566 0.0
C2434 C 0.03293 0.46513 0.45809 0.0
C2435 C 0.07341 0.46212 0.46304 0.0
C2436 C 0.01907 0.47469 0.46451 0.0
C2437 C 0.04547 0.4814 0.47595 0.0
C2438 C 0.08616 0.4785 0.48044 0.0
C2439 C 0.1001 0.46896 0.47393 0.0
C2440 C 0.02991 0.49124 0.48428 0.0
C2441 C 0.03149 0.49325 0.50797 0.0
C2442 C 0.01122 0.49829 0.46932 0.0
C2443 C 0.01081 0.49685 0.444 0.0
C2444 C 0.04765 0.49512 0.43194 0.0
C2445 C 0.04709 0.49373 0.4081 0.0
C2446 C 0.0099 0.49412 0.39609 0.0
C2447 C 0.9732 0.49593 0.4079 0.0
C2448 C 0.97358 0.49731 0.43174 0.0
C2449 C 0.98241 0.53461 0.53028 0.0
C2450 C 0.94075 0.53668 0.52593 0.0
C2451 C 0.99993 0.52555 0.52283 0.0
C2452 C 0.97605 0.51845 0.51088 0.0
C2453 C 0.93439 0.52047 0.50671 0.0
C2454 C 0.91682 0.52948 0.51428 0.0
C2455 C 0.99456 0.50898 0.50229 0.0
C2456 C 0.9935 0.50704 0.47856 0.0
C2457 C 0.01374 0.50199 0.51721 0.0
C2458 C 0.01405 0.50339 0.54253 0.0
C2459 C 0.97702 0.50465 0.55471 0.0
C2460 C 0.97752 0.50598 0.57856 0.0
C2461 C 0.01486 0.50599 0.59047 0.0
C2462 C 0.05177 0.50465 0.57854 0.0
C2463 C 0.05144 0.50333 0.55467 0.0
H2464 H 0.01518 0.50701 0.60894 0.0
H2465 H 0.00954 0.49306 0.37764 0.0
H2466 H 0.36283 0.71933 0.5402 0.0
H2467 H 0.33184 0.73546 0.52969 0.0
H2468 H 0.21906 0.72025 0.51158 0.0
H2469 H 0.25025 0.70404 0.52167 0.0
H2470 H 0.24184 0.73283 0.47841 0.0
H2471 H 0.22544 0.73511 0.55989 0.0
H2472 H 0.24684 0.73451 0.60056 0.0
H2473 H 0.33285 0.75851 0.58866 0.0
H2474 H 0.31237 0.75917 0.54783 0.0
H2475 H 0.12772 0.77857 0.46411 0.0
H2476 H 0.15258 0.76203 0.4767 0.0
H2477 H 0.27087 0.775 0.49266 0.0
H2478 H 0.24619 0.79155 0.48022 0.0
H2479 H 0.24145 0.76336 0.52772 0.0
H2480 H 0.25953 0.76047 0.44584 0.0
H2481 H 0.23784 0.76103 0.40521 0.0
H2482 H 0.14765 0.73808 0.41824 0.0
H2483 H 0.16844 0.73749 0.45905 0.0
C2484 C 0.33123 0.71944 0.5343 0.0
C2485 C 0.30894 0.71043 0.53174 0.0
C2486 C 0.3135 0.72866 0.52836 0.0
C2487 C 0.27302 0.72907 0.52 0.0
C2488 C 0.25034 0.72011 0.518 0.0
C2489 C 0.26812 0.71086 0.52386 0.0
C2490 C 0.25534 0.73878 0.51208 0.0
C2491 C 0.24105 0.73946 0.48934 0.0
C2492 C 0.25522 0.74749 0.52616 0.0
C2493 C 0.2676 0.74713 0.55073 0.0
C2494 C 0.24915 0.74021 0.56589 0.0
C2495 C 0.26107 0.73987 0.58899 0.0
C2496 C 0.29125 0.74646 0.59718 0.0
C2497 C 0.3095 0.75341 0.58229 0.0
C2498 C 0.29771 0.75378 0.55917 0.0
C2499 C 0.15915 0.77787 0.47008 0.0
C2500 C 0.18505 0.78634 0.47117 0.0
C2501 C 0.17331 0.76842 0.47724 0.0
C2502 C 0.2136 0.7673 0.48555 0.0
C2503 C 0.23965 0.77572 0.48635 0.0
C2504 C 0.22557 0.78515 0.47912 0.0
C2505 C 0.2283 0.7574 0.49405 0.0
C2506 C 0.24201 0.7567 0.51688 0.0
C2507 C 0.22778 0.74867 0.48008 0.0
C2508 C 0.21523 0.74902 0.45555 0.0
C2509 C 0.23482 0.75561 0.44009 0.0
C2510 C 0.22275 0.75592 0.41702 0.0
C2511 C 0.19131 0.74961 0.40916 0.0
C2512 C 0.17195 0.74297 0.42435 0.0
C2513 C 0.18389 0.74264 0.44745 0.0
H2514 H 0.18201 0.74986 0.39129 0.0
H2515 H 0.30044 0.74618 0.61506 0.0
H2516 H 0.63222 0.46125 0.25609 0.0
H2517 H 0.65649 0.47774 0.24295 0.0
H2518 H 0.76135 0.47543 0.28809 0.0
H2519 H 0.73757 0.45883 0.30111 0.0
H2520 H 0.71827 0.49455 0.28901 0.0
H2521 H 0.77707 0.4708 0.23505 0.0
H2522 H 0.77393 0.45689 0.20697 0.0
H2523 H 0.69386 0.47443 0.16396 0.0
H2524 H 0.69602 0.4884 0.19199 0.0
H2525 H 0.85579 0.53085 0.24537 0.0
H2526 H 0.82493 0.51479 0.25664 0.0
H2527 H 0.72636 0.51953 0.20816 0.0
H2528 H 0.75674 0.53578 0.19707 0.0
H2529 H 0.7611 0.49954 0.20783 0.0
H2530 H 0.70405 0.52349 0.2588 0.0
H2531 H 0.7014 0.53744 0.28672 0.0
H2532 H 0.77047 0.51981 0.33517 0.0
H2533 H 0.77483 0.50588 0.30723 0.0
C2534 C 0.66032 0.46428 0.26333 0.0
C2535 C 0.68309 0.45877 0.27961 0.0
C2536 C 0.67417 0.47367 0.25574 0.0
C2537 C 0.71078 0.47773 0.26447 0.0
C2538 C 0.73303 0.47238 0.28117 0.0
C2539 C 0.71948 0.46292 0.28854 0.0
C2540 C 0.72614 0.48753 0.25595 0.0
C2541 C 0.7282 0.49563 0.27136 0.0
C2542 C 0.73741 0.48896 0.23268 0.0
C2543 C 0.73633 0.4806 0.21574 0.0
C2544 C 0.75849 0.47166 0.21971 0.0
C2545 C 0.75695 0.46377 0.20378 0.0
C2546 C 0.7336 0.46477 0.18372 0.0
C2547 C 0.71186 0.47367 0.17952 0.0
C2548 C 0.71326 0.48157 0.19542 0.0
C2549 C 0.82771 0.52845 0.23698 0.0
C2550 C 0.80859 0.53455 0.22037 0.0
C2551 C 0.81007 0.5193 0.24349 0.0
C2552 C 0.7733 0.51604 0.23332 0.0
C2553 C 0.75475 0.52195 0.2162 0.0
C2554 C 0.77205 0.53121 0.20993 0.0
C2555 C 0.75409 0.50653 0.24105 0.0
C2556 C 0.75117 0.49848 0.22549 0.0
C2557 C 0.74148 0.50517 0.26413 0.0
C2558 C 0.74026 0.51367 0.28075 0.0
C2559 C 0.71936 0.52265 0.27524 0.0
C2560 C 0.71748 0.53055 0.29109 0.0
C2561 C 0.7359 0.52954 0.31267 0.0
C2562 C 0.75638 0.52062 0.3184 0.0
C2563 C 0.75867 0.51272 0.30253 0.0
H2564 H 0.73407 0.53564 0.32496 0.0
H2565 H 0.73245 0.45865 0.17141 0.0
H2566 H 0.74547 0.20646 0.53342 0.0
H2567 H 0.71627 0.22198 0.51755 0.0
H2568 H 0.83736 0.23519 0.51468 0.0
H2569 H 0.86685 0.21967 0.53043 0.0
H2570 H 0.77575 0.24872 0.52944 0.0
H2571 H 0.80213 0.22529 0.46817 0.0
H2572 H 0.79793 0.20886 0.44846 0.0
H2573 H 0.6664 0.21142 0.44535 0.0
H2574 H 0.66977 0.2278 0.46542 0.0
H2575 H 0.73727 0.28783 0.45087 0.0
H2576 H 0.76646 0.27207 0.46539 0.0
H2577 H 0.64508 0.25905 0.46866 0.0
H2578 H 0.61556 0.27481 0.45422 0.0
H2579 H 0.70677 0.2454 0.45356 0.0
H2580 H 0.68041 0.2688 0.515 0.0
H2581 H 0.68467 0.28528 0.53451 0.0
H2582 H 0.81624 0.28277 0.53727 0.0
H2583 H 0.81281 0.26635 0.51737 0.0
C2584 C 0.76577 0.21274 0.52983 0.0
C2585 C 0.80845 0.21185 0.53301 0.0
C2586 C 0.74908 0.22157 0.52067 0.0
C2587 C 0.77479 0.22965 0.51467 0.0
C2588 C 0.81709 0.22901 0.51914 0.0
C2589 C 0.83385 0.22015 0.52811 0.0
C2590 C 0.75794 0.2385 0.50243 0.0
C2591 C 0.76108 0.24802 0.51275 0.0
C2592 C 0.73829 0.23752 0.4808 0.0
C2593 C 0.73617 0.22772 0.46853 0.0
C2594 C 0.77228 0.22231 0.46347 0.0
C2595 C 0.77006 0.21301 0.4522 0.0
C2596 C 0.73191 0.20908 0.44571 0.0
C2597 C 0.69592 0.21446 0.45042 0.0
C2598 C 0.69797 0.22376 0.46174 0.0
C2599 C 0.71688 0.28154 0.45418 0.0
C2600 C 0.67411 0.28256 0.45163 0.0
C2601 C 0.73358 0.27257 0.46256 0.0
C2602 C 0.7078 0.26448 0.4684 0.0
C2603 C 0.66541 0.26523 0.4643 0.0
C2604 C 0.64863 0.27423 0.45609 0.0
C2605 C 0.72461 0.25561 0.48058 0.0
C2606 C 0.72145 0.24609 0.47025 0.0
C2607 C 0.74424 0.25659 0.50221 0.0
C2608 C 0.74638 0.26639 0.51447 0.0
C2609 C 0.71028 0.2718 0.5196 0.0
C2610 C 0.71253 0.28112 0.53074 0.0
C2611 C 0.75071 0.28508 0.53707 0.0
C2612 C 0.7867 0.27971 0.53232 0.0
C2613 C 0.78461 0.27039 0.52111 0.0
H2614 H 0.75239 0.2923 0.5457 0.0
H2615 H 0.73026 0.20188 0.43698 0.0
H2616 H 0.49393 0.29237 0.78409 0.0
H2617 H 0.46384 0.27615 0.7731 0.0
H2618 H 0.5852 0.26421 0.76042 0.0
H2619 H 0.61542 0.28041 0.77118 0.0
H2620 H 0.53346 0.26041 0.72501 0.0
H2621 H 0.5315 0.257 0.80731 0.0
H2622 H 0.5152 0.26204 0.84711 0.0
H2623 H 0.38622 0.2616 0.83126 0.0
H2624 H 0.40179 0.2567 0.79125 0.0
H2625 H 0.48582 0.20822 0.71664 0.0
H2626 H 0.51267 0.22491 0.72631 0.0
H2627 H 0.38943 0.23537 0.74011 0.0
H2628 H 0.36245 0.21864 0.73082 0.0
H2629 H 0.44016 0.24024 0.77437 0.0
H2630 H 0.44176 0.24317 0.69235 0.0
H2631 H 0.45792 0.23816 0.65253 0.0
H2632 H 0.58708 0.23956 0.6676 0.0
H2633 H 0.57169 0.24445 0.70763 0.0
C2634 C 0.51419 0.28625 0.77924 0.0
C2635 C 0.557 0.28764 0.7785 0.0
C2636 C 0.49698 0.27699 0.77299 0.0
C2637 C 0.52233 0.26898 0.766 0.0
C2638 C 0.56512 0.27031 0.7657 0.0
C2639 C 0.58232 0.27955 0.77197 0.0
C2640 C 0.50427 0.25932 0.75818 0.0
C2641 C 0.51346 0.25593 0.73589 0.0
C2642 C 0.47728 0.25364 0.77217 0.0
C2643 C 0.46785 0.25659 0.79621 0.0
C2644 C 0.49968 0.25807 0.81225 0.0
C2645 C 0.49057 0.26088 0.83486 0.0
C2646 C 0.4497 0.26217 0.84169 0.0
C2647 C 0.41786 0.26062 0.82593 0.0
C2648 C 0.42681 0.25782 0.80329 0.0
C2649 C 0.46441 0.21412 0.72142 0.0
C2650 C 0.42206 0.21214 0.723 0.0
C2651 C 0.47977 0.22366 0.72689 0.0
C2652 C 0.45301 0.2314 0.73382 0.0
C2653 C 0.4106 0.22949 0.73483 0.0
C2654 C 0.39523 0.21995 0.72943 0.0
C2655 C 0.46949 0.2413 0.74121 0.0
C2656 C 0.46001 0.24474 0.76343 0.0
C2657 C 0.49618 0.24703 0.72714 0.0
C2658 C 0.50555 0.24409 0.70306 0.0
C2659 C 0.47361 0.24233 0.68724 0.0
C2660 C 0.48263 0.23953 0.66461 0.0
C2661 C 0.5235 0.23851 0.65755 0.0
C2662 C 0.55544 0.24033 0.6731 0.0
C2663 C 0.54658 0.24313 0.69575 0.0
H2664 H 0.53042 0.23635 0.64002 0.0
H2665 H 0.44271 0.26434 0.85921 0.0
H2666 H 0.41221 0.02634 0.5476 0.0
H2667 H 0.44471 0.01073 0.53491 0.0
H2668 H 0.56066 0.02625 0.52782 0.0
H2669 H 0.52802 0.04199 0.54025 0.0
H2670 H 0.54281 0.01609 0.48985 0.0
H2671 H 0.54641 0.00844 0.56949 0.0
H2672 H 0.52108 0.00636 0.60917 0.0
H2673 H 0.43574 0.98376 0.58639 0.0
H2674 H 0.46001 0.98583 0.54649 0.0
H2675 H 0.64505 0.9691 0.46429 0.0
H2676 H 0.62446 0.98523 0.48135 0.0
H2677 H 0.49898 0.97483 0.48532 0.0
H2678 H 0.51921 0.95874 0.46816 0.0
H2679 H 0.52971 0.98256 0.52691 0.0
H2680 H 0.52267 0.99177 0.44657 0.0
H2681 H 0.55005 0.9937 0.40726 0.0
H2682 H 0.64502 0.01327 0.43258 0.0
H2683 H 0.61851 0.01134 0.47211 0.0
C2684 C 0.44481 0.02639 0.54375 0.0
C2685 C 0.46757 0.03538 0.54482 0.0
C2686 C 0.46341 0.01745 0.53659 0.0
C2687 C 0.50519 0.0173 0.53053 0.0
C2688 C 0.52838 0.0262 0.53244 0.0
C2689 C 0.50976 0.03516 0.53962 0.0
C2690 C 0.52338 0.00809 0.52027 0.0
C2691 C 0.5407 0.00879 0.49819 0.0
C2692 C 0.51995 0.99854 0.53095 0.0
C2693 C 0.5048 0.99737 0.55491 0.0
C2694 C 0.52192 0.0031 0.57288 0.0
C2695 C 0.50781 0.00191 0.59543 0.0
C2696 C 0.47675 0.99495 0.60029 0.0
C2697 C 0.45976 0.98916 0.5826 0.0
C2698 C 0.4737 0.99034 0.56001 0.0
C2699 C 0.61297 0.97033 0.46846 0.0
C2700 C 0.5837 0.96269 0.4649 0.0
C2701 C 0.6013 0.97952 0.47822 0.0
C2702 C 0.56026 0.98118 0.48463 0.0
C2703 C 0.53083 0.97366 0.48054 0.0
C2704 C 0.54238 0.96451 0.4706 0.0
C2705 C 0.54813 0.99059 0.49644 0.0
C2706 C 0.53209 0.9899 0.51878 0.0
C2707 C 0.55295 0.00015 0.48609 0.0
C2708 C 0.5689 0.00131 0.46233 0.0
C2709 C 0.54963 0.99641 0.44379 0.0
C2710 C 0.56493 0.99752 0.42146 0.0
C2711 C 0.59933 0.00358 0.41744 0.0
C2712 C 0.61842 0.00856 0.43573 0.0
C2713 C 0.60326 0.00747 0.4581 0.0
H2714 H 0.61113 0.00443 0.40014 0.0
H2715 H 0.4659 0.99403 0.61776 0.0
H2716 H 0.63781 0.78266 0.27445 0.0
H2717 H 0.61231 0.76656 0.25991 0.0
H2718 H 0.48852 0.77507 0.27806 0.0
H2719 H 0.51373 0.79132 0.29243 0.0
H2720 H 0.51005 0.75394 0.28648 0.0
H2721 H 0.51246 0.77928 0.22704 0.0
H2722 H 0.54493 0.79274 0.20411 0.0
H2723 H 0.63618 0.77184 0.18007 0.0
H2724 H 0.6046 0.75829 0.20319 0.0
H2725 H 0.39591 0.72227 0.21466 0.0
H2726 H 0.42385 0.73819 0.22884 0.0
H2727 H 0.54616 0.72859 0.21038 0.0
H2728 H 0.51847 0.71252 0.1963 0.0
H2729 H 0.52687 0.75011 0.20195 0.0
H2730 H 0.52579 0.72487 0.26132 0.0
H2731 H 0.49321 0.7112 0.28353 0.0
H2732 H 0.40045 0.73177 0.30732 0.0
H2733 H 0.4322 0.74552 0.28498 0.0
C2734 C 0.60527 0.78103 0.27587 0.0
C2735 C 0.57767 0.78828 0.28438 0.0
C2736 C 0.59078 0.77184 0.26748 0.0
C2737 C 0.54855 0.76973 0.26765 0.0
C2738 C 0.52123 0.77661 0.27776 0.0
C2739 C 0.53567 0.78587 0.28595 0.0
C2740 C 0.5327 0.76078 0.25538 0.0
C2741 C 0.51334 0.75314 0.268 0.0
C2742 C 0.53776 0.75971 0.23129 0.0
C2743 C 0.55642 0.76779 0.21705 0.0
C2744 C 0.53965 0.77757 0.21702 0.0
C2745 C 0.55787 0.78522 0.20397 0.0
C2746 C 0.59269 0.78316 0.1907 0.0
C2747 C 0.60925 0.77343 0.19039 0.0
C2748 C 0.59119 0.76576 0.20346 0.0
C2749 C 0.42865 0.72362 0.21313 0.0
C2750 C 0.4551 0.71612 0.20458 0.0
C2751 C 0.44453 0.73271 0.22126 0.0
C2752 C 0.48703 0.73448 0.22084 0.0
C2753 C 0.51326 0.72733 0.21081 0.0
C2754 C 0.49741 0.71816 0.20284 0.0
C2755 C 0.50415 0.7433 0.23306 0.0
C2756 C 0.52372 0.75091 0.22044 0.0
C2757 C 0.49947 0.74434 0.25715 0.0
C2758 C 0.48114 0.73619 0.27132 0.0
C2759 C 0.49832 0.72646 0.2712 0.0
C2760 C 0.48001 0.71869 0.28382 0.0
C2761 C 0.44468 0.72059 0.29677 0.0
C2762 C 0.42777 0.73028 0.29727 0.0
C2763 C 0.44595 0.73808 0.28465 0.0
H2764 H 0.43051 0.71454 0.3064 0.0
H2765 H 0.60676 0.78909 0.18062 0.0
H2766 H 0.61405 0.46541 0.01088 0.0
H2767 H 0.5803 0.48139 0.01978 0.0
H2768 H 0.50927 0.47916 0.95729 0.0
H2769 H 0.54305 0.46309 0.94824 0.0
H2770 H 0.54116 0.49808 0.96351 0.0
H2771 H 0.46412 0.47427 0.00676 0.0
H2772 H 0.45093 0.46037 0.03389 0.0
H2773 H 0.50408 0.47766 0.08879 0.0
H2774 H 0.51824 0.49163 0.06189 0.0
H2775 H 0.39217 0.53506 0.99008 0.0
H2776 H 0.42598 0.51906 0.98183 0.0
H2777 H 0.50087 0.52242 0.04262 0.0
H2778 H 0.46689 0.53856 0.05108 0.0
H2779 H 0.46705 0.503 0.03732 0.0
H2780 H 0.54371 0.52696 0.99203 0.0
H2781 H 0.5508 0.54091 0.96424 0.0
H2782 H 0.49185 0.52303 0.91223 0.0
H2783 H 0.48412 0.50899 0.93979 0.0
C2784 C 0.59131 0.46832 -0.00102 0.0
C2785 C 0.58113 0.463 0.97885 0.0
C2786 C 0.57192 0.47743 0.00416 0.0
C2787 C 0.54203 0.48141 0.98931 0.0
C2788 C 0.53223 0.4762 0.969 0.0
C2789 C 0.55144 0.46703 0.96387 0.0
C2790 C 0.5213 0.49104 0.99501 0.0
C2791 C 0.52454 0.49912 0.97952 0.0
C2792 C 0.50019 0.49243 0.01608 0.0
C2793 C 0.49265 0.48397 0.03224 0.0
C2794 C 0.47346 0.47507 0.02456 0.0
C2795 C 0.46567 0.46719 0.03991 0.0
C2796 C 0.47661 0.46814 0.06305 0.0
C2797 C 0.49555 0.47695 0.07086 0.0
C2798 C 0.50349 0.48486 0.05557 0.0
C2799 C 0.41574 0.5324 0.00177 0.0
C2800 C 0.42696 0.53807 0.02123 0.0
C2801 C 0.43514 0.52327 0.99696 0.0
C2802 C 0.46619 0.51962 0.01148 0.0
C2803 C 0.47702 0.52515 0.03118 0.0
C2804 C 0.45771 0.53435 0.03596 0.0
C2805 C 0.48721 0.51002 0.00591 0.0
C2806 C 0.48393 0.50196 0.02139 0.0
C2807 C 0.50786 0.5086 0.98473 0.0
C2808 C 0.51314 0.51695 0.96801 0.0
C2809 C 0.53211 0.52602 0.97469 0.0
C2810 C 0.5363 0.53393 0.95898 0.0
C2811 C 0.52182 0.53285 0.93648 0.0
C2812 C 0.50315 0.52384 0.92964 0.0
C2813 C 0.49894 0.5159 0.94529 0.0
H2814 H 0.52503 0.53898 0.92434 0.0
H2815 H 0.47044 0.46204 0.07492 0.0
H2816 H 0.07252 0.33726 0.21286 0.0
H2817 H 0.07991 0.33932 0.17119 0.0
H2818 H 0.17527 0.31669 0.1706 0.0
H2819 H 0.16834 0.31466 0.21218 0.0
H2820 H 0.19209 0.33232 0.14094 0.0
H2821 H 0.0784 0.31011 0.1594 0.0
H2822 H 0.01276 0.30577 0.17821 0.0
H2823 H 0.95287 0.33014 0.14292 0.0
H2824 H 0.01837 0.33471 0.12415 0.0
H2825 H 0.18639 0.30973 0.0315 0.0
H2826 H 0.18473 0.31403 0.07229 0.0
H2827 H 0.08441 0.33465 0.05993 0.0
H2828 H 0.08537 0.33021 0.01901 0.0
H2829 H 0.06854 0.32288 0.09564 0.0
H2830 H 0.18145 0.34343 0.07254 0.0
H2831 H 0.24738 0.34735 0.05361 0.0
H2832 H 0.30925 0.32601 0.09708 0.0
H2833 H 0.24359 0.32185 0.11607 0.0
C2834 C 0.09551 0.33285 0.20388 0.0
C2835 C 0.11955 0.32572 0.21567 0.0
C2836 C 0.09965 0.33402 0.18011 0.0
C2837 C 0.12777 0.32806 0.16783 0.0
C2838 C 0.15339 0.32136 0.17978 0.0
C2839 C 0.14924 0.32017 0.20351 0.0
C2840 C 0.12822 0.32811 0.1424 0.0
C2841 C 0.16518 0.33024 0.13097 0.0
C2842 C 0.09277 0.32562 0.12948 0.0
C2843 C 0.05335 0.32283 0.1406 0.0
C2844 C 0.05129 0.31459 0.1558 0.0
C2845 C 0.01412 0.31208 0.16642 0.0
C2846 C 0.97869 0.3177 0.16181 0.0
C2847 C 0.98036 0.32581 0.14651 0.0
C2848 C 0.01749 0.32836 0.13587 0.0
C2849 C 0.16419 0.31525 0.03742 0.0
C2850 C 0.136 0.31965 0.02211 0.0
C2851 C 0.16345 0.31774 0.06072 0.0
C2852 C 0.13486 0.32478 0.06909 0.0
C2853 C 0.10685 0.32924 0.05379 0.0
C2854 C 0.10743 0.3267 0.03046 0.0
C2855 C 0.13267 0.32694 0.09405 0.0
C2856 C 0.09534 0.32519 0.10546 0.0
C2857 C 0.16784 0.32976 0.10691 0.0
C2858 C 0.2075 0.33229 0.09564 0.0
C2859 C 0.20906 0.33952 0.07797 0.0
C2860 C 0.2464 0.34179 0.06724 0.0
C2861 C 0.28247 0.33692 0.07412 0.0
C2862 C 0.28128 0.32978 0.09177 0.0
C2863 C 0.24402 0.32747 0.10255 0.0
H2864 H 0.31134 0.33869 0.06578 0.0
H2865 H 0.94993 0.31575 0.17006 0.0
H2866 H 0.17176 0.9297 0.02196 0.0
H2867 H 0.18017 0.92678 0.0632 0.0
H2868 H 0.04898 0.92964 0.07266 0.0
H2869 H 0.04061 0.93292 0.03155 0.0
H2870 H 0.08667 0.93992 0.10398 0.0
H2871 H 0.1 0.90638 0.0748 0.0
H2872 H 0.12748 0.89282 0.05017 0.0
H2873 H 0.24811 0.89745 0.07833 0.0
H2874 H 0.22146 0.91114 0.10291 0.0
H2875 H 0.07966 0.92108 0.21741 0.0
H2876 H 0.07253 0.92097 0.17553 0.0
H2877 H 0.20293 0.92597 0.1683 0.0
H2878 H 0.21032 0.92623 0.21029 0.0
H2879 H 0.16551 0.91117 0.13635 0.0
H2880 H 0.15 0.94531 0.16451 0.0
H2881 H 0.12012 0.95836 0.18967 0.0
H2882 H 0.99969 0.95178 0.16332 0.0
H2883 H 0.02882 0.93856 0.13826 0.0
C2884 C 0.14472 0.92966 0.03284 0.0
C2885 C 0.10553 0.93153 0.02361 0.0
C2886 C 0.14952 0.92793 0.05637 0.0
C2887 C 0.11513 0.92784 0.07098 0.0
C2888 C 0.07593 0.92965 0.06171 0.0
C2889 C 0.07118 0.93151 0.03823 0.0
C2890 C 0.12017 0.92631 0.09607 0.0
C2891 C 0.10337 0.93353 0.111 0.0
C2892 C 0.14267 0.91809 0.10527 0.0
C2893 C 0.15879 0.90985 0.09054 0.0
C2894 C 0.13245 0.90456 0.07561 0.0
C2895 C 0.14787 0.89684 0.06168 0.0
C2896 C 0.18953 0.89429 0.06264 0.0
C2897 C 0.21585 0.89944 0.07758 0.0
C2898 C 0.2006 0.90717 0.09154 0.0
C2899 C 0.10692 0.922 0.20692 0.0
C2900 C 0.14551 0.92374 0.21704 0.0
C2901 C 0.10277 0.92194 0.18304 0.0
C2902 C 0.13717 0.92353 0.16898 0.0
C2903 C 0.1761 0.92473 0.17898 0.0
C2904 C 0.18021 0.92491 0.2029 0.0
C2905 C 0.13187 0.92473 0.14394 0.0
C2906 C 0.14869 0.91749 0.12914 0.0
C2907 C 0.10903 0.93286 0.13481 0.0
C2908 C 0.09153 0.94087 0.14971 0.0
C2909 C 0.1171 0.94658 0.16423 0.0
C2910 C 0.10031 0.95402 0.17845 0.0
C2911 C 0.05802 0.95588 0.17815 0.0
C2912 C 0.03244 0.95032 0.16357 0.0
C2913 C 0.04907 0.94286 0.14935 0.0
H2914 H 0.04507 0.96164 0.18916 0.0
H2915 H 0.20141 0.88832 0.05184 0.0
H2916 H 0.82804 0.68987 0.78007 0.0
H2917 H 0.82431 0.68902 0.82205 0.0
H2918 H 0.94415 0.67507 0.82409 0.0
H2919 H 0.948 0.67584 0.78206 0.0
H2920 H 0.88939 0.66567 0.8525 0.0
H2921 H 0.93445 0.69939 0.83722 0.0
H2922 H 0.93194 0.71624 0.81939 0.0
H2923 H 0.81468 0.7218 0.8509 0.0
H2924 H 0.81618 0.7049 0.86865 0.0
H2925 H 0.92987 0.67328 0.97169 0.0
H2926 H 0.93267 0.67324 0.92963 0.0
H2927 H 0.81347 0.6875 0.92693 0.0
H2928 H 0.81055 0.68761 0.96896 0.0
H2929 H 0.86838 0.69667 0.89884 0.0
H2930 H 0.82349 0.66284 0.91405 0.0
H2931 H 0.82668 0.64602 0.93205 0.0
H2932 H 0.94449 0.64076 0.90091 0.0
H2933 H 0.94225 0.65761 0.88297 0.0
C2934 C 0.85355 0.6866 0.78947 0.0
C2935 C 0.88837 0.68295 0.77785 0.0
C2936 C 0.85144 0.68616 0.81342 0.0
C2937 C 0.88415 0.68208 0.82614 0.0
C2938 C 0.91864 0.67826 0.81455 0.0
C2939 C 0.92082 0.67873 0.79059 0.0
C2940 C 0.88235 0.68181 0.85156 0.0
C2941 C 0.88533 0.67245 0.86268 0.0
C2942 C 0.87623 0.69066 0.86472 0.0
C2943 C 0.87522 0.70083 0.85405 0.0
C2944 C 0.90794 0.70416 0.84018 0.0
C2945 C 0.90674 0.71373 0.83011 0.0
C2946 C 0.87312 0.72007 0.83395 0.0
C2947 C 0.84067 0.71687 0.84791 0.0
C2948 C 0.84169 0.7073 0.85798 0.0
C2949 C 0.90413 0.67633 0.96212 0.0
C2950 C 0.86995 0.68042 0.97356 0.0
C2951 C 0.90573 0.67628 0.93812 0.0
C2952 C 0.87312 0.68029 0.9252 0.0
C2953 C 0.8389 0.68435 0.9366 0.0
C2954 C 0.83722 0.68437 0.96059 0.0
C2955 C 0.87519 0.68052 0.89979 0.0
C2956 C 0.87236 0.68988 0.88867 0.0
C2957 C 0.88151 0.67168 0.88664 0.0
C2958 C 0.88288 0.66153 0.89735 0.0
C2959 C 0.85023 0.65813 0.91119 0.0
C2960 C 0.85184 0.64858 0.92136 0.0
C2961 C 0.88582 0.64234 0.91768 0.0
C2962 C 0.91821 0.64561 0.90377 0.0
C2963 C 0.91677 0.65516 0.89358 0.0
H2964 H 0.887 0.63495 0.92556 0.0
H2965 H 0.87225 0.72748 0.82616 0.0
H2966 H 0.94817 0.06775 0.7858 0.0
H2967 H 0.95076 0.06896 0.82776 0.0
H2968 H 0.8191 0.07291 0.82984 0.0
H2969 H 0.81629 0.0718 0.78784 0.0
H2970 H 0.86027 0.08558 0.85985 0.0
H2971 H 0.86029 0.05044 0.83854 0.0
H2972 H 0.88674 0.03549 0.8181 0.0
H2973 H 0.00158 0.03802 0.85404 0.0
H2974 H 0.97647 0.0532 0.87409 0.0
H2975 H 0.82331 0.07335 0.97661 0.0
H2976 H 0.82327 0.07392 0.93457 0.0
H2977 H 0.953 0.06702 0.93395 0.0
H2978 H 0.95301 0.0662 0.97595 0.0
H2979 H 0.91413 0.05611 0.90301 0.0
H2980 H 0.91731 0.09105 0.92342 0.0
H2981 H 0.8945 0.10653 0.94316 0.0
H2982 H 0.77735 0.10465 0.90931 0.0
H2983 H 0.79927 0.08907 0.88961 0.0
C2984 C 0.91983 0.06898 0.79519 0.0
C2985 C 0.88198 0.06961 0.78362 0.0
C2986 C 0.92136 0.06964 0.81912 0.0
C2987 C 0.88505 0.07088 0.83184 0.0
C2988 C 0.84742 0.07193 0.82028 0.0
C2989 C 0.84586 0.07127 0.79633 0.0
C2990 C 0.88603 0.07067 0.85725 0.0
C2991 C 0.87161 0.0791 0.86934 0.0
C2992 C 0.90181 0.06229 0.86948 0.0
C2993 C 0.91663 0.05305 0.85765 0.0
C2994 C 0.89133 0.04787 0.84194 0.0
C2995 C 0.90606 0.03935 0.83044 0.0
C2996 C 0.94574 0.0358 0.83481 0.0
C2997 C 0.97084 0.04078 0.85066 0.0
C2998 C 0.95642 0.04936 0.86206 0.0
C2999 C 0.85183 0.07199 0.9675 0.0
C3000 C 0.88821 0.0698 0.97952 0.0
C3001 C 0.85182 0.07236 0.9435 0.0
C3002 C 0.88827 0.07066 0.93116 0.0
C3003 C 0.92458 0.0684 0.94315 0.0
C3004 C 0.92456 0.06797 0.96713 0.0
C3005 C 0.88839 0.07104 0.9057 0.0
C3006 C 0.90291 0.06261 0.89357 0.0
C3007 C 0.87306 0.07946 0.89343 0.0
C3008 C 0.85981 0.08884 0.90521 0.0
C3009 C 0.88657 0.09389 0.92033 0.0
C3010 C 0.87382 0.10269 0.93148 0.0
C3011 C 0.83446 0.10656 0.92754 0.0
C3012 C 0.80781 0.10164 0.91238 0.0
C3013 C 0.82039 0.09283 0.90119 0.0
H3014 H 0.82465 0.11337 0.93619 0.0
H3015 H 0.95704 0.02918 0.82591 0.0
H3016 H 0.03957 0.82029 0.72016 0.0
H3017 H 0.03956 0.82167 0.67824 0.0
H3018 H 0.16771 0.83008 0.67954 0.0
H3019 H 0.16783 0.82883 0.72157 0.0
H3020 H 0.1237 0.84093 0.64751 0.0
H3021 H 0.14148 0.80614 0.6697 0.0
H3022 H 0.12286 0.79048 0.69003 0.0
H3023 H 0.00778 0.78949 0.65385 0.0
H3024 H 0.02545 0.80525 0.63356 0.0
H3025 H 0.18369 0.8272 0.53429 0.0
H3026 H 0.1757 0.82937 0.5758 0.0
H3027 H 0.05043 0.8188 0.57123 0.0
H3028 H 0.05855 0.81641 0.52976 0.0
H3029 H 0.08961 0.80958 0.60495 0.0
H3030 H 0.07296 0.84385 0.58106 0.0
H3031 H 0.09108 0.85958 0.56088 0.0
H3032 H 0.20292 0.86165 0.59989 0.0
H3033 H 0.18575 0.84584 0.62009 0.0
C3034 C 0.0676 0.82257 0.71155 0.0
C3035 C 0.10383 0.82436 0.72408 0.0
C3036 C 0.06756 0.82333 0.68761 0.0
C3037 C 0.10381 0.82582 0.67582 0.0
C3038 C 0.13947 0.82812 0.68836 0.0
C3039 C 0.13951 0.82738 0.71233 0.0
C3040 C 0.10522 0.82539 0.6504 0.0
C3041 C 0.11662 0.83406 0.63816 0.0
C3042 C 0.09508 0.81648 0.63828 0.0
C3043 C 0.08461 0.80694 0.65029 0.0
C3044 C 0.11207 0.80263 0.6662 0.0
C3045 C 0.1017 0.79373 0.67771 0.0
C3046 C 0.0641 0.78901 0.67329 0.0
C3047 C 0.03686 0.79316 0.65729 0.0
C3048 C 0.04704 0.80208 0.64578 0.0
C3049 C 0.15434 0.82543 0.54211 0.0
C3050 C 0.12175 0.82162 0.52883 0.0
C3051 C 0.14974 0.82672 0.56581 0.0
C3052 C 0.11232 0.82434 0.57659 0.0
C3053 C 0.07955 0.82069 0.56326 0.0
C3054 C 0.0842 0.81934 0.53959 0.0
C3055 C 0.10811 0.82513 0.60191 0.0
C3056 C 0.09634 0.8165 0.6142 0.0
C3057 C 0.11784 0.83408 0.61402 0.0
C3058 C 0.12823 0.84361 0.60195 0.0
C3059 C 0.10158 0.84761 0.58521 0.0
C3060 C 0.11165 0.85656 0.57379 0.0
C3061 C 0.14817 0.8616 0.57906 0.0
C3062 C 0.17466 0.85773 0.59581 0.0
C3063 C 0.16475 0.84878 0.60727 0.0
H3064 H 0.15591 0.86852 0.57021 0.0
H3065 H 0.05612 0.78212 0.68221 0.0
H3066 H 0.07136 0.42876 0.71795 0.0
H3067 H 0.06545 0.42645 0.67637 0.0
H3068 H 0.19466 0.41914 0.67266 0.0
H3069 H 0.20097 0.42173 0.71415 0.0
H3070 H 0.17588 0.43211 0.64072 0.0
H3071 H 0.11823 0.40092 0.66624 0.0
H3072 H 0.07217 0.38989 0.68862 0.0
H3073 H 0.96694 0.40349 0.65651 0.0
H3074 H 0.01236 0.41471 0.63416 0.0
H3075 H 0.1705 0.41761 0.52401 0.0
H3076 H 0.17517 0.41562 0.56578 0.0
H3077 H 0.0521 0.42733 0.57314 0.0
H3078 H 0.04715 0.42935 0.53136 0.0
H3079 H 0.06951 0.411 0.60289 0.0
H3080 H 0.1282 0.4429 0.57966 0.0
H3081 H 0.17477 0.45379 0.55724 0.0
H3082 H 0.27934 0.43834 0.58545 0.0
H3083 H 0.23331 0.42725 0.60779 0.0
C3084 C 0.09842 0.42659 0.70827 0.0
C3085 C 0.13663 0.42543 0.71924 0.0
C3086 C 0.09496 0.42521 0.68454 0.0
C3087 C 0.12951 0.42249 0.67143 0.0
C3088 C 0.16759 0.42122 0.68244 0.0
C3089 C 0.17115 0.42269 0.70613 0.0
C3090 C 0.12644 0.42154 0.64608 0.0
C3091 C 0.15312 0.42733 0.63249 0.0
C3092 C 0.09614 0.41548 0.63532 0.0
C3093 C 0.06871 0.40872 0.64866 0.0
C3094 C 0.08526 0.40161 0.66407 0.0
C3095 C 0.05926 0.39532 0.67673 0.0
C3096 C 0.01666 0.396 0.67403 0.0
C3097 C 0.99995 0.40297 0.65861 0.0
C3098 C 0.02581 0.40929 0.64592 0.0
C3099 C 0.1442 0.41962 0.5345 0.0
C3100 C 0.10859 0.42372 0.5245 0.0
C3101 C 0.14695 0.41849 0.55832 0.0
C3102 C 0.11414 0.42144 0.57247 0.0
C3103 C 0.07772 0.42502 0.56245 0.0
C3104 C 0.07502 0.4262 0.53863 0.0
C3105 C 0.11896 0.42155 0.59775 0.0
C3106 C 0.09253 0.41566 0.61125 0.0
C3107 C 0.14961 0.42747 0.60849 0.0
C3108 C 0.17731 0.43417 0.59518 0.0
C3109 C 0.16111 0.44177 0.58093 0.0
C3110 C 0.18741 0.44798 0.56826 0.0
C3111 C 0.22999 0.44674 0.56986 0.0
C3112 C 0.24635 0.43929 0.58419 0.0
C3113 C 0.22018 0.43303 0.59686 0.0
H3114 H 0.2503 0.45156 0.56005 0.0
H3115 H 0.99658 0.39112 0.68385 0.0
H3116 H 0.8043 0.17367 0.27701 0.0
H3117 H 0.79555 0.17153 0.31854 0.0
H3118 H 0.92699 0.16867 0.32653 0.0
H3119 H 0.93586 0.17058 0.28506 0.0
H3120 H 0.88703 0.15638 0.35593 0.0
H3121 H 0.8803 0.19133 0.3329 0.0
H3122 H 0.85329 0.20576 0.31081 0.0
H3123 H 0.73341 0.20103 0.33986 0.0
H3124 H 0.75963 0.18647 0.36188 0.0
H3125 H 0.92238 0.17497 0.46867 0.0
H3126 H 0.92024 0.17183 0.42722 0.0
H3127 H 0.78807 0.17475 0.42804 0.0
H3128 H 0.79003 0.17801 0.46943 0.0
H3129 H 0.822 0.18576 0.39432 0.0
H3130 H 0.83265 0.15177 0.42125 0.0
H3131 H 0.86205 0.13772 0.44366 0.0
H3132 H 0.97686 0.14098 0.40796 0.0
H3133 H 0.94835 0.15515 0.38555 0.0
C3134 C 0.83123 0.17239 0.28758 0.0
C3135 C 0.87079 0.17242 0.27788 0.0
C3136 C 0.82621 0.17119 0.31129 0.0
C3137 C 0.8607 0.17014 0.32563 0.0
C3138 C 0.89998 0.16951 0.31577 0.0
C3139 C 0.905 0.17064 0.29208 0.0
C3140 C 0.85645 0.17062 0.35096 0.0
C3141 C 0.87296 0.16281 0.36437 0.0
C3142 C 0.83752 0.17895 0.3619 0.0
C3143 C 0.8218 0.18774 0.34881 0.0
C3144 C 0.84811 0.19332 0.33444 0.0
C3145 C 0.83296 0.20153 0.32195 0.0
C3146 C 0.79163 0.20429 0.32387 0.0
C3147 C 0.7654 0.19887 0.33835 0.0
C3148 C 0.78038 0.19064 0.35084 0.0
C3149 C 0.89287 0.17488 0.46003 0.0
C3150 C 0.85638 0.17673 0.47224 0.0
C3151 C 0.89165 0.17302 0.43639 0.0
C3152 C 0.85393 0.17294 0.42463 0.0
C3153 C 0.81745 0.17474 0.43683 0.0
C3154 C 0.81864 0.17659 0.46046 0.0
C3155 C 0.85281 0.17154 0.39938 0.0
C3156 C 0.83545 0.17923 0.38595 0.0
C3157 C 0.87125 0.16314 0.38849 0.0
C3158 C 0.88843 0.15457 0.40184 0.0
C3159 C 0.86426 0.14954 0.41829 0.0
C3160 C 0.88076 0.14155 0.43098 0.0
C3161 C 0.92132 0.13848 0.42727 0.0
C3162 C 0.94545 0.14337 0.41082 0.0
C3163 C 0.92912 0.15138 0.3981 0.0
H3164 H 0.93404 0.13229 0.43711 0.0
H3165 H 0.77995 0.21065 0.31419 0.0
H3166 H 0.93931 0.5786 0.46702 0.0
H3167 H 0.93296 0.58111 0.42537 0.0
H3168 H 0.80621 0.57162 0.42836 0.0
H3169 H 0.81218 0.56915 0.46987 0.0
H3170 H 0.85512 0.56074 0.39743 0.0
H3171 H 0.82604 0.59532 0.41733 0.0
H3172 H 0.84035 0.61169 0.4358 0.0
H3173 H 0.95164 0.61453 0.39658 0.0
H3174 H 0.93828 0.5981 0.3781 0.0
H3175 H 0.79298 0.56747 0.28358 0.0
H3176 H 0.79652 0.5701 0.32514 0.0
H3177 H 0.92072 0.58115 0.31844 0.0
H3178 H 0.91738 0.57857 0.27675 0.0
H3179 H 0.87578 0.59178 0.3512 0.0
H3180 H 0.90703 0.55791 0.33114 0.0
H3181 H 0.8979 0.54115 0.31358 0.0
H3182 H 0.79014 0.53624 0.35477 0.0
H3183 H 0.79748 0.55314 0.37177 0.0
C3184 C 0.90993 0.57721 0.45882 0.0
C3185 C 0.87631 0.57361 0.47161 0.0
C3186 C 0.90632 0.57869 0.4351 0.0
C3187 C 0.86911 0.57656 0.42389 0.0
C3188 C 0.83515 0.57331 0.43677 0.0
C3189 C 0.83863 0.5719 0.46045 0.0
C3190 C 0.86655 0.57671 0.39853 0.0
C3191 C 0.85888 0.56756 0.38731 0.0
C3192 C 0.87336 0.58554 0.38545 0.0
C3193 C 0.88136 0.59543 0.39651 0.0
C3194 C 0.85376 0.59939 0.4128 0.0
C3195 C 0.86166 0.60869 0.42323 0.0
C3196 C 0.89694 0.61413 0.41741 0.0
C3197 C 0.92434 0.6103 0.40109 0.0
C3198 C 0.9166 0.601 0.39062 0.0
C3199 C 0.82082 0.57061 0.2909 0.0
C3200 C 0.85507 0.57271 0.277 0.0
C3201 C 0.8228 0.5721 0.31462 0.0
C3202 C 0.85907 0.57569 0.32483 0.0
C3203 C 0.8925 0.57836 0.31085 0.0
C3204 C 0.89059 0.57683 0.28709 0.0
C3205 C 0.86315 0.57584 0.35015 0.0
C3206 C 0.87161 0.58499 0.36133 0.0
C3207 C 0.8577 0.56696 0.36329 0.0
C3208 C 0.85245 0.55688 0.35249 0.0
C3209 C 0.88089 0.55334 0.33612 0.0
C3210 C 0.87603 0.54381 0.32624 0.0
C3211 C 0.84326 0.53766 0.33288 0.0
C3212 C 0.81525 0.54104 0.3494 0.0
C3213 C 0.81966 0.55062 0.35911 0.0
H3214 H 0.83976 0.53025 0.32533 0.0
H3215 H 0.903 0.62133 0.42551 0.0
H3216 H 0.55465 0.31535 0.52116 0.0
H3217 H 0.55323 0.31724 0.563 0.0
H3218 H 0.68585 0.31613 0.5648 0.0
H3219 H 0.68744 0.31403 0.52303 0.0
H3220 H 0.65373 0.30459 0.59754 0.0
H3221 H 0.63359 0.3385 0.57093 0.0
H3222 H 0.60034 0.352 0.54846 0.0
H3223 H 0.48587 0.34632 0.58292 0.0
H3224 H 0.51831 0.33268 0.60538 0.0
H3225 H 0.67849 0.32062 0.71233 0.0
H3226 H 0.68073 0.32057 0.67029 0.0
H3227 H 0.5481 0.32051 0.66791 0.0
H3228 H 0.54562 0.32071 0.70999 0.0
H3229 H 0.58081 0.33294 0.63551 0.0
H3230 H 0.60053 0.29884 0.66139 0.0
H3231 H 0.63353 0.28527 0.68379 0.0
H3232 H 0.74876 0.29131 0.65046 0.0
H3233 H 0.71656 0.30501 0.62809 0.0
C3234 C 0.58348 0.31552 0.53049 0.0
C3235 C 0.62116 0.31459 0.51886 0.0
C3236 C 0.58264 0.31665 0.55436 0.0
C3237 C 0.61946 0.31697 0.56696 0.0
C3238 C 0.65709 0.31594 0.55539 0.0
C3239 C 0.65795 0.31476 0.53153 0.0
C3240 C 0.61876 0.31819 0.59228 0.0
C3241 C 0.63832 0.31087 0.60583 0.0
C3242 C 0.59781 0.32627 0.60308 0.0
C3243 C 0.5783 0.33451 0.58969 0.0
C3244 C 0.60125 0.34008 0.57359 0.0
C3245 C 0.58256 0.34776 0.56088 0.0
C3246 C 0.541 0.35 0.56422 0.0
C3247 C 0.51806 0.34457 0.58033 0.0
C3248 C 0.53659 0.33687 0.59308 0.0
C3249 C 0.64981 0.3207 0.70285 0.0
C3250 C 0.61187 0.3206 0.7144 0.0
C3251 C 0.65114 0.32063 0.67886 0.0
C3252 C 0.61458 0.32037 0.66604 0.0
C3253 C 0.57665 0.32068 0.67752 0.0
C3254 C 0.57529 0.32078 0.70153 0.0
C3255 C 0.61588 0.31936 0.6407 0.0
C3256 C 0.59636 0.32669 0.62718 0.0
C3257 C 0.63686 0.31129 0.6299 0.0
C3258 C 0.65623 0.30302 0.64324 0.0
C3259 C 0.63298 0.29732 0.65897 0.0
C3260 C 0.65152 0.2896 0.67164 0.0
C3261 C 0.69324 0.28745 0.6686 0.0
C3262 C 0.71647 0.293 0.65283 0.0
C3263 C 0.69808 0.30074 0.64014 0.0
H3264 H 0.70754 0.28147 0.67842 0.0
H3265 H 0.52658 0.35595 0.55435 0.0
H3266 H 0.55671 0.92683 0.52476 0.0
H3267 H 0.55741 0.92612 0.56678 0.0
H3268 H 0.69005 0.92674 0.56635 0.0
H3269 H 0.68964 0.92744 0.52424 0.0
H3270 H 0.6584 0.91309 0.59778 0.0
H3271 H 0.64004 0.94773 0.5766 0.0
H3272 H 0.60762 0.9621 0.55671 0.0
H3273 H 0.49369 0.95611 0.59143 0.0
H3274 H 0.52523 0.94158 0.61123 0.0
H3275 H 0.68881 0.92816 0.71422 0.0
H3276 H 0.68903 0.92694 0.67222 0.0
H3277 H 0.55636 0.92769 0.67175 0.0
H3278 H 0.55592 0.92903 0.71371 0.0
H3279 H 0.58859 0.94056 0.64064 0.0
H3280 H 0.60731 0.90587 0.66187 0.0
H3281 H 0.64034 0.89161 0.68189 0.0
H3282 H 0.75415 0.8979 0.6473 0.0
H3283 H 0.72194 0.91229 0.62731 0.0
C3284 C 0.58604 0.92671 0.5336 0.0
C3285 C 0.62314 0.92725 0.52128 0.0
C3286 C 0.58637 0.92634 0.55758 0.0
C3287 C 0.62377 0.92652 0.56961 0.0
C3288 C 0.6609 0.92663 0.55733 0.0
C3289 C 0.6606 0.92705 0.53332 0.0
C3290 C 0.62403 0.92692 0.59501 0.0
C3291 C 0.64357 0.91915 0.60719 0.0
C3292 C 0.60401 0.93475 0.60717 0.0
C3293 C 0.5849 0.94348 0.59522 0.0
C3294 C 0.60796 0.94941 0.57983 0.0
C3295 C 0.58976 0.9576 0.5686 0.0
C3296 C 0.54859 0.96 0.57276 0.0
C3297 C 0.52556 0.95423 0.58819 0.0
C3298 C 0.54358 0.94601 0.59943 0.0
C3299 C 0.6597 0.92799 0.70517 0.0
C3300 C 0.62234 0.92867 0.7172 0.0
C3301 C 0.65987 0.92727 0.6812 0.0
C3302 C 0.62269 0.92715 0.66892 0.0
C3303 C 0.58537 0.92777 0.68093 0.0
C3304 C 0.58518 0.9285 0.70488 0.0
C3305 C 0.62269 0.92669 0.64348 0.0
C3306 C 0.6033 0.93448 0.63126 0.0
C3307 C 0.6429 0.91889 0.63131 0.0
C3308 C 0.66231 0.91022 0.64326 0.0
C3309 C 0.63947 0.90426 0.65867 0.0
C3310 C 0.65803 0.89615 0.66999 0.0
C3311 C 0.69935 0.89387 0.66592 0.0
C3312 C 0.72216 0.89969 0.65047 0.0
C3313 C 0.70376 0.90781 0.63912 0.0
H3314 H 0.71366 0.88758 0.67469 0.0
H3315 H 0.53457 0.96636 0.56408 0.0
H3316 H 0.34292 0.66774 0.46194 0.0
H3317 H 0.34899 0.66722 0.41994 0.0
H3318 H 0.43654 0.69164 0.42229 0.0
H3319 H 0.43062 0.6922 0.46419 0.0
H3320 H 0.37422 0.69481 0.39112 0.0
H3321 H 0.46885 0.66825 0.41137 0.0
H3322 H 0.48952 0.65238 0.4302 0.0
H3323 H 0.39745 0.63629 0.39204 0.0
H3324 H 0.37583 0.6521 0.37321 0.0
H3325 H 0.45346 0.69398 0.2777 0.0
H3326 H 0.4474 0.69284 0.31958 0.0
H3327 H 0.35832 0.66895 0.31228 0.0
H3328 H 0.3638 0.67016 0.27029 0.0
H3329 H 0.41808 0.66499 0.34578 0.0
H3330 H 0.32562 0.69093 0.3239 0.0
H3331 H 0.30054 0.70666 0.30628 0.0
H3332 H 0.38293 0.72386 0.34858 0.0
H3333 H 0.4097 0.70821 0.36586 0.0
C3334 C 0.36369 0.67294 0.45349 0.0
C3335 C 0.38627 0.68002 0.46629 0.0
C3336 C 0.36721 0.67261 0.42954 0.0
C3337 C 0.39334 0.67937 0.41808 0.0
C3338 C 0.41621 0.68637 0.43086 0.0
C3339 C 0.41287 0.68666 0.45478 0.0
C3340 C 0.3956 0.67947 0.39267 0.0
C3341 C 0.38445 0.68835 0.38117 0.0
C3342 C 0.40739 0.67089 0.37981 0.0
C3343 C 0.42044 0.66138 0.39106 0.0
C3344 C 0.45277 0.66135 0.40714 0.0
C3345 C 0.46471 0.65236 0.41778 0.0
C3346 C 0.44473 0.64334 0.41237 0.0
C3347 C 0.41285 0.64328 0.39624 0.0
C3348 C 0.40077 0.65225 0.38556 0.0
C3349 C 0.43282 0.68844 0.28503 0.0
C3350 C 0.40909 0.68215 0.27081 0.0
C3351 C 0.42925 0.68783 0.30892 0.0
C3352 C 0.40222 0.68085 0.31895 0.0
C3353 C 0.37931 0.67438 0.30481 0.0
C3354 C 0.38241 0.67509 0.28089 0.0
C3355 C 0.3976 0.68042 0.34424 0.0
C3356 C 0.40803 0.67147 0.3557 0.0
C3357 C 0.38486 0.68893 0.3571 0.0
C3358 C 0.37014 0.69835 0.34596 0.0
C3359 C 0.33902 0.69804 0.32914 0.0
C3360 C 0.3244 0.70695 0.31925 0.0
C3361 C 0.34018 0.71625 0.32627 0.0
C3362 C 0.37074 0.71665 0.34314 0.0
C3363 C 0.38581 0.70776 0.3529 0.0
H3364 H 0.32867 0.72315 0.31867 0.0
H3365 H 0.45402 0.63638 0.42062 0.0
H3366 H 0.45288 0.07063 0.4735 0.0
H3367 H 0.44198 0.07386 0.43253 0.0
H3368 H 0.31065 0.07343 0.44309 0.0
H3369 H 0.32131 0.07015 0.48409 0.0
H3370 H 0.33435 0.06144 0.40761 0.0
H3371 H 0.35806 0.09537 0.43202 0.0
H3372 H 0.39498 0.10916 0.45158 0.0
H3373 H 0.50033 0.10416 0.40854 0.0
H3374 H 0.46426 0.09024 0.38893 0.0
H3375 H 0.29407 0.07335 0.29176 0.0
H3376 H 0.29502 0.07549 0.33357 0.0
H3377 H 0.42764 0.07662 0.33243 0.0
H3378 H 0.42688 0.0747 0.29064 0.0
H3379 H 0.39696 0.08962 0.36372 0.0
H3380 H 0.37812 0.05469 0.34301 0.0
H3381 H 0.34375 0.04047 0.32354 0.0
H3382 H 0.232 0.0469 0.36006 0.0
H3383 H 0.26558 0.06126 0.3795 0.0
C3384 C 0.4217 0.07131 0.46712 0.0
C3385 C 0.38793 0.07012 0.48193 0.0
C3386 C 0.41552 0.07321 0.44376 0.0
C3387 C 0.3755 0.07397 0.43486 0.0
C3388 C 0.34175 0.0729 0.44968 0.0
C3389 C 0.3479 0.07103 0.47305 0.0
C3390 C 0.36899 0.07525 0.40986 0.0
C3391 C 0.34728 0.06771 0.39807 0.0
C3392 C 0.38678 0.08331 0.39741 0.0
C3393 C 0.40854 0.09171 0.40912 0.0
C3394 C 0.38921 0.09716 0.42684 0.0
C3395 C 0.40998 0.10501 0.43792 0.0
C3396 C 0.45001 0.10752 0.43134 0.0
C3397 C 0.46933 0.1022 0.41363 0.0
C3398 C 0.44872 0.09434 0.4025 0.0
C3399 C 0.32337 0.07421 0.3004 0.0
C3400 C 0.36043 0.07374 0.28803 0.0
C3401 C 0.32387 0.07542 0.32426 0.0
C3402 C 0.36143 0.07604 0.33609 0.0
C3403 C 0.39834 0.07613 0.32361 0.0
C3404 C 0.39786 0.07499 0.29976 0.0
C3405 C 0.36261 0.07576 0.36152 0.0
C3406 C 0.38345 0.08344 0.37335 0.0
C3407 C 0.34435 0.06778 0.37404 0.0
C3408 C 0.32421 0.05911 0.3625 0.0
C3409 C 0.34613 0.05311 0.34676 0.0
C3410 C 0.32681 0.04503 0.33575 0.0
C3411 C 0.28568 0.0428 0.34051 0.0
C3412 C 0.26383 0.04865 0.35635 0.0
C3413 C 0.28299 0.05676 0.36737 0.0
H3414 H 0.27078 0.03654 0.33197 0.0
H3415 H 0.46603 0.1136 0.43994 0.0
H3416 H 0.70669 0.81607 0.02378 0.0
H3417 H 0.70242 0.81673 0.06575 0.0
H3418 H 0.57743 0.80588 0.06276 0.0
H3419 H 0.5813 0.80536 0.02076 0.0
H3420 H 0.58297 0.82198 0.0898 0.0
H3421 H 0.6548 0.78997 0.08557 0.0
H3422 H 0.70934 0.77805 0.07396 0.0
H3423 H 0.80144 0.7981 0.10046 0.0
H3424 H 0.74742 0.80999 0.11291 0.0
H3425 H 0.55916 0.81253 0.2095 0.0
H3426 H 0.56442 0.81085 0.16772 0.0
H3427 H 0.6872 0.82315 0.16986 0.0
H3428 H 0.68233 0.82474 0.21173 0.0
H3429 H 0.6827 0.80617 0.14341 0.0
H3430 H 0.6093 0.83739 0.15083 0.0
H3431 H 0.55406 0.84859 0.1647 0.0
H3432 H 0.46373 0.82997 0.13154 0.0
H3433 H 0.51842 0.81858 0.11773 0.0
C3434 C 0.67839 0.81377 0.03208 0.0
C3435 C 0.64422 0.81074 0.01901 0.0
C3436 C 0.6761 0.81407 0.05608 0.0
C3437 C 0.63971 0.81127 0.0674 0.0
C3438 C 0.6058 0.80807 0.05436 0.0
C3439 C 0.60805 0.80779 0.03039 0.0
C3440 C 0.63608 0.81233 0.0927 0.0
C3441 C 0.60438 0.81838 0.10155 0.0
C3442 C 0.66465 0.80788 0.10798 0.0
C3443 C 0.69717 0.80091 0.09993 0.0
C3444 C 0.68672 0.79186 0.08875 0.0
C3445 C 0.71749 0.7851 0.0821 0.0
C3446 C 0.7588 0.78737 0.08618 0.0
C3447 C 0.76943 0.79636 0.09721 0.0
C3448 C 0.73876 0.80308 0.10423 0.0
C3449 C 0.58713 0.81496 0.20105 0.0
C3450 C 0.62028 0.81882 0.21383 0.0
C3451 C 0.59007 0.81401 0.17719 0.0
C3452 C 0.62608 0.81695 0.16571 0.0
C3453 C 0.65915 0.82084 0.17843 0.0
C3454 C 0.65624 0.8218 0.2023 0.0
C3455 C 0.62953 0.81578 0.14047 0.0
C3456 C 0.66123 0.80973 0.13165 0.0
C3457 C 0.60088 0.82022 0.12522 0.0
C3458 C 0.56794 0.82708 0.13344 0.0
C3459 C 0.57763 0.83564 0.14665 0.0
C3460 C 0.54643 0.84203 0.15448 0.0
C3461 C 0.50541 0.83997 0.14906 0.0
C3462 C 0.49552 0.83154 0.13575 0.0
C3463 C 0.52661 0.82512 0.1279 0.0
H3464 H 0.48129 0.84493 0.15513 0.0
H3465 H 0.78255 0.78214 0.08093 0.0
H3466 H 0.56728 0.42266 0.03523 0.0
H3467 H 0.56576 0.41875 0.07633 0.0
H3468 H 0.69839 0.41833 0.07787 0.0
H3469 H 0.7002 0.42219 0.03671 0.0
H3470 H 0.66324 0.40368 0.10656 0.0
H3471 H 0.65404 0.43914 0.09164 0.0
H3472 H 0.62613 0.45442 0.07319 0.0
H3473 H 0.50789 0.44862 0.10327 0.0
H3474 H 0.53499 0.43319 0.12163 0.0
H3475 H 0.70558 0.41986 0.22151 0.0
H3476 H 0.70066 0.41715 0.17995 0.0
H3477 H 0.56826 0.41769 0.18451 0.0
H3478 H 0.5729 0.4204 0.22605 0.0
H3479 H 0.59929 0.43102 0.15266 0.0
H3480 H 0.61508 0.39611 0.17205 0.0
H3481 H 0.64778 0.38146 0.19066 0.0
H3482 H 0.75905 0.38694 0.15293 0.0
H3483 H 0.72722 0.40172 0.13431 0.0
C3484 C 0.59611 0.42155 0.04423 0.0
C3485 C 0.63387 0.42286 0.03289 0.0
C3486 C 0.59518 0.41931 0.06767 0.0
C3487 C 0.63197 0.41838 0.08011 0.0
C3488 C 0.6697 0.41902 0.06852 0.0
C3489 C 0.67066 0.42128 0.04507 0.0
C3490 C 0.63115 0.41788 0.1055 0.0
C3491 C 0.64944 0.40966 0.11671 0.0
C3492 C 0.61284 0.42566 0.11861 0.0
C3493 C 0.5964 0.43496 0.10777 0.0
C3494 C 0.62199 0.44108 0.09416 0.0
C3495 C 0.60635 0.44976 0.08374 0.0
C3496 C 0.56525 0.45247 0.08701 0.0
C3497 C 0.53971 0.4465 0.10073 0.0
C3498 C 0.55519 0.43778 0.11115 0.0
C3499 C 0.67544 0.41925 0.2137 0.0
C3500 C 0.63962 0.42039 0.22695 0.0
C3501 C 0.67268 0.41765 0.19 0.0
C3502 C 0.63409 0.41718 0.17924 0.0
C3503 C 0.5983 0.41801 0.19255 0.0
C3504 C 0.60102 0.41955 0.21625 0.0
C3505 C 0.63118 0.41678 0.15388 0.0
C3506 C 0.61244 0.42492 0.14261 0.0
C3507 C 0.64966 0.409 0.14083 0.0
C3508 C 0.66885 0.40008 0.15192 0.0
C3509 C 0.64664 0.39425 0.16785 0.0
C3510 C 0.665 0.38591 0.17838 0.0
C3511 C 0.7055 0.38328 0.17302 0.0
C3512 C 0.72769 0.38898 0.15707 0.0
C3513 C 0.70948 0.39734 0.14651 0.0
H3514 H 0.71966 0.37682 0.18119 0.0
H3515 H 0.55332 0.45921 0.07896 0.0
H3516 H 0.318 0.16959 0.78946 0.0
H3517 H 0.31587 0.16754 0.83127 0.0
H3518 H 0.43757 0.1803 0.83661 0.0
H3519 H 0.4402 0.18219 0.79479 0.0
H3520 H 0.42864 0.1646 0.86552 0.0
H3521 H 0.35301 0.19464 0.84648 0.0
H3522 H 0.29983 0.20462 0.82655 0.0
H3523 H 0.20544 0.18615 0.8564 0.0
H3524 H 0.25813 0.17596 0.87626 0.0
H3525 H 0.42508 0.18091 0.98226 0.0
H3526 H 0.42963 0.17935 0.94041 0.0
H3527 H 0.30715 0.16685 0.93855 0.0
H3528 H 0.30214 0.16856 0.98034 0.0
H3529 H 0.31553 0.18154 0.90782 0.0
H3530 H 0.3924 0.15208 0.92894 0.0
H3531 H 0.44647 0.14253 0.9492 0.0
H3532 H 0.53947 0.1603 0.91598 0.0
H3533 H 0.48593 0.17006 0.89575 0.0
C3534 C 0.34443 0.17187 0.79954 0.0
C3535 C 0.37914 0.17612 0.78892 0.0
C3536 C 0.34313 0.17072 0.82341 0.0
C3537 C 0.37633 0.1739 0.83705 0.0
C3538 C 0.4116 0.17781 0.82639 0.0
C3539 C 0.413 0.17892 0.80252 0.0
C3540 C 0.37367 0.17357 0.86248 0.0
C3541 C 0.40412 0.16837 0.87481 0.0
C3542 C 0.34126 0.17834 0.87453 0.0
C3543 C 0.30953 0.18447 0.86265 0.0
C3544 C 0.32093 0.19265 0.84864 0.0
C3545 C 0.29087 0.19836 0.83738 0.0
C3546 C 0.24928 0.196 0.84015 0.0
C3547 C 0.23766 0.18795 0.85424 0.0
C3548 C 0.26761 0.18222 0.86551 0.0
C3549 C 0.39931 0.17773 0.97294 0.0
C3550 C 0.36324 0.17487 0.98452 0.0
C3551 C 0.40202 0.1768 0.94906 0.0
C3552 C 0.36885 0.1729 0.93639 0.0
C3553 C 0.3331 0.16987 0.948 0.0
C3554 C 0.33033 0.17083 0.97186 0.0
C3555 C 0.37045 0.17254 0.91094 0.0
C3556 C 0.33985 0.17767 0.89857 0.0
C3557 C 0.40284 0.16774 0.89891 0.0
C3558 C 0.43511 0.16186 0.91098 0.0
C3559 C 0.42437 0.154 0.92609 0.0
C3560 C 0.45493 0.14854 0.93754 0.0
C3561 C 0.49637 0.15082 0.93392 0.0
C3562 C 0.50735 0.15855 0.91879 0.0
C3563 C 0.47691 0.16404 0.9073 0.0
H3564 H 0.51999 0.14659 0.94281 0.0
H3565 H 0.22606 0.20042 0.83143 0.0
H3566 H 0.30445 0.56726 0.95746 0.0
H3567 H 0.30606 0.56801 0.9155 0.0
H3568 H 0.42485 0.5824 0.91795 0.0
H3569 H 0.424 0.58147 0.96017 0.0
H3570 H 0.35896 0.59019 0.88327 0.0
H3571 H 0.43568 0.56115 0.90822 0.0
H3572 H 0.44677 0.54591 0.93166 0.0
H3573 H 0.3401 0.53214 0.9015 0.0
H3574 H 0.32769 0.54744 0.87832 0.0
H3575 H 0.40582 0.57913 0.76544 0.0
H3576 H 0.41042 0.58157 0.80714 0.0
H3577 H 0.31091 0.56049 0.81703 0.0
H3578 H 0.30646 0.55793 0.7755 0.0
H3579 H 0.37362 0.55671 0.84591 0.0
H3580 H 0.29524 0.58568 0.82204 0.0
H3581 H 0.28145 0.60108 0.79957 0.0
H3582 H 0.38968 0.61497 0.82765 0.0
H3583 H 0.40443 0.59958 0.85006 0.0
C3584 C 0.33062 0.57075 0.94913 0.0
C3585 C 0.36425 0.57425 0.96203 0.0
C3586 C 0.33147 0.57116 0.92519 0.0
C3587 C 0.36566 0.5752 0.91379 0.0
C3588 C 0.39822 0.57927 0.92657 0.0
C3589 C 0.39772 0.57871 0.9506 0.0
C3590 C 0.36849 0.5743 0.88857 0.0
C3591 C 0.36293 0.58292 0.87499 0.0
C3592 C 0.37289 0.56477 0.87803 0.0
C3593 C 0.38048 0.5555 0.89173 0.0
C3594 C 0.41431 0.55492 0.90677 0.0
C3595 C 0.4209 0.54626 0.91997 0.0
C3596 C 0.39417 0.53806 0.91808 0.0
C3597 C 0.36078 0.53851 0.90297 0.0
C3598 C 0.35392 0.54718 0.8898 0.0
C3599 C 0.38484 0.57505 0.77653 0.0
C3600 C 0.35571 0.56837 0.76726 0.0
C3601 C 0.38742 0.57648 0.80031 0.0
C3602 C 0.36081 0.57126 0.81514 0.0
C3603 C 0.33173 0.56458 0.80588 0.0
C3604 C 0.32912 0.56316 0.78215 0.0
C3605 C 0.36358 0.5726 0.84038 0.0
C3606 C 0.37014 0.56402 0.85405 0.0
C3607 C 0.36004 0.58218 0.85095 0.0
C3608 C 0.3512 0.59144 0.83752 0.0
C3609 C 0.3163 0.59198 0.82327 0.0
C3610 C 0.30827 0.60072 0.81057 0.0
C3611 C 0.33475 0.60899 0.81212 0.0
C3612 C 0.36925 0.60855 0.82643 0.0
C3613 C 0.37744 0.59982 0.83914 0.0
H3614 H 0.32847 0.61574 0.80228 0.0
H3615 H 0.39938 0.53135 0.9283 0.0
loop_
_geom_bond_atom_site_label_1
_geom_bond_atom_site_label_2
_geom_bond_distance
_geom_bond_site_symmetry_2
_ccdc_geom_bond_type
In0 O1 2.294 . S
In0 O2 2.326 . S
In0 O6 2.266 . S
In0 O7 2.326 . S
In0 O8 2.266 . S
In0 O9 2.326 . S
In0 O11 2.294 . S
In0 O12 2.326 . S
O1 In0 2.294 . S
O1 C10 1.240 . S
O2 In0 2.326 . S
O2 C10 1.252 . S
C3 O6 1.252 . S
C3 O7 1.260 . S
C4 O11 1.240 . S
C4 O12 1.252 . S
C5 O8 1.252 . S
C5 O9 1.260 . S
O6 In0 2.266 . S
O6 C3 1.252 . S
O7 In0 2.326 . S
O7 C3 1.260 . S
O8 In0 2.266 . S
O8 C5 1.252 . S
O9 In0 2.326 . S
O9 C5 1.260 . S
C10 O1 1.240 . S
C10 O2 1.252 . S
O11 In0 2.294 . S
O11 C4 1.240 . S
O12 In0 2.326 . S
O12 C4 1.252 . S
In13 O14 2.294 . S
In13 O15 2.326 . S
In13 O19 2.266 . S
In13 O20 2.326 . S
In13 O21 2.266 . S
In13 O22 2.326 . S
In13 O24 2.294 . S
In13 O25 2.326 . S
O14 In13 2.294 . S
O14 C23 1.240 . S
O15 In13 2.326 . S
O15 C23 1.252 . S
C16 O19 1.252 . S
C16 O20 1.260 . S
C17 O24 1.240 . S
C17 O25 1.252 . S
C18 O21 1.252 . S
C18 O22 1.260 . S
O19 In13 2.266 . S
O19 C16 1.252 . S
O20 In13 2.326 . S
O20 C16 1.260 . S
O21 In13 2.266 . S
O21 C18 1.252 . S
O22 In13 2.326 . S
O22 C18 1.260 . S
C23 O14 1.240 . S
C23 O15 1.252 . S
O24 In13 2.294 . S
O24 C17 1.240 . S
O25 In13 2.326 . S
O25 C17 1.252 . S
In26 O27 2.294 . S
In26 O28 2.326 . S
In26 O32 2.266 . S
In26 O33 2.326 . S
In26 O34 2.266 . S
In26 O35 2.326 . S
In26 O37 2.294 . S
In26 O38 2.326 . S
O27 In26 2.294 . S
O27 C36 1.240 . S
O28 In26 2.326 . S
O28 C36 1.252 . S
C29 O32 1.252 . S
C29 O33 1.260 . S
C30 O37 1.240 . S
C30 O38 1.252 . S
C31 O34 1.252 1_554 S
C31 O35 1.260 1_554 S
O32 In26 2.266 . S
O32 C29 1.252 . S
O33 In26 2.326 . S
O33 C29 1.260 . S
O34 In26 2.266 . S
O34 C31 1.252 1_556 S
O35 In26 2.326 . S
O35 C31 1.260 1_556 S
C36 O27 1.240 . S
C36 O28 1.252 . S
O37 In26 2.294 . S
O37 C30 1.240 . S
O38 In26 2.326 . S
O38 C30 1.252 . S
In39 O40 2.294 . S
In39 O41 2.326 . S
In39 O45 2.266 . S
In39 O46 2.326 . S
In39 O47 2.266 . S
In39 O48 2.326 . S
In39 O50 2.294 . S
In39 O51 2.326 . S
O40 In39 2.294 . S
O40 C49 1.240 . S
O41 In39 2.326 . S
O41 C49 1.252 . S
C42 O45 1.252 1_554 S
C42 O46 1.260 1_554 S
C43 O50 1.240 . S
C43 O51 1.252 . S
C44 O47 1.252 . S
C44 O48 1.260 . S
O45 In39 2.266 . S
O45 C42 1.252 1_556 S
O46 In39 2.326 . S
O46 C42 1.260 1_556 S
O47 In39 2.266 . S
O47 C44 1.252 . S
O48 In39 2.326 . S
O48 C44 1.260 . S
C49 O40 1.240 . S
C49 O41 1.252 . S
O50 In39 2.294 . S
O50 C43 1.240 . S
O51 In39 2.326 . S
O51 C43 1.252 . S
In52 O53 2.294 . S
In52 O54 2.326 . S
In52 O58 2.266 . S
In52 O59 2.326 . S
In52 O60 2.266 . S
In52 O61 2.326 . S
In52 O63 2.294 . S
In52 O64 2.326 . S
O53 In52 2.294 . S
O53 C62 1.240 . S
O54 In52 2.326 . S
O54 C62 1.252 . S
C55 O58 1.252 . S
C55 O59 1.260 . S
C56 O63 1.240 . S
C56 O64 1.252 . S
C57 O60 1.252 . S
C57 O61 1.260 . S
O58 In52 2.266 . S
O58 C55 1.252 . S
O59 In52 2.326 . S
O59 C55 1.260 . S
O60 In52 2.266 . S
O60 C57 1.252 . S
O61 In52 2.326 . S
O61 C57 1.260 . S
C62 O53 1.240 . S
C62 O54 1.252 . S
O63 In52 2.294 . S
O63 C56 1.240 . S
O64 In52 2.326 . S
O64 C56 1.252 . S
In65 O66 2.294 . S
In65 O67 2.326 . S
In65 O71 2.266 . S
In65 O72 2.326 . S
In65 O73 2.266 . S
In65 O74 2.326 . S
In65 O76 2.294 . S
In65 O77 2.326 . S
O66 In65 2.294 . S
O66 C75 1.240 . S
O67 In65 2.326 . S
O67 C75 1.252 . S
C68 O71 1.252 . S
C68 O72 1.260 . S
C69 O76 1.240 . S
C69 O77 1.252 . S
C70 O73 1.252 . S
C70 O74 1.260 . S
O71 In65 2.266 . S
O71 C68 1.252 . S
O72 In65 2.326 . S
O72 C68 1.260 . S
O73 In65 2.266 . S
O73 C70 1.252 . S
O74 In65 2.326 . S
O74 C70 1.260 . S
C75 O66 1.240 . S
C75 O67 1.252 . S
O76 In65 2.294 . S
O76 C69 1.240 . S
O77 In65 2.326 . S
O77 C69 1.252 . S
In78 O79 2.294 . S
In78 O80 2.326 . S
In78 O84 2.266 . S
In78 O85 2.326 . S
In78 O86 2.266 . S
In78 O87 2.326 . S
In78 O89 2.294 . S
In78 O90 2.326 . S
O79 In78 2.294 . S
O79 C88 1.240 . S
O80 In78 2.326 . S
O80 C88 1.252 . S
C81 O84 1.252 1_556 S
C81 O85 1.260 1_556 S
C82 O89 1.240 . S
C82 O90 1.252 . S
C83 O86 1.252 . S
C83 O87 1.260 . S
O84 In78 2.266 . S
O84 C81 1.252 1_554 S
O85 In78 2.326 . S
O85 C81 1.260 1_554 S
O86 In78 2.266 . S
O86 C83 1.252 . S
O87 In78 2.326 . S
O87 C83 1.260 . S
C88 O79 1.240 . S
C88 O80 1.252 . S
O89 In78 2.294 . S
O89 C82 1.240 . S
O90 In78 2.326 . S
O90 C82 1.252 . S
In91 O92 2.294 . S
In91 O93 2.326 . S
In91 O97 2.266 . S
In91 O98 2.326 . S
In91 O99 2.266 . S
In91 O100 2.326 . S
In91 O102 2.294 . S
In91 O103 2.326 . S
O92 In91 2.294 . S
O92 C101 1.240 . S
O93 In91 2.326 . S
O93 C101 1.252 . S
C94 O97 1.252 1_556 S
C94 O98 1.260 1_556 S
C95 O102 1.240 . S
C95 O103 1.252 . S
C96 O99 1.252 . S
C96 O100 1.260 . S
O97 In91 2.266 . S
O97 C94 1.252 1_554 S
O98 In91 2.326 . S
O98 C94 1.260 1_554 S
O99 In91 2.266 . S
O99 C96 1.252 . S
O100 In91 2.326 . S
O100 C96 1.260 . S
C101 O92 1.240 . S
C101 O93 1.252 . S
O102 In91 2.294 . S
O102 C95 1.240 . S
O103 In91 2.326 . S
O103 C95 1.252 . S
In104 O105 2.294 . S
In104 O106 2.326 . S
In104 O110 2.266 . S
In104 O111 2.326 . S
In104 O112 2.266 . S
In104 O113 2.326 . S
In104 O115 2.294 . S
In104 O116 2.326 . S
O105 In104 2.294 . S
O105 C114 1.240 . S
O106 In104 2.326 . S
O106 C114 1.252 . S
C107 O110 1.252 . S
C107 O111 1.260 . S
C108 O115 1.240 . S
C108 O116 1.252 . S
C109 O112 1.252 . S
C109 O113 1.260 . S
O110 In104 2.266 . S
O110 C107 1.252 . S
O111 In104 2.326 . S
O111 C107 1.260 . S
O112 In104 2.266 . S
O112 C109 1.252 . S
O113 In104 2.326 . S
O113 C109 1.260 . S
C114 O105 1.240 . S
C114 O106 1.252 . S
O115 In104 2.294 . S
O115 C108 1.240 . S
O116 In104 2.326 . S
O116 C108 1.252 . S
In117 O118 2.294 . S
In117 O119 2.326 . S
In117 O123 2.266 . S
In117 O124 2.326 . S
In117 O125 2.266 . S
In117 O126 2.326 . S
In117 O128 2.294 . S
In117 O129 2.326 . S
O118 In117 2.294 . S
O118 C127 1.240 . S
O119 In117 2.326 . S
O119 C127 1.252 . S
C120 O123 1.252 . S
C120 O124 1.260 . S
C121 O128 1.240 . S
C121 O129 1.252 . S
C122 O125 1.252 . S
C122 O126 1.260 . S
O123 In117 2.266 . S
O123 C120 1.252 . S
O124 In117 2.326 . S
O124 C120 1.260 . S
O125 In117 2.266 . S
O125 C122 1.252 . S
O126 In117 2.326 . S
O126 C122 1.260 . S
C127 O118 1.240 . S
C127 O119 1.252 . S
O128 In117 2.294 . S
O128 C121 1.240 . S
O129 In117 2.326 . S
O129 C121 1.252 . S
In130 O131 2.294 . S
In130 O132 2.326 . S
In130 O136 2.266 . S
In130 O137 2.326 . S
In130 O138 2.266 . S
In130 O139 2.326 . S
In130 O141 2.294 . S
In130 O142 2.326 . S
O131 In130 2.294 . S
O131 C140 1.240 . S
O132 In130 2.326 . S
O132 C140 1.252 . S
C133 O136 1.252 . S
C133 O137 1.260 . S
C134 O141 1.240 . S
C134 O142 1.252 . S
C135 O138 1.252 . S
C135 O139 1.260 . S
O136 In130 2.266 . S
O136 C133 1.252 . S
O137 In130 2.326 . S
O137 C133 1.260 . S
O138 In130 2.266 . S
O138 C135 1.252 . S
O139 In130 2.326 . S
O139 C135 1.260 . S
C140 O131 1.240 . S
C140 O132 1.252 . S
O141 In130 2.294 . S
O141 C134 1.240 . S
O142 In130 2.326 . S
O142 C134 1.252 . S
In143 O144 2.294 . S
In143 O145 2.326 . S
In143 O149 2.266 . S
In143 O150 2.326 . S
In143 O151 2.266 . S
In143 O152 2.326 . S
In143 O154 2.294 . S
In143 O155 2.326 . S
O144 In143 2.294 . S
O144 C153 1.240 . S
O145 In143 2.326 . S
O145 C153 1.252 . S
C146 O149 1.252 . S
C146 O150 1.260 . S
C147 O154 1.240 . S
C147 O155 1.252 . S
C148 O151 1.252 . S
C148 O152 1.260 . S
O149 In143 2.266 . S
O149 C146 1.252 . S
O150 In143 2.326 . S
O150 C146 1.260 . S
O151 In143 2.266 . S
O151 C148 1.252 . S
O152 In143 2.326 . S
O152 C148 1.260 . S
C153 O144 1.240 . S
C153 O145 1.252 . S
O154 In143 2.294 . S
O154 C147 1.240 . S
O155 In143 2.326 . S
O155 C147 1.252 . S
In156 O157 2.294 . S
In156 O158 2.326 . S
In156 O162 2.266 . S
In156 O163 2.326 . S
In156 O164 2.266 . S
In156 O165 2.326 . S
In156 O167 2.294 . S
In156 O168 2.326 . S
O157 In156 2.294 . S
O157 C166 1.240 . S
O158 In156 2.326 . S
O158 C166 1.252 . S
C159 O162 1.252 . S
C159 O163 1.260 . S
C160 O167 1.240 . S
C160 O168 1.252 . S
C161 O164 1.252 . S
C161 O165 1.260 . S
O162 In156 2.266 . S
O162 C159 1.252 . S
O163 In156 2.326 . S
O163 C159 1.260 . S
O164 In156 2.266 . S
O164 C161 1.252 . S
O165 In156 2.326 . S
O165 C161 1.260 . S
C166 O157 1.240 . S
C166 O158 1.252 . S
O167 In156 2.294 . S
O167 C160 1.240 . S
O168 In156 2.326 . S
O168 C160 1.252 . S
In169 O170 2.294 . S
In169 O171 2.326 . S
In169 O175 2.266 . S
In169 O176 2.326 . S
In169 O177 2.266 . S
In169 O178 2.326 . S
In169 O180 2.294 . S
In169 O181 2.326 . S
O170 In169 2.294 . S
O170 C179 1.240 . S
O171 In169 2.326 . S
O171 C179 1.252 . S
C172 O175 1.252 . S
C172 O176 1.260 . S
C173 O180 1.240 . S
C173 O181 1.252 . S
C174 O177 1.252 . S
C174 O178 1.260 . S
O175 In169 2.266 . S
O175 C172 1.252 . S
O176 In169 2.326 . S
O176 C172 1.260 . S
O177 In169 2.266 . S
O177 C174 1.252 . S
O178 In169 2.326 . S
O178 C174 1.260 . S
C179 O170 1.240 . S
C179 O171 1.252 . S
O180 In169 2.294 . S
O180 C173 1.240 . S
O181 In169 2.326 . S
O181 C173 1.252 . S
In182 O183 2.294 . S
In182 O184 2.326 . S
In182 O188 2.266 . S
In182 O189 2.326 . S
In182 O190 2.266 . S
In182 O191 2.326 . S
In182 O193 2.294 . S
In182 O194 2.326 . S
O183 In182 2.294 . S
O183 C192 1.240 . S
O184 In182 2.326 . S
O184 C192 1.252 . S
C185 O188 1.252 . S
C185 O189 1.260 . S
C186 O193 1.240 . S
C186 O194 1.252 . S
C187 O190 1.252 . S
C187 O191 1.260 . S
O188 In182 2.266 . S
O188 C185 1.252 . S
O189 In182 2.326 . S
O189 C185 1.260 . S
O190 In182 2.266 . S
O190 C187 1.252 . S
O191 In182 2.326 . S
O191 C187 1.260 . S
C192 O183 1.240 . S
C192 O184 1.252 . S
O193 In182 2.294 . S
O193 C186 1.240 . S
O194 In182 2.326 . S
O194 C186 1.252 . S
In195 O196 2.294 . S
In195 O197 2.326 . S
In195 O201 2.266 . S
In195 O202 2.326 . S
In195 O203 2.266 . S
In195 O204 2.326 . S
In195 O206 2.294 . S
In195 O207 2.326 . S
O196 In195 2.294 . S
O196 C205 1.240 . S
O197 In195 2.326 . S
O197 C205 1.252 . S
C198 O201 1.252 . S
C198 O202 1.260 . S
C199 O206 1.240 . S
C199 O207 1.252 . S
C200 O203 1.252 . S
C200 O204 1.260 . S
O201 In195 2.266 . S
O201 C198 1.252 . S
O202 In195 2.326 . S
O202 C198 1.260 . S
O203 In195 2.266 . S
O203 C200 1.252 . S
O204 In195 2.326 . S
O204 C200 1.260 . S
C205 O196 1.240 . S
C205 O197 1.252 . S
O206 In195 2.294 . S
O206 C199 1.240 . S
O207 In195 2.326 . S
O207 C199 1.252 . S
In208 O209 2.294 . S
In208 O210 2.326 . S
In208 O214 2.266 . S
In208 O215 2.326 . S
In208 O216 2.266 . S
In208 O217 2.326 . S
In208 O219 2.294 . S
In208 O220 2.326 . S
O209 In208 2.294 . S
O209 C218 1.240 . S
O210 In208 2.326 . S
O210 C218 1.252 . S
C211 O214 1.252 . S
C211 O215 1.260 . S
C212 O219 1.240 . S
C212 O220 1.252 . S
C213 O216 1.252 . S
C213 O217 1.260 . S
O214 In208 2.266 . S
O214 C211 1.252 . S
O215 In208 2.326 . S
O215 C211 1.260 . S
O216 In208 2.266 . S
O216 C213 1.252 . S
O217 In208 2.326 . S
O217 C213 1.260 . S
C218 O209 1.240 . S
C218 O210 1.252 . S
O219 In208 2.294 . S
O219 C212 1.240 . S
O220 In208 2.326 . S
O220 C212 1.252 . S
In221 O222 2.294 . S
In221 O223 2.326 . S
In221 O227 2.266 . S
In221 O228 2.326 . S
In221 O229 2.266 . S
In221 O230 2.326 . S
In221 O232 2.294 . S
In221 O233 2.326 . S
O222 In221 2.294 . S
O222 C231 1.240 . S
O223 In221 2.326 . S
O223 C231 1.252 . S
C224 O227 1.252 . S
C224 O228 1.260 . S
C225 O232 1.240 . S
C225 O233 1.252 . S
C226 O229 1.252 . S
C226 O230 1.260 . S
O227 In221 2.266 . S
O227 C224 1.252 . S
O228 In221 2.326 . S
O228 C224 1.260 . S
O229 In221 2.266 . S
O229 C226 1.252 . S
O230 In221 2.326 . S
O230 C226 1.260 . S
C231 O222 1.240 . S
C231 O223 1.252 . S
O232 In221 2.294 . S
O232 C225 1.240 . S
O233 In221 2.326 . S
O233 C225 1.252 . S
In234 O235 2.294 . S
In234 O236 2.326 . S
In234 O240 2.266 . S
In234 O241 2.326 . S
In234 O242 2.266 . S
In234 O243 2.326 . S
In234 O245 2.294 . S
In234 O246 2.326 . S
O235 In234 2.294 . S
O235 C244 1.240 . S
O236 In234 2.326 . S
O236 C244 1.252 . S
C237 O240 1.252 . S
C237 O241 1.260 . S
C238 O245 1.240 . S
C238 O246 1.252 . S
C239 O242 1.252 . S
C239 O243 1.260 . S
O240 In234 2.266 . S
O240 C237 1.252 . S
O241 In234 2.326 . S
O241 C237 1.260 . S
O242 In234 2.266 . S
O242 C239 1.252 . S
O243 In234 2.326 . S
O243 C239 1.260 . S
C244 O235 1.240 . S
C244 O236 1.252 . S
O245 In234 2.294 . S
O245 C238 1.240 . S
O246 In234 2.326 . S
O246 C238 1.252 . S
In247 O248 2.294 . S
In247 O249 2.326 . S
In247 O253 2.266 . S
In247 O254 2.326 . S
In247 O255 2.266 . S
In247 O256 2.326 . S
In247 O258 2.294 . S
In247 O259 2.326 . S
O248 In247 2.294 . S
O248 C257 1.240 . S
O249 In247 2.326 . S
O249 C257 1.252 . S
C250 O253 1.252 . S
C250 O254 1.260 . S
C251 O258 1.240 . S
C251 O259 1.252 . S
C252 O255 1.252 . S
C252 O256 1.260 . S
O253 In247 2.266 . S
O253 C250 1.252 . S
O254 In247 2.326 . S
O254 C250 1.260 . S
O255 In247 2.266 . S
O255 C252 1.252 . S
O256 In247 2.326 . S
O256 C252 1.260 . S
C257 O248 1.240 . S
C257 O249 1.252 . S
O258 In247 2.294 . S
O258 C251 1.240 . S
O259 In247 2.326 . S
O259 C251 1.252 . S
In260 O261 2.294 . S
In260 O262 2.326 . S
In260 O266 2.266 . S
In260 O267 2.326 . S
In260 O268 2.266 . S
In260 O269 2.326 . S
In260 O271 2.294 . S
In260 O272 2.326 . S
O261 In260 2.294 . S
O261 C270 1.240 . S
O262 In260 2.326 . S
O262 C270 1.252 . S
C263 O266 1.252 . S
C263 O267 1.260 . S
C264 O271 1.240 . S
C264 O272 1.252 . S
C265 O268 1.252 . S
C265 O269 1.260 . S
O266 In260 2.266 . S
O266 C263 1.252 . S
O267 In260 2.326 . S
O267 C263 1.260 . S
O268 In260 2.266 . S
O268 C265 1.252 . S
O269 In260 2.326 . S
O269 C265 1.260 . S
C270 O261 1.240 . S
C270 O262 1.252 . S
O271 In260 2.294 . S
O271 C264 1.240 . S
O272 In260 2.326 . S
O272 C264 1.252 . S
In273 O274 2.294 . S
In273 O275 2.326 . S
In273 O279 2.266 . S
In273 O280 2.326 . S
In273 O281 2.266 . S
In273 O282 2.326 . S
In273 O284 2.294 . S
In273 O285 2.326 . S
O274 In273 2.294 . S
O274 C283 1.240 . S
O275 In273 2.326 . S
O275 C283 1.252 . S
C276 O279 1.252 . S
C276 O280 1.260 . S
C277 O284 1.240 . S
C277 O285 1.252 . S
C278 O281 1.252 . S
C278 O282 1.260 . S
O279 In273 2.266 . S
O279 C276 1.252 . S
O280 In273 2.326 . S
O280 C276 1.260 . S
O281 In273 2.266 . S
O281 C278 1.252 . S
O282 In273 2.326 . S
O282 C278 1.260 . S
C283 O274 1.240 . S
C283 O275 1.252 . S
O284 In273 2.294 . S
O284 C277 1.240 . S
O285 In273 2.326 . S
O285 C277 1.252 . S
In286 O287 2.294 . S
In286 O288 2.326 . S
In286 O292 2.266 . S
In286 O293 2.326 . S
In286 O294 2.266 . S
In286 O295 2.326 . S
In286 O297 2.294 . S
In286 O298 2.326 . S
O287 In286 2.294 . S
O287 C296 1.240 . S
O288 In286 2.326 . S
O288 C296 1.252 . S
C289 O292 1.252 . S
C289 O293 1.260 . S
C290 O297 1.240 . S
C290 O298 1.252 . S
C291 O294 1.252 . S
C291 O295 1.260 . S
O292 In286 2.266 . S
O292 C289 1.252 . S
O293 In286 2.326 . S
O293 C289 1.260 . S
O294 In286 2.266 . S
O294 C291 1.252 . S
O295 In286 2.326 . S
O295 C291 1.260 . S
C296 O287 1.240 . S
C296 O288 1.252 . S
O297 In286 2.294 . S
O297 C290 1.240 . S
O298 In286 2.326 . S
O298 C290 1.252 . S
In299 O300 2.294 . S
In299 O301 2.326 . S
In299 O305 2.266 . S
In299 O306 2.326 . S
In299 O307 2.266 . S
In299 O308 2.326 . S
In299 O310 2.294 . S
In299 O311 2.326 . S
O300 In299 2.294 . S
O300 C309 1.240 . S
O301 In299 2.326 . S
O301 C309 1.252 . S
C302 O305 1.252 . S
C302 O306 1.260 . S
C303 O310 1.240 . S
C303 O311 1.252 . S
C304 O307 1.252 . S
C304 O308 1.260 . S
O305 In299 2.266 . S
O305 C302 1.252 . S
O306 In299 2.326 . S
O306 C302 1.260 . S
O307 In299 2.266 . S
O307 C304 1.252 . S
O308 In299 2.326 . S
O308 C304 1.260 . S
C309 O300 1.240 . S
C309 O301 1.252 . S
O310 In299 2.294 . S
O310 C303 1.240 . S
O311 In299 2.326 . S
O311 C303 1.252 . S
In312 O313 2.294 . S
In312 O314 2.326 . S
In312 O318 2.266 . S
In312 O319 2.326 . S
In312 O320 2.266 . S
In312 O321 2.326 . S
In312 O323 2.294 . S
In312 O324 2.326 . S
O313 In312 2.294 . S
O313 C322 1.240 . S
O314 In312 2.326 . S
O314 C322 1.252 . S
C315 O318 1.252 . S
C315 O319 1.260 . S
C316 O323 1.240 . S
C316 O324 1.252 . S
C317 O320 1.252 . S
C317 O321 1.260 . S
O318 In312 2.266 . S
O318 C315 1.252 . S
O319 In312 2.326 . S
O319 C315 1.260 . S
O320 In312 2.266 . S
O320 C317 1.252 . S
O321 In312 2.326 . S
O321 C317 1.260 . S
C322 O313 1.240 . S
C322 O314 1.252 . S
O323 In312 2.294 . S
O323 C316 1.240 . S
O324 In312 2.326 . S
O324 C316 1.252 . S
In325 O326 2.294 . S
In325 O327 2.326 . S
In325 O331 2.266 . S
In325 O332 2.326 . S
In325 O333 2.266 . S
In325 O334 2.326 . S
In325 O336 2.294 . S
In325 O337 2.326 . S
O326 In325 2.294 . S
O326 C335 1.240 . S
O327 In325 2.326 . S
O327 C335 1.252 . S
C328 O331 1.252 . S
C328 O332 1.260 . S
C329 O336 1.240 . S
C329 O337 1.252 . S
C330 O333 1.252 . S
C330 O334 1.260 . S
O331 In325 2.266 . S
O331 C328 1.252 . S
O332 In325 2.326 . S
O332 C328 1.260 . S
O333 In325 2.266 . S
O333 C330 1.252 . S
O334 In325 2.326 . S
O334 C330 1.260 . S
C335 O326 1.240 . S
C335 O327 1.252 . S
O336 In325 2.294 . S
O336 C329 1.240 . S
O337 In325 2.326 . S
O337 C329 1.252 . S
In338 O339 2.294 . S
In338 O340 2.326 . S
In338 O344 2.266 . S
In338 O345 2.326 . S
In338 O346 2.266 . S
In338 O347 2.326 . S
In338 O349 2.294 . S
In338 O350 2.326 . S
O339 In338 2.294 . S
O339 C348 1.240 . S
O340 In338 2.326 . S
O340 C348 1.252 . S
C341 O344 1.252 . S
C341 O345 1.260 . S
C342 O349 1.240 . S
C342 O350 1.252 . S
C343 O346 1.252 1_554 S
C343 O347 1.260 1_554 S
O344 In338 2.266 . S
O344 C341 1.252 . S
O345 In338 2.326 . S
O345 C341 1.260 . S
O346 In338 2.266 . S
O346 C343 1.252 1_556 S
O347 In338 2.326 . S
O347 C343 1.260 1_556 S
C348 O339 1.240 . S
C348 O340 1.252 . S
O349 In338 2.294 . S
O349 C342 1.240 . S
O350 In338 2.326 . S
O350 C342 1.252 . S
In351 O352 2.294 . S
In351 O353 2.326 . S
In351 O357 2.266 . S
In351 O358 2.326 . S
In351 O359 2.266 . S
In351 O360 2.326 . S
In351 O362 2.294 . S
In351 O363 2.326 . S
O352 In351 2.294 . S
O352 C361 1.240 . S
O353 In351 2.326 . S
O353 C361 1.252 . S
C354 O357 1.252 1_554 S
C354 O358 1.260 1_554 S
C355 O362 1.240 . S
C355 O363 1.252 . S
C356 O359 1.252 . S
C356 O360 1.260 . S
O357 In351 2.266 . S
O357 C354 1.252 1_556 S
O358 In351 2.326 . S
O358 C354 1.260 1_556 S
O359 In351 2.266 . S
O359 C356 1.252 . S
O360 In351 2.326 . S
O360 C356 1.260 . S
C361 O352 1.240 . S
C361 O353 1.252 . S
O362 In351 2.294 . S
O362 C355 1.240 . S
O363 In351 2.326 . S
O363 C355 1.252 . S
In364 O365 2.294 . S
In364 O366 2.326 . S
In364 O370 2.266 . S
In364 O371 2.326 . S
In364 O372 2.266 . S
In364 O373 2.326 . S
In364 O375 2.294 . S
In364 O376 2.326 . S
O365 In364 2.294 . S
O365 C374 1.240 . S
O366 In364 2.326 . S
O366 C374 1.252 . S
C367 O370 1.252 . S
C367 O371 1.260 . S
C368 O375 1.240 . S
C368 O376 1.252 . S
C369 O372 1.252 . S
C369 O373 1.260 . S
O370 In364 2.266 . S
O370 C367 1.252 . S
O371 In364 2.326 . S
O371 C367 1.260 . S
O372 In364 2.266 . S
O372 C369 1.252 . S
O373 In364 2.326 . S
O373 C369 1.260 . S
C374 O365 1.240 . S
C374 O366 1.252 . S
O375 In364 2.294 . S
O375 C368 1.240 . S
O376 In364 2.326 . S
O376 C368 1.252 . S
In377 O378 2.294 . S
In377 O379 2.326 . S
In377 O383 2.266 . S
In377 O384 2.326 . S
In377 O385 2.266 . S
In377 O386 2.326 . S
In377 O388 2.294 . S
In377 O389 2.326 . S
O378 In377 2.294 . S
O378 C387 1.240 . S
O379 In377 2.326 . S
O379 C387 1.252 . S
C380 O383 1.252 . S
C380 O384 1.260 . S
C381 O388 1.240 . S
C381 O389 1.252 . S
C382 O385 1.252 . S
C382 O386 1.260 . S
O383 In377 2.266 . S
O383 C380 1.252 . S
O384 In377 2.326 . S
O384 C380 1.260 . S
O385 In377 2.266 . S
O385 C382 1.252 . S
O386 In377 2.326 . S
O386 C382 1.260 . S
C387 O378 1.240 . S
C387 O379 1.252 . S
O388 In377 2.294 . S
O388 C381 1.240 . S
O389 In377 2.326 . S
O389 C381 1.252 . S
In390 O391 2.294 . S
In390 O392 2.326 . S
In390 O396 2.266 . S
In390 O397 2.326 . S
In390 O398 2.266 . S
In390 O399 2.326 . S
In390 O401 2.294 . S
In390 O402 2.326 . S
O391 In390 2.294 . S
O391 C400 1.240 . S
O392 In390 2.326 . S
O392 C400 1.252 . S
C393 O396 1.252 1_556 S
C393 O397 1.260 1_556 S
C394 O401 1.240 . S
C394 O402 1.252 . S
C395 O398 1.252 . S
C395 O399 1.260 . S
O396 In390 2.266 . S
O396 C393 1.252 1_554 S
O397 In390 2.326 . S
O397 C393 1.260 1_554 S
O398 In390 2.266 . S
O398 C395 1.252 . S
O399 In390 2.326 . S
O399 C395 1.260 . S
C400 O391 1.240 . S
C400 O392 1.252 . S
O401 In390 2.294 . S
O401 C394 1.240 . S
O402 In390 2.326 . S
O402 C394 1.252 . S
In403 O404 2.294 . S
In403 O405 2.326 . S
In403 O409 2.266 . S
In403 O410 2.326 . S
In403 O411 2.266 . S
In403 O412 2.326 . S
In403 O414 2.294 . S
In403 O415 2.326 . S
O404 In403 2.294 . S
O404 C413 1.240 . S
O405 In403 2.326 . S
O405 C413 1.252 . S
C406 O409 1.252 1_556 S
C406 O410 1.260 1_556 S
C407 O414 1.240 . S
C407 O415 1.252 . S
C408 O411 1.252 . S
C408 O412 1.260 . S
O409 In403 2.266 . S
O409 C406 1.252 1_554 S
O410 In403 2.326 . S
O410 C406 1.260 1_554 S
O411 In403 2.266 . S
O411 C408 1.252 . S
O412 In403 2.326 . S
O412 C408 1.260 . S
C413 O404 1.240 . S
C413 O405 1.252 . S
O414 In403 2.294 . S
O414 C407 1.240 . S
O415 In403 2.326 . S
O415 C407 1.252 . S
H416 C434 0.951 . S
H417 C436 0.951 . S
H418 C438 0.950 . S
H419 C439 0.950 . S
H420 C441 0.950 . S
H421 C444 0.950 . S
H422 C445 0.950 . S
H423 C447 0.950 . S
H424 C448 0.950 . S
H425 C449 0.951 . S
H426 C451 0.951 . S
H427 C453 0.950 . S
H428 C454 0.950 . S
H429 C456 0.950 . S
H430 C459 0.950 . S
H431 C460 0.950 . S
H432 C462 0.950 . S
H433 C463 0.950 . S
C434 H416 0.951 . S
C434 C435 1.366 . S
C434 C436 1.388 . S
C435 C434 1.366 . S
C435 C439 1.385 . S
C436 H417 0.951 . S
C436 C434 1.388 . S
C436 C437 1.366 . S
C437 C436 1.366 . S
C437 C438 1.414 . S
C437 C440 1.499 . S
C438 H418 0.950 . S
C438 C437 1.414 . S
C438 C439 1.374 . S
C439 H419 0.950 . S
C439 C435 1.385 . S
C439 C438 1.374 . S
C440 C437 1.499 . S
C440 C441 1.373 . S
C440 C442 1.389 . S
C441 H420 0.950 . S
C441 C440 1.373 . S
C441 C457 1.377 . S
C442 C440 1.389 . S
C442 C443 1.524 . S
C442 C456 1.377 . S
C443 C442 1.524 . S
C443 C444 1.397 . S
C443 C448 1.363 . S
C444 H421 0.950 . S
C444 C443 1.397 . S
C444 C445 1.334 . S
C445 H422 0.950 . S
C445 C444 1.334 . S
C445 C446 1.287 . S
C446 C445 1.287 . S
C446 C447 1.524 . S
C446 H465 0.913 . S
C447 H423 0.950 . S
C447 C446 1.524 . S
C447 C448 1.415 . S
C448 H424 0.950 . S
C448 C443 1.363 . S
C448 C447 1.415 . S
C449 H425 0.951 . S
C449 C450 1.366 . S
C449 C451 1.388 . S
C450 C449 1.366 . S
C450 C454 1.385 . S
C451 H426 0.951 . S
C451 C449 1.388 . S
C451 C452 1.366 . S
C452 C451 1.366 . S
C452 C453 1.414 . S
C452 C455 1.499 . S
C453 H427 0.950 . S
C453 C452 1.414 . S
C453 C454 1.374 . S
C454 H428 0.950 . S
C454 C450 1.385 . S
C454 C453 1.374 . S
C455 C452 1.499 . S
C455 C456 1.373 . S
C455 C457 1.389 . S
C456 H429 0.950 . S
C456 C442 1.377 . S
C456 C455 1.373 . S
C457 C441 1.377 . S
C457 C455 1.389 . S
C457 C458 1.524 . S
C458 C457 1.524 . S
C458 C459 1.397 . S
C458 C463 1.363 . S
C459 H430 0.950 . S
C459 C458 1.397 . S
C459 C460 1.334 . S
C460 H431 0.950 . S
C460 C459 1.334 . S
C460 C461 1.287 . S
C461 C460 1.287 . S
C461 C462 1.524 1_455 S
C461 H464 0.999 . S
C462 H432 0.950 . S
C462 C461 1.524 1_655 S
C462 C463 1.415 1_655 S
C463 H433 0.950 . S
C463 C458 1.363 . S
C463 C462 1.415 1_455 S
H464 C461 0.999 . S
H465 C446 0.913 . S
H466 C484 0.951 . S
H467 C486 0.951 . S
H468 C488 0.950 . S
H469 C489 0.950 . S
H470 C491 0.950 . S
H471 C494 0.950 . S
H472 C495 0.950 . S
H473 C497 0.950 . S
H474 C498 0.950 . S
H475 C499 0.951 . S
H476 C501 0.951 . S
H477 C503 0.950 . S
H478 C504 0.950 . S
H479 C506 0.950 . S
H480 C509 0.950 . S
H481 C510 0.950 . S
H482 C512 0.950 . S
H483 C513 0.950 . S
C484 H466 0.951 . S
C484 C485 1.366 . S
C484 C486 1.388 . S
C485 C484 1.366 . S
C485 C489 1.385 . S
C486 H467 0.951 . S
C486 C484 1.388 . S
C486 C487 1.366 . S
C487 C486 1.366 . S
C487 C488 1.414 . S
C487 C490 1.499 . S
C488 H468 0.950 . S
C488 C487 1.414 . S
C488 C489 1.374 . S
C489 H469 0.950 . S
C489 C485 1.385 . S
C489 C488 1.374 . S
C490 C487 1.499 . S
C490 C491 1.373 . S
C490 C492 1.389 . S
C491 H470 0.950 . S
C491 C490 1.373 . S
C491 C507 1.377 . S
C492 C490 1.389 . S
C492 C493 1.524 . S
C492 C506 1.377 . S
C493 C492 1.524 . S
C493 C494 1.397 . S
C493 C498 1.363 . S
C494 H471 0.950 . S
C494 C493 1.397 . S
C494 C495 1.334 . S
C495 H472 0.950 . S
C495 C494 1.334 . S
C495 C496 1.287 . S
C496 C495 1.287 . S
C496 C497 1.524 . S
C496 H515 0.913 . S
C497 H473 0.950 . S
C497 C496 1.524 . S
C497 C498 1.415 . S
C498 H474 0.950 . S
C498 C493 1.363 . S
C498 C497 1.415 . S
C499 H475 0.951 . S
C499 C500 1.366 . S
C499 C501 1.388 . S
C500 C499 1.366 . S
C500 C504 1.385 . S
C501 H476 0.951 . S
C501 C499 1.388 . S
C501 C502 1.366 . S
C502 C501 1.366 . S
C502 C503 1.414 . S
C502 C505 1.499 . S
C503 H477 0.950 . S
C503 C502 1.414 . S
C503 C504 1.374 . S
C504 H478 0.950 . S
C504 C500 1.385 . S
C504 C503 1.374 . S
C505 C502 1.499 . S
C505 C506 1.373 . S
C505 C507 1.389 . S
C506 H479 0.950 . S
C506 C492 1.377 . S
C506 C505 1.373 . S
C507 C491 1.377 . S
C507 C505 1.389 . S
C507 C508 1.524 . S
C508 C507 1.524 . S
C508 C509 1.397 . S
C508 C513 1.363 . S
C509 H480 0.950 . S
C509 C508 1.397 . S
C509 C510 1.334 . S
C510 H481 0.950 . S
C510 C509 1.334 . S
C510 C511 1.287 . S
C511 C510 1.287 . S
C511 C512 1.524 . S
C511 H514 0.999 . S
C512 H482 0.950 . S
C512 C511 1.524 . S
C512 C513 1.415 . S
C513 H483 0.950 . S
C513 C508 1.363 . S
C513 C512 1.415 . S
H514 C511 0.999 . S
H515 C496 0.913 . S
H516 C534 0.951 . S
H517 C536 0.951 . S
H518 C538 0.950 . S
H519 C539 0.950 . S
H520 C541 0.950 . S
H521 C544 0.950 . S
H522 C545 0.950 . S
H523 C547 0.950 . S
H524 C548 0.950 . S
H525 C549 0.951 . S
H526 C551 0.951 . S
H527 C553 0.950 . S
H528 C554 0.950 . S
H529 C556 0.950 . S
H530 C559 0.950 . S
H531 C560 0.950 . S
H532 C562 0.950 . S
H533 C563 0.950 1_455 S
C534 H516 0.951 . S
C534 C535 1.366 . S
C534 C536 1.388 . S
C535 C534 1.366 . S
C535 C539 1.385 . S
C536 H517 0.951 . S
C536 C534 1.388 . S
C536 C537 1.366 . S
C537 C536 1.366 . S
C537 C538 1.414 . S
C537 C540 1.499 . S
C538 H518 0.950 . S
C538 C537 1.414 . S
C538 C539 1.374 . S
C539 H519 0.950 . S
C539 C535 1.385 . S
C539 C538 1.374 . S
C540 C537 1.499 . S
C540 C541 1.373 . S
C540 C542 1.389 . S
C541 H520 0.950 . S
C541 C540 1.373 . S
C541 C557 1.377 . S
C542 C540 1.389 . S
C542 C543 1.524 . S
C542 C556 1.377 . S
C543 C542 1.524 . S
C543 C544 1.397 . S
C543 C548 1.363 . S
C544 H521 0.950 . S
C544 C543 1.397 . S
C544 C545 1.334 . S
C545 H522 0.950 . S
C545 C544 1.334 . S
C545 C546 1.287 . S
C546 C545 1.287 . S
C546 C547 1.524 . S
C546 H565 0.913 . S
C547 H523 0.950 . S
C547 C546 1.524 . S
C547 C548 1.415 . S
C548 H524 0.950 . S
C548 C543 1.363 . S
C548 C547 1.415 . S
C549 H525 0.951 . S
C549 C550 1.366 . S
C549 C551 1.388 . S
C550 C549 1.366 . S
C550 C554 1.385 . S
C551 H526 0.951 . S
C551 C549 1.388 . S
C551 C552 1.366 . S
C552 C551 1.366 . S
C552 C553 1.414 . S
C552 C555 1.499 . S
C553 H527 0.950 . S
C553 C552 1.414 . S
C553 C554 1.374 . S
C554 H528 0.950 . S
C554 C550 1.385 . S
C554 C553 1.374 . S
C555 C552 1.499 . S
C555 C556 1.373 . S
C555 C557 1.389 . S
C556 H529 0.950 . S
C556 C542 1.377 . S
C556 C555 1.373 . S
C557 C541 1.377 . S
C557 C555 1.389 . S
C557 C558 1.524 . S
C558 C557 1.524 . S
C558 C559 1.397 . S
C558 C563 1.363 1_455 S
C559 H530 0.950 . S
C559 C558 1.397 . S
C559 C560 1.334 1_455 S
C560 H531 0.950 . S
C560 C559 1.334 1_655 S
C560 C561 1.287 . S
C561 C560 1.287 . S
C561 C562 1.524 . S
C561 H564 0.999 . S
C562 H532 0.950 . S
C562 C561 1.524 . S
C562 C563 1.415 . S
C563 H533 0.950 1_655 S
C563 C558 1.363 1_655 S
C563 C562 1.415 . S
H564 C561 0.999 . S
H565 C546 0.913 . S
H566 C584 0.951 . S
H567 C586 0.951 . S
H568 C588 0.950 . S
H569 C589 0.950 . S
H570 C591 0.950 . S
H571 C594 0.950 . S
H572 C595 0.950 . S
H573 C597 0.950 . S
H574 C598 0.950 . S
H575 C599 0.951 . S
H576 C601 0.951 . S
H577 C603 0.950 . S
H578 C604 0.950 . S
H579 C606 0.950 . S
H580 C609 0.950 . S
H581 C610 0.950 1_655 S
H582 C612 0.950 1_655 S
H583 C613 0.950 . S
C584 H566 0.951 . S
C584 C585 1.366 . S
C584 C586 1.388 . S
C585 C584 1.366 . S
C585 C589 1.385 . S
C586 H567 0.951 . S
C586 C584 1.388 . S
C586 C587 1.366 . S
C587 C586 1.366 . S
C587 C588 1.414 . S
C587 C590 1.499 . S
C588 H568 0.950 . S
C588 C587 1.414 . S
C588 C589 1.374 . S
C589 H569 0.950 . S
C589 C585 1.385 . S
C589 C588 1.374 . S
C590 C587 1.499 . S
C590 C591 1.373 . S
C590 C592 1.389 . S
C591 H570 0.950 . S
C591 C590 1.373 . S
C591 C607 1.377 . S
C592 C590 1.389 . S
C592 C593 1.524 . S
C592 C606 1.377 . S
C593 C592 1.524 . S
C593 C594 1.397 . S
C593 C598 1.363 . S
C594 H571 0.950 . S
C594 C593 1.397 . S
C594 C595 1.334 . S
C595 H572 0.950 . S
C595 C594 1.334 . S
C595 C596 1.287 . S
C596 C595 1.287 . S
C596 C597 1.524 . S
C596 H615 0.913 . S
C597 H573 0.950 . S
C597 C596 1.524 . S
C597 C598 1.415 . S
C598 H574 0.950 . S
C598 C593 1.363 . S
C598 C597 1.415 . S
C599 H575 0.951 . S
C599 C600 1.366 . S
C599 C601 1.388 . S
C600 C599 1.366 . S
C600 C604 1.385 . S
C601 H576 0.951 . S
C601 C599 1.388 . S
C601 C602 1.366 . S
C602 C601 1.366 . S
C602 C603 1.414 . S
C602 C605 1.499 . S
C603 H577 0.950 . S
C603 C602 1.414 . S
C603 C604 1.374 . S
C604 H578 0.950 . S
C604 C600 1.385 . S
C604 C603 1.374 . S
C605 C602 1.499 . S
C605 C606 1.373 . S
C605 C607 1.389 . S
C606 H579 0.950 . S
C606 C592 1.377 . S
C606 C605 1.373 . S
C607 C591 1.377 . S
C607 C605 1.389 . S
C607 C608 1.524 . S
C608 C607 1.524 . S
C608 C609 1.397 . S
C608 C613 1.363 . S
C609 H580 0.950 . S
C609 C608 1.397 . S
C609 C610 1.334 . S
C610 H581 0.950 1_455 S
C610 C609 1.334 . S
C610 C611 1.287 1_455 S
C611 C610 1.287 1_655 S
C611 C612 1.524 1_655 S
C611 H614 0.999 . S
C612 H582 0.950 1_455 S
C612 C611 1.524 1_455 S
C612 C613 1.415 . S
C613 H583 0.950 . S
C613 C608 1.363 . S
C613 C612 1.415 . S
H614 C611 0.999 . S
H615 C596 0.913 . S
H616 C634 0.951 . S
H617 C636 0.951 . S
H618 C638 0.950 . S
H619 C639 0.950 . S
H620 C641 0.950 . S
H621 C644 0.950 . S
H622 C645 0.950 . S
H623 C647 0.950 . S
H624 C648 0.950 . S
H625 C649 0.951 . S
H626 C651 0.951 . S
H627 C653 0.950 . S
H628 C654 0.950 . S
H629 C656 0.950 . S
H630 C659 0.950 . S
H631 C660 0.950 . S
H632 C662 0.950 . S
H633 C663 0.950 . S
C634 H616 0.951 . S
C634 C635 1.366 . S
C634 C636 1.388 . S
C635 C634 1.366 . S
C635 C639 1.385 . S
C636 H617 0.951 . S
C636 C634 1.388 . S
C636 C637 1.366 . S
C637 C636 1.366 . S
C637 C638 1.414 . S
C637 C640 1.499 . S
C638 H618 0.950 . S
C638 C637 1.414 . S
C638 C639 1.374 . S
C639 H619 0.950 . S
C639 C635 1.385 . S
C639 C638 1.374 . S
C640 C637 1.499 . S
C640 C641 1.373 . S
C640 C642 1.389 . S
C641 H620 0.950 . S
C641 C640 1.373 . S
C641 C657 1.377 . S
C642 C640 1.389 . S
C642 C643 1.524 . S
C642 C656 1.377 . S
C643 C642 1.524 . S
C643 C644 1.397 . S
C643 C648 1.363 1_655 S
C644 H621 0.950 . S
C644 C643 1.397 . S
C644 C645 1.334 . S
C645 H622 0.950 . S
C645 C644 1.334 . S
C645 C646 1.287 1_655 S
C646 C645 1.287 1_455 S
C646 C647 1.524 . S
C646 H665 0.913 . S
C647 H623 0.950 . S
C647 C646 1.524 . S
C647 C648 1.415 . S
C648 H624 0.950 . S
C648 C643 1.363 1_455 S
C648 C647 1.415 . S
C649 H625 0.951 . S
C649 C650 1.366 . S
C649 C651 1.388 . S
C650 C649 1.366 . S
C650 C654 1.385 . S
C651 H626 0.951 . S
C651 C649 1.388 . S
C651 C652 1.366 . S
C652 C651 1.366 . S
C652 C653 1.414 . S
C652 C655 1.499 . S
C653 H627 0.950 . S
C653 C652 1.414 . S
C653 C654 1.374 . S
C654 H628 0.950 . S
C654 C650 1.385 . S
C654 C653 1.374 . S
C655 C652 1.499 . S
C655 C656 1.373 . S
C655 C657 1.389 . S
C656 H629 0.950 . S
C656 C642 1.377 . S
C656 C655 1.373 . S
C657 C641 1.377 . S
C657 C655 1.389 . S
C657 C658 1.524 . S
C658 C657 1.524 . S
C658 C659 1.397 . S
C658 C663 1.363 . S
C659 H630 0.950 . S
C659 C658 1.397 . S
C659 C660 1.334 . S
C660 H631 0.950 . S
C660 C659 1.334 . S
C660 C661 1.287 . S
C661 C660 1.287 . S
C661 C662 1.524 . S
C661 H664 0.999 . S
C662 H632 0.950 . S
C662 C661 1.524 . S
C662 C663 1.415 . S
C663 H633 0.950 . S
C663 C658 1.363 . S
C663 C662 1.415 . S
H664 C661 0.999 . S
H665 C646 0.913 . S
H666 C684 0.951 . S
H667 C686 0.951 . S
H668 C688 0.950 . S
H669 C689 0.950 . S
H670 C691 0.950 . S
H671 C694 0.950 . S
H672 C695 0.950 . S
H673 C697 0.950 . S
H674 C698 0.950 . S
H675 C699 0.951 . S
H676 C701 0.951 . S
H677 C703 0.950 . S
H678 C704 0.950 . S
H679 C706 0.950 . S
H680 C709 0.950 . S
H681 C710 0.950 . S
H682 C712 0.950 . S
H683 C713 0.950 . S
C684 H666 0.951 . S
C684 C685 1.366 . S
C684 C686 1.388 . S
C685 C684 1.366 . S
C685 C689 1.385 . S
C686 H667 0.951 . S
C686 C684 1.388 . S
C686 C687 1.366 . S
C687 C686 1.366 . S
C687 C688 1.414 . S
C687 C690 1.499 . S
C688 H668 0.950 . S
C688 C687 1.414 . S
C688 C689 1.374 . S
C689 H669 0.950 . S
C689 C685 1.385 . S
C689 C688 1.374 . S
C690 C687 1.499 . S
C690 C691 1.373 . S
C690 C692 1.389 . S
C691 H670 0.950 . S
C691 C690 1.373 . S
C691 C707 1.377 . S
C692 C690 1.389 . S
C692 C693 1.524 . S
C692 C706 1.377 . S
C693 C692 1.524 . S
C693 C694 1.397 . S
C693 C698 1.363 . S
C694 H671 0.950 . S
C694 C693 1.397 . S
C694 C695 1.334 . S
C695 H672 0.950 . S
C695 C694 1.334 . S
C695 C696 1.287 . S
C696 C695 1.287 . S
C696 C697 1.524 . S
C696 H715 0.913 . S
C697 H673 0.950 . S
C697 C696 1.524 . S
C697 C698 1.415 . S
C698 H674 0.950 . S
C698 C693 1.363 . S
C698 C697 1.415 . S
C699 H675 0.951 . S
C699 C700 1.366 . S
C699 C701 1.388 . S
C700 C699 1.366 . S
C700 C704 1.385 . S
C701 H676 0.951 . S
C701 C699 1.388 . S
C701 C702 1.366 . S
C702 C701 1.366 . S
C702 C703 1.414 . S
C702 C705 1.499 . S
C703 H677 0.950 . S
C703 C702 1.414 . S
C703 C704 1.374 . S
C704 H678 0.950 . S
C704 C700 1.385 . S
C704 C703 1.374 . S
C705 C702 1.499 . S
C705 C706 1.373 . S
C705 C707 1.389 . S
C706 H679 0.950 . S
C706 C692 1.377 . S
C706 C705 1.373 . S
C707 C691 1.377 . S
C707 C705 1.389 . S
C707 C708 1.524 . S
C708 C707 1.524 . S
C708 C709 1.397 . S
C708 C713 1.363 . S
C709 H680 0.950 . S
C709 C708 1.397 . S
C709 C710 1.334 . S
C710 H681 0.950 . S
C710 C709 1.334 . S
C710 C711 1.287 . S
C711 C710 1.287 . S
C711 C712 1.524 . S
C711 H714 0.999 . S
C712 H682 0.950 . S
C712 C711 1.524 . S
C712 C713 1.415 . S
C713 H683 0.950 . S
C713 C708 1.363 . S
C713 C712 1.415 . S
H714 C711 0.999 . S
H715 C696 0.913 . S
H716 C734 0.951 . S
H717 C736 0.951 . S
H718 C738 0.950 . S
H719 C739 0.950 . S
H720 C741 0.950 . S
H721 C744 0.950 . S
H722 C745 0.950 . S
H723 C747 0.950 . S
H724 C748 0.950 . S
H725 C749 0.951 . S
H726 C751 0.951 . S
H727 C753 0.950 . S
H728 C754 0.950 . S
H729 C756 0.950 . S
H730 C759 0.950 . S
H731 C760 0.950 . S
H732 C762 0.950 . S
H733 C763 0.950 . S
C734 H716 0.951 . S
C734 C735 1.366 . S
C734 C736 1.388 . S
C735 C734 1.366 . S
C735 C739 1.385 . S
C736 H717 0.951 . S
C736 C734 1.388 . S
C736 C737 1.366 . S
C737 C736 1.366 . S
C737 C738 1.414 . S
C737 C740 1.499 . S
C738 H718 0.950 . S
C738 C737 1.414 . S
C738 C739 1.374 . S
C739 H719 0.950 . S
C739 C735 1.385 . S
C739 C738 1.374 . S
C740 C737 1.499 . S
C740 C741 1.373 . S
C740 C742 1.389 . S
C741 H720 0.950 . S
C741 C740 1.373 . S
C741 C757 1.377 . S
C742 C740 1.389 . S
C742 C743 1.524 . S
C742 C756 1.377 . S
C743 C742 1.524 . S
C743 C744 1.397 . S
C743 C748 1.363 1_655 S
C744 H721 0.950 . S
C744 C743 1.397 . S
C744 C745 1.334 1_655 S
C745 H722 0.950 . S
C745 C744 1.334 1_455 S
C745 C746 1.287 . S
C746 C745 1.287 . S
C746 C747 1.524 . S
C746 H765 0.913 . S
C747 H723 0.950 . S
C747 C746 1.524 . S
C747 C748 1.415 . S
C748 H724 0.950 . S
C748 C743 1.363 1_455 S
C748 C747 1.415 . S
C749 H725 0.951 . S
C749 C750 1.366 . S
C749 C751 1.388 . S
C750 C749 1.366 . S
C750 C754 1.385 . S
C751 H726 0.951 . S
C751 C749 1.388 . S
C751 C752 1.366 . S
C752 C751 1.366 . S
C752 C753 1.414 . S
C752 C755 1.499 . S
C753 H727 0.950 . S
C753 C752 1.414 . S
C753 C754 1.374 . S
C754 H728 0.950 . S
C754 C750 1.385 . S
C754 C753 1.374 . S
C755 C752 1.499 . S
C755 C756 1.373 . S
C755 C757 1.389 . S
C756 H729 0.950 . S
C756 C742 1.377 . S
C756 C755 1.373 . S
C757 C741 1.377 . S
C757 C755 1.389 . S
C757 C758 1.524 . S
C758 C757 1.524 . S
C758 C759 1.397 . S
C758 C763 1.363 . S
C759 H730 0.950 . S
C759 C758 1.397 . S
C759 C760 1.334 . S
C760 H731 0.950 . S
C760 C759 1.334 . S
C760 C761 1.287 . S
C761 C760 1.287 . S
C761 C762 1.524 . S
C761 H764 0.999 . S
C762 H732 0.950 . S
C762 C761 1.524 . S
C762 C763 1.415 . S
C763 H733 0.950 . S
C763 C758 1.363 . S
C763 C762 1.415 . S
H764 C761 0.999 . S
H765 C746 0.913 . S
H766 C784 0.951 . S
H767 C786 0.951 . S
H768 C788 0.950 . S
H769 C789 0.950 . S
H770 C791 0.950 . S
H771 C794 0.950 . S
H772 C795 0.950 . S
H773 C797 0.950 . S
H774 C798 0.950 . S
H775 C799 0.951 . S
H776 C801 0.951 . S
H777 C803 0.950 . S
H778 C804 0.950 . S
H779 C806 0.950 . S
H780 C809 0.950 . S
H781 C810 0.950 . S
H782 C812 0.950 . S
H783 C813 0.950 . S
C784 H766 0.951 . S
C784 C785 1.366 . S
C784 C786 1.388 . S
C785 C784 1.366 . S
C785 C789 1.385 . S
C786 H767 0.951 . S
C786 C784 1.388 . S
C786 C787 1.366 . S
C787 C786 1.366 . S
C787 C788 1.414 . S
C787 C790 1.499 . S
C788 H768 0.950 . S
C788 C787 1.414 . S
C788 C789 1.374 . S
C789 H769 0.950 . S
C789 C785 1.385 . S
C789 C788 1.374 . S
C790 C787 1.499 . S
C790 C791 1.373 . S
C790 C792 1.389 . S
C791 H770 0.950 . S
C791 C790 1.373 . S
C791 C807 1.377 . S
C792 C790 1.389 . S
C792 C793 1.524 . S
C792 C806 1.377 . S
C793 C792 1.524 . S
C793 C794 1.397 . S
C793 C798 1.363 . S
C794 H771 0.950 . S
C794 C793 1.397 . S
C794 C795 1.334 . S
C795 H772 0.950 . S
C795 C794 1.334 . S
C795 C796 1.287 . S
C796 C795 1.287 . S
C796 C797 1.524 . S
C796 H815 0.913 . S
C797 H773 0.950 . S
C797 C796 1.524 . S
C797 C798 1.415 . S
C798 H774 0.950 . S
C798 C793 1.363 . S
C798 C797 1.415 . S
C799 H775 0.951 . S
C799 C800 1.366 . S
C799 C801 1.388 . S
C800 C799 1.366 . S
C800 C804 1.385 . S
C801 H776 0.951 . S
C801 C799 1.388 . S
C801 C802 1.366 . S
C802 C801 1.366 . S
C802 C803 1.414 . S
C802 C805 1.499 . S
C803 H777 0.950 . S
C803 C802 1.414 . S
C803 C804 1.374 . S
C804 H778 0.950 . S
C804 C800 1.385 . S
C804 C803 1.374 . S
C805 C802 1.499 . S
C805 C806 1.373 . S
C805 C807 1.389 . S
C806 H779 0.950 . S
C806 C792 1.377 . S
C806 C805 1.373 . S
C807 C791 1.377 . S
C807 C805 1.389 . S
C807 C808 1.524 . S
C808 C807 1.524 . S
C808 C809 1.397 . S
C808 C813 1.363 . S
C809 H780 0.950 . S
C809 C808 1.397 . S
C809 C810 1.334 . S
C810 H781 0.950 . S
C810 C809 1.334 . S
C810 C811 1.287 . S
C811 C810 1.287 . S
C811 C812 1.524 . S
C811 H814 0.999 . S
C812 H782 0.950 . S
C812 C811 1.524 . S
C812 C813 1.415 . S
C813 H783 0.950 . S
C813 C808 1.363 . S
C813 C812 1.415 . S
H814 C811 0.999 . S
H815 C796 0.913 . S
H816 C834 0.951 . S
H817 C836 0.951 . S
H818 C838 0.950 . S
H819 C839 0.950 . S
H820 C841 0.950 . S
H821 C844 0.950 . S
H822 C845 0.950 . S
H823 C847 0.950 . S
H824 C848 0.950 . S
H825 C849 0.951 . S
H826 C851 0.951 . S
H827 C853 0.950 . S
H828 C854 0.950 . S
H829 C856 0.950 . S
H830 C859 0.950 . S
H831 C860 0.950 . S
H832 C862 0.950 . S
H833 C863 0.950 . S
C834 H816 0.951 . S
C834 C835 1.366 . S
C834 C836 1.388 . S
C835 C834 1.366 . S
C835 C839 1.385 . S
C836 H817 0.951 . S
C836 C834 1.388 . S
C836 C837 1.366 . S
C837 C836 1.366 . S
C837 C838 1.414 . S
C837 C840 1.499 . S
C838 H818 0.950 . S
C838 C837 1.414 . S
C838 C839 1.374 . S
C839 H819 0.950 . S
C839 C835 1.385 . S
C839 C838 1.374 . S
C840 C837 1.499 . S
C840 C841 1.373 . S
C840 C842 1.389 . S
C841 H820 0.950 . S
C841 C840 1.373 . S
C841 C857 1.377 . S
C842 C840 1.389 . S
C842 C843 1.524 . S
C842 C856 1.377 . S
C843 C842 1.524 . S
C843 C844 1.397 . S
C843 C848 1.363 . S
C844 H821 0.950 . S
C844 C843 1.397 . S
C844 C845 1.334 . S
C845 H822 0.950 . S
C845 C844 1.334 . S
C845 C846 1.287 . S
C846 C845 1.287 . S
C846 C847 1.524 . S
C846 H865 0.913 . S
C847 H823 0.950 . S
C847 C846 1.524 . S
C847 C848 1.415 . S
C848 H824 0.950 . S
C848 C843 1.363 . S
C848 C847 1.415 . S
C849 H825 0.951 . S
C849 C850 1.366 . S
C849 C851 1.388 . S
C850 C849 1.366 . S
C850 C854 1.385 . S
C851 H826 0.951 . S
C851 C849 1.388 . S
C851 C852 1.366 . S
C852 C851 1.366 . S
C852 C853 1.414 . S
C852 C855 1.499 . S
C853 H827 0.950 . S
C853 C852 1.414 . S
C853 C854 1.374 . S
C854 H828 0.950 . S
C854 C850 1.385 . S
C854 C853 1.374 . S
C855 C852 1.499 . S
C855 C856 1.373 . S
C855 C857 1.389 . S
C856 H829 0.950 . S
C856 C842 1.377 . S
C856 C855 1.373 . S
C857 C841 1.377 . S
C857 C855 1.389 . S
C857 C858 1.524 . S
C858 C857 1.524 . S
C858 C859 1.397 . S
C858 C863 1.363 . S
C859 H830 0.950 . S
C859 C858 1.397 . S
C859 C860 1.334 . S
C860 H831 0.950 . S
C860 C859 1.334 . S
C860 C861 1.287 . S
C861 C860 1.287 . S
C861 C862 1.524 . S
C861 H864 0.999 . S
C862 H832 0.950 . S
C862 C861 1.524 . S
C862 C863 1.415 . S
C863 H833 0.950 . S
C863 C858 1.363 . S
C863 C862 1.415 . S
H864 C861 0.999 . S
H865 C846 0.913 . S
H866 C884 0.951 . S
H867 C886 0.951 . S
H868 C888 0.950 . S
H869 C889 0.950 . S
H870 C891 0.950 . S
H871 C894 0.950 . S
H872 C895 0.950 . S
H873 C897 0.950 . S
H874 C898 0.950 . S
H875 C899 0.951 . S
H876 C901 0.951 . S
H877 C903 0.950 . S
H878 C904 0.950 . S
H879 C906 0.950 . S
H880 C909 0.950 . S
H881 C910 0.950 . S
H882 C912 0.950 . S
H883 C913 0.950 . S
C884 H866 0.951 . S
C884 C885 1.366 . S
C884 C886 1.388 . S
C885 C884 1.366 . S
C885 C889 1.385 . S
C886 H867 0.951 . S
C886 C884 1.388 . S
C886 C887 1.366 . S
C887 C886 1.366 . S
C887 C888 1.414 . S
C887 C890 1.499 . S
C888 H868 0.950 . S
C888 C887 1.414 . S
C888 C889 1.374 . S
C889 H869 0.950 . S
C889 C885 1.385 . S
C889 C888 1.374 . S
C890 C887 1.499 . S
C890 C891 1.373 . S
C890 C892 1.389 . S
C891 H870 0.950 . S
C891 C890 1.373 . S
C891 C907 1.377 . S
C892 C890 1.389 . S
C892 C893 1.524 . S
C892 C906 1.377 . S
C893 C892 1.524 . S
C893 C894 1.397 . S
C893 C898 1.363 . S
C894 H871 0.950 . S
C894 C893 1.397 . S
C894 C895 1.334 . S
C895 H872 0.950 . S
C895 C894 1.334 . S
C895 C896 1.287 . S
C896 C895 1.287 . S
C896 C897 1.524 . S
C896 H915 0.913 . S
C897 H873 0.950 . S
C897 C896 1.524 . S
C897 C898 1.415 . S
C898 H874 0.950 . S
C898 C893 1.363 . S
C898 C897 1.415 . S
C899 H875 0.951 . S
C899 C900 1.366 . S
C899 C901 1.388 . S
C900 C899 1.366 . S
C900 C904 1.385 . S
C901 H876 0.951 . S
C901 C899 1.388 . S
C901 C902 1.366 . S
C902 C901 1.366 . S
C902 C903 1.414 . S
C902 C905 1.499 . S
C903 H877 0.950 . S
C903 C902 1.414 . S
C903 C904 1.374 . S
C904 H878 0.950 . S
C904 C900 1.385 . S
C904 C903 1.374 . S
C905 C902 1.499 . S
C905 C906 1.373 . S
C905 C907 1.389 . S
C906 H879 0.950 . S
C906 C892 1.377 . S
C906 C905 1.373 . S
C907 C891 1.377 . S
C907 C905 1.389 . S
C907 C908 1.524 . S
C908 C907 1.524 . S
C908 C909 1.397 . S
C908 C913 1.363 . S
C909 H880 0.950 . S
C909 C908 1.397 . S
C909 C910 1.334 . S
C910 H881 0.950 . S
C910 C909 1.334 . S
C910 C911 1.287 . S
C911 C910 1.287 . S
C911 C912 1.524 . S
C911 H914 0.999 . S
C912 H882 0.950 . S
C912 C911 1.524 . S
C912 C913 1.415 . S
C913 H883 0.950 . S
C913 C908 1.363 . S
C913 C912 1.415 . S
H914 C911 0.999 . S
H915 C896 0.913 . S
H916 C934 0.951 . S
H917 C936 0.951 . S
H918 C938 0.950 . S
H919 C939 0.950 . S
H920 C941 0.950 . S
H921 C944 0.950 . S
H922 C945 0.950 . S
H923 C947 0.950 . S
H924 C948 0.950 . S
H925 C949 0.951 . S
H926 C951 0.951 . S
H927 C953 0.950 . S
H928 C954 0.950 . S
H929 C956 0.950 . S
H930 C959 0.950 . S
H931 C960 0.950 . S
H932 C962 0.950 . S
H933 C963 0.950 . S
C934 H916 0.951 . S
C934 C935 1.366 . S
C934 C936 1.388 . S
C935 C934 1.366 . S
C935 C939 1.385 . S
C936 H917 0.951 . S
C936 C934 1.388 . S
C936 C937 1.366 . S
C937 C936 1.366 . S
C937 C938 1.414 . S
C937 C940 1.499 . S
C938 H918 0.950 . S
C938 C937 1.414 . S
C938 C939 1.374 . S
C939 H919 0.950 . S
C939 C935 1.385 . S
C939 C938 1.374 . S
C940 C937 1.499 . S
C940 C941 1.373 . S
C940 C942 1.389 . S
C941 H920 0.950 . S
C941 C940 1.373 . S
C941 C957 1.377 . S
C942 C940 1.389 . S
C942 C943 1.524 . S
C942 C956 1.377 . S
C943 C942 1.524 . S
C943 C944 1.397 . S
C943 C948 1.363 . S
C944 H921 0.950 . S
C944 C943 1.397 . S
C944 C945 1.334 . S
C945 H922 0.950 . S
C945 C944 1.334 . S
C945 C946 1.287 . S
C946 C945 1.287 . S
C946 C947 1.524 . S
C946 H965 0.913 . S
C947 H923 0.950 . S
C947 C946 1.524 . S
C947 C948 1.415 . S
C948 H924 0.950 . S
C948 C943 1.363 . S
C948 C947 1.415 . S
C949 H925 0.951 . S
C949 C950 1.366 . S
C949 C951 1.388 . S
C950 C949 1.366 . S
C950 C954 1.385 . S
C951 H926 0.951 . S
C951 C949 1.388 . S
C951 C952 1.366 . S
C952 C951 1.366 . S
C952 C953 1.414 . S
C952 C955 1.499 . S
C953 H927 0.950 . S
C953 C952 1.414 . S
C953 C954 1.374 . S
C954 H928 0.950 . S
C954 C950 1.385 . S
C954 C953 1.374 . S
C955 C952 1.499 . S
C955 C956 1.373 . S
C955 C957 1.389 . S
C956 H929 0.950 . S
C956 C942 1.377 . S
C956 C955 1.373 . S
C957 C941 1.377 . S
C957 C955 1.389 . S
C957 C958 1.524 . S
C958 C957 1.524 . S
C958 C959 1.397 . S
C958 C963 1.363 . S
C959 H930 0.950 . S
C959 C958 1.397 . S
C959 C960 1.334 . S
C960 H931 0.950 . S
C960 C959 1.334 . S
C960 C961 1.287 . S
C961 C960 1.287 . S
C961 C962 1.524 . S
C961 H964 0.999 . S
C962 H932 0.950 . S
C962 C961 1.524 . S
C962 C963 1.415 . S
C963 H933 0.950 . S
C963 C958 1.363 . S
C963 C962 1.415 . S
H964 C961 0.999 . S
H965 C946 0.913 . S
H966 C984 0.951 . S
H967 C986 0.951 . S
H968 C988 0.950 . S
H969 C989 0.950 . S
H970 C991 0.950 . S
H971 C994 0.950 . S
H972 C995 0.950 . S
H973 C997 0.950 . S
H974 C998 0.950 . S
H975 C999 0.951 . S
H976 C1001 0.951 . S
H977 C1003 0.950 . S
H978 C1004 0.950 . S
H979 C1006 0.950 . S
H980 C1009 0.950 . S
H981 C1010 0.950 . S
H982 C1012 0.950 . S
H983 C1013 0.950 . S
C984 H966 0.951 . S
C984 C985 1.366 . S
C984 C986 1.388 . S
C985 C984 1.366 . S
C985 C989 1.385 . S
C986 H967 0.951 . S
C986 C984 1.388 . S
C986 C987 1.366 . S
C987 C986 1.366 . S
C987 C988 1.414 . S
C987 C990 1.499 . S
C988 H968 0.950 . S
C988 C987 1.414 . S
C988 C989 1.374 . S
C989 H969 0.950 . S
C989 C985 1.385 . S
C989 C988 1.374 . S
C990 C987 1.499 . S
C990 C991 1.373 . S
C990 C992 1.389 . S
C991 H970 0.950 . S
C991 C990 1.373 . S
C991 C1007 1.377 . S
C992 C990 1.389 . S
C992 C993 1.524 . S
C992 C1006 1.377 . S
C993 C992 1.524 . S
C993 C994 1.397 . S
C993 C998 1.363 . S
C994 H971 0.950 . S
C994 C993 1.397 . S
C994 C995 1.334 . S
C995 H972 0.950 . S
C995 C994 1.334 . S
C995 C996 1.287 . S
C996 C995 1.287 . S
C996 C997 1.524 . S
C996 H1015 0.913 . S
C997 H973 0.950 . S
C997 C996 1.524 . S
C997 C998 1.415 . S
C998 H974 0.950 . S
C998 C993 1.363 . S
C998 C997 1.415 . S
C999 H975 0.951 . S
C999 C1000 1.366 . S
C999 C1001 1.388 . S
C1000 C999 1.366 . S
C1000 C1004 1.385 . S
C1001 H976 0.951 . S
C1001 C999 1.388 . S
C1001 C1002 1.366 . S
C1002 C1001 1.366 . S
C1002 C1003 1.414 . S
C1002 C1005 1.499 . S
C1003 H977 0.950 . S
C1003 C1002 1.414 . S
C1003 C1004 1.374 . S
C1004 H978 0.950 . S
C1004 C1000 1.385 . S
C1004 C1003 1.374 . S
C1005 C1002 1.499 . S
C1005 C1006 1.373 . S
C1005 C1007 1.389 . S
C1006 H979 0.950 . S
C1006 C992 1.377 . S
C1006 C1005 1.373 . S
C1007 C991 1.377 . S
C1007 C1005 1.389 . S
C1007 C1008 1.524 . S
C1008 C1007 1.524 . S
C1008 C1009 1.397 . S
C1008 C1013 1.363 . S
C1009 H980 0.950 . S
C1009 C1008 1.397 . S
C1009 C1010 1.334 . S
C1010 H981 0.950 . S
C1010 C1009 1.334 . S
C1010 C1011 1.287 . S
C1011 C1010 1.287 . S
C1011 C1012 1.524 . S
C1011 H1014 0.999 . S
C1012 H982 0.950 . S
C1012 C1011 1.524 . S
C1012 C1013 1.415 . S
C1013 H983 0.950 . S
C1013 C1008 1.363 . S
C1013 C1012 1.415 . S
H1014 C1011 0.999 . S
H1015 C996 0.913 . S
H1016 C1034 0.951 . S
H1017 C1036 0.951 . S
H1018 C1038 0.950 . S
H1019 C1039 0.950 . S
H1020 C1041 0.950 . S
H1021 C1044 0.950 . S
H1022 C1045 0.950 . S
H1023 C1047 0.950 . S
H1024 C1048 0.950 . S
H1025 C1049 0.951 . S
H1026 C1051 0.951 . S
H1027 C1053 0.950 . S
H1028 C1054 0.950 . S
H1029 C1056 0.950 . S
H1030 C1059 0.950 . S
H1031 C1060 0.950 . S
H1032 C1062 0.950 . S
H1033 C1063 0.950 . S
C1034 H1016 0.951 . S
C1034 C1035 1.366 . S
C1034 C1036 1.388 . S
C1035 C1034 1.366 . S
C1035 C1039 1.385 . S
C1036 H1017 0.951 . S
C1036 C1034 1.388 . S
C1036 C1037 1.366 . S
C1037 C1036 1.366 . S
C1037 C1038 1.414 . S
C1037 C1040 1.499 . S
C1038 H1018 0.950 . S
C1038 C1037 1.414 . S
C1038 C1039 1.374 . S
C1039 H1019 0.950 . S
C1039 C1035 1.385 . S
C1039 C1038 1.374 . S
C1040 C1037 1.499 . S
C1040 C1041 1.373 . S
C1040 C1042 1.389 . S
C1041 H1020 0.950 . S
C1041 C1040 1.373 . S
C1041 C1057 1.377 . S
C1042 C1040 1.389 . S
C1042 C1043 1.524 . S
C1042 C1056 1.377 . S
C1043 C1042 1.524 . S
C1043 C1044 1.397 . S
C1043 C1048 1.363 . S
C1044 H1021 0.950 . S
C1044 C1043 1.397 . S
C1044 C1045 1.334 . S
C1045 H1022 0.950 . S
C1045 C1044 1.334 . S
C1045 C1046 1.287 . S
C1046 C1045 1.287 . S
C1046 C1047 1.524 . S
C1046 H1065 0.913 . S
C1047 H1023 0.950 . S
C1047 C1046 1.524 . S
C1047 C1048 1.415 . S
C1048 H1024 0.950 . S
C1048 C1043 1.363 . S
C1048 C1047 1.415 . S
C1049 H1025 0.951 . S
C1049 C1050 1.366 . S
C1049 C1051 1.388 . S
C1050 C1049 1.366 . S
C1050 C1054 1.385 . S
C1051 H1026 0.951 . S
C1051 C1049 1.388 . S
C1051 C1052 1.366 . S
C1052 C1051 1.366 . S
C1052 C1053 1.414 . S
C1052 C1055 1.499 . S
C1053 H1027 0.950 . S
C1053 C1052 1.414 . S
C1053 C1054 1.374 . S
C1054 H1028 0.950 . S
C1054 C1050 1.385 . S
C1054 C1053 1.374 . S
C1055 C1052 1.499 . S
C1055 C1056 1.373 . S
C1055 C1057 1.389 . S
C1056 H1029 0.950 . S
C1056 C1042 1.377 . S
C1056 C1055 1.373 . S
C1057 C1041 1.377 . S
C1057 C1055 1.389 . S
C1057 C1058 1.524 . S
C1058 C1057 1.524 . S
C1058 C1059 1.397 . S
C1058 C1063 1.363 . S
C1059 H1030 0.950 . S
C1059 C1058 1.397 . S
C1059 C1060 1.334 . S
C1060 H1031 0.950 . S
C1060 C1059 1.334 . S
C1060 C1061 1.287 . S
C1061 C1060 1.287 . S
C1061 C1062 1.524 . S
C1061 H1064 0.999 . S
C1062 H1032 0.950 . S
C1062 C1061 1.524 . S
C1062 C1063 1.415 . S
C1063 H1033 0.950 . S
C1063 C1058 1.363 . S
C1063 C1062 1.415 . S
H1064 C1061 0.999 . S
H1065 C1046 0.913 . S
H1066 C1084 0.951 . S
H1067 C1086 0.951 . S
H1068 C1088 0.950 . S
H1069 C1089 0.950 . S
H1070 C1091 0.950 . S
H1071 C1094 0.950 . S
H1072 C1095 0.950 . S
H1073 C1097 0.950 . S
H1074 C1098 0.950 . S
H1075 C1099 0.951 . S
H1076 C1101 0.951 . S
H1077 C1103 0.950 . S
H1078 C1104 0.950 . S
H1079 C1106 0.950 . S
H1080 C1109 0.950 . S
H1081 C1110 0.950 . S
H1082 C1112 0.950 . S
H1083 C1113 0.950 . S
C1084 H1066 0.951 . S
C1084 C1085 1.366 . S
C1084 C1086 1.388 . S
C1085 C1084 1.366 . S
C1085 C1089 1.385 . S
C1086 H1067 0.951 . S
C1086 C1084 1.388 . S
C1086 C1087 1.366 . S
C1087 C1086 1.366 . S
C1087 C1088 1.414 . S
C1087 C1090 1.499 . S
C1088 H1068 0.950 . S
C1088 C1087 1.414 . S
C1088 C1089 1.374 . S
C1089 H1069 0.950 . S
C1089 C1085 1.385 . S
C1089 C1088 1.374 . S
C1090 C1087 1.499 . S
C1090 C1091 1.373 . S
C1090 C1092 1.389 . S
C1091 H1070 0.950 . S
C1091 C1090 1.373 . S
C1091 C1107 1.377 . S
C1092 C1090 1.389 . S
C1092 C1093 1.524 . S
C1092 C1106 1.377 . S
C1093 C1092 1.524 . S
C1093 C1094 1.397 . S
C1093 C1098 1.363 . S
C1094 H1071 0.950 . S
C1094 C1093 1.397 . S
C1094 C1095 1.334 . S
C1095 H1072 0.950 . S
C1095 C1094 1.334 . S
C1095 C1096 1.287 . S
C1096 C1095 1.287 . S
C1096 C1097 1.524 . S
C1096 H1115 0.913 . S
C1097 H1073 0.950 . S
C1097 C1096 1.524 . S
C1097 C1098 1.415 . S
C1098 H1074 0.950 . S
C1098 C1093 1.363 . S
C1098 C1097 1.415 . S
C1099 H1075 0.951 . S
C1099 C1100 1.366 . S
C1099 C1101 1.388 . S
C1100 C1099 1.366 . S
C1100 C1104 1.385 . S
C1101 H1076 0.951 . S
C1101 C1099 1.388 . S
C1101 C1102 1.366 . S
C1102 C1101 1.366 . S
C1102 C1103 1.414 . S
C1102 C1105 1.499 . S
C1103 H1077 0.950 . S
C1103 C1102 1.414 . S
C1103 C1104 1.374 . S
C1104 H1078 0.950 . S
C1104 C1100 1.385 . S
C1104 C1103 1.374 . S
C1105 C1102 1.499 . S
C1105 C1106 1.373 . S
C1105 C1107 1.389 . S
C1106 H1079 0.950 . S
C1106 C1092 1.377 . S
C1106 C1105 1.373 . S
C1107 C1091 1.377 . S
C1107 C1105 1.389 . S
C1107 C1108 1.524 . S
C1108 C1107 1.524 . S
C1108 C1109 1.397 . S
C1108 C1113 1.363 . S
C1109 H1080 0.950 . S
C1109 C1108 1.397 . S
C1109 C1110 1.334 . S
C1110 H1081 0.950 . S
C1110 C1109 1.334 . S
C1110 C1111 1.287 . S
C1111 C1110 1.287 . S
C1111 C1112 1.524 . S
C1111 H1114 0.999 . S
C1112 H1082 0.950 . S
C1112 C1111 1.524 . S
C1112 C1113 1.415 . S
C1113 H1083 0.950 . S
C1113 C1108 1.363 . S
C1113 C1112 1.415 . S
H1114 C1111 0.999 . S
H1115 C1096 0.913 . S
H1116 C1134 0.951 . S
H1117 C1136 0.951 . S
H1118 C1138 0.950 . S
H1119 C1139 0.950 . S
H1120 C1141 0.950 . S
H1121 C1144 0.950 . S
H1122 C1145 0.950 . S
H1123 C1147 0.950 . S
H1124 C1148 0.950 . S
H1125 C1149 0.951 . S
H1126 C1151 0.951 . S
H1127 C1153 0.950 . S
H1128 C1154 0.950 . S
H1129 C1156 0.950 . S
H1130 C1159 0.950 . S
H1131 C1160 0.950 . S
H1132 C1162 0.950 . S
H1133 C1163 0.950 . S
C1134 H1116 0.951 . S
C1134 C1135 1.366 . S
C1134 C1136 1.388 . S
C1135 C1134 1.366 . S
C1135 C1139 1.385 . S
C1136 H1117 0.951 . S
C1136 C1134 1.388 . S
C1136 C1137 1.366 . S
C1137 C1136 1.366 . S
C1137 C1138 1.414 . S
C1137 C1140 1.499 . S
C1138 H1118 0.950 . S
C1138 C1137 1.414 . S
C1138 C1139 1.374 . S
C1139 H1119 0.950 . S
C1139 C1135 1.385 . S
C1139 C1138 1.374 . S
C1140 C1137 1.499 . S
C1140 C1141 1.373 . S
C1140 C1142 1.389 . S
C1141 H1120 0.950 . S
C1141 C1140 1.373 . S
C1141 C1157 1.377 . S
C1142 C1140 1.389 . S
C1142 C1143 1.524 . S
C1142 C1156 1.377 . S
C1143 C1142 1.524 . S
C1143 C1144 1.397 . S
C1143 C1148 1.363 . S
C1144 H1121 0.950 . S
C1144 C1143 1.397 . S
C1144 C1145 1.334 . S
C1145 H1122 0.950 . S
C1145 C1144 1.334 . S
C1145 C1146 1.287 . S
C1146 C1145 1.287 . S
C1146 C1147 1.524 . S
C1146 H1165 0.913 . S
C1147 H1123 0.950 . S
C1147 C1146 1.524 . S
C1147 C1148 1.415 . S
C1148 H1124 0.950 . S
C1148 C1143 1.363 . S
C1148 C1147 1.415 . S
C1149 H1125 0.951 . S
C1149 C1150 1.366 . S
C1149 C1151 1.388 . S
C1150 C1149 1.366 . S
C1150 C1154 1.385 . S
C1151 H1126 0.951 . S
C1151 C1149 1.388 . S
C1151 C1152 1.366 . S
C1152 C1151 1.366 . S
C1152 C1153 1.414 . S
C1152 C1155 1.499 . S
C1153 H1127 0.950 . S
C1153 C1152 1.414 . S
C1153 C1154 1.374 . S
C1154 H1128 0.950 . S
C1154 C1150 1.385 . S
C1154 C1153 1.374 . S
C1155 C1152 1.499 . S
C1155 C1156 1.373 . S
C1155 C1157 1.389 . S
C1156 H1129 0.950 . S
C1156 C1142 1.377 . S
C1156 C1155 1.373 . S
C1157 C1141 1.377 . S
C1157 C1155 1.389 . S
C1157 C1158 1.524 . S
C1158 C1157 1.524 . S
C1158 C1159 1.397 . S
C1158 C1163 1.363 . S
C1159 H1130 0.950 . S
C1159 C1158 1.397 . S
C1159 C1160 1.334 . S
C1160 H1131 0.950 . S
C1160 C1159 1.334 . S
C1160 C1161 1.287 . S
C1161 C1160 1.287 . S
C1161 C1162 1.524 . S
C1161 H1164 0.999 . S
C1162 H1132 0.950 . S
C1162 C1161 1.524 . S
C1162 C1163 1.415 . S
C1163 H1133 0.950 . S
C1163 C1158 1.363 . S
C1163 C1162 1.415 . S
H1164 C1161 0.999 . S
H1165 C1146 0.913 . S
H1166 C1184 0.951 . S
H1167 C1186 0.951 . S
H1168 C1188 0.950 . S
H1169 C1189 0.950 . S
H1170 C1191 0.950 . S
H1171 C1194 0.950 . S
H1172 C1195 0.950 . S
H1173 C1197 0.950 . S
H1174 C1198 0.950 . S
H1175 C1199 0.951 . S
H1176 C1201 0.951 . S
H1177 C1203 0.950 . S
H1178 C1204 0.950 . S
H1179 C1206 0.950 . S
H1180 C1209 0.950 . S
H1181 C1210 0.950 . S
H1182 C1212 0.950 . S
H1183 C1213 0.950 . S
C1184 H1166 0.951 . S
C1184 C1185 1.366 . S
C1184 C1186 1.388 . S
C1185 C1184 1.366 . S
C1185 C1189 1.385 . S
C1186 H1167 0.951 . S
C1186 C1184 1.388 . S
C1186 C1187 1.366 . S
C1187 C1186 1.366 . S
C1187 C1188 1.414 . S
C1187 C1190 1.499 . S
C1188 H1168 0.950 . S
C1188 C1187 1.414 . S
C1188 C1189 1.374 . S
C1189 H1169 0.950 . S
C1189 C1185 1.385 . S
C1189 C1188 1.374 . S
C1190 C1187 1.499 . S
C1190 C1191 1.373 . S
C1190 C1192 1.389 . S
C1191 H1170 0.950 . S
C1191 C1190 1.373 . S
C1191 C1207 1.377 . S
C1192 C1190 1.389 . S
C1192 C1193 1.524 . S
C1192 C1206 1.377 . S
C1193 C1192 1.524 . S
C1193 C1194 1.397 . S
C1193 C1198 1.363 . S
C1194 H1171 0.950 . S
C1194 C1193 1.397 . S
C1194 C1195 1.334 . S
C1195 H1172 0.950 . S
C1195 C1194 1.334 . S
C1195 C1196 1.287 . S
C1196 C1195 1.287 . S
C1196 C1197 1.524 . S
C1196 H1215 0.913 . S
C1197 H1173 0.950 . S
C1197 C1196 1.524 . S
C1197 C1198 1.415 . S
C1198 H1174 0.950 . S
C1198 C1193 1.363 . S
C1198 C1197 1.415 . S
C1199 H1175 0.951 . S
C1199 C1200 1.366 . S
C1199 C1201 1.388 . S
C1200 C1199 1.366 . S
C1200 C1204 1.385 . S
C1201 H1176 0.951 . S
C1201 C1199 1.388 . S
C1201 C1202 1.366 . S
C1202 C1201 1.366 . S
C1202 C1203 1.414 . S
C1202 C1205 1.499 . S
C1203 H1177 0.950 . S
C1203 C1202 1.414 . S
C1203 C1204 1.374 . S
C1204 H1178 0.950 . S
C1204 C1200 1.385 . S
C1204 C1203 1.374 . S
C1205 C1202 1.499 . S
C1205 C1206 1.373 . S
C1205 C1207 1.389 . S
C1206 H1179 0.950 . S
C1206 C1192 1.377 . S
C1206 C1205 1.373 . S
C1207 C1191 1.377 . S
C1207 C1205 1.389 . S
C1207 C1208 1.524 . S
C1208 C1207 1.524 . S
C1208 C1209 1.397 . S
C1208 C1213 1.363 . S
C1209 H1180 0.950 . S
C1209 C1208 1.397 . S
C1209 C1210 1.334 . S
C1210 H1181 0.950 . S
C1210 C1209 1.334 . S
C1210 C1211 1.287 . S
C1211 C1210 1.287 . S
C1211 C1212 1.524 . S
C1211 H1214 0.999 . S
C1212 H1182 0.950 . S
C1212 C1211 1.524 . S
C1212 C1213 1.415 . S
C1213 H1183 0.950 . S
C1213 C1208 1.363 . S
C1213 C1212 1.415 . S
H1214 C1211 0.999 . S
H1215 C1196 0.913 . S
H1216 C1234 0.951 . S
H1217 C1236 0.951 . S
H1218 C1238 0.950 . S
H1219 C1239 0.950 . S
H1220 C1241 0.950 . S
H1221 C1244 0.950 . S
H1222 C1245 0.950 . S
H1223 C1247 0.950 . S
H1224 C1248 0.950 . S
H1225 C1249 0.951 . S
H1226 C1251 0.951 . S
H1227 C1253 0.950 . S
H1228 C1254 0.950 . S
H1229 C1256 0.950 . S
H1230 C1259 0.950 . S
H1231 C1260 0.950 . S
H1232 C1262 0.950 . S
H1233 C1263 0.950 . S
C1234 H1216 0.951 . S
C1234 C1235 1.366 . S
C1234 C1236 1.388 . S
C1235 C1234 1.366 . S
C1235 C1239 1.385 . S
C1236 H1217 0.951 . S
C1236 C1234 1.388 . S
C1236 C1237 1.366 . S
C1237 C1236 1.366 . S
C1237 C1238 1.414 . S
C1237 C1240 1.499 . S
C1238 H1218 0.950 . S
C1238 C1237 1.414 . S
C1238 C1239 1.374 . S
C1239 H1219 0.950 . S
C1239 C1235 1.385 . S
C1239 C1238 1.374 . S
C1240 C1237 1.499 . S
C1240 C1241 1.373 . S
C1240 C1242 1.389 . S
C1241 H1220 0.950 . S
C1241 C1240 1.373 . S
C1241 C1257 1.377 . S
C1242 C1240 1.389 . S
C1242 C1243 1.524 . S
C1242 C1256 1.377 . S
C1243 C1242 1.524 . S
C1243 C1244 1.397 . S
C1243 C1248 1.363 . S
C1244 H1221 0.950 . S
C1244 C1243 1.397 . S
C1244 C1245 1.334 . S
C1245 H1222 0.950 . S
C1245 C1244 1.334 . S
C1245 C1246 1.287 . S
C1246 C1245 1.287 . S
C1246 C1247 1.524 . S
C1246 H1265 0.913 . S
C1247 H1223 0.950 . S
C1247 C1246 1.524 . S
C1247 C1248 1.415 . S
C1248 H1224 0.950 . S
C1248 C1243 1.363 . S
C1248 C1247 1.415 . S
C1249 H1225 0.951 . S
C1249 C1250 1.366 . S
C1249 C1251 1.388 . S
C1250 C1249 1.366 . S
C1250 C1254 1.385 . S
C1251 H1226 0.951 . S
C1251 C1249 1.388 . S
C1251 C1252 1.366 . S
C1252 C1251 1.366 . S
C1252 C1253 1.414 . S
C1252 C1255 1.499 . S
C1253 H1227 0.950 . S
C1253 C1252 1.414 . S
C1253 C1254 1.374 . S
C1254 H1228 0.950 . S
C1254 C1250 1.385 . S
C1254 C1253 1.374 . S
C1255 C1252 1.499 . S
C1255 C1256 1.373 . S
C1255 C1257 1.389 . S
C1256 H1229 0.950 . S
C1256 C1242 1.377 . S
C1256 C1255 1.373 . S
C1257 C1241 1.377 . S
C1257 C1255 1.389 . S
C1257 C1258 1.524 . S
C1258 C1257 1.524 . S
C1258 C1259 1.397 . S
C1258 C1263 1.363 . S
C1259 H1230 0.950 . S
C1259 C1258 1.397 . S
C1259 C1260 1.334 . S
C1260 H1231 0.950 . S
C1260 C1259 1.334 . S
C1260 C1261 1.287 . S
C1261 C1260 1.287 . S
C1261 C1262 1.524 . S
C1261 H1264 0.999 . S
C1262 H1232 0.950 . S
C1262 C1261 1.524 . S
C1262 C1263 1.415 . S
C1263 H1233 0.950 . S
C1263 C1258 1.363 . S
C1263 C1262 1.415 . S
H1264 C1261 0.999 . S
H1265 C1246 0.913 . S
H1266 C1284 0.950 1_455 S
H1267 C1286 0.951 . S
H1268 C1288 0.950 . S
H1269 C1289 0.950 . S
H1270 C1291 0.950 . S
H1271 C1294 0.950 . S
H1272 C1295 0.950 . S
H1273 C1297 0.950 . S
H1274 C1298 0.950 . S
H1275 C1299 0.951 . S
H1276 C1301 0.951 . S
H1277 C1303 0.950 . S
H1278 C1304 0.950 . S
H1279 C1306 0.950 . S
H1280 C1309 0.950 . S
H1281 C1310 0.950 . S
H1282 C1312 0.950 . S
H1283 C1313 0.950 . S
C1284 H1266 0.950 1_655 S
C1284 C1285 1.366 1_655 S
C1284 C1286 1.388 . S
C1285 C1284 1.366 1_455 S
C1285 C1289 1.385 . S
C1286 H1267 0.951 . S
C1286 C1284 1.388 . S
C1286 C1287 1.366 . S
C1287 C1286 1.366 . S
C1287 C1288 1.414 . S
C1287 C1290 1.499 . S
C1288 H1268 0.950 . S
C1288 C1287 1.414 . S
C1288 C1289 1.374 1_655 S
C1289 H1269 0.950 . S
C1289 C1285 1.385 . S
C1289 C1288 1.374 1_455 S
C1290 C1287 1.499 . S
C1290 C1291 1.373 . S
C1290 C1292 1.389 . S
C1291 H1270 0.950 . S
C1291 C1290 1.373 . S
C1291 C1307 1.377 . S
C1292 C1290 1.389 . S
C1292 C1293 1.524 . S
C1292 C1306 1.377 . S
C1293 C1292 1.524 . S
C1293 C1294 1.397 . S
C1293 C1298 1.363 . S
C1294 H1271 0.950 . S
C1294 C1293 1.397 . S
C1294 C1295 1.334 . S
C1295 H1272 0.950 . S
C1295 C1294 1.334 . S
C1295 C1296 1.287 . S
C1296 C1295 1.287 . S
C1296 C1297 1.524 . S
C1296 H1315 0.913 . S
C1297 H1273 0.950 . S
C1297 C1296 1.524 . S
C1297 C1298 1.415 . S
C1298 H1274 0.950 . S
C1298 C1293 1.363 . S
C1298 C1297 1.415 . S
C1299 H1275 0.951 . S
C1299 C1300 1.366 . S
C1299 C1301 1.388 . S
C1300 C1299 1.366 . S
C1300 C1304 1.385 . S
C1301 H1276 0.951 . S
C1301 C1299 1.388 . S
C1301 C1302 1.366 . S
C1302 C1301 1.366 . S
C1302 C1303 1.414 . S
C1302 C1305 1.499 . S
C1303 H1277 0.950 . S
C1303 C1302 1.414 . S
C1303 C1304 1.374 . S
C1304 H1278 0.950 . S
C1304 C1300 1.385 . S
C1304 C1303 1.374 . S
C1305 C1302 1.499 . S
C1305 C1306 1.373 . S
C1305 C1307 1.389 . S
C1306 H1279 0.950 . S
C1306 C1292 1.377 . S
C1306 C1305 1.373 . S
C1307 C1291 1.377 . S
C1307 C1305 1.389 . S
C1307 C1308 1.524 . S
C1308 C1307 1.524 . S
C1308 C1309 1.397 . S
C1308 C1313 1.363 . S
C1309 H1280 0.950 . S
C1309 C1308 1.397 . S
C1309 C1310 1.334 . S
C1310 H1281 0.950 . S
C1310 C1309 1.334 . S
C1310 C1311 1.287 . S
C1311 C1310 1.287 . S
C1311 C1312 1.524 . S
C1311 H1314 0.999 . S
C1312 H1282 0.950 . S
C1312 C1311 1.524 . S
C1312 C1313 1.415 . S
C1313 H1283 0.950 . S
C1313 C1308 1.363 . S
C1313 C1312 1.415 . S
H1314 C1311 0.999 . S
H1315 C1296 0.913 . S
H1316 C1334 0.951 . S
H1317 C1336 0.951 . S
H1318 C1338 0.950 . S
H1319 C1339 0.950 . S
H1320 C1341 0.950 . S
H1321 C1344 0.950 . S
H1322 C1345 0.950 . S
H1323 C1347 0.950 . S
H1324 C1348 0.950 . S
H1325 C1349 0.951 . S
H1326 C1351 0.951 . S
H1327 C1353 0.950 . S
H1328 C1354 0.950 . S
H1329 C1356 0.950 . S
H1330 C1359 0.950 . S
H1331 C1360 0.950 . S
H1332 C1362 0.950 . S
H1333 C1363 0.950 . S
C1334 H1316 0.951 . S
C1334 C1335 1.366 . S
C1334 C1336 1.388 . S
C1335 C1334 1.366 . S
C1335 C1339 1.385 . S
C1336 H1317 0.951 . S
C1336 C1334 1.388 . S
C1336 C1337 1.366 . S
C1337 C1336 1.366 . S
C1337 C1338 1.414 . S
C1337 C1340 1.499 . S
C1338 H1318 0.950 . S
C1338 C1337 1.414 . S
C1338 C1339 1.374 . S
C1339 H1319 0.950 . S
C1339 C1335 1.385 . S
C1339 C1338 1.374 . S
C1340 C1337 1.499 . S
C1340 C1341 1.373 . S
C1340 C1342 1.389 . S
C1341 H1320 0.950 . S
C1341 C1340 1.373 . S
C1341 C1357 1.377 . S
C1342 C1340 1.389 . S
C1342 C1343 1.524 . S
C1342 C1356 1.377 . S
C1343 C1342 1.524 . S
C1343 C1344 1.397 . S
C1343 C1348 1.363 . S
C1344 H1321 0.950 . S
C1344 C1343 1.397 . S
C1344 C1345 1.334 . S
C1345 H1322 0.950 . S
C1345 C1344 1.334 . S
C1345 C1346 1.287 . S
C1346 C1345 1.287 . S
C1346 C1347 1.524 . S
C1346 H1365 0.913 . S
C1347 H1323 0.950 . S
C1347 C1346 1.524 . S
C1347 C1348 1.415 . S
C1348 H1324 0.950 . S
C1348 C1343 1.363 . S
C1348 C1347 1.415 . S
C1349 H1325 0.951 . S
C1349 C1350 1.366 . S
C1349 C1351 1.388 . S
C1350 C1349 1.366 . S
C1350 C1354 1.385 . S
C1351 H1326 0.951 . S
C1351 C1349 1.388 . S
C1351 C1352 1.366 . S
C1352 C1351 1.366 . S
C1352 C1353 1.414 . S
C1352 C1355 1.499 . S
C1353 H1327 0.950 . S
C1353 C1352 1.414 . S
C1353 C1354 1.374 . S
C1354 H1328 0.950 . S
C1354 C1350 1.385 . S
C1354 C1353 1.374 . S
C1355 C1352 1.499 . S
C1355 C1356 1.373 . S
C1355 C1357 1.389 . S
C1356 H1329 0.950 . S
C1356 C1342 1.377 . S
C1356 C1355 1.373 . S
C1357 C1341 1.377 . S
C1357 C1355 1.389 . S
C1357 C1358 1.524 . S
C1358 C1357 1.524 . S
C1358 C1359 1.397 . S
C1358 C1363 1.363 . S
C1359 H1330 0.950 . S
C1359 C1358 1.397 . S
C1359 C1360 1.334 . S
C1360 H1331 0.950 . S
C1360 C1359 1.334 . S
C1360 C1361 1.287 . S
C1361 C1360 1.287 . S
C1361 C1362 1.524 . S
C1361 H1364 0.999 . S
C1362 H1332 0.950 . S
C1362 C1361 1.524 . S
C1362 C1363 1.415 . S
C1363 H1333 0.950 . S
C1363 C1358 1.363 . S
C1363 C1362 1.415 . S
H1364 C1361 0.999 . S
H1365 C1346 0.913 . S
H1366 C1384 0.951 . S
H1367 C1386 0.951 . S
H1368 C1388 0.950 . S
H1369 C1389 0.950 . S
H1370 C1391 0.950 . S
H1371 C1394 0.950 . S
H1372 C1395 0.950 . S
H1373 C1397 0.950 . S
H1374 C1398 0.950 . S
H1375 C1399 0.951 . S
H1376 C1401 0.951 . S
H1377 C1403 0.950 . S
H1378 C1404 0.950 . S
H1379 C1406 0.950 . S
H1380 C1409 0.950 . S
H1381 C1410 0.950 . S
H1382 C1412 0.950 . S
H1383 C1413 0.950 . S
C1384 H1366 0.951 . S
C1384 C1385 1.366 . S
C1384 C1386 1.388 . S
C1385 C1384 1.366 . S
C1385 C1389 1.385 . S
C1386 H1367 0.951 . S
C1386 C1384 1.388 . S
C1386 C1387 1.366 . S
C1387 C1386 1.366 . S
C1387 C1388 1.414 . S
C1387 C1390 1.499 . S
C1388 H1368 0.950 . S
C1388 C1387 1.414 . S
C1388 C1389 1.374 . S
C1389 H1369 0.950 . S
C1389 C1385 1.385 . S
C1389 C1388 1.374 . S
C1390 C1387 1.499 . S
C1390 C1391 1.373 . S
C1390 C1392 1.389 . S
C1391 H1370 0.950 . S
C1391 C1390 1.373 . S
C1391 C1407 1.377 . S
C1392 C1390 1.389 . S
C1392 C1393 1.524 . S
C1392 C1406 1.377 . S
C1393 C1392 1.524 . S
C1393 C1394 1.397 . S
C1393 C1398 1.363 . S
C1394 H1371 0.950 . S
C1394 C1393 1.397 . S
C1394 C1395 1.334 . S
C1395 H1372 0.950 . S
C1395 C1394 1.334 . S
C1395 C1396 1.287 . S
C1396 C1395 1.287 . S
C1396 C1397 1.524 . S
C1396 H1415 0.913 . S
C1397 H1373 0.950 . S
C1397 C1396 1.524 . S
C1397 C1398 1.415 . S
C1398 H1374 0.950 . S
C1398 C1393 1.363 . S
C1398 C1397 1.415 . S
C1399 H1375 0.951 . S
C1399 C1400 1.366 . S
C1399 C1401 1.388 1_455 S
C1400 C1399 1.366 . S
C1400 C1404 1.385 1_455 S
C1401 H1376 0.951 . S
C1401 C1399 1.388 1_655 S
C1401 C1402 1.366 . S
C1402 C1401 1.366 . S
C1402 C1403 1.414 . S
C1402 C1405 1.499 . S
C1403 H1377 0.950 . S
C1403 C1402 1.414 . S
C1403 C1404 1.374 . S
C1404 H1378 0.950 . S
C1404 C1400 1.385 1_655 S
C1404 C1403 1.374 . S
C1405 C1402 1.499 . S
C1405 C1406 1.373 . S
C1405 C1407 1.389 . S
C1406 H1379 0.950 . S
C1406 C1392 1.377 . S
C1406 C1405 1.373 . S
C1407 C1391 1.377 . S
C1407 C1405 1.389 . S
C1407 C1408 1.524 . S
C1408 C1407 1.524 . S
C1408 C1409 1.397 . S
C1408 C1413 1.363 . S
C1409 H1380 0.950 . S
C1409 C1408 1.397 . S
C1409 C1410 1.334 . S
C1410 H1381 0.950 . S
C1410 C1409 1.334 . S
C1410 C1411 1.287 . S
C1411 C1410 1.287 . S
C1411 C1412 1.524 . S
C1411 H1414 0.999 . S
C1412 H1382 0.950 . S
C1412 C1411 1.524 . S
C1412 C1413 1.415 . S
C1413 H1383 0.950 . S
C1413 C1408 1.363 . S
C1413 C1412 1.415 . S
H1414 C1411 0.999 . S
H1415 C1396 0.913 . S
H1416 C1434 0.951 . S
H1417 C1436 0.951 . S
H1418 C1438 0.950 . S
H1419 C1439 0.950 . S
H1420 C1441 0.950 . S
H1421 C1444 0.950 . S
H1422 C1445 0.950 . S
H1423 C1447 0.950 . S
H1424 C1448 0.950 . S
H1425 C1449 0.951 . S
H1426 C1451 0.951 . S
H1427 C1453 0.950 . S
H1428 C1454 0.950 . S
H1429 C1456 0.950 . S
H1430 C1459 0.950 . S
H1431 C1460 0.950 . S
H1432 C1462 0.950 . S
H1433 C1463 0.950 . S
C1434 H1416 0.951 . S
C1434 C1435 1.366 . S
C1434 C1436 1.388 . S
C1435 C1434 1.366 . S
C1435 C1439 1.385 . S
C1436 H1417 0.951 . S
C1436 C1434 1.388 . S
C1436 C1437 1.366 . S
C1437 C1436 1.366 . S
C1437 C1438 1.414 . S
C1437 C1440 1.499 . S
C1438 H1418 0.950 . S
C1438 C1437 1.414 . S
C1438 C1439 1.374 . S
C1439 H1419 0.950 . S
C1439 C1435 1.385 . S
C1439 C1438 1.374 . S
C1440 C1437 1.499 . S
C1440 C1441 1.373 . S
C1440 C1442 1.389 . S
C1441 H1420 0.950 . S
C1441 C1440 1.373 . S
C1441 C1457 1.377 . S
C1442 C1440 1.389 . S
C1442 C1443 1.524 . S
C1442 C1456 1.377 . S
C1443 C1442 1.524 . S
C1443 C1444 1.397 . S
C1443 C1448 1.363 . S
C1444 H1421 0.950 . S
C1444 C1443 1.397 . S
C1444 C1445 1.334 . S
C1445 H1422 0.950 . S
C1445 C1444 1.334 . S
C1445 C1446 1.287 . S
C1446 C1445 1.287 . S
C1446 C1447 1.524 . S
C1446 H1465 0.913 . S
C1447 H1423 0.950 . S
C1447 C1446 1.524 . S
C1447 C1448 1.415 . S
C1448 H1424 0.950 . S
C1448 C1443 1.363 . S
C1448 C1447 1.415 . S
C1449 H1425 0.951 . S
C1449 C1450 1.366 . S
C1449 C1451 1.388 . S
C1450 C1449 1.366 . S
C1450 C1454 1.385 . S
C1451 H1426 0.951 . S
C1451 C1449 1.388 . S
C1451 C1452 1.366 . S
C1452 C1451 1.366 . S
C1452 C1453 1.414 . S
C1452 C1455 1.499 . S
C1453 H1427 0.950 . S
C1453 C1452 1.414 . S
C1453 C1454 1.374 . S
C1454 H1428 0.950 . S
C1454 C1450 1.385 . S
C1454 C1453 1.374 . S
C1455 C1452 1.499 . S
C1455 C1456 1.373 . S
C1455 C1457 1.389 . S
C1456 H1429 0.950 . S
C1456 C1442 1.377 . S
C1456 C1455 1.373 . S
C1457 C1441 1.377 . S
C1457 C1455 1.389 . S
C1457 C1458 1.524 . S
C1458 C1457 1.524 . S
C1458 C1459 1.397 . S
C1458 C1463 1.363 . S
C1459 H1430 0.950 . S
C1459 C1458 1.397 . S
C1459 C1460 1.334 . S
C1460 H1431 0.950 . S
C1460 C1459 1.334 . S
C1460 C1461 1.287 . S
C1461 C1460 1.287 . S
C1461 C1462 1.524 . S
C1461 H1464 0.999 . S
C1462 H1432 0.950 . S
C1462 C1461 1.524 . S
C1462 C1463 1.415 . S
C1463 H1433 0.950 . S
C1463 C1458 1.363 . S
C1463 C1462 1.415 . S
H1464 C1461 0.999 . S
H1465 C1446 0.913 . S
H1466 C1484 0.951 . S
H1467 C1486 0.951 . S
H1468 C1488 0.950 . S
H1469 C1489 0.950 . S
H1470 C1491 0.950 . S
H1471 C1494 0.950 . S
H1472 C1495 0.950 . S
H1473 C1497 0.950 . S
H1474 C1498 0.950 . S
H1475 C1499 0.951 . S
H1476 C1501 0.951 . S
H1477 C1503 0.950 . S
H1478 C1504 0.950 . S
H1479 C1506 0.950 . S
H1480 C1509 0.950 . S
H1481 C1510 0.950 . S
H1482 C1512 0.950 . S
H1483 C1513 0.950 . S
C1484 H1466 0.951 . S
C1484 C1485 1.366 1_455 S
C1484 C1486 1.388 . S
C1485 C1484 1.366 1_655 S
C1485 C1489 1.385 . S
C1486 H1467 0.951 . S
C1486 C1484 1.388 . S
C1486 C1487 1.366 . S
C1487 C1486 1.366 . S
C1487 C1488 1.414 . S
C1487 C1490 1.499 . S
C1488 H1468 0.950 . S
C1488 C1487 1.414 . S
C1488 C1489 1.374 1_455 S
C1489 H1469 0.950 . S
C1489 C1485 1.385 . S
C1489 C1488 1.374 1_655 S
C1490 C1487 1.499 . S
C1490 C1491 1.373 . S
C1490 C1492 1.389 . S
C1491 H1470 0.950 . S
C1491 C1490 1.373 . S
C1491 C1507 1.377 . S
C1492 C1490 1.389 . S
C1492 C1493 1.524 . S
C1492 C1506 1.377 . S
C1493 C1492 1.524 . S
C1493 C1494 1.397 . S
C1493 C1498 1.363 . S
C1494 H1471 0.950 . S
C1494 C1493 1.397 . S
C1494 C1495 1.334 . S
C1495 H1472 0.950 . S
C1495 C1494 1.334 . S
C1495 C1496 1.287 . S
C1496 C1495 1.287 . S
C1496 C1497 1.524 . S
C1496 H1515 0.913 . S
C1497 H1473 0.950 . S
C1497 C1496 1.524 . S
C1497 C1498 1.415 . S
C1498 H1474 0.950 . S
C1498 C1493 1.363 . S
C1498 C1497 1.415 . S
C1499 H1475 0.951 . S
C1499 C1500 1.366 . S
C1499 C1501 1.388 . S
C1500 C1499 1.366 . S
C1500 C1504 1.385 . S
C1501 H1476 0.951 . S
C1501 C1499 1.388 . S
C1501 C1502 1.366 . S
C1502 C1501 1.366 . S
C1502 C1503 1.414 . S
C1502 C1505 1.499 . S
C1503 H1477 0.950 . S
C1503 C1502 1.414 . S
C1503 C1504 1.374 . S
C1504 H1478 0.950 . S
C1504 C1500 1.385 . S
C1504 C1503 1.374 . S
C1505 C1502 1.499 . S
C1505 C1506 1.373 . S
C1505 C1507 1.389 . S
C1506 H1479 0.950 . S
C1506 C1492 1.377 . S
C1506 C1505 1.373 . S
C1507 C1491 1.377 . S
C1507 C1505 1.389 . S
C1507 C1508 1.524 . S
C1508 C1507 1.524 . S
C1508 C1509 1.397 . S
C1508 C1513 1.363 . S
C1509 H1480 0.950 . S
C1509 C1508 1.397 . S
C1509 C1510 1.334 . S
C1510 H1481 0.950 . S
C1510 C1509 1.334 . S
C1510 C1511 1.287 . S
C1511 C1510 1.287 . S
C1511 C1512 1.524 . S
C1511 H1514 0.999 . S
C1512 H1482 0.950 . S
C1512 C1511 1.524 . S
C1512 C1513 1.415 . S
C1513 H1483 0.950 . S
C1513 C1508 1.363 . S
C1513 C1512 1.415 . S
H1514 C1511 0.999 . S
H1515 C1496 0.913 . S
H1516 C1534 0.951 . S
H1517 C1536 0.951 . S
H1518 C1538 0.950 . S
H1519 C1539 0.950 . S
H1520 C1541 0.950 . S
H1521 C1544 0.950 . S
H1522 C1545 0.950 . S
H1523 C1547 0.950 . S
H1524 C1548 0.950 . S
H1525 C1549 0.951 . S
H1526 C1551 0.951 . S
H1527 C1553 0.950 . S
H1528 C1554 0.950 . S
H1529 C1556 0.950 . S
H1530 C1559 0.950 . S
H1531 C1560 0.950 . S
H1532 C1562 0.950 . S
H1533 C1563 0.950 . S
C1534 H1516 0.951 . S
C1534 C1535 1.366 . S
C1534 C1536 1.388 . S
C1535 C1534 1.366 . S
C1535 C1539 1.385 . S
C1536 H1517 0.951 . S
C1536 C1534 1.388 . S
C1536 C1537 1.366 . S
C1537 C1536 1.366 . S
C1537 C1538 1.414 . S
C1537 C1540 1.499 . S
C1538 H1518 0.950 . S
C1538 C1537 1.414 . S
C1538 C1539 1.374 . S
C1539 H1519 0.950 . S
C1539 C1535 1.385 . S
C1539 C1538 1.374 . S
C1540 C1537 1.499 . S
C1540 C1541 1.373 . S
C1540 C1542 1.389 . S
C1541 H1520 0.950 . S
C1541 C1540 1.373 . S
C1541 C1557 1.377 . S
C1542 C1540 1.389 . S
C1542 C1543 1.524 . S
C1542 C1556 1.377 . S
C1543 C1542 1.524 . S
C1543 C1544 1.397 . S
C1543 C1548 1.363 . S
C1544 H1521 0.950 . S
C1544 C1543 1.397 . S
C1544 C1545 1.334 . S
C1545 H1522 0.950 . S
C1545 C1544 1.334 . S
C1545 C1546 1.287 . S
C1546 C1545 1.287 . S
C1546 C1547 1.524 . S
C1546 H1565 0.913 . S
C1547 H1523 0.950 . S
C1547 C1546 1.524 . S
C1547 C1548 1.415 . S
C1548 H1524 0.950 . S
C1548 C1543 1.363 . S
C1548 C1547 1.415 . S
C1549 H1525 0.951 . S
C1549 C1550 1.366 . S
C1549 C1551 1.388 . S
C1550 C1549 1.366 . S
C1550 C1554 1.385 . S
C1551 H1526 0.951 . S
C1551 C1549 1.388 . S
C1551 C1552 1.366 . S
C1552 C1551 1.366 . S
C1552 C1553 1.414 . S
C1552 C1555 1.499 . S
C1553 H1527 0.950 . S
C1553 C1552 1.414 . S
C1553 C1554 1.374 . S
C1554 H1528 0.950 . S
C1554 C1550 1.385 . S
C1554 C1553 1.374 . S
C1555 C1552 1.499 . S
C1555 C1556 1.373 . S
C1555 C1557 1.389 . S
C1556 H1529 0.950 . S
C1556 C1542 1.377 . S
C1556 C1555 1.373 . S
C1557 C1541 1.377 . S
C1557 C1555 1.389 . S
C1557 C1558 1.524 . S
C1558 C1557 1.524 . S
C1558 C1559 1.397 . S
C1558 C1563 1.363 . S
C1559 H1530 0.950 . S
C1559 C1558 1.397 . S
C1559 C1560 1.334 . S
C1560 H1531 0.950 . S
C1560 C1559 1.334 . S
C1560 C1561 1.287 . S
C1561 C1560 1.287 . S
C1561 C1562 1.524 . S
C1561 H1564 0.999 . S
C1562 H1532 0.950 . S
C1562 C1561 1.524 . S
C1562 C1563 1.415 . S
C1563 H1533 0.950 . S
C1563 C1558 1.363 . S
C1563 C1562 1.415 . S
H1564 C1561 0.999 . S
H1565 C1546 0.913 . S
H1566 C1584 0.951 . S
H1567 C1586 0.951 . S
H1568 C1588 0.950 . S
H1569 C1589 0.950 1_655 S
H1570 C1591 0.950 . S
H1571 C1594 0.950 . S
H1572 C1595 0.950 . S
H1573 C1597 0.950 . S
H1574 C1598 0.950 . S
H1575 C1599 0.951 . S
H1576 C1601 0.951 . S
H1577 C1603 0.950 . S
H1578 C1604 0.950 . S
H1579 C1606 0.950 . S
H1580 C1609 0.950 . S
H1581 C1610 0.950 . S
H1582 C1612 0.950 . S
H1583 C1613 0.950 . S
C1584 H1566 0.951 . S
C1584 C1585 1.366 . S
C1584 C1586 1.388 1_655 S
C1585 C1584 1.366 . S
C1585 C1589 1.385 1_655 S
C1586 H1567 0.951 . S
C1586 C1584 1.388 1_455 S
C1586 C1587 1.366 . S
C1587 C1586 1.366 . S
C1587 C1588 1.414 . S
C1587 C1590 1.499 . S
C1588 H1568 0.950 . S
C1588 C1587 1.414 . S
C1588 C1589 1.374 . S
C1589 H1569 0.950 1_455 S
C1589 C1585 1.385 1_455 S
C1589 C1588 1.374 . S
C1590 C1587 1.499 . S
C1590 C1591 1.373 . S
C1590 C1592 1.389 . S
C1591 H1570 0.950 . S
C1591 C1590 1.373 . S
C1591 C1607 1.377 . S
C1592 C1590 1.389 . S
C1592 C1593 1.524 . S
C1592 C1606 1.377 . S
C1593 C1592 1.524 . S
C1593 C1594 1.397 . S
C1593 C1598 1.363 . S
C1594 H1571 0.950 . S
C1594 C1593 1.397 . S
C1594 C1595 1.334 1_455 S
C1595 H1572 0.950 . S
C1595 C1594 1.334 1_655 S
C1595 C1596 1.287 . S
C1596 C1595 1.287 . S
C1596 C1597 1.524 1_655 S
C1596 H1615 0.913 . S
C1597 H1573 0.950 . S
C1597 C1596 1.524 1_455 S
C1597 C1598 1.415 . S
C1598 H1574 0.950 . S
C1598 C1593 1.363 . S
C1598 C1597 1.415 . S
C1599 H1575 0.951 . S
C1599 C1600 1.366 . S
C1599 C1601 1.388 . S
C1600 C1599 1.366 . S
C1600 C1604 1.385 . S
C1601 H1576 0.951 . S
C1601 C1599 1.388 . S
C1601 C1602 1.366 . S
C1602 C1601 1.366 . S
C1602 C1603 1.414 . S
C1602 C1605 1.499 . S
C1603 H1577 0.950 . S
C1603 C1602 1.414 . S
C1603 C1604 1.374 . S
C1604 H1578 0.950 . S
C1604 C1600 1.385 . S
C1604 C1603 1.374 . S
C1605 C1602 1.499 . S
C1605 C1606 1.373 . S
C1605 C1607 1.389 . S
C1606 H1579 0.950 . S
C1606 C1592 1.377 . S
C1606 C1605 1.373 . S
C1607 C1591 1.377 . S
C1607 C1605 1.389 . S
C1607 C1608 1.524 . S
C1608 C1607 1.524 . S
C1608 C1609 1.397 . S
C1608 C1613 1.363 . S
C1609 H1580 0.950 . S
C1609 C1608 1.397 . S
C1609 C1610 1.334 . S
C1610 H1581 0.950 . S
C1610 C1609 1.334 . S
C1610 C1611 1.287 . S
C1611 C1610 1.287 . S
C1611 C1612 1.524 . S
C1611 H1614 0.999 . S
C1612 H1582 0.950 . S
C1612 C1611 1.524 . S
C1612 C1613 1.415 . S
C1613 H1583 0.950 . S
C1613 C1608 1.363 . S
C1613 C1612 1.415 . S
H1614 C1611 0.999 . S
H1615 C1596 0.913 . S
H1616 C1634 0.951 . S
H1617 C1636 0.951 . S
H1618 C1638 0.950 . S
H1619 C1639 0.950 . S
H1620 C1641 0.950 . S
H1621 C1644 0.950 . S
H1622 C1645 0.950 . S
H1623 C1647 0.950 . S
H1624 C1648 0.950 . S
H1625 C1649 0.951 . S
H1626 C1651 0.951 . S
H1627 C1653 0.950 . S
H1628 C1654 0.950 . S
H1629 C1656 0.950 . S
H1630 C1659 0.950 . S
H1631 C1660 0.950 . S
H1632 C1662 0.950 . S
H1633 C1663 0.950 . S
C1634 H1616 0.951 . S
C1634 C1635 1.366 . S
C1634 C1636 1.388 . S
C1635 C1634 1.366 . S
C1635 C1639 1.385 . S
C1636 H1617 0.951 . S
C1636 C1634 1.388 . S
C1636 C1637 1.366 . S
C1637 C1636 1.366 . S
C1637 C1638 1.414 . S
C1637 C1640 1.499 . S
C1638 H1618 0.950 . S
C1638 C1637 1.414 . S
C1638 C1639 1.374 . S
C1639 H1619 0.950 . S
C1639 C1635 1.385 . S
C1639 C1638 1.374 . S
C1640 C1637 1.499 . S
C1640 C1641 1.373 . S
C1640 C1642 1.389 . S
C1641 H1620 0.950 . S
C1641 C1640 1.373 . S
C1641 C1657 1.377 . S
C1642 C1640 1.389 . S
C1642 C1643 1.524 . S
C1642 C1656 1.377 . S
C1643 C1642 1.524 . S
C1643 C1644 1.397 . S
C1643 C1648 1.363 . S
C1644 H1621 0.950 . S
C1644 C1643 1.397 . S
C1644 C1645 1.334 . S
C1645 H1622 0.950 . S
C1645 C1644 1.334 . S
C1645 C1646 1.287 . S
C1646 C1645 1.287 . S
C1646 C1647 1.524 . S
C1646 H1665 0.913 . S
C1647 H1623 0.950 . S
C1647 C1646 1.524 . S
C1647 C1648 1.415 . S
C1648 H1624 0.950 . S
C1648 C1643 1.363 . S
C1648 C1647 1.415 . S
C1649 H1625 0.951 . S
C1649 C1650 1.366 . S
C1649 C1651 1.388 . S
C1650 C1649 1.366 . S
C1650 C1654 1.385 . S
C1651 H1626 0.951 . S
C1651 C1649 1.388 . S
C1651 C1652 1.366 . S
C1652 C1651 1.366 . S
C1652 C1653 1.414 . S
C1652 C1655 1.499 . S
C1653 H1627 0.950 . S
C1653 C1652 1.414 . S
C1653 C1654 1.374 . S
C1654 H1628 0.950 . S
C1654 C1650 1.385 . S
C1654 C1653 1.374 . S
C1655 C1652 1.499 . S
C1655 C1656 1.373 . S
C1655 C1657 1.389 . S
C1656 H1629 0.950 . S
C1656 C1642 1.377 . S
C1656 C1655 1.373 . S
C1657 C1641 1.377 . S
C1657 C1655 1.389 . S
C1657 C1658 1.524 . S
C1658 C1657 1.524 . S
C1658 C1659 1.397 . S
C1658 C1663 1.363 . S
C1659 H1630 0.950 . S
C1659 C1658 1.397 . S
C1659 C1660 1.334 . S
C1660 H1631 0.950 . S
C1660 C1659 1.334 . S
C1660 C1661 1.287 . S
C1661 C1660 1.287 . S
C1661 C1662 1.524 . S
C1661 H1664 0.999 . S
C1662 H1632 0.950 . S
C1662 C1661 1.524 . S
C1662 C1663 1.415 . S
C1663 H1633 0.950 . S
C1663 C1658 1.363 . S
C1663 C1662 1.415 . S
H1664 C1661 0.999 . S
H1665 C1646 0.913 . S
H1666 C1684 0.951 . S
H1667 C1686 0.951 . S
H1668 C1688 0.950 . S
H1669 C1689 0.950 . S
H1670 C1691 0.950 . S
H1671 C1694 0.950 . S
H1672 C1695 0.950 . S
H1673 C1697 0.950 . S
H1674 C1698 0.950 . S
H1675 C1699 0.951 . S
H1676 C1701 0.951 . S
H1677 C1703 0.950 . S
H1678 C1704 0.950 . S
H1679 C1706 0.950 . S
H1680 C1709 0.950 . S
H1681 C1710 0.950 . S
H1682 C1712 0.950 . S
H1683 C1713 0.950 . S
C1684 H1666 0.951 . S
C1684 C1685 1.366 . S
C1684 C1686 1.388 . S
C1685 C1684 1.366 . S
C1685 C1689 1.385 . S
C1686 H1667 0.951 . S
C1686 C1684 1.388 . S
C1686 C1687 1.366 . S
C1687 C1686 1.366 . S
C1687 C1688 1.414 . S
C1687 C1690 1.499 . S
C1688 H1668 0.950 . S
C1688 C1687 1.414 . S
C1688 C1689 1.374 . S
C1689 H1669 0.950 . S
C1689 C1685 1.385 . S
C1689 C1688 1.374 . S
C1690 C1687 1.499 . S
C1690 C1691 1.373 . S
C1690 C1692 1.389 . S
C1691 H1670 0.950 . S
C1691 C1690 1.373 . S
C1691 C1707 1.377 . S
C1692 C1690 1.389 . S
C1692 C1693 1.524 . S
C1692 C1706 1.377 . S
C1693 C1692 1.524 . S
C1693 C1694 1.397 . S
C1693 C1698 1.363 . S
C1694 H1671 0.950 . S
C1694 C1693 1.397 . S
C1694 C1695 1.334 . S
C1695 H1672 0.950 . S
C1695 C1694 1.334 . S
C1695 C1696 1.287 . S
C1696 C1695 1.287 . S
C1696 C1697 1.524 . S
C1696 H1715 0.913 . S
C1697 H1673 0.950 . S
C1697 C1696 1.524 . S
C1697 C1698 1.415 . S
C1698 H1674 0.950 . S
C1698 C1693 1.363 . S
C1698 C1697 1.415 . S
C1699 H1675 0.951 . S
C1699 C1700 1.366 1_655 S
C1699 C1701 1.388 . S
C1700 C1699 1.366 1_455 S
C1700 C1704 1.385 . S
C1701 H1676 0.951 . S
C1701 C1699 1.388 . S
C1701 C1702 1.366 . S
C1702 C1701 1.366 . S
C1702 C1703 1.414 . S
C1702 C1705 1.499 . S
C1703 H1677 0.950 . S
C1703 C1702 1.414 . S
C1703 C1704 1.374 1_655 S
C1704 H1678 0.950 . S
C1704 C1700 1.385 . S
C1704 C1703 1.374 1_455 S
C1705 C1702 1.499 . S
C1705 C1706 1.373 . S
C1705 C1707 1.389 . S
C1706 H1679 0.950 . S
C1706 C1692 1.377 . S
C1706 C1705 1.373 . S
C1707 C1691 1.377 . S
C1707 C1705 1.389 . S
C1707 C1708 1.524 . S
C1708 C1707 1.524 . S
C1708 C1709 1.397 . S
C1708 C1713 1.363 . S
C1709 H1680 0.950 . S
C1709 C1708 1.397 . S
C1709 C1710 1.334 . S
C1710 H1681 0.950 . S
C1710 C1709 1.334 . S
C1710 C1711 1.287 . S
C1711 C1710 1.287 . S
C1711 C1712 1.524 . S
C1711 H1714 0.999 . S
C1712 H1682 0.950 . S
C1712 C1711 1.524 . S
C1712 C1713 1.415 . S
C1713 H1683 0.950 . S
C1713 C1708 1.363 . S
C1713 C1712 1.415 . S
H1714 C1711 0.999 . S
H1715 C1696 0.913 . S
H1716 C1734 0.951 . S
H1717 C1736 0.951 . S
H1718 C1738 0.950 . S
H1719 C1739 0.950 . S
H1720 C1741 0.950 . S
H1721 C1744 0.950 . S
H1722 C1745 0.950 . S
H1723 C1747 0.950 . S
H1724 C1748 0.950 . S
H1725 C1749 0.951 . S
H1726 C1751 0.951 . S
H1727 C1753 0.950 . S
H1728 C1754 0.950 . S
H1729 C1756 0.950 . S
H1730 C1759 0.950 . S
H1731 C1760 0.950 . S
H1732 C1762 0.950 . S
H1733 C1763 0.950 . S
C1734 H1716 0.951 . S
C1734 C1735 1.366 . S
C1734 C1736 1.388 . S
C1735 C1734 1.366 . S
C1735 C1739 1.385 . S
C1736 H1717 0.951 . S
C1736 C1734 1.388 . S
C1736 C1737 1.366 . S
C1737 C1736 1.366 . S
C1737 C1738 1.414 . S
C1737 C1740 1.499 . S
C1738 H1718 0.950 . S
C1738 C1737 1.414 . S
C1738 C1739 1.374 . S
C1739 H1719 0.950 . S
C1739 C1735 1.385 . S
C1739 C1738 1.374 . S
C1740 C1737 1.499 . S
C1740 C1741 1.373 . S
C1740 C1742 1.389 . S
C1741 H1720 0.950 . S
C1741 C1740 1.373 . S
C1741 C1757 1.377 . S
C1742 C1740 1.389 . S
C1742 C1743 1.524 . S
C1742 C1756 1.377 . S
C1743 C1742 1.524 . S
C1743 C1744 1.397 . S
C1743 C1748 1.363 . S
C1744 H1721 0.950 . S
C1744 C1743 1.397 . S
C1744 C1745 1.334 . S
C1745 H1722 0.950 . S
C1745 C1744 1.334 . S
C1745 C1746 1.287 . S
C1746 C1745 1.287 . S
C1746 C1747 1.524 . S
C1746 H1765 0.913 . S
C1747 H1723 0.950 . S
C1747 C1746 1.524 . S
C1747 C1748 1.415 . S
C1748 H1724 0.950 . S
C1748 C1743 1.363 . S
C1748 C1747 1.415 . S
C1749 H1725 0.951 . S
C1749 C1750 1.366 . S
C1749 C1751 1.388 . S
C1750 C1749 1.366 . S
C1750 C1754 1.385 . S
C1751 H1726 0.951 . S
C1751 C1749 1.388 . S
C1751 C1752 1.366 . S
C1752 C1751 1.366 . S
C1752 C1753 1.414 . S
C1752 C1755 1.499 . S
C1753 H1727 0.950 . S
C1753 C1752 1.414 . S
C1753 C1754 1.374 . S
C1754 H1728 0.950 . S
C1754 C1750 1.385 . S
C1754 C1753 1.374 . S
C1755 C1752 1.499 . S
C1755 C1756 1.373 . S
C1755 C1757 1.389 . S
C1756 H1729 0.950 . S
C1756 C1742 1.377 . S
C1756 C1755 1.373 . S
C1757 C1741 1.377 . S
C1757 C1755 1.389 . S
C1757 C1758 1.524 . S
C1758 C1757 1.524 . S
C1758 C1759 1.397 . S
C1758 C1763 1.363 . S
C1759 H1730 0.950 . S
C1759 C1758 1.397 . S
C1759 C1760 1.334 . S
C1760 H1731 0.950 . S
C1760 C1759 1.334 . S
C1760 C1761 1.287 . S
C1761 C1760 1.287 . S
C1761 C1762 1.524 . S
C1761 H1764 0.999 . S
C1762 H1732 0.950 . S
C1762 C1761 1.524 . S
C1762 C1763 1.415 . S
C1763 H1733 0.950 . S
C1763 C1758 1.363 . S
C1763 C1762 1.415 . S
H1764 C1761 0.999 . S
H1765 C1746 0.913 . S
H1766 C1784 0.951 . S
H1767 C1786 0.951 . S
H1768 C1788 0.950 . S
H1769 C1789 0.950 . S
H1770 C1791 0.950 . S
H1771 C1794 0.950 . S
H1772 C1795 0.950 . S
H1773 C1797 0.950 . S
H1774 C1798 0.950 . S
H1775 C1799 0.951 . S
H1776 C1801 0.951 . S
H1777 C1803 0.950 . S
H1778 C1804 0.950 . S
H1779 C1806 0.950 . S
H1780 C1809 0.950 . S
H1781 C1810 0.950 . S
H1782 C1812 0.950 . S
H1783 C1813 0.950 . S
C1784 H1766 0.951 . S
C1784 C1785 1.366 . S
C1784 C1786 1.388 . S
C1785 C1784 1.366 . S
C1785 C1789 1.385 . S
C1786 H1767 0.951 . S
C1786 C1784 1.388 . S
C1786 C1787 1.366 . S
C1787 C1786 1.366 . S
C1787 C1788 1.414 . S
C1787 C1790 1.499 . S
C1788 H1768 0.950 . S
C1788 C1787 1.414 . S
C1788 C1789 1.374 . S
C1789 H1769 0.950 . S
C1789 C1785 1.385 . S
C1789 C1788 1.374 . S
C1790 C1787 1.499 . S
C1790 C1791 1.373 . S
C1790 C1792 1.389 . S
C1791 H1770 0.950 . S
C1791 C1790 1.373 . S
C1791 C1807 1.377 . S
C1792 C1790 1.389 . S
C1792 C1793 1.524 . S
C1792 C1806 1.377 . S
C1793 C1792 1.524 . S
C1793 C1794 1.397 . S
C1793 C1798 1.363 . S
C1794 H1771 0.950 . S
C1794 C1793 1.397 . S
C1794 C1795 1.334 . S
C1795 H1772 0.950 . S
C1795 C1794 1.334 . S
C1795 C1796 1.287 . S
C1796 C1795 1.287 . S
C1796 C1797 1.524 . S
C1796 H1815 0.913 . S
C1797 H1773 0.950 . S
C1797 C1796 1.524 . S
C1797 C1798 1.415 . S
C1798 H1774 0.950 . S
C1798 C1793 1.363 . S
C1798 C1797 1.415 . S
C1799 H1775 0.951 . S
C1799 C1800 1.366 . S
C1799 C1801 1.388 1_455 S
C1800 C1799 1.366 . S
C1800 C1804 1.385 1_455 S
C1801 H1776 0.951 . S
C1801 C1799 1.388 1_655 S
C1801 C1802 1.366 . S
C1802 C1801 1.366 . S
C1802 C1803 1.414 . S
C1802 C1805 1.499 . S
C1803 H1777 0.950 . S
C1803 C1802 1.414 . S
C1803 C1804 1.374 . S
C1804 H1778 0.950 . S
C1804 C1800 1.385 1_655 S
C1804 C1803 1.374 . S
C1805 C1802 1.499 . S
C1805 C1806 1.373 . S
C1805 C1807 1.389 . S
C1806 H1779 0.950 . S
C1806 C1792 1.377 . S
C1806 C1805 1.373 . S
C1807 C1791 1.377 . S
C1807 C1805 1.389 . S
C1807 C1808 1.524 . S
C1808 C1807 1.524 . S
C1808 C1809 1.397 . S
C1808 C1813 1.363 . S
C1809 H1780 0.950 . S
C1809 C1808 1.397 . S
C1809 C1810 1.334 . S
C1810 H1781 0.950 . S
C1810 C1809 1.334 . S
C1810 C1811 1.287 . S
C1811 C1810 1.287 . S
C1811 C1812 1.524 . S
C1811 H1814 0.999 . S
C1812 H1782 0.950 . S
C1812 C1811 1.524 . S
C1812 C1813 1.415 . S
C1813 H1783 0.950 . S
C1813 C1808 1.363 . S
C1813 C1812 1.415 . S
H1814 C1811 0.999 . S
H1815 C1796 0.913 . S
H1816 C1834 0.951 . S
H1817 C1836 0.951 . S
H1818 C1838 0.950 . S
H1819 C1839 0.950 . S
H1820 C1841 0.950 . S
H1821 C1844 0.950 . S
H1822 C1845 0.950 . S
H1823 C1847 0.950 . S
H1824 C1848 0.950 . S
H1825 C1849 0.951 . S
H1826 C1851 0.951 . S
H1827 C1853 0.950 . S
H1828 C1854 0.950 . S
H1829 C1856 0.950 . S
H1830 C1859 0.950 . S
H1831 C1860 0.950 . S
H1832 C1862 0.950 . S
H1833 C1863 0.950 . S
C1834 H1816 0.951 . S
C1834 C1835 1.366 . S
C1834 C1836 1.388 . S
C1835 C1834 1.366 . S
C1835 C1839 1.385 . S
C1836 H1817 0.951 . S
C1836 C1834 1.388 . S
C1836 C1837 1.366 . S
C1837 C1836 1.366 . S
C1837 C1838 1.414 . S
C1837 C1840 1.499 . S
C1838 H1818 0.950 . S
C1838 C1837 1.414 . S
C1838 C1839 1.374 . S
C1839 H1819 0.950 . S
C1839 C1835 1.385 . S
C1839 C1838 1.374 . S
C1840 C1837 1.499 . S
C1840 C1841 1.373 . S
C1840 C1842 1.389 . S
C1841 H1820 0.950 . S
C1841 C1840 1.373 . S
C1841 C1857 1.377 . S
C1842 C1840 1.389 . S
C1842 C1843 1.524 . S
C1842 C1856 1.377 . S
C1843 C1842 1.524 . S
C1843 C1844 1.397 . S
C1843 C1848 1.363 . S
C1844 H1821 0.950 . S
C1844 C1843 1.397 . S
C1844 C1845 1.334 . S
C1845 H1822 0.950 . S
C1845 C1844 1.334 . S
C1845 C1846 1.287 . S
C1846 C1845 1.287 . S
C1846 C1847 1.524 . S
C1846 H1865 0.913 . S
C1847 H1823 0.950 . S
C1847 C1846 1.524 . S
C1847 C1848 1.415 . S
C1848 H1824 0.950 . S
C1848 C1843 1.363 . S
C1848 C1847 1.415 . S
C1849 H1825 0.951 . S
C1849 C1850 1.366 . S
C1849 C1851 1.388 . S
C1850 C1849 1.366 . S
C1850 C1854 1.385 . S
C1851 H1826 0.951 . S
C1851 C1849 1.388 . S
C1851 C1852 1.366 . S
C1852 C1851 1.366 . S
C1852 C1853 1.414 . S
C1852 C1855 1.499 . S
C1853 H1827 0.950 . S
C1853 C1852 1.414 . S
C1853 C1854 1.374 . S
C1854 H1828 0.950 . S
C1854 C1850 1.385 . S
C1854 C1853 1.374 . S
C1855 C1852 1.499 . S
C1855 C1856 1.373 . S
C1855 C1857 1.389 . S
C1856 H1829 0.950 . S
C1856 C1842 1.377 . S
C1856 C1855 1.373 . S
C1857 C1841 1.377 . S
C1857 C1855 1.389 . S
C1857 C1858 1.524 . S
C1858 C1857 1.524 . S
C1858 C1859 1.397 . S
C1858 C1863 1.363 . S
C1859 H1830 0.950 . S
C1859 C1858 1.397 . S
C1859 C1860 1.334 . S
C1860 H1831 0.950 . S
C1860 C1859 1.334 . S
C1860 C1861 1.287 . S
C1861 C1860 1.287 . S
C1861 C1862 1.524 . S
C1861 H1864 0.999 . S
C1862 H1832 0.950 . S
C1862 C1861 1.524 . S
C1862 C1863 1.415 . S
C1863 H1833 0.950 . S
C1863 C1858 1.363 . S
C1863 C1862 1.415 . S
H1864 C1861 0.999 . S
H1865 C1846 0.913 . S
H1866 C1884 0.951 . S
H1867 C1886 0.951 . S
H1868 C1888 0.950 . S
H1869 C1889 0.950 . S
H1870 C1891 0.950 . S
H1871 C1894 0.950 . S
H1872 C1895 0.950 . S
H1873 C1897 0.950 . S
H1874 C1898 0.950 . S
H1875 C1899 0.951 . S
H1876 C1901 0.951 . S
H1877 C1903 0.950 . S
H1878 C1904 0.950 . S
H1879 C1906 0.950 . S
H1880 C1909 0.950 . S
H1881 C1910 0.950 . S
H1882 C1912 0.950 . S
H1883 C1913 0.950 . S
C1884 H1866 0.951 . S
C1884 C1885 1.366 . S
C1884 C1886 1.388 . S
C1885 C1884 1.366 . S
C1885 C1889 1.385 . S
C1886 H1867 0.951 . S
C1886 C1884 1.388 . S
C1886 C1887 1.366 . S
C1887 C1886 1.366 . S
C1887 C1888 1.414 . S
C1887 C1890 1.499 . S
C1888 H1868 0.950 . S
C1888 C1887 1.414 . S
C1888 C1889 1.374 . S
C1889 H1869 0.950 . S
C1889 C1885 1.385 . S
C1889 C1888 1.374 . S
C1890 C1887 1.499 . S
C1890 C1891 1.373 . S
C1890 C1892 1.389 . S
C1891 H1870 0.950 . S
C1891 C1890 1.373 . S
C1891 C1907 1.377 . S
C1892 C1890 1.389 . S
C1892 C1893 1.524 . S
C1892 C1906 1.377 . S
C1893 C1892 1.524 . S
C1893 C1894 1.397 . S
C1893 C1898 1.363 . S
C1894 H1871 0.950 . S
C1894 C1893 1.397 . S
C1894 C1895 1.334 . S
C1895 H1872 0.950 . S
C1895 C1894 1.334 . S
C1895 C1896 1.287 . S
C1896 C1895 1.287 . S
C1896 C1897 1.524 . S
C1896 H1915 0.913 . S
C1897 H1873 0.950 . S
C1897 C1896 1.524 . S
C1897 C1898 1.415 . S
C1898 H1874 0.950 . S
C1898 C1893 1.363 . S
C1898 C1897 1.415 . S
C1899 H1875 0.951 . S
C1899 C1900 1.366 . S
C1899 C1901 1.388 1_655 S
C1900 C1899 1.366 . S
C1900 C1904 1.385 1_655 S
C1901 H1876 0.951 . S
C1901 C1899 1.388 1_455 S
C1901 C1902 1.366 . S
C1902 C1901 1.366 . S
C1902 C1903 1.414 . S
C1902 C1905 1.499 . S
C1903 H1877 0.950 . S
C1903 C1902 1.414 . S
C1903 C1904 1.374 . S
C1904 H1878 0.950 . S
C1904 C1900 1.385 1_455 S
C1904 C1903 1.374 . S
C1905 C1902 1.499 . S
C1905 C1906 1.373 . S
C1905 C1907 1.389 . S
C1906 H1879 0.950 . S
C1906 C1892 1.377 . S
C1906 C1905 1.373 . S
C1907 C1891 1.377 . S
C1907 C1905 1.389 . S
C1907 C1908 1.524 . S
C1908 C1907 1.524 . S
C1908 C1909 1.397 . S
C1908 C1913 1.363 . S
C1909 H1880 0.950 . S
C1909 C1908 1.397 . S
C1909 C1910 1.334 . S
C1910 H1881 0.950 . S
C1910 C1909 1.334 . S
C1910 C1911 1.287 . S
C1911 C1910 1.287 . S
C1911 C1912 1.524 . S
C1911 H1914 0.999 1_455 S
C1912 H1882 0.950 . S
C1912 C1911 1.524 . S
C1912 C1913 1.415 . S
C1913 H1883 0.950 . S
C1913 C1908 1.363 . S
C1913 C1912 1.415 . S
H1914 C1911 0.999 1_655 S
H1915 C1896 0.913 . S
H1916 C1934 0.951 . S
H1917 C1936 0.951 . S
H1918 C1938 0.950 . S
H1919 C1939 0.950 . S
H1920 C1941 0.950 . S
H1921 C1944 0.950 . S
H1922 C1945 0.950 . S
H1923 C1947 0.950 . S
H1924 C1948 0.950 . S
H1925 C1949 0.951 . S
H1926 C1951 0.951 . S
H1927 C1953 0.950 . S
H1928 C1954 0.950 . S
H1929 C1956 0.950 . S
H1930 C1959 0.950 . S
H1931 C1960 0.950 . S
H1932 C1962 0.950 . S
H1933 C1963 0.950 . S
C1934 H1916 0.951 . S
C1934 C1935 1.366 . S
C1934 C1936 1.388 . S
C1935 C1934 1.366 . S
C1935 C1939 1.385 . S
C1936 H1917 0.951 . S
C1936 C1934 1.388 . S
C1936 C1937 1.366 . S
C1937 C1936 1.366 . S
C1937 C1938 1.414 . S
C1937 C1940 1.499 . S
C1938 H1918 0.950 . S
C1938 C1937 1.414 . S
C1938 C1939 1.374 . S
C1939 H1919 0.950 . S
C1939 C1935 1.385 . S
C1939 C1938 1.374 . S
C1940 C1937 1.499 . S
C1940 C1941 1.373 . S
C1940 C1942 1.389 . S
C1941 H1920 0.950 . S
C1941 C1940 1.373 . S
C1941 C1957 1.377 . S
C1942 C1940 1.389 . S
C1942 C1943 1.524 . S
C1942 C1956 1.377 . S
C1943 C1942 1.524 . S
C1943 C1944 1.397 . S
C1943 C1948 1.363 . S
C1944 H1921 0.950 . S
C1944 C1943 1.397 . S
C1944 C1945 1.334 . S
C1945 H1922 0.950 . S
C1945 C1944 1.334 . S
C1945 C1946 1.287 . S
C1946 C1945 1.287 . S
C1946 C1947 1.524 . S
C1946 H1965 0.913 . S
C1947 H1923 0.950 . S
C1947 C1946 1.524 . S
C1947 C1948 1.415 . S
C1948 H1924 0.950 . S
C1948 C1943 1.363 . S
C1948 C1947 1.415 . S
C1949 H1925 0.951 . S
C1949 C1950 1.366 . S
C1949 C1951 1.388 . S
C1950 C1949 1.366 . S
C1950 C1954 1.385 . S
C1951 H1926 0.951 . S
C1951 C1949 1.388 . S
C1951 C1952 1.366 . S
C1952 C1951 1.366 . S
C1952 C1953 1.414 . S
C1952 C1955 1.499 . S
C1953 H1927 0.950 . S
C1953 C1952 1.414 . S
C1953 C1954 1.374 . S
C1954 H1928 0.950 . S
C1954 C1950 1.385 . S
C1954 C1953 1.374 . S
C1955 C1952 1.499 . S
C1955 C1956 1.373 . S
C1955 C1957 1.389 . S
C1956 H1929 0.950 . S
C1956 C1942 1.377 . S
C1956 C1955 1.373 . S
C1957 C1941 1.377 . S
C1957 C1955 1.389 . S
C1957 C1958 1.524 . S
C1958 C1957 1.524 . S
C1958 C1959 1.397 . S
C1958 C1963 1.363 . S
C1959 H1930 0.950 . S
C1959 C1958 1.397 . S
C1959 C1960 1.334 . S
C1960 H1931 0.950 . S
C1960 C1959 1.334 . S
C1960 C1961 1.287 . S
C1961 C1960 1.287 . S
C1961 C1962 1.524 . S
C1961 H1964 0.999 . S
C1962 H1932 0.950 . S
C1962 C1961 1.524 . S
C1962 C1963 1.415 . S
C1963 H1933 0.950 . S
C1963 C1958 1.363 . S
C1963 C1962 1.415 . S
H1964 C1961 0.999 . S
H1965 C1946 0.913 . S
H1966 C1984 0.951 . S
H1967 C1986 0.951 . S
H1968 C1988 0.950 . S
H1969 C1989 0.950 . S
H1970 C1991 0.950 . S
H1971 C1994 0.950 . S
H1972 C1995 0.950 . S
H1973 C1997 0.950 . S
H1974 C1998 0.950 . S
H1975 C1999 0.951 . S
H1976 C2001 0.951 . S
H1977 C2003 0.950 . S
H1978 C2004 0.950 . S
H1979 C2006 0.950 . S
H1980 C2009 0.950 . S
H1981 C2010 0.950 . S
H1982 C2012 0.950 . S
H1983 C2013 0.950 . S
C1984 H1966 0.951 . S
C1984 C1985 1.366 1_455 S
C1984 C1986 1.388 . S
C1985 C1984 1.366 1_655 S
C1985 C1989 1.385 . S
C1986 H1967 0.951 . S
C1986 C1984 1.388 . S
C1986 C1987 1.366 . S
C1987 C1986 1.366 . S
C1987 C1988 1.414 . S
C1987 C1990 1.499 . S
C1988 H1968 0.950 . S
C1988 C1987 1.414 . S
C1988 C1989 1.374 1_455 S
C1989 H1969 0.950 . S
C1989 C1985 1.385 . S
C1989 C1988 1.374 1_655 S
C1990 C1987 1.499 . S
C1990 C1991 1.373 . S
C1990 C1992 1.389 . S
C1991 H1970 0.950 . S
C1991 C1990 1.373 . S
C1991 C2007 1.377 . S
C1992 C1990 1.389 . S
C1992 C1993 1.524 . S
C1992 C2006 1.377 . S
C1993 C1992 1.524 . S
C1993 C1994 1.397 . S
C1993 C1998 1.363 . S
C1994 H1971 0.950 . S
C1994 C1993 1.397 . S
C1994 C1995 1.334 . S
C1995 H1972 0.950 . S
C1995 C1994 1.334 . S
C1995 C1996 1.287 . S
C1996 C1995 1.287 . S
C1996 C1997 1.524 . S
C1996 H2015 0.913 . S
C1997 H1973 0.950 . S
C1997 C1996 1.524 . S
C1997 C1998 1.415 . S
C1998 H1974 0.950 . S
C1998 C1993 1.363 . S
C1998 C1997 1.415 . S
C1999 H1975 0.951 . S
C1999 C2000 1.366 . S
C1999 C2001 1.388 . S
C2000 C1999 1.366 . S
C2000 C2004 1.385 . S
C2001 H1976 0.951 . S
C2001 C1999 1.388 . S
C2001 C2002 1.366 . S
C2002 C2001 1.366 . S
C2002 C2003 1.414 . S
C2002 C2005 1.499 . S
C2003 H1977 0.950 . S
C2003 C2002 1.414 . S
C2003 C2004 1.374 . S
C2004 H1978 0.950 . S
C2004 C2000 1.385 . S
C2004 C2003 1.374 . S
C2005 C2002 1.499 . S
C2005 C2006 1.373 . S
C2005 C2007 1.389 . S
C2006 H1979 0.950 . S
C2006 C1992 1.377 . S
C2006 C2005 1.373 . S
C2007 C1991 1.377 . S
C2007 C2005 1.389 . S
C2007 C2008 1.524 . S
C2008 C2007 1.524 . S
C2008 C2009 1.397 . S
C2008 C2013 1.363 . S
C2009 H1980 0.950 . S
C2009 C2008 1.397 . S
C2009 C2010 1.334 . S
C2010 H1981 0.950 . S
C2010 C2009 1.334 . S
C2010 C2011 1.287 . S
C2011 C2010 1.287 . S
C2011 C2012 1.524 . S
C2011 H2014 0.999 . S
C2012 H1982 0.950 . S
C2012 C2011 1.524 . S
C2012 C2013 1.415 . S
C2013 H1983 0.950 . S
C2013 C2008 1.363 . S
C2013 C2012 1.415 . S
H2014 C2011 0.999 . S
H2015 C1996 0.913 . S
H2016 C2034 0.951 . S
H2017 C2036 0.951 . S
H2018 C2038 0.950 . S
H2019 C2039 0.950 . S
H2020 C2041 0.950 . S
H2021 C2044 0.950 . S
H2022 C2045 0.950 . S
H2023 C2047 0.950 . S
H2024 C2048 0.950 . S
H2025 C2049 0.951 . S
H2026 C2051 0.951 . S
H2027 C2053 0.950 . S
H2028 C2054 0.950 . S
H2029 C2056 0.950 . S
H2030 C2059 0.950 . S
H2031 C2060 0.950 . S
H2032 C2062 0.950 . S
H2033 C2063 0.950 . S
C2034 H2016 0.951 . S
C2034 C2035 1.366 . S
C2034 C2036 1.388 . S
C2035 C2034 1.366 . S
C2035 C2039 1.385 . S
C2036 H2017 0.951 . S
C2036 C2034 1.388 . S
C2036 C2037 1.366 . S
C2037 C2036 1.366 . S
C2037 C2038 1.414 . S
C2037 C2040 1.499 . S
C2038 H2018 0.950 . S
C2038 C2037 1.414 . S
C2038 C2039 1.374 . S
C2039 H2019 0.950 . S
C2039 C2035 1.385 . S
C2039 C2038 1.374 . S
C2040 C2037 1.499 . S
C2040 C2041 1.373 . S
C2040 C2042 1.389 1_655 S
C2041 H2020 0.950 . S
C2041 C2040 1.373 . S
C2041 C2057 1.377 . S
C2042 C2040 1.389 1_455 S
C2042 C2043 1.524 . S
C2042 C2056 1.377 . S
C2043 C2042 1.524 . S
C2043 C2044 1.397 . S
C2043 C2048 1.363 . S
C2044 H2021 0.950 . S
C2044 C2043 1.397 . S
C2044 C2045 1.334 . S
C2045 H2022 0.950 . S
C2045 C2044 1.334 . S
C2045 C2046 1.287 . S
C2046 C2045 1.287 . S
C2046 C2047 1.524 . S
C2046 H2065 0.913 . S
C2047 H2023 0.950 . S
C2047 C2046 1.524 . S
C2047 C2048 1.415 . S
C2048 H2024 0.950 . S
C2048 C2043 1.363 . S
C2048 C2047 1.415 . S
C2049 H2025 0.951 . S
C2049 C2050 1.366 . S
C2049 C2051 1.388 . S
C2050 C2049 1.366 . S
C2050 C2054 1.385 . S
C2051 H2026 0.951 . S
C2051 C2049 1.388 . S
C2051 C2052 1.366 . S
C2052 C2051 1.366 . S
C2052 C2053 1.414 . S
C2052 C2055 1.499 . S
C2053 H2027 0.950 . S
C2053 C2052 1.414 . S
C2053 C2054 1.374 . S
C2054 H2028 0.950 . S
C2054 C2050 1.385 . S
C2054 C2053 1.374 . S
C2055 C2052 1.499 . S
C2055 C2056 1.373 . S
C2055 C2057 1.389 1_455 S
C2056 H2029 0.950 . S
C2056 C2042 1.377 . S
C2056 C2055 1.373 . S
C2057 C2041 1.377 . S
C2057 C2055 1.389 1_655 S
C2057 C2058 1.524 . S
C2058 C2057 1.524 . S
C2058 C2059 1.397 . S
C2058 C2063 1.363 . S
C2059 H2030 0.950 . S
C2059 C2058 1.397 . S
C2059 C2060 1.334 . S
C2060 H2031 0.950 . S
C2060 C2059 1.334 . S
C2060 C2061 1.287 . S
C2061 C2060 1.287 . S
C2061 C2062 1.524 . S
C2061 H2064 0.999 . S
C2062 H2032 0.950 . S
C2062 C2061 1.524 . S
C2062 C2063 1.415 . S
C2063 H2033 0.950 . S
C2063 C2058 1.363 . S
C2063 C2062 1.415 . S
H2064 C2061 0.999 . S
H2065 C2046 0.913 . S
H2066 C2084 0.951 . S
H2067 C2086 0.951 . S
H2068 C2088 0.950 . S
H2069 C2089 0.950 . S
H2070 C2091 0.950 . S
H2071 C2094 0.950 . S
H2072 C2095 0.950 . S
H2073 C2097 0.950 . S
H2074 C2098 0.950 . S
H2075 C2099 0.951 . S
H2076 C2101 0.951 . S
H2077 C2103 0.950 . S
H2078 C2104 0.950 . S
H2079 C2106 0.950 . S
H2080 C2109 0.950 . S
H2081 C2110 0.950 . S
H2082 C2112 0.950 . S
H2083 C2113 0.950 . S
C2084 H2066 0.951 . S
C2084 C2085 1.366 . S
C2084 C2086 1.388 . S
C2085 C2084 1.366 . S
C2085 C2089 1.385 . S
C2086 H2067 0.951 . S
C2086 C2084 1.388 . S
C2086 C2087 1.366 . S
C2087 C2086 1.366 . S
C2087 C2088 1.414 . S
C2087 C2090 1.499 . S
C2088 H2068 0.950 . S
C2088 C2087 1.414 . S
C2088 C2089 1.374 . S
C2089 H2069 0.950 . S
C2089 C2085 1.385 . S
C2089 C2088 1.374 . S
C2090 C2087 1.499 . S
C2090 C2091 1.373 . S
C2090 C2092 1.372 1_565 S
C2091 H2070 0.950 . S
C2091 C2090 1.373 . S
C2091 C2107 1.393 . S
C2092 C2090 1.372 1_545 S
C2092 C2093 1.527 . S
C2092 C2106 1.393 . S
C2093 C2092 1.527 . S
C2093 C2094 1.397 1_545 S
C2093 C2098 1.363 . S
C2094 H2071 0.950 . S
C2094 C2093 1.397 1_565 S
C2094 C2095 1.334 . S
C2095 H2072 0.950 . S
C2095 C2094 1.334 . S
C2095 C2096 1.287 1_565 S
C2096 C2095 1.287 1_545 S
C2096 C2097 1.524 . S
C2096 H2115 0.913 . S
C2097 H2073 0.950 . S
C2097 C2096 1.524 . S
C2097 C2098 1.415 . S
C2098 H2074 0.950 . S
C2098 C2093 1.363 . S
C2098 C2097 1.415 . S
C2099 H2075 0.951 . S
C2099 C2100 1.366 . S
C2099 C2101 1.388 . S
C2100 C2099 1.366 . S
C2100 C2104 1.385 . S
C2101 H2076 0.951 . S
C2101 C2099 1.388 . S
C2101 C2102 1.366 . S
C2102 C2101 1.366 . S
C2102 C2103 1.414 . S
C2102 C2105 1.499 . S
C2103 H2077 0.950 . S
C2103 C2102 1.414 . S
C2103 C2104 1.374 . S
C2104 H2078 0.950 . S
C2104 C2100 1.385 . S
C2104 C2103 1.374 . S
C2105 C2102 1.499 . S
C2105 C2106 1.373 . S
C2105 C2107 1.372 1_545 S
C2106 H2079 0.950 . S
C2106 C2092 1.393 . S
C2106 C2105 1.373 . S
C2107 C2091 1.393 . S
C2107 C2105 1.372 1_565 S
C2107 C2108 1.527 . S
C2108 C2107 1.527 . S
C2108 C2109 1.397 1_565 S
C2108 C2113 1.363 . S
C2109 H2080 0.950 . S
C2109 C2108 1.397 1_545 S
C2109 C2110 1.334 . S
C2110 H2081 0.950 . S
C2110 C2109 1.334 . S
C2110 C2111 1.287 1_545 S
C2111 C2110 1.287 1_565 S
C2111 C2112 1.524 . S
C2111 H2114 0.999 . S
C2112 H2082 0.950 . S
C2112 C2111 1.524 . S
C2112 C2113 1.415 . S
C2113 H2083 0.950 . S
C2113 C2108 1.363 . S
C2113 C2112 1.415 . S
H2114 C2111 0.999 . S
H2115 C2096 0.913 . S
H2116 C2134 0.951 . S
H2117 C2136 0.951 1_455 S
H2118 C2138 0.950 . S
H2119 C2139 0.950 . S
H2120 C2141 0.950 . S
H2121 C2144 0.950 1_655 S
H2122 C2145 0.950 . S
H2123 C2147 0.950 . S
H2124 C2148 0.947 1_554 S
H2125 C2149 0.951 . S
H2126 C2151 0.951 1_655 S
H2127 C2153 0.950 . S
H2128 C2154 0.950 . S
H2129 C2156 0.950 . S
H2130 C2159 0.950 1_455 S
H2131 C2160 0.950 . S
H2132 C2162 0.950 . S
H2133 C2163 0.947 1_556 S
C2134 H2116 0.951 . S
C2134 C2135 1.366 . S
C2134 C2136 1.388 . S
C2135 C2134 1.366 . S
C2135 C2139 1.385 . S
C2136 H2117 0.951 1_655 S
C2136 C2134 1.388 . S
C2136 C2137 1.366 . S
C2137 C2136 1.366 . S
C2137 C2138 1.414 . S
C2137 C2140 1.499 . S
C2138 H2118 0.950 . S
C2138 C2137 1.414 . S
C2138 C2139 1.374 . S
C2139 H2119 0.950 . S
C2139 C2135 1.385 . S
C2139 C2138 1.374 . S
C2140 C2137 1.499 . S
C2140 C2141 1.411 . S
C2140 C2142 1.389 1_654 S
C2141 H2120 0.950 . S
C2141 C2140 1.411 . S
C2141 C2157 1.338 1_545 S
C2142 C2140 1.389 1_456 S
C2142 C2143 1.524 . S
C2142 C2156 1.338 1_545 S
C2143 C2142 1.524 . S
C2143 C2144 1.397 . S
C2143 C2148 1.363 . S
C2144 H2121 0.950 1_455 S
C2144 C2143 1.397 . S
C2144 C2145 1.334 . S
C2145 H2122 0.950 . S
C2145 C2144 1.334 . S
C2145 C2146 1.287 . S
C2146 C2145 1.287 . S
C2146 C2147 1.524 . S
C2146 H2165 0.913 . S
C2147 H2123 0.950 . S
C2147 C2146 1.524 . S
C2147 C2148 1.415 . S
C2148 H2124 0.947 1_556 S
C2148 C2143 1.363 . S
C2148 C2147 1.415 . S
C2149 H2125 0.951 . S
C2149 C2150 1.366 . S
C2149 C2151 1.388 . S
C2150 C2149 1.366 . S
C2150 C2154 1.385 . S
C2151 H2126 0.951 1_455 S
C2151 C2149 1.388 . S
C2151 C2152 1.366 . S
C2152 C2151 1.366 . S
C2152 C2153 1.414 . S
C2152 C2155 1.499 . S
C2153 H2127 0.950 . S
C2153 C2152 1.414 . S
C2153 C2154 1.374 . S
C2154 H2128 0.950 . S
C2154 C2150 1.385 . S
C2154 C2153 1.374 . S
C2155 C2152 1.499 . S
C2155 C2156 1.411 . S
C2155 C2157 1.389 1_456 S
C2156 H2129 0.950 . S
C2156 C2142 1.338 1_565 S
C2156 C2155 1.411 . S
C2157 C2141 1.338 1_565 S
C2157 C2155 1.389 1_654 S
C2157 C2158 1.524 . S
C2158 C2157 1.524 . S
C2158 C2159 1.397 . S
C2158 C2163 1.363 . S
C2159 H2130 0.950 1_655 S
C2159 C2158 1.397 . S
C2159 C2160 1.334 . S
C2160 H2131 0.950 . S
C2160 C2159 1.334 . S
C2160 C2161 1.287 . S
C2161 C2160 1.287 . S
C2161 C2162 1.524 . S
C2161 H2164 0.999 . S
C2162 H2132 0.950 . S
C2162 C2161 1.524 . S
C2162 C2163 1.415 . S
C2163 H2133 0.947 1_554 S
C2163 C2158 1.363 . S
C2163 C2162 1.415 . S
H2164 C2161 0.999 . S
H2165 C2146 0.913 . S
H2166 C2184 0.951 . S
H2167 C2186 0.951 . S
H2168 C2188 0.950 . S
H2169 C2189 0.950 . S
H2170 C2191 0.950 . S
H2171 C2194 0.950 . S
H2172 C2195 0.950 . S
H2173 C2197 0.950 . S
H2174 C2198 0.964 . S
H2175 C2199 0.951 . S
H2176 C2201 0.951 . S
H2177 C2203 0.950 . S
H2178 C2204 0.950 . S
H2179 C2206 0.950 . S
H2180 C2209 0.950 . S
H2181 C2210 0.950 . S
H2182 C2212 0.950 . S
H2183 C2213 0.964 . S
C2184 H2166 0.951 . S
C2184 C2185 1.366 . S
C2184 C2186 1.388 . S
C2185 C2184 1.366 . S
C2185 C2189 1.385 . S
C2186 H2167 0.951 . S
C2186 C2184 1.388 . S
C2186 C2187 1.366 . S
C2187 C2186 1.366 . S
C2187 C2188 1.414 . S
C2187 C2190 1.499 . S
C2188 H2168 0.950 . S
C2188 C2187 1.414 . S
C2188 C2189 1.374 . S
C2189 H2169 0.950 . S
C2189 C2185 1.385 . S
C2189 C2188 1.374 . S
C2190 C2187 1.499 . S
C2190 C2191 1.373 . S
C2190 C2192 1.389 1_554 S
C2191 H2170 0.950 . S
C2191 C2190 1.373 . S
C2191 C2207 1.377 . S
C2192 C2190 1.389 1_556 S
C2192 C2193 1.524 . S
C2192 C2206 1.377 . S
C2193 C2192 1.524 . S
C2193 C2194 1.397 . S
C2193 C2198 1.363 . S
C2194 H2171 0.950 . S
C2194 C2193 1.397 . S
C2194 C2195 1.334 . S
C2195 H2172 0.950 . S
C2195 C2194 1.334 . S
C2195 C2196 1.287 . S
C2196 C2195 1.287 . S
C2196 C2197 1.524 . S
C2196 H2215 0.913 . S
C2197 H2173 0.950 . S
C2197 C2196 1.524 . S
C2197 C2198 1.415 . S
C2198 H2174 0.964 . S
C2198 C2193 1.363 . S
C2198 C2197 1.415 . S
C2199 H2175 0.951 . S
C2199 C2200 1.366 . S
C2199 C2201 1.388 . S
C2200 C2199 1.366 . S
C2200 C2204 1.385 . S
C2201 H2176 0.951 . S
C2201 C2199 1.388 . S
C2201 C2202 1.366 . S
C2202 C2201 1.366 . S
C2202 C2203 1.414 . S
C2202 C2205 1.499 . S
C2203 H2177 0.950 . S
C2203 C2202 1.414 . S
C2203 C2204 1.374 . S
C2204 H2178 0.950 . S
C2204 C2200 1.385 . S
C2204 C2203 1.374 . S
C2205 C2202 1.499 . S
C2205 C2206 1.373 . S
C2205 C2207 1.389 1_556 S
C2206 H2179 0.950 . S
C2206 C2192 1.377 . S
C2206 C2205 1.373 . S
C2207 C2191 1.377 . S
C2207 C2205 1.389 1_554 S
C2207 C2208 1.524 . S
C2208 C2207 1.524 . S
C2208 C2209 1.397 . S
C2208 C2213 1.363 . S
C2209 H2180 0.950 . S
C2209 C2208 1.397 . S
C2209 C2210 1.334 . S
C2210 H2181 0.950 . S
C2210 C2209 1.334 . S
C2210 C2211 1.287 . S
C2211 C2210 1.287 . S
C2211 C2212 1.524 . S
C2211 H2214 0.999 . S
C2212 H2182 0.950 . S
C2212 C2211 1.524 . S
C2212 C2213 1.415 . S
C2213 H2183 0.964 . S
C2213 C2208 1.363 . S
C2213 C2212 1.415 . S
H2214 C2211 0.999 . S
H2215 C2196 0.913 . S
H2216 C2234 0.951 . S
H2217 C2236 0.951 . S
H2218 C2238 0.950 1_455 S
H2219 C2239 0.950 . S
H2220 C2241 0.950 . S
H2221 C2244 0.950 . S
H2222 C2245 0.950 . S
H2223 C2247 0.950 . S
H2224 C2248 0.950 . S
H2225 C2249 0.951 . S
H2226 C2251 0.951 . S
H2227 C2253 0.950 1_655 S
H2228 C2254 0.950 . S
H2229 C2256 0.950 . S
H2230 C2259 0.950 . S
H2231 C2260 0.950 . S
H2232 C2262 0.950 . S
H2233 C2263 0.950 . S
C2234 H2216 0.951 . S
C2234 C2235 1.366 . S
C2234 C2236 1.388 . S
C2235 C2234 1.366 . S
C2235 C2239 1.385 . S
C2236 H2217 0.951 . S
C2236 C2234 1.388 . S
C2236 C2237 1.366 . S
C2237 C2236 1.366 . S
C2237 C2238 1.414 . S
C2237 C2240 1.499 . S
C2238 H2218 0.950 1_655 S
C2238 C2237 1.414 . S
C2238 C2239 1.374 . S
C2239 H2219 0.950 . S
C2239 C2235 1.385 . S
C2239 C2238 1.374 . S
C2240 C2237 1.499 . S
C2240 C2241 1.373 1_655 S
C2240 C2242 1.389 . S
C2241 H2220 0.950 . S
C2241 C2240 1.373 1_455 S
C2241 C2257 1.377 . S
C2242 C2240 1.389 . S
C2242 C2243 1.524 . S
C2242 C2256 1.377 . S
C2243 C2242 1.524 . S
C2243 C2244 1.397 . S
C2243 C2248 1.363 . S
C2244 H2221 0.950 . S
C2244 C2243 1.397 . S
C2244 C2245 1.334 . S
C2245 H2222 0.950 . S
C2245 C2244 1.334 . S
C2245 C2246 1.287 . S
C2246 C2245 1.287 . S
C2246 C2247 1.524 . S
C2246 H2265 0.913 . S
C2247 H2223 0.950 . S
C2247 C2246 1.524 . S
C2247 C2248 1.415 . S
C2248 H2224 0.950 . S
C2248 C2243 1.363 . S
C2248 C2247 1.415 . S
C2249 H2225 0.951 . S
C2249 C2250 1.366 . S
C2249 C2251 1.388 . S
C2250 C2249 1.366 . S
C2250 C2254 1.385 . S
C2251 H2226 0.951 . S
C2251 C2249 1.388 . S
C2251 C2252 1.366 . S
C2252 C2251 1.366 . S
C2252 C2253 1.414 . S
C2252 C2255 1.499 . S
C2253 H2227 0.950 1_455 S
C2253 C2252 1.414 . S
C2253 C2254 1.374 . S
C2254 H2228 0.950 . S
C2254 C2250 1.385 . S
C2254 C2253 1.374 . S
C2255 C2252 1.499 . S
C2255 C2256 1.373 1_455 S
C2255 C2257 1.389 . S
C2256 H2229 0.950 . S
C2256 C2242 1.377 . S
C2256 C2255 1.373 1_655 S
C2257 C2241 1.377 . S
C2257 C2255 1.389 . S
C2257 C2258 1.524 . S
C2258 C2257 1.524 . S
C2258 C2259 1.397 . S
C2258 C2263 1.363 . S
C2259 H2230 0.950 . S
C2259 C2258 1.397 . S
C2259 C2260 1.334 . S
C2260 H2231 0.950 . S
C2260 C2259 1.334 . S
C2260 C2261 1.287 . S
C2261 C2260 1.287 . S
C2261 C2262 1.524 . S
C2261 H2264 0.999 . S
C2262 H2232 0.950 . S
C2262 C2261 1.524 . S
C2262 C2263 1.415 . S
C2263 H2233 0.950 . S
C2263 C2258 1.363 . S
C2263 C2262 1.415 . S
H2264 C2261 0.999 . S
H2265 C2246 0.913 . S
H2266 C2284 0.951 . S
H2267 C2286 0.951 . S
H2268 C2288 0.950 . S
H2269 C2289 0.950 . S
H2270 C2291 0.949 . S
H2271 C2294 0.950 . S
H2272 C2295 0.950 . S
H2273 C2297 0.950 . S
H2274 C2298 0.950 . S
H2275 C2299 0.951 . S
H2276 C2301 0.951 . S
H2277 C2303 0.950 . S
H2278 C2304 0.950 . S
H2279 C2306 0.949 . S
H2280 C2309 0.950 . S
H2281 C2310 0.950 . S
H2282 C2312 0.950 . S
H2283 C2313 0.950 . S
C2284 H2266 0.951 . S
C2284 C2285 1.366 . S
C2284 C2286 1.388 . S
C2285 C2284 1.366 . S
C2285 C2289 1.385 . S
C2286 H2267 0.951 . S
C2286 C2284 1.388 . S
C2286 C2287 1.366 . S
C2287 C2286 1.366 . S
C2287 C2288 1.414 . S
C2287 C2290 1.499 . S
C2288 H2268 0.950 . S
C2288 C2287 1.414 . S
C2288 C2289 1.374 . S
C2289 H2269 0.950 . S
C2289 C2285 1.385 . S
C2289 C2288 1.374 . S
C2290 C2287 1.499 . S
C2290 C2291 1.435 . S
C2290 C2292 1.389 . S
C2291 H2270 0.949 . S
C2291 C2290 1.435 . S
C2291 C2307 1.312 1_565 S
C2292 C2290 1.389 . S
C2292 C2293 1.524 . S
C2292 C2306 1.313 1_565 S
C2293 C2292 1.524 . S
C2293 C2294 1.397 . S
C2293 C2298 1.363 . S
C2294 H2271 0.950 . S
C2294 C2293 1.397 . S
C2294 C2295 1.334 . S
C2295 H2272 0.950 . S
C2295 C2294 1.334 . S
C2295 C2296 1.287 . S
C2296 C2295 1.287 . S
C2296 C2297 1.524 . S
C2296 H2315 0.913 . S
C2297 H2273 0.950 . S
C2297 C2296 1.524 . S
C2297 C2298 1.415 . S
C2298 H2274 0.950 . S
C2298 C2293 1.363 . S
C2298 C2297 1.415 . S
C2299 H2275 0.951 . S
C2299 C2300 1.366 . S
C2299 C2301 1.388 . S
C2300 C2299 1.366 . S
C2300 C2304 1.385 . S
C2301 H2276 0.951 . S
C2301 C2299 1.388 . S
C2301 C2302 1.366 . S
C2302 C2301 1.366 . S
C2302 C2303 1.414 . S
C2302 C2305 1.499 . S
C2303 H2277 0.950 . S
C2303 C2302 1.414 . S
C2303 C2304 1.374 . S
C2304 H2278 0.950 . S
C2304 C2300 1.385 . S
C2304 C2303 1.374 . S
C2305 C2302 1.499 . S
C2305 C2306 1.435 . S
C2305 C2307 1.389 . S
C2306 H2279 0.949 . S
C2306 C2292 1.313 1_545 S
C2306 C2305 1.435 . S
C2307 C2291 1.312 1_545 S
C2307 C2305 1.389 . S
C2307 C2308 1.524 . S
C2308 C2307 1.524 . S
C2308 C2309 1.397 . S
C2308 C2313 1.363 . S
C2309 H2280 0.950 . S
C2309 C2308 1.397 . S
C2309 C2310 1.334 . S
C2310 H2281 0.950 . S
C2310 C2309 1.334 . S
C2310 C2311 1.287 . S
C2311 C2310 1.287 . S
C2311 C2312 1.524 . S
C2311 H2314 0.999 . S
C2312 H2282 0.950 . S
C2312 C2311 1.524 . S
C2312 C2313 1.415 . S
C2313 H2283 0.950 . S
C2313 C2308 1.363 . S
C2313 C2312 1.415 . S
H2314 C2311 0.999 . S
H2315 C2296 0.913 . S
H2316 C2334 0.951 . S
H2317 C2336 0.951 . S
H2318 C2338 0.950 1_554 S
H2319 C2339 0.950 . S
H2320 C2341 0.950 . S
H2321 C2344 0.950 . S
H2322 C2345 0.950 . S
H2323 C2347 0.950 . S
H2324 C2348 0.950 . S
H2325 C2349 0.951 . S
H2326 C2351 0.951 . S
H2327 C2353 0.950 1_556 S
H2328 C2354 0.950 . S
H2329 C2356 0.950 . S
H2330 C2359 0.950 . S
H2331 C2360 0.950 . S
H2332 C2362 0.950 . S
H2333 C2363 0.950 . S
C2334 H2316 0.951 . S
C2334 C2335 1.366 . S
C2334 C2336 1.388 . S
C2335 C2334 1.366 . S
C2335 C2339 1.385 . S
C2336 H2317 0.951 . S
C2336 C2334 1.388 . S
C2336 C2337 1.366 . S
C2337 C2336 1.366 . S
C2337 C2338 1.414 . S
C2337 C2340 1.499 . S
C2338 H2318 0.950 1_556 S
C2338 C2337 1.414 . S
C2338 C2339 1.374 . S
C2339 H2319 0.950 . S
C2339 C2335 1.385 . S
C2339 C2338 1.374 . S
C2340 C2337 1.499 . S
C2340 C2341 1.373 . S
C2340 C2342 1.382 1_556 S
C2341 H2320 0.950 . S
C2341 C2340 1.373 . S
C2341 C2357 1.384 . S
C2342 C2340 1.382 1_554 S
C2342 C2343 1.528 . S
C2342 C2356 1.384 . S
C2343 C2342 1.528 . S
C2343 C2344 1.397 . S
C2343 C2348 1.363 1_554 S
C2344 H2321 0.950 . S
C2344 C2343 1.397 . S
C2344 C2345 1.334 . S
C2345 H2322 0.950 . S
C2345 C2344 1.334 . S
C2345 C2346 1.287 . S
C2346 C2345 1.287 . S
C2346 C2347 1.524 1_554 S
C2346 H2365 0.913 . S
C2347 H2323 0.950 . S
C2347 C2346 1.524 1_556 S
C2347 C2348 1.415 . S
C2348 H2324 0.950 . S
C2348 C2343 1.363 1_556 S
C2348 C2347 1.415 . S
C2349 H2325 0.951 . S
C2349 C2350 1.366 . S
C2349 C2351 1.388 . S
C2350 C2349 1.366 . S
C2350 C2354 1.385 . S
C2351 H2326 0.951 . S
C2351 C2349 1.388 . S
C2351 C2352 1.366 . S
C2352 C2351 1.366 . S
C2352 C2353 1.414 . S
C2352 C2355 1.499 . S
C2353 H2327 0.950 1_554 S
C2353 C2352 1.414 . S
C2353 C2354 1.374 . S
C2354 H2328 0.950 . S
C2354 C2350 1.385 . S
C2354 C2353 1.374 . S
C2355 C2352 1.499 . S
C2355 C2356 1.373 . S
C2355 C2357 1.382 1_554 S
C2356 H2329 0.950 . S
C2356 C2342 1.384 . S
C2356 C2355 1.373 . S
C2357 C2341 1.384 . S
C2357 C2355 1.382 1_556 S
C2357 C2358 1.528 . S
C2358 C2357 1.528 . S
C2358 C2359 1.397 . S
C2358 C2363 1.363 1_556 S
C2359 H2330 0.950 . S
C2359 C2358 1.397 . S
C2359 C2360 1.334 . S
C2360 H2331 0.950 . S
C2360 C2359 1.334 . S
C2360 C2361 1.287 . S
C2361 C2360 1.287 . S
C2361 C2362 1.524 1_556 S
C2361 H2364 0.999 . S
C2362 H2332 0.950 . S
C2362 C2361 1.524 1_554 S
C2362 C2363 1.415 . S
C2363 H2333 0.950 . S
C2363 C2358 1.363 1_554 S
C2363 C2362 1.415 . S
H2364 C2361 0.999 . S
H2365 C2346 0.913 . S
H2366 C2384 0.951 . S
H2367 C2386 0.951 . S
H2368 C2388 0.950 . S
H2369 C2389 0.950 . S
H2370 C2391 0.950 . S
H2371 C2394 0.950 . S
H2372 C2395 0.950 . S
H2373 C2397 0.950 . S
H2374 C2398 0.950 . S
H2375 C2399 0.951 . S
H2376 C2401 0.951 . S
H2377 C2403 0.950 . S
H2378 C2404 0.950 . S
H2379 C2406 0.950 . S
H2380 C2409 0.950 . S
H2381 C2410 0.950 . S
H2382 C2412 0.950 . S
H2383 C2413 0.950 . S
C2384 H2366 0.951 . S
C2384 C2385 1.366 . S
C2384 C2386 1.388 . S
C2385 C2384 1.366 . S
C2385 C2389 1.385 . S
C2386 H2367 0.951 . S
C2386 C2384 1.388 . S
C2386 C2387 1.366 . S
C2387 C2386 1.366 . S
C2387 C2388 1.414 . S
C2387 C2390 1.499 . S
C2388 H2368 0.950 . S
C2388 C2387 1.414 . S
C2388 C2389 1.374 . S
C2389 H2369 0.950 . S
C2389 C2385 1.385 . S
C2389 C2388 1.374 . S
C2390 C2387 1.499 . S
C2390 C2391 1.373 . S
C2390 C2392 1.389 . S
C2391 H2370 0.950 . S
C2391 C2390 1.373 . S
C2391 C2407 1.377 . S
C2392 C2390 1.389 . S
C2392 C2393 1.524 . S
C2392 C2406 1.377 . S
C2393 C2392 1.524 . S
C2393 C2394 1.397 . S
C2393 C2398 1.363 . S
C2394 H2371 0.950 . S
C2394 C2393 1.397 . S
C2394 C2395 1.334 . S
C2395 H2372 0.950 . S
C2395 C2394 1.334 . S
C2395 C2396 1.287 . S
C2396 C2395 1.287 . S
C2396 C2397 1.524 . S
C2396 H2415 0.913 . S
C2397 H2373 0.950 . S
C2397 C2396 1.524 . S
C2397 C2398 1.415 . S
C2398 H2374 0.950 . S
C2398 C2393 1.363 . S
C2398 C2397 1.415 . S
C2399 H2375 0.951 . S
C2399 C2400 1.366 . S
C2399 C2401 1.388 . S
C2400 C2399 1.366 . S
C2400 C2404 1.385 . S
C2401 H2376 0.951 . S
C2401 C2399 1.388 . S
C2401 C2402 1.366 . S
C2402 C2401 1.366 . S
C2402 C2403 1.414 . S
C2402 C2405 1.499 . S
C2403 H2377 0.950 . S
C2403 C2402 1.414 . S
C2403 C2404 1.374 . S
C2404 H2378 0.950 . S
C2404 C2400 1.385 . S
C2404 C2403 1.374 . S
C2405 C2402 1.499 . S
C2405 C2406 1.373 . S
C2405 C2407 1.389 . S
C2406 H2379 0.950 . S
C2406 C2392 1.377 . S
C2406 C2405 1.373 . S
C2407 C2391 1.377 . S
C2407 C2405 1.389 . S
C2407 C2408 1.524 . S
C2408 C2407 1.524 . S
C2408 C2409 1.397 . S
C2408 C2413 1.363 . S
C2409 H2380 0.950 . S
C2409 C2408 1.397 . S
C2409 C2410 1.334 . S
C2410 H2381 0.950 . S
C2410 C2409 1.334 . S
C2410 C2411 1.287 . S
C2411 C2410 1.287 . S
C2411 C2412 1.524 . S
C2411 H2414 0.999 . S
C2412 H2382 0.950 . S
C2412 C2411 1.524 . S
C2412 C2413 1.415 . S
C2413 H2383 0.950 . S
C2413 C2408 1.363 . S
C2413 C2412 1.415 . S
H2414 C2411 0.999 . S
H2415 C2396 0.913 . S
H2416 C2434 0.951 . S
H2417 C2436 0.951 . S
H2418 C2438 0.950 . S
H2419 C2439 0.950 . S
H2420 C2441 0.950 . S
H2421 C2444 0.950 . S
H2422 C2445 0.950 . S
H2423 C2447 0.950 . S
H2424 C2448 0.950 . S
H2425 C2449 0.951 . S
H2426 C2451 0.951 . S
H2427 C2453 0.950 . S
H2428 C2454 0.950 . S
H2429 C2456 0.950 . S
H2430 C2459 0.950 . S
H2431 C2460 0.950 . S
H2432 C2462 0.950 . S
H2433 C2463 0.950 . S
C2434 H2416 0.951 . S
C2434 C2435 1.366 . S
C2434 C2436 1.388 . S
C2435 C2434 1.366 . S
C2435 C2439 1.385 . S
C2436 H2417 0.951 . S
C2436 C2434 1.388 . S
C2436 C2437 1.366 . S
C2437 C2436 1.366 . S
C2437 C2438 1.414 . S
C2437 C2440 1.499 . S
C2438 H2418 0.950 . S
C2438 C2437 1.414 . S
C2438 C2439 1.374 . S
C2439 H2419 0.950 . S
C2439 C2435 1.385 . S
C2439 C2438 1.374 . S
C2440 C2437 1.499 . S
C2440 C2441 1.373 1_455 S
C2440 C2442 1.389 . S
C2441 H2420 0.950 . S
C2441 C2440 1.373 1_655 S
C2441 C2457 1.377 . S
C2442 C2440 1.389 . S
C2442 C2443 1.524 . S
C2442 C2456 1.377 . S
C2443 C2442 1.524 . S
C2443 C2444 1.397 . S
C2443 C2448 1.363 . S
C2444 H2421 0.950 . S
C2444 C2443 1.397 . S
C2444 C2445 1.334 . S
C2445 H2422 0.950 . S
C2445 C2444 1.334 . S
C2445 C2446 1.287 . S
C2446 C2445 1.287 . S
C2446 C2447 1.524 . S
C2446 H2465 0.913 . S
C2447 H2423 0.950 . S
C2447 C2446 1.524 . S
C2447 C2448 1.415 . S
C2448 H2424 0.950 . S
C2448 C2443 1.363 . S
C2448 C2447 1.415 . S
C2449 H2425 0.951 . S
C2449 C2450 1.366 . S
C2449 C2451 1.388 . S
C2450 C2449 1.366 . S
C2450 C2454 1.385 . S
C2451 H2426 0.951 . S
C2451 C2449 1.388 . S
C2451 C2452 1.366 . S
C2452 C2451 1.366 . S
C2452 C2453 1.414 . S
C2452 C2455 1.499 . S
C2453 H2427 0.950 . S
C2453 C2452 1.414 . S
C2453 C2454 1.374 . S
C2454 H2428 0.950 . S
C2454 C2450 1.385 . S
C2454 C2453 1.374 . S
C2455 C2452 1.499 . S
C2455 C2456 1.373 1_655 S
C2455 C2457 1.389 . S
C2456 H2429 0.950 . S
C2456 C2442 1.377 . S
C2456 C2455 1.373 1_455 S
C2457 C2441 1.377 . S
C2457 C2455 1.389 . S
C2457 C2458 1.524 . S
C2458 C2457 1.524 . S
C2458 C2459 1.397 . S
C2458 C2463 1.363 . S
C2459 H2430 0.950 . S
C2459 C2458 1.397 . S
C2459 C2460 1.334 . S
C2460 H2431 0.950 . S
C2460 C2459 1.334 . S
C2460 C2461 1.287 . S
C2461 C2460 1.287 . S
C2461 C2462 1.524 . S
C2461 H2464 0.999 . S
C2462 H2432 0.950 . S
C2462 C2461 1.524 . S
C2462 C2463 1.415 . S
C2463 H2433 0.950 . S
C2463 C2458 1.363 . S
C2463 C2462 1.415 . S
H2464 C2461 0.999 . S
H2465 C2446 0.913 . S
H2466 C2484 0.951 . S
H2467 C2486 0.951 . S
H2468 C2488 0.950 . S
H2469 C2489 0.950 . S
H2470 C2491 0.950 . S
H2471 C2494 0.950 . S
H2472 C2495 0.950 . S
H2473 C2497 0.950 . S
H2474 C2498 0.950 . S
H2475 C2499 0.951 . S
H2476 C2501 0.951 . S
H2477 C2503 0.950 . S
H2478 C2504 0.950 . S
H2479 C2506 0.950 . S
H2480 C2509 0.950 . S
H2481 C2510 0.950 . S
H2482 C2512 0.950 . S
H2483 C2513 0.950 . S
C2484 H2466 0.951 . S
C2484 C2485 1.366 . S
C2484 C2486 1.388 . S
C2485 C2484 1.366 . S
C2485 C2489 1.385 . S
C2486 H2467 0.951 . S
C2486 C2484 1.388 . S
C2486 C2487 1.366 . S
C2487 C2486 1.366 . S
C2487 C2488 1.414 . S
C2487 C2490 1.499 . S
C2488 H2468 0.950 . S
C2488 C2487 1.414 . S
C2488 C2489 1.374 . S
C2489 H2469 0.950 . S
C2489 C2485 1.385 . S
C2489 C2488 1.374 . S
C2490 C2487 1.499 . S
C2490 C2491 1.373 . S
C2490 C2492 1.389 . S
C2491 H2470 0.950 . S
C2491 C2490 1.373 . S
C2491 C2507 1.377 . S
C2492 C2490 1.389 . S
C2492 C2493 1.524 . S
C2492 C2506 1.377 . S
C2493 C2492 1.524 . S
C2493 C2494 1.397 . S
C2493 C2498 1.363 . S
C2494 H2471 0.950 . S
C2494 C2493 1.397 . S
C2494 C2495 1.334 . S
C2495 H2472 0.950 . S
C2495 C2494 1.334 . S
C2495 C2496 1.287 . S
C2496 C2495 1.287 . S
C2496 C2497 1.524 . S
C2496 H2515 0.913 . S
C2497 H2473 0.950 . S
C2497 C2496 1.524 . S
C2497 C2498 1.415 . S
C2498 H2474 0.950 . S
C2498 C2493 1.363 . S
C2498 C2497 1.415 . S
C2499 H2475 0.951 . S
C2499 C2500 1.366 . S
C2499 C2501 1.388 . S
C2500 C2499 1.366 . S
C2500 C2504 1.385 . S
C2501 H2476 0.951 . S
C2501 C2499 1.388 . S
C2501 C2502 1.366 . S
C2502 C2501 1.366 . S
C2502 C2503 1.414 . S
C2502 C2505 1.499 . S
C2503 H2477 0.950 . S
C2503 C2502 1.414 . S
C2503 C2504 1.374 . S
C2504 H2478 0.950 . S
C2504 C2500 1.385 . S
C2504 C2503 1.374 . S
C2505 C2502 1.499 . S
C2505 C2506 1.373 . S
C2505 C2507 1.389 . S
C2506 H2479 0.950 . S
C2506 C2492 1.377 . S
C2506 C2505 1.373 . S
C2507 C2491 1.377 . S
C2507 C2505 1.389 . S
C2507 C2508 1.524 . S
C2508 C2507 1.524 . S
C2508 C2509 1.397 . S
C2508 C2513 1.363 . S
C2509 H2480 0.950 . S
C2509 C2508 1.397 . S
C2509 C2510 1.334 . S
C2510 H2481 0.950 . S
C2510 C2509 1.334 . S
C2510 C2511 1.287 . S
C2511 C2510 1.287 . S
C2511 C2512 1.524 . S
C2511 H2514 0.999 . S
C2512 H2482 0.950 . S
C2512 C2511 1.524 . S
C2512 C2513 1.415 . S
C2513 H2483 0.950 . S
C2513 C2508 1.363 . S
C2513 C2512 1.415 . S
H2514 C2511 0.999 . S
H2515 C2496 0.913 . S
H2516 C2534 0.951 . S
H2517 C2536 0.951 . S
H2518 C2538 0.950 . S
H2519 C2539 0.950 . S
H2520 C2541 0.950 . S
H2521 C2544 0.950 . S
H2522 C2545 0.950 . S
H2523 C2547 0.950 . S
H2524 C2548 0.950 . S
H2525 C2549 0.951 . S
H2526 C2551 0.951 . S
H2527 C2553 0.950 . S
H2528 C2554 0.950 . S
H2529 C2556 0.950 . S
H2530 C2559 0.950 . S
H2531 C2560 0.950 . S
H2532 C2562 0.950 . S
H2533 C2563 0.950 . S
C2534 H2516 0.951 . S
C2534 C2535 1.366 . S
C2534 C2536 1.388 . S
C2535 C2534 1.366 . S
C2535 C2539 1.385 . S
C2536 H2517 0.951 . S
C2536 C2534 1.388 . S
C2536 C2537 1.366 . S
C2537 C2536 1.366 . S
C2537 C2538 1.414 . S
C2537 C2540 1.499 . S
C2538 H2518 0.950 . S
C2538 C2537 1.414 . S
C2538 C2539 1.374 . S
C2539 H2519 0.950 . S
C2539 C2535 1.385 . S
C2539 C2538 1.374 . S
C2540 C2537 1.499 . S
C2540 C2541 1.373 . S
C2540 C2542 1.389 . S
C2541 H2520 0.950 . S
C2541 C2540 1.373 . S
C2541 C2557 1.377 . S
C2542 C2540 1.389 . S
C2542 C2543 1.524 . S
C2542 C2556 1.377 . S
C2543 C2542 1.524 . S
C2543 C2544 1.397 . S
C2543 C2548 1.363 . S
C2544 H2521 0.950 . S
C2544 C2543 1.397 . S
C2544 C2545 1.334 . S
C2545 H2522 0.950 . S
C2545 C2544 1.334 . S
C2545 C2546 1.287 . S
C2546 C2545 1.287 . S
C2546 C2547 1.524 . S
C2546 H2565 0.913 . S
C2547 H2523 0.950 . S
C2547 C2546 1.524 . S
C2547 C2548 1.415 . S
C2548 H2524 0.950 . S
C2548 C2543 1.363 . S
C2548 C2547 1.415 . S
C2549 H2525 0.951 . S
C2549 C2550 1.366 . S
C2549 C2551 1.388 . S
C2550 C2549 1.366 . S
C2550 C2554 1.385 . S
C2551 H2526 0.951 . S
C2551 C2549 1.388 . S
C2551 C2552 1.366 . S
C2552 C2551 1.366 . S
C2552 C2553 1.414 . S
C2552 C2555 1.499 . S
C2553 H2527 0.950 . S
C2553 C2552 1.414 . S
C2553 C2554 1.374 . S
C2554 H2528 0.950 . S
C2554 C2550 1.385 . S
C2554 C2553 1.374 . S
C2555 C2552 1.499 . S
C2555 C2556 1.373 . S
C2555 C2557 1.389 . S
C2556 H2529 0.950 . S
C2556 C2542 1.377 . S
C2556 C2555 1.373 . S
C2557 C2541 1.377 . S
C2557 C2555 1.389 . S
C2557 C2558 1.524 . S
C2558 C2557 1.524 . S
C2558 C2559 1.397 . S
C2558 C2563 1.363 . S
C2559 H2530 0.950 . S
C2559 C2558 1.397 . S
C2559 C2560 1.334 . S
C2560 H2531 0.950 . S
C2560 C2559 1.334 . S
C2560 C2561 1.287 . S
C2561 C2560 1.287 . S
C2561 C2562 1.524 . S
C2561 H2564 0.999 . S
C2562 H2532 0.950 . S
C2562 C2561 1.524 . S
C2562 C2563 1.415 . S
C2563 H2533 0.950 . S
C2563 C2558 1.363 . S
C2563 C2562 1.415 . S
H2564 C2561 0.999 . S
H2565 C2546 0.913 . S
H2566 C2584 0.951 . S
H2567 C2586 0.951 . S
H2568 C2588 0.950 . S
H2569 C2589 0.950 . S
H2570 C2591 0.950 . S
H2571 C2594 0.950 . S
H2572 C2595 0.950 . S
H2573 C2597 0.950 . S
H2574 C2598 0.950 . S
H2575 C2599 0.951 . S
H2576 C2601 0.951 . S
H2577 C2603 0.950 . S
H2578 C2604 0.950 . S
H2579 C2606 0.950 . S
H2580 C2609 0.950 . S
H2581 C2610 0.950 . S
H2582 C2612 0.950 . S
H2583 C2613 0.950 . S
C2584 H2566 0.951 . S
C2584 C2585 1.366 . S
C2584 C2586 1.388 . S
C2585 C2584 1.366 . S
C2585 C2589 1.385 . S
C2586 H2567 0.951 . S
C2586 C2584 1.388 . S
C2586 C2587 1.366 . S
C2587 C2586 1.366 . S
C2587 C2588 1.414 . S
C2587 C2590 1.499 . S
C2588 H2568 0.950 . S
C2588 C2587 1.414 . S
C2588 C2589 1.374 . S
C2589 H2569 0.950 . S
C2589 C2585 1.385 . S
C2589 C2588 1.374 . S
C2590 C2587 1.499 . S
C2590 C2591 1.373 . S
C2590 C2592 1.389 . S
C2591 H2570 0.950 . S
C2591 C2590 1.373 . S
C2591 C2607 1.377 . S
C2592 C2590 1.389 . S
C2592 C2593 1.524 . S
C2592 C2606 1.377 . S
C2593 C2592 1.524 . S
C2593 C2594 1.397 . S
C2593 C2598 1.363 . S
C2594 H2571 0.950 . S
C2594 C2593 1.397 . S
C2594 C2595 1.334 . S
C2595 H2572 0.950 . S
C2595 C2594 1.334 . S
C2595 C2596 1.287 . S
C2596 C2595 1.287 . S
C2596 C2597 1.524 . S
C2596 H2615 0.913 . S
C2597 H2573 0.950 . S
C2597 C2596 1.524 . S
C2597 C2598 1.415 . S
C2598 H2574 0.950 . S
C2598 C2593 1.363 . S
C2598 C2597 1.415 . S
C2599 H2575 0.951 . S
C2599 C2600 1.366 . S
C2599 C2601 1.388 . S
C2600 C2599 1.366 . S
C2600 C2604 1.385 . S
C2601 H2576 0.951 . S
C2601 C2599 1.388 . S
C2601 C2602 1.366 . S
C2602 C2601 1.366 . S
C2602 C2603 1.414 . S
C2602 C2605 1.499 . S
C2603 H2577 0.950 . S
C2603 C2602 1.414 . S
C2603 C2604 1.374 . S
C2604 H2578 0.950 . S
C2604 C2600 1.385 . S
C2604 C2603 1.374 . S
C2605 C2602 1.499 . S
C2605 C2606 1.373 . S
C2605 C2607 1.389 . S
C2606 H2579 0.950 . S
C2606 C2592 1.377 . S
C2606 C2605 1.373 . S
C2607 C2591 1.377 . S
C2607 C2605 1.389 . S
C2607 C2608 1.524 . S
C2608 C2607 1.524 . S
C2608 C2609 1.397 . S
C2608 C2613 1.363 . S
C2609 H2580 0.950 . S
C2609 C2608 1.397 . S
C2609 C2610 1.334 . S
C2610 H2581 0.950 . S
C2610 C2609 1.334 . S
C2610 C2611 1.287 . S
C2611 C2610 1.287 . S
C2611 C2612 1.524 . S
C2611 H2614 0.999 . S
C2612 H2582 0.950 . S
C2612 C2611 1.524 . S
C2612 C2613 1.415 . S
C2613 H2583 0.950 . S
C2613 C2608 1.363 . S
C2613 C2612 1.415 . S
H2614 C2611 0.999 . S
H2615 C2596 0.913 . S
H2616 C2634 0.951 . S
H2617 C2636 0.951 . S
H2618 C2638 0.950 . S
H2619 C2639 0.950 . S
H2620 C2641 0.950 . S
H2621 C2644 0.950 . S
H2622 C2645 0.950 . S
H2623 C2647 0.950 . S
H2624 C2648 0.950 . S
H2625 C2649 0.951 . S
H2626 C2651 0.951 . S
H2627 C2653 0.950 . S
H2628 C2654 0.950 . S
H2629 C2656 0.950 . S
H2630 C2659 0.950 . S
H2631 C2660 0.950 . S
H2632 C2662 0.950 . S
H2633 C2663 0.950 . S
C2634 H2616 0.951 . S
C2634 C2635 1.366 . S
C2634 C2636 1.388 . S
C2635 C2634 1.366 . S
C2635 C2639 1.385 . S
C2636 H2617 0.951 . S
C2636 C2634 1.388 . S
C2636 C2637 1.366 . S
C2637 C2636 1.366 . S
C2637 C2638 1.414 . S
C2637 C2640 1.499 . S
C2638 H2618 0.950 . S
C2638 C2637 1.414 . S
C2638 C2639 1.374 . S
C2639 H2619 0.950 . S
C2639 C2635 1.385 . S
C2639 C2638 1.374 . S
C2640 C2637 1.499 . S
C2640 C2641 1.373 . S
C2640 C2642 1.389 . S
C2641 H2620 0.950 . S
C2641 C2640 1.373 . S
C2641 C2657 1.377 . S
C2642 C2640 1.389 . S
C2642 C2643 1.524 . S
C2642 C2656 1.377 . S
C2643 C2642 1.524 . S
C2643 C2644 1.397 . S
C2643 C2648 1.363 . S
C2644 H2621 0.950 . S
C2644 C2643 1.397 . S
C2644 C2645 1.334 . S
C2645 H2622 0.950 . S
C2645 C2644 1.334 . S
C2645 C2646 1.287 . S
C2646 C2645 1.287 . S
C2646 C2647 1.524 . S
C2646 H2665 0.913 . S
C2647 H2623 0.950 . S
C2647 C2646 1.524 . S
C2647 C2648 1.415 . S
C2648 H2624 0.950 . S
C2648 C2643 1.363 . S
C2648 C2647 1.415 . S
C2649 H2625 0.951 . S
C2649 C2650 1.366 . S
C2649 C2651 1.388 . S
C2650 C2649 1.366 . S
C2650 C2654 1.385 . S
C2651 H2626 0.951 . S
C2651 C2649 1.388 . S
C2651 C2652 1.366 . S
C2652 C2651 1.366 . S
C2652 C2653 1.414 . S
C2652 C2655 1.499 . S
C2653 H2627 0.950 . S
C2653 C2652 1.414 . S
C2653 C2654 1.374 . S
C2654 H2628 0.950 . S
C2654 C2650 1.385 . S
C2654 C2653 1.374 . S
C2655 C2652 1.499 . S
C2655 C2656 1.373 . S
C2655 C2657 1.389 . S
C2656 H2629 0.950 . S
C2656 C2642 1.377 . S
C2656 C2655 1.373 . S
C2657 C2641 1.377 . S
C2657 C2655 1.389 . S
C2657 C2658 1.524 . S
C2658 C2657 1.524 . S
C2658 C2659 1.397 . S
C2658 C2663 1.363 . S
C2659 H2630 0.950 . S
C2659 C2658 1.397 . S
C2659 C2660 1.334 . S
C2660 H2631 0.950 . S
C2660 C2659 1.334 . S
C2660 C2661 1.287 . S
C2661 C2660 1.287 . S
C2661 C2662 1.524 . S
C2661 H2664 0.999 . S
C2662 H2632 0.950 . S
C2662 C2661 1.524 . S
C2662 C2663 1.415 . S
C2663 H2633 0.950 . S
C2663 C2658 1.363 . S
C2663 C2662 1.415 . S
H2664 C2661 0.999 . S
H2665 C2646 0.913 . S
H2666 C2684 0.951 . S
H2667 C2686 0.951 . S
H2668 C2688 0.950 . S
H2669 C2689 0.950 . S
H2670 C2691 0.950 . S
H2671 C2694 0.950 . S
H2672 C2695 0.950 . S
H2673 C2697 0.950 . S
H2674 C2698 0.950 . S
H2675 C2699 0.951 . S
H2676 C2701 0.951 . S
H2677 C2703 0.950 . S
H2678 C2704 0.950 . S
H2679 C2706 0.950 . S
H2680 C2709 0.950 . S
H2681 C2710 0.950 . S
H2682 C2712 0.950 . S
H2683 C2713 0.950 . S
C2684 H2666 0.951 . S
C2684 C2685 1.366 . S
C2684 C2686 1.388 . S
C2685 C2684 1.366 . S
C2685 C2689 1.385 . S
C2686 H2667 0.951 . S
C2686 C2684 1.388 . S
C2686 C2687 1.366 . S
C2687 C2686 1.366 . S
C2687 C2688 1.414 . S
C2687 C2690 1.499 . S
C2688 H2668 0.950 . S
C2688 C2687 1.414 . S
C2688 C2689 1.374 . S
C2689 H2669 0.950 . S
C2689 C2685 1.385 . S
C2689 C2688 1.374 . S
C2690 C2687 1.499 . S
C2690 C2691 1.373 . S
C2690 C2692 1.401 . S
C2691 H2670 0.950 . S
C2691 C2690 1.373 . S
C2691 C2707 1.365 1_545 S
C2692 C2690 1.401 . S
C2692 C2693 1.524 1_545 S
C2692 C2706 1.365 1_545 S
C2693 C2692 1.524 1_565 S
C2693 C2694 1.390 1_565 S
C2693 C2698 1.371 . S
C2694 H2671 0.950 . S
C2694 C2693 1.390 1_545 S
C2694 C2695 1.334 . S
C2695 H2672 0.950 . S
C2695 C2694 1.334 . S
C2695 C2696 1.263 1_545 S
C2696 C2695 1.263 1_565 S
C2696 C2697 1.547 . S
C2696 H2715 0.913 . S
C2697 H2673 0.950 . S
C2697 C2696 1.547 . S
C2697 C2698 1.415 . S
C2698 H2674 0.950 . S
C2698 C2693 1.371 . S
C2698 C2697 1.415 . S
C2699 H2675 0.951 . S
C2699 C2700 1.366 . S
C2699 C2701 1.388 . S
C2700 C2699 1.366 . S
C2700 C2704 1.385 . S
C2701 H2676 0.951 . S
C2701 C2699 1.388 . S
C2701 C2702 1.366 . S
C2702 C2701 1.366 . S
C2702 C2703 1.414 . S
C2702 C2705 1.499 . S
C2703 H2677 0.950 . S
C2703 C2702 1.414 . S
C2703 C2704 1.374 . S
C2704 H2678 0.950 . S
C2704 C2700 1.385 . S
C2704 C2703 1.374 . S
C2705 C2702 1.499 . S
C2705 C2706 1.373 . S
C2705 C2707 1.401 . S
C2706 H2679 0.950 . S
C2706 C2692 1.365 1_565 S
C2706 C2705 1.373 . S
C2707 C2691 1.365 1_565 S
C2707 C2705 1.401 . S
C2707 C2708 1.524 1_565 S
C2708 C2707 1.524 1_545 S
C2708 C2709 1.390 1_545 S
C2708 C2713 1.371 . S
C2709 H2680 0.950 . S
C2709 C2708 1.390 1_565 S
C2709 C2710 1.334 . S
C2710 H2681 0.950 . S
C2710 C2709 1.334 . S
C2710 C2711 1.263 1_565 S
C2711 C2710 1.263 1_545 S
C2711 C2712 1.547 . S
C2711 H2714 0.998 . S
C2712 H2682 0.950 . S
C2712 C2711 1.547 . S
C2712 C2713 1.415 . S
C2713 H2683 0.950 . S
C2713 C2708 1.371 . S
C2713 C2712 1.415 . S
H2714 C2711 0.998 . S
H2715 C2696 0.913 . S
H2716 C2734 0.951 . S
H2717 C2736 0.951 . S
H2718 C2738 0.950 . S
H2719 C2739 0.950 . S
H2720 C2741 0.950 . S
H2721 C2744 0.950 . S
H2722 C2745 0.950 . S
H2723 C2747 0.950 . S
H2724 C2748 0.950 . S
H2725 C2749 0.951 . S
H2726 C2751 0.951 . S
H2727 C2753 0.950 . S
H2728 C2754 0.950 . S
H2729 C2756 0.950 . S
H2730 C2759 0.950 . S
H2731 C2760 0.950 . S
H2732 C2762 0.950 . S
H2733 C2763 0.950 . S
C2734 H2716 0.951 . S
C2734 C2735 1.366 . S
C2734 C2736 1.388 . S
C2735 C2734 1.366 . S
C2735 C2739 1.385 . S
C2736 H2717 0.951 . S
C2736 C2734 1.388 . S
C2736 C2737 1.366 . S
C2737 C2736 1.366 . S
C2737 C2738 1.414 . S
C2737 C2740 1.499 . S
C2738 H2718 0.950 . S
C2738 C2737 1.414 . S
C2738 C2739 1.374 . S
C2739 H2719 0.950 . S
C2739 C2735 1.385 . S
C2739 C2738 1.374 . S
C2740 C2737 1.499 . S
C2740 C2741 1.373 . S
C2740 C2742 1.389 . S
C2741 H2720 0.950 . S
C2741 C2740 1.373 . S
C2741 C2757 1.377 . S
C2742 C2740 1.389 . S
C2742 C2743 1.524 . S
C2742 C2756 1.377 . S
C2743 C2742 1.524 . S
C2743 C2744 1.397 . S
C2743 C2748 1.363 . S
C2744 H2721 0.950 . S
C2744 C2743 1.397 . S
C2744 C2745 1.334 . S
C2745 H2722 0.950 . S
C2745 C2744 1.334 . S
C2745 C2746 1.287 . S
C2746 C2745 1.287 . S
C2746 C2747 1.524 . S
C2746 H2765 0.913 . S
C2747 H2723 0.950 . S
C2747 C2746 1.524 . S
C2747 C2748 1.415 . S
C2748 H2724 0.950 . S
C2748 C2743 1.363 . S
C2748 C2747 1.415 . S
C2749 H2725 0.951 . S
C2749 C2750 1.366 . S
C2749 C2751 1.388 . S
C2750 C2749 1.366 . S
C2750 C2754 1.385 . S
C2751 H2726 0.951 . S
C2751 C2749 1.388 . S
C2751 C2752 1.366 . S
C2752 C2751 1.366 . S
C2752 C2753 1.414 . S
C2752 C2755 1.499 . S
C2753 H2727 0.950 . S
C2753 C2752 1.414 . S
C2753 C2754 1.374 . S
C2754 H2728 0.950 . S
C2754 C2750 1.385 . S
C2754 C2753 1.374 . S
C2755 C2752 1.499 . S
C2755 C2756 1.373 . S
C2755 C2757 1.389 . S
C2756 H2729 0.950 . S
C2756 C2742 1.377 . S
C2756 C2755 1.373 . S
C2757 C2741 1.377 . S
C2757 C2755 1.389 . S
C2757 C2758 1.524 . S
C2758 C2757 1.524 . S
C2758 C2759 1.397 . S
C2758 C2763 1.363 . S
C2759 H2730 0.950 . S
C2759 C2758 1.397 . S
C2759 C2760 1.334 . S
C2760 H2731 0.950 . S
C2760 C2759 1.334 . S
C2760 C2761 1.287 . S
C2761 C2760 1.287 . S
C2761 C2762 1.524 . S
C2761 H2764 0.999 . S
C2762 H2732 0.950 . S
C2762 C2761 1.524 . S
C2762 C2763 1.415 . S
C2763 H2733 0.950 . S
C2763 C2758 1.363 . S
C2763 C2762 1.415 . S
H2764 C2761 0.999 . S
H2765 C2746 0.913 . S
H2766 C2784 0.951 1_554 S
H2767 C2786 0.966 . S
H2768 C2788 0.950 . S
H2769 C2789 0.950 . S
H2770 C2791 0.950 . S
H2771 C2794 0.950 1_556 S
H2772 C2795 0.950 1_556 S
H2773 C2797 0.950 . S
H2774 C2798 0.950 . S
H2775 C2799 0.951 1_556 S
H2776 C2801 0.966 . S
H2777 C2803 0.950 . S
H2778 C2804 0.950 . S
H2779 C2806 0.950 . S
H2780 C2809 0.950 1_554 S
H2781 C2810 0.950 1_554 S
H2782 C2812 0.950 . S
H2783 C2813 0.950 . S
C2784 H2766 0.951 1_556 S
C2784 C2785 1.366 . S
C2784 C2786 1.383 1_556 S
C2785 C2784 1.366 . S
C2785 C2789 1.385 . S
C2786 H2767 0.966 . S
C2786 C2784 1.383 1_554 S
C2786 C2787 1.355 1_554 S
C2787 C2786 1.355 1_556 S
C2787 C2788 1.414 . S
C2787 C2790 1.499 . S
C2788 H2768 0.950 . S
C2788 C2787 1.414 . S
C2788 C2789 1.374 . S
C2789 H2769 0.950 . S
C2789 C2785 1.385 . S
C2789 C2788 1.374 . S
C2790 C2787 1.499 . S
C2790 C2791 1.373 . S
C2790 C2792 1.389 1_556 S
C2791 H2770 0.950 . S
C2791 C2790 1.373 . S
C2791 C2807 1.377 . S
C2792 C2790 1.389 1_554 S
C2792 C2793 1.524 . S
C2792 C2806 1.377 . S
C2793 C2792 1.524 . S
C2793 C2794 1.397 . S
C2793 C2798 1.363 . S
C2794 H2771 0.950 1_554 S
C2794 C2793 1.397 . S
C2794 C2795 1.334 . S
C2795 H2772 0.950 1_554 S
C2795 C2794 1.334 . S
C2795 C2796 1.287 . S
C2796 C2795 1.287 . S
C2796 C2797 1.524 . S
C2796 H2815 0.913 . S
C2797 H2773 0.950 . S
C2797 C2796 1.524 . S
C2797 C2798 1.415 . S
C2798 H2774 0.950 . S
C2798 C2793 1.363 . S
C2798 C2797 1.415 . S
C2799 H2775 0.951 1_554 S
C2799 C2800 1.366 . S
C2799 C2801 1.383 1_554 S
C2800 C2799 1.366 . S
C2800 C2804 1.385 . S
C2801 H2776 0.966 . S
C2801 C2799 1.383 1_556 S
C2801 C2802 1.355 1_556 S
C2802 C2801 1.355 1_554 S
C2802 C2803 1.414 . S
C2802 C2805 1.499 . S
C2803 H2777 0.950 . S
C2803 C2802 1.414 . S
C2803 C2804 1.374 . S
C2804 H2778 0.950 . S
C2804 C2800 1.385 . S
C2804 C2803 1.374 . S
C2805 C2802 1.499 . S
C2805 C2806 1.373 . S
C2805 C2807 1.389 1_554 S
C2806 H2779 0.950 . S
C2806 C2792 1.377 . S
C2806 C2805 1.373 . S
C2807 C2791 1.377 . S
C2807 C2805 1.389 1_556 S
C2807 C2808 1.524 . S
C2808 C2807 1.524 . S
C2808 C2809 1.397 . S
C2808 C2813 1.363 . S
C2809 H2780 0.950 1_556 S
C2809 C2808 1.397 . S
C2809 C2810 1.334 . S
C2810 H2781 0.950 1_556 S
C2810 C2809 1.334 . S
C2810 C2811 1.287 . S
C2811 C2810 1.287 . S
C2811 C2812 1.524 . S
C2811 H2814 0.999 . S
C2812 H2782 0.950 . S
C2812 C2811 1.524 . S
C2812 C2813 1.415 . S
C2813 H2783 0.950 . S
C2813 C2808 1.363 . S
C2813 C2812 1.415 . S
H2814 C2811 0.999 . S
H2815 C2796 0.913 . S
H2816 C2834 0.951 . S
H2817 C2836 0.951 . S
H2818 C2838 0.950 . S
H2819 C2839 0.950 . S
H2820 C2841 0.950 . S
H2821 C2844 0.950 . S
H2822 C2845 0.950 . S
H2823 C2847 0.950 . S
H2824 C2848 0.950 . S
H2825 C2849 0.951 . S
H2826 C2851 0.951 . S
H2827 C2853 0.950 . S
H2828 C2854 0.950 . S
H2829 C2856 0.950 . S
H2830 C2859 0.950 . S
H2831 C2860 0.950 . S
H2832 C2862 0.950 . S
H2833 C2863 0.950 . S
C2834 H2816 0.951 . S
C2834 C2835 1.366 . S
C2834 C2836 1.388 . S
C2835 C2834 1.366 . S
C2835 C2839 1.385 . S
C2836 H2817 0.951 . S
C2836 C2834 1.388 . S
C2836 C2837 1.366 . S
C2837 C2836 1.366 . S
C2837 C2838 1.414 . S
C2837 C2840 1.499 . S
C2838 H2818 0.950 . S
C2838 C2837 1.414 . S
C2838 C2839 1.374 . S
C2839 H2819 0.950 . S
C2839 C2835 1.385 . S
C2839 C2838 1.374 . S
C2840 C2837 1.499 . S
C2840 C2841 1.373 . S
C2840 C2842 1.389 . S
C2841 H2820 0.950 . S
C2841 C2840 1.373 . S
C2841 C2857 1.377 . S
C2842 C2840 1.389 . S
C2842 C2843 1.524 . S
C2842 C2856 1.377 . S
C2843 C2842 1.524 . S
C2843 C2844 1.397 . S
C2843 C2848 1.363 . S
C2844 H2821 0.950 . S
C2844 C2843 1.397 . S
C2844 C2845 1.334 1_455 S
C2845 H2822 0.950 . S
C2845 C2844 1.334 1_655 S
C2845 C2846 1.287 . S
C2846 C2845 1.287 . S
C2846 C2847 1.524 . S
C2846 H2865 0.913 . S
C2847 H2823 0.950 . S
C2847 C2846 1.524 . S
C2847 C2848 1.415 1_655 S
C2848 H2824 0.950 . S
C2848 C2843 1.363 . S
C2848 C2847 1.415 1_455 S
C2849 H2825 0.951 . S
C2849 C2850 1.366 . S
C2849 C2851 1.388 . S
C2850 C2849 1.366 . S
C2850 C2854 1.385 . S
C2851 H2826 0.951 . S
C2851 C2849 1.388 . S
C2851 C2852 1.366 . S
C2852 C2851 1.366 . S
C2852 C2853 1.414 . S
C2852 C2855 1.499 . S
C2853 H2827 0.950 . S
C2853 C2852 1.414 . S
C2853 C2854 1.374 . S
C2854 H2828 0.950 . S
C2854 C2850 1.385 . S
C2854 C2853 1.374 . S
C2855 C2852 1.499 . S
C2855 C2856 1.373 . S
C2855 C2857 1.389 . S
C2856 H2829 0.950 . S
C2856 C2842 1.377 . S
C2856 C2855 1.373 . S
C2857 C2841 1.377 . S
C2857 C2855 1.389 . S
C2857 C2858 1.524 . S
C2858 C2857 1.524 . S
C2858 C2859 1.397 . S
C2858 C2863 1.363 . S
C2859 H2830 0.950 . S
C2859 C2858 1.397 . S
C2859 C2860 1.334 . S
C2860 H2831 0.950 . S
C2860 C2859 1.334 . S
C2860 C2861 1.287 . S
C2861 C2860 1.287 . S
C2861 C2862 1.524 . S
C2861 H2864 0.999 . S
C2862 H2832 0.950 . S
C2862 C2861 1.524 . S
C2862 C2863 1.415 . S
C2863 H2833 0.950 . S
C2863 C2858 1.363 . S
C2863 C2862 1.415 . S
H2864 C2861 0.999 . S
H2865 C2846 0.913 . S
H2866 C2884 0.951 . S
H2867 C2886 0.951 . S
H2868 C2888 0.950 . S
H2869 C2889 0.950 . S
H2870 C2891 0.950 . S
H2871 C2894 0.950 . S
H2872 C2895 0.950 . S
H2873 C2897 0.950 . S
H2874 C2898 0.950 . S
H2875 C2899 0.951 . S
H2876 C2901 0.951 . S
H2877 C2903 0.950 . S
H2878 C2904 0.950 . S
H2879 C2906 0.950 . S
H2880 C2909 0.950 . S
H2881 C2910 0.950 . S
H2882 C2912 0.950 . S
H2883 C2913 0.950 . S
C2884 H2866 0.951 . S
C2884 C2885 1.366 . S
C2884 C2886 1.388 . S
C2885 C2884 1.366 . S
C2885 C2889 1.385 . S
C2886 H2867 0.951 . S
C2886 C2884 1.388 . S
C2886 C2887 1.366 . S
C2887 C2886 1.366 . S
C2887 C2888 1.414 . S
C2887 C2890 1.499 . S
C2888 H2868 0.950 . S
C2888 C2887 1.414 . S
C2888 C2889 1.374 . S
C2889 H2869 0.950 . S
C2889 C2885 1.385 . S
C2889 C2888 1.374 . S
C2890 C2887 1.499 . S
C2890 C2891 1.373 . S
C2890 C2892 1.389 . S
C2891 H2870 0.950 . S
C2891 C2890 1.373 . S
C2891 C2907 1.377 . S
C2892 C2890 1.389 . S
C2892 C2893 1.524 . S
C2892 C2906 1.377 . S
C2893 C2892 1.524 . S
C2893 C2894 1.397 . S
C2893 C2898 1.363 . S
C2894 H2871 0.950 . S
C2894 C2893 1.397 . S
C2894 C2895 1.334 . S
C2895 H2872 0.950 . S
C2895 C2894 1.334 . S
C2895 C2896 1.287 . S
C2896 C2895 1.287 . S
C2896 C2897 1.524 . S
C2896 H2915 0.913 . S
C2897 H2873 0.950 . S
C2897 C2896 1.524 . S
C2897 C2898 1.415 . S
C2898 H2874 0.950 . S
C2898 C2893 1.363 . S
C2898 C2897 1.415 . S
C2899 H2875 0.951 . S
C2899 C2900 1.366 . S
C2899 C2901 1.388 . S
C2900 C2899 1.366 . S
C2900 C2904 1.385 . S
C2901 H2876 0.951 . S
C2901 C2899 1.388 . S
C2901 C2902 1.366 . S
C2902 C2901 1.366 . S
C2902 C2903 1.414 . S
C2902 C2905 1.499 . S
C2903 H2877 0.950 . S
C2903 C2902 1.414 . S
C2903 C2904 1.374 . S
C2904 H2878 0.950 . S
C2904 C2900 1.385 . S
C2904 C2903 1.374 . S
C2905 C2902 1.499 . S
C2905 C2906 1.373 . S
C2905 C2907 1.389 . S
C2906 H2879 0.950 . S
C2906 C2892 1.377 . S
C2906 C2905 1.373 . S
C2907 C2891 1.377 . S
C2907 C2905 1.389 . S
C2907 C2908 1.524 . S
C2908 C2907 1.524 . S
C2908 C2909 1.397 . S
C2908 C2913 1.363 . S
C2909 H2880 0.950 . S
C2909 C2908 1.397 . S
C2909 C2910 1.334 . S
C2910 H2881 0.950 . S
C2910 C2909 1.334 . S
C2910 C2911 1.287 . S
C2911 C2910 1.287 . S
C2911 C2912 1.524 . S
C2911 H2914 0.999 . S
C2912 H2882 0.950 . S
C2912 C2911 1.524 . S
C2912 C2913 1.415 . S
C2913 H2883 0.950 . S
C2913 C2908 1.363 . S
C2913 C2912 1.415 . S
H2914 C2911 0.999 . S
H2915 C2896 0.913 . S
H2916 C2934 0.951 . S
H2917 C2936 0.951 . S
H2918 C2938 0.950 . S
H2919 C2939 0.950 . S
H2920 C2941 0.950 . S
H2921 C2944 0.950 . S
H2922 C2945 0.950 . S
H2923 C2947 0.950 . S
H2924 C2948 0.950 . S
H2925 C2949 0.951 . S
H2926 C2951 0.951 . S
H2927 C2953 0.950 . S
H2928 C2954 0.950 . S
H2929 C2956 0.950 . S
H2930 C2959 0.950 . S
H2931 C2960 0.950 . S
H2932 C2962 0.950 . S
H2933 C2963 0.950 . S
C2934 H2916 0.951 . S
C2934 C2935 1.366 . S
C2934 C2936 1.388 . S
C2935 C2934 1.366 . S
C2935 C2939 1.385 . S
C2936 H2917 0.951 . S
C2936 C2934 1.388 . S
C2936 C2937 1.366 . S
C2937 C2936 1.366 . S
C2937 C2938 1.414 . S
C2937 C2940 1.499 . S
C2938 H2918 0.950 . S
C2938 C2937 1.414 . S
C2938 C2939 1.374 . S
C2939 H2919 0.950 . S
C2939 C2935 1.385 . S
C2939 C2938 1.374 . S
C2940 C2937 1.499 . S
C2940 C2941 1.373 . S
C2940 C2942 1.389 . S
C2941 H2920 0.950 . S
C2941 C2940 1.373 . S
C2941 C2957 1.377 . S
C2942 C2940 1.389 . S
C2942 C2943 1.524 . S
C2942 C2956 1.377 . S
C2943 C2942 1.524 . S
C2943 C2944 1.397 . S
C2943 C2948 1.363 . S
C2944 H2921 0.950 . S
C2944 C2943 1.397 . S
C2944 C2945 1.334 . S
C2945 H2922 0.950 . S
C2945 C2944 1.334 . S
C2945 C2946 1.287 . S
C2946 C2945 1.287 . S
C2946 C2947 1.524 . S
C2946 H2965 0.913 . S
C2947 H2923 0.950 . S
C2947 C2946 1.524 . S
C2947 C2948 1.415 . S
C2948 H2924 0.950 . S
C2948 C2943 1.363 . S
C2948 C2947 1.415 . S
C2949 H2925 0.951 . S
C2949 C2950 1.366 . S
C2949 C2951 1.388 . S
C2950 C2949 1.366 . S
C2950 C2954 1.385 . S
C2951 H2926 0.951 . S
C2951 C2949 1.388 . S
C2951 C2952 1.366 . S
C2952 C2951 1.366 . S
C2952 C2953 1.414 . S
C2952 C2955 1.499 . S
C2953 H2927 0.950 . S
C2953 C2952 1.414 . S
C2953 C2954 1.374 . S
C2954 H2928 0.950 . S
C2954 C2950 1.385 . S
C2954 C2953 1.374 . S
C2955 C2952 1.499 . S
C2955 C2956 1.373 . S
C2955 C2957 1.389 . S
C2956 H2929 0.950 . S
C2956 C2942 1.377 . S
C2956 C2955 1.373 . S
C2957 C2941 1.377 . S
C2957 C2955 1.389 . S
C2957 C2958 1.524 . S
C2958 C2957 1.524 . S
C2958 C2959 1.397 . S
C2958 C2963 1.363 . S
C2959 H2930 0.950 . S
C2959 C2958 1.397 . S
C2959 C2960 1.334 . S
C2960 H2931 0.950 . S
C2960 C2959 1.334 . S
C2960 C2961 1.287 . S
C2961 C2960 1.287 . S
C2961 C2962 1.524 . S
C2961 H2964 0.999 . S
C2962 H2932 0.950 . S
C2962 C2961 1.524 . S
C2962 C2963 1.415 . S
C2963 H2933 0.950 . S
C2963 C2958 1.363 . S
C2963 C2962 1.415 . S
H2964 C2961 0.999 . S
H2965 C2946 0.913 . S
H2966 C2984 0.951 . S
H2967 C2986 0.951 . S
H2968 C2988 0.950 . S
H2969 C2989 0.950 . S
H2970 C2991 0.950 . S
H2971 C2994 0.950 . S
H2972 C2995 0.950 . S
H2973 C2997 0.950 . S
H2974 C2998 0.950 . S
H2975 C2999 0.951 . S
H2976 C3001 0.951 . S
H2977 C3003 0.950 . S
H2978 C3004 0.950 . S
H2979 C3006 0.950 . S
H2980 C3009 0.950 . S
H2981 C3010 0.950 . S
H2982 C3012 0.950 . S
H2983 C3013 0.950 . S
C2984 H2966 0.951 . S
C2984 C2985 1.366 . S
C2984 C2986 1.388 . S
C2985 C2984 1.366 . S
C2985 C2989 1.385 . S
C2986 H2967 0.951 . S
C2986 C2984 1.388 . S
C2986 C2987 1.366 . S
C2987 C2986 1.366 . S
C2987 C2988 1.414 . S
C2987 C2990 1.499 . S
C2988 H2968 0.950 . S
C2988 C2987 1.414 . S
C2988 C2989 1.374 . S
C2989 H2969 0.950 . S
C2989 C2985 1.385 . S
C2989 C2988 1.374 . S
C2990 C2987 1.499 . S
C2990 C2991 1.373 . S
C2990 C2992 1.389 . S
C2991 H2970 0.950 . S
C2991 C2990 1.373 . S
C2991 C3007 1.377 . S
C2992 C2990 1.389 . S
C2992 C2993 1.524 . S
C2992 C3006 1.377 . S
C2993 C2992 1.524 . S
C2993 C2994 1.397 . S
C2993 C2998 1.363 . S
C2994 H2971 0.950 . S
C2994 C2993 1.397 . S
C2994 C2995 1.334 . S
C2995 H2972 0.950 . S
C2995 C2994 1.334 . S
C2995 C2996 1.287 . S
C2996 C2995 1.287 . S
C2996 C2997 1.524 . S
C2996 H3015 0.913 . S
C2997 H2973 0.950 . S
C2997 C2996 1.524 . S
C2997 C2998 1.415 . S
C2998 H2974 0.950 . S
C2998 C2993 1.363 . S
C2998 C2997 1.415 . S
C2999 H2975 0.951 . S
C2999 C3000 1.366 . S
C2999 C3001 1.388 . S
C3000 C2999 1.366 . S
C3000 C3004 1.385 . S
C3001 H2976 0.951 . S
C3001 C2999 1.388 . S
C3001 C3002 1.366 . S
C3002 C3001 1.366 . S
C3002 C3003 1.414 . S
C3002 C3005 1.499 . S
C3003 H2977 0.950 . S
C3003 C3002 1.414 . S
C3003 C3004 1.374 . S
C3004 H2978 0.950 . S
C3004 C3000 1.385 . S
C3004 C3003 1.374 . S
C3005 C3002 1.499 . S
C3005 C3006 1.373 . S
C3005 C3007 1.389 . S
C3006 H2979 0.950 . S
C3006 C2992 1.377 . S
C3006 C3005 1.373 . S
C3007 C2991 1.377 . S
C3007 C3005 1.389 . S
C3007 C3008 1.524 . S
C3008 C3007 1.524 . S
C3008 C3009 1.397 . S
C3008 C3013 1.363 . S
C3009 H2980 0.950 . S
C3009 C3008 1.397 . S
C3009 C3010 1.334 . S
C3010 H2981 0.950 . S
C3010 C3009 1.334 . S
C3010 C3011 1.287 . S
C3011 C3010 1.287 . S
C3011 C3012 1.524 . S
C3011 H3014 0.999 . S
C3012 H2982 0.950 . S
C3012 C3011 1.524 . S
C3012 C3013 1.415 . S
C3013 H2983 0.950 . S
C3013 C3008 1.363 . S
C3013 C3012 1.415 . S
H3014 C3011 0.999 . S
H3015 C2996 0.913 . S
H3016 C3034 0.951 . S
H3017 C3036 0.951 . S
H3018 C3038 0.950 . S
H3019 C3039 0.950 . S
H3020 C3041 0.950 . S
H3021 C3044 0.950 . S
H3022 C3045 0.950 . S
H3023 C3047 0.950 . S
H3024 C3048 0.950 . S
H3025 C3049 0.951 . S
H3026 C3051 0.951 . S
H3027 C3053 0.950 . S
H3028 C3054 0.950 . S
H3029 C3056 0.950 . S
H3030 C3059 0.950 . S
H3031 C3060 0.950 . S
H3032 C3062 0.950 . S
H3033 C3063 0.950 . S
C3034 H3016 0.951 . S
C3034 C3035 1.366 . S
C3034 C3036 1.388 . S
C3035 C3034 1.366 . S
C3035 C3039 1.385 . S
C3036 H3017 0.951 . S
C3036 C3034 1.388 . S
C3036 C3037 1.366 . S
C3037 C3036 1.366 . S
C3037 C3038 1.414 . S
C3037 C3040 1.499 . S
C3038 H3018 0.950 . S
C3038 C3037 1.414 . S
C3038 C3039 1.374 . S
C3039 H3019 0.950 . S
C3039 C3035 1.385 . S
C3039 C3038 1.374 . S
C3040 C3037 1.499 . S
C3040 C3041 1.373 . S
C3040 C3042 1.389 . S
C3041 H3020 0.950 . S
C3041 C3040 1.373 . S
C3041 C3057 1.377 . S
C3042 C3040 1.389 . S
C3042 C3043 1.524 . S
C3042 C3056 1.377 . S
C3043 C3042 1.524 . S
C3043 C3044 1.397 . S
C3043 C3048 1.363 . S
C3044 H3021 0.950 . S
C3044 C3043 1.397 . S
C3044 C3045 1.334 . S
C3045 H3022 0.950 . S
C3045 C3044 1.334 . S
C3045 C3046 1.287 . S
C3046 C3045 1.287 . S
C3046 C3047 1.524 . S
C3046 H3065 0.913 . S
C3047 H3023 0.950 . S
C3047 C3046 1.524 . S
C3047 C3048 1.415 . S
C3048 H3024 0.950 . S
C3048 C3043 1.363 . S
C3048 C3047 1.415 . S
C3049 H3025 0.951 . S
C3049 C3050 1.366 . S
C3049 C3051 1.388 . S
C3050 C3049 1.366 . S
C3050 C3054 1.385 . S
C3051 H3026 0.951 . S
C3051 C3049 1.388 . S
C3051 C3052 1.366 . S
C3052 C3051 1.366 . S
C3052 C3053 1.414 . S
C3052 C3055 1.499 . S
C3053 H3027 0.950 . S
C3053 C3052 1.414 . S
C3053 C3054 1.374 . S
C3054 H3028 0.950 . S
C3054 C3050 1.385 . S
C3054 C3053 1.374 . S
C3055 C3052 1.499 . S
C3055 C3056 1.373 . S
C3055 C3057 1.389 . S
C3056 H3029 0.950 . S
C3056 C3042 1.377 . S
C3056 C3055 1.373 . S
C3057 C3041 1.377 . S
C3057 C3055 1.389 . S
C3057 C3058 1.524 . S
C3058 C3057 1.524 . S
C3058 C3059 1.397 . S
C3058 C3063 1.363 . S
C3059 H3030 0.950 . S
C3059 C3058 1.397 . S
C3059 C3060 1.334 . S
C3060 H3031 0.950 . S
C3060 C3059 1.334 . S
C3060 C3061 1.287 . S
C3061 C3060 1.287 . S
C3061 C3062 1.524 . S
C3061 H3064 0.999 . S
C3062 H3032 0.950 . S
C3062 C3061 1.524 . S
C3062 C3063 1.415 . S
C3063 H3033 0.950 . S
C3063 C3058 1.363 . S
C3063 C3062 1.415 . S
H3064 C3061 0.999 . S
H3065 C3046 0.913 . S
H3066 C3084 0.951 . S
H3067 C3086 0.951 . S
H3068 C3088 0.950 . S
H3069 C3089 0.950 . S
H3070 C3091 0.950 . S
H3071 C3094 0.950 . S
H3072 C3095 0.954 . S
H3073 C3097 0.950 . S
H3074 C3098 0.950 . S
H3075 C3099 0.951 . S
H3076 C3101 0.951 . S
H3077 C3103 0.950 . S
H3078 C3104 0.950 . S
H3079 C3106 0.950 . S
H3080 C3109 0.950 . S
H3081 C3110 0.950 . S
H3082 C3112 0.950 . S
H3083 C3113 0.950 . S
C3084 H3066 0.951 . S
C3084 C3085 1.366 . S
C3084 C3086 1.388 . S
C3085 C3084 1.366 . S
C3085 C3089 1.385 . S
C3086 H3067 0.951 . S
C3086 C3084 1.388 . S
C3086 C3087 1.366 . S
C3087 C3086 1.366 . S
C3087 C3088 1.414 . S
C3087 C3090 1.499 . S
C3088 H3068 0.950 . S
C3088 C3087 1.414 . S
C3088 C3089 1.374 . S
C3089 H3069 0.950 . S
C3089 C3085 1.385 . S
C3089 C3088 1.374 . S
C3090 C3087 1.499 . S
C3090 C3091 1.373 . S
C3090 C3092 1.389 . S
C3091 H3070 0.950 . S
C3091 C3090 1.373 . S
C3091 C3107 1.377 . S
C3092 C3090 1.389 . S
C3092 C3093 1.524 . S
C3092 C3106 1.377 . S
C3093 C3092 1.524 . S
C3093 C3094 1.397 . S
C3093 C3098 1.363 . S
C3094 H3071 0.950 . S
C3094 C3093 1.397 . S
C3094 C3095 1.334 . S
C3095 H3072 0.954 . S
C3095 C3094 1.334 . S
C3095 C3096 1.287 1_455 S
C3096 C3095 1.287 1_655 S
C3096 C3097 1.524 . S
C3096 H3115 0.913 . S
C3097 H3073 0.950 . S
C3097 C3096 1.524 . S
C3097 C3098 1.415 1_655 S
C3098 H3074 0.950 . S
C3098 C3093 1.363 . S
C3098 C3097 1.415 1_455 S
C3099 H3075 0.951 . S
C3099 C3100 1.366 . S
C3099 C3101 1.388 . S
C3100 C3099 1.366 . S
C3100 C3104 1.385 . S
C3101 H3076 0.951 . S
C3101 C3099 1.388 . S
C3101 C3102 1.366 . S
C3102 C3101 1.366 . S
C3102 C3103 1.414 . S
C3102 C3105 1.499 . S
C3103 H3077 0.950 . S
C3103 C3102 1.414 . S
C3103 C3104 1.374 . S
C3104 H3078 0.950 . S
C3104 C3100 1.385 . S
C3104 C3103 1.374 . S
C3105 C3102 1.499 . S
C3105 C3106 1.373 . S
C3105 C3107 1.389 . S
C3106 H3079 0.950 . S
C3106 C3092 1.377 . S
C3106 C3105 1.373 . S
C3107 C3091 1.377 . S
C3107 C3105 1.389 . S
C3107 C3108 1.524 . S
C3108 C3107 1.524 . S
C3108 C3109 1.397 . S
C3108 C3113 1.363 . S
C3109 H3080 0.950 . S
C3109 C3108 1.397 . S
C3109 C3110 1.334 . S
C3110 H3081 0.950 . S
C3110 C3109 1.334 . S
C3110 C3111 1.287 . S
C3111 C3110 1.287 . S
C3111 C3112 1.524 . S
C3111 H3114 0.999 . S
C3112 H3082 0.950 . S
C3112 C3111 1.524 . S
C3112 C3113 1.415 . S
C3113 H3083 0.950 . S
C3113 C3108 1.363 . S
C3113 C3112 1.415 . S
H3114 C3111 0.999 . S
H3115 C3096 0.913 . S
H3116 C3134 0.951 . S
H3117 C3136 0.951 . S
H3118 C3138 0.950 . S
H3119 C3139 0.950 . S
H3120 C3141 0.950 . S
H3121 C3144 0.950 . S
H3122 C3145 0.950 . S
H3123 C3147 0.950 . S
H3124 C3148 0.950 . S
H3125 C3149 0.951 . S
H3126 C3151 0.951 . S
H3127 C3153 0.950 . S
H3128 C3154 0.950 . S
H3129 C3156 0.950 . S
H3130 C3159 0.950 . S
H3131 C3160 0.950 . S
H3132 C3162 0.950 . S
H3133 C3163 0.950 . S
C3134 H3116 0.951 . S
C3134 C3135 1.366 . S
C3134 C3136 1.388 . S
C3135 C3134 1.366 . S
C3135 C3139 1.385 . S
C3136 H3117 0.951 . S
C3136 C3134 1.388 . S
C3136 C3137 1.366 . S
C3137 C3136 1.366 . S
C3137 C3138 1.414 . S
C3137 C3140 1.499 . S
C3138 H3118 0.950 . S
C3138 C3137 1.414 . S
C3138 C3139 1.374 . S
C3139 H3119 0.950 . S
C3139 C3135 1.385 . S
C3139 C3138 1.374 . S
C3140 C3137 1.499 . S
C3140 C3141 1.373 . S
C3140 C3142 1.389 . S
C3141 H3120 0.950 . S
C3141 C3140 1.373 . S
C3141 C3157 1.377 . S
C3142 C3140 1.389 . S
C3142 C3143 1.524 . S
C3142 C3156 1.377 . S
C3143 C3142 1.524 . S
C3143 C3144 1.397 . S
C3143 C3148 1.363 . S
C3144 H3121 0.950 . S
C3144 C3143 1.397 . S
C3144 C3145 1.334 . S
C3145 H3122 0.950 . S
C3145 C3144 1.334 . S
C3145 C3146 1.287 . S
C3146 C3145 1.287 . S
C3146 C3147 1.524 . S
C3146 H3165 0.913 . S
C3147 H3123 0.950 . S
C3147 C3146 1.524 . S
C3147 C3148 1.415 . S
C3148 H3124 0.950 . S
C3148 C3143 1.363 . S
C3148 C3147 1.415 . S
C3149 H3125 0.951 . S
C3149 C3150 1.366 . S
C3149 C3151 1.388 . S
C3150 C3149 1.366 . S
C3150 C3154 1.385 . S
C3151 H3126 0.951 . S
C3151 C3149 1.388 . S
C3151 C3152 1.366 . S
C3152 C3151 1.366 . S
C3152 C3153 1.414 . S
C3152 C3155 1.499 . S
C3153 H3127 0.950 . S
C3153 C3152 1.414 . S
C3153 C3154 1.374 . S
C3154 H3128 0.950 . S
C3154 C3150 1.385 . S
C3154 C3153 1.374 . S
C3155 C3152 1.499 . S
C3155 C3156 1.373 . S
C3155 C3157 1.389 . S
C3156 H3129 0.950 . S
C3156 C3142 1.377 . S
C3156 C3155 1.373 . S
C3157 C3141 1.377 . S
C3157 C3155 1.389 . S
C3157 C3158 1.524 . S
C3158 C3157 1.524 . S
C3158 C3159 1.397 . S
C3158 C3163 1.363 . S
C3159 H3130 0.950 . S
C3159 C3158 1.397 . S
C3159 C3160 1.334 . S
C3160 H3131 0.950 . S
C3160 C3159 1.334 . S
C3160 C3161 1.287 1_655 S
C3161 C3160 1.287 1_455 S
C3161 C3162 1.524 . S
C3161 H3164 0.999 . S
C3162 H3132 0.950 . S
C3162 C3161 1.524 . S
C3162 C3163 1.415 1_455 S
C3163 H3133 0.950 . S
C3163 C3158 1.363 . S
C3163 C3162 1.415 1_655 S
H3164 C3161 0.999 . S
H3165 C3146 0.913 . S
H3166 C3184 0.951 . S
H3167 C3186 0.951 . S
H3168 C3188 0.950 . S
H3169 C3189 0.950 . S
H3170 C3191 0.950 . S
H3171 C3194 0.950 . S
H3172 C3195 0.950 . S
H3173 C3197 0.950 1_455 S
H3174 C3198 0.950 . S
H3175 C3199 0.951 . S
H3176 C3201 0.951 . S
H3177 C3203 0.950 . S
H3178 C3204 0.950 . S
H3179 C3206 0.950 . S
H3180 C3209 0.950 . S
H3181 C3210 0.950 . S
H3182 C3212 0.950 . S
H3183 C3213 0.950 . S
C3184 H3166 0.951 . S
C3184 C3185 1.366 . S
C3184 C3186 1.388 . S
C3185 C3184 1.366 . S
C3185 C3189 1.385 . S
C3186 H3167 0.951 . S
C3186 C3184 1.388 . S
C3186 C3187 1.366 . S
C3187 C3186 1.366 . S
C3187 C3188 1.414 . S
C3187 C3190 1.499 . S
C3188 H3168 0.950 . S
C3188 C3187 1.414 . S
C3188 C3189 1.374 . S
C3189 H3169 0.950 . S
C3189 C3185 1.385 . S
C3189 C3188 1.374 . S
C3190 C3187 1.499 . S
C3190 C3191 1.373 . S
C3190 C3192 1.389 . S
C3191 H3170 0.950 . S
C3191 C3190 1.373 . S
C3191 C3207 1.377 . S
C3192 C3190 1.389 . S
C3192 C3193 1.524 . S
C3192 C3206 1.377 . S
C3193 C3192 1.524 . S
C3193 C3194 1.397 . S
C3193 C3198 1.363 . S
C3194 H3171 0.950 . S
C3194 C3193 1.397 . S
C3194 C3195 1.334 . S
C3195 H3172 0.950 . S
C3195 C3194 1.334 . S
C3195 C3196 1.287 . S
C3196 C3195 1.287 . S
C3196 C3197 1.524 . S
C3196 H3215 0.913 . S
C3197 H3173 0.950 1_655 S
C3197 C3196 1.524 . S
C3197 C3198 1.415 . S
C3198 H3174 0.950 . S
C3198 C3193 1.363 . S
C3198 C3197 1.415 . S
C3199 H3175 0.951 . S
C3199 C3200 1.366 . S
C3199 C3201 1.388 . S
C3200 C3199 1.366 . S
C3200 C3204 1.385 . S
C3201 H3176 0.951 . S
C3201 C3199 1.388 . S
C3201 C3202 1.366 . S
C3202 C3201 1.366 . S
C3202 C3203 1.414 . S
C3202 C3205 1.499 . S
C3203 H3177 0.950 . S
C3203 C3202 1.414 . S
C3203 C3204 1.374 . S
C3204 H3178 0.950 . S
C3204 C3200 1.385 . S
C3204 C3203 1.374 . S
C3205 C3202 1.499 . S
C3205 C3206 1.373 . S
C3205 C3207 1.389 . S
C3206 H3179 0.950 . S
C3206 C3192 1.377 . S
C3206 C3205 1.373 . S
C3207 C3191 1.377 . S
C3207 C3205 1.389 . S
C3207 C3208 1.524 . S
C3208 C3207 1.524 . S
C3208 C3209 1.397 . S
C3208 C3213 1.363 . S
C3209 H3180 0.950 . S
C3209 C3208 1.397 . S
C3209 C3210 1.334 . S
C3210 H3181 0.950 . S
C3210 C3209 1.334 . S
C3210 C3211 1.287 . S
C3211 C3210 1.287 . S
C3211 C3212 1.524 . S
C3211 H3214 0.999 . S
C3212 H3182 0.950 . S
C3212 C3211 1.524 . S
C3212 C3213 1.415 . S
C3213 H3183 0.950 . S
C3213 C3208 1.363 . S
C3213 C3212 1.415 . S
H3214 C3211 0.999 . S
H3215 C3196 0.913 . S
H3216 C3234 0.951 . S
H3217 C3236 0.951 . S
H3218 C3238 0.950 . S
H3219 C3239 0.950 . S
H3220 C3241 0.950 . S
H3221 C3244 0.950 . S
H3222 C3245 0.950 . S
H3223 C3247 0.950 . S
H3224 C3248 0.950 . S
H3225 C3249 0.951 . S
H3226 C3251 0.951 . S
H3227 C3253 0.950 . S
H3228 C3254 0.950 . S
H3229 C3256 0.950 . S
H3230 C3259 0.950 . S
H3231 C3260 0.950 . S
H3232 C3262 0.950 . S
H3233 C3263 0.950 . S
C3234 H3216 0.951 . S
C3234 C3235 1.366 . S
C3234 C3236 1.388 . S
C3235 C3234 1.366 . S
C3235 C3239 1.385 . S
C3236 H3217 0.951 . S
C3236 C3234 1.388 . S
C3236 C3237 1.366 . S
C3237 C3236 1.366 . S
C3237 C3238 1.414 . S
C3237 C3240 1.499 . S
C3238 H3218 0.950 . S
C3238 C3237 1.414 . S
C3238 C3239 1.374 . S
C3239 H3219 0.950 . S
C3239 C3235 1.385 . S
C3239 C3238 1.374 . S
C3240 C3237 1.499 . S
C3240 C3241 1.373 . S
C3240 C3242 1.389 . S
C3241 H3220 0.950 . S
C3241 C3240 1.373 . S
C3241 C3257 1.377 . S
C3242 C3240 1.389 . S
C3242 C3243 1.524 . S
C3242 C3256 1.377 . S
C3243 C3242 1.524 . S
C3243 C3244 1.397 . S
C3243 C3248 1.363 . S
C3244 H3221 0.950 . S
C3244 C3243 1.397 . S
C3244 C3245 1.334 . S
C3245 H3222 0.950 . S
C3245 C3244 1.334 . S
C3245 C3246 1.287 . S
C3246 C3245 1.287 . S
C3246 C3247 1.524 . S
C3246 H3265 0.913 . S
C3247 H3223 0.950 . S
C3247 C3246 1.524 . S
C3247 C3248 1.415 . S
C3248 H3224 0.950 . S
C3248 C3243 1.363 . S
C3248 C3247 1.415 . S
C3249 H3225 0.951 . S
C3249 C3250 1.366 . S
C3249 C3251 1.388 . S
C3250 C3249 1.366 . S
C3250 C3254 1.385 . S
C3251 H3226 0.951 . S
C3251 C3249 1.388 . S
C3251 C3252 1.366 . S
C3252 C3251 1.366 . S
C3252 C3253 1.414 . S
C3252 C3255 1.499 . S
C3253 H3227 0.950 . S
C3253 C3252 1.414 . S
C3253 C3254 1.374 . S
C3254 H3228 0.950 . S
C3254 C3250 1.385 . S
C3254 C3253 1.374 . S
C3255 C3252 1.499 . S
C3255 C3256 1.373 . S
C3255 C3257 1.389 . S
C3256 H3229 0.950 . S
C3256 C3242 1.377 . S
C3256 C3255 1.373 . S
C3257 C3241 1.377 . S
C3257 C3255 1.389 . S
C3257 C3258 1.524 . S
C3258 C3257 1.524 . S
C3258 C3259 1.397 . S
C3258 C3263 1.363 . S
C3259 H3230 0.950 . S
C3259 C3258 1.397 . S
C3259 C3260 1.334 . S
C3260 H3231 0.950 . S
C3260 C3259 1.334 . S
C3260 C3261 1.287 . S
C3261 C3260 1.287 . S
C3261 C3262 1.524 . S
C3261 H3264 0.999 . S
C3262 H3232 0.950 . S
C3262 C3261 1.524 . S
C3262 C3263 1.415 . S
C3263 H3233 0.950 . S
C3263 C3258 1.363 . S
C3263 C3262 1.415 . S
H3264 C3261 0.999 . S
H3265 C3246 0.913 . S
H3266 C3284 0.951 . S
H3267 C3286 0.951 . S
H3268 C3288 0.950 . S
H3269 C3289 0.950 . S
H3270 C3291 0.950 . S
H3271 C3294 0.950 . S
H3272 C3295 0.950 . S
H3273 C3297 0.950 . S
H3274 C3298 0.950 . S
H3275 C3299 0.951 . S
H3276 C3301 0.951 . S
H3277 C3303 0.950 . S
H3278 C3304 0.950 . S
H3279 C3306 0.950 . S
H3280 C3309 0.950 . S
H3281 C3310 0.950 . S
H3282 C3312 0.950 . S
H3283 C3313 0.950 . S
C3284 H3266 0.951 . S
C3284 C3285 1.366 . S
C3284 C3286 1.388 . S
C3285 C3284 1.366 . S
C3285 C3289 1.385 . S
C3286 H3267 0.951 . S
C3286 C3284 1.388 . S
C3286 C3287 1.366 . S
C3287 C3286 1.366 . S
C3287 C3288 1.414 . S
C3287 C3290 1.499 . S
C3288 H3268 0.950 . S
C3288 C3287 1.414 . S
C3288 C3289 1.374 . S
C3289 H3269 0.950 . S
C3289 C3285 1.385 . S
C3289 C3288 1.374 . S
C3290 C3287 1.499 . S
C3290 C3291 1.373 . S
C3290 C3292 1.389 . S
C3291 H3270 0.950 . S
C3291 C3290 1.373 . S
C3291 C3307 1.377 . S
C3292 C3290 1.389 . S
C3292 C3293 1.524 . S
C3292 C3306 1.377 . S
C3293 C3292 1.524 . S
C3293 C3294 1.397 . S
C3293 C3298 1.363 . S
C3294 H3271 0.950 . S
C3294 C3293 1.397 . S
C3294 C3295 1.334 . S
C3295 H3272 0.950 . S
C3295 C3294 1.334 . S
C3295 C3296 1.287 . S
C3296 C3295 1.287 . S
C3296 C3297 1.524 . S
C3296 H3315 0.913 . S
C3297 H3273 0.950 . S
C3297 C3296 1.524 . S
C3297 C3298 1.415 . S
C3298 H3274 0.950 . S
C3298 C3293 1.363 . S
C3298 C3297 1.415 . S
C3299 H3275 0.951 . S
C3299 C3300 1.366 . S
C3299 C3301 1.388 . S
C3300 C3299 1.366 . S
C3300 C3304 1.385 . S
C3301 H3276 0.951 . S
C3301 C3299 1.388 . S
C3301 C3302 1.366 . S
C3302 C3301 1.366 . S
C3302 C3303 1.414 . S
C3302 C3305 1.499 . S
C3303 H3277 0.950 . S
C3303 C3302 1.414 . S
C3303 C3304 1.374 . S
C3304 H3278 0.950 . S
C3304 C3300 1.385 . S
C3304 C3303 1.374 . S
C3305 C3302 1.499 . S
C3305 C3306 1.373 . S
C3305 C3307 1.389 . S
C3306 H3279 0.950 . S
C3306 C3292 1.377 . S
C3306 C3305 1.373 . S
C3307 C3291 1.377 . S
C3307 C3305 1.389 . S
C3307 C3308 1.524 . S
C3308 C3307 1.524 . S
C3308 C3309 1.397 . S
C3308 C3313 1.363 . S
C3309 H3280 0.950 . S
C3309 C3308 1.397 . S
C3309 C3310 1.334 . S
C3310 H3281 0.950 . S
C3310 C3309 1.334 . S
C3310 C3311 1.287 . S
C3311 C3310 1.287 . S
C3311 C3312 1.524 . S
C3311 H3314 0.999 . S
C3312 H3282 0.950 . S
C3312 C3311 1.524 . S
C3312 C3313 1.415 . S
C3313 H3283 0.950 . S
C3313 C3308 1.363 . S
C3313 C3312 1.415 . S
H3314 C3311 0.999 . S
H3315 C3296 0.913 . S
H3316 C3334 0.951 . S
H3317 C3336 0.951 . S
H3318 C3338 0.950 . S
H3319 C3339 0.950 . S
H3320 C3341 0.950 . S
H3321 C3344 0.950 . S
H3322 C3345 0.950 . S
H3323 C3347 0.950 . S
H3324 C3348 0.950 . S
H3325 C3349 0.951 . S
H3326 C3351 0.951 . S
H3327 C3353 0.950 . S
H3328 C3354 0.950 . S
H3329 C3356 0.950 . S
H3330 C3359 0.950 . S
H3331 C3360 0.950 . S
H3332 C3362 0.950 . S
H3333 C3363 0.950 . S
C3334 H3316 0.951 . S
C3334 C3335 1.366 . S
C3334 C3336 1.388 . S
C3335 C3334 1.366 . S
C3335 C3339 1.385 . S
C3336 H3317 0.951 . S
C3336 C3334 1.388 . S
C3336 C3337 1.366 . S
C3337 C3336 1.366 . S
C3337 C3338 1.414 . S
C3337 C3340 1.499 . S
C3338 H3318 0.950 . S
C3338 C3337 1.414 . S
C3338 C3339 1.374 . S
C3339 H3319 0.950 . S
C3339 C3335 1.385 . S
C3339 C3338 1.374 . S
C3340 C3337 1.499 . S
C3340 C3341 1.373 . S
C3340 C3342 1.389 . S
C3341 H3320 0.950 . S
C3341 C3340 1.373 . S
C3341 C3357 1.377 . S
C3342 C3340 1.389 . S
C3342 C3343 1.524 . S
C3342 C3356 1.377 . S
C3343 C3342 1.524 . S
C3343 C3344 1.397 . S
C3343 C3348 1.363 . S
C3344 H3321 0.950 . S
C3344 C3343 1.397 . S
C3344 C3345 1.334 . S
C3345 H3322 0.950 . S
C3345 C3344 1.334 . S
C3345 C3346 1.287 . S
C3346 C3345 1.287 . S
C3346 C3347 1.524 . S
C3346 H3365 0.913 . S
C3347 H3323 0.950 . S
C3347 C3346 1.524 . S
C3347 C3348 1.415 . S
C3348 H3324 0.950 . S
C3348 C3343 1.363 . S
C3348 C3347 1.415 . S
C3349 H3325 0.951 . S
C3349 C3350 1.366 . S
C3349 C3351 1.388 . S
C3350 C3349 1.366 . S
C3350 C3354 1.385 . S
C3351 H3326 0.951 . S
C3351 C3349 1.388 . S
C3351 C3352 1.366 . S
C3352 C3351 1.366 . S
C3352 C3353 1.414 . S
C3352 C3355 1.499 . S
C3353 H3327 0.950 . S
C3353 C3352 1.414 . S
C3353 C3354 1.374 . S
C3354 H3328 0.950 . S
C3354 C3350 1.385 . S
C3354 C3353 1.374 . S
C3355 C3352 1.499 . S
C3355 C3356 1.373 . S
C3355 C3357 1.389 . S
C3356 H3329 0.950 . S
C3356 C3342 1.377 . S
C3356 C3355 1.373 . S
C3357 C3341 1.377 . S
C3357 C3355 1.389 . S
C3357 C3358 1.524 . S
C3358 C3357 1.524 . S
C3358 C3359 1.397 . S
C3358 C3363 1.363 . S
C3359 H3330 0.950 . S
C3359 C3358 1.397 . S
C3359 C3360 1.334 . S
C3360 H3331 0.950 . S
C3360 C3359 1.334 . S
C3360 C3361 1.287 . S
C3361 C3360 1.287 . S
C3361 C3362 1.524 . S
C3361 H3364 0.999 . S
C3362 H3332 0.950 . S
C3362 C3361 1.524 . S
C3362 C3363 1.415 . S
C3363 H3333 0.950 . S
C3363 C3358 1.363 . S
C3363 C3362 1.415 . S
H3364 C3361 0.999 . S
H3365 C3346 0.913 . S
H3366 C3384 0.951 . S
H3367 C3386 0.951 . S
H3368 C3388 0.950 . S
H3369 C3389 0.950 . S
H3370 C3391 0.950 . S
H3371 C3394 0.950 . S
H3372 C3395 0.950 . S
H3373 C3397 0.950 . S
H3374 C3398 0.950 . S
H3375 C3399 0.951 . S
H3376 C3401 0.951 . S
H3377 C3403 0.950 . S
H3378 C3404 0.950 . S
H3379 C3406 0.950 . S
H3380 C3409 0.950 . S
H3381 C3410 0.950 . S
H3382 C3412 0.950 . S
H3383 C3413 0.950 . S
C3384 H3366 0.951 . S
C3384 C3385 1.366 . S
C3384 C3386 1.388 . S
C3385 C3384 1.366 . S
C3385 C3389 1.385 . S
C3386 H3367 0.951 . S
C3386 C3384 1.388 . S
C3386 C3387 1.366 . S
C3387 C3386 1.366 . S
C3387 C3388 1.414 . S
C3387 C3390 1.499 . S
C3388 H3368 0.950 . S
C3388 C3387 1.414 . S
C3388 C3389 1.374 . S
C3389 H3369 0.950 . S
C3389 C3385 1.385 . S
C3389 C3388 1.374 . S
C3390 C3387 1.499 . S
C3390 C3391 1.373 . S
C3390 C3392 1.389 . S
C3391 H3370 0.950 . S
C3391 C3390 1.373 . S
C3391 C3407 1.377 . S
C3392 C3390 1.389 . S
C3392 C3393 1.524 . S
C3392 C3406 1.377 . S
C3393 C3392 1.524 . S
C3393 C3394 1.397 . S
C3393 C3398 1.363 . S
C3394 H3371 0.950 . S
C3394 C3393 1.397 . S
C3394 C3395 1.334 . S
C3395 H3372 0.950 . S
C3395 C3394 1.334 . S
C3395 C3396 1.287 . S
C3396 C3395 1.287 . S
C3396 C3397 1.524 . S
C3396 H3415 0.913 . S
C3397 H3373 0.950 . S
C3397 C3396 1.524 . S
C3397 C3398 1.415 . S
C3398 H3374 0.950 . S
C3398 C3393 1.363 . S
C3398 C3397 1.415 . S
C3399 H3375 0.951 . S
C3399 C3400 1.366 . S
C3399 C3401 1.388 . S
C3400 C3399 1.366 . S
C3400 C3404 1.385 . S
C3401 H3376 0.951 . S
C3401 C3399 1.388 . S
C3401 C3402 1.366 . S
C3402 C3401 1.366 . S
C3402 C3403 1.414 . S
C3402 C3405 1.499 . S
C3403 H3377 0.950 . S
C3403 C3402 1.414 . S
C3403 C3404 1.374 . S
C3404 H3378 0.950 . S
C3404 C3400 1.385 . S
C3404 C3403 1.374 . S
C3405 C3402 1.499 . S
C3405 C3406 1.373 . S
C3405 C3407 1.389 . S
C3406 H3379 0.950 . S
C3406 C3392 1.377 . S
C3406 C3405 1.373 . S
C3407 C3391 1.377 . S
C3407 C3405 1.389 . S
C3407 C3408 1.524 . S
C3408 C3407 1.524 . S
C3408 C3409 1.397 . S
C3408 C3413 1.363 . S
C3409 H3380 0.950 . S
C3409 C3408 1.397 . S
C3409 C3410 1.334 . S
C3410 H3381 0.950 . S
C3410 C3409 1.334 . S
C3410 C3411 1.287 . S
C3411 C3410 1.287 . S
C3411 C3412 1.524 . S
C3411 H3414 0.999 . S
C3412 H3382 0.950 . S
C3412 C3411 1.524 . S
C3412 C3413 1.415 . S
C3413 H3383 0.950 . S
C3413 C3408 1.363 . S
C3413 C3412 1.415 . S
H3414 C3411 0.999 . S
H3415 C3396 0.913 . S
H3416 C3434 0.951 . S
H3417 C3436 0.951 . S
H3418 C3438 0.950 . S
H3419 C3439 0.950 . S
H3420 C3441 0.950 . S
H3421 C3444 0.950 . S
H3422 C3445 0.950 . S
H3423 C3447 0.950 . S
H3424 C3448 0.950 . S
H3425 C3449 0.951 . S
H3426 C3451 0.951 . S
H3427 C3453 0.950 . S
H3428 C3454 0.950 . S
H3429 C3456 0.950 . S
H3430 C3459 0.950 . S
H3431 C3460 0.950 . S
H3432 C3462 0.950 . S
H3433 C3463 0.950 . S
C3434 H3416 0.951 . S
C3434 C3435 1.366 . S
C3434 C3436 1.388 . S
C3435 C3434 1.366 . S
C3435 C3439 1.385 . S
C3436 H3417 0.951 . S
C3436 C3434 1.388 . S
C3436 C3437 1.366 . S
C3437 C3436 1.366 . S
C3437 C3438 1.414 . S
C3437 C3440 1.499 . S
C3438 H3418 0.950 . S
C3438 C3437 1.414 . S
C3438 C3439 1.374 . S
C3439 H3419 0.950 . S
C3439 C3435 1.385 . S
C3439 C3438 1.374 . S
C3440 C3437 1.499 . S
C3440 C3441 1.373 . S
C3440 C3442 1.389 . S
C3441 H3420 0.950 . S
C3441 C3440 1.373 . S
C3441 C3457 1.377 . S
C3442 C3440 1.389 . S
C3442 C3443 1.524 . S
C3442 C3456 1.377 . S
C3443 C3442 1.524 . S
C3443 C3444 1.397 . S
C3443 C3448 1.363 . S
C3444 H3421 0.950 . S
C3444 C3443 1.397 . S
C3444 C3445 1.334 . S
C3445 H3422 0.950 . S
C3445 C3444 1.334 . S
C3445 C3446 1.287 . S
C3446 C3445 1.287 . S
C3446 C3447 1.524 . S
C3446 H3465 0.913 . S
C3447 H3423 0.950 . S
C3447 C3446 1.524 . S
C3447 C3448 1.415 . S
C3448 H3424 0.950 . S
C3448 C3443 1.363 . S
C3448 C3447 1.415 . S
C3449 H3425 0.951 . S
C3449 C3450 1.366 . S
C3449 C3451 1.388 . S
C3450 C3449 1.366 . S
C3450 C3454 1.385 . S
C3451 H3426 0.951 . S
C3451 C3449 1.388 . S
C3451 C3452 1.366 . S
C3452 C3451 1.366 . S
C3452 C3453 1.414 . S
C3452 C3455 1.499 . S
C3453 H3427 0.950 . S
C3453 C3452 1.414 . S
C3453 C3454 1.374 . S
C3454 H3428 0.950 . S
C3454 C3450 1.385 . S
C3454 C3453 1.374 . S
C3455 C3452 1.499 . S
C3455 C3456 1.373 . S
C3455 C3457 1.389 . S
C3456 H3429 0.950 . S
C3456 C3442 1.377 . S
C3456 C3455 1.373 . S
C3457 C3441 1.377 . S
C3457 C3455 1.389 . S
C3457 C3458 1.524 . S
C3458 C3457 1.524 . S
C3458 C3459 1.397 . S
C3458 C3463 1.363 . S
C3459 H3430 0.950 . S
C3459 C3458 1.397 . S
C3459 C3460 1.334 . S
C3460 H3431 0.950 . S
C3460 C3459 1.334 . S
C3460 C3461 1.287 . S
C3461 C3460 1.287 . S
C3461 C3462 1.524 . S
C3461 H3464 0.999 . S
C3462 H3432 0.950 . S
C3462 C3461 1.524 . S
C3462 C3463 1.415 . S
C3463 H3433 0.950 . S
C3463 C3458 1.363 . S
C3463 C3462 1.415 . S
H3464 C3461 0.999 . S
H3465 C3446 0.913 . S
H3466 C3484 0.951 . S
H3467 C3486 0.951 . S
H3468 C3488 0.950 . S
H3469 C3489 0.950 . S
H3470 C3491 0.950 . S
H3471 C3494 0.950 . S
H3472 C3495 0.950 . S
H3473 C3497 0.950 . S
H3474 C3498 0.950 . S
H3475 C3499 0.951 . S
H3476 C3501 0.951 . S
H3477 C3503 0.950 . S
H3478 C3504 0.950 . S
H3479 C3506 0.950 . S
H3480 C3509 0.950 . S
H3481 C3510 0.950 . S
H3482 C3512 0.950 . S
H3483 C3513 0.950 . S
C3484 H3466 0.951 . S
C3484 C3485 1.366 . S
C3484 C3486 1.388 . S
C3485 C3484 1.366 . S
C3485 C3489 1.385 . S
C3486 H3467 0.951 . S
C3486 C3484 1.388 . S
C3486 C3487 1.366 . S
C3487 C3486 1.366 . S
C3487 C3488 1.414 . S
C3487 C3490 1.499 . S
C3488 H3468 0.950 . S
C3488 C3487 1.414 . S
C3488 C3489 1.374 . S
C3489 H3469 0.950 . S
C3489 C3485 1.385 . S
C3489 C3488 1.374 . S
C3490 C3487 1.499 . S
C3490 C3491 1.373 . S
C3490 C3492 1.389 . S
C3491 H3470 0.950 . S
C3491 C3490 1.373 . S
C3491 C3507 1.377 . S
C3492 C3490 1.389 . S
C3492 C3493 1.524 . S
C3492 C3506 1.377 . S
C3493 C3492 1.524 . S
C3493 C3494 1.397 . S
C3493 C3498 1.363 . S
C3494 H3471 0.950 . S
C3494 C3493 1.397 . S
C3494 C3495 1.334 . S
C3495 H3472 0.950 . S
C3495 C3494 1.334 . S
C3495 C3496 1.287 . S
C3496 C3495 1.287 . S
C3496 C3497 1.524 . S
C3496 H3515 0.913 . S
C3497 H3473 0.950 . S
C3497 C3496 1.524 . S
C3497 C3498 1.415 . S
C3498 H3474 0.950 . S
C3498 C3493 1.363 . S
C3498 C3497 1.415 . S
C3499 H3475 0.951 . S
C3499 C3500 1.366 . S
C3499 C3501 1.388 . S
C3500 C3499 1.366 . S
C3500 C3504 1.385 . S
C3501 H3476 0.951 . S
C3501 C3499 1.388 . S
C3501 C3502 1.366 . S
C3502 C3501 1.366 . S
C3502 C3503 1.414 . S
C3502 C3505 1.499 . S
C3503 H3477 0.950 . S
C3503 C3502 1.414 . S
C3503 C3504 1.374 . S
C3504 H3478 0.950 . S
C3504 C3500 1.385 . S
C3504 C3503 1.374 . S
C3505 C3502 1.499 . S
C3505 C3506 1.373 . S
C3505 C3507 1.389 . S
C3506 H3479 0.950 . S
C3506 C3492 1.377 . S
C3506 C3505 1.373 . S
C3507 C3491 1.377 . S
C3507 C3505 1.389 . S
C3507 C3508 1.524 . S
C3508 C3507 1.524 . S
C3508 C3509 1.397 . S
C3508 C3513 1.363 . S
C3509 H3480 0.950 . S
C3509 C3508 1.397 . S
C3509 C3510 1.334 . S
C3510 H3481 0.950 . S
C3510 C3509 1.334 . S
C3510 C3511 1.287 . S
C3511 C3510 1.287 . S
C3511 C3512 1.524 . S
C3511 H3514 0.999 . S
C3512 H3482 0.950 . S
C3512 C3511 1.524 . S
C3512 C3513 1.415 . S
C3513 H3483 0.950 . S
C3513 C3508 1.363 . S
C3513 C3512 1.415 . S
H3514 C3511 0.999 . S
H3515 C3496 0.913 . S
H3516 C3534 0.951 . S
H3517 C3536 0.951 . S
H3518 C3538 0.950 . S
H3519 C3539 0.950 . S
H3520 C3541 0.950 . S
H3521 C3544 0.950 . S
H3522 C3545 0.950 . S
H3523 C3547 0.950 . S
H3524 C3548 0.950 . S
H3525 C3549 0.951 . S
H3526 C3551 0.951 . S
H3527 C3553 0.950 . S
H3528 C3554 0.950 . S
H3529 C3556 0.950 . S
H3530 C3559 0.950 . S
H3531 C3560 0.950 . S
H3532 C3562 0.950 . S
H3533 C3563 0.950 . S
C3534 H3516 0.951 . S
C3534 C3535 1.366 . S
C3534 C3536 1.388 . S
C3535 C3534 1.366 . S
C3535 C3539 1.385 . S
C3536 H3517 0.951 . S
C3536 C3534 1.388 . S
C3536 C3537 1.366 . S
C3537 C3536 1.366 . S
C3537 C3538 1.414 . S
C3537 C3540 1.499 . S
C3538 H3518 0.950 . S
C3538 C3537 1.414 . S
C3538 C3539 1.374 . S
C3539 H3519 0.950 . S
C3539 C3535 1.385 . S
C3539 C3538 1.374 . S
C3540 C3537 1.499 . S
C3540 C3541 1.373 . S
C3540 C3542 1.389 . S
C3541 H3520 0.950 . S
C3541 C3540 1.373 . S
C3541 C3557 1.377 . S
C3542 C3540 1.389 . S
C3542 C3543 1.524 . S
C3542 C3556 1.377 . S
C3543 C3542 1.524 . S
C3543 C3544 1.397 . S
C3543 C3548 1.363 . S
C3544 H3521 0.950 . S
C3544 C3543 1.397 . S
C3544 C3545 1.334 . S
C3545 H3522 0.950 . S
C3545 C3544 1.334 . S
C3545 C3546 1.287 . S
C3546 C3545 1.287 . S
C3546 C3547 1.524 . S
C3546 H3565 0.913 . S
C3547 H3523 0.950 . S
C3547 C3546 1.524 . S
C3547 C3548 1.415 . S
C3548 H3524 0.950 . S
C3548 C3543 1.363 . S
C3548 C3547 1.415 . S
C3549 H3525 0.951 . S
C3549 C3550 1.366 . S
C3549 C3551 1.388 . S
C3550 C3549 1.366 . S
C3550 C3554 1.385 . S
C3551 H3526 0.951 . S
C3551 C3549 1.388 . S
C3551 C3552 1.366 . S
C3552 C3551 1.366 . S
C3552 C3553 1.414 . S
C3552 C3555 1.499 . S
C3553 H3527 0.950 . S
C3553 C3552 1.414 . S
C3553 C3554 1.374 . S
C3554 H3528 0.950 . S
C3554 C3550 1.385 . S
C3554 C3553 1.374 . S
C3555 C3552 1.499 . S
C3555 C3556 1.373 . S
C3555 C3557 1.389 . S
C3556 H3529 0.950 . S
C3556 C3542 1.377 . S
C3556 C3555 1.373 . S
C3557 C3541 1.377 . S
C3557 C3555 1.389 . S
C3557 C3558 1.524 . S
C3558 C3557 1.524 . S
C3558 C3559 1.397 . S
C3558 C3563 1.363 . S
C3559 H3530 0.950 . S
C3559 C3558 1.397 . S
C3559 C3560 1.334 . S
C3560 H3531 0.950 . S
C3560 C3559 1.334 . S
C3560 C3561 1.287 . S
C3561 C3560 1.287 . S
C3561 C3562 1.524 . S
C3561 H3564 0.999 . S
C3562 H3532 0.950 . S
C3562 C3561 1.524 . S
C3562 C3563 1.415 . S
C3563 H3533 0.950 . S
C3563 C3558 1.363 . S
C3563 C3562 1.415 . S
H3564 C3561 0.999 . S
H3565 C3546 0.913 . S
H3566 C3584 0.951 . S
H3567 C3586 0.951 . S
H3568 C3588 0.950 . S
H3569 C3589 0.950 . S
H3570 C3591 0.950 . S
H3571 C3594 0.950 . S
H3572 C3595 0.950 . S
H3573 C3597 0.950 . S
H3574 C3598 0.950 . S
H3575 C3599 0.951 . S
H3576 C3601 0.951 . S
H3577 C3603 0.950 . S
H3578 C3604 0.950 . S
H3579 C3606 0.950 . S
H3580 C3609 0.950 . S
H3581 C3610 0.950 . S
H3582 C3612 0.950 . S
H3583 C3613 0.950 . S
C3584 H3566 0.951 . S
C3584 C3585 1.366 . S
C3584 C3586 1.388 . S
C3585 C3584 1.366 . S
C3585 C3589 1.385 . S
C3586 H3567 0.951 . S
C3586 C3584 1.388 . S
C3586 C3587 1.366 . S
C3587 C3586 1.366 . S
C3587 C3588 1.414 . S
C3587 C3590 1.499 . S
C3588 H3568 0.950 . S
C3588 C3587 1.414 . S
C3588 C3589 1.374 . S
C3589 H3569 0.950 . S
C3589 C3585 1.385 . S
C3589 C3588 1.374 . S
C3590 C3587 1.499 . S
C3590 C3591 1.373 . S
C3590 C3592 1.389 . S
C3591 H3570 0.950 . S
C3591 C3590 1.373 . S
C3591 C3607 1.377 . S
C3592 C3590 1.389 . S
C3592 C3593 1.524 . S
C3592 C3606 1.377 . S
C3593 C3592 1.524 . S
C3593 C3594 1.397 . S
C3593 C3598 1.363 . S
C3594 H3571 0.950 . S
C3594 C3593 1.397 . S
C3594 C3595 1.334 . S
C3595 H3572 0.950 . S
C3595 C3594 1.334 . S
C3595 C3596 1.287 . S
C3596 C3595 1.287 . S
C3596 C3597 1.524 . S
C3596 H3615 0.913 . S
C3597 H3573 0.950 . S
C3597 C3596 1.524 . S
C3597 C3598 1.415 . S
C3598 H3574 0.950 . S
C3598 C3593 1.363 . S
C3598 C3597 1.415 . S
C3599 H3575 0.951 . S
C3599 C3600 1.366 . S
C3599 C3601 1.388 . S
C3600 C3599 1.366 . S
C3600 C3604 1.385 . S
C3601 H3576 0.951 . S
C3601 C3599 1.388 . S
C3601 C3602 1.366 . S
C3602 C3601 1.366 . S
C3602 C3603 1.414 . S
C3602 C3605 1.499 . S
C3603 H3577 0.950 . S
C3603 C3602 1.414 . S
C3603 C3604 1.374 . S
C3604 H3578 0.950 . S
C3604 C3600 1.385 . S
C3604 C3603 1.374 . S
C3605 C3602 1.499 . S
C3605 C3606 1.373 . S
C3605 C3607 1.389 . S
C3606 H3579 0.950 . S
C3606 C3592 1.377 . S
C3606 C3605 1.373 . S
C3607 C3591 1.377 . S
C3607 C3605 1.389 . S
C3607 C3608 1.524 . S
C3608 C3607 1.524 . S
C3608 C3609 1.397 . S
C3608 C3613 1.363 . S
C3609 H3580 0.950 . S
C3609 C3608 1.397 . S
C3609 C3610 1.334 . S
C3610 H3581 0.950 . S
C3610 C3609 1.334 . S
C3610 C3611 1.287 . S
C3611 C3610 1.287 . S
C3611 C3612 1.524 . S
C3611 H3614 0.999 . S
C3612 H3582 0.950 . S
C3612 C3611 1.524 . S
C3612 C3613 1.415 . S
C3613 H3583 0.950 . S
C3613 C3608 1.363 . S
C3613 C3612 1.415 . S
H3614 C3611 0.999 . S
H3615 C3596 0.913 . S
C435 C134 1.302 . S
C450 C10 1.302 . S
C485 C17 1.302 . S
C500 C153 1.302 . S
C535 C36 1.303 . S
C550 C114 1.302 . S
C585 C127 1.302 . S
C600 C43 1.302 . S
C635 C192 1.302 . S
C650 C56 1.302 . S
C685 C75 1.302 . S
C700 C205 1.302 . S
C735 C166 1.302 . S
C750 C82 1.303 . S
C785 C173 1.302 . S
C800 C95 1.302 . S
C835 C348 1.302 . S
C850 C212 1.302 . S
C885 C355 1.302 . S
C900 C225 1.302 . S
C935 C322 1.302 . S
C950 C238 1.303 . S
C985 C251 1.302 . S
C1000 C329 1.302 . S
C1035 C394 1.302 . S
C1050 C264 1.302 . S
C1085 C407 1.302 . S
C1100 C277 1.302 . S
C1135 C290 1.302 . S
C1150 C374 1.302 . S
C1185 C303 1.302 . S
C1200 C387 1.302 . S
C1235 C257 1.255 . S
C1250 C4 1.256 . S
C1285 C23 1.255 . S
C1300 C244 1.255 . S
C1335 C231 1.255 . S
C1350 C30 1.255 . S
C1385 C218 1.255 . S
C1400 C49 1.255 . S
C1435 C62 1.256 . S
C1450 C309 1.255 . S
C1485 C69 1.255 . S
C1500 C296 1.255 . S
C1535 C283 1.255 . S
C1550 C88 1.255 . S
C1585 C101 1.255 . S
C1600 C270 1.255 . S
C1635 C361 1.255 . S
C1650 C108 1.255 . S
C1685 C342 1.255 . S
C1700 C121 1.255 . S
C1735 C335 1.255 . S
C1750 C140 1.255 . S
C1785 C316 1.255 . S
C1800 C147 1.255 . S
C1835 C160 1.255 . S
C1850 C413 1.255 . S
C1885 C400 1.255 . S
C1900 C179 1.255 . S
C1935 C186 1.255 . S
C1950 C381 1.255 . S
C1985 C199 1.256 . S
C2000 C368 1.255 . S
C2035 C159 1.303 . S
C2050 C3 1.303 . S
C2085 C18 1.303 . S
C2100 C278 1.303 . S
C2135 C83 1.303 . S
C2150 C29 1.303 . S
C2185 C408 1.304 . S
C2200 C44 1.304 . S
C2235 C57 1.303 . S
C2250 C107 1.303 . S
C2285 C226 1.304 . S
C2300 C68 1.304 . S
C2335 C356 1.304 . S
C2350 C96 1.304 . S
C2385 C380 1.303 . S
C2400 C120 1.303 . S
C2435 C135 1.303 . S
C2450 C185 1.303 . S
C2485 C304 1.303 . S
C2500 C146 1.303 . S
C2535 C330 1.304 . S
C2550 C174 1.304 . S
C2585 C198 1.304 . S
C2600 C252 1.304 . S
C2635 C213 1.303 . S
C2650 C367 1.303 . S
C2685 C291 1.303 . S
C2700 C239 1.303 . S
C2735 C315 1.304 . S
C2750 C265 1.304 . S
C2785 C341 1.303 . S
C2800 C395 1.303 . S
C2835 C5 1.178 . S
C2850 C42 1.178 . S
C2885 C31 1.178 . S
C2900 C16 1.178 . S
C2935 C55 1.178 . S
C2950 C94 1.178 . S
C2985 C70 1.178 . S
C3000 C81 1.178 . S
C3035 C109 1.178 . S
C3050 C148 1.178 . S
C3085 C122 1.178 . S
C3100 C133 1.178 . S
C3135 C161 1.179 . S
C3150 C200 1.178 . S
C3185 C187 1.178 . S
C3200 C172 1.178 . S
C3235 C250 1.178 . S
C3250 C211 1.179 . S
C3285 C237 1.178 . S
C3300 C224 1.178 . S
C3335 C302 1.178 . S
C3350 C263 1.178 . S
C3385 C289 1.178 . S
C3400 C276 1.178 . S
C3435 C354 1.178 . S
C3450 C317 1.178 . S
C3485 C343 1.178 . S
C3500 C328 1.178 . S
C3535 C369 1.178 . S
C3550 C406 1.178 . S
C3585 C393 1.178 . S
C3600 C382 1.178 . S
