# Generated by pormake.
# Topology vbe, (5)-cn, num edge types: 1
# Building blocks:
#     Node 0, Type 0, BuildingBlock: XOMCOT_clean_sbu_1, # of connection points: 5
#     Node 1, Type 0, BuildingBlock: XOMCOT_clean_sbu_1, # of connection points: 5
#     Node 2, Type 0, BuildingBlock: XOMCOT_clean_sbu_1, # of connection points: 5
#     Node 3, Type 0, BuildingBlock: XOMCOT_clean_sbu_1, # of connection points: 5
#     Node 4, Type 0, BuildingBlock: XOMCOT_clean_sbu_1, # of connection points: 5
#     Node 5, Type 0, BuildingBlock: XOMCOT_clean_sbu_1, # of connection points: 5
#     Node 6, Type 0, BuildingBlock: XOMCOT_clean_sbu_1, # of connection points: 5
#     Node 7, Type 0, BuildingBlock: XOMCOT_clean_sbu_1, # of connection points: 5
#     Node 8, Type 0, BuildingBlock: XOMCOT_clean_sbu_1, # of connection points: 5
#     Node 9, Type 0, BuildingBlock: XOMCOT_clean_sbu_1, # of connection points: 5
#     Node 10, Type 0, BuildingBlock: XOMCOT_clean_sbu_1, # of connection points: 5
#     Node 11, Type 0, BuildingBlock: XOMCOT_clean_sbu_1, # of connection points: 5
#     Node 12, Type 0, BuildingBlock: XOMCOT_clean_sbu_1, # of connection points: 5
#     Node 13, Type 0, BuildingBlock: XOMCOT_clean_sbu_1, # of connection points: 5
#     Node 14, Type 0, BuildingBlock: XOMCOT_clean_sbu_1, # of connection points: 5
#     Node 15, Type 0, BuildingBlock: XOMCOT_clean_sbu_1, # of connection points: 5
#     Edge 16, Type (0, 0), BuildingBlock: EZIPEK_clean_linker_0, # of connection points: 2
#     Edge 17, Type (0, 0), BuildingBlock: EZIPEK_clean_linker_0, # of connection points: 2
#     Edge 18, Type (0, 0), BuildingBlock: EZIPEK_clean_linker_0, # of connection points: 2
#     Edge 19, Type (0, 0), BuildingBlock: EZIPEK_clean_linker_0, # of connection points: 2
#     Edge 20, Type (0, 0), BuildingBlock: EZIPEK_clean_linker_0, # of connection points: 2
#     Edge 21, Type (0, 0), BuildingBlock: EZIPEK_clean_linker_0, # of connection points: 2
#     Edge 22, Type (0, 0), BuildingBlock: EZIPEK_clean_linker_0, # of connection points: 2
#     Edge 23, Type (0, 0), BuildingBlock: EZIPEK_clean_linker_0, # of connection points: 2
#     Edge 24, Type (0, 0), BuildingBlock: EZIPEK_clean_linker_0, # of connection points: 2
#     Edge 25, Type (0, 0), BuildingBlock: EZIPEK_clean_linker_0, # of connection points: 2
#     Edge 26, Type (0, 0), BuildingBlock: EZIPEK_clean_linker_0, # of connection points: 2
#     Edge 27, Type (0, 0), BuildingBlock: EZIPEK_clean_linker_0, # of connection points: 2
#     Edge 28, Type (0, 0), BuildingBlock: EZIPEK_clean_linker_0, # of connection points: 2
#     Edge 29, Type (0, 0), BuildingBlock: EZIPEK_clean_linker_0, # of connection points: 2
#     Edge 30, Type (0, 0), BuildingBlock: EZIPEK_clean_linker_0, # of connection points: 2
#     Edge 31, Type (0, 0), BuildingBlock: EZIPEK_clean_linker_0, # of connection points: 2
#     Edge 32, Type (0, 0), BuildingBlock: EZIPEK_clean_linker_0, # of connection points: 2
#     Edge 33, Type (0, 0), BuildingBlock: EZIPEK_clean_linker_0, # of connection points: 2
#     Edge 34, Type (0, 0), BuildingBlock: EZIPEK_clean_linker_0, # of connection points: 2
#     Edge 35, Type (0, 0), BuildingBlock: EZIPEK_clean_linker_0, # of connection points: 2
#     Edge 36, Type (0, 0), BuildingBlock: EZIPEK_clean_linker_0, # of connection points: 2
#     Edge 37, Type (0, 0), BuildingBlock: EZIPEK_clean_linker_0, # of connection points: 2
#     Edge 38, Type (0, 0), BuildingBlock: EZIPEK_clean_linker_0, # of connection points: 2
#     Edge 39, Type (0, 0), BuildingBlock: EZIPEK_clean_linker_0, # of connection points: 2
#     Edge 40, Type (0, 0), BuildingBlock: EZIPEK_clean_linker_0, # of connection points: 2
#     Edge 41, Type (0, 0), BuildingBlock: EZIPEK_clean_linker_0, # of connection points: 2
#     Edge 42, Type (0, 0), BuildingBlock: EZIPEK_clean_linker_0, # of connection points: 2
#     Edge 43, Type (0, 0), BuildingBlock: EZIPEK_clean_linker_0, # of connection points: 2
#     Edge 44, Type (0, 0), BuildingBlock: EZIPEK_clean_linker_0, # of connection points: 2
#     Edge 45, Type (0, 0), BuildingBlock: EZIPEK_clean_linker_0, # of connection points: 2
#     Edge 46, Type (0, 0), BuildingBlock: EZIPEK_clean_linker_0, # of connection points: 2
#     Edge 47, Type (0, 0), BuildingBlock: EZIPEK_clean_linker_0, # of connection points: 2
#     Edge 48, Type (0, 0), BuildingBlock: EZIPEK_clean_linker_0, # of connection points: 2
#     Edge 49, Type (0, 0), BuildingBlock: EZIPEK_clean_linker_0, # of connection points: 2
#     Edge 50, Type (0, 0), BuildingBlock: EZIPEK_clean_linker_0, # of connection points: 2
#     Edge 51, Type (0, 0), BuildingBlock: EZIPEK_clean_linker_0, # of connection points: 2
#     Edge 52, Type (0, 0), BuildingBlock: EZIPEK_clean_linker_0, # of connection points: 2
#     Edge 53, Type (0, 0), BuildingBlock: EZIPEK_clean_linker_0, # of connection points: 2
#     Edge 54, Type (0, 0), BuildingBlock: EZIPEK_clean_linker_0, # of connection points: 2
#     Edge 55, Type (0, 0), BuildingBlock: EZIPEK_clean_linker_0, # of connection points: 2
# Relax obj value: 0.498
# Max RMSD: 0.273
# Mean RMSD: 0.273
data_MOF--net-vbe--node1-XOMCOT_clean_sbu_1--edge1-EZIPEK_clean_linker_0
_symmetry_space_group_name_H-M    P1
_symmetry_Int_Tables_number       1
_symmetry_cell_setting            triclinic
loop_
_symmetry_equiv_pos_as_xyz
'x, y, z'
_cell_length_a     28.452967
_cell_length_b     31.302547
_cell_length_c     40.479709
_cell_angle_alpha  89.583566
_cell_angle_beta   90.043187
_cell_angle_gamma 89.986562
loop_
_atom_site_label
_atom_site_type_symbol
_atom_site_fract_x
_atom_site_fract_y
_atom_site_fract_z
_atom_type_partial_charge
C0 C 0.18879 0.13601 0.31326 0.0
C1 C 0.19509 0.16302 0.28635 0.0
N2 N 0.16289 0.19438 0.28775 0.0
N3 N 0.15176 0.14889 0.33166 0.0
C4 C 0.13773 0.18529 0.3154 0.0
H5 H 0.21128 0.10948 0.31938 0.0
Co6 Co 0.13157 0.125 0.37467 0.0
C7 C 0.08907 0.19856 0.40675 0.0
O8 O 0.05708 0.17117 0.41666 0.0
N9 N 0.11363 0.10503 0.41825 0.0
C10 C 0.11596 0.10057 0.47354 0.0
C11 C 0.13819 0.11591 0.44565 0.0
C12 C 0.07604 0.08344 0.43066 0.0
N13 N 0.07694 0.08033 0.4637 0.0
O14 O 0.19814 0.11427 0.38677 0.0
H15 H 0.16966 0.13522 0.44549 0.0
H16 H 0.04662 0.07157 0.41678 0.0
O17 O 0.12456 0.18492 0.39024 0.0
C18 C 0.1987 0.07319 0.38246 0.0
O19 O 0.15923 0.05518 0.37351 0.0
N20 N 0.06871 0.12209 0.36009 0.0
C21 C 0.01982 0.09501 0.30642 0.0
C22 C 0.02134 0.1388 0.31342 0.0
C23 C 0.04425 0.15175 0.3422 0.0
C24 C 0.05825 0.0797 0.35649 0.0
C25 C 0.03063 0.06562 0.33088 0.0
H26 H 0.04789 0.18535 0.34701 0.0
H27 H 0.07741 0.05536 0.36957 0.0
H28 H 0.11056 0.20609 0.32379 0.0
H29 H 0.22227 0.16056 0.26777 0.0
H30 H 0.12728 0.10404 0.49891 0.0
H31 H 0.01066 0.16238 0.29519 0.0
H32 H 0.02872 0.0316 0.32613 0.0
C33 C 0.33568 0.89365 0.31076 0.0
C34 C 0.31957 0.86553 0.28697 0.0
N35 N 0.34077 0.82747 0.29159 0.0
N36 N 0.36715 0.87385 0.33057 0.0
C37 C 0.36856 0.83321 0.31846 0.0
H38 H 0.32767 0.92738 0.31182 0.0
Co39 Co 0.40839 0.90011 0.36282 0.0
C40 C 0.45891 0.81702 0.37475 0.0
O41 O 0.48668 0.82375 0.34956 0.0
N42 N 0.45162 0.92168 0.39557 0.0
C43 C 0.52108 0.92893 0.421 0.0
C44 C 0.49742 0.90935 0.39599 0.0
C45 C 0.44895 0.94972 0.42088 0.0
N46 N 0.49057 0.95417 0.43659 0.0
O47 O 0.3548 0.90842 0.39274 0.0
H48 H 0.51369 0.88826 0.37851 0.0
H49 H 0.41816 0.96772 0.42711 0.0
O50 O 0.42559 0.84318 0.38125 0.0
C51 C 0.34496 0.94832 0.38784 0.0
O52 O 0.37251 0.9703 0.36807 0.0
N53 N 0.45577 0.9057 0.33022 0.0
C54 C 0.47441 0.9483 0.27163 0.0
C55 C 0.47374 0.90362 0.27236 0.0
C56 C 0.46247 0.88272 0.30193 0.0
C57 C 0.46529 0.94869 0.32993 0.0
C58 C 0.47401 0.97056 0.30099 0.0
H59 H 0.45349 0.84944 0.3004 0.0
H60 H 0.45797 0.9687 0.35077 0.0
H61 H 0.39255 0.80897 0.32723 0.0
H62 H 0.297 0.87347 0.26628 0.0
H63 H 0.55805 0.92578 0.4269 0.0
H64 H 0.47519 0.88581 0.24957 0.0
H65 H 0.47406 1.0052 0.30121 0.0
C66 C 0.66674 0.91201 0.16895 0.0
C67 C 0.67485 0.88569 0.19586 0.0
N68 N 0.64485 0.85241 0.19489 0.0
N69 N 0.63202 0.89574 0.15014 0.0
C70 C 0.61918 0.85938 0.16683 0.0
H71 H 0.68597 0.94087 0.16316 0.0
Co72 Co 0.61316 0.91922 0.10772 0.0
C73 C 0.54729 0.85646 0.07997 0.0
O74 O 0.52211 0.89081 0.07445 0.0
N75 N 0.59561 0.9402 0.06427 0.0
C76 C 0.58855 0.93541 0.00924 0.0
C77 C 0.61005 0.91896 0.03699 0.0
C78 C 0.56611 0.97053 0.05181 0.0
N79 N 0.5609 0.96762 0.01888 0.0
O80 O 0.67772 0.91388 0.09122 0.0
H81 H 0.63317 0.89154 0.03742 0.0
H82 H 0.54651 0.99344 0.0659 0.0
O83 O 0.58775 0.86121 0.09406 0.0
C84 C 0.69052 0.95351 0.09325 0.0
O85 O 0.66083 0.9808 0.1059 0.0
N86 N 0.55573 0.93535 0.12576 0.0
C87 C 0.47965 0.97763 0.15384 0.0
C88 C 0.48315 0.93245 0.15533 0.0
C89 C 0.52178 0.91191 0.14121 0.0
C90 C 0.55342 0.97873 0.12568 0.0
C91 C 0.51418 1.00005 0.13664 0.0
H92 H 0.52492 0.87765 0.1435 0.0
H93 H 0.58181 0.99757 0.11594 0.0
H94 H 0.59235 0.83766 0.15821 0.0
H95 H 0.70131 0.8905 0.21471 0.0
H96 H 0.59204 0.92414 0.98415 0.0
H97 H 0.45845 0.91316 0.16923 0.0
H98 H 0.51355 0.03444 0.13443 0.0
C99 C 0.85195 0.1225 0.17438 0.0
C100 C 0.83812 0.14632 0.20122 0.0
N101 N 0.85137 0.18715 0.19634 0.0
N102 N 0.87359 0.14766 0.1519 0.0
C103 C 0.87126 0.18731 0.16583 0.0
H104 H 0.84804 0.08863 0.17231 0.0
Co105 Co 0.90438 0.12953 0.11143 0.0
C106 C 0.93612 0.21976 0.09754 0.0
O107 O 0.97253 0.21339 0.11657 0.0
N108 N 0.93483 0.11616 0.07007 0.0
C109 C 0.99241 0.12086 0.03262 0.0
C110 C 0.97254 0.13904 0.05954 0.0
C111 C 0.93326 0.08307 0.04856 0.0
N112 N 0.96838 0.08534 0.02613 0.0
O113 O 0.84312 0.11169 0.09347 0.0
H114 H 0.98935 0.16423 0.07277 0.0
H115 H 0.90991 0.05598 0.05079 0.0
O116 O 0.90436 0.1907 0.09429 0.0
C117 C 0.84535 0.07093 0.09976 0.0
O118 O 0.88552 0.05632 0.11113 0.0
N119 N 0.96395 0.13048 0.13265 0.0
C120 C 0.02649 0.09464 0.17678 0.0
C121 C 0.00815 0.13524 0.18268 0.0
C122 C 0.97576 0.15211 0.16072 0.0
C123 C 0.98703 0.09303 0.12561 0.0
C124 C 0.02032 0.07572 0.1465 0.0
H125 H 0.95777 0.18046 0.16837 0.0
H126 H 0.97484 0.07166 0.10692 0.0
H127 H 0.88684 0.21557 0.15499 0.0
H128 H 0.822 0.13405 0.22357 0.0
H129 H 0.02511 0.13026 0.02097 0.0
H130 H 0.01245 0.15024 0.20653 0.0
H131 H 0.03353 0.04381 0.14193 0.0
C132 C 0.89082 0.92813 0.68856 0.0
C133 C 0.88277 0.90559 0.71735 0.0
N134 N 0.87258 0.86497 0.70956 0.0
N135 N 0.88757 0.90203 0.66227 0.0
C136 C 0.87379 0.86399 0.67596 0.0
H137 H 0.90082 0.9612 0.68687 0.0
Co138 Co 0.90371 0.92237 0.61824 0.0
C139 C 0.93676 0.831 0.6104 0.0
O140 O 0.94653 0.82634 0.64169 0.0
N141 N 0.91509 0.94251 0.57427 0.0
C142 C 0.92411 0.9426 0.51952 0.0
C143 C 0.90881 0.91951 0.54638 0.0
C144 C 0.92966 0.98112 0.56295 0.0
N145 N 0.9391 0.98069 0.53031 0.0
O146 O 0.83666 0.92959 0.60846 0.0
H147 H 0.89593 0.8871 0.54534 0.0
H148 H 0.93901 1.00734 0.57898 0.0
O149 O 0.91284 0.86332 0.60021 0.0
C150 C 0.83156 0.96989 0.61421 0.0
O151 O 0.86817 0.99093 0.6254 0.0
N152 N 0.97117 0.92421 0.62969 0.0
C153 C 0.02403 0.97713 0.66868 0.0
C154 C 0.01357 0.93589 0.67981 0.0
C155 C 0.98605 0.9099 0.65998 0.0
C156 C 0.99819 0.95558 0.61543 0.0
C157 C 0.02133 0.98539 0.63502 0.0
H158 H 0.97057 0.88308 0.67221 0.0
H159 H 1.0007 0.95934 0.58936 0.0
H160 H 0.86584 0.83573 0.6618 0.0
H161 H 0.88537 0.91783 0.74223 0.0
H162 H 0.92864 0.93072 0.49467 0.0
H163 H 0.01905 0.92697 0.70524 0.0
H164 H 0.03383 1.0152 0.62451 0.0
C165 C 0.6423 0.12958 0.68659 0.0
C166 C 0.65141 0.157 0.71232 0.0
N167 N 0.64348 0.19747 0.70218 0.0
N168 N 0.62762 0.15175 0.65985 0.0
C169 C 0.63025 0.19344 0.66988 0.0
H170 H 0.64425 0.09529 0.68769 0.0
Co171 Co 0.59804 0.12458 0.6218 0.0
C172 C 0.54708 0.20939 0.60834 0.0
O173 O 0.52091 0.2046 0.63463 0.0
N174 N 0.56793 0.10153 0.5837 0.0
C175 C 0.5076 0.09261 0.54908 0.0
C176 C 0.52377 0.11439 0.57579 0.0
C177 C 0.57735 0.07067 0.56128 0.0
N178 N 0.54116 0.06523 0.54002 0.0
O179 O 0.65954 0.12136 0.60004 0.0
H180 H 0.50324 0.13706 0.58964 0.0
H181 H 0.60854 0.05107 0.56142 0.0
O182 O 0.57955 0.18198 0.60208 0.0
C183 C 0.67127 0.08278 0.60838 0.0
O184 O 0.6407 0.06004 0.6253 0.0
N185 N 0.54186 0.11347 0.64695 0.0
C186 C 0.523 0.0628 0.70216 0.0
C187 C 0.52865 0.10716 0.70499 0.0
C188 C 0.53504 0.13223 0.67685 0.0
C189 C 0.52894 0.07119 0.64367 0.0
C190 C 0.51933 0.04543 0.67094 0.0
H191 H 0.54449 0.16481 0.68088 0.0
H192 H 0.53391 0.05375 0.62122 0.0
H193 H 0.61994 0.22026 0.65457 0.0
H194 H 0.66199 0.14775 0.73705 0.0
H195 H 0.47316 0.09538 0.53785 0.0
H196 H 0.53399 0.12225 0.7285 0.0
H197 H 0.51502 1.0113 0.66781 0.0
C198 C 0.36772 0.13514 0.79079 0.0
C199 C 0.35705 0.16089 0.76402 0.0
N200 N 0.35724 0.20183 0.77388 0.0
N201 N 0.37646 0.15949 0.81759 0.0
C202 C 0.3673 0.20003 0.8067 0.0
H203 H 0.37151 0.10077 0.79031 0.0
Co204 Co 0.39685 0.13542 0.85951 0.0
C205 C 0.44614 0.21812 0.86648 0.0
O206 O 0.45424 0.21984 0.83467 0.0
N207 N 0.41143 0.11245 0.90184 0.0
C208 C 0.41909 0.10997 0.95662 0.0
C209 C 0.40301 0.1336 0.93028 0.0
C210 C 0.42948 0.07449 0.91191 0.0
N211 N 0.43691 0.07347 0.94479 0.0
O212 O 0.33101 0.13121 0.87244 0.0
H213 H 0.3873 0.16496 0.93187 0.0
H214 H 0.44085 0.04966 0.89523 0.0
O215 O 0.41434 0.19249 0.87781 0.0
C216 C 0.32412 0.09129 0.8659 0.0
O217 O 0.359 0.06941 0.85313 0.0
N218 N 0.46182 0.13043 0.84491 0.0
C219 C 0.52039 0.072 0.8159 0.0
C220 C 0.4985 0.10367 0.79688 0.0
C221 C 0.47075 0.13364 0.81194 0.0
C222 C 0.49481 0.10963 0.86382 0.0
C223 C 0.52251 0.07736 0.84999 0.0
H224 H 0.45372 0.15654 0.79618 0.0
H225 H 0.49747 0.11544 0.88983 0.0
H226 H 0.36904 0.22801 0.82216 0.0
H227 H 0.351 0.15044 0.73894 0.0
H228 H 0.42078 0.12002 0.98213 0.0
H229 H 0.49714 0.10199 0.77054 0.0
H230 H 0.54262 0.05587 0.8656 0.0
C231 C 0.13091 0.92002 0.78168 0.0
C232 C 0.14021 0.89156 0.7565 0.0
N233 N 0.14639 0.85236 0.76973 0.0
N234 N 0.13011 0.89922 0.811 0.0
C235 C 0.14151 0.8582 0.80276 0.0
H236 H 0.12186 0.95311 0.77847 0.0
Co237 Co 0.10475 0.91948 0.85272 0.0
C238 C 0.07324 0.8283 0.8634 0.0
O239 O 0.03933 0.83304 0.84191 0.0
N240 N 0.07946 0.93402 0.89498 0.0
C241 C 0.02736 0.92858 0.93603 0.0
C242 C 0.04441 0.91009 0.90827 0.0
C243 C 0.08188 0.96831 0.91523 0.0
N244 N 0.04978 0.9657 0.93984 0.0
O245 O 0.16838 0.92949 0.869 0.0
H246 H 0.02779 0.88325 0.8967 0.0
H247 H 0.10279 0.99646 0.91014 0.0
O248 O 0.10143 0.85928 0.86908 0.0
C249 C 0.17171 0.9696 0.86147 0.0
O250 O 0.13529 0.98799 0.84731 0.0
N251 N 0.04254 0.9246 0.83387 0.0
C252 C 0.996 0.97447 0.78717 0.0
C253 C 0.00498 0.93132 0.78099 0.0
C254 C 0.02918 0.90705 0.80452 0.0
C255 C 0.02381 0.96376 0.84196 0.0
C256 C 0.99928 0.98868 0.81929 0.0
H257 H 0.04452 0.87816 0.79596 0.0
H258 H 0.03582 0.98152 0.86268 0.0
H259 H 0.14389 0.83216 0.82027 0.0
H260 H 0.14012 0.89876 0.7303 0.0
H261 H 0.99681 0.91834 0.94995 0.0
H262 H 1.00058 0.91844 0.75659 0.0
H263 H 0.99221 0.02187 0.82497 0.0
C264 C 0.69052 0.6534 0.31161 0.0
C265 C 0.69385 0.68237 0.28578 0.0
N266 N 0.66307 0.71439 0.29071 0.0
N267 N 0.65767 0.66633 0.33344 0.0
C268 C 0.64247 0.70434 0.32015 0.0
H269 H 0.70975 0.62374 0.31333 0.0
Co270 Co 0.63559 0.63397 0.37216 0.0
C271 C 0.60538 0.72165 0.40538 0.0
O272 O 0.64209 0.74665 0.40883 0.0
N273 N 0.61356 0.60573 0.41148 0.0
C274 C 0.60269 0.59964 0.46616 0.0
C275 C 0.62647 0.62077 0.44149 0.0
C276 C 0.58101 0.57539 0.41901 0.0
N277 N 0.57421 0.57131 0.45175 0.0
O278 O 0.69845 0.63403 0.39191 0.0
H279 H 0.65064 0.64694 0.44527 0.0
H280 H 0.56043 0.55755 0.40156 0.0
O281 O 0.61134 0.68536 0.39202 0.0
C282 C 0.71127 0.59653 0.38223 0.0
O283 O 0.68411 0.57652 0.36123 0.0
N284 N 0.57925 0.62392 0.35087 0.0
C285 C 0.53748 0.59683 0.29404 0.0
C286 C 0.53274 0.63958 0.30343 0.0
C287 C 0.55298 0.65242 0.33313 0.0
C288 C 0.57834 0.5815 0.34345 0.0
C289 C 0.55462 0.56676 0.31623 0.0
H290 H 0.55287 0.68583 0.33921 0.0
H291 H 0.6015 0.55931 0.35575 0.0
H292 H 0.61615 0.72432 0.33146 0.0
H293 H 0.71615 0.67928 0.26428 0.0
H294 H 0.60519 0.60519 0.49247 0.0
H295 H 0.51872 0.66329 0.28645 0.0
H296 H 0.55867 0.53361 0.30917 0.0
C297 C 0.81291 0.36369 0.33345 0.0
C298 C 0.80124 0.3366 0.30779 0.0
N299 N 0.84034 0.31608 0.29794 0.0
N300 N 0.85942 0.36079 0.33996 0.0
C301 C 0.87469 0.33095 0.31797 0.0
H302 H 0.78849 0.38359 0.34679 0.0
Co303 Co 0.89594 0.38892 0.37385 0.0
C304 C 0.94995 0.31616 0.38533 0.0
O305 O 0.91309 0.30472 0.40284 0.0
N306 N 0.9348 0.41431 0.40617 0.0
C307 C 1.00359 0.43671 0.42619 0.0
C308 C 0.98185 0.41675 0.4007 0.0
C309 C 0.92903 0.43381 0.43563 0.0
N310 N 0.97048 0.44755 0.44795 0.0
O311 O 0.84432 0.4305 0.38156 0.0
H312 H 0.99964 0.40645 0.37855 0.0
H313 H 0.89561 0.4396 0.44727 0.0
O314 O 0.94673 0.34916 0.36699 0.0
C315 C 0.81476 0.4428 0.40328 0.0
O316 O 0.8144 0.42235 0.43169 0.0
N317 N 0.92008 0.42895 0.34328 0.0
C318 C 0.94389 0.49153 0.29772 0.0
C319 C 0.9513 0.44821 0.29074 0.0
C320 C 0.93957 0.41729 0.31406 0.0
C321 C 0.91692 0.47148 0.35132 0.0
C322 C 0.92802 0.50335 0.32866 0.0
H323 H 0.94547 0.38423 0.3083 0.0
H324 H 0.9046 0.48148 0.37526 0.0
H325 H 0.91038 0.31947 0.31666 0.0
H326 H 0.76657 0.33202 0.29736 0.0
H327 H 0.04046 0.445 0.42784 0.0
H328 H 0.96457 0.43835 0.26702 0.0
H329 H 0.92299 0.53664 0.3349 0.0
C330 C 0.13257 0.41133 0.18903 0.0
C331 C 0.14331 0.38285 0.21415 0.0
N332 N 0.14218 0.34291 0.20207 0.0
N333 N 0.12331 0.38994 0.16084 0.0
C334 C 0.13131 0.34815 0.16946 0.0
H335 H 0.12926 0.44556 0.19163 0.0
Co336 Co 0.10133 0.4182 0.12034 0.0
C337 C 0.04682 0.33672 0.11068 0.0
O338 O 0.04006 0.33115 0.14233 0.0
N339 N 0.08441 0.44437 0.07842 0.0
C340 C 0.06702 0.44912 0.02463 0.0
C341 C 0.08124 0.42249 0.04968 0.0
C342 C 0.07618 0.48547 0.0689 0.0
N343 N 0.06238 0.4885 0.03698 0.0
O344 O 0.16561 0.41965 0.10426 0.0
H345 H 0.08748 0.38875 0.04661 0.0
H346 H 0.07488 0.5119 0.08598 0.0
O347 O 0.07845 0.36308 0.10048 0.0
C348 C 0.17395 0.45856 0.11332 0.0
O349 O 0.14126 0.4789 0.12992 0.0
N350 N 0.03899 0.42783 0.13947 0.0
C351 C 0.98206 0.47478 0.18126 0.0
C352 C 0.99982 0.43545 0.19161 0.0
C353 C 0.02827 0.41252 0.1704 0.0
C354 C 0.01211 0.46101 0.12759 0.0
C355 C 0.98505 0.48614 0.14828 0.0
H356 H 0.04503 0.38518 0.18115 0.0
H357 H 0.01055 0.4692 0.10232 0.0
H358 H 0.12807 0.32181 0.15248 0.0
H359 H 0.15018 0.39082 0.23967 0.0
H360 H 0.05664 0.4396 1e-05 0.0
H361 H 0.99666 0.42494 0.217 0.0
H362 H 0.96917 0.51534 0.13904 0.0
C363 C 0.3885 0.6235 0.18456 0.0
C364 C 0.3786 0.64704 0.21244 0.0
N365 N 0.3583 0.684 0.20306 0.0
N366 N 0.3759 0.64566 0.15717 0.0
C367 C 0.35556 0.68166 0.16954 0.0
H368 H 0.4065 0.59313 0.18417 0.0
Co369 Co 0.39137 0.62826 0.11236 0.0
C370 C 0.41787 0.72648 0.10538 0.0
O371 O 0.41059 0.74059 0.13527 0.0
N372 N 0.40476 0.61237 0.06726 0.0
C373 C 0.42848 0.61816 0.01477 0.0
C374 C 0.41118 0.63973 0.04145 0.0
C375 C 0.41397 0.57367 0.05388 0.0
N376 N 0.43157 0.57676 0.02307 0.0
O377 O 0.32505 0.62392 0.10189 0.0
H378 H 0.40651 0.67392 0.04182 0.0
H379 H 0.41106 0.54357 0.06696 0.0
O380 O 0.40711 0.68794 0.09785 0.0
C381 C 0.32195 0.58351 0.10886 0.0
O382 O 0.35947 0.56385 0.12031 0.0
N383 N 0.45491 0.62213 0.12436 0.0
C384 C 0.53002 0.59393 0.16103 0.0
C385 C 0.5147 0.63621 0.16413 0.0
C386 C 0.47654 0.6497 0.14545 0.0
C387 C 0.47498 0.58332 0.11821 0.0
C388 C 0.51538 0.57017 0.13429 0.0
H389 H 0.46095 0.67984 0.15135 0.0
H390 H 0.45658 0.55894 0.10556 0.0
H391 H 0.34016 0.70644 0.15428 0.0
H392 H 0.38812 0.63873 0.23758 0.0
H393 H 0.44224 0.63231 -0.00771 0.0
H394 H 0.52632 0.65584 0.18453 0.0
H395 H 0.52746 0.53759 0.13123 0.0
C396 C 0.33711 0.40709 0.65952 0.0
C397 C 0.32882 0.3826 0.68749 0.0
N398 N 0.34218 0.34221 0.68136 0.0
N399 N 0.35602 0.38259 0.63568 0.0
C400 C 0.35769 0.34283 0.64969 0.0
H401 H 0.332 0.44124 0.65733 0.0
Co402 Co 0.3818 0.40457 0.59507 0.0
C403 C 0.40222 0.30826 0.56791 0.0
O404 O 0.36587 0.28273 0.56493 0.0
N405 N 0.40652 0.42473 0.55405 0.0
C406 C 0.42067 0.42526 0.49968 0.0
C407 C 0.39623 0.40577 0.52492 0.0
C408 C 0.43605 0.45688 0.54537 0.0
N409 N 0.44547 0.45726 0.51288 0.0
O410 O 0.31867 0.41183 0.57735 0.0
H411 H 0.37279 0.37884 0.52219 0.0
H412 H 0.45143 0.47978 0.56182 0.0
O413 O 0.39404 0.3461 0.57859 0.0
C414 C 0.3119 0.45252 0.57948 0.0
O415 O 0.34699 0.47637 0.58949 0.0
N416 N 0.43998 0.4059 0.61481 0.0
C417 C 0.49623 0.42307 0.66778 0.0
C418 C 0.48759 0.38072 0.65926 0.0
C419 C 0.45863 0.37272 0.6325 0.0
C420 C 0.45287 0.44692 0.62128 0.0
C421 C 0.48433 0.45607 0.64626 0.0
H422 H 0.44685 0.34047 0.62879 0.0
H423 H 0.43246 0.47313 0.61166 0.0
H424 H 0.37224 0.3151 0.63765 0.0
H425 H 0.3162 0.39401 0.71106 0.0
H426 H 0.42058 0.4166 0.47384 0.0
H427 H 0.49732 0.35469 0.6757 0.0
H428 H 0.48992 0.48907 0.65318 0.0
C429 C 0.15852 0.6277 0.68255 0.0
C430 C 0.17453 0.65825 0.70435 0.0
N431 N 0.15915 0.69676 0.69406 0.0
N432 N 0.13371 0.64655 0.65804 0.0
C433 C 0.13502 0.68885 0.66588 0.0
H434 H 0.16076 0.59372 0.68638 0.0
Co435 Co 0.09571 0.61848 0.62536 0.0
C436 C 0.0402 0.69816 0.60893 0.0
O437 O 0.00962 0.68794 0.63174 0.0
N438 N 0.0561 0.59437 0.59174 0.0
C439 C 0.98916 0.58125 0.56471 0.0
C440 C 0.00937 0.60304 0.58991 0.0
C441 C 0.06323 0.56688 0.56649 0.0
N442 N 0.02289 0.55859 0.55016 0.0
O443 O 0.15192 0.60864 0.59799 0.0
H444 H 0.98972 0.62225 0.6069 0.0
H445 H 0.09659 0.55243 0.56043 0.0
O446 O 0.07747 0.67541 0.60493 0.0
C447 C 0.16021 0.56952 0.60704 0.0
O448 O 0.12921 0.55161 0.62674 0.0
N449 N 0.04629 0.61328 0.65643 0.0
C450 C 1.00155 0.57737 0.71076 0.0
C451 C 0.01406 0.62068 0.7109 0.0
C452 C 0.0368 0.63816 0.68328 0.0
C453 C 0.03279 0.57116 0.65675 0.0
C454 C 0.00891 0.55321 0.68287 0.0
H455 H 0.04938 0.67057 0.68458 0.0
H456 H 0.04386 0.54919 0.63797 0.0
H457 H 0.11481 0.71309 0.65321 0.0
H458 H 0.19197 0.65216 0.72769 0.0
H459 H 0.95229 0.58098 0.55804 0.0
H460 H 0.00939 0.63974 0.73289 0.0
H461 H 1.00087 0.51935 0.68268 0.0
C462 C 0.81223 0.68611 0.84071 0.0
C463 C 0.80739 0.71237 0.81353 0.0
N464 N 0.84806 0.73322 0.80869 0.0
N465 N 0.85668 0.68796 0.85262 0.0
C466 C 0.877 0.7186 0.83302 0.0
H467 H 0.78357 0.66884 0.852 0.0
Co468 Co 0.87898 0.66108 0.89342 0.0
C469 C 0.9519 0.71955 0.91696 0.0
O470 O 0.92675 0.72596 0.94359 0.0
N471 N 0.89899 0.63881 0.93406 0.0
C472 C 0.90027 0.62697 0.98828 0.0
C473 C 0.87514 0.64455 0.96245 0.0
C474 C 0.93884 0.61831 0.94329 0.0
N475 N 0.93988 0.6098 0.97592 0.0
O476 O 0.82449 0.61991 0.89433 0.0
H477 H 0.8415 0.66047 0.96415 0.0
H478 H 0.96638 0.6088 0.92649 0.0
O479 O 0.93375 0.69815 0.89347 0.0
C480 C 0.81071 0.59334 0.87221 0.0
O481 O 0.83116 0.59583 0.84318 0.0
N482 N 0.91487 0.61953 0.87065 0.0
C483 C 0.95564 0.55854 0.8308 0.0
C484 C 0.96252 0.60209 0.82432 0.0
C485 C 0.94178 0.63202 0.84452 0.0
C486 C 0.91261 0.57702 0.87933 0.0
C487 C 0.93224 0.54579 0.85933 0.0
H488 H 0.94651 0.66517 0.83839 0.0
H489 H 0.89263 0.56668 0.90064 0.0
H490 H 0.91182 0.73141 0.83711 0.0
H491 H 0.77547 0.71767 0.7995 0.0
H492 H 0.8892 0.62476 0.01381 0.0
H493 H 0.98111 0.61293 0.80245 0.0
H494 H 0.92681 0.51228 0.86499 0.0
C495 C 0.67103 0.39872 0.81821 0.0
C496 C 0.67793 0.37248 0.79136 0.0
N497 N 0.65577 0.33521 0.79695 0.0
N498 N 0.64444 0.37865 0.84117 0.0
C499 C 0.63619 0.33948 0.82745 0.0
H500 H 0.68308 0.43133 0.82008 0.0
Co501 Co 0.62265 0.40597 0.88142 0.0
C502 C 0.56721 0.34114 0.91674 0.0
O503 O 0.53886 0.37308 0.92282 0.0
N504 N 0.60228 0.43219 0.92178 0.0
C505 C 0.59569 0.44016 0.97645 0.0
C506 C 0.61957 0.41985 0.95155 0.0
C507 C 0.56815 0.46078 0.92954 0.0
N508 N 0.56338 0.46565 0.96236 0.0
O509 O 0.6872 0.40918 0.89761 0.0
H510 H 0.64679 0.39611 0.95503 0.0
H511 H 0.54522 0.47664 0.91221 0.0
O512 O 0.60562 0.34896 0.90076 0.0
C513 C 0.69519 0.4488 0.89063 0.0
O514 O 0.66178 0.47101 0.87623 0.0
N515 N 0.56368 0.41151 0.86261 0.0
C516 C 0.51412 0.42946 0.80661 0.0
C517 C 0.51423 0.38776 0.81908 0.0
C518 C 0.5393 0.37931 0.8478 0.0
C519 C 0.55724 0.45297 0.85298 0.0
C520 C 0.53011 0.463 0.82577 0.0
H521 H 0.54491 0.34636 0.85446 0.0
H522 H 0.57862 0.47806 0.8631 0.0
H523 H 0.61529 0.3148 0.83908 0.0
H524 H 0.69655 0.38071 0.76888 0.0
H525 H 0.60104 0.43618 0.00277 0.0
H526 H 0.50091 0.36146 0.80453 0.0
H527 H 0.52998 0.49548 0.8163 0.0
C528 C 0.07537 0.0771 0.22367 0.0
C529 C 0.03492 0.06778 0.20558 0.0
C530 C 0.98671 0.06443 0.2548 0.0
C531 C 0.02556 0.08038 0.27247 0.0
N532 N 0.11084 0.08255 0.2772 0.0
N533 N 0.96034 0.03179 0.20392 0.0
C534 C 0.07144 0.08018 0.25815 0.0
C535 C 0.99365 0.0532 0.22149 0.0
N536 N 0.11587 0.08727 0.20738 0.0
N537 N 0.94341 0.06198 0.26922 0.0
H538 H 0.96565 0.02345 0.17931 0.0
H539 H 0.93019 1.01873 0.21451 0.0
H540 H 0.93774 0.06962 0.29395 0.0
H541 H 0.91287 0.05469 0.25624 0.0
H542 H 0.14523 0.10047 0.21883 0.0
H543 H 0.11862 0.08389 0.18178 0.0
H544 H 0.14454 0.07803 0.26781 0.0
H545 H 0.10988 0.08441 0.30273 0.0
C546 C 0.4132 0.97865 0.19206 0.0
C547 C 0.45053 1.0016 0.17799 0.0
C548 C 0.49184 1.0052 0.22939 0.0
C549 C 0.46265 0.97176 0.24118 0.0
N550 N 0.38313 0.94381 0.24135 0.0
N551 N 0.49261 0.06565 0.19176 0.0
C552 C 0.41872 0.96401 0.22508 0.0
C553 C 0.47806 0.02562 0.19995 0.0
N554 N 0.37721 0.96599 0.17227 0.0
N555 N 0.53288 1.01583 0.24468 0.0
H556 H 0.48073 0.08057 0.17015 0.0
H557 H 0.51211 0.08452 0.2079 0.0
H558 H 0.54546 0.9997 0.26551 0.0
H559 H 0.5559 0.03846 0.23476 0.0
H560 H 0.35084 0.94498 0.17971 0.0
H561 H 0.37552 0.97633 0.14768 0.0
H562 H 0.3499 0.93899 0.23128 0.0
H563 H 0.38604 0.93552 0.26618 0.0
C564 C 0.9761 0.0215 0.70404 0.0
C565 C 0.02209 1.01154 0.69324 0.0
C566 C 0.04856 1.01524 0.74988 0.0
C567 C 1.00193 1.00538 0.75971 0.0
N568 N 0.91943 1.00977 0.74822 0.0
N569 N 0.10438 1.00941 0.70488 0.0
C570 C 0.96471 1.0131 0.73756 0.0
C571 C 0.05941 1.01374 0.71586 0.0
N572 N 0.94336 0.03463 0.68164 0.0
N573 N 0.08196 0.02452 0.77285 0.0
H574 H 0.11182 1.00825 0.67962 0.0
H575 H 0.13308 1.00543 0.72062 0.0
H576 H 0.07421 0.0264 0.79794 0.0
H577 H 0.11589 0.03413 0.76656 0.0
H578 H 0.90937 0.04362 0.68815 0.0
H579 H 0.95219 0.03943 0.65685 0.0
H580 H 0.89045 1.0119 0.73257 0.0
H581 H 0.91156 1.0041 0.77307 0.0
C582 C 0.57434 0.03424 0.74648 0.0
C583 C 0.52947 0.03479 0.7314 0.0
C584 C 0.49551 1.01255 0.78362 0.0
C585 C 0.53422 0.03239 0.79904 0.0
N586 N 0.61681 0.04484 0.798 0.0
N587 N 0.44796 1.01416 0.73369 0.0
C588 C 0.57659 0.03532 0.78141 0.0
C589 C 0.49029 1.01879 0.74903 0.0
N590 N 0.61356 0.03408 0.72727 0.0
N591 N 0.46099 0.99545 0.8028 0.0
H592 H 0.44406 1.01888 0.7083 0.0
H593 H 0.41703 1.00679 0.74623 0.0
H594 H 0.46441 0.99471 0.82852 0.0
H595 H 0.43163 0.97998 0.79321 0.0
H596 H 0.64757 0.03259 0.73672 0.0
H597 H 0.61094 0.03127 0.70164 0.0
H598 H 0.64856 0.05197 0.78643 0.0
H599 H 0.61703 0.04635 0.82379 0.0
C600 C 0.49973 0.56824 0.24365 0.0
C601 C 0.53959 0.58561 0.25918 0.0
C602 C 0.58375 0.58454 0.20757 0.0
C603 C 0.54231 0.57164 0.19176 0.0
N604 N 0.47118 0.52978 0.1963 0.0
N605 N 0.62431 0.59542 0.25909 0.0
C606 C 0.5038 0.55585 0.21043 0.0
C607 C 0.58345 0.58859 0.24223 0.0
N608 N 0.45805 0.56473 0.2602 0.0
N609 N 0.6217 0.59607 0.18893 0.0
H610 H 0.62553 0.60039 0.28443 0.0
H611 H 0.6574 0.59362 0.24821 0.0
H612 H 0.62204 0.59175 0.16336 0.0
H613 H 0.65148 0.61092 0.19845 0.0
H614 H 0.4266 0.55654 0.24867 0.0
H615 H 0.45431 0.57299 0.28499 0.0
H616 H 0.44381 0.51566 0.20953 0.0
H617 H 0.47488 0.51791 0.17251 0.0
C618 C 0.91308 0.52451 0.24826 0.0
C619 C 0.95019 0.52307 0.27118 0.0
C620 C 0.00694 0.52088 0.22692 0.0
C621 C 0.96992 0.50635 0.20632 0.0
N622 N 0.88726 0.50187 0.19406 0.0
N623 N 0.03065 0.53648 0.28347 0.0
C624 C 0.92249 0.51208 0.21547 0.0
C625 C 0.99668 0.52883 0.2605 0.0
N626 N 0.86901 0.53377 0.25906 0.0
N627 N 0.05167 0.52311 0.2148 0.0
H628 H 0.02179 0.5414 0.30821 0.0
H629 H 0.06641 0.53825 0.27835 0.0
H630 H 0.05917 0.51689 0.19005 0.0
H631 H 0.08063 0.5329 0.22847 0.0
H632 H 0.83996 0.53671 0.24355 0.0
H633 H 0.86337 0.54225 0.28361 0.0
H634 H 0.85188 0.50128 0.2006 0.0
H635 H 0.89396 0.49293 0.16973 0.0
C636 C 0.46495 0.43842 0.75681 0.0
C637 C 0.50992 0.43592 0.77106 0.0
C638 C 0.54705 0.42962 0.71702 0.0
C639 C 0.50213 0.4328 0.70269 0.0
N640 N 0.41912 0.45018 0.70775 0.0
N641 N 0.59472 0.44025 0.76532 0.0
C642 C 0.46133 0.44071 0.72217 0.0
C643 C 0.55136 0.43534 0.75135 0.0
N644 N 0.42574 0.43692 0.77633 0.0
N645 N 0.58518 0.41948 0.69804 0.0
H646 H 0.60001 0.4435 0.79054 0.0
H647 H 0.62532 0.44474 0.75163 0.0
H648 H 0.5835 0.41696 0.67237 0.0
H649 H 0.61768 0.41084 0.70788 0.0
H650 H 0.39191 0.43241 0.76714 0.0
H651 H 0.42724 0.43747 0.80208 0.0
H652 H 0.39015 0.46127 0.72084 0.0
H653 H 0.41345 0.45019 0.68246 0.0
C654 C 0.93134 0.5273 0.77984 0.0
C655 C 0.96643 0.52856 0.80428 0.0
C656 C 0.02627 0.5413 0.76293 0.0
C657 C 0.98951 0.55458 0.74129 0.0
N658 N 0.90747 0.55344 0.72584 0.0
N659 N 0.0465 0.51871 0.81904 0.0
C660 C 0.94201 0.54438 0.7483 0.0
C661 C 0.01399 0.52756 0.79521 0.0
N662 N 0.88744 0.51371 0.78826 0.0
N663 N 0.07212 0.54342 0.75294 0.0
H664 H 0.03589 0.5097 0.84281 0.0
H665 H 0.08268 0.51994 0.81559 0.0
H666 H 0.082 0.55386 0.72942 0.0
H667 H 0.10042 0.53339 0.76728 0.0
H668 H 0.85996 0.51046 0.77148 0.0
H669 H 0.88026 0.50241 0.81207 0.0
H670 H 0.87177 0.55014 0.73079 0.0
H671 H 0.91459 0.56596 0.70241 0.0
C672 C 0.19533 0.26105 0.26136 0.0
C673 C 0.15795 0.23126 0.26541 0.0
C674 C 0.1092 0.27627 0.22825 0.0
C675 C 0.14807 0.3036 0.22159 0.0
N676 N 0.23035 0.31794 0.22819 0.0
N677 N 0.08201 0.20687 0.24776 0.0
C678 C 0.19181 0.29464 0.23713 0.0
C679 C 0.11562 0.23792 0.2474 0.0
N680 N 0.23328 0.25863 0.28192 0.0
N681 N 0.06552 0.28807 0.21771 0.0
H682 H 0.08639 0.17805 0.26047 0.0
H683 H 0.05198 0.20801 0.23308 0.0
H684 H 0.05953 0.31644 0.20483 0.0
H685 H 0.0349 0.27204 0.22449 0.0
H686 H 0.25969 0.28164 0.28255 0.0
H687 H 0.23596 0.23582 0.30072 0.0
H688 H 0.2643 0.31074 0.23608 0.0
H689 H 0.22877 0.34217 0.21038 0.0
C690 C 0.3862 0.75408 0.22456 0.0
C691 C 0.35182 0.72129 0.22411 0.0
C692 C 0.31031 0.75799 0.26965 0.0
C693 C 0.34295 0.79227 0.26805 0.0
N694 N 0.40414 0.8276 0.23763 0.0
N695 N 0.27839 0.69377 0.24392 0.0
C696 C 0.37854 0.79163 0.24356 0.0
C697 C 0.31294 0.72384 0.24606 0.0
N698 N 0.42765 0.74832 0.20831 0.0
N699 N 0.27731 0.75795 0.29408 0.0
H700 H 0.2801 0.66871 0.22708 0.0
H701 H 0.247 0.69512 0.25705 0.0
H702 H 0.27442 0.78299 0.31087 0.0
H703 H 0.25477 0.73248 0.29886 0.0
H704 H 0.45597 0.76927 0.21024 0.0
H705 H 0.43538 0.72023 0.19582 0.0
H706 H 0.42749 0.83063 0.21793 0.0
H707 H 0.39784 0.85584 0.25027 0.0
C708 C 0.64333 0.74031 0.23349 0.0
C709 C 0.65239 0.74933 0.26735 0.0
C710 C 0.64243 0.82591 0.25357 0.0
C711 C 0.64304 0.81712 0.21905 0.0
N712 N 0.65275 0.76382 0.17676 0.0
N713 N 0.66695 0.80311 0.3084 0.0
C714 C 0.64552 0.77367 0.20913 0.0
C715 C 0.65333 0.79286 0.27714 0.0
N716 N 0.63073 0.69999 0.22467 0.0
N717 N 0.62992 0.86566 0.26399 0.0
H718 H 0.67733 0.78023 0.32574 0.0
H719 H 0.67246 0.83448 0.31593 0.0
H720 H 0.61915 0.8896 0.24758 0.0
H721 H 0.62489 0.87308 0.28879 0.0
H722 H 0.61973 0.69222 0.20088 0.0
H723 H 0.62543 0.67601 0.24221 0.0
H724 H 0.65885 0.73271 0.1688 0.0
H725 H 0.65789 0.78692 0.15849 0.0
C726 C 0.86175 0.24263 0.27919 0.0
C727 C 0.84456 0.28422 0.27188 0.0
C728 C 0.83053 0.26156 0.21428 0.0
C729 C 0.85128 0.22108 0.22105 0.0
N730 N 0.89957 0.17912 0.25797 0.0
N731 N 0.82341 0.33602 0.23029 0.0
C732 C 0.87066 0.21339 0.25299 0.0
C733 C 0.83207 0.29448 0.23873 0.0
N734 N 0.86784 0.2303 0.31131 0.0
N735 N 0.80759 0.26813 0.18508 0.0
H736 H 0.8259 0.36083 0.24726 0.0
H737 H 0.81863 0.34627 0.20597 0.0
H738 H 0.80443 0.24448 0.16722 0.0
H739 H 0.78808 0.29554 0.17993 0.0
H740 H 0.87607 0.19906 0.31825 0.0
H741 H 0.85979 0.25013 0.33111 0.0
H742 H 0.91776 0.17381 0.27998 0.0
H743 H 0.90988 0.15903 0.23885 0.0
C744 C 0.89181 0.76311 0.7601 0.0
C745 C 0.85602 0.76703 0.78432 0.0
C746 C 0.82733 0.83184 0.75561 0.0
C747 C 0.86565 0.83023 0.73329 0.0
N748 N 0.94086 0.7997 0.71995 0.0
N749 N 0.79674 0.81108 0.80929 0.0
C750 C 0.89969 0.79723 0.73703 0.0
C751 C 0.82566 0.80311 0.78317 0.0
N752 N 0.91733 0.72627 0.75838 0.0
N753 N 0.79198 0.86047 0.75003 0.0
H754 H 0.79679 0.79221 0.83063 0.0
H755 H 0.77674 0.83881 0.81134 0.0
H756 H 0.79203 0.88128 0.72977 0.0
H757 H 0.76084 0.86071 0.76354 0.0
H758 H 0.9408 0.71988 0.73929 0.0
H759 H 0.91187 0.70051 0.77439 0.0
H760 H 0.96893 0.77887 0.72383 0.0
H761 H 0.9487 0.82547 0.70459 0.0
C762 C 0.61117 0.2964 0.75308 0.0
C763 C 0.6517 0.30023 0.77333 0.0
C764 C 0.68948 0.24293 0.74106 0.0
C765 C 0.64704 0.23534 0.72336 0.0
N766 N 0.5656 0.25392 0.71469 0.0
N767 N 0.72808 0.27479 0.78867 0.0
C768 C 0.60744 0.26211 0.72978 0.0
C769 C 0.69047 0.27276 0.76779 0.0
N770 N 0.57663 0.32645 0.75562 0.0
N771 N 0.72958 0.22276 0.73117 0.0
H772 H 0.7296 0.29642 0.80815 0.0
H773 H 0.75576 0.25304 0.7884 0.0
H774 H 0.73034 0.2026 0.71076 0.0
H775 H 0.7627 0.22927 0.74083 0.0
H776 H 0.5485 0.32919 0.73928 0.0
H777 H 0.57822 0.35088 0.7729 0.0
H778 H 0.53434 0.26939 0.7204 0.0
H779 H 0.56128 0.22983 0.69755 0.0
C780 C 0.30722 0.27937 0.71033 0.0
C781 C 0.34566 0.30747 0.70537 0.0
C782 C 0.39203 0.26588 0.74586 0.0
C783 C 0.35265 0.23913 0.7523 0.0
N784 N 0.2707 0.2243 0.74455 0.0
N785 N 0.42154 0.33246 0.72249 0.0
C786 C 0.30962 0.24703 0.73553 0.0
C787 C 0.38709 0.30225 0.72454 0.0
N788 N 0.26867 0.2834 0.69047 0.0
N789 N 0.43484 0.25504 0.7586 0.0
H790 H 0.41888 0.35871 0.70665 0.0
H791 H 0.45062 0.33341 0.7381 0.0
H792 H 0.44021 0.22707 0.77211 0.0
H793 H 0.46573 0.27149 0.7534 0.0
H794 H 0.24101 0.26166 0.69025 0.0
H795 H 0.26591 0.30738 0.67251 0.0
H796 H 0.2371 0.23055 0.73558 0.0
H797 H 0.27152 0.20123 0.76329 0.0
C798 C 0.12095 0.74039 0.73755 0.0
C799 C 0.15702 0.73542 0.7138 0.0
C800 C 0.18974 0.80521 0.73036 0.0
C801 C 0.15079 0.81215 0.75169 0.0
N802 N 0.07419 0.78887 0.76978 0.0
N803 N 0.22358 0.76432 0.68512 0.0
C804 C 0.11515 0.78026 0.75383 0.0
C805 C 0.19079 0.76833 0.70948 0.0
N806 N 0.09243 0.70662 0.74504 0.0
N807 N 0.22652 0.83316 0.73105 0.0
H808 H 0.22558 0.73719 0.67034 0.0
H809 H 0.24652 0.78868 0.67819 0.0
H810 H 0.2271 0.85951 0.74669 0.0
H811 H 0.25791 0.82838 0.71842 0.0
H812 H 0.06868 0.70662 0.7646 0.0
H813 H 0.09542 0.67708 0.73361 0.0
H814 H 0.04461 0.76931 0.76881 0.0
H815 H 0.06841 0.81751 0.78157 0.0
C816 C 0.99786 0.07378 0.488 0.0
C817 C 0.04362 0.057 0.48339 0.0
C818 C 0.0212 0.99092 0.51172 0.0
C819 C 0.97435 1.00646 0.5143 0.0
N820 N 0.91624 0.05982 0.50252 0.0
N821 N 0.09776 0.99826 0.48605 0.0
C822 C 0.96219 0.04728 0.50185 0.0
C823 C 0.05511 1.0153 0.4942 0.0
N824 N 0.98914 0.1153 0.47944 0.0
N825 N 0.03348 0.9531 0.52642 0.0
H826 H 0.12348 1.01541 0.4733 0.0
H827 H 0.10655 0.96628 0.48966 0.0
H828 H 0.00948 0.93286 0.53789 0.0
H829 H 0.0681 0.94292 0.52923 0.0
H830 H 0.95758 0.13094 0.48406 0.0
H831 H 0.0152 0.13519 0.46975 0.0
H832 H 0.9037 0.08752 0.49121 0.0
H833 H 0.88986 0.04075 0.51282 0.0
C834 C 0.52646 0.02097 0.45546 0.0
C835 C 0.50255 0.98246 0.46295 0.0
C836 C 0.51012 0.99605 0.52213 0.0
C837 C 0.53504 0.03404 0.51465 0.0
N838 N 0.57176 0.08132 0.47573 0.0
N839 N 0.47597 0.92995 0.50214 0.0
C840 C 0.54491 0.04591 0.48164 0.0
C841 C 0.49559 0.96902 0.49601 0.0
N842 N 0.53021 0.03381 0.42323 0.0
N843 N 0.49906 0.98696 0.55424 0.0
H844 H 0.46364 0.91036 0.48329 0.0
H845 H 0.47394 0.91598 0.5255 0.0
H846 H 0.51114 1.00544 0.57384 0.0
H847 H 0.47656 0.96244 0.56149 0.0
H848 H 0.54431 0.06292 0.41567 0.0
H849 H 0.51636 1.01607 0.40379 0.0
H850 H 0.58331 0.09083 0.45245 0.0
H851 H 0.58514 0.09996 0.49484 0.0
C852 C 0.51636 0.05799 0.96637 0.0
C853 C 0.46869 0.04569 0.96215 0.0
C854 C 0.48171 0.98215 -0.00385 0.0
C855 C 0.53001 0.99294 -0.00142 0.0
N856 N 0.59519 0.03715 0.98286 0.0
N857 N 0.40663 0.99471 0.96909 0.0
C858 C 0.54791 0.02964 0.98253 0.0
C859 C 0.45164 1.00714 0.97577 0.0
N860 N 0.53088 0.0975 0.95612 0.0
N861 N 0.46451 0.94887 0.01431 0.0
H862 H 0.38372 1.0134 0.95495 0.0
H863 H 0.39297 0.96498 0.97559 0.0
H864 H 0.48609 0.93041 0.02932 0.0
H865 H 0.42897 0.94148 0.01637 0.0
H866 H 0.56387 0.1101 0.96135 0.0
H867 H 0.50861 0.11938 0.94463 0.0
H868 H 0.61144 0.06084 0.96876 0.0
H869 H 0.61877 1.01749 -0.00446 0.0
C870 C 0.96802 0.04895 0.97299 0.0
C871 C 0.98606 0.05244 0.00525 0.0
C872 C 0.05151 1.0049 0.99169 0.0
C873 C 0.03181 0.99921 0.96009 0.0
N874 N 0.96872 1.01105 0.92123 0.0
N875 N 0.04102 0.03115 0.0474 0.0
C876 C 0.98934 1.02006 0.95083 0.0
C877 C 0.0268 0.02957 0.01521 0.0
N878 N 0.93146 0.07449 0.96341 0.0
N879 N 0.09384 0.98644 -0.00109 0.0
H880 H 0.02314 0.04884 0.06505 0.0
H881 H 0.06817 1.0128 0.05726 0.0
H882 H 0.11197 0.96774 0.9819 0.0
H883 H 0.11255 0.99184 0.02057 0.0
H884 H 0.91983 0.07734 0.93911 0.0
H885 H 0.91438 0.09496 0.97973 0.0
H886 H 0.93511 0.02109 0.91462 0.0
H887 H 0.98421 0.99125 0.90388 0.0
C888 C 0.49321 0.55281 0.46789 0.0
C889 C 0.54178 0.54295 0.46784 0.0
C890 C 0.52673 0.47698 0.49861 0.0
C891 C 0.47787 0.48525 0.49642 0.0
N892 N 0.41333 0.52804 0.47706 0.0
N893 N 0.60536 0.4949 0.47979 0.0
C894 C 0.46071 0.52228 0.48029 0.0
C895 C 0.55876 0.50484 0.48244 0.0
N896 N 0.47876 0.59222 0.45748 0.0
N897 N 0.54222 0.44268 0.51654 0.0
H898 H 0.62949 0.51504 0.46812 0.0
H899 H 0.6197 0.46576 0.48713 0.0
H900 H 0.5193 0.42044 0.52692 0.0
H901 H 0.57732 0.43738 0.52255 0.0
H902 H 0.44428 0.6031 0.459 0.0
H903 H 0.50253 0.61563 0.45005 0.0
H904 H 0.39819 0.55217 0.4628 0.0
H905 H 0.38892 0.5068 0.48716 0.0
C906 C 0.007 0.54593 0.49193 0.0
C907 C 0.01432 0.52929 0.52403 0.0
C908 C 0.98865 0.45858 0.50641 0.0
C909 C 0.97885 0.47584 0.47482 0.0
N910 N 0.97253 0.53574 0.4377 0.0
N911 N 0.00704 0.47243 0.56388 0.0
C912 C 0.98614 0.51965 0.46768 0.0
C913 C 1.0039 0.4862 0.53186 0.0
N914 N 0.02061 0.58687 0.48496 0.0
N915 N 0.98457 0.41558 0.51152 0.0
H916 H 0.01923 0.49193 0.58284 0.0
H917 H 0.99524 0.44269 0.572 0.0
H918 H 0.97192 0.39507 0.49334 0.0
H919 H 0.9958 0.40001 0.53292 0.0
H920 H 0.01981 0.60044 0.46144 0.0
H921 H 0.03611 0.60644 0.50267 0.0
H922 H 0.9734 0.56802 0.43148 0.0
H923 H 0.95689 0.51682 0.41965 0.0
C924 C 0.98243 0.51416 0.02397 0.0
C925 C 0.03179 0.52058 0.02306 0.0
C926 C 0.02022 0.58816 -0.00684 0.0
C927 C 0.97112 0.58016 -0.00774 0.0
N928 N 0.90746 0.53004 -0.00122 0.0
N929 N 0.09855 0.5592 0.00265 0.0
C930 C 0.95264 0.54184 0.00576 0.0
C931 C 0.05099 0.55642 0.00646 0.0
N932 N 0.9639 0.48107 0.04183 0.0
N933 N 0.03706 0.62647 0.98202 0.0
H934 H 0.12141 0.53646 0.01268 0.0
H935 H 0.11496 0.58202 0.98782 0.0
H936 H 0.0151 0.65047 0.97284 0.0
H937 H 0.07205 0.63575 0.98418 0.0
H938 H 0.9283 0.47877 0.04759 0.0
H939 H 0.98425 0.45705 0.05244 0.0
H940 H 0.89329 0.50053 0.00539 0.0
H941 H 0.88563 0.54741 0.98298 0.0
C942 C 0.48122 0.48312 0.9772 0.0
C943 C 0.52996 0.49257 0.97884 0.0
C944 C 0.51347 0.55394 0.01385 0.0
C945 C 0.46458 0.54739 0.00895 0.0
N946 N 0.40119 0.50877 0.98416 0.0
N947 N 0.59234 0.54029 -0.0059 0.0
C948 C 0.44822 0.51273 0.99008 0.0
C949 C 0.54609 0.52884 -0.00396 0.0
N950 N 0.46686 0.44507 0.96449 0.0
N951 N 0.52863 0.58344 0.03616 0.0
H952 H 0.61693 0.52295 0.9806 0.0
H953 H 0.60544 0.5689 0.00329 0.0
H954 H 0.5058 0.60237 0.04982 0.0
H955 H 0.56362 0.58645 0.04335 0.0
H956 H 0.43219 0.43448 0.96499 0.0
H957 H 0.49061 0.42229 0.9562 0.0
H958 H 0.38702 0.48667 0.96784 0.0
H959 H 0.37653 0.52978 -0.00592 0.0
C960 C 0.26833 0.04024 0.41476 0.0
C961 C 0.23985 0.04277 0.38581 0.0
C962 C 0.26529 0.96956 0.37177 0.0
C963 C 0.29974 0.9701 0.39655 0.0
N964 N 0.33149 1.00368 0.44448 0.0
N965 N 0.22088 1.01139 0.33272 0.0
C966 C 0.30037 1.00495 0.41892 0.0
C967 C 0.24125 1.0078 0.3632 0.0
N968 N 0.26363 0.07028 0.43878 0.0
N969 N 0.25565 0.93209 0.35623 0.0
H970 H 0.2045 0.03914 0.32436 0.0
H971 H 0.2248 0.98837 0.31444 0.0
H972 H 0.27201 0.90361 0.36336 0.0
H973 H 0.22819 0.92862 0.33939 0.0
H974 H 0.27935 0.06784 0.46194 0.0
H975 H 0.24214 0.09696 0.43611 0.0
H976 H 0.33913 0.0297 0.45944 0.0
H977 H 0.34924 0.97554 0.45056 0.0
C978 C 0.80353 1.0014 0.11636 0.0
C979 C 0.80659 0.03799 0.09454 0.0
C980 C 0.73955 1.00805 0.06346 0.0
C981 C 0.73766 0.97195 0.08508 0.0
N982 N 0.77774 0.92794 0.12433 0.0
N983 N 0.78497 0.06736 0.04126 0.0
C984 C 0.77346 0.96643 0.10855 0.0
C985 C 0.77678 0.03878 0.06624 0.0
N986 N 0.82657 1.00064 0.146 0.0
N987 N 0.70457 1.01352 0.04074 0.0
H988 H 0.81277 0.08897 0.04148 0.0
H989 H 0.76713 0.06671 0.01879 0.0
H990 H 0.67906 0.99017 0.03671 0.0
H991 H 0.69985 0.04158 0.02713 0.0
H992 H 0.82064 0.97739 0.16406 0.0
H993 H 0.84768 0.025 0.15463 0.0
H994 H 0.806 0.9202 0.13964 0.0
H995 H 0.75576 0.90222 0.11896 0.0
C996 C 0.73072 0.03769 0.57712 0.0
C997 C 0.71925 0.06301 0.60502 0.0
C998 C 0.77268 1.01916 0.63894 0.0
C999 C 0.7867 0.99517 0.61096 0.0
N1000 N 0.78421 0.98641 0.55192 0.0
N1001 N 0.74125 0.08605 0.65907 0.0
C1002 C 0.76703 1.0057 0.57953 0.0
C1003 C 0.74417 0.05618 0.63481 0.0
N1004 N 0.7067 0.04425 0.54837 0.0
N1005 N 0.786 1.00595 0.6698 0.0
H1006 H 0.72357 0.11484 0.65515 0.0
H1007 H 0.76101 0.08481 0.68074 0.0
H1008 H 0.80537 0.97807 0.6738 0.0
H1009 H 0.77358 1.01992 0.69139 0.0
H1010 H 0.70872 0.02395 0.52816 0.0
H1011 H 0.68394 0.07014 0.54531 0.0
H1012 H 0.77525 0.99573 0.528 0.0
H1013 H 0.8095 0.96232 0.55303 0.0
C1014 C 0.2678 0.04311 0.89722 0.0
C1015 C 0.27835 0.06789 0.86852 0.0
C1016 C 0.22954 1.01942 0.83564 0.0
C1017 C 0.21504 0.9969 0.86452 0.0
N1018 N 0.21567 0.99158 0.92389 0.0
N1019 N 0.26006 0.0853 0.81221 0.0
C1020 C 0.23292 1.00991 0.89572 0.0
C1021 C 0.25596 0.05782 0.83839 0.0
N1022 N 0.29209 0.05057 0.92568 0.0
N1023 N 0.21922 1.00312 0.80528 0.0
H1024 H 0.27781 0.11435 0.81419 0.0
H1025 H 0.24162 0.0817 0.79016 0.0
H1026 H 0.20237 0.9738 0.80251 0.0
H1027 H 0.23206 1.01594 0.78325 0.0
H1028 H 0.29027 0.03074 0.94641 0.0
H1029 H 0.31578 0.07586 0.92783 0.0
H1030 H 0.22329 1.00279 0.94746 0.0
H1031 H 0.19159 0.96647 0.92349 0.0
C1032 C 0.79472 0.51076 0.36972 0.0
C1033 C 0.78806 0.48504 0.39873 0.0
C1034 C 0.74537 0.54623 0.42354 0.0
C1035 C 0.75213 0.57085 0.3946 0.0
N1036 N 0.79622 0.58199 0.34536 0.0
N1037 N 0.73942 0.47543 0.4474 0.0
C1038 C 0.78186 0.55482 0.36981 0.0
C1039 C 0.7591 0.50214 0.42445 0.0
N1040 N 0.80659 0.49221 0.34046 0.0
N1041 N 0.72562 0.56545 0.45023 0.0
H1042 H 0.73985 0.44234 0.44513 0.0
H1043 H 0.71594 0.48555 0.46543 0.0
H1044 H 0.71815 0.59808 0.4499 0.0
H1045 H 0.72245 0.55091 0.47334 0.0
H1046 H 0.80756 0.50895 0.31817 0.0
H1047 H 0.807 0.45933 0.33703 0.0
H1048 H 0.82149 0.57383 0.32791 0.0
H1049 H 0.78635 0.61416 0.3452 0.0
C1050 C 0.26071 0.5401 0.07784 0.0
C1051 C 0.27832 0.5567 0.10807 0.0
C1052 C 0.24118 0.49667 0.1378 0.0
C1053 C 0.21872 0.48297 0.10852 0.0
N1054 N 0.20365 0.49404 0.05064 0.0
N1055 N 0.27722 0.55513 0.16746 0.0
C1056 C 0.22767 0.50531 0.07842 0.0
C1057 C 0.26583 0.53622 0.1382 0.0
N1058 N 0.27667 0.55659 0.04863 0.0
N1059 N 0.239 0.47136 0.16538 0.0
H1060 H 0.29398 0.58476 0.16847 0.0
H1061 H 0.26578 0.54383 0.19034 0.0
H1062 H 0.22237 0.44163 0.16521 0.0
H1063 H 0.25777 0.47751 0.18692 0.0
H1064 H 0.26949 0.54296 0.02578 0.0
H1065 H 0.29919 0.58287 0.04755 0.0
H1066 H 0.20447 0.51175 0.02877 0.0
H1067 H 0.18134 0.4676 0.0501 0.0
C1068 C 0.25782 0.51012 0.55753 0.0
C1069 C 0.26501 0.47413 0.57878 0.0
C1070 C 0.2137 0.50722 0.61923 0.0
C1071 C 0.20102 0.54104 0.59691 0.0
N1072 N 0.2066 0.56875 0.54106 0.0
N1073 N 0.23663 0.4332 0.62496 0.0
C1074 C 0.22173 0.54089 0.56484 0.0
C1075 C 0.23779 0.4707 0.60761 0.0
N1076 N 0.28633 0.5154 0.53072 0.0
N1077 N 0.20611 0.51117 0.65234 0.0
H1078 H 0.25333 0.40566 0.61661 0.0
H1079 H 0.21471 0.42846 0.6453 0.0
H1080 H 0.19476 0.53959 0.66272 0.0
H1081 H 0.21778 0.48874 0.66967 0.0
H1082 H 0.28696 0.54328 0.5165 0.0
H1083 H 0.31094 0.49235 0.52385 0.0
H1084 H 0.21751 0.56708 0.51654 0.0
H1085 H 0.18045 0.59133 0.5451 0.0
C1086 C 0.7411 0.50439 0.91948 0.0
C1087 C 0.74027 0.47217 0.89506 0.0
C1088 C 0.7763 0.52144 0.85588 0.0
C1089 C 0.78105 0.55397 0.88035 0.0
N1090 N 0.76495 0.57495 0.937 0.0
N1091 N 0.77357 0.4454 0.84532 0.0
C1092 C 0.76334 0.54479 0.91286 0.0
C1093 C 0.76506 0.47906 0.86559 0.0
N1094 N 0.71709 0.49717 0.94816 0.0
N1095 N 0.77646 0.53147 0.82299 0.0
H1096 H 0.76404 0.41432 0.85214 0.0
H1097 H 0.79383 0.44817 0.82394 0.0
H1098 H 0.77317 0.56275 0.81431 0.0
H1099 H 0.77099 0.50878 0.80464 0.0
H1100 H 0.70994 0.52054 0.96561 0.0
H1101 H 0.70322 0.46712 0.95378 0.0
H1102 H 0.76104 0.56773 0.962 0.0
H1103 H 0.76797 0.60749 0.93215 0.0
C1104 C 0.0446 0.25729 0.43332 0.0
C1105 C 0.07461 0.24433 0.40742 0.0
C1106 C 0.03116 0.28862 0.36825 0.0
C1107 C 0.99693 0.29705 0.39307 0.0
N1108 N 0.98559 0.30753 0.45173 0.0
N1109 N 0.11294 0.27035 0.35871 0.0
C1110 C 0.00825 0.28724 0.42658 0.0
C1111 C 0.07348 0.26755 0.37753 0.0
N1112 N 0.04967 0.23918 0.46388 0.0
N1113 N 0.02282 0.29806 0.33583 0.0
H1114 H 0.14457 0.25664 0.36649 0.0
H1115 H 0.11502 0.28951 0.33757 0.0
H1116 H 0.99195 0.31219 0.32742 0.0
H1117 H 0.04543 0.2885 0.317 0.0
H1118 H 0.02535 0.24294 0.48287 0.0
H1119 H 0.07789 0.21897 0.46943 0.0
H1120 H 0.99483 0.30369 0.47648 0.0
H1121 H 0.96152 0.33214 0.44757 0.0
C1122 C 0.50533 0.79874 0.42432 0.0
C1123 C 0.47522 0.78471 0.39886 0.0
C1124 C 0.51651 0.71683 0.39944 0.0
C1125 C 0.55642 0.73758 0.41294 0.0
N1126 N 0.58174 0.79224 0.45077 0.0
N1127 N 0.44613 0.72647 0.36662 0.0
C1128 C 0.5486 0.77671 0.4297 0.0
C1129 C 0.4783 0.74205 0.38836 0.0
N1130 N 0.49185 0.83239 0.44321 0.0
N1131 N 0.5138 0.67353 0.39919 0.0
H1132 H 0.41684 0.74439 0.35939 0.0
H1133 H 0.44974 0.69681 0.35532 0.0
H1134 H 0.53944 0.65489 0.41048 0.0
H1135 H 0.48386 0.65704 0.39164 0.0
H1136 H 0.51073 0.8432 0.46354 0.0
H1137 H 0.45899 0.84668 0.43997 0.0
H1138 H 0.58057 0.82287 0.46061 0.0
H1139 H 0.60999 0.77367 0.45886 0.0
C1140 C 0.47802 0.81591 0.05796 0.0
C1141 C 0.52233 0.81442 0.07454 0.0
C1142 C 0.50222 0.74095 0.08975 0.0
C1143 C 0.45374 0.75025 0.08537 0.0
N1144 N 0.39569 0.79657 0.06116 0.0
N1145 N 0.5797 0.76867 0.10158 0.0
C1146 C 0.44158 0.78774 0.06803 0.0
C1147 C 0.53571 0.77485 0.08912 0.0
N1148 N 0.47182 0.84257 0.03157 0.0
N1149 N 0.51665 0.69959 0.09064 0.0
H1150 H 0.60732 0.78983 0.09758 0.0
H1151 H 0.58831 0.74192 0.11587 0.0
H1152 H 0.49353 0.67517 0.08434 0.0
H1153 H 0.5519 0.69063 0.09192 0.0
H1154 H 0.44096 0.8433 0.01767 0.0
H1155 H 0.50016 0.85903 0.02118 0.0
H1156 H 0.38495 0.82569 0.05098 0.0
H1157 H 0.36869 0.77522 0.06698 0.0
C1158 C 0.97938 0.26006 0.05652 0.0
C1159 C 0.93913 0.25877 0.07704 0.0
C1160 C 0.96144 0.32853 0.09751 0.0
C1161 C 0.00891 0.3199 0.08858 0.0
N1162 N 0.06177 0.28058 0.05376 0.0
N1163 N 0.88485 0.29786 0.10983 0.0
C1164 C 0.01752 0.28723 0.06544 0.0
C1165 C 0.92703 0.29609 0.09397 0.0
N1166 N 0.98174 0.23319 0.03036 0.0
N1167 N 0.94982 0.36763 0.10923 0.0
H1168 H 0.86003 0.27353 0.10705 0.0
H1169 H 0.87573 0.32188 0.12631 0.0
H1170 H 0.97412 0.39218 0.10821 0.0
H1171 H 0.91565 0.37681 0.11506 0.0
H1172 H 0.00952 0.23326 0.01359 0.0
H1173 H 0.95317 0.21373 0.02441 0.0
H1174 H 0.07064 0.25446 0.03922 0.0
H1175 H 0.08962 0.30081 0.0597 0.0
C1176 C 0.9492 0.76587 0.57604 0.0
C1177 C 0.96628 0.80517 0.58777 0.0
C1178 C 0.04557 0.77518 0.59277 0.0
C1179 C 0.02651 0.73436 0.58692 0.0
N1180 N 0.96958 0.69526 0.55586 0.0
N1181 N 0.03273 0.85192 0.59009 0.0
C1182 C 0.98139 0.73146 0.57228 0.0
C1183 C 0.01554 0.81139 0.58997 0.0
N1184 N 0.90228 0.76088 0.57061 0.0
N1185 N 0.09106 0.77884 0.60283 0.0
H1186 H 0.01044 0.87769 0.58553 0.0
H1187 H 0.06844 0.85919 0.59051 0.0
H1188 H 0.11369 0.75259 0.60298 0.0
H1189 H 0.10566 0.80727 0.61126 0.0
H1190 H 0.88688 0.73156 0.56519 0.0
H1191 H 0.87896 0.78653 0.57256 0.0
H1192 H 0.93782 0.69136 0.54342 0.0
H1193 H 0.99469 0.67164 0.55166 0.0
C1194 C 0.49184 0.31042 0.5763 0.0
C1195 C 0.45153 0.29008 0.56332 0.0
C1196 C 0.50167 0.22672 0.55688 0.0
C1197 C 0.52989 0.24113 0.58328 0.0
N1198 N 0.55849 0.30192 0.61309 0.0
N1199 N 0.42717 0.23218 0.52795 0.0
C1200 C 0.52738 0.28488 0.5913 0.0
C1201 C 0.45914 0.24903 0.54927 0.0
N1202 N 0.49865 0.35277 0.57093 0.0
N1203 N 0.51782 0.19462 0.5375 0.0
H1204 H 0.40003 0.2504 0.51774 0.0
H1205 H 0.42846 0.20053 0.52016 0.0
H1206 H 0.5516 0.18228 0.54091 0.0
H1207 H 0.50065 0.18442 0.51622 0.0
H1208 H 0.52956 0.36842 0.57764 0.0
H1209 H 0.47482 0.37035 0.55688 0.0
H1210 H 0.55615 0.33346 0.62105 0.0
H1211 H 0.58572 0.28377 0.62333 0.0
C1212 C 0.53049 0.23744 0.88137 0.0
C1213 C 0.48099 0.24003 0.88863 0.0
C1214 C 0.49931 0.2932 0.93098 0.0
C1215 C 0.54508 0.29768 0.91754 0.0
N1216 N 0.61017 0.25908 0.89584 0.0
N1217 N 0.41909 0.26997 0.92228 0.0
C1218 C 0.56269 0.26496 0.89765 0.0
C1219 C 0.46576 0.26676 0.91479 0.0
N1220 N 0.54685 0.21011 0.85793 0.0
N1221 N 0.48861 0.31402 0.95952 0.0
H1222 H 0.39312 0.25188 0.91089 0.0
H1223 H 0.40559 0.29277 0.93829 0.0
H1224 H 0.51391 0.33165 0.97224 0.0
H1225 H 0.45717 0.30991 0.9723 0.0
H1226 H 0.58054 0.21169 0.84799 0.0
H1227 H 0.52644 0.18663 0.8473 0.0
H1228 H 0.62609 0.23354 0.88392 0.0
H1229 H 0.63339 0.27711 0.91004 0.0
C1230 C 0.0292 0.72219 0.88683 0.0
C1231 C 1.00075 0.73746 0.91301 0.0
C1232 C 0.05577 0.79726 0.91876 0.0
C1233 C 0.06952 0.79072 0.8857 0.0
N1234 N 0.08092 0.74142 0.84151 0.0
N1235 N 0.99995 0.7813 0.96227 0.0
C1236 C 0.06071 0.75079 0.87109 0.0
C1237 C 0.01829 0.77222 0.93202 0.0
N1238 N 0.0275 0.6802 0.87829 0.0
N1239 N 0.07963 0.82615 0.93739 0.0
H1240 H 0.98056 0.7593 0.97598 0.0
H1241 H 0.00601 0.80999 0.97441 0.0
H1242 H 0.1089 0.84231 0.92809 0.0
H1243 H 0.0736 0.83087 0.96246 0.0
H1244 H 0.04934 0.66668 0.86056 0.0
H1245 H 0.00825 0.65812 0.89215 0.0
H1246 H 0.07174 0.71492 0.8275 0.0
H1247 H 0.10631 0.76141 0.83101 0.0
loop_
_geom_bond_atom_site_label_1
_geom_bond_atom_site_label_2
_geom_bond_distance
_geom_bond_site_symmetry_2
_ccdc_geom_bond_type
C0 C1 1.351 . S
C0 N3 1.368 . S
C0 H5 0.931 . S
C1 C0 1.351 . S
C1 N2 1.373 . S
C1 H29 0.930 . S
N2 C1 1.373 . S
N2 C4 1.340 . S
N3 C0 1.368 . S
N3 C4 1.321 . S
N3 Co6 2.135 . S
C4 N2 1.340 . S
C4 N3 1.321 . S
C4 H28 0.930 . S
H5 C0 0.931 . S
Co6 N3 2.135 . S
Co6 N9 2.121 . S
Co6 O14 2.055 . S
Co6 O17 2.039 . S
Co6 N20 2.140 . S
C7 O8 1.227 . S
C7 O17 1.265 . S
O8 C7 1.227 . S
N9 Co6 2.121 . S
N9 C11 1.375 . S
N9 C12 1.313 . S
C10 C11 1.338 . S
C10 N13 1.377 . S
C10 H30 0.930 1_455 S
C11 N9 1.375 . S
C11 C10 1.338 . S
C11 H15 0.931 . S
C12 N9 1.313 . S
C12 N13 1.344 . S
C12 H16 0.930 . S
N13 C10 1.377 . S
N13 C12 1.344 . S
O14 Co6 2.055 . S
O14 C18 1.253 . S
H15 C11 0.931 . S
H16 C12 0.930 . S
O17 Co6 2.039 . S
O17 C7 1.265 . S
C18 O14 1.253 . S
C18 O19 1.227 . S
O19 C18 1.227 . S
N20 Co6 2.140 . S
N20 C23 1.346 . S
N20 C24 1.345 . S
C21 C22 1.387 . S
C21 C25 1.391 . S
C22 C21 1.387 . S
C22 C23 1.369 . S
C22 H31 0.929 . S
C23 N20 1.346 . S
C23 C22 1.369 . S
C23 H26 0.928 . S
C24 N20 1.345 . S
C24 C25 1.371 . S
C24 H27 0.931 . S
C25 C21 1.391 . S
C25 C24 1.371 . S
C25 H32 0.930 . S
H26 C23 0.928 . S
H27 C24 0.931 . S
H28 C4 0.930 . S
H29 C1 0.930 . S
H30 C10 0.930 1_655 S
H31 C22 0.929 . S
H32 C25 0.930 . S
C33 C34 1.351 . S
C33 N36 1.368 . S
C33 H38 0.931 . S
C34 C33 1.351 . S
C34 N35 1.373 . S
C34 H62 0.930 . S
N35 C34 1.373 . S
N35 C37 1.340 . S
N36 C33 1.368 . S
N36 C37 1.321 . S
N36 Co39 2.135 . S
C37 N35 1.340 . S
C37 N36 1.321 . S
C37 H61 0.930 . S
H38 C33 0.931 . S
Co39 N36 2.135 . S
Co39 N42 2.121 . S
Co39 O47 2.055 . S
Co39 O50 2.039 . S
Co39 N53 2.140 . S
C40 O41 1.227 . S
C40 O50 1.265 . S
O41 C40 1.227 . S
N42 Co39 2.121 . S
N42 C44 1.375 . S
N42 C45 1.313 . S
C43 C44 1.338 . S
C43 N46 1.377 . S
C43 H63 0.930 . S
C44 N42 1.375 . S
C44 C43 1.338 . S
C44 H48 0.931 . S
C45 N42 1.313 . S
C45 N46 1.344 . S
C45 H49 0.930 . S
N46 C43 1.377 . S
N46 C45 1.344 . S
O47 Co39 2.055 . S
O47 C51 1.253 . S
H48 C44 0.931 . S
H49 C45 0.930 . S
O50 Co39 2.039 . S
O50 C40 1.265 . S
C51 O47 1.253 . S
C51 O52 1.227 . S
O52 C51 1.227 . S
N53 Co39 2.140 . S
N53 C56 1.346 . S
N53 C57 1.345 . S
C54 C55 1.387 . S
C54 C58 1.391 . S
C55 C54 1.387 . S
C55 C56 1.369 . S
C55 H64 0.929 . S
C56 N53 1.346 . S
C56 C55 1.369 . S
C56 H59 0.928 . S
C57 N53 1.345 . S
C57 C58 1.371 . S
C57 H60 0.931 . S
C58 C54 1.391 . S
C58 C57 1.371 . S
C58 H65 0.930 . S
H59 C56 0.928 . S
H60 C57 0.931 . S
H61 C37 0.930 . S
H62 C34 0.930 . S
H63 C43 0.930 . S
H64 C55 0.929 . S
H65 C58 0.930 . S
C66 C67 1.351 . S
C66 N69 1.368 . S
C66 H71 0.931 . S
C67 C66 1.351 . S
C67 N68 1.373 . S
C67 H95 0.930 . S
N68 C67 1.373 . S
N68 C70 1.340 . S
N69 C66 1.368 . S
N69 C70 1.321 . S
N69 Co72 2.135 . S
C70 N68 1.340 . S
C70 N69 1.321 . S
C70 H94 0.930 . S
H71 C66 0.931 . S
Co72 N69 2.135 . S
Co72 N75 2.121 . S
Co72 O80 2.055 . S
Co72 O83 2.039 . S
Co72 N86 2.140 . S
C73 O74 1.227 . S
C73 O83 1.265 . S
O74 C73 1.227 . S
N75 Co72 2.121 . S
N75 C77 1.375 . S
N75 C78 1.313 . S
C76 C77 1.338 . S
C76 N79 1.377 . S
C76 H96 0.930 . S
C77 N75 1.375 . S
C77 C76 1.338 . S
C77 H81 0.931 . S
C78 N75 1.313 . S
C78 N79 1.344 . S
C78 H82 0.930 . S
N79 C76 1.377 . S
N79 C78 1.344 . S
O80 Co72 2.055 . S
O80 C84 1.253 . S
H81 C77 0.931 . S
H82 C78 0.930 . S
O83 Co72 2.039 . S
O83 C73 1.265 . S
C84 O80 1.253 . S
C84 O85 1.227 . S
O85 C84 1.227 . S
N86 Co72 2.140 . S
N86 C89 1.346 . S
N86 C90 1.345 . S
C87 C88 1.387 . S
C87 C91 1.391 . S
C88 C87 1.387 . S
C88 C89 1.369 . S
C88 H97 0.929 . S
C89 N86 1.346 . S
C89 C88 1.369 . S
C89 H92 0.928 . S
C90 N86 1.345 . S
C90 C91 1.371 . S
C90 H93 0.931 . S
C91 C87 1.391 . S
C91 C90 1.371 . S
C91 H98 0.930 . S
H92 C89 0.928 . S
H93 C90 0.931 . S
H94 C70 0.930 . S
H95 C67 0.930 . S
H96 C76 0.930 . S
H97 C88 0.929 . S
H98 C91 0.930 . S
C99 C100 1.351 . S
C99 N102 1.368 . S
C99 H104 0.931 . S
C100 C99 1.351 . S
C100 N101 1.373 . S
C100 H128 0.930 . S
N101 C100 1.373 . S
N101 C103 1.340 . S
N102 C99 1.368 . S
N102 C103 1.321 . S
N102 Co105 2.135 . S
C103 N101 1.340 . S
C103 N102 1.321 . S
C103 H127 0.930 . S
H104 C99 0.931 . S
Co105 N102 2.135 . S
Co105 N108 2.121 . S
Co105 O113 2.055 . S
Co105 O116 2.039 . S
Co105 N119 2.140 . S
C106 O107 1.227 . S
C106 O116 1.265 . S
O107 C106 1.227 . S
N108 Co105 2.121 . S
N108 C110 1.375 . S
N108 C111 1.313 . S
C109 C110 1.338 . S
C109 N112 1.377 . S
C109 H129 0.930 1_655 S
C110 N108 1.375 . S
C110 C109 1.338 . S
C110 H114 0.931 . S
C111 N108 1.313 . S
C111 N112 1.344 . S
C111 H115 0.930 . S
N112 C109 1.377 . S
N112 C111 1.344 . S
O113 Co105 2.055 . S
O113 C117 1.253 . S
H114 C110 0.931 . S
H115 C111 0.930 . S
O116 Co105 2.039 . S
O116 C106 1.265 . S
C117 O113 1.253 . S
C117 O118 1.227 . S
O118 C117 1.227 . S
N119 Co105 2.140 . S
N119 C122 1.346 . S
N119 C123 1.345 . S
C120 C121 1.387 . S
C120 C124 1.391 . S
C121 C120 1.387 . S
C121 C122 1.369 . S
C121 H130 0.929 . S
C122 N119 1.346 . S
C122 C121 1.369 . S
C122 H125 0.928 . S
C123 N119 1.345 . S
C123 C124 1.371 . S
C123 H126 0.931 . S
C124 C120 1.391 . S
C124 C123 1.371 . S
C124 H131 0.930 . S
H125 C122 0.928 . S
H126 C123 0.931 . S
H127 C103 0.930 . S
H128 C100 0.930 . S
H129 C109 0.930 1_455 S
H130 C121 0.929 . S
H131 C124 0.930 . S
C132 C133 1.351 . S
C132 N135 1.368 . S
C132 H137 0.931 . S
C133 C132 1.351 . S
C133 N134 1.373 . S
C133 H161 0.930 . S
N134 C133 1.373 . S
N134 C136 1.340 . S
N135 C132 1.368 . S
N135 C136 1.321 . S
N135 Co138 2.135 . S
C136 N134 1.340 . S
C136 N135 1.321 . S
C136 H160 0.930 . S
H137 C132 0.931 . S
Co138 N135 2.135 . S
Co138 N141 2.121 . S
Co138 O146 2.055 . S
Co138 O149 2.039 . S
Co138 N152 2.140 . S
C139 O140 1.227 . S
C139 O149 1.265 . S
O140 C139 1.227 . S
N141 Co138 2.121 . S
N141 C143 1.375 . S
N141 C144 1.313 . S
C142 C143 1.338 . S
C142 N145 1.377 . S
C142 H162 0.930 1_655 S
C143 N141 1.375 . S
C143 C142 1.338 . S
C143 H147 0.931 . S
C144 N141 1.313 . S
C144 N145 1.344 . S
C144 H148 0.930 . S
N145 C142 1.377 . S
N145 C144 1.344 . S
O146 Co138 2.055 . S
O146 C150 1.253 . S
H147 C143 0.931 . S
H148 C144 0.930 . S
O149 Co138 2.039 . S
O149 C139 1.265 . S
C150 O146 1.253 . S
C150 O151 1.227 . S
O151 C150 1.227 . S
N152 Co138 2.140 . S
N152 C155 1.346 . S
N152 C156 1.345 . S
C153 C154 1.387 . S
C153 C157 1.391 . S
C154 C153 1.387 . S
C154 C155 1.369 . S
C154 H163 0.929 . S
C155 N152 1.346 . S
C155 C154 1.369 . S
C155 H158 0.928 . S
C156 N152 1.345 . S
C156 C157 1.371 . S
C156 H159 0.931 . S
C157 C153 1.391 . S
C157 C156 1.371 . S
C157 H164 0.930 . S
H158 C155 0.928 . S
H159 C156 0.931 . S
H160 C136 0.930 . S
H161 C133 0.930 . S
H162 C142 0.930 1_455 S
H163 C154 0.929 . S
H164 C157 0.930 . S
C165 C166 1.351 . S
C165 N168 1.368 . S
C165 H170 0.931 . S
C166 C165 1.351 . S
C166 N167 1.373 . S
C166 H194 0.930 . S
N167 C166 1.373 . S
N167 C169 1.340 . S
N168 C165 1.368 . S
N168 C169 1.321 . S
N168 Co171 2.135 . S
C169 N167 1.340 . S
C169 N168 1.321 . S
C169 H193 0.930 . S
H170 C165 0.931 . S
Co171 N168 2.135 . S
Co171 N174 2.121 . S
Co171 O179 2.055 . S
Co171 O182 2.039 . S
Co171 N185 2.140 . S
C172 O173 1.227 . S
C172 O182 1.265 . S
O173 C172 1.227 . S
N174 Co171 2.121 . S
N174 C176 1.375 . S
N174 C177 1.313 . S
C175 C176 1.338 . S
C175 N178 1.377 . S
C175 H195 0.930 . S
C176 N174 1.375 . S
C176 C175 1.338 . S
C176 H180 0.931 . S
C177 N174 1.313 . S
C177 N178 1.344 . S
C177 H181 0.930 . S
N178 C175 1.377 . S
N178 C177 1.344 . S
O179 Co171 2.055 . S
O179 C183 1.253 . S
H180 C176 0.931 . S
H181 C177 0.930 . S
O182 Co171 2.039 . S
O182 C172 1.265 . S
C183 O179 1.253 . S
C183 O184 1.227 . S
O184 C183 1.227 . S
N185 Co171 2.140 . S
N185 C188 1.346 . S
N185 C189 1.345 . S
C186 C187 1.387 . S
C186 C190 1.391 . S
C187 C186 1.387 . S
C187 C188 1.369 . S
C187 H196 0.929 . S
C188 N185 1.346 . S
C188 C187 1.369 . S
C188 H191 0.928 . S
C189 N185 1.345 . S
C189 C190 1.371 . S
C189 H192 0.931 . S
C190 C186 1.391 . S
C190 C189 1.371 . S
C190 H197 0.930 . S
H191 C188 0.928 . S
H192 C189 0.931 . S
H193 C169 0.930 . S
H194 C166 0.930 . S
H195 C175 0.930 . S
H196 C187 0.929 . S
H197 C190 0.930 . S
C198 C199 1.351 . S
C198 N201 1.368 . S
C198 H203 0.931 . S
C199 C198 1.351 . S
C199 N200 1.373 . S
C199 H227 0.930 . S
N200 C199 1.373 . S
N200 C202 1.340 . S
N201 C198 1.368 . S
N201 C202 1.321 . S
N201 Co204 2.135 . S
C202 N200 1.340 . S
C202 N201 1.321 . S
C202 H226 0.930 . S
H203 C198 0.931 . S
Co204 N201 2.135 . S
Co204 N207 2.121 . S
Co204 O212 2.055 . S
Co204 O215 2.039 . S
Co204 N218 2.140 . S
C205 O206 1.227 . S
C205 O215 1.265 . S
O206 C205 1.227 . S
N207 Co204 2.121 . S
N207 C209 1.375 . S
N207 C210 1.313 . S
C208 C209 1.338 . S
C208 N211 1.377 . S
C208 H228 0.930 . S
C209 N207 1.375 . S
C209 C208 1.338 . S
C209 H213 0.931 . S
C210 N207 1.313 . S
C210 N211 1.344 . S
C210 H214 0.930 . S
N211 C208 1.377 . S
N211 C210 1.344 . S
O212 Co204 2.055 . S
O212 C216 1.253 . S
H213 C209 0.931 . S
H214 C210 0.930 . S
O215 Co204 2.039 . S
O215 C205 1.265 . S
C216 O212 1.253 . S
C216 O217 1.227 . S
O217 C216 1.227 . S
N218 Co204 2.140 . S
N218 C221 1.346 . S
N218 C222 1.345 . S
C219 C220 1.387 . S
C219 C223 1.391 . S
C220 C219 1.387 . S
C220 C221 1.369 . S
C220 H229 0.929 . S
C221 N218 1.346 . S
C221 C220 1.369 . S
C221 H224 0.928 . S
C222 N218 1.345 . S
C222 C223 1.371 . S
C222 H225 0.931 . S
C223 C219 1.391 . S
C223 C222 1.371 . S
C223 H230 0.930 . S
H224 C221 0.928 . S
H225 C222 0.931 . S
H226 C202 0.930 . S
H227 C199 0.930 . S
H228 C208 0.930 . S
H229 C220 0.929 . S
H230 C223 0.930 . S
C231 C232 1.351 . S
C231 N234 1.368 . S
C231 H236 0.931 . S
C232 C231 1.351 . S
C232 N233 1.373 . S
C232 H260 0.930 . S
N233 C232 1.373 . S
N233 C235 1.340 . S
N234 C231 1.368 . S
N234 C235 1.321 . S
N234 Co237 2.135 . S
C235 N233 1.340 . S
C235 N234 1.321 . S
C235 H259 0.930 . S
H236 C231 0.931 . S
Co237 N234 2.135 . S
Co237 N240 2.121 . S
Co237 O245 2.055 . S
Co237 O248 2.039 . S
Co237 N251 2.140 . S
C238 O239 1.227 . S
C238 O248 1.265 . S
O239 C238 1.227 . S
N240 Co237 2.121 . S
N240 C242 1.375 . S
N240 C243 1.313 . S
C241 C242 1.338 . S
C241 N244 1.377 . S
C241 H261 0.930 1_455 S
C242 N240 1.375 . S
C242 C241 1.338 . S
C242 H246 0.931 . S
C243 N240 1.313 . S
C243 N244 1.344 . S
C243 H247 0.930 . S
N244 C241 1.377 . S
N244 C243 1.344 . S
O245 Co237 2.055 . S
O245 C249 1.253 . S
H246 C242 0.931 . S
H247 C243 0.930 . S
O248 Co237 2.039 . S
O248 C238 1.265 . S
C249 O245 1.253 . S
C249 O250 1.227 . S
O250 C249 1.227 . S
N251 Co237 2.140 . S
N251 C254 1.346 . S
N251 C255 1.345 . S
C252 C253 1.387 . S
C252 C256 1.391 . S
C253 C252 1.387 . S
C253 C254 1.369 . S
C253 H262 0.929 . S
C254 N251 1.346 . S
C254 C253 1.369 . S
C254 H257 0.928 . S
C255 N251 1.345 . S
C255 C256 1.371 . S
C255 H258 0.931 . S
C256 C252 1.391 . S
C256 C255 1.371 . S
C256 H263 0.930 . S
H257 C254 0.928 . S
H258 C255 0.931 . S
H259 C235 0.930 . S
H260 C232 0.930 . S
H261 C241 0.930 1_655 S
H262 C253 0.929 . S
H263 C256 0.930 . S
C264 C265 1.351 . S
C264 N267 1.368 . S
C264 H269 0.931 . S
C265 C264 1.351 . S
C265 N266 1.373 . S
C265 H293 0.930 . S
N266 C265 1.373 . S
N266 C268 1.340 . S
N267 C264 1.368 . S
N267 C268 1.321 . S
N267 Co270 2.135 . S
C268 N266 1.340 . S
C268 N267 1.321 . S
C268 H292 0.930 . S
H269 C264 0.931 . S
Co270 N267 2.135 . S
Co270 N273 2.121 . S
Co270 O278 2.055 . S
Co270 O281 2.039 . S
Co270 N284 2.140 . S
C271 O272 1.227 . S
C271 O281 1.265 . S
O272 C271 1.227 . S
N273 Co270 2.121 . S
N273 C275 1.375 . S
N273 C276 1.313 . S
C274 C275 1.338 . S
C274 N277 1.377 . S
C274 H294 0.930 . S
C275 N273 1.375 . S
C275 C274 1.338 . S
C275 H279 0.931 . S
C276 N273 1.313 . S
C276 N277 1.344 . S
C276 H280 0.930 . S
N277 C274 1.377 . S
N277 C276 1.344 . S
O278 Co270 2.055 . S
O278 C282 1.253 . S
H279 C275 0.931 . S
H280 C276 0.930 . S
O281 Co270 2.039 . S
O281 C271 1.265 . S
C282 O278 1.253 . S
C282 O283 1.227 . S
O283 C282 1.227 . S
N284 Co270 2.140 . S
N284 C287 1.346 . S
N284 C288 1.345 . S
C285 C286 1.387 . S
C285 C289 1.391 . S
C286 C285 1.387 . S
C286 C287 1.369 . S
C286 H295 0.929 . S
C287 N284 1.346 . S
C287 C286 1.369 . S
C287 H290 0.928 . S
C288 N284 1.345 . S
C288 C289 1.371 . S
C288 H291 0.931 . S
C289 C285 1.391 . S
C289 C288 1.371 . S
C289 H296 0.930 . S
H290 C287 0.928 . S
H291 C288 0.931 . S
H292 C268 0.930 . S
H293 C265 0.930 . S
H294 C274 0.930 . S
H295 C286 0.929 . S
H296 C289 0.930 . S
C297 C298 1.351 . S
C297 N300 1.368 . S
C297 H302 0.931 . S
C298 C297 1.351 . S
C298 N299 1.373 . S
C298 H326 0.930 . S
N299 C298 1.373 . S
N299 C301 1.340 . S
N300 C297 1.368 . S
N300 C301 1.321 . S
N300 Co303 2.135 . S
C301 N299 1.340 . S
C301 N300 1.321 . S
C301 H325 0.930 . S
H302 C297 0.931 . S
Co303 N300 2.135 . S
Co303 N306 2.121 . S
Co303 O311 2.055 . S
Co303 O314 2.039 . S
Co303 N317 2.140 . S
C304 O305 1.227 . S
C304 O314 1.265 . S
O305 C304 1.227 . S
N306 Co303 2.121 . S
N306 C308 1.375 . S
N306 C309 1.313 . S
C307 C308 1.338 . S
C307 N310 1.377 . S
C307 H327 0.930 1_655 S
C308 N306 1.375 . S
C308 C307 1.338 . S
C308 H312 0.931 . S
C309 N306 1.313 . S
C309 N310 1.344 . S
C309 H313 0.930 . S
N310 C307 1.377 . S
N310 C309 1.344 . S
O311 Co303 2.055 . S
O311 C315 1.253 . S
H312 C308 0.931 . S
H313 C309 0.930 . S
O314 Co303 2.039 . S
O314 C304 1.265 . S
C315 O311 1.253 . S
C315 O316 1.227 . S
O316 C315 1.227 . S
N317 Co303 2.140 . S
N317 C320 1.346 . S
N317 C321 1.345 . S
C318 C319 1.387 . S
C318 C322 1.391 . S
C319 C318 1.387 . S
C319 C320 1.369 . S
C319 H328 0.929 . S
C320 N317 1.346 . S
C320 C319 1.369 . S
C320 H323 0.928 . S
C321 N317 1.345 . S
C321 C322 1.371 . S
C321 H324 0.931 . S
C322 C318 1.391 . S
C322 C321 1.371 . S
C322 H329 0.930 . S
H323 C320 0.928 . S
H324 C321 0.931 . S
H325 C301 0.930 . S
H326 C298 0.930 . S
H327 C307 0.930 1_455 S
H328 C319 0.929 . S
H329 C322 0.930 . S
C330 C331 1.351 . S
C330 N333 1.368 . S
C330 H335 0.931 . S
C331 C330 1.351 . S
C331 N332 1.373 . S
C331 H359 0.930 . S
N332 C331 1.373 . S
N332 C334 1.340 . S
N333 C330 1.368 . S
N333 C334 1.321 . S
N333 Co336 2.135 . S
C334 N332 1.340 . S
C334 N333 1.321 . S
C334 H358 0.930 . S
H335 C330 0.931 . S
Co336 N333 2.135 . S
Co336 N339 2.121 . S
Co336 O344 2.055 . S
Co336 O347 2.039 . S
Co336 N350 2.140 . S
C337 O338 1.227 . S
C337 O347 1.265 . S
O338 C337 1.227 . S
N339 Co336 2.121 . S
N339 C341 1.375 . S
N339 C342 1.313 . S
C340 C341 1.338 . S
C340 N343 1.377 . S
C340 H360 0.930 1_455 S
C341 N339 1.375 . S
C341 C340 1.338 . S
C341 H345 0.931 . S
C342 N339 1.313 . S
C342 N343 1.344 . S
C342 H346 0.930 . S
N343 C340 1.377 . S
N343 C342 1.344 . S
O344 Co336 2.055 . S
O344 C348 1.253 . S
H345 C341 0.931 . S
H346 C342 0.930 . S
O347 Co336 2.039 . S
O347 C337 1.265 . S
C348 O344 1.253 . S
C348 O349 1.227 . S
O349 C348 1.227 . S
N350 Co336 2.140 . S
N350 C353 1.346 . S
N350 C354 1.345 . S
C351 C352 1.387 . S
C351 C355 1.391 . S
C352 C351 1.387 . S
C352 C353 1.369 . S
C352 H361 0.929 . S
C353 N350 1.346 . S
C353 C352 1.369 . S
C353 H356 0.928 . S
C354 N350 1.345 . S
C354 C355 1.371 . S
C354 H357 0.931 . S
C355 C351 1.391 . S
C355 C354 1.371 . S
C355 H362 0.930 . S
H356 C353 0.928 . S
H357 C354 0.931 . S
H358 C334 0.930 . S
H359 C331 0.930 . S
H360 C340 0.930 1_655 S
H361 C352 0.929 . S
H362 C355 0.930 . S
C363 C364 1.351 . S
C363 N366 1.368 . S
C363 H368 0.931 . S
C364 C363 1.351 . S
C364 N365 1.373 . S
C364 H392 0.930 . S
N365 C364 1.373 . S
N365 C367 1.340 . S
N366 C363 1.368 . S
N366 C367 1.321 . S
N366 Co369 2.135 . S
C367 N365 1.340 . S
C367 N366 1.321 . S
C367 H391 0.930 . S
H368 C363 0.931 . S
Co369 N366 2.135 . S
Co369 N372 2.121 . S
Co369 O377 2.055 . S
Co369 O380 2.039 . S
Co369 N383 2.140 . S
C370 O371 1.227 . S
C370 O380 1.265 . S
O371 C370 1.227 . S
N372 Co369 2.121 . S
N372 C374 1.375 . S
N372 C375 1.313 . S
C373 C374 1.338 . S
C373 N376 1.377 . S
C373 H393 0.930 . S
C374 N372 1.375 . S
C374 C373 1.338 . S
C374 H378 0.931 . S
C375 N372 1.313 . S
C375 N376 1.344 . S
C375 H379 0.930 . S
N376 C373 1.377 . S
N376 C375 1.344 . S
O377 Co369 2.055 . S
O377 C381 1.253 . S
H378 C374 0.931 . S
H379 C375 0.930 . S
O380 Co369 2.039 . S
O380 C370 1.265 . S
C381 O377 1.253 . S
C381 O382 1.227 . S
O382 C381 1.227 . S
N383 Co369 2.140 . S
N383 C386 1.346 . S
N383 C387 1.345 . S
C384 C385 1.387 . S
C384 C388 1.391 . S
C385 C384 1.387 . S
C385 C386 1.369 . S
C385 H394 0.929 . S
C386 N383 1.346 . S
C386 C385 1.369 . S
C386 H389 0.928 . S
C387 N383 1.345 . S
C387 C388 1.371 . S
C387 H390 0.931 . S
C388 C384 1.391 . S
C388 C387 1.371 . S
C388 H395 0.930 . S
H389 C386 0.928 . S
H390 C387 0.931 . S
H391 C367 0.930 . S
H392 C364 0.930 . S
H393 C373 0.930 . S
H394 C385 0.929 . S
H395 C388 0.930 . S
C396 C397 1.351 . S
C396 N399 1.368 . S
C396 H401 0.931 . S
C397 C396 1.351 . S
C397 N398 1.373 . S
C397 H425 0.930 . S
N398 C397 1.373 . S
N398 C400 1.340 . S
N399 C396 1.368 . S
N399 C400 1.321 . S
N399 Co402 2.135 . S
C400 N398 1.340 . S
C400 N399 1.321 . S
C400 H424 0.930 . S
H401 C396 0.931 . S
Co402 N399 2.135 . S
Co402 N405 2.121 . S
Co402 O410 2.055 . S
Co402 O413 2.039 . S
Co402 N416 2.140 . S
C403 O404 1.227 . S
C403 O413 1.265 . S
O404 C403 1.227 . S
N405 Co402 2.121 . S
N405 C407 1.375 . S
N405 C408 1.313 . S
C406 C407 1.338 . S
C406 N409 1.377 . S
C406 H426 0.930 . S
C407 N405 1.375 . S
C407 C406 1.338 . S
C407 H411 0.931 . S
C408 N405 1.313 . S
C408 N409 1.344 . S
C408 H412 0.930 . S
N409 C406 1.377 . S
N409 C408 1.344 . S
O410 Co402 2.055 . S
O410 C414 1.253 . S
H411 C407 0.931 . S
H412 C408 0.930 . S
O413 Co402 2.039 . S
O413 C403 1.265 . S
C414 O410 1.253 . S
C414 O415 1.227 . S
O415 C414 1.227 . S
N416 Co402 2.140 . S
N416 C419 1.346 . S
N416 C420 1.345 . S
C417 C418 1.387 . S
C417 C421 1.391 . S
C418 C417 1.387 . S
C418 C419 1.369 . S
C418 H427 0.929 . S
C419 N416 1.346 . S
C419 C418 1.369 . S
C419 H422 0.928 . S
C420 N416 1.345 . S
C420 C421 1.371 . S
C420 H423 0.931 . S
C421 C417 1.391 . S
C421 C420 1.371 . S
C421 H428 0.930 . S
H422 C419 0.928 . S
H423 C420 0.931 . S
H424 C400 0.930 . S
H425 C397 0.930 . S
H426 C406 0.930 . S
H427 C418 0.929 . S
H428 C421 0.930 . S
C429 C430 1.351 . S
C429 N432 1.368 . S
C429 H434 0.931 . S
C430 C429 1.351 . S
C430 N431 1.373 . S
C430 H458 0.930 . S
N431 C430 1.373 . S
N431 C433 1.340 . S
N432 C429 1.368 . S
N432 C433 1.321 . S
N432 Co435 2.135 . S
C433 N431 1.340 . S
C433 N432 1.321 . S
C433 H457 0.930 . S
H434 C429 0.931 . S
Co435 N432 2.135 . S
Co435 N438 2.121 . S
Co435 O443 2.055 . S
Co435 O446 2.039 . S
Co435 N449 2.140 . S
C436 O437 1.227 . S
C436 O446 1.265 . S
O437 C436 1.227 . S
N438 Co435 2.121 . S
N438 C440 1.375 . S
N438 C441 1.313 . S
C439 C440 1.338 . S
C439 N442 1.377 . S
C439 H459 0.930 1_455 S
C440 N438 1.375 . S
C440 C439 1.338 . S
C440 H444 0.931 . S
C441 N438 1.313 . S
C441 N442 1.344 . S
C441 H445 0.930 . S
N442 C439 1.377 . S
N442 C441 1.344 . S
O443 Co435 2.055 . S
O443 C447 1.253 . S
H444 C440 0.931 . S
H445 C441 0.930 . S
O446 Co435 2.039 . S
O446 C436 1.265 . S
C447 O443 1.253 . S
C447 O448 1.227 . S
O448 C447 1.227 . S
N449 Co435 2.140 . S
N449 C452 1.346 . S
N449 C453 1.345 . S
C450 C451 1.387 . S
C450 C454 1.391 . S
C451 C450 1.387 . S
C451 C452 1.369 . S
C451 H460 0.929 . S
C452 N449 1.346 . S
C452 C451 1.369 . S
C452 H455 0.928 . S
C453 N449 1.345 . S
C453 C454 1.371 . S
C453 H456 0.931 . S
C454 C450 1.391 . S
C454 C453 1.371 . S
C454 H461 0.930 . S
H455 C452 0.928 . S
H456 C453 0.931 . S
H457 C433 0.930 . S
H458 C430 0.930 . S
H459 C439 0.930 1_655 S
H460 C451 0.929 . S
H461 C454 0.930 . S
C462 C463 1.351 . S
C462 N465 1.368 . S
C462 H467 0.931 . S
C463 C462 1.351 . S
C463 N464 1.373 . S
C463 H491 0.930 . S
N464 C463 1.373 . S
N464 C466 1.340 . S
N465 C462 1.368 . S
N465 C466 1.321 . S
N465 Co468 2.135 . S
C466 N464 1.340 . S
C466 N465 1.321 . S
C466 H490 0.930 . S
H467 C462 0.931 . S
Co468 N465 2.135 . S
Co468 N471 2.121 . S
Co468 O476 2.055 . S
Co468 O479 2.039 . S
Co468 N482 2.140 . S
C469 O470 1.227 . S
C469 O479 1.265 . S
O470 C469 1.227 . S
N471 Co468 2.121 . S
N471 C473 1.375 . S
N471 C474 1.313 . S
C472 C473 1.338 . S
C472 N475 1.377 . S
C472 H492 0.930 1_655 S
C473 N471 1.375 . S
C473 C472 1.338 . S
C473 H477 0.931 . S
C474 N471 1.313 . S
C474 N475 1.344 . S
C474 H478 0.930 . S
N475 C472 1.377 . S
N475 C474 1.344 . S
O476 Co468 2.055 . S
O476 C480 1.253 . S
H477 C473 0.931 . S
H478 C474 0.930 . S
O479 Co468 2.039 . S
O479 C469 1.265 . S
C480 O476 1.253 . S
C480 O481 1.227 . S
O481 C480 1.227 . S
N482 Co468 2.140 . S
N482 C485 1.346 . S
N482 C486 1.345 . S
C483 C484 1.387 . S
C483 C487 1.391 . S
C484 C483 1.387 . S
C484 C485 1.369 . S
C484 H493 0.929 . S
C485 N482 1.346 . S
C485 C484 1.369 . S
C485 H488 0.928 . S
C486 N482 1.345 . S
C486 C487 1.371 . S
C486 H489 0.931 . S
C487 C483 1.391 . S
C487 C486 1.371 . S
C487 H494 0.930 . S
H488 C485 0.928 . S
H489 C486 0.931 . S
H490 C466 0.930 . S
H491 C463 0.930 . S
H492 C472 0.930 1_455 S
H493 C484 0.929 . S
H494 C487 0.930 . S
C495 C496 1.351 . S
C495 N498 1.368 . S
C495 H500 0.931 . S
C496 C495 1.351 . S
C496 N497 1.373 . S
C496 H524 0.930 . S
N497 C496 1.373 . S
N497 C499 1.340 . S
N498 C495 1.368 . S
N498 C499 1.321 . S
N498 Co501 2.135 . S
C499 N497 1.340 . S
C499 N498 1.321 . S
C499 H523 0.930 . S
H500 C495 0.931 . S
Co501 N498 2.135 . S
Co501 N504 2.121 . S
Co501 O509 2.055 . S
Co501 O512 2.039 . S
Co501 N515 2.140 . S
C502 O503 1.227 . S
C502 O512 1.265 . S
O503 C502 1.227 . S
N504 Co501 2.121 . S
N504 C506 1.375 . S
N504 C507 1.313 . S
C505 C506 1.338 . S
C505 N508 1.377 . S
C505 H525 0.930 . S
C506 N504 1.375 . S
C506 C505 1.338 . S
C506 H510 0.931 . S
C507 N504 1.313 . S
C507 N508 1.344 . S
C507 H511 0.930 . S
N508 C505 1.377 . S
N508 C507 1.344 . S
O509 Co501 2.055 . S
O509 C513 1.253 . S
H510 C506 0.931 . S
H511 C507 0.930 . S
O512 Co501 2.039 . S
O512 C502 1.265 . S
C513 O509 1.253 . S
C513 O514 1.227 . S
O514 C513 1.227 . S
N515 Co501 2.140 . S
N515 C518 1.346 . S
N515 C519 1.345 . S
C516 C517 1.387 . S
C516 C520 1.391 . S
C517 C516 1.387 . S
C517 C518 1.369 . S
C517 H526 0.929 . S
C518 N515 1.346 . S
C518 C517 1.369 . S
C518 H521 0.928 . S
C519 N515 1.345 . S
C519 C520 1.371 . S
C519 H522 0.931 . S
C520 C516 1.391 . S
C520 C519 1.371 . S
C520 H527 0.930 . S
H521 C518 0.928 . S
H522 C519 0.931 . S
H523 C499 0.930 . S
H524 C496 0.930 . S
H525 C505 0.930 . S
H526 C517 0.929 . S
H527 C520 0.930 . S
C528 C529 1.363 1_455 S
C528 C534 1.379 . S
C528 N536 1.356 . S
C529 C528 1.363 1_655 S
C529 C535 1.363 . S
C530 C531 1.363 1_655 S
C530 C535 1.379 . S
C530 N537 1.356 . S
C531 C530 1.363 1_455 S
C531 C534 1.363 . S
N532 C534 1.356 . S
N532 H544 0.984 . S
N532 H545 0.985 . S
N533 C535 1.356 . S
N533 H538 0.984 . S
N533 H539 0.985 1_545 S
C534 C528 1.379 . S
C534 C531 1.363 . S
C534 N532 1.356 . S
C535 C529 1.363 . S
C535 C530 1.379 . S
C535 N533 1.356 . S
N536 C528 1.356 . S
N536 H542 0.984 . S
N536 H543 0.984 . S
N537 C530 1.356 . S
N537 H540 0.984 . S
N537 H541 0.985 1_545 S
H538 N533 0.984 . S
H539 N533 0.985 1_565 S
H540 N537 0.984 . S
H541 N537 0.985 1_565 S
H542 N536 0.984 . S
H543 N536 0.984 . S
H544 N532 0.984 . S
H545 N532 0.985 . S
C546 C547 1.363 . S
C546 C552 1.379 . S
C546 N554 1.356 . S
C547 C546 1.363 . S
C547 C553 1.363 . S
C548 C549 1.363 . S
C548 C553 1.379 . S
C548 N555 1.356 . S
C549 C548 1.363 . S
C549 C552 1.363 . S
N550 C552 1.356 . S
N550 H562 0.984 . S
N550 H563 0.985 . S
N551 C553 1.356 . S
N551 H556 0.984 . S
N551 H557 0.985 1_565 S
C552 C546 1.379 . S
C552 C549 1.363 . S
C552 N550 1.356 . S
C553 C547 1.363 . S
C553 C548 1.379 . S
C553 N551 1.356 . S
N554 C546 1.356 . S
N554 H560 0.984 . S
N554 H561 0.984 . S
N555 C548 1.356 . S
N555 H558 0.984 . S
N555 H559 0.985 1_565 S
H556 N551 0.984 . S
H557 N551 0.985 1_545 S
H558 N555 0.984 . S
H559 N555 0.985 1_545 S
H560 N554 0.984 . S
H561 N554 0.984 . S
H562 N550 0.984 . S
H563 N550 0.985 . S
C564 C565 1.363 . S
C564 C570 1.379 . S
C564 N572 1.356 . S
C565 C564 1.363 . S
C565 C571 1.363 1_655 S
C566 C567 1.363 . S
C566 C571 1.379 . S
C566 N573 1.356 . S
C567 C566 1.363 . S
C567 C570 1.363 1_455 S
N568 C570 1.356 . S
N568 H580 0.984 . S
N568 H581 0.985 . S
N569 C571 1.356 . S
N569 H574 0.984 . S
N569 H575 0.985 1_565 S
C570 C564 1.379 . S
C570 C567 1.363 1_655 S
C570 N568 1.356 . S
C571 C565 1.363 1_455 S
C571 C566 1.379 . S
C571 N569 1.356 . S
N572 C564 1.356 . S
N572 H578 0.984 . S
N572 H579 0.984 . S
N573 C566 1.356 . S
N573 H576 0.984 . S
N573 H577 0.985 1_565 S
H574 N569 0.984 . S
H575 N569 0.985 1_545 S
H576 N573 0.984 . S
H577 N573 0.985 1_545 S
H578 N572 0.984 . S
H579 N572 0.984 . S
H580 N568 0.984 . S
H581 N568 0.985 . S
C582 C583 1.363 . S
C582 C588 1.379 . S
C582 N590 1.356 . S
C583 C582 1.363 . S
C583 C589 1.363 . S
C584 C585 1.363 . S
C584 C589 1.379 . S
C584 N591 1.356 . S
C585 C584 1.363 . S
C585 C588 1.363 . S
N586 C588 1.356 . S
N586 H598 0.984 . S
N586 H599 0.985 . S
N587 C589 1.356 . S
N587 H592 0.984 . S
N587 H593 0.985 1_545 S
C588 C582 1.379 . S
C588 C585 1.363 . S
C588 N586 1.356 . S
C589 C583 1.363 . S
C589 C584 1.379 . S
C589 N587 1.356 . S
N590 C582 1.356 . S
N590 H596 0.984 . S
N590 H597 0.984 . S
N591 C584 1.356 . S
N591 H594 0.984 . S
N591 H595 0.985 1_545 S
H592 N587 0.984 . S
H593 N587 0.985 1_565 S
H594 N591 0.984 . S
H595 N591 0.985 1_565 S
H596 N590 0.984 . S
H597 N590 0.984 . S
H598 N586 0.984 . S
H599 N586 0.985 . S
C600 C601 1.363 . S
C600 C606 1.379 . S
C600 N608 1.356 . S
C601 C600 1.363 . S
C601 C607 1.363 . S
C602 C603 1.363 . S
C602 C607 1.379 . S
C602 N609 1.356 . S
C603 C602 1.363 . S
C603 C606 1.363 . S
N604 C606 1.356 . S
N604 H616 0.984 . S
N604 H617 0.985 . S
N605 C607 1.356 . S
N605 H610 0.984 . S
N605 H611 0.985 . S
C606 C600 1.379 . S
C606 C603 1.363 . S
C606 N604 1.356 . S
C607 C601 1.363 . S
C607 C602 1.379 . S
C607 N605 1.356 . S
N608 C600 1.356 . S
N608 H614 0.984 . S
N608 H615 0.984 . S
N609 C602 1.356 . S
N609 H612 0.984 . S
N609 H613 0.985 . S
H610 N605 0.984 . S
H611 N605 0.985 . S
H612 N609 0.984 . S
H613 N609 0.985 . S
H614 N608 0.984 . S
H615 N608 0.984 . S
H616 N604 0.984 . S
H617 N604 0.985 . S
C618 C619 1.363 . S
C618 C624 1.379 . S
C618 N626 1.356 . S
C619 C618 1.363 . S
C619 C625 1.363 1_655 S
C620 C621 1.363 . S
C620 C625 1.379 . S
C620 N627 1.356 . S
C621 C620 1.363 . S
C621 C624 1.363 1_455 S
N622 C624 1.356 . S
N622 H634 0.984 . S
N622 H635 0.985 . S
N623 C625 1.356 . S
N623 H628 0.984 . S
N623 H629 0.985 . S
C624 C618 1.379 . S
C624 C621 1.363 1_655 S
C624 N622 1.356 . S
C625 C619 1.363 1_455 S
C625 C620 1.379 . S
C625 N623 1.356 . S
N626 C618 1.356 . S
N626 H632 0.984 . S
N626 H633 0.984 . S
N627 C620 1.356 . S
N627 H630 0.984 . S
N627 H631 0.985 . S
H628 N623 0.984 . S
H629 N623 0.985 . S
H630 N627 0.984 . S
H631 N627 0.985 . S
H632 N626 0.984 . S
H633 N626 0.984 . S
H634 N622 0.984 . S
H635 N622 0.985 . S
C636 C637 1.363 . S
C636 C642 1.379 . S
C636 N644 1.356 . S
C637 C636 1.363 . S
C637 C643 1.363 . S
C638 C639 1.363 . S
C638 C643 1.379 . S
C638 N645 1.356 . S
C639 C638 1.363 . S
C639 C642 1.363 . S
N640 C642 1.356 . S
N640 H652 0.984 . S
N640 H653 0.985 . S
N641 C643 1.356 . S
N641 H646 0.984 . S
N641 H647 0.985 . S
C642 C636 1.379 . S
C642 C639 1.363 . S
C642 N640 1.356 . S
C643 C637 1.363 . S
C643 C638 1.379 . S
C643 N641 1.356 . S
N644 C636 1.356 . S
N644 H650 0.984 . S
N644 H651 0.984 . S
N645 C638 1.356 . S
N645 H648 0.984 . S
N645 H649 0.985 . S
H646 N641 0.984 . S
H647 N641 0.985 . S
H648 N645 0.984 . S
H649 N645 0.985 . S
H650 N644 0.984 . S
H651 N644 0.984 . S
H652 N640 0.984 . S
H653 N640 0.985 . S
C654 C655 1.363 . S
C654 C660 1.379 . S
C654 N662 1.356 . S
C655 C654 1.363 . S
C655 C661 1.363 1_655 S
C656 C657 1.363 . S
C656 C661 1.379 . S
C656 N663 1.356 . S
C657 C656 1.363 . S
C657 C660 1.363 1_455 S
N658 C660 1.356 . S
N658 H670 0.984 . S
N658 H671 0.985 . S
N659 C661 1.356 . S
N659 H664 0.984 . S
N659 H665 0.985 . S
C660 C654 1.379 . S
C660 C657 1.363 1_655 S
C660 N658 1.356 . S
C661 C655 1.363 1_455 S
C661 C656 1.379 . S
C661 N659 1.356 . S
N662 C654 1.356 . S
N662 H668 0.984 . S
N662 H669 0.984 . S
N663 C656 1.356 . S
N663 H666 0.984 . S
N663 H667 0.985 . S
H664 N659 0.984 . S
H665 N659 0.985 . S
H666 N663 0.984 . S
H667 N663 0.985 . S
H668 N662 0.984 . S
H669 N662 0.984 . S
H670 N658 0.984 . S
H671 N658 0.985 . S
C672 C673 1.363 . S
C672 C678 1.379 . S
C672 N680 1.356 . S
C673 C672 1.363 . S
C673 C679 1.363 . S
C674 C675 1.363 . S
C674 C679 1.379 . S
C674 N681 1.356 . S
C675 C674 1.363 . S
C675 C678 1.363 . S
N676 C678 1.356 . S
N676 H688 0.984 . S
N676 H689 0.985 . S
N677 C679 1.356 . S
N677 H682 0.984 . S
N677 H683 0.985 . S
C678 C672 1.379 . S
C678 C675 1.363 . S
C678 N676 1.356 . S
C679 C673 1.363 . S
C679 C674 1.379 . S
C679 N677 1.356 . S
N680 C672 1.356 . S
N680 H686 0.984 . S
N680 H687 0.984 . S
N681 C674 1.356 . S
N681 H684 0.984 . S
N681 H685 0.985 . S
H682 N677 0.984 . S
H683 N677 0.985 . S
H684 N681 0.984 . S
H685 N681 0.985 . S
H686 N680 0.984 . S
H687 N680 0.984 . S
H688 N676 0.984 . S
H689 N676 0.985 . S
C690 C691 1.363 . S
C690 C696 1.379 . S
C690 N698 1.356 . S
C691 C690 1.363 . S
C691 C697 1.363 . S
C692 C693 1.363 . S
C692 C697 1.379 . S
C692 N699 1.356 . S
C693 C692 1.363 . S
C693 C696 1.363 . S
N694 C696 1.356 . S
N694 H706 0.984 . S
N694 H707 0.985 . S
N695 C697 1.356 . S
N695 H700 0.984 . S
N695 H701 0.985 . S
C696 C690 1.379 . S
C696 C693 1.363 . S
C696 N694 1.356 . S
C697 C691 1.363 . S
C697 C692 1.379 . S
C697 N695 1.356 . S
N698 C690 1.356 . S
N698 H704 0.984 . S
N698 H705 0.984 . S
N699 C692 1.356 . S
N699 H702 0.984 . S
N699 H703 0.985 . S
H700 N695 0.984 . S
H701 N695 0.985 . S
H702 N699 0.984 . S
H703 N699 0.985 . S
H704 N698 0.984 . S
H705 N698 0.984 . S
H706 N694 0.984 . S
H707 N694 0.985 . S
C708 C709 1.363 . S
C708 C714 1.379 . S
C708 N716 1.356 . S
C709 C708 1.363 . S
C709 C715 1.363 . S
C710 C711 1.363 . S
C710 C715 1.379 . S
C710 N717 1.356 . S
C711 C710 1.363 . S
C711 C714 1.363 . S
N712 C714 1.356 . S
N712 H724 0.984 . S
N712 H725 0.985 . S
N713 C715 1.356 . S
N713 H718 0.984 . S
N713 H719 0.985 . S
C714 C708 1.379 . S
C714 C711 1.363 . S
C714 N712 1.356 . S
C715 C709 1.363 . S
C715 C710 1.379 . S
C715 N713 1.356 . S
N716 C708 1.356 . S
N716 H722 0.984 . S
N716 H723 0.984 . S
N717 C710 1.356 . S
N717 H720 0.984 . S
N717 H721 0.985 . S
H718 N713 0.984 . S
H719 N713 0.985 . S
H720 N717 0.984 . S
H721 N717 0.985 . S
H722 N716 0.984 . S
H723 N716 0.984 . S
H724 N712 0.984 . S
H725 N712 0.985 . S
C726 C727 1.363 . S
C726 C732 1.379 . S
C726 N734 1.356 . S
C727 C726 1.363 . S
C727 C733 1.363 . S
C728 C729 1.363 . S
C728 C733 1.379 . S
C728 N735 1.356 . S
C729 C728 1.363 . S
C729 C732 1.363 . S
N730 C732 1.356 . S
N730 H742 0.984 . S
N730 H743 0.985 . S
N731 C733 1.356 . S
N731 H736 0.984 . S
N731 H737 0.985 . S
C732 C726 1.379 . S
C732 C729 1.363 . S
C732 N730 1.356 . S
C733 C727 1.363 . S
C733 C728 1.379 . S
C733 N731 1.356 . S
N734 C726 1.356 . S
N734 H740 0.984 . S
N734 H741 0.984 . S
N735 C728 1.356 . S
N735 H738 0.984 . S
N735 H739 0.985 . S
H736 N731 0.984 . S
H737 N731 0.985 . S
H738 N735 0.984 . S
H739 N735 0.985 . S
H740 N734 0.984 . S
H741 N734 0.984 . S
H742 N730 0.984 . S
H743 N730 0.985 . S
C744 C745 1.363 . S
C744 C750 1.379 . S
C744 N752 1.356 . S
C745 C744 1.363 . S
C745 C751 1.363 . S
C746 C747 1.363 . S
C746 C751 1.379 . S
C746 N753 1.356 . S
C747 C746 1.363 . S
C747 C750 1.363 . S
N748 C750 1.356 . S
N748 H760 0.984 . S
N748 H761 0.985 . S
N749 C751 1.356 . S
N749 H754 0.984 . S
N749 H755 0.985 . S
C750 C744 1.379 . S
C750 C747 1.363 . S
C750 N748 1.356 . S
C751 C745 1.363 . S
C751 C746 1.379 . S
C751 N749 1.356 . S
N752 C744 1.356 . S
N752 H758 0.984 . S
N752 H759 0.984 . S
N753 C746 1.356 . S
N753 H756 0.984 . S
N753 H757 0.985 . S
H754 N749 0.984 . S
H755 N749 0.985 . S
H756 N753 0.984 . S
H757 N753 0.985 . S
H758 N752 0.984 . S
H759 N752 0.984 . S
H760 N748 0.984 . S
H761 N748 0.985 . S
C762 C763 1.363 . S
C762 C768 1.379 . S
C762 N770 1.356 . S
C763 C762 1.363 . S
C763 C769 1.363 . S
C764 C765 1.363 . S
C764 C769 1.379 . S
C764 N771 1.356 . S
C765 C764 1.363 . S
C765 C768 1.363 . S
N766 C768 1.356 . S
N766 H778 0.984 . S
N766 H779 0.985 . S
N767 C769 1.356 . S
N767 H772 0.984 . S
N767 H773 0.985 . S
C768 C762 1.379 . S
C768 C765 1.363 . S
C768 N766 1.356 . S
C769 C763 1.363 . S
C769 C764 1.379 . S
C769 N767 1.356 . S
N770 C762 1.356 . S
N770 H776 0.984 . S
N770 H777 0.984 . S
N771 C764 1.356 . S
N771 H774 0.984 . S
N771 H775 0.985 . S
H772 N767 0.984 . S
H773 N767 0.985 . S
H774 N771 0.984 . S
H775 N771 0.985 . S
H776 N770 0.984 . S
H777 N770 0.984 . S
H778 N766 0.984 . S
H779 N766 0.985 . S
C780 C781 1.363 . S
C780 C786 1.379 . S
C780 N788 1.356 . S
C781 C780 1.363 . S
C781 C787 1.363 . S
C782 C783 1.363 . S
C782 C787 1.379 . S
C782 N789 1.356 . S
C783 C782 1.363 . S
C783 C786 1.363 . S
N784 C786 1.356 . S
N784 H796 0.984 . S
N784 H797 0.985 . S
N785 C787 1.356 . S
N785 H790 0.984 . S
N785 H791 0.985 . S
C786 C780 1.379 . S
C786 C783 1.363 . S
C786 N784 1.356 . S
C787 C781 1.363 . S
C787 C782 1.379 . S
C787 N785 1.356 . S
N788 C780 1.356 . S
N788 H794 0.984 . S
N788 H795 0.984 . S
N789 C782 1.356 . S
N789 H792 0.984 . S
N789 H793 0.985 . S
H790 N785 0.984 . S
H791 N785 0.985 . S
H792 N789 0.984 . S
H793 N789 0.985 . S
H794 N788 0.984 . S
H795 N788 0.984 . S
H796 N784 0.984 . S
H797 N784 0.985 . S
C798 C799 1.363 . S
C798 C804 1.379 . S
C798 N806 1.356 . S
C799 C798 1.363 . S
C799 C805 1.363 . S
C800 C801 1.363 . S
C800 C805 1.379 . S
C800 N807 1.356 . S
C801 C800 1.363 . S
C801 C804 1.363 . S
N802 C804 1.356 . S
N802 H814 0.984 . S
N802 H815 0.985 . S
N803 C805 1.356 . S
N803 H808 0.984 . S
N803 H809 0.985 . S
C804 C798 1.379 . S
C804 C801 1.363 . S
C804 N802 1.356 . S
C805 C799 1.363 . S
C805 C800 1.379 . S
C805 N803 1.356 . S
N806 C798 1.356 . S
N806 H812 0.984 . S
N806 H813 0.984 . S
N807 C800 1.356 . S
N807 H810 0.984 . S
N807 H811 0.985 . S
H808 N803 0.984 . S
H809 N803 0.985 . S
H810 N807 0.984 . S
H811 N807 0.985 . S
H812 N806 0.984 . S
H813 N806 0.984 . S
H814 N802 0.984 . S
H815 N802 0.985 . S
C816 C817 1.363 1_655 S
C816 C822 1.379 1_545 S
C816 N824 1.353 1_655 S
C817 C816 1.363 1_455 S
C817 C823 1.363 . S
C818 C819 1.363 1_455 S
C818 C823 1.379 1_565 S
C818 N825 1.353 1_455 S
C819 C818 1.363 1_655 S
C819 C822 1.363 . S
N820 C822 1.356 . S
N820 H832 0.984 . S
N820 H833 0.985 . S
N821 C823 1.356 . S
N821 H826 0.984 . S
N821 H827 0.985 . S
C822 C816 1.379 1_565 S
C822 C819 1.363 . S
C822 N820 1.356 . S
C823 C817 1.363 . S
C823 C818 1.379 1_545 S
C823 N821 1.356 . S
N824 C816 1.353 1_455 S
N824 H830 0.968 1_455 S
N824 H831 1.004 . S
N825 C818 1.353 1_655 S
N825 H828 1.004 . S
N825 H829 0.968 1_655 S
H826 N821 0.984 . S
H827 N821 0.985 . S
H828 N825 1.004 . S
H829 N825 0.968 1_455 S
H830 N824 0.968 1_655 S
H831 N824 1.004 . S
H832 N820 0.984 . S
H833 N820 0.985 . S
C834 C835 1.363 1_545 S
C834 C840 1.379 . S
C834 N842 1.356 . S
C835 C834 1.363 1_565 S
C835 C841 1.363 . S
C836 C837 1.363 1_565 S
C836 C841 1.379 . S
C836 N843 1.356 . S
C837 C836 1.363 1_545 S
C837 C840 1.363 . S
N838 C840 1.356 . S
N838 H850 0.984 . S
N838 H851 0.985 . S
N839 C841 1.356 . S
N839 H844 0.984 . S
N839 H845 0.985 . S
C840 C834 1.379 . S
C840 C837 1.363 . S
C840 N838 1.356 . S
C841 C835 1.363 . S
C841 C836 1.379 . S
C841 N839 1.356 . S
N842 C834 1.356 . S
N842 H848 0.984 . S
N842 H849 0.988 . S
N843 C836 1.356 . S
N843 H846 0.988 . S
N843 H847 0.985 . S
H844 N839 0.984 . S
H845 N839 0.985 . S
H846 N843 0.988 . S
H847 N843 0.985 . S
H848 N842 0.984 . S
H849 N842 0.988 . S
H850 N838 0.984 . S
H851 N838 0.985 . S
C852 C853 1.363 . S
C852 C858 1.379 . S
C852 N860 1.356 . S
C853 C852 1.363 . S
C853 C859 1.363 1_546 S
C854 C855 1.363 . S
C854 C859 1.379 . S
C854 N861 1.356 . S
C855 C854 1.363 . S
C855 C858 1.363 1_564 S
N856 C858 1.356 1_554 S
N856 H868 0.984 1_554 S
N856 H869 0.985 . S
N857 C859 1.356 1_556 S
N857 H862 0.984 . S
N857 H863 0.985 1_556 S
C858 C852 1.379 . S
C858 C855 1.363 1_546 S
C858 N856 1.356 1_556 S
C859 C853 1.363 1_564 S
C859 C854 1.379 . S
C859 N857 1.356 1_554 S
N860 C852 1.356 . S
N860 H866 0.984 . S
N860 H867 0.984 . S
N861 C854 1.356 . S
N861 H864 0.984 . S
N861 H865 0.985 . S
H862 N857 0.984 . S
H863 N857 0.985 1_554 S
H864 N861 0.984 . S
H865 N861 0.985 . S
H866 N860 0.984 . S
H867 N860 0.984 . S
H868 N856 0.984 1_556 S
H869 N856 0.985 . S
C870 C871 1.363 1_556 S
C870 C876 1.389 . S
C870 N878 1.356 . S
C871 C870 1.363 1_554 S
C871 C877 1.352 1_645 S
C872 C873 1.363 1_554 S
C872 C877 1.389 . S
C872 N879 1.356 . S
C873 C872 1.363 1_556 S
C873 C876 1.352 1_465 S
N874 C876 1.354 1_465 S
N874 H886 0.984 1_465 S
N874 H887 0.985 . S
N875 C877 1.354 1_645 S
N875 H880 0.984 . S
N875 H881 0.985 1_645 S
C876 C870 1.389 . S
C876 C873 1.352 1_645 S
C876 N874 1.354 1_645 S
C877 C871 1.352 1_465 S
C877 C872 1.389 . S
C877 N875 1.354 1_465 S
N878 C870 1.356 . S
N878 H884 0.984 . S
N878 H885 0.984 1_556 S
N879 C872 1.356 . S
N879 H882 0.984 1_554 S
N879 H883 0.985 . S
H880 N875 0.984 . S
H881 N875 0.985 1_465 S
H882 N879 0.984 1_556 S
H883 N879 0.985 . S
H884 N878 0.984 . S
H885 N878 0.984 1_554 S
H886 N874 0.984 1_645 S
H887 N874 0.985 . S
C888 C889 1.363 . S
C888 C894 1.379 . S
C888 N896 1.356 . S
C889 C888 1.363 . S
C889 C895 1.363 . S
C890 C891 1.363 . S
C890 C895 1.379 . S
C890 N897 1.356 . S
C891 C890 1.363 . S
C891 C894 1.363 . S
N892 C894 1.356 . S
N892 H904 0.984 . S
N892 H905 0.985 . S
N893 C895 1.356 . S
N893 H898 0.984 . S
N893 H899 0.985 . S
C894 C888 1.379 . S
C894 C891 1.363 . S
C894 N892 1.356 . S
C895 C889 1.363 . S
C895 C890 1.379 . S
C895 N893 1.356 . S
N896 C888 1.356 . S
N896 H902 0.984 . S
N896 H903 0.984 . S
N897 C890 1.356 . S
N897 H900 0.984 . S
N897 H901 0.985 . S
H898 N893 0.984 . S
H899 N893 0.985 . S
H900 N897 0.984 . S
H901 N897 0.985 . S
H902 N896 0.984 . S
H903 N896 0.984 . S
H904 N892 0.984 . S
H905 N892 0.985 . S
C906 C907 1.363 1_655 S
C906 C912 1.379 . S
C906 N914 1.356 1_655 S
C907 C906 1.363 1_455 S
C907 C913 1.363 . S
C908 C909 1.363 1_455 S
C908 C913 1.379 . S
C908 N915 1.356 1_455 S
C909 C908 1.363 1_655 S
C909 C912 1.363 . S
N910 C912 1.356 . S
N910 H922 0.984 . S
N910 H923 0.985 . S
N911 C913 1.356 . S
N911 H916 0.984 . S
N911 H917 0.985 . S
C912 C906 1.379 . S
C912 C909 1.363 . S
C912 N910 1.356 . S
C913 C907 1.363 . S
C913 C908 1.379 . S
C913 N911 1.356 . S
N914 C906 1.356 1_455 S
N914 H920 0.984 1_455 S
N914 H921 0.984 . S
N915 C908 1.356 1_655 S
N915 H918 0.984 . S
N915 H919 0.985 1_655 S
H916 N911 0.984 . S
H917 N911 0.985 . S
H918 N915 0.984 . S
H919 N915 0.985 1_455 S
H920 N914 0.984 1_655 S
H921 N914 0.984 . S
H922 N910 0.984 . S
H923 N910 0.985 . S
C924 C925 1.363 . S
C924 C930 1.379 1_455 S
C924 N932 1.356 . S
C925 C924 1.363 . S
C925 C931 1.363 1_554 S
C926 C927 1.363 . S
C926 C931 1.379 1_655 S
C926 N933 1.356 . S
C927 C926 1.363 . S
C927 C930 1.363 1_556 S
N928 C930 1.356 . S
N928 H940 0.984 . S
N928 H941 0.985 1_554 S
N929 C931 1.356 . S
N929 H934 0.984 1_556 S
N929 H935 0.985 . S
C930 C924 1.379 1_655 S
C930 C927 1.363 1_554 S
C930 N928 1.356 . S
C931 C925 1.363 1_556 S
C931 C926 1.379 1_455 S
C931 N929 1.356 . S
N932 C924 1.356 . S
N932 H938 0.994 . S
N932 H939 0.984 . S
N933 C926 1.356 . S
N933 H936 0.984 . S
N933 H937 0.994 . S
H934 N929 0.984 1_554 S
H935 N929 0.985 . S
H936 N933 0.984 . S
H937 N933 0.994 . S
H938 N932 0.994 . S
H939 N932 0.984 . S
H940 N928 0.984 . S
H941 N928 0.985 1_556 S
C942 C943 1.363 . S
C942 C948 1.379 . S
C942 N950 1.356 . S
C943 C942 1.363 . S
C943 C949 1.363 1_556 S
C944 C945 1.363 . S
C944 C949 1.379 . S
C944 N951 1.356 . S
C945 C944 1.363 . S
C945 C948 1.363 1_554 S
N946 C948 1.356 . S
N946 H958 0.984 . S
N946 H959 0.985 1_556 S
N947 C949 1.356 . S
N947 H952 0.984 1_554 S
N947 H953 0.985 . S
C948 C942 1.379 . S
C948 C945 1.363 1_556 S
C948 N946 1.356 . S
C949 C943 1.363 1_554 S
C949 C944 1.379 . S
C949 N947 1.356 . S
N950 C942 1.356 . S
N950 H956 0.984 . S
N950 H957 0.984 . S
N951 C944 1.356 . S
N951 H954 0.984 . S
N951 H955 0.985 . S
H952 N947 0.984 1_556 S
H953 N947 0.985 . S
H954 N951 0.984 . S
H955 N951 0.985 . S
H956 N950 0.984 . S
H957 N950 0.984 . S
H958 N946 0.984 . S
H959 N946 0.985 1_554 S
C960 C961 1.363 . S
C960 C966 1.379 1_545 S
C960 N968 1.356 . S
C961 C960 1.363 . S
C961 C967 1.363 . S
C962 C963 1.363 . S
C962 C967 1.379 1_565 S
C962 N969 1.356 . S
C963 C962 1.363 . S
C963 C966 1.363 . S
N964 C966 1.356 . S
N964 H976 0.984 . S
N964 H977 0.985 . S
N965 C967 1.356 . S
N965 H970 0.984 . S
N965 H971 0.985 . S
C966 C960 1.379 1_565 S
C966 C963 1.363 . S
C966 N964 1.356 . S
C967 C961 1.363 . S
C967 C962 1.379 1_545 S
C967 N965 1.356 . S
N968 C960 1.356 . S
N968 H974 0.984 . S
N968 H975 0.984 . S
N969 C962 1.356 . S
N969 H972 0.984 . S
N969 H973 0.985 . S
H970 N965 0.984 . S
H971 N965 0.985 . S
H972 N969 0.984 . S
H973 N969 0.985 . S
H974 N968 0.984 . S
H975 N968 0.984 . S
H976 N964 0.984 . S
H977 N964 0.985 . S
C978 C979 1.363 . S
C978 C984 1.379 1_545 S
C978 N986 1.356 . S
C979 C978 1.363 . S
C979 C985 1.363 . S
C980 C981 1.363 . S
C980 C985 1.379 1_565 S
C980 N987 1.356 . S
C981 C980 1.363 . S
C981 C984 1.363 . S
N982 C984 1.356 . S
N982 H994 0.984 . S
N982 H995 0.985 . S
N983 C985 1.356 . S
N983 H988 0.984 . S
N983 H989 0.985 . S
C984 C978 1.379 1_565 S
C984 C981 1.363 . S
C984 N982 1.356 . S
C985 C979 1.363 . S
C985 C980 1.379 1_545 S
C985 N983 1.356 . S
N986 C978 1.356 . S
N986 H992 0.984 . S
N986 H993 0.984 . S
N987 C980 1.356 . S
N987 H990 0.984 . S
N987 H991 0.985 . S
H988 N983 0.984 . S
H989 N983 0.985 . S
H990 N987 0.984 . S
H991 N987 0.985 . S
H992 N986 0.984 . S
H993 N986 0.984 . S
H994 N982 0.984 . S
H995 N982 0.985 . S
C996 C997 1.363 . S
C996 C1002 1.379 1_545 S
C996 N1004 1.356 . S
C997 C996 1.363 . S
C997 C1003 1.363 . S
C998 C999 1.363 . S
C998 C1003 1.379 1_565 S
C998 N1005 1.356 . S
C999 C998 1.363 . S
C999 C1002 1.363 . S
N1000 C1002 1.356 . S
N1000 H1012 0.984 . S
N1000 H1013 0.985 . S
N1001 C1003 1.356 . S
N1001 H1006 0.984 . S
N1001 H1007 0.985 . S
C1002 C996 1.379 1_565 S
C1002 C999 1.363 . S
C1002 N1000 1.356 . S
C1003 C997 1.363 . S
C1003 C998 1.379 1_545 S
C1003 N1001 1.356 . S
N1004 C996 1.356 . S
N1004 H1010 0.984 . S
N1004 H1011 0.984 . S
N1005 C998 1.356 . S
N1005 H1008 0.984 . S
N1005 H1009 0.985 . S
H1006 N1001 0.984 . S
H1007 N1001 0.985 . S
H1008 N1005 0.984 . S
H1009 N1005 0.985 . S
H1010 N1004 0.984 . S
H1011 N1004 0.984 . S
H1012 N1000 0.984 . S
H1013 N1000 0.985 . S
C1014 C1015 1.363 . S
C1014 C1020 1.379 1_545 S
C1014 N1022 1.356 . S
C1015 C1014 1.363 . S
C1015 C1021 1.363 . S
C1016 C1017 1.363 . S
C1016 C1021 1.379 1_565 S
C1016 N1023 1.356 . S
C1017 C1016 1.363 . S
C1017 C1020 1.363 . S
N1018 C1020 1.356 . S
N1018 H1030 0.984 . S
N1018 H1031 0.985 . S
N1019 C1021 1.356 . S
N1019 H1024 0.984 . S
N1019 H1025 0.985 . S
C1020 C1014 1.379 1_565 S
C1020 C1017 1.363 . S
C1020 N1018 1.356 . S
C1021 C1015 1.363 . S
C1021 C1016 1.379 1_545 S
C1021 N1019 1.356 . S
N1022 C1014 1.356 . S
N1022 H1028 0.984 . S
N1022 H1029 0.984 . S
N1023 C1016 1.356 . S
N1023 H1026 0.984 . S
N1023 H1027 0.985 . S
H1024 N1019 0.984 . S
H1025 N1019 0.985 . S
H1026 N1023 0.984 . S
H1027 N1023 0.985 . S
H1028 N1022 0.984 . S
H1029 N1022 0.984 . S
H1030 N1018 0.984 . S
H1031 N1018 0.985 . S
C1032 C1033 1.363 . S
C1032 C1038 1.379 . S
C1032 N1040 1.356 . S
C1033 C1032 1.363 . S
C1033 C1039 1.363 . S
C1034 C1035 1.363 . S
C1034 C1039 1.379 . S
C1034 N1041 1.356 . S
C1035 C1034 1.363 . S
C1035 C1038 1.363 . S
N1036 C1038 1.356 . S
N1036 H1048 0.984 . S
N1036 H1049 0.985 . S
N1037 C1039 1.356 . S
N1037 H1042 0.984 . S
N1037 H1043 0.985 . S
C1038 C1032 1.379 . S
C1038 C1035 1.363 . S
C1038 N1036 1.356 . S
C1039 C1033 1.363 . S
C1039 C1034 1.379 . S
C1039 N1037 1.356 . S
N1040 C1032 1.356 . S
N1040 H1046 0.984 . S
N1040 H1047 0.984 . S
N1041 C1034 1.356 . S
N1041 H1044 0.984 . S
N1041 H1045 0.985 . S
H1042 N1037 0.984 . S
H1043 N1037 0.985 . S
H1044 N1041 0.984 . S
H1045 N1041 0.985 . S
H1046 N1040 0.984 . S
H1047 N1040 0.984 . S
H1048 N1036 0.984 . S
H1049 N1036 0.985 . S
C1050 C1051 1.363 . S
C1050 C1056 1.379 . S
C1050 N1058 1.356 . S
C1051 C1050 1.363 . S
C1051 C1057 1.363 . S
C1052 C1053 1.363 . S
C1052 C1057 1.379 . S
C1052 N1059 1.356 . S
C1053 C1052 1.363 . S
C1053 C1056 1.363 . S
N1054 C1056 1.356 . S
N1054 H1066 0.984 . S
N1054 H1067 0.985 . S
N1055 C1057 1.356 . S
N1055 H1060 0.984 . S
N1055 H1061 0.985 . S
C1056 C1050 1.379 . S
C1056 C1053 1.363 . S
C1056 N1054 1.356 . S
C1057 C1051 1.363 . S
C1057 C1052 1.379 . S
C1057 N1055 1.356 . S
N1058 C1050 1.356 . S
N1058 H1064 0.984 . S
N1058 H1065 0.984 . S
N1059 C1052 1.356 . S
N1059 H1062 0.984 . S
N1059 H1063 0.985 . S
H1060 N1055 0.984 . S
H1061 N1055 0.985 . S
H1062 N1059 0.984 . S
H1063 N1059 0.985 . S
H1064 N1058 0.984 . S
H1065 N1058 0.984 . S
H1066 N1054 0.984 . S
H1067 N1054 0.985 . S
C1068 C1069 1.363 . S
C1068 C1074 1.379 . S
C1068 N1076 1.356 . S
C1069 C1068 1.363 . S
C1069 C1075 1.363 . S
C1070 C1071 1.363 . S
C1070 C1075 1.379 . S
C1070 N1077 1.356 . S
C1071 C1070 1.363 . S
C1071 C1074 1.363 . S
N1072 C1074 1.356 . S
N1072 H1084 0.984 . S
N1072 H1085 0.985 . S
N1073 C1075 1.356 . S
N1073 H1078 0.984 . S
N1073 H1079 0.985 . S
C1074 C1068 1.379 . S
C1074 C1071 1.363 . S
C1074 N1072 1.356 . S
C1075 C1069 1.363 . S
C1075 C1070 1.379 . S
C1075 N1073 1.356 . S
N1076 C1068 1.356 . S
N1076 H1082 0.984 . S
N1076 H1083 0.984 . S
N1077 C1070 1.356 . S
N1077 H1080 0.984 . S
N1077 H1081 0.985 . S
H1078 N1073 0.984 . S
H1079 N1073 0.985 . S
H1080 N1077 0.984 . S
H1081 N1077 0.985 . S
H1082 N1076 0.984 . S
H1083 N1076 0.984 . S
H1084 N1072 0.984 . S
H1085 N1072 0.985 . S
C1086 C1087 1.363 . S
C1086 C1092 1.379 . S
C1086 N1094 1.356 . S
C1087 C1086 1.363 . S
C1087 C1093 1.363 . S
C1088 C1089 1.363 . S
C1088 C1093 1.379 . S
C1088 N1095 1.356 . S
C1089 C1088 1.363 . S
C1089 C1092 1.363 . S
N1090 C1092 1.356 . S
N1090 H1102 0.984 . S
N1090 H1103 0.985 . S
N1091 C1093 1.356 . S
N1091 H1096 0.984 . S
N1091 H1097 0.985 . S
C1092 C1086 1.379 . S
C1092 C1089 1.363 . S
C1092 N1090 1.356 . S
C1093 C1087 1.363 . S
C1093 C1088 1.379 . S
C1093 N1091 1.356 . S
N1094 C1086 1.356 . S
N1094 H1100 0.984 . S
N1094 H1101 0.984 . S
N1095 C1088 1.356 . S
N1095 H1098 0.984 . S
N1095 H1099 0.985 . S
H1096 N1091 0.984 . S
H1097 N1091 0.985 . S
H1098 N1095 0.984 . S
H1099 N1095 0.985 . S
H1100 N1094 0.984 . S
H1101 N1094 0.984 . S
H1102 N1090 0.984 . S
H1103 N1090 0.985 . S
C1104 C1105 1.363 . S
C1104 C1110 1.379 1_455 S
C1104 N1112 1.356 . S
C1105 C1104 1.363 . S
C1105 C1111 1.363 . S
C1106 C1107 1.363 . S
C1106 C1111 1.379 1_655 S
C1106 N1113 1.356 . S
C1107 C1106 1.363 . S
C1107 C1110 1.363 . S
N1108 C1110 1.356 . S
N1108 H1120 0.984 . S
N1108 H1121 0.985 . S
N1109 C1111 1.356 . S
N1109 H1114 0.984 . S
N1109 H1115 0.985 . S
C1110 C1104 1.379 1_655 S
C1110 C1107 1.363 . S
C1110 N1108 1.356 . S
C1111 C1105 1.363 . S
C1111 C1106 1.379 1_455 S
C1111 N1109 1.356 . S
N1112 C1104 1.356 . S
N1112 H1118 0.984 . S
N1112 H1119 0.984 . S
N1113 C1106 1.356 . S
N1113 H1116 0.984 . S
N1113 H1117 0.985 . S
H1114 N1109 0.984 . S
H1115 N1109 0.985 . S
H1116 N1113 0.984 . S
H1117 N1113 0.985 . S
H1118 N1112 0.984 . S
H1119 N1112 0.984 . S
H1120 N1108 0.984 . S
H1121 N1108 0.985 . S
C1122 C1123 1.363 . S
C1122 C1128 1.379 . S
C1122 N1130 1.356 . S
C1123 C1122 1.363 . S
C1123 C1129 1.363 . S
C1124 C1125 1.363 . S
C1124 C1129 1.379 . S
C1124 N1131 1.356 . S
C1125 C1124 1.363 . S
C1125 C1128 1.363 . S
N1126 C1128 1.356 . S
N1126 H1138 0.984 . S
N1126 H1139 0.985 . S
N1127 C1129 1.356 . S
N1127 H1132 0.984 . S
N1127 H1133 0.985 . S
C1128 C1122 1.379 . S
C1128 C1125 1.363 . S
C1128 N1126 1.356 . S
C1129 C1123 1.363 . S
C1129 C1124 1.379 . S
C1129 N1127 1.356 . S
N1130 C1122 1.356 . S
N1130 H1136 0.984 . S
N1130 H1137 0.984 . S
N1131 C1124 1.356 . S
N1131 H1134 0.984 . S
N1131 H1135 0.985 . S
H1132 N1127 0.984 . S
H1133 N1127 0.985 . S
H1134 N1131 0.984 . S
H1135 N1131 0.985 . S
H1136 N1130 0.984 . S
H1137 N1130 0.984 . S
H1138 N1126 0.984 . S
H1139 N1126 0.985 . S
C1140 C1141 1.363 . S
C1140 C1146 1.379 . S
C1140 N1148 1.356 . S
C1141 C1140 1.363 . S
C1141 C1147 1.363 . S
C1142 C1143 1.363 . S
C1142 C1147 1.379 . S
C1142 N1149 1.356 . S
C1143 C1142 1.363 . S
C1143 C1146 1.363 . S
N1144 C1146 1.356 . S
N1144 H1156 0.984 . S
N1144 H1157 0.985 . S
N1145 C1147 1.356 . S
N1145 H1150 0.984 . S
N1145 H1151 0.985 . S
C1146 C1140 1.379 . S
C1146 C1143 1.363 . S
C1146 N1144 1.356 . S
C1147 C1141 1.363 . S
C1147 C1142 1.379 . S
C1147 N1145 1.356 . S
N1148 C1140 1.356 . S
N1148 H1154 0.984 . S
N1148 H1155 0.984 . S
N1149 C1142 1.356 . S
N1149 H1152 0.984 . S
N1149 H1153 0.985 . S
H1150 N1145 0.984 . S
H1151 N1145 0.985 . S
H1152 N1149 0.984 . S
H1153 N1149 0.985 . S
H1154 N1148 0.984 . S
H1155 N1148 0.984 . S
H1156 N1144 0.984 . S
H1157 N1144 0.985 . S
C1158 C1159 1.363 . S
C1158 C1164 1.379 1_655 S
C1158 N1166 1.356 . S
C1159 C1158 1.363 . S
C1159 C1165 1.363 . S
C1160 C1161 1.363 . S
C1160 C1165 1.379 1_455 S
C1160 N1167 1.356 . S
C1161 C1160 1.363 . S
C1161 C1164 1.363 . S
N1162 C1164 1.356 . S
N1162 H1174 0.984 . S
N1162 H1175 0.985 . S
N1163 C1165 1.356 . S
N1163 H1168 0.984 . S
N1163 H1169 0.985 . S
C1164 C1158 1.379 1_455 S
C1164 C1161 1.363 . S
C1164 N1162 1.356 . S
C1165 C1159 1.363 . S
C1165 C1160 1.379 1_655 S
C1165 N1163 1.356 . S
N1166 C1158 1.356 . S
N1166 H1172 0.984 . S
N1166 H1173 0.984 . S
N1167 C1160 1.356 . S
N1167 H1170 0.984 . S
N1167 H1171 0.985 . S
H1168 N1163 0.984 . S
H1169 N1163 0.985 . S
H1170 N1167 0.984 . S
H1171 N1167 0.985 . S
H1172 N1166 0.984 . S
H1173 N1166 0.984 . S
H1174 N1162 0.984 . S
H1175 N1162 0.985 . S
C1176 C1177 1.363 . S
C1176 C1182 1.379 1_655 S
C1176 N1184 1.356 . S
C1177 C1176 1.363 . S
C1177 C1183 1.363 . S
C1178 C1179 1.363 . S
C1178 C1183 1.379 1_455 S
C1178 N1185 1.356 . S
C1179 C1178 1.363 . S
C1179 C1182 1.363 . S
N1180 C1182 1.356 . S
N1180 H1192 0.984 . S
N1180 H1193 0.985 . S
N1181 C1183 1.356 . S
N1181 H1186 0.984 . S
N1181 H1187 0.985 . S
C1182 C1176 1.379 1_455 S
C1182 C1179 1.363 . S
C1182 N1180 1.356 . S
C1183 C1177 1.363 . S
C1183 C1178 1.379 1_655 S
C1183 N1181 1.356 . S
N1184 C1176 1.356 . S
N1184 H1190 0.984 . S
N1184 H1191 0.984 . S
N1185 C1178 1.356 . S
N1185 H1188 0.984 . S
N1185 H1189 0.985 . S
H1186 N1181 0.984 . S
H1187 N1181 0.985 . S
H1188 N1185 0.984 . S
H1189 N1185 0.985 . S
H1190 N1184 0.984 . S
H1191 N1184 0.984 . S
H1192 N1180 0.984 . S
H1193 N1180 0.985 . S
C1194 C1195 1.363 . S
C1194 C1200 1.379 . S
C1194 N1202 1.356 . S
C1195 C1194 1.363 . S
C1195 C1201 1.363 . S
C1196 C1197 1.363 . S
C1196 C1201 1.379 . S
C1196 N1203 1.356 . S
C1197 C1196 1.363 . S
C1197 C1200 1.363 . S
N1198 C1200 1.356 . S
N1198 H1210 0.984 . S
N1198 H1211 0.985 . S
N1199 C1201 1.356 . S
N1199 H1204 0.984 . S
N1199 H1205 0.985 . S
C1200 C1194 1.379 . S
C1200 C1197 1.363 . S
C1200 N1198 1.356 . S
C1201 C1195 1.363 . S
C1201 C1196 1.379 . S
C1201 N1199 1.356 . S
N1202 C1194 1.356 . S
N1202 H1208 0.984 . S
N1202 H1209 0.984 . S
N1203 C1196 1.356 . S
N1203 H1206 0.984 . S
N1203 H1207 0.985 . S
H1204 N1199 0.984 . S
H1205 N1199 0.985 . S
H1206 N1203 0.984 . S
H1207 N1203 0.985 . S
H1208 N1202 0.984 . S
H1209 N1202 0.984 . S
H1210 N1198 0.984 . S
H1211 N1198 0.985 . S
C1212 C1213 1.363 . S
C1212 C1218 1.379 . S
C1212 N1220 1.356 . S
C1213 C1212 1.363 . S
C1213 C1219 1.363 . S
C1214 C1215 1.363 . S
C1214 C1219 1.379 . S
C1214 N1221 1.356 . S
C1215 C1214 1.363 . S
C1215 C1218 1.363 . S
N1216 C1218 1.356 . S
N1216 H1228 0.984 . S
N1216 H1229 0.985 . S
N1217 C1219 1.356 . S
N1217 H1222 0.984 . S
N1217 H1223 0.985 . S
C1218 C1212 1.379 . S
C1218 C1215 1.363 . S
C1218 N1216 1.356 . S
C1219 C1213 1.363 . S
C1219 C1214 1.379 . S
C1219 N1217 1.356 . S
N1220 C1212 1.356 . S
N1220 H1226 0.984 . S
N1220 H1227 0.984 . S
N1221 C1214 1.356 . S
N1221 H1224 0.984 . S
N1221 H1225 0.985 . S
H1222 N1217 0.984 . S
H1223 N1217 0.985 . S
H1224 N1221 0.984 . S
H1225 N1221 0.985 . S
H1226 N1220 0.984 . S
H1227 N1220 0.984 . S
H1228 N1216 0.984 . S
H1229 N1216 0.985 . S
C1230 C1231 1.363 . S
C1230 C1236 1.379 1_655 S
C1230 N1238 1.356 . S
C1231 C1230 1.363 . S
C1231 C1237 1.363 . S
C1232 C1233 1.363 . S
C1232 C1237 1.379 1_455 S
C1232 N1239 1.356 . S
C1233 C1232 1.363 . S
C1233 C1236 1.363 . S
N1234 C1236 1.356 . S
N1234 H1246 0.984 . S
N1234 H1247 0.985 . S
N1235 C1237 1.356 . S
N1235 H1240 0.984 . S
N1235 H1241 0.985 . S
C1236 C1230 1.379 1_455 S
C1236 C1233 1.363 . S
C1236 N1234 1.356 . S
C1237 C1231 1.363 . S
C1237 C1232 1.379 1_655 S
C1237 N1235 1.356 . S
N1238 C1230 1.356 . S
N1238 H1244 0.984 . S
N1238 H1245 0.984 . S
N1239 C1232 1.356 . S
N1239 H1242 0.984 . S
N1239 H1243 0.985 . S
H1240 N1235 0.984 . S
H1241 N1235 0.985 . S
H1242 N1239 0.984 . S
H1243 N1239 0.985 . S
H1244 N1238 0.984 . S
H1245 N1238 0.984 . S
H1246 N1234 0.984 . S
H1247 N1234 0.985 . S
C529 C120 0.634 . S
C531 C21 0.634 . S
C547 C87 0.634 . S
C549 C54 0.634 . S
C565 C153 0.634 . S
C567 C252 0.634 . S
C583 C186 0.634 . S
C585 C219 0.634 . S
C601 C285 0.634 . S
C603 C384 0.634 . S
C619 C318 0.634 . S
C621 C351 0.634 . S
C637 C516 0.634 . S
C639 C417 0.634 . S
C655 C483 0.634 . S
C657 C450 0.634 . S
C673 N2 1.427 . S
C675 N332 1.427 . S
C691 N365 1.427 . S
C693 N35 1.427 . S
C709 N266 1.427 . S
C711 N68 1.427 . S
C727 N299 1.427 . S
C729 N101 1.427 . S
C745 N464 1.427 . S
C747 N134 1.427 . S
C763 N497 1.427 . S
C765 N167 1.427 . S
C781 N398 1.427 . S
C783 N200 1.427 . S
C799 N431 1.427 . S
C801 N233 1.427 . S
C817 N13 1.613 . S
C819 N145 1.613 . S
C835 N46 1.613 . S
C837 N178 1.613 . S
C853 N211 1.613 . S
C855 N79 1.613 . S
C871 N112 1.613 . S
C873 N244 1.613 . S
C889 N277 1.613 . S
C891 N409 1.613 . S
C907 N442 1.613 . S
C909 N310 1.613 . S
C925 N343 1.613 . S
C927 N475 1.613 . S
C943 N508 1.613 . S
C945 N376 1.613 . S
C961 C18 1.584 . S
C963 C51 1.584 . S
C979 C117 1.584 . S
C981 C84 1.584 . S
C997 C183 1.584 . S
C999 C150 1.584 . S
C1015 C216 1.584 . S
C1017 C249 1.584 . S
C1033 C315 1.584 . S
C1035 C282 1.584 . S
C1051 C381 1.584 . S
C1053 C348 1.584 . S
C1069 C414 1.584 . S
C1071 C447 1.584 . S
C1087 C513 1.584 . S
C1089 C480 1.584 . S
C1105 C7 1.439 . S
C1107 C304 1.439 . S
C1123 C40 1.439 . S
C1125 C271 1.439 . S
C1141 C73 1.439 . S
C1143 C370 1.439 . S
C1159 C106 1.439 . S
C1161 C337 1.439 . S
C1177 C139 1.439 . S
C1179 C436 1.439 . S
C1195 C403 1.439 . S
C1197 C172 1.439 . S
C1213 C205 1.439 . S
C1215 C502 1.439 . S
C1231 C469 1.439 . S
C1233 C238 1.439 . S
