# Generated by pormake.
# Topology cbo, (4)-cn, num edge types: 1
# Building blocks:
#     Node 0, Type 0, BuildingBlock: ESEHIV_clean_sbu_0, # of connection points: 4
#     Node 1, Type 0, BuildingBlock: ESEHIV_clean_sbu_0, # of connection points: 4
#     Node 2, Type 0, BuildingBlock: ESEHIV_clean_sbu_0, # of connection points: 4
#     Node 3, Type 0, BuildingBlock: ESEHIV_clean_sbu_0, # of connection points: 4
#     Node 4, Type 0, BuildingBlock: ESEHIV_clean_sbu_0, # of connection points: 4
#     Node 5, Type 0, BuildingBlock: ESEHIV_clean_sbu_0, # of connection points: 4
#     Node 6, Type 0, BuildingBlock: ESEHIV_clean_sbu_0, # of connection points: 4
#     Node 7, Type 0, BuildingBlock: ESEHIV_clean_sbu_0, # of connection points: 4
#     Node 8, Type 0, BuildingBlock: ESEHIV_clean_sbu_0, # of connection points: 4
#     Node 9, Type 0, BuildingBlock: ESEHIV_clean_sbu_0, # of connection points: 4
#     Node 10, Type 0, BuildingBlock: ESEHIV_clean_sbu_0, # of connection points: 4
#     Node 11, Type 0, BuildingBlock: ESEHIV_clean_sbu_0, # of connection points: 4
#     Node 12, Type 0, BuildingBlock: ESEHIV_clean_sbu_0, # of connection points: 4
#     Node 13, Type 0, BuildingBlock: ESEHIV_clean_sbu_0, # of connection points: 4
#     Node 14, Type 0, BuildingBlock: ESEHIV_clean_sbu_0, # of connection points: 4
#     Node 15, Type 0, BuildingBlock: ESEHIV_clean_sbu_0, # of connection points: 4
#     Node 16, Type 0, BuildingBlock: ESEHIV_clean_sbu_0, # of connection points: 4
#     Node 17, Type 0, BuildingBlock: ESEHIV_clean_sbu_0, # of connection points: 4
#     Node 18, Type 0, BuildingBlock: ESEHIV_clean_sbu_0, # of connection points: 4
#     Node 19, Type 0, BuildingBlock: ESEHIV_clean_sbu_0, # of connection points: 4
#     Node 20, Type 0, BuildingBlock: ESEHIV_clean_sbu_0, # of connection points: 4
#     Node 21, Type 0, BuildingBlock: ESEHIV_clean_sbu_0, # of connection points: 4
#     Node 22, Type 0, BuildingBlock: ESEHIV_clean_sbu_0, # of connection points: 4
#     Node 23, Type 0, BuildingBlock: ESEHIV_clean_sbu_0, # of connection points: 4
#     Edge 24, Type (0, 0), BuildingBlock: MIFKUJ_clean_linker_0, # of connection points: 2
#     Edge 25, Type (0, 0), BuildingBlock: MIFKUJ_clean_linker_0, # of connection points: 2
#     Edge 26, Type (0, 0), BuildingBlock: MIFKUJ_clean_linker_0, # of connection points: 2
#     Edge 27, Type (0, 0), BuildingBlock: MIFKUJ_clean_linker_0, # of connection points: 2
#     Edge 28, Type (0, 0), BuildingBlock: MIFKUJ_clean_linker_0, # of connection points: 2
#     Edge 29, Type (0, 0), BuildingBlock: MIFKUJ_clean_linker_0, # of connection points: 2
#     Edge 30, Type (0, 0), BuildingBlock: MIFKUJ_clean_linker_0, # of connection points: 2
#     Edge 31, Type (0, 0), BuildingBlock: MIFKUJ_clean_linker_0, # of connection points: 2
#     Edge 32, Type (0, 0), BuildingBlock: MIFKUJ_clean_linker_0, # of connection points: 2
#     Edge 33, Type (0, 0), BuildingBlock: MIFKUJ_clean_linker_0, # of connection points: 2
#     Edge 34, Type (0, 0), BuildingBlock: MIFKUJ_clean_linker_0, # of connection points: 2
#     Edge 35, Type (0, 0), BuildingBlock: MIFKUJ_clean_linker_0, # of connection points: 2
#     Edge 36, Type (0, 0), BuildingBlock: MIFKUJ_clean_linker_0, # of connection points: 2
#     Edge 37, Type (0, 0), BuildingBlock: MIFKUJ_clean_linker_0, # of connection points: 2
#     Edge 38, Type (0, 0), BuildingBlock: MIFKUJ_clean_linker_0, # of connection points: 2
#     Edge 39, Type (0, 0), BuildingBlock: MIFKUJ_clean_linker_0, # of connection points: 2
#     Edge 40, Type (0, 0), BuildingBlock: MIFKUJ_clean_linker_0, # of connection points: 2
#     Edge 41, Type (0, 0), BuildingBlock: MIFKUJ_clean_linker_0, # of connection points: 2
#     Edge 42, Type (0, 0), BuildingBlock: MIFKUJ_clean_linker_0, # of connection points: 2
#     Edge 43, Type (0, 0), BuildingBlock: MIFKUJ_clean_linker_0, # of connection points: 2
#     Edge 44, Type (0, 0), BuildingBlock: MIFKUJ_clean_linker_0, # of connection points: 2
#     Edge 45, Type (0, 0), BuildingBlock: MIFKUJ_clean_linker_0, # of connection points: 2
#     Edge 46, Type (0, 0), BuildingBlock: MIFKUJ_clean_linker_0, # of connection points: 2
#     Edge 47, Type (0, 0), BuildingBlock: MIFKUJ_clean_linker_0, # of connection points: 2
#     Edge 48, Type (0, 0), BuildingBlock: MIFKUJ_clean_linker_0, # of connection points: 2
#     Edge 49, Type (0, 0), BuildingBlock: MIFKUJ_clean_linker_0, # of connection points: 2
#     Edge 50, Type (0, 0), BuildingBlock: MIFKUJ_clean_linker_0, # of connection points: 2
#     Edge 51, Type (0, 0), BuildingBlock: MIFKUJ_clean_linker_0, # of connection points: 2
#     Edge 52, Type (0, 0), BuildingBlock: MIFKUJ_clean_linker_0, # of connection points: 2
#     Edge 53, Type (0, 0), BuildingBlock: MIFKUJ_clean_linker_0, # of connection points: 2
#     Edge 54, Type (0, 0), BuildingBlock: MIFKUJ_clean_linker_0, # of connection points: 2
#     Edge 55, Type (0, 0), BuildingBlock: MIFKUJ_clean_linker_0, # of connection points: 2
#     Edge 56, Type (0, 0), BuildingBlock: MIFKUJ_clean_linker_0, # of connection points: 2
#     Edge 57, Type (0, 0), BuildingBlock: MIFKUJ_clean_linker_0, # of connection points: 2
#     Edge 58, Type (0, 0), BuildingBlock: MIFKUJ_clean_linker_0, # of connection points: 2
#     Edge 59, Type (0, 0), BuildingBlock: MIFKUJ_clean_linker_0, # of connection points: 2
#     Edge 60, Type (0, 0), BuildingBlock: MIFKUJ_clean_linker_0, # of connection points: 2
#     Edge 61, Type (0, 0), BuildingBlock: MIFKUJ_clean_linker_0, # of connection points: 2
#     Edge 62, Type (0, 0), BuildingBlock: MIFKUJ_clean_linker_0, # of connection points: 2
#     Edge 63, Type (0, 0), BuildingBlock: MIFKUJ_clean_linker_0, # of connection points: 2
#     Edge 64, Type (0, 0), BuildingBlock: MIFKUJ_clean_linker_0, # of connection points: 2
#     Edge 65, Type (0, 0), BuildingBlock: MIFKUJ_clean_linker_0, # of connection points: 2
#     Edge 66, Type (0, 0), BuildingBlock: MIFKUJ_clean_linker_0, # of connection points: 2
#     Edge 67, Type (0, 0), BuildingBlock: MIFKUJ_clean_linker_0, # of connection points: 2
#     Edge 68, Type (0, 0), BuildingBlock: MIFKUJ_clean_linker_0, # of connection points: 2
#     Edge 69, Type (0, 0), BuildingBlock: MIFKUJ_clean_linker_0, # of connection points: 2
#     Edge 70, Type (0, 0), BuildingBlock: MIFKUJ_clean_linker_0, # of connection points: 2
#     Edge 71, Type (0, 0), BuildingBlock: MIFKUJ_clean_linker_0, # of connection points: 2
# Relax obj value: 0.116
# Max RMSD: 0.283
# Mean RMSD: 0.268
data_MOF--net-cbo--node1-ESEHIV_clean_sbu_0--edge1-MIFKUJ_clean_linker_0
_symmetry_space_group_name_H-M    P1
_symmetry_Int_Tables_number       1
_symmetry_cell_setting            triclinic
loop_
_symmetry_equiv_pos_as_xyz
'x, y, z'
_cell_length_a     71.041956
_cell_length_b     75.632367
_cell_length_c     72.635148
_cell_angle_alpha  89.898111
_cell_angle_beta   90.075082
_cell_angle_gamma 90.066239
loop_
_atom_site_label
_atom_site_type_symbol
_atom_site_fract_x
_atom_site_fract_y
_atom_site_fract_z
_atom_type_partial_charge
Cu0 Cu 0.11731 0.18274 0.32243 0.0
N1 N 0.12369 0.19201 0.34558 0.0
N2 N 0.12825 0.19697 0.37569 0.0
C3 C 0.12163 0.18556 0.36285 0.0
C4 C 0.13478 0.21098 0.36609 0.0
C5 C 0.13198 0.20787 0.34766 0.0
O6 O 0.09418 0.16877 0.32287 0.0
C7 C 0.13849 0.16164 0.29737 0.0
O8 O 0.12229 0.15954 0.2889 0.0
H9 H 0.11526 0.17293 0.36599 0.0
H10 H 0.13579 0.21659 0.33644 0.0
N11 N 0.11175 0.20204 0.30731 0.0
N12 N 0.11171 0.22238 0.28491 0.0
C13 C 0.12013 0.2077 0.2917 0.0
C14 C 0.09759 0.2134 0.31041 0.0
C15 C 0.09752 0.22593 0.29668 0.0
C16 C 0.08979 0.15554 0.33284 0.0
O17 O 0.10215 0.149 0.34444 0.0
H18 H 0.13224 0.20131 0.28561 0.0
H19 H 0.08795 0.21255 0.32188 0.0
O20 O 0.13903 0.17048 0.31226 0.0
H21 H 0.14143 0.22257 0.37192 0.0
H22 H 0.08754 0.23666 0.29534 0.0
Cu23 Cu 0.40089 0.82928 0.81892 0.0
N24 N 0.39359 0.82133 0.84241 0.0
N25 N 0.38894 0.81802 0.87275 0.0
C26 C 0.3954 0.82881 0.85923 0.0
C27 C 0.38275 0.80337 0.86405 0.0
C28 C 0.38563 0.80545 0.84549 0.0
O29 O 0.42538 0.84093 0.81969 0.0
C30 C 0.36479 0.83617 0.806 0.0
O31 O 0.36247 0.82014 0.81262 0.0
H32 H 0.40168 0.84165 0.86157 0.0
H33 H 0.38223 0.79593 0.8349 0.0
N34 N 0.40453 0.80922 0.80431 0.0
N35 N 0.40377 0.78972 0.78119 0.0
C36 C 0.39811 0.80579 0.78719 0.0
C37 C 0.4147 0.79499 0.80919 0.0
C38 C 0.41422 0.78294 0.79504 0.0
C39 C 0.43005 0.85526 0.82766 0.0
O40 O 0.41725 0.8645 0.83642 0.0
H41 H 0.38933 0.81479 0.7794 0.0
H42 H 0.42199 0.79353 0.82219 0.0
O43 O 0.38092 0.84343 0.80762 0.0
H44 H 0.37645 0.79197 0.87063 0.0
H45 H 0.4213 0.77028 0.79486 0.0
Cu46 Cu 0.60993 0.33035 0.69058 0.0
N47 N 0.61704 0.32026 0.66809 0.0
N48 N 0.62281 0.31592 0.63812 0.0
C49 C 0.61775 0.32773 0.65121 0.0
C50 C 0.62543 0.30053 0.64722 0.0
C51 C 0.62183 0.30324 0.66561 0.0
O52 O 0.58765 0.34485 0.68663 0.0
C53 C 0.64751 0.33813 0.70016 0.0
O54 O 0.65089 0.32401 0.69022 0.0
H55 H 0.61426 0.34142 0.64857 0.0
H56 H 0.62261 0.29346 0.67647 0.0
N57 N 0.60322 0.31218 0.70673 0.0
N58 N 0.6023 0.29377 0.73087 0.0
C59 C 0.61144 0.30741 0.72274 0.0
C60 C 0.58841 0.3013 0.70467 0.0
C61 C 0.5878 0.28995 0.71949 0.0
C62 C 0.57816 0.35058 0.70021 0.0
O63 O 0.58447 0.34775 0.71698 0.0
H64 H 0.62389 0.31378 0.72821 0.0
H65 H 0.57864 0.30175 0.69325 0.0
O66 O 0.63062 0.34359 0.70169 0.0
H67 H 0.62984 0.28818 0.6411 0.0
H68 H 0.5772 0.27991 0.72184 0.0
Cu69 Cu 0.90009 0.68355 0.19443 0.0
N70 N 0.88972 0.68849 0.17122 0.0
N71 N 0.88315 0.68982 0.14109 0.0
C72 C 0.89566 0.68449 0.15405 0.0
C73 C 0.86904 0.6976 0.15047 0.0
C74 C 0.87317 0.69683 0.16894 0.0
O75 O 0.92535 0.6736 0.19292 0.0
C76 C 0.86988 0.65944 0.20114 0.0
O77 O 0.86937 0.65806 0.18312 0.0
H78 H 0.90858 0.67748 0.15112 0.0
H79 H 0.86454 0.70174 0.18007 0.0
N80 N 0.90244 0.70503 0.20683 0.0
N81 N 0.90091 0.72622 0.22826 0.0
C82 C 0.89648 0.70933 0.22387 0.0
C83 C 0.91095 0.71959 0.20023 0.0
C84 C 0.91004 0.73265 0.21337 0.0
C85 C 0.93046 0.65983 0.18421 0.0
O86 O 0.91787 0.65055 0.17514 0.0
H87 H 0.88893 0.70028 0.23275 0.0
H88 H 0.91747 0.72056 0.18682 0.0
O89 O 0.88268 0.66882 0.20862 0.0
H90 H 0.85662 0.70349 0.14439 0.0
H91 H 0.91601 0.74577 0.21212 0.0
Cu92 Cu 0.32843 0.1045 0.1687 0.0
N93 N 0.32311 0.08436 0.15472 0.0
N94 N 0.32222 0.05664 0.14395 0.0
C95 C 0.32855 0.06746 0.15745 0.0
C96 C 0.31238 0.06719 0.13242 0.0
C97 C 0.31295 0.0842 0.13909 0.0
O98 O 0.35509 0.10452 0.17526 0.0
C99 C 0.30892 0.11932 0.19949 0.0
O100 O 0.32118 0.13227 0.19807 0.0
H101 H 0.3372 0.06327 0.16893 0.0
H102 H 0.30642 0.09571 0.13296 0.0
N103 N 0.32505 0.12414 0.15351 0.0
N104 N 0.31436 0.14932 0.14124 0.0
C105 C 0.31147 0.13656 0.15399 0.0
C106 C 0.33678 0.12909 0.13994 0.0
C107 C 0.33025 0.1446 0.13235 0.0
C108 C 0.36267 0.10605 0.19106 0.0
O109 O 0.35199 0.10667 0.20579 0.0
H110 H 0.30002 0.13649 0.1638 0.0
H111 H 0.34934 0.12197 0.13601 0.0
O112 O 0.31046 0.10593 0.18897 0.0
H113 H 0.30502 0.0629 0.12016 0.0
H114 H 0.33672 0.1518 0.12113 0.0
Cu115 Cu 0.18785 0.90737 0.66708 0.0
N116 N 0.1915 0.92804 0.65324 0.0
N117 N 0.19262 0.95621 0.64355 0.0
C118 C 0.18834 0.94512 0.65766 0.0
C119 C 0.19858 0.94555 0.62985 0.0
C120 C 0.19793 0.92834 0.63585 0.0
O121 O 0.16142 0.90471 0.67364 0.0
C122 C 0.20562 0.89333 0.69868 0.0
O123 O 0.19244 0.88122 0.69708 0.0
H124 H 0.18318 0.94927 0.67097 0.0
H125 H 0.20182 0.91679 0.62799 0.0
N126 N 0.19295 0.88815 0.65179 0.0
N127 N 0.20457 0.86299 0.64033 0.0
C128 C 0.20596 0.87531 0.65376 0.0
C129 C 0.18307 0.88387 0.63665 0.0
C130 C 0.19022 0.86845 0.62951 0.0
C131 C 0.15211 0.91238 0.68626 0.0
O132 O 0.16061 0.92368 0.69719 0.0
H133 H 0.21587 0.87479 0.66506 0.0
H134 H 0.17137 0.89143 0.63128 0.0
O135 O 0.20542 0.90649 0.68772 0.0
H136 H 0.20286 0.94973 0.61624 0.0
H137 H 0.1852 0.86184 0.61725 0.0
Cu138 Cu 0.82122 0.41145 0.84206 0.0
N139 N 0.81551 0.43255 0.85426 0.0
N140 N 0.81359 0.46074 0.86343 0.0
C141 C 0.82271 0.44903 0.85253 0.0
C142 C 0.80037 0.45121 0.87236 0.0
C143 C 0.80159 0.43393 0.86669 0.0
O144 O 0.84768 0.41084 0.8344 0.0
C145 C 0.80476 0.39774 0.80878 0.0
O146 O 0.82047 0.38881 0.80688 0.0
H147 H 0.83401 0.45243 0.84318 0.0
H148 H 0.79278 0.42308 0.87116 0.0
N149 N 0.81704 0.39304 0.85871 0.0
N150 N 0.8064 0.36794 0.8713 0.0
C151 C 0.80566 0.37892 0.85659 0.0
C152 C 0.82524 0.39101 0.87526 0.0
C153 C 0.81873 0.37556 0.88305 0.0
C154 C 0.85628 0.39606 0.83342 0.0
O155 O 0.84676 0.38143 0.83632 0.0
H156 H 0.79701 0.37682 0.84453 0.0
H157 H 0.83542 0.40004 0.88111 0.0
O158 O 0.80309 0.40851 0.82213 0.0
H159 H 0.79053 0.45634 0.88237 0.0
H160 H 0.82311 0.3702 0.89619 0.0
Cu161 Cu 0.68964 0.60104 0.34293 0.0
N162 N 0.69377 0.58107 0.35763 0.0
N163 N 0.69581 0.55333 0.36827 0.0
C164 C 0.68991 0.56387 0.35431 0.0
C165 C 0.70349 0.56438 0.38078 0.0
C166 C 0.70223 0.58139 0.37419 0.0
O167 O 0.6639 0.6009 0.33334 0.0
C168 C 0.70793 0.60758 0.30794 0.0
O169 O 0.69114 0.61102 0.30126 0.0
H170 H 0.68333 0.55918 0.34179 0.0
H171 H 0.70726 0.59321 0.38096 0.0
N172 N 0.69216 0.62092 0.35789 0.0
N173 N 0.70248 0.64651 0.36946 0.0
C174 C 0.70539 0.63366 0.35688 0.0
C175 C 0.68056 0.62578 0.37158 0.0
C176 C 0.68687 0.64156 0.37873 0.0
C177 C 0.65599 0.61535 0.32862 0.0
O178 O 0.66608 0.62992 0.32839 0.0
H179 H 0.71664 0.63369 0.34684 0.0
H180 H 0.66828 0.6184 0.37591 0.0
O181 O 0.70958 0.60254 0.32458 0.0
H182 H 0.70951 0.56049 0.39387 0.0
H183 H 0.68051 0.64876 0.38998 0.0
Cu184 Cu 0.17035 0.34162 0.09725 0.0
N185 N 0.1769 0.3623 0.10981 0.0
N186 N 0.18028 0.39038 0.11897 0.0
C187 C 0.17225 0.37933 0.10655 0.0
C188 C 0.19019 0.3798 0.13041 0.0
C189 C 0.18809 0.36259 0.12473 0.0
O190 O 0.15957 0.34659 0.07314 0.0
C191 C 0.14599 0.33185 0.12692 0.0
O192 O 0.14467 0.34891 0.13002 0.0
H193 H 0.1634 0.38351 0.09521 0.0
H194 H 0.19423 0.351 0.13107 0.0
N195 N 0.19234 0.32882 0.09344 0.0
N196 N 0.2139 0.30744 0.09597 0.0
C197 C 0.19718 0.31367 0.10196 0.0
C198 C 0.20643 0.33239 0.08167 0.0
C199 C 0.21977 0.31923 0.0832 0.0
C200 C 0.14251 0.34403 0.06847 0.0
O201 O 0.13039 0.33846 0.08084 0.0
H202 H 0.18862 0.30746 0.11245 0.0
H203 H 0.20685 0.34369 0.07252 0.0
O204 O 0.15489 0.32649 0.11281 0.0
H205 H 0.19817 0.38412 0.14228 0.0
H206 H 0.2326 0.31828 0.07525 0.0
Cu207 Cu 0.66776 0.17524 0.9146 0.0
N208 N 0.66714 0.15409 0.90115 0.0
N209 N 0.66649 0.12574 0.89252 0.0
C210 C 0.66814 0.13708 0.90683 0.0
C211 C 0.66462 0.13592 0.87741 0.0
C212 C 0.66521 0.15334 0.88273 0.0
O213 O 0.65976 0.17234 0.9401 0.0
C214 C 0.63859 0.19057 0.89212 0.0
O215 O 0.63063 0.17488 0.89248 0.0
H216 H 0.66972 0.13311 0.92107 0.0
H217 H 0.66419 0.16474 0.87378 0.0
N218 N 0.69228 0.18396 0.91502 0.0
N219 N 0.71595 0.20302 0.91098 0.0
C220 C 0.69856 0.19809 0.90553 0.0
C221 C 0.7062 0.17969 0.92678 0.0
C222 C 0.72084 0.19147 0.92435 0.0
C223 C 0.64349 0.1676 0.94554 0.0
O224 O 0.63047 0.16382 0.93331 0.0
H225 H 0.69007 0.20531 0.89569 0.0
H226 H 0.70535 0.16931 0.93702 0.0
O227 O 0.65336 0.19331 0.90162 0.0
H228 H 0.66316 0.13107 0.86346 0.0
H229 H 0.7338 0.19187 0.93218 0.0
Cu230 Cu 0.84226 0.84194 0.41818 0.0
N231 N 0.83443 0.86381 0.40861 0.0
N232 N 0.83245 0.89191 0.39902 0.0
C233 C 0.84242 0.88005 0.40907 0.0
C234 C 0.81767 0.88282 0.39221 0.0
C235 C 0.81891 0.86561 0.39814 0.0
O236 O 0.85237 0.84369 0.44307 0.0
C237 C 0.86221 0.83465 0.38494 0.0
O238 O 0.85662 0.85045 0.37984 0.0
H239 H 0.8555 0.883 0.41606 0.0
H240 H 0.80934 0.85497 0.39473 0.0
N241 N 0.82087 0.82777 0.42001 0.0
N242 N 0.80028 0.80582 0.41549 0.0
C243 C 0.81716 0.81274 0.41075 0.0
C244 C 0.80595 0.83049 0.43098 0.0
C245 C 0.79322 0.81699 0.42823 0.0
C246 C 0.867 0.85195 0.44844 0.0
O247 O 0.87725 0.86064 0.43641 0.0
H248 H 0.82658 0.80711 0.40065 0.0
H249 H 0.8045 0.84148 0.44037 0.0
O250 O 0.85882 0.82936 0.40127 0.0
H251 H 0.80671 0.88823 0.3835 0.0
H252 H 0.77997 0.81538 0.43537 0.0
Cu253 Cu 0.34811 0.67031 0.59488 0.0
N254 N 0.33882 0.64955 0.60555 0.0
N255 N 0.33496 0.62167 0.61528 0.0
C256 C 0.34573 0.63292 0.60526 0.0
C257 C 0.32078 0.63165 0.62194 0.0
C258 C 0.32321 0.64875 0.61596 0.0
O259 O 0.35947 0.66542 0.57101 0.0
C260 C 0.36809 0.69854 0.6114 0.0
O261 O 0.36309 0.70714 0.59644 0.0
H262 H 0.35851 0.62925 0.59814 0.0
H263 H 0.31423 0.6599 0.61901 0.0
N264 N 0.32768 0.68526 0.59067 0.0
N265 N 0.30668 0.70697 0.59421 0.0
C266 C 0.32099 0.69786 0.60198 0.0
C267 C 0.31719 0.68628 0.57529 0.0
C268 C 0.30419 0.69964 0.57743 0.0
C269 C 0.37573 0.67024 0.5656 0.0
O270 O 0.38708 0.67832 0.57715 0.0
H271 H 0.32662 0.70038 0.61557 0.0
H272 H 0.31914 0.67813 0.56323 0.0
O273 O 0.36439 0.6821 0.61263 0.0
H274 H 0.30928 0.62692 0.63038 0.0
H275 H 0.29413 0.70399 0.56718 0.0
Cu276 Cu 0.92209 0.84809 0.69481 0.0
N277 N 0.91007 0.84213 0.67272 0.0
N278 N 0.90127 0.83972 0.64317 0.0
C279 C 0.91419 0.84635 0.65509 0.0
C280 C 0.88863 0.83117 0.65386 0.0
C281 C 0.89409 0.83267 0.67194 0.0
O282 O 0.94654 0.8591 0.69055 0.0
C283 C 0.89466 0.87466 0.70219 0.0
O284 O 0.89681 0.87901 0.6848 0.0
H285 H 0.92636 0.85409 0.65116 0.0
H286 H 0.88676 0.82746 0.68381 0.0
N287 N 0.92553 0.82739 0.70842 0.0
N288 N 0.92256 0.80722 0.7309 0.0
C289 C 0.91869 0.82394 0.72534 0.0
C290 C 0.93407 0.81246 0.70299 0.0
C291 C 0.93229 0.80002 0.71678 0.0
C292 C 0.9551 0.86729 0.70339 0.0
O293 O 0.94674 0.8691 0.71939 0.0
H294 H 0.91087 0.83353 0.73326 0.0
H295 H 0.94072 0.81063 0.68974 0.0
O296 O 0.90501 0.86265 0.7091 0.0
H297 H 0.87598 0.82464 0.64909 0.0
H298 H 0.93732 0.78655 0.71609 0.0
Cu299 Cu 0.59283 0.16888 0.19245 0.0
N300 N 0.60293 0.17672 0.17006 0.0
N301 N 0.61177 0.17891 0.14055 0.0
C302 C 0.60103 0.17005 0.15291 0.0
C303 C 0.62056 0.19165 0.15033 0.0
C304 C 0.6151 0.19026 0.16844 0.0
O305 O 0.56914 0.15623 0.18898 0.0
C306 C 0.62388 0.1453 0.19812 0.0
O307 O 0.62334 0.14285 0.18022 0.0
H308 H 0.59245 0.15862 0.1497 0.0
H309 H 0.61989 0.19838 0.17976 0.0
N310 N 0.58812 0.18842 0.2074 0.0
N311 N 0.59058 0.20737 0.23086 0.0
C312 C 0.59909 0.1944 0.22121 0.0
C313 C 0.57221 0.198 0.20823 0.0
C314 C 0.57366 0.20969 0.22272 0.0
C315 C 0.55966 0.1517 0.2031 0.0
O316 O 0.56684 0.15464 0.2195 0.0
H317 H 0.61264 0.18875 0.22467 0.0
H318 H 0.56014 0.19615 0.19934 0.0
O319 O 0.6115 0.15501 0.20567 0.0
H320 H 0.63026 0.20133 0.14479 0.0
H321 H 0.56299 0.21896 0.22712 0.0
Cu322 Cu 0.42522 0.67068 0.31821 0.0
N323 N 0.41314 0.67493 0.34066 0.0
N324 N 0.40417 0.6749 0.37017 0.0
C325 C 0.41787 0.67046 0.35809 0.0
C326 C 0.39051 0.68251 0.35998 0.0
C327 C 0.3961 0.68255 0.34188 0.0
O328 O 0.4509 0.66213 0.32132 0.0
C329 C 0.3974 0.64467 0.31001 0.0
O330 O 0.39704 0.64217 0.32791 0.0
H331 H 0.43072 0.66361 0.36175 0.0
H332 H 0.38811 0.68744 0.33025 0.0
N333 N 0.42662 0.69204 0.30545 0.0
N334 N 0.42155 0.71306 0.28429 0.0
C335 C 0.41652 0.69687 0.29055 0.0
C336 C 0.43842 0.70554 0.3088 0.0
C337 C 0.43535 0.71852 0.2958 0.0
C338 C 0.45587 0.64611 0.3236 0.0
O339 O 0.44292 0.63374 0.32468 0.0
H340 H 0.40571 0.68864 0.2845 0.0
H341 H 0.44874 0.70578 0.31976 0.0
O342 O 0.4095 0.65524 0.30321 0.0
H343 H 0.37737 0.68765 0.36526 0.0
H344 H 0.44307 0.73081 0.29469 0.0
Cu345 Cu 0.08694 0.34242 0.82282 0.0
N346 N 0.09885 0.33725 0.84519 0.0
N347 N 0.10819 0.33713 0.87462 0.0
C348 C 0.09503 0.34277 0.86246 0.0
C349 C 0.12057 0.32764 0.86461 0.0
C350 C 0.11477 0.32773 0.84655 0.0
O351 O 0.06165 0.35172 0.82647 0.0
C352 C 0.11543 0.36795 0.81543 0.0
O353 O 0.11538 0.37034 0.83334 0.0
H354 H 0.08327 0.35123 0.86592 0.0
H355 H 0.12186 0.32159 0.83505 0.0
N356 N 0.08473 0.32141 0.8096 0.0
N357 N 0.08765 0.30148 0.78705 0.0
C358 C 0.09134 0.3182 0.79255 0.0
C359 C 0.07661 0.30627 0.81515 0.0
C360 C 0.07836 0.29395 0.80128 0.0
C361 C 0.05645 0.36753 0.82326 0.0
O362 O 0.06894 0.37923 0.8178 0.0
H363 H 0.09858 0.32803 0.78435 0.0
H364 H 0.07003 0.3043 0.82842 0.0
O365 O 0.10332 0.35763 0.80827 0.0
H366 H 0.13298 0.32113 0.86997 0.0
H367 H 0.07348 0.2804 0.80184 0.0
Cu368 Cu 0.68055 0.91195 0.82982 0.0
N369 N 0.65782 0.90339 0.82023 0.0
N370 N 0.62776 0.89508 0.81658 0.0
C371 C 0.64033 0.90352 0.82754 0.0
C372 C 0.63777 0.88961 0.80187 0.0
C373 C 0.6562 0.89472 0.80417 0.0
O374 O 0.67602 0.93281 0.84492 0.0
C375 C 0.69909 0.89148 0.85865 0.0
O376 O 0.69585 0.9046 0.87003 0.0
H377 H 0.63701 0.90928 0.84077 0.0
H378 H 0.66774 0.89216 0.79485 0.0
N379 N 0.69599 0.91852 0.81018 0.0
N380 N 0.72078 0.9198 0.79118 0.0
C381 C 0.71381 0.91322 0.80713 0.0
C382 C 0.69144 0.92883 0.79578 0.0
C383 C 0.70665 0.92965 0.78404 0.0
C384 C 0.68946 0.94244 0.85081 0.0
O385 O 0.7069 0.93737 0.84795 0.0
H386 H 0.72143 0.90469 0.81649 0.0
H387 H 0.67787 0.93504 0.7938 0.0
O388 O 0.69331 0.89245 0.8421 0.0
H389 H 0.63215 0.88249 0.79017 0.0
H390 H 0.70701 0.93663 0.77104 0.0
Cu391 Cu 0.83859 0.10414 0.32727 0.0
N392 N 0.86205 0.11325 0.32031 0.0
N393 N 0.89279 0.11942 0.31746 0.0
C394 C 0.87968 0.10911 0.32583 0.0
C395 C 0.88288 0.13041 0.30645 0.0
C396 C 0.86407 0.12658 0.30824 0.0
O397 O 0.84072 0.08042 0.3375 0.0
C398 C 0.81108 0.1187 0.35157 0.0
O399 O 0.80256 0.10336 0.34988 0.0
H400 H 0.8828 0.09877 0.33569 0.0
H401 H 0.85254 0.1332 0.30136 0.0
N402 N 0.82365 0.10265 0.30608 0.0
N403 N 0.7993 0.10445 0.28651 0.0
C404 C 0.80549 0.10741 0.30387 0.0
C405 C 0.82919 0.09655 0.2896 0.0
C406 C 0.81427 0.09764 0.27752 0.0
C407 C 0.84577 0.07649 0.35382 0.0
O408 O 0.85027 0.08919 0.36534 0.0
H409 H 0.79697 0.11278 0.31481 0.0
H410 H 0.84318 0.09173 0.28658 0.0
O411 O 0.82695 0.12105 0.34382 0.0
H412 H 0.88871 0.14083 0.29796 0.0
H413 H 0.81462 0.09392 0.26315 0.0
Cu414 Cu 0.18127 0.60427 0.18211 0.0
N415 N 0.1577 0.60972 0.19239 0.0
N416 N 0.1275 0.61733 0.19644 0.0
C417 C 0.14093 0.61276 0.18413 0.0
C418 C 0.13614 0.61718 0.21297 0.0
C419 C 0.15466 0.61252 0.21044 0.0
O420 O 0.18089 0.58176 0.16902 0.0
C421 C 0.20487 0.62319 0.15762 0.0
O422 O 0.21427 0.60825 0.157 0.0
H423 H 0.13873 0.61223 0.16941 0.0
H424 H 0.16528 0.61153 0.22106 0.0
N425 N 0.19854 0.60116 0.20133 0.0
N426 N 0.224 0.60289 0.21945 0.0
C427 C 0.21506 0.60948 0.20446 0.0
C428 C 0.19708 0.58886 0.21464 0.0
C429 C 0.21266 0.58993 0.22584 0.0
C430 C 0.16897 0.57632 0.15722 0.0
O431 O 0.15525 0.58679 0.15194 0.0
H432 H 0.22041 0.6201 0.19593 0.0
H433 H 0.18555 0.57958 0.2159 0.0
O434 O 0.18979 0.62392 0.16702 0.0
H435 H 0.12953 0.62018 0.22601 0.0
H436 H 0.21564 0.58145 0.2375 0.0
Cu437 Cu 0.3298 0.40957 0.6856 0.0
N438 N 0.35319 0.40275 0.69532 0.0
N439 N 0.38385 0.39721 0.69964 0.0
C440 C 0.37054 0.40302 0.68771 0.0
C441 C 0.37445 0.39307 0.71519 0.0
C442 C 0.35566 0.39648 0.71249 0.0
O443 O 0.33173 0.43263 0.67386 0.0
C444 C 0.32393 0.37534 0.67076 0.0
O445 O 0.33725 0.37088 0.68242 0.0
H446 H 0.37336 0.40759 0.67386 0.0
H447 H 0.34448 0.39445 0.72237 0.0
N448 N 0.31332 0.41272 0.70531 0.0
N449 N 0.28857 0.411 0.72426 0.0
C450 C 0.29665 0.40479 0.70869 0.0
C451 C 0.31581 0.42434 0.71908 0.0
C452 C 0.30064 0.4233 0.73078 0.0
C453 C 0.34012 0.43653 0.65893 0.0
O454 O 0.34846 0.42403 0.64944 0.0
H455 H 0.29067 0.39466 0.69994 0.0
H456 H 0.3278 0.43308 0.72038 0.0
O457 O 0.31912 0.39152 0.66945 0.0
H458 H 0.38065 0.38768 0.72761 0.0
H459 H 0.29852 0.43131 0.74293 0.0
Cu460 Cu 0.83608 0.69516 0.91549 0.0
N461 N 0.82471 0.67464 0.90622 0.0
N462 N 0.81906 0.64662 0.89788 0.0
C463 C 0.83183 0.65815 0.90483 0.0
C464 C 0.80344 0.65634 0.89476 0.0
C465 C 0.80695 0.67352 0.89992 0.0
O466 O 0.8472 0.68968 0.93935 0.0
C467 C 0.84969 0.70456 0.88063 0.0
O468 O 0.83464 0.69581 0.8754 0.0
H469 H 0.84591 0.65463 0.90919 0.0
H470 H 0.79722 0.68449 0.89917 0.0
N471 N 0.81747 0.71204 0.91986 0.0
N472 N 0.79934 0.73611 0.91776 0.0
C473 C 0.81238 0.72595 0.90932 0.0
C474 C 0.80725 0.71339 0.93536 0.0
C475 C 0.79608 0.7282 0.93413 0.0
C476 C 0.86276 0.69549 0.94562 0.0
O477 O 0.87355 0.70531 0.93505 0.0
H478 H 0.81854 0.72887 0.89603 0.0
H479 H 0.80816 0.70437 0.9469 0.0
O480 O 0.85362 0.70534 0.89773 0.0
H481 H 0.79038 0.65144 0.889 0.0
H482 H 0.78633 0.73282 0.94449 0.0
Cu483 Cu 0.33311 0.82046 0.0985 0.0
N484 N 0.32559 0.84074 0.11121 0.0
N485 N 0.32329 0.8684 0.12182 0.0
C486 C 0.3304 0.85782 0.10852 0.0
C487 C 0.31361 0.85755 0.13314 0.0
C488 C 0.31504 0.84056 0.12656 0.0
O489 O 0.34532 0.82632 0.07526 0.0
C490 C 0.35954 0.81287 0.12697 0.0
O491 O 0.36146 0.83012 0.12788 0.0
H492 H 0.33944 0.8623 0.09746 0.0
H493 H 0.30915 0.82877 0.13275 0.0
N494 N 0.3119 0.80672 0.09352 0.0
N495 N 0.29116 0.78449 0.09488 0.0
C496 C 0.30653 0.79201 0.10258 0.0
C497 C 0.29953 0.80866 0.07965 0.0
C498 C 0.28671 0.79496 0.08043 0.0
C499 C 0.35089 0.81384 0.06487 0.0
O500 O 0.34912 0.79746 0.07068 0.0
H501 H 0.31412 0.78664 0.11425 0.0
H502 H 0.3 0.81915 0.06951 0.0
O503 O 0.349 0.80626 0.11459 0.0
H504 H 0.30604 0.8616 0.14535 0.0
H505 H 0.27506 0.79288 0.07107 0.0
Cu506 Cu 0.17676 0.19367 0.60463 0.0
N507 N 0.17884 0.17313 0.6189 0.0
N508 N 0.17936 0.14513 0.62887 0.0
C509 C 0.17834 0.15592 0.614 0.0
C510 C 0.18068 0.15598 0.64353 0.0
C511 C 0.18041 0.17316 0.63735 0.0
O512 O 0.16652 0.18886 0.58024 0.0
C513 C 0.14651 0.20605 0.62676 0.0
O514 O 0.13982 0.18996 0.62477 0.0
H515 H 0.17684 0.15143 0.59993 0.0
H516 H 0.18109 0.18495 0.64573 0.0
N517 N 0.20045 0.20405 0.60229 0.0
N518 N 0.2235 0.22412 0.60433 0.0
C519 C 0.20499 0.22079 0.60682 0.0
C520 C 0.21657 0.1965 0.59669 0.0
C521 C 0.23085 0.20885 0.59796 0.0
C522 C 0.16338 0.20175 0.56937 0.0
O523 O 0.16653 0.21791 0.57527 0.0
H524 H 0.19498 0.23015 0.61234 0.0
H525 H 0.21788 0.18292 0.59224 0.0
O526 O 0.16148 0.21039 0.61829 0.0
H527 H 0.18191 0.15178 0.65774 0.0
H528 H 0.24547 0.20672 0.59447 0.0
Cu529 Cu 0.6836 0.31698 0.41319 0.0
N530 N 0.6953 0.33829 0.40668 0.0
N531 N 0.70047 0.36673 0.39967 0.0
C532 C 0.68735 0.35411 0.40294 0.0
C533 C 0.71721 0.35843 0.40128 0.0
C534 C 0.71398 0.34096 0.40555 0.0
O535 O 0.6682 0.31971 0.43533 0.0
C536 C 0.65614 0.29725 0.39313 0.0
O537 O 0.64956 0.29277 0.40937 0.0
H538 H 0.67232 0.35642 0.4032 0.0
H539 H 0.72453 0.3309 0.40792 0.0
N540 N 0.70196 0.30016 0.41864 0.0
N541 N 0.71959 0.27574 0.41722 0.0
C542 C 0.70697 0.2861 0.40839 0.0
C543 C 0.71177 0.29873 0.43442 0.0
C544 C 0.72265 0.28368 0.4336 0.0
C545 C 0.67244 0.33114 0.44754 0.0
O546 O 0.68652 0.34201 0.44451 0.0
H547 H 0.70096 0.28318 0.39503 0.0
H548 H 0.71076 0.30782 0.44585 0.0
O549 O 0.66981 0.30808 0.39206 0.0
H550 H 0.73087 0.36455 0.39948 0.0
H551 H 0.73202 0.2789 0.44426 0.0
H552 H 0.12711 0.33858 0.15895 0.0
H553 H 0.12157 0.31825 0.18454 0.0
H554 H 0.14671 0.27584 0.15353 0.0
H555 H 0.15204 0.29604 0.12771 0.0
H556 H 0.11686 0.26398 0.17302 0.0
H557 H 0.17232 0.29754 0.18544 0.0
H558 H 0.19157 0.3245 0.18871 0.0
H559 H 0.15541 0.34271 0.23202 0.0
H560 H 0.13576 0.31597 0.22882 0.0
H561 H 0.12916 0.21039 0.25398 0.0
H562 H 0.13596 0.22735 0.22594 0.0
H563 H 0.11156 0.27379 0.25066 0.0
H564 H 0.10529 0.25716 0.27873 0.0
H565 H 0.1436 0.28185 0.23334 0.0
H566 H 0.08713 0.24841 0.21911 0.0
H567 H 0.06859 0.22102 0.21562 0.0
H568 H 0.10811 0.20185 0.17568 0.0
H569 H 0.12699 0.22907 0.1791 0.0
C570 C 0.13121 0.32488 0.15743 0.0
C571 C 0.14016 0.31901 0.14131 0.0
C572 C 0.12813 0.31327 0.17214 0.0
C573 C 0.13408 0.29559 0.17112 0.0
C574 C 0.14209 0.28944 0.15468 0.0
C575 C 0.14512 0.30103 0.13992 0.0
C576 C 0.13275 0.28384 0.18753 0.0
C577 C 0.12292 0.26777 0.18615 0.0
C578 C 0.14062 0.28876 0.20471 0.0
C579 C 0.15247 0.30482 0.20677 0.0
C580 C 0.16839 0.30735 0.19557 0.0
C581 C 0.17938 0.32258 0.19743 0.0
C582 C 0.17469 0.33533 0.21054 0.0
C583 C 0.15901 0.33284 0.22186 0.0
C584 C 0.14795 0.31764 0.22004 0.0
C585 C 0.12543 0.22425 0.2535 0.0
C586 C 0.11651 0.23235 0.26858 0.0
C587 C 0.12917 0.2339 0.2374 0.0
C588 C 0.12404 0.25181 0.23609 0.0
C589 C 0.11558 0.25998 0.25129 0.0
C590 C 0.11184 0.25039 0.2673 0.0
C591 C 0.12729 0.26221 0.21897 0.0
C592 C 0.1376 0.27801 0.22019 0.0
C593 C 0.11998 0.25695 0.20166 0.0
C594 C 0.10856 0.24068 0.1995 0.0
C595 C 0.09192 0.2383 0.20967 0.0
C596 C 0.08135 0.22282 0.2077 0.0
C597 C 0.0872 0.20968 0.19547 0.0
C598 C 0.10361 0.21203 0.18516 0.0
C599 C 0.11424 0.22748 0.1871 0.0
H600 H 0.07899 0.1977 0.19397 0.0
H601 H 0.18322 0.34711 0.21195 0.0
H602 H 0.39671 0.80587 0.74843 0.0
H603 H 0.39142 0.79152 0.71865 0.0
H604 H 0.39646 0.74038 0.74458 0.0
H605 H 0.40182 0.75461 0.77423 0.0
H606 H 0.41652 0.74116 0.71415 0.0
H607 H 0.3535 0.75802 0.73088 0.0
H608 H 0.32821 0.77856 0.7399 0.0
H609 H 0.33631 0.80815 0.69003 0.0
H610 H 0.36186 0.78794 0.68084 0.0
H611 H 0.37759 0.68535 0.64534 0.0
H612 H 0.38489 0.70207 0.67321 0.0
H613 H 0.38071 0.75087 0.64267 0.0
H614 H 0.37319 0.73427 0.61476 0.0
H615 H 0.36122 0.75282 0.67422 0.0
H616 H 0.42342 0.73524 0.65699 0.0
H617 H 0.44843 0.71446 0.64788 0.0
H618 H 0.44161 0.68608 0.69869 0.0
H619 H 0.41636 0.70655 0.708 0.0
C620 C 0.39648 0.79158 0.74781 0.0
C621 C 0.39978 0.7814 0.76372 0.0
C622 C 0.39346 0.78338 0.73077 0.0
C623 C 0.39345 0.76484 0.72935 0.0
C624 C 0.39652 0.75469 0.74527 0.0
C625 C 0.39963 0.76286 0.76223 0.0
C626 C 0.39073 0.75588 0.71129 0.0
C627 C 0.4043 0.74358 0.70553 0.0
C628 C 0.37508 0.75938 0.69973 0.0
C629 C 0.35975 0.77158 0.70528 0.0
C630 C 0.35001 0.76901 0.72192 0.0
C631 C 0.33561 0.78057 0.72705 0.0
C632 C 0.3307 0.79469 0.71558 0.0
C633 C 0.34016 0.79724 0.69893 0.0
C634 C 0.3546 0.78573 0.69375 0.0
C635 C 0.37849 0.69963 0.64446 0.0
C636 C 0.37484 0.70844 0.62777 0.0
C637 C 0.38269 0.70918 0.66043 0.0
C638 C 0.38344 0.72775 0.66005 0.0
C639 C 0.38019 0.73656 0.64333 0.0
C640 C 0.37601 0.72702 0.62734 0.0
C641 C 0.38689 0.73795 0.67725 0.0
C642 C 0.37347 0.75048 0.68281 0.0
C643 C 0.40266 0.73467 0.68866 0.0
C644 C 0.41788 0.72235 0.68312 0.0
C645 C 0.42715 0.72449 0.66616 0.0
C646 C 0.44139 0.71278 0.66097 0.0
C647 C 0.44658 0.69893 0.67268 0.0
C648 C 0.43756 0.6968 0.68963 0.0
C649 C 0.4233 0.70847 0.69488 0.0
H650 H 0.45761 0.68988 0.66864 0.0
H651 H 0.31953 0.80362 0.71956 0.0
H652 H 0.6218 0.30735 0.75999 0.0
H653 H 0.6279 0.29287 0.7896 0.0
H654 H 0.5988 0.24624 0.77065 0.0
H655 H 0.59283 0.26046 0.74114 0.0
H656 H 0.58716 0.25553 0.80448 0.0
H657 H 0.64752 0.24863 0.77349 0.0
H658 H 0.67642 0.25934 0.75831 0.0
H659 H 0.69056 0.28962 0.80635 0.0
H660 H 0.66161 0.27925 0.82172 0.0
H661 H 0.61375 0.1863 0.86368 0.0
H662 H 0.60713 0.20694 0.83871 0.0
H663 H 0.64301 0.24591 0.86427 0.0
H664 H 0.65025 0.22502 0.88903 0.0
H665 H 0.65097 0.24475 0.82984 0.0
H666 H 0.59349 0.25023 0.86238 0.0
H667 H 0.56484 0.24052 0.87865 0.0
H668 H 0.54484 0.2153 0.82944 0.0
H669 H 0.57349 0.22465 0.81293 0.0
C670 C 0.61688 0.29395 0.76204 0.0
C671 C 0.60668 0.28515 0.74815 0.0
C672 C 0.62035 0.28569 0.77901 0.0
C673 C 0.6138 0.26844 0.78238 0.0
C674 C 0.60385 0.2596 0.76846 0.0
C675 C 0.60038 0.2678 0.75157 0.0
C676 C 0.61688 0.2595 0.80041 0.0
C677 C 0.60113 0.25305 0.80997 0.0
C678 C 0.63503 0.25694 0.80802 0.0
C679 C 0.65231 0.2633 0.79868 0.0
C680 C 0.65671 0.25769 0.78075 0.0
C681 C 0.67313 0.26366 0.77214 0.0
C682 C 0.68533 0.27512 0.78137 0.0
C683 C 0.68112 0.28069 0.79923 0.0
C684 C 0.66471 0.27478 0.80789 0.0
C685 C 0.62 0.19936 0.86419 0.0
C686 C 0.63251 0.20399 0.87841 0.0
C687 C 0.61614 0.21122 0.84989 0.0
C688 C 0.62438 0.22814 0.84963 0.0
C689 C 0.63646 0.23297 0.86411 0.0
C690 C 0.64051 0.22103 0.87832 0.0
C691 C 0.62124 0.24026 0.83369 0.0
C692 C 0.63696 0.24739 0.82454 0.0
C693 C 0.60302 0.24369 0.82659 0.0
C694 C 0.58572 0.23805 0.83645 0.0
C695 C 0.58305 0.24251 0.85506 0.0
C696 C 0.56679 0.23708 0.86432 0.0
C697 C 0.55304 0.22727 0.8551 0.0
C698 C 0.5555 0.2229 0.83657 0.0
C699 C 0.57174 0.22828 0.82725 0.0
H700 H 0.54047 0.22309 0.86229 0.0
H701 H 0.69803 0.27973 0.77468 0.0
H702 H 0.89839 0.76172 0.23302 0.0
H703 H 0.89358 0.77758 0.26175 0.0
H704 H 0.88944 0.72812 0.29105 0.0
H705 H 0.89452 0.71201 0.26223 0.0
H706 H 0.86252 0.7521 0.30229 0.0
H707 H 0.92911 0.75138 0.29434 0.0
H708 H 0.95907 0.75514 0.27769 0.0
H709 H 0.94779 0.81054 0.27098 0.0
H710 H 0.91761 0.80707 0.28736 0.0
H711 H 0.86677 0.7987 0.38795 0.0
H712 H 0.87506 0.77795 0.36339 0.0
H713 H 0.88191 0.82155 0.32562 0.0
H714 H 0.87381 0.84231 0.35003 0.0
H715 H 0.90937 0.7973 0.32122 0.0
H716 H 0.84165 0.79738 0.32692 0.0
H717 H 0.81139 0.79358 0.34306 0.0
H718 H 0.8247 0.73921 0.35398 0.0
H719 H 0.85524 0.74277 0.33818 0.0
C720 C 0.89664 0.75413 0.24553 0.0
C721 C 0.8971 0.73553 0.24524 0.0
C722 C 0.89382 0.76326 0.26199 0.0
C723 C 0.89145 0.75406 0.27862 0.0
C724 C 0.8913 0.73549 0.27839 0.0
C725 C 0.89416 0.72631 0.26187 0.0
C726 C 0.88935 0.764 0.29616 0.0
C727 C 0.87293 0.76174 0.30665 0.0
C728 C 0.90282 0.77674 0.30174 0.0
C729 C 0.92102 0.77893 0.29197 0.0
C730 C 0.93295 0.76434 0.2892 0.0
C731 C 0.94998 0.76643 0.27983 0.0
C732 C 0.95531 0.78306 0.27325 0.0
C733 C 0.94363 0.79766 0.27608 0.0
C734 C 0.92657 0.79564 0.28542 0.0
C735 C 0.87035 0.80389 0.37449 0.0
C736 C 0.86958 0.82218 0.37095 0.0
C737 C 0.87494 0.79199 0.36043 0.0
C738 C 0.87885 0.79817 0.34258 0.0
C739 C 0.87889 0.81646 0.33926 0.0
C740 C 0.87424 0.82833 0.35325 0.0
C741 C 0.88234 0.78572 0.32713 0.0
C742 C 0.89907 0.78749 0.31703 0.0
C743 C 0.86915 0.77254 0.32197 0.0
C744 C 0.85085 0.77041 0.33157 0.0
C745 C 0.83822 0.78466 0.33293 0.0
C746 C 0.82101 0.78255 0.34199 0.0
C747 C 0.81615 0.76618 0.34957 0.0
C748 C 0.82851 0.75189 0.34813 0.0
C749 C 0.84578 0.75395 0.33913 0.0
H750 H 0.80277 0.76455 0.35647 0.0
H751 H 0.96851 0.78465 0.266 0.0
H752 H 0.30412 0.14223 0.22824 0.0
H753 H 0.27543 0.14734 0.24618 0.0
H754 H 0.24679 0.10679 0.21529 0.0
H755 H 0.2755 0.10136 0.19753 0.0
H756 H 0.22724 0.14028 0.2176 0.0
H757 H 0.25749 0.09739 0.25688 0.0
H758 H 0.28369 0.08536 0.27531 0.0
H759 H 0.28296 0.13151 0.30965 0.0
H760 H 0.25691 0.14395 0.29125 0.0
H761 H 0.14236 0.1392 0.26806 0.0
H762 H 0.17143 0.13017 0.25278 0.0
H763 H 0.20376 0.16102 0.29148 0.0
H764 H 0.17478 0.16961 0.30718 0.0
H765 H 0.2217 0.13186 0.28513 0.0
H766 H 0.19353 0.17581 0.24684 0.0
H767 H 0.16838 0.18997 0.22864 0.0
H768 H 0.16659 0.14511 0.19252 0.0
H769 H 0.19155 0.13055 0.21069 0.0
C770 C 0.29179 0.13425 0.22542 0.0
C771 C 0.29213 0.12135 0.21148 0.0
C772 C 0.27541 0.13718 0.23569 0.0
C773 C 0.25897 0.12745 0.23206 0.0
C774 C 0.25932 0.11445 0.21831 0.0
C775 C 0.27578 0.11129 0.20825 0.0
C776 C 0.24124 0.1313 0.24217 0.0
C777 C 0.2259 0.13818 0.23232 0.0
C778 C 0.23974 0.12915 0.26147 0.0
C779 C 0.25537 0.12168 0.27257 0.0
C780 C 0.26303 0.10505 0.26826 0.0
C781 C 0.27783 0.09815 0.27872 0.0
C782 C 0.28502 0.10769 0.29361 0.0
C783 C 0.27739 0.12415 0.29809 0.0
C784 C 0.2626 0.13112 0.28766 0.0
C785 C 0.15566 0.14396 0.27341 0.0
C786 C 0.15619 0.15521 0.2888 0.0
C787 C 0.1723 0.13887 0.26458 0.0
C788 C 0.18986 0.14518 0.27071 0.0
C789 C 0.19045 0.15599 0.28641 0.0
C790 C 0.17382 0.16092 0.29538 0.0
C791 C 0.20753 0.14081 0.26057 0.0
C792 C 0.22293 0.1339 0.2704 0.0
C793 C 0.20922 0.14327 0.24127 0.0
C794 C 0.19427 0.15201 0.23025 0.0
C795 C 0.18768 0.1689 0.2351 0.0
C796 C 0.17347 0.17701 0.22478 0.0
C797 C 0.16586 0.16843 0.20946 0.0
C798 C 0.17248 0.15173 0.20441 0.0
C799 C 0.18666 0.14355 0.21471 0.0
H800 H 0.15487 0.17472 0.20148 0.0
H801 H 0.29648 0.10232 0.3017 0.0
H802 H 0.3644 0.86838 0.78796 0.0
H803 H 0.33851 0.881 0.76967 0.0
H804 H 0.30396 0.83578 0.78271 0.0
H805 H 0.3295 0.82316 0.80073 0.0
H806 H 0.30338 0.84279 0.74641 0.0
H807 H 0.29692 0.87614 0.80302 0.0
H808 H 0.30796 0.89621 0.82749 0.0
H809 H 0.31826 0.93682 0.78734 0.0
H810 H 0.3075 0.91689 0.76259 0.0
H811 H 0.21133 0.86541 0.72195 0.0
H812 H 0.23947 0.85856 0.73985 0.0
H813 H 0.2654 0.907 0.72138 0.0
H814 H 0.23712 0.91407 0.70343 0.0
H815 H 0.27296 0.90075 0.75778 0.0
H816 H 0.27775 0.86895 0.70158 0.0
H817 H 0.26791 0.84926 0.67636 0.0
H818 H 0.26223 0.80616 0.71453 0.0
H819 H 0.27185 0.82567 0.74005 0.0
C820 C 0.35122 0.86122 0.78703 0.0
C821 C 0.34908 0.84473 0.7958 0.0
C822 C 0.33643 0.86846 0.7766 0.0
C823 C 0.31924 0.85934 0.77481 0.0
C824 C 0.31707 0.84304 0.78379 0.0
C825 C 0.33174 0.83586 0.79417 0.0
C826 C 0.30358 0.86623 0.76317 0.0
C827 C 0.29663 0.85539 0.74903 0.0
C828 C 0.29519 0.88298 0.76607 0.0
C829 C 0.30162 0.89496 0.78094 0.0
C830 C 0.30169 0.88929 0.79939 0.0
C831 C 0.30787 0.90066 0.81331 0.0
C832 C 0.31387 0.91776 0.80896 0.0
C833 C 0.31365 0.92356 0.79069 0.0
C834 C 0.3075 0.91224 0.77671 0.0
C835 C 0.2229 0.87474 0.7218 0.0
C836 C 0.22195 0.89026 0.71112 0.0
C837 C 0.23906 0.87075 0.73199 0.0
C838 C 0.25472 0.88211 0.73172 0.0
C839 C 0.25355 0.89799 0.72174 0.0
C840 C 0.23735 0.902 0.71147 0.0
C841 C 0.2724 0.877 0.74145 0.0
C842 C 0.27978 0.88819 0.75511 0.0
C843 C 0.28133 0.8606 0.73804 0.0
C844 C 0.27533 0.84884 0.72276 0.0
C845 C 0.27422 0.85532 0.70463 0.0
C846 C 0.26871 0.84417 0.69027 0.0
C847 C 0.26436 0.82647 0.69384 0.0
C848 C 0.26556 0.81988 0.71179 0.0
C849 C 0.27107 0.83097 0.7262 0.0
H850 H 0.26011 0.81784 0.68272 0.0
H851 H 0.31864 0.92654 0.81976 0.0
H852 H 0.80429 0.37894 0.77659 0.0
H853 H 0.77691 0.37103 0.75782 0.0
H854 H 0.74072 0.3995 0.79501 0.0
H855 H 0.76803 0.40757 0.8138 0.0
H856 H 0.72731 0.36573 0.78663 0.0
H857 H 0.74975 0.41701 0.75446 0.0
H858 H 0.77334 0.43565 0.73883 0.0
H859 H 0.78209 0.39508 0.69847 0.0
H860 H 0.75873 0.37608 0.71402 0.0
H861 H 0.64527 0.361 0.72941 0.0
H862 H 0.67141 0.37301 0.74766 0.0
H863 H 0.7111 0.34646 0.71239 0.0
H864 H 0.68516 0.33434 0.69424 0.0
H865 H 0.72196 0.3806 0.72027 0.0
H866 H 0.69974 0.32931 0.7518 0.0
H867 H 0.67648 0.31015 0.76709 0.0
H868 H 0.66843 0.34923 0.80912 0.0
H869 H 0.69105 0.36902 0.79362 0.0
C870 C 0.79053 0.38366 0.7807 0.0
C871 C 0.78838 0.39395 0.79667 0.0
C872 C 0.77489 0.37914 0.76994 0.0
C873 C 0.75677 0.38472 0.77498 0.0
C874 C 0.75457 0.39505 0.79086 0.0
C875 C 0.77023 0.39973 0.80153 0.0
C876 C 0.74008 0.37947 0.76385 0.0
C877 C 0.72594 0.36924 0.7722 0.0
C878 C 0.73858 0.38366 0.74492 0.0
C879 C 0.75262 0.39506 0.73552 0.0
C880 C 0.75682 0.412 0.74235 0.0
C881 C 0.77013 0.42264 0.73348 0.0
C882 C 0.77924 0.41654 0.7177 0.0
C883 C 0.77503 0.39978 0.71072 0.0
C884 C 0.76175 0.38908 0.71954 0.0
C885 C 0.65957 0.35787 0.72545 0.0
C886 C 0.66313 0.34667 0.71041 0.0
C887 C 0.67449 0.36467 0.73594 0.0
C888 C 0.69321 0.36052 0.73147 0.0
C889 C 0.69678 0.34983 0.7161 0.0
C890 C 0.68191 0.34287 0.70577 0.0
C891 C 0.70914 0.36687 0.74302 0.0
C892 C 0.72319 0.37723 0.73474 0.0
C893 C 0.7106 0.36268 0.762 0.0
C894 C 0.69689 0.35081 0.77134 0.0
C895 C 0.69281 0.33397 0.76414 0.0
C896 C 0.67976 0.32296 0.77288 0.0
C897 C 0.67098 0.32845 0.78908 0.0
C898 C 0.6752 0.34501 0.79654 0.0
C899 C 0.68808 0.35617 0.78773 0.0
H900 H 0.66095 0.31986 0.79586 0.0
H901 H 0.78954 0.4248 0.71085 0.0
H902 H 0.86862 0.65456 0.23863 0.0
H903 H 0.84181 0.64414 0.25703 0.0
H904 H 0.80895 0.63782 0.20755 0.0
H905 H 0.83567 0.6478 0.18907 0.0
H906 H 0.79126 0.6581 0.23701 0.0
H907 H 0.82315 0.60256 0.22617 0.0
H908 H 0.85044 0.58246 0.22692 0.0
H909 H 0.8536 0.58758 0.28571 0.0
H910 H 0.82648 0.60793 0.28528 0.0
H911 H 0.71009 0.61551 0.27114 0.0
H912 H 0.73821 0.62293 0.25334 0.0
H913 H 0.77259 0.61558 0.30175 0.0
H914 H 0.74463 0.60766 0.31948 0.0
H915 H 0.79033 0.60262 0.27355 0.0
H916 H 0.75978 0.65727 0.28599 0.0
H917 H 0.73354 0.67853 0.28706 0.0
H918 H 0.72941 0.67744 0.2281 0.0
H919 H 0.75538 0.65586 0.22668 0.0
C920 C 0.85575 0.65076 0.23166 0.0
C921 C 0.85432 0.65197 0.21237 0.0
C922 C 0.84046 0.64482 0.24219 0.0
C923 C 0.82339 0.64024 0.23364 0.0
C924 C 0.82198 0.64131 0.21441 0.0
C925 C 0.83733 0.64693 0.20387 0.0
C926 C 0.80678 0.63482 0.2447 0.0
C927 C 0.79093 0.64587 0.24483 0.0
C928 C 0.80665 0.61918 0.2554 0.0
C929 C 0.82292 0.60693 0.25567 0.0
C930 C 0.82978 0.59954 0.23924 0.0
C931 C 0.84519 0.58807 0.23961 0.0
C932 C 0.85379 0.58379 0.25634 0.0
C933 C 0.84695 0.59093 0.27275 0.0
C934 C 0.83155 0.60242 0.27246 0.0
C935 C 0.72364 0.61536 0.27798 0.0
C936 C 0.72506 0.61105 0.29677 0.0
C937 C 0.73973 0.61971 0.2678 0.0
C938 C 0.75756 0.62014 0.27624 0.0
C939 C 0.75904 0.61539 0.29489 0.0
C940 C 0.743 0.61087 0.30503 0.0
C941 C 0.77458 0.62581 0.26574 0.0
C942 C 0.79057 0.61487 0.26576 0.0
C943 C 0.77499 0.64176 0.25546 0.0
C944 C 0.7594 0.65479 0.25624 0.0
C945 C 0.75318 0.66144 0.27326 0.0
C946 C 0.73837 0.67357 0.27393 0.0
C947 C 0.7298 0.67932 0.25767 0.0
C948 C 0.73604 0.67296 0.24069 0.0
C949 C 0.7508 0.66077 0.23994 0.0
H950 H 0.71835 0.68873 0.25822 0.0
H951 H 0.86571 0.5749 0.2566 0.0
H952 H 0.32668 0.18066 0.12774 0.0
H953 H 0.30809 0.20717 0.12199 0.0
H954 H 0.25849 0.18067 0.14232 0.0
H955 H 0.27702 0.15382 0.14774 0.0
H956 H 0.25153 0.19862 0.11036 0.0
H957 H 0.27963 0.2112 0.16851 0.0
H958 H 0.30538 0.21386 0.19112 0.0
H959 H 0.33234 0.25294 0.15723 0.0
H960 H 0.30688 0.25033 0.13427 0.0
H961 H 0.19794 0.27815 0.11114 0.0
H962 H 0.21388 0.25112 0.12082 0.0
H963 H 0.26703 0.27291 0.10321 0.0
H964 H 0.25129 0.30025 0.09408 0.0
H965 H 0.27039 0.25677 0.13603 0.0
H966 H 0.2432 0.24254 0.07699 0.0
H967 H 0.21747 0.23967 0.05437 0.0
H968 H 0.18863 0.20355 0.09028 0.0
H969 H 0.21409 0.20639 0.11323 0.0
C970 C 0.3118 0.18038 0.13087 0.0
C971 C 0.30334 0.16507 0.13816 0.0
C972 C 0.30121 0.19563 0.12775 0.0
C973 C 0.28194 0.19597 0.13191 0.0
C974 C 0.27337 0.18071 0.13909 0.0
C975 C 0.284 0.16543 0.14229 0.0
C976 C 0.27078 0.21222 0.12837 0.0
C977 C 0.25543 0.21129 0.11623 0.0
C978 C 0.27609 0.2288 0.13578 0.0
C979 C 0.29141 0.23046 0.14959 0.0
C980 C 0.29112 0.22026 0.1658 0.0
C981 C 0.30566 0.22178 0.1787 0.0
C982 C 0.32051 0.23353 0.1756 0.0
C983 C 0.32083 0.24383 0.15961 0.0
C984 C 0.30634 0.24235 0.14666 0.0
C985 C 0.21304 0.27732 0.10949 0.0
C986 C 0.2233 0.29143 0.10176 0.0
C987 C 0.22211 0.26175 0.11488 0.0
C988 C 0.24162 0.25989 0.11254 0.0
C989 C 0.25195 0.27402 0.10508 0.0
C990 C 0.24289 0.2896 0.09971 0.0
C991 C 0.25132 0.24323 0.11779 0.0
C992 C 0.26639 0.24408 0.13027 0.0
C993 C 0.24573 0.22658 0.11071 0.0
C994 C 0.23045 0.22483 0.09691 0.0
C995 C 0.2313 0.2341 0.08013 0.0
C996 C 0.21678 0.23246 0.06723 0.0
C997 C 0.2014 0.22148 0.07091 0.0
C998 C 0.20053 0.21208 0.08746 0.0
C999 C 0.21501 0.21368 0.10041 0.0
H1000 H 0.19017 0.22023 0.06091 0.0
H1001 H 0.33175 0.23469 0.1856 0.0
H1002 H 0.79195 0.34641 0.84472 0.0
H1003 H 0.77628 0.31793 0.84922 0.0
H1004 H 0.78304 0.32309 0.90797 0.0
H1005 H 0.7984 0.35161 0.90366 0.0
H1006 H 0.79443 0.29078 0.89536 0.0
H1007 H 0.74073 0.32981 0.88684 0.0
H1008 H 0.72134 0.35128 0.86967 0.0
H1009 H 0.71519 0.31425 0.82531 0.0
H1010 H 0.73481 0.29266 0.84209 0.0
H1011 H 0.73675 0.22451 0.93262 0.0
H1012 H 0.75221 0.25203 0.92364 0.0
H1013 H 0.73345 0.24458 0.86762 0.0
H1014 H 0.71724 0.21734 0.87688 0.0
H1015 H 0.72923 0.27707 0.87549 0.0
H1016 H 0.78095 0.23788 0.88207 0.0
H1017 H 0.80127 0.21557 0.89685 0.0
H1018 H 0.81285 0.25143 0.94121 0.0
H1019 H 0.79239 0.27388 0.92682 0.0
C1020 C 0.78989 0.34164 0.85862 0.0
C1021 C 0.79656 0.35137 0.87383 0.0
C1022 C 0.78095 0.3253 0.86116 0.0
C1023 C 0.77844 0.31839 0.87894 0.0
C1024 C 0.78491 0.32812 0.89411 0.0
C1025 C 0.79379 0.34443 0.89161 0.0
C1026 C 0.76962 0.30079 0.8819 0.0
C1027 C 0.7801 0.28782 0.89119 0.0
C1028 C 0.75124 0.29668 0.87569 0.0
C1029 C 0.73944 0.3097 0.86563 0.0
C1030 C 0.7354 0.32631 0.87335 0.0
C1031 C 0.72434 0.33849 0.86369 0.0
C1032 C 0.71709 0.33416 0.84638 0.0
C1033 C 0.72085 0.31761 0.8387 0.0
C1034 C 0.73194 0.3054 0.84828 0.0
C1035 C 0.73613 0.22865 0.91836 0.0
C1036 C 0.72594 0.21872 0.9054 0.0
C1037 C 0.74501 0.24438 0.91319 0.0
C1038 C 0.74438 0.2503 0.89483 0.0
C1039 C 0.73421 0.24034 0.88185 0.0
C1040 C 0.725 0.22476 0.88712 0.0
C1041 C 0.75389 0.26711 0.88939 0.0
C1042 C 0.74361 0.27991 0.87957 0.0
C1043 C 0.77264 0.27097 0.89472 0.0
C1044 C 0.78501 0.25751 0.90343 0.0
C1045 C 0.78772 0.24096 0.89504 0.0
C1046 C 0.79928 0.2283 0.90334 0.0
C1047 C 0.80831 0.23206 0.91998 0.0
C1048 C 0.80584 0.24853 0.92833 0.0
C1049 C 0.79428 0.26124 0.9201 0.0
H1050 H 0.81726 0.22224 0.92638 0.0
H1051 H 0.70853 0.3436 0.83893 0.0
H1052 H 0.76308 0.79794 0.4146 0.0
H1053 H 0.74865 0.77012 0.40524 0.0
H1054 H 0.80329 0.7492 0.39154 0.0
H1055 H 0.81793 0.77708 0.40098 0.0
H1056 H 0.77634 0.74011 0.36579 0.0
H1057 H 0.7836 0.73713 0.43103 0.0
H1058 H 0.7811 0.74756 0.46308 0.0
H1059 H 0.72086 0.74873 0.4584 0.0
H1060 H 0.72301 0.73855 0.42622 0.0
H1061 H 0.73984 0.65109 0.363 0.0
H1062 H 0.75853 0.6777 0.36907 0.0
H1063 H 0.70866 0.70444 0.38824 0.0
H1064 H 0.69005 0.67793 0.38235 0.0
H1065 H 0.73646 0.70906 0.41163 0.0
H1066 H 0.72966 0.71286 0.3455 0.0
H1067 H 0.73273 0.7024 0.31351 0.0
H1068 H 0.79272 0.6992 0.31992 0.0
H1069 H 0.78999 0.70944 0.35204 0.0
C1070 C 0.77209 0.78744 0.4097 0.0
C1071 C 0.79172 0.78972 0.40883 0.0
C1072 C 0.76379 0.77154 0.40428 0.0
C1073 C 0.77492 0.75748 0.39798 0.0
C1074 C 0.79444 0.75986 0.39642 0.0
C1075 C 0.80278 0.77584 0.40181 0.0
C1076 C 0.76605 0.74017 0.39366 0.0
C1077 C 0.76783 0.73316 0.37586 0.0
C1078 C 0.75485 0.73118 0.40677 0.0
C1079 C 0.75348 0.73722 0.42616 0.0
C1080 C 0.76982 0.73974 0.43679 0.0
C1081 C 0.76847 0.74559 0.45499 0.0
C1082 C 0.75083 0.74885 0.46276 0.0
C1083 C 0.73451 0.74622 0.45236 0.0
C1084 C 0.73579 0.74039 0.43415 0.0
C1085 C 0.73285 0.66271 0.36832 0.0
C1086 C 0.71346 0.66235 0.3723 0.0
C1087 C 0.74354 0.67793 0.37177 0.0
C1088 C 0.735 0.69314 0.37903 0.0
C1089 C 0.71561 0.69285 0.38273 0.0
C1090 C 0.70497 0.67765 0.37942 0.0
C1091 C 0.7462 0.7092 0.38356 0.0
C1092 C 0.74498 0.71594 0.40151 0.0
C1093 C 0.75795 0.71784 0.37058 0.0
C1094 C 0.75959 0.71169 0.35126 0.0
C1095 C 0.74349 0.70977 0.34015 0.0
C1096 C 0.74517 0.70391 0.32198 0.0
C1097 C 0.7629 0.70007 0.31471 0.0
C1098 C 0.77899 0.70214 0.32558 0.0
C1099 C 0.77738 0.70798 0.34377 0.0
H1100 H 0.76419 0.69555 0.30064 0.0
H1101 H 0.74981 0.75337 0.47685 0.0
H1102 H 0.23956 0.85628 0.65405 0.0
H1103 H 0.25806 0.82934 0.64998 0.0
H1104 H 0.21337 0.80675 0.61737 0.0
H1105 H 0.19455 0.8332 0.62195 0.0
H1106 H 0.2266 0.78273 0.63982 0.0
H1107 H 0.25478 0.82564 0.59818 0.0
H1108 H 0.27011 0.85402 0.59061 0.0
H1109 H 0.31535 0.8419 0.6278 0.0
H1110 H 0.30016 0.81353 0.63573 0.0
H1111 H 0.27114 0.7175 0.58634 0.0
H1112 H 0.25504 0.74372 0.5979 0.0
H1113 H 0.30363 0.75682 0.63085 0.0
H1114 H 0.32004 0.73081 0.61894 0.0
H1115 H 0.29056 0.7854 0.61263 0.0
H1116 H 0.26443 0.74088 0.6513 0.0
H1117 H 0.24929 0.71246 0.65893 0.0
H1118 H 0.20034 0.72745 0.6279 0.0
H1119 H 0.2153 0.75587 0.61985 0.0
C1120 C 0.23356 0.84552 0.64619 0.0
C1121 C 0.21556 0.84706 0.63821 0.0
C1122 C 0.24424 0.83015 0.64376 0.0
C1123 C 0.23722 0.81606 0.63322 0.0
C1124 C 0.21915 0.81744 0.62554 0.0
C1125 C 0.20846 0.83272 0.628 0.0
C1126 C 0.2486 0.79988 0.62988 0.0
C1127 C 0.24052 0.78333 0.63372 0.0
C1128 C 0.26706 0.80061 0.62255 0.0
C1129 C 0.27626 0.81756 0.61766 0.0
C1130 C 0.26794 0.82909 0.60481 0.0
C1131 C 0.27661 0.84516 0.60045 0.0
C1132 C 0.29367 0.84978 0.60876 0.0
C1133 C 0.30213 0.83831 0.6214 0.0
C1134 C 0.29351 0.82223 0.62581 0.0
C1135 C 0.27843 0.72596 0.59601 0.0
C1136 C 0.29688 0.72202 0.60171 0.0
C1137 C 0.26914 0.74086 0.60275 0.0
C1138 C 0.27805 0.75214 0.61541 0.0
C1139 C 0.29645 0.74826 0.62117 0.0
C1140 C 0.30575 0.7333 0.61446 0.0
C1141 C 0.26829 0.76828 0.62203 0.0
C1142 C 0.27671 0.78481 0.61889 0.0
C1143 C 0.25015 0.76753 0.63001 0.0
C1144 C 0.24106 0.75046 0.63486 0.0
C1145 C 0.2505 0.73807 0.64598 0.0
C1146 C 0.24193 0.72196 0.6504 0.0
C1147 C 0.22388 0.71814 0.64388 0.0
C1148 C 0.21433 0.73043 0.63294 0.0
C1149 C 0.22284 0.74655 0.62846 0.0
H1150 H 0.21727 0.70566 0.64732 0.0
H1151 H 0.30036 0.86223 0.60537 0.0
H1152 H 0.87492 0.73158 0.88661 0.0
H1153 H 0.88895 0.75113 0.86334 0.0
H1154 H 0.86263 0.72054 0.82034 0.0
H1155 H 0.84834 0.7013 0.84337 0.0
H1156 H 0.91224 0.748 0.83467 0.0
H1157 H 0.84577 0.74786 0.78703 0.0
H1158 H 0.81137 0.7447 0.79021 0.0
H1159 H 0.8148 0.76146 0.84656 0.0
H1160 H 0.84912 0.76525 0.84358 0.0
H1161 H 0.93581 0.77627 0.74527 0.0
H1162 H 0.92486 0.76104 0.77271 0.0
H1163 H 0.88577 0.80337 0.78339 0.0
H1164 H 0.89585 0.81827 0.75539 0.0
H1165 H 0.86863 0.77436 0.78882 0.0
H1166 H 0.92682 0.797 0.80969 0.0
H1167 H 0.96082 0.80352 0.80937 0.0
H1168 H 0.97318 0.748 0.81141 0.0
H1169 H 0.93924 0.74112 0.81147 0.0
C1170 C 0.87234 0.72891 0.87218 0.0
C1171 C 0.86035 0.715 0.86684 0.0
C1172 C 0.88036 0.74009 0.8589 0.0
C1173 C 0.87653 0.73753 0.8401 0.0
C1174 C 0.86544 0.72304 0.83477 0.0
C1175 C 0.85733 0.712 0.84797 0.0
C1176 C 0.88337 0.7503 0.82598 0.0
C1177 C 0.90273 0.75378 0.82465 0.0
C1178 C 0.87087 0.75843 0.81333 0.0
C1179 C 0.8501 0.75667 0.8151 0.0
C1180 C 0.83918 0.75102 0.80005 0.0
C1181 C 0.81968 0.74913 0.80182 0.0
C1182 C 0.81091 0.75286 0.81858 0.0
C1183 C 0.82161 0.75856 0.83359 0.0
C1184 C 0.84109 0.76059 0.83185 0.0
C1185 C 0.92481 0.78239 0.75329 0.0
C1186 C 0.91675 0.79859 0.74782 0.0
C1187 C 0.91871 0.77371 0.76923 0.0
C1188 C 0.90463 0.78112 0.78036 0.0
C1189 C 0.89668 0.79735 0.7751 0.0
C1190 C 0.90263 0.80597 0.75905 0.0
C1191 C 0.89765 0.77152 0.79698 0.0
C1192 C 0.8782 0.76866 0.79885 0.0
C1193 C 0.91001 0.7645 0.81049 0.0
C1194 C 0.93046 0.76854 0.81044 0.0
C1195 C 0.93678 0.78617 0.80993 0.0
C1196 C 0.95605 0.78993 0.80982 0.0
C1197 C 0.96915 0.77618 0.81033 0.0
C1198 C 0.96301 0.75864 0.81099 0.0
C1199 C 0.94376 0.7548 0.81109 0.0
H1200 H 0.98407 0.77913 0.81025 0.0
H1201 H 0.79583 0.75135 0.81993 0.0
H1202 H 0.62665 0.21615 0.23878 0.0
H1203 H 0.63818 0.23106 0.26652 0.0
H1204 H 0.5816 0.23213 0.28814 0.0
H1205 H 0.57007 0.21788 0.26016 0.0
H1206 H 0.59616 0.26188 0.29435 0.0
H1207 H 0.61814 0.20282 0.30247 0.0
H1208 H 0.63498 0.17516 0.29551 0.0
H1209 H 0.68769 0.20295 0.29631 0.0
H1210 H 0.67115 0.2309 0.30263 0.0
H1211 H 0.62246 0.28022 0.38821 0.0
H1212 H 0.61142 0.2648 0.3605 0.0
H1213 H 0.66297 0.27841 0.33259 0.0
H1214 H 0.67393 0.29415 0.36001 0.0
H1215 H 0.65131 0.24118 0.33031 0.0
H1216 H 0.62767 0.30046 0.32078 0.0
H1217 H 0.61008 0.32721 0.32963 0.0
H1218 H 0.55932 0.29666 0.3343 0.0
H1219 H 0.57669 0.26966 0.32574 0.0
C1220 C 0.61674 0.21953 0.24951 0.0
C1221 C 0.59746 0.21592 0.24728 0.0
C1222 C 0.62333 0.22798 0.26542 0.0
C1223 C 0.61083 0.23257 0.27965 0.0
C1224 C 0.59157 0.22883 0.27741 0.0
C1225 C 0.58496 0.2207 0.26138 0.0
C1226 C 0.61758 0.24176 0.2966 0.0
C1227 C 0.60807 0.25712 0.30229 0.0
C1228 C 0.63336 0.23585 0.30694 0.0
C1229 C 0.64333 0.21906 0.30274 0.0
C1230 C 0.63329 0.20311 0.30088 0.0
C1231 C 0.6428 0.18736 0.29705 0.0
C1232 C 0.66238 0.18732 0.29534 0.0
C1233 C 0.67251 0.20302 0.2975 0.0
C1234 C 0.66306 0.21884 0.30115 0.0
C1235 C 0.63138 0.28002 0.37613 0.0
C1236 C 0.64901 0.2885 0.37626 0.0
C1237 C 0.62507 0.2712 0.36034 0.0
C1238 C 0.6364 0.27047 0.34453 0.0
C1239 C 0.65404 0.27881 0.34466 0.0
C1240 C 0.6602 0.2879 0.3603 0.0
C1241 C 0.62985 0.26105 0.32781 0.0
C1242 C 0.6394 0.24575 0.32224 0.0
C1243 C 0.61397 0.26678 0.31774 0.0
C1244 C 0.60352 0.28301 0.32282 0.0
C1245 C 0.61279 0.29942 0.32386 0.0
C1246 C 0.60286 0.31463 0.32879 0.0
C1247 C 0.58361 0.31363 0.33258 0.0
C1248 C 0.57424 0.29741 0.33139 0.0
C1249 C 0.58412 0.28215 0.32649 0.0
H1250 H 0.57594 0.32543 0.33638 0.0
H1251 H 0.66972 0.17511 0.29242 0.0
H1252 H 0.403 0.69906 0.25479 0.0
H1253 H 0.39163 0.71483 0.22762 0.0
H1254 H 0.41263 0.76385 0.24991 0.0
H1255 H 0.42336 0.74836 0.27741 0.0
H1256 H 0.37867 0.76849 0.23515 0.0
H1257 H 0.43674 0.74089 0.21628 0.0
H1258 H 0.45835 0.71581 0.21156 0.0
H1259 H 0.418 0.69104 0.17584 0.0
H1260 H 0.39605 0.71589 0.18054 0.0
H1261 H 0.38066 0.82294 0.15667 0.0
H1262 H 0.3908 0.80465 0.18258 0.0
H1263 H 0.36627 0.7587 0.15689 0.0
H1264 H 0.35617 0.77689 0.13077 0.0
H1265 H 0.40031 0.75111 0.17282 0.0
H1266 H 0.34284 0.77911 0.19045 0.0
H1267 H 0.32107 0.80408 0.19499 0.0
H1268 H 0.35983 0.82781 0.23307 0.0
H1269 H 0.38198 0.8031 0.22854 0.0
C1270 C 0.40504 0.71321 0.25407 0.0
C1271 C 0.4143 0.72236 0.26835 0.0
C1272 C 0.39867 0.7222 0.23839 0.0
C1273 C 0.40154 0.7405 0.23656 0.0
C1274 C 0.41035 0.74971 0.25094 0.0
C1275 C 0.41666 0.74077 0.26663 0.0
C1276 C 0.39552 0.75014 0.21966 0.0
C1277 C 0.38358 0.7648 0.22155 0.0
C1278 C 0.40146 0.74504 0.20183 0.0
C1279 C 0.41468 0.73015 0.19891 0.0
C1280 C 0.43242 0.73003 0.20753 0.0
C1281 C 0.44474 0.71587 0.20484 0.0
C1282 C 0.43953 0.70182 0.19345 0.0
C1283 C 0.42201 0.70192 0.18468 0.0
C1284 C 0.40963 0.71605 0.18734 0.0
C1285 C 0.37758 0.80891 0.15639 0.0
C1286 C 0.36749 0.80142 0.14167 0.0
C1287 C 0.38332 0.79848 0.17128 0.0
C1288 C 0.37902 0.78036 0.17183 0.0
C1289 C 0.36967 0.77267 0.1568 0.0
C1290 C 0.3639 0.78311 0.14188 0.0
C1291 C 0.38375 0.76964 0.18838 0.0
C1292 C 0.39537 0.75476 0.18642 0.0
C1293 C 0.37748 0.7745 0.20616 0.0
C1294 C 0.36415 0.78933 0.20902 0.0
C1295 C 0.34679 0.78972 0.19968 0.0
C1296 C 0.33437 0.80382 0.20227 0.0
C1297 C 0.33908 0.81755 0.21428 0.0
C1298 C 0.35621 0.81718 0.22376 0.0
C1299 C 0.36869 0.80312 0.22119 0.0
H1300 H 0.32945 0.82845 0.21627 0.0
H1301 H 0.44909 0.69086 0.19138 0.0
H1302 H 0.1592 0.23885 0.6369 0.0
H1303 H 0.14817 0.25701 0.6625 0.0
H1304 H 0.10488 0.21863 0.67432 0.0
H1305 H 0.1157 0.20044 0.64863 0.0
H1306 H 0.0918 0.25223 0.67799 0.0
H1307 H 0.14592 0.21889 0.6976 0.0
H1308 H 0.17883 0.20867 0.69641 0.0
H1309 H 0.19828 0.26193 0.704 0.0
H1310 H 0.16549 0.27256 0.70463 0.0
H1311 H 0.07116 0.27301 0.77085 0.0
H1312 H 0.08041 0.25871 0.7422 0.0
H1313 H 0.12466 0.29717 0.73489 0.0
H1314 H 0.11597 0.31115 0.76392 0.0
H1315 H 0.13744 0.26505 0.728 0.0
H1316 H 0.08384 0.29859 0.70906 0.0
H1317 H 0.05107 0.30923 0.71031 0.0
H1318 H 0.03086 0.25633 0.70186 0.0
H1319 H 0.06352 0.24533 0.70082 0.0
C1320 C 0.14717 0.23436 0.64477 0.0
C1321 C 0.13842 0.2181 0.64078 0.0
C1322 C 0.14093 0.24474 0.65947 0.0
C1323 C 0.12588 0.23905 0.67052 0.0
C1324 C 0.11656 0.22326 0.66602 0.0
C1325 C 0.12279 0.21285 0.65133 0.0
C1326 C 0.1204 0.24908 0.68726 0.0
C1327 C 0.10173 0.2549 0.68901 0.0
C1328 C 0.13347 0.25294 0.70145 0.0
C1329 C 0.15322 0.24656 0.70092 0.0
C1330 C 0.15721 0.22846 0.69877 0.0
C1331 C 0.17585 0.22259 0.69819 0.0
C1332 C 0.19064 0.23466 0.70001 0.0
C1333 C 0.18681 0.25261 0.70246 0.0
C1334 C 0.1682 0.25857 0.70289 0.0
C1335 C 0.08294 0.2784 0.76326 0.0
C1336 C 0.09279 0.29329 0.7698 0.0
C1337 C 0.08809 0.27031 0.74672 0.0
C1338 C 0.10309 0.27699 0.73621 0.0
C1339 C 0.11298 0.29181 0.74269 0.0
C1340 C 0.10787 0.2999 0.75926 0.0
C1341 C 0.10881 0.26818 0.71878 0.0
C1342 C 0.12752 0.26253 0.71693 0.0
C1343 C 0.0958 0.26455 0.70447 0.0
C1344 C 0.07614 0.27112 0.70503 0.0
C1345 C 0.07241 0.28921 0.70761 0.0
C1346 C 0.05385 0.29531 0.70825 0.0
C1347 C 0.03889 0.28346 0.70621 0.0
C1348 C 0.04246 0.26549 0.70346 0.0
C1349 C 0.061 0.25932 0.70282 0.0
H1350 H 0.02454 0.28821 0.70671 0.0
H1351 H 0.20507 0.23009 0.69959 0.0
H1352 H 0.74535 0.89325 0.79962 0.0
H1353 H 0.77591 0.88761 0.78562 0.0
H1354 H 0.76861 0.93274 0.75004 0.0
H1355 H 0.73822 0.93882 0.76422 0.0
H1356 H 0.78027 0.90284 0.73129 0.0
H1357 H 0.7984 0.93534 0.78548 0.0
H1358 H 0.79917 0.94156 0.81879 0.0
H1359 H 0.82417 0.8908 0.82896 0.0
H1360 H 0.82331 0.88418 0.79572 0.0
H1361 H 0.87162 0.90245 0.69335 0.0
H1362 H 0.84327 0.91207 0.70953 0.0
H1363 H 0.85249 0.87206 0.75098 0.0
H1364 H 0.88116 0.86281 0.73525 0.0
H1365 H 0.83985 0.90032 0.76691 0.0
H1366 H 0.82071 0.86647 0.71447 0.0
H1367 H 0.81928 0.85835 0.68163 0.0
H1368 H 0.79532 0.90896 0.66863 0.0
H1369 H 0.79684 0.91747 0.70138 0.0
C1370 C 0.75024 0.90218 0.78903 0.0
C1371 C 0.73911 0.91654 0.78314 0.0
C1372 C 0.76777 0.89887 0.78098 0.0
C1373 C 0.7746 0.90981 0.76685 0.0
C1374 C 0.7636 0.9241 0.7609 0.0
C1375 C 0.74612 0.92751 0.76901 0.0
C1376 C 0.79302 0.90609 0.75796 0.0
C1377 C 0.79336 0.90256 0.73901 0.0
C1378 C 0.80999 0.90519 0.76815 0.0
C1379 C 0.81064 0.9092 0.78813 0.0
C1380 C 0.80393 0.92545 0.79483 0.0
C1381 C 0.80441 0.92906 0.8137 0.0
C1382 C 0.81167 0.91657 0.82599 0.0
C1383 C 0.81853 0.90046 0.81943 0.0
C1384 C 0.81807 0.89678 0.80058 0.0
C1385 C 0.86773 0.89584 0.70603 0.0
C1386 C 0.87861 0.88178 0.71292 0.0
C1387 C 0.85144 0.90128 0.71522 0.0
C1388 C 0.84545 0.89254 0.73129 0.0
C1389 C 0.85672 0.87899 0.73859 0.0
C1390 C 0.87314 0.87369 0.72954 0.0
C1391 C 0.82716 0.89707 0.74016 0.0
C1392 C 0.82681 0.90069 0.75913 0.0
C1393 C 0.8101 0.89778 0.73004 0.0
C1394 C 0.80908 0.89268 0.71035 0.0
C1395 C 0.81526 0.87591 0.70459 0.0
C1396 C 0.81442 0.87124 0.68599 0.0
C1397 C 0.80727 0.88315 0.67304 0.0
C1398 C 0.80089 0.89976 0.67867 0.0
C1399 C 0.80173 0.90451 0.69725 0.0
H1400 H 0.80663 0.87951 0.65865 0.0
H1401 H 0.81203 0.91939 0.84059 0.0
H1402 H 0.63265 0.15314 0.23391 0.0
H1403 H 0.66104 0.1449 0.2509 0.0
H1404 H 0.68034 0.11467 0.20434 0.0
H1405 H 0.65196 0.12285 0.18718 0.0
H1406 H 0.68655 0.0976 0.23811 0.0
H1407 H 0.69688 0.15493 0.21053 0.0
H1408 H 0.68902 0.18611 0.20423 0.0
H1409 H 0.69249 0.19784 0.26192 0.0
H1410 H 0.69997 0.16662 0.26865 0.0
H1411 H 0.78369 0.09021 0.25564 0.0
H1412 H 0.75279 0.09632 0.24274 0.0
H1413 H 0.74095 0.13174 0.28772 0.0
H1414 H 0.7723 0.12639 0.3003 0.0
H1415 H 0.72957 0.14609 0.25689 0.0
H1416 H 0.72088 0.08975 0.28495 0.0
H1417 H 0.72775 0.05854 0.29212 0.0
H1418 H 0.72032 0.04483 0.23523 0.0
H1419 H 0.71366 0.07602 0.22767 0.0
C1420 C 0.64279 0.14454 0.22733 0.0
C1421 C 0.64006 0.13873 0.20911 0.0
C1422 C 0.65906 0.13991 0.23706 0.0
C1423 C 0.6729 0.12934 0.22881 0.0
C1424 C 0.66985 0.12287 0.21095 0.0
C1425 C 0.65363 0.1276 0.20115 0.0
C1426 C 0.69098 0.12574 0.23843 0.0
C1427 C 0.69606 0.10817 0.24208 0.0
C1428 C 0.7031 0.13958 0.2441 0.0
C1429 C 0.69879 0.15839 0.24011 0.0
C1430 C 0.6958 0.16412 0.2219 0.0
C1431 C 0.69141 0.1818 0.21826 0.0
C1432 C 0.69016 0.19392 0.2327 0.0
C1433 C 0.69337 0.1884 0.25079 0.0
C1434 C 0.69769 0.17072 0.25453 0.0
C1435 C 0.77468 0.09943 0.26278 0.0
C1436 C 0.78069 0.10778 0.27909 0.0
C1437 C 0.75682 0.10274 0.25547 0.0
C1438 C 0.74434 0.11428 0.26439 0.0
C1439 C 0.75026 0.12271 0.28061 0.0
C1440 C 0.7682 0.11949 0.28789 0.0
C1441 C 0.72535 0.11786 0.25647 0.0
C1442 C 0.72005 0.13547 0.25311 0.0
C1443 C 0.71295 0.10404 0.25124 0.0
C1444 C 0.71693 0.08526 0.25572 0.0
C1445 C 0.72085 0.08011 0.27394 0.0
C1446 C 0.72469 0.06241 0.27808 0.0
C1447 C 0.72452 0.04972 0.26413 0.0
C1448 C 0.72047 0.05468 0.24602 0.0
C1449 C 0.71664 0.07236 0.2418 0.0
H1450 H 0.72749 0.03603 0.26737 0.0
H1451 H 0.68677 0.2076 0.22985 0.0
H1452 H 0.39335 0.6474 0.2725 0.0
H1453 H 0.36592 0.63901 0.25403 0.0
H1454 H 0.33874 0.61852 0.30269 0.0
H1455 H 0.36624 0.62634 0.32108 0.0
H1456 H 0.33173 0.59768 0.27451 0.0
H1457 H 0.32999 0.66121 0.28476 0.0
H1458 H 0.34351 0.69122 0.28291 0.0
H1459 H 0.34614 0.68721 0.224 0.0
H1460 H 0.33285 0.65707 0.22553 0.0
H1461 H 0.23551 0.60015 0.25486 0.0
H1462 H 0.26671 0.60652 0.26716 0.0
H1463 H 0.28513 0.62345 0.21339 0.0
H1464 H 0.25373 0.61707 0.20093 0.0
H1465 H 0.29868 0.64515 0.24007 0.0
H1466 H 0.29757 0.58303 0.22935 0.0
H1467 H 0.28494 0.55268 0.23082 0.0
H1468 H 0.28844 0.55364 0.28983 0.0
H1469 H 0.30084 0.5841 0.28873 0.0
C1470 C 0.38165 0.64086 0.27922 0.0
C1471 C 0.38197 0.63765 0.29832 0.0
C1472 C 0.3659 0.63618 0.26866 0.0
C1473 C 0.35005 0.62847 0.27702 0.0
C1474 C 0.35073 0.62452 0.29591 0.0
C1475 C 0.36651 0.62903 0.30643 0.0
C1476 C 0.33243 0.62507 0.26643 0.0
C1477 C 0.32444 0.6081 0.26711 0.0
C1478 C 0.32318 0.63851 0.25622 0.0
C1479 C 0.3306 0.65683 0.25528 0.0
C1480 C 0.33351 0.66671 0.27142 0.0
C1481 C 0.34114 0.68374 0.27043 0.0
C1482 C 0.34574 0.6911 0.25335 0.0
C1483 C 0.3426 0.68148 0.23722 0.0
C1484 C 0.335 0.66443 0.23814 0.0
C1485 C 0.24618 0.60515 0.24559 0.0
C1486 C 0.24214 0.60787 0.22684 0.0
C1487 C 0.26405 0.60881 0.25266 0.0
C1488 C 0.27842 0.61512 0.24114 0.0
C1489 C 0.2743 0.6185 0.22253 0.0
C1490 C 0.25633 0.61489 0.21543 0.0
C1491 C 0.29773 0.61788 0.24863 0.0
C1492 C 0.30605 0.63469 0.24733 0.0
C1493 C 0.30735 0.60428 0.25823 0.0
C1494 C 0.30002 0.58591 0.25896 0.0
C1495 C 0.29553 0.57682 0.24265 0.0
C1496 C 0.28842 0.55959 0.24341 0.0
C1497 C 0.28585 0.55125 0.26041 0.0
C1498 C 0.29043 0.56012 0.27668 0.0
C1499 C 0.29752 0.57736 0.27599 0.0
H1500 H 0.28035 0.53791 0.26097 0.0
H1501 H 0.3517 0.70425 0.25261 0.0
H1502 H 0.25814 0.39687 0.70674 0.0
H1503 H 0.2277 0.3893 0.72043 0.0
H1504 H 0.24778 0.40665 0.77348 0.0
H1505 H 0.27831 0.41363 0.76009 0.0
H1506 H 0.22913 0.37653 0.77683 0.0
H1507 H 0.21833 0.43242 0.74653 0.0
H1508 H 0.2178 0.453 0.72016 0.0
H1509 H 0.17945 0.41876 0.69154 0.0
H1510 H 0.17996 0.39785 0.71766 0.0
H1511 H 0.14585 0.38707 0.82713 0.0
H1512 H 0.1741 0.39451 0.80965 0.0
H1513 H 0.14968 0.37145 0.7609 0.0
H1514 H 0.12125 0.36392 0.7783 0.0
H1515 H 0.16964 0.40272 0.75358 0.0
H1516 H 0.17936 0.34755 0.78453 0.0
H1517 H 0.17957 0.32725 0.81112 0.0
H1518 H 0.22001 0.36025 0.83853 0.0
H1519 H 0.21982 0.38093 0.81221 0.0
C1520 C 0.25616 0.3989 0.72135 0.0
C1521 C 0.2707 0.406 0.73226 0.0
C1522 C 0.23866 0.39473 0.72913 0.0
C1523 C 0.23533 0.39763 0.74796 0.0
C1524 C 0.24995 0.40436 0.75891 0.0
C1525 C 0.26739 0.40851 0.75117 0.0
C1526 C 0.21673 0.39364 0.75643 0.0
C1527 C 0.21617 0.38241 0.77183 0.0
C1528 C 0.19969 0.40091 0.74964 0.0
C1529 C 0.19935 0.41348 0.73396 0.0
C1530 C 0.20991 0.42921 0.73455 0.0
C1531 C 0.20959 0.44095 0.71966 0.0
C1532 C 0.19865 0.43716 0.70416 0.0
C1533 C 0.18795 0.42165 0.70354 0.0
C1534 C 0.18824 0.40986 0.71838 0.0
C1535 C 0.14631 0.38379 0.81263 0.0
C1536 C 0.13131 0.37476 0.80417 0.0
C1537 C 0.16253 0.38801 0.80267 0.0
C1538 C 0.16411 0.38328 0.78405 0.0
C1539 C 0.14878 0.37515 0.77528 0.0
C1540 C 0.13254 0.37085 0.78526 0.0
C1541 C 0.18219 0.38593 0.77415 0.0
C1542 C 0.18262 0.39681 0.75848 0.0
C1543 C 0.19915 0.37836 0.78068 0.0
C1544 C 0.19944 0.36587 0.79647 0.0
C1545 C 0.18819 0.35056 0.79629 0.0
C1546 C 0.18832 0.33897 0.8113 0.0
C1547 C 0.19977 0.34248 0.82652 0.0
C1548 C 0.21114 0.35756 0.82674 0.0
C1549 C 0.21103 0.36922 0.81177 0.0
H1550 H 0.19985 0.33349 0.83813 0.0
H1551 H 0.19841 0.44627 0.69265 0.0
H1552 H 0.79116 0.74488 0.8824 0.0
H1553 H 0.77526 0.77174 0.87167 0.0
H1554 H 0.77328 0.79108 0.92752 0.0
H1555 H 0.78863 0.76412 0.93824 0.0
H1556 H 0.74102 0.79585 0.91297 0.0
H1557 H 0.80404 0.80805 0.89285 0.0
H1558 H 0.83398 0.80298 0.87655 0.0
H1559 H 0.80457 0.80107 0.82492 0.0
H1560 H 0.7744 0.80592 0.84093 0.0
H1561 H 0.71345 0.88426 0.89299 0.0
H1562 H 0.73159 0.8583 0.90255 0.0
H1563 H 0.72748 0.83708 0.84762 0.0
H1564 H 0.70956 0.863 0.8379 0.0
H1565 H 0.76279 0.83342 0.86118 0.0
H1566 H 0.69974 0.82125 0.88208 0.0
H1567 H 0.6703 0.82755 0.89877 0.0
H1568 H 0.70085 0.83022 0.94974 0.0
H1569 H 0.73052 0.82415 0.93331 0.0
C1570 C 0.78747 0.75496 0.89232 0.0
C1571 C 0.79102 0.75233 0.91118 0.0
C1572 C 0.77843 0.77036 0.88618 0.0
C1573 C 0.77313 0.78359 0.89875 0.0
C1574 C 0.77707 0.78107 0.91753 0.0
C1575 C 0.78583 0.76562 0.92367 0.0
C1576 C 0.76273 0.7997 0.89262 0.0
C1577 C 0.746 0.80418 0.90181 0.0
C1578 C 0.76885 0.81042 0.87775 0.0
C1579 C 0.78694 0.80721 0.86812 0.0
C1580 C 0.80393 0.8064 0.87803 0.0
C1581 C 0.82095 0.80362 0.86884 0.0
C1582 C 0.82118 0.80176 0.84971 0.0
C1583 C 0.80437 0.80259 0.83973 0.0
C1584 C 0.78731 0.80535 0.84886 0.0
C1585 C 0.71638 0.87407 0.88294 0.0
C1586 C 0.70993 0.8757 0.8647 0.0
C1587 C 0.72673 0.85921 0.88844 0.0
C1588 C 0.73077 0.84564 0.87584 0.0
C1589 C 0.72455 0.84736 0.85758 0.0
C1590 C 0.7142 0.86218 0.85209 0.0
C1591 C 0.7413 0.82957 0.88167 0.0
C1592 C 0.75794 0.82507 0.87237 0.0
C1593 C 0.73521 0.81888 0.89653 0.0
C1594 C 0.71737 0.82241 0.90644 0.0
C1595 C 0.70019 0.82331 0.89683 0.0
C1596 C 0.68346 0.82681 0.90625 0.0
C1597 C 0.68371 0.82933 0.9253 0.0
C1598 C 0.70069 0.82829 0.93498 0.0
C1599 C 0.71746 0.8248 0.92562 0.0
H1600 H 0.67075 0.83205 0.93257 0.0
H1601 H 0.83437 0.79966 0.84262 0.0
H1602 H 0.19198 0.65716 0.16078 0.0
H1603 H 0.20639 0.68411 0.1487 0.0
H1604 H 0.24995 0.65309 0.12301 0.0
H1605 H 0.23587 0.62608 0.13546 0.0
H1606 H 0.26519 0.68022 0.1394 0.0
H1607 H 0.21367 0.67256 0.09772 0.0
H1608 H 0.18057 0.66796 0.08865 0.0
H1609 H 0.16509 0.7166 0.11497 0.0
H1610 H 0.19807 0.72138 0.12441 0.0
H1611 H 0.27178 0.76165 0.07317 0.0
H1612 H 0.25696 0.73387 0.08249 0.0
H1613 H 0.2746 0.74282 0.13856 0.0
H1614 H 0.2896 0.77053 0.12927 0.0
H1615 H 0.22936 0.72574 0.10482 0.0
H1616 H 0.28394 0.70386 0.15963 0.0
H1617 H 0.31783 0.70739 0.16616 0.0
H1618 H 0.32873 0.71544 0.10862 0.0
H1619 H 0.29496 0.71172 0.10172 0.0
C1620 C 0.20453 0.65603 0.15242 0.0
C1621 C 0.21274 0.63943 0.14907 0.0
C1622 C 0.21274 0.67148 0.14546 0.0
C1623 C 0.22919 0.67067 0.13478 0.0
C1624 C 0.23728 0.65409 0.13123 0.0
C1625 C 0.22916 0.63863 0.1383 0.0
C1626 C 0.23826 0.68714 0.12778 0.0
C1627 C 0.25734 0.69015 0.13182 0.0
C1628 C 0.22816 0.70004 0.11763 0.0
C1629 C 0.20832 0.69724 0.11191 0.0
C1630 C 0.20319 0.68221 0.10169 0.0
C1631 C 0.18445 0.67958 0.09646 0.0
C1632 C 0.17072 0.69196 0.10127 0.0
C1633 C 0.17573 0.70701 0.11127 0.0
C1634 C 0.19445 0.7097 0.11655 0.0
C1635 C 0.2724 0.75778 0.08751 0.0
C1636 C 0.28198 0.7683 0.10045 0.0
C1637 C 0.26394 0.74185 0.09282 0.0
C1638 C 0.26485 0.73609 0.11119 0.0
C1639 C 0.27404 0.74676 0.12423 0.0
C1640 C 0.28263 0.76262 0.1189 0.0
C1641 C 0.2562 0.71891 0.11667 0.0
C1642 C 0.2372 0.71579 0.11238 0.0
C1643 C 0.26649 0.70574 0.12624 0.0
C1644 C 0.28689 0.70769 0.1302 0.0
C1645 C 0.29358 0.70631 0.14837 0.0
C1646 C 0.31277 0.70835 0.15214 0.0
C1647 C 0.32541 0.7117 0.13783 0.0
C1648 C 0.31891 0.71292 0.1197 0.0
C1649 C 0.29975 0.71086 0.11586 0.0
H1650 H 0.34026 0.71331 0.14077 0.0
H1651 H 0.15622 0.6899 0.09721 0.0
H1652 H 0.33465 0.3411 0.66577 0.0
H1653 H 0.31685 0.31727 0.65125 0.0
H1654 H 0.27204 0.3537 0.63842 0.0
H1655 H 0.28988 0.37776 0.65295 0.0
H1656 H 0.25924 0.32267 0.65478 0.0
H1657 H 0.2987 0.33904 0.60442 0.0
H1658 H 0.32852 0.34623 0.58877 0.0
H1659 H 0.34957 0.29428 0.6008 0.0
H1660 H 0.31997 0.28685 0.61676 0.0
H1661 H 0.20943 0.25745 0.60368 0.0
H1662 H 0.22587 0.28474 0.61194 0.0
H1663 H 0.27642 0.25493 0.6228 0.0
H1664 H 0.2601 0.22765 0.61439 0.0
H1665 H 0.28485 0.28465 0.60519 0.0
H1666 H 0.24672 0.26899 0.65747 0.0
H1667 H 0.217 0.26131 0.67302 0.0
H1668 H 0.19376 0.31171 0.65801 0.0
H1669 H 0.22325 0.31954 0.642 0.0
C1670 C 0.32109 0.34412 0.65971 0.0
C1671 C 0.3137 0.36135 0.66051 0.0
C1672 C 0.31095 0.33048 0.65135 0.0
C1673 C 0.29315 0.33371 0.64366 0.0
C1674 C 0.28577 0.35093 0.64424 0.0
C1675 C 0.29602 0.36467 0.65246 0.0
C1676 C 0.28206 0.31887 0.63572 0.0
C1677 C 0.26465 0.31455 0.64369 0.0
C1678 C 0.28932 0.30804 0.62154 0.0
C1679 C 0.30716 0.31244 0.61193 0.0
C1680 C 0.30974 0.32919 0.60387 0.0
C1681 C 0.3266 0.3333 0.59491 0.0
C1682 C 0.34095 0.32073 0.59382 0.0
C1683 C 0.33845 0.30401 0.60166 0.0
C1684 C 0.32163 0.29984 0.61065 0.0
C1685 C 0.22402 0.2567 0.60788 0.0
C1686 C 0.2334 0.24033 0.60849 0.0
C1687 C 0.23343 0.27232 0.61258 0.0
C1688 C 0.25234 0.27189 0.61826 0.0
C1689 C 0.26185 0.25562 0.61846 0.0
C1690 C 0.2525 0.24002 0.61362 0.0
C1691 C 0.26213 0.28828 0.62442 0.0
C1692 C 0.27932 0.29287 0.61614 0.0
C1693 C 0.25471 0.2993 0.6384 0.0
C1694 C 0.23712 0.29477 0.64836 0.0
C1695 C 0.23523 0.27839 0.65739 0.0
C1696 C 0.21842 0.27401 0.66629 0.0
C1697 C 0.20347 0.286 0.66648 0.0
C1698 C 0.20534 0.30242 0.65782 0.0
C1699 C 0.22209 0.30684 0.64882 0.0
H1700 H 0.19045 0.28258 0.67334 0.0
H1701 H 0.35398 0.32394 0.58688 0.0
H1702 H 0.72755 0.26647 0.38206 0.0
H1703 H 0.74178 0.23878 0.37159 0.0
H1704 H 0.74328 0.21985 0.42766 0.0
H1705 H 0.72953 0.24764 0.43814 0.0
H1706 H 0.7749 0.21291 0.41257 0.0
H1707 H 0.71054 0.20485 0.39411 0.0
H1708 H 0.68079 0.21237 0.37842 0.0
H1709 H 0.70886 0.21136 0.32612 0.0
H1710 H 0.73885 0.20409 0.34152 0.0
H1711 H 0.77524 0.11979 0.36551 0.0
H1712 H 0.75852 0.14551 0.37774 0.0
H1713 H 0.80779 0.17777 0.36893 0.0
H1714 H 0.82465 0.15217 0.35693 0.0
H1715 H 0.74923 0.17648 0.36165 0.0
H1716 H 0.81047 0.20908 0.40198 0.0
H1717 H 0.83892 0.2002 0.41917 0.0
H1718 H 0.81408 0.14963 0.43082 0.0
H1719 H 0.7854 0.15828 0.41392 0.0
C1720 C 0.7308 0.25633 0.3921 0.0
C1721 C 0.72748 0.25927 0.41093 0.0
C1722 C 0.73888 0.24047 0.38611 0.0
C1723 C 0.74345 0.22707 0.39879 0.0
C1724 C 0.73997 0.22997 0.41758 0.0
C1725 C 0.73214 0.24588 0.42359 0.0
C1726 C 0.75251 0.21031 0.39269 0.0
C1727 C 0.76922 0.20496 0.40145 0.0
C1728 C 0.74505 0.19974 0.3783 0.0
C1729 C 0.727 0.20408 0.36901 0.0
C1730 C 0.7104 0.20636 0.37928 0.0
C1731 C 0.69349 0.21056 0.37043 0.0
C1732 C 0.69294 0.21238 0.35128 0.0
C1733 C 0.7093 0.20996 0.34095 0.0
C1734 C 0.72626 0.20579 0.34973 0.0
C1735 C 0.7826 0.13231 0.36637 0.0
C1736 C 0.80133 0.13388 0.36031 0.0
C1737 C 0.77296 0.14703 0.37325 0.0
C1738 C 0.7819 0.16357 0.37434 0.0
C1739 C 0.80065 0.16512 0.36844 0.0
C1740 C 0.81028 0.15044 0.36156 0.0
C1741 C 0.77164 0.17928 0.38143 0.0
C1742 C 0.7548 0.18444 0.37281 0.0
C1743 C 0.77875 0.18955 0.39615 0.0
C1744 C 0.79586 0.18428 0.40653 0.0
C1745 C 0.81106 0.19609 0.40827 0.0
C1746 C 0.82723 0.19109 0.41796 0.0
C1747 C 0.82833 0.17434 0.42603 0.0
C1748 C 0.81324 0.16257 0.4245 0.0
C1749 C 0.79703 0.16751 0.41484 0.0
H1750 H 0.84086 0.1705 0.43351 0.0
H1751 H 0.67983 0.21563 0.34446 0.0
H1752 H 0.15435 0.22671 0.54367 0.0
H1753 H 0.14536 0.22226 0.51163 0.0
H1754 H 0.14922 0.16578 0.51894 0.0
H1755 H 0.15848 0.17015 0.55119 0.0
H1756 H 0.16622 0.1762 0.48734 0.0
H1757 H 0.10638 0.18541 0.51508 0.0
H1758 H 0.08281 0.20025 0.53454 0.0
H1759 H 0.0872 0.24712 0.50137 0.0
H1760 H 0.11101 0.23265 0.48186 0.0
H1761 H 0.13008 0.16634 0.39544 0.0
H1762 H 0.13283 0.16348 0.42902 0.0
H1763 H 0.13054 0.22023 0.43431 0.0
H1764 H 0.12727 0.22311 0.40107 0.0
H1765 H 0.10985 0.20502 0.46037 0.0
H1766 H 0.1726 0.1971 0.43555 0.0
H1767 H 0.1966 0.1826 0.41628 0.0
H1768 H 0.18668 0.13336 0.44417 0.0
H1769 H 0.16243 0.14753 0.46345 0.0
C1770 C 0.15319 0.21331 0.53857 0.0
C1771 C 0.15711 0.19879 0.55007 0.0
C1772 C 0.14795 0.21078 0.52021 0.0
C1773 C 0.14637 0.19368 0.51287 0.0
C1774 C 0.15028 0.17911 0.52429 0.0
C1775 C 0.1555 0.18163 0.54274 0.0
C1776 C 0.1412 0.19123 0.49313 0.0
C1777 C 0.15368 0.18218 0.48151 0.0
C1778 C 0.12497 0.19922 0.48542 0.0
C1779 C 0.11058 0.20797 0.49707 0.0
C1780 C 0.10242 0.19892 0.512 0.0
C1781 C 0.089 0.20727 0.52304 0.0
C1782 C 0.08354 0.22463 0.51921 0.0
C1783 C 0.09145 0.23367 0.50432 0.0
C1784 C 0.10489 0.2254 0.49325 0.0
C1785 C 0.12991 0.17817 0.4038 0.0
C1786 C 0.12866 0.19497 0.3955 0.0
C1787 C 0.13164 0.17654 0.42299 0.0
C1788 C 0.13215 0.19167 0.43423 0.0
C1789 C 0.13026 0.20836 0.42598 0.0
C1790 C 0.12857 0.20999 0.4069 0.0
C1791 C 0.13514 0.19041 0.45452 0.0
C1792 C 0.12223 0.19878 0.46625 0.0
C1793 C 0.15097 0.18182 0.46232 0.0
C1794 C 0.16555 0.17332 0.45077 0.0
C1795 C 0.17543 0.18315 0.43746 0.0
C1796 C 0.1891 0.175 0.42656 0.0
C1797 C 0.19312 0.15706 0.42896 0.0
C1798 C 0.18352 0.14724 0.4423 0.0
C1799 C 0.16982 0.15533 0.45322 0.0
H1800 H 0.20371 0.15077 0.42051 0.0
H1801 H 0.07315 0.23107 0.52777 0.0
H1802 H 0.35312 0.84573 0.04662 0.0
H1803 H 0.36294 0.85088 0.01469 0.0
H1804 H 0.37409 0.79517 0.00837 0.0
H1805 H 0.36458 0.78999 0.04016 0.0
H1806 H 0.40133 0.8144 0.99252 0.0
H1807 H 0.33302 0.81437 0.99266 0.0
H1808 H 0.30175 0.82501 1.00231 0.0
H1809 H 0.31504 0.87699 0.98227 0.0
H1810 H 0.3465 0.86669 0.97271 0.0
H1811 H 0.39246 0.79322 0.8993 0.0
H1812 H 0.38937 0.79726 0.93239 0.0
H1813 H 0.38198 0.85334 0.92439 0.0
H1814 H 0.38474 0.84925 0.89087 0.0
H1815 H 0.35568 0.83967 0.94796 0.0
H1816 H 0.42229 0.8382 0.94335 0.0
H1817 H 0.45325 0.82719 0.93329 0.0
H1818 H 0.44339 0.77811 0.9615 0.0
H1819 H 0.41224 0.78873 0.97152 0.0
C1820 C 0.35782 0.83461 0.03847 0.0
C1821 C 0.35796 0.81743 0.04596 0.0
C1822 C 0.36336 0.83756 0.02018 0.0
C1823 C 0.36909 0.82338 0.00901 0.0
C1824 C 0.36975 0.80634 0.01667 0.0
C1825 C 0.36422 0.80338 0.03488 0.0
C1826 C 0.37386 0.82598 0.9892 0.0
C1827 C 0.39132 0.81987 0.98277 0.0
C1828 C 0.36109 0.83366 0.97651 0.0
C1829 C 0.34217 0.83982 0.98218 0.0
C1830 C 0.32932 0.8281 0.99045 0.0
C1831 C 0.31156 0.83406 0.99588 0.0
C1832 C 0.30643 0.85168 0.99296 0.0
C1833 C 0.31904 0.86336 0.98456 0.0
C1834 C 0.33683 0.85747 0.97913 0.0
C1835 C 0.39019 0.80643 0.90452 0.0
C1836 C 0.38872 0.8209 0.89241 0.0
C1837 C 0.38861 0.80876 0.92351 0.0
C1838 C 0.38561 0.82563 0.93096 0.0
C1839 C 0.38437 0.8402 0.91897 0.0
C1840 C 0.38607 0.83788 0.89985 0.0
C1841 C 0.38293 0.8276 0.95121 0.0
C1842 C 0.36587 0.83454 0.95773 0.0
C1843 C 0.39607 0.82068 0.964 0.0
C1844 C 0.41486 0.81424 0.95811 0.0
C1845 C 0.42666 0.82502 0.94731 0.0
C1846 C 0.44426 0.81885 0.94163 0.0
C1847 C 0.45027 0.80195 0.94673 0.0
C1848 C 0.43871 0.7912 0.95756 0.0
C1849 C 0.42109 0.7973 0.96327 0.0
H1850 H 0.4639 0.7972 0.94232 0.0
H1851 H 0.29267 0.85627 0.99718 0.0
H1852 H 0.6531 0.30412 0.46427 0.0
H1853 H 0.64181 0.30307 0.49607 0.0
H1854 H 0.65944 0.35717 0.50392 0.0
H1855 H 0.67143 0.35799 0.47245 0.0
H1856 H 0.67104 0.33919 0.53127 0.0
H1857 H 0.61118 0.34329 0.50118 0.0
H1858 H 0.58627 0.33505 0.47911 0.0
H1859 H 0.58238 0.28352 0.50372 0.0
H1860 H 0.60744 0.29136 0.52579 0.0
H1861 H 0.63116 0.34685 0.62071 0.0
H1862 H 0.63642 0.35122 0.58769 0.0
H1863 H 0.62523 0.29594 0.57808 0.0
H1864 H 0.61941 0.29162 0.61086 0.0
H1865 H 0.60919 0.31598 0.55173 0.0
H1866 H 0.67039 0.31184 0.58054 0.0
H1867 H 0.69515 0.3204 0.60265 0.0
H1868 H 0.69597 0.37294 0.58014 0.0
H1869 H 0.67103 0.36474 0.55805 0.0
C1870 C 0.65427 0.31587 0.47269 0.0
C1871 C 0.66318 0.33113 0.46584 0.0
C1872 C 0.64775 0.31529 0.4909 0.0
C1873 C 0.6496 0.3301 0.50249 0.0
C1874 C 0.65789 0.34553 0.49537 0.0
C1875 C 0.66469 0.34601 0.47732 0.0
C1876 C 0.6441 0.32921 0.52233 0.0
C1877 C 0.65735 0.33442 0.53566 0.0
C1878 C 0.62642 0.32261 0.52825 0.0
C1879 C 0.61131 0.31787 0.51504 0.0
C1880 C 0.60511 0.33016 0.5018 0.0
C1881 C 0.59094 0.32556 0.48931 0.0
C1882 C 0.58278 0.30876 0.48999 0.0
C1883 C 0.58873 0.29652 0.5032 0.0
C1884 C 0.60289 0.30104 0.51572 0.0
C1885 C 0.62957 0.33568 0.61155 0.0
C1886 C 0.62505 0.31884 0.61854 0.0
C1887 C 0.63273 0.33816 0.59267 0.0
C1888 C 0.63149 0.32385 0.58039 0.0
C1889 C 0.62637 0.30718 0.58725 0.0
C1890 C 0.62323 0.30469 0.60608 0.0
C1891 C 0.63611 0.326 0.5605 0.0
C1892 C 0.62276 0.32094 0.54722 0.0
C1893 C 0.65365 0.33283 0.55458 0.0
C1894 C 0.66872 0.33773 0.56778 0.0
C1895 C 0.67576 0.32525 0.5804 0.0
C1896 C 0.68984 0.33003 0.59291 0.0
C1897 C 0.69709 0.34721 0.59283 0.0
C1898 C 0.69031 0.35964 0.58021 0.0
C1899 C 0.67622 0.35493 0.56768 0.0
H1900 H 0.70799 0.35089 0.60253 0.0
H1901 H 0.57181 0.30523 0.4803 0.0
H1902 H 0.91418 0.69075 0.11927 0.0
H1903 H 0.91484 0.68903 0.08543 0.0
H1904 H 0.85461 0.68189 0.08469 0.0
H1905 H 0.85392 0.68359 0.11826 0.0
H1906 H 0.87321 0.65931 0.06051 0.0
H1907 H 0.87267 0.72172 0.07671 0.0
H1908 H 0.88542 0.74832 0.09187 0.0
H1909 H 0.93716 0.74264 0.06196 0.0
H1910 H 0.92478 0.71585 0.04679 0.0
H1911 H 0.83999 0.68307 0.973 0.0
H1912 H 0.84734 0.67967 1.00555 0.0
H1913 H 0.90429 0.69704 0.99545 0.0
H1914 H 0.89673 0.70118 0.96278 0.0
H1915 H 0.89247 0.71227 0.02478 0.0
H1916 H 0.89242 0.65228 1.00558 0.0
H1917 H 0.88064 0.62534 0.99035 0.0
H1918 H 0.83215 0.62517 0.02557 0.0
H1919 H 0.8435 0.65226 0.04086 0.0
C1920 C 0.90116 0.6886 0.11185 0.0
C1921 C 0.88398 0.68747 0.12139 0.0
C1922 C 0.90152 0.68771 0.09255 0.0
C1923 C 0.88473 0.68546 0.08252 0.0
C1924 C 0.86772 0.68366 0.09211 0.0
C1925 C 0.86733 0.68476 0.11129 0.0
C1926 C 0.88453 0.68565 0.06202 0.0
C1927 C 0.87736 0.67089 0.05266 0.0
C1928 C 0.89051 0.70054 0.05175 0.0
C1929 C 0.8979 0.71667 0.0608 0.0
C1930 C 0.88682 0.72606 0.07348 0.0
C1931 C 0.89397 0.74119 0.08205 0.0
C1932 C 0.91211 0.74714 0.07792 0.0
C1933 C 0.92312 0.738 0.06517 0.0
C1934 C 0.91605 0.72285 0.05658 0.0
C1935 C 0.85415 0.68601 0.97762 0.0
C1936 C 0.86779 0.69233 0.96522 0.0
C1937 C 0.85839 0.68395 0.9963 0.0
C1938 C 0.87651 0.68775 1.00304 0.0
C1939 C 0.89022 0.69395 0.99065 0.0
C1940 C 0.8859 0.69626 0.97195 0.0
C1941 C 0.88073 0.68601 0.02313 0.0
C1942 C 0.88862 0.7005 0.03247 0.0
C1943 C 0.87562 0.67075 0.03337 0.0
C1944 C 0.86877 0.65439 0.02429 0.0
C1945 C 0.87919 0.64657 0.01 0.0
C1946 C 0.87259 0.63126 1.00137 0.0
C1947 C 0.85565 0.62357 0.00697 0.0
C1948 C 0.84528 0.63115 0.02125 0.0
C1949 C 0.8518 0.64647 0.02992 0.0
H1950 H 0.85056 0.61171 1.00026 0.0
H1951 H 0.91762 0.75885 0.08457 0.0
H1952 H 0.38831 0.10777 0.163 0.0
H1953 H 0.42198 0.1138 0.16506 0.0
H1954 H 0.41796 0.116 0.22426 0.0
H1955 H 0.38407 0.11031 0.22229 0.0
H1956 H 0.43807 0.14296 0.21192 0.0
H1957 H 0.43858 0.08044 0.20143 0.0
H1958 H 0.43054 0.05268 0.18548 0.0
H1959 H 0.45725 0.0717 0.13627 0.0
H1960 H 0.46523 0.09969 0.15186 0.0
H1961 H 0.5355 0.14286 0.23085 0.0
H1962 H 0.5027 0.13359 0.2284 0.0
H1963 H 0.50638 0.1357 0.1692 0.0
H1964 H 0.53942 0.14496 0.17151 0.0
H1965 H 0.48671 0.10631 0.18132 0.0
H1966 H 0.48586 0.16885 0.19179 0.0
H1967 H 0.49403 0.19655 0.20779 0.0
H1968 H 0.46788 0.17728 0.25718 0.0
H1969 H 0.4598 0.14934 0.24154 0.0
C1970 C 0.39457 0.10938 0.1765 0.0
C1971 C 0.38342 0.10851 0.1925 0.0
C1972 C 0.4139 0.11276 0.17765 0.0
C1973 C 0.42264 0.11518 0.19483 0.0
C1974 C 0.41159 0.11417 0.21084 0.0
C1975 C 0.3922 0.11084 0.2097 0.0
C1976 C 0.44314 0.11943 0.19601 0.0
C1977 C 0.4487 0.13476 0.20548 0.0
C1978 C 0.45706 0.10906 0.18717 0.0
C1979 C 0.45234 0.09223 0.17777 0.0
C1980 C 0.44261 0.07876 0.18717 0.0
C1981 C 0.43809 0.06297 0.1782 0.0
C1982 C 0.44334 0.06045 0.15986 0.0
C1983 C 0.45317 0.07369 0.15047 0.0
C1984 C 0.45771 0.0895 0.15937 0.0
C1985 C 0.52944 0.14125 0.21727 0.0
C1986 C 0.54013 0.14477 0.20137 0.0
C1987 C 0.51062 0.136 0.21591 0.0
C1988 C 0.50196 0.13418 0.19863 0.0
C1989 C 0.51274 0.13707 0.18269 0.0
C1990 C 0.53162 0.1424 0.18403 0.0
C1991 C 0.48156 0.12973 0.19733 0.0
C1992 C 0.47604 0.11444 0.1878 0.0
C1993 C 0.46765 0.14011 0.20613 0.0
C1994 C 0.47239 0.15693 0.21554 0.0
C1995 C 0.48199 0.17046 0.20611 0.0
C1996 C 0.48658 0.18621 0.21511 0.0
C1997 C 0.48152 0.18865 0.23351 0.0
C1998 C 0.47181 0.17536 0.24293 0.0
C1999 C 0.46721 0.15957 0.23401 0.0
H2000 H 0.48508 0.20086 0.24045 0.0
H2001 H 0.43983 0.04822 0.15293 0.0
H2002 H 0.97898 0.86072 0.67452 0.0
H2003 H 0.01207 0.86939 0.67162 0.0
H2004 H 0.00898 0.89661 0.72363 0.0
H2005 H 0.97591 0.888 0.72665 0.0
H2006 H 0.02856 0.91586 0.69734 0.0
H2007 H 0.02854 0.85683 0.72205 0.0
H2008 H 0.0201 0.8252 0.7228 0.0
H2009 H 0.04706 0.81751 0.67055 0.0
H2010 H 0.05543 0.84917 0.66936 0.0
H2011 H 0.12757 0.9245 0.71268 0.0
H2012 H 0.09394 0.91782 0.71564 0.0
H2013 H 0.09666 0.88521 0.66706 0.0
H2014 H 0.1302 0.89147 0.66426 0.0
H2015 H 0.07698 0.86892 0.69216 0.0
H2016 H 0.07688 0.92749 0.66682 0.0
H2017 H 0.08499 0.95917 0.66519 0.0
H2018 H 0.05815 0.96792 0.71731 0.0
H2019 H 0.05009 0.93623 0.71937 0.0
C2020 C 0.98528 0.86867 0.68528 0.0
C2021 C 0.97478 0.87357 0.70087 0.0
C2022 C 1.00423 0.87356 0.68363 0.0
C2023 C 0.01308 0.88351 0.69751 0.0
C2024 C 1.00247 0.88892 0.71277 0.0
C2025 C 0.98357 0.88392 0.7145 0.0
C2026 C 0.03353 0.88781 0.69637 0.0
C2027 C 0.03919 0.90561 0.69643 0.0
C2028 C 0.04738 0.87445 0.69481 0.0
C2029 C 0.04244 0.8554 0.69553 0.0
C2030 C 0.03254 0.84842 0.71065 0.0
C2031 C 0.02779 0.83048 0.71116 0.0
C2032 C 0.033 0.81936 0.6967 0.0
C2033 C 0.04301 0.82615 0.68172 0.0
C2034 C 0.04777 0.84408 0.68113 0.0
C2035 C 0.121 0.91592 0.70262 0.0
C2036 C 0.13164 0.90855 0.68823 0.0
C2037 C 0.10173 0.91217 0.70427 0.0
C2038 C 0.09263 0.90114 0.69145 0.0
C2039 C 0.10328 0.89373 0.67715 0.0
C2040 C 0.12251 0.89738 0.67555 0.0
C2041 C 0.07212 0.89703 0.69299 0.0
C2042 C 0.06642 0.87923 0.69305 0.0
C2043 C 0.05824 0.9104 0.69453 0.0
C2044 C 0.06307 0.92945 0.69334 0.0
C2045 C 0.07285 0.93614 0.67801 0.0
C2046 C 0.07741 0.9541 0.67699 0.0
C2047 C 0.07214 0.96554 0.69116 0.0
C2048 C 0.06225 0.95904 0.70636 0.0
C2049 C 0.05767 0.94108 0.70745 0.0
H2050 H 0.07568 0.97944 0.69034 0.0
H2051 H 0.02931 0.80548 0.69713 0.0
H2052 H 0.02666 0.34564 0.8305 0.0
H2053 H 0.99323 0.35305 0.83081 0.0
H2054 H 1.0066 0.40753 0.81907 0.0
H2055 H 0.04023 0.40023 0.81875 0.0
H2056 H 0.97878 0.404 0.84589 0.0
H2057 H 0.99089 0.38237 0.78514 0.0
H2058 H 1.00299 0.36136 0.7621 0.0
H2059 H 0.96635 0.32094 0.78315 0.0
H2060 H 0.95422 0.34164 0.8065 0.0
H2061 H 0.88151 0.42332 0.82774 0.0
H2062 H 0.91581 0.42105 0.82436 0.0
H2063 H 0.91199 0.36433 0.82953 0.0
H2064 H 0.87799 0.36644 0.83242 0.0
H2065 H 0.93578 0.37204 0.80355 0.0
H2066 H 0.92584 0.39214 0.86587 0.0
H2067 H 0.91405 0.41238 0.88981 0.0
H2068 H 0.94655 0.45483 0.86667 0.0
H2069 H 0.95836 0.43488 0.84244 0.0
C2070 C 0.02256 0.35923 0.82807 0.0
C2071 C 0.03618 0.37232 0.8245 0.0
C2072 C 1.0034 0.36344 0.82819 0.0
C2073 C 0.99737 0.38081 0.82473 0.0
C2074 C 0.01092 0.39403 0.82171 0.0
C2075 C 0.03014 0.38981 0.82149 0.0
C2076 C 0.9769 0.38496 0.82396 0.0
C2077 C 0.96939 0.39724 0.83642 0.0
C2078 C 0.96461 0.37597 0.8118 0.0
C2079 C 0.97175 0.36352 0.79766 0.0
C2080 C 0.98551 0.36896 0.78494 0.0
C2081 C 0.99236 0.35712 0.77181 0.0
C2082 C 0.98547 0.33982 0.77118 0.0
C2083 C 0.97168 0.33434 0.78366 0.0
C2084 C 0.9648 0.34613 0.79683 0.0
C2085 C 0.888 0.41037 0.82802 0.0
C2086 C 0.87695 0.39508 0.83039 0.0
C2087 C 0.90763 0.40909 0.8262 0.0
C2088 C 0.9166 0.39251 0.82691 0.0
C2089 C 0.9055 0.37727 0.82891 0.0
C2090 C 0.88597 0.37852 0.83061 0.0
C2091 C 0.93749 0.39077 0.8258 0.0
C2092 C 0.94513 0.37895 0.81292 0.0
C2093 C 0.94986 0.4001 0.83767 0.0
C2094 C 0.9428 0.41208 0.85223 0.0
C2095 C 0.93036 0.40583 0.86581 0.0
C2096 C 0.92369 0.41724 0.87944 0.0
C2097 C 0.9295 0.43489 0.87972 0.0
C2098 C 0.94203 0.44116 0.86641 0.0
C2099 C 0.94872 0.42981 0.85273 0.0
H2100 H 0.92432 0.4437 0.89029 0.0
H2101 H 0.99079 0.33066 0.76101 0.0
H2102 H 0.48603 0.66824 0.31906 0.0
H2103 H 0.51939 0.6606 0.31874 0.0
H2104 H 0.50549 0.60594 0.32888 0.0
H2105 H 0.47193 0.61349 0.32931 0.0
H2106 H 0.5354 0.61693 0.34996 0.0
H2107 H 0.51804 0.61874 0.28633 0.0
H2108 H 0.50405 0.63162 0.25827 0.0
H2109 H 0.5425 0.67537 0.2613 0.0
H2110 H 0.55655 0.66288 0.28954 0.0
H2111 H 0.62959 0.58886 0.33211 0.0
H2112 H 0.59528 0.59165 0.32987 0.0
H2113 H 0.6013 0.64697 0.31656 0.0
H2114 H 0.63543 0.64422 0.31844 0.0
H2115 H 0.57462 0.63276 0.2959 0.0
H2116 H 0.5902 0.63257 0.36051 0.0
H2117 H 0.60406 0.62046 0.389 0.0
H2118 H 0.56897 0.5744 0.38449 0.0
H2119 H 0.55508 0.58614 0.35581 0.0
C2120 C 0.49 0.65458 0.32127 0.0
C2121 C 0.47622 0.64147 0.32413 0.0
C2122 C 0.50913 0.65022 0.321 0.0
C2123 C 0.51498 0.63264 0.32353 0.0
C2124 C 0.50132 0.61957 0.32682 0.0
C2125 C 0.48213 0.62392 0.32703 0.0
C2126 C 0.53536 0.62803 0.32265 0.0
C2127 C 0.54392 0.6201 0.33801 0.0
C2128 C 0.54658 0.63244 0.3072 0.0
C2129 C 0.53825 0.63994 0.29014 0.0
C2130 C 0.52342 0.63117 0.28109 0.0
C2131 C 0.51549 0.63839 0.26514 0.0
C2132 C 0.52235 0.65432 0.25803 0.0
C2133 C 0.53719 0.66304 0.26683 0.0
C2134 C 0.54516 0.65588 0.2828 0.0
C2135 C 0.62362 0.60156 0.32849 0.0
C2136 C 0.63531 0.61633 0.32555 0.0
C2137 C 0.60397 0.60317 0.32733 0.0
C2138 C 0.59563 0.6196 0.32332 0.0
C2139 C 0.60734 0.63416 0.31971 0.0
C2140 C 0.62691 0.63257 0.32084 0.0
C2141 C 0.57477 0.6219 0.32333 0.0
C2142 C 0.56609 0.62941 0.30779 0.0
C2143 C 0.56347 0.61718 0.33865 0.0
C2144 C 0.57176 0.61013 0.35591 0.0
C2145 C 0.58555 0.61979 0.36551 0.0
C2146 C 0.59339 0.61301 0.38171 0.0
C2147 C 0.58744 0.59665 0.38852 0.0
C2148 C 0.57359 0.58706 0.37918 0.0
C2149 C 0.56572 0.59377 0.36296 0.0
H2150 H 0.59353 0.59142 0.40106 0.0
H2151 H 0.5162 0.65989 0.24568 0.0
H2152 H 0.15158 0.41121 0.10667 0.0
H2153 H 0.14842 0.44326 0.11077 0.0
H2154 H 0.20224 0.44473 0.13825 0.0
H2155 H 0.20556 0.41296 0.13407 0.0
H2156 H 0.17599 0.46205 0.15768 0.0
H2157 H 0.19667 0.46037 0.09441 0.0
H2158 H 0.19482 0.45131 0.06186 0.0
H2159 H 0.14035 0.47546 0.05708 0.0
H2160 H 0.14177 0.48446 0.0897 0.0
H2161 H 0.19691 0.55221 0.16336 0.0
H2162 H 0.19756 0.52113 0.15452 0.0
H2163 H 0.14381 0.52697 0.12753 0.0
H2164 H 0.14321 0.55832 0.13605 0.0
H2165 H 0.16688 0.50591 0.1076 0.0
H2166 H 0.14641 0.5086 0.17015 0.0
H2167 H 0.14772 0.51757 0.20275 0.0
H2168 H 0.20079 0.49112 0.20907 0.0
H2169 H 0.19994 0.4822 0.17642 0.0
C2170 C 0.16285 0.4184 0.11335 0.0
C2171 C 0.17874 0.40942 0.12019 0.0
C2172 C 0.16101 0.43673 0.11571 0.0
C2173 C 0.17509 0.44643 0.12485 0.0
C2174 C 0.19111 0.43753 0.13131 0.0
C2175 C 0.19295 0.4193 0.12896 0.0
C2176 C 0.17303 0.46572 0.12842 0.0
C2177 C 0.1742 0.47164 0.14669 0.0
C2178 C 0.17005 0.47823 0.11417 0.0
C2179 C 0.16924 0.47291 0.09455 0.0
C2180 C 0.18423 0.46362 0.08646 0.0
C2181 C 0.18327 0.45852 0.06799 0.0
C2182 C 0.16745 0.46275 0.05742 0.0
C2183 C 0.15258 0.47216 0.06529 0.0
C2184 C 0.15346 0.47727 0.08376 0.0
C2185 C 0.18526 0.54696 0.15543 0.0
C2186 C 0.16992 0.55776 0.15057 0.0
C2187 C 0.18562 0.52913 0.15043 0.0
C2188 C 0.17056 0.52158 0.14065 0.0
C2189 C 0.15555 0.53246 0.13514 0.0
C2190 C 0.15522 0.55038 0.14007 0.0
C2191 C 0.1703 0.50223 0.13683 0.0
C2192 C 0.16859 0.4963 0.11857 0.0
C2193 C 0.17268 0.48964 0.15111 0.0
C2194 C 0.17318 0.49486 0.1708 0.0
C2195 C 0.15842 0.5048 0.17846 0.0
C2196 C 0.15907 0.50986 0.19695 0.0
C2197 C 0.17434 0.50495 0.20797 0.0
C2198 C 0.18897 0.49492 0.20052 0.0
C2199 C 0.18841 0.48985 0.18203 0.0
H2200 H 0.17482 0.50888 0.22228 0.0
H2201 H 0.16673 0.45879 0.04313 0.0
H2202 H 0.71365 0.96346 0.87036 0.0
H2203 H 0.70831 0.99376 0.88105 0.0
H2204 H 0.65165 0.99189 0.85985 0.0
H2205 H 0.65674 0.96151 0.84939 0.0
H2206 H 0.67376 0.02139 0.84765 0.0
H2207 H 0.65687 0.9916 0.90405 0.0
H2208 H 0.66215 0.97128 0.93012 0.0
H2209 H 0.71065 1.00134 0.94652 0.0
H2210 H 0.70581 0.02171 0.92038 0.0
H2211 H 0.64204 0.10417 0.87552 0.0
H2212 H 0.64452 0.07211 0.87207 0.0
H2213 H 0.69494 0.07231 0.90531 0.0
H2214 H 0.69175 0.10446 0.90952 0.0
H2215 H 0.67673 0.04322 0.91197 0.0
H2216 H 0.69592 0.07198 0.85666 0.0
H2217 H 0.69343 0.09228 0.83017 0.0
H2218 H 0.64473 0.0642 0.81082 0.0
H2219 H 0.64678 0.04387 0.83735 0.0
C2220 C 0.69996 0.9694 0.8682 0.0
C2221 C 0.68563 0.96006 0.85899 0.0
C2222 C 0.69692 0.98671 0.87437 0.0
C2223 C 0.67958 0.99508 0.87126 0.0
C2224 C 0.66513 0.98567 0.86241 0.0
C2225 C 0.66805 0.96827 0.8565 0.0
C2226 C 0.67693 0.01402 0.87609 0.0
C2227 C 0.6741 0.02614 0.86173 0.0
C2228 C 0.67819 0.02029 0.89439 0.0
C2229 C 0.68108 0.00808 0.91014 0.0
C2230 C 0.66876 0.99379 0.91311 0.0
C2231 C 0.67165 0.98228 0.92793 0.0
C2232 C 0.68676 0.98498 0.93994 0.0
C2233 C 0.69897 0.99924 0.93719 0.0
C2234 C 0.69615 0.01078 0.92239 0.0
C2235 C 0.65345 0.09727 0.88231 0.0
C2236 C 0.66677 0.10671 0.89267 0.0
C2237 C 0.65498 0.07898 0.88024 0.0
C2238 C 0.67027 0.06976 0.88793 0.0
C2239 C 0.68309 0.07907 0.8991 0.0
C2240 C 0.68128 0.09741 0.90154 0.0
C2241 C 0.67325 0.05067 0.88351 0.0
C2242 C 0.6763 0.03852 0.89788 0.0
C2243 C 0.67263 0.04436 0.86512 0.0
C2244 C 0.6714 0.0565 0.84909 0.0
C2245 C 0.68461 0.0702 0.84682 0.0
C2246 C 0.68328 0.08171 0.83179 0.0
C2247 C 0.6689 0.07956 0.81885 0.0
C2248 C 0.65585 0.06586 0.82087 0.0
C2249 C 0.65709 0.05434 0.83589 0.0
H2250 H 0.6679 0.08848 0.80722 0.0
H2251 H 0.68897 0.97606 0.9514 0.0
H2252 H 0.83722 0.0473 0.33328 0.0
H2253 H 0.83666 0.01646 0.3431 0.0
H2254 H 0.85422 0.03187 0.39761 0.0
H2255 H 0.85503 0.06292 0.38781 0.0
H2256 H 0.87264 1.00192 0.38593 0.0
H2257 H 0.80881 0.02179 0.38982 0.0
H2258 H 0.77968 0.03594 0.37868 0.0
H2259 H 0.77563 0.99784 0.3351 0.0
H2260 H 0.80489 0.9836 0.34583 0.0
H2261 H 0.84815 0.91576 0.42243 0.0
H2262 H 0.85217 0.94763 0.41693 0.0
H2263 H 0.83034 0.94123 0.36186 0.0
H2264 H 0.82602 0.90971 0.36747 0.0
H2265 H 0.81366 0.96774 0.37732 0.0
H2266 H 0.87841 0.949 0.372 0.0
H2267 H 0.9078 0.93495 0.38266 0.0
H2268 H 0.91024 0.97065 0.42851 0.0
H2269 H 0.88073 0.98477 0.41824 0.0
C2270 C 0.84103 0.0442 0.34736 0.0
C2271 C 0.84605 0.05766 0.35979 0.0
C2272 C 0.84065 0.02651 0.35298 0.0
C2273 C 0.84514 0.02183 0.37118 0.0
C2274 C 0.85064 0.03516 0.38352 0.0
C2275 C 0.85103 0.05291 0.3779 0.0
C2276 C 0.84367 1.00305 0.37725 0.0
C2277 C 0.85967 0.99449 0.38432 0.0
C2278 C 0.82683 0.99327 0.37495 0.0
C2279 C 0.80913 1.00172 0.36856 0.0
C2280 C 0.80178 0.0165 0.37779 0.0
C2281 C 0.78523 0.02453 0.37156 0.0
C2282 C 0.77583 0.01781 0.35617 0.0
C2283 C 0.78293 1.00303 0.34701 0.0
C2284 C 0.79949 0.99497 0.35318 0.0
C2285 C 0.84447 0.92118 0.4091 0.0
C2286 C 0.83661 0.91028 0.39544 0.0
C2287 C 0.84677 0.93939 0.40594 0.0
C2288 C 0.84156 0.94693 0.38894 0.0
C2289 C 0.8343 0.93586 0.37515 0.0
C2290 C 0.83181 0.91781 0.37837 0.0
C2291 C 0.84279 0.96637 0.38552 0.0
C2292 C 0.82665 0.97513 0.37903 0.0
C2293 C 0.85951 0.97625 0.38832 0.0
C2294 C 0.87726 0.9678 0.39447 0.0
C2295 C 0.88514 0.95376 0.38443 0.0
C2296 C 0.90183 0.9458 0.39039 0.0
C2297 C 0.91085 0.95187 0.40628 0.0
C2298 C 0.90322 0.96594 0.41622 0.0
C2299 C 0.88653 0.97393 0.41033 0.0
H2300 H 0.92377 0.94569 0.41087 0.0
H2301 H 0.76302 0.02405 0.35137 0.0
H2302 H 0.35685 0.45035 0.62789 0.0
H2303 H 0.35738 0.48135 0.61792 0.0
H2304 H 0.32519 0.49598 0.66583 0.0
H2305 H 0.32436 0.46519 0.67571 0.0
H2306 H 0.31138 0.51159 0.63602 0.0
H2307 H 0.37311 0.50352 0.66267 0.0
H2308 H 0.40425 0.48947 0.66591 0.0
H2309 H 0.41746 0.50298 0.60995 0.0
H2310 H 0.38627 0.51691 0.6063 0.0
H2311 H 0.32345 0.60275 0.64487 0.0
H2312 H 0.32576 0.57093 0.64942 0.0
H2313 H 0.35518 0.56591 0.59782 0.0
H2314 H 0.35279 0.59801 0.59307 0.0
H2315 H 0.37065 0.54478 0.6252 0.0
H2316 H 0.30966 0.5551 0.59958 0.0
H2317 H 0.27867 0.56952 0.59684 0.0
H2318 H 0.26406 0.55179 0.65117 0.0
H2319 H 0.29508 0.53748 0.65434 0.0
C2320 C 0.34988 0.46018 0.63629 0.0
C2321 C 0.34056 0.45524 0.65261 0.0
C2322 C 0.35027 0.47791 0.63061 0.0
C2323 C 0.34144 0.49106 0.64119 0.0
C2324 C 0.33207 0.48611 0.6574 0.0
C2325 C 0.33166 0.46845 0.66306 0.0
C2326 C 0.34164 0.50999 0.63545 0.0
C2327 C 0.32437 0.51885 0.6338 0.0
C2328 C 0.35853 0.5194 0.63196 0.0
C2329 C 0.37728 0.51106 0.63415 0.0
C2330 C 0.38259 0.50336 0.65101 0.0
C2331 C 0.40026 0.49545 0.65293 0.0
C2332 C 0.4128 0.49528 0.63812 0.0
C2333 C 0.40772 0.50308 0.62139 0.0
C2334 C 0.39005 0.51099 0.61939 0.0
C2335 C 0.33032 0.59494 0.63439 0.0
C2336 C 0.33766 0.60296 0.61845 0.0
C2337 C 0.33169 0.57671 0.63706 0.0
C2338 C 0.34032 0.56596 0.6238 0.0
C2339 C 0.34837 0.57394 0.60819 0.0
C2340 C 0.34703 0.59228 0.60551 0.0
C2341 C 0.34041 0.54641 0.62626 0.0
C2342 C 0.35768 0.53745 0.62723 0.0
C2343 C 0.32351 0.53686 0.62915 0.0
C2344 C 0.30476 0.54532 0.62724 0.0
C2345 C 0.29989 0.55438 0.61099 0.0
C2346 C 0.28231 0.56252 0.60935 0.0
C2347 C 0.26942 0.5616 0.62383 0.0
C2348 C 0.27406 0.5525 0.63997 0.0
C2349 C 0.29164 0.54435 0.64168 0.0
H2350 H 0.25581 0.56791 0.62254 0.0
H2351 H 0.42648 0.48916 0.63964 0.0
H2352 H 0.89447 0.87123 0.46609 0.0
H2353 H 0.90228 0.87104 0.49896 0.0
H2354 H 0.85943 0.83161 0.50845 0.0
H2355 H 0.85126 0.83208 0.47586 0.0
H2356 H 0.85712 0.85549 0.53384 0.0
H2357 H 0.90808 0.82207 0.5076 0.0
H2358 H 0.935 0.81673 0.48696 0.0
H2359 H 0.9644 0.86085 0.51061 0.0
H2360 H 0.93752 0.86658 0.53124 0.0
H2361 H 0.8823 0.81882 0.61905 0.0
H2362 H 0.87855 0.82324 0.5861 0.0
H2363 H 0.91492 0.86881 0.58842 0.0
H2364 H 0.91839 0.86482 0.62179 0.0
H2365 H 0.92174 0.84534 0.55758 0.0
H2366 H 0.87076 0.87673 0.58571 0.0
H2367 H 0.8439 0.8804 0.60682 0.0
H2368 H 0.81446 0.83827 0.57959 0.0
H2369 H 0.84128 0.83415 0.55849 0.0
C2370 C 0.88675 0.86249 0.47518 0.0
C2371 C 0.87223 0.85168 0.46829 0.0
C2372 C 0.89129 0.86233 0.49399 0.0
C2373 C 0.88157 0.85118 0.50626 0.0
C2374 C 0.86712 0.84037 0.49935 0.0
C2375 C 0.86249 0.84063 0.48064 0.0
C2376 C 0.88606 0.8509 0.52636 0.0
C2377 C 0.87125 0.85311 0.53896 0.0
C2378 C 0.90456 0.84829 0.53321 0.0
C2379 C 0.9207 0.84488 0.52081 0.0
C2380 C 0.92022 0.83072 0.50829 0.0
C2381 C 0.93548 0.8276 0.49661 0.0
C2382 C 0.95137 0.83848 0.49743 0.0
C2383 C 0.95206 0.85246 0.50996 0.0
C2384 C 0.93682 0.85564 0.52166 0.0
C2385 C 0.88942 0.82991 0.61273 0.0
C2386 C 0.9004 0.84164 0.62332 0.0
C2387 C 0.88734 0.83234 0.59378 0.0
C2388 C 0.89625 0.84648 0.58482 0.0
C2389 C 0.90787 0.85782 0.59508 0.0
C2390 C 0.90987 0.85549 0.61417 0.0
C2391 C 0.89275 0.84954 0.56486 0.0
C2392 C 0.90769 0.84789 0.55236 0.0
C2393 C 0.87434 0.85249 0.55805 0.0
C2394 C 0.8581 0.85505 0.57061 0.0
C2395 C 0.85862 0.86816 0.58431 0.0
C2396 C 0.84339 0.87033 0.59626 0.0
C2397 C 0.8275 0.85955 0.59457 0.0
C2398 C 0.82678 0.8466 0.58089 0.0
C2399 C 0.84199 0.84435 0.56892 0.0
H2400 H 0.81572 0.86126 0.60384 0.0
H2401 H 0.96318 0.83604 0.48838 0.0
H2402 H 0.667 0.17556 0.97424 0.0
H2403 H 0.65999 0.17497 0.0071 0.0
H2404 H 0.60352 0.15724 0.9954 0.0
H2405 H 0.61034 0.15809 0.96235 0.0
H2406 H 0.60297 0.18242 0.02102 0.0
H2407 H 0.63689 0.12869 0.01273 0.0
H2408 H 0.66294 0.10967 1.0023 0.0
H2409 H 0.70159 0.13847 0.03649 0.0
H2410 H 0.67582 0.15783 0.04692 0.0
H2411 H 0.58597 0.16499 0.11692 0.0
H2412 H 0.58975 0.16047 0.08364 0.0
H2413 H 0.64647 0.18059 0.08688 0.0
H2414 H 0.64288 0.18486 0.11998 0.0
H2415 H 0.64462 0.15135 0.06536 0.0
H2416 H 0.61091 0.20646 0.07145 0.0
H2417 H 0.58479 0.22548 0.08172 0.0
H2418 H 0.54548 0.19347 0.05159 0.0
H2419 H 0.57136 0.17411 0.04134 0.0
C2420 C 0.65309 0.17146 0.9786 0.0
C2421 C 0.63926 0.16681 0.96559 0.0
C2422 C 0.64912 0.17105 0.99746 0.0
C2423 C 0.63129 0.16582 1.00383 0.0
C2424 C 0.6174 0.16127 0.99087 0.0
C2425 C 0.62135 0.16171 0.97196 0.0
C2426 C 0.62715 0.16548 0.02397 0.0
C2427 C 0.61188 0.17534 0.03067 0.0
C2428 C 0.63889 0.15647 0.03667 0.0
C2429 C 0.65443 0.1448 0.0305 0.0
C2430 C 0.65097 0.13105 0.01792 0.0
C2431 C 0.66568 0.12019 0.01203 0.0
C2432 C 0.68391 0.12288 0.0187 0.0
C2433 C 0.68746 0.13641 0.03132 0.0
C2434 C 0.6728 0.14731 0.03725 0.0
C2435 C 0.59929 0.16828 0.11055 0.0
C2436 C 0.61406 0.17544 0.1211 0.0
C2437 C 0.60139 0.16581 0.09151 0.0
C2438 C 0.61835 0.17036 0.08269 0.0
C2439 C 0.63325 0.17703 0.09332 0.0
C2440 C 0.63111 0.17961 0.11225 0.0
C2441 C 0.62066 0.16851 0.06239 0.0
C2442 C 0.63559 0.15824 0.05567 0.0
C2443 C 0.60858 0.17709 0.04968 0.0
C2444 C 0.59303 0.18872 0.05582 0.0
C2445 C 0.59667 0.20339 0.06715 0.0
C2446 C 0.58192 0.21425 0.07294 0.0
C2447 C 0.56348 0.21065 0.06736 0.0
C2448 C 0.55976 0.19622 0.05593 0.0
C2449 C 0.57447 0.1853 0.05012 0.0
H2450 H 0.55208 0.21908 0.07185 0.0
H2451 H 0.69528 0.11447 0.01412 0.0
H2452 H 0.43289 0.67768 0.39468 0.0
H2453 H 0.43057 0.67552 0.42837 0.0
H2454 H 0.37156 0.66269 0.42341 0.0
H2455 H 0.37379 0.66543 0.39001 0.0
H2456 H 0.37511 0.68638 0.44809 0.0
H2457 H 0.40739 0.63169 0.43604 0.0
H2458 H 0.43276 0.61287 0.42378 0.0
H2459 H 0.47326 0.64048 0.45697 0.0
H2460 H 0.44815 0.65962 0.46926 0.0
H2461 H 0.35411 0.65715 0.53755 0.0
H2462 H 0.36151 0.65646 0.50476 0.0
H2463 H 0.41643 0.67828 0.51589 0.0
H2464 H 0.40917 0.679 0.54888 0.0
H2465 H 0.41691 0.65129 0.48889 0.0
H2466 H 0.38358 0.70523 0.50149 0.0
H2467 H 0.35756 0.72305 0.51408 0.0
H2468 H 0.3182 0.6955 0.47954 0.0
H2469 H 0.34396 0.67733 0.46695 0.0
C2470 C 0.41953 0.67417 0.40085 0.0
C2471 C 0.40349 0.67185 0.38977 0.0
C2472 C 0.41819 0.6729 0.4201 0.0
C2473 C 0.40087 0.66888 0.42856 0.0
C2474 C 0.38504 0.66597 0.41734 0.0
C2475 C 0.38632 0.66752 0.39823 0.0
C2476 C 0.39876 0.66855 0.44902 0.0
C2477 C 0.38415 0.67849 0.45691 0.0
C2478 C 0.41083 0.65871 0.46076 0.0
C2479 C 0.42593 0.64721 0.45341 0.0
C2480 C 0.42173 0.63384 0.44061 0.0
C2481 C 0.43606 0.62309 0.43368 0.0
C2482 C 0.45462 0.62551 0.43955 0.0
C2483 C 0.45888 0.63864 0.45241 0.0
C2484 C 0.44461 0.64943 0.45937 0.0
C2485 C 0.36786 0.66164 0.53312 0.0
C2486 C 0.38099 0.66826 0.5459 0.0
C2487 C 0.37205 0.66127 0.51432 0.0
C2488 C 0.38944 0.66752 0.50783 0.0
C2489 C 0.40291 0.67342 0.52059 0.0
C2490 C 0.3987 0.67387 0.53944 0.0
C2491 C 0.39303 0.66875 0.48769 0.0
C2492 C 0.40794 0.65913 0.47995 0.0
C2493 C 0.38116 0.67875 0.476 0.0
C2494 C 0.36568 0.68982 0.48339 0.0
C2495 C 0.36936 0.70289 0.49667 0.0
C2496 C 0.35466 0.71306 0.5038 0.0
C2497 C 0.33624 0.71038 0.49764 0.0
C2498 C 0.33248 0.69755 0.48431 0.0
C2499 C 0.34712 0.68732 0.47716 0.0
H2500 H 0.32488 0.71826 0.50318 0.0
H2501 H 0.46569 0.61718 0.43416 0.0
H2502 H 0.16512 0.35084 0.03885 0.0
H2503 H 0.15619 0.35243 1.0065 0.0
H2504 H 0.09806 0.34378 0.02111 0.0
H2505 H 0.10701 0.34165 0.05363 0.0
H2506 H 0.10649 0.32407 0.99289 0.0
H2507 H 0.11474 0.38509 1.00636 0.0
H2508 H 0.13072 0.41163 0.01838 0.0
H2509 H 0.17637 0.40364 0.98063 0.0
H2510 H 0.1608 0.37689 0.96855 0.0
H2511 H 0.07943 0.34063 0.89892 0.0
H2512 H 0.0821 0.34472 0.93242 0.0
H2513 H 0.14259 0.34588 0.9277 0.0
H2514 H 0.13998 0.34185 0.89443 0.0
H2515 H 0.12891 0.37175 0.95134 0.0
H2516 H 0.12149 0.30884 0.94071 0.0
H2517 H 0.10507 0.28245 0.92887 0.0
H2518 H 0.05664 0.29501 0.96162 0.0
H2519 H 0.07269 0.32163 0.97347 0.0
C2520 C 0.15039 0.34942 0.03526 0.0
C2521 C 0.13678 0.34615 0.0489 0.0
C2522 C 0.14528 0.35044 0.01669 0.0
C2523 C 0.12638 0.34851 0.01129 0.0
C2524 C 0.11272 0.34537 0.02489 0.0
C2525 C 0.11786 0.3442 0.0435 0.0
C2526 C 0.12114 0.349 0.99138 0.0
C2527 C 0.11106 0.33471 0.98391 0.0
C2528 C 0.12726 0.36275 0.9795 0.0
C2529 C 0.13665 0.3789 0.98664 0.0
C2530 C 0.12825 0.38892 1.0007 0.0
C2531 C 0.13722 0.40401 0.00751 0.0
C2532 C 0.15456 0.4093 1.00029 0.0
C2533 C 0.16294 0.39952 0.98621 0.0
C2534 C 0.15403 0.38441 0.97936 0.0
C2535 C 0.09325 0.34197 0.90505 0.0
C2536 C 0.10949 0.34076 0.89408 0.0
C2537 C 0.09478 0.34421 0.92417 0.0
C2538 C 0.11257 0.34547 0.93259 0.0
C2539 C 0.12873 0.34491 0.92154 0.0
C2540 C 0.12722 0.34247 0.90254 0.0
C2541 C 0.11459 0.34671 0.95294 0.0
C2542 C 0.12409 0.3613 0.96045 0.0
C2543 C 0.10782 0.33334 0.96487 0.0
C2544 C 0.09819 0.31733 0.95779 0.0
C2545 C 0.10727 0.30606 0.94526 0.0
C2546 C 0.09805 0.29104 0.93857 0.0
C2547 C 0.0798 0.28708 0.94444 0.0
C2548 C 0.07076 0.29811 0.95706 0.0
C2549 C 0.07991 0.31316 0.96377 0.0
H2550 H 0.07268 0.27545 0.93925 0.0
H2551 H 0.16149 0.42099 1.00559 0.0
H2552 H 0.60701 0.86737 0.80462 0.0
H2553 H 0.5732 0.86305 0.80788 0.0
H2554 H 0.56923 0.91144 0.83895 0.0
H2555 H 0.60337 0.9158 0.83578 0.0
H2556 H 0.54686 0.88588 0.85365 0.0
H2557 H 0.5561 0.91056 0.79379 0.0
H2558 H 0.57038 0.9132 0.76298 0.0
H2559 H 0.55046 0.86129 0.74907 0.0
H2560 H 0.53629 0.85822 0.7799 0.0
H2561 H 0.44591 0.88485 0.84346 0.0
H2562 H 0.47907 0.89389 0.84286 0.0
H2563 H 0.49267 0.84776 0.81072 0.0
H2564 H 0.45971 0.83881 0.81101 0.0
H2565 H 0.5095 0.87606 0.79682 0.0
H2566 H 0.50235 0.85066 0.85754 0.0
H2567 H 0.48827 0.84794 0.88844 0.0
H2568 H 0.50408 0.90148 0.90065 0.0
H2569 H 0.51804 0.90458 0.86971 0.0
C2570 C 0.59898 0.87717 0.81207 0.0
C2571 C 0.6079 0.89209 0.81969 0.0
C2572 C 0.5796 0.87467 0.81396 0.0
C2573 C 0.56853 0.88711 0.82331 0.0
C2574 C 0.57744 0.9017 0.83157 0.0
C2575 C 0.59696 0.90417 0.82978 0.0
C2576 C 0.54767 0.88487 0.82404 0.0
C2577 C 0.53863 0.88404 0.84121 0.0
C2578 C 0.53688 0.88226 0.80784 0.0
C2579 C 0.54524 0.88412 0.78921 0.0
C2580 C 0.55486 0.89966 0.7842 0.0
C2581 C 0.56293 0.90124 0.76673 0.0
C2582 C 0.56136 0.88741 0.75409 0.0
C2583 C 0.55168 0.87199 0.75888 0.0
C2584 C 0.5436 0.87033 0.77634 0.0
C2585 C 0.45596 0.87664 0.83624 0.0
C2586 C 0.45008 0.86109 0.82729 0.0
C2587 C 0.47495 0.88179 0.83599 0.0
C2588 C 0.48847 0.87144 0.82687 0.0
C2589 C 0.48256 0.856 0.81783 0.0
C2590 C 0.46365 0.85087 0.81805 0.0
C2591 C 0.50875 0.8766 0.82644 0.0
C2592 C 0.51768 0.87805 0.80927 0.0
C2593 C 0.51937 0.8798 0.84264 0.0
C2594 C 0.51104 0.87792 0.86124 0.0
C2595 C 0.50269 0.8619 0.86676 0.0
C2596 C 0.49476 0.86028 0.88429 0.0
C2597 C 0.49523 0.87455 0.89648 0.0
C2598 C 0.50369 0.89045 0.89118 0.0
C2599 C 0.51162 0.89214 0.87366 0.0
H2600 H 0.48908 0.87327 0.91004 0.0
H2601 H 0.56761 0.88866 0.74057 0.0
H2602 H 0.91302 0.10721 0.34686 0.0
H2603 H 0.94722 0.10886 0.35108 0.0
H2604 H 0.95266 0.13373 0.29786 0.0
H2605 H 0.91891 0.13136 0.29322 0.0
H2606 H 0.97983 0.11139 0.30189 0.0
H2607 H 0.95308 0.15733 0.33996 0.0
H2608 H 0.93296 0.16917 0.36468 0.0
H2609 H 0.96185 0.13695 0.40438 0.0
H2610 H 0.98199 0.12475 0.37983 0.0
H2611 H 0.06312 0.16209 0.3066 0.0
H2612 H 0.03062 0.15162 0.30566 0.0
H2613 H 0.0395 0.12247 0.35599 0.0
H2614 H 0.07225 0.13287 0.35701 0.0
H2615 H 1.00624 0.14256 0.35613 0.0
H2616 H 0.03601 0.09999 0.31735 0.0
H2617 H 0.05634 0.08977 0.29204 0.0
H2618 H 0.02176 0.11733 0.2529 0.0
H2619 H 1.00136 0.12794 0.27801 0.0
C2620 C 0.92151 0.1128 0.33596 0.0
C2621 C 0.91305 0.11936 0.31979 0.0
C2622 C 0.94109 0.1139 0.33846 0.0
C2623 C 0.95259 0.12171 0.32492 0.0
C2624 C 0.94419 0.12773 0.30858 0.0
C2625 C 0.92474 0.12654 0.30603 0.0
C2626 C 0.97329 0.12406 0.32764 0.0
C2627 C 0.98555 0.11829 0.31372 0.0
C2628 C 0.98095 0.13265 0.34329 0.0
C2629 C 0.96887 0.13997 0.35804 0.0
C2630 C 0.95503 0.15267 0.35394 0.0
C2631 C 0.94365 0.15946 0.36792 0.0
C2632 C 0.94608 0.15377 0.38608 0.0
C2633 C 0.95995 0.14131 0.3903 0.0
C2634 C 0.97136 0.13446 0.37637 0.0
C2635 C 0.05825 0.15335 0.31743 0.0
C2636 C 0.07035 0.1483 0.33187 0.0
C2637 C 0.03965 0.14733 0.31684 0.0
C2638 C 0.03263 0.13616 0.33069 0.0
C2639 C 0.04463 0.13105 0.34513 0.0
C2640 C 0.06336 0.13694 0.34564 0.0
C2641 C 0.01261 0.13031 0.33015 0.0
C2642 C 1.00051 0.13541 0.34446 0.0
C2643 C 1.00505 0.12129 0.31476 0.0
C2644 C 0.01723 0.11486 0.2996 0.0
C2645 C 0.03282 0.10398 0.30337 0.0
C2646 C 0.04434 0.0981 0.28905 0.0
C2647 C 0.04037 0.10292 0.27088 0.0
C2648 C 0.02483 0.11361 0.26699 0.0
C2649 C 0.01326 0.11954 0.28125 0.0
H2650 H 0.04931 0.09836 0.25982 0.0
H2651 H 0.93726 0.15905 0.39688 0.0
H2652 H 0.10429 0.60334 0.17052 0.0
H2653 H 0.07055 0.6093 0.16661 0.0
H2654 H 0.0731 0.64752 0.2106 0.0
H2655 H 0.10651 0.64125 0.21477 0.0
H2656 H 0.04413 0.62779 0.21566 0.0
H2657 H 0.06914 0.65876 0.16304 0.0
H2658 H 0.08707 0.66183 0.13415 0.0
H2659 H 0.052 0.62266 0.10852 0.0
H2660 H 0.034 0.61919 0.13734 0.0
H2661 H 0.95934 0.6747 0.20375 0.0
H2662 H 0.99244 0.66614 0.20404 0.0
H2663 H 0.98073 0.62454 0.16515 0.0
H2664 H 0.94742 0.63308 0.16471 0.0
H2665 H 0.01334 0.64329 0.15648 0.0
H2666 H 0.98722 0.61402 0.20918 0.0
H2667 H 0.9692 0.61191 0.23809 0.0
H2668 H 1.00669 0.64908 0.26368 0.0
H2669 H 0.02479 0.6516 0.23483 0.0
C2670 C 0.09764 0.61314 0.17917 0.0
C2671 C 0.10803 0.62175 0.19302 0.0
C2672 C 0.07836 0.61658 0.17694 0.0
C2673 C 0.06917 0.62895 0.18826 0.0
C2674 C 0.07972 0.63782 0.20177 0.0
C2675 C 0.09885 0.63423 0.20416 0.0
C2676 C 0.0485 0.63232 0.18667 0.0
C2677 C 0.03751 0.63138 0.20272 0.0
C2678 C 0.03958 0.63648 0.16974 0.0
C2679 C 0.05036 0.63858 0.1524 0.0
C2680 C 0.06535 0.6507 0.15128 0.0
C2681 C 0.0755 0.65253 0.13492 0.0
C2682 C 0.07071 0.64241 0.11953 0.0
C2683 C 0.05572 0.63047 0.12046 0.0
C2684 C 0.04553 0.62857 0.1368 0.0
C2685 C 0.96373 0.66371 0.19524 0.0
C2686 C 0.95063 0.65452 0.18428 0.0
C2687 C 0.9827 0.6588 0.19546 0.0
C2688 C 0.98907 0.64458 0.18476 0.0
C2689 C 0.97614 0.63554 0.17355 0.0
C2690 C 0.95708 0.64039 0.17338 0.0
C2691 C 0.00922 0.63915 0.18553 0.0
C2692 C 0.02004 0.63962 0.16936 0.0
C2693 C 0.01806 0.63468 0.20237 0.0
C2694 C 0.00727 0.6331 0.21979 0.0
C2695 C 0.99155 0.62184 0.22093 0.0
C2696 C 0.98133 0.62055 0.23732 0.0
C2697 C 0.98678 0.63038 0.2527 0.0
C2698 C 1.00248 0.64148 0.25175 0.0
C2699 C 0.01274 0.64283 0.23539 0.0
H2700 H 0.97885 0.62937 0.26537 0.0
H2701 H 0.07859 0.64384 0.10687 0.0
H2702 H 0.41117 0.39936 0.72552 0.0
H2703 H 0.44475 0.39444 0.72144 0.0
H2704 H 0.43618 0.38674 0.66321 0.0
H2705 H 0.40219 0.39121 0.66734 0.0
H2706 H 0.45872 0.36142 0.67739 0.0
H2707 H 0.45759 0.42417 0.67888 0.0
H2708 H 0.44911 0.45374 0.69042 0.0
H2709 H 0.4779 0.44302 0.74123 0.0
H2710 H 0.48633 0.41328 0.73011 0.0
H2711 H 0.55867 0.35483 0.66778 0.0
H2712 H 0.5265 0.36586 0.66382 0.0
H2713 H 0.52273 0.37534 0.72223 0.0
H2714 H 0.55484 0.36455 0.72628 0.0
H2715 H 0.50694 0.40208 0.70295 0.0
H2716 H 0.50412 0.33804 0.70261 0.0
H2717 H 0.51231 0.30836 0.69116 0.0
H2718 H 0.49079 0.3219 0.63769 0.0
H2719 H 0.48269 0.35176 0.64879 0.0
C2720 C 0.41635 0.39659 0.71183 0.0
C2721 C 0.40391 0.39557 0.69678 0.0
C2722 C 0.43565 0.39397 0.70948 0.0
C2723 C 0.44309 0.39041 0.69199 0.0
C2724 C 0.43078 0.38956 0.67683 0.0
C2725 C 0.41138 0.39223 0.67918 0.0
C2726 C 0.46361 0.38681 0.68992 0.0
C2727 C 0.46929 0.3705 0.68259 0.0
C2728 C 0.47744 0.39851 0.69695 0.0
C2729 C 0.4725 0.41644 0.70369 0.0
C2730 C 0.46201 0.42807 0.69257 0.0
C2731 C 0.45722 0.44487 0.69903 0.0
C2732 C 0.46294 0.45025 0.71656 0.0
C2733 C 0.47348 0.43884 0.72765 0.0
C2734 C 0.47829 0.42202 0.72127 0.0
C2735 C 0.55107 0.35945 0.67976 0.0
C2736 C 0.55933 0.3587 0.69738 0.0
C2737 C 0.53264 0.36567 0.67748 0.0
C2738 C 0.52208 0.37123 0.69276 0.0
C2739 C 0.53056 0.37111 0.71023 0.0
C2740 C 0.54894 0.36488 0.71253 0.0
C2741 C 0.50197 0.37655 0.69083 0.0
C2742 C 0.49638 0.39316 0.69744 0.0
C2743 C 0.48824 0.36516 0.6831 0.0
C2744 C 0.49301 0.34719 0.67647 0.0
C2745 C 0.50127 0.33473 0.68838 0.0
C2746 C 0.50587 0.31787 0.68196 0.0
C2747 C 0.50213 0.31326 0.66369 0.0
C2748 C 0.49372 0.32549 0.65183 0.0
C2749 C 0.48911 0.34239 0.65817 0.0
H2750 H 0.5057 0.3002 0.65875 0.0
H2751 H 0.45922 0.46326 0.72154 0.0
H2752 H 0.85142 0.62851 0.89088 0.0
H2753 H 0.8545 0.59665 0.88518 0.0
H2754 H 0.79456 0.59038 0.89194 0.0
H2755 H 0.79148 0.62187 0.89807 0.0
H2756 H 0.81331 0.56514 0.91017 0.0
H2757 H 0.81561 0.59126 0.84909 0.0
H2758 H 0.82877 0.61077 0.82508 0.0
H2759 H 0.88195 0.58411 0.82912 0.0
H2760 H 0.86916 0.56458 0.85333 0.0
H2761 H 0.78724 0.48553 0.8703 0.0
H2762 H 0.79225 0.51688 0.87612 0.0
H2763 H 0.85174 0.51042 0.86652 0.0
H2764 H 0.8467 0.47873 0.86049 0.0
H2765 H 0.83872 0.54139 0.85163 0.0
H2766 H 0.83568 0.51323 0.91019 0.0
H2767 H 0.82278 0.49352 0.93414 0.0
H2768 H 0.77187 0.52402 0.93549 0.0
H2769 H 0.78434 0.54377 0.91135 0.0
C2770 C 0.83893 0.62031 0.89129 0.0
C2771 C 0.82117 0.62783 0.89482 0.0
C2772 C 0.84069 0.60212 0.88787 0.0
C2773 C 0.82472 0.5911 0.88795 0.0
C2774 C 0.80708 0.59857 0.89175 0.0
C2775 C 0.80532 0.61667 0.8951 0.0
C2776 C 0.8261 0.57177 0.88421 0.0
C2777 C 0.81877 0.55998 0.89732 0.0
C2778 C 0.83386 0.56491 0.86774 0.0
C2779 C 0.8415 0.57661 0.85316 0.0
C2780 C 0.83016 0.58966 0.84496 0.0
C2781 C 0.83753 0.6007 0.8313 0.0
C2782 C 0.8562 0.59872 0.82562 0.0
C2783 C 0.86751 0.58565 0.83356 0.0
C2784 C 0.8602 0.57459 0.84724 0.0
C2785 C 0.80141 0.49072 0.86946 0.0
C2786 C 0.81662 0.47956 0.86524 0.0
C2787 C 0.80427 0.50869 0.87278 0.0
C2788 C 0.82244 0.51598 0.87221 0.0
C2789 C 0.83761 0.50508 0.86718 0.0
C2790 C 0.83472 0.487 0.86371 0.0
C2791 C 0.82531 0.53487 0.87734 0.0
C2792 C 0.83349 0.54654 0.86458 0.0
C2793 C 0.81843 0.54167 0.8942 0.0
C2794 C 0.81092 0.52992 0.90887 0.0
C2795 C 0.82169 0.51567 0.91551 0.0
C2796 C 0.81446 0.5045 0.92913 0.0
C2797 C 0.79651 0.5075 0.93632 0.0
C2798 C 0.78577 0.52171 0.92992 0.0
C2799 C 0.79292 0.53291 0.91628 0.0
H2800 H 0.79093 0.49884 0.94686 0.0
H2801 H 0.86189 0.60728 0.81504 0.0
H2802 H 0.32653 0.89311 0.09489 0.0
H2803 H 0.3287 0.92522 0.0989 0.0
H2804 H 0.32826 0.91832 0.1579 0.0
H2805 H 0.32562 0.88637 0.15387 0.0
H2806 H 0.30543 0.94339 0.14959 0.0
H2807 H 0.36902 0.9303 0.13258 0.0
H2808 H 0.39441 0.91795 0.11339 0.0
H2809 H 0.37704 0.95062 0.06806 0.0
H2810 H 0.35139 0.963 0.0869 0.0
H2811 H 0.32801 0.03264 0.1713 0.0
H2812 H 0.33084 1.00051 0.16798 0.0
H2813 H 0.32516 1.0057 0.1091 0.0
H2814 H 0.32278 0.03774 0.11228 0.0
H2815 H 0.3521 0.98167 0.11805 0.0
H2816 H 0.28779 0.99375 0.13534 0.0
H2817 H 0.26279 1.00613 0.15499 0.0
H2818 H 0.28246 0.97508 0.20066 0.0
H2819 H 0.30774 0.96269 0.18133 0.0
C2820 C 0.32711 0.89847 0.10868 0.0
C2821 C 0.3258 0.88722 0.12405 0.0
C2822 C 0.32839 0.91683 0.11099 0.0
C2823 C 0.3288 0.92429 0.12874 0.0
C2824 C 0.32786 0.91298 0.14407 0.0
C2825 C 0.32633 0.8947 0.14176 0.0
C2826 C 0.32941 0.94385 0.13143 0.0
C2827 C 0.31586 0.95167 0.14291 0.0
C2828 C 0.34273 0.95484 0.12246 0.0
C2829 C 0.35817 0.94745 0.1111 0.0
C2830 C 0.37053 0.93476 0.11848 0.0
C2831 C 0.38498 0.92777 0.10767 0.0
C2832 C 0.38731 0.93347 0.0895 0.0
C2833 C 0.37521 0.9462 0.08212 0.0
C2834 C 0.36072 0.95322 0.09287 0.0
C2835 C 0.32761 0.02697 0.15764 0.0
C2836 C 0.32497 0.03779 0.14208 0.0
C2837 C 0.32909 0.00858 0.15576 0.0
C2838 C 0.32796 1.00065 0.1383 0.0
C2839 C 0.32599 0.01148 0.12272 0.0
C2840 C 0.32445 0.02981 0.12458 0.0
C2841 C 0.32819 0.98106 0.13622 0.0
C2842 C 0.3418 0.97328 0.12481 0.0
C2843 C 0.31502 0.97007 0.14534 0.0
C2844 C 0.29977 0.97744 0.15694 0.0
C2845 C 0.28687 0.98967 0.14961 0.0
C2846 C 0.27264 0.99667 0.16069 0.0
C2847 C 0.27107 0.99143 0.17908 0.0
C2848 C 0.28371 0.97914 0.18642 0.0
C2849 C 0.29798 0.97212 0.17541 0.0
H2850 H 0.26005 0.99686 0.18763 0.0
H2851 H 0.3985 0.92804 0.08116 0.0
H2852 H 0.20971 0.97848 0.61924 0.0
H2853 H 0.20629 0.01026 0.61697 0.0
H2854 H 0.16982 0.01006 0.66438 0.0
H2855 H 0.17228 0.97783 0.66616 0.0
H2856 H 0.15606 0.03152 0.63938 0.0
H2857 H 0.21671 0.02442 0.66655 0.0
H2858 H 0.24895 0.01278 0.66988 0.0
H2859 H 0.26414 0.03554 0.61777 0.0
H2860 H 0.23191 0.04712 0.61401 0.0
H2861 H 0.16443 0.12444 0.6555 0.0
H2862 H 0.1658 0.0922 0.65767 0.0
H2863 H 0.19511 0.09015 0.60576 0.0
H2864 H 0.1938 0.12256 0.60357 0.0
H2865 H 0.21229 0.07012 0.6337 0.0
H2866 H 0.15062 0.07741 0.60742 0.0
H2867 H 0.11845 0.08949 0.60559 0.0
H2868 H 0.10544 0.06688 0.65833 0.0
H2869 H 0.13764 0.05487 0.6606 0.0
C2870 C 0.20076 0.985 0.62914 0.0
C2871 C 0.1912 0.97533 0.64286 0.0
C2872 C 0.19903 1.00335 0.62795 0.0
C2873 C 0.18804 0.0127 0.64067 0.0
C2874 C 0.17846 1.00318 0.65442 0.0
C2875 C 0.18003 0.98471 0.65553 0.0
C2876 C 0.18638 0.03232 0.63929 0.0
C2877 C 0.16838 0.03996 0.63844 0.0
C2878 C 0.20242 0.04341 0.6377 0.0
C2879 C 0.22184 0.0365 0.63993 0.0
C2880 C 0.22689 0.02683 0.65574 0.0
C2881 C 0.24516 0.02026 0.65771 0.0
C2882 C 0.25857 0.02338 0.64402 0.0
C2883 C 0.25374 0.03312 0.62835 0.0
C2884 C 0.23547 0.03971 0.6263 0.0
C2885 C 0.17114 0.11713 0.64453 0.0
C2886 C 0.17909 0.12605 0.62939 0.0
C2887 C 0.1718 0.09869 0.64573 0.0
C2888 C 0.1805 0.08875 0.63185 0.0
C2889 C 0.1883 0.09757 0.61661 0.0
C2890 C 0.18744 0.11605 0.61531 0.0
C2891 C 0.18202 0.06921 0.63367 0.0
C2892 C 0.2 0.06163 0.63465 0.0
C2893 C 0.16599 0.05823 0.63562 0.0
C2894 C 0.1466 0.06539 0.63426 0.0
C2895 C 0.14095 0.07514 0.6187 0.0
C2896 C 0.1227 0.08195 0.61757 0.0
C2897 C 0.10992 0.07899 0.63185 0.0
C2898 C 0.11536 0.06918 0.64728 0.0
C2899 C 0.1336 0.06236 0.64849 0.0
H2900 H 0.09579 0.08427 0.63095 0.0
H2901 H 0.27271 0.01829 0.64558 0.0
H2902 H 0.72356 0.39374 0.40897 0.0
H2903 H 0.7191 0.42511 0.40253 0.0
H2904 H 0.66618 0.41365 0.37595 0.0
H2905 H 0.67071 0.38197 0.38222 0.0
H2906 H 0.68866 0.43763 0.35597 0.0
H2907 H 0.66485 0.43142 0.41695 0.0
H2908 H 0.66506 0.4218 0.4494 0.0
H2909 H 0.71435 0.45323 0.45953 0.0
H2910 H 0.71462 0.46284 0.42706 0.0
H2911 H 0.66941 0.53157 0.35318 0.0
H2912 H 0.66681 0.49943 0.35734 0.0
H2913 H 0.71704 0.49989 0.39078 0.0
H2914 H 0.71964 0.53176 0.38673 0.0
H2915 H 0.69064 0.48103 0.40707 0.0
H2916 H 0.7164 0.48462 0.34554 0.0
H2917 H 0.71682 0.49386 0.31297 0.0
H2918 H 0.66417 0.46732 0.30384 0.0
H2919 H 0.66333 0.45811 0.33644 0.0
C2920 C 0.71102 0.39782 0.40164 0.0
C2921 C 0.69751 0.38531 0.39608 0.0
C2922 C 0.70842 0.41581 0.39809 0.0
C2923 C 0.69224 0.42177 0.38888 0.0
C2924 C 0.67875 0.40935 0.38312 0.0
C2925 C 0.68129 0.39128 0.38683 0.0
C2926 C 0.68966 0.44101 0.38538 0.0
C2927 C 0.68872 0.44713 0.36714 0.0
C2928 C 0.68998 0.45341 0.39994 0.0
C2929 C 0.68983 0.44775 0.41952 0.0
C2930 C 0.67582 0.43618 0.42606 0.0
C2931 C 0.67584 0.43074 0.44446 0.0
C2932 C 0.68973 0.43687 0.45651 0.0
C2933 C 0.7036 0.44849 0.45018 0.0
C2934 C 0.70366 0.45395 0.43178 0.0
C2935 C 0.67999 0.52477 0.36124 0.0
C2936 C 0.69465 0.53429 0.36974 0.0
C2937 C 0.67849 0.50639 0.36364 0.0
C2938 C 0.69174 0.49718 0.37439 0.0
C2939 C 0.70653 0.50667 0.38257 0.0
C2940 C 0.70797 0.52495 0.38027 0.0
C2941 C 0.69024 0.47775 0.37761 0.0
C2942 C 0.69035 0.47156 0.39586 0.0
C2943 C 0.68919 0.46534 0.36305 0.0
C2944 C 0.68969 0.47086 0.34347 0.0
C2945 C 0.70484 0.48089 0.33662 0.0
C2946 C 0.70516 0.48609 0.31815 0.0
C2947 C 0.6905 0.48124 0.30635 0.0
C2948 C 0.6755 0.47111 0.313 0.0
C2949 C 0.67509 0.46588 0.33147 0.0
H2950 H 0.69078 0.48528 0.29205 0.0
H2951 H 0.68971 0.43265 0.47075 0.0
loop_
_geom_bond_atom_site_label_1
_geom_bond_atom_site_label_2
_geom_bond_distance
_geom_bond_site_symmetry_2
_ccdc_geom_bond_type
Cu0 N1 1.999 . S
Cu0 O6 1.974 . S
Cu0 N11 1.985 . S
Cu0 O20 1.959 . S
N1 Cu0 1.999 . S
N1 C3 1.263 . S
N1 C5 1.389 . S
N2 C3 1.358 . S
N2 C4 1.400 . S
C3 N1 1.263 . S
C3 N2 1.358 . S
C3 H9 0.930 . S
C4 N2 1.400 . S
C4 C5 1.351 . S
C4 H21 0.930 . S
C5 N1 1.389 . S
C5 C4 1.351 . S
C5 H10 0.930 . S
O6 Cu0 1.974 . S
O6 C16 1.282 . S
C7 O8 1.261 . S
C7 O20 1.251 . S
O8 C7 1.261 . S
H9 C3 0.930 . S
H10 C5 0.930 . S
N11 Cu0 1.985 . S
N11 C13 1.335 . S
N11 C14 1.390 . S
N12 C13 1.345 . S
N12 C15 1.336 . S
C13 N11 1.335 . S
C13 N12 1.345 . S
C13 H18 0.930 . S
C14 N11 1.390 . S
C14 C15 1.346 . S
C14 H19 0.930 . S
C15 N12 1.336 . S
C15 C14 1.346 . S
C15 H22 0.929 . S
C16 O6 1.282 . S
C16 O17 1.216 . S
O17 C16 1.216 . S
H18 C13 0.930 . S
H19 C14 0.930 . S
O20 Cu0 1.959 . S
O20 C7 1.251 . S
H21 C4 0.930 . S
H22 C15 0.929 . S
Cu23 N24 1.999 . S
Cu23 O29 1.974 . S
Cu23 N34 1.985 . S
Cu23 O43 1.959 . S
N24 Cu23 1.999 . S
N24 C26 1.263 . S
N24 C28 1.389 . S
N25 C26 1.358 . S
N25 C27 1.400 . S
C26 N24 1.263 . S
C26 N25 1.358 . S
C26 H32 0.930 . S
C27 N25 1.400 . S
C27 C28 1.351 . S
C27 H44 0.930 . S
C28 N24 1.389 . S
C28 C27 1.351 . S
C28 H33 0.930 . S
O29 Cu23 1.974 . S
O29 C39 1.282 . S
C30 O31 1.261 . S
C30 O43 1.251 . S
O31 C30 1.261 . S
H32 C26 0.930 . S
H33 C28 0.930 . S
N34 Cu23 1.985 . S
N34 C36 1.335 . S
N34 C37 1.390 . S
N35 C36 1.345 . S
N35 C38 1.336 . S
C36 N34 1.335 . S
C36 N35 1.345 . S
C36 H41 0.930 . S
C37 N34 1.390 . S
C37 C38 1.346 . S
C37 H42 0.930 . S
C38 N35 1.336 . S
C38 C37 1.346 . S
C38 H45 0.929 . S
C39 O29 1.282 . S
C39 O40 1.216 . S
O40 C39 1.216 . S
H41 C36 0.930 . S
H42 C37 0.930 . S
O43 Cu23 1.959 . S
O43 C30 1.251 . S
H44 C27 0.930 . S
H45 C38 0.929 . S
Cu46 N47 1.999 . S
Cu46 O52 1.974 . S
Cu46 N57 1.985 . S
Cu46 O66 1.959 . S
N47 Cu46 1.999 . S
N47 C49 1.263 . S
N47 C51 1.389 . S
N48 C49 1.358 . S
N48 C50 1.400 . S
C49 N47 1.263 . S
C49 N48 1.358 . S
C49 H55 0.930 . S
C50 N48 1.400 . S
C50 C51 1.351 . S
C50 H67 0.930 . S
C51 N47 1.389 . S
C51 C50 1.351 . S
C51 H56 0.930 . S
O52 Cu46 1.974 . S
O52 C62 1.282 . S
C53 O54 1.261 . S
C53 O66 1.251 . S
O54 C53 1.261 . S
H55 C49 0.930 . S
H56 C51 0.930 . S
N57 Cu46 1.985 . S
N57 C59 1.335 . S
N57 C60 1.390 . S
N58 C59 1.345 . S
N58 C61 1.336 . S
C59 N57 1.335 . S
C59 N58 1.345 . S
C59 H64 0.930 . S
C60 N57 1.390 . S
C60 C61 1.346 . S
C60 H65 0.930 . S
C61 N58 1.336 . S
C61 C60 1.346 . S
C61 H68 0.929 . S
C62 O52 1.282 . S
C62 O63 1.216 . S
O63 C62 1.216 . S
H64 C59 0.930 . S
H65 C60 0.930 . S
O66 Cu46 1.959 . S
O66 C53 1.251 . S
H67 C50 0.930 . S
H68 C61 0.929 . S
Cu69 N70 1.999 . S
Cu69 O75 1.974 . S
Cu69 N80 1.985 . S
Cu69 O89 1.959 . S
N70 Cu69 1.999 . S
N70 C72 1.263 . S
N70 C74 1.389 . S
N71 C72 1.358 . S
N71 C73 1.400 . S
C72 N70 1.263 . S
C72 N71 1.358 . S
C72 H78 0.930 . S
C73 N71 1.400 . S
C73 C74 1.351 . S
C73 H90 0.930 . S
C74 N70 1.389 . S
C74 C73 1.351 . S
C74 H79 0.930 . S
O75 Cu69 1.974 . S
O75 C85 1.282 . S
C76 O77 1.261 . S
C76 O89 1.251 . S
O77 C76 1.261 . S
H78 C72 0.930 . S
H79 C74 0.930 . S
N80 Cu69 1.985 . S
N80 C82 1.335 . S
N80 C83 1.390 . S
N81 C82 1.345 . S
N81 C84 1.336 . S
C82 N80 1.335 . S
C82 N81 1.345 . S
C82 H87 0.930 . S
C83 N80 1.390 . S
C83 C84 1.346 . S
C83 H88 0.930 . S
C84 N81 1.336 . S
C84 C83 1.346 . S
C84 H91 0.929 . S
C85 O75 1.282 . S
C85 O86 1.216 . S
O86 C85 1.216 . S
H87 C82 0.930 . S
H88 C83 0.930 . S
O89 Cu69 1.959 . S
O89 C76 1.251 . S
H90 C73 0.930 . S
H91 C84 0.929 . S
Cu92 N93 1.999 . S
Cu92 O98 1.974 . S
Cu92 N103 1.985 . S
Cu92 O112 1.959 . S
N93 Cu92 1.999 . S
N93 C95 1.263 . S
N93 C97 1.389 . S
N94 C95 1.358 . S
N94 C96 1.400 . S
C95 N93 1.263 . S
C95 N94 1.358 . S
C95 H101 0.930 . S
C96 N94 1.400 . S
C96 C97 1.351 . S
C96 H113 0.930 . S
C97 N93 1.389 . S
C97 C96 1.351 . S
C97 H102 0.930 . S
O98 Cu92 1.974 . S
O98 C108 1.282 . S
C99 O100 1.261 . S
C99 O112 1.251 . S
O100 C99 1.261 . S
H101 C95 0.930 . S
H102 C97 0.930 . S
N103 Cu92 1.985 . S
N103 C105 1.335 . S
N103 C106 1.390 . S
N104 C105 1.345 . S
N104 C107 1.336 . S
C105 N103 1.335 . S
C105 N104 1.345 . S
C105 H110 0.930 . S
C106 N103 1.390 . S
C106 C107 1.346 . S
C106 H111 0.930 . S
C107 N104 1.336 . S
C107 C106 1.346 . S
C107 H114 0.929 . S
C108 O98 1.282 . S
C108 O109 1.216 . S
O109 C108 1.216 . S
H110 C105 0.930 . S
H111 C106 0.930 . S
O112 Cu92 1.959 . S
O112 C99 1.251 . S
H113 C96 0.930 . S
H114 C107 0.929 . S
Cu115 N116 1.999 . S
Cu115 O121 1.974 . S
Cu115 N126 1.985 . S
Cu115 O135 1.959 . S
N116 Cu115 1.999 . S
N116 C118 1.263 . S
N116 C120 1.389 . S
N117 C118 1.358 . S
N117 C119 1.400 . S
C118 N116 1.263 . S
C118 N117 1.358 . S
C118 H124 0.930 . S
C119 N117 1.400 . S
C119 C120 1.351 . S
C119 H136 0.930 . S
C120 N116 1.389 . S
C120 C119 1.351 . S
C120 H125 0.930 . S
O121 Cu115 1.974 . S
O121 C131 1.282 . S
C122 O123 1.261 . S
C122 O135 1.251 . S
O123 C122 1.261 . S
H124 C118 0.930 . S
H125 C120 0.930 . S
N126 Cu115 1.985 . S
N126 C128 1.335 . S
N126 C129 1.390 . S
N127 C128 1.345 . S
N127 C130 1.336 . S
C128 N126 1.335 . S
C128 N127 1.345 . S
C128 H133 0.930 . S
C129 N126 1.390 . S
C129 C130 1.346 . S
C129 H134 0.930 . S
C130 N127 1.336 . S
C130 C129 1.346 . S
C130 H137 0.929 . S
C131 O121 1.282 . S
C131 O132 1.216 . S
O132 C131 1.216 . S
H133 C128 0.930 . S
H134 C129 0.930 . S
O135 Cu115 1.959 . S
O135 C122 1.251 . S
H136 C119 0.930 . S
H137 C130 0.929 . S
Cu138 N139 1.999 . S
Cu138 O144 1.974 . S
Cu138 N149 1.985 . S
Cu138 O158 1.959 . S
N139 Cu138 1.999 . S
N139 C141 1.263 . S
N139 C143 1.389 . S
N140 C141 1.358 . S
N140 C142 1.400 . S
C141 N139 1.263 . S
C141 N140 1.358 . S
C141 H147 0.930 . S
C142 N140 1.400 . S
C142 C143 1.351 . S
C142 H159 0.930 . S
C143 N139 1.389 . S
C143 C142 1.351 . S
C143 H148 0.930 . S
O144 Cu138 1.974 . S
O144 C154 1.282 . S
C145 O146 1.261 . S
C145 O158 1.251 . S
O146 C145 1.261 . S
H147 C141 0.930 . S
H148 C143 0.930 . S
N149 Cu138 1.985 . S
N149 C151 1.335 . S
N149 C152 1.390 . S
N150 C151 1.345 . S
N150 C153 1.336 . S
C151 N149 1.335 . S
C151 N150 1.345 . S
C151 H156 0.930 . S
C152 N149 1.390 . S
C152 C153 1.346 . S
C152 H157 0.930 . S
C153 N150 1.336 . S
C153 C152 1.346 . S
C153 H160 0.929 . S
C154 O144 1.282 . S
C154 O155 1.216 . S
O155 C154 1.216 . S
H156 C151 0.930 . S
H157 C152 0.930 . S
O158 Cu138 1.959 . S
O158 C145 1.251 . S
H159 C142 0.930 . S
H160 C153 0.929 . S
Cu161 N162 1.999 . S
Cu161 O167 1.974 . S
Cu161 N172 1.985 . S
Cu161 O181 1.959 . S
N162 Cu161 1.999 . S
N162 C164 1.263 . S
N162 C166 1.389 . S
N163 C164 1.358 . S
N163 C165 1.400 . S
C164 N162 1.263 . S
C164 N163 1.358 . S
C164 H170 0.930 . S
C165 N163 1.400 . S
C165 C166 1.351 . S
C165 H182 0.930 . S
C166 N162 1.389 . S
C166 C165 1.351 . S
C166 H171 0.930 . S
O167 Cu161 1.974 . S
O167 C177 1.282 . S
C168 O169 1.261 . S
C168 O181 1.251 . S
O169 C168 1.261 . S
H170 C164 0.930 . S
H171 C166 0.930 . S
N172 Cu161 1.985 . S
N172 C174 1.335 . S
N172 C175 1.390 . S
N173 C174 1.345 . S
N173 C176 1.336 . S
C174 N172 1.335 . S
C174 N173 1.345 . S
C174 H179 0.930 . S
C175 N172 1.390 . S
C175 C176 1.346 . S
C175 H180 0.930 . S
C176 N173 1.336 . S
C176 C175 1.346 . S
C176 H183 0.929 . S
C177 O167 1.282 . S
C177 O178 1.216 . S
O178 C177 1.216 . S
H179 C174 0.930 . S
H180 C175 0.930 . S
O181 Cu161 1.959 . S
O181 C168 1.251 . S
H182 C165 0.930 . S
H183 C176 0.929 . S
Cu184 N185 1.999 . S
Cu184 O190 1.974 . S
Cu184 N195 1.985 . S
Cu184 O204 1.959 . S
N185 Cu184 1.999 . S
N185 C187 1.263 . S
N185 C189 1.389 . S
N186 C187 1.358 . S
N186 C188 1.400 . S
C187 N185 1.263 . S
C187 N186 1.358 . S
C187 H193 0.930 . S
C188 N186 1.400 . S
C188 C189 1.351 . S
C188 H205 0.930 . S
C189 N185 1.389 . S
C189 C188 1.351 . S
C189 H194 0.930 . S
O190 Cu184 1.974 . S
O190 C200 1.282 . S
C191 O192 1.261 . S
C191 O204 1.251 . S
O192 C191 1.261 . S
H193 C187 0.930 . S
H194 C189 0.930 . S
N195 Cu184 1.985 . S
N195 C197 1.335 . S
N195 C198 1.390 . S
N196 C197 1.345 . S
N196 C199 1.336 . S
C197 N195 1.335 . S
C197 N196 1.345 . S
C197 H202 0.930 . S
C198 N195 1.390 . S
C198 C199 1.346 . S
C198 H203 0.930 . S
C199 N196 1.336 . S
C199 C198 1.346 . S
C199 H206 0.929 . S
C200 O190 1.282 . S
C200 O201 1.216 . S
O201 C200 1.216 . S
H202 C197 0.930 . S
H203 C198 0.930 . S
O204 Cu184 1.959 . S
O204 C191 1.251 . S
H205 C188 0.930 . S
H206 C199 0.929 . S
Cu207 N208 1.999 . S
Cu207 O213 1.974 . S
Cu207 N218 1.985 . S
Cu207 O227 1.959 . S
N208 Cu207 1.999 . S
N208 C210 1.263 . S
N208 C212 1.389 . S
N209 C210 1.358 . S
N209 C211 1.400 . S
C210 N208 1.263 . S
C210 N209 1.358 . S
C210 H216 0.930 . S
C211 N209 1.400 . S
C211 C212 1.351 . S
C211 H228 0.930 . S
C212 N208 1.389 . S
C212 C211 1.351 . S
C212 H217 0.930 . S
O213 Cu207 1.974 . S
O213 C223 1.282 . S
C214 O215 1.261 . S
C214 O227 1.251 . S
O215 C214 1.261 . S
H216 C210 0.930 . S
H217 C212 0.930 . S
N218 Cu207 1.985 . S
N218 C220 1.335 . S
N218 C221 1.390 . S
N219 C220 1.345 . S
N219 C222 1.336 . S
C220 N218 1.335 . S
C220 N219 1.345 . S
C220 H225 0.930 . S
C221 N218 1.390 . S
C221 C222 1.346 . S
C221 H226 0.930 . S
C222 N219 1.336 . S
C222 C221 1.346 . S
C222 H229 0.929 . S
C223 O213 1.282 . S
C223 O224 1.216 . S
O224 C223 1.216 . S
H225 C220 0.930 . S
H226 C221 0.930 . S
O227 Cu207 1.959 . S
O227 C214 1.251 . S
H228 C211 0.930 . S
H229 C222 0.929 . S
Cu230 N231 1.999 . S
Cu230 O236 1.974 . S
Cu230 N241 1.985 . S
Cu230 O250 1.959 . S
N231 Cu230 1.999 . S
N231 C233 1.263 . S
N231 C235 1.389 . S
N232 C233 1.358 . S
N232 C234 1.400 . S
C233 N231 1.263 . S
C233 N232 1.358 . S
C233 H239 0.930 . S
C234 N232 1.400 . S
C234 C235 1.351 . S
C234 H251 0.930 . S
C235 N231 1.389 . S
C235 C234 1.351 . S
C235 H240 0.930 . S
O236 Cu230 1.974 . S
O236 C246 1.282 . S
C237 O238 1.261 . S
C237 O250 1.251 . S
O238 C237 1.261 . S
H239 C233 0.930 . S
H240 C235 0.930 . S
N241 Cu230 1.985 . S
N241 C243 1.335 . S
N241 C244 1.390 . S
N242 C243 1.345 . S
N242 C245 1.336 . S
C243 N241 1.335 . S
C243 N242 1.345 . S
C243 H248 0.930 . S
C244 N241 1.390 . S
C244 C245 1.346 . S
C244 H249 0.930 . S
C245 N242 1.336 . S
C245 C244 1.346 . S
C245 H252 0.929 . S
C246 O236 1.282 . S
C246 O247 1.216 . S
O247 C246 1.216 . S
H248 C243 0.930 . S
H249 C244 0.930 . S
O250 Cu230 1.959 . S
O250 C237 1.251 . S
H251 C234 0.930 . S
H252 C245 0.929 . S
Cu253 N254 1.999 . S
Cu253 O259 1.974 . S
Cu253 N264 1.985 . S
Cu253 O273 1.959 . S
N254 Cu253 1.999 . S
N254 C256 1.263 . S
N254 C258 1.389 . S
N255 C256 1.358 . S
N255 C257 1.400 . S
C256 N254 1.263 . S
C256 N255 1.358 . S
C256 H262 0.930 . S
C257 N255 1.400 . S
C257 C258 1.351 . S
C257 H274 0.930 . S
C258 N254 1.389 . S
C258 C257 1.351 . S
C258 H263 0.930 . S
O259 Cu253 1.974 . S
O259 C269 1.282 . S
C260 O261 1.261 . S
C260 O273 1.251 . S
O261 C260 1.261 . S
H262 C256 0.930 . S
H263 C258 0.930 . S
N264 Cu253 1.985 . S
N264 C266 1.335 . S
N264 C267 1.390 . S
N265 C266 1.345 . S
N265 C268 1.336 . S
C266 N264 1.335 . S
C266 N265 1.345 . S
C266 H271 0.930 . S
C267 N264 1.390 . S
C267 C268 1.346 . S
C267 H272 0.930 . S
C268 N265 1.336 . S
C268 C267 1.346 . S
C268 H275 0.929 . S
C269 O259 1.282 . S
C269 O270 1.216 . S
O270 C269 1.216 . S
H271 C266 0.930 . S
H272 C267 0.930 . S
O273 Cu253 1.959 . S
O273 C260 1.251 . S
H274 C257 0.930 . S
H275 C268 0.929 . S
Cu276 N277 1.999 . S
Cu276 O282 1.974 . S
Cu276 N287 1.985 . S
Cu276 O296 1.959 . S
N277 Cu276 1.999 . S
N277 C279 1.263 . S
N277 C281 1.389 . S
N278 C279 1.358 . S
N278 C280 1.400 . S
C279 N277 1.263 . S
C279 N278 1.358 . S
C279 H285 0.930 . S
C280 N278 1.400 . S
C280 C281 1.351 . S
C280 H297 0.930 . S
C281 N277 1.389 . S
C281 C280 1.351 . S
C281 H286 0.930 . S
O282 Cu276 1.974 . S
O282 C292 1.282 . S
C283 O284 1.261 . S
C283 O296 1.251 . S
O284 C283 1.261 . S
H285 C279 0.930 . S
H286 C281 0.930 . S
N287 Cu276 1.985 . S
N287 C289 1.335 . S
N287 C290 1.390 . S
N288 C289 1.345 . S
N288 C291 1.336 . S
C289 N287 1.335 . S
C289 N288 1.345 . S
C289 H294 0.930 . S
C290 N287 1.390 . S
C290 C291 1.346 . S
C290 H295 0.930 . S
C291 N288 1.336 . S
C291 C290 1.346 . S
C291 H298 0.929 . S
C292 O282 1.282 . S
C292 O293 1.216 . S
O293 C292 1.216 . S
H294 C289 0.930 . S
H295 C290 0.930 . S
O296 Cu276 1.959 . S
O296 C283 1.251 . S
H297 C280 0.930 . S
H298 C291 0.929 . S
Cu299 N300 1.999 . S
Cu299 O305 1.974 . S
Cu299 N310 1.985 . S
Cu299 O319 1.959 . S
N300 Cu299 1.999 . S
N300 C302 1.263 . S
N300 C304 1.389 . S
N301 C302 1.358 . S
N301 C303 1.400 . S
C302 N300 1.263 . S
C302 N301 1.358 . S
C302 H308 0.930 . S
C303 N301 1.400 . S
C303 C304 1.351 . S
C303 H320 0.930 . S
C304 N300 1.389 . S
C304 C303 1.351 . S
C304 H309 0.930 . S
O305 Cu299 1.974 . S
O305 C315 1.282 . S
C306 O307 1.261 . S
C306 O319 1.251 . S
O307 C306 1.261 . S
H308 C302 0.930 . S
H309 C304 0.930 . S
N310 Cu299 1.985 . S
N310 C312 1.335 . S
N310 C313 1.390 . S
N311 C312 1.345 . S
N311 C314 1.336 . S
C312 N310 1.335 . S
C312 N311 1.345 . S
C312 H317 0.930 . S
C313 N310 1.390 . S
C313 C314 1.346 . S
C313 H318 0.930 . S
C314 N311 1.336 . S
C314 C313 1.346 . S
C314 H321 0.929 . S
C315 O305 1.282 . S
C315 O316 1.216 . S
O316 C315 1.216 . S
H317 C312 0.930 . S
H318 C313 0.930 . S
O319 Cu299 1.959 . S
O319 C306 1.251 . S
H320 C303 0.930 . S
H321 C314 0.929 . S
Cu322 N323 1.999 . S
Cu322 O328 1.974 . S
Cu322 N333 1.985 . S
Cu322 O342 1.959 . S
N323 Cu322 1.999 . S
N323 C325 1.263 . S
N323 C327 1.389 . S
N324 C325 1.358 . S
N324 C326 1.400 . S
C325 N323 1.263 . S
C325 N324 1.358 . S
C325 H331 0.930 . S
C326 N324 1.400 . S
C326 C327 1.351 . S
C326 H343 0.930 . S
C327 N323 1.389 . S
C327 C326 1.351 . S
C327 H332 0.930 . S
O328 Cu322 1.974 . S
O328 C338 1.282 . S
C329 O330 1.261 . S
C329 O342 1.251 . S
O330 C329 1.261 . S
H331 C325 0.930 . S
H332 C327 0.930 . S
N333 Cu322 1.985 . S
N333 C335 1.335 . S
N333 C336 1.390 . S
N334 C335 1.345 . S
N334 C337 1.336 . S
C335 N333 1.335 . S
C335 N334 1.345 . S
C335 H340 0.930 . S
C336 N333 1.390 . S
C336 C337 1.346 . S
C336 H341 0.930 . S
C337 N334 1.336 . S
C337 C336 1.346 . S
C337 H344 0.929 . S
C338 O328 1.282 . S
C338 O339 1.216 . S
O339 C338 1.216 . S
H340 C335 0.930 . S
H341 C336 0.930 . S
O342 Cu322 1.959 . S
O342 C329 1.251 . S
H343 C326 0.930 . S
H344 C337 0.929 . S
Cu345 N346 1.999 . S
Cu345 O351 1.974 . S
Cu345 N356 1.985 . S
Cu345 O365 1.959 . S
N346 Cu345 1.999 . S
N346 C348 1.263 . S
N346 C350 1.389 . S
N347 C348 1.358 . S
N347 C349 1.400 . S
C348 N346 1.263 . S
C348 N347 1.358 . S
C348 H354 0.930 . S
C349 N347 1.400 . S
C349 C350 1.351 . S
C349 H366 0.930 . S
C350 N346 1.389 . S
C350 C349 1.351 . S
C350 H355 0.930 . S
O351 Cu345 1.974 . S
O351 C361 1.282 . S
C352 O353 1.261 . S
C352 O365 1.251 . S
O353 C352 1.261 . S
H354 C348 0.930 . S
H355 C350 0.930 . S
N356 Cu345 1.985 . S
N356 C358 1.335 . S
N356 C359 1.390 . S
N357 C358 1.345 . S
N357 C360 1.336 . S
C358 N356 1.335 . S
C358 N357 1.345 . S
C358 H363 0.930 . S
C359 N356 1.390 . S
C359 C360 1.346 . S
C359 H364 0.930 . S
C360 N357 1.336 . S
C360 C359 1.346 . S
C360 H367 0.929 . S
C361 O351 1.282 . S
C361 O362 1.216 . S
O362 C361 1.216 . S
H363 C358 0.930 . S
H364 C359 0.930 . S
O365 Cu345 1.959 . S
O365 C352 1.251 . S
H366 C349 0.930 . S
H367 C360 0.929 . S
Cu368 N369 1.999 . S
Cu368 O374 1.974 . S
Cu368 N379 1.985 . S
Cu368 O388 1.959 . S
N369 Cu368 1.999 . S
N369 C371 1.263 . S
N369 C373 1.389 . S
N370 C371 1.358 . S
N370 C372 1.400 . S
C371 N369 1.263 . S
C371 N370 1.358 . S
C371 H377 0.930 . S
C372 N370 1.400 . S
C372 C373 1.351 . S
C372 H389 0.930 . S
C373 N369 1.389 . S
C373 C372 1.351 . S
C373 H378 0.930 . S
O374 Cu368 1.974 . S
O374 C384 1.282 . S
C375 O376 1.261 . S
C375 O388 1.251 . S
O376 C375 1.261 . S
H377 C371 0.930 . S
H378 C373 0.930 . S
N379 Cu368 1.985 . S
N379 C381 1.335 . S
N379 C382 1.390 . S
N380 C381 1.345 . S
N380 C383 1.336 . S
C381 N379 1.335 . S
C381 N380 1.345 . S
C381 H386 0.930 . S
C382 N379 1.390 . S
C382 C383 1.346 . S
C382 H387 0.930 . S
C383 N380 1.336 . S
C383 C382 1.346 . S
C383 H390 0.929 . S
C384 O374 1.282 . S
C384 O385 1.216 . S
O385 C384 1.216 . S
H386 C381 0.930 . S
H387 C382 0.930 . S
O388 Cu368 1.959 . S
O388 C375 1.251 . S
H389 C372 0.930 . S
H390 C383 0.929 . S
Cu391 N392 1.999 . S
Cu391 O397 1.974 . S
Cu391 N402 1.985 . S
Cu391 O411 1.959 . S
N392 Cu391 1.999 . S
N392 C394 1.263 . S
N392 C396 1.389 . S
N393 C394 1.358 . S
N393 C395 1.400 . S
C394 N392 1.263 . S
C394 N393 1.358 . S
C394 H400 0.930 . S
C395 N393 1.400 . S
C395 C396 1.351 . S
C395 H412 0.930 . S
C396 N392 1.389 . S
C396 C395 1.351 . S
C396 H401 0.930 . S
O397 Cu391 1.974 . S
O397 C407 1.282 . S
C398 O399 1.261 . S
C398 O411 1.251 . S
O399 C398 1.261 . S
H400 C394 0.930 . S
H401 C396 0.930 . S
N402 Cu391 1.985 . S
N402 C404 1.335 . S
N402 C405 1.390 . S
N403 C404 1.345 . S
N403 C406 1.336 . S
C404 N402 1.335 . S
C404 N403 1.345 . S
C404 H409 0.930 . S
C405 N402 1.390 . S
C405 C406 1.346 . S
C405 H410 0.930 . S
C406 N403 1.336 . S
C406 C405 1.346 . S
C406 H413 0.929 . S
C407 O397 1.282 . S
C407 O408 1.216 . S
O408 C407 1.216 . S
H409 C404 0.930 . S
H410 C405 0.930 . S
O411 Cu391 1.959 . S
O411 C398 1.251 . S
H412 C395 0.930 . S
H413 C406 0.929 . S
Cu414 N415 1.999 . S
Cu414 O420 1.974 . S
Cu414 N425 1.985 . S
Cu414 O434 1.959 . S
N415 Cu414 1.999 . S
N415 C417 1.263 . S
N415 C419 1.389 . S
N416 C417 1.358 . S
N416 C418 1.400 . S
C417 N415 1.263 . S
C417 N416 1.358 . S
C417 H423 0.930 . S
C418 N416 1.400 . S
C418 C419 1.351 . S
C418 H435 0.930 . S
C419 N415 1.389 . S
C419 C418 1.351 . S
C419 H424 0.930 . S
O420 Cu414 1.974 . S
O420 C430 1.282 . S
C421 O422 1.261 . S
C421 O434 1.251 . S
O422 C421 1.261 . S
H423 C417 0.930 . S
H424 C419 0.930 . S
N425 Cu414 1.985 . S
N425 C427 1.335 . S
N425 C428 1.390 . S
N426 C427 1.345 . S
N426 C429 1.336 . S
C427 N425 1.335 . S
C427 N426 1.345 . S
C427 H432 0.930 . S
C428 N425 1.390 . S
C428 C429 1.346 . S
C428 H433 0.930 . S
C429 N426 1.336 . S
C429 C428 1.346 . S
C429 H436 0.929 . S
C430 O420 1.282 . S
C430 O431 1.216 . S
O431 C430 1.216 . S
H432 C427 0.930 . S
H433 C428 0.930 . S
O434 Cu414 1.959 . S
O434 C421 1.251 . S
H435 C418 0.930 . S
H436 C429 0.929 . S
Cu437 N438 1.999 . S
Cu437 O443 1.974 . S
Cu437 N448 1.985 . S
Cu437 O457 1.959 . S
N438 Cu437 1.999 . S
N438 C440 1.263 . S
N438 C442 1.389 . S
N439 C440 1.358 . S
N439 C441 1.400 . S
C440 N438 1.263 . S
C440 N439 1.358 . S
C440 H446 0.930 . S
C441 N439 1.400 . S
C441 C442 1.351 . S
C441 H458 0.930 . S
C442 N438 1.389 . S
C442 C441 1.351 . S
C442 H447 0.930 . S
O443 Cu437 1.974 . S
O443 C453 1.282 . S
C444 O445 1.261 . S
C444 O457 1.251 . S
O445 C444 1.261 . S
H446 C440 0.930 . S
H447 C442 0.930 . S
N448 Cu437 1.985 . S
N448 C450 1.335 . S
N448 C451 1.390 . S
N449 C450 1.345 . S
N449 C452 1.336 . S
C450 N448 1.335 . S
C450 N449 1.345 . S
C450 H455 0.930 . S
C451 N448 1.390 . S
C451 C452 1.346 . S
C451 H456 0.930 . S
C452 N449 1.336 . S
C452 C451 1.346 . S
C452 H459 0.929 . S
C453 O443 1.282 . S
C453 O454 1.216 . S
O454 C453 1.216 . S
H455 C450 0.930 . S
H456 C451 0.930 . S
O457 Cu437 1.959 . S
O457 C444 1.251 . S
H458 C441 0.930 . S
H459 C452 0.929 . S
Cu460 N461 1.999 . S
Cu460 O466 1.974 . S
Cu460 N471 1.985 . S
Cu460 O480 1.959 . S
N461 Cu460 1.999 . S
N461 C463 1.263 . S
N461 C465 1.389 . S
N462 C463 1.358 . S
N462 C464 1.400 . S
C463 N461 1.263 . S
C463 N462 1.358 . S
C463 H469 0.930 . S
C464 N462 1.400 . S
C464 C465 1.351 . S
C464 H481 0.930 . S
C465 N461 1.389 . S
C465 C464 1.351 . S
C465 H470 0.930 . S
O466 Cu460 1.974 . S
O466 C476 1.282 . S
C467 O468 1.261 . S
C467 O480 1.251 . S
O468 C467 1.261 . S
H469 C463 0.930 . S
H470 C465 0.930 . S
N471 Cu460 1.985 . S
N471 C473 1.335 . S
N471 C474 1.390 . S
N472 C473 1.345 . S
N472 C475 1.336 . S
C473 N471 1.335 . S
C473 N472 1.345 . S
C473 H478 0.930 . S
C474 N471 1.390 . S
C474 C475 1.346 . S
C474 H479 0.930 . S
C475 N472 1.336 . S
C475 C474 1.346 . S
C475 H482 0.929 . S
C476 O466 1.282 . S
C476 O477 1.216 . S
O477 C476 1.216 . S
H478 C473 0.930 . S
H479 C474 0.930 . S
O480 Cu460 1.959 . S
O480 C467 1.251 . S
H481 C464 0.930 . S
H482 C475 0.929 . S
Cu483 N484 1.999 . S
Cu483 O489 1.974 . S
Cu483 N494 1.985 . S
Cu483 O503 1.959 . S
N484 Cu483 1.999 . S
N484 C486 1.263 . S
N484 C488 1.389 . S
N485 C486 1.358 . S
N485 C487 1.400 . S
C486 N484 1.263 . S
C486 N485 1.358 . S
C486 H492 0.930 . S
C487 N485 1.400 . S
C487 C488 1.351 . S
C487 H504 0.930 . S
C488 N484 1.389 . S
C488 C487 1.351 . S
C488 H493 0.930 . S
O489 Cu483 1.974 . S
O489 C499 1.282 . S
C490 O491 1.261 . S
C490 O503 1.251 . S
O491 C490 1.261 . S
H492 C486 0.930 . S
H493 C488 0.930 . S
N494 Cu483 1.985 . S
N494 C496 1.335 . S
N494 C497 1.390 . S
N495 C496 1.345 . S
N495 C498 1.336 . S
C496 N494 1.335 . S
C496 N495 1.345 . S
C496 H501 0.930 . S
C497 N494 1.390 . S
C497 C498 1.346 . S
C497 H502 0.930 . S
C498 N495 1.336 . S
C498 C497 1.346 . S
C498 H505 0.929 . S
C499 O489 1.282 . S
C499 O500 1.216 . S
O500 C499 1.216 . S
H501 C496 0.930 . S
H502 C497 0.930 . S
O503 Cu483 1.959 . S
O503 C490 1.251 . S
H504 C487 0.930 . S
H505 C498 0.929 . S
Cu506 N507 1.999 . S
Cu506 O512 1.974 . S
Cu506 N517 1.985 . S
Cu506 O526 1.959 . S
N507 Cu506 1.999 . S
N507 C509 1.263 . S
N507 C511 1.389 . S
N508 C509 1.358 . S
N508 C510 1.400 . S
C509 N507 1.263 . S
C509 N508 1.358 . S
C509 H515 0.930 . S
C510 N508 1.400 . S
C510 C511 1.351 . S
C510 H527 0.930 . S
C511 N507 1.389 . S
C511 C510 1.351 . S
C511 H516 0.930 . S
O512 Cu506 1.974 . S
O512 C522 1.282 . S
C513 O514 1.261 . S
C513 O526 1.251 . S
O514 C513 1.261 . S
H515 C509 0.930 . S
H516 C511 0.930 . S
N517 Cu506 1.985 . S
N517 C519 1.335 . S
N517 C520 1.390 . S
N518 C519 1.345 . S
N518 C521 1.336 . S
C519 N517 1.335 . S
C519 N518 1.345 . S
C519 H524 0.930 . S
C520 N517 1.390 . S
C520 C521 1.346 . S
C520 H525 0.930 . S
C521 N518 1.336 . S
C521 C520 1.346 . S
C521 H528 0.929 . S
C522 O512 1.282 . S
C522 O523 1.216 . S
O523 C522 1.216 . S
H524 C519 0.930 . S
H525 C520 0.930 . S
O526 Cu506 1.959 . S
O526 C513 1.251 . S
H527 C510 0.930 . S
H528 C521 0.929 . S
Cu529 N530 1.999 . S
Cu529 O535 1.974 . S
Cu529 N540 1.985 . S
Cu529 O549 1.959 . S
N530 Cu529 1.999 . S
N530 C532 1.263 . S
N530 C534 1.389 . S
N531 C532 1.358 . S
N531 C533 1.400 . S
C532 N530 1.263 . S
C532 N531 1.358 . S
C532 H538 0.930 . S
C533 N531 1.400 . S
C533 C534 1.351 . S
C533 H550 0.930 . S
C534 N530 1.389 . S
C534 C533 1.351 . S
C534 H539 0.930 . S
O535 Cu529 1.974 . S
O535 C545 1.282 . S
C536 O537 1.261 . S
C536 O549 1.251 . S
O537 C536 1.261 . S
H538 C532 0.930 . S
H539 C534 0.930 . S
N540 Cu529 1.985 . S
N540 C542 1.335 . S
N540 C543 1.390 . S
N541 C542 1.345 . S
N541 C544 1.336 . S
C542 N540 1.335 . S
C542 N541 1.345 . S
C542 H547 0.930 . S
C543 N540 1.390 . S
C543 C544 1.346 . S
C543 H548 0.930 . S
C544 N541 1.336 . S
C544 C543 1.346 . S
C544 H551 0.929 . S
C545 O535 1.282 . S
C545 O546 1.216 . S
O546 C545 1.216 . S
H547 C542 0.930 . S
H548 C543 0.930 . S
O549 Cu529 1.959 . S
O549 C536 1.251 . S
H550 C533 0.930 . S
H551 C544 0.929 . S
H552 C570 0.951 . S
H553 C572 0.951 . S
H554 C574 0.950 . S
H555 C575 0.950 . S
H556 C577 0.950 . S
H557 C580 0.950 . S
H558 C581 0.950 . S
H559 C583 0.950 . S
H560 C584 0.950 . S
H561 C585 0.951 . S
H562 C587 0.951 . S
H563 C589 0.950 . S
H564 C590 0.950 . S
H565 C592 0.950 . S
H566 C595 0.950 . S
H567 C596 0.950 . S
H568 C598 0.950 . S
H569 C599 0.950 . S
C570 H552 0.951 . S
C570 C571 1.366 . S
C570 C572 1.388 . S
C571 C570 1.366 . S
C571 C575 1.385 . S
C572 H553 0.951 . S
C572 C570 1.388 . S
C572 C573 1.366 . S
C573 C572 1.366 . S
C573 C574 1.414 . S
C573 C576 1.499 . S
C574 H554 0.950 . S
C574 C573 1.414 . S
C574 C575 1.374 . S
C575 H555 0.950 . S
C575 C571 1.385 . S
C575 C574 1.374 . S
C576 C573 1.499 . S
C576 C577 1.373 . S
C576 C578 1.389 . S
C577 H556 0.950 . S
C577 C576 1.373 . S
C577 C593 1.377 . S
C578 C576 1.389 . S
C578 C579 1.524 . S
C578 C592 1.377 . S
C579 C578 1.524 . S
C579 C580 1.397 . S
C579 C584 1.363 . S
C580 H557 0.950 . S
C580 C579 1.397 . S
C580 C581 1.334 . S
C581 H558 0.950 . S
C581 C580 1.334 . S
C581 C582 1.287 . S
C582 C581 1.287 . S
C582 C583 1.524 . S
C582 H601 0.913 . S
C583 H559 0.950 . S
C583 C582 1.524 . S
C583 C584 1.415 . S
C584 H560 0.950 . S
C584 C579 1.363 . S
C584 C583 1.415 . S
C585 H561 0.951 . S
C585 C586 1.366 . S
C585 C587 1.388 . S
C586 C585 1.366 . S
C586 C590 1.385 . S
C587 H562 0.951 . S
C587 C585 1.388 . S
C587 C588 1.366 . S
C588 C587 1.366 . S
C588 C589 1.414 . S
C588 C591 1.499 . S
C589 H563 0.950 . S
C589 C588 1.414 . S
C589 C590 1.374 . S
C590 H564 0.950 . S
C590 C586 1.385 . S
C590 C589 1.374 . S
C591 C588 1.499 . S
C591 C592 1.373 . S
C591 C593 1.389 . S
C592 H565 0.950 . S
C592 C578 1.377 . S
C592 C591 1.373 . S
C593 C577 1.377 . S
C593 C591 1.389 . S
C593 C594 1.524 . S
C594 C593 1.524 . S
C594 C595 1.397 . S
C594 C599 1.363 . S
C595 H566 0.950 . S
C595 C594 1.397 . S
C595 C596 1.334 . S
C596 H567 0.950 . S
C596 C595 1.334 . S
C596 C597 1.287 . S
C597 C596 1.287 . S
C597 C598 1.524 . S
C597 H600 0.999 . S
C598 H568 0.950 . S
C598 C597 1.524 . S
C598 C599 1.415 . S
C599 H569 0.950 . S
C599 C594 1.363 . S
C599 C598 1.415 . S
H600 C597 0.999 . S
H601 C582 0.913 . S
H602 C620 0.951 . S
H603 C622 0.951 . S
H604 C624 0.950 . S
H605 C625 0.950 . S
H606 C627 0.950 . S
H607 C630 0.950 . S
H608 C631 0.950 . S
H609 C633 0.950 . S
H610 C634 0.950 . S
H611 C635 0.951 . S
H612 C637 0.951 . S
H613 C639 0.950 . S
H614 C640 0.950 . S
H615 C642 0.950 . S
H616 C645 0.950 . S
H617 C646 0.950 . S
H618 C648 0.950 . S
H619 C649 0.950 . S
C620 H602 0.951 . S
C620 C621 1.366 . S
C620 C622 1.388 . S
C621 C620 1.366 . S
C621 C625 1.385 . S
C622 H603 0.951 . S
C622 C620 1.388 . S
C622 C623 1.366 . S
C623 C622 1.366 . S
C623 C624 1.414 . S
C623 C626 1.499 . S
C624 H604 0.950 . S
C624 C623 1.414 . S
C624 C625 1.374 . S
C625 H605 0.950 . S
C625 C621 1.385 . S
C625 C624 1.374 . S
C626 C623 1.499 . S
C626 C627 1.373 . S
C626 C628 1.389 . S
C627 H606 0.950 . S
C627 C626 1.373 . S
C627 C643 1.377 . S
C628 C626 1.389 . S
C628 C629 1.524 . S
C628 C642 1.377 . S
C629 C628 1.524 . S
C629 C630 1.397 . S
C629 C634 1.363 . S
C630 H607 0.950 . S
C630 C629 1.397 . S
C630 C631 1.334 . S
C631 H608 0.950 . S
C631 C630 1.334 . S
C631 C632 1.287 . S
C632 C631 1.287 . S
C632 C633 1.524 . S
C632 H651 0.913 . S
C633 H609 0.950 . S
C633 C632 1.524 . S
C633 C634 1.415 . S
C634 H610 0.950 . S
C634 C629 1.363 . S
C634 C633 1.415 . S
C635 H611 0.951 . S
C635 C636 1.366 . S
C635 C637 1.388 . S
C636 C635 1.366 . S
C636 C640 1.385 . S
C637 H612 0.951 . S
C637 C635 1.388 . S
C637 C638 1.366 . S
C638 C637 1.366 . S
C638 C639 1.414 . S
C638 C641 1.499 . S
C639 H613 0.950 . S
C639 C638 1.414 . S
C639 C640 1.374 . S
C640 H614 0.950 . S
C640 C636 1.385 . S
C640 C639 1.374 . S
C641 C638 1.499 . S
C641 C642 1.373 . S
C641 C643 1.389 . S
C642 H615 0.950 . S
C642 C628 1.377 . S
C642 C641 1.373 . S
C643 C627 1.377 . S
C643 C641 1.389 . S
C643 C644 1.524 . S
C644 C643 1.524 . S
C644 C645 1.397 . S
C644 C649 1.363 . S
C645 H616 0.950 . S
C645 C644 1.397 . S
C645 C646 1.334 . S
C646 H617 0.950 . S
C646 C645 1.334 . S
C646 C647 1.287 . S
C647 C646 1.287 . S
C647 C648 1.524 . S
C647 H650 0.999 . S
C648 H618 0.950 . S
C648 C647 1.524 . S
C648 C649 1.415 . S
C649 H619 0.950 . S
C649 C644 1.363 . S
C649 C648 1.415 . S
H650 C647 0.999 . S
H651 C632 0.913 . S
H652 C670 0.951 . S
H653 C672 0.951 . S
H654 C674 0.950 . S
H655 C675 0.950 . S
H656 C677 0.950 . S
H657 C680 0.950 . S
H658 C681 0.950 . S
H659 C683 0.950 . S
H660 C684 0.950 . S
H661 C685 0.951 . S
H662 C687 0.951 . S
H663 C689 0.950 . S
H664 C690 0.950 . S
H665 C692 0.950 . S
H666 C695 0.950 . S
H667 C696 0.950 . S
H668 C698 0.950 . S
H669 C699 0.950 . S
C670 H652 0.951 . S
C670 C671 1.366 . S
C670 C672 1.388 . S
C671 C670 1.366 . S
C671 C675 1.385 . S
C672 H653 0.951 . S
C672 C670 1.388 . S
C672 C673 1.366 . S
C673 C672 1.366 . S
C673 C674 1.414 . S
C673 C676 1.499 . S
C674 H654 0.950 . S
C674 C673 1.414 . S
C674 C675 1.374 . S
C675 H655 0.950 . S
C675 C671 1.385 . S
C675 C674 1.374 . S
C676 C673 1.499 . S
C676 C677 1.373 . S
C676 C678 1.389 . S
C677 H656 0.950 . S
C677 C676 1.373 . S
C677 C693 1.377 . S
C678 C676 1.389 . S
C678 C679 1.524 . S
C678 C692 1.377 . S
C679 C678 1.524 . S
C679 C680 1.397 . S
C679 C684 1.363 . S
C680 H657 0.950 . S
C680 C679 1.397 . S
C680 C681 1.334 . S
C681 H658 0.950 . S
C681 C680 1.334 . S
C681 C682 1.287 . S
C682 C681 1.287 . S
C682 C683 1.524 . S
C682 H701 0.913 . S
C683 H659 0.950 . S
C683 C682 1.524 . S
C683 C684 1.415 . S
C684 H660 0.950 . S
C684 C679 1.363 . S
C684 C683 1.415 . S
C685 H661 0.951 . S
C685 C686 1.366 . S
C685 C687 1.388 . S
C686 C685 1.366 . S
C686 C690 1.385 . S
C687 H662 0.951 . S
C687 C685 1.388 . S
C687 C688 1.366 . S
C688 C687 1.366 . S
C688 C689 1.414 . S
C688 C691 1.499 . S
C689 H663 0.950 . S
C689 C688 1.414 . S
C689 C690 1.374 . S
C690 H664 0.950 . S
C690 C686 1.385 . S
C690 C689 1.374 . S
C691 C688 1.499 . S
C691 C692 1.373 . S
C691 C693 1.389 . S
C692 H665 0.950 . S
C692 C678 1.377 . S
C692 C691 1.373 . S
C693 C677 1.377 . S
C693 C691 1.389 . S
C693 C694 1.524 . S
C694 C693 1.524 . S
C694 C695 1.397 . S
C694 C699 1.363 . S
C695 H666 0.950 . S
C695 C694 1.397 . S
C695 C696 1.334 . S
C696 H667 0.950 . S
C696 C695 1.334 . S
C696 C697 1.287 . S
C697 C696 1.287 . S
C697 C698 1.524 . S
C697 H700 0.999 . S
C698 H668 0.950 . S
C698 C697 1.524 . S
C698 C699 1.415 . S
C699 H669 0.950 . S
C699 C694 1.363 . S
C699 C698 1.415 . S
H700 C697 0.999 . S
H701 C682 0.913 . S
H702 C720 0.951 . S
H703 C722 0.951 . S
H704 C724 0.950 . S
H705 C725 0.950 . S
H706 C727 0.950 . S
H707 C730 0.950 . S
H708 C731 0.950 . S
H709 C733 0.950 . S
H710 C734 0.950 . S
H711 C735 0.951 . S
H712 C737 0.951 . S
H713 C739 0.950 . S
H714 C740 0.950 . S
H715 C742 0.950 . S
H716 C745 0.950 . S
H717 C746 0.950 . S
H718 C748 0.950 . S
H719 C749 0.950 . S
C720 H702 0.951 . S
C720 C721 1.366 . S
C720 C722 1.388 . S
C721 C720 1.366 . S
C721 C725 1.385 . S
C722 H703 0.951 . S
C722 C720 1.388 . S
C722 C723 1.366 . S
C723 C722 1.366 . S
C723 C724 1.414 . S
C723 C726 1.499 . S
C724 H704 0.950 . S
C724 C723 1.414 . S
C724 C725 1.374 . S
C725 H705 0.950 . S
C725 C721 1.385 . S
C725 C724 1.374 . S
C726 C723 1.499 . S
C726 C727 1.373 . S
C726 C728 1.389 . S
C727 H706 0.950 . S
C727 C726 1.373 . S
C727 C743 1.377 . S
C728 C726 1.389 . S
C728 C729 1.524 . S
C728 C742 1.377 . S
C729 C728 1.524 . S
C729 C730 1.397 . S
C729 C734 1.363 . S
C730 H707 0.950 . S
C730 C729 1.397 . S
C730 C731 1.334 . S
C731 H708 0.950 . S
C731 C730 1.334 . S
C731 C732 1.287 . S
C732 C731 1.287 . S
C732 C733 1.524 . S
C732 H751 0.913 . S
C733 H709 0.950 . S
C733 C732 1.524 . S
C733 C734 1.415 . S
C734 H710 0.950 . S
C734 C729 1.363 . S
C734 C733 1.415 . S
C735 H711 0.951 . S
C735 C736 1.366 . S
C735 C737 1.388 . S
C736 C735 1.366 . S
C736 C740 1.385 . S
C737 H712 0.951 . S
C737 C735 1.388 . S
C737 C738 1.366 . S
C738 C737 1.366 . S
C738 C739 1.414 . S
C738 C741 1.499 . S
C739 H713 0.950 . S
C739 C738 1.414 . S
C739 C740 1.374 . S
C740 H714 0.950 . S
C740 C736 1.385 . S
C740 C739 1.374 . S
C741 C738 1.499 . S
C741 C742 1.373 . S
C741 C743 1.389 . S
C742 H715 0.950 . S
C742 C728 1.377 . S
C742 C741 1.373 . S
C743 C727 1.377 . S
C743 C741 1.389 . S
C743 C744 1.524 . S
C744 C743 1.524 . S
C744 C745 1.397 . S
C744 C749 1.363 . S
C745 H716 0.950 . S
C745 C744 1.397 . S
C745 C746 1.334 . S
C746 H717 0.950 . S
C746 C745 1.334 . S
C746 C747 1.287 . S
C747 C746 1.287 . S
C747 C748 1.524 . S
C747 H750 0.999 . S
C748 H718 0.950 . S
C748 C747 1.524 . S
C748 C749 1.415 . S
C749 H719 0.950 . S
C749 C744 1.363 . S
C749 C748 1.415 . S
H750 C747 0.999 . S
H751 C732 0.913 . S
H752 C770 0.951 . S
H753 C772 0.951 . S
H754 C774 0.950 . S
H755 C775 0.950 . S
H756 C777 0.950 . S
H757 C780 0.950 . S
H758 C781 0.950 . S
H759 C783 0.950 . S
H760 C784 0.950 . S
H761 C785 0.951 . S
H762 C787 0.951 . S
H763 C789 0.950 . S
H764 C790 0.950 . S
H765 C792 0.950 . S
H766 C795 0.950 . S
H767 C796 0.950 . S
H768 C798 0.950 . S
H769 C799 0.950 . S
C770 H752 0.951 . S
C770 C771 1.366 . S
C770 C772 1.388 . S
C771 C770 1.366 . S
C771 C775 1.385 . S
C772 H753 0.951 . S
C772 C770 1.388 . S
C772 C773 1.366 . S
C773 C772 1.366 . S
C773 C774 1.414 . S
C773 C776 1.499 . S
C774 H754 0.950 . S
C774 C773 1.414 . S
C774 C775 1.374 . S
C775 H755 0.950 . S
C775 C771 1.385 . S
C775 C774 1.374 . S
C776 C773 1.499 . S
C776 C777 1.373 . S
C776 C778 1.389 . S
C777 H756 0.950 . S
C777 C776 1.373 . S
C777 C793 1.377 . S
C778 C776 1.389 . S
C778 C779 1.524 . S
C778 C792 1.377 . S
C779 C778 1.524 . S
C779 C780 1.397 . S
C779 C784 1.363 . S
C780 H757 0.950 . S
C780 C779 1.397 . S
C780 C781 1.334 . S
C781 H758 0.950 . S
C781 C780 1.334 . S
C781 C782 1.287 . S
C782 C781 1.287 . S
C782 C783 1.524 . S
C782 H801 0.913 . S
C783 H759 0.950 . S
C783 C782 1.524 . S
C783 C784 1.415 . S
C784 H760 0.950 . S
C784 C779 1.363 . S
C784 C783 1.415 . S
C785 H761 0.951 . S
C785 C786 1.366 . S
C785 C787 1.388 . S
C786 C785 1.366 . S
C786 C790 1.385 . S
C787 H762 0.951 . S
C787 C785 1.388 . S
C787 C788 1.366 . S
C788 C787 1.366 . S
C788 C789 1.414 . S
C788 C791 1.499 . S
C789 H763 0.950 . S
C789 C788 1.414 . S
C789 C790 1.374 . S
C790 H764 0.950 . S
C790 C786 1.385 . S
C790 C789 1.374 . S
C791 C788 1.499 . S
C791 C792 1.373 . S
C791 C793 1.389 . S
C792 H765 0.950 . S
C792 C778 1.377 . S
C792 C791 1.373 . S
C793 C777 1.377 . S
C793 C791 1.389 . S
C793 C794 1.524 . S
C794 C793 1.524 . S
C794 C795 1.397 . S
C794 C799 1.363 . S
C795 H766 0.950 . S
C795 C794 1.397 . S
C795 C796 1.334 . S
C796 H767 0.950 . S
C796 C795 1.334 . S
C796 C797 1.287 . S
C797 C796 1.287 . S
C797 C798 1.524 . S
C797 H800 0.999 . S
C798 H768 0.950 . S
C798 C797 1.524 . S
C798 C799 1.415 . S
C799 H769 0.950 . S
C799 C794 1.363 . S
C799 C798 1.415 . S
H800 C797 0.999 . S
H801 C782 0.913 . S
H802 C820 0.951 . S
H803 C822 0.951 . S
H804 C824 0.950 . S
H805 C825 0.950 . S
H806 C827 0.950 . S
H807 C830 0.950 . S
H808 C831 0.950 . S
H809 C833 0.950 . S
H810 C834 0.950 . S
H811 C835 0.951 . S
H812 C837 0.951 . S
H813 C839 0.950 . S
H814 C840 0.950 . S
H815 C842 0.950 . S
H816 C845 0.950 . S
H817 C846 0.950 . S
H818 C848 0.950 . S
H819 C849 0.950 . S
C820 H802 0.951 . S
C820 C821 1.366 . S
C820 C822 1.388 . S
C821 C820 1.366 . S
C821 C825 1.385 . S
C822 H803 0.951 . S
C822 C820 1.388 . S
C822 C823 1.366 . S
C823 C822 1.366 . S
C823 C824 1.414 . S
C823 C826 1.499 . S
C824 H804 0.950 . S
C824 C823 1.414 . S
C824 C825 1.374 . S
C825 H805 0.950 . S
C825 C821 1.385 . S
C825 C824 1.374 . S
C826 C823 1.499 . S
C826 C827 1.373 . S
C826 C828 1.389 . S
C827 H806 0.950 . S
C827 C826 1.373 . S
C827 C843 1.377 . S
C828 C826 1.389 . S
C828 C829 1.524 . S
C828 C842 1.377 . S
C829 C828 1.524 . S
C829 C830 1.397 . S
C829 C834 1.363 . S
C830 H807 0.950 . S
C830 C829 1.397 . S
C830 C831 1.334 . S
C831 H808 0.950 . S
C831 C830 1.334 . S
C831 C832 1.287 . S
C832 C831 1.287 . S
C832 C833 1.524 . S
C832 H851 0.913 . S
C833 H809 0.950 . S
C833 C832 1.524 . S
C833 C834 1.415 . S
C834 H810 0.950 . S
C834 C829 1.363 . S
C834 C833 1.415 . S
C835 H811 0.951 . S
C835 C836 1.366 . S
C835 C837 1.388 . S
C836 C835 1.366 . S
C836 C840 1.385 . S
C837 H812 0.951 . S
C837 C835 1.388 . S
C837 C838 1.366 . S
C838 C837 1.366 . S
C838 C839 1.414 . S
C838 C841 1.499 . S
C839 H813 0.950 . S
C839 C838 1.414 . S
C839 C840 1.374 . S
C840 H814 0.950 . S
C840 C836 1.385 . S
C840 C839 1.374 . S
C841 C838 1.499 . S
C841 C842 1.373 . S
C841 C843 1.389 . S
C842 H815 0.950 . S
C842 C828 1.377 . S
C842 C841 1.373 . S
C843 C827 1.377 . S
C843 C841 1.389 . S
C843 C844 1.524 . S
C844 C843 1.524 . S
C844 C845 1.397 . S
C844 C849 1.363 . S
C845 H816 0.950 . S
C845 C844 1.397 . S
C845 C846 1.334 . S
C846 H817 0.950 . S
C846 C845 1.334 . S
C846 C847 1.287 . S
C847 C846 1.287 . S
C847 C848 1.524 . S
C847 H850 0.999 . S
C848 H818 0.950 . S
C848 C847 1.524 . S
C848 C849 1.415 . S
C849 H819 0.950 . S
C849 C844 1.363 . S
C849 C848 1.415 . S
H850 C847 0.999 . S
H851 C832 0.913 . S
H852 C870 0.951 . S
H853 C872 0.951 . S
H854 C874 0.950 . S
H855 C875 0.950 . S
H856 C877 0.950 . S
H857 C880 0.950 . S
H858 C881 0.950 . S
H859 C883 0.950 . S
H860 C884 0.950 . S
H861 C885 0.951 . S
H862 C887 0.951 . S
H863 C889 0.950 . S
H864 C890 0.950 . S
H865 C892 0.950 . S
H866 C895 0.950 . S
H867 C896 0.950 . S
H868 C898 0.950 . S
H869 C899 0.950 . S
C870 H852 0.951 . S
C870 C871 1.366 . S
C870 C872 1.388 . S
C871 C870 1.366 . S
C871 C875 1.385 . S
C872 H853 0.951 . S
C872 C870 1.388 . S
C872 C873 1.366 . S
C873 C872 1.366 . S
C873 C874 1.414 . S
C873 C876 1.499 . S
C874 H854 0.950 . S
C874 C873 1.414 . S
C874 C875 1.374 . S
C875 H855 0.950 . S
C875 C871 1.385 . S
C875 C874 1.374 . S
C876 C873 1.499 . S
C876 C877 1.373 . S
C876 C878 1.389 . S
C877 H856 0.950 . S
C877 C876 1.373 . S
C877 C893 1.377 . S
C878 C876 1.389 . S
C878 C879 1.524 . S
C878 C892 1.377 . S
C879 C878 1.524 . S
C879 C880 1.397 . S
C879 C884 1.363 . S
C880 H857 0.950 . S
C880 C879 1.397 . S
C880 C881 1.334 . S
C881 H858 0.950 . S
C881 C880 1.334 . S
C881 C882 1.287 . S
C882 C881 1.287 . S
C882 C883 1.524 . S
C882 H901 0.913 . S
C883 H859 0.950 . S
C883 C882 1.524 . S
C883 C884 1.415 . S
C884 H860 0.950 . S
C884 C879 1.363 . S
C884 C883 1.415 . S
C885 H861 0.951 . S
C885 C886 1.366 . S
C885 C887 1.388 . S
C886 C885 1.366 . S
C886 C890 1.385 . S
C887 H862 0.951 . S
C887 C885 1.388 . S
C887 C888 1.366 . S
C888 C887 1.366 . S
C888 C889 1.414 . S
C888 C891 1.499 . S
C889 H863 0.950 . S
C889 C888 1.414 . S
C889 C890 1.374 . S
C890 H864 0.950 . S
C890 C886 1.385 . S
C890 C889 1.374 . S
C891 C888 1.499 . S
C891 C892 1.373 . S
C891 C893 1.389 . S
C892 H865 0.950 . S
C892 C878 1.377 . S
C892 C891 1.373 . S
C893 C877 1.377 . S
C893 C891 1.389 . S
C893 C894 1.524 . S
C894 C893 1.524 . S
C894 C895 1.397 . S
C894 C899 1.363 . S
C895 H866 0.950 . S
C895 C894 1.397 . S
C895 C896 1.334 . S
C896 H867 0.950 . S
C896 C895 1.334 . S
C896 C897 1.287 . S
C897 C896 1.287 . S
C897 C898 1.524 . S
C897 H900 0.999 . S
C898 H868 0.950 . S
C898 C897 1.524 . S
C898 C899 1.415 . S
C899 H869 0.950 . S
C899 C894 1.363 . S
C899 C898 1.415 . S
H900 C897 0.999 . S
H901 C882 0.913 . S
H902 C920 0.951 . S
H903 C922 0.951 . S
H904 C924 0.950 . S
H905 C925 0.950 . S
H906 C927 0.950 . S
H907 C930 0.950 . S
H908 C931 0.950 . S
H909 C933 0.950 . S
H910 C934 0.950 . S
H911 C935 0.951 . S
H912 C937 0.951 . S
H913 C939 0.950 . S
H914 C940 0.950 . S
H915 C942 0.950 . S
H916 C945 0.950 . S
H917 C946 0.950 . S
H918 C948 0.950 . S
H919 C949 0.950 . S
C920 H902 0.951 . S
C920 C921 1.366 . S
C920 C922 1.388 . S
C921 C920 1.366 . S
C921 C925 1.385 . S
C922 H903 0.951 . S
C922 C920 1.388 . S
C922 C923 1.366 . S
C923 C922 1.366 . S
C923 C924 1.414 . S
C923 C926 1.499 . S
C924 H904 0.950 . S
C924 C923 1.414 . S
C924 C925 1.374 . S
C925 H905 0.950 . S
C925 C921 1.385 . S
C925 C924 1.374 . S
C926 C923 1.499 . S
C926 C927 1.373 . S
C926 C928 1.389 . S
C927 H906 0.950 . S
C927 C926 1.373 . S
C927 C943 1.377 . S
C928 C926 1.389 . S
C928 C929 1.524 . S
C928 C942 1.377 . S
C929 C928 1.524 . S
C929 C930 1.397 . S
C929 C934 1.363 . S
C930 H907 0.950 . S
C930 C929 1.397 . S
C930 C931 1.334 . S
C931 H908 0.950 . S
C931 C930 1.334 . S
C931 C932 1.287 . S
C932 C931 1.287 . S
C932 C933 1.524 . S
C932 H951 0.913 . S
C933 H909 0.950 . S
C933 C932 1.524 . S
C933 C934 1.415 . S
C934 H910 0.950 . S
C934 C929 1.363 . S
C934 C933 1.415 . S
C935 H911 0.951 . S
C935 C936 1.366 . S
C935 C937 1.388 . S
C936 C935 1.366 . S
C936 C940 1.385 . S
C937 H912 0.951 . S
C937 C935 1.388 . S
C937 C938 1.366 . S
C938 C937 1.366 . S
C938 C939 1.414 . S
C938 C941 1.499 . S
C939 H913 0.950 . S
C939 C938 1.414 . S
C939 C940 1.374 . S
C940 H914 0.950 . S
C940 C936 1.385 . S
C940 C939 1.374 . S
C941 C938 1.499 . S
C941 C942 1.373 . S
C941 C943 1.389 . S
C942 H915 0.950 . S
C942 C928 1.377 . S
C942 C941 1.373 . S
C943 C927 1.377 . S
C943 C941 1.389 . S
C943 C944 1.524 . S
C944 C943 1.524 . S
C944 C945 1.397 . S
C944 C949 1.363 . S
C945 H916 0.950 . S
C945 C944 1.397 . S
C945 C946 1.334 . S
C946 H917 0.950 . S
C946 C945 1.334 . S
C946 C947 1.287 . S
C947 C946 1.287 . S
C947 C948 1.524 . S
C947 H950 0.999 . S
C948 H918 0.950 . S
C948 C947 1.524 . S
C948 C949 1.415 . S
C949 H919 0.950 . S
C949 C944 1.363 . S
C949 C948 1.415 . S
H950 C947 0.999 . S
H951 C932 0.913 . S
H952 C970 0.951 . S
H953 C972 0.951 . S
H954 C974 0.950 . S
H955 C975 0.950 . S
H956 C977 0.950 . S
H957 C980 0.950 . S
H958 C981 0.950 . S
H959 C983 0.950 . S
H960 C984 0.950 . S
H961 C985 0.951 . S
H962 C987 0.951 . S
H963 C989 0.950 . S
H964 C990 0.950 . S
H965 C992 0.950 . S
H966 C995 0.950 . S
H967 C996 0.950 . S
H968 C998 0.950 . S
H969 C999 0.950 . S
C970 H952 0.951 . S
C970 C971 1.366 . S
C970 C972 1.388 . S
C971 C970 1.366 . S
C971 C975 1.385 . S
C972 H953 0.951 . S
C972 C970 1.388 . S
C972 C973 1.366 . S
C973 C972 1.366 . S
C973 C974 1.414 . S
C973 C976 1.499 . S
C974 H954 0.950 . S
C974 C973 1.414 . S
C974 C975 1.374 . S
C975 H955 0.950 . S
C975 C971 1.385 . S
C975 C974 1.374 . S
C976 C973 1.499 . S
C976 C977 1.373 . S
C976 C978 1.389 . S
C977 H956 0.950 . S
C977 C976 1.373 . S
C977 C993 1.377 . S
C978 C976 1.389 . S
C978 C979 1.524 . S
C978 C992 1.377 . S
C979 C978 1.524 . S
C979 C980 1.397 . S
C979 C984 1.363 . S
C980 H957 0.950 . S
C980 C979 1.397 . S
C980 C981 1.334 . S
C981 H958 0.950 . S
C981 C980 1.334 . S
C981 C982 1.287 . S
C982 C981 1.287 . S
C982 C983 1.524 . S
C982 H1001 0.913 . S
C983 H959 0.950 . S
C983 C982 1.524 . S
C983 C984 1.415 . S
C984 H960 0.950 . S
C984 C979 1.363 . S
C984 C983 1.415 . S
C985 H961 0.951 . S
C985 C986 1.366 . S
C985 C987 1.388 . S
C986 C985 1.366 . S
C986 C990 1.385 . S
C987 H962 0.951 . S
C987 C985 1.388 . S
C987 C988 1.366 . S
C988 C987 1.366 . S
C988 C989 1.414 . S
C988 C991 1.499 . S
C989 H963 0.950 . S
C989 C988 1.414 . S
C989 C990 1.374 . S
C990 H964 0.950 . S
C990 C986 1.385 . S
C990 C989 1.374 . S
C991 C988 1.499 . S
C991 C992 1.373 . S
C991 C993 1.389 . S
C992 H965 0.950 . S
C992 C978 1.377 . S
C992 C991 1.373 . S
C993 C977 1.377 . S
C993 C991 1.389 . S
C993 C994 1.524 . S
C994 C993 1.524 . S
C994 C995 1.397 . S
C994 C999 1.363 . S
C995 H966 0.950 . S
C995 C994 1.397 . S
C995 C996 1.334 . S
C996 H967 0.950 . S
C996 C995 1.334 . S
C996 C997 1.287 . S
C997 C996 1.287 . S
C997 C998 1.524 . S
C997 H1000 0.999 . S
C998 H968 0.950 . S
C998 C997 1.524 . S
C998 C999 1.415 . S
C999 H969 0.950 . S
C999 C994 1.363 . S
C999 C998 1.415 . S
H1000 C997 0.999 . S
H1001 C982 0.913 . S
H1002 C1020 0.951 . S
H1003 C1022 0.951 . S
H1004 C1024 0.950 . S
H1005 C1025 0.950 . S
H1006 C1027 0.950 . S
H1007 C1030 0.950 . S
H1008 C1031 0.950 . S
H1009 C1033 0.950 . S
H1010 C1034 0.950 . S
H1011 C1035 0.951 . S
H1012 C1037 0.951 . S
H1013 C1039 0.950 . S
H1014 C1040 0.950 . S
H1015 C1042 0.950 . S
H1016 C1045 0.950 . S
H1017 C1046 0.950 . S
H1018 C1048 0.950 . S
H1019 C1049 0.950 . S
C1020 H1002 0.951 . S
C1020 C1021 1.366 . S
C1020 C1022 1.388 . S
C1021 C1020 1.366 . S
C1021 C1025 1.385 . S
C1022 H1003 0.951 . S
C1022 C1020 1.388 . S
C1022 C1023 1.366 . S
C1023 C1022 1.366 . S
C1023 C1024 1.414 . S
C1023 C1026 1.499 . S
C1024 H1004 0.950 . S
C1024 C1023 1.414 . S
C1024 C1025 1.374 . S
C1025 H1005 0.950 . S
C1025 C1021 1.385 . S
C1025 C1024 1.374 . S
C1026 C1023 1.499 . S
C1026 C1027 1.373 . S
C1026 C1028 1.389 . S
C1027 H1006 0.950 . S
C1027 C1026 1.373 . S
C1027 C1043 1.377 . S
C1028 C1026 1.389 . S
C1028 C1029 1.524 . S
C1028 C1042 1.377 . S
C1029 C1028 1.524 . S
C1029 C1030 1.397 . S
C1029 C1034 1.363 . S
C1030 H1007 0.950 . S
C1030 C1029 1.397 . S
C1030 C1031 1.334 . S
C1031 H1008 0.950 . S
C1031 C1030 1.334 . S
C1031 C1032 1.287 . S
C1032 C1031 1.287 . S
C1032 C1033 1.524 . S
C1032 H1051 0.913 . S
C1033 H1009 0.950 . S
C1033 C1032 1.524 . S
C1033 C1034 1.415 . S
C1034 H1010 0.950 . S
C1034 C1029 1.363 . S
C1034 C1033 1.415 . S
C1035 H1011 0.951 . S
C1035 C1036 1.366 . S
C1035 C1037 1.388 . S
C1036 C1035 1.366 . S
C1036 C1040 1.385 . S
C1037 H1012 0.951 . S
C1037 C1035 1.388 . S
C1037 C1038 1.366 . S
C1038 C1037 1.366 . S
C1038 C1039 1.414 . S
C1038 C1041 1.499 . S
C1039 H1013 0.950 . S
C1039 C1038 1.414 . S
C1039 C1040 1.374 . S
C1040 H1014 0.950 . S
C1040 C1036 1.385 . S
C1040 C1039 1.374 . S
C1041 C1038 1.499 . S
C1041 C1042 1.373 . S
C1041 C1043 1.389 . S
C1042 H1015 0.950 . S
C1042 C1028 1.377 . S
C1042 C1041 1.373 . S
C1043 C1027 1.377 . S
C1043 C1041 1.389 . S
C1043 C1044 1.524 . S
C1044 C1043 1.524 . S
C1044 C1045 1.397 . S
C1044 C1049 1.363 . S
C1045 H1016 0.950 . S
C1045 C1044 1.397 . S
C1045 C1046 1.334 . S
C1046 H1017 0.950 . S
C1046 C1045 1.334 . S
C1046 C1047 1.287 . S
C1047 C1046 1.287 . S
C1047 C1048 1.524 . S
C1047 H1050 0.999 . S
C1048 H1018 0.950 . S
C1048 C1047 1.524 . S
C1048 C1049 1.415 . S
C1049 H1019 0.950 . S
C1049 C1044 1.363 . S
C1049 C1048 1.415 . S
H1050 C1047 0.999 . S
H1051 C1032 0.913 . S
H1052 C1070 0.951 . S
H1053 C1072 0.951 . S
H1054 C1074 0.950 . S
H1055 C1075 0.950 . S
H1056 C1077 0.950 . S
H1057 C1080 0.950 . S
H1058 C1081 0.950 . S
H1059 C1083 0.950 . S
H1060 C1084 0.950 . S
H1061 C1085 0.951 . S
H1062 C1087 0.951 . S
H1063 C1089 0.950 . S
H1064 C1090 0.950 . S
H1065 C1092 0.950 . S
H1066 C1095 0.950 . S
H1067 C1096 0.950 . S
H1068 C1098 0.950 . S
H1069 C1099 0.950 . S
C1070 H1052 0.951 . S
C1070 C1071 1.366 . S
C1070 C1072 1.388 . S
C1071 C1070 1.366 . S
C1071 C1075 1.385 . S
C1072 H1053 0.951 . S
C1072 C1070 1.388 . S
C1072 C1073 1.366 . S
C1073 C1072 1.366 . S
C1073 C1074 1.414 . S
C1073 C1076 1.499 . S
C1074 H1054 0.950 . S
C1074 C1073 1.414 . S
C1074 C1075 1.374 . S
C1075 H1055 0.950 . S
C1075 C1071 1.385 . S
C1075 C1074 1.374 . S
C1076 C1073 1.499 . S
C1076 C1077 1.373 . S
C1076 C1078 1.389 . S
C1077 H1056 0.950 . S
C1077 C1076 1.373 . S
C1077 C1093 1.377 . S
C1078 C1076 1.389 . S
C1078 C1079 1.524 . S
C1078 C1092 1.377 . S
C1079 C1078 1.524 . S
C1079 C1080 1.397 . S
C1079 C1084 1.363 . S
C1080 H1057 0.950 . S
C1080 C1079 1.397 . S
C1080 C1081 1.334 . S
C1081 H1058 0.950 . S
C1081 C1080 1.334 . S
C1081 C1082 1.287 . S
C1082 C1081 1.287 . S
C1082 C1083 1.524 . S
C1082 H1101 0.913 . S
C1083 H1059 0.950 . S
C1083 C1082 1.524 . S
C1083 C1084 1.415 . S
C1084 H1060 0.950 . S
C1084 C1079 1.363 . S
C1084 C1083 1.415 . S
C1085 H1061 0.951 . S
C1085 C1086 1.366 . S
C1085 C1087 1.388 . S
C1086 C1085 1.366 . S
C1086 C1090 1.385 . S
C1087 H1062 0.951 . S
C1087 C1085 1.388 . S
C1087 C1088 1.366 . S
C1088 C1087 1.366 . S
C1088 C1089 1.414 . S
C1088 C1091 1.499 . S
C1089 H1063 0.950 . S
C1089 C1088 1.414 . S
C1089 C1090 1.374 . S
C1090 H1064 0.950 . S
C1090 C1086 1.385 . S
C1090 C1089 1.374 . S
C1091 C1088 1.499 . S
C1091 C1092 1.373 . S
C1091 C1093 1.389 . S
C1092 H1065 0.950 . S
C1092 C1078 1.377 . S
C1092 C1091 1.373 . S
C1093 C1077 1.377 . S
C1093 C1091 1.389 . S
C1093 C1094 1.524 . S
C1094 C1093 1.524 . S
C1094 C1095 1.397 . S
C1094 C1099 1.363 . S
C1095 H1066 0.950 . S
C1095 C1094 1.397 . S
C1095 C1096 1.334 . S
C1096 H1067 0.950 . S
C1096 C1095 1.334 . S
C1096 C1097 1.287 . S
C1097 C1096 1.287 . S
C1097 C1098 1.524 . S
C1097 H1100 0.999 . S
C1098 H1068 0.950 . S
C1098 C1097 1.524 . S
C1098 C1099 1.415 . S
C1099 H1069 0.950 . S
C1099 C1094 1.363 . S
C1099 C1098 1.415 . S
H1100 C1097 0.999 . S
H1101 C1082 0.913 . S
H1102 C1120 0.951 . S
H1103 C1122 0.951 . S
H1104 C1124 0.950 . S
H1105 C1125 0.950 . S
H1106 C1127 0.950 . S
H1107 C1130 0.950 . S
H1108 C1131 0.950 . S
H1109 C1133 0.950 . S
H1110 C1134 0.950 . S
H1111 C1135 0.951 . S
H1112 C1137 0.951 . S
H1113 C1139 0.950 . S
H1114 C1140 0.950 . S
H1115 C1142 0.950 . S
H1116 C1145 0.950 . S
H1117 C1146 0.950 . S
H1118 C1148 0.950 . S
H1119 C1149 0.950 . S
C1120 H1102 0.951 . S
C1120 C1121 1.366 . S
C1120 C1122 1.388 . S
C1121 C1120 1.366 . S
C1121 C1125 1.385 . S
C1122 H1103 0.951 . S
C1122 C1120 1.388 . S
C1122 C1123 1.366 . S
C1123 C1122 1.366 . S
C1123 C1124 1.414 . S
C1123 C1126 1.499 . S
C1124 H1104 0.950 . S
C1124 C1123 1.414 . S
C1124 C1125 1.374 . S
C1125 H1105 0.950 . S
C1125 C1121 1.385 . S
C1125 C1124 1.374 . S
C1126 C1123 1.499 . S
C1126 C1127 1.373 . S
C1126 C1128 1.389 . S
C1127 H1106 0.950 . S
C1127 C1126 1.373 . S
C1127 C1143 1.377 . S
C1128 C1126 1.389 . S
C1128 C1129 1.524 . S
C1128 C1142 1.377 . S
C1129 C1128 1.524 . S
C1129 C1130 1.397 . S
C1129 C1134 1.363 . S
C1130 H1107 0.950 . S
C1130 C1129 1.397 . S
C1130 C1131 1.334 . S
C1131 H1108 0.950 . S
C1131 C1130 1.334 . S
C1131 C1132 1.287 . S
C1132 C1131 1.287 . S
C1132 C1133 1.524 . S
C1132 H1151 0.913 . S
C1133 H1109 0.950 . S
C1133 C1132 1.524 . S
C1133 C1134 1.415 . S
C1134 H1110 0.950 . S
C1134 C1129 1.363 . S
C1134 C1133 1.415 . S
C1135 H1111 0.951 . S
C1135 C1136 1.366 . S
C1135 C1137 1.388 . S
C1136 C1135 1.366 . S
C1136 C1140 1.385 . S
C1137 H1112 0.951 . S
C1137 C1135 1.388 . S
C1137 C1138 1.366 . S
C1138 C1137 1.366 . S
C1138 C1139 1.414 . S
C1138 C1141 1.499 . S
C1139 H1113 0.950 . S
C1139 C1138 1.414 . S
C1139 C1140 1.374 . S
C1140 H1114 0.950 . S
C1140 C1136 1.385 . S
C1140 C1139 1.374 . S
C1141 C1138 1.499 . S
C1141 C1142 1.373 . S
C1141 C1143 1.389 . S
C1142 H1115 0.950 . S
C1142 C1128 1.377 . S
C1142 C1141 1.373 . S
C1143 C1127 1.377 . S
C1143 C1141 1.389 . S
C1143 C1144 1.524 . S
C1144 C1143 1.524 . S
C1144 C1145 1.397 . S
C1144 C1149 1.363 . S
C1145 H1116 0.950 . S
C1145 C1144 1.397 . S
C1145 C1146 1.334 . S
C1146 H1117 0.950 . S
C1146 C1145 1.334 . S
C1146 C1147 1.287 . S
C1147 C1146 1.287 . S
C1147 C1148 1.524 . S
C1147 H1150 0.999 . S
C1148 H1118 0.950 . S
C1148 C1147 1.524 . S
C1148 C1149 1.415 . S
C1149 H1119 0.950 . S
C1149 C1144 1.363 . S
C1149 C1148 1.415 . S
H1150 C1147 0.999 . S
H1151 C1132 0.913 . S
H1152 C1170 0.951 . S
H1153 C1172 0.951 . S
H1154 C1174 0.950 . S
H1155 C1175 0.950 . S
H1156 C1177 0.950 . S
H1157 C1180 0.950 . S
H1158 C1181 0.950 . S
H1159 C1183 0.950 . S
H1160 C1184 0.950 . S
H1161 C1185 0.951 . S
H1162 C1187 0.951 . S
H1163 C1189 0.950 . S
H1164 C1190 0.950 . S
H1165 C1192 0.950 . S
H1166 C1195 0.950 . S
H1167 C1196 0.950 . S
H1168 C1198 0.950 . S
H1169 C1199 0.950 . S
C1170 H1152 0.951 . S
C1170 C1171 1.366 . S
C1170 C1172 1.388 . S
C1171 C1170 1.366 . S
C1171 C1175 1.385 . S
C1172 H1153 0.951 . S
C1172 C1170 1.388 . S
C1172 C1173 1.366 . S
C1173 C1172 1.366 . S
C1173 C1174 1.414 . S
C1173 C1176 1.499 . S
C1174 H1154 0.950 . S
C1174 C1173 1.414 . S
C1174 C1175 1.374 . S
C1175 H1155 0.950 . S
C1175 C1171 1.385 . S
C1175 C1174 1.374 . S
C1176 C1173 1.499 . S
C1176 C1177 1.373 . S
C1176 C1178 1.389 . S
C1177 H1156 0.950 . S
C1177 C1176 1.373 . S
C1177 C1193 1.377 . S
C1178 C1176 1.389 . S
C1178 C1179 1.524 . S
C1178 C1192 1.377 . S
C1179 C1178 1.524 . S
C1179 C1180 1.397 . S
C1179 C1184 1.363 . S
C1180 H1157 0.950 . S
C1180 C1179 1.397 . S
C1180 C1181 1.334 . S
C1181 H1158 0.950 . S
C1181 C1180 1.334 . S
C1181 C1182 1.287 . S
C1182 C1181 1.287 . S
C1182 C1183 1.524 . S
C1182 H1201 0.913 . S
C1183 H1159 0.950 . S
C1183 C1182 1.524 . S
C1183 C1184 1.415 . S
C1184 H1160 0.950 . S
C1184 C1179 1.363 . S
C1184 C1183 1.415 . S
C1185 H1161 0.951 . S
C1185 C1186 1.366 . S
C1185 C1187 1.388 . S
C1186 C1185 1.366 . S
C1186 C1190 1.385 . S
C1187 H1162 0.951 . S
C1187 C1185 1.388 . S
C1187 C1188 1.366 . S
C1188 C1187 1.366 . S
C1188 C1189 1.414 . S
C1188 C1191 1.499 . S
C1189 H1163 0.950 . S
C1189 C1188 1.414 . S
C1189 C1190 1.374 . S
C1190 H1164 0.950 . S
C1190 C1186 1.385 . S
C1190 C1189 1.374 . S
C1191 C1188 1.499 . S
C1191 C1192 1.373 . S
C1191 C1193 1.389 . S
C1192 H1165 0.950 . S
C1192 C1178 1.377 . S
C1192 C1191 1.373 . S
C1193 C1177 1.377 . S
C1193 C1191 1.389 . S
C1193 C1194 1.524 . S
C1194 C1193 1.524 . S
C1194 C1195 1.397 . S
C1194 C1199 1.363 . S
C1195 H1166 0.950 . S
C1195 C1194 1.397 . S
C1195 C1196 1.334 . S
C1196 H1167 0.950 . S
C1196 C1195 1.334 . S
C1196 C1197 1.287 . S
C1197 C1196 1.287 . S
C1197 C1198 1.524 . S
C1197 H1200 0.999 . S
C1198 H1168 0.950 . S
C1198 C1197 1.524 . S
C1198 C1199 1.415 . S
C1199 H1169 0.950 . S
C1199 C1194 1.363 . S
C1199 C1198 1.415 . S
H1200 C1197 0.999 . S
H1201 C1182 0.913 . S
H1202 C1220 0.951 . S
H1203 C1222 0.951 . S
H1204 C1224 0.950 . S
H1205 C1225 0.950 . S
H1206 C1227 0.950 . S
H1207 C1230 0.950 . S
H1208 C1231 0.950 . S
H1209 C1233 0.950 . S
H1210 C1234 0.950 . S
H1211 C1235 0.951 . S
H1212 C1237 0.951 . S
H1213 C1239 0.950 . S
H1214 C1240 0.950 . S
H1215 C1242 0.950 . S
H1216 C1245 0.950 . S
H1217 C1246 0.950 . S
H1218 C1248 0.950 . S
H1219 C1249 0.950 . S
C1220 H1202 0.951 . S
C1220 C1221 1.366 . S
C1220 C1222 1.388 . S
C1221 C1220 1.366 . S
C1221 C1225 1.385 . S
C1222 H1203 0.951 . S
C1222 C1220 1.388 . S
C1222 C1223 1.366 . S
C1223 C1222 1.366 . S
C1223 C1224 1.414 . S
C1223 C1226 1.499 . S
C1224 H1204 0.950 . S
C1224 C1223 1.414 . S
C1224 C1225 1.374 . S
C1225 H1205 0.950 . S
C1225 C1221 1.385 . S
C1225 C1224 1.374 . S
C1226 C1223 1.499 . S
C1226 C1227 1.373 . S
C1226 C1228 1.389 . S
C1227 H1206 0.950 . S
C1227 C1226 1.373 . S
C1227 C1243 1.377 . S
C1228 C1226 1.389 . S
C1228 C1229 1.524 . S
C1228 C1242 1.377 . S
C1229 C1228 1.524 . S
C1229 C1230 1.397 . S
C1229 C1234 1.363 . S
C1230 H1207 0.950 . S
C1230 C1229 1.397 . S
C1230 C1231 1.334 . S
C1231 H1208 0.950 . S
C1231 C1230 1.334 . S
C1231 C1232 1.287 . S
C1232 C1231 1.287 . S
C1232 C1233 1.524 . S
C1232 H1251 0.913 . S
C1233 H1209 0.950 . S
C1233 C1232 1.524 . S
C1233 C1234 1.415 . S
C1234 H1210 0.950 . S
C1234 C1229 1.363 . S
C1234 C1233 1.415 . S
C1235 H1211 0.951 . S
C1235 C1236 1.366 . S
C1235 C1237 1.388 . S
C1236 C1235 1.366 . S
C1236 C1240 1.385 . S
C1237 H1212 0.951 . S
C1237 C1235 1.388 . S
C1237 C1238 1.366 . S
C1238 C1237 1.366 . S
C1238 C1239 1.414 . S
C1238 C1241 1.499 . S
C1239 H1213 0.950 . S
C1239 C1238 1.414 . S
C1239 C1240 1.374 . S
C1240 H1214 0.950 . S
C1240 C1236 1.385 . S
C1240 C1239 1.374 . S
C1241 C1238 1.499 . S
C1241 C1242 1.373 . S
C1241 C1243 1.389 . S
C1242 H1215 0.950 . S
C1242 C1228 1.377 . S
C1242 C1241 1.373 . S
C1243 C1227 1.377 . S
C1243 C1241 1.389 . S
C1243 C1244 1.524 . S
C1244 C1243 1.524 . S
C1244 C1245 1.397 . S
C1244 C1249 1.363 . S
C1245 H1216 0.950 . S
C1245 C1244 1.397 . S
C1245 C1246 1.334 . S
C1246 H1217 0.950 . S
C1246 C1245 1.334 . S
C1246 C1247 1.287 . S
C1247 C1246 1.287 . S
C1247 C1248 1.524 . S
C1247 H1250 0.999 . S
C1248 H1218 0.950 . S
C1248 C1247 1.524 . S
C1248 C1249 1.415 . S
C1249 H1219 0.950 . S
C1249 C1244 1.363 . S
C1249 C1248 1.415 . S
H1250 C1247 0.999 . S
H1251 C1232 0.913 . S
H1252 C1270 0.951 . S
H1253 C1272 0.951 . S
H1254 C1274 0.950 . S
H1255 C1275 0.950 . S
H1256 C1277 0.950 . S
H1257 C1280 0.950 . S
H1258 C1281 0.950 . S
H1259 C1283 0.950 . S
H1260 C1284 0.950 . S
H1261 C1285 0.951 . S
H1262 C1287 0.951 . S
H1263 C1289 0.950 . S
H1264 C1290 0.950 . S
H1265 C1292 0.950 . S
H1266 C1295 0.950 . S
H1267 C1296 0.950 . S
H1268 C1298 0.950 . S
H1269 C1299 0.950 . S
C1270 H1252 0.951 . S
C1270 C1271 1.366 . S
C1270 C1272 1.388 . S
C1271 C1270 1.366 . S
C1271 C1275 1.385 . S
C1272 H1253 0.951 . S
C1272 C1270 1.388 . S
C1272 C1273 1.366 . S
C1273 C1272 1.366 . S
C1273 C1274 1.414 . S
C1273 C1276 1.499 . S
C1274 H1254 0.950 . S
C1274 C1273 1.414 . S
C1274 C1275 1.374 . S
C1275 H1255 0.950 . S
C1275 C1271 1.385 . S
C1275 C1274 1.374 . S
C1276 C1273 1.499 . S
C1276 C1277 1.373 . S
C1276 C1278 1.389 . S
C1277 H1256 0.950 . S
C1277 C1276 1.373 . S
C1277 C1293 1.377 . S
C1278 C1276 1.389 . S
C1278 C1279 1.524 . S
C1278 C1292 1.377 . S
C1279 C1278 1.524 . S
C1279 C1280 1.397 . S
C1279 C1284 1.363 . S
C1280 H1257 0.950 . S
C1280 C1279 1.397 . S
C1280 C1281 1.334 . S
C1281 H1258 0.950 . S
C1281 C1280 1.334 . S
C1281 C1282 1.287 . S
C1282 C1281 1.287 . S
C1282 C1283 1.524 . S
C1282 H1301 0.913 . S
C1283 H1259 0.950 . S
C1283 C1282 1.524 . S
C1283 C1284 1.415 . S
C1284 H1260 0.950 . S
C1284 C1279 1.363 . S
C1284 C1283 1.415 . S
C1285 H1261 0.951 . S
C1285 C1286 1.366 . S
C1285 C1287 1.388 . S
C1286 C1285 1.366 . S
C1286 C1290 1.385 . S
C1287 H1262 0.951 . S
C1287 C1285 1.388 . S
C1287 C1288 1.366 . S
C1288 C1287 1.366 . S
C1288 C1289 1.414 . S
C1288 C1291 1.499 . S
C1289 H1263 0.950 . S
C1289 C1288 1.414 . S
C1289 C1290 1.374 . S
C1290 H1264 0.950 . S
C1290 C1286 1.385 . S
C1290 C1289 1.374 . S
C1291 C1288 1.499 . S
C1291 C1292 1.373 . S
C1291 C1293 1.389 . S
C1292 H1265 0.950 . S
C1292 C1278 1.377 . S
C1292 C1291 1.373 . S
C1293 C1277 1.377 . S
C1293 C1291 1.389 . S
C1293 C1294 1.524 . S
C1294 C1293 1.524 . S
C1294 C1295 1.397 . S
C1294 C1299 1.363 . S
C1295 H1266 0.950 . S
C1295 C1294 1.397 . S
C1295 C1296 1.334 . S
C1296 H1267 0.950 . S
C1296 C1295 1.334 . S
C1296 C1297 1.287 . S
C1297 C1296 1.287 . S
C1297 C1298 1.524 . S
C1297 H1300 0.999 . S
C1298 H1268 0.950 . S
C1298 C1297 1.524 . S
C1298 C1299 1.415 . S
C1299 H1269 0.950 . S
C1299 C1294 1.363 . S
C1299 C1298 1.415 . S
H1300 C1297 0.999 . S
H1301 C1282 0.913 . S
H1302 C1320 0.951 . S
H1303 C1322 0.951 . S
H1304 C1324 0.950 . S
H1305 C1325 0.950 . S
H1306 C1327 0.950 . S
H1307 C1330 0.950 . S
H1308 C1331 0.950 . S
H1309 C1333 0.950 . S
H1310 C1334 0.950 . S
H1311 C1335 0.951 . S
H1312 C1337 0.951 . S
H1313 C1339 0.950 . S
H1314 C1340 0.950 . S
H1315 C1342 0.950 . S
H1316 C1345 0.950 . S
H1317 C1346 0.950 . S
H1318 C1348 0.950 . S
H1319 C1349 0.950 . S
C1320 H1302 0.951 . S
C1320 C1321 1.366 . S
C1320 C1322 1.388 . S
C1321 C1320 1.366 . S
C1321 C1325 1.385 . S
C1322 H1303 0.951 . S
C1322 C1320 1.388 . S
C1322 C1323 1.366 . S
C1323 C1322 1.366 . S
C1323 C1324 1.414 . S
C1323 C1326 1.499 . S
C1324 H1304 0.950 . S
C1324 C1323 1.414 . S
C1324 C1325 1.374 . S
C1325 H1305 0.950 . S
C1325 C1321 1.385 . S
C1325 C1324 1.374 . S
C1326 C1323 1.499 . S
C1326 C1327 1.373 . S
C1326 C1328 1.389 . S
C1327 H1306 0.950 . S
C1327 C1326 1.373 . S
C1327 C1343 1.377 . S
C1328 C1326 1.389 . S
C1328 C1329 1.524 . S
C1328 C1342 1.377 . S
C1329 C1328 1.524 . S
C1329 C1330 1.397 . S
C1329 C1334 1.363 . S
C1330 H1307 0.950 . S
C1330 C1329 1.397 . S
C1330 C1331 1.334 . S
C1331 H1308 0.950 . S
C1331 C1330 1.334 . S
C1331 C1332 1.287 . S
C1332 C1331 1.287 . S
C1332 C1333 1.524 . S
C1332 H1351 0.913 . S
C1333 H1309 0.950 . S
C1333 C1332 1.524 . S
C1333 C1334 1.415 . S
C1334 H1310 0.950 . S
C1334 C1329 1.363 . S
C1334 C1333 1.415 . S
C1335 H1311 0.951 . S
C1335 C1336 1.366 . S
C1335 C1337 1.388 . S
C1336 C1335 1.366 . S
C1336 C1340 1.385 . S
C1337 H1312 0.951 . S
C1337 C1335 1.388 . S
C1337 C1338 1.366 . S
C1338 C1337 1.366 . S
C1338 C1339 1.414 . S
C1338 C1341 1.499 . S
C1339 H1313 0.950 . S
C1339 C1338 1.414 . S
C1339 C1340 1.374 . S
C1340 H1314 0.950 . S
C1340 C1336 1.385 . S
C1340 C1339 1.374 . S
C1341 C1338 1.499 . S
C1341 C1342 1.373 . S
C1341 C1343 1.389 . S
C1342 H1315 0.950 . S
C1342 C1328 1.377 . S
C1342 C1341 1.373 . S
C1343 C1327 1.377 . S
C1343 C1341 1.389 . S
C1343 C1344 1.524 . S
C1344 C1343 1.524 . S
C1344 C1345 1.397 . S
C1344 C1349 1.363 . S
C1345 H1316 0.950 . S
C1345 C1344 1.397 . S
C1345 C1346 1.334 . S
C1346 H1317 0.950 . S
C1346 C1345 1.334 . S
C1346 C1347 1.287 . S
C1347 C1346 1.287 . S
C1347 C1348 1.524 . S
C1347 H1350 0.999 . S
C1348 H1318 0.950 . S
C1348 C1347 1.524 . S
C1348 C1349 1.415 . S
C1349 H1319 0.950 . S
C1349 C1344 1.363 . S
C1349 C1348 1.415 . S
H1350 C1347 0.999 . S
H1351 C1332 0.913 . S
H1352 C1370 0.951 . S
H1353 C1372 0.951 . S
H1354 C1374 0.950 . S
H1355 C1375 0.950 . S
H1356 C1377 0.950 . S
H1357 C1380 0.950 . S
H1358 C1381 0.950 . S
H1359 C1383 0.950 . S
H1360 C1384 0.950 . S
H1361 C1385 0.951 . S
H1362 C1387 0.951 . S
H1363 C1389 0.950 . S
H1364 C1390 0.950 . S
H1365 C1392 0.950 . S
H1366 C1395 0.950 . S
H1367 C1396 0.950 . S
H1368 C1398 0.950 . S
H1369 C1399 0.950 . S
C1370 H1352 0.951 . S
C1370 C1371 1.366 . S
C1370 C1372 1.388 . S
C1371 C1370 1.366 . S
C1371 C1375 1.385 . S
C1372 H1353 0.951 . S
C1372 C1370 1.388 . S
C1372 C1373 1.366 . S
C1373 C1372 1.366 . S
C1373 C1374 1.414 . S
C1373 C1376 1.499 . S
C1374 H1354 0.950 . S
C1374 C1373 1.414 . S
C1374 C1375 1.374 . S
C1375 H1355 0.950 . S
C1375 C1371 1.385 . S
C1375 C1374 1.374 . S
C1376 C1373 1.499 . S
C1376 C1377 1.373 . S
C1376 C1378 1.389 . S
C1377 H1356 0.950 . S
C1377 C1376 1.373 . S
C1377 C1393 1.377 . S
C1378 C1376 1.389 . S
C1378 C1379 1.524 . S
C1378 C1392 1.377 . S
C1379 C1378 1.524 . S
C1379 C1380 1.397 . S
C1379 C1384 1.363 . S
C1380 H1357 0.950 . S
C1380 C1379 1.397 . S
C1380 C1381 1.334 . S
C1381 H1358 0.950 . S
C1381 C1380 1.334 . S
C1381 C1382 1.287 . S
C1382 C1381 1.287 . S
C1382 C1383 1.524 . S
C1382 H1401 0.913 . S
C1383 H1359 0.950 . S
C1383 C1382 1.524 . S
C1383 C1384 1.415 . S
C1384 H1360 0.950 . S
C1384 C1379 1.363 . S
C1384 C1383 1.415 . S
C1385 H1361 0.951 . S
C1385 C1386 1.366 . S
C1385 C1387 1.388 . S
C1386 C1385 1.366 . S
C1386 C1390 1.385 . S
C1387 H1362 0.951 . S
C1387 C1385 1.388 . S
C1387 C1388 1.366 . S
C1388 C1387 1.366 . S
C1388 C1389 1.414 . S
C1388 C1391 1.499 . S
C1389 H1363 0.950 . S
C1389 C1388 1.414 . S
C1389 C1390 1.374 . S
C1390 H1364 0.950 . S
C1390 C1386 1.385 . S
C1390 C1389 1.374 . S
C1391 C1388 1.499 . S
C1391 C1392 1.373 . S
C1391 C1393 1.389 . S
C1392 H1365 0.950 . S
C1392 C1378 1.377 . S
C1392 C1391 1.373 . S
C1393 C1377 1.377 . S
C1393 C1391 1.389 . S
C1393 C1394 1.524 . S
C1394 C1393 1.524 . S
C1394 C1395 1.397 . S
C1394 C1399 1.363 . S
C1395 H1366 0.950 . S
C1395 C1394 1.397 . S
C1395 C1396 1.334 . S
C1396 H1367 0.950 . S
C1396 C1395 1.334 . S
C1396 C1397 1.287 . S
C1397 C1396 1.287 . S
C1397 C1398 1.524 . S
C1397 H1400 0.999 . S
C1398 H1368 0.950 . S
C1398 C1397 1.524 . S
C1398 C1399 1.415 . S
C1399 H1369 0.950 . S
C1399 C1394 1.363 . S
C1399 C1398 1.415 . S
H1400 C1397 0.999 . S
H1401 C1382 0.913 . S
H1402 C1420 0.951 . S
H1403 C1422 0.951 . S
H1404 C1424 0.950 . S
H1405 C1425 0.950 . S
H1406 C1427 0.950 . S
H1407 C1430 0.950 . S
H1408 C1431 0.950 . S
H1409 C1433 0.950 . S
H1410 C1434 0.950 . S
H1411 C1435 0.951 . S
H1412 C1437 0.951 . S
H1413 C1439 0.950 . S
H1414 C1440 0.950 . S
H1415 C1442 0.950 . S
H1416 C1445 0.950 . S
H1417 C1446 0.950 . S
H1418 C1448 0.950 . S
H1419 C1449 0.950 . S
C1420 H1402 0.951 . S
C1420 C1421 1.366 . S
C1420 C1422 1.388 . S
C1421 C1420 1.366 . S
C1421 C1425 1.385 . S
C1422 H1403 0.951 . S
C1422 C1420 1.388 . S
C1422 C1423 1.366 . S
C1423 C1422 1.366 . S
C1423 C1424 1.414 . S
C1423 C1426 1.499 . S
C1424 H1404 0.950 . S
C1424 C1423 1.414 . S
C1424 C1425 1.374 . S
C1425 H1405 0.950 . S
C1425 C1421 1.385 . S
C1425 C1424 1.374 . S
C1426 C1423 1.499 . S
C1426 C1427 1.373 . S
C1426 C1428 1.389 . S
C1427 H1406 0.950 . S
C1427 C1426 1.373 . S
C1427 C1443 1.377 . S
C1428 C1426 1.389 . S
C1428 C1429 1.524 . S
C1428 C1442 1.377 . S
C1429 C1428 1.524 . S
C1429 C1430 1.397 . S
C1429 C1434 1.363 . S
C1430 H1407 0.950 . S
C1430 C1429 1.397 . S
C1430 C1431 1.334 . S
C1431 H1408 0.950 . S
C1431 C1430 1.334 . S
C1431 C1432 1.287 . S
C1432 C1431 1.287 . S
C1432 C1433 1.524 . S
C1432 H1451 0.913 . S
C1433 H1409 0.950 . S
C1433 C1432 1.524 . S
C1433 C1434 1.415 . S
C1434 H1410 0.950 . S
C1434 C1429 1.363 . S
C1434 C1433 1.415 . S
C1435 H1411 0.951 . S
C1435 C1436 1.366 . S
C1435 C1437 1.388 . S
C1436 C1435 1.366 . S
C1436 C1440 1.385 . S
C1437 H1412 0.951 . S
C1437 C1435 1.388 . S
C1437 C1438 1.366 . S
C1438 C1437 1.366 . S
C1438 C1439 1.414 . S
C1438 C1441 1.499 . S
C1439 H1413 0.950 . S
C1439 C1438 1.414 . S
C1439 C1440 1.374 . S
C1440 H1414 0.950 . S
C1440 C1436 1.385 . S
C1440 C1439 1.374 . S
C1441 C1438 1.499 . S
C1441 C1442 1.373 . S
C1441 C1443 1.389 . S
C1442 H1415 0.950 . S
C1442 C1428 1.377 . S
C1442 C1441 1.373 . S
C1443 C1427 1.377 . S
C1443 C1441 1.389 . S
C1443 C1444 1.524 . S
C1444 C1443 1.524 . S
C1444 C1445 1.397 . S
C1444 C1449 1.363 . S
C1445 H1416 0.950 . S
C1445 C1444 1.397 . S
C1445 C1446 1.334 . S
C1446 H1417 0.950 . S
C1446 C1445 1.334 . S
C1446 C1447 1.287 . S
C1447 C1446 1.287 . S
C1447 C1448 1.524 . S
C1447 H1450 0.999 . S
C1448 H1418 0.950 . S
C1448 C1447 1.524 . S
C1448 C1449 1.415 . S
C1449 H1419 0.950 . S
C1449 C1444 1.363 . S
C1449 C1448 1.415 . S
H1450 C1447 0.999 . S
H1451 C1432 0.913 . S
H1452 C1470 0.951 . S
H1453 C1472 0.951 . S
H1454 C1474 0.950 . S
H1455 C1475 0.950 . S
H1456 C1477 0.950 . S
H1457 C1480 0.950 . S
H1458 C1481 0.950 . S
H1459 C1483 0.950 . S
H1460 C1484 0.950 . S
H1461 C1485 0.951 . S
H1462 C1487 0.951 . S
H1463 C1489 0.950 . S
H1464 C1490 0.950 . S
H1465 C1492 0.950 . S
H1466 C1495 0.950 . S
H1467 C1496 0.950 . S
H1468 C1498 0.950 . S
H1469 C1499 0.950 . S
C1470 H1452 0.951 . S
C1470 C1471 1.366 . S
C1470 C1472 1.388 . S
C1471 C1470 1.366 . S
C1471 C1475 1.385 . S
C1472 H1453 0.951 . S
C1472 C1470 1.388 . S
C1472 C1473 1.366 . S
C1473 C1472 1.366 . S
C1473 C1474 1.414 . S
C1473 C1476 1.499 . S
C1474 H1454 0.950 . S
C1474 C1473 1.414 . S
C1474 C1475 1.374 . S
C1475 H1455 0.950 . S
C1475 C1471 1.385 . S
C1475 C1474 1.374 . S
C1476 C1473 1.499 . S
C1476 C1477 1.373 . S
C1476 C1478 1.389 . S
C1477 H1456 0.950 . S
C1477 C1476 1.373 . S
C1477 C1493 1.377 . S
C1478 C1476 1.389 . S
C1478 C1479 1.524 . S
C1478 C1492 1.377 . S
C1479 C1478 1.524 . S
C1479 C1480 1.397 . S
C1479 C1484 1.363 . S
C1480 H1457 0.950 . S
C1480 C1479 1.397 . S
C1480 C1481 1.334 . S
C1481 H1458 0.950 . S
C1481 C1480 1.334 . S
C1481 C1482 1.287 . S
C1482 C1481 1.287 . S
C1482 C1483 1.524 . S
C1482 H1501 0.913 . S
C1483 H1459 0.950 . S
C1483 C1482 1.524 . S
C1483 C1484 1.415 . S
C1484 H1460 0.950 . S
C1484 C1479 1.363 . S
C1484 C1483 1.415 . S
C1485 H1461 0.951 . S
C1485 C1486 1.366 . S
C1485 C1487 1.388 . S
C1486 C1485 1.366 . S
C1486 C1490 1.385 . S
C1487 H1462 0.951 . S
C1487 C1485 1.388 . S
C1487 C1488 1.366 . S
C1488 C1487 1.366 . S
C1488 C1489 1.414 . S
C1488 C1491 1.499 . S
C1489 H1463 0.950 . S
C1489 C1488 1.414 . S
C1489 C1490 1.374 . S
C1490 H1464 0.950 . S
C1490 C1486 1.385 . S
C1490 C1489 1.374 . S
C1491 C1488 1.499 . S
C1491 C1492 1.373 . S
C1491 C1493 1.389 . S
C1492 H1465 0.950 . S
C1492 C1478 1.377 . S
C1492 C1491 1.373 . S
C1493 C1477 1.377 . S
C1493 C1491 1.389 . S
C1493 C1494 1.524 . S
C1494 C1493 1.524 . S
C1494 C1495 1.397 . S
C1494 C1499 1.363 . S
C1495 H1466 0.950 . S
C1495 C1494 1.397 . S
C1495 C1496 1.334 . S
C1496 H1467 0.950 . S
C1496 C1495 1.334 . S
C1496 C1497 1.287 . S
C1497 C1496 1.287 . S
C1497 C1498 1.524 . S
C1497 H1500 0.999 . S
C1498 H1468 0.950 . S
C1498 C1497 1.524 . S
C1498 C1499 1.415 . S
C1499 H1469 0.950 . S
C1499 C1494 1.363 . S
C1499 C1498 1.415 . S
H1500 C1497 0.999 . S
H1501 C1482 0.913 . S
H1502 C1520 0.951 . S
H1503 C1522 0.951 . S
H1504 C1524 0.950 . S
H1505 C1525 0.950 . S
H1506 C1527 0.950 . S
H1507 C1530 0.950 . S
H1508 C1531 0.950 . S
H1509 C1533 0.950 . S
H1510 C1534 0.950 . S
H1511 C1535 0.951 . S
H1512 C1537 0.951 . S
H1513 C1539 0.950 . S
H1514 C1540 0.950 . S
H1515 C1542 0.950 . S
H1516 C1545 0.950 . S
H1517 C1546 0.950 . S
H1518 C1548 0.950 . S
H1519 C1549 0.950 . S
C1520 H1502 0.951 . S
C1520 C1521 1.366 . S
C1520 C1522 1.388 . S
C1521 C1520 1.366 . S
C1521 C1525 1.385 . S
C1522 H1503 0.951 . S
C1522 C1520 1.388 . S
C1522 C1523 1.366 . S
C1523 C1522 1.366 . S
C1523 C1524 1.414 . S
C1523 C1526 1.499 . S
C1524 H1504 0.950 . S
C1524 C1523 1.414 . S
C1524 C1525 1.374 . S
C1525 H1505 0.950 . S
C1525 C1521 1.385 . S
C1525 C1524 1.374 . S
C1526 C1523 1.499 . S
C1526 C1527 1.373 . S
C1526 C1528 1.389 . S
C1527 H1506 0.950 . S
C1527 C1526 1.373 . S
C1527 C1543 1.377 . S
C1528 C1526 1.389 . S
C1528 C1529 1.524 . S
C1528 C1542 1.377 . S
C1529 C1528 1.524 . S
C1529 C1530 1.397 . S
C1529 C1534 1.363 . S
C1530 H1507 0.950 . S
C1530 C1529 1.397 . S
C1530 C1531 1.334 . S
C1531 H1508 0.950 . S
C1531 C1530 1.334 . S
C1531 C1532 1.287 . S
C1532 C1531 1.287 . S
C1532 C1533 1.524 . S
C1532 H1551 0.913 . S
C1533 H1509 0.950 . S
C1533 C1532 1.524 . S
C1533 C1534 1.415 . S
C1534 H1510 0.950 . S
C1534 C1529 1.363 . S
C1534 C1533 1.415 . S
C1535 H1511 0.951 . S
C1535 C1536 1.366 . S
C1535 C1537 1.388 . S
C1536 C1535 1.366 . S
C1536 C1540 1.385 . S
C1537 H1512 0.951 . S
C1537 C1535 1.388 . S
C1537 C1538 1.366 . S
C1538 C1537 1.366 . S
C1538 C1539 1.414 . S
C1538 C1541 1.499 . S
C1539 H1513 0.950 . S
C1539 C1538 1.414 . S
C1539 C1540 1.374 . S
C1540 H1514 0.950 . S
C1540 C1536 1.385 . S
C1540 C1539 1.374 . S
C1541 C1538 1.499 . S
C1541 C1542 1.373 . S
C1541 C1543 1.389 . S
C1542 H1515 0.950 . S
C1542 C1528 1.377 . S
C1542 C1541 1.373 . S
C1543 C1527 1.377 . S
C1543 C1541 1.389 . S
C1543 C1544 1.524 . S
C1544 C1543 1.524 . S
C1544 C1545 1.397 . S
C1544 C1549 1.363 . S
C1545 H1516 0.950 . S
C1545 C1544 1.397 . S
C1545 C1546 1.334 . S
C1546 H1517 0.950 . S
C1546 C1545 1.334 . S
C1546 C1547 1.287 . S
C1547 C1546 1.287 . S
C1547 C1548 1.524 . S
C1547 H1550 0.999 . S
C1548 H1518 0.950 . S
C1548 C1547 1.524 . S
C1548 C1549 1.415 . S
C1549 H1519 0.950 . S
C1549 C1544 1.363 . S
C1549 C1548 1.415 . S
H1550 C1547 0.999 . S
H1551 C1532 0.913 . S
H1552 C1570 0.951 . S
H1553 C1572 0.951 . S
H1554 C1574 0.950 . S
H1555 C1575 0.950 . S
H1556 C1577 0.950 . S
H1557 C1580 0.950 . S
H1558 C1581 0.950 . S
H1559 C1583 0.950 . S
H1560 C1584 0.950 . S
H1561 C1585 0.951 . S
H1562 C1587 0.951 . S
H1563 C1589 0.950 . S
H1564 C1590 0.950 . S
H1565 C1592 0.950 . S
H1566 C1595 0.950 . S
H1567 C1596 0.950 . S
H1568 C1598 0.950 . S
H1569 C1599 0.950 . S
C1570 H1552 0.951 . S
C1570 C1571 1.366 . S
C1570 C1572 1.388 . S
C1571 C1570 1.366 . S
C1571 C1575 1.385 . S
C1572 H1553 0.951 . S
C1572 C1570 1.388 . S
C1572 C1573 1.366 . S
C1573 C1572 1.366 . S
C1573 C1574 1.414 . S
C1573 C1576 1.499 . S
C1574 H1554 0.950 . S
C1574 C1573 1.414 . S
C1574 C1575 1.374 . S
C1575 H1555 0.950 . S
C1575 C1571 1.385 . S
C1575 C1574 1.374 . S
C1576 C1573 1.499 . S
C1576 C1577 1.373 . S
C1576 C1578 1.389 . S
C1577 H1556 0.950 . S
C1577 C1576 1.373 . S
C1577 C1593 1.377 . S
C1578 C1576 1.389 . S
C1578 C1579 1.524 . S
C1578 C1592 1.377 . S
C1579 C1578 1.524 . S
C1579 C1580 1.397 . S
C1579 C1584 1.363 . S
C1580 H1557 0.950 . S
C1580 C1579 1.397 . S
C1580 C1581 1.334 . S
C1581 H1558 0.950 . S
C1581 C1580 1.334 . S
C1581 C1582 1.287 . S
C1582 C1581 1.287 . S
C1582 C1583 1.524 . S
C1582 H1601 0.913 . S
C1583 H1559 0.950 . S
C1583 C1582 1.524 . S
C1583 C1584 1.415 . S
C1584 H1560 0.950 . S
C1584 C1579 1.363 . S
C1584 C1583 1.415 . S
C1585 H1561 0.951 . S
C1585 C1586 1.366 . S
C1585 C1587 1.388 . S
C1586 C1585 1.366 . S
C1586 C1590 1.385 . S
C1587 H1562 0.951 . S
C1587 C1585 1.388 . S
C1587 C1588 1.366 . S
C1588 C1587 1.366 . S
C1588 C1589 1.414 . S
C1588 C1591 1.499 . S
C1589 H1563 0.950 . S
C1589 C1588 1.414 . S
C1589 C1590 1.374 . S
C1590 H1564 0.950 . S
C1590 C1586 1.385 . S
C1590 C1589 1.374 . S
C1591 C1588 1.499 . S
C1591 C1592 1.373 . S
C1591 C1593 1.389 . S
C1592 H1565 0.950 . S
C1592 C1578 1.377 . S
C1592 C1591 1.373 . S
C1593 C1577 1.377 . S
C1593 C1591 1.389 . S
C1593 C1594 1.524 . S
C1594 C1593 1.524 . S
C1594 C1595 1.397 . S
C1594 C1599 1.363 . S
C1595 H1566 0.950 . S
C1595 C1594 1.397 . S
C1595 C1596 1.334 . S
C1596 H1567 0.950 . S
C1596 C1595 1.334 . S
C1596 C1597 1.287 . S
C1597 C1596 1.287 . S
C1597 C1598 1.524 . S
C1597 H1600 0.999 . S
C1598 H1568 0.950 . S
C1598 C1597 1.524 . S
C1598 C1599 1.415 . S
C1599 H1569 0.950 . S
C1599 C1594 1.363 . S
C1599 C1598 1.415 . S
H1600 C1597 0.999 . S
H1601 C1582 0.913 . S
H1602 C1620 0.951 . S
H1603 C1622 0.951 . S
H1604 C1624 0.950 . S
H1605 C1625 0.950 . S
H1606 C1627 0.950 . S
H1607 C1630 0.950 . S
H1608 C1631 0.950 . S
H1609 C1633 0.950 . S
H1610 C1634 0.950 . S
H1611 C1635 0.951 . S
H1612 C1637 0.951 . S
H1613 C1639 0.950 . S
H1614 C1640 0.950 . S
H1615 C1642 0.950 . S
H1616 C1645 0.950 . S
H1617 C1646 0.950 . S
H1618 C1648 0.950 . S
H1619 C1649 0.950 . S
C1620 H1602 0.951 . S
C1620 C1621 1.366 . S
C1620 C1622 1.388 . S
C1621 C1620 1.366 . S
C1621 C1625 1.385 . S
C1622 H1603 0.951 . S
C1622 C1620 1.388 . S
C1622 C1623 1.366 . S
C1623 C1622 1.366 . S
C1623 C1624 1.414 . S
C1623 C1626 1.499 . S
C1624 H1604 0.950 . S
C1624 C1623 1.414 . S
C1624 C1625 1.374 . S
C1625 H1605 0.950 . S
C1625 C1621 1.385 . S
C1625 C1624 1.374 . S
C1626 C1623 1.499 . S
C1626 C1627 1.373 . S
C1626 C1628 1.389 . S
C1627 H1606 0.950 . S
C1627 C1626 1.373 . S
C1627 C1643 1.377 . S
C1628 C1626 1.389 . S
C1628 C1629 1.524 . S
C1628 C1642 1.377 . S
C1629 C1628 1.524 . S
C1629 C1630 1.397 . S
C1629 C1634 1.363 . S
C1630 H1607 0.950 . S
C1630 C1629 1.397 . S
C1630 C1631 1.334 . S
C1631 H1608 0.950 . S
C1631 C1630 1.334 . S
C1631 C1632 1.287 . S
C1632 C1631 1.287 . S
C1632 C1633 1.524 . S
C1632 H1651 0.913 . S
C1633 H1609 0.950 . S
C1633 C1632 1.524 . S
C1633 C1634 1.415 . S
C1634 H1610 0.950 . S
C1634 C1629 1.363 . S
C1634 C1633 1.415 . S
C1635 H1611 0.951 . S
C1635 C1636 1.366 . S
C1635 C1637 1.388 . S
C1636 C1635 1.366 . S
C1636 C1640 1.385 . S
C1637 H1612 0.951 . S
C1637 C1635 1.388 . S
C1637 C1638 1.366 . S
C1638 C1637 1.366 . S
C1638 C1639 1.414 . S
C1638 C1641 1.499 . S
C1639 H1613 0.950 . S
C1639 C1638 1.414 . S
C1639 C1640 1.374 . S
C1640 H1614 0.950 . S
C1640 C1636 1.385 . S
C1640 C1639 1.374 . S
C1641 C1638 1.499 . S
C1641 C1642 1.373 . S
C1641 C1643 1.389 . S
C1642 H1615 0.950 . S
C1642 C1628 1.377 . S
C1642 C1641 1.373 . S
C1643 C1627 1.377 . S
C1643 C1641 1.389 . S
C1643 C1644 1.524 . S
C1644 C1643 1.524 . S
C1644 C1645 1.397 . S
C1644 C1649 1.363 . S
C1645 H1616 0.950 . S
C1645 C1644 1.397 . S
C1645 C1646 1.334 . S
C1646 H1617 0.950 . S
C1646 C1645 1.334 . S
C1646 C1647 1.287 . S
C1647 C1646 1.287 . S
C1647 C1648 1.524 . S
C1647 H1650 0.999 . S
C1648 H1618 0.950 . S
C1648 C1647 1.524 . S
C1648 C1649 1.415 . S
C1649 H1619 0.950 . S
C1649 C1644 1.363 . S
C1649 C1648 1.415 . S
H1650 C1647 0.999 . S
H1651 C1632 0.913 . S
H1652 C1670 0.951 . S
H1653 C1672 0.951 . S
H1654 C1674 0.950 . S
H1655 C1675 0.950 . S
H1656 C1677 0.950 . S
H1657 C1680 0.950 . S
H1658 C1681 0.950 . S
H1659 C1683 0.950 . S
H1660 C1684 0.950 . S
H1661 C1685 0.951 . S
H1662 C1687 0.951 . S
H1663 C1689 0.950 . S
H1664 C1690 0.950 . S
H1665 C1692 0.950 . S
H1666 C1695 0.950 . S
H1667 C1696 0.950 . S
H1668 C1698 0.950 . S
H1669 C1699 0.950 . S
C1670 H1652 0.951 . S
C1670 C1671 1.366 . S
C1670 C1672 1.388 . S
C1671 C1670 1.366 . S
C1671 C1675 1.385 . S
C1672 H1653 0.951 . S
C1672 C1670 1.388 . S
C1672 C1673 1.366 . S
C1673 C1672 1.366 . S
C1673 C1674 1.414 . S
C1673 C1676 1.499 . S
C1674 H1654 0.950 . S
C1674 C1673 1.414 . S
C1674 C1675 1.374 . S
C1675 H1655 0.950 . S
C1675 C1671 1.385 . S
C1675 C1674 1.374 . S
C1676 C1673 1.499 . S
C1676 C1677 1.373 . S
C1676 C1678 1.389 . S
C1677 H1656 0.950 . S
C1677 C1676 1.373 . S
C1677 C1693 1.377 . S
C1678 C1676 1.389 . S
C1678 C1679 1.524 . S
C1678 C1692 1.377 . S
C1679 C1678 1.524 . S
C1679 C1680 1.397 . S
C1679 C1684 1.363 . S
C1680 H1657 0.950 . S
C1680 C1679 1.397 . S
C1680 C1681 1.334 . S
C1681 H1658 0.950 . S
C1681 C1680 1.334 . S
C1681 C1682 1.287 . S
C1682 C1681 1.287 . S
C1682 C1683 1.524 . S
C1682 H1701 0.913 . S
C1683 H1659 0.950 . S
C1683 C1682 1.524 . S
C1683 C1684 1.415 . S
C1684 H1660 0.950 . S
C1684 C1679 1.363 . S
C1684 C1683 1.415 . S
C1685 H1661 0.951 . S
C1685 C1686 1.366 . S
C1685 C1687 1.388 . S
C1686 C1685 1.366 . S
C1686 C1690 1.385 . S
C1687 H1662 0.951 . S
C1687 C1685 1.388 . S
C1687 C1688 1.366 . S
C1688 C1687 1.366 . S
C1688 C1689 1.414 . S
C1688 C1691 1.499 . S
C1689 H1663 0.950 . S
C1689 C1688 1.414 . S
C1689 C1690 1.374 . S
C1690 H1664 0.950 . S
C1690 C1686 1.385 . S
C1690 C1689 1.374 . S
C1691 C1688 1.499 . S
C1691 C1692 1.373 . S
C1691 C1693 1.389 . S
C1692 H1665 0.950 . S
C1692 C1678 1.377 . S
C1692 C1691 1.373 . S
C1693 C1677 1.377 . S
C1693 C1691 1.389 . S
C1693 C1694 1.524 . S
C1694 C1693 1.524 . S
C1694 C1695 1.397 . S
C1694 C1699 1.363 . S
C1695 H1666 0.950 . S
C1695 C1694 1.397 . S
C1695 C1696 1.334 . S
C1696 H1667 0.950 . S
C1696 C1695 1.334 . S
C1696 C1697 1.287 . S
C1697 C1696 1.287 . S
C1697 C1698 1.524 . S
C1697 H1700 0.999 . S
C1698 H1668 0.950 . S
C1698 C1697 1.524 . S
C1698 C1699 1.415 . S
C1699 H1669 0.950 . S
C1699 C1694 1.363 . S
C1699 C1698 1.415 . S
H1700 C1697 0.999 . S
H1701 C1682 0.913 . S
H1702 C1720 0.951 . S
H1703 C1722 0.951 . S
H1704 C1724 0.950 . S
H1705 C1725 0.950 . S
H1706 C1727 0.950 . S
H1707 C1730 0.950 . S
H1708 C1731 0.950 . S
H1709 C1733 0.950 . S
H1710 C1734 0.950 . S
H1711 C1735 0.951 . S
H1712 C1737 0.951 . S
H1713 C1739 0.950 . S
H1714 C1740 0.950 . S
H1715 C1742 0.950 . S
H1716 C1745 0.950 . S
H1717 C1746 0.950 . S
H1718 C1748 0.950 . S
H1719 C1749 0.950 . S
C1720 H1702 0.951 . S
C1720 C1721 1.366 . S
C1720 C1722 1.388 . S
C1721 C1720 1.366 . S
C1721 C1725 1.385 . S
C1722 H1703 0.951 . S
C1722 C1720 1.388 . S
C1722 C1723 1.366 . S
C1723 C1722 1.366 . S
C1723 C1724 1.414 . S
C1723 C1726 1.499 . S
C1724 H1704 0.950 . S
C1724 C1723 1.414 . S
C1724 C1725 1.374 . S
C1725 H1705 0.950 . S
C1725 C1721 1.385 . S
C1725 C1724 1.374 . S
C1726 C1723 1.499 . S
C1726 C1727 1.373 . S
C1726 C1728 1.389 . S
C1727 H1706 0.950 . S
C1727 C1726 1.373 . S
C1727 C1743 1.377 . S
C1728 C1726 1.389 . S
C1728 C1729 1.524 . S
C1728 C1742 1.377 . S
C1729 C1728 1.524 . S
C1729 C1730 1.397 . S
C1729 C1734 1.363 . S
C1730 H1707 0.950 . S
C1730 C1729 1.397 . S
C1730 C1731 1.334 . S
C1731 H1708 0.950 . S
C1731 C1730 1.334 . S
C1731 C1732 1.287 . S
C1732 C1731 1.287 . S
C1732 C1733 1.524 . S
C1732 H1751 0.913 . S
C1733 H1709 0.950 . S
C1733 C1732 1.524 . S
C1733 C1734 1.415 . S
C1734 H1710 0.950 . S
C1734 C1729 1.363 . S
C1734 C1733 1.415 . S
C1735 H1711 0.951 . S
C1735 C1736 1.366 . S
C1735 C1737 1.388 . S
C1736 C1735 1.366 . S
C1736 C1740 1.385 . S
C1737 H1712 0.951 . S
C1737 C1735 1.388 . S
C1737 C1738 1.366 . S
C1738 C1737 1.366 . S
C1738 C1739 1.414 . S
C1738 C1741 1.499 . S
C1739 H1713 0.950 . S
C1739 C1738 1.414 . S
C1739 C1740 1.374 . S
C1740 H1714 0.950 . S
C1740 C1736 1.385 . S
C1740 C1739 1.374 . S
C1741 C1738 1.499 . S
C1741 C1742 1.373 . S
C1741 C1743 1.389 . S
C1742 H1715 0.950 . S
C1742 C1728 1.377 . S
C1742 C1741 1.373 . S
C1743 C1727 1.377 . S
C1743 C1741 1.389 . S
C1743 C1744 1.524 . S
C1744 C1743 1.524 . S
C1744 C1745 1.397 . S
C1744 C1749 1.363 . S
C1745 H1716 0.950 . S
C1745 C1744 1.397 . S
C1745 C1746 1.334 . S
C1746 H1717 0.950 . S
C1746 C1745 1.334 . S
C1746 C1747 1.287 . S
C1747 C1746 1.287 . S
C1747 C1748 1.524 . S
C1747 H1750 0.999 . S
C1748 H1718 0.950 . S
C1748 C1747 1.524 . S
C1748 C1749 1.415 . S
C1749 H1719 0.950 . S
C1749 C1744 1.363 . S
C1749 C1748 1.415 . S
H1750 C1747 0.999 . S
H1751 C1732 0.913 . S
H1752 C1770 0.951 . S
H1753 C1772 0.951 . S
H1754 C1774 0.950 . S
H1755 C1775 0.950 . S
H1756 C1777 0.950 . S
H1757 C1780 0.950 . S
H1758 C1781 0.950 . S
H1759 C1783 0.950 . S
H1760 C1784 0.950 . S
H1761 C1785 0.951 . S
H1762 C1787 0.951 . S
H1763 C1789 0.950 . S
H1764 C1790 0.950 . S
H1765 C1792 0.950 . S
H1766 C1795 0.950 . S
H1767 C1796 0.950 . S
H1768 C1798 0.950 . S
H1769 C1799 0.950 . S
C1770 H1752 0.951 . S
C1770 C1771 1.366 . S
C1770 C1772 1.388 . S
C1771 C1770 1.366 . S
C1771 C1775 1.385 . S
C1772 H1753 0.951 . S
C1772 C1770 1.388 . S
C1772 C1773 1.366 . S
C1773 C1772 1.366 . S
C1773 C1774 1.414 . S
C1773 C1776 1.499 . S
C1774 H1754 0.950 . S
C1774 C1773 1.414 . S
C1774 C1775 1.374 . S
C1775 H1755 0.950 . S
C1775 C1771 1.385 . S
C1775 C1774 1.374 . S
C1776 C1773 1.499 . S
C1776 C1777 1.373 . S
C1776 C1778 1.389 . S
C1777 H1756 0.950 . S
C1777 C1776 1.373 . S
C1777 C1793 1.377 . S
C1778 C1776 1.389 . S
C1778 C1779 1.524 . S
C1778 C1792 1.377 . S
C1779 C1778 1.524 . S
C1779 C1780 1.397 . S
C1779 C1784 1.363 . S
C1780 H1757 0.950 . S
C1780 C1779 1.397 . S
C1780 C1781 1.334 . S
C1781 H1758 0.950 . S
C1781 C1780 1.334 . S
C1781 C1782 1.287 . S
C1782 C1781 1.287 . S
C1782 C1783 1.524 . S
C1782 H1801 0.913 . S
C1783 H1759 0.950 . S
C1783 C1782 1.524 . S
C1783 C1784 1.415 . S
C1784 H1760 0.950 . S
C1784 C1779 1.363 . S
C1784 C1783 1.415 . S
C1785 H1761 0.951 . S
C1785 C1786 1.366 . S
C1785 C1787 1.388 . S
C1786 C1785 1.366 . S
C1786 C1790 1.385 . S
C1787 H1762 0.951 . S
C1787 C1785 1.388 . S
C1787 C1788 1.366 . S
C1788 C1787 1.366 . S
C1788 C1789 1.414 . S
C1788 C1791 1.499 . S
C1789 H1763 0.950 . S
C1789 C1788 1.414 . S
C1789 C1790 1.374 . S
C1790 H1764 0.950 . S
C1790 C1786 1.385 . S
C1790 C1789 1.374 . S
C1791 C1788 1.499 . S
C1791 C1792 1.373 . S
C1791 C1793 1.389 . S
C1792 H1765 0.950 . S
C1792 C1778 1.377 . S
C1792 C1791 1.373 . S
C1793 C1777 1.377 . S
C1793 C1791 1.389 . S
C1793 C1794 1.524 . S
C1794 C1793 1.524 . S
C1794 C1795 1.397 . S
C1794 C1799 1.363 . S
C1795 H1766 0.950 . S
C1795 C1794 1.397 . S
C1795 C1796 1.334 . S
C1796 H1767 0.950 . S
C1796 C1795 1.334 . S
C1796 C1797 1.287 . S
C1797 C1796 1.287 . S
C1797 C1798 1.524 . S
C1797 H1800 0.999 . S
C1798 H1768 0.950 . S
C1798 C1797 1.524 . S
C1798 C1799 1.415 . S
C1799 H1769 0.950 . S
C1799 C1794 1.363 . S
C1799 C1798 1.415 . S
H1800 C1797 0.999 . S
H1801 C1782 0.913 . S
H1802 C1820 0.951 . S
H1803 C1822 0.951 . S
H1804 C1824 0.950 . S
H1805 C1825 0.950 . S
H1806 C1827 0.950 . S
H1807 C1830 0.950 . S
H1808 C1831 0.939 1_554 S
H1809 C1833 0.950 . S
H1810 C1834 0.950 . S
H1811 C1835 0.951 . S
H1812 C1837 0.951 . S
H1813 C1839 0.950 . S
H1814 C1840 0.950 . S
H1815 C1842 0.950 . S
H1816 C1845 0.950 . S
H1817 C1846 0.950 . S
H1818 C1848 0.950 . S
H1819 C1849 0.950 . S
C1820 H1802 0.951 . S
C1820 C1821 1.366 . S
C1820 C1822 1.388 . S
C1821 C1820 1.366 . S
C1821 C1825 1.385 . S
C1822 H1803 0.951 . S
C1822 C1820 1.388 . S
C1822 C1823 1.366 . S
C1823 C1822 1.366 . S
C1823 C1824 1.414 . S
C1823 C1826 1.499 1_554 S
C1824 H1804 0.950 . S
C1824 C1823 1.414 . S
C1824 C1825 1.374 . S
C1825 H1805 0.950 . S
C1825 C1821 1.385 . S
C1825 C1824 1.374 . S
C1826 C1823 1.499 1_556 S
C1826 C1827 1.373 . S
C1826 C1828 1.389 . S
C1827 H1806 0.950 . S
C1827 C1826 1.373 . S
C1827 C1843 1.377 . S
C1828 C1826 1.389 . S
C1828 C1829 1.524 . S
C1828 C1842 1.377 . S
C1829 C1828 1.524 . S
C1829 C1830 1.397 . S
C1829 C1834 1.363 . S
C1830 H1807 0.950 . S
C1830 C1829 1.397 . S
C1830 C1831 1.346 . S
C1831 H1808 0.939 1_556 S
C1831 C1830 1.346 . S
C1831 C1832 1.286 . S
C1832 C1831 1.286 . S
C1832 C1833 1.544 . S
C1832 H1851 0.889 1_556 S
C1833 H1809 0.950 . S
C1833 C1832 1.544 . S
C1833 C1834 1.415 . S
C1834 H1810 0.950 . S
C1834 C1829 1.363 . S
C1834 C1833 1.415 . S
C1835 H1811 0.951 . S
C1835 C1836 1.366 . S
C1835 C1837 1.388 . S
C1836 C1835 1.366 . S
C1836 C1840 1.385 . S
C1837 H1812 0.951 . S
C1837 C1835 1.388 . S
C1837 C1838 1.366 . S
C1838 C1837 1.366 . S
C1838 C1839 1.414 . S
C1838 C1841 1.499 . S
C1839 H1813 0.950 . S
C1839 C1838 1.414 . S
C1839 C1840 1.374 . S
C1840 H1814 0.950 . S
C1840 C1836 1.385 . S
C1840 C1839 1.374 . S
C1841 C1838 1.499 . S
C1841 C1842 1.373 . S
C1841 C1843 1.389 . S
C1842 H1815 0.950 . S
C1842 C1828 1.377 . S
C1842 C1841 1.373 . S
C1843 C1827 1.377 . S
C1843 C1841 1.389 . S
C1843 C1844 1.524 . S
C1844 C1843 1.524 . S
C1844 C1845 1.397 . S
C1844 C1849 1.363 . S
C1845 H1816 0.950 . S
C1845 C1844 1.397 . S
C1845 C1846 1.334 . S
C1846 H1817 0.950 . S
C1846 C1845 1.334 . S
C1846 C1847 1.287 . S
C1847 C1846 1.287 . S
C1847 C1848 1.524 . S
C1847 H1850 0.999 . S
C1848 H1818 0.950 . S
C1848 C1847 1.524 . S
C1848 C1849 1.415 . S
C1849 H1819 0.950 . S
C1849 C1844 1.363 . S
C1849 C1848 1.415 . S
H1850 C1847 0.999 . S
H1851 C1832 0.889 1_554 S
H1852 C1870 0.951 . S
H1853 C1872 0.951 . S
H1854 C1874 0.950 . S
H1855 C1875 0.950 . S
H1856 C1877 0.950 . S
H1857 C1880 0.950 . S
H1858 C1881 0.950 . S
H1859 C1883 0.950 . S
H1860 C1884 0.950 . S
H1861 C1885 0.951 . S
H1862 C1887 0.951 . S
H1863 C1889 0.950 . S
H1864 C1890 0.950 . S
H1865 C1892 0.950 . S
H1866 C1895 0.950 . S
H1867 C1896 0.950 . S
H1868 C1898 0.950 . S
H1869 C1899 0.950 . S
C1870 H1852 0.951 . S
C1870 C1871 1.366 . S
C1870 C1872 1.388 . S
C1871 C1870 1.366 . S
C1871 C1875 1.385 . S
C1872 H1853 0.951 . S
C1872 C1870 1.388 . S
C1872 C1873 1.366 . S
C1873 C1872 1.366 . S
C1873 C1874 1.414 . S
C1873 C1876 1.499 . S
C1874 H1854 0.950 . S
C1874 C1873 1.414 . S
C1874 C1875 1.374 . S
C1875 H1855 0.950 . S
C1875 C1871 1.385 . S
C1875 C1874 1.374 . S
C1876 C1873 1.499 . S
C1876 C1877 1.373 . S
C1876 C1878 1.389 . S
C1877 H1856 0.950 . S
C1877 C1876 1.373 . S
C1877 C1893 1.377 . S
C1878 C1876 1.389 . S
C1878 C1879 1.524 . S
C1878 C1892 1.377 . S
C1879 C1878 1.524 . S
C1879 C1880 1.397 . S
C1879 C1884 1.363 . S
C1880 H1857 0.950 . S
C1880 C1879 1.397 . S
C1880 C1881 1.334 . S
C1881 H1858 0.950 . S
C1881 C1880 1.334 . S
C1881 C1882 1.287 . S
C1882 C1881 1.287 . S
C1882 C1883 1.524 . S
C1882 H1901 0.913 . S
C1883 H1859 0.950 . S
C1883 C1882 1.524 . S
C1883 C1884 1.415 . S
C1884 H1860 0.950 . S
C1884 C1879 1.363 . S
C1884 C1883 1.415 . S
C1885 H1861 0.951 . S
C1885 C1886 1.366 . S
C1885 C1887 1.388 . S
C1886 C1885 1.366 . S
C1886 C1890 1.385 . S
C1887 H1862 0.951 . S
C1887 C1885 1.388 . S
C1887 C1888 1.366 . S
C1888 C1887 1.366 . S
C1888 C1889 1.414 . S
C1888 C1891 1.499 . S
C1889 H1863 0.950 . S
C1889 C1888 1.414 . S
C1889 C1890 1.374 . S
C1890 H1864 0.950 . S
C1890 C1886 1.385 . S
C1890 C1889 1.374 . S
C1891 C1888 1.499 . S
C1891 C1892 1.373 . S
C1891 C1893 1.389 . S
C1892 H1865 0.950 . S
C1892 C1878 1.377 . S
C1892 C1891 1.373 . S
C1893 C1877 1.377 . S
C1893 C1891 1.389 . S
C1893 C1894 1.524 . S
C1894 C1893 1.524 . S
C1894 C1895 1.397 . S
C1894 C1899 1.363 . S
C1895 H1866 0.950 . S
C1895 C1894 1.397 . S
C1895 C1896 1.334 . S
C1896 H1867 0.950 . S
C1896 C1895 1.334 . S
C1896 C1897 1.287 . S
C1897 C1896 1.287 . S
C1897 C1898 1.524 . S
C1897 H1900 0.999 . S
C1898 H1868 0.950 . S
C1898 C1897 1.524 . S
C1898 C1899 1.415 . S
C1899 H1869 0.950 . S
C1899 C1894 1.363 . S
C1899 C1898 1.415 . S
H1900 C1897 0.999 . S
H1901 C1882 0.913 . S
H1902 C1920 0.951 . S
H1903 C1922 0.951 . S
H1904 C1924 0.950 . S
H1905 C1925 0.950 . S
H1906 C1927 0.950 . S
H1907 C1930 0.950 . S
H1908 C1931 0.950 . S
H1909 C1933 0.950 . S
H1910 C1934 0.950 . S
H1911 C1935 0.951 . S
H1912 C1937 0.951 . S
H1913 C1939 0.950 . S
H1914 C1940 0.950 . S
H1915 C1942 0.950 . S
H1916 C1945 0.950 . S
H1917 C1946 0.950 . S
H1918 C1948 0.950 . S
H1919 C1949 0.950 . S
C1920 H1902 0.951 . S
C1920 C1921 1.366 . S
C1920 C1922 1.388 . S
C1921 C1920 1.366 . S
C1921 C1925 1.385 . S
C1922 H1903 0.951 . S
C1922 C1920 1.388 . S
C1922 C1923 1.366 . S
C1923 C1922 1.366 . S
C1923 C1924 1.414 . S
C1923 C1926 1.499 . S
C1924 H1904 0.950 . S
C1924 C1923 1.414 . S
C1924 C1925 1.374 . S
C1925 H1905 0.950 . S
C1925 C1921 1.385 . S
C1925 C1924 1.374 . S
C1926 C1923 1.499 . S
C1926 C1927 1.373 . S
C1926 C1928 1.389 . S
C1927 H1906 0.950 . S
C1927 C1926 1.373 . S
C1927 C1943 1.377 . S
C1928 C1926 1.389 . S
C1928 C1929 1.524 . S
C1928 C1942 1.377 . S
C1929 C1928 1.524 . S
C1929 C1930 1.397 . S
C1929 C1934 1.363 . S
C1930 H1907 0.950 . S
C1930 C1929 1.397 . S
C1930 C1931 1.334 . S
C1931 H1908 0.950 . S
C1931 C1930 1.334 . S
C1931 C1932 1.287 . S
C1932 C1931 1.287 . S
C1932 C1933 1.524 . S
C1932 H1951 0.913 . S
C1933 H1909 0.950 . S
C1933 C1932 1.524 . S
C1933 C1934 1.415 . S
C1934 H1910 0.950 . S
C1934 C1929 1.363 . S
C1934 C1933 1.415 . S
C1935 H1911 0.951 . S
C1935 C1936 1.366 . S
C1935 C1937 1.388 . S
C1936 C1935 1.366 . S
C1936 C1940 1.385 . S
C1937 H1912 0.951 . S
C1937 C1935 1.388 . S
C1937 C1938 1.366 . S
C1938 C1937 1.366 . S
C1938 C1939 1.414 . S
C1938 C1941 1.499 1_556 S
C1939 H1913 0.950 . S
C1939 C1938 1.414 . S
C1939 C1940 1.374 . S
C1940 H1914 0.950 . S
C1940 C1936 1.385 . S
C1940 C1939 1.374 . S
C1941 C1938 1.499 1_554 S
C1941 C1942 1.373 . S
C1941 C1943 1.389 . S
C1942 H1915 0.950 . S
C1942 C1928 1.377 . S
C1942 C1941 1.373 . S
C1943 C1927 1.377 . S
C1943 C1941 1.389 . S
C1943 C1944 1.524 . S
C1944 C1943 1.524 . S
C1944 C1945 1.397 1_554 S
C1944 C1949 1.363 . S
C1945 H1916 0.950 . S
C1945 C1944 1.397 1_556 S
C1945 C1946 1.334 . S
C1946 H1917 0.950 . S
C1946 C1945 1.334 . S
C1946 C1947 1.287 . S
C1947 C1946 1.287 . S
C1947 C1948 1.524 1_556 S
C1947 H1950 0.999 . S
C1948 H1918 0.950 . S
C1948 C1947 1.524 1_554 S
C1948 C1949 1.415 . S
C1949 H1919 0.950 . S
C1949 C1944 1.363 . S
C1949 C1948 1.415 . S
H1950 C1947 0.999 . S
H1951 C1932 0.913 . S
H1952 C1970 0.951 . S
H1953 C1972 0.951 . S
H1954 C1974 0.950 . S
H1955 C1975 0.950 . S
H1956 C1977 0.950 . S
H1957 C1980 0.950 . S
H1958 C1981 0.950 . S
H1959 C1983 0.950 . S
H1960 C1984 0.950 . S
H1961 C1985 0.951 . S
H1962 C1987 0.951 . S
H1963 C1989 0.950 . S
H1964 C1990 0.950 . S
H1965 C1992 0.950 . S
H1966 C1995 0.950 . S
H1967 C1996 0.950 . S
H1968 C1998 0.950 . S
H1969 C1999 0.950 . S
C1970 H1952 0.951 . S
C1970 C1971 1.366 . S
C1970 C1972 1.388 . S
C1971 C1970 1.366 . S
C1971 C1975 1.385 . S
C1972 H1953 0.951 . S
C1972 C1970 1.388 . S
C1972 C1973 1.366 . S
C1973 C1972 1.366 . S
C1973 C1974 1.414 . S
C1973 C1976 1.499 . S
C1974 H1954 0.950 . S
C1974 C1973 1.414 . S
C1974 C1975 1.374 . S
C1975 H1955 0.950 . S
C1975 C1971 1.385 . S
C1975 C1974 1.374 . S
C1976 C1973 1.499 . S
C1976 C1977 1.373 . S
C1976 C1978 1.389 . S
C1977 H1956 0.950 . S
C1977 C1976 1.373 . S
C1977 C1993 1.377 . S
C1978 C1976 1.389 . S
C1978 C1979 1.524 . S
C1978 C1992 1.377 . S
C1979 C1978 1.524 . S
C1979 C1980 1.397 . S
C1979 C1984 1.363 . S
C1980 H1957 0.950 . S
C1980 C1979 1.397 . S
C1980 C1981 1.334 . S
C1981 H1958 0.950 . S
C1981 C1980 1.334 . S
C1981 C1982 1.287 . S
C1982 C1981 1.287 . S
C1982 C1983 1.524 . S
C1982 H2001 0.913 . S
C1983 H1959 0.950 . S
C1983 C1982 1.524 . S
C1983 C1984 1.415 . S
C1984 H1960 0.950 . S
C1984 C1979 1.363 . S
C1984 C1983 1.415 . S
C1985 H1961 0.951 . S
C1985 C1986 1.366 . S
C1985 C1987 1.388 . S
C1986 C1985 1.366 . S
C1986 C1990 1.385 . S
C1987 H1962 0.951 . S
C1987 C1985 1.388 . S
C1987 C1988 1.366 . S
C1988 C1987 1.366 . S
C1988 C1989 1.414 . S
C1988 C1991 1.499 . S
C1989 H1963 0.950 . S
C1989 C1988 1.414 . S
C1989 C1990 1.374 . S
C1990 H1964 0.950 . S
C1990 C1986 1.385 . S
C1990 C1989 1.374 . S
C1991 C1988 1.499 . S
C1991 C1992 1.373 . S
C1991 C1993 1.389 . S
C1992 H1965 0.950 . S
C1992 C1978 1.377 . S
C1992 C1991 1.373 . S
C1993 C1977 1.377 . S
C1993 C1991 1.389 . S
C1993 C1994 1.524 . S
C1994 C1993 1.524 . S
C1994 C1995 1.397 . S
C1994 C1999 1.363 . S
C1995 H1966 0.950 . S
C1995 C1994 1.397 . S
C1995 C1996 1.334 . S
C1996 H1967 0.950 . S
C1996 C1995 1.334 . S
C1996 C1997 1.287 . S
C1997 C1996 1.287 . S
C1997 C1998 1.524 . S
C1997 H2000 0.999 . S
C1998 H1968 0.950 . S
C1998 C1997 1.524 . S
C1998 C1999 1.415 . S
C1999 H1969 0.950 . S
C1999 C1994 1.363 . S
C1999 C1998 1.415 . S
H2000 C1997 0.999 . S
H2001 C1982 0.913 . S
H2002 C2020 0.951 . S
H2003 C2022 0.975 . S
H2004 C2024 0.920 1_455 S
H2005 C2025 0.950 . S
H2006 C2027 0.950 . S
H2007 C2030 0.950 . S
H2008 C2031 0.950 . S
H2009 C2033 0.950 . S
H2010 C2034 0.950 . S
H2011 C2035 0.951 . S
H2012 C2037 0.951 . S
H2013 C2039 0.950 . S
H2014 C2040 0.950 . S
H2015 C2042 0.950 . S
H2016 C2045 0.950 . S
H2017 C2046 0.950 . S
H2018 C2048 0.950 . S
H2019 C2049 0.950 . S
C2020 H2002 0.951 . S
C2020 C2021 1.366 . S
C2020 C2022 1.388 . S
C2021 C2020 1.366 . S
C2021 C2025 1.385 . S
C2022 H2003 0.975 . S
C2022 C2020 1.388 . S
C2022 C2023 1.366 1_655 S
C2023 C2022 1.366 1_455 S
C2023 C2024 1.414 1_455 S
C2023 C2026 1.499 . S
C2024 H2004 0.920 1_655 S
C2024 C2023 1.414 1_655 S
C2024 C2025 1.374 . S
C2025 H2005 0.950 . S
C2025 C2021 1.385 . S
C2025 C2024 1.374 . S
C2026 C2023 1.499 . S
C2026 C2027 1.373 . S
C2026 C2028 1.389 . S
C2027 H2006 0.950 . S
C2027 C2026 1.373 . S
C2027 C2043 1.377 . S
C2028 C2026 1.389 . S
C2028 C2029 1.524 . S
C2028 C2042 1.377 . S
C2029 C2028 1.524 . S
C2029 C2030 1.397 . S
C2029 C2034 1.363 . S
C2030 H2007 0.950 . S
C2030 C2029 1.397 . S
C2030 C2031 1.334 . S
C2031 H2008 0.950 . S
C2031 C2030 1.334 . S
C2031 C2032 1.287 . S
C2032 C2031 1.287 . S
C2032 C2033 1.524 . S
C2032 H2051 0.913 . S
C2033 H2009 0.950 . S
C2033 C2032 1.524 . S
C2033 C2034 1.415 . S
C2034 H2010 0.950 . S
C2034 C2029 1.363 . S
C2034 C2033 1.415 . S
C2035 H2011 0.951 . S
C2035 C2036 1.366 . S
C2035 C2037 1.388 . S
C2036 C2035 1.366 . S
C2036 C2040 1.385 . S
C2037 H2012 0.951 . S
C2037 C2035 1.388 . S
C2037 C2038 1.366 . S
C2038 C2037 1.366 . S
C2038 C2039 1.414 . S
C2038 C2041 1.499 . S
C2039 H2013 0.950 . S
C2039 C2038 1.414 . S
C2039 C2040 1.374 . S
C2040 H2014 0.950 . S
C2040 C2036 1.385 . S
C2040 C2039 1.374 . S
C2041 C2038 1.499 . S
C2041 C2042 1.373 . S
C2041 C2043 1.389 . S
C2042 H2015 0.950 . S
C2042 C2028 1.377 . S
C2042 C2041 1.373 . S
C2043 C2027 1.377 . S
C2043 C2041 1.389 . S
C2043 C2044 1.524 . S
C2044 C2043 1.524 . S
C2044 C2045 1.397 . S
C2044 C2049 1.363 . S
C2045 H2016 0.950 . S
C2045 C2044 1.397 . S
C2045 C2046 1.334 . S
C2046 H2017 0.950 . S
C2046 C2045 1.334 . S
C2046 C2047 1.287 . S
C2047 C2046 1.287 . S
C2047 C2048 1.524 . S
C2047 H2050 0.999 . S
C2048 H2018 0.950 . S
C2048 C2047 1.524 . S
C2048 C2049 1.415 . S
C2049 H2019 0.950 . S
C2049 C2044 1.363 . S
C2049 C2048 1.415 . S
H2050 C2047 0.999 . S
H2051 C2032 0.913 . S
H2052 C2070 0.951 . S
H2053 C2072 0.951 1_655 S
H2054 C2074 0.950 . S
H2055 C2075 0.950 . S
H2056 C2077 0.950 . S
H2057 C2080 0.950 . S
H2058 C2081 0.950 . S
H2059 C2083 0.950 . S
H2060 C2084 0.950 . S
H2061 C2085 0.951 . S
H2062 C2087 0.951 . S
H2063 C2089 0.950 . S
H2064 C2090 0.950 . S
H2065 C2092 0.950 . S
H2066 C2095 0.950 . S
H2067 C2096 0.950 . S
H2068 C2098 0.950 . S
H2069 C2099 0.950 . S
C2070 H2052 0.951 . S
C2070 C2071 1.366 . S
C2070 C2072 1.388 . S
C2071 C2070 1.366 . S
C2071 C2075 1.385 . S
C2072 H2053 0.951 1_455 S
C2072 C2070 1.388 . S
C2072 C2073 1.366 1_455 S
C2073 C2072 1.366 1_655 S
C2073 C2074 1.414 1_655 S
C2073 C2076 1.499 . S
C2074 H2054 0.950 . S
C2074 C2073 1.414 1_455 S
C2074 C2075 1.374 . S
C2075 H2055 0.950 . S
C2075 C2071 1.385 . S
C2075 C2074 1.374 . S
C2076 C2073 1.499 . S
C2076 C2077 1.373 . S
C2076 C2078 1.389 . S
C2077 H2056 0.950 . S
C2077 C2076 1.373 . S
C2077 C2093 1.377 . S
C2078 C2076 1.389 . S
C2078 C2079 1.524 . S
C2078 C2092 1.377 . S
C2079 C2078 1.524 . S
C2079 C2080 1.397 . S
C2079 C2084 1.363 . S
C2080 H2057 0.950 . S
C2080 C2079 1.397 . S
C2080 C2081 1.334 . S
C2081 H2058 0.950 . S
C2081 C2080 1.334 . S
C2081 C2082 1.287 . S
C2082 C2081 1.287 . S
C2082 C2083 1.524 . S
C2082 H2101 0.913 . S
C2083 H2059 0.950 . S
C2083 C2082 1.524 . S
C2083 C2084 1.415 . S
C2084 H2060 0.950 . S
C2084 C2079 1.363 . S
C2084 C2083 1.415 . S
C2085 H2061 0.951 . S
C2085 C2086 1.366 . S
C2085 C2087 1.388 . S
C2086 C2085 1.366 . S
C2086 C2090 1.385 . S
C2087 H2062 0.951 . S
C2087 C2085 1.388 . S
C2087 C2088 1.366 . S
C2088 C2087 1.366 . S
C2088 C2089 1.414 . S
C2088 C2091 1.499 . S
C2089 H2063 0.950 . S
C2089 C2088 1.414 . S
C2089 C2090 1.374 . S
C2090 H2064 0.950 . S
C2090 C2086 1.385 . S
C2090 C2089 1.374 . S
C2091 C2088 1.499 . S
C2091 C2092 1.373 . S
C2091 C2093 1.389 . S
C2092 H2065 0.950 . S
C2092 C2078 1.377 . S
C2092 C2091 1.373 . S
C2093 C2077 1.377 . S
C2093 C2091 1.389 . S
C2093 C2094 1.524 . S
C2094 C2093 1.524 . S
C2094 C2095 1.397 . S
C2094 C2099 1.363 . S
C2095 H2066 0.950 . S
C2095 C2094 1.397 . S
C2095 C2096 1.334 . S
C2096 H2067 0.950 . S
C2096 C2095 1.334 . S
C2096 C2097 1.287 . S
C2097 C2096 1.287 . S
C2097 C2098 1.524 . S
C2097 H2100 0.999 . S
C2098 H2068 0.950 . S
C2098 C2097 1.524 . S
C2098 C2099 1.415 . S
C2099 H2069 0.950 . S
C2099 C2094 1.363 . S
C2099 C2098 1.415 . S
H2100 C2097 0.999 . S
H2101 C2082 0.913 . S
H2102 C2120 0.951 . S
H2103 C2122 0.951 . S
H2104 C2124 0.950 . S
H2105 C2125 0.950 . S
H2106 C2127 0.950 . S
H2107 C2130 0.950 . S
H2108 C2131 0.950 . S
H2109 C2133 0.950 . S
H2110 C2134 0.950 . S
H2111 C2135 0.951 . S
H2112 C2137 0.951 . S
H2113 C2139 0.950 . S
H2114 C2140 0.950 . S
H2115 C2142 0.950 . S
H2116 C2145 0.950 . S
H2117 C2146 0.950 . S
H2118 C2148 0.950 . S
H2119 C2149 0.950 . S
C2120 H2102 0.951 . S
C2120 C2121 1.366 . S
C2120 C2122 1.388 . S
C2121 C2120 1.366 . S
C2121 C2125 1.385 . S
C2122 H2103 0.951 . S
C2122 C2120 1.388 . S
C2122 C2123 1.366 . S
C2123 C2122 1.366 . S
C2123 C2124 1.414 . S
C2123 C2126 1.499 . S
C2124 H2104 0.950 . S
C2124 C2123 1.414 . S
C2124 C2125 1.374 . S
C2125 H2105 0.950 . S
C2125 C2121 1.385 . S
C2125 C2124 1.374 . S
C2126 C2123 1.499 . S
C2126 C2127 1.373 . S
C2126 C2128 1.389 . S
C2127 H2106 0.950 . S
C2127 C2126 1.373 . S
C2127 C2143 1.377 . S
C2128 C2126 1.389 . S
C2128 C2129 1.524 . S
C2128 C2142 1.377 . S
C2129 C2128 1.524 . S
C2129 C2130 1.397 . S
C2129 C2134 1.363 . S
C2130 H2107 0.950 . S
C2130 C2129 1.397 . S
C2130 C2131 1.334 . S
C2131 H2108 0.950 . S
C2131 C2130 1.334 . S
C2131 C2132 1.287 . S
C2132 C2131 1.287 . S
C2132 C2133 1.524 . S
C2132 H2151 0.913 . S
C2133 H2109 0.950 . S
C2133 C2132 1.524 . S
C2133 C2134 1.415 . S
C2134 H2110 0.950 . S
C2134 C2129 1.363 . S
C2134 C2133 1.415 . S
C2135 H2111 0.951 . S
C2135 C2136 1.366 . S
C2135 C2137 1.388 . S
C2136 C2135 1.366 . S
C2136 C2140 1.385 . S
C2137 H2112 0.951 . S
C2137 C2135 1.388 . S
C2137 C2138 1.366 . S
C2138 C2137 1.366 . S
C2138 C2139 1.414 . S
C2138 C2141 1.499 . S
C2139 H2113 0.950 . S
C2139 C2138 1.414 . S
C2139 C2140 1.374 . S
C2140 H2114 0.950 . S
C2140 C2136 1.385 . S
C2140 C2139 1.374 . S
C2141 C2138 1.499 . S
C2141 C2142 1.373 . S
C2141 C2143 1.389 . S
C2142 H2115 0.950 . S
C2142 C2128 1.377 . S
C2142 C2141 1.373 . S
C2143 C2127 1.377 . S
C2143 C2141 1.389 . S
C2143 C2144 1.524 . S
C2144 C2143 1.524 . S
C2144 C2145 1.397 . S
C2144 C2149 1.363 . S
C2145 H2116 0.950 . S
C2145 C2144 1.397 . S
C2145 C2146 1.334 . S
C2146 H2117 0.950 . S
C2146 C2145 1.334 . S
C2146 C2147 1.287 . S
C2147 C2146 1.287 . S
C2147 C2148 1.524 . S
C2147 H2150 0.999 . S
C2148 H2118 0.950 . S
C2148 C2147 1.524 . S
C2148 C2149 1.415 . S
C2149 H2119 0.950 . S
C2149 C2144 1.363 . S
C2149 C2148 1.415 . S
H2150 C2147 0.999 . S
H2151 C2132 0.913 . S
H2152 C2170 0.951 . S
H2153 C2172 0.951 . S
H2154 C2174 0.950 . S
H2155 C2175 0.950 . S
H2156 C2177 0.950 . S
H2157 C2180 0.950 . S
H2158 C2181 0.950 . S
H2159 C2183 0.950 . S
H2160 C2184 0.950 . S
H2161 C2185 0.951 . S
H2162 C2187 0.951 . S
H2163 C2189 0.950 . S
H2164 C2190 0.950 . S
H2165 C2192 0.950 . S
H2166 C2195 0.950 . S
H2167 C2196 0.950 . S
H2168 C2198 0.950 . S
H2169 C2199 0.950 . S
C2170 H2152 0.951 . S
C2170 C2171 1.366 . S
C2170 C2172 1.388 . S
C2171 C2170 1.366 . S
C2171 C2175 1.385 . S
C2172 H2153 0.951 . S
C2172 C2170 1.388 . S
C2172 C2173 1.366 . S
C2173 C2172 1.366 . S
C2173 C2174 1.414 . S
C2173 C2176 1.499 . S
C2174 H2154 0.950 . S
C2174 C2173 1.414 . S
C2174 C2175 1.374 . S
C2175 H2155 0.950 . S
C2175 C2171 1.385 . S
C2175 C2174 1.374 . S
C2176 C2173 1.499 . S
C2176 C2177 1.373 . S
C2176 C2178 1.389 . S
C2177 H2156 0.950 . S
C2177 C2176 1.373 . S
C2177 C2193 1.377 . S
C2178 C2176 1.389 . S
C2178 C2179 1.524 . S
C2178 C2192 1.377 . S
C2179 C2178 1.524 . S
C2179 C2180 1.397 . S
C2179 C2184 1.363 . S
C2180 H2157 0.950 . S
C2180 C2179 1.397 . S
C2180 C2181 1.334 . S
C2181 H2158 0.950 . S
C2181 C2180 1.334 . S
C2181 C2182 1.287 . S
C2182 C2181 1.287 . S
C2182 C2183 1.524 . S
C2182 H2201 0.913 . S
C2183 H2159 0.950 . S
C2183 C2182 1.524 . S
C2183 C2184 1.415 . S
C2184 H2160 0.950 . S
C2184 C2179 1.363 . S
C2184 C2183 1.415 . S
C2185 H2161 0.951 . S
C2185 C2186 1.366 . S
C2185 C2187 1.388 . S
C2186 C2185 1.366 . S
C2186 C2190 1.385 . S
C2187 H2162 0.951 . S
C2187 C2185 1.388 . S
C2187 C2188 1.366 . S
C2188 C2187 1.366 . S
C2188 C2189 1.414 . S
C2188 C2191 1.499 . S
C2189 H2163 0.950 . S
C2189 C2188 1.414 . S
C2189 C2190 1.374 . S
C2190 H2164 0.950 . S
C2190 C2186 1.385 . S
C2190 C2189 1.374 . S
C2191 C2188 1.499 . S
C2191 C2192 1.373 . S
C2191 C2193 1.389 . S
C2192 H2165 0.950 . S
C2192 C2178 1.377 . S
C2192 C2191 1.373 . S
C2193 C2177 1.377 . S
C2193 C2191 1.389 . S
C2193 C2194 1.524 . S
C2194 C2193 1.524 . S
C2194 C2195 1.397 . S
C2194 C2199 1.363 . S
C2195 H2166 0.950 . S
C2195 C2194 1.397 . S
C2195 C2196 1.334 . S
C2196 H2167 0.950 . S
C2196 C2195 1.334 . S
C2196 C2197 1.287 . S
C2197 C2196 1.287 . S
C2197 C2198 1.524 . S
C2197 H2200 0.999 . S
C2198 H2168 0.950 . S
C2198 C2197 1.524 . S
C2198 C2199 1.415 . S
C2199 H2169 0.950 . S
C2199 C2194 1.363 . S
C2199 C2198 1.415 . S
H2200 C2197 0.999 . S
H2201 C2182 0.913 . S
H2202 C2220 0.951 . S
H2203 C2222 0.951 . S
H2204 C2224 0.950 . S
H2205 C2225 0.950 . S
H2206 C2227 0.950 . S
H2207 C2230 0.950 . S
H2208 C2231 0.950 . S
H2209 C2233 0.950 . S
H2210 C2234 0.950 . S
H2211 C2235 0.951 . S
H2212 C2237 0.951 . S
H2213 C2239 0.950 . S
H2214 C2240 0.950 . S
H2215 C2242 0.950 . S
H2216 C2245 0.950 . S
H2217 C2246 0.950 . S
H2218 C2248 0.950 . S
H2219 C2249 0.950 . S
C2220 H2202 0.951 . S
C2220 C2221 1.366 . S
C2220 C2222 1.388 . S
C2221 C2220 1.366 . S
C2221 C2225 1.385 . S
C2222 H2203 0.951 . S
C2222 C2220 1.388 . S
C2222 C2223 1.366 . S
C2223 C2222 1.366 . S
C2223 C2224 1.414 . S
C2223 C2226 1.499 1_565 S
C2224 H2204 0.950 . S
C2224 C2223 1.414 . S
C2224 C2225 1.374 . S
C2225 H2205 0.950 . S
C2225 C2221 1.385 . S
C2225 C2224 1.374 . S
C2226 C2223 1.499 1_545 S
C2226 C2227 1.373 . S
C2226 C2228 1.389 . S
C2227 H2206 0.950 . S
C2227 C2226 1.373 . S
C2227 C2243 1.377 . S
C2228 C2226 1.389 . S
C2228 C2229 1.524 . S
C2228 C2242 1.377 . S
C2229 C2228 1.524 . S
C2229 C2230 1.397 1_545 S
C2229 C2234 1.363 . S
C2230 H2207 0.950 . S
C2230 C2229 1.397 1_565 S
C2230 C2231 1.334 . S
C2231 H2208 0.950 . S
C2231 C2230 1.334 . S
C2231 C2232 1.287 . S
C2232 C2231 1.287 . S
C2232 C2233 1.524 1_565 S
C2232 H2251 0.913 . S
C2233 H2209 0.950 . S
C2233 C2232 1.524 1_545 S
C2233 C2234 1.415 . S
C2234 H2210 0.950 . S
C2234 C2229 1.363 . S
C2234 C2233 1.415 . S
C2235 H2211 0.951 . S
C2235 C2236 1.366 . S
C2235 C2237 1.388 . S
C2236 C2235 1.366 . S
C2236 C2240 1.385 . S
C2237 H2212 0.951 . S
C2237 C2235 1.388 . S
C2237 C2238 1.366 . S
C2238 C2237 1.366 . S
C2238 C2239 1.414 . S
C2238 C2241 1.499 . S
C2239 H2213 0.950 . S
C2239 C2238 1.414 . S
C2239 C2240 1.374 . S
C2240 H2214 0.950 . S
C2240 C2236 1.385 . S
C2240 C2239 1.374 . S
C2241 C2238 1.499 . S
C2241 C2242 1.373 . S
C2241 C2243 1.389 . S
C2242 H2215 0.950 . S
C2242 C2228 1.377 . S
C2242 C2241 1.373 . S
C2243 C2227 1.377 . S
C2243 C2241 1.389 . S
C2243 C2244 1.524 . S
C2244 C2243 1.524 . S
C2244 C2245 1.397 . S
C2244 C2249 1.363 . S
C2245 H2216 0.950 . S
C2245 C2244 1.397 . S
C2245 C2246 1.334 . S
C2246 H2217 0.950 . S
C2246 C2245 1.334 . S
C2246 C2247 1.287 . S
C2247 C2246 1.287 . S
C2247 C2248 1.524 . S
C2247 H2250 0.999 . S
C2248 H2218 0.950 . S
C2248 C2247 1.524 . S
C2248 C2249 1.415 . S
C2249 H2219 0.950 . S
C2249 C2244 1.363 . S
C2249 C2248 1.415 . S
H2250 C2247 0.999 . S
H2251 C2232 0.913 . S
H2252 C2270 0.951 . S
H2253 C2272 0.951 . S
H2254 C2274 0.950 . S
H2255 C2275 0.950 . S
H2256 C2277 0.950 . S
H2257 C2280 0.950 . S
H2258 C2281 0.950 . S
H2259 C2283 0.950 . S
H2260 C2284 0.950 . S
H2261 C2285 0.951 . S
H2262 C2287 0.951 . S
H2263 C2289 0.950 . S
H2264 C2290 0.950 . S
H2265 C2292 0.950 . S
H2266 C2295 0.950 . S
H2267 C2296 0.950 . S
H2268 C2298 0.950 . S
H2269 C2299 0.950 . S
C2270 H2252 0.951 . S
C2270 C2271 1.366 . S
C2270 C2272 1.388 . S
C2271 C2270 1.366 . S
C2271 C2275 1.385 . S
C2272 H2253 0.951 . S
C2272 C2270 1.388 . S
C2272 C2273 1.366 . S
C2273 C2272 1.366 . S
C2273 C2274 1.414 . S
C2273 C2276 1.499 1_545 S
C2274 H2254 0.950 . S
C2274 C2273 1.414 . S
C2274 C2275 1.374 . S
C2275 H2255 0.950 . S
C2275 C2271 1.385 . S
C2275 C2274 1.374 . S
C2276 C2273 1.499 1_565 S
C2276 C2277 1.373 . S
C2276 C2278 1.389 . S
C2277 H2256 0.950 . S
C2277 C2276 1.373 . S
C2277 C2293 1.377 . S
C2278 C2276 1.389 . S
C2278 C2279 1.524 . S
C2278 C2292 1.377 . S
C2279 C2278 1.524 . S
C2279 C2280 1.397 . S
C2279 C2284 1.363 . S
C2280 H2257 0.950 . S
C2280 C2279 1.397 . S
C2280 C2281 1.334 . S
C2281 H2258 0.950 . S
C2281 C2280 1.334 . S
C2281 C2282 1.287 . S
C2282 C2281 1.287 . S
C2282 C2283 1.524 . S
C2282 H2301 0.913 . S
C2283 H2259 0.950 . S
C2283 C2282 1.524 . S
C2283 C2284 1.415 . S
C2284 H2260 0.950 . S
C2284 C2279 1.363 . S
C2284 C2283 1.415 . S
C2285 H2261 0.951 . S
C2285 C2286 1.366 . S
C2285 C2287 1.388 . S
C2286 C2285 1.366 . S
C2286 C2290 1.385 . S
C2287 H2262 0.951 . S
C2287 C2285 1.388 . S
C2287 C2288 1.366 . S
C2288 C2287 1.366 . S
C2288 C2289 1.414 . S
C2288 C2291 1.499 . S
C2289 H2263 0.950 . S
C2289 C2288 1.414 . S
C2289 C2290 1.374 . S
C2290 H2264 0.950 . S
C2290 C2286 1.385 . S
C2290 C2289 1.374 . S
C2291 C2288 1.499 . S
C2291 C2292 1.373 . S
C2291 C2293 1.389 . S
C2292 H2265 0.950 . S
C2292 C2278 1.377 . S
C2292 C2291 1.373 . S
C2293 C2277 1.377 . S
C2293 C2291 1.389 . S
C2293 C2294 1.524 . S
C2294 C2293 1.524 . S
C2294 C2295 1.397 . S
C2294 C2299 1.363 . S
C2295 H2266 0.950 . S
C2295 C2294 1.397 . S
C2295 C2296 1.334 . S
C2296 H2267 0.950 . S
C2296 C2295 1.334 . S
C2296 C2297 1.287 . S
C2297 C2296 1.287 . S
C2297 C2298 1.524 . S
C2297 H2300 0.999 . S
C2298 H2268 0.950 . S
C2298 C2297 1.524 . S
C2298 C2299 1.415 . S
C2299 H2269 0.950 . S
C2299 C2294 1.363 . S
C2299 C2298 1.415 . S
H2300 C2297 0.999 . S
H2301 C2282 0.913 . S
H2302 C2320 0.951 . S
H2303 C2322 0.951 . S
H2304 C2324 0.950 . S
H2305 C2325 0.950 . S
H2306 C2327 0.950 . S
H2307 C2330 0.950 . S
H2308 C2331 0.950 . S
H2309 C2333 0.950 . S
H2310 C2334 0.950 . S
H2311 C2335 0.951 . S
H2312 C2337 0.951 . S
H2313 C2339 0.950 . S
H2314 C2340 0.950 . S
H2315 C2342 0.950 . S
H2316 C2345 0.950 . S
H2317 C2346 0.950 . S
H2318 C2348 0.950 . S
H2319 C2349 0.950 . S
C2320 H2302 0.951 . S
C2320 C2321 1.366 . S
C2320 C2322 1.388 . S
C2321 C2320 1.366 . S
C2321 C2325 1.385 . S
C2322 H2303 0.951 . S
C2322 C2320 1.388 . S
C2322 C2323 1.366 . S
C2323 C2322 1.366 . S
C2323 C2324 1.414 . S
C2323 C2326 1.499 . S
C2324 H2304 0.950 . S
C2324 C2323 1.414 . S
C2324 C2325 1.374 . S
C2325 H2305 0.950 . S
C2325 C2321 1.385 . S
C2325 C2324 1.374 . S
C2326 C2323 1.499 . S
C2326 C2327 1.373 . S
C2326 C2328 1.389 . S
C2327 H2306 0.950 . S
C2327 C2326 1.373 . S
C2327 C2343 1.377 . S
C2328 C2326 1.389 . S
C2328 C2329 1.524 . S
C2328 C2342 1.377 . S
C2329 C2328 1.524 . S
C2329 C2330 1.397 . S
C2329 C2334 1.363 . S
C2330 H2307 0.950 . S
C2330 C2329 1.397 . S
C2330 C2331 1.334 . S
C2331 H2308 0.950 . S
C2331 C2330 1.334 . S
C2331 C2332 1.287 . S
C2332 C2331 1.287 . S
C2332 C2333 1.524 . S
C2332 H2351 0.913 . S
C2333 H2309 0.950 . S
C2333 C2332 1.524 . S
C2333 C2334 1.415 . S
C2334 H2310 0.950 . S
C2334 C2329 1.363 . S
C2334 C2333 1.415 . S
C2335 H2311 0.951 . S
C2335 C2336 1.366 . S
C2335 C2337 1.388 . S
C2336 C2335 1.366 . S
C2336 C2340 1.385 . S
C2337 H2312 0.951 . S
C2337 C2335 1.388 . S
C2337 C2338 1.366 . S
C2338 C2337 1.366 . S
C2338 C2339 1.414 . S
C2338 C2341 1.499 . S
C2339 H2313 0.950 . S
C2339 C2338 1.414 . S
C2339 C2340 1.374 . S
C2340 H2314 0.950 . S
C2340 C2336 1.385 . S
C2340 C2339 1.374 . S
C2341 C2338 1.499 . S
C2341 C2342 1.373 . S
C2341 C2343 1.389 . S
C2342 H2315 0.950 . S
C2342 C2328 1.377 . S
C2342 C2341 1.373 . S
C2343 C2327 1.377 . S
C2343 C2341 1.389 . S
C2343 C2344 1.524 . S
C2344 C2343 1.524 . S
C2344 C2345 1.397 . S
C2344 C2349 1.363 . S
C2345 H2316 0.950 . S
C2345 C2344 1.397 . S
C2345 C2346 1.334 . S
C2346 H2317 0.950 . S
C2346 C2345 1.334 . S
C2346 C2347 1.287 . S
C2347 C2346 1.287 . S
C2347 C2348 1.524 . S
C2347 H2350 0.999 . S
C2348 H2318 0.950 . S
C2348 C2347 1.524 . S
C2348 C2349 1.415 . S
C2349 H2319 0.950 . S
C2349 C2344 1.363 . S
C2349 C2348 1.415 . S
H2350 C2347 0.999 . S
H2351 C2332 0.913 . S
H2352 C2370 0.951 . S
H2353 C2372 0.951 . S
H2354 C2374 0.950 . S
H2355 C2375 0.950 . S
H2356 C2377 0.950 . S
H2357 C2380 0.950 . S
H2358 C2381 0.950 . S
H2359 C2383 0.950 . S
H2360 C2384 0.950 . S
H2361 C2385 0.951 . S
H2362 C2387 0.951 . S
H2363 C2389 0.950 . S
H2364 C2390 0.950 . S
H2365 C2392 0.950 . S
H2366 C2395 0.950 . S
H2367 C2396 0.950 . S
H2368 C2398 0.950 . S
H2369 C2399 0.950 . S
C2370 H2352 0.951 . S
C2370 C2371 1.366 . S
C2370 C2372 1.388 . S
C2371 C2370 1.366 . S
C2371 C2375 1.385 . S
C2372 H2353 0.951 . S
C2372 C2370 1.388 . S
C2372 C2373 1.366 . S
C2373 C2372 1.366 . S
C2373 C2374 1.414 . S
C2373 C2376 1.499 . S
C2374 H2354 0.950 . S
C2374 C2373 1.414 . S
C2374 C2375 1.374 . S
C2375 H2355 0.950 . S
C2375 C2371 1.385 . S
C2375 C2374 1.374 . S
C2376 C2373 1.499 . S
C2376 C2377 1.373 . S
C2376 C2378 1.389 . S
C2377 H2356 0.950 . S
C2377 C2376 1.373 . S
C2377 C2393 1.377 . S
C2378 C2376 1.389 . S
C2378 C2379 1.524 . S
C2378 C2392 1.377 . S
C2379 C2378 1.524 . S
C2379 C2380 1.397 . S
C2379 C2384 1.363 . S
C2380 H2357 0.950 . S
C2380 C2379 1.397 . S
C2380 C2381 1.334 . S
C2381 H2358 0.950 . S
C2381 C2380 1.334 . S
C2381 C2382 1.287 . S
C2382 C2381 1.287 . S
C2382 C2383 1.524 . S
C2382 H2401 0.913 . S
C2383 H2359 0.950 . S
C2383 C2382 1.524 . S
C2383 C2384 1.415 . S
C2384 H2360 0.950 . S
C2384 C2379 1.363 . S
C2384 C2383 1.415 . S
C2385 H2361 0.951 . S
C2385 C2386 1.366 . S
C2385 C2387 1.388 . S
C2386 C2385 1.366 . S
C2386 C2390 1.385 . S
C2387 H2362 0.951 . S
C2387 C2385 1.388 . S
C2387 C2388 1.366 . S
C2388 C2387 1.366 . S
C2388 C2389 1.414 . S
C2388 C2391 1.499 . S
C2389 H2363 0.950 . S
C2389 C2388 1.414 . S
C2389 C2390 1.374 . S
C2390 H2364 0.950 . S
C2390 C2386 1.385 . S
C2390 C2389 1.374 . S
C2391 C2388 1.499 . S
C2391 C2392 1.373 . S
C2391 C2393 1.389 . S
C2392 H2365 0.950 . S
C2392 C2378 1.377 . S
C2392 C2391 1.373 . S
C2393 C2377 1.377 . S
C2393 C2391 1.389 . S
C2393 C2394 1.524 . S
C2394 C2393 1.524 . S
C2394 C2395 1.397 . S
C2394 C2399 1.363 . S
C2395 H2366 0.950 . S
C2395 C2394 1.397 . S
C2395 C2396 1.334 . S
C2396 H2367 0.950 . S
C2396 C2395 1.334 . S
C2396 C2397 1.287 . S
C2397 C2396 1.287 . S
C2397 C2398 1.524 . S
C2397 H2400 0.999 . S
C2398 H2368 0.950 . S
C2398 C2397 1.524 . S
C2398 C2399 1.415 . S
C2399 H2369 0.950 . S
C2399 C2394 1.363 . S
C2399 C2398 1.415 . S
H2400 C2397 0.999 . S
H2401 C2382 0.913 . S
H2402 C2420 0.951 . S
H2403 C2422 0.951 . S
H2404 C2424 0.950 . S
H2405 C2425 0.950 . S
H2406 C2427 0.950 . S
H2407 C2430 0.950 . S
H2408 C2431 0.950 . S
H2409 C2433 0.950 . S
H2410 C2434 0.950 . S
H2411 C2435 0.951 . S
H2412 C2437 0.951 . S
H2413 C2439 0.950 . S
H2414 C2440 0.950 . S
H2415 C2442 0.950 . S
H2416 C2445 0.950 . S
H2417 C2446 0.950 . S
H2418 C2448 0.950 . S
H2419 C2449 0.950 . S
C2420 H2402 0.951 . S
C2420 C2421 1.366 . S
C2420 C2422 1.388 . S
C2421 C2420 1.366 . S
C2421 C2425 1.385 . S
C2422 H2403 0.951 . S
C2422 C2420 1.388 . S
C2422 C2423 1.366 . S
C2423 C2422 1.366 . S
C2423 C2424 1.414 . S
C2423 C2426 1.499 1_556 S
C2424 H2404 0.950 . S
C2424 C2423 1.414 . S
C2424 C2425 1.374 . S
C2425 H2405 0.950 . S
C2425 C2421 1.385 . S
C2425 C2424 1.374 . S
C2426 C2423 1.499 1_554 S
C2426 C2427 1.373 . S
C2426 C2428 1.389 . S
C2427 H2406 0.950 . S
C2427 C2426 1.373 . S
C2427 C2443 1.377 . S
C2428 C2426 1.389 . S
C2428 C2429 1.524 . S
C2428 C2442 1.377 . S
C2429 C2428 1.524 . S
C2429 C2430 1.397 1_554 S
C2429 C2434 1.363 . S
C2430 H2407 0.950 . S
C2430 C2429 1.397 1_556 S
C2430 C2431 1.334 . S
C2431 H2408 0.950 . S
C2431 C2430 1.334 . S
C2431 C2432 1.287 . S
C2432 C2431 1.287 . S
C2432 C2433 1.524 1_556 S
C2432 H2451 0.913 . S
C2433 H2409 0.950 . S
C2433 C2432 1.524 1_554 S
C2433 C2434 1.415 . S
C2434 H2410 0.950 . S
C2434 C2429 1.363 . S
C2434 C2433 1.415 . S
C2435 H2411 0.951 . S
C2435 C2436 1.366 . S
C2435 C2437 1.388 . S
C2436 C2435 1.366 . S
C2436 C2440 1.385 . S
C2437 H2412 0.951 . S
C2437 C2435 1.388 . S
C2437 C2438 1.366 . S
C2438 C2437 1.366 . S
C2438 C2439 1.414 . S
C2438 C2441 1.499 . S
C2439 H2413 0.950 . S
C2439 C2438 1.414 . S
C2439 C2440 1.374 . S
C2440 H2414 0.950 . S
C2440 C2436 1.385 . S
C2440 C2439 1.374 . S
C2441 C2438 1.499 . S
C2441 C2442 1.373 . S
C2441 C2443 1.389 . S
C2442 H2415 0.950 . S
C2442 C2428 1.377 . S
C2442 C2441 1.373 . S
C2443 C2427 1.377 . S
C2443 C2441 1.389 . S
C2443 C2444 1.524 . S
C2444 C2443 1.524 . S
C2444 C2445 1.397 . S
C2444 C2449 1.363 . S
C2445 H2416 0.950 . S
C2445 C2444 1.397 . S
C2445 C2446 1.334 . S
C2446 H2417 0.950 . S
C2446 C2445 1.334 . S
C2446 C2447 1.287 . S
C2447 C2446 1.287 . S
C2447 C2448 1.524 . S
C2447 H2450 0.999 . S
C2448 H2418 0.950 . S
C2448 C2447 1.524 . S
C2448 C2449 1.415 . S
C2449 H2419 0.950 . S
C2449 C2444 1.363 . S
C2449 C2448 1.415 . S
H2450 C2447 0.999 . S
H2451 C2432 0.913 . S
H2452 C2470 0.951 . S
H2453 C2472 0.951 . S
H2454 C2474 0.950 . S
H2455 C2475 0.950 . S
H2456 C2477 0.950 . S
H2457 C2480 0.950 . S
H2458 C2481 0.950 . S
H2459 C2483 0.950 . S
H2460 C2484 0.950 . S
H2461 C2485 0.951 . S
H2462 C2487 0.951 . S
H2463 C2489 0.950 . S
H2464 C2490 0.950 . S
H2465 C2492 0.950 . S
H2466 C2495 0.950 . S
H2467 C2496 0.950 . S
H2468 C2498 0.950 . S
H2469 C2499 0.950 . S
C2470 H2452 0.951 . S
C2470 C2471 1.366 . S
C2470 C2472 1.388 . S
C2471 C2470 1.366 . S
C2471 C2475 1.385 . S
C2472 H2453 0.951 . S
C2472 C2470 1.388 . S
C2472 C2473 1.366 . S
C2473 C2472 1.366 . S
C2473 C2474 1.414 . S
C2473 C2476 1.499 . S
C2474 H2454 0.950 . S
C2474 C2473 1.414 . S
C2474 C2475 1.374 . S
C2475 H2455 0.950 . S
C2475 C2471 1.385 . S
C2475 C2474 1.374 . S
C2476 C2473 1.499 . S
C2476 C2477 1.373 . S
C2476 C2478 1.389 . S
C2477 H2456 0.950 . S
C2477 C2476 1.373 . S
C2477 C2493 1.377 . S
C2478 C2476 1.389 . S
C2478 C2479 1.524 . S
C2478 C2492 1.377 . S
C2479 C2478 1.524 . S
C2479 C2480 1.397 . S
C2479 C2484 1.363 . S
C2480 H2457 0.950 . S
C2480 C2479 1.397 . S
C2480 C2481 1.334 . S
C2481 H2458 0.950 . S
C2481 C2480 1.334 . S
C2481 C2482 1.287 . S
C2482 C2481 1.287 . S
C2482 C2483 1.524 . S
C2482 H2501 0.913 . S
C2483 H2459 0.950 . S
C2483 C2482 1.524 . S
C2483 C2484 1.415 . S
C2484 H2460 0.950 . S
C2484 C2479 1.363 . S
C2484 C2483 1.415 . S
C2485 H2461 0.951 . S
C2485 C2486 1.366 . S
C2485 C2487 1.388 . S
C2486 C2485 1.366 . S
C2486 C2490 1.385 . S
C2487 H2462 0.951 . S
C2487 C2485 1.388 . S
C2487 C2488 1.366 . S
C2488 C2487 1.366 . S
C2488 C2489 1.414 . S
C2488 C2491 1.499 . S
C2489 H2463 0.950 . S
C2489 C2488 1.414 . S
C2489 C2490 1.374 . S
C2490 H2464 0.950 . S
C2490 C2486 1.385 . S
C2490 C2489 1.374 . S
C2491 C2488 1.499 . S
C2491 C2492 1.373 . S
C2491 C2493 1.389 . S
C2492 H2465 0.950 . S
C2492 C2478 1.377 . S
C2492 C2491 1.373 . S
C2493 C2477 1.377 . S
C2493 C2491 1.389 . S
C2493 C2494 1.524 . S
C2494 C2493 1.524 . S
C2494 C2495 1.397 . S
C2494 C2499 1.363 . S
C2495 H2466 0.950 . S
C2495 C2494 1.397 . S
C2495 C2496 1.334 . S
C2496 H2467 0.950 . S
C2496 C2495 1.334 . S
C2496 C2497 1.287 . S
C2497 C2496 1.287 . S
C2497 C2498 1.524 . S
C2497 H2500 0.999 . S
C2498 H2468 0.950 . S
C2498 C2497 1.524 . S
C2498 C2499 1.415 . S
C2499 H2469 0.950 . S
C2499 C2494 1.363 . S
C2499 C2498 1.415 . S
H2500 C2497 0.999 . S
H2501 C2482 0.913 . S
H2502 C2520 0.951 . S
H2503 C2522 0.951 . S
H2504 C2524 0.950 . S
H2505 C2525 0.950 . S
H2506 C2527 0.950 . S
H2507 C2530 0.950 . S
H2508 C2531 0.950 . S
H2509 C2533 0.950 . S
H2510 C2534 0.950 . S
H2511 C2535 0.951 . S
H2512 C2537 0.951 . S
H2513 C2539 0.950 . S
H2514 C2540 0.950 . S
H2515 C2542 0.950 . S
H2516 C2545 0.950 . S
H2517 C2546 0.950 . S
H2518 C2548 0.950 . S
H2519 C2549 0.950 . S
C2520 H2502 0.951 . S
C2520 C2521 1.366 . S
C2520 C2522 1.388 . S
C2521 C2520 1.366 . S
C2521 C2525 1.385 . S
C2522 H2503 0.951 . S
C2522 C2520 1.388 . S
C2522 C2523 1.366 . S
C2523 C2522 1.366 . S
C2523 C2524 1.414 . S
C2523 C2526 1.499 1_554 S
C2524 H2504 0.950 . S
C2524 C2523 1.414 . S
C2524 C2525 1.374 . S
C2525 H2505 0.950 . S
C2525 C2521 1.385 . S
C2525 C2524 1.374 . S
C2526 C2523 1.499 1_556 S
C2526 C2527 1.373 . S
C2526 C2528 1.389 . S
C2527 H2506 0.950 . S
C2527 C2526 1.373 . S
C2527 C2543 1.377 . S
C2528 C2526 1.389 . S
C2528 C2529 1.524 . S
C2528 C2542 1.377 . S
C2529 C2528 1.524 . S
C2529 C2530 1.397 1_556 S
C2529 C2534 1.363 . S
C2530 H2507 0.950 . S
C2530 C2529 1.397 1_554 S
C2530 C2531 1.334 . S
C2531 H2508 0.950 . S
C2531 C2530 1.334 . S
C2531 C2532 1.287 . S
C2532 C2531 1.287 . S
C2532 C2533 1.524 1_554 S
C2532 H2551 0.913 . S
C2533 H2509 0.950 . S
C2533 C2532 1.524 1_556 S
C2533 C2534 1.415 . S
C2534 H2510 0.950 . S
C2534 C2529 1.363 . S
C2534 C2533 1.415 . S
C2535 H2511 0.951 . S
C2535 C2536 1.366 . S
C2535 C2537 1.388 . S
C2536 C2535 1.366 . S
C2536 C2540 1.385 . S
C2537 H2512 0.951 . S
C2537 C2535 1.388 . S
C2537 C2538 1.366 . S
C2538 C2537 1.366 . S
C2538 C2539 1.414 . S
C2538 C2541 1.499 . S
C2539 H2513 0.950 . S
C2539 C2538 1.414 . S
C2539 C2540 1.374 . S
C2540 H2514 0.950 . S
C2540 C2536 1.385 . S
C2540 C2539 1.374 . S
C2541 C2538 1.499 . S
C2541 C2542 1.373 . S
C2541 C2543 1.389 . S
C2542 H2515 0.950 . S
C2542 C2528 1.377 . S
C2542 C2541 1.373 . S
C2543 C2527 1.377 . S
C2543 C2541 1.389 . S
C2543 C2544 1.524 . S
C2544 C2543 1.524 . S
C2544 C2545 1.397 . S
C2544 C2549 1.363 . S
C2545 H2516 0.950 . S
C2545 C2544 1.397 . S
C2545 C2546 1.334 . S
C2546 H2517 0.950 . S
C2546 C2545 1.334 . S
C2546 C2547 1.287 . S
C2547 C2546 1.287 . S
C2547 C2548 1.524 . S
C2547 H2550 0.999 . S
C2548 H2518 0.950 . S
C2548 C2547 1.524 . S
C2548 C2549 1.415 . S
C2549 H2519 0.950 . S
C2549 C2544 1.363 . S
C2549 C2548 1.415 . S
H2550 C2547 0.999 . S
H2551 C2532 0.913 . S
H2552 C2570 0.951 . S
H2553 C2572 0.951 . S
H2554 C2574 0.950 . S
H2555 C2575 0.950 . S
H2556 C2577 0.950 . S
H2557 C2580 0.950 . S
H2558 C2581 0.950 . S
H2559 C2583 0.950 . S
H2560 C2584 0.950 . S
H2561 C2585 0.951 . S
H2562 C2587 0.951 . S
H2563 C2589 0.950 . S
H2564 C2590 0.950 . S
H2565 C2592 0.950 . S
H2566 C2595 0.950 . S
H2567 C2596 0.950 . S
H2568 C2598 0.950 . S
H2569 C2599 0.950 . S
C2570 H2552 0.951 . S
C2570 C2571 1.366 . S
C2570 C2572 1.388 . S
C2571 C2570 1.366 . S
C2571 C2575 1.385 . S
C2572 H2553 0.951 . S
C2572 C2570 1.388 . S
C2572 C2573 1.366 . S
C2573 C2572 1.366 . S
C2573 C2574 1.414 . S
C2573 C2576 1.499 . S
C2574 H2554 0.950 . S
C2574 C2573 1.414 . S
C2574 C2575 1.374 . S
C2575 H2555 0.950 . S
C2575 C2571 1.385 . S
C2575 C2574 1.374 . S
C2576 C2573 1.499 . S
C2576 C2577 1.373 . S
C2576 C2578 1.389 . S
C2577 H2556 0.950 . S
C2577 C2576 1.373 . S
C2577 C2593 1.377 . S
C2578 C2576 1.389 . S
C2578 C2579 1.524 . S
C2578 C2592 1.377 . S
C2579 C2578 1.524 . S
C2579 C2580 1.397 . S
C2579 C2584 1.363 . S
C2580 H2557 0.950 . S
C2580 C2579 1.397 . S
C2580 C2581 1.334 . S
C2581 H2558 0.950 . S
C2581 C2580 1.334 . S
C2581 C2582 1.287 . S
C2582 C2581 1.287 . S
C2582 C2583 1.524 . S
C2582 H2601 0.913 . S
C2583 H2559 0.950 . S
C2583 C2582 1.524 . S
C2583 C2584 1.415 . S
C2584 H2560 0.950 . S
C2584 C2579 1.363 . S
C2584 C2583 1.415 . S
C2585 H2561 0.951 . S
C2585 C2586 1.366 . S
C2585 C2587 1.388 . S
C2586 C2585 1.366 . S
C2586 C2590 1.385 . S
C2587 H2562 0.951 . S
C2587 C2585 1.388 . S
C2587 C2588 1.366 . S
C2588 C2587 1.366 . S
C2588 C2589 1.414 . S
C2588 C2591 1.499 . S
C2589 H2563 0.950 . S
C2589 C2588 1.414 . S
C2589 C2590 1.374 . S
C2590 H2564 0.950 . S
C2590 C2586 1.385 . S
C2590 C2589 1.374 . S
C2591 C2588 1.499 . S
C2591 C2592 1.373 . S
C2591 C2593 1.389 . S
C2592 H2565 0.950 . S
C2592 C2578 1.377 . S
C2592 C2591 1.373 . S
C2593 C2577 1.377 . S
C2593 C2591 1.389 . S
C2593 C2594 1.524 . S
C2594 C2593 1.524 . S
C2594 C2595 1.397 . S
C2594 C2599 1.363 . S
C2595 H2566 0.950 . S
C2595 C2594 1.397 . S
C2595 C2596 1.334 . S
C2596 H2567 0.950 . S
C2596 C2595 1.334 . S
C2596 C2597 1.287 . S
C2597 C2596 1.287 . S
C2597 C2598 1.524 . S
C2597 H2600 0.999 . S
C2598 H2568 0.950 . S
C2598 C2597 1.524 . S
C2598 C2599 1.415 . S
C2599 H2569 0.950 . S
C2599 C2594 1.363 . S
C2599 C2598 1.415 . S
H2600 C2597 0.999 . S
H2601 C2582 0.913 . S
H2602 C2620 0.951 . S
H2603 C2622 0.951 . S
H2604 C2624 0.950 . S
H2605 C2625 0.950 . S
H2606 C2627 0.950 . S
H2607 C2630 0.950 . S
H2608 C2631 0.950 . S
H2609 C2633 0.950 . S
H2610 C2634 0.950 . S
H2611 C2635 0.951 . S
H2612 C2637 0.951 . S
H2613 C2639 0.950 . S
H2614 C2640 0.950 . S
H2615 C2642 0.950 . S
H2616 C2645 0.950 . S
H2617 C2646 0.950 . S
H2618 C2648 0.950 . S
H2619 C2649 0.950 . S
C2620 H2602 0.951 . S
C2620 C2621 1.366 . S
C2620 C2622 1.388 . S
C2621 C2620 1.366 . S
C2621 C2625 1.385 . S
C2622 H2603 0.951 . S
C2622 C2620 1.388 . S
C2622 C2623 1.366 . S
C2623 C2622 1.366 . S
C2623 C2624 1.414 . S
C2623 C2626 1.499 . S
C2624 H2604 0.950 . S
C2624 C2623 1.414 . S
C2624 C2625 1.374 . S
C2625 H2605 0.950 . S
C2625 C2621 1.385 . S
C2625 C2624 1.374 . S
C2626 C2623 1.499 . S
C2626 C2627 1.373 . S
C2626 C2628 1.389 . S
C2627 H2606 0.950 . S
C2627 C2626 1.373 . S
C2627 C2643 1.377 . S
C2628 C2626 1.389 . S
C2628 C2629 1.524 . S
C2628 C2642 1.377 . S
C2629 C2628 1.524 . S
C2629 C2630 1.397 . S
C2629 C2634 1.363 . S
C2630 H2607 0.950 . S
C2630 C2629 1.397 . S
C2630 C2631 1.334 . S
C2631 H2608 0.950 . S
C2631 C2630 1.334 . S
C2631 C2632 1.287 . S
C2632 C2631 1.287 . S
C2632 C2633 1.524 . S
C2632 H2651 0.913 . S
C2633 H2609 0.950 . S
C2633 C2632 1.524 . S
C2633 C2634 1.415 . S
C2634 H2610 0.950 . S
C2634 C2629 1.363 . S
C2634 C2633 1.415 . S
C2635 H2611 0.951 . S
C2635 C2636 1.366 . S
C2635 C2637 1.388 . S
C2636 C2635 1.366 . S
C2636 C2640 1.385 . S
C2637 H2612 0.951 . S
C2637 C2635 1.388 . S
C2637 C2638 1.366 . S
C2638 C2637 1.366 . S
C2638 C2639 1.414 . S
C2638 C2641 1.499 1_455 S
C2639 H2613 0.950 . S
C2639 C2638 1.414 . S
C2639 C2640 1.374 . S
C2640 H2614 0.950 . S
C2640 C2636 1.385 . S
C2640 C2639 1.374 . S
C2641 C2638 1.499 1_655 S
C2641 C2642 1.373 . S
C2641 C2643 1.389 . S
C2642 H2615 0.950 . S
C2642 C2628 1.377 . S
C2642 C2641 1.373 . S
C2643 C2627 1.377 . S
C2643 C2641 1.389 . S
C2643 C2644 1.524 . S
C2644 C2643 1.524 . S
C2644 C2645 1.397 1_655 S
C2644 C2649 1.363 . S
C2645 H2616 0.950 . S
C2645 C2644 1.397 1_455 S
C2645 C2646 1.334 . S
C2646 H2617 0.950 . S
C2646 C2645 1.334 . S
C2646 C2647 1.287 . S
C2647 C2646 1.287 . S
C2647 C2648 1.524 1_455 S
C2647 H2650 0.999 . S
C2648 H2618 0.950 . S
C2648 C2647 1.524 1_655 S
C2648 C2649 1.415 . S
C2649 H2619 0.950 . S
C2649 C2644 1.363 . S
C2649 C2648 1.415 . S
H2650 C2647 0.999 . S
H2651 C2632 0.913 . S
H2652 C2670 0.951 . S
H2653 C2672 0.951 . S
H2654 C2674 0.950 . S
H2655 C2675 0.950 . S
H2656 C2677 0.950 . S
H2657 C2680 0.950 . S
H2658 C2681 0.950 . S
H2659 C2683 0.950 . S
H2660 C2684 0.950 . S
H2661 C2685 0.951 . S
H2662 C2687 0.951 . S
H2663 C2689 0.950 . S
H2664 C2690 0.950 . S
H2665 C2692 0.958 . S
H2666 C2695 0.950 . S
H2667 C2696 0.950 1_655 S
H2668 C2698 0.950 . S
H2669 C2699 0.950 . S
C2670 H2652 0.951 . S
C2670 C2671 1.366 . S
C2670 C2672 1.388 . S
C2671 C2670 1.366 . S
C2671 C2675 1.385 . S
C2672 H2653 0.951 . S
C2672 C2670 1.388 . S
C2672 C2673 1.366 . S
C2673 C2672 1.366 . S
C2673 C2674 1.414 . S
C2673 C2676 1.499 . S
C2674 H2654 0.950 . S
C2674 C2673 1.414 . S
C2674 C2675 1.374 . S
C2675 H2655 0.950 . S
C2675 C2671 1.385 . S
C2675 C2674 1.374 . S
C2676 C2673 1.499 . S
C2676 C2677 1.373 . S
C2676 C2678 1.389 . S
C2677 H2656 0.950 . S
C2677 C2676 1.373 . S
C2677 C2693 1.377 . S
C2678 C2676 1.389 . S
C2678 C2679 1.524 . S
C2678 C2692 1.377 . S
C2679 C2678 1.524 . S
C2679 C2680 1.397 . S
C2679 C2684 1.363 . S
C2680 H2657 0.950 . S
C2680 C2679 1.397 . S
C2680 C2681 1.334 . S
C2681 H2658 0.950 . S
C2681 C2680 1.334 . S
C2681 C2682 1.287 . S
C2682 C2681 1.287 . S
C2682 C2683 1.524 . S
C2682 H2701 0.913 . S
C2683 H2659 0.950 . S
C2683 C2682 1.524 . S
C2683 C2684 1.415 . S
C2684 H2660 0.950 . S
C2684 C2679 1.363 . S
C2684 C2683 1.415 . S
C2685 H2661 0.951 . S
C2685 C2686 1.366 . S
C2685 C2687 1.388 . S
C2686 C2685 1.366 . S
C2686 C2690 1.385 . S
C2687 H2662 0.951 . S
C2687 C2685 1.388 . S
C2687 C2688 1.366 . S
C2688 C2687 1.366 . S
C2688 C2689 1.414 . S
C2688 C2691 1.499 1_655 S
C2689 H2663 0.950 . S
C2689 C2688 1.414 . S
C2689 C2690 1.374 . S
C2690 H2664 0.950 . S
C2690 C2686 1.385 . S
C2690 C2689 1.374 . S
C2691 C2688 1.499 1_455 S
C2691 C2692 1.373 . S
C2691 C2693 1.389 . S
C2692 H2665 0.958 . S
C2692 C2678 1.377 . S
C2692 C2691 1.373 . S
C2693 C2677 1.377 . S
C2693 C2691 1.389 . S
C2693 C2694 1.524 . S
C2694 C2693 1.524 . S
C2694 C2695 1.397 . S
C2694 C2699 1.363 . S
C2695 H2666 0.950 . S
C2695 C2694 1.397 . S
C2695 C2696 1.334 . S
C2696 H2667 0.950 1_455 S
C2696 C2695 1.334 . S
C2696 C2697 1.287 . S
C2697 C2696 1.287 . S
C2697 C2698 1.524 . S
C2697 H2700 0.999 . S
C2698 H2668 0.950 . S
C2698 C2697 1.524 . S
C2698 C2699 1.415 . S
C2699 H2669 0.950 . S
C2699 C2694 1.363 . S
C2699 C2698 1.415 . S
H2700 C2697 0.999 . S
H2701 C2682 0.913 . S
H2702 C2720 0.951 . S
H2703 C2722 0.951 . S
H2704 C2724 0.950 . S
H2705 C2725 0.950 . S
H2706 C2727 0.950 . S
H2707 C2730 0.950 . S
H2708 C2731 0.950 . S
H2709 C2733 0.950 . S
H2710 C2734 0.950 . S
H2711 C2735 0.951 . S
H2712 C2737 0.951 . S
H2713 C2739 0.950 . S
H2714 C2740 0.950 . S
H2715 C2742 0.950 . S
H2716 C2745 0.950 . S
H2717 C2746 0.950 . S
H2718 C2748 0.950 . S
H2719 C2749 0.950 . S
C2720 H2702 0.951 . S
C2720 C2721 1.366 . S
C2720 C2722 1.388 . S
C2721 C2720 1.366 . S
C2721 C2725 1.385 . S
C2722 H2703 0.951 . S
C2722 C2720 1.388 . S
C2722 C2723 1.366 . S
C2723 C2722 1.366 . S
C2723 C2724 1.414 . S
C2723 C2726 1.499 . S
C2724 H2704 0.950 . S
C2724 C2723 1.414 . S
C2724 C2725 1.374 . S
C2725 H2705 0.950 . S
C2725 C2721 1.385 . S
C2725 C2724 1.374 . S
C2726 C2723 1.499 . S
C2726 C2727 1.373 . S
C2726 C2728 1.389 . S
C2727 H2706 0.950 . S
C2727 C2726 1.373 . S
C2727 C2743 1.377 . S
C2728 C2726 1.389 . S
C2728 C2729 1.524 . S
C2728 C2742 1.377 . S
C2729 C2728 1.524 . S
C2729 C2730 1.397 . S
C2729 C2734 1.363 . S
C2730 H2707 0.950 . S
C2730 C2729 1.397 . S
C2730 C2731 1.334 . S
C2731 H2708 0.950 . S
C2731 C2730 1.334 . S
C2731 C2732 1.287 . S
C2732 C2731 1.287 . S
C2732 C2733 1.524 . S
C2732 H2751 0.913 . S
C2733 H2709 0.950 . S
C2733 C2732 1.524 . S
C2733 C2734 1.415 . S
C2734 H2710 0.950 . S
C2734 C2729 1.363 . S
C2734 C2733 1.415 . S
C2735 H2711 0.951 . S
C2735 C2736 1.366 . S
C2735 C2737 1.388 . S
C2736 C2735 1.366 . S
C2736 C2740 1.385 . S
C2737 H2712 0.951 . S
C2737 C2735 1.388 . S
C2737 C2738 1.366 . S
C2738 C2737 1.366 . S
C2738 C2739 1.414 . S
C2738 C2741 1.499 . S
C2739 H2713 0.950 . S
C2739 C2738 1.414 . S
C2739 C2740 1.374 . S
C2740 H2714 0.950 . S
C2740 C2736 1.385 . S
C2740 C2739 1.374 . S
C2741 C2738 1.499 . S
C2741 C2742 1.373 . S
C2741 C2743 1.389 . S
C2742 H2715 0.950 . S
C2742 C2728 1.377 . S
C2742 C2741 1.373 . S
C2743 C2727 1.377 . S
C2743 C2741 1.389 . S
C2743 C2744 1.524 . S
C2744 C2743 1.524 . S
C2744 C2745 1.397 . S
C2744 C2749 1.363 . S
C2745 H2716 0.950 . S
C2745 C2744 1.397 . S
C2745 C2746 1.334 . S
C2746 H2717 0.950 . S
C2746 C2745 1.334 . S
C2746 C2747 1.287 . S
C2747 C2746 1.287 . S
C2747 C2748 1.524 . S
C2747 H2750 0.999 . S
C2748 H2718 0.950 . S
C2748 C2747 1.524 . S
C2748 C2749 1.415 . S
C2749 H2719 0.950 . S
C2749 C2744 1.363 . S
C2749 C2748 1.415 . S
H2750 C2747 0.999 . S
H2751 C2732 0.913 . S
H2752 C2770 0.951 . S
H2753 C2772 0.951 . S
H2754 C2774 0.950 . S
H2755 C2775 0.950 . S
H2756 C2777 0.950 . S
H2757 C2780 0.950 . S
H2758 C2781 0.950 . S
H2759 C2783 0.950 . S
H2760 C2784 0.950 . S
H2761 C2785 0.951 . S
H2762 C2787 0.951 . S
H2763 C2789 0.950 . S
H2764 C2790 0.950 . S
H2765 C2792 0.950 . S
H2766 C2795 0.950 . S
H2767 C2796 0.950 . S
H2768 C2798 0.950 . S
H2769 C2799 0.950 . S
C2770 H2752 0.951 . S
C2770 C2771 1.366 . S
C2770 C2772 1.388 . S
C2771 C2770 1.366 . S
C2771 C2775 1.385 . S
C2772 H2753 0.951 . S
C2772 C2770 1.388 . S
C2772 C2773 1.366 . S
C2773 C2772 1.366 . S
C2773 C2774 1.414 . S
C2773 C2776 1.499 . S
C2774 H2754 0.950 . S
C2774 C2773 1.414 . S
C2774 C2775 1.374 . S
C2775 H2755 0.950 . S
C2775 C2771 1.385 . S
C2775 C2774 1.374 . S
C2776 C2773 1.499 . S
C2776 C2777 1.373 . S
C2776 C2778 1.389 . S
C2777 H2756 0.950 . S
C2777 C2776 1.373 . S
C2777 C2793 1.377 . S
C2778 C2776 1.389 . S
C2778 C2779 1.524 . S
C2778 C2792 1.377 . S
C2779 C2778 1.524 . S
C2779 C2780 1.397 . S
C2779 C2784 1.363 . S
C2780 H2757 0.950 . S
C2780 C2779 1.397 . S
C2780 C2781 1.334 . S
C2781 H2758 0.950 . S
C2781 C2780 1.334 . S
C2781 C2782 1.287 . S
C2782 C2781 1.287 . S
C2782 C2783 1.524 . S
C2782 H2801 0.913 . S
C2783 H2759 0.950 . S
C2783 C2782 1.524 . S
C2783 C2784 1.415 . S
C2784 H2760 0.950 . S
C2784 C2779 1.363 . S
C2784 C2783 1.415 . S
C2785 H2761 0.951 . S
C2785 C2786 1.366 . S
C2785 C2787 1.388 . S
C2786 C2785 1.366 . S
C2786 C2790 1.385 . S
C2787 H2762 0.951 . S
C2787 C2785 1.388 . S
C2787 C2788 1.366 . S
C2788 C2787 1.366 . S
C2788 C2789 1.414 . S
C2788 C2791 1.499 . S
C2789 H2763 0.950 . S
C2789 C2788 1.414 . S
C2789 C2790 1.374 . S
C2790 H2764 0.950 . S
C2790 C2786 1.385 . S
C2790 C2789 1.374 . S
C2791 C2788 1.499 . S
C2791 C2792 1.373 . S
C2791 C2793 1.389 . S
C2792 H2765 0.950 . S
C2792 C2778 1.377 . S
C2792 C2791 1.373 . S
C2793 C2777 1.377 . S
C2793 C2791 1.389 . S
C2793 C2794 1.524 . S
C2794 C2793 1.524 . S
C2794 C2795 1.397 . S
C2794 C2799 1.363 . S
C2795 H2766 0.950 . S
C2795 C2794 1.397 . S
C2795 C2796 1.334 . S
C2796 H2767 0.950 . S
C2796 C2795 1.334 . S
C2796 C2797 1.287 . S
C2797 C2796 1.287 . S
C2797 C2798 1.524 . S
C2797 H2800 0.999 . S
C2798 H2768 0.950 . S
C2798 C2797 1.524 . S
C2798 C2799 1.415 . S
C2799 H2769 0.950 . S
C2799 C2794 1.363 . S
C2799 C2798 1.415 . S
H2800 C2797 0.999 . S
H2801 C2782 0.913 . S
H2802 C2820 0.951 . S
H2803 C2822 0.951 . S
H2804 C2824 0.950 . S
H2805 C2825 0.950 . S
H2806 C2827 0.950 . S
H2807 C2830 0.950 . S
H2808 C2831 0.950 . S
H2809 C2833 0.950 . S
H2810 C2834 0.950 . S
H2811 C2835 0.951 . S
H2812 C2837 0.951 1_565 S
H2813 C2839 0.950 1_565 S
H2814 C2840 0.950 . S
H2815 C2842 0.950 . S
H2816 C2845 0.950 . S
H2817 C2846 0.950 . S
H2818 C2848 0.950 . S
H2819 C2849 0.950 . S
C2820 H2802 0.951 . S
C2820 C2821 1.366 . S
C2820 C2822 1.388 . S
C2821 C2820 1.366 . S
C2821 C2825 1.385 . S
C2822 H2803 0.951 . S
C2822 C2820 1.388 . S
C2822 C2823 1.366 . S
C2823 C2822 1.366 . S
C2823 C2824 1.414 . S
C2823 C2826 1.499 . S
C2824 H2804 0.950 . S
C2824 C2823 1.414 . S
C2824 C2825 1.374 . S
C2825 H2805 0.950 . S
C2825 C2821 1.385 . S
C2825 C2824 1.374 . S
C2826 C2823 1.499 . S
C2826 C2827 1.373 . S
C2826 C2828 1.389 . S
C2827 H2806 0.950 . S
C2827 C2826 1.373 . S
C2827 C2843 1.377 . S
C2828 C2826 1.389 . S
C2828 C2829 1.524 . S
C2828 C2842 1.377 . S
C2829 C2828 1.524 . S
C2829 C2830 1.397 . S
C2829 C2834 1.363 . S
C2830 H2807 0.950 . S
C2830 C2829 1.397 . S
C2830 C2831 1.334 . S
C2831 H2808 0.950 . S
C2831 C2830 1.334 . S
C2831 C2832 1.287 . S
C2832 C2831 1.287 . S
C2832 C2833 1.524 . S
C2832 H2851 0.913 . S
C2833 H2809 0.950 . S
C2833 C2832 1.524 . S
C2833 C2834 1.415 . S
C2834 H2810 0.950 . S
C2834 C2829 1.363 . S
C2834 C2833 1.415 . S
C2835 H2811 0.951 . S
C2835 C2836 1.366 . S
C2835 C2837 1.388 . S
C2836 C2835 1.366 . S
C2836 C2840 1.385 . S
C2837 H2812 0.951 1_545 S
C2837 C2835 1.388 . S
C2837 C2838 1.366 1_545 S
C2838 C2837 1.366 1_565 S
C2838 C2839 1.414 1_565 S
C2838 C2841 1.499 . S
C2839 H2813 0.950 1_545 S
C2839 C2838 1.414 1_545 S
C2839 C2840 1.374 . S
C2840 H2814 0.950 . S
C2840 C2836 1.385 . S
C2840 C2839 1.374 . S
C2841 C2838 1.499 . S
C2841 C2842 1.373 . S
C2841 C2843 1.389 . S
C2842 H2815 0.950 . S
C2842 C2828 1.377 . S
C2842 C2841 1.373 . S
C2843 C2827 1.377 . S
C2843 C2841 1.389 . S
C2843 C2844 1.524 . S
C2844 C2843 1.524 . S
C2844 C2845 1.397 . S
C2844 C2849 1.363 . S
C2845 H2816 0.950 . S
C2845 C2844 1.397 . S
C2845 C2846 1.334 . S
C2846 H2817 0.950 . S
C2846 C2845 1.334 . S
C2846 C2847 1.287 . S
C2847 C2846 1.287 . S
C2847 C2848 1.524 . S
C2847 H2850 0.999 . S
C2848 H2818 0.950 . S
C2848 C2847 1.524 . S
C2848 C2849 1.415 . S
C2849 H2819 0.950 . S
C2849 C2844 1.363 . S
C2849 C2848 1.415 . S
H2850 C2847 0.999 . S
H2851 C2832 0.913 . S
H2852 C2870 0.951 . S
H2853 C2872 0.951 1_545 S
H2854 C2874 0.950 1_545 S
H2855 C2875 0.950 . S
H2856 C2877 0.950 . S
H2857 C2880 0.950 . S
H2858 C2881 0.950 . S
H2859 C2883 0.950 . S
H2860 C2884 0.950 . S
H2861 C2885 0.951 . S
H2862 C2887 0.951 . S
H2863 C2889 0.950 . S
H2864 C2890 0.950 . S
H2865 C2892 0.950 . S
H2866 C2895 0.950 . S
H2867 C2896 0.950 . S
H2868 C2898 0.950 . S
H2869 C2899 0.950 . S
C2870 H2852 0.951 . S
C2870 C2871 1.366 . S
C2870 C2872 1.388 . S
C2871 C2870 1.366 . S
C2871 C2875 1.385 . S
C2872 H2853 0.951 1_565 S
C2872 C2870 1.388 . S
C2872 C2873 1.366 1_565 S
C2873 C2872 1.366 1_545 S
C2873 C2874 1.414 1_545 S
C2873 C2876 1.499 . S
C2874 H2854 0.950 1_565 S
C2874 C2873 1.414 1_565 S
C2874 C2875 1.374 . S
C2875 H2855 0.950 . S
C2875 C2871 1.385 . S
C2875 C2874 1.374 . S
C2876 C2873 1.499 . S
C2876 C2877 1.373 . S
C2876 C2878 1.389 . S
C2877 H2856 0.950 . S
C2877 C2876 1.373 . S
C2877 C2893 1.377 . S
C2878 C2876 1.389 . S
C2878 C2879 1.524 . S
C2878 C2892 1.377 . S
C2879 C2878 1.524 . S
C2879 C2880 1.397 . S
C2879 C2884 1.363 . S
C2880 H2857 0.950 . S
C2880 C2879 1.397 . S
C2880 C2881 1.334 . S
C2881 H2858 0.950 . S
C2881 C2880 1.334 . S
C2881 C2882 1.287 . S
C2882 C2881 1.287 . S
C2882 C2883 1.524 . S
C2882 H2901 0.913 . S
C2883 H2859 0.950 . S
C2883 C2882 1.524 . S
C2883 C2884 1.415 . S
C2884 H2860 0.950 . S
C2884 C2879 1.363 . S
C2884 C2883 1.415 . S
C2885 H2861 0.951 . S
C2885 C2886 1.366 . S
C2885 C2887 1.388 . S
C2886 C2885 1.366 . S
C2886 C2890 1.385 . S
C2887 H2862 0.951 . S
C2887 C2885 1.388 . S
C2887 C2888 1.366 . S
C2888 C2887 1.366 . S
C2888 C2889 1.414 . S
C2888 C2891 1.499 . S
C2889 H2863 0.950 . S
C2889 C2888 1.414 . S
C2889 C2890 1.374 . S
C2890 H2864 0.950 . S
C2890 C2886 1.385 . S
C2890 C2889 1.374 . S
C2891 C2888 1.499 . S
C2891 C2892 1.373 . S
C2891 C2893 1.389 . S
C2892 H2865 0.950 . S
C2892 C2878 1.377 . S
C2892 C2891 1.373 . S
C2893 C2877 1.377 . S
C2893 C2891 1.389 . S
C2893 C2894 1.524 . S
C2894 C2893 1.524 . S
C2894 C2895 1.397 . S
C2894 C2899 1.363 . S
C2895 H2866 0.950 . S
C2895 C2894 1.397 . S
C2895 C2896 1.334 . S
C2896 H2867 0.950 . S
C2896 C2895 1.334 . S
C2896 C2897 1.287 . S
C2897 C2896 1.287 . S
C2897 C2898 1.524 . S
C2897 H2900 0.999 . S
C2898 H2868 0.950 . S
C2898 C2897 1.524 . S
C2898 C2899 1.415 . S
C2899 H2869 0.950 . S
C2899 C2894 1.363 . S
C2899 C2898 1.415 . S
H2900 C2897 0.999 . S
H2901 C2882 0.913 . S
H2902 C2920 0.951 . S
H2903 C2922 0.951 . S
H2904 C2924 0.950 . S
H2905 C2925 0.950 . S
H2906 C2927 0.950 . S
H2907 C2930 0.950 . S
H2908 C2931 0.950 . S
H2909 C2933 0.950 . S
H2910 C2934 0.950 . S
H2911 C2935 0.951 . S
H2912 C2937 0.951 . S
H2913 C2939 0.950 . S
H2914 C2940 0.950 . S
H2915 C2942 0.950 . S
H2916 C2945 0.950 . S
H2917 C2946 0.950 . S
H2918 C2948 0.950 . S
H2919 C2949 0.950 . S
C2920 H2902 0.951 . S
C2920 C2921 1.366 . S
C2920 C2922 1.388 . S
C2921 C2920 1.366 . S
C2921 C2925 1.385 . S
C2922 H2903 0.951 . S
C2922 C2920 1.388 . S
C2922 C2923 1.366 . S
C2923 C2922 1.366 . S
C2923 C2924 1.414 . S
C2923 C2926 1.499 . S
C2924 H2904 0.950 . S
C2924 C2923 1.414 . S
C2924 C2925 1.374 . S
C2925 H2905 0.950 . S
C2925 C2921 1.385 . S
C2925 C2924 1.374 . S
C2926 C2923 1.499 . S
C2926 C2927 1.373 . S
C2926 C2928 1.389 . S
C2927 H2906 0.950 . S
C2927 C2926 1.373 . S
C2927 C2943 1.377 . S
C2928 C2926 1.389 . S
C2928 C2929 1.524 . S
C2928 C2942 1.377 . S
C2929 C2928 1.524 . S
C2929 C2930 1.397 . S
C2929 C2934 1.363 . S
C2930 H2907 0.950 . S
C2930 C2929 1.397 . S
C2930 C2931 1.334 . S
C2931 H2908 0.950 . S
C2931 C2930 1.334 . S
C2931 C2932 1.287 . S
C2932 C2931 1.287 . S
C2932 C2933 1.524 . S
C2932 H2951 0.913 . S
C2933 H2909 0.950 . S
C2933 C2932 1.524 . S
C2933 C2934 1.415 . S
C2934 H2910 0.950 . S
C2934 C2929 1.363 . S
C2934 C2933 1.415 . S
C2935 H2911 0.951 . S
C2935 C2936 1.366 . S
C2935 C2937 1.388 . S
C2936 C2935 1.366 . S
C2936 C2940 1.385 . S
C2937 H2912 0.951 . S
C2937 C2935 1.388 . S
C2937 C2938 1.366 . S
C2938 C2937 1.366 . S
C2938 C2939 1.414 . S
C2938 C2941 1.499 . S
C2939 H2913 0.950 . S
C2939 C2938 1.414 . S
C2939 C2940 1.374 . S
C2940 H2914 0.950 . S
C2940 C2936 1.385 . S
C2940 C2939 1.374 . S
C2941 C2938 1.499 . S
C2941 C2942 1.373 . S
C2941 C2943 1.389 . S
C2942 H2915 0.950 . S
C2942 C2928 1.377 . S
C2942 C2941 1.373 . S
C2943 C2927 1.377 . S
C2943 C2941 1.389 . S
C2943 C2944 1.524 . S
C2944 C2943 1.524 . S
C2944 C2945 1.397 . S
C2944 C2949 1.363 . S
C2945 H2916 0.950 . S
C2945 C2944 1.397 . S
C2945 C2946 1.334 . S
C2946 H2917 0.950 . S
C2946 C2945 1.334 . S
C2946 C2947 1.287 . S
C2947 C2946 1.287 . S
C2947 C2948 1.524 . S
C2947 H2950 0.999 . S
C2948 H2918 0.950 . S
C2948 C2947 1.524 . S
C2948 C2949 1.415 . S
C2949 H2919 0.950 . S
C2949 C2944 1.363 . S
C2949 C2948 1.415 . S
H2950 C2947 0.999 . S
H2951 C2932 0.913 . S
C571 C191 1.716 . S
C586 N12 1.705 . S
C621 N35 1.705 . S
C636 C260 1.716 . S
C671 N58 1.706 . S
C686 C214 1.717 . S
C721 N81 1.705 . S
C736 C237 1.716 . S
C771 C99 1.762 . S
C786 C7 1.779 . S
C821 C30 1.780 . S
C836 C122 1.762 . S
C871 C145 1.762 . S
C886 C53 1.779 . S
C921 C76 1.779 . S
C936 C168 1.762 . S
C971 N104 1.532 . S
C986 N196 1.499 . S
C1021 N150 1.532 . S
C1036 N219 1.500 . S
C1071 N242 1.499 . S
C1086 N173 1.532 . S
C1121 N127 1.532 . S
C1136 N265 1.500 . S
C1171 C467 1.677 . S
C1186 N288 1.677 . S
C1221 N311 1.678 . S
C1236 C536 1.678 . S
C1271 N334 1.678 . S
C1286 C490 1.678 . S
C1321 C513 1.678 . S
C1336 N357 1.678 . S
C1371 N380 1.628 . S
C1386 C283 1.630 . S
C1421 C306 1.630 . S
C1436 N403 1.628 . S
C1471 C329 1.630 . S
C1486 N426 1.629 . S
C1521 N449 1.629 . S
C1536 C352 1.630 . S
C1571 N472 1.600 . S
C1586 C375 1.604 . S
C1621 C421 1.604 . S
C1636 N495 1.600 . S
C1671 C444 1.605 . S
C1686 N518 1.600 . S
C1721 N541 1.600 . S
C1736 C398 1.604 . S
C1771 C522 1.955 . S
C1786 N2 1.793 . S
C1821 C499 1.955 . S
C1836 N25 1.792 . S
C1871 C545 1.955 . S
C1886 N48 1.792 . S
C1921 N71 1.793 . S
C1936 C476 1.955 . S
C1971 C108 1.773 . S
C1986 C315 1.840 . S
C2021 C292 1.840 . S
C2036 C131 1.773 . S
C2071 C361 1.840 . S
C2086 C154 1.773 . S
C2121 C338 1.840 . S
C2136 C177 1.773 . S
C2171 N186 1.762 . S
C2186 C430 1.921 . S
C2221 C384 1.921 . S
C2236 N209 1.762 . S
C2271 C407 1.921 . S
C2286 N232 1.761 . S
C2321 C453 1.920 . S
C2336 N255 1.762 . S
C2371 C246 1.945 . S
C2386 N278 1.783 . S
C2421 C223 1.944 . S
C2436 N301 1.783 . S
C2471 N324 1.782 . S
C2486 C269 1.944 . S
C2521 C200 1.944 . S
C2536 N347 1.783 . S
C2571 N370 1.786 . S
C2586 C39 1.939 . S
C2621 N393 1.785 . S
C2636 C16 1.940 . S
C2671 N416 1.785 . S
C2686 C85 1.940 . S
C2721 N439 1.785 . S
C2736 C62 1.939 . S
C2771 N462 1.807 . S
C2786 N140 1.884 . S
C2821 N485 1.807 . S
C2836 N94 1.883 . S
C2871 N117 1.883 . S
C2886 N508 1.806 . S
C2921 N531 1.807 . S
C2936 N163 1.883 . S
