# Generated by pormake.
# Topology vby, (6)-cn, num edge types: 1
# Building blocks:
#     Node 0, Type 0, BuildingBlock: BETDEL_clean_sbu_0, # of connection points: 6
#     Node 1, Type 0, BuildingBlock: BETDEL_clean_sbu_0, # of connection points: 6
#     Node 2, Type 0, BuildingBlock: BETDEL_clean_sbu_0, # of connection points: 6
#     Node 3, Type 0, BuildingBlock: BETDEL_clean_sbu_0, # of connection points: 6
#     Node 4, Type 0, BuildingBlock: BETDEL_clean_sbu_0, # of connection points: 6
#     Node 5, Type 0, BuildingBlock: BETDEL_clean_sbu_0, # of connection points: 6
#     Node 6, Type 0, BuildingBlock: BETDEL_clean_sbu_0, # of connection points: 6
#     Node 7, Type 0, BuildingBlock: BETDEL_clean_sbu_0, # of connection points: 6
#     Edge 8, Type (0, 0), BuildingBlock: XUDNAN_clean_linker_2, # of connection points: 2
#     Edge 9, Type (0, 0), BuildingBlock: XUDNAN_clean_linker_2, # of connection points: 2
#     Edge 10, Type (0, 0), BuildingBlock: XUDNAN_clean_linker_2, # of connection points: 2
#     Edge 11, Type (0, 0), BuildingBlock: XUDNAN_clean_linker_2, # of connection points: 2
#     Edge 12, Type (0, 0), BuildingBlock: XUDNAN_clean_linker_2, # of connection points: 2
#     Edge 13, Type (0, 0), BuildingBlock: XUDNAN_clean_linker_2, # of connection points: 2
#     Edge 14, Type (0, 0), BuildingBlock: XUDNAN_clean_linker_2, # of connection points: 2
#     Edge 15, Type (0, 0), BuildingBlock: XUDNAN_clean_linker_2, # of connection points: 2
#     Edge 16, Type (0, 0), BuildingBlock: XUDNAN_clean_linker_2, # of connection points: 2
#     Edge 17, Type (0, 0), BuildingBlock: XUDNAN_clean_linker_2, # of connection points: 2
#     Edge 18, Type (0, 0), BuildingBlock: XUDNAN_clean_linker_2, # of connection points: 2
#     Edge 19, Type (0, 0), BuildingBlock: XUDNAN_clean_linker_2, # of connection points: 2
#     Edge 20, Type (0, 0), BuildingBlock: XUDNAN_clean_linker_2, # of connection points: 2
#     Edge 21, Type (0, 0), BuildingBlock: XUDNAN_clean_linker_2, # of connection points: 2
#     Edge 22, Type (0, 0), BuildingBlock: XUDNAN_clean_linker_2, # of connection points: 2
#     Edge 23, Type (0, 0), BuildingBlock: XUDNAN_clean_linker_2, # of connection points: 2
#     Edge 24, Type (0, 0), BuildingBlock: XUDNAN_clean_linker_2, # of connection points: 2
#     Edge 25, Type (0, 0), BuildingBlock: XUDNAN_clean_linker_2, # of connection points: 2
#     Edge 26, Type (0, 0), BuildingBlock: XUDNAN_clean_linker_2, # of connection points: 2
#     Edge 27, Type (0, 0), BuildingBlock: XUDNAN_clean_linker_2, # of connection points: 2
#     Edge 28, Type (0, 0), BuildingBlock: XUDNAN_clean_linker_2, # of connection points: 2
#     Edge 29, Type (0, 0), BuildingBlock: XUDNAN_clean_linker_2, # of connection points: 2
#     Edge 30, Type (0, 0), BuildingBlock: XUDNAN_clean_linker_2, # of connection points: 2
#     Edge 31, Type (0, 0), BuildingBlock: XUDNAN_clean_linker_2, # of connection points: 2
# Relax obj value: 0.123
# Max RMSD: 0.163
# Mean RMSD: 0.163
data_MOF--net-vby--node1-BETDEL_clean_sbu_0--edge1-XUDNAN_clean_linker_2
_symmetry_space_group_name_H-M    P1
_symmetry_Int_Tables_number       1
_symmetry_cell_setting            triclinic
loop_
_symmetry_equiv_pos_as_xyz
'x, y, z'
_cell_length_a     15.400436
_cell_length_b     70.840644
_cell_length_c     28.970043
_cell_angle_alpha  90.004162
_cell_angle_beta   86.818335
_cell_angle_gamma 90.317547
loop_
_atom_site_label
_atom_site_type_symbol
_atom_site_fract_x
_atom_site_fract_y
_atom_site_fract_z
_atom_type_partial_charge
Dy0 Dy 0.05919 0.40896 0.02028 0.0
C1 C 0.10307 0.32796 0.0333 0.0
C2 C 0.05691 0.44712 1.00457 0.0
Dy3 Dy 0.07702 0.36588 0.01804 0.0
O4 O 0.01448 0.43843 0.03817 0.0
O5 O 0.10085 0.43494 0.97918 0.0
O6 O 0.99787 0.40827 0.0914 0.0
O7 O 0.0895 0.38747 0.07178 0.0
C8 C 0.03389 0.39262 0.10311 0.0
C9 C 0.0915 0.38367 0.93493 0.0
O10 O 0.93296 0.36915 0.032 0.0
O11 O 0.92401 0.39988 1.00442 0.0
O12 O 0.09122 0.33556 0.99332 0.0
O13 O 0.09479 0.34093 0.06489 0.0
O14 O 0.13545 0.36878 0.94497 0.0
O15 O 0.03991 0.38752 0.96862 0.0
O16 O 0.20655 0.40604 0.01853 0.0
O17 O 0.21118 0.37392 0.03357 0.0
C18 C 0.88666 0.38398 0.01997 0.0
C19 C 0.2499 0.39048 0.02807 0.0
Dy20 Dy 0.93844 0.66694 0.01771 0.0
C21 C 0.99392 0.5855 0.00951 0.0
C22 C 0.91505 0.70541 0.01802 0.0
Dy23 Dy 0.95417 0.62308 1.00574 0.0
O24 O 0.95752 0.69592 0.0478 0.0
O25 O 0.8902 0.69395 0.98615 0.0
O26 O 0.87564 0.6618 0.08884 0.0
O27 O 0.96783 0.64294 0.06251 0.0
C28 C 0.91559 0.64613 0.09651 0.0
C29 C 0.95965 0.63925 0.92096 0.0
O30 O 0.81125 0.62643 0.02201 0.0
O31 O 0.80251 0.6582 1.00264 0.0
O32 O 0.04239 0.5987 0.99066 0.0
O33 O 0.92245 0.59285 0.02788 0.0
O34 O 0.96036 0.62129 0.9286 0.0
O35 O 0.95063 0.64762 0.95941 0.0
O36 O 0.08531 0.66411 0.00905 0.0
O37 O 0.08572 0.63198 0.02611 0.0
C38 C 0.76546 0.64173 0.0134 0.0
C39 C 0.12688 0.64833 0.01938 0.0
Dy40 Dy 0.07309 0.66719 0.49948 0.0
C41 C 0.05825 0.58393 0.48865 0.0
C42 C 0.13087 0.70384 0.49282 0.0
Dy43 Dy 0.06672 0.62218 0.50492 0.0
O44 O 0.14239 0.69075 0.46185 0.0
O45 O 0.08457 0.69707 0.52843 0.0
O46 O 1.00652 0.66625 0.43336 0.0
O47 O 0.08684 0.64351 0.44968 0.0
C48 C 0.03373 0.64958 0.42116 0.0
C49 C 0.0705 0.63752 0.59072 0.0
O50 O 0.20893 0.62676 0.49269 0.0
O51 O 0.21269 0.659 0.50865 0.0
O52 O 1.00045 0.59361 0.51276 0.0
O53 O 0.11931 0.59527 0.47246 0.0
O54 O 0.07234 0.61952 0.58261 0.0
O55 O 0.07037 0.6458 0.55239 0.0
O56 O 0.92987 0.66245 0.51679 0.0
O57 O 0.93137 0.63098 0.49173 0.0
C58 C 0.25177 0.64267 0.49959 0.0
C59 C 0.88945 0.6468 0.50341 0.0
Dy60 Dy 0.96757 0.40685 0.51672 0.0
C61 C 0.9083 0.32777 0.53371 0.0
C62 C 1.00612 0.44489 0.50902 0.0
Dy63 Dy 0.95961 0.36508 0.5284 0.0
O64 O 0.04496 0.43136 0.48619 0.0
O65 O 0.946 0.43767 0.53709 0.0
O66 O 0.90671 0.40342 0.44874 0.0
O67 O 0.99376 0.38298 0.46884 0.0
C68 C 0.94427 0.38762 0.43758 0.0
C69 C 0.99448 0.38281 0.60675 0.0
O70 O 0.10494 0.36799 0.51544 0.0
O71 O 0.10196 0.39971 0.53534 0.0
O72 O 0.91142 0.33954 0.56772 0.0
O73 O 0.93683 0.33618 0.49573 0.0
O74 O 0.02466 0.36642 0.59432 0.0
O75 O 0.94105 0.38878 0.57811 0.0
O76 O 0.82769 0.40461 0.53898 0.0
O77 O 0.81978 0.3731 0.51968 0.0
C78 C 0.14511 0.38383 0.52715 0.0
C79 C 0.78186 0.38922 0.53151 0.0
Dy80 Dy 0.56918 0.90961 0.01894 0.0
C81 C 0.60564 0.82705 0.03863 0.0
C82 C 0.55767 0.94725 0.99942 0.0
Dy83 Dy 0.57801 0.86435 0.01841 0.0
O84 O 0.50256 0.93779 0.02614 0.0
O85 O 0.61809 0.93601 0.98247 0.0
O86 O 0.57667 0.91374 0.09615 0.0
O87 O 0.57695 0.88696 0.06849 0.0
C88 C 0.57788 0.8959 0.10597 0.0
C89 C 0.59547 0.88184 0.93481 0.0
O90 O 0.43175 0.86847 0.025 0.0
O91 O 0.4328 0.90082 1.00695 0.0
O92 O 0.58006 0.83333 0.9994 0.0
O93 O 0.60983 0.84106 0.0675 0.0
O94 O 0.63107 0.86577 0.9442 0.0
O95 O 0.54871 0.88688 0.96963 0.0
O96 O 0.70958 0.90408 1.00035 0.0
O97 O 0.71646 0.87312 0.02684 0.0
C98 C 0.39138 0.88446 0.01458 0.0
C99 C 0.75417 0.88895 0.01161 0.0
Dy100 Dy 0.4345 0.16739 0.02185 0.0
C101 C 0.49112 0.08556 0.01242 0.0
C102 C 0.41038 0.20583 0.02131 0.0
Dy103 Dy 0.45134 0.12318 0.00929 0.0
O104 O 0.45015 0.19639 0.05228 0.0
O105 O 0.38859 0.19433 0.98882 0.0
O106 O 0.37254 0.16206 0.09297 0.0
O107 O 0.46429 0.1432 0.06608 0.0
C108 C 0.41252 0.14635 0.10033 0.0
C109 C 0.45517 0.14015 0.92535 0.0
O110 O 0.30827 0.12657 0.02578 0.0
O111 O 0.29883 0.15843 1.00685 0.0
O112 O 0.54083 0.09892 0.99525 0.0
O113 O 0.41828 0.09277 0.02946 0.0
O114 O 0.45904 0.12211 0.93154 0.0
O115 O 0.44612 0.14783 0.96448 0.0
O116 O 0.58156 0.16448 0.01345 0.0
O117 O 0.58248 0.13226 0.02999 0.0
C118 C 0.2622 0.14188 0.01737 0.0
C119 C 0.62334 0.14868 0.02352 0.0
Dy120 Dy 0.55938 0.16787 0.50576 0.0
C121 C 0.54486 0.087 0.52196 0.0
C122 C 0.60081 0.20523 0.51947 0.0
Dy123 Dy 0.55786 0.12581 0.51378 0.0
O124 O 0.60896 0.19639 0.48024 0.0
O125 O 0.5667 0.19383 0.55076 0.0
O126 O 0.49966 0.16747 0.43829 0.0
O127 O 0.58364 0.14499 0.4545 0.0
C128 C 0.53062 0.15109 0.42573 0.0
C129 C 0.57057 0.1449 0.59453 0.0
O130 O 0.69259 0.12982 0.48425 0.0
O131 O 0.70054 0.16006 0.51247 0.0
O132 O 0.58741 0.09827 0.54768 0.0
O133 O 0.50926 0.09691 0.49026 0.0
O134 O 0.61332 0.1298 0.58334 0.0
O135 O 0.52219 0.1489 0.56243 0.0
O136 O 0.41396 0.16391 0.51451 0.0
O137 O 0.41799 0.13135 0.50346 0.0
C138 C 0.7389 0.14467 0.49558 0.0
C139 C 0.3749 0.14748 0.50693 0.0
Dy140 Dy 0.45818 0.91022 0.5258 0.0
C141 C 0.40478 0.83013 0.50717 0.0
C142 C 0.46107 0.94856 0.54073 0.0
Dy143 Dy 0.44756 0.86723 0.52228 0.0
O144 O 0.42649 0.94029 0.50605 0.0
O145 O 0.49175 0.93582 0.5677 0.0
O146 O 0.53465 0.91009 0.45775 0.0
O147 O 0.43938 0.88936 0.47021 0.0
C148 C 0.49917 0.895 0.44181 0.0
C149 C 0.47779 0.88072 0.60657 0.0
O150 O 0.59291 0.87222 0.51132 0.0
O151 O 0.58903 0.90181 0.54568 0.0
O152 O 0.38029 0.83998 0.54327 0.0
O153 O 0.45476 0.84047 0.47935 0.0
O154 O 0.50627 0.86467 0.59052 0.0
O155 O 0.42823 0.88827 0.57825 0.0
O156 O 0.31437 0.9068 0.53547 0.0
O157 O 0.30655 0.87473 0.51905 0.0
C158 C 0.63231 0.88673 0.53085 0.0
C159 C 0.26934 0.89118 0.5285 0.0
H160 H 0.38717 0.41027 0.98315 0.0
H161 H 0.32266 0.37097 0.09501 0.0
H162 H 0.47769 0.36595 0.10565 0.0
H163 H 0.56505 0.38529 0.93415 0.0
H164 H 0.63361 0.40542 0.92013 0.0
H165 H 0.51713 0.40794 0.92347 0.0
H166 H 0.52829 0.4346 0.98403 0.0
H167 H 0.64503 0.43238 0.98031 0.0
H168 H 0.5858 0.43038 0.03555 0.0
H169 H 0.63538 0.36171 0.09865 0.0
H170 H 0.79355 0.3618 0.0811 0.0
H171 H 0.76359 0.40474 0.97624 0.0
C172 C 0.40611 0.40109 0.0107 0.0
C173 C 0.34293 0.39097 0.0382 0.0
C174 C 0.36998 0.37878 0.07335 0.0
C175 C 0.45794 0.37581 0.07974 0.0
C176 C 0.51874 0.38527 0.05099 0.0
C177 C 0.49475 0.39796 0.01775 0.0
C178 C 0.57483 0.40563 0.99072 0.0
C179 C 0.57247 0.40078 0.93906 0.0
C180 C 0.58403 0.42702 0.99811 0.0
C181 C 0.64645 0.39488 0.01333 0.0
C182 C 0.61203 0.38318 0.04785 0.0
C183 C 0.66357 0.37102 0.07219 0.0
C184 C 0.7533 0.37104 0.06164 0.0
C185 C 0.79091 0.38326 0.02737 0.0
C186 C 0.73661 0.39533 1.00286 0.0
H187 H 0.26566 0.6691 0.97784 0.0
H188 H 0.19994 0.62681 0.08281 0.0
H189 H 0.35451 0.6213 0.09281 0.0
H190 H 0.4461 0.64561 0.92548 0.0
H191 H 0.51424 0.66615 0.9157 0.0
H192 H 0.39767 0.66847 0.91855 0.0
H193 H 0.40624 0.69325 0.98386 0.0
H194 H 0.52305 0.69121 0.98075 0.0
H195 H 0.46226 0.68751 0.035 0.0
H196 H 0.51231 0.61707 0.08572 0.0
H197 H 0.67091 0.61773 0.06958 0.0
H198 H 0.64287 0.66385 0.97286 0.0
C199 C 0.28415 0.65909 1.00371 0.0
C200 C 0.22043 0.64828 0.02923 0.0
C201 C 0.24729 0.6351 0.06238 0.0
C202 C 0.33514 0.63185 0.06846 0.0
C203 C 0.39635 0.64203 0.04161 0.0
C204 C 0.3728 0.65568 0.01059 0.0
C205 C 0.45349 0.66418 0.9857 0.0
C206 C 0.45279 0.6609 0.93325 0.0
C207 C 0.46174 0.68529 0.99701 0.0
C208 C 0.52488 0.6528 1.00691 0.0
C209 C 0.48979 0.64005 0.03885 0.0
C210 C 0.541 0.6272 0.06132 0.0
C211 C 0.63103 0.62756 0.0516 0.0
C212 C 0.6694 0.64084 0.02009 0.0
C213 C 0.61539 0.65364 0.99743 0.0
H214 H 0.75119 0.66641 0.54807 0.0
H215 H 0.81644 0.62734 0.43591 0.0
H216 H 0.66234 0.62335 0.4221 0.0
H217 H 0.56252 0.64246 0.5923 0.0
H218 H 0.49797 0.66317 0.60493 0.0
H219 H 0.61478 0.66457 0.60492 0.0
H220 H 0.61591 0.69161 0.54479 0.0
H221 H 0.49892 0.69042 0.54492 0.0
H222 H 0.56331 0.68814 0.49135 0.0
H223 H 0.50493 0.62015 0.42517 0.0
H224 H 0.34603 0.621 0.43906 0.0
H225 H 0.37349 0.66347 0.54543 0.0
C226 C 0.73271 0.65732 0.52016 0.0
C227 C 0.79602 0.64694 0.49365 0.0
C228 C 0.76933 0.63513 0.45745 0.0
C229 C 0.68175 0.63281 0.44904 0.0
C230 C 0.62078 0.64255 0.47668 0.0
C231 C 0.64432 0.65485 0.51098 0.0
C232 C 0.5636 0.66312 0.5359 0.0
C233 C 0.55951 0.65802 0.58758 0.0
C234 C 0.56025 0.6846 0.5288 0.0
C235 C 0.49207 0.65313 0.51088 0.0
C236 C 0.52733 0.6413 0.47702 0.0
C237 C 0.47612 0.62958 0.45102 0.0
C238 C 0.38598 0.63006 0.45942 0.0
C239 C 0.34757 0.64233 0.49311 0.0
C240 C 0.40131 0.65412 0.51905 0.0
H241 H 0.66031 0.36723 0.48973 0.0
H242 H 0.6875 0.41267 0.58856 0.0
H243 H 0.52826 0.41369 0.60218 0.0
H244 H 0.47264 0.38636 0.43932 0.0
H245 H 0.42126 0.36383 0.43032 0.0
H246 H 0.53795 0.36548 0.43065 0.0
H247 H 0.53751 0.34016 0.49514 0.0
H248 H 0.42064 0.33852 0.49521 0.0
H249 H 0.47245 0.34377 0.54804 0.0
H250 H 0.36986 0.41031 0.60522 0.0
H251 H 0.21592 0.4055 0.5915 0.0
H252 H 0.28421 0.3632 0.4873 0.0
C253 C 0.63249 0.37727 0.51448 0.0
C254 C 0.68614 0.38983 0.53835 0.0
C255 C 0.64762 0.40299 0.56985 0.0
C256 C 0.55732 0.40357 0.57807 0.0
C257 C 0.50628 0.39103 0.55414 0.0
C258 C 0.54187 0.37829 0.52251 0.0
C259 C 0.47092 0.3674 0.49921 0.0
C260 C 0.47601 0.37099 0.44677 0.0
C261 C 0.47569 0.3462 0.51006 0.0
C262 C 0.38999 0.3762 0.52246 0.0
C263 C 0.41278 0.38956 0.55453 0.0
C264 C 0.3511 0.39997 0.58009 0.0
C265 C 0.26368 0.39715 0.57181 0.0
C266 C 0.23798 0.38414 0.53785 0.0
C267 C 0.30194 0.37315 0.51357 0.0
H268 H 0.87568 0.86767 0.05505 0.0
H269 H 0.84926 0.91157 0.95215 0.0
H270 H 1.00824 0.91262 0.93825 0.0
H271 H 0.06474 0.88756 0.10328 0.0
H272 H 0.11553 0.86521 0.11376 0.0
H273 H 0.99884 0.86671 0.11371 0.0
H274 H 0.99766 0.84062 0.05114 0.0
H275 H 0.11452 0.83912 0.0508 0.0
H276 H 0.06225 0.84366 0.9978 0.0
H277 H 0.16623 0.90969 0.93562 0.0
H278 H 0.32022 0.9053 0.94923 0.0
H279 H 0.25212 0.86405 0.05636 0.0
C280 C 0.90356 0.87739 0.02937 0.0
C281 C 0.85003 0.88952 1.00453 0.0
C282 C 0.88883 0.90223 0.97172 0.0
C283 C 0.97908 0.90283 0.96332 0.0
C284 C 0.02992 0.89074 0.98824 0.0
C285 C 0.9942 0.87839 0.02098 0.0
C286 C 0.06515 0.86787 0.04484 0.0
C287 C 0.06079 0.8721 0.09699 0.0
C288 C 0.05954 0.84655 0.03558 0.0
C289 C 0.14616 0.87648 0.02068 0.0
C290 C 0.12338 0.88941 0.98773 0.0
C291 C 0.18503 0.89965 0.96134 0.0
C292 C 0.27249 0.89707 0.96956 0.0
C293 C 0.2983 0.88447 1.00422 0.0
C294 C 0.23432 0.87366 0.02947 0.0
H295 H 0.13961 0.16382 0.97638 0.0
H296 H 0.16755 0.11793 0.07372 0.0
H297 H 1.00887 0.1173 0.08981 0.0
H298 H 0.9598 0.18768 0.03786 0.0
H299 H 0.9041 0.19332 0.98657 0.0
H300 H 0.02082 0.19107 0.98355 0.0
H301 H 0.01181 0.16587 0.91924 0.0
H302 H 0.89524 0.1682 0.92168 0.0
H303 H 0.94349 0.14536 0.9293 0.0
H304 H 0.85092 0.12167 0.09709 0.0
H305 H 0.69635 0.12732 0.08728 0.0
H306 H 0.76239 0.16926 0.98151 0.0
C307 C 0.11208 0.15366 1.00107 0.0
C308 C 0.16609 0.14093 0.02395 0.0
C309 C 0.12767 0.12771 0.05559 0.0
C310 C 0.0376 0.12737 0.06528 0.0
C311 C 0.98639 0.14017 0.04263 0.0
C312 C 0.02154 0.15286 0.01053 0.0
C313 C 0.95011 0.16418 0.98913 0.0
C314 C 0.95929 0.18532 0.99993 0.0
C315 C 0.95018 0.16069 0.93673 0.0
C316 C 0.86944 0.15578 0.01419 0.0
C317 C 0.89292 0.1422 0.04541 0.0
C318 C 0.83162 0.13217 0.07258 0.0
C319 C 0.74376 0.13551 0.06664 0.0
C320 C 0.71695 0.14863 0.03334 0.0
C321 C 0.7808 0.1593 1.00751 0.0
H322 H 0.23674 0.1696 0.54152 0.0
H323 H 0.3037 0.12326 0.44822 0.0
H324 H 0.15021 0.11915 0.4322 0.0
H325 H 0.04266 0.14894 0.59062 0.0
H326 H 0.98102 0.17049 0.59464 0.0
H327 H 0.09767 0.17128 0.59642 0.0
H328 H 0.10645 0.1946 0.52744 0.0
H329 H 0.98966 0.19392 0.52555 0.0
H330 H 0.057 0.18828 0.47459 0.0
H331 H 0.99196 0.11785 0.43026 0.0
H332 H 0.8329 0.1202 0.44093 0.0
H333 H 0.86143 0.16749 0.53449 0.0
C334 C 0.21881 0.15882 0.51727 0.0
C335 C 0.28209 0.14663 0.49648 0.0
C336 C 0.25628 0.13256 0.46517 0.0
C337 C 0.16922 0.13017 0.45552 0.0
C338 C 0.10811 0.14197 0.47731 0.0
C339 C 0.13111 0.1561 0.50734 0.0
C340 C 0.05056 0.1661 0.52751 0.0
C341 C 0.04253 0.16407 0.58044 0.0
C342 C 0.05096 0.18696 0.51289 0.0
C343 C 0.97946 0.15508 0.50476 0.0
C344 C 0.01473 0.14132 0.47578 0.0
C345 C 0.96325 0.1287 0.45244 0.0
C346 C 0.8729 0.13009 0.45892 0.0
C347 C 0.83467 0.14404 0.4884 0.0
C348 C 0.88883 0.15682 0.51131 0.0
H349 H 0.76924 0.86751 0.48451 0.0
H350 H 0.70659 0.90544 0.5994 0.0
H351 H 0.86125 0.90967 0.61155 0.0
H352 H 0.96056 0.84569 0.53843 0.0
H353 H 0.02254 0.84385 0.484 0.0
H354 H 0.9055 0.84239 0.48568 0.0
H355 H 0.90261 0.86976 0.42654 0.0
H356 H 0.01945 0.87146 0.4251 0.0
H357 H 0.95422 0.89192 0.43928 0.0
H358 H 0.0188 0.91351 0.60602 0.0
H359 H 0.17748 0.91293 0.59011 0.0
H360 H 0.1463 0.87089 0.48315 0.0
C361 C 0.78837 0.87635 0.51275 0.0
C362 C 0.72567 0.88638 0.54044 0.0
C363 C 0.75321 0.89789 0.57702 0.0
C364 C 0.8411 0.90036 0.58446 0.0
C365 C 0.90141 0.89101 0.55557 0.0
C366 C 0.87697 0.87889 0.52109 0.0
C367 C 0.95689 0.87095 0.49485 0.0
C368 C 0.96164 0.84944 0.50113 0.0
C369 C 0.95834 0.87635 0.44339 0.0
C370 C 0.02898 0.88097 0.51927 0.0
C371 C 0.99482 0.89254 0.55396 0.0
C372 C 0.04681 0.90425 0.57955 0.0
C373 C 0.13672 0.90395 0.57 0.0
C374 C 0.17389 0.89183 0.53563 0.0
C375 C 0.11934 0.88013 0.51 0.0
H376 H 0.90804 0.55439 0.04961 0.0
H377 H 0.12959 0.57076 0.95895 0.0
H378 H 0.16686 0.53739 0.94658 0.0
H379 H 0.01599 0.51518 0.10337 0.0
H380 H 0.92041 0.50034 0.10709 0.0
H381 H 0.90942 0.52564 0.10861 0.0
H382 H 0.81024 0.52405 0.03935 0.0
H383 H 0.82138 0.49875 0.03746 0.0
H384 H 0.84925 0.51264 0.98662 0.0
H385 H 0.17843 0.50242 0.94116 0.0
H386 H 0.17036 0.46768 0.94895 0.0
H387 H 0.94705 0.47324 0.04594 0.0
C388 C 0.96445 0.55089 0.02735 0.0
C389 C 0.01575 0.5652 1.00516 0.0
C390 C 0.08928 0.56008 0.97637 0.0
C391 C 0.11097 0.54112 0.96894 0.0
C392 C 0.05905 0.52733 0.99086 0.0
C393 C 0.98791 0.53189 0.01992 0.0
C394 C 0.94471 0.51414 0.03995 0.0
C395 C 0.94786 0.51381 0.0929 0.0
C396 C 0.85083 0.51229 0.02494 0.0
C397 C 1.00274 0.49904 0.01755 0.0
C398 C 0.06765 0.507 0.98895 0.0
C399 C 0.12822 0.49599 0.96368 0.0
C400 C 0.12303 0.47629 0.96817 0.0
C401 C 0.05848 0.46782 0.99812 0.0
C402 C 0.99741 0.47937 0.02296 0.0
H403 H 0.9205 0.47623 0.54683 0.0
H404 H 0.13699 0.45963 0.45367 0.0
H405 H 0.17103 0.49309 0.43745 0.0
H406 H 0.8534 0.51599 0.47914 0.0
H407 H 0.82564 0.53073 0.52844 0.0
H408 H 0.81796 0.50542 0.53363 0.0
H409 H 0.92002 0.50626 0.60169 0.0
H410 H 0.92761 0.53158 0.59687 0.0
H411 H 0.02503 0.51754 0.59389 0.0
H412 H 0.1828 0.5282 0.43089 0.0
H413 H 0.17284 0.56294 0.43571 0.0
H414 H 0.94813 0.55766 0.53205 0.0
C415 C 0.97524 0.47969 0.52322 0.0
C416 C 0.02625 0.46527 0.50157 0.0
C417 C 0.09704 0.47038 0.4707 0.0
C418 C 0.11689 0.48938 0.46119 0.0
C419 C 0.06526 0.50326 0.48268 0.0
C420 C 0.99596 0.49872 0.51314 0.0
C421 C 0.95116 0.51654 0.53135 0.0
C422 C 0.85642 0.5172 0.51729 0.0
C423 C 0.95629 0.51807 0.58408 0.0
C424 C 1.00628 0.5317 0.50647 0.0
C425 C 0.07167 0.52366 0.47855 0.0
C426 C 0.13173 0.53466 0.45255 0.0
C427 C 0.12549 0.5544 0.45544 0.0
C428 C 0.05957 0.56303 0.484 0.0
C429 C 0.99882 0.55147 0.50959 0.0
H430 H 0.4365 0.9727 0.03455 0.0
H431 H 0.67999 0.9687 0.95238 0.0
H432 H 0.68819 1.00347 0.94786 0.0
H433 H 0.35241 1.0134 0.97346 0.0
H434 H 0.3025 0.0238 0.02509 0.0
H435 H 0.31425 0.99855 0.02097 0.0
H436 H 0.39681 0.99856 0.09643 0.0
H437 H 0.38603 0.02382 0.10058 0.0
H438 H 0.49219 1.01322 0.10033 0.0
H439 H 0.67495 0.03821 0.95542 0.0
H440 H 0.63596 0.0714 0.96898 0.0
H441 H 0.39766 0.05393 0.04457 0.0
C442 C 0.49098 0.97918 0.01521 0.0
C443 C 0.55773 0.96802 0.99371 0.0
C444 C 0.62814 0.97697 0.96892 0.0
C445 C 0.63345 0.99671 0.96631 0.0
C446 C 0.56751 1.00732 0.98844 0.0
C447 C 0.49702 0.99895 0.01199 0.0
C448 C 0.43524 1.01379 0.03263 0.0
C449 C 0.3458 1.01229 0.01178 0.0
C450 C 0.42712 1.01225 0.08564 0.0
C451 C 0.48249 0.0318 0.01728 0.0
C452 C 0.55886 0.02762 0.99205 0.0
C453 C 0.61505 0.04167 0.9748 0.0
C454 C 0.5923 0.06051 0.98287 0.0
C455 C 0.51366 0.0653 1.00776 0.0
C456 C 0.45812 0.05071 0.02541 0.0
H457 H 0.46973 0.05881 0.46906 0.0
H458 H 0.59954 0.06853 0.59625 0.0
H459 H 0.5862 0.03484 0.61546 0.0
H460 H 0.31801 0.02279 0.51458 0.0
H461 H 0.3252 1.00846 0.4631 0.0
H462 H 0.34216 0.03361 0.45898 0.0
H463 H 0.49262 0.02823 0.41682 0.0
H464 H 0.47594 1.00307 0.42066 0.0
H465 H 0.57129 1.01363 0.44348 0.0
H466 H 0.56111 1.00039 0.62182 0.0
H467 H 0.53095 0.96641 0.6129 0.0
H468 H 0.41905 0.97746 0.48143 0.0
C469 C 0.49503 0.05379 0.50093 0.0
C470 C 0.53558 0.06639 0.5312 0.0
C471 C 0.56833 0.05924 0.57244 0.0
C472 C 0.56088 0.04007 0.58382 0.0
C473 C 0.52078 0.02802 0.55355 0.0
C474 C 0.48876 0.03446 0.51279 0.0
C475 C 0.45099 0.01811 0.48607 0.0
C476 C 0.35328 0.02092 0.48035 0.0
C477 C 0.50069 1.01562 0.43896 0.0
C478 C 0.46703 1.00162 0.51824 0.0
C479 C 0.50699 1.00779 0.55704 0.0
C480 C 0.52969 0.99537 0.59163 0.0
C481 C 0.51217 0.97607 0.58629 0.0
C482 C 0.4724 0.96925 0.54665 0.0
C483 C 0.44892 0.98227 0.51232 0.0
H484 H 0.12953 0.29857 0.97077 0.0
H485 H 0.17158 0.31536 0.11187 0.0
H486 H 0.2589 0.28677 0.12228 0.0
H487 H 0.10975 0.24754 0.99662 0.0
H488 H 0.16338 0.24065 0.9424 0.0
H489 H 0.10224 0.26226 0.94625 0.0
H490 H 0.23824 0.28074 0.91441 0.0
H491 H 0.30018 0.25923 0.91121 0.0
H492 H 0.3382 0.27904 0.9437 0.0
H493 H 0.35114 0.25786 0.11599 0.0
H494 H 0.42397 0.22766 0.09766 0.0
H495 H 0.31676 0.22771 0.96227 0.0
C496 C 0.15589 0.29602 1.00407 0.0
C497 C 0.14351 0.30924 0.04057 0.0
C498 C 0.17955 0.30544 0.08351 0.0
C499 C 0.22988 0.28928 0.08968 0.0
C500 C 0.24282 0.27679 0.05279 0.0
C501 C 0.20534 0.27968 0.01114 0.0
C502 C 0.22831 0.26368 0.97761 0.0
C503 C 0.14602 0.2529 0.96498 0.0
C504 C 0.27926 0.27113 0.93416 0.0
C505 C 0.28554 0.25157 1.00673 0.0
C506 C 0.29365 0.25957 0.04979 0.0
C507 C 0.34455 0.25136 0.08255 0.0
C508 C 0.38626 0.23424 0.07167 0.0
C509 C 0.37634 0.22529 0.02855 0.0
C510 C 0.32597 0.23424 0.99545 0.0
H511 H 0.6205 0.7969 0.97786 0.0
H512 H 0.68814 0.81543 0.11408 0.0
H513 H 0.77795 0.78701 0.12187 0.0
H514 H 0.60818 0.74606 1.00675 0.0
H515 H 0.65294 0.73891 0.9507 0.0
H516 H 0.59095 0.76036 0.95662 0.0
H517 H 0.72032 0.77898 0.91764 0.0
H518 H 0.78327 0.75765 0.91235 0.0
H519 H 0.82552 0.77784 0.94185 0.0
H520 H 0.86944 0.75798 0.11285 0.0
H521 H 0.94067 0.72778 0.09237 0.0
H522 H 0.81069 0.72667 0.96329 0.0
C523 C 0.65281 0.79475 0.00968 0.0
C524 C 0.64695 0.8084 0.04549 0.0
C525 C 0.69103 0.80516 0.08635 0.0
C526 C 0.74278 0.78909 0.09097 0.0
C527 C 0.74933 0.7762 0.05462 0.0
C528 C 0.70423 0.7786 0.01512 0.0
C529 C 0.72245 0.76242 0.98145 0.0
C530 C 0.63865 0.75128 0.97342 0.0
C531 C 0.76545 0.76966 0.93561 0.0
C532 C 0.78559 0.75073 1.00799 0.0
C533 C 0.80064 0.75908 0.04992 0.0
C534 C 0.85756 0.75122 0.08028 0.0
C535 C 0.89828 0.73411 0.06816 0.0
C536 C 0.88162 0.72485 0.0262 0.0
C537 C 0.82522 0.73345 0.99548 0.0
H538 H 0.13374 0.73383 0.55581 0.0
H539 H 0.22469 0.71656 0.41775 0.0
H540 H 0.30497 0.74641 0.40726 0.0
H541 H 0.10657 0.78382 0.52702 0.0
H542 H 0.14352 0.79224 0.58131 0.0
H543 H 0.09105 0.76951 0.5783 0.0
H544 H 0.22434 0.75388 0.61305 0.0
H545 H 0.27743 0.77654 0.61582 0.0
H546 H 0.33089 0.75732 0.58522 0.0
H547 H 0.38003 0.77751 0.41145 0.0
H548 H 0.43833 0.80913 0.42925 0.0
H549 H 0.29925 0.80742 0.5636 0.0
C550 C 0.1699 0.73646 0.52331 0.0
C551 C 0.17267 0.72277 0.48761 0.0
C552 C 0.22126 0.72675 0.44566 0.0
C553 C 0.26745 0.7437 0.4393 0.0
C554 C 0.26459 0.75678 0.47509 0.0
C555 C 0.2166 0.75353 0.51617 0.0
C556 C 0.2251 0.77019 0.54877 0.0
C557 C 0.13627 0.77949 0.55947 0.0
C558 C 0.26694 0.76411 0.59336 0.0
C559 C 0.28555 0.7831 0.51963 0.0
C560 C 0.30762 0.77501 0.4773 0.0
C561 C 0.36303 0.78406 0.44445 0.0
C562 C 0.39612 0.80198 0.45488 0.0
C563 C 0.37359 0.81072 0.49772 0.0
C564 C 0.31782 0.80107 0.53055 0.0
H565 H 0.86963 0.30156 0.46551 0.0
H566 H 0.84973 0.31141 0.61362 0.0
H567 H 0.76641 0.28196 0.62502 0.0
H568 H 0.65612 0.2818 0.45665 0.0
H569 H 0.68828 0.26402 0.41469 0.0
H570 H 0.74903 0.28577 0.41714 0.0
H571 H 0.8906 0.26706 0.42754 0.0
H572 H 0.83044 0.24525 0.42456 0.0
H573 H 0.89403 0.25004 0.47367 0.0
H574 H 0.67965 0.25245 0.62131 0.0
H575 H 0.60565 0.22263 0.60292 0.0
H576 H 0.68248 0.23028 0.45771 0.0
C577 C 0.84865 0.29734 0.5003 0.0
C578 C 0.86642 0.30885 0.5387 0.0
C579 C 0.83718 0.30289 0.58364 0.0
C580 C 0.78939 0.28617 0.59055 0.0
C581 C 0.77136 0.27533 0.5522 0.0
C582 C 0.80085 0.28045 0.50796 0.0
C583 C 0.77228 0.26592 0.47307 0.0
C584 C 0.71289 0.27492 0.43834 0.0
C585 C 0.85156 0.25651 0.44825 0.0
C586 C 0.72202 0.25202 0.50469 0.0
C587 C 0.72201 0.25788 0.55015 0.0
C588 C 0.67951 0.24765 0.58586 0.0
C589 C 0.63724 0.23075 0.57506 0.0
C590 C 0.638 0.22413 0.52897 0.0
C591 C 0.68044 0.23503 0.49328 0.0
H592 H 0.91541 0.40376 0.16937 0.0
H593 H 0.13334 0.36587 0.14557 0.0
H594 H 0.12354 0.35724 0.22896 0.0
H595 H 0.97946 0.42206 0.27282 0.0
H596 H 0.87093 0.42428 0.29882 0.0
H597 H 0.88855 0.4252 0.23702 0.0
H598 H 0.77873 0.3977 0.22861 0.0
H599 H 0.76063 0.3967 0.29056 0.0
H600 H 0.79413 0.37584 0.25886 0.0
H601 H 0.0973 0.35562 0.3176 0.0
H602 H 0.06049 0.36157 0.40074 0.0
H603 H 0.86085 0.40082 0.36387 0.0
C604 C 0.96025 0.39336 0.18142 0.0
C605 C 0.02506 0.38543 0.1511 0.0
C606 C 0.08282 0.372 0.16826 0.0
C607 C 0.0776 0.36705 0.21553 0.0
C608 C 0.01387 0.37556 0.2448 0.0
C609 C 0.95601 0.38837 0.22807 0.0
C610 C 0.89788 0.39677 0.26645 0.0
C611 C 0.90999 0.41835 0.26891 0.0
C612 C 0.80217 0.39143 0.26078 0.0
C613 C 0.93307 0.38709 0.30788 0.0
C614 C 0.99928 0.37472 0.29492 0.0
C615 C 0.04483 0.36508 0.3279 0.0
C616 C 0.02342 0.36852 0.37505 0.0
C617 C 0.95763 0.38161 0.38871 0.0
C618 C 0.91085 0.3906 0.35453 0.0
H619 H 0.83425 0.6581 0.17741 0.0
H620 H 0.03262 0.61968 0.12302 0.0
H621 H 0.07368 0.61272 0.20267 0.0
H622 H 0.95538 0.67853 0.25937 0.0
H623 H 0.86793 0.68112 0.30286 0.0
H624 H 0.84462 0.68042 0.24281 0.0
H625 H 0.73819 0.65242 0.2589 0.0
H626 H 0.76109 0.65305 0.31925 0.0
H627 H 0.77575 0.63148 0.28684 0.0
H628 H 0.10584 0.61343 0.28885 0.0
H629 H 0.12488 0.62205 0.37096 0.0
H630 H 0.90511 0.65983 0.36712 0.0
C631 C 0.88452 0.64778 0.18232 0.0
C632 C 0.92991 0.63937 0.14401 0.0
C633 C 0.99647 0.6262 0.15188 0.0
C634 C 0.02023 0.62215 0.19706 0.0
C635 C 0.97616 0.63122 0.23413 0.0
C636 C 0.90891 0.64361 0.22709 0.0
C637 C 0.87692 0.65288 0.27189 0.0
C638 C 0.88687 0.67451 0.26903 0.0
C639 C 0.78237 0.64711 0.28498 0.0
C640 C 0.93877 0.64442 0.30493 0.0
C641 C 0.9948 0.6317 0.28298 0.0
C642 C 0.06128 0.62315 0.30645 0.0
C643 C 0.07166 0.62806 0.35307 0.0
C644 C 0.0165 0.64158 0.37529 0.0
C645 C 0.94813 0.64939 0.35106 0.0
H646 H 0.06693 0.62297 0.85804 0.0
H647 H 0.90505 0.67235 0.87849 0.0
H648 H 0.93193 0.68053 0.79497 0.0
H649 H 0.22512 0.64291 0.77009 0.0
H650 H 0.23249 0.62066 0.73999 0.0
H651 H 0.21099 0.62111 0.80176 0.0
H652 H 0.07168 0.60098 0.79298 0.0
H653 H 0.09242 0.60052 0.73142 0.0
H654 H 0.98996 0.6092 0.75566 0.0
H655 H 0.96463 0.68012 0.70434 0.0
H656 H 0.99501 0.67102 0.62189 0.0
H657 H 0.13195 0.62161 0.66607 0.0
C658 C 0.03859 0.63581 0.84534 0.0
C659 C 0.98413 0.64707 0.87459 0.0
C660 C 0.94794 0.66367 0.85667 0.0
C661 C 0.9628 0.66833 0.80927 0.0
C662 C 0.01492 0.65637 0.78087 0.0
C663 C 0.05286 0.64055 0.79891 0.0
C664 C 0.09965 0.62882 0.76196 0.0
C665 C 0.19789 0.62836 0.76887 0.0
C666 C 0.06107 0.60871 0.76043 0.0
C667 C 0.08012 0.64 0.71956 0.0
C668 C 0.0325 0.65606 0.73059 0.0
C669 C 1.00302 0.66774 0.69575 0.0
C670 C 0.02086 0.66255 0.649 0.0
C671 C 0.06637 0.6457 0.63782 0.0
C672 C 0.09779 0.63468 0.67365 0.0
H673 H 0.11786 0.37179 0.66301 0.0
H674 H 0.89816 0.40952 0.65731 0.0
H675 H 0.91096 0.41711 0.74056 0.0
H676 H 0.05787 0.3517 0.76767 0.0
H677 H 0.16658 0.34931 0.78692 0.0
H678 H 0.14888 0.34954 0.72613 0.0
H679 H 0.2568 0.37755 0.71422 0.0
H680 H 0.2755 0.37731 0.7751 0.0
H681 H 0.24064 0.3987 0.74813 0.0
H682 H 0.9386 0.41726 0.8271 0.0
H683 H 0.97558 0.40992 0.90714 0.0
H684 H 0.17478 0.37128 0.85463 0.0
C685 C 0.07343 0.38199 0.67894 0.0
C686 C 1.00697 0.3901 0.65382 0.0
C687 C 0.94994 0.40328 0.6759 0.0
C688 C 0.95683 0.40762 0.72313 0.0
C689 C 0.02156 0.39878 0.74733 0.0
C690 C 0.07925 0.38634 0.72565 0.0
C691 C 0.13805 0.37732 0.75948 0.0
C692 C 0.12712 0.3557 0.76008 0.0
C693 C 0.2334 0.38307 0.74858 0.0
C694 C 0.1028 0.38607 0.80423 0.0
C695 C 0.0366 0.39866 0.79658 0.0
C696 C 0.99102 0.40762 0.83323 0.0
C697 C 0.01246 0.40334 0.87861 0.0
C698 C 0.07816 0.39004 0.88708 0.0
C699 C 0.12488 0.38164 0.84925 0.0
H700 H 0.64513 0.91289 0.17902 0.0
H701 H 0.49973 0.8633 0.1413 0.0
H702 H 0.47114 0.85568 0.22471 0.0
H703 H 0.74136 0.89212 0.28265 0.0
H704 H 0.7338 0.91431 0.31304 0.0
H705 H 0.75043 0.91402 0.25098 0.0
H706 H 0.61415 0.93494 0.24435 0.0
H707 H 0.5963 0.93508 0.30618 0.0
H708 H 0.51125 0.92708 0.27048 0.0
H709 H 0.44161 0.85671 0.31418 0.0
H710 H 0.42601 0.86458 0.3979 0.0
H711 H 0.59755 0.91271 0.37408 0.0
C712 C 0.60942 0.9001 0.18829 0.0
C713 C 0.57515 0.88858 0.1539 0.0
C714 C 0.52777 0.87211 0.16722 0.0
C715 C 0.51083 0.86779 0.21451 0.0
C716 C 0.54325 0.8799 0.24777 0.0
C717 C 0.5933 0.8955 0.23491 0.0
C718 C 0.61771 0.9069 0.27645 0.0
C719 C 0.7167 0.90682 0.28105 0.0
C720 C 0.58273 0.92719 0.2742 0.0
C721 C 0.57124 0.89575 0.31493 0.0
C722 C 0.52858 0.88018 0.29811 0.0
C723 C 0.47628 0.86867 0.32757 0.0
C724 C 0.46754 0.87325 0.37506 0.0
C725 C 0.51104 0.88917 0.39259 0.0
C726 C 0.56423 0.90031 0.36196 0.0
H727 H 0.33071 0.15803 0.18127 0.0
H728 H 0.53376 0.12077 0.12681 0.0
H729 H 0.57758 0.11458 0.20637 0.0
H730 H 0.45043 0.17978 0.26212 0.0
H731 H 0.36326 0.18193 0.30592 0.0
H732 H 0.33913 0.18081 0.24601 0.0
H733 H 0.23709 0.15213 0.26302 0.0
H734 H 0.26058 0.15322 0.32325 0.0
H735 H 0.27808 0.13162 0.29132 0.0
H736 H 0.61087 0.11592 0.29262 0.0
H737 H 0.62799 0.12464 0.37488 0.0
H738 H 0.40286 0.16089 0.37068 0.0
C739 C 0.38269 0.14812 0.18615 0.0
C740 C 0.42852 0.13983 0.14784 0.0
C741 C 0.49722 0.12718 0.15568 0.0
C742 C 0.52262 0.1236 0.20081 0.0
C743 C 0.47803 0.13258 0.23784 0.0
C744 C 0.40869 0.14441 0.23084 0.0
C745 C 0.37591 0.15365 0.27551 0.0
C746 C 0.38265 0.17532 0.27216 0.0
C747 C 0.28236 0.14727 0.28907 0.0
C748 C 0.43944 0.14579 0.30848 0.0
C749 C 0.49729 0.13342 0.2866 0.0
C750 C 0.56497 0.12537 0.31013 0.0
C751 C 0.57431 0.13036 0.35682 0.0
C752 C 0.51689 0.14344 0.37905 0.0
C753 C 0.44781 0.15083 0.35463 0.0
H754 H 0.5773 0.12841 0.86308 0.0
H755 H 0.37686 0.17059 0.88434 0.0
H756 H 0.39596 0.17957 0.80114 0.0
H757 H 0.71617 0.15501 0.77496 0.0
H758 H 0.74353 0.13354 0.74421 0.0
H759 H 0.72249 0.13306 0.80603 0.0
H760 H 0.60452 0.10732 0.79662 0.0
H761 H 0.62424 0.10786 0.73496 0.0
H762 H 0.51614 0.11188 0.75995 0.0
H763 H 0.42311 0.17977 0.71186 0.0
H764 H 0.45972 0.17255 0.62919 0.0
H765 H 0.64514 0.13077 0.6699 0.0
C766 C 0.5393 0.13998 0.85055 0.0
C767 C 0.47616 0.14895 0.87989 0.0
C768 C 0.42665 0.16381 0.86239 0.0
C769 C 0.43693 0.16888 0.81519 0.0
C770 C 0.49805 0.15916 0.78661 0.0
C771 C 0.54952 0.14526 0.80418 0.0
C772 C 0.60589 0.1358 0.76664 0.0
C773 C 0.70277 0.13959 0.77336 0.0
C774 C 0.58646 0.11447 0.76443 0.0
C775 C 0.57605 0.14595 0.72457 0.0
C776 C 0.51436 0.1595 0.73644 0.0
C777 C 0.47261 0.16946 0.70249 0.0
C778 C 0.49369 0.16527 0.65561 0.0
C779 C 0.55568 0.15119 0.64316 0.0
C780 C 0.59835 0.14178 0.67825 0.0
H781 H 0.59241 0.8659 0.66381 0.0
H782 H 0.39557 0.90918 0.65794 0.0
H783 H 0.41422 0.91662 0.74079 0.0
H784 H 0.52883 0.84829 0.77252 0.0
H785 H 0.63757 0.84367 0.78945 0.0
H786 H 0.61458 0.84346 0.72928 0.0
H787 H 0.73507 0.86858 0.71208 0.0
H788 H 0.75864 0.86885 0.77233 0.0
H789 H 0.73213 0.8905 0.74373 0.0
H790 H 0.44694 0.91692 0.82734 0.0
H791 H 0.48858 0.91011 0.90705 0.0
H792 H 0.66411 0.86662 0.85409 0.0
C793 C 0.55389 0.87714 0.67969 0.0
C794 C 0.49229 0.88694 0.6545 0.0
C795 C 0.44327 0.90154 0.67658 0.0
C796 C 0.45358 0.90583 0.7236 0.0
C797 C 0.51384 0.89553 0.74774 0.0
C798 C 0.56356 0.88158 0.72617 0.0
C799 C 0.62051 0.87178 0.75969 0.0
C800 C 0.59904 0.85055 0.76292 0.0
C801 C 0.71733 0.87513 0.74615 0.0
C802 C 0.59355 0.88194 0.8041 0.0
C803 C 0.53269 0.89576 0.79663 0.0
C804 C 0.49528 0.90629 0.83326 0.0
C805 C 0.51941 0.90234 0.87847 0.0
C806 C 0.57993 0.88789 0.88682 0.0
C807 C 0.61845 0.87789 0.84886 0.0
loop_
_geom_bond_atom_site_label_1
_geom_bond_atom_site_label_2
_geom_bond_distance
_geom_bond_site_symmetry_2
_ccdc_geom_bond_type
Dy0 O4 2.398 . S
Dy0 O5 2.491 1_454 S
Dy0 O6 2.403 . S
Dy0 O7 2.664 . S
Dy0 O11 2.326 1_455 S
Dy0 O15 2.310 1_554 S
Dy0 O16 2.351 . S
C1 O12 1.185 1_554 S
C1 O13 1.355 . S
C2 O4 1.185 1_655 S
C2 O5 1.355 1_554 S
Dy3 O7 2.310 . S
Dy3 O10 2.351 1_455 S
Dy3 O12 2.398 1_554 S
Dy3 O13 2.491 . S
Dy3 O14 2.403 1_554 S
Dy3 O15 2.664 1_554 S
Dy3 O17 2.326 1_554 S
O4 Dy0 2.398 . S
O4 C2 1.185 1_455 S
O5 Dy0 2.491 1_656 S
O5 C2 1.355 1_556 S
O6 Dy0 2.403 . S
O6 C8 1.254 . S
O7 Dy0 2.664 . S
O7 Dy3 2.310 . S
O7 C8 1.268 . S
C8 O6 1.254 . S
C8 O7 1.268 . S
C9 O14 1.254 . S
C9 O15 1.268 . S
O10 Dy3 2.351 1_655 S
O10 C18 1.249 . S
O11 Dy0 2.326 1_655 S
O11 C18 1.267 . S
O12 C1 1.185 1_556 S
O12 Dy3 2.398 1_556 S
O13 C1 1.355 . S
O13 Dy3 2.491 . S
O14 Dy3 2.403 1_556 S
O14 C9 1.254 . S
O15 Dy0 2.310 1_556 S
O15 Dy3 2.664 1_556 S
O15 C9 1.268 . S
O16 Dy0 2.351 . S
O16 C19 1.249 . S
O17 Dy3 2.326 1_556 S
O17 C19 1.267 1_556 S
C18 O10 1.249 . S
C18 O11 1.267 . S
C19 O16 1.249 . S
C19 O17 1.267 1_554 S
Dy20 O24 2.398 . S
Dy20 O25 2.491 1_554 S
Dy20 O26 2.403 . S
Dy20 O27 2.664 . S
Dy20 O31 2.326 . S
Dy20 O35 2.310 1_554 S
Dy20 O36 2.351 1_655 S
C21 O32 1.185 1_454 S
C21 O33 1.355 . S
C22 O24 1.185 . S
C22 O25 1.355 1_554 S
Dy23 O27 2.310 . S
Dy23 O30 2.351 . S
Dy23 O32 2.398 1_554 S
Dy23 O33 2.491 1_655 S
Dy23 O34 2.403 1_554 S
Dy23 O35 2.664 1_554 S
Dy23 O37 2.326 1_654 S
O24 Dy20 2.398 . S
O24 C22 1.185 . S
O25 Dy20 2.491 1_556 S
O25 C22 1.355 1_556 S
O26 Dy20 2.403 . S
O26 C28 1.254 . S
O27 Dy20 2.664 . S
O27 Dy23 2.310 . S
O27 C28 1.268 . S
C28 O26 1.254 . S
C28 O27 1.268 . S
C29 O34 1.254 . S
C29 O35 1.268 . S
O30 Dy23 2.351 . S
O30 C38 1.249 . S
O31 Dy20 2.326 . S
O31 C38 1.267 . S
O32 C21 1.185 1_656 S
O32 Dy23 2.398 1_556 S
O33 C21 1.355 . S
O33 Dy23 2.491 1_455 S
O34 Dy23 2.403 1_556 S
O34 C29 1.254 . S
O35 Dy20 2.310 1_556 S
O35 Dy23 2.664 1_556 S
O35 C29 1.268 . S
O36 Dy20 2.351 1_455 S
O36 C39 1.249 . S
O37 Dy23 2.326 1_456 S
O37 C39 1.267 1_556 S
C38 O30 1.249 . S
C38 O31 1.267 . S
C39 O36 1.249 . S
C39 O37 1.267 1_554 S
Dy40 O44 2.398 . S
Dy40 O45 2.491 . S
Dy40 O46 2.403 . S
Dy40 O47 2.664 . S
Dy40 O51 2.326 . S
Dy40 O55 2.310 . S
Dy40 O56 2.351 1_455 S
C41 O52 1.185 1_655 S
C41 O53 1.355 . S
C42 O44 1.185 . S
C42 O45 1.355 . S
Dy43 O47 2.310 . S
Dy43 O50 2.351 . S
Dy43 O52 2.398 . S
Dy43 O53 2.491 1_455 S
Dy43 O54 2.403 . S
Dy43 O55 2.664 . S
Dy43 O57 2.326 1_455 S
O44 Dy40 2.398 . S
O44 C42 1.185 . S
O45 Dy40 2.491 . S
O45 C42 1.355 . S
O46 Dy40 2.403 . S
O46 C48 1.254 . S
O47 Dy40 2.664 . S
O47 Dy43 2.310 . S
O47 C48 1.268 . S
C48 O46 1.254 . S
C48 O47 1.268 . S
C49 O54 1.254 . S
C49 O55 1.268 . S
O50 Dy43 2.351 . S
O50 C58 1.249 . S
O51 Dy40 2.326 . S
O51 C58 1.267 . S
O52 C41 1.185 1_455 S
O52 Dy43 2.398 . S
O53 C41 1.355 . S
O53 Dy43 2.491 1_655 S
O54 Dy43 2.403 . S
O54 C49 1.254 . S
O55 Dy40 2.310 . S
O55 Dy43 2.664 . S
O55 C49 1.268 . S
O56 Dy40 2.351 1_655 S
O56 C59 1.249 . S
O57 Dy43 2.326 1_655 S
O57 C59 1.267 . S
C58 O50 1.249 . S
C58 O51 1.267 . S
C59 O56 1.249 . S
C59 O57 1.267 . S
Dy60 O64 2.398 . S
Dy60 O65 2.491 1_655 S
Dy60 O66 2.403 . S
Dy60 O67 2.664 . S
Dy60 O71 2.326 1_655 S
Dy60 O75 2.310 . S
Dy60 O76 2.351 . S
C61 O72 1.185 . S
C61 O73 1.355 . S
C62 O64 1.185 1_455 S
C62 O65 1.355 . S
Dy63 O67 2.310 . S
Dy63 O70 2.351 1_655 S
Dy63 O72 2.398 . S
Dy63 O73 2.491 . S
Dy63 O74 2.403 . S
Dy63 O75 2.664 . S
Dy63 O77 2.326 . S
O64 Dy60 2.398 . S
O64 C62 1.185 1_655 S
O65 Dy60 2.491 1_455 S
O65 C62 1.355 . S
O66 Dy60 2.403 . S
O66 C68 1.254 . S
O67 Dy60 2.664 . S
O67 Dy63 2.310 . S
O67 C68 1.268 . S
C68 O66 1.254 . S
C68 O67 1.268 . S
C69 O74 1.254 . S
C69 O75 1.268 . S
O70 Dy63 2.351 1_455 S
O70 C78 1.249 . S
O71 Dy60 2.326 1_455 S
O71 C78 1.267 . S
O72 C61 1.185 . S
O72 Dy63 2.398 . S
O73 C61 1.355 . S
O73 Dy63 2.491 . S
O74 Dy63 2.403 . S
O74 C69 1.254 . S
O75 Dy60 2.310 . S
O75 Dy63 2.664 . S
O75 C69 1.268 . S
O76 Dy60 2.351 . S
O76 C79 1.249 . S
O77 Dy63 2.326 . S
O77 C79 1.267 . S
C78 O70 1.249 . S
C78 O71 1.267 . S
C79 O76 1.249 . S
C79 O77 1.267 . S
Dy80 O84 2.398 . S
Dy80 O85 2.491 1_554 S
Dy80 O86 2.403 . S
Dy80 O87 2.664 . S
Dy80 O91 2.326 . S
Dy80 O95 2.310 1_554 S
Dy80 O96 2.351 . S
C81 O92 1.185 1_554 S
C81 O93 1.355 . S
C82 O84 1.185 . S
C82 O85 1.355 1_554 S
Dy83 O87 2.310 . S
Dy83 O90 2.351 . S
Dy83 O92 2.398 1_554 S
Dy83 O93 2.491 . S
Dy83 O94 2.403 1_554 S
Dy83 O95 2.664 1_554 S
Dy83 O97 2.326 1_554 S
O84 Dy80 2.398 . S
O84 C82 1.185 . S
O85 Dy80 2.491 1_556 S
O85 C82 1.355 1_556 S
O86 Dy80 2.403 . S
O86 C88 1.254 . S
O87 Dy80 2.664 . S
O87 Dy83 2.310 . S
O87 C88 1.268 . S
C88 O86 1.254 . S
C88 O87 1.268 . S
C89 O94 1.254 . S
C89 O95 1.268 . S
O90 Dy83 2.351 . S
O90 C98 1.249 . S
O91 Dy80 2.326 . S
O91 C98 1.267 . S
O92 C81 1.185 1_556 S
O92 Dy83 2.398 1_556 S
O93 C81 1.355 . S
O93 Dy83 2.491 . S
O94 Dy83 2.403 1_556 S
O94 C89 1.254 . S
O95 Dy80 2.310 1_556 S
O95 Dy83 2.664 1_556 S
O95 C89 1.268 . S
O96 Dy80 2.351 . S
O96 C99 1.249 . S
O97 Dy83 2.326 1_556 S
O97 C99 1.267 1_556 S
C98 O90 1.249 . S
C98 O91 1.267 . S
C99 O96 1.249 . S
C99 O97 1.267 1_554 S
Dy100 O104 2.398 . S
Dy100 O105 2.491 1_554 S
Dy100 O106 2.403 . S
Dy100 O107 2.664 . S
Dy100 O111 2.326 . S
Dy100 O115 2.310 1_554 S
Dy100 O116 2.351 . S
C101 O112 1.185 1_554 S
C101 O113 1.355 . S
C102 O104 1.185 . S
C102 O105 1.355 1_554 S
Dy103 O107 2.310 . S
Dy103 O110 2.351 . S
Dy103 O112 2.398 1_554 S
Dy103 O113 2.491 . S
Dy103 O114 2.403 1_554 S
Dy103 O115 2.664 1_554 S
Dy103 O117 2.326 1_554 S
O104 Dy100 2.398 . S
O104 C102 1.185 . S
O105 Dy100 2.491 1_556 S
O105 C102 1.355 1_556 S
O106 Dy100 2.403 . S
O106 C108 1.254 . S
O107 Dy100 2.664 . S
O107 Dy103 2.310 . S
O107 C108 1.268 . S
C108 O106 1.254 . S
C108 O107 1.268 . S
C109 O114 1.254 . S
C109 O115 1.268 . S
O110 Dy103 2.351 . S
O110 C118 1.249 . S
O111 Dy100 2.326 . S
O111 C118 1.267 . S
O112 C101 1.185 1_556 S
O112 Dy103 2.398 1_556 S
O113 C101 1.355 . S
O113 Dy103 2.491 . S
O114 Dy103 2.403 1_556 S
O114 C109 1.254 . S
O115 Dy100 2.310 1_556 S
O115 Dy103 2.664 1_556 S
O115 C109 1.268 . S
O116 Dy100 2.351 . S
O116 C119 1.249 . S
O117 Dy103 2.326 1_556 S
O117 C119 1.267 1_556 S
C118 O110 1.249 . S
C118 O111 1.267 . S
C119 O116 1.249 . S
C119 O117 1.267 1_554 S
Dy120 O124 2.398 . S
Dy120 O125 2.491 . S
Dy120 O126 2.403 . S
Dy120 O127 2.664 . S
Dy120 O131 2.326 . S
Dy120 O135 2.310 . S
Dy120 O136 2.351 . S
C121 O132 1.185 . S
C121 O133 1.355 . S
C122 O124 1.185 . S
C122 O125 1.355 . S
Dy123 O127 2.310 . S
Dy123 O130 2.351 . S
Dy123 O132 2.398 . S
Dy123 O133 2.491 . S
Dy123 O134 2.403 . S
Dy123 O135 2.664 . S
Dy123 O137 2.326 . S
O124 Dy120 2.398 . S
O124 C122 1.185 . S
O125 Dy120 2.491 . S
O125 C122 1.355 . S
O126 Dy120 2.403 . S
O126 C128 1.254 . S
O127 Dy120 2.664 . S
O127 Dy123 2.310 . S
O127 C128 1.268 . S
C128 O126 1.254 . S
C128 O127 1.268 . S
C129 O134 1.254 . S
C129 O135 1.268 . S
O130 Dy123 2.351 . S
O130 C138 1.249 . S
O131 Dy120 2.326 . S
O131 C138 1.267 . S
O132 C121 1.185 . S
O132 Dy123 2.398 . S
O133 C121 1.355 . S
O133 Dy123 2.491 . S
O134 Dy123 2.403 . S
O134 C129 1.254 . S
O135 Dy120 2.310 . S
O135 Dy123 2.664 . S
O135 C129 1.268 . S
O136 Dy120 2.351 . S
O136 C139 1.249 . S
O137 Dy123 2.326 . S
O137 C139 1.267 . S
C138 O130 1.249 . S
C138 O131 1.267 . S
C139 O136 1.249 . S
C139 O137 1.267 . S
Dy140 O144 2.398 . S
Dy140 O145 2.491 . S
Dy140 O146 2.403 . S
Dy140 O147 2.664 . S
Dy140 O151 2.326 . S
Dy140 O155 2.310 . S
Dy140 O156 2.351 . S
C141 O152 1.185 . S
C141 O153 1.355 . S
C142 O144 1.185 . S
C142 O145 1.355 . S
Dy143 O147 2.310 . S
Dy143 O150 2.351 . S
Dy143 O152 2.398 . S
Dy143 O153 2.491 . S
Dy143 O154 2.403 . S
Dy143 O155 2.664 . S
Dy143 O157 2.326 . S
O144 Dy140 2.398 . S
O144 C142 1.185 . S
O145 Dy140 2.491 . S
O145 C142 1.355 . S
O146 Dy140 2.403 . S
O146 C148 1.254 . S
O147 Dy140 2.664 . S
O147 Dy143 2.310 . S
O147 C148 1.268 . S
C148 O146 1.254 . S
C148 O147 1.268 . S
C149 O154 1.254 . S
C149 O155 1.268 . S
O150 Dy143 2.351 . S
O150 C158 1.249 . S
O151 Dy140 2.326 . S
O151 C158 1.267 . S
O152 C141 1.185 . S
O152 Dy143 2.398 . S
O153 C141 1.355 . S
O153 Dy143 2.491 . S
O154 Dy143 2.403 . S
O154 C149 1.254 . S
O155 Dy140 2.310 . S
O155 Dy143 2.664 . S
O155 C149 1.268 . S
O156 Dy140 2.351 . S
O156 C159 1.249 . S
O157 Dy143 2.326 . S
O157 C159 1.267 . S
C158 O150 1.249 . S
C158 O151 1.267 . S
C159 O156 1.249 . S
C159 O157 1.267 . S
H160 C172 0.930 . S
H161 C174 0.930 . S
H162 C175 0.930 . S
H163 C179 0.959 . S
H164 C179 0.959 . S
H165 C179 0.961 . S
H166 C180 0.960 . S
H167 C180 0.961 . S
H168 C180 0.959 . S
H169 C183 0.929 . S
H170 C184 0.931 . S
H171 C186 0.930 . S
C172 H160 0.930 . S
C172 C173 1.399 1_556 S
C172 C177 1.399 . S
C173 C172 1.399 1_554 S
C173 C174 1.376 . S
C174 H161 0.930 . S
C174 C173 1.376 . S
C174 C175 1.388 . S
C175 H162 0.930 . S
C175 C174 1.388 . S
C175 C176 1.390 . S
C176 C175 1.390 . S
C176 C177 1.394 1_554 S
C176 C182 1.465 . S
C177 C172 1.399 . S
C177 C176 1.394 1_556 S
C177 C178 1.516 . S
C178 C177 1.516 . S
C178 C179 1.502 . S
C178 C180 1.561 . S
C178 C181 1.526 . S
C179 H163 0.959 . S
C179 H164 0.959 . S
C179 H165 0.961 . S
C179 C178 1.502 . S
C180 H166 0.960 . S
C180 H167 0.961 . S
C180 H168 0.959 . S
C180 C178 1.561 . S
C181 C178 1.526 . S
C181 C182 1.396 1_556 S
C181 C186 1.390 . S
C182 C176 1.465 . S
C182 C181 1.396 1_554 S
C182 C183 1.399 . S
C183 H169 0.929 . S
C183 C182 1.399 . S
C183 C184 1.385 . S
C184 H170 0.931 . S
C184 C183 1.385 . S
C184 C185 1.389 . S
C185 C184 1.389 . S
C185 C186 1.387 1_554 S
C186 H171 0.930 . S
C186 C181 1.390 . S
C186 C185 1.387 1_556 S
H187 C199 0.930 . S
H188 C201 0.930 . S
H189 C202 0.930 . S
H190 C206 0.959 . S
H191 C206 0.959 . S
H192 C206 0.961 . S
H193 C207 0.960 . S
H194 C207 0.961 . S
H195 C207 0.959 . S
H196 C210 0.929 . S
H197 C211 0.931 . S
H198 C213 0.930 . S
C199 H187 0.930 . S
C199 C200 1.399 1_556 S
C199 C204 1.399 . S
C200 C199 1.399 1_554 S
C200 C201 1.376 . S
C201 H188 0.930 . S
C201 C200 1.376 . S
C201 C202 1.388 . S
C202 H189 0.930 . S
C202 C201 1.388 . S
C202 C203 1.390 . S
C203 C202 1.390 . S
C203 C204 1.394 1_554 S
C203 C209 1.465 . S
C204 C199 1.399 . S
C204 C203 1.394 1_556 S
C204 C205 1.516 . S
C205 C204 1.516 . S
C205 C206 1.502 . S
C205 C207 1.561 . S
C205 C208 1.526 . S
C206 H190 0.959 . S
C206 H191 0.959 . S
C206 H192 0.961 . S
C206 C205 1.502 . S
C207 H193 0.960 . S
C207 H194 0.961 . S
C207 H195 0.959 . S
C207 C205 1.561 . S
C208 C205 1.526 . S
C208 C209 1.396 1_556 S
C208 C213 1.390 . S
C209 C203 1.465 . S
C209 C208 1.396 1_554 S
C209 C210 1.399 . S
C210 H196 0.929 . S
C210 C209 1.399 . S
C210 C211 1.385 . S
C211 H197 0.931 . S
C211 C210 1.385 . S
C211 C212 1.389 . S
C212 C211 1.389 . S
C212 C213 1.387 1_554 S
C213 H198 0.930 . S
C213 C208 1.390 . S
C213 C212 1.387 1_556 S
H214 C226 0.930 . S
H215 C228 0.930 . S
H216 C229 0.930 . S
H217 C233 0.959 . S
H218 C233 0.959 . S
H219 C233 0.961 . S
H220 C234 0.960 . S
H221 C234 0.961 . S
H222 C234 0.959 . S
H223 C237 0.929 . S
H224 C238 0.931 . S
H225 C240 0.930 . S
C226 H214 0.930 . S
C226 C227 1.399 . S
C226 C231 1.399 . S
C227 C226 1.399 . S
C227 C228 1.376 . S
C228 H215 0.930 . S
C228 C227 1.376 . S
C228 C229 1.388 . S
C229 H216 0.930 . S
C229 C228 1.388 . S
C229 C230 1.390 . S
C230 C229 1.390 . S
C230 C231 1.394 . S
C230 C236 1.465 . S
C231 C226 1.399 . S
C231 C230 1.394 . S
C231 C232 1.516 . S
C232 C231 1.516 . S
C232 C233 1.502 . S
C232 C234 1.561 . S
C232 C235 1.526 . S
C233 H217 0.959 . S
C233 H218 0.959 . S
C233 H219 0.961 . S
C233 C232 1.502 . S
C234 H220 0.960 . S
C234 H221 0.961 . S
C234 H222 0.959 . S
C234 C232 1.561 . S
C235 C232 1.526 . S
C235 C236 1.396 . S
C235 C240 1.390 . S
C236 C230 1.465 . S
C236 C235 1.396 . S
C236 C237 1.399 . S
C237 H223 0.929 . S
C237 C236 1.399 . S
C237 C238 1.385 . S
C238 H224 0.931 . S
C238 C237 1.385 . S
C238 C239 1.389 . S
C239 C238 1.389 . S
C239 C240 1.387 . S
C240 H225 0.930 . S
C240 C235 1.390 . S
C240 C239 1.387 . S
H241 C253 0.930 . S
H242 C255 0.930 . S
H243 C256 0.930 . S
H244 C260 0.959 . S
H245 C260 0.959 . S
H246 C260 0.961 . S
H247 C261 0.960 . S
H248 C261 0.961 . S
H249 C261 0.959 . S
H250 C264 0.929 . S
H251 C265 0.931 . S
H252 C267 0.930 . S
C253 H241 0.930 . S
C253 C254 1.399 . S
C253 C258 1.399 . S
C254 C253 1.399 . S
C254 C255 1.376 . S
C255 H242 0.930 . S
C255 C254 1.376 . S
C255 C256 1.388 . S
C256 H243 0.930 . S
C256 C255 1.388 . S
C256 C257 1.390 . S
C257 C256 1.390 . S
C257 C258 1.394 . S
C257 C263 1.465 . S
C258 C253 1.399 . S
C258 C257 1.394 . S
C258 C259 1.516 . S
C259 C258 1.516 . S
C259 C260 1.502 . S
C259 C261 1.561 . S
C259 C262 1.526 . S
C260 H244 0.959 . S
C260 H245 0.959 . S
C260 H246 0.961 . S
C260 C259 1.502 . S
C261 H247 0.960 . S
C261 H248 0.961 . S
C261 H249 0.959 . S
C261 C259 1.561 . S
C262 C259 1.526 . S
C262 C263 1.396 . S
C262 C267 1.390 . S
C263 C257 1.465 . S
C263 C262 1.396 . S
C263 C264 1.399 . S
C264 H250 0.929 . S
C264 C263 1.399 . S
C264 C265 1.385 . S
C265 H251 0.931 . S
C265 C264 1.385 . S
C265 C266 1.389 . S
C266 C265 1.389 . S
C266 C267 1.387 . S
C267 H252 0.930 . S
C267 C262 1.390 . S
C267 C266 1.387 . S
H268 C280 0.930 . S
H269 C282 0.930 . S
H270 C283 0.930 . S
H271 C287 0.959 . S
H272 C287 0.959 . S
H273 C287 0.961 . S
H274 C288 0.960 . S
H275 C288 0.961 . S
H276 C288 0.959 1_556 S
H277 C291 0.929 . S
H278 C292 0.931 . S
H279 C294 0.930 . S
C280 H268 0.930 . S
C280 C281 1.399 . S
C280 C285 1.399 . S
C281 C280 1.399 . S
C281 C282 1.376 1_554 S
C282 H269 0.930 . S
C282 C281 1.376 1_556 S
C282 C283 1.388 . S
C283 H270 0.930 . S
C283 C282 1.388 . S
C283 C284 1.390 1_655 S
C284 C283 1.390 1_455 S
C284 C285 1.394 1_456 S
C284 C290 1.465 . S
C285 C280 1.399 . S
C285 C284 1.394 1_654 S
C285 C286 1.516 1_655 S
C286 C285 1.516 1_455 S
C286 C287 1.502 . S
C286 C288 1.561 . S
C286 C289 1.526 . S
C287 H271 0.959 . S
C287 H272 0.959 . S
C287 H273 0.961 . S
C287 C286 1.502 . S
C288 H274 0.960 . S
C288 H275 0.961 . S
C288 H276 0.959 1_554 S
C288 C286 1.561 . S
C289 C286 1.526 . S
C289 C290 1.396 1_554 S
C289 C294 1.390 . S
C290 C284 1.465 . S
C290 C289 1.396 1_556 S
C290 C291 1.399 . S
C291 H277 0.929 . S
C291 C290 1.399 . S
C291 C292 1.385 . S
C292 H278 0.931 . S
C292 C291 1.385 . S
C292 C293 1.389 1_556 S
C293 C292 1.389 1_554 S
C293 C294 1.387 . S
C294 H279 0.930 . S
C294 C289 1.390 . S
C294 C293 1.387 . S
H295 C307 0.933 . S
H296 C309 0.930 . S
H297 C310 0.930 . S
H298 C314 0.959 . S
H299 C314 0.959 . S
H300 C314 0.961 . S
H301 C315 0.960 . S
H302 C315 0.961 . S
H303 C315 0.959 . S
H304 C318 0.929 . S
H305 C319 0.931 . S
H306 C321 0.930 . S
C307 H295 0.933 . S
C307 C308 1.395 1_556 S
C307 C312 1.399 . S
C308 C307 1.395 1_554 S
C308 C309 1.376 . S
C309 H296 0.930 . S
C309 C308 1.376 . S
C309 C310 1.388 . S
C310 H297 0.930 . S
C310 C309 1.388 . S
C310 C311 1.390 1_455 S
C311 C310 1.390 1_655 S
C311 C312 1.390 1_654 S
C311 C317 1.465 . S
C312 C307 1.399 . S
C312 C311 1.390 1_456 S
C312 C313 1.521 1_455 S
C313 C312 1.521 1_655 S
C313 C314 1.502 1_556 S
C313 C315 1.561 . S
C313 C316 1.526 . S
C314 H298 0.959 . S
C314 H299 0.959 . S
C314 H300 0.961 . S
C314 C313 1.502 1_554 S
C315 H301 0.960 . S
C315 H302 0.961 . S
C315 H303 0.959 . S
C315 C313 1.561 . S
C316 C313 1.526 . S
C316 C317 1.396 1_556 S
C316 C321 1.390 . S
C317 C311 1.465 . S
C317 C316 1.396 1_554 S
C317 C318 1.399 . S
C318 H304 0.929 . S
C318 C317 1.399 . S
C318 C319 1.385 . S
C319 H305 0.931 . S
C319 C318 1.385 . S
C319 C320 1.389 . S
C320 C319 1.389 . S
C320 C321 1.387 1_554 S
C321 H306 0.930 . S
C321 C316 1.390 . S
C321 C320 1.387 1_556 S
H322 C334 0.930 . S
H323 C336 0.930 . S
H324 C337 0.930 . S
H325 C341 0.959 . S
H326 C341 0.959 1_655 S
H327 C341 0.961 . S
H328 C342 0.960 . S
H329 C342 0.961 . S
H330 C342 0.959 . S
H331 C345 0.929 . S
H332 C346 0.931 . S
H333 C348 0.930 . S
C334 H322 0.930 . S
C334 C335 1.399 . S
C334 C339 1.399 . S
C335 C334 1.399 . S
C335 C336 1.376 . S
C336 H323 0.930 . S
C336 C335 1.376 . S
C336 C337 1.388 . S
C337 H324 0.930 . S
C337 C336 1.388 . S
C337 C338 1.390 . S
C338 C337 1.390 . S
C338 C339 1.394 . S
C338 C344 1.465 . S
C339 C334 1.399 . S
C339 C338 1.394 . S
C339 C340 1.516 . S
C340 C339 1.516 . S
C340 C341 1.502 . S
C340 C342 1.561 . S
C340 C343 1.526 1_455 S
C341 H325 0.959 . S
C341 H326 0.959 1_455 S
C341 H327 0.961 . S
C341 C340 1.502 . S
C342 H328 0.960 . S
C342 H329 0.961 . S
C342 H330 0.959 . S
C342 C340 1.561 . S
C343 C340 1.526 1_655 S
C343 C344 1.396 1_655 S
C343 C348 1.390 . S
C344 C338 1.465 . S
C344 C343 1.396 1_455 S
C344 C345 1.399 1_455 S
C345 H331 0.929 . S
C345 C344 1.399 1_655 S
C345 C346 1.385 . S
C346 H332 0.931 . S
C346 C345 1.385 . S
C346 C347 1.389 . S
C347 C346 1.389 . S
C347 C348 1.387 . S
C348 H333 0.930 . S
C348 C343 1.390 . S
C348 C347 1.387 . S
H349 C361 0.930 . S
H350 C363 0.930 . S
H351 C364 0.930 . S
H352 C368 0.959 . S
H353 C368 0.959 . S
H354 C368 0.961 . S
H355 C369 0.960 . S
H356 C369 0.961 . S
H357 C369 0.959 . S
H358 C372 0.929 . S
H359 C373 0.931 . S
H360 C375 0.930 . S
C361 H349 0.930 . S
C361 C362 1.399 . S
C361 C366 1.399 . S
C362 C361 1.399 . S
C362 C363 1.376 . S
C363 H350 0.930 . S
C363 C362 1.376 . S
C363 C364 1.388 . S
C364 H351 0.930 . S
C364 C363 1.388 . S
C364 C365 1.390 . S
C365 C364 1.390 . S
C365 C366 1.394 . S
C365 C371 1.465 . S
C366 C361 1.399 . S
C366 C365 1.394 . S
C366 C367 1.516 . S
C367 C366 1.516 . S
C367 C368 1.502 . S
C367 C369 1.561 . S
C367 C370 1.526 1_655 S
C368 H352 0.959 . S
C368 H353 0.959 . S
C368 H354 0.961 . S
C368 C367 1.502 . S
C369 H355 0.960 . S
C369 H356 0.961 . S
C369 H357 0.959 . S
C369 C367 1.561 . S
C370 C367 1.526 1_455 S
C370 C371 1.396 1_455 S
C370 C375 1.390 . S
C371 C365 1.465 . S
C371 C370 1.396 1_655 S
C371 C372 1.399 1_655 S
C372 H358 0.929 . S
C372 C371 1.399 1_455 S
C372 C373 1.385 . S
C373 H359 0.931 . S
C373 C372 1.385 . S
C373 C374 1.389 . S
C374 C373 1.389 . S
C374 C375 1.387 . S
C375 H360 0.930 . S
C375 C370 1.390 . S
C375 C374 1.387 . S
H376 C388 0.930 . S
H377 C390 0.930 . S
H378 C391 0.933 . S
H379 C395 0.959 . S
H380 C395 0.959 . S
H381 C395 0.961 . S
H382 C396 0.960 . S
H383 C396 0.961 . S
H384 C396 0.959 . S
H385 C399 0.929 . S
H386 C400 0.931 . S
H387 C402 0.930 . S
C388 H376 0.930 . S
C388 C389 1.399 . S
C388 C393 1.399 . S
C389 C388 1.399 . S
C389 C390 1.376 1_554 S
C390 H377 0.930 . S
C390 C389 1.376 1_556 S
C390 C391 1.386 1_455 S
C391 H378 0.933 . S
C391 C390 1.386 1_655 S
C391 C392 1.390 . S
C392 C391 1.390 . S
C392 C393 1.394 1_656 S
C392 C398 1.465 . S
C393 C388 1.399 . S
C393 C392 1.394 1_454 S
C393 C394 1.515 1_455 S
C394 C393 1.515 1_655 S
C394 C395 1.492 1_655 S
C394 C396 1.570 . S
C394 C397 1.528 . S
C395 H379 0.959 . S
C395 H380 0.959 . S
C395 H381 0.961 . S
C395 C394 1.492 1_455 S
C396 H382 0.960 . S
C396 H383 0.961 . S
C396 H384 0.959 . S
C396 C394 1.570 . S
C397 C394 1.528 . S
C397 C398 1.396 1_554 S
C397 C402 1.390 . S
C398 C392 1.465 . S
C398 C397 1.396 1_556 S
C398 C399 1.399 . S
C399 H385 0.929 . S
C399 C398 1.399 . S
C399 C400 1.385 . S
C400 H386 0.931 . S
C400 C399 1.385 . S
C400 C401 1.412 . S
C401 C400 1.412 . S
C401 C402 1.368 1_556 S
C402 H387 0.930 . S
C402 C397 1.390 . S
C402 C401 1.368 1_554 S
H403 C415 0.930 1_655 S
H404 C417 0.930 . S
H405 C418 0.930 . S
H406 C422 0.959 . S
H407 C422 0.959 . S
H408 C422 0.961 . S
H409 C423 0.960 . S
H410 C423 0.961 . S
H411 C423 0.959 . S
H412 C426 0.929 . S
H413 C427 0.932 . S
H414 C429 0.930 . S
C415 H403 0.930 1_455 S
C415 C416 1.399 . S
C415 C420 1.399 . S
C416 C415 1.399 . S
C416 C417 1.376 . S
C417 H404 0.930 . S
C417 C416 1.376 . S
C417 C418 1.388 . S
C418 H405 0.930 . S
C418 C417 1.388 . S
C418 C419 1.390 . S
C419 C418 1.390 . S
C419 C420 1.394 . S
C419 C425 1.465 . S
C420 C415 1.399 . S
C420 C419 1.394 . S
C420 C421 1.516 1_455 S
C421 C420 1.516 1_655 S
C421 C422 1.502 . S
C421 C423 1.561 1_655 S
C421 C424 1.526 . S
C422 H406 0.959 . S
C422 H407 0.959 . S
C422 H408 0.961 . S
C422 C421 1.502 . S
C423 H409 0.960 . S
C423 H410 0.961 . S
C423 H411 0.959 . S
C423 C421 1.561 1_455 S
C424 C421 1.526 . S
C424 C425 1.396 1_655 S
C424 C429 1.390 . S
C425 C419 1.465 . S
C425 C424 1.396 1_455 S
C425 C426 1.399 . S
C426 H412 0.929 . S
C426 C425 1.399 . S
C426 C427 1.389 . S
C427 H413 0.932 . S
C427 C426 1.389 . S
C427 C428 1.385 1_455 S
C428 C427 1.385 1_655 S
C428 C429 1.387 . S
C429 H414 0.930 . S
C429 C424 1.390 . S
C429 C428 1.387 . S
H430 C442 0.930 . S
H431 C444 0.930 . S
H432 C445 0.930 . S
H433 C449 0.959 . S
H434 C449 0.959 . S
H435 C449 0.961 1_565 S
H436 C450 0.960 . S
H437 C450 0.961 1_545 S
H438 C450 0.959 . S
H439 C453 0.929 . S
H440 C454 0.931 . S
H441 C456 0.930 . S
C442 H430 0.930 . S
C442 C443 1.389 1_554 S
C442 C447 1.399 . S
C443 C442 1.389 1_556 S
C443 C444 1.389 . S
C444 H431 0.930 . S
C444 C443 1.389 . S
C444 C445 1.388 . S
C445 H432 0.930 . S
C445 C444 1.388 . S
C445 C446 1.390 . S
C446 C445 1.390 . S
C446 C447 1.394 1_556 S
C446 C452 1.465 1_565 S
C447 C442 1.399 . S
C447 C446 1.394 1_554 S
C447 C448 1.553 . S
C448 C447 1.553 . S
C448 C449 1.495 1_565 S
C448 C450 1.571 . S
C448 C451 1.488 1_565 S
C449 H433 0.959 . S
C449 H434 0.959 . S
C449 H435 0.961 1_545 S
C449 C448 1.495 1_545 S
C450 H436 0.960 . S
C450 H437 0.961 1_565 S
C450 H438 0.959 . S
C450 C448 1.571 . S
C451 C448 1.488 1_545 S
C451 C452 1.396 1_554 S
C451 C456 1.390 . S
C452 C446 1.465 1_545 S
C452 C451 1.396 1_556 S
C452 C453 1.399 . S
C453 H439 0.929 . S
C453 C452 1.399 . S
C453 C454 1.385 . S
C454 H440 0.931 . S
C454 C453 1.385 . S
C454 C455 1.389 1_556 S
C455 C454 1.389 1_554 S
C455 C456 1.387 . S
C456 H441 0.930 . S
C456 C451 1.390 . S
C456 C455 1.387 . S
H457 C469 0.930 . S
H458 C471 0.930 . S
H459 C472 0.930 . S
H460 C476 0.959 . S
H461 C476 0.959 . S
H462 C476 0.961 1_545 S
H463 C477 0.933 1_545 S
H464 C477 0.990 . S
H465 C477 0.952 1_545 S
H466 C480 0.929 . S
H467 C481 0.931 . S
H468 C483 0.930 . S
C469 H457 0.930 . S
C469 C470 1.399 . S
C469 C474 1.399 . S
C470 C469 1.399 . S
C470 C471 1.376 . S
C471 H458 0.930 . S
C471 C470 1.376 . S
C471 C472 1.388 . S
C472 H459 0.930 . S
C472 C471 1.388 . S
C472 C473 1.390 . S
C473 C472 1.390 . S
C473 C474 1.394 . S
C473 C479 1.465 1_545 S
C474 C469 1.399 . S
C474 C473 1.394 . S
C474 C475 1.516 1_545 S
C475 C474 1.516 1_565 S
C475 C476 1.502 . S
C475 C477 1.565 . S
C475 C478 1.526 . S
C476 H460 0.959 . S
C476 H461 0.959 . S
C476 H462 0.961 1_565 S
C476 C475 1.502 . S
C477 H463 0.933 1_565 S
C477 H464 0.990 . S
C477 H465 0.952 1_565 S
C477 C475 1.565 . S
C478 C475 1.526 . S
C478 C479 1.396 . S
C478 C483 1.390 . S
C479 C473 1.465 1_565 S
C479 C478 1.396 . S
C479 C480 1.399 . S
C480 H466 0.929 . S
C480 C479 1.399 . S
C480 C481 1.385 . S
C481 H467 0.931 . S
C481 C480 1.385 . S
C481 C482 1.389 . S
C482 C481 1.389 . S
C482 C483 1.387 . S
C483 H468 0.930 . S
C483 C478 1.390 . S
C483 C482 1.387 . S
H484 C496 0.930 . S
H485 C498 0.930 . S
H486 C499 0.930 . S
H487 C503 0.959 . S
H488 C503 0.959 . S
H489 C503 0.961 . S
H490 C504 0.960 . S
H491 C504 0.961 . S
H492 C504 0.959 1_554 S
H493 C507 0.929 . S
H494 C508 0.931 . S
H495 C510 0.930 . S
C496 H484 0.930 . S
C496 C497 1.399 1_556 S
C496 C501 1.399 . S
C497 C496 1.399 1_554 S
C497 C498 1.376 . S
C498 H485 0.930 . S
C498 C497 1.376 . S
C498 C499 1.388 . S
C499 H486 0.930 . S
C499 C498 1.388 . S
C499 C500 1.390 . S
C500 C499 1.390 . S
C500 C501 1.394 1_554 S
C500 C506 1.465 . S
C501 C496 1.399 . S
C501 C500 1.394 1_556 S
C501 C502 1.516 . S
C502 C501 1.516 . S
C502 C503 1.502 . S
C502 C504 1.561 . S
C502 C505 1.526 . S
C503 H487 0.959 . S
C503 H488 0.959 . S
C503 H489 0.961 . S
C503 C502 1.502 . S
C504 H490 0.960 . S
C504 H491 0.961 . S
C504 H492 0.959 1_556 S
C504 C502 1.561 . S
C505 C502 1.526 . S
C505 C506 1.396 1_556 S
C505 C510 1.390 . S
C506 C500 1.465 . S
C506 C505 1.396 1_554 S
C506 C507 1.399 . S
C507 H493 0.929 . S
C507 C506 1.399 . S
C507 C508 1.385 . S
C508 H494 0.931 . S
C508 C507 1.385 . S
C508 C509 1.389 . S
C509 C508 1.389 . S
C509 C510 1.387 1_554 S
C510 H495 0.930 . S
C510 C505 1.390 . S
C510 C509 1.387 1_556 S
H511 C523 0.930 . S
H512 C525 0.930 . S
H513 C526 0.930 . S
H514 C530 0.959 . S
H515 C530 0.959 . S
H516 C530 0.961 . S
H517 C531 0.960 . S
H518 C531 0.961 . S
H519 C531 0.959 . S
H520 C534 0.929 . S
H521 C535 0.931 . S
H522 C537 0.930 . S
C523 H511 0.930 . S
C523 C524 1.399 1_556 S
C523 C528 1.399 . S
C524 C523 1.399 1_554 S
C524 C525 1.376 . S
C525 H512 0.930 . S
C525 C524 1.376 . S
C525 C526 1.388 . S
C526 H513 0.930 . S
C526 C525 1.388 . S
C526 C527 1.390 . S
C527 C526 1.390 . S
C527 C528 1.394 1_554 S
C527 C533 1.465 . S
C528 C523 1.399 . S
C528 C527 1.394 1_556 S
C528 C529 1.516 . S
C529 C528 1.516 . S
C529 C530 1.502 . S
C529 C531 1.561 . S
C529 C532 1.526 . S
C530 H514 0.959 . S
C530 H515 0.959 . S
C530 H516 0.961 . S
C530 C529 1.502 . S
C531 H517 0.960 . S
C531 H518 0.961 . S
C531 H519 0.959 . S
C531 C529 1.561 . S
C532 C529 1.526 . S
C532 C533 1.396 1_556 S
C532 C537 1.390 . S
C533 C527 1.465 . S
C533 C532 1.396 1_554 S
C533 C534 1.399 . S
C534 H520 0.929 . S
C534 C533 1.399 . S
C534 C535 1.385 . S
C535 H521 0.931 . S
C535 C534 1.385 . S
C535 C536 1.389 . S
C536 C535 1.389 . S
C536 C537 1.387 1_554 S
C537 H522 0.930 . S
C537 C532 1.390 . S
C537 C536 1.387 1_556 S
H538 C550 0.930 . S
H539 C552 0.930 . S
H540 C553 0.930 . S
H541 C557 0.959 . S
H542 C557 0.959 . S
H543 C557 0.961 . S
H544 C558 0.960 . S
H545 C558 0.961 . S
H546 C558 0.959 . S
H547 C561 0.929 . S
H548 C562 0.931 . S
H549 C564 0.930 . S
C550 H538 0.930 . S
C550 C551 1.399 . S
C550 C555 1.399 . S
C551 C550 1.399 . S
C551 C552 1.376 . S
C552 H539 0.930 . S
C552 C551 1.376 . S
C552 C553 1.388 . S
C553 H540 0.930 . S
C553 C552 1.388 . S
C553 C554 1.390 . S
C554 C553 1.390 . S
C554 C555 1.394 . S
C554 C560 1.465 . S
C555 C550 1.399 . S
C555 C554 1.394 . S
C555 C556 1.516 . S
C556 C555 1.516 . S
C556 C557 1.502 . S
C556 C558 1.561 . S
C556 C559 1.526 . S
C557 H541 0.959 . S
C557 H542 0.959 . S
C557 H543 0.961 . S
C557 C556 1.502 . S
C558 H544 0.960 . S
C558 H545 0.961 . S
C558 H546 0.959 . S
C558 C556 1.561 . S
C559 C556 1.526 . S
C559 C560 1.396 . S
C559 C564 1.390 . S
C560 C554 1.465 . S
C560 C559 1.396 . S
C560 C561 1.399 . S
C561 H547 0.929 . S
C561 C560 1.399 . S
C561 C562 1.385 . S
C562 H548 0.931 . S
C562 C561 1.385 . S
C562 C563 1.389 . S
C563 C562 1.389 . S
C563 C564 1.387 . S
C564 H549 0.930 . S
C564 C559 1.390 . S
C564 C563 1.387 . S
H565 C577 0.930 . S
H566 C579 0.930 . S
H567 C580 0.930 . S
H568 C584 0.959 . S
H569 C584 0.959 . S
H570 C584 0.961 . S
H571 C585 0.960 . S
H572 C585 0.961 . S
H573 C585 0.959 . S
H574 C588 0.929 . S
H575 C589 0.931 . S
H576 C591 0.930 . S
C577 H565 0.930 . S
C577 C578 1.399 . S
C577 C582 1.399 . S
C578 C577 1.399 . S
C578 C579 1.376 . S
C579 H566 0.930 . S
C579 C578 1.376 . S
C579 C580 1.388 . S
C580 H567 0.930 . S
C580 C579 1.388 . S
C580 C581 1.390 . S
C581 C580 1.390 . S
C581 C582 1.394 . S
C581 C587 1.465 . S
C582 C577 1.399 . S
C582 C581 1.394 . S
C582 C583 1.516 . S
C583 C582 1.516 . S
C583 C584 1.502 . S
C583 C585 1.561 . S
C583 C586 1.526 . S
C584 H568 0.959 . S
C584 H569 0.959 . S
C584 H570 0.961 . S
C584 C583 1.502 . S
C585 H571 0.960 . S
C585 H572 0.961 . S
C585 H573 0.959 . S
C585 C583 1.561 . S
C586 C583 1.526 . S
C586 C587 1.396 . S
C586 C591 1.390 . S
C587 C581 1.465 . S
C587 C586 1.396 . S
C587 C588 1.399 . S
C588 H574 0.929 . S
C588 C587 1.399 . S
C588 C589 1.385 . S
C589 H575 0.931 . S
C589 C588 1.385 . S
C589 C590 1.389 . S
C590 C589 1.389 . S
C590 C591 1.387 . S
C591 H576 0.930 . S
C591 C586 1.390 . S
C591 C590 1.387 . S
H592 C604 0.930 . S
H593 C606 0.930 . S
H594 C607 0.930 . S
H595 C611 0.959 . S
H596 C611 0.959 . S
H597 C611 0.961 . S
H598 C612 0.960 . S
H599 C612 0.961 . S
H600 C612 0.959 . S
H601 C615 0.929 . S
H602 C616 0.931 . S
H603 C618 0.930 . S
C604 H592 0.930 . S
C604 C605 1.399 . S
C604 C609 1.399 . S
C605 C604 1.399 . S
C605 C606 1.376 . S
C606 H593 0.930 . S
C606 C605 1.376 . S
C606 C607 1.388 1_455 S
C607 H594 0.930 . S
C607 C606 1.388 1_655 S
C607 C608 1.390 . S
C608 C607 1.390 . S
C608 C609 1.394 1_655 S
C608 C614 1.465 . S
C609 C604 1.399 . S
C609 C608 1.394 1_455 S
C609 C610 1.516 . S
C610 C609 1.516 . S
C610 C611 1.502 . S
C610 C612 1.561 1_455 S
C610 C613 1.526 1_455 S
C611 H595 0.959 . S
C611 H596 0.959 . S
C611 H597 0.961 . S
C611 C610 1.502 . S
C612 H598 0.960 . S
C612 H599 0.961 . S
C612 H600 0.959 . S
C612 C610 1.561 1_655 S
C613 C610 1.526 1_655 S
C613 C614 1.396 . S
C613 C618 1.390 . S
C614 C608 1.465 . S
C614 C613 1.396 . S
C614 C615 1.399 . S
C615 H601 0.929 . S
C615 C614 1.399 . S
C615 C616 1.385 . S
C616 H602 0.931 . S
C616 C615 1.385 . S
C616 C617 1.389 . S
C617 C616 1.389 . S
C617 C618 1.387 . S
C618 H603 0.930 . S
C618 C613 1.390 . S
C618 C617 1.387 . S
H619 C631 0.930 . S
H620 C633 0.930 1_455 S
H621 C634 0.930 . S
H622 C638 0.959 . S
H623 C638 0.959 . S
H624 C638 0.961 . S
H625 C639 0.960 . S
H626 C639 0.961 . S
H627 C639 0.959 . S
H628 C642 0.929 . S
H629 C643 0.931 . S
H630 C645 0.930 . S
C631 H619 0.930 . S
C631 C632 1.399 . S
C631 C636 1.399 . S
C632 C631 1.399 . S
C632 C633 1.376 . S
C633 H620 0.930 1_655 S
C633 C632 1.376 . S
C633 C634 1.388 1_655 S
C634 H621 0.930 . S
C634 C633 1.388 1_455 S
C634 C635 1.390 . S
C635 C634 1.390 . S
C635 C636 1.394 1_455 S
C635 C641 1.465 . S
C636 C631 1.399 . S
C636 C635 1.394 1_655 S
C636 C637 1.516 . S
C637 C636 1.516 . S
C637 C638 1.502 . S
C637 C639 1.561 1_655 S
C637 C640 1.526 1_655 S
C638 H622 0.959 . S
C638 H623 0.959 . S
C638 H624 0.961 . S
C638 C637 1.502 . S
C639 H625 0.960 . S
C639 H626 0.961 . S
C639 H627 0.959 . S
C639 C637 1.561 1_455 S
C640 C637 1.526 1_455 S
C640 C641 1.396 . S
C640 C645 1.390 . S
C641 C635 1.465 . S
C641 C640 1.396 . S
C641 C642 1.399 . S
C642 H628 0.929 . S
C642 C641 1.399 . S
C642 C643 1.385 . S
C643 H629 0.931 . S
C643 C642 1.385 . S
C643 C644 1.389 . S
C644 C643 1.389 . S
C644 C645 1.387 . S
C645 H630 0.930 . S
C645 C640 1.390 . S
C645 C644 1.387 . S
H646 C658 0.933 . S
H647 C660 0.930 . S
H648 C661 0.930 . S
H649 C665 0.959 . S
H650 C665 0.959 . S
H651 C665 0.961 . S
H652 C666 0.960 . S
H653 C666 0.961 . S
H654 C666 0.959 . S
H655 C669 0.929 . S
H656 C670 0.931 . S
H657 C672 0.930 . S
C658 H646 0.933 . S
C658 C659 1.399 . S
C658 C663 1.399 . S
C659 C658 1.399 . S
C659 C660 1.376 . S
C660 H647 0.930 . S
C660 C659 1.376 . S
C660 C661 1.388 . S
C661 H648 0.930 . S
C661 C660 1.388 . S
C661 C662 1.390 . S
C662 C661 1.390 . S
C662 C663 1.394 . S
C662 C668 1.465 . S
C663 C658 1.399 . S
C663 C662 1.394 . S
C663 C664 1.516 1_655 S
C664 C663 1.516 1_455 S
C664 C665 1.502 . S
C664 C666 1.561 1_455 S
C664 C667 1.526 . S
C665 H649 0.959 . S
C665 H650 0.959 . S
C665 H651 0.961 . S
C665 C664 1.502 . S
C666 H652 0.960 . S
C666 H653 0.961 . S
C666 H654 0.959 . S
C666 C664 1.561 1_655 S
C667 C664 1.526 . S
C667 C668 1.396 1_455 S
C667 C672 1.390 . S
C668 C662 1.465 . S
C668 C667 1.396 1_655 S
C668 C669 1.399 . S
C669 H655 0.929 . S
C669 C668 1.399 . S
C669 C670 1.385 1_655 S
C670 H656 0.931 . S
C670 C669 1.385 1_455 S
C670 C671 1.389 . S
C671 C670 1.389 . S
C671 C672 1.387 . S
C672 H657 0.930 . S
C672 C667 1.390 . S
C672 C671 1.387 . S
H673 C685 0.930 1_455 S
H674 C687 0.930 . S
H675 C688 0.930 . S
H676 C692 0.959 . S
H677 C692 0.959 . S
H678 C692 0.961 . S
H679 C693 0.960 . S
H680 C693 0.964 . S
H681 C693 0.953 1_655 S
H682 C696 0.929 . S
H683 C697 0.931 . S
H684 C699 0.930 . S
C685 H673 0.930 1_655 S
C685 C686 1.399 . S
C685 C690 1.399 . S
C686 C685 1.399 . S
C686 C687 1.376 . S
C687 H674 0.930 . S
C687 C686 1.376 . S
C687 C688 1.388 . S
C688 H675 0.930 . S
C688 C687 1.388 . S
C688 C689 1.390 . S
C689 C688 1.390 . S
C689 C690 1.395 . S
C689 C695 1.465 . S
C690 C685 1.399 . S
C690 C689 1.395 . S
C690 C691 1.514 1_655 S
C691 C690 1.514 1_455 S
C691 C692 1.502 . S
C691 C693 1.564 . S
C691 C694 1.526 . S
C692 H676 0.959 . S
C692 H677 0.959 . S
C692 H678 0.961 . S
C692 C691 1.502 . S
C693 H679 0.960 . S
C693 H680 0.964 . S
C693 H681 0.953 1_455 S
C693 C691 1.564 . S
C694 C691 1.526 . S
C694 C695 1.396 1_455 S
C694 C699 1.390 . S
C695 C689 1.465 . S
C695 C694 1.396 1_655 S
C695 C696 1.399 . S
C696 H682 0.929 . S
C696 C695 1.399 . S
C696 C697 1.385 . S
C697 H683 0.931 . S
C697 C696 1.385 . S
C697 C698 1.389 1_655 S
C698 C697 1.389 1_455 S
C698 C699 1.387 . S
C699 H684 0.930 . S
C699 C694 1.390 . S
C699 C698 1.387 . S
H700 C712 0.930 . S
H701 C714 0.930 . S
H702 C715 0.930 . S
H703 C719 0.959 . S
H704 C719 0.959 . S
H705 C719 0.961 . S
H706 C720 0.960 . S
H707 C720 0.961 . S
H708 C720 0.959 . S
H709 C723 0.929 . S
H710 C724 0.931 . S
H711 C726 0.930 . S
C712 H700 0.930 . S
C712 C713 1.399 . S
C712 C717 1.399 . S
C713 C712 1.399 . S
C713 C714 1.376 . S
C714 H701 0.930 . S
C714 C713 1.376 . S
C714 C715 1.388 . S
C715 H702 0.930 . S
C715 C714 1.388 . S
C715 C716 1.390 . S
C716 C715 1.390 . S
C716 C717 1.394 . S
C716 C722 1.465 . S
C717 C712 1.399 . S
C717 C716 1.394 . S
C717 C718 1.516 . S
C718 C717 1.516 . S
C718 C719 1.502 . S
C718 C720 1.561 . S
C718 C721 1.526 . S
C719 H703 0.959 . S
C719 H704 0.959 . S
C719 H705 0.961 . S
C719 C718 1.502 . S
C720 H706 0.960 . S
C720 H707 0.961 . S
C720 H708 0.959 . S
C720 C718 1.561 . S
C721 C718 1.526 . S
C721 C722 1.396 . S
C721 C726 1.390 . S
C722 C716 1.465 . S
C722 C721 1.396 . S
C722 C723 1.399 . S
C723 H709 0.929 . S
C723 C722 1.399 . S
C723 C724 1.385 . S
C724 H710 0.931 . S
C724 C723 1.385 . S
C724 C725 1.389 . S
C725 C724 1.389 . S
C725 C726 1.387 . S
C726 H711 0.930 . S
C726 C721 1.390 . S
C726 C725 1.387 . S
H727 C739 0.930 . S
H728 C741 0.930 . S
H729 C742 0.930 . S
H730 C746 0.959 . S
H731 C746 0.959 . S
H732 C746 0.961 . S
H733 C747 0.960 . S
H734 C747 0.961 . S
H735 C747 0.959 . S
H736 C750 0.929 . S
H737 C751 0.931 . S
H738 C753 0.930 . S
C739 H727 0.930 . S
C739 C740 1.399 . S
C739 C744 1.399 . S
C740 C739 1.399 . S
C740 C741 1.376 . S
C741 H728 0.930 . S
C741 C740 1.376 . S
C741 C742 1.388 . S
C742 H729 0.930 . S
C742 C741 1.388 . S
C742 C743 1.390 . S
C743 C742 1.390 . S
C743 C744 1.394 . S
C743 C749 1.465 . S
C744 C739 1.399 . S
C744 C743 1.394 . S
C744 C745 1.516 . S
C745 C744 1.516 . S
C745 C746 1.502 . S
C745 C747 1.561 . S
C745 C748 1.526 . S
C746 H730 0.959 . S
C746 H731 0.959 . S
C746 H732 0.961 . S
C746 C745 1.502 . S
C747 H733 0.960 . S
C747 H734 0.961 . S
C747 H735 0.959 . S
C747 C745 1.561 . S
C748 C745 1.526 . S
C748 C749 1.396 . S
C748 C753 1.390 . S
C749 C743 1.465 . S
C749 C748 1.396 . S
C749 C750 1.399 . S
C750 H736 0.929 . S
C750 C749 1.399 . S
C750 C751 1.385 . S
C751 H737 0.931 . S
C751 C750 1.385 . S
C751 C752 1.389 . S
C752 C751 1.389 . S
C752 C753 1.387 . S
C753 H738 0.930 . S
C753 C748 1.390 . S
C753 C752 1.387 . S
H754 C766 0.930 . S
H755 C768 0.930 . S
H756 C769 0.930 . S
H757 C773 0.959 . S
H758 C773 0.959 . S
H759 C773 0.961 . S
H760 C774 0.960 . S
H761 C774 0.961 . S
H762 C774 0.959 . S
H763 C777 0.929 . S
H764 C778 0.931 . S
H765 C780 0.930 . S
C766 H754 0.930 . S
C766 C767 1.399 . S
C766 C771 1.399 . S
C767 C766 1.399 . S
C767 C768 1.376 . S
C768 H755 0.930 . S
C768 C767 1.376 . S
C768 C769 1.388 . S
C769 H756 0.930 . S
C769 C768 1.388 . S
C769 C770 1.390 . S
C770 C769 1.390 . S
C770 C771 1.394 . S
C770 C776 1.465 . S
C771 C766 1.399 . S
C771 C770 1.394 . S
C771 C772 1.516 . S
C772 C771 1.516 . S
C772 C773 1.502 . S
C772 C774 1.561 . S
C772 C775 1.526 . S
C773 H757 0.959 . S
C773 H758 0.959 . S
C773 H759 0.961 . S
C773 C772 1.502 . S
C774 H760 0.960 . S
C774 H761 0.961 . S
C774 H762 0.959 . S
C774 C772 1.561 . S
C775 C772 1.526 . S
C775 C776 1.396 . S
C775 C780 1.390 . S
C776 C770 1.465 . S
C776 C775 1.396 . S
C776 C777 1.399 . S
C777 H763 0.929 . S
C777 C776 1.399 . S
C777 C778 1.385 . S
C778 H764 0.931 . S
C778 C777 1.385 . S
C778 C779 1.389 . S
C779 C778 1.389 . S
C779 C780 1.387 . S
C780 H765 0.930 . S
C780 C775 1.390 . S
C780 C779 1.387 . S
H781 C793 0.930 . S
H782 C795 0.930 . S
H783 C796 0.930 . S
H784 C800 0.959 . S
H785 C800 0.959 . S
H786 C800 0.961 . S
H787 C801 0.960 . S
H788 C801 0.961 . S
H789 C801 0.959 . S
H790 C804 0.929 . S
H791 C805 0.931 . S
H792 C807 0.930 . S
C793 H781 0.930 . S
C793 C794 1.399 . S
C793 C798 1.399 . S
C794 C793 1.399 . S
C794 C795 1.376 . S
C795 H782 0.930 . S
C795 C794 1.376 . S
C795 C796 1.388 . S
C796 H783 0.930 . S
C796 C795 1.388 . S
C796 C797 1.390 . S
C797 C796 1.390 . S
C797 C798 1.394 . S
C797 C803 1.465 . S
C798 C793 1.399 . S
C798 C797 1.394 . S
C798 C799 1.516 . S
C799 C798 1.516 . S
C799 C800 1.502 . S
C799 C801 1.561 . S
C799 C802 1.526 . S
C800 H784 0.959 . S
C800 H785 0.959 . S
C800 H786 0.961 . S
C800 C799 1.502 . S
C801 H787 0.960 . S
C801 H788 0.961 . S
C801 H789 0.959 . S
C801 C799 1.561 . S
C802 C799 1.526 . S
C802 C803 1.396 . S
C802 C807 1.390 . S
C803 C797 1.465 . S
C803 C802 1.396 . S
C803 C804 1.399 . S
C804 H790 0.929 . S
C804 C803 1.399 . S
C804 C805 1.385 . S
C805 H791 0.931 . S
C805 C804 1.385 . S
C805 C806 1.389 . S
C806 C805 1.389 . S
C806 C807 1.387 . S
C807 H792 0.930 . S
C807 C802 1.390 . S
C807 C806 1.387 . S
C173 C19 1.789 . S
C185 C18 1.788 . S
C200 C39 1.796 . S
C212 C38 1.781 . S
C227 C59 1.795 . S
C239 C58 1.782 . S
C254 C79 1.778 . S
C266 C78 1.810 . S
C281 C99 1.771 . S
C293 C98 1.814 . S
C308 C118 1.773 . S
C320 C119 1.813 . S
C335 C139 1.796 . S
C347 C138 1.781 . S
C362 C158 1.815 . S
C374 C159 1.769 . S
C389 C21 1.718 . S
C401 C2 1.771 1_556 S
C416 C62 1.779 . S
C428 C41 1.738 . S
C443 C82 1.733 1_556 S
C455 C101 1.755 . S
C470 C121 1.708 . S
C482 C142 1.784 . S
C497 C1 1.517 . S
C509 C102 1.520 . S
C524 C81 1.530 . S
C536 C22 1.507 . S
C551 C42 1.528 . S
C563 C141 1.509 . S
C578 C61 1.488 . S
C590 C122 1.543 . S
C605 C8 1.509 . S
C617 C68 1.520 . S
C632 C28 1.518 . S
C644 C48 1.538 . S
C659 C29 1.515 . S
C671 C49 1.514 . S
C686 C69 1.558 . S
C698 C9 1.519 . S
C713 C88 1.486 . S
C725 C148 1.508 . S
C740 C108 1.518 . S
C752 C128 1.538 . S
C767 C109 1.513 . S
C779 C129 1.511 . S
C794 C149 1.550 . S
C806 C89 1.518 . S
