# Generated by pormake.
# Topology npo, (4)-cn, num edge types: 1
# Building blocks:
#     Node 0, Type 0, BuildingBlock: GALJAG_clean_sbu_0, # of connection points: 4
#     Node 1, Type 0, BuildingBlock: GALJAG_clean_sbu_0, # of connection points: 4
#     Node 2, Type 0, BuildingBlock: GALJAG_clean_sbu_0, # of connection points: 4
#     Node 3, Type 0, BuildingBlock: GALJAG_clean_sbu_0, # of connection points: 4
#     Node 4, Type 0, BuildingBlock: GALJAG_clean_sbu_0, # of connection points: 4
#     Node 5, Type 0, BuildingBlock: GALJAG_clean_sbu_0, # of connection points: 4
#     Edge 6, Type (0, 0), BuildingBlock: UVAHIK_clean_linker_0, # of connection points: 2
#     Edge 7, Type (0, 0), BuildingBlock: UVAHIK_clean_linker_0, # of connection points: 2
#     Edge 8, Type (0, 0), BuildingBlock: UVAHIK_clean_linker_0, # of connection points: 2
#     Edge 9, Type (0, 0), BuildingBlock: UVAHIK_clean_linker_0, # of connection points: 2
#     Edge 10, Type (0, 0), BuildingBlock: UVAHIK_clean_linker_0, # of connection points: 2
#     Edge 11, Type (0, 0), BuildingBlock: UVAHIK_clean_linker_0, # of connection points: 2
#     Edge 12, Type (0, 0), BuildingBlock: UVAHIK_clean_linker_0, # of connection points: 2
#     Edge 13, Type (0, 0), BuildingBlock: UVAHIK_clean_linker_0, # of connection points: 2
#     Edge 14, Type (0, 0), BuildingBlock: UVAHIK_clean_linker_0, # of connection points: 2
#     Edge 15, Type (0, 0), BuildingBlock: UVAHIK_clean_linker_0, # of connection points: 2
#     Edge 16, Type (0, 0), BuildingBlock: UVAHIK_clean_linker_0, # of connection points: 2
#     Edge 17, Type (0, 0), BuildingBlock: UVAHIK_clean_linker_0, # of connection points: 2
# Relax obj value: 0.168
# Max RMSD: 0.202
# Mean RMSD: 0.202
data_MOF--net-npo--node1-GALJAG_clean_sbu_0--edge1-UVAHIK_clean_linker_0
_symmetry_space_group_name_H-M    P1
_symmetry_Int_Tables_number       1
_symmetry_cell_setting            triclinic
loop_
_symmetry_equiv_pos_as_xyz
'x, y, z'
_cell_length_a     60.87296
_cell_length_b     60.917791
_cell_length_c     28.145161
_cell_angle_alpha  89.942672
_cell_angle_beta   89.949486
_cell_angle_gamma 120.08426
loop_
_atom_site_label
_atom_site_type_symbol
_atom_site_fract_x
_atom_site_fract_y
_atom_site_fract_z
_atom_type_partial_charge
In0 In 0.55135 0.12274 0.24729 0.0
O1 O 0.52772 0.10284 0.18206 0.0
O2 O 0.55191 0.09009 0.20952 0.0
C3 C 0.53217 0.15324 0.26423 0.0
C4 C 0.53696 0.09492 0.32733 0.0
C5 C 0.59935 0.15523 0.21989 0.0
O6 O 0.52311 0.13602 0.23316 0.0
O7 O 0.55091 0.15504 0.28681 0.0
O8 O 0.5941 0.13934 0.25291 0.0
O9 O 0.58038 0.1546 0.20049 0.0
C10 C 0.53575 0.08743 0.17871 0.0
O11 O 0.55986 0.11096 0.31868 0.0
O12 O 0.52144 0.09315 0.29586 0.0
In13 In 0.42455 0.55041 0.74224 0.0
O14 O 0.43184 0.53961 0.66946 0.0
O15 O 0.46205 0.55375 0.71954 0.0
C16 C 0.37428 0.53163 0.73178 0.0
C17 C 0.42665 0.5241 0.81709 0.0
C18 C 0.44317 0.60088 0.74009 0.0
O19 O 0.38686 0.52571 0.70436 0.0
O20 O 0.38706 0.54702 0.7642 0.0
O21 O 0.43955 0.58878 0.77842 0.0
O22 O 0.43732 0.58752 0.70305 0.0
C23 C 0.45449 0.54556 0.67811 0.0
O24 O 0.43806 0.54802 0.81624 0.0
O25 O 0.41435 0.51345 0.77997 0.0
In26 In 0.85991 0.4394 0.22653 0.0
O27 O 0.89159 0.43555 0.19224 0.0
O28 O 0.88642 0.46601 0.16971 0.0
C29 C 0.82499 0.38993 0.21722 0.0
C30 C 0.88734 0.45296 0.30686 0.0
C31 C 0.83072 0.46082 0.21792 0.0
O32 O 0.83983 0.40261 0.1839 0.0
O33 O 0.82775 0.40222 0.25487 0.0
O34 O 0.83786 0.45701 0.25756 0.0
O35 O 0.8384 0.45391 0.18243 0.0
C36 C 0.89905 0.45482 0.16606 0.0
O37 O 0.88716 0.46895 0.27859 0.0
O38 O 0.87328 0.43009 0.29503 0.0
In39 In 0.42686 0.86358 0.74681 0.0
O40 O 0.42276 0.89101 0.7953 0.0
O41 O 0.4499 0.8802 0.81402 0.0
C42 C 0.37674 0.83 0.74229 0.0
C43 C 0.44614 0.9002 0.68031 0.0
C44 C 0.44594 0.8322 0.74413 0.0
O45 O 0.3872 0.84285 0.77898 0.0
O46 O 0.39153 0.83421 0.70773 0.0
O47 O 0.44587 0.84463 0.70831 0.0
O48 O 0.43648 0.83571 0.78125 0.0
C49 C 0.43964 0.8932 0.82402 0.0
O50 O 0.45994 0.89595 0.70773 0.0
O51 O 0.42259 0.88565 0.68582 0.0
In52 In 0.54931 0.43106 0.24371 0.0
O53 O 0.5406 0.4386 0.16912 0.0
O54 O 0.51161 0.42737 0.22118 0.0
C55 C 0.59979 0.45216 0.23273 0.0
C56 C 0.54974 0.45953 0.31675 0.0
C57 C 0.53105 0.38062 0.24785 0.0
O58 O 0.58583 0.45354 0.20118 0.0
O59 O 0.58827 0.44004 0.26958 0.0
O60 O 0.5255 0.39216 0.27842 0.0
O61 O 0.54578 0.3945 0.21547 0.0
C62 C 0.51832 0.43357 0.1786 0.0
O63 O 0.54347 0.43651 0.32138 0.0
O64 O 0.55563 0.46819 0.27505 0.0
In65 In 0.11607 0.54408 0.72887 0.0
O66 O 0.10462 0.52619 0.80245 0.0
O67 O 0.08934 0.54885 0.77841 0.0
C68 C 0.14359 0.52242 0.70405 0.0
C69 C 0.08052 0.52728 0.66048 0.0
C70 C 0.15045 0.59341 0.74118 0.0
O71 O 0.1272 0.51371 0.73672 0.0
O72 O 0.14583 0.54184 0.68347 0.0
O73 O 0.13185 0.58594 0.71332 0.0
O74 O 0.15172 0.57596 0.76295 0.0
C75 C 0.09049 0.53533 0.81113 0.0
O76 O 0.09921 0.54953 0.66116 0.0
O77 O 0.07991 0.51325 0.694 0.0
C78 C 0.50133 0.16781 0.24636 0.0
C79 C 0.52267 0.17097 0.27137 0.0
C80 C 0.49399 0.18612 0.24927 0.0
C81 C 0.50612 0.24446 0.3144 0.0
H82 H 0.49469 0.26506 0.19079 0.0
C83 C 0.52937 0.34174 0.21585 0.0
C84 C 0.52193 0.35323 0.25055 0.0
C85 C 0.52235 0.31625 0.21982 0.0
C86 C 0.49773 0.25948 0.22562 0.0
H87 H 0.55232 0.19499 0.32085 0.0
H88 H 0.54003 0.22723 0.325 0.0
H89 H 0.49553 0.22576 0.1984 0.0
H90 H 0.50047 0.34693 0.31565 0.0
H91 H 0.48801 0.30213 0.3225 0.0
H92 H 0.51016 0.27917 0.34088 0.0
C93 C 0.52859 0.21047 0.3038 0.0
C94 C 0.49789 0.23676 0.23013 0.0
C95 C 0.53581 0.1921 0.30111 0.0
C96 C 0.50658 0.33854 0.28852 0.0
C97 C 0.49952 0.31296 0.29251 0.0
C98 C 0.50611 0.26728 0.30981 0.0
C99 C 0.50797 0.208 0.27702 0.0
C100 C 0.50299 0.22944 0.27427 0.0
C101 C 0.50766 0.30165 0.25853 0.0
C102 C 0.50285 0.27546 0.26502 0.0
H103 H 0.4907 0.15154 0.22352 0.0
H104 H 0.47779 0.18348 0.22879 0.0
H105 H 0.50963 0.2391 0.34905 0.0
H106 H 0.54119 0.3526 0.18618 0.0
H107 H 0.52932 0.30828 0.19346 0.0
C108 C 0.33396 0.52882 0.75842 0.0
C109 C 0.34685 0.52178 0.72606 0.0
C110 C 0.30827 0.52056 0.75218 0.0
C111 C 0.25142 0.4923 0.7435 0.0
H112 H 0.23143 0.50197 0.61796 0.0
C113 C 0.15789 0.4911 0.7189 0.0
C114 C 0.16076 0.51247 0.69436 0.0
C115 C 0.17653 0.4842 0.71563 0.0
C116 C 0.23666 0.49901 0.65316 0.0
H117 H 0.34296 0.50004 0.66247 0.0
H118 H 0.29783 0.48552 0.65152 0.0
H119 H 0.27277 0.50544 0.62915 0.0
H120 H 0.1843 0.54225 0.64451 0.0
H121 H 0.21708 0.53071 0.63973 0.0
H122 H 0.21626 0.48774 0.76831 0.0
C123 C 0.30769 0.49757 0.68153 0.0
C124 C 0.26023 0.50073 0.65949 0.0
C125 C 0.33346 0.50583 0.68786 0.0
C126 C 0.18165 0.52574 0.66396 0.0
C127 C 0.20035 0.51896 0.66094 0.0
C128 C 0.22794 0.49071 0.73725 0.0
C129 C 0.2949 0.50504 0.71345 0.0
C130 C 0.26823 0.49838 0.70508 0.0
C131 C 0.19845 0.49866 0.68804 0.0
C132 C 0.2207 0.49499 0.69232 0.0
H133 H 0.3438 0.5411 0.78819 0.0
H134 H 0.29911 0.52705 0.77691 0.0
H135 H 0.25688 0.48992 0.77891 0.0
H136 H 0.14179 0.48035 0.74219 0.0
H137 H 0.17428 0.46817 0.73625 0.0
C138 C 0.64614 0.17308 0.22717 0.0
C139 C 0.62563 0.17442 0.20764 0.0
C140 C 0.67098 0.19289 0.22022 0.0
C141 C 0.71021 0.25346 0.15353 0.0
H142 H 0.74909 0.27387 0.27035 0.0
C143 C 0.78868 0.35042 0.25011 0.0
C144 C 0.80564 0.36291 0.21261 0.0
C145 C 0.76979 0.3251 0.24566 0.0
C146 C 0.73849 0.26843 0.23741 0.0
H147 H 0.61495 0.19674 0.16354 0.0
H148 H 0.65807 0.23164 0.15272 0.0
H149 H 0.71003 0.23329 0.26678 0.0
H150 H 0.81658 0.35864 0.1414 0.0
H151 H 0.78362 0.31408 0.13377 0.0
H152 H 0.73787 0.28952 0.12538 0.0
C153 C 0.65521 0.21517 0.17254 0.0
C154 C 0.71624 0.24494 0.23508 0.0
C155 C 0.63043 0.19524 0.17905 0.0
C156 C 0.80365 0.34947 0.17079 0.0
C157 C 0.78475 0.32402 0.16638 0.0
C158 C 0.73239 0.27709 0.15601 0.0
C159 C 0.67574 0.21454 0.1941 0.0
C160 C 0.70142 0.23748 0.19357 0.0
C161 C 0.76752 0.31161 0.20371 0.0
C162 C 0.74632 0.28515 0.1985 0.0
H163 H 0.64296 0.15707 0.24892 0.0
H164 H 0.68638 0.19156 0.2365 0.0
H165 H 0.69949 0.24809 0.12072 0.0
H166 H 0.78971 0.36033 0.28272 0.0
H167 H 0.75653 0.3163 0.27474 0.0
C168 C 0.4626 0.80841 0.69879 0.0
C169 C 0.45493 0.81384 0.74215 0.0
C170 C 0.4686 0.78912 0.69608 0.0
C171 C 0.48285 0.74677 0.76784 0.0
H172 H 0.44587 0.69793 0.66863 0.0
C173 C 0.45412 0.64156 0.78051 0.0
C174 C 0.45234 0.62829 0.73862 0.0
C175 C 0.46052 0.66698 0.77853 0.0
C176 C 0.45683 0.71157 0.69593 0.0
H177 H 0.4488 0.8044 0.81712 0.0
H178 H 0.45907 0.77062 0.81233 0.0
H179 H 0.44683 0.73824 0.66932 0.0
H180 H 0.45731 0.63146 0.66214 0.0
H181 H 0.46897 0.676 0.65872 0.0
H182 H 0.49228 0.71971 0.79515 0.0
C183 C 0.46064 0.78133 0.78051 0.0
C184 C 0.45736 0.7347 0.69632 0.0
C185 C 0.45456 0.80054 0.78318 0.0
C186 C 0.45825 0.64118 0.69495 0.0
C187 C 0.46485 0.66665 0.69299 0.0
C188 C 0.48244 0.72364 0.76732 0.0
C189 C 0.46713 0.77503 0.73673 0.0
C190 C 0.46985 0.75228 0.73289 0.0
C191 C 0.46543 0.67966 0.73463 0.0
C192 C 0.46889 0.70553 0.73199 0.0
H193 H 0.46321 0.81849 0.66665 0.0
H194 H 0.47379 0.78481 0.66198 0.0
H195 H 0.49289 0.76013 0.79613 0.0
H196 H 0.44968 0.63206 0.81466 0.0
H197 H 0.46048 0.67632 0.81122 0.0
C198 C 0.63861 0.47127 0.18157 0.0
C199 C 0.62733 0.46303 0.22649 0.0
C200 C 0.66435 0.4795 0.17508 0.0
C201 C 0.72481 0.50056 0.23822 0.0
H202 H 0.73674 0.46217 0.14208 0.0
C203 C 0.80257 0.47481 0.25469 0.0
C204 C 0.8133 0.47089 0.21374 0.0
C205 C 0.78381 0.48147 0.25091 0.0
C206 C 0.73407 0.47364 0.16827 0.0
H207 H 0.63421 0.45813 0.30026 0.0
H208 H 0.67914 0.4726 0.28898 0.0
H209 H 0.69603 0.46049 0.1451 0.0
H210 H 0.81418 0.4725 0.13677 0.0
H211 H 0.78166 0.48462 0.13008 0.0
H212 H 0.7626 0.51313 0.26234 0.0
C213 C 0.66817 0.47276 0.25883 0.0
C214 C 0.71067 0.47261 0.17003 0.0
C215 C 0.64242 0.46426 0.2652 0.0
C216 C 0.806 0.47515 0.16893 0.0
C217 C 0.78733 0.482 0.16512 0.0
C218 C 0.74833 0.5018 0.23621 0.0
C219 C 0.67926 0.47996 0.21355 0.0
C220 C 0.70552 0.48529 0.2061 0.0
C221 C 0.77553 0.48454 0.20606 0.0
C222 C 0.75285 0.48754 0.20237 0.0
H223 H 0.62738 0.47057 0.15116 0.0
H224 H 0.6725 0.48502 0.13985 0.0
H225 H 0.72138 0.51079 0.26598 0.0
H226 H 0.80787 0.4717 0.28972 0.0
H227 H 0.77492 0.48288 0.2832 0.0
C228 C 0.33996 0.79363 0.70248 0.0
C229 C 0.34968 0.81041 0.74101 0.0
C230 C 0.31506 0.77337 0.70349 0.0
C231 C 0.2662 0.73287 0.7897 0.0
H232 H 0.22608 0.70429 0.67583 0.0
C233 C 0.167 0.63916 0.72259 0.0
C234 C 0.16973 0.6204 0.74642 0.0
C235 C 0.18605 0.66459 0.72517 0.0
C236 C 0.23678 0.7122 0.70819 0.0
H237 H 0.34069 0.82018 0.80954 0.0
H238 H 0.29697 0.78505 0.81093 0.0
H239 H 0.26413 0.74598 0.67247 0.0
H240 H 0.19411 0.61348 0.79259 0.0
H241 H 0.22759 0.65771 0.79633 0.0
H242 H 0.23887 0.69911 0.82542 0.0
C243 C 0.30874 0.78718 0.78042 0.0
C244 C 0.25877 0.73597 0.7061 0.0
C245 C 0.33372 0.80735 0.77954 0.0
C246 C 0.1915 0.62756 0.77391 0.0
C247 C 0.21059 0.65294 0.77633 0.0
C248 C 0.24414 0.70919 0.79185 0.0
C249 C 0.29933 0.7696 0.74292 0.0
C250 C 0.27411 0.74625 0.74652 0.0
C251 C 0.20823 0.67171 0.75151 0.0
C252 C 0.22959 0.69827 0.75082 0.0
H253 H 0.35187 0.79556 0.67231 0.0
H254 H 0.30857 0.76002 0.67429 0.0
H255 H 0.27764 0.74011 0.82146 0.0
H256 H 0.1503 0.63416 0.70138 0.0
H257 H 0.18353 0.67864 0.70617 0.0
C258 C 0.46657 0.91246 0.89572 0.0
C259 C 0.44763 0.91058 0.86479 0.0
C260 C 0.47532 0.93016 0.93251 0.0
C261 C 0.45954 0.97159 0.0028 0.0
H262 H 0.53247 0.01157 0.02042 0.0
C263 C 0.50689 0.06387 0.11143 0.0
C264 C 0.52621 0.06719 0.14284 0.0
C265 C 0.49708 0.04399 0.07881 0.0
C266 C 0.51205 0.00036 0.01626 0.0
H267 H 0.42253 0.92521 0.84853 0.0
H268 H 0.43803 0.95636 0.91235 0.0
H269 H 0.51506 0.97736 0.96227 0.0
H270 H 0.55066 0.0526 0.16462 0.0
H271 H 0.53348 0.01782 0.10752 0.0
H272 H 0.45661 -0.00511 0.05637 0.0
C273 C 0.44591 0.94397 0.90864 0.0
C274 C 0.50208 0.98075 0.98309 0.0
C275 C 0.43713 0.92624 0.87194 0.0
C276 C 0.5358 0.0505 0.1407 0.0
C277 C 0.52604 0.03067 0.10796 0.0
C278 C 0.46952 0.99126 0.03588 0.0
C279 C 0.46531 0.94632 0.93893 0.0
C280 C 0.47573 0.96627 0.97582 0.0
C281 C 0.50648 0.02714 0.07693 0.0
C282 C 0.49588 0.00593 0.04268 0.0
H283 H 0.4749 0.90051 0.89112 0.0
H284 H 0.49003 0.9313 0.95575 0.0
H285 H 0.43913 0.96051 -0.00156 0.0
H286 H 0.49918 0.0765 0.11231 0.0
H287 H 0.48224 0.0419 0.05482 0.0
C288 C 0.55662 0.50045 0.35033 0.0
C289 C 0.54919 0.47479 0.35675 0.0
C290 C 0.55404 0.51424 0.38735 0.0
C291 C 0.54001 0.51197 0.51674 0.0
H292 H 0.50568 0.54823 0.47848 0.0
C293 C 0.4958 0.54954 0.65319 0.0
C294 C 0.4708 0.54323 0.64223 0.0
C295 C 0.51092 0.54676 0.61907 0.0
C296 C 0.51537 0.53829 0.48972 0.0
H297 H 0.53438 0.44371 0.40729 0.0
H298 H 0.52925 0.46748 0.47136 0.0
H299 H 0.52323 0.53283 0.41818 0.0
H300 H 0.44211 0.52951 0.58706 0.0
H301 H 0.46824 0.52431 0.52796 0.0
H302 H 0.53055 0.51598 0.58819 0.0
C303 C 0.5375 0.47718 0.4382 0.0
C304 C 0.52573 0.52973 0.4552 0.0
C305 C 0.54018 0.46346 0.40132 0.0
C306 C 0.46132 0.53452 0.5965 0.0
C307 C 0.47639 0.53179 0.56249 0.0
C308 C 0.52954 0.52045 0.55129 0.0
C309 C 0.54389 0.50257 0.43134 0.0
C310 C 0.53737 0.5157 0.46824 0.0
C311 C 0.5013 0.53773 0.57343 0.0
C312 C 0.51631 0.53288 0.53795 0.0
H313 H 0.56387 0.50971 0.31642 0.0
H314 H 0.55943 0.53387 0.38119 0.0
H315 H 0.54926 0.50159 0.5279 0.0
H316 H 0.5036 0.55641 0.68818 0.0
H317 H 0.53009 0.55159 0.62839 0.0
C318 C 0.07486 0.51215 0.88811 0.0
C319 C 0.07555 0.5298 0.85513 0.0
C320 C 0.0591 0.50553 0.92796 0.0
C321 C 0.022 0.52544 0.00174 0.0
H322 H 0.97768 0.45324 0.02189 0.0
C323 C 0.92831 0.48503 0.10503 0.0
C324 C 0.92126 0.46398 0.13461 0.0
C325 C 0.94954 0.49393 0.07564 0.0
C326 C -0.00981 0.47346 0.01735 0.0
H327 H 0.0612 0.55511 0.83868 0.0
H328 H 0.03366 0.54349 0.90808 0.0
H329 H 0.0116 0.46791 0.96323 0.0
H330 H 0.93097 0.43586 0.15728 0.0
H331 H 0.96827 0.45155 0.10616 0.0
H332 H 0.00029 0.53098 0.05525 0.0
C333 C 0.04535 0.53488 0.9034 0.0
C334 C 0.00963 0.48186 0.98378 0.0
C335 C 0.06098 0.5414 0.86349 0.0
C336 C 0.9359 0.45204 0.13454 0.0
C337 C 0.95719 0.46098 0.10523 0.0
C338 C 0.00261 0.51705 0.03543 0.0
C339 C 0.04395 0.51659 0.93558 0.0
C340 C 0.02539 0.50791 0.975 0.0
C341 C 0.9642 0.48199 0.07541 0.0
C342 C 0.98619 0.49096 0.04289 0.0
H343 H 0.086 0.50301 0.88256 0.0
H344 H 0.05852 0.49153 0.95248 0.0
H345 H 0.03412 0.54565 -0.0039 0.0
H346 H 0.91734 0.49458 0.10437 0.0
H347 H 0.95421 0.50989 0.05246 0.0
C348 C 0.50306 0.06153 0.37778 0.0
C349 C 0.52894 0.07851 0.36964 0.0
C350 C 0.49539 0.04461 0.41582 0.0
C351 C 0.51802 0.01125 0.4908 0.0
H352 H 0.45813 -0.0053 0.56565 0.0
C353 C 0.48299 0.93807 0.64362 0.0
C354 C 0.45669 0.92129 0.64601 0.0
C355 C 0.4929 0.95872 0.61256 0.0
C356 C 0.47478 -0.001 0.54478 0.0
H357 H 0.5671 0.09173 0.39551 0.0
H358 H 0.55363 0.06205 0.46229 0.0
H359 H 0.47379 0.02924 0.50798 0.0
H360 H 0.42012 0.91265 0.61754 0.0
H361 H 0.43746 0.94847 0.5627 0.0
H362 H 0.51873 0.98069 0.52685 0.0
C363 C 0.53934 0.06174 0.43896 0.0
C364 C 0.48377 0.01879 0.51192 0.0
C365 C 0.54702 0.07877 0.40095 0.0
C366 C 0.44048 0.92533 0.61649 0.0
C367 C 0.45039 0.94595 0.5854 0.0
C368 C 0.509 0.99141 0.52361 0.0
C369 C 0.51346 0.0443 0.44637 0.0
C370 C 0.50527 0.02488 0.48417 0.0
C371 C 0.47668 0.96294 0.58332 0.0
C372 C 0.48708 0.98486 0.55044 0.0
H373 H 0.48872 0.06093 0.35418 0.0
H374 H 0.47534 0.03118 0.42034 0.0
H375 H 0.53445 0.01531 0.46942 0.0
H376 H 0.49591 0.93544 0.66617 0.0
H377 H 0.51322 0.97162 0.61201 0.0
C378 C 0.44205 0.52264 0.89836 0.0
C379 C 0.42817 0.50977 0.85786 0.0
C380 C 0.4448 0.50928 0.93591 0.0
C381 C 0.44645 0.45133 0.95863 0.0
H382 H 0.45079 0.47246 0.08988 0.0
C383 C 0.5099 0.44119 0.09548 0.0
C384 C 0.50179 0.43559 0.14287 0.0
C385 C 0.49512 0.44471 0.06197 0.0
C386 C 0.44918 0.46596 0.05357 0.0
H387 H 0.40544 0.47279 0.82541 0.0
H388 H 0.41029 0.44936 0.89124 0.0
H389 H 0.43418 0.48921 0.02988 0.0
H390 H 0.47151 0.42841 0.19223 0.0
H391 H 0.44561 0.43473 0.13339 0.0
H392 H 0.46205 0.42858 0.98211 0.0
C393 C 0.41919 0.46981 0.89372 0.0
C394 C 0.43994 0.47576 0.01917 0.0
C395 C 0.4164 0.4832 0.85615 0.0
C396 C 0.47825 0.43282 0.15591 0.0
C397 C 0.46348 0.43648 0.12235 0.0
C398 C 0.45572 0.44156 -0.00699 0.0
C399 C 0.43373 0.48277 0.93368 0.0
C400 C 0.43927 0.46918 0.97114 0.0
C401 C 0.47195 0.44278 0.07518 0.0
C402 C 0.45796 0.44944 0.04052 0.0
H403 H 0.45129 0.54312 0.90066 0.0
H404 H 0.45644 0.51985 0.96589 0.0
H405 H 0.44628 0.44599 0.92188 0.0
H406 H 0.52794 0.44338 0.08443 0.0
H407 H 0.50235 0.44993 0.02608 0.0
C408 C 0.04044 0.49353 0.62356 0.0
C409 C 0.06042 0.51878 0.62442 0.0
C410 C 0.02095 0.48585 0.59029 0.0
C411 C 0.00573 0.50474 0.47573 0.0
H412 H 0.93592 0.45957 0.514 0.0
C413 C 0.92231 0.48612 0.35568 0.0
C414 C 0.90427 0.46049 0.34831 0.0
C415 C 0.94026 0.49308 0.39174 0.0
C416 C 0.95535 0.47208 0.50287 0.0
H417 H 0.07579 0.55582 0.59147 0.0
H418 H 0.04163 0.54258 0.53408 0.0
H419 H 0.97008 0.47174 0.57169 0.0
H420 H 0.89002 0.4221 0.37402 0.0
H421 H 0.92142 0.43434 0.4374 0.0
H422 H -0.00902 0.5053 0.40713 0.0
C423 C 0.04118 0.52856 0.55837 0.0
C424 C 0.9749 0.47896 0.53574 0.0
C425 C 0.06069 0.53618 0.59139 0.0
C426 C 0.90377 0.44201 0.37892 0.0
C427 C 0.92164 0.449 0.41524 0.0
C428 C 0.98621 0.49802 0.44307 0.0
C429 C 0.02107 0.50332 0.55747 0.0
C430 C 0.00029 0.49544 0.52251 0.0
C431 C 0.94038 0.47453 0.42123 0.0
C432 C 0.96086 0.48172 0.45637 0.0
H433 H 0.03983 0.47973 0.64864 0.0
H434 H 0.0059 0.4662 0.59006 0.0
H435 H 0.02512 0.51706 0.46416 0.0
H436 H 0.92306 0.50076 0.33269 0.0
H437 H 0.95432 0.51294 0.39612 0.0
loop_
_geom_bond_atom_site_label_1
_geom_bond_atom_site_label_2
_geom_bond_distance
_geom_bond_site_symmetry_2
_ccdc_geom_bond_type
In0 O1 2.294 . S
In0 O2 2.326 . S
In0 O6 2.266 . S
In0 O7 2.326 . S
In0 O8 2.266 . S
In0 O9 2.326 . S
In0 O11 2.294 . S
In0 O12 2.326 . S
O1 In0 2.294 . S
O1 C10 1.240 . S
O2 In0 2.326 . S
O2 C10 1.252 . S
C3 O6 1.252 . S
C3 O7 1.260 . S
C4 O11 1.240 . S
C4 O12 1.252 . S
C5 O8 1.252 . S
C5 O9 1.260 . S
O6 In0 2.266 . S
O6 C3 1.252 . S
O7 In0 2.326 . S
O7 C3 1.260 . S
O8 In0 2.266 . S
O8 C5 1.252 . S
O9 In0 2.326 . S
O9 C5 1.260 . S
C10 O1 1.240 . S
C10 O2 1.252 . S
O11 In0 2.294 . S
O11 C4 1.240 . S
O12 In0 2.326 . S
O12 C4 1.252 . S
In13 O14 2.294 . S
In13 O15 2.326 . S
In13 O19 2.266 . S
In13 O20 2.326 . S
In13 O21 2.266 . S
In13 O22 2.326 . S
In13 O24 2.294 . S
In13 O25 2.326 . S
O14 In13 2.294 . S
O14 C23 1.240 . S
O15 In13 2.326 . S
O15 C23 1.252 . S
C16 O19 1.252 . S
C16 O20 1.260 . S
C17 O24 1.240 . S
C17 O25 1.252 . S
C18 O21 1.252 . S
C18 O22 1.260 . S
O19 In13 2.266 . S
O19 C16 1.252 . S
O20 In13 2.326 . S
O20 C16 1.260 . S
O21 In13 2.266 . S
O21 C18 1.252 . S
O22 In13 2.326 . S
O22 C18 1.260 . S
C23 O14 1.240 . S
C23 O15 1.252 . S
O24 In13 2.294 . S
O24 C17 1.240 . S
O25 In13 2.326 . S
O25 C17 1.252 . S
In26 O27 2.294 . S
In26 O28 2.326 . S
In26 O32 2.266 . S
In26 O33 2.326 . S
In26 O34 2.266 . S
In26 O35 2.326 . S
In26 O37 2.294 . S
In26 O38 2.326 . S
O27 In26 2.294 . S
O27 C36 1.240 . S
O28 In26 2.326 . S
O28 C36 1.252 . S
C29 O32 1.252 . S
C29 O33 1.260 . S
C30 O37 1.240 . S
C30 O38 1.252 . S
C31 O34 1.252 . S
C31 O35 1.260 . S
O32 In26 2.266 . S
O32 C29 1.252 . S
O33 In26 2.326 . S
O33 C29 1.260 . S
O34 In26 2.266 . S
O34 C31 1.252 . S
O35 In26 2.326 . S
O35 C31 1.260 . S
C36 O27 1.240 . S
C36 O28 1.252 . S
O37 In26 2.294 . S
O37 C30 1.240 . S
O38 In26 2.326 . S
O38 C30 1.252 . S
In39 O40 2.294 . S
In39 O41 2.326 . S
In39 O45 2.266 . S
In39 O46 2.326 . S
In39 O47 2.266 . S
In39 O48 2.326 . S
In39 O50 2.294 . S
In39 O51 2.326 . S
O40 In39 2.294 . S
O40 C49 1.240 . S
O41 In39 2.326 . S
O41 C49 1.252 . S
C42 O45 1.252 . S
C42 O46 1.260 . S
C43 O50 1.240 . S
C43 O51 1.252 . S
C44 O47 1.252 . S
C44 O48 1.260 . S
O45 In39 2.266 . S
O45 C42 1.252 . S
O46 In39 2.326 . S
O46 C42 1.260 . S
O47 In39 2.266 . S
O47 C44 1.252 . S
O48 In39 2.326 . S
O48 C44 1.260 . S
C49 O40 1.240 . S
C49 O41 1.252 . S
O50 In39 2.294 . S
O50 C43 1.240 . S
O51 In39 2.326 . S
O51 C43 1.252 . S
In52 O53 2.294 . S
In52 O54 2.326 . S
In52 O58 2.266 . S
In52 O59 2.326 . S
In52 O60 2.266 . S
In52 O61 2.326 . S
In52 O63 2.294 . S
In52 O64 2.326 . S
O53 In52 2.294 . S
O53 C62 1.240 . S
O54 In52 2.326 . S
O54 C62 1.252 . S
C55 O58 1.252 . S
C55 O59 1.260 . S
C56 O63 1.240 . S
C56 O64 1.252 . S
C57 O60 1.252 . S
C57 O61 1.260 . S
O58 In52 2.266 . S
O58 C55 1.252 . S
O59 In52 2.326 . S
O59 C55 1.260 . S
O60 In52 2.266 . S
O60 C57 1.252 . S
O61 In52 2.326 . S
O61 C57 1.260 . S
C62 O53 1.240 . S
C62 O54 1.252 . S
O63 In52 2.294 . S
O63 C56 1.240 . S
O64 In52 2.326 . S
O64 C56 1.252 . S
In65 O66 2.294 . S
In65 O67 2.326 . S
In65 O71 2.266 . S
In65 O72 2.326 . S
In65 O73 2.266 . S
In65 O74 2.326 . S
In65 O76 2.294 . S
In65 O77 2.326 . S
O66 In65 2.294 . S
O66 C75 1.240 . S
O67 In65 2.326 . S
O67 C75 1.252 . S
C68 O71 1.252 . S
C68 O72 1.260 . S
C69 O76 1.240 . S
C69 O77 1.252 . S
C70 O73 1.252 . S
C70 O74 1.260 . S
O71 In65 2.266 . S
O71 C68 1.252 . S
O72 In65 2.326 . S
O72 C68 1.260 . S
O73 In65 2.266 . S
O73 C70 1.252 . S
O74 In65 2.326 . S
O74 C70 1.260 . S
C75 O66 1.240 . S
C75 O67 1.252 . S
O76 In65 2.294 . S
O76 C69 1.240 . S
O77 In65 2.326 . S
O77 C69 1.252 . S
C78 C79 1.349 . S
C78 C80 1.327 . S
C78 H103 0.950 . S
C79 C78 1.349 . S
C79 C95 1.349 . S
C80 C78 1.327 . S
C80 C99 1.429 . S
C80 H104 0.950 . S
C81 C98 1.574 . S
C81 C100 1.368 . S
C81 H105 0.949 . S
H82 C86 0.949 . S
C83 C84 1.349 . S
C83 C85 1.327 . S
C83 H106 0.950 . S
C84 C83 1.349 . S
C84 C96 1.349 . S
C85 C83 1.327 . S
C85 C101 1.429 . S
C85 H107 0.950 . S
C86 H82 0.949 . S
C86 C94 1.574 . S
C86 C102 1.368 . S
H87 C95 0.950 . S
H88 C93 0.950 . S
H89 C94 0.949 . S
H90 C96 0.950 . S
H91 C97 0.950 . S
H92 C98 0.949 . S
C93 H88 0.950 . S
C93 C95 1.327 . S
C93 C99 1.429 . S
C94 C86 1.574 . S
C94 H89 0.949 . S
C94 C100 1.368 . S
C95 C79 1.349 . S
C95 H87 0.950 . S
C95 C93 1.327 . S
C96 C84 1.349 . S
C96 H90 0.950 . S
C96 C97 1.327 . S
C97 H91 0.950 . S
C97 C96 1.327 . S
C97 C101 1.429 . S
C98 C81 1.574 . S
C98 H92 0.949 . S
C98 C102 1.368 . S
C99 C80 1.429 . S
C99 C93 1.429 . S
C99 C100 1.523 . S
C100 C81 1.368 . S
C100 C94 1.368 . S
C100 C99 1.523 . S
C101 C85 1.429 . S
C101 C97 1.429 . S
C101 C102 1.523 . S
C102 C86 1.368 . S
C102 C98 1.368 . S
C102 C101 1.523 . S
H103 C78 0.950 . S
H104 C80 0.950 . S
H105 C81 0.949 . S
H106 C83 0.950 . S
H107 C85 0.950 . S
C108 C109 1.349 . S
C108 C110 1.327 . S
C108 H133 0.950 . S
C109 C108 1.349 . S
C109 C125 1.349 . S
C110 C108 1.327 . S
C110 C129 1.429 . S
C110 H134 0.950 . S
C111 C128 1.574 . S
C111 C130 1.368 . S
C111 H135 0.949 . S
H112 C116 0.949 . S
C113 C114 1.349 . S
C113 C115 1.327 . S
C113 H136 0.950 . S
C114 C113 1.349 . S
C114 C126 1.349 . S
C115 C113 1.327 . S
C115 C131 1.429 . S
C115 H137 0.950 . S
C116 H112 0.949 . S
C116 C124 1.574 . S
C116 C132 1.368 . S
H117 C125 0.950 . S
H118 C123 0.950 . S
H119 C124 0.949 . S
H120 C126 0.950 . S
H121 C127 0.950 . S
H122 C128 0.949 . S
C123 H118 0.950 . S
C123 C125 1.327 . S
C123 C129 1.429 . S
C124 C116 1.574 . S
C124 H119 0.949 . S
C124 C130 1.368 . S
C125 C109 1.349 . S
C125 H117 0.950 . S
C125 C123 1.327 . S
C126 C114 1.349 . S
C126 H120 0.950 . S
C126 C127 1.327 . S
C127 H121 0.950 . S
C127 C126 1.327 . S
C127 C131 1.429 . S
C128 C111 1.574 . S
C128 H122 0.949 . S
C128 C132 1.368 . S
C129 C110 1.429 . S
C129 C123 1.429 . S
C129 C130 1.523 . S
C130 C111 1.368 . S
C130 C124 1.368 . S
C130 C129 1.523 . S
C131 C115 1.429 . S
C131 C127 1.429 . S
C131 C132 1.523 . S
C132 C116 1.368 . S
C132 C128 1.368 . S
C132 C131 1.523 . S
H133 C108 0.950 . S
H134 C110 0.950 . S
H135 C111 0.949 . S
H136 C113 0.950 . S
H137 C115 0.950 . S
C138 C139 1.349 . S
C138 C140 1.327 . S
C138 H163 0.950 . S
C139 C138 1.349 . S
C139 C155 1.349 . S
C140 C138 1.327 . S
C140 C159 1.429 . S
C140 H164 0.950 . S
C141 C158 1.574 . S
C141 C160 1.368 . S
C141 H165 0.949 . S
H142 C146 0.949 . S
C143 C144 1.349 . S
C143 C145 1.327 . S
C143 H166 0.950 . S
C144 C143 1.349 . S
C144 C156 1.349 . S
C145 C143 1.327 . S
C145 C161 1.429 . S
C145 H167 0.950 . S
C146 H142 0.949 . S
C146 C154 1.574 . S
C146 C162 1.368 . S
H147 C155 0.950 . S
H148 C153 0.950 . S
H149 C154 0.949 . S
H150 C156 0.950 . S
H151 C157 0.950 . S
H152 C158 0.949 . S
C153 H148 0.950 . S
C153 C155 1.327 . S
C153 C159 1.429 . S
C154 C146 1.574 . S
C154 H149 0.949 . S
C154 C160 1.368 . S
C155 C139 1.349 . S
C155 H147 0.950 . S
C155 C153 1.327 . S
C156 C144 1.349 . S
C156 H150 0.950 . S
C156 C157 1.327 . S
C157 H151 0.950 . S
C157 C156 1.327 . S
C157 C161 1.429 . S
C158 C141 1.574 . S
C158 H152 0.949 . S
C158 C162 1.368 . S
C159 C140 1.429 . S
C159 C153 1.429 . S
C159 C160 1.523 . S
C160 C141 1.368 . S
C160 C154 1.368 . S
C160 C159 1.523 . S
C161 C145 1.429 . S
C161 C157 1.429 . S
C161 C162 1.523 . S
C162 C146 1.368 . S
C162 C158 1.368 . S
C162 C161 1.523 . S
H163 C138 0.950 . S
H164 C140 0.950 . S
H165 C141 0.949 . S
H166 C143 0.950 . S
H167 C145 0.950 . S
C168 C169 1.349 . S
C168 C170 1.327 . S
C168 H193 0.950 . S
C169 C168 1.349 . S
C169 C185 1.349 . S
C170 C168 1.327 . S
C170 C189 1.429 . S
C170 H194 0.950 . S
C171 C188 1.574 . S
C171 C190 1.368 . S
C171 H195 0.949 . S
H172 C176 0.949 . S
C173 C174 1.349 . S
C173 C175 1.327 . S
C173 H196 0.950 . S
C174 C173 1.349 . S
C174 C186 1.349 . S
C175 C173 1.327 . S
C175 C191 1.429 . S
C175 H197 0.950 . S
C176 H172 0.949 . S
C176 C184 1.574 . S
C176 C192 1.368 . S
H177 C185 0.950 . S
H178 C183 0.950 . S
H179 C184 0.949 . S
H180 C186 0.950 . S
H181 C187 0.950 . S
H182 C188 0.949 . S
C183 H178 0.950 . S
C183 C185 1.327 . S
C183 C189 1.429 . S
C184 C176 1.574 . S
C184 H179 0.949 . S
C184 C190 1.368 . S
C185 C169 1.349 . S
C185 H177 0.950 . S
C185 C183 1.327 . S
C186 C174 1.349 . S
C186 H180 0.950 . S
C186 C187 1.327 . S
C187 H181 0.950 . S
C187 C186 1.327 . S
C187 C191 1.429 . S
C188 C171 1.574 . S
C188 H182 0.949 . S
C188 C192 1.368 . S
C189 C170 1.429 . S
C189 C183 1.429 . S
C189 C190 1.523 . S
C190 C171 1.368 . S
C190 C184 1.368 . S
C190 C189 1.523 . S
C191 C175 1.429 . S
C191 C187 1.429 . S
C191 C192 1.523 . S
C192 C176 1.368 . S
C192 C188 1.368 . S
C192 C191 1.523 . S
H193 C168 0.950 . S
H194 C170 0.950 . S
H195 C171 0.949 . S
H196 C173 0.950 . S
H197 C175 0.950 . S
C198 C199 1.349 . S
C198 C200 1.327 . S
C198 H223 0.950 . S
C199 C198 1.349 . S
C199 C215 1.349 . S
C200 C198 1.327 . S
C200 C219 1.429 . S
C200 H224 0.950 . S
C201 C218 1.574 . S
C201 C220 1.368 . S
C201 H225 0.949 . S
H202 C206 0.949 . S
C203 C204 1.349 . S
C203 C205 1.327 . S
C203 H226 0.950 . S
C204 C203 1.349 . S
C204 C216 1.349 . S
C205 C203 1.327 . S
C205 C221 1.429 . S
C205 H227 0.950 . S
C206 H202 0.949 . S
C206 C214 1.574 . S
C206 C222 1.368 . S
H207 C215 0.950 . S
H208 C213 0.950 . S
H209 C214 0.949 . S
H210 C216 0.950 . S
H211 C217 0.950 . S
H212 C218 0.949 . S
C213 H208 0.950 . S
C213 C215 1.327 . S
C213 C219 1.429 . S
C214 C206 1.574 . S
C214 H209 0.949 . S
C214 C220 1.368 . S
C215 C199 1.349 . S
C215 H207 0.950 . S
C215 C213 1.327 . S
C216 C204 1.349 . S
C216 H210 0.950 . S
C216 C217 1.327 . S
C217 H211 0.950 . S
C217 C216 1.327 . S
C217 C221 1.429 . S
C218 C201 1.574 . S
C218 H212 0.949 . S
C218 C222 1.368 . S
C219 C200 1.429 . S
C219 C213 1.429 . S
C219 C220 1.523 . S
C220 C201 1.368 . S
C220 C214 1.368 . S
C220 C219 1.523 . S
C221 C205 1.429 . S
C221 C217 1.429 . S
C221 C222 1.523 . S
C222 C206 1.368 . S
C222 C218 1.368 . S
C222 C221 1.523 . S
H223 C198 0.950 . S
H224 C200 0.950 . S
H225 C201 0.949 . S
H226 C203 0.950 . S
H227 C205 0.950 . S
C228 C229 1.349 . S
C228 C230 1.327 . S
C228 H253 0.950 . S
C229 C228 1.349 . S
C229 C245 1.349 . S
C230 C228 1.327 . S
C230 C249 1.429 . S
C230 H254 0.950 . S
C231 C248 1.574 . S
C231 C250 1.368 . S
C231 H255 0.949 . S
H232 C236 0.949 . S
C233 C234 1.349 . S
C233 C235 1.327 . S
C233 H256 0.950 . S
C234 C233 1.349 . S
C234 C246 1.349 . S
C235 C233 1.327 . S
C235 C251 1.429 . S
C235 H257 0.950 . S
C236 H232 0.949 . S
C236 C244 1.574 . S
C236 C252 1.368 . S
H237 C245 0.950 . S
H238 C243 0.950 . S
H239 C244 0.949 . S
H240 C246 0.950 . S
H241 C247 0.950 . S
H242 C248 0.949 . S
C243 H238 0.950 . S
C243 C245 1.327 . S
C243 C249 1.429 . S
C244 C236 1.574 . S
C244 H239 0.949 . S
C244 C250 1.368 . S
C245 C229 1.349 . S
C245 H237 0.950 . S
C245 C243 1.327 . S
C246 C234 1.349 . S
C246 H240 0.950 . S
C246 C247 1.327 . S
C247 H241 0.950 . S
C247 C246 1.327 . S
C247 C251 1.429 . S
C248 C231 1.574 . S
C248 H242 0.949 . S
C248 C252 1.368 . S
C249 C230 1.429 . S
C249 C243 1.429 . S
C249 C250 1.523 . S
C250 C231 1.368 . S
C250 C244 1.368 . S
C250 C249 1.523 . S
C251 C235 1.429 . S
C251 C247 1.429 . S
C251 C252 1.523 . S
C252 C236 1.368 . S
C252 C248 1.368 . S
C252 C251 1.523 . S
H253 C228 0.950 . S
H254 C230 0.950 . S
H255 C231 0.949 . S
H256 C233 0.950 . S
H257 C235 0.950 . S
C258 C259 1.349 . S
C258 C260 1.327 . S
C258 H283 0.950 . S
C259 C258 1.349 . S
C259 C275 1.349 . S
C260 C258 1.327 . S
C260 C279 1.429 . S
C260 H284 0.950 . S
C261 C278 1.574 1_566 S
C261 C280 1.368 . S
C261 H285 0.949 . S
H262 C266 0.949 . S
C263 C264 1.349 . S
C263 C265 1.327 . S
C263 H286 0.950 . S
C264 C263 1.349 . S
C264 C276 1.349 . S
C265 C263 1.327 . S
C265 C281 1.429 . S
C265 H287 0.950 . S
C266 H262 0.949 . S
C266 C274 1.574 1_544 S
C266 C282 1.368 . S
H267 C275 0.950 . S
H268 C273 0.950 . S
H269 C274 0.949 . S
H270 C276 0.950 . S
H271 C277 0.950 . S
H272 C278 0.949 . S
C273 H268 0.950 . S
C273 C275 1.327 . S
C273 C279 1.429 . S
C274 C266 1.574 1_566 S
C274 H269 0.949 . S
C274 C280 1.368 . S
C275 C259 1.349 . S
C275 H267 0.950 . S
C275 C273 1.327 . S
C276 C264 1.349 . S
C276 H270 0.950 . S
C276 C277 1.327 . S
C277 H271 0.950 . S
C277 C276 1.327 . S
C277 C281 1.429 . S
C278 C261 1.574 1_544 S
C278 H272 0.949 . S
C278 C282 1.368 . S
C279 C260 1.429 . S
C279 C273 1.429 . S
C279 C280 1.523 . S
C280 C261 1.368 . S
C280 C274 1.368 . S
C280 C279 1.523 . S
C281 C265 1.429 . S
C281 C277 1.429 . S
C281 C282 1.523 . S
C282 C266 1.368 . S
C282 C278 1.368 . S
C282 C281 1.523 . S
H283 C258 0.950 . S
H284 C260 0.950 . S
H285 C261 0.949 . S
H286 C263 0.950 . S
H287 C265 0.950 . S
C288 C289 1.349 . S
C288 C290 1.327 . S
C288 H313 0.950 . S
C289 C288 1.349 . S
C289 C305 1.349 . S
C290 C288 1.327 . S
C290 C309 1.429 . S
C290 H314 0.950 . S
C291 C308 1.574 . S
C291 C310 1.368 . S
C291 H315 0.949 . S
H292 C296 0.949 . S
C293 C294 1.349 . S
C293 C295 1.327 . S
C293 H316 0.950 . S
C294 C293 1.349 . S
C294 C306 1.349 . S
C295 C293 1.327 . S
C295 C311 1.429 . S
C295 H317 0.950 . S
C296 H292 0.949 . S
C296 C304 1.574 . S
C296 C312 1.368 . S
H297 C305 0.950 . S
H298 C303 0.950 . S
H299 C304 0.949 . S
H300 C306 0.950 . S
H301 C307 0.950 . S
H302 C308 0.949 . S
C303 H298 0.950 . S
C303 C305 1.327 . S
C303 C309 1.429 . S
C304 C296 1.574 . S
C304 H299 0.949 . S
C304 C310 1.368 . S
C305 C289 1.349 . S
C305 H297 0.950 . S
C305 C303 1.327 . S
C306 C294 1.349 . S
C306 H300 0.950 . S
C306 C307 1.327 . S
C307 H301 0.950 . S
C307 C306 1.327 . S
C307 C311 1.429 . S
C308 C291 1.574 . S
C308 H302 0.949 . S
C308 C312 1.368 . S
C309 C290 1.429 . S
C309 C303 1.429 . S
C309 C310 1.523 . S
C310 C291 1.368 . S
C310 C304 1.368 . S
C310 C309 1.523 . S
C311 C295 1.429 . S
C311 C307 1.429 . S
C311 C312 1.523 . S
C312 C296 1.368 . S
C312 C308 1.368 . S
C312 C311 1.523 . S
H313 C288 0.950 . S
H314 C290 0.950 . S
H315 C291 0.949 . S
H316 C293 0.950 . S
H317 C295 0.950 . S
C318 C319 1.349 . S
C318 C320 1.327 . S
C318 H343 0.950 . S
C319 C318 1.349 . S
C319 C335 1.349 . S
C320 C318 1.327 . S
C320 C339 1.429 . S
C320 H344 0.950 . S
C321 C338 1.574 1_456 S
C321 C340 1.368 . S
C321 H345 0.949 . S
H322 C326 0.949 . S
C323 C324 1.349 . S
C323 C325 1.327 . S
C323 H346 0.950 . S
C324 C323 1.349 . S
C324 C336 1.349 . S
C325 C323 1.327 . S
C325 C341 1.429 . S
C325 H347 0.950 . S
C326 H322 0.949 . S
C326 C334 1.574 1_654 S
C326 C342 1.368 . S
H327 C335 0.950 . S
H328 C333 0.950 . S
H329 C334 0.949 . S
H330 C336 0.950 . S
H331 C337 0.950 . S
H332 C338 0.949 . S
C333 H328 0.950 . S
C333 C335 1.327 . S
C333 C339 1.429 . S
C334 C326 1.574 1_456 S
C334 H329 0.949 . S
C334 C340 1.368 . S
C335 C319 1.349 . S
C335 H327 0.950 . S
C335 C333 1.327 . S
C336 C324 1.349 . S
C336 H330 0.950 . S
C336 C337 1.327 . S
C337 H331 0.950 . S
C337 C336 1.327 . S
C337 C341 1.429 . S
C338 C321 1.574 1_654 S
C338 H332 0.949 . S
C338 C342 1.368 . S
C339 C320 1.429 . S
C339 C333 1.429 . S
C339 C340 1.523 . S
C340 C321 1.368 . S
C340 C334 1.368 . S
C340 C339 1.523 . S
C341 C325 1.429 . S
C341 C337 1.429 . S
C341 C342 1.523 . S
C342 C326 1.368 . S
C342 C338 1.368 . S
C342 C341 1.523 . S
H343 C318 0.950 . S
H344 C320 0.950 . S
H345 C321 0.949 . S
H346 C323 0.950 . S
H347 C325 0.950 . S
C348 C349 1.349 . S
C348 C350 1.327 . S
C348 H373 0.950 . S
C349 C348 1.349 . S
C349 C365 1.349 . S
C350 C348 1.327 . S
C350 C369 1.429 . S
C350 H374 0.950 . S
C351 C368 1.574 1_545 S
C351 C370 1.368 . S
C351 H375 0.949 . S
H352 C356 0.949 . S
C353 C354 1.349 . S
C353 C355 1.327 . S
C353 H376 0.950 . S
C354 C353 1.349 . S
C354 C366 1.349 . S
C355 C353 1.327 . S
C355 C371 1.429 . S
C355 H377 0.950 . S
C356 H352 0.949 . S
C356 C364 1.574 1_565 S
C356 C372 1.368 . S
H357 C365 0.950 . S
H358 C363 0.950 . S
H359 C364 0.949 . S
H360 C366 0.950 . S
H361 C367 0.950 . S
H362 C368 0.949 . S
C363 H358 0.950 . S
C363 C365 1.327 . S
C363 C369 1.429 . S
C364 C356 1.574 1_545 S
C364 H359 0.949 . S
C364 C370 1.368 . S
C365 C349 1.349 . S
C365 H357 0.950 . S
C365 C363 1.327 . S
C366 C354 1.349 . S
C366 H360 0.950 . S
C366 C367 1.327 . S
C367 H361 0.950 . S
C367 C366 1.327 . S
C367 C371 1.429 . S
C368 C351 1.574 1_565 S
C368 H362 0.949 . S
C368 C372 1.368 . S
C369 C350 1.429 . S
C369 C363 1.429 . S
C369 C370 1.523 . S
C370 C351 1.368 . S
C370 C364 1.368 . S
C370 C369 1.523 . S
C371 C355 1.429 . S
C371 C367 1.429 . S
C371 C372 1.523 . S
C372 C356 1.368 . S
C372 C368 1.368 . S
C372 C371 1.523 . S
H373 C348 0.950 . S
H374 C350 0.950 . S
H375 C351 0.949 . S
H376 C353 0.950 . S
H377 C355 0.950 . S
C378 C379 1.349 . S
C378 C380 1.327 . S
C378 H403 0.950 . S
C379 C378 1.349 . S
C379 C395 1.349 . S
C380 C378 1.327 . S
C380 C399 1.429 . S
C380 H404 0.950 . S
C381 C398 1.574 . S
C381 C400 1.368 . S
C381 H405 0.949 . S
H382 C386 0.949 . S
C383 C384 1.349 . S
C383 C385 1.327 . S
C383 H406 0.950 . S
C384 C383 1.349 . S
C384 C396 1.349 . S
C385 C383 1.327 . S
C385 C401 1.429 . S
C385 H407 0.950 . S
C386 H382 0.949 . S
C386 C394 1.574 . S
C386 C402 1.368 . S
H387 C395 0.950 . S
H388 C393 0.950 . S
H389 C394 0.949 . S
H390 C396 0.950 . S
H391 C397 0.950 . S
H392 C398 0.949 . S
C393 H388 0.950 . S
C393 C395 1.327 . S
C393 C399 1.429 . S
C394 C386 1.574 . S
C394 H389 0.949 . S
C394 C400 1.368 1_554 S
C395 C379 1.349 . S
C395 H387 0.950 . S
C395 C393 1.327 . S
C396 C384 1.349 . S
C396 H390 0.950 . S
C396 C397 1.327 . S
C397 H391 0.950 . S
C397 C396 1.327 . S
C397 C401 1.429 . S
C398 C381 1.574 . S
C398 H392 0.949 . S
C398 C402 1.368 1_556 S
C399 C380 1.429 . S
C399 C393 1.429 . S
C399 C400 1.523 . S
C400 C381 1.368 . S
C400 C394 1.368 1_556 S
C400 C399 1.523 . S
C401 C385 1.429 . S
C401 C397 1.429 . S
C401 C402 1.523 . S
C402 C386 1.368 . S
C402 C398 1.368 1_554 S
C402 C401 1.523 . S
H403 C378 0.950 . S
H404 C380 0.950 . S
H405 C381 0.949 . S
H406 C383 0.950 . S
H407 C385 0.950 . S
C408 C409 1.349 . S
C408 C410 1.327 . S
C408 H433 0.950 . S
C409 C408 1.349 . S
C409 C425 1.349 . S
C410 C408 1.327 . S
C410 C429 1.429 . S
C410 H434 0.950 . S
C411 C428 1.574 . S
C411 C430 1.368 . S
C411 H435 0.949 . S
H412 C416 0.949 . S
C413 C414 1.349 . S
C413 C415 1.327 . S
C413 H436 0.950 . S
C414 C413 1.349 . S
C414 C426 1.349 . S
C415 C413 1.327 . S
C415 C431 1.429 . S
C415 H437 0.950 . S
C416 H412 0.949 . S
C416 C424 1.574 . S
C416 C432 1.368 . S
H417 C425 0.950 . S
H418 C423 0.950 . S
H419 C424 0.949 . S
H420 C426 0.950 . S
H421 C427 0.950 . S
H422 C428 0.949 . S
C423 H418 0.950 . S
C423 C425 1.327 . S
C423 C429 1.429 . S
C424 C416 1.574 . S
C424 H419 0.949 . S
C424 C430 1.368 1_655 S
C425 C409 1.349 . S
C425 H417 0.950 . S
C425 C423 1.327 . S
C426 C414 1.349 . S
C426 H420 0.950 . S
C426 C427 1.327 . S
C427 H421 0.950 . S
C427 C426 1.327 . S
C427 C431 1.429 . S
C428 C411 1.574 . S
C428 H422 0.949 . S
C428 C432 1.368 1_455 S
C429 C410 1.429 . S
C429 C423 1.429 . S
C429 C430 1.523 . S
C430 C411 1.368 . S
C430 C424 1.368 1_455 S
C430 C429 1.523 . S
C431 C415 1.429 . S
C431 C427 1.429 . S
C431 C432 1.523 . S
C432 C416 1.368 . S
C432 C428 1.368 1_655 S
C432 C431 1.523 . S
H433 C408 0.950 . S
H434 C410 0.950 . S
H435 C411 0.949 . S
H436 C413 0.950 . S
H437 C415 0.950 . S
C79 C3 1.014 . S
C84 C57 1.014 . S
C109 C16 1.015 . S
C114 C68 1.015 . S
C139 C5 1.014 . S
C144 C29 1.014 . S
C169 C44 1.014 . S
C174 C18 1.014 . S
C199 C55 1.015 . S
C204 C31 1.015 . S
C229 C42 1.014 . S
C234 C70 1.014 . S
C259 C49 1.408 . S
C264 C10 1.408 . S
C289 C56 1.408 . S
C294 C23 1.408 . S
C319 C75 1.408 . S
C324 C36 1.408 . S
C349 C4 1.408 . S
C354 C43 1.408 . S
C379 C17 1.408 . S
C384 C62 1.408 . S
C409 C69 1.408 . S
C414 C30 1.408 . S
