# Generated by pormake.
# Topology unb, (4)-cn, num edge types: 1
# Building blocks:
#     Node 0, Type 0, BuildingBlock: AZAVOO_clean_sbu_0, # of connection points: 4
#     Node 1, Type 0, BuildingBlock: AZAVOO_clean_sbu_0, # of connection points: 4
#     Node 2, Type 0, BuildingBlock: AZAVOO_clean_sbu_0, # of connection points: 4
#     Node 3, Type 0, BuildingBlock: AZAVOO_clean_sbu_0, # of connection points: 4
#     Node 4, Type 0, BuildingBlock: AZAVOO_clean_sbu_0, # of connection points: 4
#     Node 5, Type 0, BuildingBlock: AZAVOO_clean_sbu_0, # of connection points: 4
#     Node 6, Type 0, BuildingBlock: AZAVOO_clean_sbu_0, # of connection points: 4
#     Node 7, Type 0, BuildingBlock: AZAVOO_clean_sbu_0, # of connection points: 4
#     Node 8, Type 0, BuildingBlock: AZAVOO_clean_sbu_0, # of connection points: 4
#     Node 9, Type 0, BuildingBlock: AZAVOO_clean_sbu_0, # of connection points: 4
#     Node 10, Type 0, BuildingBlock: AZAVOO_clean_sbu_0, # of connection points: 4
#     Node 11, Type 0, BuildingBlock: AZAVOO_clean_sbu_0, # of connection points: 4
#     Node 12, Type 0, BuildingBlock: AZAVOO_clean_sbu_0, # of connection points: 4
#     Node 13, Type 0, BuildingBlock: AZAVOO_clean_sbu_0, # of connection points: 4
#     Node 14, Type 0, BuildingBlock: AZAVOO_clean_sbu_0, # of connection points: 4
#     Node 15, Type 0, BuildingBlock: AZAVOO_clean_sbu_0, # of connection points: 4
#     Node 16, Type 0, BuildingBlock: AZAVOO_clean_sbu_0, # of connection points: 4
#     Node 17, Type 0, BuildingBlock: AZAVOO_clean_sbu_0, # of connection points: 4
#     Edge 18, Type (0, 0), BuildingBlock: XIVTED_clean_linker_0, # of connection points: 2
#     Edge 19, Type (0, 0), BuildingBlock: XIVTED_clean_linker_0, # of connection points: 2
#     Edge 20, Type (0, 0), BuildingBlock: XIVTED_clean_linker_0, # of connection points: 2
#     Edge 21, Type (0, 0), BuildingBlock: XIVTED_clean_linker_0, # of connection points: 2
#     Edge 22, Type (0, 0), BuildingBlock: XIVTED_clean_linker_0, # of connection points: 2
#     Edge 23, Type (0, 0), BuildingBlock: XIVTED_clean_linker_0, # of connection points: 2
#     Edge 24, Type (0, 0), BuildingBlock: XIVTED_clean_linker_0, # of connection points: 2
#     Edge 25, Type (0, 0), BuildingBlock: XIVTED_clean_linker_0, # of connection points: 2
#     Edge 26, Type (0, 0), BuildingBlock: XIVTED_clean_linker_0, # of connection points: 2
#     Edge 27, Type (0, 0), BuildingBlock: XIVTED_clean_linker_0, # of connection points: 2
#     Edge 28, Type (0, 0), BuildingBlock: XIVTED_clean_linker_0, # of connection points: 2
#     Edge 29, Type (0, 0), BuildingBlock: XIVTED_clean_linker_0, # of connection points: 2
#     Edge 30, Type (0, 0), BuildingBlock: XIVTED_clean_linker_0, # of connection points: 2
#     Edge 31, Type (0, 0), BuildingBlock: XIVTED_clean_linker_0, # of connection points: 2
#     Edge 32, Type (0, 0), BuildingBlock: XIVTED_clean_linker_0, # of connection points: 2
#     Edge 33, Type (0, 0), BuildingBlock: XIVTED_clean_linker_0, # of connection points: 2
#     Edge 34, Type (0, 0), BuildingBlock: XIVTED_clean_linker_0, # of connection points: 2
#     Edge 35, Type (0, 0), BuildingBlock: XIVTED_clean_linker_0, # of connection points: 2
#     Edge 36, Type (0, 0), BuildingBlock: XIVTED_clean_linker_0, # of connection points: 2
#     Edge 37, Type (0, 0), BuildingBlock: XIVTED_clean_linker_0, # of connection points: 2
#     Edge 38, Type (0, 0), BuildingBlock: XIVTED_clean_linker_0, # of connection points: 2
#     Edge 39, Type (0, 0), BuildingBlock: XIVTED_clean_linker_0, # of connection points: 2
#     Edge 40, Type (0, 0), BuildingBlock: XIVTED_clean_linker_0, # of connection points: 2
#     Edge 41, Type (0, 0), BuildingBlock: XIVTED_clean_linker_0, # of connection points: 2
#     Edge 42, Type (0, 0), BuildingBlock: XIVTED_clean_linker_0, # of connection points: 2
#     Edge 43, Type (0, 0), BuildingBlock: XIVTED_clean_linker_0, # of connection points: 2
#     Edge 44, Type (0, 0), BuildingBlock: XIVTED_clean_linker_0, # of connection points: 2
#     Edge 45, Type (0, 0), BuildingBlock: XIVTED_clean_linker_0, # of connection points: 2
#     Edge 46, Type (0, 0), BuildingBlock: XIVTED_clean_linker_0, # of connection points: 2
#     Edge 47, Type (0, 0), BuildingBlock: XIVTED_clean_linker_0, # of connection points: 2
#     Edge 48, Type (0, 0), BuildingBlock: XIVTED_clean_linker_0, # of connection points: 2
#     Edge 49, Type (0, 0), BuildingBlock: XIVTED_clean_linker_0, # of connection points: 2
#     Edge 50, Type (0, 0), BuildingBlock: XIVTED_clean_linker_0, # of connection points: 2
#     Edge 51, Type (0, 0), BuildingBlock: XIVTED_clean_linker_0, # of connection points: 2
#     Edge 52, Type (0, 0), BuildingBlock: XIVTED_clean_linker_0, # of connection points: 2
#     Edge 53, Type (0, 0), BuildingBlock: XIVTED_clean_linker_0, # of connection points: 2
# Relax obj value: 0.015
# Max RMSD: 0.022
# Mean RMSD: 0.022
data_MOF--net-unb--node1-AZAVOO_clean_sbu_0--edge1-XIVTED_clean_linker_0
_symmetry_space_group_name_H-M    P1
_symmetry_Int_Tables_number       1
_symmetry_cell_setting            triclinic
loop_
_symmetry_equiv_pos_as_xyz
'x, y, z'
_cell_length_a     68.616016
_cell_length_b     68.554422
_cell_length_c     23.598935
_cell_angle_alpha  90.044811
_cell_angle_beta   89.933278
_cell_angle_gamma 120.01877
loop_
_atom_site_label
_atom_site_type_symbol
_atom_site_fract_x
_atom_site_fract_y
_atom_site_fract_z
_atom_type_partial_charge
Mg0 Mg 0.11689 0.23688 0.10132 0.0
O1 O 0.12048 0.26461 0.0403 0.0
O2 O 0.09177 0.27047 0.05695 0.0
Mg3 Mg 0.06972 0.24656 0.12747 0.0
C4 C 0.10969 0.27492 0.03001 0.0
C5 C 0.16333 0.24006 0.11409 0.0
O6 O 0.15583 0.23545 0.16643 0.0
O7 O 0.12974 0.2621 0.1753 0.0
O8 O 0.09858 0.26411 0.1907 0.0
O9 O 0.09389 0.21003 0.0398 0.0
O10 O 0.08233 0.22378 0.10814 0.0
C11 C 0.11855 0.26898 0.20418 0.0
C12 C 0.07746 0.21043 0.06573 0.0
O13 O 0.15182 0.24345 0.07736 0.0
Mg14 Mg 0.76529 0.88271 0.09298 0.0
O15 O 0.74135 0.86097 0.02097 0.0
O16 O 0.73454 0.82567 0.03179 0.0
Mg17 Mg 0.75247 0.82416 0.11145 0.0
C18 C 0.73199 0.8404 0.00491 0.0
C19 C 0.76176 0.91809 0.01794 0.0
O20 O 0.76383 0.90551 0.97908 0.0
O21 O 0.73541 0.86807 0.15464 0.0
O22 O 0.72973 0.83308 0.16251 0.0
O23 O 0.79566 0.88879 0.04253 0.0
O24 O 0.77676 0.85986 0.0999 0.0
C25 C 0.7247 0.84815 0.17506 0.0
C26 C 0.79244 0.86989 0.0629 0.0
O27 O 0.76073 0.91257 0.06976 0.0
Mg28 Mg 0.12835 0.88575 0.09229 0.0
O29 O 0.15012 0.87887 0.03043 0.0
O30 O 0.18569 0.90651 0.0413 0.0
Mg31 Mg 0.18673 0.93108 0.10892 0.0
C32 C 0.17097 0.8883 0.01752 0.0
C33 C 0.0918 0.84398 0.02666 0.0
O34 O 0.10423 0.85618 0.98399 0.0
O35 O 0.14098 0.87361 0.16656 0.0
O36 O 0.17546 0.90357 0.17657 0.0
O37 O 0.12458 0.90788 0.02805 0.0
O38 O 0.1514 0.92007 0.09252 0.0
C39 C 0.15971 0.8843 0.19293 0.0
C40 C 0.14247 0.92444 0.05023 0.0
O41 O 0.09819 0.8509 0.07689 0.0
Mg42 Mg 0.23991 0.12574 0.89854 0.0
O43 O 0.26448 0.12862 0.96888 0.0
O44 O 0.27436 0.10245 0.95456 0.0
Mg45 Mg 0.25581 0.0825 0.87565 0.0
C46 C 0.27552 0.11891 0.98268 0.0
C47 C 0.24098 0.16206 0.97885 0.0
O48 O 0.2393 0.14677 0.01515 0.0
O49 O 0.26941 0.1429 0.83583 0.0
O50 O 0.27706 0.11492 0.82582 0.0
O51 O 0.21106 0.09999 0.94981 0.0
O52 O 0.2298 0.09179 0.88708 0.0
C53 C 0.28096 0.13477 0.81442 0.0
C54 C 0.21446 0.08504 0.92543 0.0
O55 O 0.24274 0.15902 0.92633 0.0
Mg56 Mg 0.87625 0.11975 0.91994 0.0
O57 O 0.87301 0.14192 0.98855 0.0
O58 O 0.90202 0.17684 0.9779 0.0
Mg59 Mg 0.92342 0.17736 0.90283 0.0
C60 C 0.88408 0.1626 0.0035 0.0
C61 C 0.83075 0.07598 0.90339 0.0
O62 O 0.83866 0.08014 0.85137 0.0
O63 O 0.86295 0.13442 0.85272 0.0
O64 O 0.89371 0.16837 0.84394 0.0
O65 O 0.89947 0.11392 0.97565 0.0
O66 O 0.9108 0.14143 0.9133 0.0
C67 C 0.8737 0.1538 0.82918 0.0
C68 C 0.91581 0.13158 0.95203 0.0
O69 O 0.84153 0.09044 0.94173 0.0
Mg70 Mg 0.89201 0.76985 0.89079 0.0
O71 O 0.87125 0.74144 0.95411 0.0
O72 O 0.83492 0.72862 0.93444 0.0
Mg73 Mg 0.83254 0.75142 0.86711 0.0
C74 C 0.85034 0.72774 0.96257 0.0
C75 C 0.92965 0.76691 0.95909 0.0
O76 O 0.91678 0.76582 0.00163 0.0
O77 O 0.88185 0.74441 0.818 0.0
O78 O 0.84712 0.73818 0.80046 0.0
O79 O 0.89378 0.79593 0.95148 0.0
O80 O 0.86669 0.77819 0.88888 0.0
C81 C 0.86399 0.73593 0.788 0.0
C82 C 0.87492 0.79236 0.93 0.0
O83 O 0.92353 0.76779 0.90881 0.0
Mg84 Mg 0.78839 0.58814 0.38856 0.0
O85 O 0.79571 0.61156 0.31158 0.0
O86 O 0.77522 0.62847 0.32319 0.0
Mg87 Mg 0.753 0.61398 0.40143 0.0
C88 C 0.78963 0.62555 0.29586 0.0
C89 C 0.8293 0.5812 0.40803 0.0
O90 O 0.82275 0.5807 0.46062 0.0
O91 O 0.80888 0.61863 0.44551 0.0
O92 O 0.78536 0.63219 0.45376 0.0
O93 O 0.76027 0.55921 0.34325 0.0
O94 O 0.75611 0.58369 0.39516 0.0
C95 C 0.80385 0.63284 0.46557 0.0
C96 C 0.74726 0.56634 0.36238 0.0
O97 O 0.81904 0.58488 0.36839 0.0
Mg98 Mg 0.42179 0.20465 0.39338 0.0
O99 O 0.3953 0.1873 0.32327 0.0
O100 O 0.37984 0.15015 0.33763 0.0
Mg101 Mg 0.39944 0.14395 0.407 0.0
C102 C 0.38092 0.16689 0.31107 0.0
C103 C 0.42748 0.25114 0.42115 0.0
O104 O 0.42986 0.2443 0.47133 0.0
O105 O 0.39417 0.19373 0.4608 0.0
O106 O 0.38524 0.15785 0.47317 0.0
O107 O 0.44919 0.20668 0.33755 0.0
O108 O 0.42804 0.17791 0.39327 0.0
C109 C 0.38376 0.17504 0.48742 0.0
C110 C 0.44381 0.18683 0.35599 0.0
O111 O 0.42282 0.23795 0.37908 0.0
Mg112 Mg 0.78961 0.21352 0.4132 0.0
O113 O 0.81083 0.21011 0.34198 0.0
O114 O 0.84611 0.23859 0.35164 0.0
Mg115 Mg 0.84789 0.25918 0.42967 0.0
C116 C 0.83137 0.22098 0.32578 0.0
C117 C 0.7456 0.16868 0.43102 0.0
O118 O 0.75039 0.17682 0.48277 0.0
O119 O 0.80395 0.19877 0.4768 0.0
O120 O 0.83887 0.22818 0.48428 0.0
O121 O 0.78424 0.2376 0.36025 0.0
O122 O 0.81216 0.2479 0.42093 0.0
C123 C 0.82373 0.20821 0.49795 0.0
C124 C 0.80238 0.2535 0.38323 0.0
O125 O 0.75962 0.17924 0.39164 0.0
Mg126 Mg 0.89742 0.45447 0.22396 0.0
O127 O 0.92716 0.4612 0.28104 0.0
O128 O 0.93686 0.43531 0.26162 0.0
Mg129 Mg 0.91325 0.41192 0.19223 0.0
C130 C 0.9396 0.45252 0.28933 0.0
C131 C 0.90103 0.49304 0.30067 0.0
O132 O 0.9008 0.47914 0.33934 0.0
O133 O 0.92113 0.4696 0.14794 0.0
O134 O 0.9271 0.44102 0.12854 0.0
O135 O 0.87307 0.42985 0.28753 0.0
O136 O 0.88777 0.42058 0.21652 0.0
C137 C 0.9294 0.46027 0.1168 0.0
C138 C 0.87511 0.41451 0.26057 0.0
O139 O 0.90097 0.48819 0.24865 0.0
Mg140 Mg 0.54011 0.45597 0.26749 0.0
O141 O 0.53171 0.47309 0.3402 0.0
O142 O 0.55058 0.51023 0.3236 0.0
Mg143 Mg 0.57247 0.51701 0.24519 0.0
C144 C 0.53683 0.49322 0.35291 0.0
C145 C 0.50738 0.41478 0.34182 0.0
O146 O 0.52097 0.42811 0.38143 0.0
O147 O 0.51859 0.46285 0.20663 0.0
O148 O 0.53978 0.50009 0.19321 0.0
O149 O 0.56893 0.45806 0.31548 0.0
O150 O 0.5716 0.48473 0.25804 0.0
C151 C 0.52211 0.48115 0.18361 0.0
C152 C 0.58117 0.47784 0.29336 0.0
O153 O 0.51044 0.42171 0.29089 0.0
Mg154 Mg 0.5471 0.08387 0.24399 0.0
O155 O 0.52752 0.06023 0.31877 0.0
O156 O 0.49084 0.04739 0.30472 0.0
Mg157 Mg 0.48663 0.06087 0.22018 0.0
C158 C 0.50695 0.04853 0.3343 0.0
C159 C 0.58562 0.08843 0.3232 0.0
O160 O 0.57205 0.08936 0.36105 0.0
O161 O 0.53748 0.05333 0.18754 0.0
O162 O 0.50076 0.04087 0.17557 0.0
O163 O 0.54795 0.11338 0.28723 0.0
O164 O 0.52052 0.08994 0.2308 0.0
C165 C 0.51833 0.03936 0.16667 0.0
C166 C 0.52849 0.10695 0.26461 0.0
O167 O 0.57974 0.08544 0.27141 0.0
Mg168 Mg 0.46026 0.90423 0.73761 0.0
O169 O 0.46542 0.93276 0.67764 0.0
O170 O 0.44126 0.94402 0.70317 0.0
Mg171 Mg 0.41977 0.92199 0.7769 0.0
C172 C 0.45708 0.94561 0.67144 0.0
C173 C 0.50633 0.9049 0.73798 0.0
O174 O 0.50224 0.90263 0.7927 0.0
O175 O 0.47818 0.92956 0.80945 0.0
O176 O 0.45033 0.93577 0.83546 0.0
O177 O 0.43338 0.87813 0.6813 0.0
O178 O 0.42672 0.89534 0.75112 0.0
C179 C 0.46982 0.93811 0.84291 0.0
C180 C 0.41905 0.88124 0.70983 0.0
O181 O 0.49274 0.9069 0.70526 0.0
Mg182 Mg 0.07585 0.54361 0.71905 0.0
O183 O 0.05439 0.52477 0.6402 0.0
O184 O 0.04263 0.48817 0.6523 0.0
Mg185 Mg 0.05415 0.48308 0.73846 0.0
C186 C 0.04377 0.50433 0.62294 0.0
C187 C 0.08258 0.58378 0.64221 0.0
O188 O 0.08474 0.57113 0.60373 0.0
O189 O 0.04373 0.53234 0.77073 0.0
O190 O 0.0323 0.49566 0.77997 0.0
O191 O 0.10679 0.54561 0.68078 0.0
O192 O 0.08255 0.51757 0.73433 0.0
C193 C 0.02978 0.51265 0.78899 0.0
C194 C 0.10047 0.5262 0.70376 0.0
O195 O 0.07767 0.57653 0.69276 0.0
Mg196 Mg 0.44412 0.54246 0.7705 0.0
O197 O 0.46303 0.53479 0.70114 0.0
O198 O 0.49983 0.55431 0.72119 0.0
Mg199 Mg 0.50465 0.57585 0.79927 0.0
C200 C 0.48343 0.54035 0.69056 0.0
C201 C 0.40547 0.50885 0.69118 0.0
O202 O 0.41976 0.52253 0.65314 0.0
O203 O 0.45041 0.52123 0.83403 0.0
O204 O 0.48728 0.54321 0.8511 0.0
O205 O 0.44656 0.57115 0.72068 0.0
O206 O 0.47229 0.57427 0.782 0.0
C207 C 0.46845 0.52526 0.85935 0.0
C208 C 0.46588 0.58362 0.74472 0.0
O209 O 0.41079 0.51227 0.7433 0.0
Mg210 Mg 0.58529 0.78517 0.60082 0.0
O211 O 0.61257 0.79074 0.66567 0.0
O212 O 0.62107 0.76356 0.65229 0.0
Mg213 Mg 0.59891 0.74021 0.58141 0.0
C214 C 0.6239 0.78117 0.67817 0.0
C215 C 0.58397 0.82958 0.58543 0.0
O216 O 0.5772 0.82066 0.53491 0.0
O217 O 0.61164 0.79882 0.52993 0.0
O218 O 0.61609 0.76895 0.5173 0.0
O219 O 0.55774 0.76222 0.66023 0.0
O220 O 0.57438 0.75083 0.59923 0.0
C221 C 0.61999 0.78855 0.50295 0.0
C222 C 0.56018 0.74605 0.6398 0.0
O223 O 0.58995 0.81966 0.62091 0.0
Mg224 Mg 0.2144 0.79182 0.59517 0.0
O225 O 0.21157 0.81086 0.67354 0.0
O226 O 0.23956 0.84658 0.66521 0.0
Mg227 Mg 0.25931 0.85098 0.58408 0.0
C228 C 0.22264 0.83116 0.69185 0.0
C229 C 0.17075 0.74759 0.57164 0.0
O230 O 0.17975 0.75384 0.521 0.0
O231 O 0.1987 0.80764 0.5395 0.0
O232 O 0.22765 0.84292 0.53383 0.0
O233 O 0.23934 0.78483 0.63936 0.0
O234 O 0.24841 0.81528 0.58874 0.0
C235 C 0.20757 0.82784 0.52111 0.0
C236 C 0.25464 0.80435 0.62107 0.0
O237 O 0.18042 0.76067 0.61332 0.0
Mg238 Mg 0.19769 0.41644 0.60731 0.0
O239 O 0.17946 0.3939 0.68499 0.0
O240 O 0.1429 0.38278 0.67592 0.0
Mg241 Mg 0.13746 0.397 0.59401 0.0
C242 C 0.15913 0.38301 0.70293 0.0
C243 C 0.24444 0.42185 0.58876 0.0
O244 O 0.23912 0.42502 0.53745 0.0
O245 O 0.18476 0.38514 0.55167 0.0
O246 O 0.14845 0.37527 0.54467 0.0
O247 O 0.20192 0.44736 0.65096 0.0
O248 O 0.17232 0.42445 0.59955 0.0
C249 C 0.16493 0.37224 0.53279 0.0
C250 C 0.18217 0.44187 0.63179 0.0
O251 O 0.23 0.41645 0.62814 0.0
H252 H 0.12579 0.33298 0.5194 0.0
H253 H 0.16314 0.29656 0.23535 0.0
H254 H 0.19397 0.3695 0.45669 0.0
H255 H 0.09492 0.27042 0.294 0.0
H256 H 0.17673 0.31935 0.32268 0.0
H257 H 0.11641 0.30515 0.44516 0.0
C258 C 0.13887 0.33501 0.49015 0.0
C259 C 0.16057 0.35373 0.49358 0.0
C260 C 0.15882 0.30845 0.3163 0.0
C261 C 0.14985 0.32209 0.40728 0.0
C262 C 0.15109 0.29548 0.26667 0.0
C263 C 0.12788 0.2819 0.25703 0.0
C264 C 0.14315 0.30741 0.35646 0.0
C265 C 0.11295 0.28097 0.29899 0.0
C266 C 0.13351 0.31913 0.44759 0.0
C267 C 0.17697 0.35532 0.45517 0.0
N268 N 0.12083 0.29356 0.3465 0.0
N269 N 0.17118 0.33986 0.4128 0.0
H270 H 0.62786 0.7666 0.41864 0.0
H271 H 0.71836 0.87504 0.25161 0.0
H272 H 0.64288 0.83326 0.46911 0.0
H273 H 0.689 0.80657 0.19179 0.0
H274 H 0.69055 0.86169 0.32925 0.0
H275 H 0.65042 0.78226 0.33445 0.0
C276 C 0.636 0.78464 0.4121 0.0
C277 C 0.63364 0.79866 0.45141 0.0
C278 C 0.69006 0.84973 0.2985 0.0
C279 C 0.65975 0.81692 0.35397 0.0
C280 C 0.70582 0.85733 0.25417 0.0
C281 C 0.70619 0.8418 0.21593 0.0
C282 C 0.67473 0.82654 0.30406 0.0
C283 C 0.68963 0.81907 0.221 0.0
C284 C 0.64881 0.7936 0.36355 0.0
C285 C 0.64435 0.82188 0.43991 0.0
N286 N 0.67479 0.81215 0.26444 0.0
N287 N 0.6572 0.83038 0.39234 0.0
H288 H 0.17282 0.80062 0.44892 0.0
H289 H 0.18935 0.90754 0.27653 0.0
H290 H 0.21437 0.86975 0.50188 0.0
H291 H 0.13841 0.84007 0.23 0.0
H292 H 0.1969 0.89295 0.36183 0.0
H293 H 0.15757 0.81344 0.37233 0.0
C294 C 0.1784 0.8184 0.44511 0.0
C295 C 0.19516 0.83421 0.48115 0.0
C296 C 0.18396 0.88122 0.33336 0.0
C297 C 0.17803 0.84888 0.39399 0.0
C298 C 0.17973 0.88956 0.28423 0.0
C299 C 0.1634 0.87498 0.24565 0.0
C300 C 0.17203 0.85797 0.34416 0.0
C301 C 0.15123 0.85188 0.25858 0.0
C302 C 0.16978 0.8257 0.40133 0.0
C303 C 0.2018 0.85701 0.47444 0.0
N304 N 0.15597 0.844 0.3066 0.0
N305 N 0.19339 0.86363 0.43148 0.0
H306 H 0.37706 0.14808 0.57719 0.0
H307 H 0.28345 0.1637 0.72959 0.0
H308 H 0.36134 0.19791 0.51577 0.0
H309 H 0.32042 0.13538 0.80824 0.0
H310 H 0.31135 0.17806 0.65198 0.0
H311 H 0.35529 0.14361 0.66181 0.0
C312 C 0.36893 0.15809 0.58152 0.0
C313 C 0.37081 0.17322 0.53911 0.0
C314 C 0.31353 0.16913 0.68698 0.0
C315 C 0.34564 0.16816 0.63671 0.0
C316 C 0.29773 0.16105 0.73123 0.0
C317 C 0.29951 0.14802 0.7746 0.0
C318 C 0.33098 0.16398 0.68669 0.0
C319 C 0.31821 0.14496 0.77494 0.0
C320 C 0.35663 0.15568 0.63024 0.0
C321 C 0.36021 0.186 0.54755 0.0
N322 N 0.333 0.15261 0.73137 0.0
N323 N 0.34773 0.18296 0.59526 0.0
H324 H 0.86566 0.21811 0.52926 0.0
H325 H 0.83156 0.12868 0.77929 0.0
H326 H 0.79558 0.17173 0.56533 0.0
H327 H 0.89348 0.19258 0.76838 0.0
H328 H 0.81778 0.13924 0.69465 0.0
H329 H 0.87619 0.20271 0.60796 0.0
C330 C 0.85242 0.20458 0.55367 0.0
C331 C 0.82968 0.1965 0.54129 0.0
C332 C 0.83432 0.15083 0.7113 0.0
C333 C 0.84174 0.1788 0.63244 0.0
C334 C 0.84218 0.14487 0.75948 0.0
C335 C 0.86378 0.15969 0.78099 0.0
C336 C 0.84835 0.17152 0.68444 0.0
C337 C 0.8768 0.18046 0.75361 0.0
C338 C 0.85848 0.19581 0.59882 0.0
C339 C 0.81333 0.17856 0.57381 0.0
N340 N 0.86894 0.18562 0.70686 0.0
N341 N 0.81967 0.17039 0.61853 0.0
H342 H 0.85271 0.74495 0.68673 0.0
H343 H 0.83346 0.63148 0.54205 0.0
H344 H 0.87222 0.70106 0.76799 0.0
H345 H 0.8094 0.67454 0.47807 0.0
H346 H 0.85461 0.65971 0.61577 0.0
H347 H 0.84445 0.72288 0.60038 0.0
C348 C 0.85549 0.73072 0.68592 0.0
C349 C 0.86286 0.72456 0.73435 0.0
C350 C 0.84496 0.66306 0.58498 0.0
C351 C 0.85281 0.6987 0.63613 0.0
C352 C 0.83299 0.64703 0.5429 0.0
C353 C 0.81941 0.65059 0.50466 0.0
C354 C 0.84344 0.68273 0.58799 0.0
C355 C 0.81933 0.67095 0.50739 0.0
C356 C 0.85074 0.71807 0.63668 0.0
C357 C 0.86647 0.70619 0.73124 0.0
N358 N 0.831 0.68612 0.54851 0.0
N359 N 0.86097 0.69354 0.68304 0.0
H360 H 0.95555 0.50557 0.09139 0.0
H361 H 0.98808 0.47605 0.79069 0.0
H362 H 0.92911 0.43906 0.02027 0.0
H363 H 0.02865 0.5406 0.87096 0.0
H364 H 0.95982 0.46585 0.86449 0.0
H365 H 0.97679 0.52164 0.0028 0.0
C366 C 0.95402 0.49443 0.05696 0.0
C367 C 0.94092 0.47097 0.06332 0.0
C368 C 0.97474 0.48239 0.86577 0.0
C369 C 0.96457 0.48906 0.96252 0.0
C370 C 0.99081 0.48824 0.82347 0.0
C371 C 0.01081 0.50902 0.8254 0.0
C372 C 0.97886 0.49723 0.91113 0.0
C373 C 0.01343 0.52435 0.86831 0.0
C374 C 0.9661 0.50357 0.00665 0.0
C375 C 0.93937 0.45722 0.01758 0.0
N376 N 0.9978 0.51796 0.91042 0.0
N377 N 0.95108 0.46646 0.96939 0.0
H378 H 0.50416 0.50849 0.17834 0.0
H379 H 0.49059 0.50178 0.86012 0.0
H380 H 0.50463 0.45316 0.09279 0.0
H381 H 0.44586 0.51529 0.95907 0.0
H382 H 0.49636 0.48361 0.94293 0.0
H383 H 0.48302 0.51187 0.09897 0.0
C384 C 0.49937 0.49678 0.14323 0.0
C385 C 0.50607 0.48058 0.14163 0.0
C386 C 0.48475 0.48994 0.94599 0.0
C387 C 0.48266 0.48474 0.05062 0.0
C388 C 0.4815 0.50027 0.89895 0.0
C389 C 0.46767 0.50981 0.90324 0.0
C390 C 0.47482 0.49007 0.99789 0.0
C391 C 0.45648 0.50787 0.95439 0.0
C392 C 0.48726 0.49863 0.09825 0.0
C393 C 0.49961 0.4658 0.09535 0.0
N394 N 0.46077 0.49872 0.00044 0.0
N395 N 0.48874 0.46862 0.05072 0.0
H396 H 0.54852 0.04078 0.08773 0.0
H397 H 0.45245 0.92747 0.9475 0.0
H398 H 0.48265 0.99721 0.15814 0.0
H399 H 0.51309 0.97345 0.85809 0.0
H400 H 0.46824 0.94868 0.0343 0.0
H401 H 0.54052 0.01269 0.01287 0.0
C402 C 0.53263 0.02507 0.08819 0.0
C403 C 0.51606 0.02134 0.12849 0.0
C404 C 0.47832 0.95412 0.99606 0.0
C405 C 0.50687 0.98942 0.04377 0.0
C406 C 0.4693 0.94197 0.94655 0.0
C407 C 0.48142 0.94899 0.8958 0.0
C408 C 0.49946 0.97383 0.99467 0.0
C409 C 0.50325 0.96767 0.89664 0.0
C410 C 0.52804 0.00916 0.04541 0.0
C411 C 0.49574 0.00085 0.1273 0.0
N412 N 0.51148 0.97981 0.94532 0.0
N413 N 0.49167 0.98578 0.08541 0.0
H414 H 0.08942 0.29778 0.98906 0.0
H415 H 0.18551 0.3698 0.76075 0.0
H416 H 0.14887 0.29202 0.96796 0.0
H417 H 0.12023 0.36477 0.7646 0.0
H418 H 0.17456 0.34473 0.84327 0.0
H419 H 0.10264 0.32565 0.91332 0.0
C420 C 0.1053 0.30239 0.96868 0.0
C421 C 0.11797 0.29238 0.98491 0.0
C422 C 0.16271 0.34922 0.82609 0.0
C423 C 0.13327 0.32447 0.89775 0.0
C424 C 0.16898 0.36362 0.77917 0.0
C425 C 0.15373 0.36933 0.7554 0.0
C426 C 0.14112 0.34065 0.84968 0.0
C427 C 0.1325 0.36073 0.78105 0.0
C428 C 0.11283 0.31833 0.92527 0.0
C429 C 0.13846 0.29917 0.95676 0.0
N430 N 0.12685 0.34684 0.82659 0.0
N431 N 0.14546 0.31477 0.91454 0.0
H432 H 0.64805 0.76323 0.72435 0.0
H433 H 0.71568 0.86371 0.94511 0.0
H434 H 0.63827 0.8206 0.73766 0.0
H435 H 0.71469 0.80023 0.94891 0.0
H436 H 0.69007 0.85011 0.86371 0.0
H437 H 0.67526 0.77849 0.8013 0.0
C438 C 0.65163 0.77907 0.74332 0.0
C439 C 0.64073 0.79058 0.72447 0.0
C440 C 0.69552 0.83922 0.88242 0.0
C441 C 0.67204 0.80822 0.81298 0.0
C442 C 0.7102 0.84699 0.92875 0.0
C443 C 0.71729 0.83307 0.95417 0.0
C444 C 0.68806 0.81746 0.8611 0.0
C445 C 0.70959 0.81154 0.93109 0.0
C446 C 0.66718 0.78777 0.78743 0.0
C447 C 0.64616 0.81108 0.7509 0.0
N448 N 0.69543 0.80443 0.88601 0.0
N449 N 0.66144 0.81925 0.79381 0.0
H450 H 0.14532 0.84899 0.95784 0.0
H451 H 0.24723 0.86875 0.75598 0.0
H452 H 0.21347 0.90423 0.97517 0.0
H453 H 0.18186 0.80866 0.74779 0.0
H454 H 0.23485 0.88126 0.83775 0.0
H455 H 0.15796 0.83338 0.88226 0.0
C456 C 0.16294 0.85782 0.94598 0.0
C457 C 0.17832 0.87807 0.9729 0.0
C458 C 0.22319 0.86527 0.81844 0.0
C459 C 0.19285 0.86024 0.88631 0.0
C460 C 0.23025 0.85809 0.77153 0.0
C461 C 0.21552 0.83766 0.74458 0.0
C462 C 0.20111 0.85208 0.83867 0.0
C463 C 0.19379 0.82453 0.7672 0.0
C464 C 0.17013 0.84885 0.90287 0.0
C465 C 0.20094 0.88866 0.95571 0.0
N466 N 0.18716 0.83206 0.81267 0.0
N467 N 0.20745 0.87969 0.91347 0.0
H468 H 0.39057 0.186 0.20598 0.0
H469 H 0.26739 0.13104 0.08655 0.0
H470 H 0.3359 0.13697 0.30846 0.0
H471 H 0.31821 0.12624 0.9899 0.0
H472 H 0.29309 0.14434 0.1686 0.0
H473 H 0.36461 0.17546 0.1249 0.0
C474 C 0.37304 0.1733 0.21152 0.0
C475 C 0.36527 0.16224 0.2636 0.0
C476 C 0.29852 0.14046 0.12918 0.0
C477 C 0.33572 0.15065 0.17233 0.0
C478 C 0.284 0.13296 0.0826 0.0
C479 C 0.29074 0.12741 0.03186 0.0
C480 C 0.3201 0.14316 0.12394 0.0
C481 C 0.31238 0.13015 0.02862 0.0
C482 C 0.35837 0.16726 0.16544 0.0
C483 C 0.34248 0.14575 0.26874 0.0
N484 N 0.32644 0.13807 0.07396 0.0
N485 N 0.32839 0.14054 0.22368 0.0
H486 H 0.84421 0.13925 0.06242 0.0
H487 H 0.87211 0.24203 0.27155 0.0
H488 H 0.90486 0.20422 0.05364 0.0
H489 H 0.80745 0.18088 0.26798 0.0
H490 H 0.88458 0.22768 0.19351 0.0
H491 H 0.83079 0.15333 0.13982 0.0
C492 C 0.85475 0.15644 0.07676 0.0
C493 C 0.87574 0.17055 0.0513 0.0
C494 C 0.86763 0.21739 0.2096 0.0
C495 C 0.86042 0.18676 0.13993 0.0
C496 C 0.86047 0.22558 0.25432 0.0
C497 C 0.83866 0.21266 0.2766 0.0
C498 C 0.85299 0.19601 0.18689 0.0
C499 C 0.82439 0.19148 0.25217 0.0
C500 C 0.84702 0.16448 0.12087 0.0
C501 C 0.88858 0.19269 0.07172 0.0
N502 N 0.83183 0.18378 0.2088 0.0
N503 N 0.88073 0.20006 0.11475 0.0
H504 H 0.81506 0.68453 0.96423 0.0
H505 H 0.80808 0.67081 0.29009 0.0
H506 H 0.87001 0.73344 0.06618 0.0
H507 H 0.79587 0.61316 0.18992 0.0
H508 H 0.82546 0.69508 0.20727 0.0
H509 H 0.80224 0.65835 0.04507 0.0
C510 C 0.82449 0.68965 0.00349 0.0
C511 C 0.84359 0.71111 0.00877 0.0
C512 C 0.81908 0.67714 0.20365 0.0
C513 C 0.82875 0.68168 0.10096 0.0
C514 C 0.80909 0.66332 0.25054 0.0
C515 C 0.80059 0.64005 0.24644 0.0
C516 C 0.81988 0.66748 0.15196 0.0
C517 C 0.80235 0.63108 0.19451 0.0
C518 C 0.81724 0.67473 0.04925 0.0
C519 C 0.85527 0.71698 0.06042 0.0
N520 N 0.81148 0.64481 0.14873 0.0
N521 N 0.84739 0.7025 0.10501 0.0
H522 H 0.95337 0.49122 0.35147 0.0
H523 H 0.02953 0.46622 0.55993 0.0
H524 H 0.96605 0.436 0.32911 0.0
H525 H 0.0297 0.52927 0.56175 0.0
H526 H 0.00629 0.45517 0.47506 0.0
H527 H 0.98105 0.50565 0.4282 0.0
C528 C 0.96203 0.48217 0.36241 0.0
C529 C 0.95723 0.46225 0.33383 0.0
C530 C 0.01152 0.47151 0.49364 0.0
C531 C 0.98889 0.4787 0.4219 0.0
C532 C 0.02478 0.47783 0.54228 0.0
C533 C 0.03147 0.49867 0.56833 0.0
C534 C 0.00455 0.48595 0.47094 0.0
C535 C 0.02493 0.51306 0.54311 0.0
C536 C 0.97788 0.49048 0.40616 0.0
C537 C 0.96909 0.45136 0.34987 0.0
N538 N 0.01161 0.50632 0.49613 0.0
N539 N 0.9842 0.45962 0.39302 0.0
H540 H 0.46373 0.53137 0.58596 0.0
H541 H 0.52857 0.47298 0.45694 0.0
H542 H 0.51452 0.52688 0.68327 0.0
H543 H 0.52114 0.52246 0.36135 0.0
H544 H 0.5132 0.48211 0.54085 0.0
H545 H 0.47456 0.51737 0.50241 0.0
C546 C 0.47693 0.52715 0.58983 0.0
C547 C 0.48842 0.53042 0.64117 0.0
C548 C 0.51479 0.49074 0.5012 0.0
C549 C 0.50034 0.51402 0.54703 0.0
C550 C 0.52344 0.48553 0.45355 0.0
C551 C 0.52625 0.49717 0.40262 0.0
C552 C 0.50829 0.50712 0.49701 0.0
C553 C 0.51943 0.51332 0.40017 0.0
C554 C 0.4831 0.51928 0.54235 0.0
C555 C 0.50544 0.52478 0.64415 0.0
N556 N 0.51061 0.51775 0.44669 0.0
N557 N 0.51084 0.51672 0.59771 0.0
H558 H 0.43876 0.97044 0.63173 0.0
H559 H 0.53335 0.0366 0.39627 0.0
H560 H 0.49477 0.95937 0.60533 0.0
H561 H 0.46753 0.03032 0.39378 0.0
H562 H 0.52235 0.01285 0.48134 0.0
H563 H 0.45207 0.99706 0.55296 0.0
C564 C 0.45393 0.97367 0.60962 0.0
C565 C 0.46557 0.9625 0.6251 0.0
C566 C 0.51039 0.01676 0.46214 0.0
C567 C 0.48095 0.99311 0.53474 0.0
C568 C 0.51667 0.03039 0.41377 0.0
C569 C 0.50129 0.03535 0.38758 0.0
C570 C 0.48869 0.00833 0.48485 0.0
C571 C 0.47989 0.0268 0.41214 0.0
C572 C 0.46148 0.98884 0.56448 0.0
C573 C 0.48515 0.96744 0.59469 0.0
N574 N 0.47425 0.01375 0.45931 0.0
N575 N 0.49223 0.98239 0.55096 0.0
H576 H 0.1898 0.22988 0.1802 0.0
H577 H 0.23425 0.19151 0.91426 0.0
H578 H 0.1793 0.24191 0.00633 0.0
H579 H 0.23863 0.17422 0.0878 0.0
H580 H 0.2215 0.21704 0.94789 0.0
H581 H 0.21512 0.21686 0.1477 0.0
C582 C 0.1931 0.23016 0.13522 0.0
C583 C 0.18204 0.23659 0.09588 0.0
C584 C 0.22557 0.2079 0.97862 0.0
C585 C 0.21087 0.22143 0.05831 0.0
C586 C 0.23291 0.19336 0.95946 0.0
C587 C 0.23713 0.18039 0.99825 0.0
C588 C 0.22243 0.20947 0.03695 0.0
C589 C 0.23523 0.1836 0.05631 0.0
C590 C 0.20754 0.22265 0.11667 0.0
C591 C 0.18721 0.23682 0.03817 0.0
N592 N 0.22777 0.1976 0.07384 0.0
N593 N 0.20098 0.22899 0.02106 0.0
H594 H 0.80597 0.04015 0.83315 0.0
H595 H 0.76633 0.95217 0.08799 0.0
H596 H 0.81505 0.05917 0.00973 0.0
H597 H 0.76309 0.93434 0.91138 0.0
H598 H 0.77667 0.9905 0.05994 0.0
H599 H 0.78261 0.00079 0.86099 0.0
C600 C 0.80274 0.03611 0.87778 0.0
C601 C 0.81287 0.05297 0.91918 0.0
C602 C 0.77338 0.97811 0.02733 0.0
C603 C 0.78632 0.00784 0.95141 0.0
C604 C 0.76742 0.95619 0.04331 0.0
C605 C 0.76423 0.94011 0.00198 0.0
C606 C 0.77617 0.98398 0.96964 0.0
C607 C 0.76573 0.94627 0.94474 0.0
C608 C 0.78944 0.01359 0.89367 0.0
C609 C 0.80784 0.04672 0.97634 0.0
N610 N 0.77185 0.96776 0.9303 0.0
N611 N 0.79522 0.02462 0.99079 0.0
H612 H 0.94943 0.76869 0.06129 0.0
H613 H 0.07164 0.82599 0.92486 0.0
H614 H 0.96214 0.77385 0.88116 0.0
H615 H 0.05903 0.81946 0.10506 0.0
H616 H 0.03156 0.80068 0.90822 0.0
H617 H 0.98904 0.78101 0.07818 0.0
C618 C 0.96046 0.7721 0.02525 0.0
C619 C 0.95253 0.77066 0.96974 0.0
C620 C 0.03759 0.8045 0.95144 0.0
C621 C 0.99796 0.78494 0.98879 0.0
C622 C 0.06052 0.81894 0.96099 0.0
C623 C 0.06866 0.82524 0.01641 0.0
C624 C 0.02267 0.79645 0.99764 0.0
C625 C 0.05347 0.81534 0.06156 0.0
C626 C 0.9831 0.77914 0.03493 0.0
C627 C 0.96757 0.77504 0.92471 0.0
N628 N 0.03115 0.80175 0.05115 0.0
N629 N 0.98961 0.7823 0.93524 0.0
H630 H 0.89192 0.82999 0.99732 0.0
H631 H 0.77494 0.82639 0.02975 0.0
H632 H 0.83135 0.78166 0.91109 0.0
H633 H 0.83777 0.88877 0.04595 0.0
H634 H 0.79542 0.80772 0.99888 0.0
H635 H 0.87239 0.84995 0.0286 0.0
C636 C 0.87451 0.82346 0.98533 0.0
C637 C 0.86322 0.80402 0.95168 0.0
C638 C 0.80477 0.82549 0.00915 0.0
C639 C 0.84094 0.82664 0.98735 0.0
C640 C 0.79309 0.83611 0.02722 0.0
C641 C 0.80475 0.85904 0.041 0.0
C642 C 0.82833 0.83783 0.00565 0.0
C643 C 0.82825 0.87102 0.03553 0.0
C644 C 0.86348 0.83495 0.00282 0.0
C645 C 0.84075 0.79645 0.93697 0.0
N646 N 0.83938 0.8602 0.01877 0.0
N647 N 0.83033 0.80768 0.95517 0.0
H648 H 0.13937 0.93885 0.94367 0.0
H649 H 0.19556 0.06784 0.02871 0.0
H650 H 0.16777 0.9629 0.10948 0.0
H651 H 0.20611 0.04829 0.86275 0.0
H652 H 0.17705 0.02818 0.05816 0.0
H653 H 0.15608 0.97823 0.91172 0.0
C654 C 0.14905 0.95239 0.97324 0.0
C655 C 0.15235 0.94771 0.0291 0.0
C656 C 0.18336 0.03266 0.01525 0.0
C657 C 0.17082 0.99233 0.99355 0.0
C658 C 0.1938 0.05518 0.99842 0.0
C659 C 0.20244 0.06126 0.9434 0.0
C660 C 0.18108 0.01615 0.97632 0.0
C661 C 0.1998 0.04425 0.90573 0.0
C662 C 0.15857 0.97474 0.95505 0.0
C663 C 0.16501 0.96582 0.06589 0.0
N664 N 0.18921 0.02238 0.92276 0.0
N665 N 0.17363 0.98734 0.04762 0.0
H666 H 0.93223 0.12706 0.05425 0.0
H667 H 0.06121 0.19361 0.95967 0.0
H668 H 0.95306 0.15708 0.88859 0.0
H669 H 0.04015 0.19598 0.13066 0.0
H670 H 0.02138 0.17213 0.93125 0.0
H671 H 0.97207 0.14441 0.08167 0.0
C672 C 0.94518 0.13713 0.02364 0.0
C673 C 0.93945 0.14086 0.96935 0.0
C674 C 0.0256 0.1773 0.975 0.0
C675 C 0.98467 0.16023 -0.00019 0.0
C676 C 0.04822 0.18945 0.99118 0.0
C677 C 0.05387 0.1967 0.04738 0.0
C678 C 0.00869 0.17197 0.0157 0.0
C679 C 0.03645 0.1909 0.08672 0.0
C680 C 0.96781 0.14704 0.03926 0.0
C681 C 0.95682 0.15403 0.93112 0.0
N682 N 0.01462 0.17879 0.07021 0.0
N683 N 0.97867 0.16319 0.94699 0.0
H684 H 0.85106 0.56752 0.48132 0.0
H685 H 0.89693 0.52284 0.23129 0.0
H686 H 0.84569 0.57909 0.30366 0.0
H687 H 0.8968 0.50604 0.40764 0.0
H688 H 0.88493 0.54956 0.25868 0.0
H689 H 0.87436 0.55107 0.45655 0.0
C690 C 0.85502 0.56689 0.43715 0.0
C691 C 0.84609 0.57436 0.39443 0.0
C692 C 0.88779 0.54024 0.29146 0.0
C693 C 0.87267 0.55544 0.3658 0.0
C694 C 0.8947 0.52499 0.27586 0.0
C695 C 0.8975 0.51187 0.31716 0.0
C696 C 0.88358 0.54234 0.34876 0.0
C697 C 0.89457 0.51557 0.37428 0.0
C698 C 0.86831 0.55746 0.42304 0.0
C699 C 0.85196 0.57328 0.33797 0.0
N700 N 0.88749 0.53025 0.38833 0.0
N701 N 0.86466 0.56374 0.32527 0.0
H702 H 0.47895 0.38165 0.26863 0.0
H703 H 0.44112 0.28452 0.50069 0.0
H704 H 0.49751 0.3939 0.44528 0.0
H705 H 0.42784 0.27197 0.32164 0.0
H706 H 0.45619 0.32465 0.48352 0.0
H707 H 0.45474 0.34168 0.28979 0.0
C708 C 0.47775 0.376 0.312 0.0
C709 C 0.49054 0.39112 0.35513 0.0
C710 C 0.44976 0.3131 0.44805 0.0
C711 C 0.4629 0.34533 0.37957 0.0
C712 C 0.4411 0.29015 0.45783 0.0
C713 C 0.43351 0.27488 0.41241 0.0
C714 C 0.45089 0.32087 0.39244 0.0
C715 C 0.43373 0.28316 0.35787 0.0
C716 C 0.46393 0.35314 0.32403 0.0
C717 C 0.48816 0.38283 0.41058 0.0
N718 N 0.44253 0.30562 0.34933 0.0
N719 N 0.4748 0.36046 0.4211 0.0
H720 H 0.62026 0.09409 0.25403 0.0
H721 H 0.71053 0.14476 0.50395 0.0
H722 H 0.60346 0.09526 0.42989 0.0
H723 H 0.72807 0.15104 0.32651 0.0
H724 H 0.67116 0.11972 0.47891 0.0
H725 H 0.65942 0.10816 0.28137 0.0
C726 C 0.62472 0.09701 0.29848 0.0
C727 C 0.6086 0.09383 0.33965 0.0
C728 C 0.68365 0.12634 0.44548 0.0
C729 C 0.65342 0.11 0.37115 0.0
C730 C 0.70618 0.14061 0.45976 0.0
C731 C 0.7226 0.15035 0.4172 0.0
C732 C 0.67746 0.12181 0.3882 0.0
C733 C 0.71595 0.14414 0.36071 0.0
C734 C 0.64711 0.10508 0.31403 0.0
C735 C 0.61536 0.09775 0.39661 0.0
N736 N 0.69385 0.13051 0.3478 0.0
N737 N 0.63728 0.10584 0.41059 0.0
H738 H 0.48277 0.08866 0.26933 0.0
H739 H 0.48589 0.20552 0.30969 0.0
H740 H 0.54505 0.15131 0.2905 0.0
H741 H 0.42926 0.14166 0.35933 0.0
H742 H 0.50688 0.18623 0.28646 0.0
H743 H 0.46195 0.10824 0.28739 0.0
C744 C 0.49209 0.10656 0.27732 0.0
C745 C 0.51568 0.1184 0.27797 0.0
C746 C 0.48982 0.1765 0.3023 0.0
C747 C 0.49193 0.14096 0.29863 0.0
C748 C 0.47778 0.18743 0.3151 0.0
C749 C 0.45582 0.17517 0.33674 0.0
C750 C 0.47964 0.15314 0.31026 0.0
C751 C 0.44617 0.15181 0.34329 0.0
C752 C 0.48018 0.11771 0.28803 0.0
C753 C 0.52684 0.14156 0.28986 0.0
N754 N 0.45812 0.14154 0.32996 0.0
N755 N 0.51487 0.15217 0.2993 0.0
H756 H 0.82967 0.29067 0.44552 0.0
H757 H 0.86367 0.37769 0.19556 0.0
H758 H 0.79745 0.2703 0.2822 0.0
H759 H 0.86047 0.39746 0.3674 0.0
H760 H 0.84463 0.33825 0.22561 0.0
H761 H 0.84636 0.33018 0.41683 0.0
C762 C 0.82616 0.29454 0.40357 0.0
C763 C 0.81222 0.27725 0.36603 0.0
C764 C 0.84804 0.35123 0.25662 0.0
C765 C 0.83144 0.32223 0.33299 0.0
C766 C 0.85901 0.37371 0.2397 0.0
C767 C 0.86365 0.39081 0.27918 0.0
C768 C 0.84217 0.34586 0.31367 0.0
C769 C 0.85713 0.38474 0.33571 0.0
C770 C 0.83556 0.31703 0.38748 0.0
C771 C 0.80807 0.28315 0.31237 0.0
N772 N 0.84691 0.3627 0.35151 0.0
N773 N 0.81788 0.30521 0.29711 0.0
H774 H 0.60834 0.46312 0.33622 0.0
H775 H 0.71816 0.58292 0.36415 0.0
H776 H 0.60929 0.52342 0.27945 0.0
H777 H 0.72106 0.52254 0.3307 0.0
H778 H 0.67745 0.56177 0.34789 0.0
H779 H 0.64904 0.48513 0.3512 0.0
C780 C 0.61706 0.48103 0.32744 0.0
C781 C 0.60542 0.49146 0.30645 0.0
C782 C 0.68708 0.55325 0.34387 0.0
C783 C 0.65187 0.51666 0.3237 0.0
C784 C 0.71028 0.56527 0.35327 0.0
C785 C 0.72301 0.55447 0.34879 0.0
C786 C 0.67652 0.53018 0.33129 0.0
C787 C 0.71189 0.53155 0.33427 0.0
C788 C 0.64028 0.49351 0.33557 0.0
C789 C 0.61761 0.51469 0.29543 0.0
N790 N 0.68923 0.52009 0.32666 0.0
N791 N 0.6402 0.52658 0.3045 0.0
H792 H 0.59218 0.84923 0.69045 0.0
H793 H 0.51752 0.90575 0.62615 0.0
H794 H 0.5671 0.85186 0.52459 0.0
H795 H 0.53602 0.8961 0.79424 0.0
H796 H 0.54274 0.89385 0.58627 0.0
H797 H 0.57911 0.87413 0.7262 0.0
C798 C 0.58427 0.85534 0.66126 0.0
C799 C 0.58031 0.84805 0.60465 0.0
C800 C 0.54152 0.89462 0.63189 0.0
C801 C 0.56515 0.87644 0.64552 0.0
C802 C 0.52713 0.90145 0.65474 0.0
C803 C 0.5243 0.9015 0.71368 0.0
C804 C 0.55314 0.88773 0.66817 0.0
C805 C 0.53742 0.89601 0.74856 0.0
C806 C 0.57676 0.86953 0.68179 0.0
C807 C 0.57021 0.85676 0.56873 0.0
N808 N 0.55103 0.88905 0.72527 0.0
N809 N 0.56268 0.87022 0.58997 0.0
H810 H 0.15014 0.72754 0.672 0.0
H811 H 0.09269 0.60445 0.53854 0.0
H812 H 0.14898 0.71437 0.49275 0.0
H813 H 0.08829 0.61722 0.71591 0.0
H814 H 0.1093 0.64466 0.51956 0.0
H815 H 0.1236 0.68752 0.68771 0.0
C816 C 0.14407 0.71631 0.63583 0.0
C817 C 0.15207 0.72429 0.58105 0.0
C818 C 0.10445 0.63867 0.56255 0.0
C819 C 0.12186 0.67841 0.59881 0.0
C820 C 0.09494 0.61567 0.57342 0.0
C821 C 0.08936 0.60746 0.62901 0.0
C822 C 0.10864 0.65365 0.60767 0.0
C823 C 0.0925 0.6228 0.67243 0.0
C824 C 0.12892 0.69344 0.64485 0.0
C825 C 0.14349 0.70896 0.5358 0.0
N826 N 0.10222 0.64518 0.66096 0.0
N827 N 0.1291 0.68674 0.54578 0.0
H828 H 0.38846 0.49729 0.58377 0.0
H829 H 0.2622 0.42088 0.6921 0.0
H830 H 0.37033 0.48025 0.75945 0.0
H831 H 0.28047 0.43817 0.51658 0.0
H832 H 0.30203 0.4377 0.71589 0.0
H833 H 0.34952 0.47122 0.55696 0.0
C834 C 0.37635 0.48791 0.61671 0.0
C835 C 0.38262 0.49122 0.67402 0.0
C836 C 0.29732 0.43757 0.67206 0.0
C837 C 0.33793 0.46138 0.64361 0.0
C838 C 0.27455 0.42791 0.6584 0.0
C839 C 0.26799 0.42843 0.60236 0.0
C840 C 0.31365 0.44792 0.62943 0.0
C841 C 0.28475 0.43762 0.56045 0.0
C842 C 0.35409 0.473 0.60135 0.0
C843 C 0.36622 0.47842 0.71478 0.0
N844 N 0.30681 0.44725 0.57495 0.0
N845 N 0.34459 0.46425 0.69882 0.0
H846 H 0.2016 0.48743 0.64345 0.0
H847 H 0.08929 0.48407 0.74087 0.0
H848 H 0.13773 0.42583 0.6542 0.0
H849 H 0.14048 0.54072 0.64731 0.0
H850 H 0.10968 0.46401 0.72531 0.0
H851 H 0.18226 0.5089 0.66154 0.0
C852 C 0.18356 0.47846 0.65005 0.0
C853 C 0.17114 0.45487 0.64677 0.0
C854 C 0.11638 0.48079 0.70796 0.0
C855 C 0.14916 0.47911 0.66782 0.0
C856 C 0.10468 0.49227 0.71653 0.0
C857 C 0.11288 0.51398 0.69431 0.0
C858 C 0.13675 0.49124 0.67805 0.0
C859 C 0.13338 0.5239 0.6646 0.0
C860 C 0.17257 0.49068 0.65987 0.0
C861 C 0.14783 0.44399 0.65533 0.0
N862 N 0.14471 0.51247 0.65749 0.0
N863 N 0.13759 0.45619 0.66578 0.0
H864 H 0.45241 0.61074 0.69456 0.0
H865 H 0.57458 0.71591 0.65663 0.0
H866 H 0.51118 0.61145 0.76205 0.0
H867 H 0.51621 0.72365 0.6723 0.0
H868 H 0.55162 0.67633 0.68409 0.0
H869 H 0.47554 0.65102 0.67355 0.0
C870 C 0.47019 0.61932 0.70466 0.0
C871 C 0.4799 0.60769 0.73002 0.0
C872 C 0.54389 0.68674 0.68181 0.0
C873 C 0.50634 0.6536 0.7059 0.0
C874 C 0.55692 0.70925 0.6658 0.0
C875 C 0.54717 0.72292 0.66174 0.0
C876 C 0.52085 0.67776 0.69255 0.0
C877 C 0.52431 0.7136 0.67517 0.0
C878 C 0.48329 0.6423 0.69308 0.0
C879 C 0.50297 0.61968 0.74262 0.0
N880 N 0.51179 0.69145 0.68926 0.0
N881 N 0.51547 0.64196 0.72999 0.0
H882 H 0.28115 0.84644 0.66254 0.0
H883 H 0.3962 0.84655 0.63422 0.0
H884 H 0.28159 0.78558 0.61922 0.0
H885 H 0.38626 0.88808 0.75509 0.0
H886 H 0.35551 0.82637 0.61502 0.0
H887 H 0.32133 0.86471 0.68401 0.0
C888 C 0.28978 0.83696 0.65757 0.0
C889 C 0.27823 0.81458 0.63898 0.0
C890 C 0.3624 0.83997 0.64564 0.0
C891 C 0.3241 0.83536 0.66265 0.0
C892 C 0.38558 0.85158 0.65632 0.0
C893 C 0.39477 0.8693 0.69577 0.0
C894 C 0.34852 0.84644 0.6739 0.0
C895 C 0.38015 0.87489 0.72368 0.0
C896 C 0.31263 0.84733 0.67004 0.0
C897 C 0.29003 0.80287 0.63389 0.0
N898 N 0.35783 0.86365 0.71186 0.0
N899 N 0.3125 0.8135 0.64502 0.0
loop_
_geom_bond_atom_site_label_1
_geom_bond_atom_site_label_2
_geom_bond_distance
_geom_bond_site_symmetry_2
_ccdc_geom_bond_type
Mg0 O1 2.028 . S
Mg0 O7 1.986 . S
Mg0 O9 2.114 . S
Mg0 O10 2.251 . S
Mg0 O13 2.010 . S
O1 Mg0 2.028 . S
O1 C4 1.250 1_554 S
O2 Mg3 2.028 . S
O2 C4 1.248 1_554 S
Mg3 O2 2.028 . S
Mg3 O8 2.032 . S
Mg3 O10 2.079 . S
C4 O1 1.250 1_556 S
C4 O2 1.248 1_556 S
C5 O6 1.264 . S
C5 O13 1.249 . S
O6 C5 1.264 . S
O7 Mg0 1.986 . S
O7 C11 1.246 . S
O8 Mg3 2.032 . S
O8 C11 1.259 . S
O9 Mg0 2.114 . S
O9 C12 1.252 . S
O10 Mg0 2.251 . S
O10 Mg3 2.079 . S
O10 C12 1.273 . S
C11 O7 1.246 . S
C11 O8 1.259 . S
C12 O9 1.252 . S
C12 O10 1.273 . S
O13 Mg0 2.010 . S
O13 C5 1.249 . S
Mg14 O15 2.028 . S
Mg14 O21 1.986 . S
Mg14 O23 2.114 . S
Mg14 O24 2.251 . S
Mg14 O27 2.010 . S
O15 Mg14 2.028 . S
O15 C18 1.250 1_554 S
O16 Mg17 2.028 . S
O16 C18 1.248 1_554 S
Mg17 O16 2.028 . S
Mg17 O22 2.032 . S
Mg17 O24 2.079 . S
C18 O15 1.250 1_556 S
C18 O16 1.248 1_556 S
C19 O20 1.264 . S
C19 O27 1.249 . S
O20 C19 1.264 . S
O21 Mg14 1.986 . S
O21 C25 1.246 . S
O22 Mg17 2.032 . S
O22 C25 1.259 . S
O23 Mg14 2.114 . S
O23 C26 1.252 . S
O24 Mg14 2.251 . S
O24 Mg17 2.079 . S
O24 C26 1.273 . S
C25 O21 1.246 . S
C25 O22 1.259 . S
C26 O23 1.252 . S
C26 O24 1.273 . S
O27 Mg14 2.010 . S
O27 C19 1.249 . S
Mg28 O29 2.028 . S
Mg28 O35 1.986 . S
Mg28 O37 2.114 . S
Mg28 O38 2.251 . S
Mg28 O41 2.010 . S
O29 Mg28 2.028 . S
O29 C32 1.250 1_554 S
O30 Mg31 2.028 . S
O30 C32 1.248 1_554 S
Mg31 O30 2.028 . S
Mg31 O36 2.032 . S
Mg31 O38 2.079 . S
C32 O29 1.250 1_556 S
C32 O30 1.248 1_556 S
C33 O34 1.264 . S
C33 O41 1.249 . S
O34 C33 1.264 . S
O35 Mg28 1.986 . S
O35 C39 1.246 . S
O36 Mg31 2.032 . S
O36 C39 1.259 . S
O37 Mg28 2.114 . S
O37 C40 1.252 . S
O38 Mg28 2.251 . S
O38 Mg31 2.079 . S
O38 C40 1.273 . S
C39 O35 1.246 . S
C39 O36 1.259 . S
C40 O37 1.252 . S
C40 O38 1.273 . S
O41 Mg28 2.010 . S
O41 C33 1.249 . S
Mg42 O43 2.028 . S
Mg42 O49 1.986 . S
Mg42 O51 2.114 . S
Mg42 O52 2.251 . S
Mg42 O55 2.010 . S
O43 Mg42 2.028 . S
O43 C46 1.250 1_556 S
O44 Mg45 2.028 . S
O44 C46 1.248 1_556 S
Mg45 O44 2.028 . S
Mg45 O50 2.032 . S
Mg45 O52 2.079 . S
C46 O43 1.250 1_554 S
C46 O44 1.248 1_554 S
C47 O48 1.264 . S
C47 O55 1.249 . S
O48 C47 1.264 . S
O49 Mg42 1.986 . S
O49 C53 1.246 . S
O50 Mg45 2.032 . S
O50 C53 1.259 . S
O51 Mg42 2.114 . S
O51 C54 1.252 . S
O52 Mg42 2.251 . S
O52 Mg45 2.079 . S
O52 C54 1.273 . S
C53 O49 1.246 . S
C53 O50 1.259 . S
C54 O51 1.252 . S
C54 O52 1.273 . S
O55 Mg42 2.010 . S
O55 C47 1.249 . S
Mg56 O57 2.028 . S
Mg56 O63 1.986 . S
Mg56 O65 2.114 . S
Mg56 O66 2.251 . S
Mg56 O69 2.010 . S
O57 Mg56 2.028 . S
O57 C60 1.250 1_556 S
O58 Mg59 2.028 . S
O58 C60 1.248 1_556 S
Mg59 O58 2.028 . S
Mg59 O64 2.032 . S
Mg59 O66 2.079 . S
C60 O57 1.250 1_554 S
C60 O58 1.248 1_554 S
C61 O62 1.264 . S
C61 O69 1.249 . S
O62 C61 1.264 . S
O63 Mg56 1.986 . S
O63 C67 1.246 . S
O64 Mg59 2.032 . S
O64 C67 1.259 . S
O65 Mg56 2.114 . S
O65 C68 1.252 . S
O66 Mg56 2.251 . S
O66 Mg59 2.079 . S
O66 C68 1.273 . S
C67 O63 1.246 . S
C67 O64 1.259 . S
C68 O65 1.252 . S
C68 O66 1.273 . S
O69 Mg56 2.010 . S
O69 C61 1.249 . S
Mg70 O71 2.028 . S
Mg70 O77 1.986 . S
Mg70 O79 2.114 . S
Mg70 O80 2.251 . S
Mg70 O83 2.010 . S
O71 Mg70 2.028 . S
O71 C74 1.250 1_556 S
O72 Mg73 2.028 . S
O72 C74 1.248 1_556 S
Mg73 O72 2.028 . S
Mg73 O78 2.032 . S
Mg73 O80 2.079 . S
C74 O71 1.250 1_554 S
C74 O72 1.248 1_554 S
C75 O76 1.264 . S
C75 O83 1.249 . S
O76 C75 1.264 . S
O77 Mg70 1.986 . S
O77 C81 1.246 . S
O78 Mg73 2.032 . S
O78 C81 1.259 . S
O79 Mg70 2.114 . S
O79 C82 1.252 . S
O80 Mg70 2.251 . S
O80 Mg73 2.079 . S
O80 C82 1.273 . S
C81 O77 1.246 . S
C81 O78 1.259 . S
C82 O79 1.252 . S
C82 O80 1.273 . S
O83 Mg70 2.010 . S
O83 C75 1.249 . S
Mg84 O85 2.028 . S
Mg84 O91 1.986 . S
Mg84 O93 2.114 . S
Mg84 O94 2.251 . S
Mg84 O97 2.010 . S
O85 Mg84 2.028 . S
O85 C88 1.250 . S
O86 Mg87 2.028 . S
O86 C88 1.248 . S
Mg87 O86 2.028 . S
Mg87 O92 2.032 . S
Mg87 O94 2.079 . S
C88 O85 1.250 . S
C88 O86 1.248 . S
C89 O90 1.264 . S
C89 O97 1.249 . S
O90 C89 1.264 . S
O91 Mg84 1.986 . S
O91 C95 1.246 . S
O92 Mg87 2.032 . S
O92 C95 1.259 . S
O93 Mg84 2.114 . S
O93 C96 1.252 . S
O94 Mg84 2.251 . S
O94 Mg87 2.079 . S
O94 C96 1.273 . S
C95 O91 1.246 . S
C95 O92 1.259 . S
C96 O93 1.252 . S
C96 O94 1.273 . S
O97 Mg84 2.010 . S
O97 C89 1.249 . S
Mg98 O99 2.028 . S
Mg98 O105 1.986 . S
Mg98 O107 2.114 . S
Mg98 O108 2.251 . S
Mg98 O111 2.010 . S
O99 Mg98 2.028 . S
O99 C102 1.250 . S
O100 Mg101 2.028 . S
O100 C102 1.248 . S
Mg101 O100 2.028 . S
Mg101 O106 2.032 . S
Mg101 O108 2.079 . S
C102 O99 1.250 . S
C102 O100 1.248 . S
C103 O104 1.264 . S
C103 O111 1.249 . S
O104 C103 1.264 . S
O105 Mg98 1.986 . S
O105 C109 1.246 . S
O106 Mg101 2.032 . S
O106 C109 1.259 . S
O107 Mg98 2.114 . S
O107 C110 1.252 . S
O108 Mg98 2.251 . S
O108 Mg101 2.079 . S
O108 C110 1.273 . S
C109 O105 1.246 . S
C109 O106 1.259 . S
C110 O107 1.252 . S
C110 O108 1.273 . S
O111 Mg98 2.010 . S
O111 C103 1.249 . S
Mg112 O113 2.028 . S
Mg112 O119 1.986 . S
Mg112 O121 2.114 . S
Mg112 O122 2.251 . S
Mg112 O125 2.010 . S
O113 Mg112 2.028 . S
O113 C116 1.250 . S
O114 Mg115 2.028 . S
O114 C116 1.248 . S
Mg115 O114 2.028 . S
Mg115 O120 2.032 . S
Mg115 O122 2.079 . S
C116 O113 1.250 . S
C116 O114 1.248 . S
C117 O118 1.264 . S
C117 O125 1.249 . S
O118 C117 1.264 . S
O119 Mg112 1.986 . S
O119 C123 1.246 . S
O120 Mg115 2.032 . S
O120 C123 1.259 . S
O121 Mg112 2.114 . S
O121 C124 1.252 . S
O122 Mg112 2.251 . S
O122 Mg115 2.079 . S
O122 C124 1.273 . S
C123 O119 1.246 . S
C123 O120 1.259 . S
C124 O121 1.252 . S
C124 O122 1.273 . S
O125 Mg112 2.010 . S
O125 C117 1.249 . S
Mg126 O127 2.028 . S
Mg126 O133 1.986 . S
Mg126 O135 2.114 . S
Mg126 O136 2.251 . S
Mg126 O139 2.010 . S
O127 Mg126 2.028 . S
O127 C130 1.250 . S
O128 Mg129 2.028 . S
O128 C130 1.248 . S
Mg129 O128 2.028 . S
Mg129 O134 2.032 . S
Mg129 O136 2.079 . S
C130 O127 1.250 . S
C130 O128 1.248 . S
C131 O132 1.264 . S
C131 O139 1.249 . S
O132 C131 1.264 . S
O133 Mg126 1.986 . S
O133 C137 1.246 . S
O134 Mg129 2.032 . S
O134 C137 1.259 . S
O135 Mg126 2.114 . S
O135 C138 1.252 . S
O136 Mg126 2.251 . S
O136 Mg129 2.079 . S
O136 C138 1.273 . S
C137 O133 1.246 . S
C137 O134 1.259 . S
C138 O135 1.252 . S
C138 O136 1.273 . S
O139 Mg126 2.010 . S
O139 C131 1.249 . S
Mg140 O141 2.028 . S
Mg140 O147 1.986 . S
Mg140 O149 2.114 . S
Mg140 O150 2.251 . S
Mg140 O153 2.010 . S
O141 Mg140 2.028 . S
O141 C144 1.250 . S
O142 Mg143 2.028 . S
O142 C144 1.248 . S
Mg143 O142 2.028 . S
Mg143 O148 2.032 . S
Mg143 O150 2.079 . S
C144 O141 1.250 . S
C144 O142 1.248 . S
C145 O146 1.264 . S
C145 O153 1.249 . S
O146 C145 1.264 . S
O147 Mg140 1.986 . S
O147 C151 1.246 . S
O148 Mg143 2.032 . S
O148 C151 1.259 . S
O149 Mg140 2.114 . S
O149 C152 1.252 . S
O150 Mg140 2.251 . S
O150 Mg143 2.079 . S
O150 C152 1.273 . S
C151 O147 1.246 . S
C151 O148 1.259 . S
C152 O149 1.252 . S
C152 O150 1.273 . S
O153 Mg140 2.010 . S
O153 C145 1.249 . S
Mg154 O155 2.028 . S
Mg154 O161 1.986 . S
Mg154 O163 2.114 . S
Mg154 O164 2.251 . S
Mg154 O167 2.010 . S
O155 Mg154 2.028 . S
O155 C158 1.250 . S
O156 Mg157 2.028 . S
O156 C158 1.248 . S
Mg157 O156 2.028 . S
Mg157 O162 2.032 . S
Mg157 O164 2.079 . S
C158 O155 1.250 . S
C158 O156 1.248 . S
C159 O160 1.264 . S
C159 O167 1.249 . S
O160 C159 1.264 . S
O161 Mg154 1.986 . S
O161 C165 1.246 . S
O162 Mg157 2.032 . S
O162 C165 1.259 . S
O163 Mg154 2.114 . S
O163 C166 1.252 . S
O164 Mg154 2.251 . S
O164 Mg157 2.079 . S
O164 C166 1.273 . S
C165 O161 1.246 . S
C165 O162 1.259 . S
C166 O163 1.252 . S
C166 O164 1.273 . S
O167 Mg154 2.010 . S
O167 C159 1.249 . S
Mg168 O169 2.028 . S
Mg168 O175 1.986 . S
Mg168 O177 2.114 . S
Mg168 O178 2.251 . S
Mg168 O181 2.010 . S
O169 Mg168 2.028 . S
O169 C172 1.250 . S
O170 Mg171 2.028 . S
O170 C172 1.248 . S
Mg171 O170 2.028 . S
Mg171 O176 2.032 . S
Mg171 O178 2.079 . S
C172 O169 1.250 . S
C172 O170 1.248 . S
C173 O174 1.264 . S
C173 O181 1.249 . S
O174 C173 1.264 . S
O175 Mg168 1.986 . S
O175 C179 1.246 . S
O176 Mg171 2.032 . S
O176 C179 1.259 . S
O177 Mg168 2.114 . S
O177 C180 1.252 . S
O178 Mg168 2.251 . S
O178 Mg171 2.079 . S
O178 C180 1.273 . S
C179 O175 1.246 . S
C179 O176 1.259 . S
C180 O177 1.252 . S
C180 O178 1.273 . S
O181 Mg168 2.010 . S
O181 C173 1.249 . S
Mg182 O183 2.028 . S
Mg182 O189 1.986 . S
Mg182 O191 2.114 . S
Mg182 O192 2.251 . S
Mg182 O195 2.010 . S
O183 Mg182 2.028 . S
O183 C186 1.250 . S
O184 Mg185 2.028 . S
O184 C186 1.248 . S
Mg185 O184 2.028 . S
Mg185 O190 2.032 . S
Mg185 O192 2.079 . S
C186 O183 1.250 . S
C186 O184 1.248 . S
C187 O188 1.264 . S
C187 O195 1.249 . S
O188 C187 1.264 . S
O189 Mg182 1.986 . S
O189 C193 1.246 . S
O190 Mg185 2.032 . S
O190 C193 1.259 . S
O191 Mg182 2.114 . S
O191 C194 1.252 . S
O192 Mg182 2.251 . S
O192 Mg185 2.079 . S
O192 C194 1.273 . S
C193 O189 1.246 . S
C193 O190 1.259 . S
C194 O191 1.252 . S
C194 O192 1.273 . S
O195 Mg182 2.010 . S
O195 C187 1.249 . S
Mg196 O197 2.028 . S
Mg196 O203 1.986 . S
Mg196 O205 2.114 . S
Mg196 O206 2.251 . S
Mg196 O209 2.010 . S
O197 Mg196 2.028 . S
O197 C200 1.250 . S
O198 Mg199 2.028 . S
O198 C200 1.248 . S
Mg199 O198 2.028 . S
Mg199 O204 2.032 . S
Mg199 O206 2.079 . S
C200 O197 1.250 . S
C200 O198 1.248 . S
C201 O202 1.264 . S
C201 O209 1.249 . S
O202 C201 1.264 . S
O203 Mg196 1.986 . S
O203 C207 1.246 . S
O204 Mg199 2.032 . S
O204 C207 1.259 . S
O205 Mg196 2.114 . S
O205 C208 1.252 . S
O206 Mg196 2.251 . S
O206 Mg199 2.079 . S
O206 C208 1.273 . S
C207 O203 1.246 . S
C207 O204 1.259 . S
C208 O205 1.252 . S
C208 O206 1.273 . S
O209 Mg196 2.010 . S
O209 C201 1.249 . S
Mg210 O211 2.028 . S
Mg210 O217 1.986 . S
Mg210 O219 2.114 . S
Mg210 O220 2.251 . S
Mg210 O223 2.010 . S
O211 Mg210 2.028 . S
O211 C214 1.250 . S
O212 Mg213 2.028 . S
O212 C214 1.248 . S
Mg213 O212 2.028 . S
Mg213 O218 2.032 . S
Mg213 O220 2.079 . S
C214 O211 1.250 . S
C214 O212 1.248 . S
C215 O216 1.264 . S
C215 O223 1.249 . S
O216 C215 1.264 . S
O217 Mg210 1.986 . S
O217 C221 1.246 . S
O218 Mg213 2.032 . S
O218 C221 1.259 . S
O219 Mg210 2.114 . S
O219 C222 1.252 . S
O220 Mg210 2.251 . S
O220 Mg213 2.079 . S
O220 C222 1.273 . S
C221 O217 1.246 . S
C221 O218 1.259 . S
C222 O219 1.252 . S
C222 O220 1.273 . S
O223 Mg210 2.010 . S
O223 C215 1.249 . S
Mg224 O225 2.028 . S
Mg224 O231 1.986 . S
Mg224 O233 2.114 . S
Mg224 O234 2.251 . S
Mg224 O237 2.010 . S
O225 Mg224 2.028 . S
O225 C228 1.250 . S
O226 Mg227 2.028 . S
O226 C228 1.248 . S
Mg227 O226 2.028 . S
Mg227 O232 2.032 . S
Mg227 O234 2.079 . S
C228 O225 1.250 . S
C228 O226 1.248 . S
C229 O230 1.264 . S
C229 O237 1.249 . S
O230 C229 1.264 . S
O231 Mg224 1.986 . S
O231 C235 1.246 . S
O232 Mg227 2.032 . S
O232 C235 1.259 . S
O233 Mg224 2.114 . S
O233 C236 1.252 . S
O234 Mg224 2.251 . S
O234 Mg227 2.079 . S
O234 C236 1.273 . S
C235 O231 1.246 . S
C235 O232 1.259 . S
C236 O233 1.252 . S
C236 O234 1.273 . S
O237 Mg224 2.010 . S
O237 C229 1.249 . S
Mg238 O239 2.028 . S
Mg238 O245 1.986 . S
Mg238 O247 2.114 . S
Mg238 O248 2.251 . S
Mg238 O251 2.010 . S
O239 Mg238 2.028 . S
O239 C242 1.250 . S
O240 Mg241 2.028 . S
O240 C242 1.248 . S
Mg241 O240 2.028 . S
Mg241 O246 2.032 . S
Mg241 O248 2.079 . S
C242 O239 1.250 . S
C242 O240 1.248 . S
C243 O244 1.264 . S
C243 O251 1.249 . S
O244 C243 1.264 . S
O245 Mg238 1.986 . S
O245 C249 1.246 . S
O246 Mg241 2.032 . S
O246 C249 1.259 . S
O247 Mg238 2.114 . S
O247 C250 1.252 . S
O248 Mg238 2.251 . S
O248 Mg241 2.079 . S
O248 C250 1.273 . S
C249 O245 1.246 . S
C249 O246 1.259 . S
C250 O247 1.252 . S
C250 O248 1.273 . S
O251 Mg238 2.010 . S
O251 C243 1.249 . S
H252 C258 0.930 . S
H253 C262 0.930 . S
H254 C267 0.929 . S
H255 C265 0.929 . S
H256 C260 0.929 . S
H257 C266 0.929 . S
C258 H252 0.930 . S
C258 C259 1.367 . S
C258 C266 1.378 . S
C259 C258 1.367 . S
C259 C267 1.433 . S
C260 H256 0.929 . S
C260 C262 1.378 . S
C260 C264 1.350 . S
C261 C264 1.463 . S
C261 C266 1.350 . S
C261 N269 1.427 . S
C262 H253 0.930 . S
C262 C260 1.378 . S
C262 C263 1.367 . S
C263 C262 1.367 . S
C263 C265 1.433 . S
C264 C260 1.350 . S
C264 C261 1.463 . S
C264 N268 1.427 . S
C265 H255 0.929 . S
C265 C263 1.433 . S
C265 N268 1.384 . S
C266 H257 0.929 . S
C266 C258 1.378 . S
C266 C261 1.350 . S
C267 H254 0.929 . S
C267 C259 1.433 . S
C267 N269 1.384 . S
N268 C264 1.427 . S
N268 C265 1.384 . S
N269 C261 1.427 . S
N269 C267 1.384 . S
H270 C276 0.930 . S
H271 C280 0.930 . S
H272 C285 0.929 . S
H273 C283 0.929 . S
H274 C278 0.929 . S
H275 C284 0.929 . S
C276 H270 0.930 . S
C276 C277 1.367 . S
C276 C284 1.378 . S
C277 C276 1.367 . S
C277 C285 1.433 . S
C278 H274 0.929 . S
C278 C280 1.378 . S
C278 C282 1.350 . S
C279 C282 1.463 . S
C279 C284 1.350 . S
C279 N287 1.427 . S
C280 H271 0.930 . S
C280 C278 1.378 . S
C280 C281 1.367 . S
C281 C280 1.367 . S
C281 C283 1.433 . S
C282 C278 1.350 . S
C282 C279 1.463 . S
C282 N286 1.427 . S
C283 H273 0.929 . S
C283 C281 1.433 . S
C283 N286 1.384 . S
C284 H275 0.929 . S
C284 C276 1.378 . S
C284 C279 1.350 . S
C285 H272 0.929 . S
C285 C277 1.433 . S
C285 N287 1.384 . S
N286 C282 1.427 . S
N286 C283 1.384 . S
N287 C279 1.427 . S
N287 C285 1.384 . S
H288 C294 0.930 . S
H289 C298 0.930 . S
H290 C303 0.929 . S
H291 C301 0.929 . S
H292 C296 0.929 . S
H293 C302 0.929 . S
C294 H288 0.930 . S
C294 C295 1.367 . S
C294 C302 1.378 . S
C295 C294 1.367 . S
C295 C303 1.433 . S
C296 H292 0.929 . S
C296 C298 1.378 . S
C296 C300 1.350 . S
C297 C300 1.463 . S
C297 C302 1.350 . S
C297 N305 1.427 . S
C298 H289 0.930 . S
C298 C296 1.378 . S
C298 C299 1.367 . S
C299 C298 1.367 . S
C299 C301 1.433 . S
C300 C296 1.350 . S
C300 C297 1.463 . S
C300 N304 1.427 . S
C301 H291 0.929 . S
C301 C299 1.433 . S
C301 N304 1.384 . S
C302 H293 0.929 . S
C302 C294 1.378 . S
C302 C297 1.350 . S
C303 H290 0.929 . S
C303 C295 1.433 . S
C303 N305 1.384 . S
N304 C300 1.427 . S
N304 C301 1.384 . S
N305 C297 1.427 . S
N305 C303 1.384 . S
H306 C312 0.930 . S
H307 C316 0.930 . S
H308 C321 0.929 . S
H309 C319 0.929 . S
H310 C314 0.929 . S
H311 C320 0.929 . S
C312 H306 0.930 . S
C312 C313 1.367 . S
C312 C320 1.378 . S
C313 C312 1.367 . S
C313 C321 1.433 . S
C314 H310 0.929 . S
C314 C316 1.378 . S
C314 C318 1.350 . S
C315 C318 1.463 . S
C315 C320 1.350 . S
C315 N323 1.427 . S
C316 H307 0.930 . S
C316 C314 1.378 . S
C316 C317 1.367 . S
C317 C316 1.367 . S
C317 C319 1.433 . S
C318 C314 1.350 . S
C318 C315 1.463 . S
C318 N322 1.427 . S
C319 H309 0.929 . S
C319 C317 1.433 . S
C319 N322 1.384 . S
C320 H311 0.929 . S
C320 C312 1.378 . S
C320 C315 1.350 . S
C321 H308 0.929 . S
C321 C313 1.433 . S
C321 N323 1.384 . S
N322 C318 1.427 . S
N322 C319 1.384 . S
N323 C315 1.427 . S
N323 C321 1.384 . S
H324 C330 0.930 . S
H325 C334 0.930 . S
H326 C339 0.929 . S
H327 C337 0.929 . S
H328 C332 0.929 . S
H329 C338 0.929 . S
C330 H324 0.930 . S
C330 C331 1.367 . S
C330 C338 1.378 . S
C331 C330 1.367 . S
C331 C339 1.433 . S
C332 H328 0.929 . S
C332 C334 1.378 . S
C332 C336 1.350 . S
C333 C336 1.463 . S
C333 C338 1.350 . S
C333 N341 1.427 . S
C334 H325 0.930 . S
C334 C332 1.378 . S
C334 C335 1.367 . S
C335 C334 1.367 . S
C335 C337 1.433 . S
C336 C332 1.350 . S
C336 C333 1.463 . S
C336 N340 1.427 . S
C337 H327 0.929 . S
C337 C335 1.433 . S
C337 N340 1.384 . S
C338 H329 0.929 . S
C338 C330 1.378 . S
C338 C333 1.350 . S
C339 H326 0.929 . S
C339 C331 1.433 . S
C339 N341 1.384 . S
N340 C336 1.427 . S
N340 C337 1.384 . S
N341 C333 1.427 . S
N341 C339 1.384 . S
H342 C348 0.930 . S
H343 C352 0.930 . S
H344 C357 0.929 . S
H345 C355 0.929 . S
H346 C350 0.929 . S
H347 C356 0.929 . S
C348 H342 0.930 . S
C348 C349 1.367 . S
C348 C356 1.378 . S
C349 C348 1.367 . S
C349 C357 1.433 . S
C350 H346 0.929 . S
C350 C352 1.378 . S
C350 C354 1.350 . S
C351 C354 1.463 . S
C351 C356 1.350 . S
C351 N359 1.427 . S
C352 H343 0.930 . S
C352 C350 1.378 . S
C352 C353 1.367 . S
C353 C352 1.367 . S
C353 C355 1.433 . S
C354 C350 1.350 . S
C354 C351 1.463 . S
C354 N358 1.427 . S
C355 H345 0.929 . S
C355 C353 1.433 . S
C355 N358 1.384 . S
C356 H347 0.929 . S
C356 C348 1.378 . S
C356 C351 1.350 . S
C357 H344 0.929 . S
C357 C349 1.433 . S
C357 N359 1.384 . S
N358 C354 1.427 . S
N358 C355 1.384 . S
N359 C351 1.427 . S
N359 C357 1.384 . S
H360 C366 0.930 . S
H361 C370 0.930 . S
H362 C375 0.929 . S
H363 C373 0.929 . S
H364 C368 0.929 1_655 S
H365 C374 0.929 1_455 S
C366 H360 0.930 . S
C366 C367 1.367 . S
C366 C374 1.378 . S
C367 C366 1.367 . S
C367 C375 1.433 . S
C368 H364 0.929 1_455 S
C368 C370 1.378 . S
C368 C372 1.350 . S
C369 C372 1.463 1_654 S
C369 C374 1.350 . S
C369 N377 1.427 . S
C370 H361 0.930 . S
C370 C368 1.378 . S
C370 C371 1.367 . S
C371 C370 1.367 . S
C371 C373 1.433 . S
C372 C368 1.350 . S
C372 C369 1.463 1_456 S
C372 N376 1.427 . S
C373 H363 0.929 . S
C373 C371 1.433 . S
C373 N376 1.384 . S
C374 H365 0.929 1_655 S
C374 C366 1.378 . S
C374 C369 1.350 . S
C375 H362 0.929 . S
C375 C367 1.433 . S
C375 N377 1.384 . S
N376 C372 1.427 . S
N376 C373 1.384 . S
N377 C369 1.427 . S
N377 C375 1.384 . S
H378 C384 0.930 . S
H379 C388 0.930 . S
H380 C393 0.929 . S
H381 C391 0.929 . S
H382 C386 0.929 . S
H383 C392 0.929 . S
C384 H378 0.930 . S
C384 C385 1.367 . S
C384 C392 1.378 . S
C385 C384 1.367 . S
C385 C393 1.433 . S
C386 H382 0.929 . S
C386 C388 1.378 . S
C386 C390 1.350 . S
C387 C390 1.463 1_554 S
C387 C392 1.350 . S
C387 N395 1.427 . S
C388 H379 0.930 . S
C388 C386 1.378 . S
C388 C389 1.367 . S
C389 C388 1.367 . S
C389 C391 1.433 . S
C390 C386 1.350 . S
C390 C387 1.463 1_556 S
C390 N394 1.427 . S
C391 H381 0.929 . S
C391 C389 1.433 . S
C391 N394 1.384 . S
C392 H383 0.929 . S
C392 C384 1.378 . S
C392 C387 1.350 . S
C393 H380 0.929 . S
C393 C385 1.433 . S
C393 N395 1.384 . S
N394 C390 1.427 . S
N394 C391 1.384 . S
N395 C387 1.427 . S
N395 C393 1.384 . S
H396 C402 0.930 . S
H397 C406 0.930 . S
H398 C411 0.929 . S
H399 C409 0.929 . S
H400 C404 0.929 1_554 S
H401 C410 0.929 1_556 S
C402 H396 0.930 . S
C402 C403 1.367 . S
C402 C410 1.378 . S
C403 C402 1.367 . S
C403 C411 1.433 . S
C404 H400 0.929 1_556 S
C404 C406 1.378 . S
C404 C408 1.350 . S
C405 C408 1.463 1_544 S
C405 C410 1.350 . S
C405 N413 1.428 . S
C406 H397 0.930 . S
C406 C404 1.378 . S
C406 C407 1.367 . S
C407 C406 1.367 . S
C407 C409 1.433 . S
C408 C404 1.350 . S
C408 C405 1.463 1_566 S
C408 N412 1.428 . S
C409 H399 0.929 . S
C409 C407 1.433 . S
C409 N412 1.392 . S
C410 H401 0.929 1_554 S
C410 C402 1.378 . S
C410 C405 1.350 . S
C411 H398 0.929 . S
C411 C403 1.433 . S
C411 N413 1.392 . S
N412 C408 1.428 . S
N412 C409 1.392 . S
N413 C405 1.428 . S
N413 C411 1.392 . S
H414 C420 0.930 . S
H415 C424 0.930 . S
H416 C429 0.929 . S
H417 C427 0.929 . S
H418 C422 0.929 . S
H419 C428 0.929 . S
C420 H414 0.930 . S
C420 C421 1.367 . S
C420 C428 1.378 . S
C421 C420 1.367 . S
C421 C429 1.433 . S
C422 H418 0.929 . S
C422 C424 1.378 . S
C422 C426 1.350 . S
C423 C426 1.463 . S
C423 C428 1.350 . S
C423 N431 1.427 . S
C424 H415 0.930 . S
C424 C422 1.378 . S
C424 C425 1.367 . S
C425 C424 1.367 . S
C425 C427 1.433 . S
C426 C422 1.350 . S
C426 C423 1.463 . S
C426 N430 1.427 . S
C427 H417 0.929 . S
C427 C425 1.433 . S
C427 N430 1.384 . S
C428 H419 0.929 . S
C428 C420 1.378 . S
C428 C423 1.350 . S
C429 H416 0.929 . S
C429 C421 1.433 . S
C429 N431 1.384 . S
N430 C426 1.427 . S
N430 C427 1.384 . S
N431 C423 1.427 . S
N431 C429 1.384 . S
H432 C438 0.930 . S
H433 C442 0.930 . S
H434 C447 0.929 . S
H435 C445 0.929 . S
H436 C440 0.929 . S
H437 C446 0.929 . S
C438 H432 0.930 . S
C438 C439 1.367 . S
C438 C446 1.378 . S
C439 C438 1.367 . S
C439 C447 1.433 . S
C440 H436 0.929 . S
C440 C442 1.378 . S
C440 C444 1.350 . S
C441 C444 1.463 . S
C441 C446 1.350 . S
C441 N449 1.427 . S
C442 H433 0.930 . S
C442 C440 1.378 . S
C442 C443 1.367 . S
C443 C442 1.367 . S
C443 C445 1.433 . S
C444 C440 1.350 . S
C444 C441 1.463 . S
C444 N448 1.427 . S
C445 H435 0.929 . S
C445 C443 1.433 . S
C445 N448 1.384 . S
C446 H437 0.929 . S
C446 C438 1.378 . S
C446 C441 1.350 . S
C447 H434 0.929 . S
C447 C439 1.433 . S
C447 N449 1.384 . S
N448 C444 1.427 . S
N448 C445 1.384 . S
N449 C441 1.427 . S
N449 C447 1.384 . S
H450 C456 0.930 . S
H451 C460 0.930 . S
H452 C465 0.929 . S
H453 C463 0.929 . S
H454 C458 0.929 . S
H455 C464 0.929 . S
C456 H450 0.930 . S
C456 C457 1.367 . S
C456 C464 1.378 . S
C457 C456 1.367 . S
C457 C465 1.433 . S
C458 H454 0.929 . S
C458 C460 1.378 . S
C458 C462 1.350 . S
C459 C462 1.463 . S
C459 C464 1.350 . S
C459 N467 1.427 . S
C460 H451 0.930 . S
C460 C458 1.378 . S
C460 C461 1.367 . S
C461 C460 1.367 . S
C461 C463 1.433 . S
C462 C458 1.350 . S
C462 C459 1.463 . S
C462 N466 1.427 . S
C463 H453 0.929 . S
C463 C461 1.433 . S
C463 N466 1.384 . S
C464 H455 0.929 . S
C464 C456 1.378 . S
C464 C459 1.350 . S
C465 H452 0.929 . S
C465 C457 1.433 . S
C465 N467 1.384 . S
N466 C462 1.427 . S
N466 C463 1.384 . S
N467 C459 1.427 . S
N467 C465 1.384 . S
H468 C474 0.930 . S
H469 C478 0.930 . S
H470 C483 0.929 . S
H471 C481 0.929 . S
H472 C476 0.929 . S
H473 C482 0.929 . S
C474 H468 0.930 . S
C474 C475 1.367 . S
C474 C482 1.378 . S
C475 C474 1.367 . S
C475 C483 1.433 . S
C476 H472 0.929 . S
C476 C478 1.378 . S
C476 C480 1.350 . S
C477 C480 1.463 . S
C477 C482 1.350 . S
C477 N485 1.427 . S
C478 H469 0.930 . S
C478 C476 1.378 . S
C478 C479 1.367 . S
C479 C478 1.367 . S
C479 C481 1.433 . S
C480 C476 1.350 . S
C480 C477 1.463 . S
C480 N484 1.427 . S
C481 H471 0.929 . S
C481 C479 1.433 . S
C481 N484 1.384 . S
C482 H473 0.929 . S
C482 C474 1.378 . S
C482 C477 1.350 . S
C483 H470 0.929 . S
C483 C475 1.433 . S
C483 N485 1.384 . S
N484 C480 1.427 . S
N484 C481 1.384 . S
N485 C477 1.427 . S
N485 C483 1.384 . S
H486 C492 0.930 . S
H487 C496 0.930 . S
H488 C501 0.929 . S
H489 C499 0.929 . S
H490 C494 0.929 . S
H491 C500 0.929 . S
C492 H486 0.930 . S
C492 C493 1.367 . S
C492 C500 1.378 . S
C493 C492 1.367 . S
C493 C501 1.433 . S
C494 H490 0.929 . S
C494 C496 1.378 . S
C494 C498 1.350 . S
C495 C498 1.463 . S
C495 C500 1.350 . S
C495 N503 1.427 . S
C496 H487 0.930 . S
C496 C494 1.378 . S
C496 C497 1.367 . S
C497 C496 1.367 . S
C497 C499 1.433 . S
C498 C494 1.350 . S
C498 C495 1.463 . S
C498 N502 1.427 . S
C499 H489 0.929 . S
C499 C497 1.433 . S
C499 N502 1.384 . S
C500 H491 0.929 . S
C500 C492 1.378 . S
C500 C495 1.350 . S
C501 H488 0.929 . S
C501 C493 1.433 . S
C501 N503 1.384 . S
N502 C498 1.427 . S
N502 C499 1.384 . S
N503 C495 1.427 . S
N503 C501 1.384 . S
H504 C510 0.930 . S
H505 C514 0.930 . S
H506 C519 0.929 . S
H507 C517 0.929 . S
H508 C512 0.929 . S
H509 C518 0.929 . S
C510 H504 0.930 . S
C510 C511 1.367 . S
C510 C518 1.378 . S
C511 C510 1.367 . S
C511 C519 1.433 . S
C512 H508 0.929 . S
C512 C514 1.378 . S
C512 C516 1.350 . S
C513 C516 1.463 . S
C513 C518 1.350 . S
C513 N521 1.427 . S
C514 H505 0.930 . S
C514 C512 1.378 . S
C514 C515 1.367 . S
C515 C514 1.367 . S
C515 C517 1.433 . S
C516 C512 1.350 . S
C516 C513 1.463 . S
C516 N520 1.427 . S
C517 H507 0.929 . S
C517 C515 1.433 . S
C517 N520 1.384 . S
C518 H509 0.929 . S
C518 C510 1.378 . S
C518 C513 1.350 . S
C519 H506 0.929 . S
C519 C511 1.433 . S
C519 N521 1.384 . S
N520 C516 1.427 . S
N520 C517 1.384 . S
N521 C513 1.427 . S
N521 C519 1.384 . S
H522 C528 0.930 . S
H523 C532 0.930 . S
H524 C537 0.929 . S
H525 C535 0.929 . S
H526 C530 0.929 1_655 S
H527 C536 0.929 1_455 S
C528 H522 0.930 . S
C528 C529 1.367 . S
C528 C536 1.378 . S
C529 C528 1.367 . S
C529 C537 1.433 . S
C530 H526 0.929 1_455 S
C530 C532 1.378 . S
C530 C534 1.350 . S
C531 C534 1.463 1_655 S
C531 C536 1.350 . S
C531 N539 1.427 . S
C532 H523 0.930 . S
C532 C530 1.378 . S
C532 C533 1.367 . S
C533 C532 1.367 . S
C533 C535 1.433 . S
C534 C530 1.350 . S
C534 C531 1.463 1_455 S
C534 N538 1.427 . S
C535 H525 0.929 . S
C535 C533 1.433 . S
C535 N538 1.384 . S
C536 H527 0.929 1_655 S
C536 C528 1.378 . S
C536 C531 1.350 . S
C537 H524 0.929 . S
C537 C529 1.433 . S
C537 N539 1.384 . S
N538 C534 1.427 . S
N538 C535 1.384 . S
N539 C531 1.427 . S
N539 C537 1.384 . S
H540 C546 0.930 . S
H541 C550 0.930 . S
H542 C555 0.929 . S
H543 C553 0.929 . S
H544 C548 0.929 . S
H545 C554 0.929 . S
C546 H540 0.930 . S
C546 C547 1.367 . S
C546 C554 1.378 . S
C547 C546 1.367 . S
C547 C555 1.433 . S
C548 H544 0.929 . S
C548 C550 1.378 . S
C548 C552 1.350 . S
C549 C552 1.463 . S
C549 C554 1.350 . S
C549 N557 1.427 . S
C550 H541 0.930 . S
C550 C548 1.378 . S
C550 C551 1.367 . S
C551 C550 1.367 . S
C551 C553 1.433 . S
C552 C548 1.350 . S
C552 C549 1.463 . S
C552 N556 1.427 . S
C553 H543 0.929 . S
C553 C551 1.433 . S
C553 N556 1.384 . S
C554 H545 0.929 . S
C554 C546 1.378 . S
C554 C549 1.350 . S
C555 H542 0.929 . S
C555 C547 1.433 . S
C555 N557 1.384 . S
N556 C552 1.427 . S
N556 C553 1.384 . S
N557 C549 1.427 . S
N557 C555 1.384 . S
H558 C564 0.930 . S
H559 C568 0.930 . S
H560 C573 0.929 . S
H561 C571 0.929 . S
H562 C566 0.929 1_565 S
H563 C572 0.929 1_545 S
C564 H558 0.930 . S
C564 C565 1.367 . S
C564 C572 1.378 . S
C565 C564 1.367 . S
C565 C573 1.433 . S
C566 H562 0.929 1_545 S
C566 C568 1.378 . S
C566 C570 1.350 . S
C567 C570 1.463 1_565 S
C567 C572 1.350 . S
C567 N575 1.427 . S
C568 H559 0.930 . S
C568 C566 1.378 . S
C568 C569 1.367 . S
C569 C568 1.367 . S
C569 C571 1.433 . S
C570 C566 1.350 . S
C570 C567 1.463 1_545 S
C570 N574 1.427 . S
C571 H561 0.929 . S
C571 C569 1.433 . S
C571 N574 1.384 . S
C572 H563 0.929 1_565 S
C572 C564 1.378 . S
C572 C567 1.350 . S
C573 H560 0.929 . S
C573 C565 1.433 . S
C573 N575 1.384 . S
N574 C570 1.427 . S
N574 C571 1.384 . S
N575 C567 1.427 . S
N575 C573 1.384 . S
H576 C582 0.930 . S
H577 C586 0.930 . S
H578 C591 0.929 . S
H579 C589 0.929 . S
H580 C584 0.929 . S
H581 C590 0.929 . S
C582 H576 0.930 . S
C582 C583 1.367 . S
C582 C590 1.378 . S
C583 C582 1.367 . S
C583 C591 1.433 1_554 S
C584 H580 0.929 . S
C584 C586 1.378 . S
C584 C588 1.350 . S
C585 C588 1.463 1_554 S
C585 C590 1.350 . S
C585 N593 1.427 1_554 S
C586 H577 0.930 . S
C586 C584 1.378 . S
C586 C587 1.367 . S
C587 C586 1.367 . S
C587 C589 1.433 1_556 S
C588 C584 1.350 . S
C588 C585 1.463 1_556 S
C588 N592 1.427 1_556 S
C589 H579 0.929 . S
C589 C587 1.433 1_554 S
C589 N592 1.384 . S
C590 H581 0.929 . S
C590 C582 1.378 . S
C590 C585 1.350 . S
C591 H578 0.929 . S
C591 C583 1.433 1_556 S
C591 N593 1.384 . S
N592 C588 1.427 1_554 S
N592 C589 1.384 . S
N593 C585 1.427 1_556 S
N593 C591 1.384 . S
H594 C600 0.930 . S
H595 C604 0.930 . S
H596 C609 0.929 . S
H597 C607 0.929 . S
H598 C602 0.929 . S
H599 C608 0.929 . S
C600 H594 0.930 . S
C600 C601 1.367 . S
C600 C608 1.378 . S
C601 C600 1.367 . S
C601 C609 1.433 1_556 S
C602 H598 0.929 . S
C602 C604 1.378 . S
C602 C606 1.350 . S
C603 C606 1.463 1_546 S
C603 C608 1.350 . S
C603 N611 1.427 1_556 S
C604 H595 0.930 . S
C604 C602 1.378 . S
C604 C605 1.367 . S
C605 C604 1.367 . S
C605 C607 1.433 1_554 S
C606 C602 1.350 . S
C606 C603 1.463 1_564 S
C606 N610 1.427 1_554 S
C607 H597 0.929 . S
C607 C605 1.433 1_556 S
C607 N610 1.384 . S
C608 H599 0.929 . S
C608 C600 1.378 . S
C608 C603 1.350 . S
C609 H596 0.929 . S
C609 C601 1.433 1_554 S
C609 N611 1.384 . S
N610 C606 1.427 1_556 S
N610 C607 1.384 . S
N611 C603 1.427 1_554 S
N611 C609 1.384 . S
H612 C618 0.930 . S
H613 C622 0.930 . S
H614 C627 0.929 . S
H615 C625 0.929 . S
H616 C620 0.929 . S
H617 C626 0.929 . S
C618 H612 0.930 . S
C618 C619 1.367 1_554 S
C618 C626 1.378 . S
C619 C618 1.367 1_556 S
C619 C627 1.433 . S
C620 H616 0.929 . S
C620 C622 1.378 . S
C620 C624 1.350 1_556 S
C621 C624 1.463 1_656 S
C621 C626 1.350 1_556 S
C621 N629 1.427 . S
C622 H613 0.930 . S
C622 C620 1.378 . S
C622 C623 1.367 1_556 S
C623 C622 1.367 1_554 S
C623 C625 1.433 . S
C624 C620 1.350 1_554 S
C624 C621 1.463 1_454 S
C624 N628 1.427 . S
C625 H615 0.929 . S
C625 C623 1.433 . S
C625 N628 1.384 . S
C626 H617 0.929 . S
C626 C618 1.378 . S
C626 C621 1.350 1_554 S
C627 H614 0.929 . S
C627 C619 1.433 . S
C627 N629 1.384 . S
N628 C624 1.427 . S
N628 C625 1.384 . S
N629 C621 1.427 . S
N629 C627 1.384 . S
H630 C636 0.930 . S
H631 C640 0.930 . S
H632 C645 0.929 . S
H633 C643 0.929 . S
H634 C638 0.929 1_556 S
H635 C644 0.929 1_554 S
C636 H630 0.930 . S
C636 C637 1.367 . S
C636 C644 1.378 . S
C637 C636 1.367 . S
C637 C645 1.433 . S
C638 H634 0.929 1_554 S
C638 C640 1.378 . S
C638 C642 1.350 . S
C639 C642 1.463 1_556 S
C639 C644 1.350 . S
C639 N647 1.427 . S
C640 H631 0.930 . S
C640 C638 1.378 . S
C640 C641 1.367 . S
C641 C640 1.367 . S
C641 C643 1.433 . S
C642 C638 1.350 . S
C642 C639 1.463 1_554 S
C642 N646 1.427 . S
C643 H633 0.929 . S
C643 C641 1.433 . S
C643 N646 1.384 . S
C644 H635 0.929 1_556 S
C644 C636 1.378 . S
C644 C639 1.350 . S
C645 H632 0.929 . S
C645 C637 1.433 . S
C645 N647 1.384 . S
N646 C642 1.427 . S
N646 C643 1.384 . S
N647 C639 1.427 . S
N647 C645 1.384 . S
H648 C654 0.930 . S
H649 C658 0.930 . S
H650 C663 0.929 . S
H651 C661 0.929 . S
H652 C656 0.929 . S
H653 C662 0.929 . S
C654 H648 0.930 . S
C654 C655 1.367 1_556 S
C654 C662 1.378 . S
C655 C654 1.367 1_554 S
C655 C663 1.433 . S
C656 H652 0.929 . S
C656 C658 1.378 . S
C656 C660 1.350 1_554 S
C657 C660 1.463 1_564 S
C657 C662 1.350 1_554 S
C657 N665 1.427 . S
C658 H649 0.930 . S
C658 C656 1.378 . S
C658 C659 1.367 1_554 S
C659 C658 1.367 1_556 S
C659 C661 1.433 . S
C660 C656 1.350 1_556 S
C660 C657 1.463 1_546 S
C660 N664 1.427 . S
C661 H651 0.929 . S
C661 C659 1.433 . S
C661 N664 1.384 . S
C662 H653 0.929 . S
C662 C654 1.378 . S
C662 C657 1.350 1_556 S
C663 H650 0.929 . S
C663 C655 1.433 . S
C663 N665 1.384 . S
N664 C660 1.427 . S
N664 C661 1.384 . S
N665 C657 1.427 . S
N665 C663 1.384 . S
H666 C672 0.930 . S
H667 C676 0.930 . S
H668 C681 0.929 . S
H669 C679 0.929 . S
H670 C674 0.929 . S
H671 C680 0.929 . S
C672 H666 0.930 . S
C672 C673 1.367 1_554 S
C672 C680 1.378 . S
C673 C672 1.367 1_556 S
C673 C681 1.433 . S
C674 H670 0.929 . S
C674 C676 1.378 . S
C674 C678 1.350 1_556 S
C675 C678 1.463 1_656 S
C675 C680 1.350 1_556 S
C675 N683 1.427 . S
C676 H667 0.930 . S
C676 C674 1.378 . S
C676 C677 1.367 1_556 S
C677 C676 1.367 1_554 S
C677 C679 1.433 . S
C678 C674 1.350 1_554 S
C678 C675 1.463 1_454 S
C678 N682 1.427 . S
C679 H669 0.929 . S
C679 C677 1.433 . S
C679 N682 1.384 . S
C680 H671 0.929 . S
C680 C672 1.378 . S
C680 C675 1.350 1_554 S
C681 H668 0.929 . S
C681 C673 1.433 . S
C681 N683 1.384 . S
N682 C678 1.427 . S
N682 C679 1.384 . S
N683 C675 1.427 . S
N683 C681 1.384 . S
H684 C690 0.930 . S
H685 C694 0.930 . S
H686 C699 0.929 . S
H687 C697 0.929 . S
H688 C692 0.929 . S
H689 C698 0.929 . S
C690 H684 0.930 . S
C690 C691 1.367 . S
C690 C698 1.378 . S
C691 C690 1.367 . S
C691 C699 1.433 . S
C692 H688 0.929 . S
C692 C694 1.378 . S
C692 C696 1.350 . S
C693 C696 1.463 . S
C693 C698 1.350 . S
C693 N701 1.427 . S
C694 H685 0.930 . S
C694 C692 1.378 . S
C694 C695 1.367 . S
C695 C694 1.367 . S
C695 C697 1.433 . S
C696 C692 1.350 . S
C696 C693 1.463 . S
C696 N700 1.427 . S
C697 H687 0.929 . S
C697 C695 1.433 . S
C697 N700 1.384 . S
C698 H689 0.929 . S
C698 C690 1.378 . S
C698 C693 1.350 . S
C699 H686 0.929 . S
C699 C691 1.433 . S
C699 N701 1.384 . S
N700 C696 1.427 . S
N700 C697 1.384 . S
N701 C693 1.427 . S
N701 C699 1.384 . S
H702 C708 0.930 . S
H703 C712 0.930 . S
H704 C717 0.929 . S
H705 C715 0.929 . S
H706 C710 0.929 . S
H707 C716 0.929 . S
C708 H702 0.930 . S
C708 C709 1.367 . S
C708 C716 1.378 . S
C709 C708 1.367 . S
C709 C717 1.433 . S
C710 H706 0.929 . S
C710 C712 1.378 . S
C710 C714 1.350 . S
C711 C714 1.463 . S
C711 C716 1.350 . S
C711 N719 1.427 . S
C712 H703 0.930 . S
C712 C710 1.378 . S
C712 C713 1.367 . S
C713 C712 1.367 . S
C713 C715 1.433 . S
C714 C710 1.350 . S
C714 C711 1.463 . S
C714 N718 1.427 . S
C715 H705 0.929 . S
C715 C713 1.433 . S
C715 N718 1.384 . S
C716 H707 0.929 . S
C716 C708 1.378 . S
C716 C711 1.350 . S
C717 H704 0.929 . S
C717 C709 1.433 . S
C717 N719 1.384 . S
N718 C714 1.427 . S
N718 C715 1.384 . S
N719 C711 1.427 . S
N719 C717 1.384 . S
H720 C726 0.930 . S
H721 C730 0.930 . S
H722 C735 0.929 . S
H723 C733 0.929 . S
H724 C728 0.929 . S
H725 C734 0.929 . S
C726 H720 0.930 . S
C726 C727 1.367 . S
C726 C734 1.378 . S
C727 C726 1.367 . S
C727 C735 1.433 . S
C728 H724 0.929 . S
C728 C730 1.378 . S
C728 C732 1.350 . S
C729 C732 1.463 . S
C729 C734 1.350 . S
C729 N737 1.427 . S
C730 H721 0.930 . S
C730 C728 1.378 . S
C730 C731 1.367 . S
C731 C730 1.367 . S
C731 C733 1.433 . S
C732 C728 1.350 . S
C732 C729 1.463 . S
C732 N736 1.427 . S
C733 H723 0.929 . S
C733 C731 1.433 . S
C733 N736 1.384 . S
C734 H725 0.929 . S
C734 C726 1.378 . S
C734 C729 1.350 . S
C735 H722 0.929 . S
C735 C727 1.433 . S
C735 N737 1.384 . S
N736 C732 1.427 . S
N736 C733 1.384 . S
N737 C729 1.427 . S
N737 C735 1.384 . S
H738 C744 0.930 . S
H739 C748 0.930 . S
H740 C753 0.929 . S
H741 C751 0.929 . S
H742 C746 0.929 . S
H743 C752 0.929 . S
C744 H738 0.930 . S
C744 C745 1.367 . S
C744 C752 1.378 . S
C745 C744 1.367 . S
C745 C753 1.433 . S
C746 H742 0.929 . S
C746 C748 1.378 . S
C746 C750 1.350 . S
C747 C750 1.463 . S
C747 C752 1.350 . S
C747 N755 1.427 . S
C748 H739 0.930 . S
C748 C746 1.378 . S
C748 C749 1.367 . S
C749 C748 1.367 . S
C749 C751 1.433 . S
C750 C746 1.350 . S
C750 C747 1.463 . S
C750 N754 1.427 . S
C751 H741 0.929 . S
C751 C749 1.433 . S
C751 N754 1.384 . S
C752 H743 0.929 . S
C752 C744 1.378 . S
C752 C747 1.350 . S
C753 H740 0.929 . S
C753 C745 1.433 . S
C753 N755 1.384 . S
N754 C750 1.427 . S
N754 C751 1.384 . S
N755 C747 1.427 . S
N755 C753 1.384 . S
H756 C762 0.930 . S
H757 C766 0.930 . S
H758 C771 0.929 . S
H759 C769 0.929 . S
H760 C764 0.929 . S
H761 C770 0.929 . S
C762 H756 0.930 . S
C762 C763 1.367 . S
C762 C770 1.378 . S
C763 C762 1.367 . S
C763 C771 1.433 . S
C764 H760 0.929 . S
C764 C766 1.378 . S
C764 C768 1.350 . S
C765 C768 1.463 . S
C765 C770 1.350 . S
C765 N773 1.427 . S
C766 H757 0.930 . S
C766 C764 1.378 . S
C766 C767 1.367 . S
C767 C766 1.367 . S
C767 C769 1.433 . S
C768 C764 1.350 . S
C768 C765 1.463 . S
C768 N772 1.427 . S
C769 H759 0.929 . S
C769 C767 1.433 . S
C769 N772 1.384 . S
C770 H761 0.929 . S
C770 C762 1.378 . S
C770 C765 1.350 . S
C771 H758 0.929 . S
C771 C763 1.433 . S
C771 N773 1.384 . S
N772 C768 1.427 . S
N772 C769 1.384 . S
N773 C765 1.427 . S
N773 C771 1.384 . S
H774 C780 0.930 . S
H775 C784 0.930 . S
H776 C789 0.929 . S
H777 C787 0.929 . S
H778 C782 0.929 . S
H779 C788 0.929 . S
C780 H774 0.930 . S
C780 C781 1.367 . S
C780 C788 1.378 . S
C781 C780 1.367 . S
C781 C789 1.433 . S
C782 H778 0.929 . S
C782 C784 1.378 . S
C782 C786 1.350 . S
C783 C786 1.463 . S
C783 C788 1.350 . S
C783 N791 1.427 . S
C784 H775 0.930 . S
C784 C782 1.378 . S
C784 C785 1.367 . S
C785 C784 1.367 . S
C785 C787 1.433 . S
C786 C782 1.350 . S
C786 C783 1.463 . S
C786 N790 1.427 . S
C787 H777 0.929 . S
C787 C785 1.433 . S
C787 N790 1.384 . S
C788 H779 0.929 . S
C788 C780 1.378 . S
C788 C783 1.350 . S
C789 H776 0.929 . S
C789 C781 1.433 . S
C789 N791 1.384 . S
N790 C786 1.427 . S
N790 C787 1.384 . S
N791 C783 1.427 . S
N791 C789 1.384 . S
H792 C798 0.930 . S
H793 C802 0.930 . S
H794 C807 0.929 . S
H795 C805 0.929 . S
H796 C800 0.929 . S
H797 C806 0.929 . S
C798 H792 0.930 . S
C798 C799 1.367 . S
C798 C806 1.378 . S
C799 C798 1.367 . S
C799 C807 1.433 . S
C800 H796 0.929 . S
C800 C802 1.378 . S
C800 C804 1.350 . S
C801 C804 1.463 . S
C801 C806 1.350 . S
C801 N809 1.427 . S
C802 H793 0.930 . S
C802 C800 1.378 . S
C802 C803 1.367 . S
C803 C802 1.367 . S
C803 C805 1.433 . S
C804 C800 1.350 . S
C804 C801 1.463 . S
C804 N808 1.427 . S
C805 H795 0.929 . S
C805 C803 1.433 . S
C805 N808 1.384 . S
C806 H797 0.929 . S
C806 C798 1.378 . S
C806 C801 1.350 . S
C807 H794 0.929 . S
C807 C799 1.433 . S
C807 N809 1.384 . S
N808 C804 1.427 . S
N808 C805 1.384 . S
N809 C801 1.427 . S
N809 C807 1.384 . S
H810 C816 0.930 . S
H811 C820 0.930 . S
H812 C825 0.929 . S
H813 C823 0.929 . S
H814 C818 0.929 . S
H815 C824 0.929 . S
C816 H810 0.930 . S
C816 C817 1.367 . S
C816 C824 1.378 . S
C817 C816 1.367 . S
C817 C825 1.433 . S
C818 H814 0.929 . S
C818 C820 1.378 . S
C818 C822 1.350 . S
C819 C822 1.463 . S
C819 C824 1.350 . S
C819 N827 1.427 . S
C820 H811 0.930 . S
C820 C818 1.378 . S
C820 C821 1.367 . S
C821 C820 1.367 . S
C821 C823 1.433 . S
C822 C818 1.350 . S
C822 C819 1.463 . S
C822 N826 1.427 . S
C823 H813 0.929 . S
C823 C821 1.433 . S
C823 N826 1.384 . S
C824 H815 0.929 . S
C824 C816 1.378 . S
C824 C819 1.350 . S
C825 H812 0.929 . S
C825 C817 1.433 . S
C825 N827 1.384 . S
N826 C822 1.427 . S
N826 C823 1.384 . S
N827 C819 1.427 . S
N827 C825 1.384 . S
H828 C834 0.930 . S
H829 C838 0.930 . S
H830 C843 0.929 . S
H831 C841 0.929 . S
H832 C836 0.929 . S
H833 C842 0.929 . S
C834 H828 0.930 . S
C834 C835 1.367 . S
C834 C842 1.378 . S
C835 C834 1.367 . S
C835 C843 1.433 . S
C836 H832 0.929 . S
C836 C838 1.378 . S
C836 C840 1.350 . S
C837 C840 1.463 . S
C837 C842 1.350 . S
C837 N845 1.427 . S
C838 H829 0.930 . S
C838 C836 1.378 . S
C838 C839 1.367 . S
C839 C838 1.367 . S
C839 C841 1.433 . S
C840 C836 1.350 . S
C840 C837 1.463 . S
C840 N844 1.427 . S
C841 H831 0.929 . S
C841 C839 1.433 . S
C841 N844 1.384 . S
C842 H833 0.929 . S
C842 C834 1.378 . S
C842 C837 1.350 . S
C843 H830 0.929 . S
C843 C835 1.433 . S
C843 N845 1.384 . S
N844 C840 1.427 . S
N844 C841 1.384 . S
N845 C837 1.427 . S
N845 C843 1.384 . S
H846 C852 0.930 . S
H847 C856 0.930 . S
H848 C861 0.929 . S
H849 C859 0.929 . S
H850 C854 0.929 . S
H851 C860 0.929 . S
C852 H846 0.930 . S
C852 C853 1.367 . S
C852 C860 1.378 . S
C853 C852 1.367 . S
C853 C861 1.433 . S
C854 H850 0.929 . S
C854 C856 1.378 . S
C854 C858 1.350 . S
C855 C858 1.463 . S
C855 C860 1.350 . S
C855 N863 1.427 . S
C856 H847 0.930 . S
C856 C854 1.378 . S
C856 C857 1.367 . S
C857 C856 1.367 . S
C857 C859 1.433 . S
C858 C854 1.350 . S
C858 C855 1.463 . S
C858 N862 1.427 . S
C859 H849 0.929 . S
C859 C857 1.433 . S
C859 N862 1.384 . S
C860 H851 0.929 . S
C860 C852 1.378 . S
C860 C855 1.350 . S
C861 H848 0.929 . S
C861 C853 1.433 . S
C861 N863 1.384 . S
N862 C858 1.427 . S
N862 C859 1.384 . S
N863 C855 1.427 . S
N863 C861 1.384 . S
H864 C870 0.930 . S
H865 C874 0.930 . S
H866 C879 0.929 . S
H867 C877 0.929 . S
H868 C872 0.929 . S
H869 C878 0.929 . S
C870 H864 0.930 . S
C870 C871 1.367 . S
C870 C878 1.378 . S
C871 C870 1.367 . S
C871 C879 1.433 . S
C872 H868 0.929 . S
C872 C874 1.378 . S
C872 C876 1.350 . S
C873 C876 1.463 . S
C873 C878 1.350 . S
C873 N881 1.427 . S
C874 H865 0.930 . S
C874 C872 1.378 . S
C874 C875 1.367 . S
C875 C874 1.367 . S
C875 C877 1.433 . S
C876 C872 1.350 . S
C876 C873 1.463 . S
C876 N880 1.427 . S
C877 H867 0.929 . S
C877 C875 1.433 . S
C877 N880 1.384 . S
C878 H869 0.929 . S
C878 C870 1.378 . S
C878 C873 1.350 . S
C879 H866 0.929 . S
C879 C871 1.433 . S
C879 N881 1.384 . S
N880 C876 1.427 . S
N880 C877 1.384 . S
N881 C873 1.427 . S
N881 C879 1.384 . S
H882 C888 0.930 . S
H883 C892 0.930 . S
H884 C897 0.929 . S
H885 C895 0.929 . S
H886 C890 0.929 . S
H887 C896 0.929 . S
C888 H882 0.930 . S
C888 C889 1.367 . S
C888 C896 1.378 . S
C889 C888 1.367 . S
C889 C897 1.433 . S
C890 H886 0.929 . S
C890 C892 1.378 . S
C890 C894 1.350 . S
C891 C894 1.463 . S
C891 C896 1.350 . S
C891 N899 1.427 . S
C892 H883 0.930 . S
C892 C890 1.378 . S
C892 C893 1.367 . S
C893 C892 1.367 . S
C893 C895 1.433 . S
C894 C890 1.350 . S
C894 C891 1.463 . S
C894 N898 1.427 . S
C895 H885 0.929 . S
C895 C893 1.433 . S
C895 N898 1.384 . S
C896 H887 0.929 . S
C896 C888 1.378 . S
C896 C891 1.350 . S
C897 H884 0.929 . S
C897 C889 1.433 . S
C897 N899 1.384 . S
N898 C894 1.427 . S
N898 C895 1.384 . S
N899 C891 1.427 . S
N899 C897 1.384 . S
C259 C249 1.620 . S
C263 C11 1.626 . S
C277 C221 1.621 . S
C281 C25 1.628 . S
C295 C235 1.630 . S
C299 C39 1.623 . S
C313 C109 1.625 . S
C317 C53 1.630 . S
C331 C123 1.622 . S
C335 C67 1.629 . S
C349 C81 1.629 . S
C353 C95 1.629 . S
C367 C137 1.625 . S
C371 C193 1.620 . S
C385 C151 1.621 . S
C389 C207 1.623 . S
C403 C165 1.630 . S
C407 C179 1.626 . S
C421 C4 1.193 . S
C425 C242 1.187 . S
C439 C214 1.186 . S
C443 C18 1.197 . S
C457 C32 1.198 . S
C461 C228 1.185 . S
C475 C102 1.194 . S
C479 C46 1.198 . S
C493 C60 1.199 . S
C497 C116 1.193 . S
C511 C74 1.193 . S
C515 C88 1.187 . S
C529 C130 1.198 . S
C533 C186 1.186 . S
C547 C200 1.194 . S
C551 C144 1.199 . S
C565 C172 1.186 . S
C569 C158 1.197 . S
C583 C5 1.295 . S
C587 C47 1.307 . S
C601 C61 1.295 . S
C605 C19 1.306 . S
C619 C75 1.319 . S
C623 C33 1.321 . S
C637 C82 1.449 . S
C641 C26 1.449 . S
C655 C40 1.447 . S
C659 C54 1.447 . S
C673 C68 1.447 . S
C677 C12 1.447 . S
C691 C89 1.296 . S
C695 C131 1.311 . S
C709 C145 1.321 . S
C713 C103 1.304 . S
C727 C159 1.312 . S
C731 C117 1.296 . S
C745 C166 1.449 . S
C749 C110 1.449 . S
C763 C124 1.451 . S
C767 C138 1.451 . S
C781 C152 1.448 . S
C785 C96 1.448 . S
C799 C215 1.322 . S
C803 C173 1.317 . S
C817 C229 1.323 . S
C821 C187 1.310 . S
C835 C201 1.298 . S
C839 C243 1.316 . S
C853 C250 1.450 . S
C857 C194 1.450 . S
C871 C208 1.448 . S
C875 C222 1.448 . S
C889 C236 1.449 . S
C893 C180 1.449 . S
