# Generated by pormake.
# Topology wio, (6)-cn, num edge types: 1
# Building blocks:
#     Node 0, Type 0, BuildingBlock: BETFAJ_clean_sbu_0, # of connection points: 6
#     Node 1, Type 0, BuildingBlock: BETFAJ_clean_sbu_0, # of connection points: 6
#     Node 2, Type 0, BuildingBlock: BETFAJ_clean_sbu_0, # of connection points: 6
#     Node 3, Type 0, BuildingBlock: BETFAJ_clean_sbu_0, # of connection points: 6
#     Node 4, Type 0, BuildingBlock: BETFAJ_clean_sbu_0, # of connection points: 6
#     Node 5, Type 0, BuildingBlock: BETFAJ_clean_sbu_0, # of connection points: 6
#     Node 6, Type 0, BuildingBlock: BETFAJ_clean_sbu_0, # of connection points: 6
#     Node 7, Type 0, BuildingBlock: BETFAJ_clean_sbu_0, # of connection points: 6
#     Node 8, Type 0, BuildingBlock: BETFAJ_clean_sbu_0, # of connection points: 6
#     Node 9, Type 0, BuildingBlock: BETFAJ_clean_sbu_0, # of connection points: 6
#     Node 10, Type 0, BuildingBlock: BETFAJ_clean_sbu_0, # of connection points: 6
#     Node 11, Type 0, BuildingBlock: BETFAJ_clean_sbu_0, # of connection points: 6
#     Node 12, Type 0, BuildingBlock: BETFAJ_clean_sbu_0, # of connection points: 6
#     Node 13, Type 0, BuildingBlock: BETFAJ_clean_sbu_0, # of connection points: 6
#     Node 14, Type 0, BuildingBlock: BETFAJ_clean_sbu_0, # of connection points: 6
#     Node 15, Type 0, BuildingBlock: BETFAJ_clean_sbu_0, # of connection points: 6
#     Node 16, Type 0, BuildingBlock: BETFAJ_clean_sbu_0, # of connection points: 6
#     Node 17, Type 0, BuildingBlock: BETFAJ_clean_sbu_0, # of connection points: 6
#     Node 18, Type 0, BuildingBlock: BETFAJ_clean_sbu_0, # of connection points: 6
#     Node 19, Type 0, BuildingBlock: BETFAJ_clean_sbu_0, # of connection points: 6
#     Node 20, Type 0, BuildingBlock: BETFAJ_clean_sbu_0, # of connection points: 6
#     Node 21, Type 0, BuildingBlock: BETFAJ_clean_sbu_0, # of connection points: 6
#     Node 22, Type 0, BuildingBlock: BETFAJ_clean_sbu_0, # of connection points: 6
#     Node 23, Type 0, BuildingBlock: BETFAJ_clean_sbu_0, # of connection points: 6
#     Node 24, Type 0, BuildingBlock: BETFAJ_clean_sbu_0, # of connection points: 6
#     Node 25, Type 0, BuildingBlock: BETFAJ_clean_sbu_0, # of connection points: 6
#     Node 26, Type 0, BuildingBlock: BETFAJ_clean_sbu_0, # of connection points: 6
#     Node 27, Type 0, BuildingBlock: BETFAJ_clean_sbu_0, # of connection points: 6
#     Node 28, Type 0, BuildingBlock: BETFAJ_clean_sbu_0, # of connection points: 6
#     Node 29, Type 0, BuildingBlock: BETFAJ_clean_sbu_0, # of connection points: 6
#     Node 30, Type 0, BuildingBlock: BETFAJ_clean_sbu_0, # of connection points: 6
#     Node 31, Type 0, BuildingBlock: BETFAJ_clean_sbu_0, # of connection points: 6
#     Edge 32, Type (0, 0), None
#     Edge 33, Type (0, 0), None
#     Edge 34, Type (0, 0), None
#     Edge 35, Type (0, 0), None
#     Edge 36, Type (0, 0), None
#     Edge 37, Type (0, 0), None
#     Edge 38, Type (0, 0), None
#     Edge 39, Type (0, 0), None
#     Edge 40, Type (0, 0), None
#     Edge 41, Type (0, 0), None
#     Edge 42, Type (0, 0), None
#     Edge 43, Type (0, 0), None
#     Edge 44, Type (0, 0), None
#     Edge 45, Type (0, 0), None
#     Edge 46, Type (0, 0), None
#     Edge 47, Type (0, 0), None
#     Edge 48, Type (0, 0), None
#     Edge 49, Type (0, 0), None
#     Edge 50, Type (0, 0), None
#     Edge 51, Type (0, 0), None
#     Edge 52, Type (0, 0), None
#     Edge 53, Type (0, 0), None
#     Edge 54, Type (0, 0), None
#     Edge 55, Type (0, 0), None
#     Edge 56, Type (0, 0), None
#     Edge 57, Type (0, 0), None
#     Edge 58, Type (0, 0), None
#     Edge 59, Type (0, 0), None
#     Edge 60, Type (0, 0), None
#     Edge 61, Type (0, 0), None
#     Edge 62, Type (0, 0), None
#     Edge 63, Type (0, 0), None
#     Edge 64, Type (0, 0), None
#     Edge 65, Type (0, 0), None
#     Edge 66, Type (0, 0), None
#     Edge 67, Type (0, 0), None
#     Edge 68, Type (0, 0), None
#     Edge 69, Type (0, 0), None
#     Edge 70, Type (0, 0), None
#     Edge 71, Type (0, 0), None
#     Edge 72, Type (0, 0), None
#     Edge 73, Type (0, 0), None
#     Edge 74, Type (0, 0), None
#     Edge 75, Type (0, 0), None
#     Edge 76, Type (0, 0), None
#     Edge 77, Type (0, 0), None
#     Edge 78, Type (0, 0), None
#     Edge 79, Type (0, 0), None
#     Edge 80, Type (0, 0), None
#     Edge 81, Type (0, 0), None
#     Edge 82, Type (0, 0), None
#     Edge 83, Type (0, 0), None
#     Edge 84, Type (0, 0), None
#     Edge 85, Type (0, 0), None
#     Edge 86, Type (0, 0), None
#     Edge 87, Type (0, 0), None
#     Edge 88, Type (0, 0), None
#     Edge 89, Type (0, 0), None
#     Edge 90, Type (0, 0), None
#     Edge 91, Type (0, 0), None
#     Edge 92, Type (0, 0), None
#     Edge 93, Type (0, 0), None
#     Edge 94, Type (0, 0), None
#     Edge 95, Type (0, 0), None
#     Edge 96, Type (0, 0), None
#     Edge 97, Type (0, 0), None
#     Edge 98, Type (0, 0), None
#     Edge 99, Type (0, 0), None
#     Edge 100, Type (0, 0), None
#     Edge 101, Type (0, 0), None
#     Edge 102, Type (0, 0), None
#     Edge 103, Type (0, 0), None
#     Edge 104, Type (0, 0), None
#     Edge 105, Type (0, 0), None
#     Edge 106, Type (0, 0), None
#     Edge 107, Type (0, 0), None
#     Edge 108, Type (0, 0), None
#     Edge 109, Type (0, 0), None
#     Edge 110, Type (0, 0), None
#     Edge 111, Type (0, 0), None
#     Edge 112, Type (0, 0), None
#     Edge 113, Type (0, 0), None
#     Edge 114, Type (0, 0), None
#     Edge 115, Type (0, 0), None
#     Edge 116, Type (0, 0), None
#     Edge 117, Type (0, 0), None
#     Edge 118, Type (0, 0), None
#     Edge 119, Type (0, 0), None
#     Edge 120, Type (0, 0), None
#     Edge 121, Type (0, 0), None
#     Edge 122, Type (0, 0), None
#     Edge 123, Type (0, 0), None
#     Edge 124, Type (0, 0), None
#     Edge 125, Type (0, 0), None
#     Edge 126, Type (0, 0), None
#     Edge 127, Type (0, 0), None
# Relax obj value: 0.283
# Max RMSD: 0.265
# Mean RMSD: 0.265
data_MOF--net-wio--node1-BETFAJ_clean_sbu_0--edge1-none
_symmetry_space_group_name_H-M    P1
_symmetry_Int_Tables_number       1
_symmetry_cell_setting            triclinic
loop_
_symmetry_equiv_pos_as_xyz
'x, y, z'
_cell_length_a     33.356504
_cell_length_b     33.30241
_cell_length_c     28.687244
_cell_angle_alpha  90.146319
_cell_angle_beta   90.097645
_cell_angle_gamma 90.117575
loop_
_atom_site_label
_atom_site_type_symbol
_atom_site_fract_x
_atom_site_fract_y
_atom_site_fract_z
_atom_type_partial_charge
Sm0 Sm 0.20735 0.1469 0.32286 0.0
Sm1 Sm 0.1199 0.14405 0.32511 0.0
C2 C 0.28136 0.12135 0.32154 0.0
C3 C 0.31204 0.12987 0.28685 0.0
C4 C 0.31127 0.10851 0.24485 0.0
C5 C 0.33355 0.12187 0.20776 0.0
C6 C 0.35803 0.15606 0.21226 0.0
C7 C 0.35994 0.17715 0.25412 0.0
C8 C 0.3371 0.16386 0.29168 0.0
C9 C 0.18684 0.2213 0.35536 0.0
C10 C 0.16532 0.17012 0.22411 0.0
C11 C 0.04657 0.1586 0.35726 0.0
C12 C 1.02796 0.1575 0.4047 0.0
C13 C 1.03424 0.18848 0.43775 0.0
C14 C 1.01625 0.18692 0.48217 0.0
C15 C 0.99256 0.15384 0.49497 0.0
C16 C 0.98643 0.12302 0.46193 0.0
C17 C 1.00346 0.12502 0.41741 0.0
C18 C 0.15109 0.06655 0.31487 0.0
C19 C 0.17217 0.13241 0.42202 0.0
O20 O 0.25115 0.09921 0.3072 0.0
O21 O 0.27016 0.15243 0.34596 0.0
O22 O 0.16209 0.19359 0.34509 0.0
O23 O 0.22185 0.21273 0.33832 0.0
O24 O 0.19896 0.16136 0.24557 0.0
O25 O 0.13023 0.16604 0.2464 0.0
O26 O 0.07299 0.18672 0.34934 0.0
O27 O 0.05686 0.12434 0.33846 0.0
O28 O 0.16469 0.09463 0.3405 0.0
O29 O 0.12079 0.08064 0.29107 0.0
O30 O 0.13735 0.12664 0.40106 0.0
O31 O 0.2031 0.14577 0.39962 0.0
H32 H 0.29203 0.0826 0.2397 0.0
H33 H 0.33113 0.10558 0.17505 0.0
H34 H 0.37881 0.2035 0.25766 0.0
H35 H 0.33781 0.18101 0.32379 0.0
H36 H 0.05284 0.21412 0.42927 0.0
H37 H 1.02096 0.21142 0.50647 0.0
H38 H 0.96734 0.09762 0.47004 0.0
H39 H 0.99737 0.10101 0.39283 0.0
Sm40 Sm 0.19207 0.95804 0.57297 0.0
Sm41 Sm 0.1948 0.87065 0.57508 0.0
C42 C 0.21758 1.03227 0.57167 0.0
C43 C 0.20902 0.06291 0.53692 0.0
C44 C 0.23039 0.06224 0.49506 0.0
C45 C 0.2171 0.0845 0.45791 0.0
C46 C 0.18295 0.10889 0.46219 0.0
C47 C 0.16181 0.11066 0.5039 0.0
C48 C 0.17504 0.08782 0.54152 0.0
C49 C 0.11784 0.93752 0.60551 0.0
C50 C 0.16876 0.91601 0.47406 0.0
C51 C 0.18022 0.79718 0.60717 0.0
C52 C 0.1812 0.77866 0.65466 0.0
C53 C 0.1503 0.78504 0.68755 0.0
C54 C 0.15179 0.76714 0.73202 0.0
C55 C 0.18472 0.74345 0.74506 0.0
C56 C 0.21547 0.73723 0.71218 0.0
C57 C 0.21353 0.75416 0.6676 0.0
C58 C 0.27222 0.90184 0.56483 0.0
C59 C 0.2067 0.92294 0.67207 0.0
O60 O 0.23967 1.00208 0.55743 0.0
O61 O 0.18661 1.02095 0.59602 0.0
O62 O 0.14535 0.91265 0.5954 0.0
O63 O 0.12647 0.97253 0.58838 0.0
O64 O 0.17749 0.94971 0.49563 0.0
O65 O 0.17278 0.88088 0.49632 0.0
O66 O 0.15213 0.82347 0.59892 0.0
O67 O 0.21446 0.80763 0.58867 0.0
O68 O 0.24438 0.91556 0.59055 0.0
O69 O 0.25789 0.87157 0.54093 0.0
O70 O 0.21238 0.88812 0.65106 0.0
O71 O 0.19342 0.95392 0.64971 0.0
H72 H 0.25628 1.04309 0.49006 0.0
H73 H 0.23341 0.08213 0.42531 0.0
H74 H 0.13548 0.12943 0.50727 0.0
H75 H 0.15786 0.08844 0.57351 0.0
H76 H 0.12479 0.80367 0.6789 0.0
H77 H 0.12735 0.77192 0.7562 0.0
H78 H 0.24075 0.71815 0.72046 0.0
H79 H 0.23747 0.74799 0.64315 0.0
Sm80 Sm 0.38111 0.94246 0.82293 0.0
Sm81 Sm 0.46807 0.94561 0.82514 0.0
C82 C 0.30709 0.96804 0.82203 0.0
C83 C 0.27631 0.95977 0.78722 0.0
C84 C 0.27725 0.98105 0.7453 0.0
C85 C 0.25492 0.96777 0.70805 0.0
C86 C 0.23023 0.93373 0.71232 0.0
C87 C 0.22813 0.91274 0.75411 0.0
C88 C 0.25102 0.92597 0.79182 0.0
C89 C 0.40146 0.86814 0.85536 0.0
C90 C 0.42272 0.91952 0.72395 0.0
C91 C 0.54153 0.93111 0.85704 0.0
C92 C 0.56025 0.93203 0.90448 0.0
C93 C 0.55384 0.90109 0.93735 0.0
C94 C 0.57188 0.90259 0.98182 0.0
C95 C 0.59572 0.93557 0.99484 0.0
C96 C 0.60198 0.96634 0.96197 0.0
C97 C 0.58492 0.96439 0.9174 0.0
C98 C 0.43695 1.02304 0.81501 0.0
C99 C 0.41627 0.95722 0.9221 0.0
O100 O 0.33727 0.99027 0.80805 0.0
O101 O 0.31837 0.93677 0.84591 0.0
O102 O 0.42642 0.89575 0.84559 0.0
O103 O 0.36656 0.87669 0.83789 0.0
O104 O 0.38911 0.92806 0.74549 0.0
O105 O 0.45781 0.92365 0.74631 0.0
O106 O 0.51519 0.90294 0.84875 0.0
O107 O 0.53107 0.96544 0.83873 0.0
O108 O 0.42338 0.9951 0.84071 0.0
O109 O 0.46705 1.00881 0.79103 0.0
O110 O 0.45088 0.96345 0.90107 0.0
O111 O 0.38551 0.94328 0.89971 0.0
H112 H 0.29668 1.00682 0.74031 0.0
H113 H 0.25748 0.98397 0.67541 0.0
H114 H 0.20909 0.88652 0.75745 0.0
H115 H 0.25018 0.90888 0.82387 0.0
H116 H 0.53508 0.87555 0.92869 0.0
H117 H 0.56705 0.87815 1.00601 0.0
H118 H 0.62116 0.99167 0.97026 0.0
H119 H 0.5911 0.98836 0.89296 0.0
Sm120 Sm 0.3957 0.13173 0.07294 0.0
Sm121 Sm 0.39337 0.2191 0.07546 0.0
C122 C 0.36975 0.05768 1.07132 0.0
C123 C 0.37859 1.02683 1.03677 0.0
C124 C 0.35716 1.02696 0.99488 0.0
C125 C 0.37073 1.00471 0.95777 0.0
C126 C 0.40521 0.98081 0.96219 0.0
C127 C 0.42637 0.9795 1.00398 0.0
C128 C 0.41288 1.00235 1.04152 0.0
C129 C 0.47023 0.15192 0.10511 0.0
C130 C 0.41942 0.17361 0.97436 0.0
C131 C 0.40829 0.29247 0.10813 0.0
C132 C 0.40646 0.31122 0.15558 0.0
C133 C 0.43679 0.30512 0.18937 0.0
C134 C 0.43426 0.32298 0.23395 0.0
C135 C 0.40087 0.3464 0.24609 0.0
C136 C 0.37086 0.35251 0.21217 0.0
C137 C 0.3738 0.33559 0.1676 0.0
C138 C 0.31579 0.18813 1.06515 0.0
C139 C 0.38157 0.16694 0.17218 0.0
O140 O 0.34804 0.08791 1.05652 0.0
O141 O 0.40044 0.06896 0.09637 0.0
O142 O 0.44275 0.1769 0.09528 0.0
O143 O 0.46135 0.11693 0.08781 0.0
O144 O 0.41036 0.13996 0.99568 0.0
O145 O 0.41554 0.20876 0.99679 0.0
O146 O 0.43614 0.26571 0.10093 0.0
O147 O 0.37435 0.28245 0.08837 0.0
O148 O 0.34367 0.1744 0.09078 0.0
O149 O 0.33011 0.21834 1.04138 0.0
O150 O 0.37559 0.20166 0.15123 0.0
O151 O 0.39501 0.13601 0.14974 0.0
H152 H 0.33101 0.04574 0.98979 0.0
H153 H 0.35438 1.00671 0.92512 0.0
H154 H 0.45293 0.96107 1.00746 0.0
H155 H 0.43009 1.00212 0.07356 0.0
H156 H 0.46258 0.28666 0.18138 0.0
H157 H 0.45816 0.31824 0.25891 0.0
H158 H 0.34523 0.37136 0.2197 0.0
H159 H 0.35028 0.34158 0.14248 0.0
Sm160 Sm 0.20702 0.94275 0.32289 0.0
Sm161 Sm 0.12 0.94558 0.32056 0.0
C162 C 0.28112 0.96839 0.32409 0.0
C163 C 0.31188 0.95988 0.35875 0.0
C164 C 0.3112 0.98108 0.40086 0.0
C165 C 0.33348 0.96763 0.43795 0.0
C166 C 0.3579 0.93351 0.43334 0.0
C167 C 0.35975 0.9126 0.39136 0.0
C168 C 0.33689 0.92598 0.35382 0.0
C169 C 0.18664 0.86824 0.29054 0.0
C170 C 0.16529 0.9195 0.42162 0.0
C171 C 0.04654 0.93097 0.28844 0.0
C172 C 1.02786 0.93196 0.241 0.0
C173 C 1.03417 0.90104 0.20792 0.0
C174 C 1.01614 0.90256 0.16346 0.0
C175 C 0.99241 0.93553 0.15065 0.0
C176 C 0.98627 0.96629 0.18371 0.0
C177 C 1.00332 0.96432 0.22828 0.0
C178 C 0.15114 1.02309 0.33071 0.0
C179 C 0.17198 0.95707 0.22367 0.0
O180 O 0.25103 0.9905 0.33845 0.0
O181 O 0.26972 0.93731 0.29968 0.0
O182 O 0.16169 0.89581 0.30025 0.0
O183 O 0.22151 0.87696 0.30811 0.0
O184 O 0.19891 0.92834 0.40022 0.0
O185 O 0.13021 0.92354 0.39925 0.0
O186 O 0.07284 0.90286 0.29649 0.0
O187 O 0.05704 0.96527 0.30711 0.0
O188 O 0.16478 0.99512 0.30506 0.0
O189 O 0.12107 1.00889 0.35476 0.0
O190 O 0.13732 0.96313 0.24465 0.0
O191 O 0.20275 0.94342 0.24609 0.0
H192 H 0.292 1.00693 0.4061 0.0
H193 H 0.33112 0.98379 0.47073 0.0
H194 H 0.37859 0.88632 0.38774 0.0
H195 H 0.33753 0.90895 0.32162 0.0
H196 H 0.05283 0.87551 0.21641 0.0
H197 H 1.02089 0.87813 0.13911 0.0
H198 H 0.96719 0.99161 0.17558 0.0
H199 H 0.99724 0.98828 0.25287 0.0
Sm200 Sm 0.39617 0.95779 0.57263 0.0
Sm201 Sm 0.39306 0.8707 0.5703 0.0
C202 C 0.37058 1.03191 0.5739 0.0
C203 C 0.37902 0.06275 0.60865 0.0
C204 C 0.35755 0.06216 0.65044 0.0
C205 C 0.37085 0.08451 0.68769 0.0
C206 C 0.40508 0.10892 0.68354 0.0
C207 C 0.42626 0.11067 0.64187 0.0
C208 C 0.41303 0.08775 0.60416 0.0
C209 C 0.47036 0.93751 0.54007 0.0
C210 C 0.41923 0.91606 0.67149 0.0
C211 C 0.40744 0.79711 0.53827 0.0
C212 C 0.40653 0.77839 0.49079 0.0
C213 C 0.43755 0.78467 0.45804 0.0
C214 C 0.43616 0.76653 0.41359 0.0
C215 C 0.40321 0.74271 0.40045 0.0
C216 C 0.37234 0.7366 0.43317 0.0
C217 C 0.37417 0.75378 0.47774 0.0
C218 C 0.31575 0.90182 0.5805 0.0
C219 C 0.38151 0.92261 0.4734 0.0
O220 O 0.34852 1.00167 0.5881 0.0
O221 O 0.40163 1.02064 0.54965 0.0
O222 O 0.44283 0.91247 0.54982 0.0
O223 O 0.46178 0.97246 0.55755 0.0
O224 O 0.41068 0.94974 0.65002 0.0
O225 O 0.41505 0.88092 0.64909 0.0
O226 O 0.4356 0.82344 0.54662 0.0
O227 O 0.37317 0.80764 0.5566 0.0
O228 O 0.34363 0.91546 0.55481 0.0
O229 O 0.32994 0.8717 0.60448 0.0
O230 O 0.37543 0.8879 0.49437 0.0
O231 O 0.39513 0.95354 0.49584 0.0
H232 H 0.33161 1.04297 0.65533 0.0
H233 H 0.35449 0.08217 0.72025 0.0
H234 H 0.45265 0.12947 0.63862 0.0
H235 H 0.43026 0.08833 0.57221 0.0
H236 H 0.46309 0.80337 0.46678 0.0
H237 H 0.46071 0.77119 0.38954 0.0
H238 H 0.34707 0.71738 0.42481 0.0
H239 H 0.35015 0.74769 0.5021 0.0
Sm240 Sm 0.3809 0.14686 0.82303 0.0
Sm241 Sm 0.46821 0.1441 0.82075 0.0
C242 C 0.30674 0.12139 0.8241 0.0
C243 C 0.27611 0.12982 0.85889 0.0
C244 C 0.27701 0.1086 0.90085 0.0
C245 C 0.25471 0.12188 0.938 0.0
C246 C 0.23007 0.15585 0.93361 0.0
C247 C 0.22807 0.17682 0.8918 0.0
C248 C 0.25094 0.16361 0.85419 0.0
C249 C 0.40144 0.22127 0.79081 0.0
C250 C 0.42292 0.17011 0.9219 0.0
C251 C 0.54155 0.1587 0.78853 0.0
C252 C 0.56011 0.15767 0.74104 0.0
C253 C 0.55377 0.18858 0.70813 0.0
C254 C 0.57175 0.18709 0.6637 0.0
C255 C 0.59548 0.15414 0.6507 0.0
C256 C 0.60164 0.12336 0.68359 0.0
C257 C 0.58463 0.12531 0.72814 0.0
C258 C 0.43704 0.06661 0.83079 0.0
C259 C 0.41596 0.13243 0.72383 0.0
O260 O 0.33685 0.09916 0.83816 0.0
O261 O 0.3181 0.15254 0.80004 0.0
O262 O 0.42626 0.19367 0.80076 0.0
O263 O 0.36652 0.21265 0.80811 0.0
O264 O 0.38927 0.16124 0.90041 0.0
O265 O 0.45799 0.16619 0.89957 0.0
O266 O 0.51527 0.18681 0.79674 0.0
O267 O 0.53114 0.12442 0.80708 0.0
O268 O 0.4233 0.09453 0.8052 0.0
O269 O 0.46727 0.08086 0.85474 0.0
O270 O 0.45071 0.12655 0.74477 0.0
O271 O 0.38509 0.1458 0.74627 0.0
H272 H 0.29635 0.08285 0.90594 0.0
H273 H 0.25725 0.10569 0.97067 0.0
H274 H 0.2091 0.20301 0.88835 0.0
H275 H 0.25015 0.18067 0.82211 0.0
H276 H 0.53513 0.21413 0.71675 0.0
H277 H 0.56699 0.21155 0.63951 0.0
H278 H 0.62073 0.09805 0.67534 0.0
H279 H 0.59077 0.10135 0.7526 0.0
Sm280 Sm 0.19236 0.13142 0.07298 0.0
Sm281 Sm 0.19486 0.21905 1.0707 0.0
C282 C 0.21822 0.05745 0.07462 0.0
C283 C 0.2094 1.02668 0.10914 0.0
C284 C 0.23092 1.02697 0.15097 0.0
C285 C 0.21747 1.00468 0.18801 0.0
C286 C 0.18299 0.9806 0.1836 0.0
C287 C 0.16172 0.97917 0.14188 0.0
C288 C 0.17511 1.00205 0.10439 0.0
C289 C 0.11794 0.15166 1.04068 0.0
C290 C 0.16881 0.17358 0.17167 0.0
C291 C 0.17993 0.29235 1.03847 0.0
C292 C 0.18094 0.31094 0.99102 0.0
C293 C 0.14996 0.3046 0.95806 0.0
C294 C 0.15144 0.32257 0.91363 0.0
C295 C 0.18444 0.3463 0.90071 0.0
C296 C 0.21526 0.35248 0.93366 0.0
C297 C 0.21334 0.33548 0.9782 0.0
C298 C 0.27231 0.1882 0.08084 0.0
C299 C 0.20652 0.1666 0.97379 0.0
O300 O 0.23996 0.08781 0.08942 0.0
O301 O 0.18751 0.06852 1.04959 0.0
O302 O 0.14554 0.17653 1.0509 0.0
O303 O 0.12668 0.11659 1.05759 0.0
O304 O 0.17762 0.13988 0.15022 0.0
O305 O 0.17288 0.20872 0.14941 0.0
O306 O 0.152 0.26574 1.04641 0.0
O307 O 0.21418 0.28227 1.05728 0.0
O308 O 0.24436 0.1743 1.05525 0.0
O309 O 0.25816 0.21851 0.10467 0.0
O310 O 0.21223 0.2015 0.99473 0.0
O311 O 0.19336 0.13556 0.9962 0.0
H312 H 0.25707 0.04589 0.15605 0.0
H313 H 0.2339 1.00679 0.22062 0.0
H314 H 0.13515 0.96063 0.13841 0.0
H315 H 0.15782 1.0017 1.07241 0.0
H316 H 0.12439 0.28596 0.96663 0.0
H317 H 0.12696 0.3178 0.88939 0.0
H318 H 0.24061 0.37157 0.92546 0.0
H319 H 0.23735 0.34162 1.0027 0.0
Sm320 Sm 0.96835 0.94513 0.82055 0.0
Sm321 Sm 0.88108 0.94235 0.82282 0.0
C322 C 1.04163 0.93041 0.78835 0.0
C323 C 0.06037 0.93151 0.74099 0.0
C324 C 0.05402 0.90067 0.70777 0.0
C325 C 0.07216 0.90226 0.66342 0.0
C326 C 0.09609 0.93524 0.65088 0.0
C327 C 0.10229 0.96591 0.68411 0.0
C328 C 0.08511 0.96387 0.72854 0.0
C329 C 0.93747 1.02262 0.83091 0.0
C330 C 0.91605 0.95716 0.72368 0.0
C331 C 0.80718 0.96818 0.82427 0.0
C332 C 0.77637 0.95963 0.85878 0.0
C333 C 0.77656 0.98147 0.90045 0.0
C334 C 0.75409 0.96831 0.93749 0.0
C335 C 0.72999 0.93382 0.93324 0.0
C336 C 0.72866 0.91225 0.89168 0.0
C337 C 0.75168 0.92535 0.85419 0.0
C338 C 0.90132 0.86794 0.7904 0.0
C339 C 0.92301 0.91914 0.9216 0.0
O340 O 1.0151 0.90237 0.79614 0.0
O341 O 1.03143 0.96467 0.80721 0.0
O342 O 0.92366 0.99462 0.80534 0.0
O343 O 0.96775 1.00846 0.85467 0.0
O344 O 0.95086 0.96291 0.74467 0.0
O345 O 0.88518 0.94361 0.74603 0.0
O346 O 0.83746 0.99006 0.83895 0.0
O347 O 0.81829 0.93723 0.79956 0.0
O348 O 0.92623 0.89558 0.80035 0.0
O349 O 0.86643 0.87653 0.80778 0.0
O350 O 0.88938 0.92786 0.90011 0.0
O351 O 0.95809 0.9232 0.8993 0.0
H352 H 1.03521 0.87513 0.71606 0.0
H353 H 0.06731 0.87792 0.63894 0.0
H354 H 0.12148 0.99128 0.67619 0.0
H355 H 0.09125 0.98778 0.75324 0.0
H356 H 0.79553 1.00762 0.90542 0.0
H357 H 0.75615 0.98496 0.96999 0.0
H358 H 0.71012 0.88564 0.88835 0.0
H359 H 0.75138 0.90784 0.82233 0.0
Sm360 Sm 0.8935 0.21853 0.57107 0.0
Sm361 Sm 0.89636 0.13189 0.57259 0.0
C362 C 0.90831 0.29213 0.53962 0.0
C363 C 0.90773 0.31071 0.49219 0.0
C364 C 0.93865 0.30406 0.45938 0.0
C365 C 0.93729 0.32181 0.41481 0.0
C366 C 0.90445 0.34557 0.40165 0.0
C367 C 0.87372 0.35205 0.43449 0.0
C368 C 0.87557 0.33535 0.47915 0.0
C369 C 0.81586 0.18777 0.58098 0.0
C370 C 0.88154 0.16684 0.4737 0.0
C371 C 0.87077 0.05768 0.57412 0.0
C372 C 0.87949 1.02698 0.60879 0.0
C373 C 0.8576 1.027 0.65029 0.0
C374 C 0.87071 1.00458 0.68742 0.0
C375 C 0.90523 0.98067 0.68346 0.0
C376 C 0.92691 0.97958 0.64208 0.0
C377 C 0.91385 1.00256 0.6045 0.0
C378 C 0.97059 0.15198 0.54021 0.0
C379 C 0.91969 0.17321 0.67177 0.0
O380 O 0.93634 0.26587 0.54815 0.0
O381 O 0.8739 0.28156 0.55759 0.0
O382 O 0.84366 0.17398 0.55527 0.0
O383 O 0.83034 0.21779 0.60517 0.0
O384 O 0.87573 0.20151 0.49499 0.0
O385 O 0.89509 0.13588 0.49585 0.0
O386 O 0.84887 0.0879 0.58865 0.0
O387 O 0.90152 0.06896 0.54936 0.0
O388 O 0.94322 0.1772 0.54964 0.0
O389 O 0.96195 0.11718 0.55789 0.0
O390 O 0.91114 0.13962 0.64993 0.0
O391 O 0.91543 0.20837 0.64977 0.0
H392 H 0.96402 0.28527 0.46813 0.0
H393 H 0.96166 0.31674 0.39062 0.0
H394 H 0.84843 0.37108 0.42607 0.0
H395 H 0.85161 0.34168 0.50352 0.0
H396 H 0.83139 0.04577 0.65504 0.0
H397 H 0.85398 1.0065 0.71976 0.0
H398 H 0.95355 0.96122 0.63895 0.0
H399 H 0.93143 1.00241 0.57279 0.0
Sm400 Sm 0.61951 0.14425 0.32059 0.0
Sm401 Sm 0.70683 0.14733 0.32273 0.0
C402 C 0.54627 0.15915 0.28829 0.0
C403 C 0.52761 0.15797 0.24082 0.0
C404 C 0.53391 0.18885 0.20784 0.0
C405 C 0.51586 0.18719 0.16337 0.0
C406 C 0.4921 0.15411 0.15048 0.0
C407 C 0.48598 0.12339 0.18346 0.0
C408 C 0.50305 0.1255 0.22801 0.0
C409 C 0.6506 0.06677 0.33051 0.0
C410 C 0.67152 0.13282 0.22362 0.0
C411 C 0.78083 0.12173 0.32395 0.0
C412 C 0.8116 0.13016 0.35873 0.0
C413 C 0.81094 0.1087 0.40054 0.0
C414 C 0.83337 0.12192 0.43774 0.0
C415 C 0.85788 0.15609 0.43352 0.0
C416 C 0.85966 0.17729 0.39187 0.0
C417 C 0.83668 0.16412 0.35421 0.0
C418 C 0.68595 0.22202 0.2916 0.0
C419 C 0.66504 0.17022 0.42172 0.0
O420 O 0.57289 0.18712 0.29623 0.0
O421 O 0.55634 0.1249 0.30714 0.0
O422 O 0.66431 0.0948 0.30503 0.0
O423 O 0.62036 0.08091 0.35433 0.0
O424 O 0.63697 0.12643 0.24474 0.0
O425 O 0.70226 0.14694 0.24592 0.0
O426 O 0.75064 0.0996 0.33809 0.0
O427 O 0.7696 0.15284 0.29975 0.0
O428 O 0.66139 0.1941 0.30141 0.0
O429 O 0.7212 0.21328 0.30794 0.0
O430 O 0.69867 0.16167 0.40018 0.0
O431 O 0.62991 0.16608 0.39942 0.0
H432 H 0.55258 0.21447 0.21641 0.0
H433 H 0.52062 0.21157 0.13909 0.0
H434 H 0.46689 0.09796 0.17528 0.0
H435 H 0.49696 0.10156 0.25253 0.0
H436 H 0.79168 0.08279 0.40547 0.0
H437 H 0.83105 0.10556 0.4703 0.0
H438 H 0.87856 0.20363 0.38857 0.0
H439 H 0.83731 0.18135 0.32225 0.0
Sm440 Sm 0.69466 0.8706 1.06999 0.0
Sm441 Sm 0.69198 0.95762 1.07264 0.0
C442 C 0.67964 0.79736 1.03701 0.0
C443 C 0.68028 0.77925 0.98917 0.0
C444 C 0.64908 0.78577 0.9566 0.0
C445 C 0.6503 0.76833 0.91174 0.0
C446 C 0.68328 0.74502 0.89796 0.0
C447 C 0.71437 0.73876 0.93054 0.0
C448 C 0.71265 0.75512 0.9755 0.0
C449 C 0.77227 0.90141 0.08049 0.0
C450 C 0.7065 0.92292 0.97337 0.0
C451 C 0.71771 1.03177 0.07464 0.0
C452 C 0.70884 0.06261 0.10921 0.0
C453 C 0.73036 0.06261 0.15105 0.0
C454 C 0.71698 0.08514 0.18805 0.0
C455 C 0.68256 0.10911 0.18358 0.0
C456 C 0.66126 0.11021 0.14187 0.0
C457 C 0.6746 0.08713 0.10443 0.0
C458 C 0.61763 0.93748 1.04018 0.0
C459 C 0.66844 0.91579 0.17119 0.0
O460 O 0.6517 0.82366 1.04581 0.0
O461 O 0.71402 0.80757 1.05555 0.0
O462 O 0.7444 0.91532 1.05495 0.0
O463 O 0.75789 0.87115 0.10414 0.0
O464 O 0.71238 0.88814 0.99422 0.0
O465 O 0.693 0.95378 0.99586 0.0
O466 O 0.73945 1.00156 0.08941 0.0
O467 O 0.68706 1.02048 1.04952 0.0
O468 O 0.64509 0.91238 1.04962 0.0
O469 O 0.62631 0.97233 1.05798 0.0
O470 O 0.67715 0.94947 0.14982 0.0
O471 O 0.67268 0.88067 0.14879 0.0
H472 H 0.62353 0.80415 0.9658 0.0
H473 H 0.62563 0.7732 0.88784 0.0
H474 H 0.7398 0.72004 0.92174 0.0
H475 H 0.73684 0.74885 0.99965 0.0
H476 H 0.75648 1.04378 0.15616 0.0
H477 H 0.73342 0.08329 0.22066 0.0
H478 H 0.63472 0.12865 0.13837 0.0
H479 H 0.65731 0.08726 1.07245 0.0
Sm480 Sm 0.96853 0.14352 0.82515 0.0
Sm481 Sm 0.88116 0.14616 0.82264 0.0
C482 C 1.04167 0.15904 0.85765 0.0
C483 C 0.06044 0.15792 0.90505 0.0
C484 C 0.05425 0.18874 0.93831 0.0
C485 C 0.07238 0.18704 0.98273 0.0
C486 C 0.09614 0.15402 0.99528 0.0
C487 C 0.1022 0.12341 0.962 0.0
C488 C 0.08504 0.12555 0.91751 0.0
C489 C 0.93758 0.06599 0.81499 0.0
C490 C 0.91623 0.13204 0.92189 0.0
C491 C 0.807 0.12064 0.82126 0.0
C492 C 0.77614 0.12939 0.78671 0.0
C493 C 0.77643 0.10809 0.74466 0.0
C494 C 0.75414 0.12169 0.70762 0.0
C495 C 0.73005 0.15604 0.71226 0.0
C496 C 0.72853 0.17702 0.7542 0.0
C497 C 0.75141 0.1635 0.79168 0.0
C498 C 0.90193 0.22077 0.85397 0.0
C499 C 0.92307 0.16951 0.72415 0.0
O500 O 1.01486 0.18676 0.85005 0.0
O501 O 1.03178 0.12476 0.83844 0.0
O502 O 0.92368 0.09399 0.84039 0.0
O503 O 0.96793 0.0801 0.79132 0.0
O504 O 0.95092 0.12598 0.90097 0.0
O505 O 0.88543 0.14564 0.89944 0.0
O506 O 0.83705 0.09862 0.80662 0.0
O507 O 0.81847 0.15151 0.84601 0.0
O508 O 0.92667 0.19307 0.84442 0.0
O509 O 0.86698 0.21219 0.83658 0.0
O510 O 0.88947 0.16027 0.74534 0.0
O511 O 0.95815 0.1658 0.7466 0.0
H512 H 1.03558 0.21431 0.93 0.0
H513 H 0.06766 0.21135 1.00725 0.0
H514 H 0.12126 0.09802 0.96991 0.0
H515 H 0.09109 0.10168 0.89278 0.0
H516 H 0.79536 0.08205 0.7394 0.0
H517 H 0.75624 0.10547 0.67485 0.0
H518 H 0.70994 0.20348 0.75785 0.0
H519 H 0.751 0.18058 0.82385 0.0
Sm520 Sm 0.6949 0.21895 0.57531 0.0
Sm521 Sm 0.69159 0.13222 0.57306 0.0
C522 C 0.68038 0.29252 0.60742 0.0
C523 C 0.68126 0.31132 0.65487 0.0
C524 C 0.65031 0.30503 0.68772 0.0
C525 C 0.65174 0.32322 0.73216 0.0
C526 C 0.68466 0.34712 0.74519 0.0
C527 C 0.71544 0.35326 0.71232 0.0
C528 C 0.71356 0.33603 0.66779 0.0
C529 C 0.77233 0.18797 0.5653 0.0
C530 C 0.7064 0.16712 0.67226 0.0
C531 C 0.71718 0.05808 0.57161 0.0
C532 C 0.70868 1.02717 0.53694 0.0
C533 C 0.73068 1.02717 0.49553 0.0
C534 C 0.71761 1.00469 0.45826 0.0
C535 C 0.68301 0.98075 0.46203 0.0
C536 C 0.66129 0.97957 0.50335 0.0
C537 C 0.67432 1.0026 0.54108 0.0
C538 C 0.61741 0.15235 0.60542 0.0
C539 C 0.66856 0.17374 0.47416 0.0
O540 O 0.6523 0.26611 0.59912 0.0
O541 O 0.71465 0.28206 0.58904 0.0
O542 O 0.74439 0.17425 0.59083 0.0
O543 O 0.75816 0.21813 0.54136 0.0
O544 O 0.71274 0.20174 0.65119 0.0
O545 O 0.69243 0.13633 0.64988 0.0
O546 O 0.73912 0.08833 0.55721 0.0
O547 O 0.68625 0.06935 0.59608 0.0
O548 O 0.64495 0.17754 0.5962 0.0
O549 O 0.62589 0.11755 0.58747 0.0
O550 O 0.67698 0.14008 0.49569 0.0
O551 O 0.67293 0.20886 0.4965 0.0
H552 H 0.6248 0.28625 0.67906 0.0
H553 H 0.62729 0.31847 0.75633 0.0
H554 H 0.74073 0.37247 0.72058 0.0
H555 H 0.73754 0.34214 0.64337 0.0
H556 H 0.75691 0.04603 0.49092 0.0
H557 H 0.73438 1.00665 0.42596 0.0
H558 H 0.63461 0.96115 0.50633 0.0
H559 H 0.65669 1.00243 0.57273 0.0
Sm560 Sm 0.61978 0.94555 0.32474 0.0
Sm561 Sm 0.70691 0.94294 0.32241 0.0
C562 C 0.54653 0.93063 0.35711 0.0
C563 C 0.52787 0.93173 0.40454 0.0
C564 C 0.53421 0.90092 0.4376 0.0
C565 C 0.51609 0.90248 0.48198 0.0
C566 C 0.49221 0.93539 0.49473 0.0
C567 C 0.48605 0.96605 0.46168 0.0
C568 C 0.50319 0.96403 0.41722 0.0
C569 C 0.65063 1.02321 0.31466 0.0
C570 C 0.6721 0.95736 0.42162 0.0
C571 C 0.78096 0.96867 0.32107 0.0
C572 C 0.81172 0.95995 0.28652 0.0
C573 C 0.81147 0.98147 0.24476 0.0
C574 C 0.83387 0.96812 0.20772 0.0
C575 C 0.85799 0.93376 0.21206 0.0
C576 C 0.85936 0.91249 0.25371 0.0
C577 C 0.83639 0.92579 0.2912 0.0
C578 C 0.68663 0.86841 0.35426 0.0
C579 C 0.66498 0.91933 0.22363 0.0
O580 O 0.57301 0.90267 0.34912 0.0
O581 O 0.55672 0.96489 0.33834 0.0
O582 O 0.66452 0.99532 0.34015 0.0
O583 O 0.62039 1.00885 0.29082 0.0
O584 O 0.63735 0.96327 0.40068 0.0
O585 O 0.7029 0.94386 0.39917 0.0
O586 O 0.7508 0.99057 0.30646 0.0
O587 O 0.76968 0.93783 0.34573 0.0
O588 O 0.66172 0.896 0.34463 0.0
O589 O 0.72148 0.87712 0.33684 0.0
O590 O 0.69863 0.92825 0.2451 0.0
O591 O 0.62992 0.92339 0.24595 0.0
H592 H 0.55296 0.87542 0.42915 0.0
H593 H 0.52091 0.87814 0.5063 0.0
H594 H 0.46689 0.99135 0.46976 0.0
H595 H 0.49705 0.98791 0.39265 0.0
H596 H 0.79253 1.00752 0.23972 0.0
H597 H 0.83181 0.98453 0.17517 0.0
H598 H 0.87792 0.886 0.25712 0.0
H599 H 0.83671 0.90851 0.32312 0.0
Sm600 Sm 0.89322 0.87054 0.07502 0.0
Sm601 Sm 0.89629 0.95758 0.07288 0.0
C602 C 0.90788 0.79715 0.10721 0.0
C603 C 0.9069 0.77849 0.15463 0.0
C604 C 0.93792 0.78469 0.18757 0.0
C605 C 0.93648 0.76655 0.23193 0.0
C606 C 0.90349 0.7428 0.24477 0.0
C607 C 0.87261 0.73678 0.21184 0.0
C608 C 0.8745 0.75395 0.16739 0.0
C609 C 0.81576 0.90136 1.06482 0.0
C610 C 0.88156 0.9228 0.17198 0.0
C611 C 0.8708 1.03173 1.07135 0.0
C612 C 0.87946 0.06249 1.03677 0.0
C613 C 0.85759 0.06231 0.99517 0.0
C614 C 0.87077 0.08466 0.95804 0.0
C615 C 0.90531 0.10867 0.96213 0.0
C616 C 0.92693 0.11 1.00362 0.0
C617 C 0.91381 0.08707 1.0412 0.0
C618 C 0.97053 0.93744 0.1053 0.0
C619 C 0.91954 0.91569 0.97405 0.0
O620 O 0.93591 0.82363 0.09921 0.0
O621 O 0.87365 0.80741 0.08851 0.0
O622 O 0.8437 0.91529 0.09039 0.0
O623 O 0.82995 0.8711 1.04094 0.0
O624 O 0.87551 0.88803 0.1509 0.0
O625 O 0.89524 0.95365 0.14968 0.0
O626 O 0.84884 1.00146 1.05675 0.0
O627 O 0.90163 1.02052 0.09607 0.0
O628 O 0.94296 0.91234 0.09567 0.0
O629 O 0.962 0.97229 0.08771 0.0
O630 O 0.91094 0.94939 0.99559 0.0
O631 O 0.91525 0.88059 0.99629 0.0
H632 H 0.96351 0.80334 0.17905 0.0
H633 H 0.961 0.77121 0.25615 0.0
H634 H 0.84726 0.71768 0.21997 0.0
H635 H 0.85046 0.7479 0.1429 0.0
H636 H 0.83138 1.04344 0.99032 0.0
H637 H 0.8541 0.08259 0.92559 0.0
H638 H 0.95357 0.12847 1.00683 0.0
H639 H 0.93135 0.08736 0.073 0.0
Sm640 Sm 0.70553 0.64884 0.8214 0.0
Sm641 Sm 0.6182 0.64553 0.82222 0.0
C642 C 0.77961 0.62316 0.8216 0.0
C643 C 0.8107 0.63098 0.78706 0.0
C644 C 0.81045 0.60874 0.74567 0.0
C645 C 0.83312 0.62135 0.70849 0.0
C646 C 0.85744 0.65575 0.71227 0.0
C647 C 0.85892 0.67763 0.75363 0.0
C648 C 0.83575 0.66503 0.79128 0.0
C649 C 0.68495 0.72355 0.85216 0.0
C650 C 0.66423 0.67104 0.72199 0.0
C651 C 0.54489 0.65963 0.85468 0.0
C652 C 0.52678 0.65831 0.90246 0.0
C653 C 0.53328 0.68923 0.93557 0.0
C654 C 0.51567 0.68755 0.98022 0.0
C655 C 0.49215 0.65441 0.99325 0.0
C656 C 0.48593 0.62358 0.96023 0.0
C657 C 0.50259 0.62568 0.91549 0.0
C658 C 0.65016 0.56793 0.81432 0.0
C659 C 0.66833 0.63708 0.91996 0.0
O660 O 0.74949 0.60084 0.80744 0.0
O661 O 0.76819 0.65464 0.84516 0.0
O662 O 0.65995 0.69578 0.84255 0.0
O663 O 0.71983 0.71494 0.8347 0.0
O664 O 0.69766 0.66235 0.7439 0.0
O665 O 0.62892 0.66718 0.74374 0.0
O666 O 0.57103 0.68794 0.84645 0.0
O667 O 0.55521 0.6255 0.83554 0.0
O668 O 0.6632 0.59656 0.83959 0.0
O669 O 0.62004 0.58141 0.78974 0.0
O670 O 0.63445 0.62947 0.89815 0.0
O671 O 0.69941 0.6508 0.89812 0.0
H672 H 0.79126 0.58272 0.74096 0.0
H673 H 0.83095 0.60442 0.6762 0.0
H674 H 0.87764 0.70412 0.75668 0.0
H675 H 0.83614 0.68282 0.82293 0.0
H676 H 0.55174 0.71493 0.92694 0.0
H677 H 0.52055 0.71202 1.00453 0.0
H678 H 0.46705 0.59808 0.96853 0.0
H679 H 0.4964 0.60165 0.89096 0.0
Sm680 Sm 0.70181 0.46085 1.07064 0.0
Sm681 Sm 0.69298 0.37603 0.0789 0.0
C682 C 0.7186 0.53724 1.06594 0.0
C683 C 0.70794 0.56645 1.03098 0.0
C684 C 0.72576 0.56353 0.98711 0.0
C685 C 0.71106 0.58592 0.95112 0.0
C686 C 0.6792 0.61255 0.95864 0.0
C687 C 0.66098 0.61596 1.002 0.0
C688 C 0.67555 0.59283 1.03854 0.0
C689 C 0.63562 0.44519 0.1235 0.0
C690 C 0.67018 0.41832 0.9752 0.0
C691 C 0.67533 0.30324 0.112 0.0
C692 C 0.67732 0.2833 0.15864 0.0
C693 C 0.64714 0.28852 0.19263 0.0
C694 C 0.64958 0.26906 0.23618 0.0
C695 C 0.68274 0.24489 0.24709 0.0
C696 C 0.71269 0.2397 0.21303 0.0
C697 C 0.70981 0.25819 0.1694 0.0
C698 C 0.77448 0.39724 1.06117 0.0
C699 C 0.72343 0.42794 0.16658 0.0
O700 O 0.74383 0.50925 1.05277 0.0
O701 O 0.688 0.52334 0.08907 0.0
O702 O 0.64477 0.42396 0.08765 0.0
O703 O 0.65894 0.47566 0.12726 0.0
O704 O 0.68495 0.45106 0.99417 0.0
O705 O 0.66927 0.38422 1.00006 0.0
O706 O 0.64871 0.33137 0.10597 0.0
O707 O 0.70928 0.31208 0.09197 0.0
O708 O 0.7495 0.41487 0.08648 0.0
O709 O 0.75585 0.36653 1.04308 0.0
O710 O 0.69967 0.39756 0.15655 0.0
O711 O 0.74001 0.44722 0.1322 0.0
H712 H 0.75015 0.54301 0.97984 0.0
H713 H 0.72487 0.58248 0.9171 0.0
H714 H 0.63618 0.63638 1.00747 0.0
H715 H 0.66093 0.59464 1.07217 0.0
H716 H 0.62148 0.30743 0.18553 0.0
H717 H 0.62575 0.27311 0.26134 0.0
H718 H 0.73812 0.22033 0.21965 0.0
H719 H 0.73319 0.25275 0.14399 0.0
Sm720 Sm 0.88069 0.44081 0.3239 0.0
Sm721 Sm 0.96814 0.44481 0.32493 0.0
C722 C 0.80594 0.46549 0.32873 0.0
C723 C 0.77358 0.46222 0.29463 0.0
C724 C 0.7729 0.48922 0.25745 0.0
C725 C 0.75332 0.47878 0.21695 0.0
C726 C 0.73414 0.44124 0.21301 0.0
C727 C 0.72985 0.4167 0.25194 0.0
C728 C 0.74944 0.42738 0.29308 0.0
C729 C 0.9023 0.36686 0.35598 0.0
C730 C 0.92205 0.41889 0.22412 0.0
C731 C 1.04174 0.43084 0.35674 0.0
C732 C 0.06026 0.4319 0.40432 0.0
C733 C 0.05374 0.40098 0.43719 0.0
C734 C 0.07156 0.40251 0.48177 0.0
C735 C 0.09529 0.43551 0.49497 0.0
C736 C 0.10165 0.4663 0.46214 0.0
C737 C 0.0848 0.46432 0.41743 0.0
C738 C 0.93622 0.52186 0.31469 0.0
C739 C 0.91797 0.4561 0.42247 0.0
O740 O 0.83579 0.48922 0.31744 0.0
O741 O 0.81804 0.43129 0.34557 0.0
O742 O 0.927 0.39466 0.34598 0.0
O743 O 0.86736 0.37476 0.33832 0.0
O744 O 0.88864 0.4287 0.24563 0.0
O745 O 0.95723 0.42193 0.24656 0.0
O746 O 1.01561 0.4025 0.34839 0.0
O747 O 1.0311 0.46507 0.33827 0.0
O748 O 0.92296 0.49386 0.34062 0.0
O749 O 0.96625 0.50779 0.29045 0.0
O750 O 0.95187 0.46349 0.4006 0.0
O751 O 0.88742 0.44085 0.40083 0.0
H752 H 0.79054 0.5166 0.25781 0.0
H753 H 0.75591 0.49908 0.1876 0.0
H754 H 0.71427 0.38819 0.24956 0.0
H755 H 0.74883 0.40656 0.32201 0.0
H756 H 1.03507 0.3754 0.42843 0.0
H757 H 0.06667 0.37804 0.5059 0.0
H758 H 0.12077 0.49165 0.47057 0.0
H759 H 0.09105 0.48829 0.39302 0.0
Sm760 Sm 0.89553 0.63153 0.57251 0.0
Sm761 Sm 0.89309 0.71859 0.57499 0.0
C762 C 0.86962 0.5575 0.57007 0.0
C763 C 0.87907 0.52668 0.53572 0.0
C764 C 0.8583 0.52672 0.49335 0.0
C765 C 0.87233 0.5042 0.45668 0.0
C766 C 0.90662 0.48021 0.462 0.0
C767 C 0.92718 0.47905 0.5042 0.0
C768 C 0.91322 0.50216 0.54131 0.0
C769 C 0.96988 0.65162 0.60542 0.0
C770 C 0.91927 0.6732 0.47384 0.0
C771 C 0.90781 0.7922 0.607 0.0
C772 C 0.90695 0.81093 0.65444 0.0
C773 C 0.93777 0.80448 0.6875 0.0
C774 C 0.93625 0.82246 0.73203 0.0
C775 C 0.90338 0.84629 0.74488 0.0
C776 C 0.87274 0.85261 0.71181 0.0
C777 C 0.87471 0.83561 0.66721 0.0
C778 C 0.81556 0.6878 0.56432 0.0
C779 C 0.88083 0.6663 0.67183 0.0
O780 O 0.84819 0.58775 0.55478 0.0
O781 O 0.89984 0.56873 0.59593 0.0
O782 O 0.94251 0.67668 0.59553 0.0
O783 O 0.96103 0.61665 0.58803 0.0
O784 O 0.91069 0.63953 0.49533 0.0
O785 O 0.91502 0.70834 0.49619 0.0
O786 O 0.93586 0.76586 0.59878 0.0
O787 O 0.8735 0.78165 0.58856 0.0
O788 O 0.84329 0.67403 0.59014 0.0
O789 O 0.83005 0.71787 0.54047 0.0
O790 O 0.87557 0.70125 0.65104 0.0
O791 O 0.8938 0.63523 0.64927 0.0
H792 H 0.83227 0.54553 0.48765 0.0
H793 H 0.85645 0.50593 0.4237 0.0
H794 H 0.95358 0.46051 0.50836 0.0
H795 H 0.92994 0.50199 0.5737 0.0
H796 H 0.9632 0.7857 0.67897 0.0
H797 H 0.96057 0.81756 0.7564 0.0
H798 H 0.84748 0.87175 0.71999 0.0
H799 H 0.85083 0.8418 0.64263 0.0
Sm800 Sm 0.70672 0.44361 0.82323 0.0
Sm801 Sm 0.62018 0.44651 0.82134 0.0
C802 C 0.78102 0.46859 0.82537 0.0
C803 C 0.81171 0.45906 0.85984 0.0
C804 C 0.81153 0.47977 0.90225 0.0
C805 C 0.83435 0.46599 0.93875 0.0
C806 C 0.85893 0.43204 0.93327 0.0
C807 C 0.85995 0.41137 0.89107 0.0
C808 C 0.83647 0.42504 0.85414 0.0
C809 C 0.68659 0.36917 0.79054 0.0
C810 C 0.66563 0.42045 0.92256 0.0
C811 C 0.54673 0.43178 0.78895 0.0
C812 C 0.52803 0.43253 0.74143 0.0
C813 C 0.53435 0.40149 0.7085 0.0
C814 C 0.51616 0.40271 0.66407 0.0
C815 C 0.49223 0.43551 0.65111 0.0
C816 C 0.4861 0.4664 0.68402 0.0
C817 C 0.50332 0.46473 0.72855 0.0
C818 C 0.6508 0.52446 0.83068 0.0
C819 C 0.67207 0.45812 0.72412 0.0
O820 O 0.75109 0.49063 0.84031 0.0
O821 O 0.76942 0.43823 0.7999 0.0
O822 O 0.66146 0.3966 0.80015 0.0
O823 O 0.72138 0.37791 0.80822 0.0
O824 O 0.69902 0.42883 0.90048 0.0
O825 O 0.6304 0.42475 0.9005 0.0
O826 O 0.57301 0.40371 0.79728 0.0
O827 O 0.55722 0.46614 0.80745 0.0
O828 O 0.66467 0.49634 0.80532 0.0
O829 O 0.62095 0.51009 0.85499 0.0
O830 O 0.6374 0.46394 0.74523 0.0
O831 O 0.70298 0.44476 0.7465 0.0
H832 H 0.7925 0.50564 0.90812 0.0
H833 H 0.83241 0.48192 0.97173 0.0
H834 H 0.87875 0.38514 0.88676 0.0
H835 H 0.83665 0.4083 0.82173 0.0
H836 H 0.55312 0.37606 0.71708 0.0
H837 H 0.52095 0.37819 0.63986 0.0
H838 H 0.4669 0.49161 0.6758 0.0
H839 H 0.49719 0.48877 0.75301 0.0
Sm840 Sm 0.89592 0.45637 1.07234 0.0
Sm841 Sm 0.89622 0.36824 1.06945 0.0
C842 C 0.86853 0.52975 0.07463 0.0
C843 C 0.87767 0.56077 0.10906 0.0
C844 C 0.8565 0.56076 0.15106 0.0
C845 C 0.87022 0.58338 0.18794 0.0
C846 C 0.90462 0.60747 0.18322 0.0
C847 C 0.92554 0.60863 0.14133 0.0
C848 C 0.91189 0.58543 0.10402 0.0
C849 C 0.97136 0.43779 1.0415 0.0
C850 C 0.91873 0.415 0.17156 0.0
C851 C 0.91356 0.29564 1.03696 0.0
C852 C 0.91097 0.2771 0.98961 0.0
C853 C 0.94106 0.28345 0.9558 0.0
C854 C 0.9381 0.26601 0.9112 0.0
C855 C 0.90451 0.24282 0.89904 0.0
C856 C 0.87447 0.23663 0.93276 0.0
C857 C 0.87787 0.25309 0.97753 0.0
C858 C 0.81794 0.3955 0.0761 0.0
C859 C 0.88352 0.4211 0.97269 0.0
O860 O 0.84768 0.49902 0.08991 0.0
O861 O 0.89877 0.51919 1.04861 0.0
O862 O 0.94415 0.41258 1.0516 0.0
O863 O 0.96158 0.47274 1.05818 0.0
O864 O 0.90956 0.4484 0.14989 0.0
O865 O 0.9163 0.37969 0.14901 0.0
O866 O 0.94037 0.3238 1.04295 0.0
O867 O 0.87985 0.30394 1.05804 0.0
O868 O 0.84592 0.41149 1.05254 0.0
O869 O 0.83199 0.36518 0.09972 0.0
O870 O 0.87825 0.38607 0.99345 0.0
O871 O 0.89651 0.45217 0.99545 0.0
H872 H 0.83042 0.54183 0.15636 0.0
H873 H 0.85404 0.58154 0.22067 0.0
H874 H 0.95204 0.6272 0.13759 0.0
H875 H 0.92892 0.58562 1.07192 0.0
H876 H 0.96714 0.30162 0.96386 0.0
H877 H 0.96203 0.27057 0.8863 0.0
H878 H 0.84877 0.21777 0.92507 0.0
H879 H 0.85453 0.24692 1.00275 0.0
Sm880 Sm 0.88124 0.64642 0.32219 0.0
Sm881 Sm 0.96775 0.64298 0.32033 0.0
C882 C 0.80704 0.62103 0.32318 0.0
C883 C 0.77634 0.62957 0.35786 0.0
C884 C 0.7771 0.60841 0.39986 0.0
C885 C 0.75469 0.62175 0.43689 0.0
C886 C 0.73007 0.65572 0.43231 0.0
C887 C 0.72824 0.67665 0.39047 0.0
C888 C 0.75122 0.66338 0.35298 0.0
C889 C 0.90162 0.72068 0.28992 0.0
C890 C 0.92279 0.66961 0.42135 0.0
C891 C 1.04129 0.65733 0.2885 0.0
C892 C 0.05992 0.65665 0.24105 0.0
C893 C 0.05352 0.68773 0.20836 0.0
C894 C 0.07155 0.68651 0.16394 0.0
C895 C 0.09536 0.65368 0.15073 0.0
C896 C 0.10161 0.62277 0.18341 0.0
C897 C 0.08457 0.62444 0.22796 0.0
C898 C 0.93633 0.56552 0.33038 0.0
C899 C 0.91591 0.63138 0.22311 0.0
O900 O 0.83709 0.59883 0.33742 0.0
O901 O 0.81848 0.65211 0.29903 0.0
O902 O 0.92673 0.69315 0.29927 0.0
O903 O 0.86685 0.71215 0.30764 0.0
O904 O 0.88914 0.66116 0.39965 0.0
O905 O 0.95782 0.66512 0.39915 0.0
O906 O 1.01521 0.68555 0.29704 0.0
O907 O 1.03056 0.62294 0.30653 0.0
O908 O 0.92289 0.59343 0.30458 0.0
O909 O 0.96638 0.5798 0.35463 0.0
O910 O 0.95043 0.62498 0.24437 0.0
O911 O 0.8853 0.64556 0.24534 0.0
H912 H 0.79641 0.58265 0.40508 0.0
H913 H 0.75711 0.60562 0.4696 0.0
H914 H 0.7093 0.70286 0.38689 0.0
H915 H 0.75055 0.68039 0.32087 0.0
H916 H 1.03481 0.71318 0.21714 0.0
H917 H 0.06677 0.7111 0.13994 0.0
H918 H 0.12082 0.59758 0.17501 0.0
H919 H 0.09077 0.60039 0.25228 0.0
Sm920 Sm 0.69206 0.63158 0.57162 0.0
Sm921 Sm 0.69479 0.7192 0.56905 0.0
C922 C 0.71767 0.55754 0.57384 0.0
C923 C 0.70895 0.52708 0.60878 0.0
C924 C 0.73051 0.52781 0.65059 0.0
C925 C 0.71718 0.50577 0.68791 0.0
C926 C 0.68281 0.48151 0.68383 0.0
C927 C 0.66149 0.47965 0.64215 0.0
C928 C 0.67474 0.50229 0.60438 0.0
C929 C 0.61771 0.65187 0.53938 0.0
C930 C 0.66817 0.6742 0.66974 0.0
C931 C 0.68018 0.79265 0.53719 0.0
C932 C 0.6811 0.81134 0.48985 0.0
C933 C 0.65023 0.80483 0.45681 0.0
C934 C 0.65173 0.82281 0.4124 0.0
C935 C 0.68464 0.8467 0.39963 0.0
C936 C 0.71534 0.85307 0.43268 0.0
C937 C 0.71339 0.83607 0.47719 0.0
C938 C 0.77204 0.68805 0.57976 0.0
C939 C 0.70643 0.66657 0.47236 0.0
O940 O 0.73961 0.58794 0.58814 0.0
O941 O 0.68686 0.56851 0.54892 0.0
O942 O 0.64533 0.67679 0.54937 0.0
O943 O 0.62637 0.61688 0.55653 0.0
O944 O 0.67729 0.64042 0.64867 0.0
O945 O 0.67227 0.70924 0.64739 0.0
O946 O 0.65212 0.76619 0.54516 0.0
O947 O 0.71446 0.7823 0.5557 0.0
O948 O 0.74419 0.67427 0.55398 0.0
O949 O 0.7579 0.71839 0.60352 0.0
O950 O 0.71206 0.70155 0.49313 0.0
O951 O 0.69323 0.63559 0.49485 0.0
H952 H 0.7566 0.54685 0.65542 0.0
H953 H 0.73366 0.5082 0.72045 0.0
H954 H 0.63502 0.46095 0.63891 0.0
H955 H 0.65743 0.5016 0.57242 0.0
H956 H 0.62475 0.78603 0.46528 0.0
H957 H 0.62736 0.81788 0.38805 0.0
H958 H 0.74064 0.87225 0.42457 0.0
H959 H 0.73731 0.84232 0.50178 0.0
Sm960 Sm 0.4666 0.44221 0.32091 0.0
Sm961 Sm 0.37783 0.44308 0.32323 0.0
C962 C 0.53816 0.42091 0.28914 0.0
C963 C 0.56101 0.42615 0.24498 0.0
C964 C 0.55735 0.39943 0.20659 0.0
C965 C 0.58078 0.40469 0.16593 0.0
C966 C 0.60782 0.43698 0.16314 0.0
C967 C 0.61056 0.46351 0.2016 0.0
C968 C 0.58796 0.45807 0.24161 0.0
C969 C 0.43816 0.5213 0.33027 0.0
C970 C 0.41551 0.45708 0.22431 0.0
C971 C 0.30451 0.47011 0.32419 0.0
C972 C 0.27399 0.46117 0.35891 0.0
C973 C 0.27505 0.48207 0.40121 0.0
C974 C 0.25356 0.46794 0.43854 0.0
C975 C 0.22946 0.43348 0.43396 0.0
C976 C 0.22723 0.41284 0.39183 0.0
C977 C 0.24937 0.42686 0.35407 0.0
C978 C 0.39729 0.36763 0.29186 0.0
C979 C 0.42021 0.41854 0.42185 0.0
O980 O 0.50685 0.39745 0.28764 0.0
O981 O 0.53234 0.45275 0.31524 0.0
O982 O 0.42303 0.49322 0.30573 0.0
O983 O 0.46934 0.5068 0.35215 0.0
O984 O 0.45025 0.46233 0.24565 0.0
O985 O 0.38419 0.44392 0.24631 0.0
O986 O 0.33503 0.49163 0.33896 0.0
O987 O 0.31527 0.43936 0.29891 0.0
O988 O 0.42149 0.39524 0.30356 0.0
O989 O 0.36187 0.37718 0.30704 0.0
O990 O 0.38686 0.42928 0.4008 0.0
O991 O 0.45526 0.42024 0.39919 0.0
H992 H 0.53675 0.3743 0.20816 0.0
H993 H 0.57791 0.38366 0.13727 0.0
H994 H 0.63104 0.48878 0.20165 0.0
H995 H 0.592 0.479 0.27023 0.0
H996 H 0.29401 0.50819 0.40639 0.0
H997 H 0.25616 0.48392 0.47143 0.0
H998 H 0.20859 0.38634 0.38822 0.0
H999 H 0.2485 0.40998 0.32177 0.0
Sm1000 Sm 0.39361 0.71879 1.07042 0.0
Sm1001 Sm 0.39671 0.63191 1.07231 0.0
C1002 C 0.40806 0.79237 1.03852 0.0
C1003 C 0.40714 0.81101 0.99108 0.0
C1004 C 0.43797 0.8046 0.95809 0.0
C1005 C 0.43645 0.8226 0.91365 0.0
C1006 C 0.40355 0.8464 0.90077 0.0
C1007 C 0.3729 0.85265 0.93377 0.0
C1008 C 0.37488 0.83564 0.9783 0.0
C1009 C 0.3161 0.68787 0.08079 0.0
C1010 C 0.38125 0.66661 0.97339 0.0
C1011 C 0.37137 0.55763 0.07427 0.0
C1012 C 0.37992 0.52722 0.10932 0.0
C1013 C 0.35827 0.5279 0.15098 0.0
C1014 C 0.37121 0.50553 0.18822 0.0
C1015 C 0.40528 0.481 0.18422 0.0
C1016 C 0.42682 0.47937 0.14276 0.0
C1017 C 0.41395 0.50234 0.10507 0.0
C1018 C 0.47062 0.65235 1.03883 0.0
C1019 C 0.41986 0.67354 0.17139 0.0
O1020 O 0.4362 0.76617 1.04684 0.0
O1021 O 0.37379 0.78175 1.05681 0.0
O1022 O 0.34389 0.67398 1.05513 0.0
O1023 O 0.33053 0.71811 0.10464 0.0
O1024 O 0.37564 0.70141 0.9945 0.0
O1025 O 0.39472 0.63566 0.99562 0.0
O1026 O 0.34921 0.58786 0.0882 0.0
O1027 O 0.40233 0.56884 1.04982 0.0
O1028 O 0.44317 0.67734 1.04885 0.0
O1029 O 0.46225 0.61747 1.05648 0.0
O1030 O 0.41163 0.63986 0.14959 0.0
O1031 O 0.41547 0.70867 0.14928 0.0
H1032 H 0.46343 0.78586 0.96663 0.0
H1033 H 0.46079 0.81774 0.88936 0.0
H1034 H 0.34761 0.87175 0.92561 0.0
H1035 H 0.35099 0.84182 1.00282 0.0
H1036 H 0.33234 0.54705 0.15572 0.0
H1037 H 0.35461 0.50784 0.22063 0.0
H1038 H 0.45311 0.46054 0.1396 0.0
H1039 H 0.43138 0.50174 0.07326 0.0
Sm1040 Sm 0.11985 0.64413 0.82048 0.0
Sm1041 Sm 0.20648 0.64724 0.82269 0.0
C1042 C 0.04643 0.65866 0.78837 0.0
C1043 C 1.02764 0.6576 0.74095 0.0
C1044 C 1.03396 0.68844 0.70792 0.0
C1045 C 1.01578 0.68682 0.66352 0.0
C1046 C 0.99184 0.65382 0.65074 0.0
C1047 C 0.98568 0.62317 0.68378 0.0
C1048 C 1.00291 0.62523 0.72825 0.0
C1049 C 0.15063 0.56658 0.83078 0.0
C1050 C 0.17168 0.63232 0.72355 0.0
C1051 C 0.28047 0.62154 0.82375 0.0
C1052 C 0.31132 0.62993 0.85843 0.0
C1053 C 0.31082 0.60834 0.90015 0.0
C1054 C 0.33325 0.62156 0.93735 0.0
C1055 C 0.35762 0.65584 0.93321 0.0
C1056 C 0.35929 0.67713 0.89161 0.0
C1057 C 0.3363 0.66397 0.85396 0.0
C1058 C 0.18648 0.72156 0.79037 0.0
C1059 C 0.16507 0.6702 0.9217 0.0
O1060 O 0.07284 0.68679 0.79651 0.0
O1061 O 0.05682 0.62439 0.80689 0.0
O1062 O 0.16436 0.59443 0.80509 0.0
O1063 O 0.12055 0.58094 0.85467 0.0
O1064 O 0.13709 0.62607 0.74462 0.0
O1065 O 0.2024 0.64633 0.74592 0.0
O1066 O 0.25027 0.59948 0.83801 0.0
O1067 O 0.26922 0.65265 0.79958 0.0
O1068 O 0.16131 0.69403 0.79964 0.0
O1069 O 0.2212 0.71303 0.8083 0.0
O1070 O 0.19866 0.66165 0.90014 0.0
O1071 O 0.13 0.66611 0.89931 0.0
H1072 H 0.05277 0.71399 0.71641 0.0
H1073 H 1.02057 0.71117 0.63919 0.0
H1074 H 0.96645 0.59782 0.67569 0.0
H1075 H 0.99679 0.60133 0.75281 0.0
H1076 H 0.29165 0.58237 0.90503 0.0
H1077 H 0.331 0.60512 0.96986 0.0
H1078 H 0.37809 0.70354 0.88836 0.0
H1079 H 0.33683 0.68128 0.82206 0.0
Sm1080 Sm 0.19429 0.37062 0.57091 0.0
Sm1081 Sm 0.19139 0.45728 0.57308 0.0
C1082 C 0.17965 0.29704 0.53878 0.0
C1083 C 0.18067 0.27833 0.49131 0.0
C1084 C 0.14995 0.28478 0.45811 0.0
C1085 C 0.15159 0.26677 0.41359 0.0
C1086 C 0.18449 0.24291 0.4009 0.0
C1087 C 0.21503 0.23663 0.43412 0.0
C1088 C 0.21293 0.25365 0.4787 0.0
C1089 C 0.27183 0.40153 0.58137 0.0
C1090 C 0.20605 0.42234 0.47401 0.0
C1091 C 0.21724 0.53144 0.57431 0.0
C1092 C 0.2087 0.56246 0.60876 0.0
C1093 C 0.23054 0.56261 0.65038 0.0
C1094 C 0.21729 0.58506 0.68749 0.0
C1095 C 0.18268 0.60882 0.68335 0.0
C1096 C 0.16117 0.60991 0.6418 0.0
C1097 C 0.17437 0.5869 0.60424 0.0
C1098 C 0.11714 0.43724 0.5404 0.0
C1099 C 0.16805 0.41584 0.67189 0.0
O1100 O 0.15161 0.3234 0.54685 0.0
O1101 O 0.21389 0.30753 0.55744 0.0
O1102 O 0.24402 0.41523 0.55562 0.0
O1103 O 0.25742 0.37146 0.60531 0.0
O1104 O 0.21236 0.38776 0.49511 0.0
O1105 O 0.19216 0.45311 0.49632 0.0
O1106 O 0.23904 0.50127 0.58905 0.0
O1107 O 0.18636 0.52005 0.54965 0.0
O1108 O 0.14453 0.41199 0.54967 0.0
O1109 O 0.12576 0.47199 0.55848 0.0
O1110 O 0.17673 0.44948 0.6504 0.0
O1111 O 0.17223 0.38072 0.64956 0.0
H1112 H 0.1245 0.30357 0.46652 0.0
H1113 H 0.12736 0.27168 0.3891 0.0
H1114 H 0.24034 0.21751 0.42606 0.0
H1115 H 0.23675 0.24747 0.50337 0.0
H1116 H 0.25676 0.54388 0.65526 0.0
H1117 H 0.23393 0.58325 0.71996 0.0
H1118 H 0.13452 0.62823 0.63854 0.0
H1119 H 0.15688 0.58697 0.57241 0.0
Sm1120 Sm 0.46797 0.6429 0.32473 0.0
Sm1121 Sm 0.38207 0.64594 0.32249 0.0
C1122 C 0.54152 0.65778 0.35642 0.0
C1123 C 0.56035 0.65717 0.40377 0.0
C1124 C 0.55384 0.68806 0.43682 0.0
C1125 C 0.57197 0.68673 0.48125 0.0
C1126 C 0.59599 0.65395 0.49397 0.0
C1127 C 0.60235 0.62326 0.46088 0.0
C1128 C 0.58522 0.62506 0.4164 0.0
C1129 C 0.43769 0.56492 0.31454 0.0
C1130 C 0.41625 0.63118 0.42172 0.0
C1131 C 0.30788 0.6205 0.32063 0.0
C1132 C 0.27701 0.62956 0.28626 0.0
C1133 C 0.2768 0.60805 0.24436 0.0
C1134 C 0.25423 0.62157 0.20752 0.0
C1135 C 0.2304 0.6561 0.21222 0.0
C1136 C 0.22946 0.67736 0.25401 0.0
C1137 C 0.25261 0.6639 0.29128 0.0
C1138 C 0.40174 0.72036 0.35532 0.0
C1139 C 0.42327 0.66985 0.22383 0.0
O1140 O 0.51521 0.68581 0.34818 0.0
O1141 O 0.53094 0.62333 0.33824 0.0
O1142 O 0.42364 0.59279 0.34011 0.0
O1143 O 0.46755 0.57954 0.2905 0.0
O1144 O 0.45094 0.62526 0.40074 0.0
O1145 O 0.3855 0.64477 0.39926 0.0
O1146 O 0.33793 0.59867 0.30562 0.0
O1147 O 0.31934 0.65109 0.34582 0.0
O1148 O 0.42713 0.69299 0.34651 0.0
O1149 O 0.3672 0.71162 0.33697 0.0
O1150 O 0.38967 0.66121 0.24528 0.0
O1151 O 0.45824 0.6652 0.24612 0.0
H1152 H 0.53491 0.71341 0.42837 0.0
H1153 H 0.56701 0.71107 0.50565 0.0
H1154 H 0.62161 0.59805 0.46897 0.0
H1155 H 0.59145 0.60113 0.39181 0.0
H1156 H 0.2955 0.58185 0.23907 0.0
H1157 H 0.25594 0.60515 0.17486 0.0
H1158 H 0.21109 0.70396 0.25769 0.0
H1159 H 0.25261 0.68116 0.32333 0.0
Sm1160 Sm 0.19506 0.71873 0.07522 0.0
Sm1161 Sm 0.19165 0.63254 0.07321 0.0
C1162 C 0.18057 0.79237 0.1071 0.0
C1163 C 0.18131 0.81108 0.15457 0.0
C1164 C 0.15039 0.80454 0.18741 0.0
C1165 C 0.15179 0.82254 0.23195 0.0
C1166 C 0.18466 0.84647 0.24505 0.0
C1167 C 0.21539 0.85286 0.2122 0.0
C1168 C 0.21352 0.83586 0.16758 0.0
C1169 C 0.27254 0.68792 1.06521 0.0
C1170 C 0.20662 0.66724 0.17234 0.0
C1171 C 0.21735 0.55844 1.0718 0.0
C1172 C 0.20875 0.52745 1.03725 0.0
C1173 C 0.23062 0.52738 0.99574 0.0
C1174 C 0.21744 0.5048 0.95859 0.0
C1175 C 0.18287 0.48085 0.9626 0.0
C1176 C 0.16128 0.47975 1.00402 0.0
C1177 C 0.17442 0.50287 1.04161 0.0
C1178 C 0.11746 0.65231 0.10554 0.0
C1179 C 0.16857 0.67372 0.97415 0.0
O1180 O 0.15245 0.76605 0.09861 0.0
O1181 O 0.2149 0.78181 0.08897 0.0
O1182 O 0.24469 0.67425 0.09089 0.0
O1183 O 0.25824 0.7179 1.04106 0.0
O1184 O 0.2131 0.70175 0.15113 0.0
O1185 O 0.1924 0.63651 0.15006 0.0
O1186 O 0.23917 0.58869 1.05719 0.0
O1187 O 0.18652 0.5697 0.09644 0.0
O1188 O 0.14489 0.67777 0.09686 0.0
O1189 O 0.12601 0.6177 0.08715 0.0
O1190 O 0.17694 0.64011 0.99578 0.0
O1191 O 0.17304 0.70882 0.99645 0.0
H1192 H 0.12496 0.78568 0.17869 0.0
H1193 H 0.1274 0.81759 0.25613 0.0
H1194 H 0.24066 0.87208 0.22055 0.0
H1195 H 0.23747 0.84213 0.14317 0.0
H1196 H 0.25683 0.54623 0.99095 0.0
H1197 H 0.2341 0.50667 0.92621 0.0
H1198 H 0.13463 0.46132 1.00716 0.0
H1199 H 0.15689 0.50276 0.07335 0.0
Sm1200 Sm 0.11963 0.4454 0.82547 0.0
Sm1201 Sm 0.20652 0.44254 0.82321 0.0
C1202 C 0.04635 0.43075 0.85784 0.0
C1203 C 1.02791 0.43182 0.90539 0.0
C1204 C 1.03434 0.40098 0.93838 0.0
C1205 C 1.0166 0.40265 0.98296 0.0
C1206 C 0.993 0.43569 0.99599 0.0
C1207 C 0.98672 0.46636 0.96296 0.0
C1208 C 1.00347 0.46423 0.9183 0.0
C1209 C 0.15053 0.52297 0.81519 0.0
C1210 C 0.17186 0.45731 0.92235 0.0
C1211 C 0.28061 0.46824 0.82191 0.0
C1212 C 0.31139 0.45966 0.78734 0.0
C1213 C 0.31111 0.48124 0.74562 0.0
C1214 C 0.33357 0.46799 0.70857 0.0
C1215 C 0.35773 0.43366 0.71285 0.0
C1216 C 0.35914 0.41234 0.75446 0.0
C1217 C 0.33614 0.42555 0.79196 0.0
C1218 C 0.1863 0.36816 0.8554 0.0
C1219 C 0.16463 0.41935 0.72432 0.0
O1220 O 0.07263 0.40265 0.84958 0.0
O1221 O 0.0567 0.46502 0.83923 0.0
O1222 O 0.16438 0.49515 0.84081 0.0
O1223 O 0.12032 0.50859 0.79131 0.0
O1224 O 0.13718 0.46336 0.90133 0.0
O1225 O 0.2026 0.44358 0.89998 0.0
O1226 O 0.25046 0.49018 0.80742 0.0
O1227 O 0.26931 0.43729 0.84638 0.0
O1228 O 0.16126 0.39569 0.84594 0.0
O1229 O 0.22107 0.37675 0.83769 0.0
O1230 O 0.1983 0.42802 0.74585 0.0
O1231 O 0.1296 0.42339 0.74666 0.0
H1232 H 0.05289 0.37538 0.92973 0.0
H1233 H 1.02144 0.37826 1.00721 0.0
H1234 H 0.96773 0.49175 0.97117 0.0
H1235 H 0.99724 0.48812 0.89377 0.0
H1236 H 0.29211 0.50726 0.74062 0.0
H1237 H 0.33148 0.48444 0.67604 0.0
H1238 H 0.37773 0.38587 0.75782 0.0
H1239 H 0.3365 0.40823 0.82386 0.0
Sm1240 Sm 0.39268 0.3704 0.57579 0.0
Sm1241 Sm 0.39588 0.45736 0.57355 0.0
C1242 C 0.40741 0.29695 0.60767 0.0
C1243 C 0.40674 0.27826 0.65506 0.0
C1244 C 0.43766 0.28487 0.68804 0.0
C1245 C 0.43632 0.26687 0.73247 0.0
C1246 C 0.40352 0.24285 0.74532 0.0
C1247 C 0.3728 0.23637 0.71231 0.0
C1248 C 0.37461 0.25339 0.6678 0.0
C1249 C 0.31529 0.40133 0.56574 0.0
C1250 C 0.38123 0.42268 0.67273 0.0
C1251 C 0.37087 0.53169 0.57202 0.0
C1252 C 0.37945 0.56225 0.53714 0.0
C1253 C 0.35763 0.56179 0.49551 0.0
C1254 C 0.37082 0.58394 0.45819 0.0
C1255 C 0.40538 0.60795 0.46209 0.0
C1256 C 0.42693 0.60957 0.50362 0.0
C1257 C 0.41377 0.5869 0.54139 0.0
C1258 C 0.47024 0.43717 0.60574 0.0
C1259 C 0.41726 0.41515 0.4743 0.0
O1260 O 0.43545 0.32335 0.59938 0.0
O1261 O 0.37304 0.30735 0.58945 0.0
O1262 O 0.34325 0.41523 0.59129 0.0
O1263 O 0.32938 0.37104 0.54185 0.0
O1264 O 0.37519 0.38787 0.65173 0.0
O1265 O 0.39479 0.45353 0.65033 0.0
O1266 O 0.34853 0.50153 0.55794 0.0
O1267 O 0.40187 0.52034 0.59635 0.0
O1268 O 0.44262 0.41206 0.59636 0.0
O1269 O 0.46174 0.4719 0.58785 0.0
O1270 O 0.40895 0.44887 0.49594 0.0
O1271 O 0.41387 0.38012 0.4968 0.0
H1272 H 0.46304 0.3038 0.67951 0.0
H1273 H 0.46069 0.27192 0.75679 0.0
H1274 H 0.34756 0.21712 0.72046 0.0
H1275 H 0.35066 0.24705 0.64328 0.0
H1276 H 0.33144 0.54286 0.49079 0.0
H1277 H 0.35414 0.58172 0.42576 0.0
H1278 H 0.45355 0.62808 0.50672 0.0
H1279 H 0.43127 0.58741 0.57322 0.0
loop_
_geom_bond_atom_site_label_1
_geom_bond_atom_site_label_2
_geom_bond_distance
_geom_bond_site_symmetry_2
_ccdc_geom_bond_type
Sm0 C2 2.846 . S
Sm0 O20 2.543 . S
Sm0 O21 2.450 . S
Sm0 O22 2.681 . S
Sm0 O23 2.464 . S
Sm0 O24 2.396 . S
Sm0 O28 2.386 . S
Sm0 O31 2.408 . S
Sm1 C11 2.846 . S
Sm1 O22 2.386 . S
Sm1 O25 2.408 . S
Sm1 O26 2.543 . S
Sm1 O27 2.450 . S
Sm1 O28 2.681 . S
Sm1 O29 2.464 . S
Sm1 O30 2.396 . S
C2 Sm0 2.846 . S
C2 C3 1.506 . S
C2 O20 1.261 . S
C2 O21 1.242 . S
C3 C2 1.506 . S
C3 C4 1.358 . S
C3 C8 1.382 . S
C4 C3 1.358 . S
C4 C5 1.385 . S
C4 H32 0.930 . S
C5 C4 1.385 . S
C5 C6 1.395 . S
C5 H33 0.929 . S
C6 C5 1.395 . S
C6 C7 1.335 . S
C7 C6 1.335 . S
C7 C8 1.398 . S
C7 H34 0.930 . S
C8 C3 1.382 . S
C8 C7 1.398 . S
C8 H35 0.929 . S
C9 O22 1.271 . S
C9 O23 1.251 . S
C10 O24 1.252 . S
C10 O25 1.272 . S
C11 Sm1 2.846 . S
C11 C12 1.506 1_455 S
C11 O26 1.261 . S
C11 O27 1.242 . S
C12 C11 1.506 1_655 S
C12 C13 1.358 . S
C12 C17 1.382 . S
C13 C12 1.358 . S
C13 C14 1.385 . S
C13 H36 0.930 1_655 S
C14 C13 1.385 . S
C14 C15 1.395 . S
C14 H37 0.929 . S
C15 C14 1.395 . S
C15 C16 1.335 . S
C16 C15 1.335 . S
C16 C17 1.398 . S
C16 H38 0.930 . S
C17 C12 1.382 . S
C17 C16 1.398 . S
C17 H39 0.929 . S
C18 O28 1.271 . S
C18 O29 1.251 . S
C19 O30 1.252 . S
C19 O31 1.272 . S
O20 Sm0 2.543 . S
O20 C2 1.261 . S
O21 Sm0 2.450 . S
O21 C2 1.242 . S
O22 Sm0 2.681 . S
O22 Sm1 2.386 . S
O22 C9 1.271 . S
O23 Sm0 2.464 . S
O23 C9 1.251 . S
O24 Sm0 2.396 . S
O24 C10 1.252 . S
O25 Sm1 2.408 . S
O25 C10 1.272 . S
O26 Sm1 2.543 . S
O26 C11 1.261 . S
O27 Sm1 2.450 . S
O27 C11 1.242 . S
O28 Sm0 2.386 . S
O28 Sm1 2.681 . S
O28 C18 1.271 . S
O29 Sm1 2.464 . S
O29 C18 1.251 . S
O30 Sm1 2.396 . S
O30 C19 1.252 . S
O31 Sm0 2.408 . S
O31 C19 1.272 . S
H32 C4 0.930 . S
H33 C5 0.929 . S
H34 C7 0.930 . S
H35 C8 0.929 . S
H36 C13 0.930 1_455 S
H37 C14 0.929 . S
H38 C16 0.930 . S
H39 C17 0.929 . S
Sm40 C42 2.846 . S
Sm40 O60 2.543 . S
Sm40 O61 2.450 . S
Sm40 O62 2.681 . S
Sm40 O63 2.464 . S
Sm40 O64 2.396 . S
Sm40 O68 2.386 . S
Sm40 O71 2.408 . S
Sm41 C51 2.846 . S
Sm41 O62 2.386 . S
Sm41 O65 2.408 . S
Sm41 O66 2.543 . S
Sm41 O67 2.450 . S
Sm41 O68 2.681 . S
Sm41 O69 2.464 . S
Sm41 O70 2.396 . S
C42 Sm40 2.846 . S
C42 C43 1.506 1_565 S
C42 O60 1.261 . S
C42 O61 1.242 . S
C43 C42 1.506 1_545 S
C43 C44 1.358 . S
C43 C48 1.382 . S
C44 C43 1.358 . S
C44 C45 1.385 . S
C44 H72 0.930 1_545 S
C45 C44 1.385 . S
C45 C46 1.395 . S
C45 H73 0.929 . S
C46 C45 1.395 . S
C46 C47 1.335 . S
C47 C46 1.335 . S
C47 C48 1.398 . S
C47 H74 0.930 . S
C48 C43 1.382 . S
C48 C47 1.398 . S
C48 H75 0.929 . S
C49 O62 1.271 . S
C49 O63 1.251 . S
C50 O64 1.252 . S
C50 O65 1.272 . S
C51 Sm41 2.846 . S
C51 C52 1.506 . S
C51 O66 1.261 . S
C51 O67 1.242 . S
C52 C51 1.506 . S
C52 C53 1.358 . S
C52 C57 1.382 . S
C53 C52 1.358 . S
C53 C54 1.385 . S
C53 H76 0.930 . S
C54 C53 1.385 . S
C54 C55 1.395 . S
C54 H77 0.929 . S
C55 C54 1.395 . S
C55 C56 1.335 . S
C56 C55 1.335 . S
C56 C57 1.398 . S
C56 H78 0.930 . S
C57 C52 1.382 . S
C57 C56 1.398 . S
C57 H79 0.929 . S
C58 O68 1.271 . S
C58 O69 1.251 . S
C59 O70 1.252 . S
C59 O71 1.272 . S
O60 Sm40 2.543 . S
O60 C42 1.261 . S
O61 Sm40 2.450 . S
O61 C42 1.242 . S
O62 Sm40 2.681 . S
O62 Sm41 2.386 . S
O62 C49 1.271 . S
O63 Sm40 2.464 . S
O63 C49 1.251 . S
O64 Sm40 2.396 . S
O64 C50 1.252 . S
O65 Sm41 2.408 . S
O65 C50 1.272 . S
O66 Sm41 2.543 . S
O66 C51 1.261 . S
O67 Sm41 2.450 . S
O67 C51 1.242 . S
O68 Sm40 2.386 . S
O68 Sm41 2.681 . S
O68 C58 1.271 . S
O69 Sm41 2.464 . S
O69 C58 1.251 . S
O70 Sm41 2.396 . S
O70 C59 1.252 . S
O71 Sm40 2.408 . S
O71 C59 1.272 . S
H72 C44 0.930 1_565 S
H73 C45 0.929 . S
H74 C47 0.930 . S
H75 C48 0.929 . S
H76 C53 0.930 . S
H77 C54 0.929 . S
H78 C56 0.930 . S
H79 C57 0.929 . S
Sm80 C82 2.846 . S
Sm80 O100 2.543 . S
Sm80 O101 2.450 . S
Sm80 O102 2.681 . S
Sm80 O103 2.464 . S
Sm80 O104 2.396 . S
Sm80 O108 2.386 . S
Sm80 O111 2.408 . S
Sm81 C91 2.846 . S
Sm81 O102 2.386 . S
Sm81 O105 2.408 . S
Sm81 O106 2.543 . S
Sm81 O107 2.450 . S
Sm81 O108 2.681 . S
Sm81 O109 2.464 . S
Sm81 O110 2.396 . S
C82 Sm80 2.846 . S
C82 C83 1.506 . S
C82 O100 1.261 . S
C82 O101 1.242 . S
C83 C82 1.506 . S
C83 C84 1.358 . S
C83 C88 1.382 . S
C84 C83 1.358 . S
C84 C85 1.385 . S
C84 H112 0.930 . S
C85 C84 1.385 . S
C85 C86 1.395 . S
C85 H113 0.929 . S
C86 C85 1.395 . S
C86 C87 1.335 . S
C87 C86 1.335 . S
C87 C88 1.398 . S
C87 H114 0.930 . S
C88 C83 1.382 . S
C88 C87 1.398 . S
C88 H115 0.929 . S
C89 O102 1.271 . S
C89 O103 1.251 . S
C90 O104 1.252 . S
C90 O105 1.272 . S
C91 Sm81 2.846 . S
C91 C92 1.506 . S
C91 O106 1.261 . S
C91 O107 1.242 . S
C92 C91 1.506 . S
C92 C93 1.358 . S
C92 C97 1.382 . S
C93 C92 1.358 . S
C93 C94 1.385 . S
C93 H116 0.930 . S
C94 C93 1.385 . S
C94 C95 1.395 . S
C94 H117 0.929 . S
C95 C94 1.395 . S
C95 C96 1.335 . S
C96 C95 1.335 . S
C96 C97 1.398 . S
C96 H118 0.930 . S
C97 C92 1.382 . S
C97 C96 1.398 . S
C97 H119 0.929 . S
C98 O108 1.271 . S
C98 O109 1.251 . S
C99 O110 1.252 . S
C99 O111 1.272 . S
O100 Sm80 2.543 . S
O100 C82 1.261 . S
O101 Sm80 2.450 . S
O101 C82 1.242 . S
O102 Sm80 2.681 . S
O102 Sm81 2.386 . S
O102 C89 1.271 . S
O103 Sm80 2.464 . S
O103 C89 1.251 . S
O104 Sm80 2.396 . S
O104 C90 1.252 . S
O105 Sm81 2.408 . S
O105 C90 1.272 . S
O106 Sm81 2.543 . S
O106 C91 1.261 . S
O107 Sm81 2.450 . S
O107 C91 1.242 . S
O108 Sm80 2.386 . S
O108 Sm81 2.681 . S
O108 C98 1.271 . S
O109 Sm81 2.464 . S
O109 C98 1.251 . S
O110 Sm81 2.396 . S
O110 C99 1.252 . S
O111 Sm80 2.408 . S
O111 C99 1.272 . S
H112 C84 0.930 . S
H113 C85 0.929 . S
H114 C87 0.930 . S
H115 C88 0.929 . S
H116 C93 0.930 . S
H117 C94 0.929 . S
H118 C96 0.930 . S
H119 C97 0.929 . S
Sm120 C122 2.846 1_554 S
Sm120 O140 2.543 1_554 S
Sm120 O141 2.450 1_554 S
Sm120 O142 2.681 . S
Sm120 O143 2.464 . S
Sm120 O144 2.396 1_554 S
Sm120 O148 2.386 1_554 S
Sm120 O151 2.408 . S
Sm121 C131 2.846 . S
Sm121 O142 2.386 . S
Sm121 O145 2.408 1_554 S
Sm121 O146 2.543 . S
Sm121 O147 2.450 . S
Sm121 O148 2.681 1_554 S
Sm121 O149 2.464 1_554 S
Sm121 O150 2.396 . S
C122 Sm120 2.846 1_556 S
C122 C123 1.506 1_545 S
C122 O140 1.261 . S
C122 O141 1.242 . S
C123 C122 1.506 1_565 S
C123 C124 1.358 . S
C123 C128 1.382 . S
C124 C123 1.358 . S
C124 C125 1.385 . S
C124 H152 0.930 1_565 S
C125 C124 1.385 . S
C125 C126 1.395 . S
C125 H153 0.929 . S
C126 C125 1.395 . S
C126 C127 1.335 . S
C127 C126 1.335 . S
C127 C128 1.398 . S
C127 H154 0.930 . S
C128 C123 1.382 . S
C128 C127 1.398 . S
C128 H155 0.929 . S
C129 O142 1.271 . S
C129 O143 1.251 . S
C130 O144 1.252 . S
C130 O145 1.272 . S
C131 Sm121 2.846 . S
C131 C132 1.506 . S
C131 O146 1.261 . S
C131 O147 1.242 . S
C132 C131 1.506 . S
C132 C133 1.358 . S
C132 C137 1.382 . S
C133 C132 1.358 . S
C133 C134 1.385 . S
C133 H156 0.930 . S
C134 C133 1.385 . S
C134 C135 1.395 . S
C134 H157 0.929 . S
C135 C134 1.395 . S
C135 C136 1.335 . S
C136 C135 1.335 . S
C136 C137 1.398 . S
C136 H158 0.930 . S
C137 C132 1.382 . S
C137 C136 1.398 . S
C137 H159 0.929 . S
C138 O148 1.271 . S
C138 O149 1.251 . S
C139 O150 1.252 . S
C139 O151 1.272 . S
O140 Sm120 2.543 1_556 S
O140 C122 1.261 . S
O141 Sm120 2.450 1_556 S
O141 C122 1.242 . S
O142 Sm120 2.681 . S
O142 Sm121 2.386 . S
O142 C129 1.271 . S
O143 Sm120 2.464 . S
O143 C129 1.251 . S
O144 Sm120 2.396 1_556 S
O144 C130 1.252 . S
O145 Sm121 2.408 1_556 S
O145 C130 1.272 . S
O146 Sm121 2.543 . S
O146 C131 1.261 . S
O147 Sm121 2.450 . S
O147 C131 1.242 . S
O148 Sm120 2.386 1_556 S
O148 Sm121 2.681 1_556 S
O148 C138 1.271 . S
O149 Sm121 2.464 1_556 S
O149 C138 1.251 . S
O150 Sm121 2.396 . S
O150 C139 1.252 . S
O151 Sm120 2.408 . S
O151 C139 1.272 . S
H152 C124 0.930 1_545 S
H153 C125 0.929 . S
H154 C127 0.930 . S
H155 C128 0.929 . S
H156 C133 0.930 . S
H157 C134 0.929 . S
H158 C136 0.930 . S
H159 C137 0.929 . S
Sm160 C162 2.846 . S
Sm160 O180 2.543 . S
Sm160 O181 2.450 . S
Sm160 O182 2.681 . S
Sm160 O183 2.464 . S
Sm160 O184 2.396 . S
Sm160 O188 2.386 . S
Sm160 O191 2.408 . S
Sm161 C171 2.846 . S
Sm161 O182 2.386 . S
Sm161 O185 2.408 . S
Sm161 O186 2.543 . S
Sm161 O187 2.450 . S
Sm161 O188 2.681 . S
Sm161 O189 2.464 . S
Sm161 O190 2.396 . S
C162 Sm160 2.846 . S
C162 C163 1.506 . S
C162 O180 1.261 . S
C162 O181 1.242 . S
C163 C162 1.506 . S
C163 C164 1.358 . S
C163 C168 1.382 . S
C164 C163 1.358 . S
C164 C165 1.385 . S
C164 H192 0.930 . S
C165 C164 1.385 . S
C165 C166 1.395 . S
C165 H193 0.929 . S
C166 C165 1.395 . S
C166 C167 1.335 . S
C167 C166 1.335 . S
C167 C168 1.398 . S
C167 H194 0.930 . S
C168 C163 1.382 . S
C168 C167 1.398 . S
C168 H195 0.929 . S
C169 O182 1.271 . S
C169 O183 1.251 . S
C170 O184 1.252 . S
C170 O185 1.272 . S
C171 Sm161 2.846 . S
C171 C172 1.506 1_455 S
C171 O186 1.261 . S
C171 O187 1.242 . S
C172 C171 1.506 1_655 S
C172 C173 1.358 . S
C172 C177 1.382 . S
C173 C172 1.358 . S
C173 C174 1.385 . S
C173 H196 0.930 1_655 S
C174 C173 1.385 . S
C174 C175 1.395 . S
C174 H197 0.929 . S
C175 C174 1.395 . S
C175 C176 1.335 . S
C176 C175 1.335 . S
C176 C177 1.398 . S
C176 H198 0.930 . S
C177 C172 1.382 . S
C177 C176 1.398 . S
C177 H199 0.929 . S
C178 O188 1.271 . S
C178 O189 1.251 . S
C179 O190 1.252 . S
C179 O191 1.272 . S
O180 Sm160 2.543 . S
O180 C162 1.261 . S
O181 Sm160 2.450 . S
O181 C162 1.242 . S
O182 Sm160 2.681 . S
O182 Sm161 2.386 . S
O182 C169 1.271 . S
O183 Sm160 2.464 . S
O183 C169 1.251 . S
O184 Sm160 2.396 . S
O184 C170 1.252 . S
O185 Sm161 2.408 . S
O185 C170 1.272 . S
O186 Sm161 2.543 . S
O186 C171 1.261 . S
O187 Sm161 2.450 . S
O187 C171 1.242 . S
O188 Sm160 2.386 . S
O188 Sm161 2.681 . S
O188 C178 1.271 . S
O189 Sm161 2.464 . S
O189 C178 1.251 . S
O190 Sm161 2.396 . S
O190 C179 1.252 . S
O191 Sm160 2.408 . S
O191 C179 1.272 . S
H192 C164 0.930 . S
H193 C165 0.929 . S
H194 C167 0.930 . S
H195 C168 0.929 . S
H196 C173 0.930 1_455 S
H197 C174 0.929 . S
H198 C176 0.930 . S
H199 C177 0.929 . S
Sm200 C202 2.846 . S
Sm200 O220 2.543 . S
Sm200 O221 2.450 . S
Sm200 O222 2.681 . S
Sm200 O223 2.464 . S
Sm200 O224 2.396 . S
Sm200 O228 2.386 . S
Sm200 O231 2.408 . S
Sm201 C211 2.846 . S
Sm201 O222 2.386 . S
Sm201 O225 2.408 . S
Sm201 O226 2.543 . S
Sm201 O227 2.450 . S
Sm201 O228 2.681 . S
Sm201 O229 2.464 . S
Sm201 O230 2.396 . S
C202 Sm200 2.846 . S
C202 C203 1.506 1_565 S
C202 O220 1.261 . S
C202 O221 1.242 . S
C203 C202 1.506 1_545 S
C203 C204 1.358 . S
C203 C208 1.382 . S
C204 C203 1.358 . S
C204 C205 1.385 . S
C204 H232 0.930 1_545 S
C205 C204 1.385 . S
C205 C206 1.395 . S
C205 H233 0.929 . S
C206 C205 1.395 . S
C206 C207 1.335 . S
C207 C206 1.335 . S
C207 C208 1.398 . S
C207 H234 0.930 . S
C208 C203 1.382 . S
C208 C207 1.398 . S
C208 H235 0.929 . S
C209 O222 1.271 . S
C209 O223 1.251 . S
C210 O224 1.252 . S
C210 O225 1.272 . S
C211 Sm201 2.846 . S
C211 C212 1.506 . S
C211 O226 1.261 . S
C211 O227 1.242 . S
C212 C211 1.506 . S
C212 C213 1.358 . S
C212 C217 1.382 . S
C213 C212 1.358 . S
C213 C214 1.385 . S
C213 H236 0.930 . S
C214 C213 1.385 . S
C214 C215 1.395 . S
C214 H237 0.929 . S
C215 C214 1.395 . S
C215 C216 1.335 . S
C216 C215 1.335 . S
C216 C217 1.398 . S
C216 H238 0.930 . S
C217 C212 1.382 . S
C217 C216 1.398 . S
C217 H239 0.929 . S
C218 O228 1.271 . S
C218 O229 1.251 . S
C219 O230 1.252 . S
C219 O231 1.272 . S
O220 Sm200 2.543 . S
O220 C202 1.261 . S
O221 Sm200 2.450 . S
O221 C202 1.242 . S
O222 Sm200 2.681 . S
O222 Sm201 2.386 . S
O222 C209 1.271 . S
O223 Sm200 2.464 . S
O223 C209 1.251 . S
O224 Sm200 2.396 . S
O224 C210 1.252 . S
O225 Sm201 2.408 . S
O225 C210 1.272 . S
O226 Sm201 2.543 . S
O226 C211 1.261 . S
O227 Sm201 2.450 . S
O227 C211 1.242 . S
O228 Sm200 2.386 . S
O228 Sm201 2.681 . S
O228 C218 1.271 . S
O229 Sm201 2.464 . S
O229 C218 1.251 . S
O230 Sm201 2.396 . S
O230 C219 1.252 . S
O231 Sm200 2.408 . S
O231 C219 1.272 . S
H232 C204 0.930 1_565 S
H233 C205 0.929 . S
H234 C207 0.930 . S
H235 C208 0.929 . S
H236 C213 0.930 . S
H237 C214 0.929 . S
H238 C216 0.930 . S
H239 C217 0.929 . S
Sm240 C242 2.846 . S
Sm240 O260 2.543 . S
Sm240 O261 2.450 . S
Sm240 O262 2.681 . S
Sm240 O263 2.464 . S
Sm240 O264 2.396 . S
Sm240 O268 2.386 . S
Sm240 O271 2.408 . S
Sm241 C251 2.846 . S
Sm241 O262 2.386 . S
Sm241 O265 2.408 . S
Sm241 O266 2.543 . S
Sm241 O267 2.450 . S
Sm241 O268 2.681 . S
Sm241 O269 2.464 . S
Sm241 O270 2.396 . S
C242 Sm240 2.846 . S
C242 C243 1.506 . S
C242 O260 1.261 . S
C242 O261 1.242 . S
C243 C242 1.506 . S
C243 C244 1.358 . S
C243 C248 1.382 . S
C244 C243 1.358 . S
C244 C245 1.385 . S
C244 H272 0.930 . S
C245 C244 1.385 . S
C245 C246 1.395 . S
C245 H273 0.929 . S
C246 C245 1.395 . S
C246 C247 1.335 . S
C247 C246 1.335 . S
C247 C248 1.398 . S
C247 H274 0.930 . S
C248 C243 1.382 . S
C248 C247 1.398 . S
C248 H275 0.929 . S
C249 O262 1.271 . S
C249 O263 1.251 . S
C250 O264 1.252 . S
C250 O265 1.272 . S
C251 Sm241 2.846 . S
C251 C252 1.506 . S
C251 O266 1.261 . S
C251 O267 1.242 . S
C252 C251 1.506 . S
C252 C253 1.358 . S
C252 C257 1.382 . S
C253 C252 1.358 . S
C253 C254 1.385 . S
C253 H276 0.930 . S
C254 C253 1.385 . S
C254 C255 1.395 . S
C254 H277 0.929 . S
C255 C254 1.395 . S
C255 C256 1.335 . S
C256 C255 1.335 . S
C256 C257 1.398 . S
C256 H278 0.930 . S
C257 C252 1.382 . S
C257 C256 1.398 . S
C257 H279 0.929 . S
C258 O268 1.271 . S
C258 O269 1.251 . S
C259 O270 1.252 . S
C259 O271 1.272 . S
O260 Sm240 2.543 . S
O260 C242 1.261 . S
O261 Sm240 2.450 . S
O261 C242 1.242 . S
O262 Sm240 2.681 . S
O262 Sm241 2.386 . S
O262 C249 1.271 . S
O263 Sm240 2.464 . S
O263 C249 1.251 . S
O264 Sm240 2.396 . S
O264 C250 1.252 . S
O265 Sm241 2.408 . S
O265 C250 1.272 . S
O266 Sm241 2.543 . S
O266 C251 1.261 . S
O267 Sm241 2.450 . S
O267 C251 1.242 . S
O268 Sm240 2.386 . S
O268 Sm241 2.681 . S
O268 C258 1.271 . S
O269 Sm241 2.464 . S
O269 C258 1.251 . S
O270 Sm241 2.396 . S
O270 C259 1.252 . S
O271 Sm240 2.408 . S
O271 C259 1.272 . S
H272 C244 0.930 . S
H273 C245 0.929 . S
H274 C247 0.930 . S
H275 C248 0.929 . S
H276 C253 0.930 . S
H277 C254 0.929 . S
H278 C256 0.930 . S
H279 C257 0.929 . S
Sm280 C282 2.846 1_556 S
Sm280 O300 2.543 1_556 S
Sm280 O301 2.450 1_556 S
Sm280 O302 2.681 . S
Sm280 O303 2.464 . S
Sm280 O304 2.396 1_556 S
Sm280 O308 2.386 1_556 S
Sm280 O311 2.408 . S
Sm281 C291 2.846 . S
Sm281 O302 2.386 . S
Sm281 O305 2.408 1_556 S
Sm281 O306 2.543 . S
Sm281 O307 2.450 . S
Sm281 O308 2.681 1_556 S
Sm281 O309 2.464 1_556 S
Sm281 O310 2.396 . S
C282 Sm280 2.846 1_554 S
C282 C283 1.506 1_545 S
C282 O300 1.261 . S
C282 O301 1.242 . S
C283 C282 1.506 1_565 S
C283 C284 1.358 . S
C283 C288 1.382 . S
C284 C283 1.358 . S
C284 C285 1.385 . S
C284 H312 0.930 1_565 S
C285 C284 1.385 . S
C285 C286 1.395 . S
C285 H313 0.929 . S
C286 C285 1.395 . S
C286 C287 1.335 . S
C287 C286 1.335 . S
C287 C288 1.398 . S
C287 H314 0.930 . S
C288 C283 1.382 . S
C288 C287 1.398 . S
C288 H315 0.929 . S
C289 O302 1.271 . S
C289 O303 1.251 . S
C290 O304 1.252 . S
C290 O305 1.272 . S
C291 Sm281 2.846 . S
C291 C292 1.506 . S
C291 O306 1.261 . S
C291 O307 1.242 . S
C292 C291 1.506 . S
C292 C293 1.358 . S
C292 C297 1.382 . S
C293 C292 1.358 . S
C293 C294 1.385 . S
C293 H316 0.930 . S
C294 C293 1.385 . S
C294 C295 1.395 . S
C294 H317 0.929 . S
C295 C294 1.395 . S
C295 C296 1.335 . S
C296 C295 1.335 . S
C296 C297 1.398 . S
C296 H318 0.930 . S
C297 C292 1.382 . S
C297 C296 1.398 . S
C297 H319 0.929 . S
C298 O308 1.271 . S
C298 O309 1.251 . S
C299 O310 1.252 . S
C299 O311 1.272 . S
O300 Sm280 2.543 1_554 S
O300 C282 1.261 . S
O301 Sm280 2.450 1_554 S
O301 C282 1.242 . S
O302 Sm280 2.681 . S
O302 Sm281 2.386 . S
O302 C289 1.271 . S
O303 Sm280 2.464 . S
O303 C289 1.251 . S
O304 Sm280 2.396 1_554 S
O304 C290 1.252 . S
O305 Sm281 2.408 1_554 S
O305 C290 1.272 . S
O306 Sm281 2.543 . S
O306 C291 1.261 . S
O307 Sm281 2.450 . S
O307 C291 1.242 . S
O308 Sm280 2.386 1_554 S
O308 Sm281 2.681 1_554 S
O308 C298 1.271 . S
O309 Sm281 2.464 1_554 S
O309 C298 1.251 . S
O310 Sm281 2.396 . S
O310 C299 1.252 . S
O311 Sm280 2.408 . S
O311 C299 1.272 . S
H312 C284 0.930 1_545 S
H313 C285 0.929 . S
H314 C287 0.930 . S
H315 C288 0.929 . S
H316 C293 0.930 . S
H317 C294 0.929 . S
H318 C296 0.930 . S
H319 C297 0.929 . S
Sm320 C322 2.846 . S
Sm320 O340 2.543 . S
Sm320 O341 2.450 . S
Sm320 O342 2.681 . S
Sm320 O343 2.464 . S
Sm320 O344 2.396 . S
Sm320 O348 2.386 . S
Sm320 O351 2.408 . S
Sm321 C331 2.846 . S
Sm321 O342 2.386 . S
Sm321 O345 2.408 . S
Sm321 O346 2.543 . S
Sm321 O347 2.450 . S
Sm321 O348 2.681 . S
Sm321 O349 2.464 . S
Sm321 O350 2.396 . S
C322 Sm320 2.846 . S
C322 C323 1.506 1_655 S
C322 O340 1.261 . S
C322 O341 1.242 . S
C323 C322 1.506 1_455 S
C323 C324 1.358 . S
C323 C328 1.382 . S
C324 C323 1.358 . S
C324 C325 1.385 . S
C324 H352 0.930 1_455 S
C325 C324 1.385 . S
C325 C326 1.395 . S
C325 H353 0.929 . S
C326 C325 1.395 . S
C326 C327 1.335 . S
C327 C326 1.335 . S
C327 C328 1.398 . S
C327 H354 0.930 . S
C328 C323 1.382 . S
C328 C327 1.398 . S
C328 H355 0.929 . S
C329 O342 1.271 . S
C329 O343 1.251 . S
C330 O344 1.252 . S
C330 O345 1.272 . S
C331 Sm321 2.846 . S
C331 C332 1.506 . S
C331 O346 1.261 . S
C331 O347 1.242 . S
C332 C331 1.506 . S
C332 C333 1.358 . S
C332 C337 1.382 . S
C333 C332 1.358 . S
C333 C334 1.385 . S
C333 H356 0.930 . S
C334 C333 1.385 . S
C334 C335 1.395 . S
C334 H357 0.929 . S
C335 C334 1.395 . S
C335 C336 1.335 . S
C336 C335 1.335 . S
C336 C337 1.398 . S
C336 H358 0.930 . S
C337 C332 1.382 . S
C337 C336 1.398 . S
C337 H359 0.929 . S
C338 O348 1.271 . S
C338 O349 1.251 . S
C339 O350 1.252 . S
C339 O351 1.272 . S
O340 Sm320 2.543 . S
O340 C322 1.261 . S
O341 Sm320 2.450 . S
O341 C322 1.242 . S
O342 Sm320 2.681 . S
O342 Sm321 2.386 . S
O342 C329 1.271 . S
O343 Sm320 2.464 . S
O343 C329 1.251 . S
O344 Sm320 2.396 . S
O344 C330 1.252 . S
O345 Sm321 2.408 . S
O345 C330 1.272 . S
O346 Sm321 2.543 . S
O346 C331 1.261 . S
O347 Sm321 2.450 . S
O347 C331 1.242 . S
O348 Sm320 2.386 . S
O348 Sm321 2.681 . S
O348 C338 1.271 . S
O349 Sm321 2.464 . S
O349 C338 1.251 . S
O350 Sm321 2.396 . S
O350 C339 1.252 . S
O351 Sm320 2.408 . S
O351 C339 1.272 . S
H352 C324 0.930 1_655 S
H353 C325 0.929 . S
H354 C327 0.930 . S
H355 C328 0.929 . S
H356 C333 0.930 . S
H357 C334 0.929 . S
H358 C336 0.930 . S
H359 C337 0.929 . S
Sm360 C362 2.846 . S
Sm360 O380 2.543 . S
Sm360 O381 2.450 . S
Sm360 O382 2.681 . S
Sm360 O383 2.464 . S
Sm360 O384 2.396 . S
Sm360 O388 2.386 . S
Sm360 O391 2.408 . S
Sm361 C371 2.846 . S
Sm361 O382 2.386 . S
Sm361 O385 2.408 . S
Sm361 O386 2.543 . S
Sm361 O387 2.450 . S
Sm361 O388 2.681 . S
Sm361 O389 2.464 . S
Sm361 O390 2.396 . S
C362 Sm360 2.846 . S
C362 C363 1.506 . S
C362 O380 1.261 . S
C362 O381 1.242 . S
C363 C362 1.506 . S
C363 C364 1.358 . S
C363 C368 1.382 . S
C364 C363 1.358 . S
C364 C365 1.385 . S
C364 H392 0.930 . S
C365 C364 1.385 . S
C365 C366 1.395 . S
C365 H393 0.929 . S
C366 C365 1.395 . S
C366 C367 1.335 . S
C367 C366 1.335 . S
C367 C368 1.398 . S
C367 H394 0.930 . S
C368 C363 1.382 . S
C368 C367 1.398 . S
C368 H395 0.929 . S
C369 O382 1.271 . S
C369 O383 1.251 . S
C370 O384 1.252 . S
C370 O385 1.272 . S
C371 Sm361 2.846 . S
C371 C372 1.506 1_545 S
C371 O386 1.261 . S
C371 O387 1.242 . S
C372 C371 1.506 1_565 S
C372 C373 1.358 . S
C372 C377 1.382 . S
C373 C372 1.358 . S
C373 C374 1.385 . S
C373 H396 0.930 1_565 S
C374 C373 1.385 . S
C374 C375 1.395 . S
C374 H397 0.929 . S
C375 C374 1.395 . S
C375 C376 1.335 . S
C376 C375 1.335 . S
C376 C377 1.398 . S
C376 H398 0.930 . S
C377 C372 1.382 . S
C377 C376 1.398 . S
C377 H399 0.929 . S
C378 O388 1.271 . S
C378 O389 1.251 . S
C379 O390 1.252 . S
C379 O391 1.272 . S
O380 Sm360 2.543 . S
O380 C362 1.261 . S
O381 Sm360 2.450 . S
O381 C362 1.242 . S
O382 Sm360 2.681 . S
O382 Sm361 2.386 . S
O382 C369 1.271 . S
O383 Sm360 2.464 . S
O383 C369 1.251 . S
O384 Sm360 2.396 . S
O384 C370 1.252 . S
O385 Sm361 2.408 . S
O385 C370 1.272 . S
O386 Sm361 2.543 . S
O386 C371 1.261 . S
O387 Sm361 2.450 . S
O387 C371 1.242 . S
O388 Sm360 2.386 . S
O388 Sm361 2.681 . S
O388 C378 1.271 . S
O389 Sm361 2.464 . S
O389 C378 1.251 . S
O390 Sm361 2.396 . S
O390 C379 1.252 . S
O391 Sm360 2.408 . S
O391 C379 1.272 . S
H392 C364 0.930 . S
H393 C365 0.929 . S
H394 C367 0.930 . S
H395 C368 0.929 . S
H396 C373 0.930 1_545 S
H397 C374 0.929 . S
H398 C376 0.930 . S
H399 C377 0.929 . S
Sm400 C402 2.846 . S
Sm400 O420 2.543 . S
Sm400 O421 2.450 . S
Sm400 O422 2.681 . S
Sm400 O423 2.464 . S
Sm400 O424 2.396 . S
Sm400 O428 2.386 . S
Sm400 O431 2.408 . S
Sm401 C411 2.846 . S
Sm401 O422 2.386 . S
Sm401 O425 2.408 . S
Sm401 O426 2.543 . S
Sm401 O427 2.450 . S
Sm401 O428 2.681 . S
Sm401 O429 2.464 . S
Sm401 O430 2.396 . S
C402 Sm400 2.846 . S
C402 C403 1.506 . S
C402 O420 1.261 . S
C402 O421 1.242 . S
C403 C402 1.506 . S
C403 C404 1.358 . S
C403 C408 1.382 . S
C404 C403 1.358 . S
C404 C405 1.385 . S
C404 H432 0.930 . S
C405 C404 1.385 . S
C405 C406 1.395 . S
C405 H433 0.929 . S
C406 C405 1.395 . S
C406 C407 1.335 . S
C407 C406 1.335 . S
C407 C408 1.398 . S
C407 H434 0.930 . S
C408 C403 1.382 . S
C408 C407 1.398 . S
C408 H435 0.929 . S
C409 O422 1.271 . S
C409 O423 1.251 . S
C410 O424 1.252 . S
C410 O425 1.272 . S
C411 Sm401 2.846 . S
C411 C412 1.506 . S
C411 O426 1.261 . S
C411 O427 1.242 . S
C412 C411 1.506 . S
C412 C413 1.358 . S
C412 C417 1.382 . S
C413 C412 1.358 . S
C413 C414 1.385 . S
C413 H436 0.930 . S
C414 C413 1.385 . S
C414 C415 1.395 . S
C414 H437 0.929 . S
C415 C414 1.395 . S
C415 C416 1.335 . S
C416 C415 1.335 . S
C416 C417 1.398 . S
C416 H438 0.930 . S
C417 C412 1.382 . S
C417 C416 1.398 . S
C417 H439 0.929 . S
C418 O428 1.271 . S
C418 O429 1.251 . S
C419 O430 1.252 . S
C419 O431 1.272 . S
O420 Sm400 2.543 . S
O420 C402 1.261 . S
O421 Sm400 2.450 . S
O421 C402 1.242 . S
O422 Sm400 2.681 . S
O422 Sm401 2.386 . S
O422 C409 1.271 . S
O423 Sm400 2.464 . S
O423 C409 1.251 . S
O424 Sm400 2.396 . S
O424 C410 1.252 . S
O425 Sm401 2.408 . S
O425 C410 1.272 . S
O426 Sm401 2.543 . S
O426 C411 1.261 . S
O427 Sm401 2.450 . S
O427 C411 1.242 . S
O428 Sm400 2.386 . S
O428 Sm401 2.681 . S
O428 C418 1.271 . S
O429 Sm401 2.464 . S
O429 C418 1.251 . S
O430 Sm401 2.396 . S
O430 C419 1.252 . S
O431 Sm400 2.408 . S
O431 C419 1.272 . S
H432 C404 0.930 . S
H433 C405 0.929 . S
H434 C407 0.930 . S
H435 C408 0.929 . S
H436 C413 0.930 . S
H437 C414 0.929 . S
H438 C416 0.930 . S
H439 C417 0.929 . S
Sm440 C442 2.846 . S
Sm440 O460 2.543 . S
Sm440 O461 2.450 . S
Sm440 O462 2.681 1_556 S
Sm440 O463 2.464 1_556 S
Sm440 O464 2.396 . S
Sm440 O468 2.386 . S
Sm440 O471 2.408 1_556 S
Sm441 C451 2.846 1_556 S
Sm441 O462 2.386 1_556 S
Sm441 O465 2.408 . S
Sm441 O466 2.543 1_556 S
Sm441 O467 2.450 1_556 S
Sm441 O468 2.681 . S
Sm441 O469 2.464 . S
Sm441 O470 2.396 1_556 S
C442 Sm440 2.846 . S
C442 C443 1.506 . S
C442 O460 1.261 . S
C442 O461 1.242 . S
C443 C442 1.506 . S
C443 C444 1.358 . S
C443 C448 1.382 . S
C444 C443 1.358 . S
C444 C445 1.385 . S
C444 H472 0.930 . S
C445 C444 1.385 . S
C445 C446 1.395 . S
C445 H473 0.929 . S
C446 C445 1.395 . S
C446 C447 1.335 . S
C447 C446 1.335 . S
C447 C448 1.398 . S
C447 H474 0.930 . S
C448 C443 1.382 . S
C448 C447 1.398 . S
C448 H475 0.929 . S
C449 O462 1.271 . S
C449 O463 1.251 . S
C450 O464 1.252 . S
C450 O465 1.272 . S
C451 Sm441 2.846 1_554 S
C451 C452 1.506 1_565 S
C451 O466 1.261 . S
C451 O467 1.242 . S
C452 C451 1.506 1_545 S
C452 C453 1.358 . S
C452 C457 1.382 . S
C453 C452 1.358 . S
C453 C454 1.385 . S
C453 H476 0.930 1_545 S
C454 C453 1.385 . S
C454 C455 1.395 . S
C454 H477 0.929 . S
C455 C454 1.395 . S
C455 C456 1.335 . S
C456 C455 1.335 . S
C456 C457 1.398 . S
C456 H478 0.930 . S
C457 C452 1.382 . S
C457 C456 1.398 . S
C457 H479 0.929 . S
C458 O468 1.271 . S
C458 O469 1.251 . S
C459 O470 1.252 . S
C459 O471 1.272 . S
O460 Sm440 2.543 . S
O460 C442 1.261 . S
O461 Sm440 2.450 . S
O461 C442 1.242 . S
O462 Sm440 2.681 1_554 S
O462 Sm441 2.386 1_554 S
O462 C449 1.271 . S
O463 Sm440 2.464 1_554 S
O463 C449 1.251 . S
O464 Sm440 2.396 . S
O464 C450 1.252 . S
O465 Sm441 2.408 . S
O465 C450 1.272 . S
O466 Sm441 2.543 1_554 S
O466 C451 1.261 . S
O467 Sm441 2.450 1_554 S
O467 C451 1.242 . S
O468 Sm440 2.386 . S
O468 Sm441 2.681 . S
O468 C458 1.271 . S
O469 Sm441 2.464 . S
O469 C458 1.251 . S
O470 Sm441 2.396 1_554 S
O470 C459 1.252 . S
O471 Sm440 2.408 1_554 S
O471 C459 1.272 . S
H472 C444 0.930 . S
H473 C445 0.929 . S
H474 C447 0.930 . S
H475 C448 0.929 . S
H476 C453 0.930 1_565 S
H477 C454 0.929 . S
H478 C456 0.930 . S
H479 C457 0.929 . S
Sm480 C482 2.846 . S
Sm480 O500 2.543 . S
Sm480 O501 2.450 . S
Sm480 O502 2.681 . S
Sm480 O503 2.464 . S
Sm480 O504 2.396 . S
Sm480 O508 2.386 . S
Sm480 O511 2.408 . S
Sm481 C491 2.846 . S
Sm481 O502 2.386 . S
Sm481 O505 2.408 . S
Sm481 O506 2.543 . S
Sm481 O507 2.450 . S
Sm481 O508 2.681 . S
Sm481 O509 2.464 . S
Sm481 O510 2.396 . S
C482 Sm480 2.846 . S
C482 C483 1.506 1_655 S
C482 O500 1.261 . S
C482 O501 1.242 . S
C483 C482 1.506 1_455 S
C483 C484 1.358 . S
C483 C488 1.382 . S
C484 C483 1.358 . S
C484 C485 1.385 . S
C484 H512 0.930 1_455 S
C485 C484 1.385 . S
C485 C486 1.395 . S
C485 H513 0.929 . S
C486 C485 1.395 . S
C486 C487 1.335 . S
C487 C486 1.335 . S
C487 C488 1.398 . S
C487 H514 0.930 . S
C488 C483 1.382 . S
C488 C487 1.398 . S
C488 H515 0.929 . S
C489 O502 1.271 . S
C489 O503 1.251 . S
C490 O504 1.252 . S
C490 O505 1.272 . S
C491 Sm481 2.846 . S
C491 C492 1.506 . S
C491 O506 1.261 . S
C491 O507 1.242 . S
C492 C491 1.506 . S
C492 C493 1.358 . S
C492 C497 1.382 . S
C493 C492 1.358 . S
C493 C494 1.385 . S
C493 H516 0.930 . S
C494 C493 1.385 . S
C494 C495 1.395 . S
C494 H517 0.929 . S
C495 C494 1.395 . S
C495 C496 1.335 . S
C496 C495 1.335 . S
C496 C497 1.398 . S
C496 H518 0.930 . S
C497 C492 1.382 . S
C497 C496 1.398 . S
C497 H519 0.929 . S
C498 O508 1.271 . S
C498 O509 1.251 . S
C499 O510 1.252 . S
C499 O511 1.272 . S
O500 Sm480 2.543 . S
O500 C482 1.261 . S
O501 Sm480 2.450 . S
O501 C482 1.242 . S
O502 Sm480 2.681 . S
O502 Sm481 2.386 . S
O502 C489 1.271 . S
O503 Sm480 2.464 . S
O503 C489 1.251 . S
O504 Sm480 2.396 . S
O504 C490 1.252 . S
O505 Sm481 2.408 . S
O505 C490 1.272 . S
O506 Sm481 2.543 . S
O506 C491 1.261 . S
O507 Sm481 2.450 . S
O507 C491 1.242 . S
O508 Sm480 2.386 . S
O508 Sm481 2.681 . S
O508 C498 1.271 . S
O509 Sm481 2.464 . S
O509 C498 1.251 . S
O510 Sm481 2.396 . S
O510 C499 1.252 . S
O511 Sm480 2.408 . S
O511 C499 1.272 . S
H512 C484 0.930 1_655 S
H513 C485 0.929 . S
H514 C487 0.930 . S
H515 C488 0.929 . S
H516 C493 0.930 . S
H517 C494 0.929 . S
H518 C496 0.930 . S
H519 C497 0.929 . S
Sm520 C522 2.846 . S
Sm520 O540 2.543 . S
Sm520 O541 2.450 . S
Sm520 O542 2.681 . S
Sm520 O543 2.464 . S
Sm520 O544 2.396 . S
Sm520 O548 2.386 . S
Sm520 O551 2.408 . S
Sm521 C531 2.846 . S
Sm521 O542 2.386 . S
Sm521 O545 2.408 . S
Sm521 O546 2.543 . S
Sm521 O547 2.450 . S
Sm521 O548 2.681 . S
Sm521 O549 2.464 . S
Sm521 O550 2.396 . S
C522 Sm520 2.846 . S
C522 C523 1.506 . S
C522 O540 1.261 . S
C522 O541 1.242 . S
C523 C522 1.506 . S
C523 C524 1.358 . S
C523 C528 1.382 . S
C524 C523 1.358 . S
C524 C525 1.385 . S
C524 H552 0.930 . S
C525 C524 1.385 . S
C525 C526 1.395 . S
C525 H553 0.929 . S
C526 C525 1.395 . S
C526 C527 1.335 . S
C527 C526 1.335 . S
C527 C528 1.398 . S
C527 H554 0.930 . S
C528 C523 1.382 . S
C528 C527 1.398 . S
C528 H555 0.929 . S
C529 O542 1.271 . S
C529 O543 1.251 . S
C530 O544 1.252 . S
C530 O545 1.272 . S
C531 Sm521 2.846 . S
C531 C532 1.506 1_545 S
C531 O546 1.261 . S
C531 O547 1.242 . S
C532 C531 1.506 1_565 S
C532 C533 1.358 . S
C532 C537 1.382 . S
C533 C532 1.358 . S
C533 C534 1.385 . S
C533 H556 0.930 1_565 S
C534 C533 1.385 . S
C534 C535 1.395 . S
C534 H557 0.929 . S
C535 C534 1.395 . S
C535 C536 1.335 . S
C536 C535 1.335 . S
C536 C537 1.398 . S
C536 H558 0.930 . S
C537 C532 1.382 . S
C537 C536 1.398 . S
C537 H559 0.929 . S
C538 O548 1.271 . S
C538 O549 1.251 . S
C539 O550 1.252 . S
C539 O551 1.272 . S
O540 Sm520 2.543 . S
O540 C522 1.261 . S
O541 Sm520 2.450 . S
O541 C522 1.242 . S
O542 Sm520 2.681 . S
O542 Sm521 2.386 . S
O542 C529 1.271 . S
O543 Sm520 2.464 . S
O543 C529 1.251 . S
O544 Sm520 2.396 . S
O544 C530 1.252 . S
O545 Sm521 2.408 . S
O545 C530 1.272 . S
O546 Sm521 2.543 . S
O546 C531 1.261 . S
O547 Sm521 2.450 . S
O547 C531 1.242 . S
O548 Sm520 2.386 . S
O548 Sm521 2.681 . S
O548 C538 1.271 . S
O549 Sm521 2.464 . S
O549 C538 1.251 . S
O550 Sm521 2.396 . S
O550 C539 1.252 . S
O551 Sm520 2.408 . S
O551 C539 1.272 . S
H552 C524 0.930 . S
H553 C525 0.929 . S
H554 C527 0.930 . S
H555 C528 0.929 . S
H556 C533 0.930 1_545 S
H557 C534 0.929 . S
H558 C536 0.930 . S
H559 C537 0.929 . S
Sm560 C562 2.846 . S
Sm560 O580 2.543 . S
Sm560 O581 2.450 . S
Sm560 O582 2.681 . S
Sm560 O583 2.464 . S
Sm560 O584 2.396 . S
Sm560 O588 2.386 . S
Sm560 O591 2.408 . S
Sm561 C571 2.846 . S
Sm561 O582 2.386 . S
Sm561 O585 2.408 . S
Sm561 O586 2.543 . S
Sm561 O587 2.450 . S
Sm561 O588 2.681 . S
Sm561 O589 2.464 . S
Sm561 O590 2.396 . S
C562 Sm560 2.846 . S
C562 C563 1.506 . S
C562 O580 1.261 . S
C562 O581 1.242 . S
C563 C562 1.506 . S
C563 C564 1.358 . S
C563 C568 1.382 . S
C564 C563 1.358 . S
C564 C565 1.385 . S
C564 H592 0.930 . S
C565 C564 1.385 . S
C565 C566 1.395 . S
C565 H593 0.929 . S
C566 C565 1.395 . S
C566 C567 1.335 . S
C567 C566 1.335 . S
C567 C568 1.398 . S
C567 H594 0.930 . S
C568 C563 1.382 . S
C568 C567 1.398 . S
C568 H595 0.929 . S
C569 O582 1.271 . S
C569 O583 1.251 . S
C570 O584 1.252 . S
C570 O585 1.272 . S
C571 Sm561 2.846 . S
C571 C572 1.506 . S
C571 O586 1.261 . S
C571 O587 1.242 . S
C572 C571 1.506 . S
C572 C573 1.358 . S
C572 C577 1.382 . S
C573 C572 1.358 . S
C573 C574 1.385 . S
C573 H596 0.930 . S
C574 C573 1.385 . S
C574 C575 1.395 . S
C574 H597 0.929 . S
C575 C574 1.395 . S
C575 C576 1.335 . S
C576 C575 1.335 . S
C576 C577 1.398 . S
C576 H598 0.930 . S
C577 C572 1.382 . S
C577 C576 1.398 . S
C577 H599 0.929 . S
C578 O588 1.271 . S
C578 O589 1.251 . S
C579 O590 1.252 . S
C579 O591 1.272 . S
O580 Sm560 2.543 . S
O580 C562 1.261 . S
O581 Sm560 2.450 . S
O581 C562 1.242 . S
O582 Sm560 2.681 . S
O582 Sm561 2.386 . S
O582 C569 1.271 . S
O583 Sm560 2.464 . S
O583 C569 1.251 . S
O584 Sm560 2.396 . S
O584 C570 1.252 . S
O585 Sm561 2.408 . S
O585 C570 1.272 . S
O586 Sm561 2.543 . S
O586 C571 1.261 . S
O587 Sm561 2.450 . S
O587 C571 1.242 . S
O588 Sm560 2.386 . S
O588 Sm561 2.681 . S
O588 C578 1.271 . S
O589 Sm561 2.464 . S
O589 C578 1.251 . S
O590 Sm561 2.396 . S
O590 C579 1.252 . S
O591 Sm560 2.408 . S
O591 C579 1.272 . S
H592 C564 0.930 . S
H593 C565 0.929 . S
H594 C567 0.930 . S
H595 C568 0.929 . S
H596 C573 0.930 . S
H597 C574 0.929 . S
H598 C576 0.930 . S
H599 C577 0.929 . S
Sm600 C602 2.846 . S
Sm600 O620 2.543 . S
Sm600 O621 2.450 . S
Sm600 O622 2.681 1_554 S
Sm600 O623 2.464 1_554 S
Sm600 O624 2.396 . S
Sm600 O628 2.386 . S
Sm600 O631 2.408 1_554 S
Sm601 C611 2.846 1_554 S
Sm601 O622 2.386 1_554 S
Sm601 O625 2.408 . S
Sm601 O626 2.543 1_554 S
Sm601 O627 2.450 1_554 S
Sm601 O628 2.681 . S
Sm601 O629 2.464 . S
Sm601 O630 2.396 1_554 S
C602 Sm600 2.846 . S
C602 C603 1.506 . S
C602 O620 1.261 . S
C602 O621 1.242 . S
C603 C602 1.506 . S
C603 C604 1.358 . S
C603 C608 1.382 . S
C604 C603 1.358 . S
C604 C605 1.385 . S
C604 H632 0.930 . S
C605 C604 1.385 . S
C605 C606 1.395 . S
C605 H633 0.929 . S
C606 C605 1.395 . S
C606 C607 1.335 . S
C607 C606 1.335 . S
C607 C608 1.398 . S
C607 H634 0.930 . S
C608 C603 1.382 . S
C608 C607 1.398 . S
C608 H635 0.929 . S
C609 O622 1.271 . S
C609 O623 1.251 . S
C610 O624 1.252 . S
C610 O625 1.272 . S
C611 Sm601 2.846 1_556 S
C611 C612 1.506 1_565 S
C611 O626 1.261 . S
C611 O627 1.242 . S
C612 C611 1.506 1_545 S
C612 C613 1.358 . S
C612 C617 1.382 . S
C613 C612 1.358 . S
C613 C614 1.385 . S
C613 H636 0.930 1_545 S
C614 C613 1.385 . S
C614 C615 1.395 . S
C614 H637 0.929 . S
C615 C614 1.395 . S
C615 C616 1.335 . S
C616 C615 1.335 . S
C616 C617 1.398 . S
C616 H638 0.930 . S
C617 C612 1.382 . S
C617 C616 1.398 . S
C617 H639 0.929 . S
C618 O628 1.271 . S
C618 O629 1.251 . S
C619 O630 1.252 . S
C619 O631 1.272 . S
O620 Sm600 2.543 . S
O620 C602 1.261 . S
O621 Sm600 2.450 . S
O621 C602 1.242 . S
O622 Sm600 2.681 1_556 S
O622 Sm601 2.386 1_556 S
O622 C609 1.271 . S
O623 Sm600 2.464 1_556 S
O623 C609 1.251 . S
O624 Sm600 2.396 . S
O624 C610 1.252 . S
O625 Sm601 2.408 . S
O625 C610 1.272 . S
O626 Sm601 2.543 1_556 S
O626 C611 1.261 . S
O627 Sm601 2.450 1_556 S
O627 C611 1.242 . S
O628 Sm600 2.386 . S
O628 Sm601 2.681 . S
O628 C618 1.271 . S
O629 Sm601 2.464 . S
O629 C618 1.251 . S
O630 Sm601 2.396 1_556 S
O630 C619 1.252 . S
O631 Sm600 2.408 1_556 S
O631 C619 1.272 . S
H632 C604 0.930 . S
H633 C605 0.929 . S
H634 C607 0.930 . S
H635 C608 0.929 . S
H636 C613 0.930 1_565 S
H637 C614 0.929 . S
H638 C616 0.930 . S
H639 C617 0.929 . S
Sm640 C642 2.846 . S
Sm640 O660 2.543 . S
Sm640 O661 2.450 . S
Sm640 O662 2.681 . S
Sm640 O663 2.464 . S
Sm640 O664 2.396 . S
Sm640 O668 2.386 . S
Sm640 O671 2.408 . S
Sm641 C651 2.846 . S
Sm641 O662 2.386 . S
Sm641 O665 2.408 . S
Sm641 O666 2.543 . S
Sm641 O667 2.450 . S
Sm641 O668 2.681 . S
Sm641 O669 2.464 . S
Sm641 O670 2.396 . S
C642 Sm640 2.846 . S
C642 C643 1.506 . S
C642 O660 1.261 . S
C642 O661 1.242 . S
C643 C642 1.506 . S
C643 C644 1.358 . S
C643 C648 1.382 . S
C644 C643 1.358 . S
C644 C645 1.385 . S
C644 H672 0.930 . S
C645 C644 1.385 . S
C645 C646 1.395 . S
C645 H673 0.929 . S
C646 C645 1.395 . S
C646 C647 1.335 . S
C647 C646 1.335 . S
C647 C648 1.398 . S
C647 H674 0.930 . S
C648 C643 1.382 . S
C648 C647 1.398 . S
C648 H675 0.929 . S
C649 O662 1.271 . S
C649 O663 1.251 . S
C650 O664 1.252 . S
C650 O665 1.272 . S
C651 Sm641 2.846 . S
C651 C652 1.506 . S
C651 O666 1.261 . S
C651 O667 1.242 . S
C652 C651 1.506 . S
C652 C653 1.358 . S
C652 C657 1.382 . S
C653 C652 1.358 . S
C653 C654 1.385 . S
C653 H676 0.930 . S
C654 C653 1.385 . S
C654 C655 1.395 . S
C654 H677 0.929 . S
C655 C654 1.395 . S
C655 C656 1.335 . S
C656 C655 1.335 . S
C656 C657 1.398 . S
C656 H678 0.930 . S
C657 C652 1.382 . S
C657 C656 1.398 . S
C657 H679 0.929 . S
C658 O668 1.271 . S
C658 O669 1.251 . S
C659 O670 1.252 . S
C659 O671 1.272 . S
O660 Sm640 2.543 . S
O660 C642 1.261 . S
O661 Sm640 2.450 . S
O661 C642 1.242 . S
O662 Sm640 2.681 . S
O662 Sm641 2.386 . S
O662 C649 1.271 . S
O663 Sm640 2.464 . S
O663 C649 1.251 . S
O664 Sm640 2.396 . S
O664 C650 1.252 . S
O665 Sm641 2.408 . S
O665 C650 1.272 . S
O666 Sm641 2.543 . S
O666 C651 1.261 . S
O667 Sm641 2.450 . S
O667 C651 1.242 . S
O668 Sm640 2.386 . S
O668 Sm641 2.681 . S
O668 C658 1.271 . S
O669 Sm641 2.464 . S
O669 C658 1.251 . S
O670 Sm641 2.396 . S
O670 C659 1.252 . S
O671 Sm640 2.408 . S
O671 C659 1.272 . S
H672 C644 0.930 . S
H673 C645 0.929 . S
H674 C647 0.930 . S
H675 C648 0.929 . S
H676 C653 0.930 . S
H677 C654 0.929 . S
H678 C656 0.930 . S
H679 C657 0.929 . S
Sm680 C682 2.846 1_554 S
Sm680 O700 2.543 1_554 S
Sm680 O701 2.450 1_554 S
Sm680 O702 2.681 . S
Sm680 O703 2.464 . S
Sm680 O704 2.396 1_554 S
Sm680 O708 2.386 1_554 S
Sm680 O711 2.408 . S
Sm681 C691 2.846 . S
Sm681 O702 2.386 . S
Sm681 O705 2.408 1_554 S
Sm681 O706 2.543 . S
Sm681 O707 2.450 . S
Sm681 O708 2.681 1_554 S
Sm681 O709 2.464 1_554 S
Sm681 O710 2.396 . S
C682 Sm680 2.846 1_556 S
C682 C683 1.506 . S
C682 O700 1.261 . S
C682 O701 1.242 . S
C683 C682 1.506 . S
C683 C684 1.358 . S
C683 C688 1.382 . S
C684 C683 1.358 . S
C684 C685 1.385 . S
C684 H712 0.930 . S
C685 C684 1.385 . S
C685 C686 1.395 . S
C685 H713 0.929 . S
C686 C685 1.395 . S
C686 C687 1.335 . S
C687 C686 1.335 . S
C687 C688 1.398 . S
C687 H714 0.930 . S
C688 C683 1.382 . S
C688 C687 1.398 . S
C688 H715 0.929 . S
C689 O702 1.271 . S
C689 O703 1.251 . S
C690 O704 1.252 . S
C690 O705 1.272 . S
C691 Sm681 2.846 . S
C691 C692 1.506 . S
C691 O706 1.261 . S
C691 O707 1.242 . S
C692 C691 1.506 . S
C692 C693 1.358 . S
C692 C697 1.382 . S
C693 C692 1.358 . S
C693 C694 1.385 . S
C693 H716 0.930 . S
C694 C693 1.385 . S
C694 C695 1.395 . S
C694 H717 0.929 . S
C695 C694 1.395 . S
C695 C696 1.335 . S
C696 C695 1.335 . S
C696 C697 1.398 . S
C696 H718 0.930 . S
C697 C692 1.382 . S
C697 C696 1.398 . S
C697 H719 0.929 . S
C698 O708 1.271 . S
C698 O709 1.251 . S
C699 O710 1.252 . S
C699 O711 1.272 . S
O700 Sm680 2.543 1_556 S
O700 C682 1.261 . S
O701 Sm680 2.450 1_556 S
O701 C682 1.242 . S
O702 Sm680 2.681 . S
O702 Sm681 2.386 . S
O702 C689 1.271 . S
O703 Sm680 2.464 . S
O703 C689 1.251 . S
O704 Sm680 2.396 1_556 S
O704 C690 1.252 . S
O705 Sm681 2.408 1_556 S
O705 C690 1.272 . S
O706 Sm681 2.543 . S
O706 C691 1.261 . S
O707 Sm681 2.450 . S
O707 C691 1.242 . S
O708 Sm680 2.386 1_556 S
O708 Sm681 2.681 1_556 S
O708 C698 1.271 . S
O709 Sm681 2.464 1_556 S
O709 C698 1.251 . S
O710 Sm681 2.396 . S
O710 C699 1.252 . S
O711 Sm680 2.408 . S
O711 C699 1.272 . S
H712 C684 0.930 . S
H713 C685 0.929 . S
H714 C687 0.930 . S
H715 C688 0.929 . S
H716 C693 0.930 . S
H717 C694 0.929 . S
H718 C696 0.930 . S
H719 C697 0.929 . S
Sm720 C722 2.846 . S
Sm720 O740 2.543 . S
Sm720 O741 2.450 . S
Sm720 O742 2.681 . S
Sm720 O743 2.464 . S
Sm720 O744 2.396 . S
Sm720 O748 2.386 . S
Sm720 O751 2.408 . S
Sm721 C731 2.846 . S
Sm721 O742 2.386 . S
Sm721 O745 2.408 . S
Sm721 O746 2.543 . S
Sm721 O747 2.450 . S
Sm721 O748 2.681 . S
Sm721 O749 2.464 . S
Sm721 O750 2.396 . S
C722 Sm720 2.846 . S
C722 C723 1.506 . S
C722 O740 1.261 . S
C722 O741 1.242 . S
C723 C722 1.506 . S
C723 C724 1.358 . S
C723 C728 1.382 . S
C724 C723 1.358 . S
C724 C725 1.385 . S
C724 H752 0.930 . S
C725 C724 1.385 . S
C725 C726 1.395 . S
C725 H753 0.929 . S
C726 C725 1.395 . S
C726 C727 1.335 . S
C727 C726 1.335 . S
C727 C728 1.398 . S
C727 H754 0.930 . S
C728 C723 1.382 . S
C728 C727 1.398 . S
C728 H755 0.929 . S
C729 O742 1.271 . S
C729 O743 1.251 . S
C730 O744 1.252 . S
C730 O745 1.272 . S
C731 Sm721 2.846 . S
C731 C732 1.506 1_655 S
C731 O746 1.261 . S
C731 O747 1.242 . S
C732 C731 1.506 1_455 S
C732 C733 1.358 . S
C732 C737 1.382 . S
C733 C732 1.358 . S
C733 C734 1.385 . S
C733 H756 0.930 1_455 S
C734 C733 1.385 . S
C734 C735 1.395 . S
C734 H757 0.929 . S
C735 C734 1.395 . S
C735 C736 1.335 . S
C736 C735 1.335 . S
C736 C737 1.398 . S
C736 H758 0.930 . S
C737 C732 1.382 . S
C737 C736 1.398 . S
C737 H759 0.929 . S
C738 O748 1.271 . S
C738 O749 1.251 . S
C739 O750 1.252 . S
C739 O751 1.272 . S
O740 Sm720 2.543 . S
O740 C722 1.261 . S
O741 Sm720 2.450 . S
O741 C722 1.242 . S
O742 Sm720 2.681 . S
O742 Sm721 2.386 . S
O742 C729 1.271 . S
O743 Sm720 2.464 . S
O743 C729 1.251 . S
O744 Sm720 2.396 . S
O744 C730 1.252 . S
O745 Sm721 2.408 . S
O745 C730 1.272 . S
O746 Sm721 2.543 . S
O746 C731 1.261 . S
O747 Sm721 2.450 . S
O747 C731 1.242 . S
O748 Sm720 2.386 . S
O748 Sm721 2.681 . S
O748 C738 1.271 . S
O749 Sm721 2.464 . S
O749 C738 1.251 . S
O750 Sm721 2.396 . S
O750 C739 1.252 . S
O751 Sm720 2.408 . S
O751 C739 1.272 . S
H752 C724 0.930 . S
H753 C725 0.929 . S
H754 C727 0.930 . S
H755 C728 0.929 . S
H756 C733 0.930 1_655 S
H757 C734 0.929 . S
H758 C736 0.930 . S
H759 C737 0.929 . S
Sm760 C762 2.846 . S
Sm760 O780 2.543 . S
Sm760 O781 2.450 . S
Sm760 O782 2.681 . S
Sm760 O783 2.464 . S
Sm760 O784 2.396 . S
Sm760 O788 2.386 . S
Sm760 O791 2.408 . S
Sm761 C771 2.846 . S
Sm761 O782 2.386 . S
Sm761 O785 2.408 . S
Sm761 O786 2.543 . S
Sm761 O787 2.450 . S
Sm761 O788 2.681 . S
Sm761 O789 2.464 . S
Sm761 O790 2.396 . S
C762 Sm760 2.846 . S
C762 C763 1.506 . S
C762 O780 1.261 . S
C762 O781 1.242 . S
C763 C762 1.506 . S
C763 C764 1.358 . S
C763 C768 1.382 . S
C764 C763 1.358 . S
C764 C765 1.385 . S
C764 H792 0.930 . S
C765 C764 1.385 . S
C765 C766 1.395 . S
C765 H793 0.929 . S
C766 C765 1.395 . S
C766 C767 1.335 . S
C767 C766 1.335 . S
C767 C768 1.398 . S
C767 H794 0.930 . S
C768 C763 1.382 . S
C768 C767 1.398 . S
C768 H795 0.929 . S
C769 O782 1.271 . S
C769 O783 1.251 . S
C770 O784 1.252 . S
C770 O785 1.272 . S
C771 Sm761 2.846 . S
C771 C772 1.506 . S
C771 O786 1.261 . S
C771 O787 1.242 . S
C772 C771 1.506 . S
C772 C773 1.358 . S
C772 C777 1.382 . S
C773 C772 1.358 . S
C773 C774 1.385 . S
C773 H796 0.930 . S
C774 C773 1.385 . S
C774 C775 1.395 . S
C774 H797 0.929 . S
C775 C774 1.395 . S
C775 C776 1.335 . S
C776 C775 1.335 . S
C776 C777 1.398 . S
C776 H798 0.930 . S
C777 C772 1.382 . S
C777 C776 1.398 . S
C777 H799 0.929 . S
C778 O788 1.271 . S
C778 O789 1.251 . S
C779 O790 1.252 . S
C779 O791 1.272 . S
O780 Sm760 2.543 . S
O780 C762 1.261 . S
O781 Sm760 2.450 . S
O781 C762 1.242 . S
O782 Sm760 2.681 . S
O782 Sm761 2.386 . S
O782 C769 1.271 . S
O783 Sm760 2.464 . S
O783 C769 1.251 . S
O784 Sm760 2.396 . S
O784 C770 1.252 . S
O785 Sm761 2.408 . S
O785 C770 1.272 . S
O786 Sm761 2.543 . S
O786 C771 1.261 . S
O787 Sm761 2.450 . S
O787 C771 1.242 . S
O788 Sm760 2.386 . S
O788 Sm761 2.681 . S
O788 C778 1.271 . S
O789 Sm761 2.464 . S
O789 C778 1.251 . S
O790 Sm761 2.396 . S
O790 C779 1.252 . S
O791 Sm760 2.408 . S
O791 C779 1.272 . S
H792 C764 0.930 . S
H793 C765 0.929 . S
H794 C767 0.930 . S
H795 C768 0.929 . S
H796 C773 0.930 . S
H797 C774 0.929 . S
H798 C776 0.930 . S
H799 C777 0.929 . S
Sm800 C802 2.846 . S
Sm800 O820 2.543 . S
Sm800 O821 2.450 . S
Sm800 O822 2.681 . S
Sm800 O823 2.464 . S
Sm800 O824 2.396 . S
Sm800 O828 2.386 . S
Sm800 O831 2.408 . S
Sm801 C811 2.846 . S
Sm801 O822 2.386 . S
Sm801 O825 2.408 . S
Sm801 O826 2.543 . S
Sm801 O827 2.450 . S
Sm801 O828 2.681 . S
Sm801 O829 2.464 . S
Sm801 O830 2.396 . S
C802 Sm800 2.846 . S
C802 C803 1.506 . S
C802 O820 1.261 . S
C802 O821 1.242 . S
C803 C802 1.506 . S
C803 C804 1.358 . S
C803 C808 1.382 . S
C804 C803 1.358 . S
C804 C805 1.385 . S
C804 H832 0.930 . S
C805 C804 1.385 . S
C805 C806 1.395 . S
C805 H833 0.929 . S
C806 C805 1.395 . S
C806 C807 1.335 . S
C807 C806 1.335 . S
C807 C808 1.398 . S
C807 H834 0.930 . S
C808 C803 1.382 . S
C808 C807 1.398 . S
C808 H835 0.929 . S
C809 O822 1.271 . S
C809 O823 1.251 . S
C810 O824 1.252 . S
C810 O825 1.272 . S
C811 Sm801 2.846 . S
C811 C812 1.506 . S
C811 O826 1.261 . S
C811 O827 1.242 . S
C812 C811 1.506 . S
C812 C813 1.358 . S
C812 C817 1.382 . S
C813 C812 1.358 . S
C813 C814 1.385 . S
C813 H836 0.930 . S
C814 C813 1.385 . S
C814 C815 1.395 . S
C814 H837 0.929 . S
C815 C814 1.395 . S
C815 C816 1.335 . S
C816 C815 1.335 . S
C816 C817 1.398 . S
C816 H838 0.930 . S
C817 C812 1.382 . S
C817 C816 1.398 . S
C817 H839 0.929 . S
C818 O828 1.271 . S
C818 O829 1.251 . S
C819 O830 1.252 . S
C819 O831 1.272 . S
O820 Sm800 2.543 . S
O820 C802 1.261 . S
O821 Sm800 2.450 . S
O821 C802 1.242 . S
O822 Sm800 2.681 . S
O822 Sm801 2.386 . S
O822 C809 1.271 . S
O823 Sm800 2.464 . S
O823 C809 1.251 . S
O824 Sm800 2.396 . S
O824 C810 1.252 . S
O825 Sm801 2.408 . S
O825 C810 1.272 . S
O826 Sm801 2.543 . S
O826 C811 1.261 . S
O827 Sm801 2.450 . S
O827 C811 1.242 . S
O828 Sm800 2.386 . S
O828 Sm801 2.681 . S
O828 C818 1.271 . S
O829 Sm801 2.464 . S
O829 C818 1.251 . S
O830 Sm801 2.396 . S
O830 C819 1.252 . S
O831 Sm800 2.408 . S
O831 C819 1.272 . S
H832 C804 0.930 . S
H833 C805 0.929 . S
H834 C807 0.930 . S
H835 C808 0.929 . S
H836 C813 0.930 . S
H837 C814 0.929 . S
H838 C816 0.930 . S
H839 C817 0.929 . S
Sm840 C842 2.846 1_556 S
Sm840 O860 2.543 1_556 S
Sm840 O861 2.450 1_556 S
Sm840 O862 2.681 . S
Sm840 O863 2.464 . S
Sm840 O864 2.396 1_556 S
Sm840 O868 2.386 1_556 S
Sm840 O871 2.408 . S
Sm841 C851 2.846 . S
Sm841 O862 2.386 . S
Sm841 O865 2.408 1_556 S
Sm841 O866 2.543 . S
Sm841 O867 2.450 . S
Sm841 O868 2.681 1_556 S
Sm841 O869 2.464 1_556 S
Sm841 O870 2.396 . S
C842 Sm840 2.846 1_554 S
C842 C843 1.506 . S
C842 O860 1.261 . S
C842 O861 1.242 . S
C843 C842 1.506 . S
C843 C844 1.358 . S
C843 C848 1.382 . S
C844 C843 1.358 . S
C844 C845 1.385 . S
C844 H872 0.930 . S
C845 C844 1.385 . S
C845 C846 1.395 . S
C845 H873 0.929 . S
C846 C845 1.395 . S
C846 C847 1.335 . S
C847 C846 1.335 . S
C847 C848 1.398 . S
C847 H874 0.930 . S
C848 C843 1.382 . S
C848 C847 1.398 . S
C848 H875 0.929 . S
C849 O862 1.271 . S
C849 O863 1.251 . S
C850 O864 1.252 . S
C850 O865 1.272 . S
C851 Sm841 2.846 . S
C851 C852 1.506 . S
C851 O866 1.261 . S
C851 O867 1.242 . S
C852 C851 1.506 . S
C852 C853 1.358 . S
C852 C857 1.382 . S
C853 C852 1.358 . S
C853 C854 1.385 . S
C853 H876 0.930 . S
C854 C853 1.385 . S
C854 C855 1.395 . S
C854 H877 0.929 . S
C855 C854 1.395 . S
C855 C856 1.335 . S
C856 C855 1.335 . S
C856 C857 1.398 . S
C856 H878 0.930 . S
C857 C852 1.382 . S
C857 C856 1.398 . S
C857 H879 0.929 . S
C858 O868 1.271 . S
C858 O869 1.251 . S
C859 O870 1.252 . S
C859 O871 1.272 . S
O860 Sm840 2.543 1_554 S
O860 C842 1.261 . S
O861 Sm840 2.450 1_554 S
O861 C842 1.242 . S
O862 Sm840 2.681 . S
O862 Sm841 2.386 . S
O862 C849 1.271 . S
O863 Sm840 2.464 . S
O863 C849 1.251 . S
O864 Sm840 2.396 1_554 S
O864 C850 1.252 . S
O865 Sm841 2.408 1_554 S
O865 C850 1.272 . S
O866 Sm841 2.543 . S
O866 C851 1.261 . S
O867 Sm841 2.450 . S
O867 C851 1.242 . S
O868 Sm840 2.386 1_554 S
O868 Sm841 2.681 1_554 S
O868 C858 1.271 . S
O869 Sm841 2.464 1_554 S
O869 C858 1.251 . S
O870 Sm841 2.396 . S
O870 C859 1.252 . S
O871 Sm840 2.408 . S
O871 C859 1.272 . S
H872 C844 0.930 . S
H873 C845 0.929 . S
H874 C847 0.930 . S
H875 C848 0.929 . S
H876 C853 0.930 . S
H877 C854 0.929 . S
H878 C856 0.930 . S
H879 C857 0.929 . S
Sm880 C882 2.846 . S
Sm880 O900 2.543 . S
Sm880 O901 2.450 . S
Sm880 O902 2.681 . S
Sm880 O903 2.464 . S
Sm880 O904 2.396 . S
Sm880 O908 2.386 . S
Sm880 O911 2.408 . S
Sm881 C891 2.846 . S
Sm881 O902 2.386 . S
Sm881 O905 2.408 . S
Sm881 O906 2.543 . S
Sm881 O907 2.450 . S
Sm881 O908 2.681 . S
Sm881 O909 2.464 . S
Sm881 O910 2.396 . S
C882 Sm880 2.846 . S
C882 C883 1.506 . S
C882 O900 1.261 . S
C882 O901 1.242 . S
C883 C882 1.506 . S
C883 C884 1.358 . S
C883 C888 1.382 . S
C884 C883 1.358 . S
C884 C885 1.385 . S
C884 H912 0.930 . S
C885 C884 1.385 . S
C885 C886 1.395 . S
C885 H913 0.929 . S
C886 C885 1.395 . S
C886 C887 1.335 . S
C887 C886 1.335 . S
C887 C888 1.398 . S
C887 H914 0.930 . S
C888 C883 1.382 . S
C888 C887 1.398 . S
C888 H915 0.929 . S
C889 O902 1.271 . S
C889 O903 1.251 . S
C890 O904 1.252 . S
C890 O905 1.272 . S
C891 Sm881 2.846 . S
C891 C892 1.506 1_655 S
C891 O906 1.261 . S
C891 O907 1.242 . S
C892 C891 1.506 1_455 S
C892 C893 1.358 . S
C892 C897 1.382 . S
C893 C892 1.358 . S
C893 C894 1.385 . S
C893 H916 0.930 1_455 S
C894 C893 1.385 . S
C894 C895 1.395 . S
C894 H917 0.929 . S
C895 C894 1.395 . S
C895 C896 1.335 . S
C896 C895 1.335 . S
C896 C897 1.398 . S
C896 H918 0.930 . S
C897 C892 1.382 . S
C897 C896 1.398 . S
C897 H919 0.929 . S
C898 O908 1.271 . S
C898 O909 1.251 . S
C899 O910 1.252 . S
C899 O911 1.272 . S
O900 Sm880 2.543 . S
O900 C882 1.261 . S
O901 Sm880 2.450 . S
O901 C882 1.242 . S
O902 Sm880 2.681 . S
O902 Sm881 2.386 . S
O902 C889 1.271 . S
O903 Sm880 2.464 . S
O903 C889 1.251 . S
O904 Sm880 2.396 . S
O904 C890 1.252 . S
O905 Sm881 2.408 . S
O905 C890 1.272 . S
O906 Sm881 2.543 . S
O906 C891 1.261 . S
O907 Sm881 2.450 . S
O907 C891 1.242 . S
O908 Sm880 2.386 . S
O908 Sm881 2.681 . S
O908 C898 1.271 . S
O909 Sm881 2.464 . S
O909 C898 1.251 . S
O910 Sm881 2.396 . S
O910 C899 1.252 . S
O911 Sm880 2.408 . S
O911 C899 1.272 . S
H912 C884 0.930 . S
H913 C885 0.929 . S
H914 C887 0.930 . S
H915 C888 0.929 . S
H916 C893 0.930 1_655 S
H917 C894 0.929 . S
H918 C896 0.930 . S
H919 C897 0.929 . S
Sm920 C922 2.846 . S
Sm920 O940 2.543 . S
Sm920 O941 2.450 . S
Sm920 O942 2.681 . S
Sm920 O943 2.464 . S
Sm920 O944 2.396 . S
Sm920 O948 2.386 . S
Sm920 O951 2.408 . S
Sm921 C931 2.846 . S
Sm921 O942 2.386 . S
Sm921 O945 2.408 . S
Sm921 O946 2.543 . S
Sm921 O947 2.450 . S
Sm921 O948 2.681 . S
Sm921 O949 2.464 . S
Sm921 O950 2.396 . S
C922 Sm920 2.846 . S
C922 C923 1.506 . S
C922 O940 1.261 . S
C922 O941 1.242 . S
C923 C922 1.506 . S
C923 C924 1.358 . S
C923 C928 1.382 . S
C924 C923 1.358 . S
C924 C925 1.385 . S
C924 H952 0.930 . S
C925 C924 1.385 . S
C925 C926 1.395 . S
C925 H953 0.929 . S
C926 C925 1.395 . S
C926 C927 1.335 . S
C927 C926 1.335 . S
C927 C928 1.398 . S
C927 H954 0.930 . S
C928 C923 1.382 . S
C928 C927 1.398 . S
C928 H955 0.929 . S
C929 O942 1.271 . S
C929 O943 1.251 . S
C930 O944 1.252 . S
C930 O945 1.272 . S
C931 Sm921 2.846 . S
C931 C932 1.506 . S
C931 O946 1.261 . S
C931 O947 1.242 . S
C932 C931 1.506 . S
C932 C933 1.358 . S
C932 C937 1.382 . S
C933 C932 1.358 . S
C933 C934 1.385 . S
C933 H956 0.930 . S
C934 C933 1.385 . S
C934 C935 1.395 . S
C934 H957 0.929 . S
C935 C934 1.395 . S
C935 C936 1.335 . S
C936 C935 1.335 . S
C936 C937 1.398 . S
C936 H958 0.930 . S
C937 C932 1.382 . S
C937 C936 1.398 . S
C937 H959 0.929 . S
C938 O948 1.271 . S
C938 O949 1.251 . S
C939 O950 1.252 . S
C939 O951 1.272 . S
O940 Sm920 2.543 . S
O940 C922 1.261 . S
O941 Sm920 2.450 . S
O941 C922 1.242 . S
O942 Sm920 2.681 . S
O942 Sm921 2.386 . S
O942 C929 1.271 . S
O943 Sm920 2.464 . S
O943 C929 1.251 . S
O944 Sm920 2.396 . S
O944 C930 1.252 . S
O945 Sm921 2.408 . S
O945 C930 1.272 . S
O946 Sm921 2.543 . S
O946 C931 1.261 . S
O947 Sm921 2.450 . S
O947 C931 1.242 . S
O948 Sm920 2.386 . S
O948 Sm921 2.681 . S
O948 C938 1.271 . S
O949 Sm921 2.464 . S
O949 C938 1.251 . S
O950 Sm921 2.396 . S
O950 C939 1.252 . S
O951 Sm920 2.408 . S
O951 C939 1.272 . S
H952 C924 0.930 . S
H953 C925 0.929 . S
H954 C927 0.930 . S
H955 C928 0.929 . S
H956 C933 0.930 . S
H957 C934 0.929 . S
H958 C936 0.930 . S
H959 C937 0.929 . S
Sm960 C962 2.846 . S
Sm960 O980 2.543 . S
Sm960 O981 2.450 . S
Sm960 O982 2.681 . S
Sm960 O983 2.464 . S
Sm960 O984 2.396 . S
Sm960 O988 2.386 . S
Sm960 O991 2.408 . S
Sm961 C971 2.846 . S
Sm961 O982 2.386 . S
Sm961 O985 2.408 . S
Sm961 O986 2.543 . S
Sm961 O987 2.450 . S
Sm961 O988 2.681 . S
Sm961 O989 2.464 . S
Sm961 O990 2.396 . S
C962 Sm960 2.846 . S
C962 C963 1.506 . S
C962 O980 1.261 . S
C962 O981 1.242 . S
C963 C962 1.506 . S
C963 C964 1.358 . S
C963 C968 1.382 . S
C964 C963 1.358 . S
C964 C965 1.385 . S
C964 H992 0.930 . S
C965 C964 1.385 . S
C965 C966 1.395 . S
C965 H993 0.929 . S
C966 C965 1.395 . S
C966 C967 1.335 . S
C967 C966 1.335 . S
C967 C968 1.398 . S
C967 H994 0.930 . S
C968 C963 1.382 . S
C968 C967 1.398 . S
C968 H995 0.929 . S
C969 O982 1.271 . S
C969 O983 1.251 . S
C970 O984 1.252 . S
C970 O985 1.272 . S
C971 Sm961 2.846 . S
C971 C972 1.506 . S
C971 O986 1.261 . S
C971 O987 1.242 . S
C972 C971 1.506 . S
C972 C973 1.358 . S
C972 C977 1.382 . S
C973 C972 1.358 . S
C973 C974 1.385 . S
C973 H996 0.930 . S
C974 C973 1.385 . S
C974 C975 1.395 . S
C974 H997 0.929 . S
C975 C974 1.395 . S
C975 C976 1.335 . S
C976 C975 1.335 . S
C976 C977 1.398 . S
C976 H998 0.930 . S
C977 C972 1.382 . S
C977 C976 1.398 . S
C977 H999 0.929 . S
C978 O988 1.271 . S
C978 O989 1.251 . S
C979 O990 1.252 . S
C979 O991 1.272 . S
O980 Sm960 2.543 . S
O980 C962 1.261 . S
O981 Sm960 2.450 . S
O981 C962 1.242 . S
O982 Sm960 2.681 . S
O982 Sm961 2.386 . S
O982 C969 1.271 . S
O983 Sm960 2.464 . S
O983 C969 1.251 . S
O984 Sm960 2.396 . S
O984 C970 1.252 . S
O985 Sm961 2.408 . S
O985 C970 1.272 . S
O986 Sm961 2.543 . S
O986 C971 1.261 . S
O987 Sm961 2.450 . S
O987 C971 1.242 . S
O988 Sm960 2.386 . S
O988 Sm961 2.681 . S
O988 C978 1.271 . S
O989 Sm961 2.464 . S
O989 C978 1.251 . S
O990 Sm961 2.396 . S
O990 C979 1.252 . S
O991 Sm960 2.408 . S
O991 C979 1.272 . S
H992 C964 0.930 . S
H993 C965 0.929 . S
H994 C967 0.930 . S
H995 C968 0.929 . S
H996 C973 0.930 . S
H997 C974 0.929 . S
H998 C976 0.930 . S
H999 C977 0.929 . S
Sm1000 C1002 2.846 . S
Sm1000 O1020 2.543 . S
Sm1000 O1021 2.450 . S
Sm1000 O1022 2.681 1_556 S
Sm1000 O1023 2.464 1_556 S
Sm1000 O1024 2.396 . S
Sm1000 O1028 2.386 . S
Sm1000 O1031 2.408 1_556 S
Sm1001 C1011 2.846 1_556 S
Sm1001 O1022 2.386 1_556 S
Sm1001 O1025 2.408 . S
Sm1001 O1026 2.543 1_556 S
Sm1001 O1027 2.450 1_556 S
Sm1001 O1028 2.681 . S
Sm1001 O1029 2.464 . S
Sm1001 O1030 2.396 1_556 S
C1002 Sm1000 2.846 . S
C1002 C1003 1.506 . S
C1002 O1020 1.261 . S
C1002 O1021 1.242 . S
C1003 C1002 1.506 . S
C1003 C1004 1.358 . S
C1003 C1008 1.382 . S
C1004 C1003 1.358 . S
C1004 C1005 1.385 . S
C1004 H1032 0.930 . S
C1005 C1004 1.385 . S
C1005 C1006 1.395 . S
C1005 H1033 0.929 . S
C1006 C1005 1.395 . S
C1006 C1007 1.335 . S
C1007 C1006 1.335 . S
C1007 C1008 1.398 . S
C1007 H1034 0.930 . S
C1008 C1003 1.382 . S
C1008 C1007 1.398 . S
C1008 H1035 0.929 . S
C1009 O1022 1.271 . S
C1009 O1023 1.251 . S
C1010 O1024 1.252 . S
C1010 O1025 1.272 . S
C1011 Sm1001 2.846 1_554 S
C1011 C1012 1.506 . S
C1011 O1026 1.261 . S
C1011 O1027 1.242 . S
C1012 C1011 1.506 . S
C1012 C1013 1.358 . S
C1012 C1017 1.382 . S
C1013 C1012 1.358 . S
C1013 C1014 1.385 . S
C1013 H1036 0.930 . S
C1014 C1013 1.385 . S
C1014 C1015 1.395 . S
C1014 H1037 0.929 . S
C1015 C1014 1.395 . S
C1015 C1016 1.335 . S
C1016 C1015 1.335 . S
C1016 C1017 1.398 . S
C1016 H1038 0.930 . S
C1017 C1012 1.382 . S
C1017 C1016 1.398 . S
C1017 H1039 0.929 . S
C1018 O1028 1.271 . S
C1018 O1029 1.251 . S
C1019 O1030 1.252 . S
C1019 O1031 1.272 . S
O1020 Sm1000 2.543 . S
O1020 C1002 1.261 . S
O1021 Sm1000 2.450 . S
O1021 C1002 1.242 . S
O1022 Sm1000 2.681 1_554 S
O1022 Sm1001 2.386 1_554 S
O1022 C1009 1.271 . S
O1023 Sm1000 2.464 1_554 S
O1023 C1009 1.251 . S
O1024 Sm1000 2.396 . S
O1024 C1010 1.252 . S
O1025 Sm1001 2.408 . S
O1025 C1010 1.272 . S
O1026 Sm1001 2.543 1_554 S
O1026 C1011 1.261 . S
O1027 Sm1001 2.450 1_554 S
O1027 C1011 1.242 . S
O1028 Sm1000 2.386 . S
O1028 Sm1001 2.681 . S
O1028 C1018 1.271 . S
O1029 Sm1001 2.464 . S
O1029 C1018 1.251 . S
O1030 Sm1001 2.396 1_554 S
O1030 C1019 1.252 . S
O1031 Sm1000 2.408 1_554 S
O1031 C1019 1.272 . S
H1032 C1004 0.930 . S
H1033 C1005 0.929 . S
H1034 C1007 0.930 . S
H1035 C1008 0.929 . S
H1036 C1013 0.930 . S
H1037 C1014 0.929 . S
H1038 C1016 0.930 . S
H1039 C1017 0.929 . S
Sm1040 C1042 2.846 . S
Sm1040 O1060 2.543 . S
Sm1040 O1061 2.450 . S
Sm1040 O1062 2.681 . S
Sm1040 O1063 2.464 . S
Sm1040 O1064 2.396 . S
Sm1040 O1068 2.386 . S
Sm1040 O1071 2.408 . S
Sm1041 C1051 2.846 . S
Sm1041 O1062 2.386 . S
Sm1041 O1065 2.408 . S
Sm1041 O1066 2.543 . S
Sm1041 O1067 2.450 . S
Sm1041 O1068 2.681 . S
Sm1041 O1069 2.464 . S
Sm1041 O1070 2.396 . S
C1042 Sm1040 2.846 . S
C1042 C1043 1.506 1_455 S
C1042 O1060 1.261 . S
C1042 O1061 1.242 . S
C1043 C1042 1.506 1_655 S
C1043 C1044 1.358 . S
C1043 C1048 1.382 . S
C1044 C1043 1.358 . S
C1044 C1045 1.385 . S
C1044 H1072 0.930 1_655 S
C1045 C1044 1.385 . S
C1045 C1046 1.395 . S
C1045 H1073 0.929 . S
C1046 C1045 1.395 . S
C1046 C1047 1.335 . S
C1047 C1046 1.335 . S
C1047 C1048 1.398 . S
C1047 H1074 0.930 . S
C1048 C1043 1.382 . S
C1048 C1047 1.398 . S
C1048 H1075 0.929 . S
C1049 O1062 1.271 . S
C1049 O1063 1.251 . S
C1050 O1064 1.252 . S
C1050 O1065 1.272 . S
C1051 Sm1041 2.846 . S
C1051 C1052 1.506 . S
C1051 O1066 1.261 . S
C1051 O1067 1.242 . S
C1052 C1051 1.506 . S
C1052 C1053 1.358 . S
C1052 C1057 1.382 . S
C1053 C1052 1.358 . S
C1053 C1054 1.385 . S
C1053 H1076 0.930 . S
C1054 C1053 1.385 . S
C1054 C1055 1.395 . S
C1054 H1077 0.929 . S
C1055 C1054 1.395 . S
C1055 C1056 1.335 . S
C1056 C1055 1.335 . S
C1056 C1057 1.398 . S
C1056 H1078 0.930 . S
C1057 C1052 1.382 . S
C1057 C1056 1.398 . S
C1057 H1079 0.929 . S
C1058 O1068 1.271 . S
C1058 O1069 1.251 . S
C1059 O1070 1.252 . S
C1059 O1071 1.272 . S
O1060 Sm1040 2.543 . S
O1060 C1042 1.261 . S
O1061 Sm1040 2.450 . S
O1061 C1042 1.242 . S
O1062 Sm1040 2.681 . S
O1062 Sm1041 2.386 . S
O1062 C1049 1.271 . S
O1063 Sm1040 2.464 . S
O1063 C1049 1.251 . S
O1064 Sm1040 2.396 . S
O1064 C1050 1.252 . S
O1065 Sm1041 2.408 . S
O1065 C1050 1.272 . S
O1066 Sm1041 2.543 . S
O1066 C1051 1.261 . S
O1067 Sm1041 2.450 . S
O1067 C1051 1.242 . S
O1068 Sm1040 2.386 . S
O1068 Sm1041 2.681 . S
O1068 C1058 1.271 . S
O1069 Sm1041 2.464 . S
O1069 C1058 1.251 . S
O1070 Sm1041 2.396 . S
O1070 C1059 1.252 . S
O1071 Sm1040 2.408 . S
O1071 C1059 1.272 . S
H1072 C1044 0.930 1_455 S
H1073 C1045 0.929 . S
H1074 C1047 0.930 . S
H1075 C1048 0.929 . S
H1076 C1053 0.930 . S
H1077 C1054 0.929 . S
H1078 C1056 0.930 . S
H1079 C1057 0.929 . S
Sm1080 C1082 2.846 . S
Sm1080 O1100 2.543 . S
Sm1080 O1101 2.450 . S
Sm1080 O1102 2.681 . S
Sm1080 O1103 2.464 . S
Sm1080 O1104 2.396 . S
Sm1080 O1108 2.386 . S
Sm1080 O1111 2.408 . S
Sm1081 C1091 2.846 . S
Sm1081 O1102 2.386 . S
Sm1081 O1105 2.408 . S
Sm1081 O1106 2.543 . S
Sm1081 O1107 2.450 . S
Sm1081 O1108 2.681 . S
Sm1081 O1109 2.464 . S
Sm1081 O1110 2.396 . S
C1082 Sm1080 2.846 . S
C1082 C1083 1.506 . S
C1082 O1100 1.261 . S
C1082 O1101 1.242 . S
C1083 C1082 1.506 . S
C1083 C1084 1.358 . S
C1083 C1088 1.382 . S
C1084 C1083 1.358 . S
C1084 C1085 1.385 . S
C1084 H1112 0.930 . S
C1085 C1084 1.385 . S
C1085 C1086 1.395 . S
C1085 H1113 0.929 . S
C1086 C1085 1.395 . S
C1086 C1087 1.335 . S
C1087 C1086 1.335 . S
C1087 C1088 1.398 . S
C1087 H1114 0.930 . S
C1088 C1083 1.382 . S
C1088 C1087 1.398 . S
C1088 H1115 0.929 . S
C1089 O1102 1.271 . S
C1089 O1103 1.251 . S
C1090 O1104 1.252 . S
C1090 O1105 1.272 . S
C1091 Sm1081 2.846 . S
C1091 C1092 1.506 . S
C1091 O1106 1.261 . S
C1091 O1107 1.242 . S
C1092 C1091 1.506 . S
C1092 C1093 1.358 . S
C1092 C1097 1.382 . S
C1093 C1092 1.358 . S
C1093 C1094 1.385 . S
C1093 H1116 0.930 . S
C1094 C1093 1.385 . S
C1094 C1095 1.395 . S
C1094 H1117 0.929 . S
C1095 C1094 1.395 . S
C1095 C1096 1.335 . S
C1096 C1095 1.335 . S
C1096 C1097 1.398 . S
C1096 H1118 0.930 . S
C1097 C1092 1.382 . S
C1097 C1096 1.398 . S
C1097 H1119 0.929 . S
C1098 O1108 1.271 . S
C1098 O1109 1.251 . S
C1099 O1110 1.252 . S
C1099 O1111 1.272 . S
O1100 Sm1080 2.543 . S
O1100 C1082 1.261 . S
O1101 Sm1080 2.450 . S
O1101 C1082 1.242 . S
O1102 Sm1080 2.681 . S
O1102 Sm1081 2.386 . S
O1102 C1089 1.271 . S
O1103 Sm1080 2.464 . S
O1103 C1089 1.251 . S
O1104 Sm1080 2.396 . S
O1104 C1090 1.252 . S
O1105 Sm1081 2.408 . S
O1105 C1090 1.272 . S
O1106 Sm1081 2.543 . S
O1106 C1091 1.261 . S
O1107 Sm1081 2.450 . S
O1107 C1091 1.242 . S
O1108 Sm1080 2.386 . S
O1108 Sm1081 2.681 . S
O1108 C1098 1.271 . S
O1109 Sm1081 2.464 . S
O1109 C1098 1.251 . S
O1110 Sm1081 2.396 . S
O1110 C1099 1.252 . S
O1111 Sm1080 2.408 . S
O1111 C1099 1.272 . S
H1112 C1084 0.930 . S
H1113 C1085 0.929 . S
H1114 C1087 0.930 . S
H1115 C1088 0.929 . S
H1116 C1093 0.930 . S
H1117 C1094 0.929 . S
H1118 C1096 0.930 . S
H1119 C1097 0.929 . S
Sm1120 C1122 2.846 . S
Sm1120 O1140 2.543 . S
Sm1120 O1141 2.450 . S
Sm1120 O1142 2.681 . S
Sm1120 O1143 2.464 . S
Sm1120 O1144 2.396 . S
Sm1120 O1148 2.386 . S
Sm1120 O1151 2.408 . S
Sm1121 C1131 2.846 . S
Sm1121 O1142 2.386 . S
Sm1121 O1145 2.408 . S
Sm1121 O1146 2.543 . S
Sm1121 O1147 2.450 . S
Sm1121 O1148 2.681 . S
Sm1121 O1149 2.464 . S
Sm1121 O1150 2.396 . S
C1122 Sm1120 2.846 . S
C1122 C1123 1.506 . S
C1122 O1140 1.261 . S
C1122 O1141 1.242 . S
C1123 C1122 1.506 . S
C1123 C1124 1.358 . S
C1123 C1128 1.382 . S
C1124 C1123 1.358 . S
C1124 C1125 1.385 . S
C1124 H1152 0.930 . S
C1125 C1124 1.385 . S
C1125 C1126 1.395 . S
C1125 H1153 0.929 . S
C1126 C1125 1.395 . S
C1126 C1127 1.335 . S
C1127 C1126 1.335 . S
C1127 C1128 1.398 . S
C1127 H1154 0.930 . S
C1128 C1123 1.382 . S
C1128 C1127 1.398 . S
C1128 H1155 0.929 . S
C1129 O1142 1.271 . S
C1129 O1143 1.251 . S
C1130 O1144 1.252 . S
C1130 O1145 1.272 . S
C1131 Sm1121 2.846 . S
C1131 C1132 1.506 . S
C1131 O1146 1.261 . S
C1131 O1147 1.242 . S
C1132 C1131 1.506 . S
C1132 C1133 1.358 . S
C1132 C1137 1.382 . S
C1133 C1132 1.358 . S
C1133 C1134 1.385 . S
C1133 H1156 0.930 . S
C1134 C1133 1.385 . S
C1134 C1135 1.395 . S
C1134 H1157 0.929 . S
C1135 C1134 1.395 . S
C1135 C1136 1.335 . S
C1136 C1135 1.335 . S
C1136 C1137 1.398 . S
C1136 H1158 0.930 . S
C1137 C1132 1.382 . S
C1137 C1136 1.398 . S
C1137 H1159 0.929 . S
C1138 O1148 1.271 . S
C1138 O1149 1.251 . S
C1139 O1150 1.252 . S
C1139 O1151 1.272 . S
O1140 Sm1120 2.543 . S
O1140 C1122 1.261 . S
O1141 Sm1120 2.450 . S
O1141 C1122 1.242 . S
O1142 Sm1120 2.681 . S
O1142 Sm1121 2.386 . S
O1142 C1129 1.271 . S
O1143 Sm1120 2.464 . S
O1143 C1129 1.251 . S
O1144 Sm1120 2.396 . S
O1144 C1130 1.252 . S
O1145 Sm1121 2.408 . S
O1145 C1130 1.272 . S
O1146 Sm1121 2.543 . S
O1146 C1131 1.261 . S
O1147 Sm1121 2.450 . S
O1147 C1131 1.242 . S
O1148 Sm1120 2.386 . S
O1148 Sm1121 2.681 . S
O1148 C1138 1.271 . S
O1149 Sm1121 2.464 . S
O1149 C1138 1.251 . S
O1150 Sm1121 2.396 . S
O1150 C1139 1.252 . S
O1151 Sm1120 2.408 . S
O1151 C1139 1.272 . S
H1152 C1124 0.930 . S
H1153 C1125 0.929 . S
H1154 C1127 0.930 . S
H1155 C1128 0.929 . S
H1156 C1133 0.930 . S
H1157 C1134 0.929 . S
H1158 C1136 0.930 . S
H1159 C1137 0.929 . S
Sm1160 C1162 2.846 . S
Sm1160 O1180 2.543 . S
Sm1160 O1181 2.450 . S
Sm1160 O1182 2.681 1_554 S
Sm1160 O1183 2.464 1_554 S
Sm1160 O1184 2.396 . S
Sm1160 O1188 2.386 . S
Sm1160 O1191 2.408 1_554 S
Sm1161 C1171 2.846 1_554 S
Sm1161 O1182 2.386 1_554 S
Sm1161 O1185 2.408 . S
Sm1161 O1186 2.543 1_554 S
Sm1161 O1187 2.450 1_554 S
Sm1161 O1188 2.681 . S
Sm1161 O1189 2.464 . S
Sm1161 O1190 2.396 1_554 S
C1162 Sm1160 2.846 . S
C1162 C1163 1.506 . S
C1162 O1180 1.261 . S
C1162 O1181 1.242 . S
C1163 C1162 1.506 . S
C1163 C1164 1.358 . S
C1163 C1168 1.382 . S
C1164 C1163 1.358 . S
C1164 C1165 1.385 . S
C1164 H1192 0.930 . S
C1165 C1164 1.385 . S
C1165 C1166 1.395 . S
C1165 H1193 0.929 . S
C1166 C1165 1.395 . S
C1166 C1167 1.335 . S
C1167 C1166 1.335 . S
C1167 C1168 1.398 . S
C1167 H1194 0.930 . S
C1168 C1163 1.382 . S
C1168 C1167 1.398 . S
C1168 H1195 0.929 . S
C1169 O1182 1.271 . S
C1169 O1183 1.251 . S
C1170 O1184 1.252 . S
C1170 O1185 1.272 . S
C1171 Sm1161 2.846 1_556 S
C1171 C1172 1.506 . S
C1171 O1186 1.261 . S
C1171 O1187 1.242 . S
C1172 C1171 1.506 . S
C1172 C1173 1.358 . S
C1172 C1177 1.382 . S
C1173 C1172 1.358 . S
C1173 C1174 1.385 . S
C1173 H1196 0.930 . S
C1174 C1173 1.385 . S
C1174 C1175 1.395 . S
C1174 H1197 0.929 . S
C1175 C1174 1.395 . S
C1175 C1176 1.335 . S
C1176 C1175 1.335 . S
C1176 C1177 1.398 . S
C1176 H1198 0.930 . S
C1177 C1172 1.382 . S
C1177 C1176 1.398 . S
C1177 H1199 0.929 . S
C1178 O1188 1.271 . S
C1178 O1189 1.251 . S
C1179 O1190 1.252 . S
C1179 O1191 1.272 . S
O1180 Sm1160 2.543 . S
O1180 C1162 1.261 . S
O1181 Sm1160 2.450 . S
O1181 C1162 1.242 . S
O1182 Sm1160 2.681 1_556 S
O1182 Sm1161 2.386 1_556 S
O1182 C1169 1.271 . S
O1183 Sm1160 2.464 1_556 S
O1183 C1169 1.251 . S
O1184 Sm1160 2.396 . S
O1184 C1170 1.252 . S
O1185 Sm1161 2.408 . S
O1185 C1170 1.272 . S
O1186 Sm1161 2.543 1_556 S
O1186 C1171 1.261 . S
O1187 Sm1161 2.450 1_556 S
O1187 C1171 1.242 . S
O1188 Sm1160 2.386 . S
O1188 Sm1161 2.681 . S
O1188 C1178 1.271 . S
O1189 Sm1161 2.464 . S
O1189 C1178 1.251 . S
O1190 Sm1161 2.396 1_556 S
O1190 C1179 1.252 . S
O1191 Sm1160 2.408 1_556 S
O1191 C1179 1.272 . S
H1192 C1164 0.930 . S
H1193 C1165 0.929 . S
H1194 C1167 0.930 . S
H1195 C1168 0.929 . S
H1196 C1173 0.930 . S
H1197 C1174 0.929 . S
H1198 C1176 0.930 . S
H1199 C1177 0.929 . S
Sm1200 C1202 2.846 . S
Sm1200 O1220 2.543 . S
Sm1200 O1221 2.450 . S
Sm1200 O1222 2.681 . S
Sm1200 O1223 2.464 . S
Sm1200 O1224 2.396 . S
Sm1200 O1228 2.386 . S
Sm1200 O1231 2.408 . S
Sm1201 C1211 2.846 . S
Sm1201 O1222 2.386 . S
Sm1201 O1225 2.408 . S
Sm1201 O1226 2.543 . S
Sm1201 O1227 2.450 . S
Sm1201 O1228 2.681 . S
Sm1201 O1229 2.464 . S
Sm1201 O1230 2.396 . S
C1202 Sm1200 2.846 . S
C1202 C1203 1.506 1_455 S
C1202 O1220 1.261 . S
C1202 O1221 1.242 . S
C1203 C1202 1.506 1_655 S
C1203 C1204 1.358 . S
C1203 C1208 1.382 . S
C1204 C1203 1.358 . S
C1204 C1205 1.385 . S
C1204 H1232 0.930 1_655 S
C1205 C1204 1.385 . S
C1205 C1206 1.395 . S
C1205 H1233 0.929 . S
C1206 C1205 1.395 . S
C1206 C1207 1.335 . S
C1207 C1206 1.335 . S
C1207 C1208 1.398 . S
C1207 H1234 0.930 . S
C1208 C1203 1.382 . S
C1208 C1207 1.398 . S
C1208 H1235 0.929 . S
C1209 O1222 1.271 . S
C1209 O1223 1.251 . S
C1210 O1224 1.252 . S
C1210 O1225 1.272 . S
C1211 Sm1201 2.846 . S
C1211 C1212 1.506 . S
C1211 O1226 1.261 . S
C1211 O1227 1.242 . S
C1212 C1211 1.506 . S
C1212 C1213 1.358 . S
C1212 C1217 1.382 . S
C1213 C1212 1.358 . S
C1213 C1214 1.385 . S
C1213 H1236 0.930 . S
C1214 C1213 1.385 . S
C1214 C1215 1.395 . S
C1214 H1237 0.929 . S
C1215 C1214 1.395 . S
C1215 C1216 1.335 . S
C1216 C1215 1.335 . S
C1216 C1217 1.398 . S
C1216 H1238 0.930 . S
C1217 C1212 1.382 . S
C1217 C1216 1.398 . S
C1217 H1239 0.929 . S
C1218 O1228 1.271 . S
C1218 O1229 1.251 . S
C1219 O1230 1.252 . S
C1219 O1231 1.272 . S
O1220 Sm1200 2.543 . S
O1220 C1202 1.261 . S
O1221 Sm1200 2.450 . S
O1221 C1202 1.242 . S
O1222 Sm1200 2.681 . S
O1222 Sm1201 2.386 . S
O1222 C1209 1.271 . S
O1223 Sm1200 2.464 . S
O1223 C1209 1.251 . S
O1224 Sm1200 2.396 . S
O1224 C1210 1.252 . S
O1225 Sm1201 2.408 . S
O1225 C1210 1.272 . S
O1226 Sm1201 2.543 . S
O1226 C1211 1.261 . S
O1227 Sm1201 2.450 . S
O1227 C1211 1.242 . S
O1228 Sm1200 2.386 . S
O1228 Sm1201 2.681 . S
O1228 C1218 1.271 . S
O1229 Sm1201 2.464 . S
O1229 C1218 1.251 . S
O1230 Sm1201 2.396 . S
O1230 C1219 1.252 . S
O1231 Sm1200 2.408 . S
O1231 C1219 1.272 . S
H1232 C1204 0.930 1_455 S
H1233 C1205 0.929 . S
H1234 C1207 0.930 . S
H1235 C1208 0.929 . S
H1236 C1213 0.930 . S
H1237 C1214 0.929 . S
H1238 C1216 0.930 . S
H1239 C1217 0.929 . S
Sm1240 C1242 2.846 . S
Sm1240 O1260 2.543 . S
Sm1240 O1261 2.450 . S
Sm1240 O1262 2.681 . S
Sm1240 O1263 2.464 . S
Sm1240 O1264 2.396 . S
Sm1240 O1268 2.386 . S
Sm1240 O1271 2.408 . S
Sm1241 C1251 2.846 . S
Sm1241 O1262 2.386 . S
Sm1241 O1265 2.408 . S
Sm1241 O1266 2.543 . S
Sm1241 O1267 2.450 . S
Sm1241 O1268 2.681 . S
Sm1241 O1269 2.464 . S
Sm1241 O1270 2.396 . S
C1242 Sm1240 2.846 . S
C1242 C1243 1.506 . S
C1242 O1260 1.261 . S
C1242 O1261 1.242 . S
C1243 C1242 1.506 . S
C1243 C1244 1.358 . S
C1243 C1248 1.382 . S
C1244 C1243 1.358 . S
C1244 C1245 1.385 . S
C1244 H1272 0.930 . S
C1245 C1244 1.385 . S
C1245 C1246 1.395 . S
C1245 H1273 0.929 . S
C1246 C1245 1.395 . S
C1246 C1247 1.335 . S
C1247 C1246 1.335 . S
C1247 C1248 1.398 . S
C1247 H1274 0.930 . S
C1248 C1243 1.382 . S
C1248 C1247 1.398 . S
C1248 H1275 0.929 . S
C1249 O1262 1.271 . S
C1249 O1263 1.251 . S
C1250 O1264 1.252 . S
C1250 O1265 1.272 . S
C1251 Sm1241 2.846 . S
C1251 C1252 1.506 . S
C1251 O1266 1.261 . S
C1251 O1267 1.242 . S
C1252 C1251 1.506 . S
C1252 C1253 1.358 . S
C1252 C1257 1.382 . S
C1253 C1252 1.358 . S
C1253 C1254 1.385 . S
C1253 H1276 0.930 . S
C1254 C1253 1.385 . S
C1254 C1255 1.395 . S
C1254 H1277 0.929 . S
C1255 C1254 1.395 . S
C1255 C1256 1.335 . S
C1256 C1255 1.335 . S
C1256 C1257 1.398 . S
C1256 H1278 0.930 . S
C1257 C1252 1.382 . S
C1257 C1256 1.398 . S
C1257 H1279 0.929 . S
C1258 O1268 1.271 . S
C1258 O1269 1.251 . S
C1259 O1270 1.252 . S
C1259 O1271 1.272 . S
O1260 Sm1240 2.543 . S
O1260 C1242 1.261 . S
O1261 Sm1240 2.450 . S
O1261 C1242 1.242 . S
O1262 Sm1240 2.681 . S
O1262 Sm1241 2.386 . S
O1262 C1249 1.271 . S
O1263 Sm1240 2.464 . S
O1263 C1249 1.251 . S
O1264 Sm1240 2.396 . S
O1264 C1250 1.252 . S
O1265 Sm1241 2.408 . S
O1265 C1250 1.272 . S
O1266 Sm1241 2.543 . S
O1266 C1251 1.261 . S
O1267 Sm1241 2.450 . S
O1267 C1251 1.242 . S
O1268 Sm1240 2.386 . S
O1268 Sm1241 2.681 . S
O1268 C1258 1.271 . S
O1269 Sm1241 2.464 . S
O1269 C1258 1.251 . S
O1270 Sm1241 2.396 . S
O1270 C1259 1.252 . S
O1271 Sm1240 2.408 . S
O1271 C1259 1.272 . S
H1272 C1244 0.930 . S
H1273 C1245 0.929 . S
H1274 C1247 0.930 . S
H1275 C1248 0.929 . S
H1276 C1253 0.930 . S
H1277 C1254 0.929 . S
H1278 C1256 0.930 . S
H1279 C1257 0.929 . S
C6 C139 0.559 . S
C19 C46 0.559 . S
C86 C59 0.559 . S
C99 C126 0.559 . S
C219 C166 0.559 . S
C206 C259 0.559 . S
C299 C246 0.559 . S
C179 C286 0.559 . S
C335 C450 0.559 . S
C375 C330 0.559 . S
C415 C370 0.559 . S
C455 C410 0.559 . S
C495 C530 0.559 . S
C535 C570 0.559 . S
C610 C575 0.559 . S
C490 C615 0.559 . S
C646 C779 0.559 . S
C659 C686 0.559 . S
C699 C726 0.559 . S
C766 C739 0.559 . S
C806 C859 0.559 . S
C899 C846 0.559 . S
C886 C939 0.559 . S
C819 C926 0.559 . S
C1090 C975 0.559 . S
C970 C1015 0.559 . S
C1055 C1010 0.559 . S
C1050 C1095 0.559 . S
C1170 C1135 0.559 . S
C1210 C1175 0.559 . S
C1250 C1215 0.559 . S
C1255 C1130 0.559 . S
C1086 C9 1.928 . S
C49 C326 1.928 . S
C89 C1006 1.928 . S
C129 C406 1.928 . S
C169 C1166 1.928 . S
C566 C209 1.928 . S
C1246 C249 1.928 . S
C289 C486 1.928 . S
C338 C775 1.927 . S
C15 C378 1.928 . S
C695 C418 1.927 . S
C95 C458 1.928 . S
C855 C498 1.927 . S
C255 C538 1.928 . S
C578 C935 1.927 . S
C618 C175 1.928 . S
C649 C446 1.928 . S
C689 C966 1.928 . S
C729 C366 1.928 . S
C769 C1046 1.928 . S
C809 C526 1.928 . S
C849 C1206 1.928 . S
C606 C889 1.928 . S
C929 C1126 1.928 . S
C135 C978 1.927 . S
C655 C1018 1.928 . S
C55 C1058 1.927 . S
C735 C1098 1.928 . S
C215 C1138 1.927 . S
C1178 C895 1.928 . S
C1218 C295 1.927 . S
C815 C1258 1.928 . S
C18 C178 2.856 1_545 S
C58 C218 2.857 . S
C98 C258 2.856 1_565 S
C298 C138 2.857 1_554 S
C489 C329 2.856 1_545 S
C529 C369 2.857 . S
C409 C569 2.856 1_545 S
C449 C609 2.857 1_554 S
C658 C818 2.856 . S
C858 C698 2.857 1_554 S
C898 C738 2.856 . S
C938 C778 2.857 . S
C1129 C969 2.856 . S
C1009 C1169 2.857 1_554 S
C1209 C1049 2.856 . S
C1089 C1249 2.857 . S
C290 C10 3.844 . S
C50 C170 3.844 . S
C90 C210 3.844 . S
C250 C130 3.844 . S
C339 C619 3.844 . S
C499 C379 3.844 . S
C539 C419 3.844 . S
C459 C579 3.844 . S
C650 C930 3.844 . S
C810 C690 3.844 . S
C850 C730 3.844 . S
C890 C770 3.844 . S
C979 C1259 3.844 . S
C1139 C1019 3.844 . S
C1059 C1179 3.844 . S
C1219 C1099 3.844 . S
