# Generated by pormake.
# Topology acs-f, (3)-cn, num edge types: 1
# Building blocks:
#     Node 0, Type 0, BuildingBlock: OLANEW_clean_sbu_2, # of connection points: 3
#     Node 1, Type 0, BuildingBlock: OLANEW_clean_sbu_2, # of connection points: 3
#     Node 2, Type 0, BuildingBlock: OLANEW_clean_sbu_2, # of connection points: 3
#     Node 3, Type 0, BuildingBlock: OLANEW_clean_sbu_2, # of connection points: 3
#     Node 4, Type 0, BuildingBlock: OLANEW_clean_sbu_2, # of connection points: 3
#     Node 5, Type 0, BuildingBlock: OLANEW_clean_sbu_2, # of connection points: 3
#     Node 6, Type 0, BuildingBlock: OLANEW_clean_sbu_2, # of connection points: 3
#     Node 7, Type 0, BuildingBlock: OLANEW_clean_sbu_2, # of connection points: 3
#     Node 8, Type 0, BuildingBlock: OLANEW_clean_sbu_2, # of connection points: 3
#     Node 9, Type 0, BuildingBlock: OLANEW_clean_sbu_2, # of connection points: 3
#     Node 10, Type 0, BuildingBlock: OLANEW_clean_sbu_2, # of connection points: 3
#     Node 11, Type 0, BuildingBlock: OLANEW_clean_sbu_2, # of connection points: 3
#     Edge 12, Type (0, 0), BuildingBlock: TEMPAE_clean_linker_10, # of connection points: 2
#     Edge 13, Type (0, 0), BuildingBlock: TEMPAE_clean_linker_10, # of connection points: 2
#     Edge 14, Type (0, 0), BuildingBlock: TEMPAE_clean_linker_10, # of connection points: 2
#     Edge 15, Type (0, 0), BuildingBlock: TEMPAE_clean_linker_10, # of connection points: 2
#     Edge 16, Type (0, 0), BuildingBlock: TEMPAE_clean_linker_10, # of connection points: 2
#     Edge 17, Type (0, 0), BuildingBlock: TEMPAE_clean_linker_10, # of connection points: 2
#     Edge 18, Type (0, 0), BuildingBlock: TEMPAE_clean_linker_10, # of connection points: 2
#     Edge 19, Type (0, 0), BuildingBlock: TEMPAE_clean_linker_10, # of connection points: 2
#     Edge 20, Type (0, 0), BuildingBlock: TEMPAE_clean_linker_10, # of connection points: 2
#     Edge 21, Type (0, 0), BuildingBlock: TEMPAE_clean_linker_10, # of connection points: 2
#     Edge 22, Type (0, 0), BuildingBlock: TEMPAE_clean_linker_10, # of connection points: 2
#     Edge 23, Type (0, 0), BuildingBlock: TEMPAE_clean_linker_10, # of connection points: 2
#     Edge 24, Type (0, 0), BuildingBlock: TEMPAE_clean_linker_10, # of connection points: 2
#     Edge 25, Type (0, 0), BuildingBlock: TEMPAE_clean_linker_10, # of connection points: 2
#     Edge 26, Type (0, 0), BuildingBlock: TEMPAE_clean_linker_10, # of connection points: 2
#     Edge 27, Type (0, 0), BuildingBlock: TEMPAE_clean_linker_10, # of connection points: 2
#     Edge 28, Type (0, 0), BuildingBlock: TEMPAE_clean_linker_10, # of connection points: 2
#     Edge 29, Type (0, 0), BuildingBlock: TEMPAE_clean_linker_10, # of connection points: 2
# Relax obj value: 0.063
# Max RMSD: 0.033
# Mean RMSD: 0.033
data_MOF--net-acs-f--node1-OLANEW_clean_sbu_2--edge1-TEMPAE_clean_linker_10
_symmetry_space_group_name_H-M    P1
_symmetry_Int_Tables_number       1
_symmetry_cell_setting            triclinic
loop_
_symmetry_equiv_pos_as_xyz
'x, y, z'
_cell_length_a     37.427275
_cell_length_b     37.439834
_cell_length_c     51.381638
_cell_angle_alpha  89.991437
_cell_angle_beta   90.002028
_cell_angle_gamma 120.01876
loop_
_atom_site_label
_atom_site_type_symbol
_atom_site_fract_x
_atom_site_fract_y
_atom_site_fract_z
_atom_type_partial_charge
O0 O 0.95399 0.46402 0.13523 0.0
Cd1 Cd 0.93802 0.43842 0.09047 0.0
O2 O 0.00544 0.45182 0.13756 0.0
Cd3 Cd 0.05324 0.44519 0.15787 0.0
O4 O 0.10305 0.44403 0.1793 0.0
C5 C 0.09541 0.41427 0.19451 0.0
O6 O 0.0571 0.38417 0.19711 0.0
C7 C 0.98279 0.46401 0.14833 0.0
C8 C 0.97154 0.49817 0.05143 0.0
O9 O 0.9377 0.4898 0.06274 0.0
O10 O 0.99005 0.47901 0.05904 0.0
O11 O 0.50994 0.44841 0.14134 0.0
Cd12 Cd 0.53518 0.4544 0.09665 0.0
O13 O 0.53044 0.51452 0.14242 0.0
Cd14 Cd 0.53734 0.56953 0.16203 0.0
O15 O 0.53938 0.61724 0.18741 0.0
C16 C 0.55549 0.65445 0.17987 0.0
O17 O 0.57124 0.66418 0.15634 0.0
C18 C 0.51496 0.47982 0.15392 0.0
C19 C 0.4778 0.43397 0.05658 0.0
O20 O 0.4821 0.40609 0.06825 0.0
O21 O 0.49972 0.47134 0.06441 0.0
O22 O 0.51651 0.104 0.15462 0.0
Cd23 Cd 0.50598 0.12391 0.11119 0.0
O24 O 0.45999 0.04397 0.15169 0.0
Cd25 Cd 0.41187 0.9816 0.16291 0.0
O26 O 0.36167 0.92593 0.18059 0.0
C27 C 0.33952 0.93006 0.19774 0.0
O28 O 0.34741 0.96739 0.20387 0.0
C29 C 0.4912 0.06959 0.16492 0.0
C30 C 0.53582 0.09674 0.07047 0.0
O31 O 0.55958 0.13029 0.08266 0.0
O32 O 0.49812 0.07566 0.07785 0.0
O33 O 0.54919 0.03056 0.3663 0.0
Cd34 Cd 0.55743 0.00555 0.40856 0.0
O35 O 0.53905 0.97081 0.35305 0.0
Cd36 Cd 0.5247 0.9192 0.32684 0.0
O37 O 0.52288 0.87298 0.30017 0.0
C38 C 0.5544 0.86863 0.29884 0.0
O39 O 0.58649 0.89193 0.31355 0.0
C40 C 0.54204 0.00545 0.34772 0.0
C41 C 0.50615 0.00501 0.44811 0.0
O42 O 0.54356 0.03455 0.4462 0.0
O43 O 0.49272 0.97627 0.431 0.0
O44 O 0.96695 0.49831 0.35322 0.0
Cd45 Cd 0.95164 0.51001 0.39772 0.0
O46 O 0.01496 0.56335 0.34968 0.0
Cd47 Cd 0.06432 0.61623 0.329 0.0
O48 O 0.115 0.66798 0.30856 0.0
C49 C 0.10764 0.68448 0.28921 0.0
O50 O 0.06921 0.67007 0.28186 0.0
C51 C 0.99371 0.52782 0.33947 0.0
C52 C 0.97823 0.47851 0.43778 0.0
O53 O 0.94401 0.45564 0.42599 0.0
O54 O 0.00041 0.51596 0.43013 0.0
O55 O 0.49994 0.43588 0.36012 0.0
Cd56 Cd 0.49085 0.41269 0.40546 0.0
O57 O 0.43717 0.42623 0.35858 0.0
Cd58 Cd 0.38266 0.42037 0.33889 0.0
O59 O 0.33271 0.42095 0.31737 0.0
C60 C 0.32602 0.40943 0.29374 0.0
O61 O 0.34938 0.39685 0.28258 0.0
C62 C 0.47113 0.43624 0.34722 0.0
C63 C 0.52085 0.47395 0.44365 0.0
O64 O 0.54475 0.46344 0.43236 0.0
O65 O 0.48305 0.45634 0.43634 0.0
O66 O 0.11536 0.67429 0.81526 0.0
Cd67 Cd 0.09467 0.71475 0.84211 0.0
O68 O 0.05472 0.64471 0.79599 0.0
Cd69 Cd 0.03389 0.68687 0.80872 0.0
O70 O 0.99533 0.71264 0.79699 0.0
C71 C 0.95732 0.69344 0.80305 0.0
O72 O 0.94337 0.66077 0.8181 0.0
C73 C 0.08941 0.64711 0.79986 0.0
C74 C 0.06642 0.67465 0.88988 0.0
O75 O 0.04229 0.66491 0.8702 0.0
O76 O 0.10374 0.70403 0.88718 0.0
O77 O 0.31791 0.41967 0.81518 0.0
Cd78 Cd 0.27648 0.35797 0.84143 0.0
O79 O 0.35032 0.39028 0.7975 0.0
Cd80 Cd 0.30788 0.32696 0.80962 0.0
O81 O 0.28023 0.26246 0.7978 0.0
C82 C 0.29715 0.24179 0.80465 0.0
O83 O 0.32888 0.2588 0.82055 0.0
C84 C 0.34659 0.42192 0.80078 0.0
C85 C 0.31411 0.36828 0.88999 0.0
O86 O 0.32468 0.35429 0.87049 0.0
O87 O 0.28517 0.3767 0.88669 0.0
O88 O 0.58292 0.96491 0.83365 0.0
Cd89 Cd 0.64667 0.9955 0.85897 0.0
O90 O 0.59777 0.92997 0.80551 0.0
Cd91 Cd 0.66246 0.96066 0.81715 0.0
O92 O 0.72516 0.00675 0.80581 0.0
C93 C 0.73204 0.0104 0.78144 0.0
O94 O 0.70235 0.98551 0.76563 0.0
C95 C 0.57236 0.93987 0.81467 0.0
C96 C 0.63093 0.01976 0.90703 0.0
O97 O 0.64159 0.0437 0.8872 0.0
O98 O 0.62871 0.98467 0.90434 0.0
O99 O 0.3477 0.93844 0.689 0.0
Cd100 Cd 0.30081 0.94489 0.65881 0.0
O101 O 0.29949 0.89246 0.71453 0.0
Cd102 Cd 0.25634 0.9116 0.70112 0.0
O103 O 0.24096 0.95866 0.71218 0.0
C104 C 0.26824 0.996 0.708 0.0
O105 O 0.3019 0.00377 0.69536 0.0
C106 C 0.33713 0.91278 0.70765 0.0
C107 C 0.33659 0.95926 0.60948 0.0
O108 O 0.33975 0.98922 0.62329 0.0
O109 O 0.31556 0.92264 0.61864 0.0
O110 O 0.09768 0.42357 0.67891 0.0
Cd111 Cd 0.06932 0.36235 0.65118 0.0
O112 O 0.09574 0.39188 0.71542 0.0
Cd113 Cd 0.06575 0.32971 0.69925 0.0
O114 O 0.01467 0.26705 0.70533 0.0
C115 C 0.98068 0.26458 0.71168 0.0
O116 O 0.97866 0.29862 0.71249 0.0
C117 C 0.1043 0.42479 0.70326 0.0
C118 C 0.04812 0.38083 0.60289 0.0
O119 O 0.02298 0.36924 0.62214 0.0
O120 O 0.08308 0.38301 0.60632 0.0
O121 O 0.56914 0.6564 0.68031 0.0
Cd122 Cd 0.63068 0.69141 0.65297 0.0
O123 O 0.59798 0.68903 0.71677 0.0
Cd124 Cd 0.66086 0.72455 0.70195 0.0
O125 O 0.72368 0.74064 0.71248 0.0
C126 C 0.73604 0.71561 0.7067 0.0
O127 O 0.71203 0.68306 0.69252 0.0
C128 C 0.56637 0.66248 0.70439 0.0
C129 C 0.61437 0.65047 0.60517 0.0
O130 O 0.62698 0.63864 0.62477 0.0
O131 O 0.61024 0.68224 0.60797 0.0
C132 C 0.28304 0.3948 0.25352 0.0
C133 C 0.29228 0.41009 0.27904 0.0
C134 C 0.25099 0.39505 0.23946 0.0
C135 C 0.22779 0.4112 0.25114 0.0
C136 C 0.23706 0.42683 0.27684 0.0
C137 C 0.26911 0.42601 0.29049 0.0
C138 C 0.24188 0.37795 0.21213 0.0
C139 C 0.21315 0.4445 0.2899 0.0
C140 C 0.16981 0.44672 0.2073 0.0
C141 C 0.12927 0.41345 0.20897 0.0
C142 C 0.20216 0.44636 0.22089 0.0
C143 C 0.19384 0.41185 0.23647 0.0
C144 C 0.15304 0.37813 0.2382 0.0
C145 C 0.12124 0.37937 0.22447 0.0
C146 C 0.24524 0.48298 0.21866 0.0
C147 C 0.14299 0.34074 0.25456 0.0
H148 H 0.30075 0.38244 0.24452 0.0
H149 H 0.27609 0.43799 0.31017 0.0
H150 H 0.2095 0.35232 0.21081 0.0
H151 H 0.24525 0.40218 0.19827 0.0
H152 H 0.26266 0.36634 0.2059 0.0
H153 H 0.22435 0.45561 0.30993 0.0
H154 H 0.21562 0.47062 0.27828 0.0
H155 H 0.17996 0.42077 0.29089 0.0
H156 H 0.17632 0.47322 0.19541 0.0
H157 H 0.09004 0.3535 0.22586 0.0
H158 H 0.26653 0.47297 0.21096 0.0
H159 H 0.25676 0.49651 0.23819 0.0
H160 H 0.24658 0.50738 0.2057 0.0
H161 H 0.16147 0.32676 0.24792 0.0
H162 H 0.10977 0.31692 0.25365 0.0
H163 H 0.15136 0.35002 0.27517 0.0
C164 C 0.53973 0.67581 0.22256 0.0
C165 C 0.55605 0.68626 0.19731 0.0
C166 C 0.53965 0.70549 0.2392 0.0
C167 C 0.55624 0.7466 0.23039 0.0
C168 C 0.57292 0.75742 0.20499 0.0
C169 C 0.57265 0.72712 0.18876 0.0
C170 C 0.5217 0.69281 0.26619 0.0
C171 C 0.59091 0.80097 0.19493 0.0
C172 C 0.52163 0.81425 0.26443 0.0
C173 C 0.55497 0.83766 0.28114 0.0
C174 C 0.52175 0.78467 0.2477 0.0
C175 C 0.55596 0.77826 0.24774 0.0
C176 C 0.58974 0.80184 0.26451 0.0
C177 C 0.58887 0.8313 0.28097 0.0
C178 C 0.48522 0.76019 0.23003 0.0
C179 C 0.62672 0.7958 0.26514 0.0
H180 H 0.52691 0.64435 0.22937 0.0
H181 H 0.58534 0.73549 0.1693 0.0
H182 H 0.54536 0.71151 0.28098 0.0
H183 H 0.49571 0.69879 0.2687 0.0
H184 H 0.51031 0.65965 0.27015 0.0
H185 H 0.60283 0.8044 0.17474 0.0
H186 H 0.56707 0.81031 0.19529 0.0
H187 H 0.6165 0.82262 0.20774 0.0
H188 H 0.49536 0.81903 0.26438 0.0
H189 H 0.61475 0.84922 0.29382 0.0
H190 H 0.47104 0.7268 0.23438 0.0
H191 H 0.49551 0.76467 0.20944 0.0
H192 H 0.46124 0.76921 0.23214 0.0
H193 H 0.61691 0.7635 0.27056 0.0
H194 H 0.65058 0.81681 0.27919 0.0
H195 H 0.64088 0.80127 0.24552 0.0
C196 C 0.18268 0.73655 0.28402 0.0
C197 C 0.14183 0.71977 0.27535 0.0
C198 C 0.21524 0.77035 0.2713 0.0
C199 C 0.2068 0.78774 0.24932 0.0
C200 C 0.16572 0.77074 0.24032 0.0
C201 C 0.13373 0.73699 0.25345 0.0
C202 C 0.25865 0.7877 0.28151 0.0
C203 C 0.15552 0.78838 0.21691 0.0
C204 C 0.28375 0.89868 0.23132 0.0
C205 C 0.30558 0.89354 0.21085 0.0
C206 C 0.25161 0.86452 0.24403 0.0
C207 C 0.24089 0.8242 0.23601 0.0
C208 C 0.26273 0.81875 0.21534 0.0
C209 C 0.29489 0.85349 0.20304 0.0
C210 C 0.22916 0.87158 0.26608 0.0
C211 C 0.25207 0.77622 0.2062 0.0
H212 H 0.18926 0.72345 0.30091 0.0
H213 H 0.1023 0.72418 0.24656 0.0
H214 H 0.27895 0.78705 0.26601 0.0
H215 H 0.27128 0.82042 0.28723 0.0
H216 H 0.26011 0.7703 0.2986 0.0
H217 H 0.12211 0.77109 0.21208 0.0
H218 H 0.16472 0.82107 0.22059 0.0
H219 H 0.17322 0.78786 0.19974 0.0
H220 H 0.29186 0.92949 0.23755 0.0
H221 H 0.31155 0.84923 0.18723 0.0
H222 H 0.23188 0.8568 0.2841 0.0
H223 H 0.19582 0.85707 0.26144 0.0
H224 H 0.24137 0.90488 0.27001 0.0
H225 H 0.25549 0.7587 0.22248 0.0
H226 H 0.2719 0.77725 0.1898 0.0
H227 H 0.21937 0.75889 0.19984 0.0
C228 C 0.78762 0.6923 0.71204 0.0
C229 C 0.77386 0.7197 0.7188 0.0
C230 C 0.82024 0.69232 0.72551 0.0
C231 C 0.83946 0.72026 0.74634 0.0
C232 C 0.82695 0.74921 0.75254 0.0
C233 C 0.79436 0.74867 0.73863 0.0
C234 C 0.83301 0.66126 0.7181 0.0
C235 C 0.84669 0.77948 0.77461 0.0
C236 C 0.88645 0.68333 0.79767 0.0
C237 C 0.92822 0.70417 0.79055 0.0
C238 C 0.85752 0.68953 0.78403 0.0
C239 C 0.87062 0.7171 0.76265 0.0
C240 C 0.91299 0.73951 0.75602 0.0
C241 C 0.94132 0.73288 0.7701 0.0
C242 C 0.81266 0.66537 0.7919 0.0
C243 C 0.92813 0.76916 0.73336 0.0
H244 H 0.77217 0.67 0.69664 0.0
H245 H 0.78398 0.77 0.74399 0.0
H246 H 0.86682 0.67696 0.71484 0.0
H247 H 0.8257 0.63899 0.73427 0.0
H248 H 0.81711 0.64377 0.70025 0.0
H249 H 0.83604 0.80234 0.77545 0.0
H250 H 0.83906 0.76254 0.79337 0.0
H251 H 0.88077 0.79626 0.77265 0.0
H252 H 0.87608 0.6613 0.81353 0.0
H253 H 0.97355 0.74916 0.76446 0.0
H254 H 0.79438 0.64366 0.7761 0.0
H255 H 0.80025 0.68648 0.79487 0.0
H256 H 0.80794 0.64739 0.81004 0.0
H257 H 0.91576 0.75182 0.71494 0.0
H258 H 0.96234 0.78678 0.73211 0.0
H259 H 0.91671 0.7913 0.73496 0.0
C260 C 0.30367 0.17881 0.7999 0.0
C261 C 0.28504 0.20159 0.79218 0.0
C262 C 0.29636 0.14327 0.7863 0.0
C263 C 0.26991 0.13028 0.76436 0.0
C264 C 0.24958 0.15208 0.75714 0.0
C265 C 0.25729 0.18742 0.77119 0.0
C266 C 0.31831 0.12062 0.79478 0.0
C267 C 0.22118 0.13919 0.73387 0.0
C268 C 0.29424 0.07121 0.7142 0.0
C269 C 0.2651 0.0302 0.72019 0.0
C270 C 0.29504 0.1041 0.72777 0.0
C271 C 0.26614 0.09581 0.74795 0.0
C272 C 0.23554 0.05457 0.75337 0.0
C273 C 0.23528 0.02221 0.73935 0.0
C274 C 0.32788 0.1477 0.72119 0.0
C275 C 0.20423 0.04451 0.77474 0.0
H276 H 0.32493 0.18935 0.81619 0.0
H277 H 0.24269 0.20478 0.76509 0.0
H278 H 0.29589 0.08726 0.79718 0.0
H279 H 0.34067 0.12358 0.77956 0.0
H280 H 0.33529 0.13274 0.81338 0.0
H281 H 0.20481 0.15698 0.73228 0.0
H282 H 0.23934 0.14402 0.71582 0.0
H283 H 0.19796 0.10587 0.73497 0.0
H284 H 0.3172 0.07768 0.6993 0.0
H285 H 0.21266 0.9906 0.74411 0.0
H286 H 0.34928 0.16144 0.7379 0.0
H287 H 0.31365 0.16706 0.71755 0.0
H288 H 0.34614 0.14907 0.70378 0.0
H289 H 0.2201 0.0526 0.79388 0.0
H290 H 0.18028 0.01131 0.77498 0.0
H291 H 0.18884 0.06309 0.77247 0.0
C292 C 0.9073 0.22279 0.72605 0.0
C293 C 0.94487 0.22489 0.72004 0.0
C294 C 0.87371 0.18633 0.73555 0.0
C295 C 0.87773 0.15104 0.73924 0.0
C296 C 0.9153 0.15266 0.73282 0.0
C297 C 0.94844 0.18958 0.72323 0.0
C298 C 0.83404 0.18577 0.74199 0.0
C299 C 0.92069 0.11561 0.73648 0.0
C300 C 0.80209 0.07272 0.7874 0.0
C301 C 0.77124 0.04423 0.77078 0.0
C302 C 0.83771 0.10688 0.77736 0.0
C303 C 0.84253 0.1127 0.75007 0.0
C304 C 0.81223 0.08326 0.7332 0.0
C305 C 0.77699 0.04938 0.74376 0.0
C306 C 0.86948 0.13753 0.79597 0.0
C307 C 0.81624 0.08837 0.704 0.0
H308 H 0.90419 0.24986 0.72358 0.0
H309 H 0.97738 0.19095 0.71869 0.0
H310 H 0.80806 0.16096 0.73087 0.0
H311 H 0.82685 0.17896 0.76297 0.0
H312 H 0.83566 0.21557 0.73749 0.0
H313 H 0.95148 0.12157 0.72992 0.0
H314 H 0.91683 0.10674 0.75733 0.0
H315 H 0.89658 0.08888 0.7255 0.0
H316 H 0.798 0.06891 0.80829 0.0
H317 H 0.75343 0.02745 0.73074 0.0
H318 H 0.87046 0.16755 0.79431 0.0
H319 H 0.90062 0.14295 0.7909 0.0
H320 H 0.86269 0.12701 0.81651 0.0
H321 H 0.81467 0.11611 0.69823 0.0
H322 H 0.79155 0.06124 0.69356 0.0
H323 H 0.84662 0.09321 0.69753 0.0
C324 C 0.97252 0.55447 0.02456 0.0
C325 C 0.98772 0.52764 0.02942 0.0
C326 C 0.98591 0.58085 0.00286 0.0
C327 C 0.01458 0.57977 0.98536 0.0
C328 C 0.03046 0.55316 0.99039 0.0
C329 C 0.01712 0.52769 0.01248 0.0
C330 C 0.96887 0.60936 0.99843 0.0
C331 C 0.06063 0.55066 0.972 0.0
C332 C 0.01597 0.61285 0.91529 0.0
C333 C 0.05205 0.65156 0.91468 0.0
C334 C 0.00327 0.58934 0.93822 0.0
C335 C 0.02682 0.60524 0.96124 0.0
C336 C 0.06264 0.64481 0.96095 0.0
C337 C 0.07506 0.66734 0.9376 0.0
C338 C 0.96522 0.54703 0.93763 0.0
C339 C 0.0881 0.66311 0.98521 0.0
H340 H 0.94996 0.55475 0.03767 0.0
H341 H 0.02885 0.50689 0.01605 0.0
H342 H 0.99448 0.64156 0.996 0.0
H343 H 0.95047 0.60064 0.98023 0.0
H344 H 0.94891 0.60842 0.01473 0.0
H345 H 0.07068 0.52898 0.97898 0.0
H346 H 0.04622 0.54032 0.95255 0.0
H347 H 0.0883 0.58158 0.9695 0.0
H348 H 0.99816 0.60037 0.89762 0.0
H349 H 0.10286 0.69734 0.93729 0.0
H350 H 0.94259 0.54506 0.95232 0.0
H351 H 0.9736 0.52336 0.94277 0.0
H352 H 0.95007 0.53936 0.91824 0.0
H353 H 0.06828 0.66323 0.00124 0.0
H354 H 0.11375 0.69516 0.9821 0.0
H355 H 0.10135 0.64391 0.9917 0.0
C356 C 0.37331 0.37639 0.91702 0.0
C357 C 0.33554 0.37566 0.91535 0.0
C358 C 0.39503 0.3853 0.94061 0.0
C359 C 0.37828 0.39301 0.96321 0.0
C360 C 0.33974 0.39145 0.96179 0.0
C361 C 0.31899 0.38313 0.93782 0.0
C362 C 0.43631 0.38723 0.94124 0.0
C363 C 0.32058 0.39885 0.98554 0.0
C364 C 0.42157 0.38235 0.02783 0.0
C365 C 0.45001 0.42361 0.03381 0.0
C366 C 0.3971 0.372 0.00531 0.0
C367 C 0.40165 0.40361 0.98815 0.0
C368 C 0.42977 0.44536 0.99433 0.0
C369 C 0.45337 0.45486 0.01719 0.0
C370 C 0.36698 0.32718 0.99961 0.0
C371 C 0.43588 0.47993 0.97639 0.0
H372 H 0.3864 0.37086 0.89971 0.0
H373 H 0.28972 0.38242 0.9367 0.0
H374 H 0.46068 0.41844 0.94741 0.0
H375 H 0.43572 0.36495 0.95571 0.0
H376 H 0.44495 0.38028 0.922 0.0
H377 H 0.28963 0.39481 0.98143 0.0
H378 H 0.31758 0.3773 0.00134 0.0
H379 H 0.34086 0.43061 0.99291 0.0
H380 H 0.41867 0.35805 0.04066 0.0
H381 H 0.4754 0.4868 0.02161 0.0
H382 H 0.37636 0.31769 0.9816 0.0
H383 H 0.33572 0.32267 0.99616 0.0
H384 H 0.3652 0.30657 0.01572 0.0
H385 H 0.44748 0.47632 0.95726 0.0
H386 H 0.45811 0.51081 0.98437 0.0
H387 H 0.40602 0.47863 0.97286 0.0
C388 C 0.59354 0.10264 0.04272 0.0
C389 C 0.55112 0.08358 0.04793 0.0
C390 C 0.6083 0.09185 0.02069 0.0
C391 C 0.57991 0.06174 0.00324 0.0
C392 C 0.53708 0.042 0.00859 0.0
C393 C 0.52323 0.05293 0.03097 0.0
C394 C 0.65421 0.11312 0.01586 0.0
C395 C 0.5058 0.01009 0.99031 0.0
C396 C 0.61256 0.06486 0.93289 0.0
C397 C 0.61994 0.03166 0.93199 0.0
C398 C 0.59975 0.07509 0.95599 0.0
C399 C 0.59481 0.05198 0.97887 0.0
C400 C 0.60317 0.01905 0.97826 0.0
C401 C 0.61532 0.00907 0.95476 0.0
C402 C 0.59063 0.1101 0.95576 0.0
C403 C 0.59887 0.99411 0.00235 0.0
H404 H 0.61529 0.12618 0.05582 0.0
H405 H 0.4904 0.03817 0.03481 0.0
H406 H 0.66407 0.0899 0.01322 0.0
H407 H 0.66187 0.13143 0.99765 0.0
H408 H 0.67228 0.13406 0.03206 0.0
H409 H 0.47369 0.99695 0.99756 0.0
H410 H 0.50803 0.0242 0.97094 0.0
H411 H 0.51237 0.98457 0.98749 0.0
H412 H 0.61584 0.08233 0.91534 0.0
H413 H 0.62114 0.98348 0.95423 0.0
H414 H 0.60997 0.13364 0.97043 0.0
H415 H 0.55791 0.09837 0.96117 0.0
H416 H 0.59637 0.12527 0.93642 0.0
H417 H 0.61791 0.01482 0.01834 0.0
H418 H 0.60839 0.97076 0.99892 0.0
H419 H 0.56634 0.97801 0.00906 0.0
C420 C 0.37022 0.93895 0.57528 0.0
C421 C 0.3584 0.96683 0.58433 0.0
C422 C 0.39355 0.94688 0.55245 0.0
C423 C 0.40429 0.98301 0.5379 0.0
C424 C 0.39129 0.01064 0.54649 0.0
C425 C 0.36902 0.00254 0.56987 0.0
C426 C 0.40767 0.91715 0.54431 0.0
C427 C 0.40114 0.04884 0.5311 0.0
C428 C 0.49807 0.02154 0.49401 0.0
C429 C 0.47995 0.00277 0.47028 0.0
C430 C 0.47375 0.01607 0.51608 0.0
C431 C 0.43021 0.99222 0.51414 0.0
C432 C 0.4117 0.97494 0.48987 0.0
C433 C 0.43683 0.97989 0.4683 0.0
C434 C 0.49472 0.03419 0.54173 0.0
C435 C 0.36539 0.95035 0.48684 0.0
H436 H 0.36239 0.9115 0.58654 0.0
H437 H 0.35972 0.02404 0.57676 0.0
H438 H 0.39596 0.90499 0.52456 0.0
H439 H 0.44188 0.93347 0.54339 0.0
H440 H 0.397 0.89068 0.55792 0.0
H441 H 0.38644 0.06569 0.53951 0.0
H442 H 0.435 0.06999 0.53055 0.0
H443 H 0.39057 0.04043 0.51069 0.0
H444 H 0.53142 0.03903 0.49564 0.0
H445 H 0.42273 0.96563 0.4499 0.0
H446 H 0.48745 0.00896 0.5558 0.0
H447 H 0.48301 0.05366 0.55012 0.0
H448 H 0.52879 0.05318 0.53975 0.0
H449 H 0.3529 0.92113 0.49796 0.0
H450 H 0.35589 0.94275 0.46617 0.0
H451 H 0.35113 0.96778 0.49491 0.0
C452 C 0.00482 0.4006 0.57621 0.0
C453 C 0.03754 0.39253 0.57772 0.0
C454 C 0.99564 0.41371 0.55284 0.0
C455 C 0.01929 0.41819 0.53029 0.0
C456 C 0.05175 0.40916 0.53153 0.0
C457 C 0.06073 0.39679 0.55529 0.0
C458 C 0.96115 0.4236 0.55241 0.0
C459 C 0.07718 0.41288 0.50779 0.0
C460 C 0.97081 0.42032 0.46569 0.0
C461 C 0.99074 0.46275 0.46041 0.0
C462 C 0.98066 0.40525 0.48798 0.0
C463 C 0.01062 0.43334 0.50562 0.0
C464 C 0.03126 0.47616 0.50018 0.0
C465 C 0.02133 0.49031 0.47752 0.0
C466 C 0.95851 0.35934 0.49288 0.0
C467 C 0.06297 0.50714 0.51868 0.0
H468 H 0.9869 0.39758 0.59349 0.0
H469 H 0.08592 0.39039 0.5563 0.0
H470 H 0.97353 0.45634 0.54681 0.0
H471 H 0.93781 0.40438 0.53762 0.0
H472 H 0.94556 0.41831 0.57158 0.0
H473 H 0.10006 0.4029 0.51171 0.0
H474 H 0.05673 0.39392 0.49168 0.0
H475 H 0.09389 0.44535 0.50099 0.0
H476 H 0.94729 0.39884 0.45247 0.0
H477 H 0.0367 0.52315 0.47363 0.0
H478 H 0.93958 0.35203 0.5108 0.0
H479 H 0.98119 0.34892 0.49609 0.0
H480 H 0.938 0.34148 0.47647 0.0
H481 H 0.0484 0.5053 0.53782 0.0
H482 H 0.0769 0.53927 0.51132 0.0
H483 H 0.08798 0.49995 0.52201 0.0
C484 C 0.50784 0.50643 0.4823 0.0
C485 C 0.53594 0.50388 0.46544 0.0
C486 C 0.52149 0.53198 0.50435 0.0
C487 C 0.56433 0.55612 0.50942 0.0
C488 C 0.59292 0.55481 0.49196 0.0
C489 C 0.57837 0.52842 0.47029 0.0
C490 C 0.49 0.53208 0.52268 0.0
C491 C 0.63884 0.58063 0.49645 0.0
C492 C 0.59796 0.6445 0.55752 0.0
C493 C 0.60352 0.62725 0.58034 0.0
C494 C 0.58616 0.62209 0.53412 0.0
C495 C 0.57904 0.58121 0.53365 0.0
C496 C 0.58489 0.56378 0.55658 0.0
C497 C 0.59741 0.58713 0.57958 0.0
C498 C 0.58095 0.64198 0.50995 0.0
C499 C 0.57705 0.52009 0.55699 0.0
H500 H 0.47501 0.48743 0.47874 0.0
H501 H 0.60027 0.52677 0.45726 0.0
H502 H 0.49271 0.52061 0.54208 0.0
H503 H 0.4959 0.56398 0.52537 0.0
H504 H 0.4579 0.51248 0.51555 0.0
H505 H 0.65699 0.57833 0.48009 0.0
H506 H 0.6478 0.61349 0.49909 0.0
H507 H 0.64731 0.5705 0.51456 0.0
H508 H 0.60284 0.67558 0.55795 0.0
H509 H 0.60144 0.57352 0.59716 0.0
H510 H 0.54836 0.62477 0.50339 0.0
H511 H 0.60013 0.64068 0.49392 0.0
H512 H 0.58969 0.67469 0.51324 0.0
H513 H 0.54445 0.49833 0.5517 0.0
H514 H 0.58331 0.5112 0.57636 0.0
H515 H 0.59673 0.51642 0.54233 0.0
C516 C 0.99302 0.48295 0.30331 0.0
C517 C 0.99827 0.52092 0.31164 0.0
C518 C 0.99359 0.47458 0.27672 0.0
C519 C 0.99871 0.50463 0.25805 0.0
C520 C 0.00447 0.5432 0.2664 0.0
C521 C 0.00433 0.55093 0.29312 0.0
C522 C 0.98749 0.43315 0.26856 0.0
C523 C 0.00961 0.57589 0.24711 0.0
C524 C 0.02642 0.49444 0.18824 0.0
C525 C 0.98758 0.47537 0.17622 0.0
C526 C 0.03058 0.50385 0.21493 0.0
C527 C 0.99513 0.49465 0.22979 0.0
C528 C 0.95597 0.47625 0.21759 0.0
C529 C 0.9527 0.46689 0.19097 0.0
C530 C 0.07286 0.52366 0.22722 0.0
C531 C 0.91747 0.46643 0.23268 0.0
H532 H 0.98807 0.45963 0.31762 0.0
H533 H 0.007 0.57976 0.29943 0.0
H534 H 0.95803 0.41578 0.25774 0.0
H535 H 0.01264 0.43732 0.25525 0.0
H536 H 0.98676 0.4143 0.28547 0.0
H537 H 0.0094 0.60238 0.25665 0.0
H538 H 0.03926 0.58748 0.23657 0.0
H539 H 0.98457 0.56274 0.23239 0.0
H540 H 0.05368 0.50275 0.17671 0.0
H541 H 0.92263 0.45235 0.18173 0.0
H542 H 0.07277 0.5049 0.24397 0.0
H543 H 0.08116 0.55458 0.23485 0.0
H544 H 0.09704 0.52714 0.21324 0.0
H545 H 0.91294 0.44488 0.24883 0.0
H546 H 0.88941 0.45229 0.22027 0.0
H547 H 0.92085 0.49501 0.24151 0.0
C548 C 0.50095 0.43391 0.30436 0.0
C549 C 0.47643 0.44509 0.31896 0.0
C550 C 0.50552 0.44051 0.2774 0.0
C551 C 0.48512 0.45885 0.26469 0.0
C552 C 0.46076 0.47076 0.27936 0.0
C553 C 0.45706 0.46412 0.30639 0.0
C554 C 0.532 0.42759 0.2625 0.0
C555 C 0.43878 0.49065 0.26652 0.0
C556 C 0.53062 0.50734 0.19927 0.0
C557 C 0.50478 0.47608 0.18196 0.0
C558 C 0.52348 0.50291 0.22619 0.0
C559 C 0.49004 0.46599 0.23608 0.0
C560 C 0.46333 0.43461 0.21864 0.0
C561 C 0.47119 0.43994 0.19177 0.0
C562 C 0.55285 0.53701 0.2441 0.0
C563 C 0.42723 0.3949 0.22844 0.0
H564 H 0.51612 0.41933 0.314 0.0
H565 H 0.43961 0.47451 0.31771 0.0
H566 H 0.51325 0.40467 0.24737 0.0
H567 H 0.55725 0.45462 0.25238 0.0
H568 H 0.54585 0.41385 0.27532 0.0
H569 H 0.41973 0.49661 0.28051 0.0
H570 H 0.46164 0.52032 0.25748 0.0
H571 H 0.41846 0.47055 0.25072 0.0
H572 H 0.55766 0.53454 0.19192 0.0
H573 H 0.45133 0.41561 0.17841 0.0
H574 H 0.5708 0.52628 0.25559 0.0
H575 H 0.5355 0.54515 0.2581 0.0
H576 H 0.57481 0.56525 0.23325 0.0
H577 H 0.43863 0.37775 0.24016 0.0
H578 H 0.40791 0.3747 0.21231 0.0
H579 H 0.40757 0.40162 0.24136 0.0
C580 C 0.46676 0.0316 0.20748 0.0
C581 C 0.49897 0.0603 0.19174 0.0
C582 C 0.47434 0.02253 0.2327 0.0
C583 C 0.51482 0.04425 0.24297 0.0
C584 C 0.54727 0.07444 0.2276 0.0
C585 C 0.53904 0.08175 0.2021 0.0
C586 C 0.43897 0.98976 0.24838 0.0
C587 C 0.59063 0.09921 0.23815 0.0
C588 C 0.52434 0.04575 0.31668 0.0
C589 C 0.53641 0.01624 0.32084 0.0
C590 C 0.51803 0.05583 0.29141 0.0
C591 C 0.52316 0.03534 0.26981 0.0
C592 C 0.53595 0.00603 0.27385 0.0
C593 C 0.54339 0.99764 0.29926 0.0
C594 C 0.50572 0.08827 0.28785 0.0
C595 C 0.54133 0.98315 0.25137 0.0
H596 H 0.43541 0.01694 0.20053 0.0
H597 H 0.56411 0.10448 0.19027 0.0
H598 H 0.44713 0.96701 0.25599 0.0
H599 H 0.43272 0.00406 0.26538 0.0
H600 H 0.41022 0.97304 0.23676 0.0
H601 H 0.61203 0.1227 0.22405 0.0
H602 H 0.59053 0.11509 0.25636 0.0
H603 H 0.60276 0.07842 0.24307 0.0
H604 H 0.51949 0.06078 0.33323 0.0
H605 H 0.55538 0.97703 0.30205 0.0
H606 H 0.47448 0.07419 0.27911 0.0
H607 H 0.52731 0.11248 0.27422 0.0
H608 H 0.50551 0.10312 0.30652 0.0
H609 H 0.51232 0.96709 0.23994 0.0
H610 H 0.54969 0.95999 0.25793 0.0
H611 H 0.56578 0.00523 0.23809 0.0
C612 C 0.06678 0.58287 0.7742 0.0
C613 C 0.09876 0.61772 0.78642 0.0
C614 C 0.07435 0.55449 0.76119 0.0
C615 C 0.11505 0.56122 0.76005 0.0
C616 C 0.14762 0.59637 0.77224 0.0
C617 C 0.13904 0.62415 0.78547 0.0
C618 C 0.03859 0.51713 0.74871 0.0
C619 C 0.19143 0.6047 0.77116 0.0
C620 C 0.11492 0.46228 0.74538 0.0
C621 C 0.11653 0.46322 0.71807 0.0
C622 C 0.11771 0.49557 0.75959 0.0
C623 C 0.12264 0.53078 0.74619 0.0
C624 C 0.12817 0.53348 0.71885 0.0
C625 C 0.12486 0.49956 0.70508 0.0
C626 C 0.11162 0.49139 0.78872 0.0
C627 C 0.13424 0.57081 0.7039 0.0
H628 H 0.03552 0.57747 0.77496 0.0
H629 H 0.16392 0.65111 0.79478 0.0
H630 H 0.04397 0.51706 0.72749 0.0
H631 H 0.03601 0.48851 0.75691 0.0
H632 H 0.00873 0.51618 0.75169 0.0
H633 H 0.21328 0.63347 0.78158 0.0
H634 H 0.19324 0.57855 0.7799 0.0
H635 H 0.2015 0.60731 0.7506 0.0
H636 H 0.10886 0.43451 0.75565 0.0
H637 H 0.12669 0.50081 0.68402 0.0
H638 H 0.08037 0.48595 0.79352 0.0
H639 H 0.13431 0.52016 0.7987 0.0
H640 H 0.11451 0.4653 0.79658 0.0
H641 H 0.10454 0.57066 0.70294 0.0
H642 H 0.145 0.57121 0.68369 0.0
H643 H 0.15688 0.59965 0.71386 0.0
C644 C 0.49302 0.60465 0.70563 0.0
C645 C 0.52794 0.63487 0.71883 0.0
C646 C 0.45954 0.5733 0.71933 0.0
C647 C 0.46123 0.57198 0.74682 0.0
C648 C 0.49487 0.60422 0.76031 0.0
C649 C 0.52773 0.6354 0.74615 0.0
C650 C 0.42385 0.53986 0.70424 0.0
C651 C 0.49794 0.60395 0.78961 0.0
C652 C 0.36748 0.49343 0.78519 0.0
C653 C 0.37584 0.46097 0.78758 0.0
C654 C 0.39483 0.52986 0.77185 0.0
C655 C 0.4315 0.53397 0.76103 0.0
C656 C 0.44027 0.50151 0.76374 0.0
C657 C 0.41229 0.46542 0.77683 0.0
C658 C 0.38432 0.5637 0.76909 0.0
C659 C 0.4793 0.50482 0.75278 0.0
H660 H 0.49263 0.60424 0.68454 0.0
H661 H 0.55439 0.65878 0.75658 0.0
H662 H 0.42588 0.51129 0.70461 0.0
H663 H 0.39403 0.53256 0.71327 0.0
H664 H 0.42386 0.54874 0.68361 0.0
H665 H 0.52265 0.63397 0.79729 0.0
H666 H 0.46824 0.59671 0.79878 0.0
H667 H 0.50486 0.57956 0.79557 0.0
H668 H 0.33928 0.49012 0.79336 0.0
H669 H 0.41915 0.44064 0.77873 0.0
H670 H 0.38181 0.56948 0.74817 0.0
H671 H 0.40935 0.59286 0.77743 0.0
H672 H 0.35486 0.55594 0.7789 0.0
H673 H 0.4802 0.50903 0.73137 0.0
H674 H 0.48185 0.47709 0.75702 0.0
H675 H 0.50671 0.53223 0.76102 0.0
C676 C 0.50786 0.94316 0.8085 0.0
C677 C 0.53226 0.92592 0.80152 0.0
C678 C 0.47326 0.93554 0.79374 0.0
C679 C 0.46246 0.90965 0.77162 0.0
C680 C 0.48523 0.8899 0.76548 0.0
C681 C 0.52004 0.89845 0.78043 0.0
C682 C 0.44985 0.95732 0.8009 0.0
C683 C 0.47417 0.8615 0.74232 0.0
C684 C 0.35797 0.87898 0.74196 0.0
C685 C 0.36904 0.90885 0.72237 0.0
C686 C 0.38816 0.87758 0.75748 0.0
C687 C 0.43027 0.90706 0.75351 0.0
C688 C 0.44167 0.93634 0.7332 0.0
C689 C 0.41096 0.93671 0.7178 0.0
C690 C 0.37493 0.84547 0.77866 0.0
C691 C 0.48625 0.96847 0.72841 0.0
H692 H 0.51688 0.96427 0.82482 0.0
H693 H 0.53848 0.88468 0.77502 0.0
H694 H 0.45457 0.98023 0.78561 0.0
H695 H 0.41628 0.935 0.80194 0.0
H696 H 0.46002 0.97366 0.81985 0.0
H697 H 0.49106 0.84412 0.74236 0.0
H698 H 0.44054 0.83918 0.74196 0.0
H699 H 0.48191 0.87986 0.72412 0.0
H700 H 0.32566 0.85713 0.7455 0.0
H701 H 0.41986 0.95985 0.7027 0.0
H702 H 0.3809 0.86065 0.79797 0.0
H703 H 0.39317 0.82956 0.77763 0.0
H704 H 0.34161 0.82204 0.77736 0.0
H705 H 0.49878 0.98891 0.74565 0.0
H706 H 0.49008 0.98785 0.71109 0.0
H707 H 0.50507 0.95345 0.72557 0.0
loop_
_geom_bond_atom_site_label_1
_geom_bond_atom_site_label_2
_geom_bond_distance
_geom_bond_site_symmetry_2
_ccdc_geom_bond_type
O0 Cd1 2.300 1_655 S
O0 C7 1.275 . S
Cd1 O0 2.300 1_455 S
Cd1 O9 2.381 1_455 S
Cd1 O10 2.378 . S
O2 Cd3 2.385 . S
O2 C7 1.255 1_455 S
Cd3 O2 2.385 . S
Cd3 O4 2.317 . S
O4 Cd3 2.317 . S
O4 C5 1.232 . S
C5 O4 1.232 . S
C5 O6 1.218 . S
O6 C5 1.218 . S
C7 O0 1.275 . S
C7 O2 1.255 1_655 S
C8 O9 1.258 . S
C8 O10 1.256 1_655 S
O9 Cd1 2.381 1_655 S
O9 C8 1.258 . S
O10 Cd1 2.378 . S
O10 C8 1.256 1_455 S
O11 Cd12 2.300 . S
O11 C18 1.275 . S
Cd12 O11 2.300 . S
Cd12 O20 2.381 . S
Cd12 O21 2.378 . S
O13 Cd14 2.385 . S
O13 C18 1.255 . S
Cd14 O13 2.385 . S
Cd14 O15 2.317 . S
O15 Cd14 2.317 . S
O15 C16 1.232 . S
C16 O15 1.232 . S
C16 O17 1.218 . S
O17 C16 1.218 . S
C18 O11 1.275 . S
C18 O13 1.255 . S
C19 O20 1.258 . S
C19 O21 1.256 . S
O20 Cd12 2.381 . S
O20 C19 1.258 . S
O21 Cd12 2.378 . S
O21 C19 1.256 . S
O22 Cd23 2.300 1_545 S
O22 C29 1.275 . S
Cd23 O22 2.300 1_565 S
Cd23 O31 2.381 1_565 S
Cd23 O32 2.378 . S
O24 Cd25 2.385 . S
O24 C29 1.255 1_565 S
Cd25 O24 2.385 . S
Cd25 O26 2.317 . S
O26 Cd25 2.317 . S
O26 C27 1.232 . S
C27 O26 1.232 . S
C27 O28 1.218 . S
O28 C27 1.218 . S
C29 O22 1.275 . S
C29 O24 1.255 1_545 S
C30 O31 1.258 . S
C30 O32 1.256 1_545 S
O31 Cd23 2.381 1_545 S
O31 C30 1.258 . S
O32 Cd23 2.378 . S
O32 C30 1.256 1_565 S
O33 Cd34 2.300 1_545 S
O33 C40 1.275 . S
Cd34 O33 2.300 1_565 S
Cd34 O42 2.381 1_565 S
Cd34 O43 2.378 . S
O35 Cd36 2.385 . S
O35 C40 1.255 1_565 S
Cd36 O35 2.385 . S
Cd36 O37 2.317 . S
O37 Cd36 2.317 . S
O37 C38 1.232 . S
C38 O37 1.232 . S
C38 O39 1.218 . S
O39 C38 1.218 . S
C40 O33 1.275 . S
C40 O35 1.255 1_545 S
C41 O42 1.258 . S
C41 O43 1.256 1_545 S
O42 Cd34 2.381 1_545 S
O42 C41 1.258 . S
O43 Cd34 2.378 . S
O43 C41 1.256 1_565 S
O44 Cd45 2.300 1_655 S
O44 C51 1.275 . S
Cd45 O44 2.300 1_455 S
Cd45 O53 2.381 1_455 S
Cd45 O54 2.378 . S
O46 Cd47 2.385 . S
O46 C51 1.255 1_455 S
Cd47 O46 2.385 . S
Cd47 O48 2.317 . S
O48 Cd47 2.317 . S
O48 C49 1.232 . S
C49 O48 1.232 . S
C49 O50 1.218 . S
O50 C49 1.218 . S
C51 O44 1.275 . S
C51 O46 1.255 1_655 S
C52 O53 1.258 . S
C52 O54 1.256 1_655 S
O53 Cd45 2.381 1_655 S
O53 C52 1.258 . S
O54 Cd45 2.378 . S
O54 C52 1.256 1_455 S
O55 Cd56 2.300 . S
O55 C62 1.275 . S
Cd56 O55 2.300 . S
Cd56 O64 2.381 . S
Cd56 O65 2.378 . S
O57 Cd58 2.385 . S
O57 C62 1.255 . S
Cd58 O57 2.385 . S
Cd58 O59 2.317 . S
O59 Cd58 2.317 . S
O59 C60 1.232 . S
C60 O59 1.232 . S
C60 O61 1.218 . S
O61 C60 1.218 . S
C62 O55 1.275 . S
C62 O57 1.255 . S
C63 O64 1.258 . S
C63 O65 1.256 . S
O64 Cd56 2.381 . S
O64 C63 1.258 . S
O65 Cd56 2.378 . S
O65 C63 1.256 . S
O66 Cd67 2.300 . S
O66 C73 1.275 . S
Cd67 O66 2.300 . S
Cd67 O75 2.381 . S
Cd67 O76 2.378 . S
O68 Cd69 2.385 . S
O68 C73 1.255 . S
Cd69 O68 2.385 . S
Cd69 O70 2.317 1_455 S
O70 Cd69 2.317 1_655 S
O70 C71 1.232 . S
C71 O70 1.232 . S
C71 O72 1.218 . S
O72 C71 1.218 . S
C73 O66 1.275 . S
C73 O68 1.255 . S
C74 O75 1.258 . S
C74 O76 1.256 . S
O75 Cd67 2.381 . S
O75 C74 1.258 . S
O76 Cd67 2.378 . S
O76 C74 1.256 . S
O77 Cd78 2.300 . S
O77 C84 1.275 . S
Cd78 O77 2.300 . S
Cd78 O86 2.381 . S
Cd78 O87 2.378 . S
O79 Cd80 2.385 . S
O79 C84 1.255 . S
Cd80 O79 2.385 . S
Cd80 O81 2.317 . S
O81 Cd80 2.317 . S
O81 C82 1.232 . S
C82 O81 1.232 . S
C82 O83 1.218 . S
O83 C82 1.218 . S
C84 O77 1.275 . S
C84 O79 1.255 . S
C85 O86 1.258 . S
C85 O87 1.256 . S
O86 Cd78 2.381 . S
O86 C85 1.258 . S
O87 Cd78 2.378 . S
O87 C85 1.256 . S
O88 Cd89 2.300 . S
O88 C95 1.275 . S
Cd89 O88 2.300 . S
Cd89 O97 2.381 . S
Cd89 O98 2.378 . S
O90 Cd91 2.385 . S
O90 C95 1.255 . S
Cd91 O90 2.385 . S
Cd91 O92 2.317 1_565 S
O92 Cd91 2.317 1_545 S
O92 C93 1.232 . S
C93 O92 1.232 . S
C93 O94 1.218 . S
O94 C93 1.218 . S
C95 O88 1.275 . S
C95 O90 1.255 . S
C96 O97 1.258 . S
C96 O98 1.256 . S
O97 Cd89 2.381 . S
O97 C96 1.258 . S
O98 Cd89 2.378 . S
O98 C96 1.256 . S
O99 Cd100 2.300 . S
O99 C106 1.275 . S
Cd100 O99 2.300 . S
Cd100 O108 2.381 . S
Cd100 O109 2.378 . S
O101 Cd102 2.385 . S
O101 C106 1.255 . S
Cd102 O101 2.385 . S
Cd102 O103 2.317 1_565 S
O103 Cd102 2.317 1_545 S
O103 C104 1.232 . S
C104 O103 1.232 . S
C104 O105 1.218 . S
O105 C104 1.218 . S
C106 O99 1.275 . S
C106 O101 1.255 . S
C107 O108 1.258 . S
C107 O109 1.256 . S
O108 Cd100 2.381 . S
O108 C107 1.258 . S
O109 Cd100 2.378 . S
O109 C107 1.256 . S
O110 Cd111 2.300 . S
O110 C117 1.275 . S
Cd111 O110 2.300 . S
Cd111 O119 2.381 . S
Cd111 O120 2.378 . S
O112 Cd113 2.385 . S
O112 C117 1.255 . S
Cd113 O112 2.385 . S
Cd113 O114 2.317 1_455 S
O114 Cd113 2.317 1_655 S
O114 C115 1.232 . S
C115 O114 1.232 . S
C115 O116 1.218 . S
O116 C115 1.218 . S
C117 O110 1.275 . S
C117 O112 1.255 . S
C118 O119 1.258 . S
C118 O120 1.256 . S
O119 Cd111 2.381 . S
O119 C118 1.258 . S
O120 Cd111 2.378 . S
O120 C118 1.256 . S
O121 Cd122 2.300 . S
O121 C128 1.275 . S
Cd122 O121 2.300 . S
Cd122 O130 2.381 . S
Cd122 O131 2.378 . S
O123 Cd124 2.385 . S
O123 C128 1.255 . S
Cd124 O123 2.385 . S
Cd124 O125 2.317 . S
O125 Cd124 2.317 . S
O125 C126 1.232 . S
C126 O125 1.232 . S
C126 O127 1.218 . S
O127 C126 1.218 . S
C128 O121 1.275 . S
C128 O123 1.255 . S
C129 O130 1.258 . S
C129 O131 1.256 . S
O130 Cd122 2.381 . S
O130 C129 1.258 . S
O131 Cd122 2.378 . S
O131 C129 1.256 . S
C132 C133 1.391 . S
C132 C134 1.394 . S
C132 H148 0.931 . S
C133 C132 1.391 . S
C133 C137 1.376 . S
C134 C132 1.394 . S
C134 C135 1.369 . S
C134 C138 1.531 . S
C135 C134 1.369 . S
C135 C136 1.410 . S
C135 C143 1.503 . S
C136 C135 1.410 . S
C136 C137 1.392 . S
C136 C139 1.511 . S
C137 C133 1.376 . S
C137 C136 1.392 . S
C137 H149 0.929 . S
C138 C134 1.531 . S
C138 H150 0.960 . S
C138 H151 0.962 . S
C138 H152 0.960 . S
C139 C136 1.511 . S
C139 H153 0.961 . S
C139 H154 0.961 . S
C139 H155 0.961 . S
C140 C141 1.370 . S
C140 C142 1.363 . S
C140 H156 0.931 . S
C141 C140 1.370 . S
C141 C145 1.408 . S
C142 C140 1.363 . S
C142 C143 1.370 . S
C142 C146 1.524 . S
C143 C135 1.503 . S
C143 C142 1.370 . S
C143 C144 1.403 . S
C144 C143 1.403 . S
C144 C145 1.404 . S
C144 C147 1.539 . S
C145 C141 1.408 . S
C145 C144 1.404 . S
C145 H157 0.930 . S
C146 C142 1.524 . S
C146 H158 0.956 . S
C146 H159 0.961 . S
C146 H160 0.961 . S
C147 C144 1.539 . S
C147 H161 0.958 . S
C147 H162 0.961 . S
C147 H163 0.960 . S
H148 C132 0.931 . S
H149 C137 0.929 . S
H150 C138 0.960 . S
H151 C138 0.962 . S
H152 C138 0.960 . S
H153 C139 0.961 . S
H154 C139 0.961 . S
H155 C139 0.961 . S
H156 C140 0.931 . S
H157 C145 0.930 . S
H158 C146 0.956 . S
H159 C146 0.961 . S
H160 C146 0.961 . S
H161 C147 0.958 . S
H162 C147 0.961 . S
H163 C147 0.960 . S
C164 C165 1.391 . S
C164 C166 1.394 . S
C164 H180 0.931 . S
C165 C164 1.391 . S
C165 C169 1.376 . S
C166 C164 1.394 . S
C166 C167 1.369 . S
C166 C170 1.531 . S
C167 C166 1.369 . S
C167 C168 1.410 . S
C167 C175 1.503 . S
C168 C167 1.410 . S
C168 C169 1.392 . S
C168 C171 1.511 . S
C169 C165 1.376 . S
C169 C168 1.392 . S
C169 H181 0.929 . S
C170 C166 1.531 . S
C170 H182 0.960 . S
C170 H183 0.962 . S
C170 H184 0.960 . S
C171 C168 1.511 . S
C171 H185 0.961 . S
C171 H186 0.961 . S
C171 H187 0.961 . S
C172 C173 1.370 . S
C172 C174 1.363 . S
C172 H188 0.931 . S
C173 C172 1.370 . S
C173 C177 1.408 . S
C174 C172 1.363 . S
C174 C175 1.370 . S
C174 C178 1.524 . S
C175 C167 1.503 . S
C175 C174 1.370 . S
C175 C176 1.403 . S
C176 C175 1.403 . S
C176 C177 1.404 . S
C176 C179 1.539 . S
C177 C173 1.408 . S
C177 C176 1.404 . S
C177 H189 0.930 . S
C178 C174 1.524 . S
C178 H190 0.956 . S
C178 H191 0.961 . S
C178 H192 0.961 . S
C179 C176 1.539 . S
C179 H193 0.958 . S
C179 H194 0.961 . S
C179 H195 0.960 . S
H180 C164 0.931 . S
H181 C169 0.929 . S
H182 C170 0.960 . S
H183 C170 0.962 . S
H184 C170 0.960 . S
H185 C171 0.961 . S
H186 C171 0.961 . S
H187 C171 0.961 . S
H188 C172 0.931 . S
H189 C177 0.930 . S
H190 C178 0.956 . S
H191 C178 0.961 . S
H192 C178 0.961 . S
H193 C179 0.958 . S
H194 C179 0.961 . S
H195 C179 0.960 . S
C196 C197 1.391 . S
C196 C198 1.394 . S
C196 H212 0.931 . S
C197 C196 1.391 . S
C197 C201 1.376 . S
C198 C196 1.394 . S
C198 C199 1.369 . S
C198 C202 1.531 . S
C199 C198 1.369 . S
C199 C200 1.410 . S
C199 C207 1.503 . S
C200 C199 1.410 . S
C200 C201 1.392 . S
C200 C203 1.511 . S
C201 C197 1.376 . S
C201 C200 1.392 . S
C201 H213 0.929 . S
C202 C198 1.531 . S
C202 H214 0.960 . S
C202 H215 0.962 . S
C202 H216 0.960 . S
C203 C200 1.511 . S
C203 H217 0.961 . S
C203 H218 0.961 . S
C203 H219 0.961 . S
C204 C205 1.370 . S
C204 C206 1.363 . S
C204 H220 0.931 . S
C205 C204 1.370 . S
C205 C209 1.408 . S
C206 C204 1.363 . S
C206 C207 1.370 . S
C206 C210 1.524 . S
C207 C199 1.503 . S
C207 C206 1.370 . S
C207 C208 1.403 . S
C208 C207 1.403 . S
C208 C209 1.404 . S
C208 C211 1.539 . S
C209 C205 1.408 . S
C209 C208 1.404 . S
C209 H221 0.930 . S
C210 C206 1.524 . S
C210 H222 0.956 . S
C210 H223 0.961 . S
C210 H224 0.961 . S
C211 C208 1.539 . S
C211 H225 0.958 . S
C211 H226 0.961 . S
C211 H227 0.960 . S
H212 C196 0.931 . S
H213 C201 0.929 . S
H214 C202 0.960 . S
H215 C202 0.962 . S
H216 C202 0.960 . S
H217 C203 0.961 . S
H218 C203 0.961 . S
H219 C203 0.961 . S
H220 C204 0.931 . S
H221 C209 0.930 . S
H222 C210 0.956 . S
H223 C210 0.961 . S
H224 C210 0.961 . S
H225 C211 0.958 . S
H226 C211 0.961 . S
H227 C211 0.960 . S
C228 C229 1.391 . S
C228 C230 1.394 . S
C228 H244 0.931 . S
C229 C228 1.391 . S
C229 C233 1.376 . S
C230 C228 1.394 . S
C230 C231 1.369 . S
C230 C234 1.531 . S
C231 C230 1.369 . S
C231 C232 1.410 . S
C231 C239 1.503 . S
C232 C231 1.410 . S
C232 C233 1.392 . S
C232 C235 1.511 . S
C233 C229 1.376 . S
C233 C232 1.392 . S
C233 H245 0.929 . S
C234 C230 1.531 . S
C234 H246 0.960 . S
C234 H247 0.962 . S
C234 H248 0.960 . S
C235 C232 1.511 . S
C235 H249 0.961 . S
C235 H250 0.961 . S
C235 H251 0.961 . S
C236 C237 1.370 . S
C236 C238 1.363 . S
C236 H252 0.931 . S
C237 C236 1.370 . S
C237 C241 1.408 . S
C238 C236 1.363 . S
C238 C239 1.370 . S
C238 C242 1.524 . S
C239 C231 1.503 . S
C239 C238 1.370 . S
C239 C240 1.403 . S
C240 C239 1.403 . S
C240 C241 1.404 . S
C240 C243 1.539 . S
C241 C237 1.408 . S
C241 C240 1.404 . S
C241 H253 0.930 . S
C242 C238 1.524 . S
C242 H254 0.956 . S
C242 H255 0.961 . S
C242 H256 0.961 . S
C243 C240 1.539 . S
C243 H257 0.958 . S
C243 H258 0.961 . S
C243 H259 0.960 . S
H244 C228 0.931 . S
H245 C233 0.929 . S
H246 C234 0.960 . S
H247 C234 0.962 . S
H248 C234 0.960 . S
H249 C235 0.961 . S
H250 C235 0.961 . S
H251 C235 0.961 . S
H252 C236 0.931 . S
H253 C241 0.930 . S
H254 C242 0.956 . S
H255 C242 0.961 . S
H256 C242 0.961 . S
H257 C243 0.958 . S
H258 C243 0.961 . S
H259 C243 0.960 . S
C260 C261 1.391 . S
C260 C262 1.394 . S
C260 H276 0.931 . S
C261 C260 1.391 . S
C261 C265 1.376 . S
C262 C260 1.394 . S
C262 C263 1.369 . S
C262 C266 1.531 . S
C263 C262 1.369 . S
C263 C264 1.410 . S
C263 C271 1.503 . S
C264 C263 1.410 . S
C264 C265 1.392 . S
C264 C267 1.511 . S
C265 C261 1.376 . S
C265 C264 1.392 . S
C265 H277 0.929 . S
C266 C262 1.531 . S
C266 H278 0.960 . S
C266 H279 0.962 . S
C266 H280 0.960 . S
C267 C264 1.511 . S
C267 H281 0.961 . S
C267 H282 0.961 . S
C267 H283 0.961 . S
C268 C269 1.370 . S
C268 C270 1.363 . S
C268 H284 0.931 . S
C269 C268 1.370 . S
C269 C273 1.408 . S
C270 C268 1.363 . S
C270 C271 1.370 . S
C270 C274 1.524 . S
C271 C263 1.503 . S
C271 C270 1.370 . S
C271 C272 1.403 . S
C272 C271 1.403 . S
C272 C273 1.404 . S
C272 C275 1.539 . S
C273 C269 1.408 . S
C273 C272 1.404 . S
C273 H285 0.930 . S
C274 C270 1.524 . S
C274 H286 0.956 . S
C274 H287 0.961 . S
C274 H288 0.961 . S
C275 C272 1.539 . S
C275 H289 0.958 . S
C275 H290 0.961 . S
C275 H291 0.960 . S
H276 C260 0.931 . S
H277 C265 0.929 . S
H278 C266 0.960 . S
H279 C266 0.962 . S
H280 C266 0.960 . S
H281 C267 0.961 . S
H282 C267 0.961 . S
H283 C267 0.961 . S
H284 C268 0.931 . S
H285 C273 0.930 . S
H286 C274 0.956 . S
H287 C274 0.961 . S
H288 C274 0.961 . S
H289 C275 0.958 . S
H290 C275 0.961 . S
H291 C275 0.960 . S
C292 C293 1.391 . S
C292 C294 1.394 . S
C292 H308 0.931 . S
C293 C292 1.391 . S
C293 C297 1.376 . S
C294 C292 1.394 . S
C294 C295 1.369 . S
C294 C298 1.531 . S
C295 C294 1.369 . S
C295 C296 1.410 . S
C295 C303 1.503 . S
C296 C295 1.410 . S
C296 C297 1.392 . S
C296 C299 1.511 . S
C297 C293 1.376 . S
C297 C296 1.392 . S
C297 H309 0.929 . S
C298 C294 1.531 . S
C298 H310 0.960 . S
C298 H311 0.962 . S
C298 H312 0.960 . S
C299 C296 1.511 . S
C299 H313 0.961 . S
C299 H314 0.961 . S
C299 H315 0.961 . S
C300 C301 1.370 . S
C300 C302 1.363 . S
C300 H316 0.931 . S
C301 C300 1.370 . S
C301 C305 1.408 . S
C302 C300 1.363 . S
C302 C303 1.370 . S
C302 C306 1.524 . S
C303 C295 1.503 . S
C303 C302 1.370 . S
C303 C304 1.403 . S
C304 C303 1.403 . S
C304 C305 1.404 . S
C304 C307 1.539 . S
C305 C301 1.408 . S
C305 C304 1.404 . S
C305 H317 0.930 . S
C306 C302 1.524 . S
C306 H318 0.956 . S
C306 H319 0.961 . S
C306 H320 0.961 . S
C307 C304 1.539 . S
C307 H321 0.958 . S
C307 H322 0.961 . S
C307 H323 0.960 . S
H308 C292 0.931 . S
H309 C297 0.929 . S
H310 C298 0.960 . S
H311 C298 0.962 . S
H312 C298 0.960 . S
H313 C299 0.961 . S
H314 C299 0.961 . S
H315 C299 0.961 . S
H316 C300 0.931 . S
H317 C305 0.930 . S
H318 C306 0.956 . S
H319 C306 0.961 . S
H320 C306 0.961 . S
H321 C307 0.958 . S
H322 C307 0.961 . S
H323 C307 0.960 . S
C324 C325 1.391 . S
C324 C326 1.396 1_655 S
C324 H340 0.931 . S
C325 C324 1.391 . S
C325 C329 1.376 . S
C326 C324 1.396 1_455 S
C326 C327 1.374 . S
C326 C330 1.523 . S
C327 C326 1.374 . S
C327 C328 1.410 . S
C327 C335 1.503 1_554 S
C328 C327 1.410 . S
C328 C329 1.392 1_455 S
C328 C331 1.511 1_554 S
C329 C325 1.376 . S
C329 C328 1.392 1_655 S
C329 H341 0.929 . S
C330 C326 1.523 . S
C330 H342 0.960 . S
C330 H343 0.962 1_455 S
C330 H344 0.960 . S
C331 C328 1.511 1_556 S
C331 H345 0.961 1_455 S
C331 H346 0.961 . S
C331 H347 0.961 . S
C332 C333 1.370 1_655 S
C332 C334 1.363 . S
C332 H348 0.931 . S
C333 C332 1.370 1_455 S
C333 C337 1.408 . S
C334 C332 1.363 . S
C334 C335 1.370 1_655 S
C334 C338 1.524 . S
C335 C327 1.503 1_556 S
C335 C334 1.370 1_455 S
C335 C336 1.403 . S
C336 C335 1.403 . S
C336 C337 1.404 . S
C336 C339 1.539 . S
C337 C333 1.408 . S
C337 C336 1.404 . S
C337 H349 0.930 . S
C338 C334 1.524 . S
C338 H350 0.956 1_556 S
C338 H351 0.961 . S
C338 H352 0.961 . S
C339 C336 1.539 . S
C339 H353 0.958 1_556 S
C339 H354 0.961 . S
C339 H355 0.943 1_556 S
H340 C324 0.931 . S
H341 C329 0.929 . S
H342 C330 0.960 . S
H343 C330 0.962 1_655 S
H344 C330 0.960 . S
H345 C331 0.961 1_655 S
H346 C331 0.961 . S
H347 C331 0.961 . S
H348 C332 0.931 . S
H349 C337 0.930 . S
H350 C338 0.956 1_554 S
H351 C338 0.961 . S
H352 C338 0.961 . S
H353 C339 0.958 1_554 S
H354 C339 0.961 . S
H355 C339 0.943 1_554 S
C356 C357 1.391 . S
C356 C358 1.394 . S
C356 H372 0.931 . S
C357 C356 1.391 . S
C357 C361 1.376 . S
C358 C356 1.394 . S
C358 C359 1.369 . S
C358 C362 1.531 . S
C359 C358 1.369 . S
C359 C360 1.410 . S
C359 C367 1.503 1_556 S
C360 C359 1.410 . S
C360 C361 1.392 . S
C360 C363 1.511 1_556 S
C361 C357 1.376 . S
C361 C360 1.392 . S
C361 H373 0.929 . S
C362 C358 1.531 . S
C362 H374 0.960 . S
C362 H375 0.962 . S
C362 H376 0.960 . S
C363 C360 1.511 1_554 S
C363 H377 0.961 . S
C363 H378 0.961 . S
C363 H379 0.961 . S
C364 C365 1.370 . S
C364 C366 1.363 . S
C364 H380 0.931 . S
C365 C364 1.370 . S
C365 C369 1.408 . S
C366 C364 1.363 . S
C366 C367 1.370 . S
C366 C370 1.524 . S
C367 C359 1.503 1_554 S
C367 C366 1.370 . S
C367 C368 1.403 . S
C368 C367 1.403 . S
C368 C369 1.404 . S
C368 C371 1.539 1_554 S
C369 C365 1.408 . S
C369 C368 1.404 . S
C369 H381 0.930 . S
C370 C366 1.524 . S
C370 H382 0.956 . S
C370 H383 0.961 . S
C370 H384 0.961 . S
C371 C368 1.539 1_556 S
C371 H385 0.958 . S
C371 H386 0.961 1_556 S
C371 H387 0.960 . S
H372 C356 0.931 . S
H373 C361 0.929 . S
H374 C362 0.960 . S
H375 C362 0.962 . S
H376 C362 0.960 . S
H377 C363 0.961 . S
H378 C363 0.961 . S
H379 C363 0.961 . S
H380 C364 0.931 . S
H381 C369 0.930 . S
H382 C370 0.956 . S
H383 C370 0.961 . S
H384 C370 0.961 . S
H385 C371 0.958 . S
H386 C371 0.961 1_554 S
H387 C371 0.960 . S
C388 C389 1.391 . S
C388 C390 1.394 1_545 S
C388 H404 0.931 . S
C389 C388 1.391 . S
C389 C393 1.376 . S
C390 C388 1.394 1_565 S
C390 C391 1.369 . S
C390 C394 1.531 . S
C391 C390 1.369 . S
C391 C392 1.421 . S
C391 C399 1.503 1_554 S
C392 C391 1.421 . S
C392 C393 1.384 1_565 S
C392 C395 1.509 1_554 S
C393 C389 1.376 . S
C393 C392 1.384 1_545 S
C393 H405 0.929 . S
C394 C390 1.531 . S
C394 H406 0.960 . S
C394 H407 0.962 1_565 S
C394 H408 0.960 . S
C395 C392 1.509 1_556 S
C395 H409 0.961 1_565 S
C395 H410 0.961 1_565 S
C395 H411 0.961 . S
C396 C397 1.370 1_545 S
C396 C398 1.363 . S
C396 H412 0.931 . S
C397 C396 1.370 1_565 S
C397 C401 1.408 . S
C398 C396 1.363 . S
C398 C399 1.370 1_545 S
C398 C402 1.524 . S
C399 C391 1.503 1_556 S
C399 C398 1.370 1_565 S
C399 C400 1.403 . S
C400 C399 1.403 . S
C400 C401 1.404 . S
C400 C403 1.539 . S
C401 C397 1.408 . S
C401 C400 1.404 . S
C401 H413 0.930 . S
C402 C398 1.524 . S
C402 H414 0.956 1_556 S
C402 H415 0.961 . S
C402 H416 0.961 . S
C403 C400 1.539 . S
C403 H417 0.958 1_556 S
C403 H418 0.961 . S
C403 H419 0.960 . S
H404 C388 0.931 . S
H405 C393 0.929 . S
H406 C394 0.960 . S
H407 C394 0.962 1_545 S
H408 C394 0.960 . S
H409 C395 0.961 1_545 S
H410 C395 0.961 1_545 S
H411 C395 0.961 . S
H412 C396 0.931 . S
H413 C401 0.930 . S
H414 C402 0.956 1_554 S
H415 C402 0.961 . S
H416 C402 0.961 . S
H417 C403 0.958 1_554 S
H418 C403 0.961 . S
H419 C403 0.960 . S
C420 C421 1.391 . S
C420 C422 1.394 . S
C420 H436 0.931 . S
C421 C420 1.391 . S
C421 C425 1.376 . S
C422 C420 1.394 . S
C422 C423 1.369 . S
C422 C426 1.531 . S
C423 C422 1.369 . S
C423 C424 1.410 . S
C423 C431 1.503 . S
C424 C423 1.410 . S
C424 C425 1.392 . S
C424 C427 1.500 1_565 S
C425 C421 1.376 . S
C425 C424 1.392 . S
C425 H437 0.929 . S
C426 C422 1.531 . S
C426 H438 0.960 . S
C426 H439 0.962 . S
C426 H440 0.960 . S
C427 C424 1.500 1_545 S
C427 H441 0.989 . S
C427 H442 0.966 . S
C427 H443 0.939 1_545 S
C428 C429 1.370 . S
C428 C430 1.363 . S
C428 H444 0.931 . S
C429 C428 1.370 . S
C429 C433 1.408 1_545 S
C430 C428 1.363 . S
C430 C431 1.370 1_545 S
C430 C434 1.524 . S
C431 C423 1.503 . S
C431 C430 1.370 1_565 S
C431 C432 1.403 . S
C432 C431 1.403 . S
C432 C433 1.404 . S
C432 C435 1.539 . S
C433 C429 1.408 1_565 S
C433 C432 1.404 . S
C433 H445 0.930 . S
C434 C430 1.524 . S
C434 H446 0.956 . S
C434 H447 0.961 . S
C434 H448 0.961 . S
C435 C432 1.539 . S
C435 H449 0.958 . S
C435 H450 0.961 . S
C435 H451 0.960 . S
H436 C420 0.931 . S
H437 C425 0.929 . S
H438 C426 0.960 . S
H439 C426 0.962 . S
H440 C426 0.960 . S
H441 C427 0.989 . S
H442 C427 0.966 . S
H443 C427 0.939 1_565 S
H444 C428 0.931 . S
H445 C433 0.930 . S
H446 C434 0.956 . S
H447 C434 0.961 . S
H448 C434 0.961 . S
H449 C435 0.958 . S
H450 C435 0.961 . S
H451 C435 0.960 . S
C452 C453 1.391 1_655 S
C452 C454 1.394 . S
C452 H468 0.931 . S
C453 C452 1.391 1_455 S
C453 C457 1.376 . S
C454 C452 1.394 . S
C454 C455 1.369 1_655 S
C454 C458 1.531 . S
C455 C454 1.369 1_455 S
C455 C456 1.410 . S
C455 C463 1.505 . S
C456 C455 1.410 . S
C456 C457 1.392 . S
C456 C459 1.511 . S
C457 C453 1.376 . S
C457 C456 1.392 . S
C457 H469 0.929 . S
C458 C454 1.531 . S
C458 H470 0.960 . S
C458 H471 0.962 . S
C458 H472 0.960 . S
C459 C456 1.511 . S
C459 H473 0.961 . S
C459 H474 0.961 . S
C459 H475 0.961 . S
C460 C461 1.370 . S
C460 C462 1.363 . S
C460 H476 0.931 . S
C461 C460 1.370 . S
C461 C465 1.408 1_655 S
C462 C460 1.363 . S
C462 C463 1.370 1_655 S
C462 C466 1.524 . S
C463 C455 1.505 . S
C463 C462 1.370 1_455 S
C463 C464 1.402 . S
C464 C463 1.402 . S
C464 C465 1.404 . S
C464 C467 1.539 . S
C465 C461 1.408 1_455 S
C465 C464 1.404 . S
C465 H477 0.930 . S
C466 C462 1.524 . S
C466 H478 0.956 . S
C466 H479 0.961 . S
C466 H480 0.961 . S
C467 C464 1.539 . S
C467 H481 0.958 . S
C467 H482 0.961 . S
C467 H483 0.960 . S
H468 C452 0.931 . S
H469 C457 0.929 . S
H470 C458 0.960 . S
H471 C458 0.962 . S
H472 C458 0.960 . S
H473 C459 0.961 . S
H474 C459 0.961 . S
H475 C459 0.961 . S
H476 C460 0.931 . S
H477 C465 0.930 . S
H478 C466 0.956 . S
H479 C466 0.961 . S
H480 C466 0.961 . S
H481 C467 0.958 . S
H482 C467 0.961 . S
H483 C467 0.960 . S
C484 C485 1.391 . S
C484 C486 1.394 . S
C484 H500 0.931 . S
C485 C484 1.391 . S
C485 C489 1.376 . S
C486 C484 1.394 . S
C486 C487 1.369 . S
C486 C490 1.531 . S
C487 C486 1.369 . S
C487 C488 1.410 . S
C487 C495 1.503 . S
C488 C487 1.410 . S
C488 C489 1.392 . S
C488 C491 1.511 . S
C489 C485 1.376 . S
C489 C488 1.392 . S
C489 H501 0.929 . S
C490 C486 1.531 . S
C490 H502 0.960 . S
C490 H503 0.962 . S
C490 H504 0.960 . S
C491 C488 1.511 . S
C491 H505 0.961 . S
C491 H506 0.961 . S
C491 H507 0.961 . S
C492 C493 1.370 . S
C492 C494 1.363 . S
C492 H508 0.931 . S
C493 C492 1.370 . S
C493 C497 1.408 . S
C494 C492 1.363 . S
C494 C495 1.370 . S
C494 C498 1.524 . S
C495 C487 1.503 . S
C495 C494 1.370 . S
C495 C496 1.403 . S
C496 C495 1.403 . S
C496 C497 1.404 . S
C496 C499 1.539 . S
C497 C493 1.408 . S
C497 C496 1.404 . S
C497 H509 0.930 . S
C498 C494 1.524 . S
C498 H510 0.956 . S
C498 H511 0.961 . S
C498 H512 0.961 . S
C499 C496 1.539 . S
C499 H513 0.958 . S
C499 H514 0.961 . S
C499 H515 0.960 . S
H500 C484 0.931 . S
H501 C489 0.929 . S
H502 C490 0.960 . S
H503 C490 0.962 . S
H504 C490 0.960 . S
H505 C491 0.961 . S
H506 C491 0.961 . S
H507 C491 0.961 . S
H508 C492 0.931 . S
H509 C497 0.930 . S
H510 C498 0.956 . S
H511 C498 0.961 . S
H512 C498 0.961 . S
H513 C499 0.958 . S
H514 C499 0.961 . S
H515 C499 0.960 . S
C516 C517 1.391 . S
C516 C518 1.394 . S
C516 H532 0.931 . S
C517 C516 1.391 . S
C517 C521 1.376 . S
C518 C516 1.394 . S
C518 C519 1.369 . S
C518 C522 1.531 . S
C519 C518 1.369 . S
C519 C520 1.410 . S
C519 C527 1.503 . S
C520 C519 1.410 . S
C520 C521 1.392 . S
C520 C523 1.511 . S
C521 C517 1.376 . S
C521 C520 1.392 . S
C521 H533 0.929 . S
C522 C518 1.531 . S
C522 H534 0.960 . S
C522 H535 0.962 . S
C522 H536 0.960 . S
C523 C520 1.511 . S
C523 H537 0.962 . S
C523 H538 0.961 . S
C523 H539 0.961 . S
C524 C525 1.370 1_455 S
C524 C526 1.363 . S
C524 H540 0.931 . S
C525 C524 1.370 1_655 S
C525 C529 1.408 . S
C526 C524 1.363 . S
C526 C527 1.370 1_455 S
C526 C530 1.524 . S
C527 C519 1.503 . S
C527 C526 1.370 1_655 S
C527 C528 1.403 . S
C528 C527 1.403 . S
C528 C529 1.404 . S
C528 C531 1.539 . S
C529 C525 1.408 . S
C529 C528 1.404 . S
C529 H541 0.930 . S
C530 C526 1.524 . S
C530 H542 0.956 . S
C530 H543 0.961 . S
C530 H544 0.961 . S
C531 C528 1.539 . S
C531 H545 0.958 . S
C531 H546 0.961 . S
C531 H547 0.960 . S
H532 C516 0.931 . S
H533 C521 0.929 . S
H534 C522 0.960 . S
H535 C522 0.962 . S
H536 C522 0.960 . S
H537 C523 0.962 . S
H538 C523 0.961 . S
H539 C523 0.961 . S
H540 C524 0.931 . S
H541 C529 0.930 . S
H542 C530 0.956 . S
H543 C530 0.961 . S
H544 C530 0.961 . S
H545 C531 0.958 . S
H546 C531 0.961 . S
H547 C531 0.960 . S
C548 C549 1.391 . S
C548 C550 1.394 . S
C548 H564 0.931 . S
C549 C548 1.391 . S
C549 C553 1.376 . S
C550 C548 1.394 . S
C550 C551 1.369 . S
C550 C554 1.531 . S
C551 C550 1.369 . S
C551 C552 1.410 . S
C551 C559 1.503 . S
C552 C551 1.410 . S
C552 C553 1.392 . S
C552 C555 1.511 . S
C553 C549 1.376 . S
C553 C552 1.392 . S
C553 H565 0.929 . S
C554 C550 1.531 . S
C554 H566 0.960 . S
C554 H567 0.962 . S
C554 H568 0.960 . S
C555 C552 1.511 . S
C555 H569 0.961 . S
C555 H570 0.961 . S
C555 H571 0.961 . S
C556 C557 1.370 . S
C556 C558 1.363 . S
C556 H572 0.931 . S
C557 C556 1.370 . S
C557 C561 1.408 . S
C558 C556 1.363 . S
C558 C559 1.370 . S
C558 C562 1.524 . S
C559 C551 1.503 . S
C559 C558 1.370 . S
C559 C560 1.403 . S
C560 C559 1.403 . S
C560 C561 1.404 . S
C560 C563 1.539 . S
C561 C557 1.408 . S
C561 C560 1.404 . S
C561 H573 0.930 . S
C562 C558 1.524 . S
C562 H574 0.956 . S
C562 H575 0.961 . S
C562 H576 0.961 . S
C563 C560 1.539 . S
C563 H577 0.958 . S
C563 H578 0.961 . S
C563 H579 0.960 . S
H564 C548 0.931 . S
H565 C553 0.929 . S
H566 C554 0.960 . S
H567 C554 0.962 . S
H568 C554 0.960 . S
H569 C555 0.961 . S
H570 C555 0.961 . S
H571 C555 0.961 . S
H572 C556 0.931 . S
H573 C561 0.930 . S
H574 C562 0.956 . S
H575 C562 0.961 . S
H576 C562 0.961 . S
H577 C563 0.958 . S
H578 C563 0.961 . S
H579 C563 0.960 . S
C580 C581 1.385 1_565 S
C580 C582 1.406 . S
C580 H596 0.925 . S
C581 C580 1.385 1_545 S
C581 C585 1.376 . S
C582 C580 1.406 . S
C582 C583 1.369 1_565 S
C582 C586 1.531 . S
C583 C582 1.369 1_545 S
C583 C584 1.410 . S
C583 C591 1.503 . S
C584 C583 1.410 . S
C584 C585 1.392 . S
C584 C587 1.511 . S
C585 C581 1.376 . S
C585 C584 1.392 . S
C585 H597 0.929 . S
C586 C582 1.531 . S
C586 H598 0.960 . S
C586 H599 0.962 1_565 S
C586 H600 0.960 . S
C587 C584 1.511 . S
C587 H601 0.961 . S
C587 H602 0.961 . S
C587 H603 0.961 . S
C588 C589 1.370 . S
C588 C590 1.363 . S
C588 H604 0.931 . S
C589 C588 1.370 . S
C589 C593 1.408 1_545 S
C590 C588 1.363 . S
C590 C591 1.370 . S
C590 C594 1.524 . S
C591 C583 1.503 . S
C591 C590 1.370 . S
C591 C592 1.403 1_545 S
C592 C591 1.403 1_565 S
C592 C593 1.404 . S
C592 C595 1.539 . S
C593 C589 1.408 1_565 S
C593 C592 1.404 . S
C593 H605 0.930 . S
C594 C590 1.524 . S
C594 H606 0.956 . S
C594 H607 0.961 . S
C594 H608 0.961 . S
C595 C592 1.539 . S
C595 H609 0.958 . S
C595 H610 0.961 . S
C595 H611 0.960 . S
H596 C580 0.925 . S
H597 C585 0.929 . S
H598 C586 0.960 . S
H599 C586 0.962 1_545 S
H600 C586 0.960 . S
H601 C587 0.961 . S
H602 C587 0.961 . S
H603 C587 0.961 . S
H604 C588 0.931 . S
H605 C593 0.930 . S
H606 C594 0.956 . S
H607 C594 0.961 . S
H608 C594 0.961 . S
H609 C595 0.958 . S
H610 C595 0.961 . S
H611 C595 0.960 . S
C612 C613 1.391 1_655 S
C612 C614 1.394 . S
C612 H628 0.931 . S
C613 C612 1.391 1_455 S
C613 C617 1.376 . S
C614 C612 1.394 . S
C614 C615 1.369 1_655 S
C614 C618 1.531 . S
C615 C614 1.369 1_455 S
C615 C616 1.410 . S
C615 C623 1.503 . S
C616 C615 1.410 . S
C616 C617 1.392 . S
C616 C619 1.511 . S
C617 C613 1.376 . S
C617 C616 1.392 . S
C617 H629 0.929 . S
C618 C614 1.531 . S
C618 H630 0.960 . S
C618 H631 0.962 . S
C618 H632 0.960 . S
C619 C616 1.511 . S
C619 H633 0.961 . S
C619 H634 0.961 . S
C619 H635 0.961 . S
C620 C621 1.371 1_655 S
C620 C622 1.362 1_655 S
C620 H636 0.931 . S
C621 C620 1.371 1_455 S
C621 C625 1.408 . S
C622 C620 1.362 1_455 S
C622 C623 1.370 . S
C622 C626 1.524 1_455 S
C623 C615 1.503 . S
C623 C622 1.370 . S
C623 C624 1.403 . S
C624 C623 1.403 . S
C624 C625 1.404 . S
C624 C627 1.539 . S
C625 C621 1.408 . S
C625 C624 1.404 . S
C625 H637 0.930 . S
C626 C622 1.524 1_655 S
C626 H638 0.956 . S
C626 H639 0.961 1_655 S
C626 H640 0.961 . S
C627 C624 1.539 . S
C627 H641 0.958 . S
C627 H642 0.961 . S
C627 H643 0.960 . S
H628 C612 0.931 . S
H629 C617 0.929 . S
H630 C618 0.960 . S
H631 C618 0.962 . S
H632 C618 0.960 . S
H633 C619 0.961 . S
H634 C619 0.961 . S
H635 C619 0.961 . S
H636 C620 0.931 . S
H637 C625 0.930 . S
H638 C626 0.956 . S
H639 C626 0.961 1_455 S
H640 C626 0.961 . S
H641 C627 0.958 . S
H642 C627 0.961 . S
H643 C627 0.960 . S
C644 C645 1.391 . S
C644 C646 1.394 . S
C644 H660 0.931 . S
C645 C644 1.391 . S
C645 C649 1.376 . S
C646 C644 1.394 . S
C646 C647 1.369 . S
C646 C650 1.531 . S
C647 C646 1.369 . S
C647 C648 1.410 . S
C647 C655 1.503 . S
C648 C647 1.410 . S
C648 C649 1.392 . S
C648 C651 1.511 . S
C649 C645 1.376 . S
C649 C648 1.392 . S
C649 H661 0.929 . S
C650 C646 1.531 . S
C650 H662 0.960 . S
C650 H663 0.962 . S
C650 H664 0.960 . S
C651 C648 1.511 . S
C651 H665 0.961 . S
C651 H666 0.961 . S
C651 H667 0.961 . S
C652 C653 1.370 . S
C652 C654 1.363 . S
C652 H668 0.931 . S
C653 C652 1.370 . S
C653 C657 1.408 . S
C654 C652 1.363 . S
C654 C655 1.370 . S
C654 C658 1.524 . S
C655 C647 1.503 . S
C655 C654 1.370 . S
C655 C656 1.403 . S
C656 C655 1.403 . S
C656 C657 1.404 . S
C656 C659 1.539 . S
C657 C653 1.408 . S
C657 C656 1.404 . S
C657 H669 0.930 . S
C658 C654 1.524 . S
C658 H670 0.956 . S
C658 H671 0.961 . S
C658 H672 0.961 . S
C659 C656 1.539 . S
C659 H673 0.958 . S
C659 H674 0.961 . S
C659 H675 0.960 . S
H660 C644 0.931 . S
H661 C649 0.929 . S
H662 C650 0.960 . S
H663 C650 0.962 . S
H664 C650 0.960 . S
H665 C651 0.961 . S
H666 C651 0.961 . S
H667 C651 0.961 . S
H668 C652 0.931 . S
H669 C657 0.930 . S
H670 C658 0.956 . S
H671 C658 0.961 . S
H672 C658 0.961 . S
H673 C659 0.958 . S
H674 C659 0.961 . S
H675 C659 0.960 . S
C676 C677 1.391 . S
C676 C678 1.394 . S
C676 H692 0.931 . S
C677 C676 1.391 . S
C677 C681 1.376 . S
C678 C676 1.394 . S
C678 C679 1.369 . S
C678 C682 1.531 . S
C679 C678 1.369 . S
C679 C680 1.410 1_565 S
C679 C687 1.503 . S
C680 C679 1.410 1_545 S
C680 C681 1.392 1_545 S
C680 C683 1.511 . S
C681 C677 1.376 . S
C681 C680 1.392 1_565 S
C681 H693 0.929 1_565 S
C682 C678 1.531 . S
C682 H694 0.960 . S
C682 H695 0.962 . S
C682 H696 0.960 . S
C683 C680 1.511 . S
C683 H697 0.961 . S
C683 H698 0.961 . S
C683 H699 0.961 . S
C684 C685 1.370 . S
C684 C686 1.363 . S
C684 H700 0.931 . S
C685 C684 1.370 . S
C685 C689 1.408 1_565 S
C686 C684 1.363 . S
C686 C687 1.370 . S
C686 C690 1.524 . S
C687 C679 1.503 . S
C687 C686 1.370 . S
C687 C688 1.403 1_565 S
C688 C687 1.403 1_545 S
C688 C689 1.404 . S
C688 C691 1.539 . S
C689 C685 1.408 1_545 S
C689 C688 1.404 . S
C689 H701 0.930 . S
C690 C686 1.524 . S
C690 H702 0.956 . S
C690 H703 0.961 . S
C690 H704 0.961 . S
C691 C688 1.539 . S
C691 H705 0.958 . S
C691 H706 0.961 . S
C691 H707 0.960 . S
H692 C676 0.931 . S
H693 C681 0.929 1_545 S
H694 C682 0.960 . S
H695 C682 0.962 . S
H696 C682 0.960 . S
H697 C683 0.961 . S
H698 C683 0.961 . S
H699 C683 0.961 . S
H700 C684 0.931 . S
H701 C689 0.930 . S
H702 C690 0.956 . S
H703 C690 0.961 . S
H704 C690 0.961 . S
H705 C691 0.958 . S
H706 C691 0.961 . S
H707 C691 0.960 . S
C133 C60 1.516 . S
C141 C5 1.482 . S
C165 C16 1.500 . S
C173 C38 1.488 . S
C197 C49 1.454 . S
C205 C27 1.473 . S
C229 C126 1.707 . S
C237 C71 1.694 . S
C261 C82 1.709 . S
C269 C104 1.694 . S
C293 C115 1.718 . S
C301 C93 1.694 . S
C325 C8 1.904 . S
C333 C74 2.040 . S
C357 C85 2.027 . S
C365 C19 1.929 . S
C389 C30 1.907 . S
C397 C96 2.039 . S
C421 C107 2.042 . S
C429 C41 1.919 . S
C453 C118 2.023 . S
C461 C52 1.933 . S
C485 C63 1.958 . S
C493 C129 2.032 . S
C517 C51 1.041 . S
C525 C7 1.004 . S
C549 C62 1.052 . S
C557 C18 0.971 . S
C581 C29 0.939 . S
C589 C40 0.995 . S
C613 C73 1.081 . S
C621 C117 1.052 . S
C645 C128 1.054 . S
C653 C84 1.070 . S
C677 C95 1.061 . S
C685 C106 1.068 . S
