# Generated by pormake.
# Topology uob, (4)-cn, num edge types: 1
# Building blocks:
#     Node 0, Type 0, BuildingBlock: KUFVIS_clean_sbu_0, # of connection points: 4
#     Node 1, Type 0, BuildingBlock: KUFVIS_clean_sbu_0, # of connection points: 4
#     Node 2, Type 0, BuildingBlock: KUFVIS_clean_sbu_0, # of connection points: 4
#     Node 3, Type 0, BuildingBlock: KUFVIS_clean_sbu_0, # of connection points: 4
#     Node 4, Type 0, BuildingBlock: KUFVIS_clean_sbu_0, # of connection points: 4
#     Node 5, Type 0, BuildingBlock: KUFVIS_clean_sbu_0, # of connection points: 4
#     Node 6, Type 0, BuildingBlock: KUFVIS_clean_sbu_0, # of connection points: 4
#     Node 7, Type 0, BuildingBlock: KUFVIS_clean_sbu_0, # of connection points: 4
#     Node 8, Type 0, BuildingBlock: KUFVIS_clean_sbu_0, # of connection points: 4
#     Node 9, Type 0, BuildingBlock: KUFVIS_clean_sbu_0, # of connection points: 4
#     Node 10, Type 0, BuildingBlock: KUFVIS_clean_sbu_0, # of connection points: 4
#     Node 11, Type 0, BuildingBlock: KUFVIS_clean_sbu_0, # of connection points: 4
#     Node 12, Type 0, BuildingBlock: KUFVIS_clean_sbu_0, # of connection points: 4
#     Node 13, Type 0, BuildingBlock: KUFVIS_clean_sbu_0, # of connection points: 4
#     Node 14, Type 0, BuildingBlock: KUFVIS_clean_sbu_0, # of connection points: 4
#     Node 15, Type 0, BuildingBlock: KUFVIS_clean_sbu_0, # of connection points: 4
#     Edge 16, Type (0, 0), BuildingBlock: XIVTED_clean_linker_0, # of connection points: 2
#     Edge 17, Type (0, 0), BuildingBlock: XIVTED_clean_linker_0, # of connection points: 2
#     Edge 18, Type (0, 0), BuildingBlock: XIVTED_clean_linker_0, # of connection points: 2
#     Edge 19, Type (0, 0), BuildingBlock: XIVTED_clean_linker_0, # of connection points: 2
#     Edge 20, Type (0, 0), BuildingBlock: XIVTED_clean_linker_0, # of connection points: 2
#     Edge 21, Type (0, 0), BuildingBlock: XIVTED_clean_linker_0, # of connection points: 2
#     Edge 22, Type (0, 0), BuildingBlock: XIVTED_clean_linker_0, # of connection points: 2
#     Edge 23, Type (0, 0), BuildingBlock: XIVTED_clean_linker_0, # of connection points: 2
#     Edge 24, Type (0, 0), BuildingBlock: XIVTED_clean_linker_0, # of connection points: 2
#     Edge 25, Type (0, 0), BuildingBlock: XIVTED_clean_linker_0, # of connection points: 2
#     Edge 26, Type (0, 0), BuildingBlock: XIVTED_clean_linker_0, # of connection points: 2
#     Edge 27, Type (0, 0), BuildingBlock: XIVTED_clean_linker_0, # of connection points: 2
#     Edge 28, Type (0, 0), BuildingBlock: XIVTED_clean_linker_0, # of connection points: 2
#     Edge 29, Type (0, 0), BuildingBlock: XIVTED_clean_linker_0, # of connection points: 2
#     Edge 30, Type (0, 0), BuildingBlock: XIVTED_clean_linker_0, # of connection points: 2
#     Edge 31, Type (0, 0), BuildingBlock: XIVTED_clean_linker_0, # of connection points: 2
#     Edge 32, Type (0, 0), BuildingBlock: XIVTED_clean_linker_0, # of connection points: 2
#     Edge 33, Type (0, 0), BuildingBlock: XIVTED_clean_linker_0, # of connection points: 2
#     Edge 34, Type (0, 0), BuildingBlock: XIVTED_clean_linker_0, # of connection points: 2
#     Edge 35, Type (0, 0), BuildingBlock: XIVTED_clean_linker_0, # of connection points: 2
#     Edge 36, Type (0, 0), BuildingBlock: XIVTED_clean_linker_0, # of connection points: 2
#     Edge 37, Type (0, 0), BuildingBlock: XIVTED_clean_linker_0, # of connection points: 2
#     Edge 38, Type (0, 0), BuildingBlock: XIVTED_clean_linker_0, # of connection points: 2
#     Edge 39, Type (0, 0), BuildingBlock: XIVTED_clean_linker_0, # of connection points: 2
#     Edge 40, Type (0, 0), BuildingBlock: XIVTED_clean_linker_0, # of connection points: 2
#     Edge 41, Type (0, 0), BuildingBlock: XIVTED_clean_linker_0, # of connection points: 2
#     Edge 42, Type (0, 0), BuildingBlock: XIVTED_clean_linker_0, # of connection points: 2
#     Edge 43, Type (0, 0), BuildingBlock: XIVTED_clean_linker_0, # of connection points: 2
#     Edge 44, Type (0, 0), BuildingBlock: XIVTED_clean_linker_0, # of connection points: 2
#     Edge 45, Type (0, 0), BuildingBlock: XIVTED_clean_linker_0, # of connection points: 2
#     Edge 46, Type (0, 0), BuildingBlock: XIVTED_clean_linker_0, # of connection points: 2
#     Edge 47, Type (0, 0), BuildingBlock: XIVTED_clean_linker_0, # of connection points: 2
# Relax obj value: 0.190
# Max RMSD: 0.229
# Mean RMSD: 0.229
data_MOF--net-uob--node1-KUFVIS_clean_sbu_0--edge1-XIVTED_clean_linker_0
_symmetry_space_group_name_H-M    P1
_symmetry_Int_Tables_number       1
_symmetry_cell_setting            triclinic
loop_
_symmetry_equiv_pos_as_xyz
'x, y, z'
_cell_length_a     53.358007
_cell_length_b     53.547669
_cell_length_c     27.264865
_cell_angle_alpha  89.825292
_cell_angle_beta   90.087953
_cell_angle_gamma 90.025603
loop_
_atom_site_label
_atom_site_type_symbol
_atom_site_fract_x
_atom_site_fract_y
_atom_site_fract_z
_atom_type_partial_charge
Mn0 Mn 0.13392 0.06898 0.26959 0.0
Mn1 Mn 0.08888 0.11264 0.28107 0.0
C2 C 0.1153 0.07563 0.34398 0.0
C3 C 0.1774 0.06162 0.27964 0.0
C4 C 0.07883 0.0608 0.23986 0.0
O5 O 0.1373 0.08865 0.20571 0.0
O6 O 0.10774 0.11789 0.21925 0.0
C7 C 0.12238 0.15619 0.29423 0.0
N8 N 0.10347 0.14141 0.3111 0.0
C9 C 0.09996 0.1656 0.38502 0.0
C10 C 0.11927 0.1812 0.36826 0.0
C11 C 0.13054 0.17645 0.3227 0.0
C12 C 0.09251 0.14579 0.35492 0.0
H13 H 0.13123 0.15248 0.25942 0.0
C14 C 0.12496 0.10809 0.19287 0.0
O15 O 0.16345 0.04565 0.25613 0.0
O16 O 0.16655 0.08188 0.29295 0.0
N17 N 0.06916 0.10995 0.33944 0.0
C18 C 0.05109 0.09287 0.35066 0.0
C19 C 0.03817 0.0948 0.39533 0.0
C20 C 0.04381 0.11434 0.42778 0.0
C21 C 0.06213 0.13197 0.41499 0.0
C22 C 0.07418 0.12927 0.36972 0.0
H23 H 0.04673 0.07777 0.32594 0.0
O24 O 0.12726 0.05512 0.33587 0.0
O25 O 0.11516 0.09198 0.30877 0.0
O26 O 0.10124 0.05193 0.24371 0.0
O27 O 0.07293 0.08314 0.25183 0.0
C28 C 0.06916 0.15191 0.44568 0.0
C29 C 0.08808 0.16869 0.43074 0.0
H30 H 0.12572 0.19675 0.39023 0.0
H31 H 0.14555 0.18832 0.30964 0.0
H32 H 0.024 0.08116 0.40486 0.0
H33 H 0.03403 0.11559 0.46246 0.0
H34 H 0.06029 0.15438 0.48105 0.0
H35 H 0.09348 0.18381 0.45486 0.0
Mn36 Mn 0.95261 0.6423 0.5149 0.0
Mn37 Mn 0.91258 0.59346 0.52074 0.0
C38 C 0.9449 0.62278 0.58829 0.0
C39 C 0.95742 0.6857 0.52491 0.0
C40 C 0.96635 0.58876 0.48574 0.0
O41 O 0.9347 0.64427 0.44857 0.0
O42 O 0.90766 0.61229 0.45886 0.0
C43 C 0.86571 0.62268 0.52908 0.0
N44 N 0.88159 0.60506 0.54738 0.0
C45 C 0.85519 0.5984 0.61772 0.0
C46 C 0.83846 0.61636 0.59944 0.0
C47 C 0.84377 0.62857 0.55497 0.0
C48 C 0.87671 0.59325 0.59022 0.0
H49 H 0.8698 0.63223 0.49508 0.0
C50 C 0.91669 0.6304 0.43368 0.0
O51 O 0.97469 0.67264 0.50307 0.0
O52 O 0.93716 0.674 0.53635 0.0
N53 N 0.91511 0.57354 0.57899 0.0
C54 C 0.93323 0.55679 0.59173 0.0
C55 C 0.93088 0.54315 0.63556 0.0
C56 C 0.90978 0.54662 0.66551 0.0
C57 C 0.89105 0.56345 0.65099 0.0
C58 C 0.89432 0.57637 0.6067 0.0
H59 H 0.9494 0.55395 0.56877 0.0
O60 O 0.96467 0.63643 0.58291 0.0
O61 O 0.92983 0.62143 0.55103 0.0
O62 O 0.97308 0.61163 0.49137 0.0
O63 O 0.94438 0.58042 0.49486 0.0
C64 C 0.86942 0.56816 0.67902 0.0
C65 C 0.85153 0.58567 0.66246 0.0
H66 H 0.82157 0.62103 0.6194 0.0
H67 H 0.83101 0.64254 0.54075 0.0
H68 H 0.94534 0.53006 0.64631 0.0
H69 H 0.90816 0.53626 0.69955 0.0
H70 H 0.86647 0.55859 0.7136 0.0
H71 H 0.83508 0.5893 0.68456 0.0
Mn72 Mn 0.38185 0.44883 0.76047 0.0
Mn73 Mn 0.42762 0.40627 0.77742 0.0
C74 C 0.39954 0.44374 0.83629 0.0
C75 C 0.33842 0.45606 0.76637 0.0
C76 C 0.43698 0.45746 0.73244 0.0
O77 O 0.3799 0.42823 0.69782 0.0
O78 O 0.4098 0.39973 0.71478 0.0
C79 C 0.39479 0.36235 0.79219 0.0
N80 N 0.41327 0.3777 0.8088 0.0
C81 C 0.41661 0.3546 0.88438 0.0
C82 C 0.39774 0.33842 0.86792 0.0
C83 C 0.38676 0.34234 0.82165 0.0
C84 C 0.42391 0.37415 0.85332 0.0
H85 H 0.38618 0.36544 0.75681 0.0
C86 C 0.39298 0.40907 0.6866 0.0
O87 O 0.35272 0.47165 0.74257 0.0
O88 O 0.34898 0.43607 0.78249 0.0
N89 N 0.44665 0.41024 0.83647 0.0
C90 C 0.46438 0.42774 0.84713 0.0
C91 C 0.47705 0.42661 0.89228 0.0
C92 C 0.47152 0.40739 0.92576 0.0
C93 C 0.45359 0.3893 0.91351 0.0
C94 C 0.44179 0.39122 0.86773 0.0
H95 H 0.46868 0.44256 0.82155 0.0
O96 O 0.38726 0.46386 0.826 0.0
O97 O 0.40053 0.42681 0.80234 0.0
O98 O 0.41443 0.46597 0.735 0.0
O99 O 0.4433 0.43556 0.74672 0.0
C100 C 0.44671 0.36963 0.94519 0.0
C101 C 0.42819 0.35233 0.93069 0.0
H102 H 0.39141 0.32303 0.89063 0.0
H103 H 0.37209 0.33001 0.80882 0.0
H104 H 0.49092 0.4406 0.90138 0.0
H105 H 0.4811 0.40677 0.96081 0.0
H106 H 0.45537 0.36778 -0.01902 0.0
H107 H 0.4229 0.33742 0.95555 0.0
Mn108 Mn 0.6025 0.89685 0.02608 0.0
Mn109 Mn 0.64788 0.94022 0.01265 0.0
C110 C 0.61822 0.91792 0.09278 0.0
C111 C 0.59256 0.85475 0.04479 0.0
C112 C 0.593 0.95114 -0.00715 0.0
O113 O 0.61489 0.89004 0.95665 0.0
O114 O 0.64444 0.92011 0.95187 0.0
C115 C 0.69064 0.90511 0.00803 0.0
N116 N 0.67893 0.92471 0.02997 0.0
C117 C 0.71106 0.92734 0.09182 0.0
C118 C 0.72355 0.90729 0.06968 0.0
C119 C 0.71328 0.89613 0.02762 0.0
C120 C 0.68864 0.93557 0.07049 0.0
H121 H 0.68271 0.89633 -0.02403 0.0
C122 C 0.63182 0.90209 0.93322 0.0
O123 O 0.57595 0.86948 0.02496 0.0
O124 O 0.61474 0.86395 0.04976 0.0
N125 N 0.6532 0.96085 0.06891 0.0
C126 C 0.63876 0.97993 0.08591 0.0
C127 C 0.64632 0.99299 0.12801 0.0
C128 C 0.66869 0.98639 0.15198 0.0
C129 C 0.68347 0.96699 0.13326 0.0
C130 C 0.67512 0.95484 0.09087 0.0
H131 H 0.62146 0.98496 0.06783 0.0
O132 O 0.59658 0.90709 0.09489 0.0
O133 O 0.63039 0.91557 0.05194 0.0
O134 O 0.5846 0.92904 0.00158 0.0
O135 O 0.61618 0.95709 -0.00371 0.0
C136 C 0.70606 0.95911 0.15521 0.0
C137 C 0.71983 0.93928 0.13453 0.0
H138 H 0.74095 0.90023 0.08481 0.0
H139 H 0.72275 0.88058 0.01046 0.0
H140 H 0.63484 1.00798 0.14214 0.0
H141 H 0.67434 0.99635 0.18471 0.0
H142 H 0.71295 0.96809 0.18813 0.0
H143 H 0.73709 0.93329 0.15191 0.0
Mn144 Mn 0.14451 0.44904 -0.00633 0.0
Mn145 Mn 0.09642 0.40806 -0.00409 0.0
C146 C 0.12293 0.43996 0.92315 0.0
C147 C 0.18761 0.45458 -0.0221 0.0
C148 C 0.09164 0.46192 0.02915 0.0
O149 O 0.14873 0.43217 0.06075 0.0
O150 O 0.11763 0.40374 0.05492 0.0
C151 C 0.12597 0.3617 -0.01574 0.0
N152 N 0.10748 0.37724 0.9682 0.0
C153 C 0.09867 0.3506 0.89937 0.0
C154 C 0.11749 0.33421 0.91537 0.0
C155 C 0.13122 0.33981 0.95797 0.0
C156 C 0.09418 0.37205 0.92723 0.0
H157 H 0.13668 0.36604 0.01678 0.0
C158 C 0.13609 0.41371 0.07768 0.0
O159 O 0.17487 0.47176 0.00059 0.0
O160 O 0.17594 0.43398 0.96936 0.0
N161 N 0.07441 0.41015 0.94053 0.0
C162 C 0.05732 0.42822 0.92937 0.0
C163 C 0.04231 0.42566 0.88732 0.0
C164 C 0.04488 0.40449 0.85744 0.0
C165 C 0.06225 0.38593 0.8702 0.0
C166 C 0.07651 0.38938 0.91281 0.0
H167 H 0.05528 0.44455 0.95212 0.0
O168 O 0.1364 0.45995 0.92579 0.0
O169 O 0.12303 0.42546 0.96134 0.0
O170 O 0.11402 0.46918 0.01917 0.0
O171 O 0.08372 0.43958 0.02327 0.0
C172 C 0.06625 0.36433 0.8419 0.0
C173 C 0.08447 0.3467 0.85643 0.0
H174 H 0.1217 0.31738 0.89504 0.0
H175 H 0.14586 0.32732 0.9704 0.0
H176 H 0.02889 0.44003 0.87782 0.0
H177 H 0.03348 0.40273 0.82473 0.0
H178 H 0.0556 0.36122 0.80861 0.0
H179 H 0.08756 0.33029 0.83409 0.0
Mn180 Mn 0.57525 0.65065 0.24216 0.0
Mn181 Mn 0.61328 0.6003 0.23709 0.0
C182 C 0.5819 0.63084 0.16902 0.0
C183 C 0.57346 0.69462 0.2327 0.0
C184 C 0.55942 0.59763 0.2727 0.0
O185 O 0.59314 0.65159 0.30848 0.0
O186 O 0.61967 0.61927 0.29812 0.0
C187 C 0.66126 0.62743 0.22574 0.0
N188 N 0.64444 0.61037 0.20877 0.0
C189 C 0.66984 0.602 0.13784 0.0
C190 C 0.68753 0.61935 0.15473 0.0
C191 C 0.68319 0.63214 0.19883 0.0
C192 C 0.64839 0.59801 0.16632 0.0
H193 H 0.65791 0.63741 0.25946 0.0
C194 C 0.61101 0.6375 0.32324 0.0
O195 O 0.55523 0.68258 0.25398 0.0
O196 O 0.59268 0.68149 0.22079 0.0
N197 N 0.60922 0.58015 0.17971 0.0
C198 C 0.59013 0.5643 0.16812 0.0
C199 C 0.5914 0.55029 0.12473 0.0
C200 C 0.61239 0.55251 0.09399 0.0
C201 C 0.63207 0.5685 0.10726 0.0
C202 C 0.62985 0.58182 0.15118 0.0
H203 H 0.57397 0.56247 0.1916 0.0
O204 O 0.56297 0.64562 0.17413 0.0
O205 O 0.59688 0.62872 0.20632 0.0
O206 O 0.55329 0.62064 0.26552 0.0
O207 O 0.58128 0.58874 0.26478 0.0
C208 C 0.65363 0.57202 0.07828 0.0
C209 C 0.67248 0.58879 0.09351 0.0
H210 H 0.70441 0.62313 0.13398 0.0
H211 H 0.69669 0.64565 0.21198 0.0
H212 H 0.57618 0.5379 0.11489 0.0
H213 H 0.61318 0.5419 0.06028 0.0
H214 H 0.65579 0.5621 0.04398 0.0
H215 H 0.68885 0.59152 0.07067 0.0
Mn216 Mn 0.37264 0.07253 0.49705 0.0
Mn217 Mn 0.41963 0.11466 0.49114 0.0
C218 C 0.38841 0.08488 0.42246 0.0
C219 C 0.32917 0.06526 0.49031 0.0
C220 C 0.42827 0.05971 0.51426 0.0
O221 O 0.37239 0.08721 0.56656 0.0
O222 O 0.40364 0.11517 0.55684 0.0
C223 C 0.38851 0.16026 0.49829 0.0
N224 N 0.40564 0.14631 0.47354 0.0
C225 C 0.40777 0.17666 0.4084 0.0
C226 C 0.39026 0.19143 0.43335 0.0
C227 C 0.38058 0.18317 0.47846 0.0
C228 C 0.41504 0.15405 0.43006 0.0
H229 H 0.38089 0.15392 0.53283 0.0
C230 C 0.38666 0.1046 0.58285 0.0
O231 O 0.34398 0.04814 0.50806 0.0
O232 O 0.33919 0.08679 0.48233 0.0
N233 N 0.4367 0.11635 0.42951 0.0
C234 C 0.4533 0.09982 0.40992 0.0
C235 C 0.46456 0.1052 0.36458 0.0
C236 C 0.45885 0.12761 0.3401 0.0
C237 C 0.44215 0.14458 0.36149 0.0
C238 C 0.43168 0.13831 0.40699 0.0
H239 H 0.45772 0.08253 0.42848 0.0
O240 O 0.37633 0.0641 0.42667 0.0
O241 O 0.39079 0.09815 0.46197 0.0
O242 O 0.40523 0.05266 0.5127 0.0
O243 O 0.43519 0.08234 0.50748 0.0
C244 C 0.43524 0.16733 0.3392 0.0
C245 C 0.41804 0.18334 0.3626 0.0
H246 H 0.38402 0.20907 0.41809 0.0
H247 H 0.36698 0.19441 0.49783 0.0
H248 H 0.4775 0.09204 0.3484 0.0
H249 H 0.46736 0.13156 0.30487 0.0
H250 H 0.44291 0.17261 0.3039 0.0
H251 H 0.41273 0.2007 0.34493 0.0
Mn252 Mn 0.94983 0.87865 0.75674 0.0
Mn253 Mn 0.9081 0.92589 0.76388 0.0
C254 C 0.93872 0.90073 0.68766 0.0
C255 C 0.95577 0.83593 0.73948 0.0
C256 C 0.96283 0.9312 0.79287 0.0
O257 O 0.93446 0.87344 0.82494 0.0
O258 O 0.90538 0.90402 0.82229 0.0
C259 C 0.86181 0.89577 0.75476 0.0
N260 N 0.87672 0.91463 0.73823 0.0
C261 C 0.84835 0.92357 0.67176 0.0
C262 C 0.83257 0.90438 0.68834 0.0
C263 C 0.83936 0.89041 0.72999 0.0
C264 C 0.8704 0.92817 0.69815 0.0
H265 H 0.86706 0.88483 0.78648 0.0
C266 C 0.91602 0.88546 0.84348 0.0
O267 O 0.97328 0.8488 0.76113 0.0
O268 O 0.93475 0.84724 0.73255 0.0
N269 N 0.90859 0.94841 0.7092 0.0
C270 C 0.92614 0.96589 0.69729 0.0
C271 C 0.9224 0.9812 0.65603 0.0
C272 C 0.90057 0.97852 0.62767 0.0
C273 C 0.88254 0.96073 0.64117 0.0
C274 C 0.88717 0.9462 0.68301 0.0
H275 H 0.94296 0.96804 0.7189 0.0
O276 O 0.95903 0.88762 0.68825 0.0
O277 O 0.92511 0.9 0.727 0.0
O278 O 0.97015 0.90909 0.78171 0.0
O279 O 0.94019 0.93882 0.78907 0.0
C280 C 0.86034 0.95661 0.61437 0.0
C281 C 0.84327 0.93802 0.62961 0.0
H282 H 0.81532 0.90008 0.66915 0.0
H283 H 0.82736 0.87546 0.74282 0.0
H284 H 0.93636 0.99494 0.64595 0.0
H285 H 0.89788 0.99017 0.59553 0.0
H286 H 0.85632 0.96746 0.5817 0.0
H287 H 0.82639 0.93485 0.60841 0.0
Mn288 Mn 0.64236 0.57347 0.75683 0.0
Mn289 Mn 0.59718 0.61748 0.75877 0.0
C290 C 0.62184 0.58248 0.82843 0.0
C291 C 0.68524 0.56546 0.7711 0.0
C292 C 0.5883 0.56458 0.7222 0.0
O293 O 0.64741 0.59124 0.69116 0.0
O294 O 0.61791 0.62112 0.69893 0.0
C295 C 0.63015 0.66146 0.77142 0.0
N296 N 0.61076 0.64706 0.78747 0.0
C297 C 0.60474 0.67331 0.85797 0.0
C298 C 0.62452 0.68853 0.842 0.0
C299 C 0.6373 0.68255 0.79856 0.0
C300 C 0.59837 0.65262 0.82925 0.0
H301 H 0.64013 0.65682 0.73825 0.0
C302 C 0.63565 0.61047 0.67529 0.0
O303 O 0.67144 0.54926 0.74786 0.0
O304 O 0.67467 0.58634 0.78166 0.0
N305 N 0.57568 0.61624 0.81488 0.0
C306 C 0.55733 0.59939 0.82569 0.0
C307 C 0.54295 0.60252 0.86832 0.0
C308 C 0.54744 0.62301 0.89917 0.0
C309 C 0.56609 0.64036 0.88678 0.0
C310 C 0.57963 0.63643 0.84352 0.0
H311 H 0.55383 0.58358 0.80219 0.0
O312 O 0.63389 0.5617 0.82396 0.0
O313 O 0.62272 0.59771 0.79139 0.0
O314 O 0.61046 0.55586 0.72981 0.0
O315 O 0.58207 0.58724 0.73072 0.0
C316 C 0.57202 0.6612 0.91601 0.0
C317 C 0.59135 0.67764 0.90166 0.0
H318 H 0.63019 0.70473 0.86297 0.0
H319 H 0.65267 0.69413 0.78614 0.0
H320 H 0.52854 0.58908 0.87754 0.0
H321 H 0.53651 0.62519 0.93232 0.0
H322 H 0.56198 0.66463 0.94982 0.0
H323 H 0.59589 0.69347 0.92467 0.0
Mn324 Mn 0.45312 0.13986 0.0195 0.0
Mn325 Mn 0.41456 0.08846 0.01927 0.0
C326 C 0.41884 0.13354 0.07675 0.0
C327 C 0.45885 0.18501 0.02957 0.0
C328 C 0.46855 0.08872 -0.01928 0.0
O329 O 0.43074 0.14335 0.95753 0.0
O330 O 0.40822 0.10766 0.95896 0.0
C331 C 0.3643 0.11172 0.02699 0.0
N332 N 0.38222 0.09624 0.0456 0.0
C333 C 0.35679 0.08682 0.11612 0.0
C334 C 0.33805 0.10261 0.09763 0.0
C335 C 0.34182 0.1151 0.05286 0.0
C336 C 0.37869 0.08395 0.08844 0.0
H337 H 0.3672 0.12156 -0.00716 0.0
C338 C 0.41483 0.12815 0.93862 0.0
O339 O 0.47406 0.17167 0.00392 0.0
O340 O 0.43985 0.17283 0.04651 0.0
N341 N 0.4192 0.06887 0.07738 0.0
C342 C 0.43978 0.0557 0.09178 0.0
C343 C 0.43936 0.0427 0.13658 0.0
C344 C 0.41783 0.04343 0.16613 0.0
C345 C 0.39687 0.05711 0.15053 0.0
C346 C 0.39826 0.06945 0.10525 0.0
H347 H 0.45646 0.05526 0.06941 0.0
O348 O 0.42639 0.15573 0.06535 0.0
O349 O 0.42967 0.11673 0.05151 0.0
O350 O 0.4738 0.11208 -0.01445 0.0
O351 O 0.44755 0.07892 -0.00699 0.0
C352 C 0.37489 0.05949 0.17872 0.0
C353 C 0.35487 0.07433 0.16153 0.0
H354 H 0.3208 0.10549 0.11774 0.0
H355 H 0.3275 0.12742 0.03848 0.0
H356 H 0.45565 0.03227 0.14848 0.0
H357 H 0.41769 0.03363 0.20095 0.0
H358 H 0.37334 0.05029 0.21403 0.0
H359 H 0.33821 0.0763 0.18385 0.0
Mn360 Mn 0.87127 0.94279 0.26993 0.0
Mn361 Mn 0.91906 0.90252 0.28784 0.0
C362 C 0.88828 0.93809 0.34664 0.0
C363 C 0.82711 0.94696 0.27258 0.0
C364 C 0.9262 0.95433 0.24378 0.0
O365 O 0.87149 0.92259 0.20658 0.0
O366 O 0.9019 0.89488 0.22494 0.0
C367 C 0.88865 0.85691 0.30252 0.0
N368 N 0.90623 0.87326 0.31922 0.0
C369 C 0.91105 0.85017 0.3945 0.0
C370 C 0.89312 0.83297 0.37797 0.0
C371 C 0.88185 0.83639 0.33182 0.0
C372 C 0.91711 0.87021 0.36365 0.0
H373 H 0.87986 0.85958 0.26719 0.0
C374 C 0.88523 0.90381 0.19592 0.0
O375 O 0.8408 0.96369 0.25046 0.0
O376 O 0.83881 0.92783 0.28964 0.0
N377 N 0.93764 0.90763 0.34709 0.0
C378 C 0.95433 0.9261 0.35787 0.0
C379 C 0.96709 0.9256 0.40295 0.0
C380 C 0.9628 0.90597 0.4362 0.0
C381 C 0.94598 0.88687 0.42381 0.0
C382 C 0.93397 0.88826 0.37817 0.0
H383 H 0.95774 0.94121 0.33243 0.0
O384 O 0.87483 0.95748 0.33642 0.0
O385 O 0.89074 0.92163 0.31212 0.0
O386 O 0.90332 0.96201 0.24667 0.0
O387 O 0.93328 0.93252 0.25716 0.0
C388 C 0.94038 0.8667 0.45524 0.0
C389 C 0.92287 0.8484 0.44065 0.0
H390 H 0.88775 0.81716 0.40052 0.0
H391 H 0.8679 0.82326 0.31892 0.0
H392 H 0.98013 0.94035 0.41214 0.0
H393 H 0.97247 0.90579 0.47117 0.0
H394 H 0.94923 0.86523 0.49092 0.0
H395 H 0.91854 0.83311 0.46534 0.0
Mn396 Mn 0.07152 0.37672 0.50875 0.0
Mn397 Mn 0.11226 0.42483 0.51531 0.0
C398 C 0.07859 0.39625 0.58208 0.0
C399 C 0.06605 0.33341 0.51915 0.0
C400 C 0.05904 0.43027 0.47723 0.0
O401 O 0.09006 0.37452 0.44321 0.0
O402 O 0.11813 0.40549 0.45461 0.0
C403 C 0.15859 0.3952 0.52865 0.0
N404 N 0.14254 0.4131 0.54496 0.0
C405 C 0.16747 0.41983 0.61736 0.0
C406 C 0.18436 0.40159 0.60116 0.0
C407 C 0.17988 0.38921 0.55664 0.0
C408 C 0.14665 0.4251 0.58778 0.0
H409 H 0.1551 0.38551 0.49463 0.0
C410 C 0.10876 0.38771 0.42914 0.0
O411 O 0.04917 0.34666 0.49637 0.0
O412 O 0.08638 0.34485 0.53122 0.0
N413 N 0.10874 0.44516 0.57252 0.0
C414 C 0.09039 0.46195 0.58336 0.0
C415 C 0.09191 0.47574 0.62699 0.0
C416 C 0.11235 0.47228 0.65881 0.0
C417 C 0.13126 0.45526 0.6464 0.0
C418 C 0.12888 0.44226 0.60214 0.0
H419 H 0.0746 0.46466 0.55912 0.0
O420 O 0.0588 0.38272 0.57602 0.0
O421 O 0.09413 0.39733 0.54555 0.0
O422 O 0.0517 0.40767 0.48428 0.0
O423 O 0.08122 0.43811 0.48614 0.0
C424 C 0.15218 0.45042 0.67654 0.0
C425 C 0.17025 0.43269 0.66208 0.0
H426 H 0.20074 0.39681 0.62277 0.0
H427 H 0.19276 0.37501 0.54402 0.0
H428 H 0.07728 0.4889 0.63623 0.0
H429 H 0.11331 0.48273 0.69272 0.0
H430 H 0.15444 0.46006 0.71114 0.0
H431 H 0.18613 0.42896 0.68578 0.0
Mn432 Mn 0.62319 0.92189 0.46819 0.0
Mn433 Mn 0.5768 0.87859 0.50689 0.0
C434 C 0.605 0.87901 0.41717 0.0
C435 C 0.66427 0.93141 0.45014 0.0
C436 C 0.56969 0.93519 0.50612 0.0
O437 O 0.6305 0.91196 0.54067 0.0
O438 O 0.59983 0.88478 0.56155 0.0
C439 C 0.60728 0.83296 0.52327 0.0
N440 N 0.58821 0.84484 0.49951 0.0
C441 C 0.57924 0.80825 0.45149 0.0
C442 C 0.5986 0.79556 0.47586 0.0
C443 C 0.6127 0.808 0.51184 0.0
C444 C 0.57454 0.83306 0.46472 0.0
H445 H 0.61838 0.84252 0.55051 0.0
C446 C 0.61955 0.89733 0.57132 0.0
O447 O 0.64948 0.94859 0.4689 0.0
O448 O 0.65555 0.90872 0.44717 0.0
N449 N 0.55366 0.87096 0.4551 0.0
C450 C 0.53666 0.88626 0.43291 0.0
C451 C 0.52151 0.87686 0.39508 0.0
C452 C 0.52408 0.85188 0.3803 0.0
C453 C 0.54182 0.83653 0.40347 0.0
C454 C 0.55626 0.84687 0.44124 0.0
H455 H 0.53472 0.90552 0.44384 0.0
O456 O 0.60296 0.89074 0.45702 0.0
O457 O 0.60237 0.89034 0.45804 0.0
O458 O 0.59136 0.94155 0.48969 0.0
O459 O 0.56319 0.91256 0.5142 0.0
C460 C 0.54599 0.81149 0.39007 0.0
C461 C 0.56468 0.79736 0.41405 0.0
H462 H 0.60296 0.77635 0.46692 0.0
H463 H 0.62781 0.79839 0.53054 0.0
H464 H 0.50795 0.88886 0.3772 0.0
H465 H 0.51247 0.84475 0.35088 0.0
H466 H 0.5351 0.80298 0.36101 0.0
H467 H 0.56788 0.7782 0.40307 0.0
Mn468 Mn 0.06966 0.1423 0.7566 0.0
Mn469 Mn 0.1104 0.09411 0.76075 0.0
C470 C 0.07864 0.12028 0.687 0.0
C471 C 0.06467 0.18522 0.73979 0.0
C472 C 0.05617 0.08988 0.7934 0.0
O473 O 0.08636 0.14673 0.82362 0.0
O474 O 0.11478 0.11563 0.81902 0.0
C475 C 0.15714 0.12321 0.74825 0.0
N476 N 0.14146 0.10475 0.73281 0.0
C477 C 0.16826 0.09537 0.66439 0.0
C478 C 0.18479 0.11416 0.67977 0.0
C479 C 0.17918 0.12815 0.72186 0.0
C480 C 0.14666 0.09119 0.69233 0.0
H481 H 0.1528 0.13414 0.78037 0.0
C482 C 0.1048 0.13422 0.84104 0.0
O483 O 0.04717 0.17279 0.76252 0.0
O484 O 0.08522 0.17334 0.73163 0.0
N485 N 0.10828 0.07178 0.70617 0.0
C486 C 0.0901 0.05473 0.69559 0.0
C487 C 0.09265 0.03947 0.65409 0.0
C488 C 0.11395 0.04174 0.62419 0.0
C489 C 0.13265 0.05905 0.63639 0.0
C490 C 0.1292 0.07358 0.67848 0.0
H491 H 0.07366 0.05293 0.71835 0.0
O492 O 0.05878 0.13402 0.68902 0.0
O493 O 0.09319 0.12048 0.72516 0.0
O494 O 0.04909 0.11219 0.78266 0.0
O495 O 0.07858 0.08185 0.78829 0.0
C496 C 0.1544 0.06274 0.60803 0.0
C497 C 0.17217 0.08091 0.62197 0.0
H498 H 0.20174 0.11812 0.65935 0.0
H499 H 0.19177 0.14277 0.73381 0.0
H500 H 0.07817 0.0261 0.64503 0.0
H501 H 0.11572 0.03014 0.5919 0.0
H502 H 0.15752 0.05188 0.57515 0.0
H503 H 0.18869 0.08375 0.59959 0.0
Mn504 Mn 0.87859 0.5672 -0.00067 0.0
Mn505 Mn 0.92703 0.60787 -0.0023 0.0
C506 C 0.89896 0.57593 0.92734 0.0
C507 C 0.8352 0.56197 -0.01291 0.0
C508 C 0.93214 0.55393 0.03088 0.0
O509 O 0.87569 0.58415 0.06631 0.0
O510 O 0.90716 0.61198 0.05833 0.0
C511 C 0.89718 0.65423 -0.01146 0.0
N512 N 0.91535 0.6388 0.97104 0.0
C513 C 0.92266 0.6658 0.90178 0.0
C514 C 0.90415 0.68206 0.91926 0.0
C515 C 0.89133 0.67623 0.9628 0.0
C516 C 0.92775 0.6442 0.92912 0.0
H517 H 0.88716 0.64972 0.0218 0.0
C518 C 0.88894 0.60234 0.08231 0.0
O519 O 0.84831 0.54466 0.00887 0.0
O520 O 0.8468 0.58245 -0.023 0.0
N521 N 0.94792 0.60612 0.94077 0.0
C522 C 0.96515 0.5884 0.92872 0.0
C523 C 0.97948 0.59133 0.88591 0.0
C524 C 0.97613 0.61256 0.85624 0.0
C525 C 0.95873 0.63083 0.87001 0.0
C526 C 0.94518 0.62703 0.91336 0.0
H527 H 0.96786 0.57209 0.95142 0.0
O528 O 0.88532 0.55609 0.93121 0.0
O529 O 0.89967 0.59057 0.96514 0.0
O530 O 0.90943 0.54691 0.02327 0.0
O531 O 0.94021 0.57614 0.02368 0.0
C532 C 0.95407 0.65254 0.84214 0.0
C533 C 0.93602 0.66999 0.85795 0.0
H534 H 0.89951 0.69899 0.89939 0.0
H535 H 0.87693 0.68862 -0.02362 0.0
H536 H 0.99297 0.5772 0.8757 0.0
H537 H 0.98701 0.61461 0.82295 0.0
H538 H 0.96413 0.65591 0.80827 0.0
H539 H 0.93246 0.6865 0.83599 0.0
Mn540 Mn 0.4576 0.38287 0.24734 0.0
Mn541 Mn 0.41509 0.42951 0.25388 0.0
C542 C 0.44566 0.404 0.17788 0.0
C543 C 0.46352 0.33981 0.23189 0.0
C544 C 0.47003 0.43635 0.28014 0.0
O545 O 0.44294 0.37815 0.31619 0.0
O546 O 0.4135 0.40834 0.31337 0.0
C547 C 0.36944 0.39819 0.24828 0.0
N548 N 0.38369 0.41721 0.23023 0.0
C549 C 0.35423 0.4248 0.16495 0.0
C550 C 0.33914 0.40543 0.18309 0.0
C551 C 0.34681 0.39205 0.22489 0.0
C552 C 0.37653 0.43016 0.18995 0.0
H553 H 0.37536 0.38771 0.28016 0.0
C554 C 0.42452 0.3901 0.33488 0.0
O555 O 0.48128 0.35305 0.25186 0.0
O556 O 0.44247 0.35105 0.22516 0.0
N557 N 0.41436 0.45139 0.19821 0.0
C558 C 0.43127 0.46923 0.18485 0.0
C559 C 0.42659 0.48403 0.14322 0.0
C560 C 0.40448 0.48053 0.11609 0.0
C561 C 0.38709 0.46245 0.1312 0.0
C562 C 0.39265 0.44841 0.17326 0.0
H563 H 0.44827 0.47205 0.20556 0.0
O564 O 0.46611 0.3911 0.1783 0.0
O565 O 0.43232 0.40354 0.21757 0.0
O566 O 0.47768 0.41413 0.27017 0.0
O567 O 0.4472 0.44342 0.27686 0.0
C568 C 0.36461 0.45757 0.10579 0.0
C569 C 0.34822 0.43873 0.1226 0.0
H570 H 0.32173 0.40054 0.16501 0.0
H571 H 0.33534 0.37697 0.23895 0.0
H572 H 0.44006 0.49803 0.13196 0.0
H573 H 0.40107 0.49179 0.0837 0.0
H574 H 0.35987 0.46803 0.073 0.0
H575 H 0.33112 0.43497 0.10246 0.0
H576 H 0.29197 0.09872 0.47563 0.0
H577 H 0.19775 0.0176 0.31643 0.0
H578 H 0.30965 0.02106 0.45301 0.0
H579 H 0.21433 0.09536 0.29139 0.0
H580 H 0.23429 0.0152 0.37242 0.0
H581 H 0.25656 0.09468 0.41992 0.0
C582 C 0.28802 0.08058 0.45991 0.0
C583 C 0.30392 0.06023 0.46912 0.0
C584 C 0.23015 0.03258 0.3537 0.0
C585 C 0.2634 0.0556 0.40365 0.0
C586 C 0.20957 0.03387 0.32117 0.0
C587 C 0.20302 0.05672 0.29897 0.0
C588 C 0.24379 0.0544 0.3645 0.0
C589 C 0.21862 0.07737 0.3076 0.0
C590 C 0.26795 0.07837 0.42746 0.0
C591 C 0.29776 0.03719 0.44734 0.0
N592 N 0.23786 0.07581 0.34007 0.0
N593 N 0.27807 0.0355 0.41518 0.0
H594 H 1.00012 0.81392 0.70786 0.0
H595 H 0.92219 0.72134 0.53572 0.0
H596 H 0.92011 0.8028 0.71259 0.0
H597 H 1.00042 0.70711 0.56348 0.0
H598 H 0.92407 0.75725 0.59002 0.0
H599 H 1.00338 0.77857 0.64996 0.0
C600 C 0.98337 0.8037 0.69784 0.0
C601 C 0.95978 0.81139 0.71517 0.0
C602 C 0.94099 0.74655 0.58396 0.0
C603 C 0.96328 0.77181 0.64778 0.0
C604 C 0.94 0.72622 0.55228 0.0
C605 C 0.96117 0.71121 0.54486 0.0
C606 C 0.96331 0.75209 0.60909 0.0
C607 C 0.98373 0.71837 0.56771 0.0
C608 C 0.98522 0.78376 0.66434 0.0
C609 C 0.93868 0.79771 0.70017 0.0
N610 N 0.98418 0.73819 0.59933 0.0
N611 N 0.94091 0.77894 0.66715 0.0
H612 H 0.29949 0.4241 0.76701 0.0
H613 H 0.21064 0.49913 0.95026 0.0
H614 H 0.31976 0.49892 0.80895 0.0
H615 H 0.21998 0.41915 0.94719 0.0
H616 H 0.24594 0.50315 0.89189 0.0
H617 H 0.26301 0.42634 0.82043 0.0
C618 C 0.29572 0.44139 0.7862 0.0
C619 C 0.31258 0.4614 0.78314 0.0
C620 C 0.24035 0.48481 0.90468 0.0
C621 C 0.27125 0.46376 0.84657 0.0
C622 C 0.22046 0.48251 0.93844 0.0
C623 C 0.21228 0.45874 0.95372 0.0
C624 C 0.25168 0.46317 0.88568 0.0
C625 C 0.22545 0.43785 0.93641 0.0
C626 C 0.27512 0.44252 0.81746 0.0
C627 C 0.30697 0.48322 0.80962 0.0
N628 N 0.24412 0.44055 0.9031 0.0
N629 N 0.2869 0.48375 0.84086 0.0
H630 H 0.62591 0.81881 0.06935 0.0
H631 H 0.5326 0.7224 0.19987 0.0
H632 H 0.54665 0.83437 0.07373 0.0
H633 H 0.6124 0.72636 0.22317 0.0
H634 H 0.53497 0.76167 0.15189 0.0
H635 H 0.61915 0.78189 0.1192 0.0
C636 C 0.60692 0.81429 0.08029 0.0
C637 C 0.58686 0.8299 0.06721 0.0
C638 C 0.55183 0.7541 0.16832 0.0
C639 C 0.5789 0.78723 0.12597 0.0
C640 C 0.55044 0.73188 0.19625 0.0
C641 C 0.57235 0.72107 0.21572 0.0
C642 C 0.57532 0.7653 0.15961 0.0
C643 C 0.59502 0.7339 0.20887 0.0
C644 C 0.60308 0.79319 0.10932 0.0
C645 C 0.56267 0.82281 0.08263 0.0
N646 N 0.59591 0.755 0.18119 0.0
N647 N 0.55935 0.80203 0.11144 0.0
H648 H 0.7046 0.52061 0.80609 0.0
H649 H 0.79966 0.59711 -0.02646 0.0
H650 H 0.72177 0.59887 0.78997 0.0
H651 H 0.81392 0.51895 0.94861 0.0
H652 H 0.76419 0.5951 0.91758 0.0
H653 H 0.74025 0.5166 0.86385 0.0
C654 C 0.71631 0.53671 0.81335 0.0
C655 C 0.71019 0.56014 0.79309 0.0
C656 C 0.77482 0.57823 0.92463 0.0
C657 C 0.74999 0.55591 0.8604 0.0
C658 C 0.7949 0.57929 0.95722 0.0
C659 C 0.80982 0.55819 0.96586 0.0
C660 C 0.76939 0.55589 0.89995 0.0
C661 C 0.80274 0.53561 0.94337 0.0
C662 C 0.73638 0.53448 0.84682 0.0
C663 C 0.72567 0.58048 0.80472 0.0
N664 N 0.78312 0.53507 0.91092 0.0
N665 N 0.74447 0.57796 0.83791 0.0
H666 H 0.42791 0.30454 0.2206 0.0
H667 H 0.50382 0.20809 0.05461 0.0
H668 H 0.50599 0.31827 0.19046 0.0
H669 H 0.42392 0.21958 0.05044 0.0
H670 H 0.50786 0.2454 0.10755 0.0
H671 H 0.42909 0.26839 0.16709 0.0
C672 C 0.44553 0.29961 0.20348 0.0
C673 C 0.46686 0.31454 0.2102 0.0
C674 C 0.48956 0.23995 0.09414 0.0
C675 C 0.46822 0.27311 0.14696 0.0
C676 C 0.48728 0.2189 0.06335 0.0
C677 C 0.46348 0.21076 0.04783 0.0
C678 C 0.46784 0.25255 0.10981 0.0
C679 C 0.44263 0.22512 0.0614 0.0
C680 C 0.44612 0.27907 0.17228 0.0
C681 C 0.48916 0.30713 0.18675 0.0
N682 N 0.44527 0.24495 0.09185 0.0
N683 N 0.48924 0.28701 0.15577 0.0
H684 H 0.79159 0.91153 0.26356 0.0
H685 H 0.68722 0.97742 0.43108 0.0
H686 H 0.80189 0.98718 0.3128 0.0
H687 H 0.69718 0.89805 0.41228 0.0
H688 H 0.72516 0.9845 0.38066 0.0
H689 H 0.75137 0.91004 0.30556 0.0
C690 C 0.78497 0.92816 0.28205 0.0
C691 C 0.80004 0.94956 0.28419 0.0
C692 C 0.71898 0.96559 0.38798 0.0
C693 C 0.75416 0.94768 0.33484 0.0
C694 C 0.69747 0.96152 0.41709 0.0
C695 C 0.68888 0.93707 0.4263 0.0
C696 C 0.73167 0.94508 0.3674 0.0
C697 C 0.70284 0.91725 0.4065 0.0
C698 C 0.76212 0.92719 0.30676 0.0
C699 C 0.79064 0.97044 0.30949 0.0
N700 N 0.72321 0.92171 0.37802 0.0
N701 N 0.76841 0.9689 0.33445 0.0
H702 H 0.10048 0.29707 0.53162 0.0
H703 H 0.02067 0.20743 0.70664 0.0
H704 H 0.02253 0.3132 0.5577 0.0
H705 H 0.10069 0.2181 0.71373 0.0
H706 H 0.01807 0.2423 0.64707 0.0
H707 H 0.09777 0.26178 0.58777 0.0
C708 C 0.08253 0.29272 0.54816 0.0
C709 C 0.0617 0.30809 0.53977 0.0
C710 C 0.03608 0.23715 0.66238 0.0
C711 C 0.05863 0.26798 0.6061 0.0
C712 C 0.03754 0.21751 0.69687 0.0
C713 C 0.06096 0.20981 0.7153 0.0
C714 C 0.05823 0.24876 0.64596 0.0
C715 C 0.08225 0.22325 0.70049 0.0
C716 C 0.08108 0.27276 0.58091 0.0
C717 C 0.03897 0.30162 0.56267 0.0
N718 N 0.0804 0.2417 0.66649 0.0
N719 N 0.03806 0.28217 0.59534 0.0
H720 H 0.0768 1.00918 0.23164 0.0
H721 H 0.92755 1.00618 0.24101 0.0
H722 H 0.03125 0.07541 0.21623 0.0
H723 H 0.97255 0.94096 0.21147 0.0
H724 H 0.96507 0.03224 0.22941 0.0
H725 H 0.03884 0.9837 0.22181 0.0
C726 C 0.059 0.01838 0.22535 0.0
C727 C 0.05736 0.04453 0.22538 0.0
C728 C 0.96658 0.01222 0.22483 0.0
C729 C 0.01371 0.01552 0.21509 0.0
C730 C 0.94509 0.99738 0.23116 0.0
C731 C 0.94683 0.97129 0.22787 0.0
C732 C 0.98994 1.00086 0.21557 0.0
C733 C 0.97026 0.96095 0.21526 0.0
C734 C 0.03727 1.00384 0.21997 0.0
C735 C 0.03358 0.05534 0.21724 0.0
N736 N 0.99084 0.97566 0.21031 0.0
N737 N 0.01277 0.04086 0.21316 0.0
H738 H 0.97684 0.56618 0.39825 0.0
H739 H 0.01919 0.4435 0.53232 0.0
H740 H 0.99555 0.56552 0.55194 0.0
H741 H 0.05948 0.46349 0.40114 0.0
H742 H 0.99818 0.48431 0.53003 0.0
H743 H 0.99806 0.52544 0.38907 0.0
C744 C 0.98622 0.55786 0.42955 0.0
C745 C 0.98516 0.56941 0.47563 0.0
C746 C 1.01114 0.47942 0.50106 0.0
C747 C 1.00747 0.52248 0.46622 0.0
C748 C 0.02271 0.45603 0.5018 0.0
C749 C 0.04067 0.45003 0.46634 0.0
C750 C 0.01724 0.49667 0.46407 0.0
C751 C 0.04537 0.46735 0.4286 0.0
C752 C 0.99791 0.53457 0.42447 0.0
C753 C 0.99657 0.55745 0.51561 0.0
N754 N 0.0337 0.48998 0.42835 0.0
N755 N 1.00684 0.53441 0.51022 0.0
H756 H 0.43808 0.50886 0.72005 0.0
H757 H 0.5871 0.51292 0.7206 0.0
H758 H 0.48425 0.44296 0.7075 0.0
H759 H 0.54128 0.57784 0.69199 0.0
H760 H 0.54972 0.48667 0.71165 0.0
H761 H 0.47547 0.53462 0.70572 0.0
C762 C 0.45589 0.49978 0.71348 0.0
C763 C 0.45796 0.47369 0.71574 0.0
C764 C 0.54797 0.50666 0.70665 0.0
C765 C 0.50087 0.50298 0.7001 0.0
C766 C 0.56937 0.52163 0.71154 0.0
C767 C 0.56741 0.54769 0.70775 0.0
C768 C 0.52442 0.51784 0.69841 0.0
C769 C 0.54377 0.55788 0.69604 0.0
C770 C 0.47728 0.51448 0.70548 0.0
C771 C 0.48168 0.46301 0.70698 0.0
N772 N 0.52323 0.54302 0.69256 0.0
N773 N 0.50216 0.47764 0.70028 0.0
H774 H 0.60389 1.00072 -0.0201 0.0
H775 H 0.46153 0.04226 0.94262 0.0
H776 H 0.54173 0.94898 -0.02244 0.0
H777 H 0.52009 0.09329 -0.014 0.0
H778 H 0.49233 1.00886 0.93718 0.0
H779 H 0.57487 0.035 0.96574 0.0
C780 C 0.58415 0.99642 -0.02394 0.0
C781 C 0.5753 0.97171 -0.01956 0.0
C782 C 0.49853 0.02741 0.94726 0.0
C783 C 0.54189 0.01134 0.96382 0.0
C784 C 0.48099 0.04661 0.95012 0.0
C785 C 0.48814 0.07066 0.9655 0.0
C786 C 0.52357 0.03216 0.95961 0.0
C787 C 0.51369 0.07511 -0.02592 0.0
C788 C 0.56759 0.01615 0.968 0.0
C789 C 0.54947 0.96762 -0.0252 0.0
N790 N 0.53046 0.05594 0.9716 0.0
N791 N 0.53368 0.98723 0.96697 0.0
H792 H 0.07594 0.49961 0.97069 0.0
H793 H 0.95803 0.54547 0.1159 0.0
H794 H 0.06099 0.46361 0.1091 0.0
H795 H 0.95289 0.52322 0.96459 0.0
H796 H 0.9991 0.52441 0.1217 0.0
H797 H 0.03494 0.52033 -0.02455 0.0
C798 C 0.0645 0.497 0.00312 0.0
C799 C 0.07197 0.48035 0.04006 0.0
C800 C 0.98864 0.52372 0.08766 0.0
C801 C 0.0251 0.50342 0.0452 0.0
C802 C 0.96516 0.53534 0.08455 0.0
C803 C 0.95183 0.53531 0.04013 0.0
C804 C 0.99916 0.51314 0.04543 0.0
C805 C 0.96229 0.52295 -0.00017 0.0
C806 C 0.04098 0.50838 0.00534 0.0
C807 C 0.05601 0.47674 0.08041 0.0
N808 N 0.98557 0.51277 0.00313 0.0
N809 N 0.03325 0.48822 0.08205 0.0
H810 H 0.47851 0.46332 0.36355 0.0
H811 H 0.52405 0.58029 0.21057 0.0
H812 H 0.49943 0.45781 0.21154 0.0
H813 H 0.55422 0.56941 0.35561 0.0
H814 H 0.504 0.53906 0.21581 0.0
H815 H 0.49823 0.50498 0.36694 0.0
C816 C 0.48808 0.47052 0.33147 0.0
C817 C 0.48815 0.45681 0.28764 0.0
C818 C 0.51447 0.54602 0.24698 0.0
C819 C 0.50883 0.50494 0.29022 0.0
C820 C 0.5254 0.56974 0.24446 0.0
C821 C 0.54023 0.57852 0.28324 0.0
C822 C 0.51806 0.53112 0.28891 0.0
C823 C 0.54239 0.56354 0.32547 0.0
C824 C 0.49893 0.49436 0.33322 0.0
C825 C 0.49975 0.46743 0.24643 0.0
N826 N 0.53141 0.54055 0.32729 0.0
N827 N 0.50922 0.49102 0.24845 0.0
H828 H 0.42489 1.00828 0.52479 0.0
H829 H 0.57288 0.98661 0.4954 0.0
H830 H 0.47886 0.06833 0.51735 0.0
H831 H 0.5208 0.92786 0.53324 0.0
H832 H 0.5386 0.01692 0.50239 0.0
H833 H 0.4597 0.97835 0.52736 0.0
C834 C 0.44395 0.01523 0.52415 0.0
C835 C 0.44875 0.04096 0.52065 0.0
C836 C 0.53477 0.99738 0.50946 0.0
C837 C 0.48877 1.00675 0.52294 0.0
C838 C 0.55438 0.98005 0.50549 0.0
C839 C 0.54991 0.95452 0.51358 0.0
C840 C 0.51041 0.98914 0.52115 0.0
C841 C 0.52537 0.94726 0.52653 0.0
C842 C 0.46385 0.99812 0.52552 0.0
C843 C 0.47401 0.04874 0.51983 0.0
N844 N 0.50663 0.96438 0.52953 0.0
N845 N 0.49294 0.03178 0.52056 0.0
H846 H 0.01847 0.07481 0.73424 0.0
H847 H 0.97077 0.95705 0.87777 0.0
H848 H 0.05383 0.05892 0.873 0.0
H849 H 0.99394 0.95214 0.72689 0.0
H850 H 0.99212 0.99784 0.88399 0.0
H851 H 0.99735 0.03406 0.73819 0.0
C852 C 0.02085 0.06323 0.76658 0.0
C853 C 0.03745 0.07037 0.80386 0.0
C854 C 0.99292 0.9875 0.84994 0.0
C855 C 0.01391 0.02378 0.80807 0.0
C856 C 0.98112 0.96419 0.84658 0.0
C857 C 0.98135 0.95098 0.80219 0.0
C858 C 1.00389 0.99802 0.80796 0.0
C859 C 0.99405 0.96144 0.76213 0.0
C860 C 1.00925 0.03985 0.76832 0.0
C861 C 0.04076 0.05421 0.84406 0.0
N862 N 1.00441 0.98457 0.76564 0.0
N863 N 0.02904 0.0316 0.84524 0.0
H864 H 0.12059 0.13188 0.63718 0.0
H865 H 0.08493 0.04955 0.40464 0.0
H866 H 0.05248 0.08882 0.62912 0.0
H867 H 0.13344 0.11379 0.39721 0.0
H868 H 0.07733 0.0583 0.49173 0.0
H869 H 0.13055 0.11968 0.55291 0.0
C870 C 0.1081 0.11937 0.61775 0.0
C871 C 0.08623 0.1105 0.63984 0.0
C872 C 0.08944 0.07058 0.47084 0.0
C873 C 0.09682 0.0973 0.54413 0.0
C874 C 0.09364 0.06567 0.42151 0.0
C875 C 0.10885 0.08171 0.39412 0.0
C876 C 0.10128 0.09115 0.49264 0.0
C877 C 0.12073 0.10173 0.41723 0.0
C878 C 0.11357 0.11269 0.56979 0.0
C879 C 0.06986 0.09537 0.61312 0.0
N880 N 0.11663 0.106 0.46543 0.0
N881 N 0.07557 0.08903 0.56642 0.0
H882 H 0.90359 0.63678 0.63751 0.0
H883 H 0.92963 0.54996 0.86743 0.0
H884 H 0.97129 0.59342 0.65058 0.0
H885 H 0.88584 0.61734 0.87734 0.0
H886 H 0.94134 0.56141 0.78318 0.0
H887 H 0.89286 0.62588 0.72226 0.0
C888 C 0.91594 0.62466 0.65831 0.0
C889 C 0.93776 0.61507 0.63732 0.0
C890 C 0.92944 0.5738 0.80412 0.0
C891 C 0.92614 0.60312 0.73335 0.0
C892 C 0.92284 0.56731 0.85179 0.0
C893 C 0.90772 0.58336 0.87915 0.0
C894 C 0.92003 0.59598 0.78375 0.0
C895 C 0.89838 0.60512 0.85747 0.0
C896 C 0.91002 0.61871 0.70652 0.0
C897 C 0.95392 0.60044 0.66571 0.0
N898 N 0.90471 0.61088 0.81073 0.0
N899 N 0.9476 0.59454 0.71244 0.0
H900 H 0.40278 0.39034 0.13309 0.0
H901 H 0.42922 0.47211 0.89396 0.0
H902 H 0.46858 0.43623 0.11622 0.0
H903 H 0.38272 0.40632 0.89376 0.0
H904 H 0.43841 0.46502 -0.01884 0.0
H905 H 0.38958 0.40189 0.04993 0.0
C906 C 0.41408 0.4033 0.11199 0.0
C907 C 0.43624 0.41315 0.13129 0.0
C908 C 0.42632 0.45208 0.96188 0.0
C909 C 0.42192 0.42571 0.03683 0.0
C910 C 0.42122 0.45605 0.91247 0.0
C911 C 0.40629 0.43901 0.88699 0.0
C912 C 0.4157 0.43138 -0.0143 0.0
C913 C 0.39527 0.41911 0.91225 0.0
C914 C 0.40675 0.40965 0.06467 0.0
C915 C 0.45103 0.42889 0.10243 0.0
N916 N 0.40033 0.41569 0.96048 0.0
N917 N 0.4435 0.43488 0.05642 0.0
H918 H 0.63315 0.85554 0.34948 0.0
H919 H 0.60227 0.9518 0.15888 0.0
H920 H 0.60601 0.92835 0.39052 0.0
H921 H 0.65971 0.89705 0.13239 0.0
H922 H 0.61119 0.94948 0.24643 0.0
H923 H 0.64999 0.87355 0.27374 0.0
C924 C 0.6313 0.87542 0.3429 0.0
C925 C 0.61828 0.89048 0.37587 0.0
C926 C 0.62261 0.93865 0.22153 0.0
C927 C 0.63689 0.91117 0.28956 0.0
C928 C 0.61756 0.94012 0.17158 0.0
C929 C 0.63023 0.92452 0.13901 0.0
C930 C 0.63939 0.92039 0.23877 0.0
C931 C 0.64961 0.90938 0.1568 0.0
C932 C 0.64109 0.88578 0.30006 0.0
C933 C 0.61618 0.91614 0.36604 0.0
N934 N 0.65308 0.90702 0.20591 0.0
N935 N 0.62498 0.92561 0.32325 0.0
H936 H 0.05124 0.42584 0.64165 0.0
H937 H 0.13622 0.39821 0.875 0.0
H938 H 0.11898 0.38223 0.63469 0.0
H939 H 0.09165 0.46501 0.86238 0.0
H940 H 0.12479 0.38712 0.79075 0.0
H941 H 0.0607 0.43586 0.72761 0.0
C942 C 0.06826 0.41873 0.65833 0.0
C943 C 0.085 0.4042 0.63133 0.0
C944 C 0.11736 0.40409 0.80659 0.0
C945 C 0.09531 0.41449 0.72868 0.0
C946 C 0.1236 0.41021 0.85453 0.0
C947 C 0.11402 0.43199 0.87541 0.0
C948 C 0.1016 0.42004 0.77976 0.0
C949 C 0.09874 0.4477 0.84736 0.0
C950 C 0.07359 0.42433 0.70701 0.0
C951 C 0.10626 0.39438 0.6543 0.0
N952 N 0.09273 0.44129 0.80076 0.0
N953 N 0.1109 0.39975 0.70195 0.0
H954 H 0.62357 0.6424 0.11838 0.0
H955 H 0.58954 0.55841 0.88867 0.0
H956 H 0.55367 0.60239 0.10857 0.0
H957 H 0.63838 0.62233 0.87884 0.0
H958 H 0.57947 0.56991 -0.02643 0.0
H959 H 0.63292 0.6309 0.03346 0.0
C960 C 0.61046 0.63083 0.09828 0.0
C961 C 0.58837 0.62239 0.1202 0.0
C962 C 0.59212 0.58156 0.95251 0.0
C963 C 0.59839 0.60986 0.02389 0.0
C964 C 0.59778 0.57505 0.90446 0.0
C965 C 0.61391 0.59013 0.87696 0.0
C966 C 0.60344 0.60273 0.9731 0.0
C967 C 0.62507 0.61092 0.89882 0.0
C968 C 0.61559 0.62456 0.04996 0.0
C969 C 0.57124 0.60851 0.0927 0.0
N970 N 0.61961 0.61668 0.94589 0.0
N971 N 0.57675 0.60233 0.04579 0.0
H972 H 0.41512 0.06101 0.35372 0.0
H973 H 0.3791 0.15042 0.13208 0.0
H974 H 0.3723 0.12788 0.37952 0.0
H975 H 0.4466 0.10624 0.13812 0.0
H976 H 0.37131 0.14001 0.21929 0.0
H977 H 0.42144 0.07411 0.26876 0.0
C978 C 0.40743 0.07867 0.34137 0.0
C979 C 0.39421 0.09402 0.37348 0.0
C980 C 0.38777 0.1327 0.20115 0.0
C981 C 0.40046 0.10871 0.27674 0.0
C982 C 0.3921 0.13851 0.15178 0.0
C983 C 0.41291 0.12828 0.128 0.0
C984 C 0.40455 0.11681 0.22594 0.0
C985 C 0.42976 0.1136 0.15485 0.0
C986 C 0.41093 0.08612 0.29313 0.0
C987 C 0.38355 0.11621 0.35581 0.0
N988 N 0.42508 0.10808 0.20224 0.0
N989 N 0.38694 0.12303 0.30823 0.0
H990 H 0.96184 0.93275 0.62549 0.0
H991 H 0.8731 0.89957 0.40309 0.0
H992 H 0.89584 0.88721 0.64277 0.0
H993 H 0.91669 0.96729 0.40543 0.0
H994 H 0.88323 0.89265 0.48977 0.0
H995 H 0.94796 0.94385 0.54233 0.0
C996 C 0.94419 0.92554 0.61182 0.0
C997 C 0.92938 0.90988 0.64087 0.0
C998 C 0.89054 0.90905 0.47136 0.0
C999 C 0.91396 0.92155 0.54649 0.0
C1000 C 0.88506 0.91277 0.42204 0.0
C1001 C 0.89509 0.93338 0.39741 0.0
C1002 C 0.90617 0.92611 0.49565 0.0
C1003 C 0.90941 0.95075 0.42339 0.0
C1004 C 0.9363 0.93182 0.56473 0.0
C1005 C 0.90718 0.90009 0.62161 0.0
N1006 N 0.91496 0.94651 0.47123 0.0
N1007 N 0.90011 0.90603 0.57531 0.0
H1008 H 0.14861 0.11846 0.88269 0.0
H1009 H 0.10262 0.14961 0.15341 0.0
H1010 H 0.08167 0.1606 0.9149 0.0
H1011 H 0.15534 0.09112 0.11832 0.0
H1012 H 0.10271 0.16264 0.06776 0.0
H1013 H 0.1589 0.11788 0.96974 0.0
C1014 C 0.13625 0.128 0.90795 0.0
C1015 C 0.11388 0.13912 0.89148 0.0
C1016 C 0.11451 0.14718 0.07896 0.0
C1017 C 0.12567 0.13841 -0.00857 0.0
C1018 C 0.11453 0.13967 0.12794 0.0
C1019 C 0.12862 0.1188 0.14313 0.0
C1020 C 0.12875 0.13388 0.04475 0.0
C1021 C 0.14394 0.10706 0.10834 0.0
C1022 C 0.14217 0.12758 0.9577 0.0
C1023 C 0.09895 0.15159 0.92592 0.0
N1024 N 0.14336 0.11458 0.06064 0.0
N1025 N 0.10491 0.15055 -0.02556 0.0
H1026 H 0.93521 0.65931 0.35799 0.0
H1027 H 0.8616 0.58131 0.15773 0.0
H1028 H 0.8756 0.60776 0.39353 0.0
H1029 H 0.90823 0.64484 0.12263 0.0
H1030 H 0.86312 0.5934 0.24423 0.0
H1031 H 0.92264 0.65729 0.27173 0.0
C1032 C 0.91924 0.64793 0.3479 0.0
C1033 C 0.90681 0.63333 0.38307 0.0
C1034 C 0.87269 0.60491 0.21742 0.0
C1035 C 0.89253 0.63063 0.28434 0.0
C1036 C 0.87174 0.59803 0.16797 0.0
C1037 C 0.88521 0.61174 0.13289 0.0
C1038 C 0.88736 0.62549 0.23181 0.0
C1039 C 0.89797 0.63333 0.14844 0.0
C1040 C 0.91209 0.64672 0.29858 0.0
C1041 C 0.88613 0.61899 0.36769 0.0
N1042 N 0.89907 0.63928 0.19673 0.0
N1043 N 0.87992 0.61769 0.31949 0.0
H1044 H 0.3613 0.4232 0.61163 0.0
H1045 H 0.44934 0.36467 0.40865 0.0
H1046 H 0.42136 0.37188 0.64575 0.0
H1047 H 0.3799 0.40273 0.37635 0.0
H1048 H 0.43715 0.36289 0.49532 0.0
H1049 H 0.36509 0.41193 0.52528 0.0
C1050 C 0.37498 0.40925 0.60121 0.0
C1051 C 0.39131 0.39887 0.63611 0.0
C1052 C 0.42442 0.37125 0.46904 0.0
C1053 C 0.39608 0.38616 0.53698 0.0
C1054 C 0.43136 0.3722 0.41954 0.0
C1055 C 0.4159 0.38432 0.38531 0.0
C1056 C 0.40195 0.38263 0.48423 0.0
C1057 C 0.39273 0.39369 0.40155 0.0
C1058 C 0.37719 0.40283 0.55178 0.0
C1059 C 0.40855 0.38071 0.62022 0.0
N1060 N 0.38667 0.39298 0.44981 0.0
N1061 N 0.4108 0.3753 0.57179 0.0
H1062 H 0.64922 0.92994 0.62456 0.0
H1063 H 0.6105 0.86526 0.87648 0.0
H1064 H 0.61069 0.8592 0.63506 0.0
H1065 H 0.66199 0.92744 0.86873 0.0
H1066 H 0.61309 0.86118 0.78747 0.0
H1067 H 0.65731 0.92798 0.71329 0.0
C1068 C 0.64291 0.91382 0.6452 0.0
C1069 C 0.6289 0.89495 0.62239 0.0
C1070 C 0.62407 0.87554 0.80532 0.0
C1071 C 0.63777 0.89269 0.72361 0.0
C1072 C 0.62258 0.87786 0.85626 0.0
C1073 C 0.63577 0.89689 0.88032 0.0
C1074 C 0.63862 0.89255 0.77806 0.0
C1075 C 0.65126 0.91259 0.85192 0.0
C1076 C 0.64742 0.91273 0.69586 0.0
C1077 C 0.62117 0.87446 0.65105 0.0
N1078 N 0.65197 0.9103 0.80232 0.0
N1079 N 0.62541 0.87405 0.70005 0.0
H1080 H 0.09119 0.35779 0.35432 0.0
H1081 H 0.16298 0.43605 0.15216 0.0
H1082 H 0.14969 0.41072 0.3889 0.0
H1083 H 0.11903 0.37046 0.1191 0.0
H1084 H 0.1619 0.42448 0.2391 0.0
H1085 H 0.10414 0.35927 0.26832 0.0
C1086 C 0.107 0.36938 0.34411 0.0
C1087 C 0.11899 0.3845 0.37892 0.0
C1088 C 0.15287 0.41239 0.21265 0.0
C1089 C 0.13371 0.38658 0.28039 0.0
C1090 C 0.15359 0.41896 0.16294 0.0
C1091 C 0.14065 0.40452 0.1283 0.0
C1092 C 0.13895 0.39139 0.22773 0.0
C1093 C 0.12882 0.38251 0.14455 0.0
C1094 C 0.11438 0.37026 0.29493 0.0
C1095 C 0.1395 0.39906 0.36336 0.0
N1096 N 0.12788 0.37688 0.19307 0.0
N1097 N 0.14591 0.40005 0.31523 0.0
H1098 H 0.66322 0.58851 0.60165 0.0
H1099 H 0.59414 0.66822 0.39718 0.0
H1100 H 0.61845 0.65366 0.63341 0.0
H1101 H 0.65071 0.61298 0.36494 0.0
H1102 H 0.60648 0.66653 0.48355 0.0
H1103 H 0.66299 0.6003 0.51491 0.0
C1104 C 0.65377 0.60553 0.59064 0.0
C1105 C 0.6404 0.61978 0.62485 0.0
C1106 C 0.61644 0.65506 0.45739 0.0
C1107 C 0.63971 0.63319 0.52553 0.0
C1108 C 0.60941 0.65606 0.408 0.0
C1109 C 0.621 0.64036 0.37374 0.0
C1110 C 0.63503 0.63809 0.47268 0.0
C1111 C 0.64083 0.62509 0.39005 0.0
C1112 C 0.65356 0.61223 0.54102 0.0
C1113 C 0.62859 0.64175 0.6083 0.0
N1114 N 0.64691 0.62405 0.43836 0.0
N1115 N 0.62816 0.64752 0.55981 0.0
H1116 H 0.35888 0.0839 0.65843 0.0
H1117 H 0.43421 0.15799 0.86502 0.0
H1118 H 0.4111 0.14348 0.62701 0.0
H1119 H 0.37364 0.10692 0.89622 0.0
H1120 H 0.42304 0.15629 0.77781 0.0
H1121 H 0.36123 0.09471 0.74563 0.0
C1122 C 0.37059 0.0994 0.66964 0.0
C1123 C 0.38507 0.11249 0.63513 0.0
C1124 C 0.41195 0.14576 0.8039 0.0
C1125 C 0.38803 0.12489 0.73509 0.0
C1126 C 0.41823 0.14691 0.8538 0.0
C1127 C 0.40513 0.13231 0.88806 0.0
C1128 C 0.39255 0.1298 0.78815 0.0
C1129 C 0.3846 0.11819 0.87113 0.0
C1130 C 0.37196 0.10558 0.7195 0.0
C1131 C 0.39984 0.13252 0.6521 0.0
N1132 N 0.37922 0.11699 0.82248 0.0
N1133 N 0.40115 0.13787 0.70072 0.0
H1134 H 0.9144 0.86669 0.15677 0.0
H1135 H 0.87065 0.8968 0.88322 0.0
H1136 H 0.85455 0.91761 0.11907 0.0
H1137 H 0.941 0.8612 0.91857 0.0
H1138 H 0.85898 0.89516 0.9694 0.0
H1139 H 0.91844 0.85571 0.07043 0.0
C1140 C 0.90176 0.87529 0.13058 0.0
C1141 C 0.88434 0.8935 0.1454 0.0
C1142 C 0.87683 0.8874 0.95832 0.0
C1143 C 0.88902 0.88085 0.04616 0.0
C1144 C 0.88355 0.88827 0.90902 0.0
C1145 C 0.9071 0.87954 0.89367 0.0
C1146 C 0.89375 0.87777 -0.00714 0.0
C1147 C 0.92275 0.8683 0.92877 0.0
C1148 C 0.9042 0.86901 0.08118 0.0
C1149 C 0.86843 0.90371 0.10953 0.0
N1150 N 0.91595 0.86808 -0.02306 0.0
N1151 N 0.87134 0.89744 0.06157 0.0
loop_
_geom_bond_atom_site_label_1
_geom_bond_atom_site_label_2
_geom_bond_distance
_geom_bond_site_symmetry_2
_ccdc_geom_bond_type
Mn0 O5 2.095 . S
Mn0 O15 2.162 . S
Mn0 O16 2.297 . S
Mn0 O24 2.385 . S
Mn0 O25 2.209 . S
Mn0 O26 2.094 . S
Mn1 O6 2.121 . S
Mn1 N8 2.257 . S
Mn1 N17 2.282 . S
Mn1 O25 2.215 . S
Mn1 O27 2.117 . S
C2 O24 1.234 . S
C2 O25 1.283 . S
C3 O15 1.281 . S
C3 O16 1.236 . S
C4 O26 1.240 . S
C4 O27 1.264 . S
O5 Mn0 2.095 . S
O5 C14 1.250 . S
O6 Mn1 2.121 . S
O6 C14 1.258 . S
C7 N8 1.326 . S
C7 C11 1.460 . S
C7 H13 0.929 . S
N8 Mn1 2.257 . S
N8 C7 1.326 . S
N8 C12 1.362 . S
C9 C10 1.258 . S
C9 C12 1.431 . S
C9 C29 1.449 . S
C10 C9 1.258 . S
C10 C11 1.477 . S
C10 H30 0.931 . S
C11 C7 1.460 . S
C11 C10 1.477 . S
C11 H31 0.930 . S
C12 N8 1.362 . S
C12 C9 1.431 . S
C12 C22 1.476 . S
H13 C7 0.929 . S
C14 O5 1.250 . S
C14 O6 1.258 . S
O15 Mn0 2.162 . S
O15 C3 1.281 . S
O16 Mn0 2.297 . S
O16 C3 1.236 . S
N17 Mn1 2.282 . S
N17 C18 1.328 . S
N17 C22 1.318 . S
C18 N17 1.328 . S
C18 C19 1.457 . S
C18 H23 0.929 . S
C19 C18 1.457 . S
C19 C20 1.291 . S
C19 H32 0.931 . S
C20 C19 1.291 . S
C20 C21 1.373 . S
C20 H33 0.929 . S
C21 C20 1.373 . S
C21 C22 1.396 . S
C21 C28 1.403 . S
C22 C12 1.476 . S
C22 N17 1.318 . S
C22 C21 1.396 . S
H23 C18 0.929 . S
O24 Mn0 2.385 . S
O24 C2 1.234 . S
O25 Mn0 2.209 . S
O25 Mn1 2.215 . S
O25 C2 1.283 . S
O26 Mn0 2.094 . S
O26 C4 1.240 . S
O27 Mn1 2.117 . S
O27 C4 1.264 . S
C28 C21 1.403 . S
C28 C29 1.399 . S
C28 H34 0.929 . S
C29 C9 1.449 . S
C29 C28 1.399 . S
C29 H35 0.930 . S
H30 C10 0.931 . S
H31 C11 0.930 . S
H32 C19 0.931 . S
H33 C20 0.929 . S
H34 C28 0.929 . S
H35 C29 0.930 . S
Mn36 O41 2.095 . S
Mn36 O51 2.162 . S
Mn36 O52 2.297 . S
Mn36 O60 2.385 . S
Mn36 O61 2.209 . S
Mn36 O62 2.094 . S
Mn37 O42 2.121 . S
Mn37 N44 2.257 . S
Mn37 N53 2.282 . S
Mn37 O61 2.215 . S
Mn37 O63 2.117 . S
C38 O60 1.234 . S
C38 O61 1.283 . S
C39 O51 1.281 . S
C39 O52 1.236 . S
C40 O62 1.240 . S
C40 O63 1.264 . S
O41 Mn36 2.095 . S
O41 C50 1.250 . S
O42 Mn37 2.121 . S
O42 C50 1.258 . S
C43 N44 1.326 . S
C43 C47 1.460 . S
C43 H49 0.929 . S
N44 Mn37 2.257 . S
N44 C43 1.326 . S
N44 C48 1.362 . S
C45 C46 1.258 . S
C45 C48 1.431 . S
C45 C65 1.449 . S
C46 C45 1.258 . S
C46 C47 1.477 . S
C46 H66 0.931 . S
C47 C43 1.460 . S
C47 C46 1.477 . S
C47 H67 0.930 . S
C48 N44 1.362 . S
C48 C45 1.431 . S
C48 C58 1.476 . S
H49 C43 0.929 . S
C50 O41 1.250 . S
C50 O42 1.258 . S
O51 Mn36 2.162 . S
O51 C39 1.281 . S
O52 Mn36 2.297 . S
O52 C39 1.236 . S
N53 Mn37 2.282 . S
N53 C54 1.328 . S
N53 C58 1.318 . S
C54 N53 1.328 . S
C54 C55 1.457 . S
C54 H59 0.929 . S
C55 C54 1.457 . S
C55 C56 1.291 . S
C55 H68 0.931 . S
C56 C55 1.291 . S
C56 C57 1.373 . S
C56 H69 0.929 . S
C57 C56 1.373 . S
C57 C58 1.396 . S
C57 C64 1.403 . S
C58 C48 1.476 . S
C58 N53 1.318 . S
C58 C57 1.396 . S
H59 C54 0.929 . S
O60 Mn36 2.385 . S
O60 C38 1.234 . S
O61 Mn36 2.209 . S
O61 Mn37 2.215 . S
O61 C38 1.283 . S
O62 Mn36 2.094 . S
O62 C40 1.240 . S
O63 Mn37 2.117 . S
O63 C40 1.264 . S
C64 C57 1.403 . S
C64 C65 1.399 . S
C64 H70 0.929 . S
C65 C45 1.449 . S
C65 C64 1.399 . S
C65 H71 0.930 . S
H66 C46 0.931 . S
H67 C47 0.930 . S
H68 C55 0.931 . S
H69 C56 0.929 . S
H70 C64 0.929 . S
H71 C65 0.930 . S
Mn72 O77 2.095 . S
Mn72 O87 2.162 . S
Mn72 O88 2.297 . S
Mn72 O96 2.385 . S
Mn72 O97 2.209 . S
Mn72 O98 2.094 . S
Mn73 O78 2.121 . S
Mn73 N80 2.257 . S
Mn73 N89 2.282 . S
Mn73 O97 2.215 . S
Mn73 O99 2.117 . S
C74 O96 1.234 . S
C74 O97 1.283 . S
C75 O87 1.281 . S
C75 O88 1.236 . S
C76 O98 1.240 . S
C76 O99 1.264 . S
O77 Mn72 2.095 . S
O77 C86 1.250 . S
O78 Mn73 2.121 . S
O78 C86 1.258 . S
C79 N80 1.326 . S
C79 C83 1.460 . S
C79 H85 0.929 . S
N80 Mn73 2.257 . S
N80 C79 1.326 . S
N80 C84 1.362 . S
C81 C82 1.258 . S
C81 C84 1.431 . S
C81 C101 1.449 . S
C82 C81 1.258 . S
C82 C83 1.477 . S
C82 H102 0.931 . S
C83 C79 1.460 . S
C83 C82 1.477 . S
C83 H103 0.930 . S
C84 N80 1.362 . S
C84 C81 1.431 . S
C84 C94 1.476 . S
H85 C79 0.929 . S
C86 O77 1.250 . S
C86 O78 1.258 . S
O87 Mn72 2.162 . S
O87 C75 1.281 . S
O88 Mn72 2.297 . S
O88 C75 1.236 . S
N89 Mn73 2.282 . S
N89 C90 1.328 . S
N89 C94 1.318 . S
C90 N89 1.328 . S
C90 C91 1.457 . S
C90 H95 0.929 . S
C91 C90 1.457 . S
C91 C92 1.291 . S
C91 H104 0.931 . S
C92 C91 1.291 . S
C92 C93 1.373 . S
C92 H105 0.929 1_556 S
C93 C92 1.373 . S
C93 C94 1.396 . S
C93 C100 1.403 . S
C94 C84 1.476 . S
C94 N89 1.318 . S
C94 C93 1.396 . S
H95 C90 0.929 . S
O96 Mn72 2.385 . S
O96 C74 1.234 . S
O97 Mn72 2.209 . S
O97 Mn73 2.215 . S
O97 C74 1.283 . S
O98 Mn72 2.094 . S
O98 C76 1.240 . S
O99 Mn73 2.117 . S
O99 C76 1.264 . S
C100 C93 1.403 . S
C100 C101 1.399 . S
C100 H106 0.929 . S
C101 C81 1.449 . S
C101 C100 1.399 . S
C101 H107 0.930 . S
H102 C82 0.931 . S
H103 C83 0.930 . S
H104 C91 0.931 . S
H105 C92 0.929 1_554 S
H106 C100 0.929 . S
H107 C101 0.930 . S
Mn108 O113 2.095 1_554 S
Mn108 O123 2.162 . S
Mn108 O124 2.297 . S
Mn108 O132 2.385 . S
Mn108 O133 2.209 . S
Mn108 O134 2.094 . S
Mn109 O114 2.121 1_554 S
Mn109 N116 2.257 . S
Mn109 N125 2.282 . S
Mn109 O133 2.215 . S
Mn109 O135 2.117 . S
C110 O132 1.234 . S
C110 O133 1.283 . S
C111 O123 1.281 . S
C111 O124 1.236 . S
C112 O134 1.240 . S
C112 O135 1.264 . S
O113 Mn108 2.095 1_556 S
O113 C122 1.250 . S
O114 Mn109 2.121 1_556 S
O114 C122 1.258 . S
C115 N116 1.326 . S
C115 C119 1.460 . S
C115 H121 0.929 . S
N116 Mn109 2.257 . S
N116 C115 1.326 . S
N116 C120 1.362 . S
C117 C118 1.258 . S
C117 C120 1.431 . S
C117 C137 1.449 . S
C118 C117 1.258 . S
C118 C119 1.477 . S
C118 H138 0.931 . S
C119 C115 1.460 . S
C119 C118 1.477 . S
C119 H139 0.930 . S
C120 N116 1.362 . S
C120 C117 1.431 . S
C120 C130 1.476 . S
H121 C115 0.929 . S
C122 O113 1.250 . S
C122 O114 1.258 . S
O123 Mn108 2.162 . S
O123 C111 1.281 . S
O124 Mn108 2.297 . S
O124 C111 1.236 . S
N125 Mn109 2.282 . S
N125 C126 1.328 . S
N125 C130 1.318 . S
C126 N125 1.328 . S
C126 C127 1.457 . S
C126 H131 0.929 . S
C127 C126 1.457 . S
C127 C128 1.291 . S
C127 H140 0.931 . S
C128 C127 1.291 . S
C128 C129 1.373 . S
C128 H141 0.929 . S
C129 C128 1.373 . S
C129 C130 1.396 . S
C129 C136 1.403 . S
C130 C120 1.476 . S
C130 N125 1.318 . S
C130 C129 1.396 . S
H131 C126 0.929 . S
O132 Mn108 2.385 . S
O132 C110 1.234 . S
O133 Mn108 2.209 . S
O133 Mn109 2.215 . S
O133 C110 1.283 . S
O134 Mn108 2.094 . S
O134 C112 1.240 . S
O135 Mn109 2.117 . S
O135 C112 1.264 . S
C136 C129 1.403 . S
C136 C137 1.399 . S
C136 H142 0.929 . S
C137 C117 1.449 . S
C137 C136 1.399 . S
C137 H143 0.930 . S
H138 C118 0.931 . S
H139 C119 0.930 . S
H140 C127 0.931 . S
H141 C128 0.929 . S
H142 C136 0.929 . S
H143 C137 0.930 . S
Mn144 O149 2.095 . S
Mn144 O159 2.162 1_554 S
Mn144 O160 2.297 1_554 S
Mn144 O168 2.385 1_554 S
Mn144 O169 2.209 1_554 S
Mn144 O170 2.094 . S
Mn145 O150 2.121 . S
Mn145 N152 2.259 . S
Mn145 N161 2.282 1_554 S
Mn145 O169 2.215 1_554 S
Mn145 O171 2.117 . S
C146 O168 1.234 . S
C146 O169 1.283 . S
C147 O159 1.281 . S
C147 O160 1.236 . S
C148 O170 1.240 . S
C148 O171 1.264 . S
O149 Mn144 2.095 . S
O149 C158 1.250 . S
O150 Mn145 2.121 . S
O150 C158 1.258 . S
C151 N152 1.332 . S
C151 C155 1.460 . S
C151 H157 0.929 . S
N152 Mn145 2.259 . S
N152 C151 1.332 . S
N152 C156 1.355 1_554 S
C153 C154 1.258 . S
C153 C156 1.431 . S
C153 C173 1.449 . S
C154 C153 1.258 . S
C154 C155 1.477 1_556 S
C154 H174 0.931 . S
C155 C151 1.460 . S
C155 C154 1.477 1_554 S
C155 H175 0.930 . S
C156 N152 1.355 1_556 S
C156 C153 1.431 . S
C156 C166 1.476 . S
H157 C151 0.929 . S
C158 O149 1.250 . S
C158 O150 1.258 . S
O159 Mn144 2.162 1_556 S
O159 C147 1.281 . S
O160 Mn144 2.297 1_556 S
O160 C147 1.236 . S
N161 Mn145 2.282 1_556 S
N161 C162 1.328 . S
N161 C166 1.318 . S
C162 N161 1.328 . S
C162 C163 1.457 . S
C162 H167 0.929 . S
C163 C162 1.457 . S
C163 C164 1.291 . S
C163 H176 0.931 . S
C164 C163 1.291 . S
C164 C165 1.373 . S
C164 H177 0.929 . S
C165 C164 1.373 . S
C165 C166 1.396 . S
C165 C172 1.403 . S
C166 C156 1.476 . S
C166 N161 1.318 . S
C166 C165 1.396 . S
H167 C162 0.929 . S
O168 Mn144 2.385 1_556 S
O168 C146 1.234 . S
O169 Mn144 2.209 1_556 S
O169 Mn145 2.215 1_556 S
O169 C146 1.283 . S
O170 Mn144 2.094 . S
O170 C148 1.240 . S
O171 Mn145 2.117 . S
O171 C148 1.264 . S
C172 C165 1.403 . S
C172 C173 1.399 . S
C172 H178 0.929 . S
C173 C153 1.449 . S
C173 C172 1.399 . S
C173 H179 0.930 . S
H174 C154 0.931 . S
H175 C155 0.930 . S
H176 C163 0.931 . S
H177 C164 0.929 . S
H178 C172 0.929 . S
H179 C173 0.930 . S
Mn180 O185 2.095 . S
Mn180 O195 2.162 . S
Mn180 O196 2.297 . S
Mn180 O204 2.385 . S
Mn180 O205 2.209 . S
Mn180 O206 2.094 . S
Mn181 O186 2.121 . S
Mn181 N188 2.257 . S
Mn181 N197 2.282 . S
Mn181 O205 2.215 . S
Mn181 O207 2.117 . S
C182 O204 1.234 . S
C182 O205 1.283 . S
C183 O195 1.281 . S
C183 O196 1.236 . S
C184 O206 1.240 . S
C184 O207 1.264 . S
O185 Mn180 2.095 . S
O185 C194 1.250 . S
O186 Mn181 2.121 . S
O186 C194 1.258 . S
C187 N188 1.326 . S
C187 C191 1.460 . S
C187 H193 0.929 . S
N188 Mn181 2.257 . S
N188 C187 1.326 . S
N188 C192 1.362 . S
C189 C190 1.258 . S
C189 C192 1.431 . S
C189 C209 1.449 . S
C190 C189 1.258 . S
C190 C191 1.477 . S
C190 H210 0.931 . S
C191 C187 1.460 . S
C191 C190 1.477 . S
C191 H211 0.930 . S
C192 N188 1.362 . S
C192 C189 1.431 . S
C192 C202 1.476 . S
H193 C187 0.929 . S
C194 O185 1.250 . S
C194 O186 1.258 . S
O195 Mn180 2.162 . S
O195 C183 1.281 . S
O196 Mn180 2.297 . S
O196 C183 1.236 . S
N197 Mn181 2.282 . S
N197 C198 1.328 . S
N197 C202 1.318 . S
C198 N197 1.328 . S
C198 C199 1.457 . S
C198 H203 0.929 . S
C199 C198 1.457 . S
C199 C200 1.291 . S
C199 H212 0.931 . S
C200 C199 1.291 . S
C200 C201 1.373 . S
C200 H213 0.929 . S
C201 C200 1.373 . S
C201 C202 1.396 . S
C201 C208 1.403 . S
C202 C192 1.476 . S
C202 N197 1.318 . S
C202 C201 1.396 . S
H203 C198 0.929 . S
O204 Mn180 2.385 . S
O204 C182 1.234 . S
O205 Mn180 2.209 . S
O205 Mn181 2.215 . S
O205 C182 1.283 . S
O206 Mn180 2.094 . S
O206 C184 1.240 . S
O207 Mn181 2.117 . S
O207 C184 1.264 . S
C208 C201 1.403 . S
C208 C209 1.399 . S
C208 H214 0.929 . S
C209 C189 1.449 . S
C209 C208 1.399 . S
C209 H215 0.930 . S
H210 C190 0.931 . S
H211 C191 0.930 . S
H212 C199 0.931 . S
H213 C200 0.929 . S
H214 C208 0.929 . S
H215 C209 0.930 . S
Mn216 O221 2.095 . S
Mn216 O231 2.162 . S
Mn216 O232 2.297 . S
Mn216 O240 2.385 . S
Mn216 O241 2.209 . S
Mn216 O242 2.094 . S
Mn217 O222 2.121 . S
Mn217 N224 2.257 . S
Mn217 N233 2.282 . S
Mn217 O241 2.215 . S
Mn217 O243 2.117 . S
C218 O240 1.234 . S
C218 O241 1.283 . S
C219 O231 1.281 . S
C219 O232 1.236 . S
C220 O242 1.240 . S
C220 O243 1.264 . S
O221 Mn216 2.095 . S
O221 C230 1.250 . S
O222 Mn217 2.121 . S
O222 C230 1.258 . S
C223 N224 1.326 . S
C223 C227 1.460 . S
C223 H229 0.929 . S
N224 Mn217 2.257 . S
N224 C223 1.326 . S
N224 C228 1.362 . S
C225 C226 1.258 . S
C225 C228 1.431 . S
C225 C245 1.449 . S
C226 C225 1.258 . S
C226 C227 1.477 . S
C226 H246 0.931 . S
C227 C223 1.460 . S
C227 C226 1.477 . S
C227 H247 0.930 . S
C228 N224 1.362 . S
C228 C225 1.431 . S
C228 C238 1.476 . S
H229 C223 0.929 . S
C230 O221 1.250 . S
C230 O222 1.258 . S
O231 Mn216 2.162 . S
O231 C219 1.281 . S
O232 Mn216 2.297 . S
O232 C219 1.236 . S
N233 Mn217 2.282 . S
N233 C234 1.328 . S
N233 C238 1.318 . S
C234 N233 1.328 . S
C234 C235 1.457 . S
C234 H239 0.929 . S
C235 C234 1.457 . S
C235 C236 1.291 . S
C235 H248 0.931 . S
C236 C235 1.291 . S
C236 C237 1.373 . S
C236 H249 0.929 . S
C237 C236 1.373 . S
C237 C238 1.396 . S
C237 C244 1.403 . S
C238 C228 1.476 . S
C238 N233 1.318 . S
C238 C237 1.396 . S
H239 C234 0.929 . S
O240 Mn216 2.385 . S
O240 C218 1.234 . S
O241 Mn216 2.209 . S
O241 Mn217 2.215 . S
O241 C218 1.283 . S
O242 Mn216 2.094 . S
O242 C220 1.240 . S
O243 Mn217 2.117 . S
O243 C220 1.264 . S
C244 C237 1.403 . S
C244 C245 1.399 . S
C244 H250 0.929 . S
C245 C225 1.449 . S
C245 C244 1.399 . S
C245 H251 0.930 . S
H246 C226 0.931 . S
H247 C227 0.930 . S
H248 C235 0.931 . S
H249 C236 0.929 . S
H250 C244 0.929 . S
H251 C245 0.930 . S
Mn252 O257 2.095 . S
Mn252 O267 2.162 . S
Mn252 O268 2.297 . S
Mn252 O276 2.385 . S
Mn252 O277 2.209 . S
Mn252 O278 2.094 . S
Mn253 O258 2.121 . S
Mn253 N260 2.257 . S
Mn253 N269 2.282 . S
Mn253 O277 2.215 . S
Mn253 O279 2.117 . S
C254 O276 1.234 . S
C254 O277 1.283 . S
C255 O267 1.281 . S
C255 O268 1.236 . S
C256 O278 1.240 . S
C256 O279 1.264 . S
O257 Mn252 2.095 . S
O257 C266 1.250 . S
O258 Mn253 2.121 . S
O258 C266 1.258 . S
C259 N260 1.326 . S
C259 C263 1.460 . S
C259 H265 0.929 . S
N260 Mn253 2.257 . S
N260 C259 1.326 . S
N260 C264 1.362 . S
C261 C262 1.258 . S
C261 C264 1.431 . S
C261 C281 1.449 . S
C262 C261 1.258 . S
C262 C263 1.477 . S
C262 H282 0.931 . S
C263 C259 1.460 . S
C263 C262 1.477 . S
C263 H283 0.930 . S
C264 N260 1.362 . S
C264 C261 1.431 . S
C264 C274 1.476 . S
H265 C259 0.929 . S
C266 O257 1.250 . S
C266 O258 1.258 . S
O267 Mn252 2.162 . S
O267 C255 1.281 . S
O268 Mn252 2.297 . S
O268 C255 1.236 . S
N269 Mn253 2.282 . S
N269 C270 1.328 . S
N269 C274 1.318 . S
C270 N269 1.328 . S
C270 C271 1.457 . S
C270 H275 0.929 . S
C271 C270 1.457 . S
C271 C272 1.291 . S
C271 H284 0.931 . S
C272 C271 1.291 . S
C272 C273 1.373 . S
C272 H285 0.929 . S
C273 C272 1.373 . S
C273 C274 1.396 . S
C273 C280 1.403 . S
C274 C264 1.476 . S
C274 N269 1.318 . S
C274 C273 1.396 . S
H275 C270 0.929 . S
O276 Mn252 2.385 . S
O276 C254 1.234 . S
O277 Mn252 2.209 . S
O277 Mn253 2.215 . S
O277 C254 1.283 . S
O278 Mn252 2.094 . S
O278 C256 1.240 . S
O279 Mn253 2.117 . S
O279 C256 1.264 . S
C280 C273 1.403 . S
C280 C281 1.399 . S
C280 H286 0.929 . S
C281 C261 1.449 . S
C281 C280 1.399 . S
C281 H287 0.930 . S
H282 C262 0.931 . S
H283 C263 0.930 . S
H284 C271 0.931 . S
H285 C272 0.929 . S
H286 C280 0.929 . S
H287 C281 0.930 . S
Mn288 O293 2.095 . S
Mn288 O303 2.162 . S
Mn288 O304 2.297 . S
Mn288 O312 2.385 . S
Mn288 O313 2.209 . S
Mn288 O314 2.094 . S
Mn289 O294 2.121 . S
Mn289 N296 2.257 . S
Mn289 N305 2.282 . S
Mn289 O313 2.215 . S
Mn289 O315 2.117 . S
C290 O312 1.234 . S
C290 O313 1.283 . S
C291 O303 1.281 . S
C291 O304 1.236 . S
C292 O314 1.240 . S
C292 O315 1.264 . S
O293 Mn288 2.095 . S
O293 C302 1.250 . S
O294 Mn289 2.121 . S
O294 C302 1.258 . S
C295 N296 1.326 . S
C295 C299 1.460 . S
C295 H301 0.929 . S
N296 Mn289 2.257 . S
N296 C295 1.326 . S
N296 C300 1.362 . S
C297 C298 1.258 . S
C297 C300 1.431 . S
C297 C317 1.449 . S
C298 C297 1.258 . S
C298 C299 1.477 . S
C298 H318 0.931 . S
C299 C295 1.460 . S
C299 C298 1.477 . S
C299 H319 0.930 . S
C300 N296 1.362 . S
C300 C297 1.431 . S
C300 C310 1.476 . S
H301 C295 0.929 . S
C302 O293 1.250 . S
C302 O294 1.258 . S
O303 Mn288 2.162 . S
O303 C291 1.281 . S
O304 Mn288 2.297 . S
O304 C291 1.236 . S
N305 Mn289 2.282 . S
N305 C306 1.328 . S
N305 C310 1.318 . S
C306 N305 1.328 . S
C306 C307 1.457 . S
C306 H311 0.929 . S
C307 C306 1.457 . S
C307 C308 1.291 . S
C307 H320 0.931 . S
C308 C307 1.291 . S
C308 C309 1.373 . S
C308 H321 0.929 1_556 S
C309 C308 1.373 . S
C309 C310 1.396 . S
C309 C316 1.403 . S
C310 C300 1.476 . S
C310 N305 1.318 . S
C310 C309 1.396 . S
H311 C306 0.929 . S
O312 Mn288 2.385 . S
O312 C290 1.234 . S
O313 Mn288 2.209 . S
O313 Mn289 2.215 . S
O313 C290 1.283 . S
O314 Mn288 2.094 . S
O314 C292 1.240 . S
O315 Mn289 2.117 . S
O315 C292 1.264 . S
C316 C309 1.403 . S
C316 C317 1.399 . S
C316 H322 0.929 . S
C317 C297 1.449 . S
C317 C316 1.399 . S
C317 H323 0.930 . S
H318 C298 0.931 . S
H319 C299 0.930 . S
H320 C307 0.931 . S
H321 C308 0.929 1_554 S
H322 C316 0.929 . S
H323 C317 0.930 . S
Mn324 O329 2.095 1_554 S
Mn324 O339 2.162 . S
Mn324 O340 2.297 . S
Mn324 O348 2.385 . S
Mn324 O349 2.209 . S
Mn324 O350 2.094 . S
Mn325 O330 2.121 1_554 S
Mn325 N332 2.257 . S
Mn325 N341 2.282 . S
Mn325 O349 2.215 . S
Mn325 O351 2.117 . S
C326 O348 1.234 . S
C326 O349 1.283 . S
C327 O339 1.281 . S
C327 O340 1.236 . S
C328 O350 1.240 . S
C328 O351 1.264 . S
O329 Mn324 2.095 1_556 S
O329 C338 1.250 . S
O330 Mn325 2.121 1_556 S
O330 C338 1.258 . S
C331 N332 1.326 . S
C331 C335 1.460 . S
C331 H337 0.929 . S
N332 Mn325 2.257 . S
N332 C331 1.326 . S
N332 C336 1.362 . S
C333 C334 1.258 . S
C333 C336 1.431 . S
C333 C353 1.449 . S
C334 C333 1.258 . S
C334 C335 1.477 . S
C334 H354 0.931 . S
C335 C331 1.460 . S
C335 C334 1.477 . S
C335 H355 0.930 . S
C336 N332 1.362 . S
C336 C333 1.431 . S
C336 C346 1.476 . S
H337 C331 0.929 . S
C338 O329 1.250 . S
C338 O330 1.258 . S
O339 Mn324 2.162 . S
O339 C327 1.281 . S
O340 Mn324 2.297 . S
O340 C327 1.236 . S
N341 Mn325 2.282 . S
N341 C342 1.328 . S
N341 C346 1.318 . S
C342 N341 1.328 . S
C342 C343 1.457 . S
C342 H347 0.929 . S
C343 C342 1.457 . S
C343 C344 1.291 . S
C343 H356 0.931 . S
C344 C343 1.291 . S
C344 C345 1.373 . S
C344 H357 0.929 . S
C345 C344 1.373 . S
C345 C346 1.396 . S
C345 C352 1.403 . S
C346 C336 1.476 . S
C346 N341 1.318 . S
C346 C345 1.396 . S
H347 C342 0.929 . S
O348 Mn324 2.385 . S
O348 C326 1.234 . S
O349 Mn324 2.209 . S
O349 Mn325 2.215 . S
O349 C326 1.283 . S
O350 Mn324 2.094 . S
O350 C328 1.240 . S
O351 Mn325 2.117 . S
O351 C328 1.264 . S
C352 C345 1.403 . S
C352 C353 1.399 . S
C352 H358 0.929 . S
C353 C333 1.449 . S
C353 C352 1.399 . S
C353 H359 0.930 . S
H354 C334 0.931 . S
H355 C335 0.930 . S
H356 C343 0.931 . S
H357 C344 0.929 . S
H358 C352 0.929 . S
H359 C353 0.930 . S
Mn360 O365 2.095 . S
Mn360 O375 2.162 . S
Mn360 O376 2.297 . S
Mn360 O384 2.385 . S
Mn360 O385 2.209 . S
Mn360 O386 2.094 . S
Mn361 O366 2.121 . S
Mn361 N368 2.257 . S
Mn361 N377 2.282 . S
Mn361 O385 2.215 . S
Mn361 O387 2.117 . S
C362 O384 1.234 . S
C362 O385 1.283 . S
C363 O375 1.281 . S
C363 O376 1.236 . S
C364 O386 1.240 . S
C364 O387 1.264 . S
O365 Mn360 2.095 . S
O365 C374 1.250 . S
O366 Mn361 2.121 . S
O366 C374 1.258 . S
C367 N368 1.326 . S
C367 C371 1.460 . S
C367 H373 0.929 . S
N368 Mn361 2.257 . S
N368 C367 1.326 . S
N368 C372 1.362 . S
C369 C370 1.258 . S
C369 C372 1.431 . S
C369 C389 1.449 . S
C370 C369 1.258 . S
C370 C371 1.477 . S
C370 H390 0.931 . S
C371 C367 1.460 . S
C371 C370 1.477 . S
C371 H391 0.930 . S
C372 N368 1.362 . S
C372 C369 1.431 . S
C372 C382 1.476 . S
H373 C367 0.929 . S
C374 O365 1.250 . S
C374 O366 1.258 . S
O375 Mn360 2.162 . S
O375 C363 1.281 . S
O376 Mn360 2.297 . S
O376 C363 1.236 . S
N377 Mn361 2.282 . S
N377 C378 1.328 . S
N377 C382 1.318 . S
C378 N377 1.328 . S
C378 C379 1.457 . S
C378 H383 0.929 . S
C379 C378 1.457 . S
C379 C380 1.291 . S
C379 H392 0.931 . S
C380 C379 1.291 . S
C380 C381 1.373 . S
C380 H393 0.929 . S
C381 C380 1.373 . S
C381 C382 1.396 . S
C381 C388 1.403 . S
C382 C372 1.476 . S
C382 N377 1.318 . S
C382 C381 1.396 . S
H383 C378 0.929 . S
O384 Mn360 2.385 . S
O384 C362 1.234 . S
O385 Mn360 2.209 . S
O385 Mn361 2.215 . S
O385 C362 1.283 . S
O386 Mn360 2.094 . S
O386 C364 1.240 . S
O387 Mn361 2.117 . S
O387 C364 1.264 . S
C388 C381 1.403 . S
C388 C389 1.399 . S
C388 H394 0.929 . S
C389 C369 1.449 . S
C389 C388 1.399 . S
C389 H395 0.930 . S
H390 C370 0.931 . S
H391 C371 0.930 . S
H392 C379 0.931 . S
H393 C380 0.929 . S
H394 C388 0.929 . S
H395 C389 0.930 . S
Mn396 O401 2.095 . S
Mn396 O411 2.162 . S
Mn396 O412 2.297 . S
Mn396 O420 2.385 . S
Mn396 O421 2.209 . S
Mn396 O422 2.094 . S
Mn397 O402 2.121 . S
Mn397 N404 2.257 . S
Mn397 N413 2.282 . S
Mn397 O421 2.215 . S
Mn397 O423 2.117 . S
C398 O420 1.234 . S
C398 O421 1.283 . S
C399 O411 1.281 . S
C399 O412 1.236 . S
C400 O422 1.240 . S
C400 O423 1.264 . S
O401 Mn396 2.095 . S
O401 C410 1.250 . S
O402 Mn397 2.121 . S
O402 C410 1.258 . S
C403 N404 1.326 . S
C403 C407 1.460 . S
C403 H409 0.929 . S
N404 Mn397 2.257 . S
N404 C403 1.326 . S
N404 C408 1.362 . S
C405 C406 1.258 . S
C405 C408 1.431 . S
C405 C425 1.449 . S
C406 C405 1.258 . S
C406 C407 1.477 . S
C406 H426 0.931 . S
C407 C403 1.460 . S
C407 C406 1.477 . S
C407 H427 0.930 . S
C408 N404 1.362 . S
C408 C405 1.431 . S
C408 C418 1.476 . S
H409 C403 0.929 . S
C410 O401 1.250 . S
C410 O402 1.258 . S
O411 Mn396 2.162 . S
O411 C399 1.281 . S
O412 Mn396 2.297 . S
O412 C399 1.236 . S
N413 Mn397 2.282 . S
N413 C414 1.328 . S
N413 C418 1.318 . S
C414 N413 1.328 . S
C414 C415 1.457 . S
C414 H419 0.929 . S
C415 C414 1.457 . S
C415 C416 1.291 . S
C415 H428 0.931 . S
C416 C415 1.291 . S
C416 C417 1.373 . S
C416 H429 0.929 . S
C417 C416 1.373 . S
C417 C418 1.396 . S
C417 C424 1.403 . S
C418 C408 1.476 . S
C418 N413 1.318 . S
C418 C417 1.396 . S
H419 C414 0.929 . S
O420 Mn396 2.385 . S
O420 C398 1.234 . S
O421 Mn396 2.209 . S
O421 Mn397 2.215 . S
O421 C398 1.283 . S
O422 Mn396 2.094 . S
O422 C400 1.240 . S
O423 Mn397 2.117 . S
O423 C400 1.264 . S
C424 C417 1.403 . S
C424 C425 1.399 . S
C424 H430 0.929 . S
C425 C405 1.449 . S
C425 C424 1.399 . S
C425 H431 0.930 . S
H426 C406 0.931 . S
H427 C407 0.930 . S
H428 C415 0.931 . S
H429 C416 0.929 . S
H430 C424 0.929 . S
H431 C425 0.930 . S
Mn432 O437 2.095 . S
Mn432 O447 2.162 . S
Mn432 O448 2.297 . S
Mn432 O456 2.385 . S
Mn432 O457 2.209 . S
Mn432 O458 2.094 . S
Mn433 O438 2.121 . S
Mn433 N440 2.257 . S
Mn433 N449 2.282 . S
Mn433 O457 2.215 . S
Mn433 O459 2.117 . S
C434 O456 1.234 . S
C434 O457 1.283 . S
C435 O447 1.281 . S
C435 O448 1.236 . S
C436 O458 1.240 . S
C436 O459 1.264 . S
O437 Mn432 2.095 . S
O437 C446 1.250 . S
O438 Mn433 2.121 . S
O438 C446 1.258 . S
C439 N440 1.326 . S
C439 C443 1.460 . S
C439 H445 0.929 . S
N440 Mn433 2.257 . S
N440 C439 1.326 . S
N440 C444 1.362 . S
C441 C442 1.258 . S
C441 C444 1.431 . S
C441 C461 1.449 . S
C442 C441 1.258 . S
C442 C443 1.477 . S
C442 H462 0.931 . S
C443 C439 1.460 . S
C443 C442 1.477 . S
C443 H463 0.930 . S
C444 N440 1.362 . S
C444 C441 1.431 . S
C444 C454 1.476 . S
H445 C439 0.929 . S
C446 O437 1.250 . S
C446 O438 1.258 . S
O447 Mn432 2.162 . S
O447 C435 1.281 . S
O448 Mn432 2.297 . S
O448 C435 1.236 . S
N449 Mn433 2.282 . S
N449 C450 1.328 . S
N449 C454 1.318 . S
C450 N449 1.328 . S
C450 C451 1.457 . S
C450 H455 0.929 . S
C451 C450 1.457 . S
C451 C452 1.291 . S
C451 H464 0.931 . S
C452 C451 1.291 . S
C452 C453 1.373 . S
C452 H465 0.929 . S
C453 C452 1.373 . S
C453 C454 1.396 . S
C453 C460 1.403 . S
C454 C444 1.476 . S
C454 N449 1.318 . S
C454 C453 1.396 . S
H455 C450 0.929 . S
O456 Mn432 2.385 . S
O456 C434 1.234 . S
O457 Mn432 2.209 . S
O457 Mn433 2.215 . S
O457 C434 1.283 . S
O458 Mn432 2.094 . S
O458 C436 1.240 . S
O459 Mn433 2.117 . S
O459 C436 1.264 . S
C460 C453 1.403 . S
C460 C461 1.399 . S
C460 H466 0.929 . S
C461 C441 1.449 . S
C461 C460 1.399 . S
C461 H467 0.930 . S
H462 C442 0.931 . S
H463 C443 0.930 . S
H464 C451 0.931 . S
H465 C452 0.929 . S
H466 C460 0.929 . S
H467 C461 0.930 . S
Mn468 O473 2.095 . S
Mn468 O483 2.162 . S
Mn468 O484 2.297 . S
Mn468 O492 2.385 . S
Mn468 O493 2.209 . S
Mn468 O494 2.094 . S
Mn469 O474 2.121 . S
Mn469 N476 2.257 . S
Mn469 N485 2.282 . S
Mn469 O493 2.215 . S
Mn469 O495 2.117 . S
C470 O492 1.234 . S
C470 O493 1.283 . S
C471 O483 1.281 . S
C471 O484 1.236 . S
C472 O494 1.240 . S
C472 O495 1.264 . S
O473 Mn468 2.095 . S
O473 C482 1.250 . S
O474 Mn469 2.121 . S
O474 C482 1.258 . S
C475 N476 1.326 . S
C475 C479 1.460 . S
C475 H481 0.929 . S
N476 Mn469 2.257 . S
N476 C475 1.326 . S
N476 C480 1.362 . S
C477 C478 1.258 . S
C477 C480 1.431 . S
C477 C497 1.449 . S
C478 C477 1.258 . S
C478 C479 1.477 . S
C478 H498 0.931 . S
C479 C475 1.460 . S
C479 C478 1.477 . S
C479 H499 0.930 . S
C480 N476 1.362 . S
C480 C477 1.431 . S
C480 C490 1.476 . S
H481 C475 0.929 . S
C482 O473 1.250 . S
C482 O474 1.258 . S
O483 Mn468 2.162 . S
O483 C471 1.281 . S
O484 Mn468 2.297 . S
O484 C471 1.236 . S
N485 Mn469 2.282 . S
N485 C486 1.328 . S
N485 C490 1.318 . S
C486 N485 1.328 . S
C486 C487 1.457 . S
C486 H491 0.929 . S
C487 C486 1.457 . S
C487 C488 1.291 . S
C487 H500 0.931 . S
C488 C487 1.291 . S
C488 C489 1.373 . S
C488 H501 0.929 . S
C489 C488 1.373 . S
C489 C490 1.396 . S
C489 C496 1.403 . S
C490 C480 1.476 . S
C490 N485 1.318 . S
C490 C489 1.396 . S
H491 C486 0.929 . S
O492 Mn468 2.385 . S
O492 C470 1.234 . S
O493 Mn468 2.209 . S
O493 Mn469 2.215 . S
O493 C470 1.283 . S
O494 Mn468 2.094 . S
O494 C472 1.240 . S
O495 Mn469 2.117 . S
O495 C472 1.264 . S
C496 C489 1.403 . S
C496 C497 1.399 . S
C496 H502 0.929 . S
C497 C477 1.449 . S
C497 C496 1.399 . S
C497 H503 0.930 . S
H498 C478 0.931 . S
H499 C479 0.930 . S
H500 C487 0.931 . S
H501 C488 0.929 . S
H502 C496 0.929 . S
H503 C497 0.930 . S
Mn504 O509 2.095 . S
Mn504 O519 2.162 1_554 S
Mn504 O520 2.297 1_554 S
Mn504 O528 2.385 1_554 S
Mn504 O529 2.209 1_554 S
Mn504 O530 2.094 . S
Mn505 O510 2.121 . S
Mn505 N512 2.259 . S
Mn505 N521 2.282 1_554 S
Mn505 O529 2.215 1_554 S
Mn505 O531 2.117 . S
C506 O528 1.234 . S
C506 O529 1.283 . S
C507 O519 1.281 . S
C507 O520 1.236 . S
C508 O530 1.240 . S
C508 O531 1.264 . S
O509 Mn504 2.095 . S
O509 C518 1.250 . S
O510 Mn505 2.121 . S
O510 C518 1.258 . S
C511 N512 1.332 . S
C511 C515 1.460 . S
C511 H517 0.929 . S
N512 Mn505 2.259 . S
N512 C511 1.332 . S
N512 C516 1.355 1_554 S
C513 C514 1.258 . S
C513 C516 1.431 . S
C513 C533 1.449 . S
C514 C513 1.258 . S
C514 C515 1.477 1_556 S
C514 H534 0.931 . S
C515 C511 1.460 . S
C515 C514 1.477 1_554 S
C515 H535 0.930 . S
C516 N512 1.355 1_556 S
C516 C513 1.431 . S
C516 C526 1.476 . S
H517 C511 0.929 . S
C518 O509 1.250 . S
C518 O510 1.258 . S
O519 Mn504 2.162 1_556 S
O519 C507 1.281 . S
O520 Mn504 2.297 1_556 S
O520 C507 1.236 . S
N521 Mn505 2.282 1_556 S
N521 C522 1.328 . S
N521 C526 1.318 . S
C522 N521 1.328 . S
C522 C523 1.457 . S
C522 H527 0.929 . S
C523 C522 1.457 . S
C523 C524 1.291 . S
C523 H536 0.931 . S
C524 C523 1.291 . S
C524 C525 1.373 . S
C524 H537 0.929 . S
C525 C524 1.373 . S
C525 C526 1.396 . S
C525 C532 1.403 . S
C526 C516 1.476 . S
C526 N521 1.318 . S
C526 C525 1.396 . S
H527 C522 0.929 . S
O528 Mn504 2.385 1_556 S
O528 C506 1.234 . S
O529 Mn504 2.209 1_556 S
O529 Mn505 2.215 1_556 S
O529 C506 1.283 . S
O530 Mn504 2.094 . S
O530 C508 1.240 . S
O531 Mn505 2.117 . S
O531 C508 1.264 . S
C532 C525 1.403 . S
C532 C533 1.399 . S
C532 H538 0.929 . S
C533 C513 1.449 . S
C533 C532 1.399 . S
C533 H539 0.930 . S
H534 C514 0.931 . S
H535 C515 0.930 . S
H536 C523 0.931 . S
H537 C524 0.929 . S
H538 C532 0.929 . S
H539 C533 0.930 . S
Mn540 O545 2.095 . S
Mn540 O555 2.162 . S
Mn540 O556 2.297 . S
Mn540 O564 2.385 . S
Mn540 O565 2.209 . S
Mn540 O566 2.094 . S
Mn541 O546 2.121 . S
Mn541 N548 2.257 . S
Mn541 N557 2.282 . S
Mn541 O565 2.215 . S
Mn541 O567 2.117 . S
C542 O564 1.234 . S
C542 O565 1.283 . S
C543 O555 1.281 . S
C543 O556 1.236 . S
C544 O566 1.240 . S
C544 O567 1.264 . S
O545 Mn540 2.095 . S
O545 C554 1.250 . S
O546 Mn541 2.121 . S
O546 C554 1.258 . S
C547 N548 1.326 . S
C547 C551 1.460 . S
C547 H553 0.929 . S
N548 Mn541 2.257 . S
N548 C547 1.326 . S
N548 C552 1.362 . S
C549 C550 1.258 . S
C549 C552 1.431 . S
C549 C569 1.449 . S
C550 C549 1.258 . S
C550 C551 1.477 . S
C550 H570 0.931 . S
C551 C547 1.460 . S
C551 C550 1.477 . S
C551 H571 0.930 . S
C552 N548 1.362 . S
C552 C549 1.431 . S
C552 C562 1.476 . S
H553 C547 0.929 . S
C554 O545 1.250 . S
C554 O546 1.258 . S
O555 Mn540 2.162 . S
O555 C543 1.281 . S
O556 Mn540 2.297 . S
O556 C543 1.236 . S
N557 Mn541 2.282 . S
N557 C558 1.328 . S
N557 C562 1.318 . S
C558 N557 1.328 . S
C558 C559 1.457 . S
C558 H563 0.929 . S
C559 C558 1.457 . S
C559 C560 1.291 . S
C559 H572 0.931 . S
C560 C559 1.291 . S
C560 C561 1.373 . S
C560 H573 0.929 . S
C561 C560 1.373 . S
C561 C562 1.396 . S
C561 C568 1.403 . S
C562 C552 1.476 . S
C562 N557 1.318 . S
C562 C561 1.396 . S
H563 C558 0.929 . S
O564 Mn540 2.385 . S
O564 C542 1.234 . S
O565 Mn540 2.209 . S
O565 Mn541 2.215 . S
O565 C542 1.283 . S
O566 Mn540 2.094 . S
O566 C544 1.240 . S
O567 Mn541 2.117 . S
O567 C544 1.264 . S
C568 C561 1.403 . S
C568 C569 1.399 . S
C568 H574 0.929 . S
C569 C549 1.449 . S
C569 C568 1.399 . S
C569 H575 0.930 . S
H570 C550 0.931 . S
H571 C551 0.930 . S
H572 C559 0.931 . S
H573 C560 0.929 . S
H574 C568 0.929 . S
H575 C569 0.930 . S
H576 C582 0.930 . S
H577 C586 0.930 . S
H578 C591 0.929 . S
H579 C589 0.929 . S
H580 C584 0.929 . S
H581 C590 0.929 . S
C582 H576 0.930 . S
C582 C583 1.367 . S
C582 C590 1.378 . S
C583 C582 1.367 . S
C583 C591 1.433 . S
C584 H580 0.929 . S
C584 C586 1.378 . S
C584 C588 1.350 . S
C585 C588 1.463 . S
C585 C590 1.350 . S
C585 N593 1.427 . S
C586 H577 0.930 . S
C586 C584 1.378 . S
C586 C587 1.367 . S
C587 C586 1.367 . S
C587 C589 1.433 . S
C588 C584 1.350 . S
C588 C585 1.463 . S
C588 N592 1.427 . S
C589 H579 0.929 . S
C589 C587 1.433 . S
C589 N592 1.384 . S
C590 H581 0.929 . S
C590 C582 1.378 . S
C590 C585 1.350 . S
C591 H578 0.929 . S
C591 C583 1.433 . S
C591 N593 1.384 . S
N592 C588 1.427 . S
N592 C589 1.384 . S
N593 C585 1.427 . S
N593 C591 1.384 . S
H594 C600 0.930 . S
H595 C604 0.930 . S
H596 C609 0.929 . S
H597 C607 0.929 . S
H598 C602 0.929 . S
H599 C608 0.929 . S
C600 H594 0.930 . S
C600 C601 1.367 . S
C600 C608 1.378 . S
C601 C600 1.367 . S
C601 C609 1.433 . S
C602 H598 0.929 . S
C602 C604 1.378 . S
C602 C606 1.350 . S
C603 C606 1.463 . S
C603 C608 1.350 . S
C603 N611 1.427 . S
C604 H595 0.930 . S
C604 C602 1.378 . S
C604 C605 1.367 . S
C605 C604 1.367 . S
C605 C607 1.433 . S
C606 C602 1.350 . S
C606 C603 1.463 . S
C606 N610 1.427 . S
C607 H597 0.929 . S
C607 C605 1.433 . S
C607 N610 1.384 . S
C608 H599 0.929 . S
C608 C600 1.378 . S
C608 C603 1.350 . S
C609 H596 0.929 . S
C609 C601 1.433 . S
C609 N611 1.384 . S
N610 C606 1.427 . S
N610 C607 1.384 . S
N611 C603 1.427 . S
N611 C609 1.384 . S
H612 C618 0.930 . S
H613 C622 0.930 . S
H614 C627 0.929 . S
H615 C625 0.929 1_554 S
H616 C620 0.929 . S
H617 C626 0.929 . S
C618 H612 0.930 . S
C618 C619 1.367 . S
C618 C626 1.378 . S
C619 C618 1.367 . S
C619 C627 1.433 . S
C620 H616 0.929 . S
C620 C622 1.378 . S
C620 C624 1.350 . S
C621 C624 1.463 . S
C621 C626 1.350 . S
C621 N629 1.427 . S
C622 H613 0.930 . S
C622 C620 1.378 . S
C622 C623 1.367 . S
C623 C622 1.367 . S
C623 C625 1.433 . S
C624 C620 1.350 . S
C624 C621 1.463 . S
C624 N628 1.427 . S
C625 H615 0.929 1_556 S
C625 C623 1.433 . S
C625 N628 1.384 . S
C626 H617 0.929 . S
C626 C618 1.378 . S
C626 C621 1.350 . S
C627 H614 0.929 . S
C627 C619 1.433 . S
C627 N629 1.384 . S
N628 C624 1.427 . S
N628 C625 1.384 . S
N629 C621 1.427 . S
N629 C627 1.384 . S
H630 C636 0.930 . S
H631 C640 0.930 . S
H632 C645 0.929 . S
H633 C643 0.929 . S
H634 C638 0.929 . S
H635 C644 0.929 . S
C636 H630 0.930 . S
C636 C637 1.367 . S
C636 C644 1.378 . S
C637 C636 1.367 . S
C637 C645 1.433 . S
C638 H634 0.929 . S
C638 C640 1.378 . S
C638 C642 1.350 . S
C639 C642 1.463 . S
C639 C644 1.350 . S
C639 N647 1.427 . S
C640 H631 0.930 . S
C640 C638 1.378 . S
C640 C641 1.367 . S
C641 C640 1.367 . S
C641 C643 1.433 . S
C642 C638 1.350 . S
C642 C639 1.463 . S
C642 N646 1.427 . S
C643 H633 0.929 . S
C643 C641 1.433 . S
C643 N646 1.384 . S
C644 H635 0.929 . S
C644 C636 1.378 . S
C644 C639 1.350 . S
C645 H632 0.929 . S
C645 C637 1.433 . S
C645 N647 1.384 . S
N646 C642 1.427 . S
N646 C643 1.384 . S
N647 C639 1.427 . S
N647 C645 1.384 . S
H648 C654 0.930 . S
H649 C658 0.930 . S
H650 C663 0.929 . S
H651 C661 0.929 . S
H652 C656 0.929 . S
H653 C662 0.929 . S
C654 H648 0.930 . S
C654 C655 1.367 . S
C654 C662 1.378 . S
C655 C654 1.367 . S
C655 C663 1.433 . S
C656 H652 0.929 . S
C656 C658 1.378 . S
C656 C660 1.350 . S
C657 C660 1.463 . S
C657 C662 1.350 . S
C657 N665 1.427 . S
C658 H649 0.930 . S
C658 C656 1.378 . S
C658 C659 1.367 . S
C659 C658 1.367 . S
C659 C661 1.433 . S
C660 C656 1.350 . S
C660 C657 1.463 . S
C660 N664 1.427 . S
C661 H651 0.929 . S
C661 C659 1.433 . S
C661 N664 1.384 . S
C662 H653 0.929 . S
C662 C654 1.378 . S
C662 C657 1.350 . S
C663 H650 0.929 . S
C663 C655 1.433 . S
C663 N665 1.384 . S
N664 C660 1.427 . S
N664 C661 1.384 . S
N665 C657 1.427 . S
N665 C663 1.384 . S
H666 C672 0.930 . S
H667 C676 0.930 . S
H668 C681 0.929 . S
H669 C679 0.929 . S
H670 C674 0.929 . S
H671 C680 0.929 . S
C672 H666 0.930 . S
C672 C673 1.367 . S
C672 C680 1.378 . S
C673 C672 1.367 . S
C673 C681 1.433 . S
C674 H670 0.929 . S
C674 C676 1.378 . S
C674 C678 1.350 . S
C675 C678 1.463 . S
C675 C680 1.350 . S
C675 N683 1.427 . S
C676 H667 0.930 . S
C676 C674 1.378 . S
C676 C677 1.367 . S
C677 C676 1.367 . S
C677 C679 1.433 . S
C678 C674 1.350 . S
C678 C675 1.463 . S
C678 N682 1.427 . S
C679 H669 0.929 . S
C679 C677 1.433 . S
C679 N682 1.384 . S
C680 H671 0.929 . S
C680 C672 1.378 . S
C680 C675 1.350 . S
C681 H668 0.929 . S
C681 C673 1.433 . S
C681 N683 1.384 . S
N682 C678 1.427 . S
N682 C679 1.384 . S
N683 C675 1.427 . S
N683 C681 1.384 . S
H684 C690 0.930 . S
H685 C694 0.930 . S
H686 C699 0.929 . S
H687 C697 0.929 . S
H688 C692 0.929 . S
H689 C698 0.929 . S
C690 H684 0.930 . S
C690 C691 1.367 . S
C690 C698 1.378 . S
C691 C690 1.367 . S
C691 C699 1.433 . S
C692 H688 0.929 . S
C692 C694 1.378 . S
C692 C696 1.350 . S
C693 C696 1.463 . S
C693 C698 1.350 . S
C693 N701 1.427 . S
C694 H685 0.930 . S
C694 C692 1.378 . S
C694 C695 1.367 . S
C695 C694 1.367 . S
C695 C697 1.433 . S
C696 C692 1.350 . S
C696 C693 1.463 . S
C696 N700 1.427 . S
C697 H687 0.929 . S
C697 C695 1.433 . S
C697 N700 1.384 . S
C698 H689 0.929 . S
C698 C690 1.378 . S
C698 C693 1.350 . S
C699 H686 0.929 . S
C699 C691 1.433 . S
C699 N701 1.384 . S
N700 C696 1.427 . S
N700 C697 1.384 . S
N701 C693 1.427 . S
N701 C699 1.384 . S
H702 C708 0.930 . S
H703 C712 0.930 . S
H704 C717 0.929 . S
H705 C715 0.929 . S
H706 C710 0.929 . S
H707 C716 0.929 . S
C708 H702 0.930 . S
C708 C709 1.367 . S
C708 C716 1.378 . S
C709 C708 1.367 . S
C709 C717 1.433 . S
C710 H706 0.929 . S
C710 C712 1.378 . S
C710 C714 1.350 . S
C711 C714 1.463 . S
C711 C716 1.350 . S
C711 N719 1.427 . S
C712 H703 0.930 . S
C712 C710 1.378 . S
C712 C713 1.367 . S
C713 C712 1.367 . S
C713 C715 1.433 . S
C714 C710 1.350 . S
C714 C711 1.463 . S
C714 N718 1.427 . S
C715 H705 0.929 . S
C715 C713 1.433 . S
C715 N718 1.384 . S
C716 H707 0.929 . S
C716 C708 1.378 . S
C716 C711 1.350 . S
C717 H704 0.929 . S
C717 C709 1.433 . S
C717 N719 1.384 . S
N718 C714 1.427 . S
N718 C715 1.384 . S
N719 C711 1.427 . S
N719 C717 1.384 . S
H720 C726 0.930 1_565 S
H721 C730 0.930 1_545 S
H722 C735 0.929 . S
H723 C733 0.929 . S
H724 C728 0.929 . S
H725 C734 0.929 . S
C726 H720 0.930 1_545 S
C726 C727 1.367 . S
C726 C734 1.378 1_545 S
C727 C726 1.367 . S
C727 C735 1.433 . S
C728 H724 0.929 . S
C728 C730 1.378 1_545 S
C728 C732 1.350 1_545 S
C729 C732 1.463 1_445 S
C729 C734 1.350 1_545 S
C729 N737 1.427 . S
C730 H721 0.930 1_565 S
C730 C728 1.378 1_565 S
C730 C731 1.367 . S
C731 C730 1.367 . S
C731 C733 1.433 . S
C732 C728 1.350 1_565 S
C732 C729 1.463 1_665 S
C732 N736 1.427 . S
C733 H723 0.929 . S
C733 C731 1.433 . S
C733 N736 1.384 . S
C734 H725 0.929 . S
C734 C726 1.378 1_565 S
C734 C729 1.350 1_565 S
C735 H722 0.929 . S
C735 C727 1.433 . S
C735 N737 1.384 . S
N736 C732 1.427 . S
N736 C733 1.384 . S
N737 C729 1.427 . S
N737 C735 1.384 . S
H738 C744 0.930 . S
H739 C748 0.930 . S
H740 C753 0.929 . S
H741 C751 0.929 . S
H742 C746 0.929 1_655 S
H743 C752 0.929 1_455 S
C744 H738 0.930 . S
C744 C745 1.367 . S
C744 C752 1.378 . S
C745 C744 1.367 . S
C745 C753 1.433 . S
C746 H742 0.929 1_455 S
C746 C748 1.378 . S
C746 C750 1.350 . S
C747 C750 1.463 1_655 S
C747 C752 1.350 . S
C747 N755 1.427 . S
C748 H739 0.930 . S
C748 C746 1.378 . S
C748 C749 1.367 . S
C749 C748 1.367 . S
C749 C751 1.433 . S
C750 C746 1.350 . S
C750 C747 1.463 1_455 S
C750 N754 1.427 . S
C751 H741 0.929 . S
C751 C749 1.433 . S
C751 N754 1.384 . S
C752 H743 0.929 1_655 S
C752 C744 1.378 . S
C752 C747 1.350 . S
C753 H740 0.929 . S
C753 C745 1.433 . S
C753 N755 1.384 . S
N754 C750 1.427 . S
N754 C751 1.384 . S
N755 C747 1.427 . S
N755 C753 1.384 . S
H756 C762 0.930 . S
H757 C766 0.930 . S
H758 C771 0.929 . S
H759 C769 0.929 . S
H760 C764 0.929 . S
H761 C770 0.929 . S
C762 H756 0.930 . S
C762 C763 1.367 . S
C762 C770 1.378 . S
C763 C762 1.367 . S
C763 C771 1.433 . S
C764 H760 0.929 . S
C764 C766 1.378 . S
C764 C768 1.350 . S
C765 C768 1.463 . S
C765 C770 1.350 . S
C765 N773 1.427 . S
C766 H757 0.930 . S
C766 C764 1.378 . S
C766 C767 1.367 . S
C767 C766 1.367 . S
C767 C769 1.433 . S
C768 C764 1.350 . S
C768 C765 1.463 . S
C768 N772 1.427 . S
C769 H759 0.929 . S
C769 C767 1.433 . S
C769 N772 1.384 . S
C770 H761 0.929 . S
C770 C762 1.378 . S
C770 C765 1.350 . S
C771 H758 0.929 . S
C771 C763 1.433 . S
C771 N773 1.384 . S
N772 C768 1.427 . S
N772 C769 1.384 . S
N773 C765 1.427 . S
N773 C771 1.384 . S
H774 C780 0.930 . S
H775 C784 0.930 . S
H776 C789 0.929 . S
H777 C787 0.929 . S
H778 C782 0.932 1_565 S
H779 C788 0.932 1_545 S
C780 H774 0.930 . S
C780 C781 1.367 . S
C780 C788 1.378 . S
C781 C780 1.367 . S
C781 C789 1.433 . S
C782 H778 0.932 1_545 S
C782 C784 1.378 . S
C782 C786 1.350 . S
C783 C786 1.463 1_565 S
C783 C788 1.350 . S
C783 N791 1.427 . S
C784 H775 0.930 . S
C784 C782 1.378 . S
C784 C785 1.367 . S
C785 C784 1.367 . S
C785 C787 1.433 . S
C786 C782 1.350 . S
C786 C783 1.463 1_545 S
C786 N790 1.427 . S
C787 H777 0.929 . S
C787 C785 1.433 . S
C787 N790 1.384 . S
C788 H779 0.932 1_565 S
C788 C780 1.378 . S
C788 C783 1.350 . S
C789 H776 0.929 . S
C789 C781 1.433 . S
C789 N791 1.384 . S
N790 C786 1.427 . S
N790 C787 1.384 . S
N791 C783 1.427 . S
N791 C789 1.384 . S
H792 C798 0.930 . S
H793 C802 0.930 . S
H794 C807 0.929 . S
H795 C805 0.929 . S
H796 C800 0.929 . S
H797 C806 0.929 . S
C798 H792 0.930 . S
C798 C799 1.367 1_556 S
C798 C806 1.378 . S
C799 C798 1.367 1_554 S
C799 C807 1.433 . S
C800 H796 0.929 . S
C800 C802 1.378 . S
C800 C804 1.350 . S
C801 C804 1.463 1_455 S
C801 C806 1.350 1_554 S
C801 N809 1.427 . S
C802 H793 0.930 . S
C802 C800 1.378 . S
C802 C803 1.367 . S
C803 C802 1.367 . S
C803 C805 1.433 1_554 S
C804 C800 1.350 . S
C804 C801 1.463 1_655 S
C804 N808 1.427 1_554 S
C805 H795 0.929 . S
C805 C803 1.433 1_556 S
C805 N808 1.384 . S
C806 H797 0.929 . S
C806 C798 1.378 . S
C806 C801 1.350 1_556 S
C807 H794 0.929 . S
C807 C799 1.433 . S
C807 N809 1.384 . S
N808 C804 1.427 1_556 S
N808 C805 1.384 . S
N809 C801 1.427 . S
N809 C807 1.384 . S
H810 C816 0.930 . S
H811 C820 0.930 . S
H812 C825 0.929 . S
H813 C823 0.929 . S
H814 C818 0.929 . S
H815 C824 0.929 . S
C816 H810 0.930 . S
C816 C817 1.367 . S
C816 C824 1.378 . S
C817 C816 1.367 . S
C817 C825 1.433 . S
C818 H814 0.929 . S
C818 C820 1.378 . S
C818 C822 1.350 . S
C819 C822 1.463 . S
C819 C824 1.350 . S
C819 N827 1.427 . S
C820 H811 0.930 . S
C820 C818 1.378 . S
C820 C821 1.367 . S
C821 C820 1.367 . S
C821 C823 1.433 . S
C822 C818 1.350 . S
C822 C819 1.463 . S
C822 N826 1.427 . S
C823 H813 0.929 . S
C823 C821 1.433 . S
C823 N826 1.384 . S
C824 H815 0.929 . S
C824 C816 1.378 . S
C824 C819 1.350 . S
C825 H812 0.929 . S
C825 C817 1.433 . S
C825 N827 1.384 . S
N826 C822 1.427 . S
N826 C823 1.384 . S
N827 C819 1.427 . S
N827 C825 1.384 . S
H828 C834 0.930 1_565 S
H829 C838 0.930 1_545 S
H830 C843 0.929 . S
H831 C841 0.929 . S
H832 C836 0.929 . S
H833 C842 0.929 . S
C834 H828 0.930 1_545 S
C834 C835 1.367 . S
C834 C842 1.378 1_545 S
C835 C834 1.367 . S
C835 C843 1.433 . S
C836 H832 0.929 . S
C836 C838 1.378 1_545 S
C836 C840 1.350 1_545 S
C837 C840 1.463 1_545 S
C837 C842 1.350 1_545 S
C837 N845 1.427 . S
C838 H829 0.930 1_565 S
C838 C836 1.378 1_565 S
C838 C839 1.367 . S
C839 C838 1.367 . S
C839 C841 1.433 . S
C840 C836 1.350 1_565 S
C840 C837 1.463 1_565 S
C840 N844 1.427 . S
C841 H831 0.929 . S
C841 C839 1.433 . S
C841 N844 1.384 . S
C842 H833 0.929 . S
C842 C834 1.378 1_565 S
C842 C837 1.350 1_565 S
C843 H830 0.929 . S
C843 C835 1.433 . S
C843 N845 1.384 . S
N844 C840 1.427 . S
N844 C841 1.384 . S
N845 C837 1.427 . S
N845 C843 1.384 . S
H846 C852 0.930 . S
H847 C856 0.930 . S
H848 C861 0.929 . S
H849 C859 0.929 . S
H850 C854 0.929 . S
H851 C860 0.929 . S
C852 H846 0.930 . S
C852 C853 1.367 . S
C852 C860 1.378 . S
C853 C852 1.367 . S
C853 C861 1.433 . S
C854 H850 0.929 . S
C854 C856 1.378 . S
C854 C858 1.350 . S
C855 C858 1.463 1_445 S
C855 C860 1.350 . S
C855 N863 1.427 1_455 S
C856 H847 0.930 . S
C856 C854 1.378 . S
C856 C857 1.367 . S
C857 C856 1.367 . S
C857 C859 1.433 . S
C858 C854 1.350 . S
C858 C855 1.463 1_665 S
C858 N862 1.427 1_655 S
C859 H849 0.929 . S
C859 C857 1.433 . S
C859 N862 1.384 1_655 S
C860 H851 0.929 . S
C860 C852 1.378 . S
C860 C855 1.350 . S
C861 H848 0.929 . S
C861 C853 1.433 . S
C861 N863 1.384 1_455 S
N862 C858 1.427 1_455 S
N862 C859 1.384 1_455 S
N863 C855 1.427 1_655 S
N863 C861 1.384 1_655 S
H864 C870 0.930 . S
H865 C874 0.930 . S
H866 C879 0.929 . S
H867 C877 0.929 . S
H868 C872 0.929 . S
H869 C878 0.929 . S
C870 H864 0.930 . S
C870 C871 1.367 . S
C870 C878 1.378 . S
C871 C870 1.367 . S
C871 C879 1.433 . S
C872 H868 0.929 . S
C872 C874 1.378 . S
C872 C876 1.350 . S
C873 C876 1.463 . S
C873 C878 1.350 . S
C873 N881 1.427 . S
C874 H865 0.930 . S
C874 C872 1.378 . S
C874 C875 1.367 . S
C875 C874 1.367 . S
C875 C877 1.433 . S
C876 C872 1.350 . S
C876 C873 1.463 . S
C876 N880 1.427 . S
C877 H867 0.929 . S
C877 C875 1.433 . S
C877 N880 1.384 . S
C878 H869 0.929 . S
C878 C870 1.378 . S
C878 C873 1.350 . S
C879 H866 0.929 . S
C879 C871 1.433 . S
C879 N881 1.384 . S
N880 C876 1.427 . S
N880 C877 1.384 . S
N881 C873 1.427 . S
N881 C879 1.384 . S
H882 C888 0.930 . S
H883 C892 0.930 . S
H884 C897 0.929 . S
H885 C895 0.929 . S
H886 C890 0.929 . S
H887 C896 0.929 . S
C888 H882 0.930 . S
C888 C889 1.367 . S
C888 C896 1.378 . S
C889 C888 1.367 . S
C889 C897 1.433 . S
C890 H886 0.929 . S
C890 C892 1.378 . S
C890 C894 1.350 . S
C891 C894 1.463 . S
C891 C896 1.350 . S
C891 N899 1.427 . S
C892 H883 0.930 . S
C892 C890 1.378 . S
C892 C893 1.367 . S
C893 C892 1.367 . S
C893 C895 1.433 . S
C894 C890 1.350 . S
C894 C891 1.463 . S
C894 N898 1.427 . S
C895 H885 0.929 . S
C895 C893 1.433 . S
C895 N898 1.384 . S
C896 H887 0.929 . S
C896 C888 1.378 . S
C896 C891 1.350 . S
C897 H884 0.929 . S
C897 C889 1.433 . S
C897 N899 1.384 . S
N898 C894 1.427 . S
N898 C895 1.384 . S
N899 C891 1.427 . S
N899 C897 1.384 . S
H900 C906 0.930 . S
H901 C910 0.930 . S
H902 C915 0.929 . S
H903 C913 0.929 . S
H904 C908 0.929 . S
H905 C914 0.929 . S
C906 H900 0.930 . S
C906 C907 1.367 . S
C906 C914 1.378 . S
C907 C906 1.367 . S
C907 C915 1.433 . S
C908 H904 0.929 . S
C908 C910 1.378 . S
C908 C912 1.350 1_556 S
C909 C912 1.463 . S
C909 C914 1.350 . S
C909 N917 1.427 . S
C910 H901 0.930 . S
C910 C908 1.378 . S
C910 C911 1.367 . S
C911 C910 1.367 . S
C911 C913 1.433 . S
C912 C908 1.350 1_554 S
C912 C909 1.463 . S
C912 N916 1.427 1_554 S
C913 H903 0.929 . S
C913 C911 1.433 . S
C913 N916 1.384 . S
C914 H905 0.929 . S
C914 C906 1.378 . S
C914 C909 1.350 . S
C915 H902 0.929 . S
C915 C907 1.433 . S
C915 N917 1.384 . S
N916 C912 1.427 1_556 S
N916 C913 1.384 . S
N917 C909 1.427 . S
N917 C915 1.384 . S
H918 C924 0.930 . S
H919 C928 0.930 . S
H920 C933 0.929 . S
H921 C931 0.929 . S
H922 C926 0.929 . S
H923 C932 0.929 . S
C924 H918 0.930 . S
C924 C925 1.367 . S
C924 C932 1.378 . S
C925 C924 1.367 . S
C925 C933 1.433 . S
C926 H922 0.929 . S
C926 C928 1.378 . S
C926 C930 1.350 . S
C927 C930 1.463 . S
C927 C932 1.350 . S
C927 N935 1.427 . S
C928 H919 0.930 . S
C928 C926 1.378 . S
C928 C929 1.367 . S
C929 C928 1.367 . S
C929 C931 1.433 . S
C930 C926 1.350 . S
C930 C927 1.463 . S
C930 N934 1.427 . S
C931 H921 0.929 . S
C931 C929 1.433 . S
C931 N934 1.384 . S
C932 H923 0.929 . S
C932 C924 1.378 . S
C932 C927 1.350 . S
C933 H920 0.929 . S
C933 C925 1.433 . S
C933 N935 1.384 . S
N934 C930 1.427 . S
N934 C931 1.384 . S
N935 C927 1.427 . S
N935 C933 1.384 . S
H936 C942 0.930 . S
H937 C946 0.930 . S
H938 C951 0.929 . S
H939 C949 0.929 . S
H940 C944 0.929 . S
H941 C950 0.929 . S
C942 H936 0.930 . S
C942 C943 1.367 . S
C942 C950 1.378 . S
C943 C942 1.367 . S
C943 C951 1.433 . S
C944 H940 0.929 . S
C944 C946 1.378 . S
C944 C948 1.350 . S
C945 C948 1.463 . S
C945 C950 1.350 . S
C945 N953 1.427 . S
C946 H937 0.930 . S
C946 C944 1.378 . S
C946 C947 1.367 . S
C947 C946 1.367 . S
C947 C949 1.433 . S
C948 C944 1.350 . S
C948 C945 1.463 . S
C948 N952 1.427 . S
C949 H939 0.929 . S
C949 C947 1.433 . S
C949 N952 1.384 . S
C950 H941 0.929 . S
C950 C942 1.378 . S
C950 C945 1.350 . S
C951 H938 0.929 . S
C951 C943 1.433 . S
C951 N953 1.384 . S
N952 C948 1.427 . S
N952 C949 1.384 . S
N953 C945 1.427 . S
N953 C951 1.384 . S
H954 C960 0.930 . S
H955 C964 0.930 . S
H956 C969 0.929 . S
H957 C967 0.929 . S
H958 C962 0.929 . S
H959 C968 0.929 . S
C960 H954 0.930 . S
C960 C961 1.367 . S
C960 C968 1.378 . S
C961 C960 1.367 . S
C961 C969 1.433 . S
C962 H958 0.929 . S
C962 C964 1.378 . S
C962 C966 1.350 1_556 S
C963 C966 1.463 . S
C963 C968 1.350 . S
C963 N971 1.427 . S
C964 H955 0.930 . S
C964 C962 1.378 . S
C964 C965 1.367 . S
C965 C964 1.367 . S
C965 C967 1.433 . S
C966 C962 1.350 1_554 S
C966 C963 1.463 . S
C966 N970 1.427 1_554 S
C967 H957 0.929 . S
C967 C965 1.433 . S
C967 N970 1.384 . S
C968 H959 0.929 . S
C968 C960 1.378 . S
C968 C963 1.350 . S
C969 H956 0.929 . S
C969 C961 1.433 . S
C969 N971 1.384 . S
N970 C966 1.427 1_556 S
N970 C967 1.384 . S
N971 C963 1.427 . S
N971 C969 1.384 . S
H972 C978 0.930 . S
H973 C982 0.930 . S
H974 C987 0.929 . S
H975 C985 0.929 . S
H976 C980 0.929 . S
H977 C986 0.929 . S
C978 H972 0.930 . S
C978 C979 1.367 . S
C978 C986 1.378 . S
C979 C978 1.367 . S
C979 C987 1.433 . S
C980 H976 0.929 . S
C980 C982 1.378 . S
C980 C984 1.350 . S
C981 C984 1.463 . S
C981 C986 1.350 . S
C981 N989 1.427 . S
C982 H973 0.930 . S
C982 C980 1.378 . S
C982 C983 1.367 . S
C983 C982 1.367 . S
C983 C985 1.433 . S
C984 C980 1.350 . S
C984 C981 1.463 . S
C984 N988 1.427 . S
C985 H975 0.929 . S
C985 C983 1.433 . S
C985 N988 1.384 . S
C986 H977 0.929 . S
C986 C978 1.378 . S
C986 C981 1.350 . S
C987 H974 0.929 . S
C987 C979 1.433 . S
C987 N989 1.384 . S
N988 C984 1.427 . S
N988 C985 1.384 . S
N989 C981 1.427 . S
N989 C987 1.384 . S
H990 C996 0.930 . S
H991 C1000 0.930 . S
H992 C1005 0.929 . S
H993 C1003 0.929 . S
H994 C998 0.929 . S
H995 C1004 0.929 . S
C996 H990 0.930 . S
C996 C997 1.367 . S
C996 C1004 1.378 . S
C997 C996 1.367 . S
C997 C1005 1.433 . S
C998 H994 0.929 . S
C998 C1000 1.378 . S
C998 C1002 1.350 . S
C999 C1002 1.463 . S
C999 C1004 1.350 . S
C999 N1007 1.427 . S
C1000 H991 0.930 . S
C1000 C998 1.378 . S
C1000 C1001 1.367 . S
C1001 C1000 1.367 . S
C1001 C1003 1.433 . S
C1002 C998 1.350 . S
C1002 C999 1.463 . S
C1002 N1006 1.427 . S
C1003 H993 0.929 . S
C1003 C1001 1.433 . S
C1003 N1006 1.384 . S
C1004 H995 0.929 . S
C1004 C996 1.378 . S
C1004 C999 1.350 . S
C1005 H992 0.929 . S
C1005 C997 1.433 . S
C1005 N1007 1.384 . S
N1006 C1002 1.427 . S
N1006 C1003 1.384 . S
N1007 C999 1.427 . S
N1007 C1005 1.384 . S
H1008 C1014 0.930 . S
H1009 C1018 0.930 . S
H1010 C1023 0.929 . S
H1011 C1021 0.929 . S
H1012 C1016 0.929 . S
H1013 C1022 0.929 . S
C1014 H1008 0.930 . S
C1014 C1015 1.367 . S
C1014 C1022 1.378 . S
C1015 C1014 1.367 . S
C1015 C1023 1.433 . S
C1016 H1012 0.929 . S
C1016 C1018 1.378 . S
C1016 C1020 1.350 . S
C1017 C1020 1.463 . S
C1017 C1022 1.350 1_554 S
C1017 N1025 1.427 1_554 S
C1018 H1009 0.930 . S
C1018 C1016 1.378 . S
C1018 C1019 1.367 . S
C1019 C1018 1.367 . S
C1019 C1021 1.433 . S
C1020 C1016 1.350 . S
C1020 C1017 1.463 . S
C1020 N1024 1.427 . S
C1021 H1011 0.929 . S
C1021 C1019 1.433 . S
C1021 N1024 1.384 . S
C1022 H1013 0.929 . S
C1022 C1014 1.378 . S
C1022 C1017 1.350 1_556 S
C1023 H1010 0.929 . S
C1023 C1015 1.433 . S
C1023 N1025 1.384 . S
N1024 C1020 1.427 . S
N1024 C1021 1.384 . S
N1025 C1017 1.427 1_556 S
N1025 C1023 1.384 . S
H1026 C1032 0.930 . S
H1027 C1036 0.930 . S
H1028 C1041 0.929 . S
H1029 C1039 0.929 . S
H1030 C1034 0.929 . S
H1031 C1040 0.929 . S
C1032 H1026 0.930 . S
C1032 C1033 1.367 . S
C1032 C1040 1.378 . S
C1033 C1032 1.367 . S
C1033 C1041 1.433 . S
C1034 H1030 0.929 . S
C1034 C1036 1.378 . S
C1034 C1038 1.350 . S
C1035 C1038 1.463 . S
C1035 C1040 1.350 . S
C1035 N1043 1.427 . S
C1036 H1027 0.930 . S
C1036 C1034 1.378 . S
C1036 C1037 1.367 . S
C1037 C1036 1.367 . S
C1037 C1039 1.433 . S
C1038 C1034 1.350 . S
C1038 C1035 1.463 . S
C1038 N1042 1.427 . S
C1039 H1029 0.929 . S
C1039 C1037 1.433 . S
C1039 N1042 1.384 . S
C1040 H1031 0.929 . S
C1040 C1032 1.378 . S
C1040 C1035 1.350 . S
C1041 H1028 0.929 . S
C1041 C1033 1.433 . S
C1041 N1043 1.384 . S
N1042 C1038 1.427 . S
N1042 C1039 1.384 . S
N1043 C1035 1.427 . S
N1043 C1041 1.384 . S
H1044 C1050 0.930 . S
H1045 C1054 0.930 . S
H1046 C1059 0.929 . S
H1047 C1057 0.929 . S
H1048 C1052 0.929 . S
H1049 C1058 0.929 . S
C1050 H1044 0.930 . S
C1050 C1051 1.367 . S
C1050 C1058 1.378 . S
C1051 C1050 1.367 . S
C1051 C1059 1.433 . S
C1052 H1048 0.929 . S
C1052 C1054 1.378 . S
C1052 C1056 1.350 . S
C1053 C1056 1.463 . S
C1053 C1058 1.350 . S
C1053 N1061 1.427 . S
C1054 H1045 0.930 . S
C1054 C1052 1.378 . S
C1054 C1055 1.367 . S
C1055 C1054 1.367 . S
C1055 C1057 1.433 . S
C1056 C1052 1.350 . S
C1056 C1053 1.463 . S
C1056 N1060 1.427 . S
C1057 H1047 0.929 . S
C1057 C1055 1.433 . S
C1057 N1060 1.384 . S
C1058 H1049 0.929 . S
C1058 C1050 1.378 . S
C1058 C1053 1.350 . S
C1059 H1046 0.929 . S
C1059 C1051 1.433 . S
C1059 N1061 1.384 . S
N1060 C1056 1.427 . S
N1060 C1057 1.384 . S
N1061 C1053 1.427 . S
N1061 C1059 1.384 . S
H1062 C1068 0.930 . S
H1063 C1072 0.930 . S
H1064 C1077 0.929 . S
H1065 C1075 0.929 . S
H1066 C1070 0.929 . S
H1067 C1076 0.929 . S
C1068 H1062 0.930 . S
C1068 C1069 1.367 . S
C1068 C1076 1.378 . S
C1069 C1068 1.367 . S
C1069 C1077 1.433 . S
C1070 H1066 0.929 . S
C1070 C1072 1.378 . S
C1070 C1074 1.350 . S
C1071 C1074 1.463 . S
C1071 C1076 1.350 . S
C1071 N1079 1.427 . S
C1072 H1063 0.930 . S
C1072 C1070 1.378 . S
C1072 C1073 1.367 . S
C1073 C1072 1.367 . S
C1073 C1075 1.433 . S
C1074 C1070 1.350 . S
C1074 C1071 1.463 . S
C1074 N1078 1.427 . S
C1075 H1065 0.929 . S
C1075 C1073 1.433 . S
C1075 N1078 1.384 . S
C1076 H1067 0.929 . S
C1076 C1068 1.378 . S
C1076 C1071 1.350 . S
C1077 H1064 0.929 . S
C1077 C1069 1.433 . S
C1077 N1079 1.384 . S
N1078 C1074 1.427 . S
N1078 C1075 1.384 . S
N1079 C1071 1.427 . S
N1079 C1077 1.384 . S
H1080 C1086 0.930 . S
H1081 C1090 0.930 . S
H1082 C1095 0.929 . S
H1083 C1093 0.929 . S
H1084 C1088 0.929 . S
H1085 C1094 0.929 . S
C1086 H1080 0.930 . S
C1086 C1087 1.367 . S
C1086 C1094 1.378 . S
C1087 C1086 1.367 . S
C1087 C1095 1.433 . S
C1088 H1084 0.929 . S
C1088 C1090 1.378 . S
C1088 C1092 1.350 . S
C1089 C1092 1.463 . S
C1089 C1094 1.350 . S
C1089 N1097 1.427 . S
C1090 H1081 0.930 . S
C1090 C1088 1.378 . S
C1090 C1091 1.367 . S
C1091 C1090 1.367 . S
C1091 C1093 1.433 . S
C1092 C1088 1.350 . S
C1092 C1089 1.463 . S
C1092 N1096 1.427 . S
C1093 H1083 0.929 . S
C1093 C1091 1.433 . S
C1093 N1096 1.384 . S
C1094 H1085 0.929 . S
C1094 C1086 1.378 . S
C1094 C1089 1.350 . S
C1095 H1082 0.929 . S
C1095 C1087 1.433 . S
C1095 N1097 1.384 . S
N1096 C1092 1.427 . S
N1096 C1093 1.384 . S
N1097 C1089 1.427 . S
N1097 C1095 1.384 . S
H1098 C1104 0.930 . S
H1099 C1108 0.930 . S
H1100 C1113 0.929 . S
H1101 C1111 0.929 . S
H1102 C1106 0.929 . S
H1103 C1112 0.929 . S
C1104 H1098 0.930 . S
C1104 C1105 1.367 . S
C1104 C1112 1.378 . S
C1105 C1104 1.367 . S
C1105 C1113 1.433 . S
C1106 H1102 0.929 . S
C1106 C1108 1.378 . S
C1106 C1110 1.350 . S
C1107 C1110 1.463 . S
C1107 C1112 1.350 . S
C1107 N1115 1.427 . S
C1108 H1099 0.930 . S
C1108 C1106 1.378 . S
C1108 C1109 1.367 . S
C1109 C1108 1.367 . S
C1109 C1111 1.433 . S
C1110 C1106 1.350 . S
C1110 C1107 1.463 . S
C1110 N1114 1.427 . S
C1111 H1101 0.929 . S
C1111 C1109 1.433 . S
C1111 N1114 1.384 . S
C1112 H1103 0.929 . S
C1112 C1104 1.378 . S
C1112 C1107 1.350 . S
C1113 H1100 0.929 . S
C1113 C1105 1.433 . S
C1113 N1115 1.384 . S
N1114 C1110 1.427 . S
N1114 C1111 1.384 . S
N1115 C1107 1.427 . S
N1115 C1113 1.384 . S
H1116 C1122 0.930 . S
H1117 C1126 0.930 . S
H1118 C1131 0.929 . S
H1119 C1129 0.929 . S
H1120 C1124 0.929 . S
H1121 C1130 0.929 . S
C1122 H1116 0.930 . S
C1122 C1123 1.367 . S
C1122 C1130 1.378 . S
C1123 C1122 1.367 . S
C1123 C1131 1.433 . S
C1124 H1120 0.929 . S
C1124 C1126 1.378 . S
C1124 C1128 1.350 . S
C1125 C1128 1.463 . S
C1125 C1130 1.350 . S
C1125 N1133 1.427 . S
C1126 H1117 0.930 . S
C1126 C1124 1.378 . S
C1126 C1127 1.367 . S
C1127 C1126 1.367 . S
C1127 C1129 1.433 . S
C1128 C1124 1.350 . S
C1128 C1125 1.463 . S
C1128 N1132 1.427 . S
C1129 H1119 0.929 . S
C1129 C1127 1.433 . S
C1129 N1132 1.384 . S
C1130 H1121 0.929 . S
C1130 C1122 1.378 . S
C1130 C1125 1.350 . S
C1131 H1118 0.929 . S
C1131 C1123 1.433 . S
C1131 N1133 1.384 . S
N1132 C1128 1.427 . S
N1132 C1129 1.384 . S
N1133 C1125 1.427 . S
N1133 C1131 1.384 . S
H1134 C1140 0.930 . S
H1135 C1144 0.930 . S
H1136 C1149 0.929 . S
H1137 C1147 0.929 . S
H1138 C1142 0.929 . S
H1139 C1148 0.929 . S
C1140 H1134 0.930 . S
C1140 C1141 1.367 . S
C1140 C1148 1.378 . S
C1141 C1140 1.367 . S
C1141 C1149 1.433 . S
C1142 H1138 0.929 . S
C1142 C1144 1.378 . S
C1142 C1146 1.350 1_556 S
C1143 C1146 1.463 . S
C1143 C1148 1.350 . S
C1143 N1151 1.427 . S
C1144 H1135 0.930 . S
C1144 C1142 1.378 . S
C1144 C1145 1.367 . S
C1145 C1144 1.367 . S
C1145 C1147 1.433 . S
C1146 C1142 1.350 1_554 S
C1146 C1143 1.463 . S
C1146 N1150 1.427 1_554 S
C1147 H1137 0.929 . S
C1147 C1145 1.433 . S
C1147 N1150 1.384 . S
C1148 H1139 0.929 . S
C1148 C1140 1.378 . S
C1148 C1143 1.350 . S
C1149 H1136 0.929 . S
C1149 C1141 1.433 . S
C1149 N1151 1.384 . S
N1150 C1146 1.427 1_556 S
N1150 C1147 1.384 . S
N1151 C1143 1.427 . S
N1151 C1149 1.384 . S
C583 C219 1.443 . S
C587 C3 1.444 . S
C601 C255 1.445 . S
C605 C39 1.443 . S
C619 C75 1.444 . S
C623 C147 1.445 . S
C637 C111 1.446 . S
C641 C183 1.448 . S
C655 C291 1.450 . S
C659 C507 1.448 . S
C673 C543 1.451 . S
C677 C327 1.452 . S
C691 C363 1.445 . S
C695 C435 1.447 . S
C709 C399 1.450 . S
C713 C471 1.451 . S
C727 C4 1.406 . S
C731 C364 1.405 . S
C745 C40 1.402 . S
C749 C400 1.400 . S
C763 C76 1.404 . S
C767 C292 1.405 . S
C781 C112 1.392 . S
C785 C328 1.391 . S
C799 C148 1.395 . S
C803 C508 1.397 . S
C817 C544 1.404 . S
C821 C184 1.403 . S
C835 C220 1.406 . S
C839 C436 1.405 . S
C853 C472 1.393 . S
C857 C256 1.395 . S
C871 C470 0.574 . S
C875 C2 0.553 . S
C889 C38 0.585 . S
C893 C506 0.564 . S
C907 C542 0.573 . S
C911 C74 0.552 . S
C925 C434 0.598 . S
C929 C110 0.591 . S
C943 C398 0.580 . S
C947 C146 0.596 . S
C961 C182 0.571 . S
C965 C290 0.551 . S
C979 C218 0.591 . S
C983 C326 0.598 . S
C997 C254 0.555 . S
C1001 C362 0.576 . S
C1015 C482 1.413 . S
C1019 C14 1.417 . S
C1033 C50 1.420 . S
C1037 C518 1.420 . S
C1051 C86 1.426 . S
C1055 C554 1.411 . S
C1069 C446 1.410 . S
C1073 C122 1.426 . S
C1087 C410 1.424 . S
C1091 C158 1.416 . S
C1105 C302 1.411 . S
C1109 C194 1.426 . S
C1123 C230 1.411 . S
C1127 C338 1.426 . S
C1141 C374 1.410 . S
C1145 C266 1.425 . S
