# Generated by pormake.
# Topology sxb, (6)-cn, num edge types: 1
# Building blocks:
#     Node 0, Type 0, BuildingBlock: FUNLAD_clean_sbu_0, # of connection points: 6
#     Node 1, Type 0, BuildingBlock: FUNLAD_clean_sbu_0, # of connection points: 6
#     Node 2, Type 0, BuildingBlock: FUNLAD_clean_sbu_0, # of connection points: 6
#     Node 3, Type 0, BuildingBlock: FUNLAD_clean_sbu_0, # of connection points: 6
#     Edge 4, Type (0, 0), BuildingBlock: CIFDUS_clean_linker_0, # of connection points: 2
#     Edge 5, Type (0, 0), BuildingBlock: CIFDUS_clean_linker_0, # of connection points: 2
#     Edge 6, Type (0, 0), BuildingBlock: CIFDUS_clean_linker_0, # of connection points: 2
#     Edge 7, Type (0, 0), BuildingBlock: CIFDUS_clean_linker_0, # of connection points: 2
#     Edge 8, Type (0, 0), BuildingBlock: CIFDUS_clean_linker_0, # of connection points: 2
#     Edge 9, Type (0, 0), BuildingBlock: CIFDUS_clean_linker_0, # of connection points: 2
#     Edge 10, Type (0, 0), BuildingBlock: CIFDUS_clean_linker_0, # of connection points: 2
#     Edge 11, Type (0, 0), BuildingBlock: CIFDUS_clean_linker_0, # of connection points: 2
#     Edge 12, Type (0, 0), BuildingBlock: CIFDUS_clean_linker_0, # of connection points: 2
#     Edge 13, Type (0, 0), BuildingBlock: CIFDUS_clean_linker_0, # of connection points: 2
#     Edge 14, Type (0, 0), BuildingBlock: CIFDUS_clean_linker_0, # of connection points: 2
#     Edge 15, Type (0, 0), BuildingBlock: CIFDUS_clean_linker_0, # of connection points: 2
# Relax obj value: 0.099
# Max RMSD: 0.152
# Mean RMSD: 0.152
data_MOF--net-sxb--node1-FUNLAD_clean_sbu_0--edge1-CIFDUS_clean_linker_0
_symmetry_space_group_name_H-M    P1
_symmetry_Int_Tables_number       1
_symmetry_cell_setting            triclinic
loop_
_symmetry_equiv_pos_as_xyz
'x, y, z'
_cell_length_a     13.071381
_cell_length_b     23.370671
_cell_length_c     39.733921
_cell_angle_alpha  89.947175
_cell_angle_beta   92.411281
_cell_angle_gamma 89.986669
loop_
_atom_site_label
_atom_site_type_symbol
_atom_site_fract_x
_atom_site_fract_y
_atom_site_fract_z
_atom_type_partial_charge
C0 C 0.14258 0.03198 1.01374 0.0
N1 N 0.92603 0.98794 0.93826 0.0
C2 C -0.02583 0.02767 0.91955 0.0
C3 C -0.02641 0.02301 0.88457 0.0
C4 C 0.92112 0.97762 0.86831 0.0
C5 C 0.87112 0.93744 0.8883 0.0
C6 C 0.87511 0.94326 0.92338 0.0
Zn7 Zn 0.93404 0.9969 0.98957 0.0
C8 C 0.01329 0.89071 0.02444 0.0
N9 N -0.04544 0.01655 0.09681 0.0
C10 C 0.04087 0.00303 0.11546 0.0
C11 C 0.86968 0.03627 0.11174 0.0
C12 C 0.86826 0.04142 0.14666 0.0
C13 C -0.04394 0.0278 0.16678 0.0
C14 C 0.04369 0.00896 0.15053 0.0
Zn15 Zn 0.94756 0.00636 0.04543 0.0
O16 O 0.08771 0.02126 0.98744 0.0
C17 C 0.86869 0.1127 1.01059 0.0
O18 O 0.10215 0.03211 0.04229 0.0
H19 H 0.80198 0.04745 0.0966 0.0
H20 H 0.01392 0.06303 0.93178 0.0
H21 H 0.10769 0.98742 0.10319 0.0
O22 O 0.88335 0.08277 0.98454 0.0
O23 O 0.89269 0.09209 0.03951 0.0
H24 H 0.8374 0.9121 0.93873 0.0
O25 O 0.79476 0.97942 0.04757 0.0
O26 O 0.77874 0.97322 0.99252 0.0
O27 O 0.00067 0.92115 0.05046 0.0
O28 O -0.01318 0.91063 0.9955 0.0
C29 C 0.73903 0.97107 0.02114 0.0
H30 H 0.01522 0.05444 0.87054 0.0
H31 H 0.82846 0.90215 0.87703 0.0
H32 H 0.79789 0.05496 0.15765 0.0
H33 H 0.11413 0.99899 0.16459 0.0
C34 C 0.75391 0.03024 0.51225 0.0
N35 N 0.94529 0.99988 0.59736 0.0
C36 C 0.89107 0.04259 0.61153 0.0
C37 C 0.88338 0.04547 0.64638 0.0
C38 C 0.93352 0.00462 0.66718 0.0
C39 C -0.01111 0.96085 0.65182 0.0
C40 C -0.0067 0.95911 0.61672 0.0
Zn41 Zn -0.04603 0.99905 0.54603 0.0
C42 C 0.8863 0.88897 0.51582 0.0
N43 N -0.03191 0.0025 0.43854 0.0
C44 C 0.94941 0.05133 0.42065 0.0
C45 C -0.00508 0.95334 0.42286 0.0
C46 C 0.00243 0.95179 0.38793 0.0
C47 C -0.0146 1.00177 0.36871 0.0
C48 C -0.04096 0.05214 0.38576 0.0
Zn49 Zn -0.04082 0.00273 0.49005 0.0
O50 O 0.7995 0.02228 0.54071 0.0
C51 C 0.02715 0.11275 0.52088 0.0
O52 O 0.80469 0.02858 0.48569 0.0
H53 H 0.01072 0.91502 0.4374 0.0
H54 H 0.85375 0.07476 0.59576 0.0
H55 H 0.92785 0.09003 0.43344 0.0
O56 O 0.00326 0.08603 0.54732 0.0
O57 O 0.01286 0.08867 0.4924 0.0
H58 H 0.03597 0.92548 0.60496 0.0
O59 O 0.11273 0.97725 0.49488 0.0
O60 O 0.10926 0.97532 0.55009 0.0
O61 O 0.90601 0.91644 0.48921 0.0
O62 O 0.90433 0.91238 0.54434 0.0
C63 C 0.1591 0.97138 0.52341 0.0
H64 H 0.83811 0.07939 0.65682 0.0
H65 H 0.03007 0.92883 0.6667 0.0
H66 H 0.02066 0.91144 0.37628 0.0
H67 H 0.94709 0.09221 0.37252 0.0
C68 C 0.64942 0.53367 0.02351 0.0
N69 N 0.4551 0.50267 0.93912 0.0
C70 C 0.5079 0.54531 0.9243 0.0
C71 C 0.51127 0.54841 0.88931 0.0
C72 C 0.45823 0.50784 0.86913 0.0
C73 C 0.40467 0.46408 0.8852 0.0
C74 C 0.40469 0.46209 0.92034 0.0
Zn75 Zn 0.44913 0.50194 0.99044 0.0
C76 C 0.51777 0.39219 0.02065 0.0
N77 N 0.43777 0.50548 0.09774 0.0
C78 C 0.45996 0.55349 0.11595 0.0
C79 C 0.41007 0.45619 0.11313 0.0
C80 C 0.40566 0.45351 0.14809 0.0
C81 C 0.42682 0.50253 0.16769 0.0
C82 C 0.45374 0.55317 0.15099 0.0
Zn83 Zn 0.44453 0.50606 0.04631 0.0
O84 O 0.60373 0.52542 0.9951 0.0
C85 C 0.37557 0.6157 1.01555 0.0
O86 O 0.59882 0.53212 0.05011 0.0
H87 H 0.39148 0.41856 0.0983 0.0
H88 H 0.54706 0.57735 0.93964 0.0
H89 H 0.48201 0.59229 0.10331 0.0
O90 O 0.39926 0.58882 0.98916 0.0
O91 O 0.39053 0.59188 0.04411 0.0
H92 H 0.36318 0.42853 0.93263 0.0
O93 O 0.29083 0.48041 0.04213 0.0
O94 O 0.294 0.478 0.98696 0.0
O95 O 0.49828 0.41988 0.04716 0.0
O96 O 0.49921 0.41533 0.99207 0.0
C97 C 0.24434 0.4742 1.01366 0.0
H98 H 0.55531 0.58229 0.87826 0.0
H99 H 0.36132 0.43229 0.87085 0.0
H100 H 0.38677 0.41301 0.15948 0.0
H101 H 0.4689 0.59251 0.16464 0.0
C102 C 0.25865 0.52994 0.51627 0.0
N103 N 0.45605 0.48846 0.59809 0.0
C104 C 0.40554 0.52843 0.6159 0.0
C105 C 0.40278 0.52436 0.6509 0.0
C106 C 0.45387 0.47918 0.66795 0.0
C107 C 0.50554 0.43861 0.64881 0.0
C108 C 0.50501 0.44386 0.6138 0.0
Zn109 Zn 0.4591 0.4955 0.54688 0.0
C110 C 0.38886 0.38814 0.51251 0.0
N111 N 0.46647 0.51003 0.43967 0.0
C112 C 0.38103 0.49738 0.42038 0.0
C113 C 0.55375 0.52775 0.42536 0.0
C114 C 0.55798 0.53227 0.3904 0.0
C115 C 0.47059 0.52008 0.36974 0.0
C116 C 0.38093 0.50296 0.38541 0.0
Zn117 Zn 0.46315 0.50289 0.49109 0.0
O118 O 0.30451 0.51966 0.54442 0.0
C119 C 0.53303 0.61034 0.52539 0.0
O120 O 0.30898 0.52995 0.48964 0.0
H121 H 0.62073 0.53824 0.44102 0.0
H122 H 0.36714 0.56357 0.60292 0.0
H123 H 0.31234 0.48315 0.43209 0.0
O124 O 0.51006 0.58213 0.55144 0.0
O125 O 0.517 0.58807 0.49645 0.0
H126 H 0.54442 0.41241 0.59917 0.0
O127 O 0.617 0.47617 0.4936 0.0
O128 O 0.61405 0.47087 0.54866 0.0
O129 O 0.40943 0.41699 0.48646 0.0
O130 O 0.40765 0.40963 0.54151 0.0
C131 C 0.66353 0.46822 0.52191 0.0
H132 H 0.36025 0.55613 0.66436 0.0
H133 H 0.54739 0.40354 0.6607 0.0
H134 H 0.62972 0.54455 0.37986 0.0
H135 H 0.31058 0.49433 0.37099 0.0
H136 H 0.27398 0.67135 0.06434 0.0
H137 H 0.34473 0.68207 0.95937 0.0
H138 H 0.23366 0.76562 0.95237 0.0
H139 H 0.11455 0.83507 0.97577 0.0
H140 H 0.04562 0.82529 0.08087 0.0
H141 H 0.15624 0.74142 0.08788 0.0
C142 C 0.26625 0.69237 0.04002 0.0
C143 C 0.31835 0.67051 1.01249 0.0
C144 C 0.20098 0.74001 0.03602 0.0
C145 C 0.30615 0.69803 0.98107 0.0
C146 C 0.24203 0.74565 0.97697 0.0
C147 C 0.12253 0.81411 1.0001 0.0
C148 C 0.07082 0.83611 0.02766 0.0
C149 C 0.18818 0.76665 1.00416 0.0
C150 C 0.08383 0.80903 0.05917 0.0
C151 C 0.14764 0.76126 0.06326 0.0
H152 H 0.61454 0.33491 0.97132 0.0
H153 H 0.54948 0.32617 0.07683 0.0
H154 H 0.65699 0.24116 0.0834 0.0
H155 H 0.77134 0.16987 0.05952 0.0
H156 H 0.83548 0.17773 0.95397 0.0
H157 H 0.72794 0.26292 0.94728 0.0
C158 C 0.62275 0.31401 0.99566 0.0
C159 C 0.5733 0.33684 0.02348 0.0
C160 C 0.68603 0.26547 0.99943 0.0
C161 C 0.58611 0.30949 0.05493 0.0
C162 C 0.64815 0.261 0.05878 0.0
C163 C 0.76294 0.19063 0.03514 0.0
C164 C 0.81238 0.16771 1.00737 0.0
C165 C 0.69933 0.23896 0.03131 0.0
C166 C 0.79895 0.19464 0.97582 0.0
C167 C 0.73694 0.2432 0.97193 0.0
H168 H 0.13216 0.1673 0.47238 0.0
H169 H 0.05264 0.18082 0.57643 0.0
H170 H 0.16199 0.265 0.58342 0.0
H171 H 0.28236 0.33389 0.56042 0.0
H172 H 0.36111 0.32139 0.45629 0.0
H173 H 0.25136 0.23716 0.44913 0.0
C174 C 0.13761 0.18908 0.49648 0.0
C175 C 0.08356 0.16781 0.52378 0.0
C176 C 0.20203 0.23708 0.5005 0.0
C177 C 0.09282 0.19628 0.55493 0.0
C178 C 0.15592 0.24428 0.55903 0.0
C179 C 0.27667 0.31236 0.53625 0.0
C180 C 0.33099 0.33365 0.50903 0.0
C181 C 0.21178 0.26466 0.53211 0.0
C182 C 0.32094 0.30571 0.47774 0.0
C183 C 0.25764 0.25772 0.47357 0.0
H184 H 0.78434 0.83359 0.56478 0.0
H185 H 0.86077 0.82083 0.46041 0.0
H186 H 0.75417 0.73553 0.45384 0.0
H187 H 0.63719 0.66543 0.47727 0.0
H188 H 0.56052 0.67724 0.58163 0.0
H189 H 0.66792 0.7625 0.58846 0.0
C190 C 0.77881 0.81172 0.54071 0.0
C191 C 0.8312 0.83351 0.51319 0.0
C192 C 0.71588 0.76305 0.53693 0.0
C193 C 0.8218 0.80497 0.48206 0.0
C194 C 0.76032 0.75631 0.47822 0.0
C195 C 0.64285 0.68698 0.50145 0.0
C196 C 0.58984 0.66518 0.52881 0.0
C197 C 0.70614 0.73535 0.50535 0.0
C198 C 0.59975 0.69325 0.56007 0.0
C199 C 0.66169 0.74185 0.56405 0.0
H200 H 0.28199 0.99687 0.06141 0.0
H201 H 0.25237 0.06215 0.95986 0.0
H202 H 0.43387 0.04342 0.95205 0.0
H203 H 0.59929 0.00654 0.97368 0.0
H204 H 0.62924 0.94126 0.07524 0.0
H205 H 0.44779 0.96013 0.08311 0.0
C206 C 0.31588 0.00822 0.03786 0.0
C207 C 0.25458 0.03166 1.01141 0.0
C208 C 0.41918 0.99561 0.0332 0.0
C209 C 0.29866 0.04473 0.9807 0.0
C210 C 0.40194 0.03341 0.9761 0.0
C211 C 0.56559 0.99527 0.99728 0.0
C212 C 0.627 0.97176 0.02368 0.0
C213 C 0.46238 0.00794 1.00197 0.0
C214 C 0.58297 0.95874 0.05442 0.0
C215 C 0.47969 0.97013 0.05906 0.0
H216 H 0.28482 0.00445 0.47479 0.0
H217 H 0.28529 0.94429 0.5776 0.0
H218 H 0.46931 0.9624 0.58392 0.0
H219 H 0.62774 0.99712 0.56067 0.0
H220 H 0.62779 0.05719 0.45785 0.0
H221 H 0.44369 0.03908 0.45147 0.0
C222 C 0.3254 0.99425 0.49842 0.0
C223 C 0.27181 0.97245 0.52561 0.0
C224 C 0.43015 0.0063 0.50215 0.0
C225 C 0.32515 0.96056 0.55623 0.0
C226 C 0.42997 0.97147 0.55995 0.0
C227 C 0.58738 0.00722 0.537 0.0
C228 C 0.64113 0.02901 0.50983 0.0
C229 C 0.48271 0.99515 0.53324 0.0
C230 C 0.58788 0.0409 0.4792 0.0
C231 C 0.48299 0.02999 0.47545 0.0
H232 H 0.77586 0.49847 0.97569 0.0
H233 H 0.77512 0.56296 0.0775 0.0
H234 H -0.0408 0.54501 0.08431 0.0
H235 H 0.11834 0.5093 0.06168 0.0
H236 H 0.11858 0.44476 0.95989 0.0
H237 H 0.93457 0.46268 0.95313 0.0
C238 C 0.81611 0.50959 0.99922 0.0
C239 C 0.76218 0.53257 0.02597 0.0
C240 C 0.92078 0.4976 1.00326 0.0
C241 C 0.81521 0.54573 0.05645 0.0
C242 C 0.92008 0.53492 0.06046 0.0
C243 C 0.07788 0.49809 0.03821 0.0
C244 C 0.13165 0.47511 1.01142 0.0
C245 C -0.02687 0.51005 0.0342 0.0
C246 C 0.07853 0.46195 0.98096 0.0
C247 C -0.02627 0.47275 0.97698 0.0
H248 H 0.1314 0.48783 0.56201 0.0
H249 H 0.13406 0.56643 0.46367 0.0
H250 H 0.95023 0.54894 0.4555 0.0
H251 H 0.79052 0.50979 0.47592 0.0
H252 H 0.78812 0.43126 0.57426 0.0
H253 H -0.02798 0.4485 0.58233 0.0
C254 C 0.09152 0.50217 0.53903 0.0
C255 C 0.14591 0.52906 0.51363 0.0
C256 C -0.01307 0.49043 0.53411 0.0
C257 C 0.09351 0.54623 0.48372 0.0
C258 C -0.0112 0.53567 0.4789 0.0
C259 C 0.83056 0.49537 0.49885 0.0
C260 C 0.77622 0.46865 0.52431 0.0
C261 C 0.93523 0.50702 0.50371 0.0
C262 C 0.82869 0.45138 0.55418 0.0
C263 C 0.93342 0.46179 0.55894 0.0
H264 H 0.88106 0.06727 0.32117 0.0
H265 H 0.11222 0.9352 0.33115 0.0
H266 H 0.12082 0.93051 0.27027 0.0
H267 H 0.06087 0.96222 0.21413 0.0
H268 H 0.849 0.10404 0.20472 0.0
H269 H 0.8362 0.10653 0.26551 0.0
C270 C 0.93518 0.03818 0.31036 0.0
C271 C -0.00532 1.00115 0.33128 0.0
C272 C 0.94313 0.03713 0.27522 0.0
C273 C 0.06268 0.96316 0.31609 0.0
C274 C 0.06872 0.96079 0.2811 0.0
C275 C 0.0134 0.99461 0.22516 0.0
C276 C -0.04517 0.0322 0.20432 0.0
C277 C 0.00892 0.99738 0.2604 0.0
C278 C 0.89274 0.07314 0.21965 0.0
C279 C 0.88597 0.07509 0.25461 0.0
H280 H 0.91419 0.06383 0.82187 0.0
H281 H 0.92413 0.87957 0.83004 0.0
H282 H 0.92456 0.87163 0.76885 0.0
H283 H 0.92562 0.91703 0.71298 0.0
H284 H 0.93325 0.1015 0.70593 0.0
H285 H 0.92333 0.10896 0.76672 0.0
C286 C 0.91804 0.02181 0.81047 0.0
C287 C 0.91939 0.97245 0.83085 0.0
C288 C 0.92137 0.01749 0.77532 0.0
C289 C 0.92143 0.91844 0.8152 0.0
C290 C 0.92263 0.91381 0.78012 0.0
C291 C 0.92641 0.95891 0.72468 0.0
C292 C 0.92937 0.00857 0.70457 0.0
C293 C 0.92329 0.96307 0.75993 0.0
C294 C 0.92867 0.06242 0.72043 0.0
C295 C 0.92385 0.06683 0.75534 0.0
H296 H 0.36208 0.45732 0.32214 0.0
H297 H 0.5848 0.59373 0.33209 0.0
H298 H 0.59403 0.59835 0.27118 0.0
H299 H 0.54042 0.56338 0.2151 0.0
H300 H 0.29865 0.43742 0.20538 0.0
H301 H 0.29543 0.42976 0.26626 0.0
C302 C 0.41121 0.48909 0.31126 0.0
C303 C 0.47322 0.52468 0.33223 0.0
C304 C 0.41331 0.49335 0.27607 0.0
C305 C 0.53795 0.56447 0.31704 0.0
C306 C 0.54263 0.56768 0.28202 0.0
C307 C 0.48539 0.53499 0.22606 0.0
C308 C 0.42105 0.50048 0.20517 0.0
C309 C 0.48077 0.53224 0.26129 0.0
C310 C 0.35169 0.46336 0.22041 0.0
C311 C 0.34885 0.45929 0.25539 0.0
H312 H 0.46048 0.56617 0.71382 0.0
H313 H 0.44759 0.38186 0.70664 0.0
H314 H 0.45178 0.37452 0.76787 0.0
H315 H 0.45896 0.42023 0.82345 0.0
H316 H 0.45512 0.60476 0.83014 0.0
H317 H 0.45741 0.61185 0.76909 0.0
C318 C 0.45689 0.52432 0.72549 0.0
C319 C 0.45404 0.47471 0.70538 0.0
C320 C 0.45679 0.52032 0.76073 0.0
C321 C 0.45175 0.42088 0.72129 0.0
C322 C 0.45332 0.41658 0.75638 0.0
C323 C 0.45715 0.46208 0.81165 0.0
C324 C 0.45766 0.51181 0.83167 0.0
C325 C 0.4558 0.46602 0.77636 0.0
C326 C 0.45712 0.5656 0.81565 0.0
C327 C 0.45749 0.5698 0.78062 0.0
loop_
_geom_bond_atom_site_label_1
_geom_bond_atom_site_label_2
_geom_bond_distance
_geom_bond_site_symmetry_2
_ccdc_geom_bond_type
C0 O16 1.251 1_554 S
C0 O18 1.254 . S
N1 C2 1.335 1_655 S
N1 C6 1.304 1_545 S
N1 Zn7 2.020 1_545 S
C2 N1 1.335 1_455 S
C2 C3 1.379 . S
C2 H20 0.952 . S
C3 C2 1.379 . S
C3 C4 1.390 1_455 S
C3 H30 0.949 . S
C4 C3 1.390 1_655 S
C4 C5 1.357 1_545 S
C5 C4 1.357 1_565 S
C5 C6 1.370 . S
C5 H31 0.950 . S
C6 N1 1.304 1_565 S
C6 C5 1.370 . S
C6 H24 0.948 . S
Zn7 N1 2.020 1_565 S
Zn7 O16 2.039 1_665 S
Zn7 O22 2.034 1_565 S
Zn7 O26 2.025 . S
Zn7 O28 2.024 1_655 S
C8 O27 1.246 . S
C8 O28 1.249 1_554 S
N9 C10 1.307 1_565 S
N9 C11 1.333 1_455 S
N9 Zn15 2.020 1_565 S
C10 N9 1.307 1_545 S
C10 C14 1.370 . S
C10 H21 0.948 . S
C11 N9 1.333 1_655 S
C11 C12 1.379 . S
C11 H19 0.952 . S
C12 C11 1.379 . S
C12 C13 1.390 1_655 S
C12 H32 0.949 . S
C13 C12 1.390 1_455 S
C13 C14 1.357 1_565 S
C14 C10 1.370 . S
C14 C13 1.357 1_545 S
C14 H33 0.950 . S
Zn15 N9 2.020 1_545 S
Zn15 O18 2.025 . S
Zn15 O23 2.024 1_455 S
Zn15 O25 2.039 1_445 S
Zn15 O27 2.034 1_545 S
O16 C0 1.251 1_556 S
O16 Zn7 2.039 1_445 S
C17 O22 1.246 1_554 S
C17 O23 1.249 . S
O18 C0 1.254 . S
O18 Zn15 2.025 . S
H19 C11 0.952 . S
H20 C2 0.952 . S
H21 C10 0.948 . S
O22 Zn7 2.034 1_545 S
O22 C17 1.246 1_556 S
O23 Zn15 2.024 1_655 S
O23 C17 1.249 . S
H24 C6 0.948 . S
O25 Zn15 2.039 1_665 S
O25 C29 1.251 . S
O26 Zn7 2.025 . S
O26 C29 1.254 1_556 S
O27 C8 1.246 . S
O27 Zn15 2.034 1_565 S
O28 Zn7 2.024 1_455 S
O28 C8 1.249 1_556 S
C29 O25 1.251 . S
C29 O26 1.254 1_554 S
H30 C3 0.949 . S
H31 C5 0.950 . S
H32 C12 0.949 . S
H33 C14 0.950 . S
C34 O50 1.251 . S
C34 O52 1.254 . S
N35 C36 1.335 1_455 S
N35 C40 1.304 1_545 S
N35 Zn41 2.020 1_545 S
C36 N35 1.335 1_655 S
C36 C37 1.379 . S
C36 H54 0.952 . S
C37 C36 1.379 . S
C37 C38 1.390 1_655 S
C37 H64 0.949 . S
C38 C37 1.390 1_455 S
C38 C39 1.357 1_545 S
C39 C38 1.357 1_565 S
C39 C40 1.370 . S
C39 H65 0.950 . S
C40 N35 1.304 1_565 S
C40 C39 1.370 . S
C40 H58 0.948 . S
Zn41 N35 2.020 1_565 S
Zn41 O50 2.039 1_465 S
Zn41 O56 2.034 1_565 S
Zn41 O60 2.025 . S
Zn41 O62 2.024 1_455 S
C42 O61 1.246 . S
C42 O62 1.249 . S
N43 C44 1.307 1_565 S
N43 C45 1.333 1_655 S
N43 Zn49 2.020 1_565 S
C44 N43 1.307 1_545 S
C44 C48 1.370 . S
C44 H55 0.948 . S
C45 N43 1.333 1_455 S
C45 C46 1.379 . S
C45 H53 0.952 . S
C46 C45 1.379 . S
C46 C47 1.390 1_455 S
C46 H66 0.949 . S
C47 C46 1.390 1_655 S
C47 C48 1.357 1_565 S
C48 C44 1.370 . S
C48 C47 1.357 1_545 S
C48 H67 0.950 . S
Zn49 N43 2.020 1_545 S
Zn49 O52 2.025 . S
Zn49 O57 2.024 1_655 S
Zn49 O59 2.039 1_645 S
Zn49 O61 2.034 1_545 S
O50 C34 1.251 . S
O50 Zn41 2.039 1_645 S
C51 O56 1.246 . S
C51 O57 1.249 . S
O52 C34 1.254 . S
O52 Zn49 2.025 . S
H53 C45 0.952 . S
H54 C36 0.952 . S
H55 C44 0.948 . S
O56 Zn41 2.034 1_545 S
O56 C51 1.246 . S
O57 Zn49 2.024 1_455 S
O57 C51 1.249 . S
H58 C40 0.948 . S
O59 Zn49 2.039 1_465 S
O59 C63 1.251 . S
O60 Zn41 2.025 . S
O60 C63 1.254 . S
O61 C42 1.246 . S
O61 Zn49 2.034 1_565 S
O62 Zn41 2.024 1_655 S
O62 C42 1.249 . S
C63 O59 1.251 . S
C63 O60 1.254 . S
H64 C37 0.949 . S
H65 C39 0.950 . S
H66 C46 0.949 . S
H67 C48 0.950 . S
C68 O84 1.251 1_554 S
C68 O86 1.254 . S
N69 C70 1.333 . S
N69 C74 1.307 . S
N69 Zn75 2.020 . S
C70 N69 1.333 . S
C70 C71 1.379 . S
C70 H88 0.952 . S
C71 C70 1.379 . S
C71 C72 1.390 . S
C71 H98 0.949 . S
C72 C71 1.390 . S
C72 C73 1.357 . S
C73 C72 1.357 . S
C73 C74 1.370 . S
C73 H99 0.950 . S
C74 N69 1.307 . S
C74 C73 1.370 . S
C74 H92 0.948 . S
Zn75 N69 2.020 . S
Zn75 O84 2.039 . S
Zn75 O90 2.034 . S
Zn75 O94 2.025 . S
Zn75 O96 2.024 . S
C76 O95 1.246 . S
C76 O96 1.249 1_554 S
N77 C78 1.307 . S
N77 C79 1.333 . S
N77 Zn83 2.020 . S
C78 N77 1.307 . S
C78 C82 1.370 . S
C78 H89 0.948 . S
C79 N77 1.333 . S
C79 C80 1.379 . S
C79 H87 0.952 . S
C80 C79 1.379 . S
C80 C81 1.390 . S
C80 H100 0.949 . S
C81 C80 1.390 . S
C81 C82 1.357 . S
C82 C78 1.370 . S
C82 C81 1.357 . S
C82 H101 0.950 . S
Zn83 N77 2.020 . S
Zn83 O86 2.025 . S
Zn83 O91 2.024 . S
Zn83 O93 2.039 . S
Zn83 O95 2.034 . S
O84 C68 1.251 1_556 S
O84 Zn75 2.039 . S
C85 O90 1.246 1_554 S
C85 O91 1.249 . S
O86 C68 1.254 . S
O86 Zn83 2.025 . S
H87 C79 0.952 . S
H88 C70 0.952 . S
H89 C78 0.948 . S
O90 Zn75 2.034 . S
O90 C85 1.246 1_556 S
O91 Zn83 2.024 . S
O91 C85 1.249 . S
H92 C74 0.948 . S
O93 Zn83 2.039 . S
O93 C97 1.251 . S
O94 Zn75 2.025 . S
O94 C97 1.254 1_556 S
O95 C76 1.246 . S
O95 Zn83 2.034 . S
O96 Zn75 2.024 . S
O96 C76 1.249 1_556 S
C97 O93 1.251 . S
C97 O94 1.254 1_554 S
H98 C71 0.949 . S
H99 C73 0.950 . S
H100 C80 0.949 . S
H101 C82 0.950 . S
C102 O118 1.251 . S
C102 O120 1.254 . S
N103 C104 1.333 . S
N103 C108 1.307 . S
N103 Zn109 2.020 . S
C104 N103 1.333 . S
C104 C105 1.379 . S
C104 H122 0.952 . S
C105 C104 1.379 . S
C105 C106 1.390 . S
C105 H132 0.949 . S
C106 C105 1.390 . S
C106 C107 1.357 . S
C107 C106 1.357 . S
C107 C108 1.370 . S
C107 H133 0.950 . S
C108 N103 1.307 . S
C108 C107 1.370 . S
C108 H126 0.948 . S
Zn109 N103 2.020 . S
Zn109 O118 2.039 . S
Zn109 O124 2.034 . S
Zn109 O128 2.025 . S
Zn109 O130 2.024 . S
C110 O129 1.246 . S
C110 O130 1.249 . S
N111 C112 1.307 . S
N111 C113 1.333 . S
N111 Zn117 2.020 . S
C112 N111 1.307 . S
C112 C116 1.370 . S
C112 H123 0.948 . S
C113 N111 1.333 . S
C113 C114 1.379 . S
C113 H121 0.952 . S
C114 C113 1.379 . S
C114 C115 1.390 . S
C114 H134 0.949 . S
C115 C114 1.390 . S
C115 C116 1.357 . S
C116 C112 1.370 . S
C116 C115 1.357 . S
C116 H135 0.950 . S
Zn117 N111 2.020 . S
Zn117 O120 2.025 . S
Zn117 O125 2.024 . S
Zn117 O127 2.039 . S
Zn117 O129 2.034 . S
O118 C102 1.251 . S
O118 Zn109 2.039 . S
C119 O124 1.246 . S
C119 O125 1.249 . S
O120 C102 1.254 . S
O120 Zn117 2.025 . S
H121 C113 0.952 . S
H122 C104 0.952 . S
H123 C112 0.948 . S
O124 Zn109 2.034 . S
O124 C119 1.246 . S
O125 Zn117 2.024 . S
O125 C119 1.249 . S
H126 C108 0.948 . S
O127 Zn117 2.039 . S
O127 C131 1.251 . S
O128 Zn109 2.025 . S
O128 C131 1.254 . S
O129 C110 1.246 . S
O129 Zn117 2.034 . S
O130 Zn109 2.024 . S
O130 C110 1.249 . S
C131 O127 1.251 . S
C131 O128 1.254 . S
H132 C105 0.949 . S
H133 C107 0.950 . S
H134 C114 0.949 . S
H135 C116 0.950 . S
H136 C142 0.930 . S
H137 C145 0.930 . S
H138 C146 0.930 . S
H139 C147 0.930 . S
H140 C150 0.930 . S
H141 C151 0.930 . S
C142 H136 0.930 . S
C142 C143 1.339 1_554 S
C142 C144 1.415 . S
C143 C142 1.339 1_556 S
C143 C145 1.438 . S
C144 C142 1.415 . S
C144 C149 1.425 1_554 S
C144 C151 1.409 . S
C145 H137 0.930 . S
C145 C143 1.438 . S
C145 C146 1.362 . S
C146 H138 0.930 . S
C146 C145 1.362 . S
C146 C149 1.409 . S
C147 H139 0.930 . S
C147 C148 1.355 1_556 S
C147 C149 1.415 . S
C148 C147 1.355 1_554 S
C148 C150 1.419 . S
C149 C144 1.425 1_556 S
C149 C146 1.409 . S
C149 C147 1.415 . S
C150 H140 0.930 . S
C150 C148 1.419 . S
C150 C151 1.362 . S
C151 H141 0.930 . S
C151 C144 1.409 . S
C151 C150 1.362 . S
H152 C158 0.930 . S
H153 C161 0.930 . S
H154 C162 0.930 . S
H155 C163 0.930 . S
H156 C166 0.930 . S
H157 C167 0.930 . S
C158 H152 0.930 . S
C158 C159 1.355 1_556 S
C158 C160 1.415 . S
C159 C158 1.355 1_554 S
C159 C161 1.419 . S
C160 C158 1.415 . S
C160 C165 1.425 1_556 S
C160 C167 1.409 . S
C161 H153 0.930 . S
C161 C159 1.419 . S
C161 C162 1.362 . S
C162 H154 0.930 . S
C162 C161 1.362 . S
C162 C165 1.409 . S
C163 H155 0.930 . S
C163 C164 1.346 1_554 S
C163 C165 1.415 . S
C164 C163 1.346 1_556 S
C164 C166 1.429 . S
C165 C160 1.425 1_554 S
C165 C162 1.409 . S
C165 C163 1.415 . S
C166 H156 0.930 . S
C166 C164 1.429 . S
C166 C167 1.362 . S
C167 H157 0.930 . S
C167 C160 1.409 . S
C167 C166 1.362 . S
H168 C174 0.930 . S
H169 C177 0.930 . S
H170 C178 0.930 . S
H171 C179 0.930 . S
H172 C182 0.930 . S
H173 C183 0.930 . S
C174 H168 0.930 . S
C174 C175 1.355 . S
C174 C176 1.415 . S
C175 C174 1.355 . S
C175 C177 1.419 . S
C176 C174 1.415 . S
C176 C181 1.425 . S
C176 C183 1.409 . S
C177 H169 0.930 . S
C177 C175 1.419 . S
C177 C178 1.362 . S
C178 H170 0.930 . S
C178 C177 1.362 . S
C178 C181 1.409 . S
C179 H171 0.930 . S
C179 C180 1.355 . S
C179 C181 1.415 . S
C180 C179 1.355 . S
C180 C182 1.419 . S
C181 C176 1.425 . S
C181 C178 1.409 . S
C181 C179 1.415 . S
C182 H172 0.930 . S
C182 C180 1.419 . S
C182 C183 1.362 . S
C183 H173 0.930 . S
C183 C176 1.409 . S
C183 C182 1.362 . S
H184 C190 0.930 . S
H185 C193 0.930 1_455 S
H186 C194 0.930 . S
H187 C195 0.930 . S
H188 C198 0.930 . S
H189 C199 0.930 . S
C190 H184 0.930 . S
C190 C191 1.355 . S
C190 C192 1.415 . S
C191 C190 1.355 . S
C191 C193 1.419 . S
C192 C190 1.415 . S
C192 C197 1.425 . S
C192 C199 1.409 . S
C193 H185 0.930 1_655 S
C193 C191 1.419 . S
C193 C194 1.362 . S
C194 H186 0.930 . S
C194 C193 1.362 . S
C194 C197 1.409 . S
C195 H187 0.930 . S
C195 C196 1.355 . S
C195 C197 1.415 . S
C196 C195 1.355 . S
C196 C198 1.419 . S
C197 C192 1.425 . S
C197 C194 1.409 . S
C197 C195 1.415 . S
C198 H188 0.930 . S
C198 C196 1.419 . S
C198 C199 1.362 . S
C199 H189 0.930 . S
C199 C192 1.409 . S
C199 C198 1.362 . S
H200 C206 0.930 . S
H201 C209 0.930 . S
H202 C210 0.930 . S
H203 C211 0.930 . S
H204 C214 0.930 . S
H205 C215 0.930 . S
C206 H200 0.930 . S
C206 C207 1.355 1_565 S
C206 C208 1.415 . S
C207 C206 1.355 1_545 S
C207 C209 1.419 1_554 S
C208 C206 1.415 . S
C208 C213 1.425 1_564 S
C208 C215 1.409 . S
C209 H201 0.930 . S
C209 C207 1.419 1_556 S
C209 C210 1.362 . S
C210 H202 0.930 . S
C210 C209 1.362 . S
C210 C213 1.409 . S
C211 H203 0.930 . S
C211 C212 1.355 1_546 S
C211 C213 1.415 . S
C212 C211 1.355 1_564 S
C212 C214 1.419 . S
C213 C208 1.425 1_546 S
C213 C210 1.409 . S
C213 C211 1.415 . S
C214 H204 0.930 . S
C214 C212 1.419 . S
C214 C215 1.362 . S
C215 H205 0.930 . S
C215 C208 1.409 . S
C215 C214 1.362 . S
H216 C222 0.930 . S
H217 C225 0.930 . S
H218 C226 0.930 . S
H219 C227 0.930 . S
H220 C230 0.930 . S
H221 C231 0.930 . S
C222 H216 0.930 . S
C222 C223 1.355 1_545 S
C222 C224 1.415 . S
C223 C222 1.355 1_565 S
C223 C225 1.419 . S
C224 C222 1.415 . S
C224 C229 1.425 1_545 S
C224 C231 1.409 . S
C225 H217 0.930 . S
C225 C223 1.419 . S
C225 C226 1.362 . S
C226 H218 0.930 . S
C226 C225 1.362 . S
C226 C229 1.409 . S
C227 H219 0.930 . S
C227 C228 1.355 1_565 S
C227 C229 1.415 . S
C228 C227 1.355 1_545 S
C228 C230 1.419 . S
C229 C224 1.425 1_565 S
C229 C226 1.409 . S
C229 C227 1.415 . S
C230 H220 0.930 . S
C230 C228 1.419 . S
C230 C231 1.362 . S
C231 H221 0.930 . S
C231 C224 1.409 . S
C231 C230 1.362 . S
H232 C238 0.930 . S
H233 C241 0.930 . S
H234 C242 0.930 . S
H235 C243 0.930 . S
H236 C246 0.933 . S
H237 C247 0.930 . S
C238 H232 0.930 . S
C238 C239 1.351 1_556 S
C238 C240 1.415 1_556 S
C239 C238 1.351 1_554 S
C239 C241 1.424 . S
C240 C238 1.415 1_554 S
C240 C245 1.425 1_655 S
C240 C247 1.409 1_654 S
C241 H233 0.930 . S
C241 C239 1.424 . S
C241 C242 1.362 . S
C242 H234 0.930 . S
C242 C241 1.362 . S
C242 C245 1.409 1_655 S
C243 H235 0.930 . S
C243 C244 1.355 . S
C243 C245 1.415 . S
C244 C243 1.355 . S
C244 C246 1.416 1_554 S
C245 C240 1.425 1_455 S
C245 C242 1.409 1_455 S
C245 C243 1.415 . S
C246 H236 0.933 . S
C246 C244 1.416 1_556 S
C246 C247 1.362 . S
C247 H237 0.930 . S
C247 C240 1.409 1_456 S
C247 C246 1.362 . S
H248 C254 0.930 . S
H249 C257 0.930 . S
H250 C258 0.930 . S
H251 C259 0.930 . S
H252 C262 0.930 . S
H253 C263 0.930 . S
C254 H248 0.930 . S
C254 C255 1.355 . S
C254 C256 1.415 . S
C255 C254 1.355 . S
C255 C257 1.419 . S
C256 C254 1.415 . S
C256 C261 1.425 1_455 S
C256 C263 1.409 1_455 S
C257 H249 0.930 . S
C257 C255 1.419 . S
C257 C258 1.362 . S
C258 H250 0.930 . S
C258 C257 1.362 . S
C258 C261 1.409 1_455 S
C259 H251 0.930 . S
C259 C260 1.355 . S
C259 C261 1.415 . S
C260 C259 1.355 . S
C260 C262 1.419 . S
C261 C256 1.425 1_655 S
C261 C258 1.409 1_655 S
C261 C259 1.415 . S
C262 H252 0.930 . S
C262 C260 1.419 . S
C262 C263 1.362 . S
C263 H253 0.930 . S
C263 C256 1.409 1_655 S
C263 C262 1.362 . S
H264 C270 0.930 . S
H265 C273 0.930 . S
H266 C274 0.930 . S
H267 C275 0.930 . S
H268 C278 0.930 . S
H269 C279 0.930 . S
C270 H264 0.930 . S
C270 C271 1.355 1_655 S
C270 C272 1.415 . S
C271 C270 1.355 1_455 S
C271 C273 1.419 . S
C272 C270 1.415 . S
C272 C277 1.425 1_655 S
C272 C279 1.409 1_565 S
C273 H265 0.930 . S
C273 C271 1.419 . S
C273 C274 1.362 . S
C274 H266 0.930 . S
C274 C273 1.362 . S
C274 C277 1.409 . S
C275 H267 0.930 . S
C275 C276 1.355 1_455 S
C275 C277 1.415 . S
C276 C275 1.355 1_655 S
C276 C278 1.419 1_565 S
C277 C272 1.425 1_455 S
C277 C274 1.409 . S
C277 C275 1.415 . S
C278 H268 0.930 . S
C278 C276 1.419 1_545 S
C278 C279 1.362 . S
C279 H269 0.930 . S
C279 C272 1.409 1_545 S
C279 C278 1.362 . S
H280 C286 0.930 . S
H281 C289 0.930 . S
H282 C290 0.930 . S
H283 C291 0.930 . S
H284 C294 0.930 . S
H285 C295 0.930 . S
C286 H280 0.930 . S
C286 C287 1.346 1_645 S
C286 C288 1.415 . S
C287 C286 1.346 1_465 S
C287 C289 1.430 . S
C288 C286 1.415 . S
C288 C293 1.425 1_645 S
C288 C295 1.409 . S
C289 H281 0.930 . S
C289 C287 1.430 . S
C289 C290 1.362 . S
C290 H282 0.930 . S
C290 C289 1.362 . S
C290 C293 1.409 . S
C291 H283 0.930 . S
C291 C292 1.354 1_565 S
C291 C293 1.415 . S
C292 C291 1.354 1_545 S
C292 C294 1.419 1_455 S
C293 C288 1.425 1_465 S
C293 C290 1.409 . S
C293 C291 1.415 . S
C294 H284 0.930 . S
C294 C292 1.419 1_655 S
C294 C295 1.362 . S
C295 H285 0.930 . S
C295 C288 1.409 . S
C295 C294 1.362 . S
H296 C302 0.930 . S
H297 C305 0.930 . S
H298 C306 0.930 . S
H299 C307 0.930 . S
H300 C310 0.930 . S
H301 C311 0.930 . S
C302 H296 0.930 . S
C302 C303 1.355 . S
C302 C304 1.415 . S
C303 C302 1.355 . S
C303 C305 1.419 . S
C304 C302 1.415 . S
C304 C309 1.425 . S
C304 C311 1.409 . S
C305 H297 0.930 . S
C305 C303 1.419 . S
C305 C306 1.362 . S
C306 H298 0.930 . S
C306 C305 1.362 . S
C306 C309 1.409 . S
C307 H299 0.930 . S
C307 C308 1.355 . S
C307 C309 1.415 . S
C308 C307 1.355 . S
C308 C310 1.419 . S
C309 C304 1.425 . S
C309 C306 1.409 . S
C309 C307 1.415 . S
C310 H300 0.930 . S
C310 C308 1.419 . S
C310 C311 1.362 . S
C311 H301 0.930 . S
C311 C304 1.409 . S
C311 C310 1.362 . S
H312 C318 0.930 . S
H313 C321 0.930 . S
H314 C322 0.930 . S
H315 C323 0.930 . S
H316 C326 0.930 . S
H317 C327 0.930 . S
C318 H312 0.930 . S
C318 C319 1.355 . S
C318 C320 1.415 . S
C319 C318 1.355 . S
C319 C321 1.419 . S
C320 C318 1.415 . S
C320 C325 1.425 . S
C320 C327 1.409 . S
C321 H313 0.930 . S
C321 C319 1.419 . S
C321 C322 1.362 . S
C322 H314 0.930 . S
C322 C321 1.362 . S
C322 C325 1.409 . S
C323 H315 0.930 . S
C323 C324 1.355 . S
C323 C325 1.415 . S
C324 C323 1.355 . S
C324 C326 1.419 . S
C325 C320 1.425 . S
C325 C322 1.409 . S
C325 C323 1.415 . S
C326 H316 0.930 . S
C326 C324 1.419 . S
C326 C327 1.362 . S
C327 H317 0.930 . S
C327 C320 1.409 . S
C327 C326 1.362 . S
C143 C85 1.582 1_556 S
C148 C8 1.585 . S
C159 C76 1.584 . S
C164 C17 1.582 1_556 S
C175 C51 1.607 . S
C180 C110 1.604 . S
C191 C42 1.608 . S
C196 C119 1.611 . S
C207 C0 0.949 . S
C212 C29 0.949 . S
C223 C63 0.944 . S
C228 C34 0.944 . S
C239 C68 0.869 . S
C244 C97 0.865 . S
C255 C102 0.868 . S
C260 C131 0.868 . S
C271 C47 1.500 1_455 S
C276 C13 1.499 1_655 S
C287 C4 1.489 1_465 S
C292 C38 1.494 . S
C303 C115 1.500 . S
C308 C81 1.499 . S
C319 C106 1.486 . S
C324 C72 1.488 . S
