# Generated by pormake.
# Topology snk, (6)-cn, num edge types: 1
# Building blocks:
#     Node 0, Type 0, BuildingBlock: KUMJIN_clean_sbu_1, # of connection points: 6
#     Node 1, Type 0, BuildingBlock: KUMJIN_clean_sbu_1, # of connection points: 6
#     Node 2, Type 0, BuildingBlock: KUMJIN_clean_sbu_1, # of connection points: 6
#     Node 3, Type 0, BuildingBlock: KUMJIN_clean_sbu_1, # of connection points: 6
#     Node 4, Type 0, BuildingBlock: KUMJIN_clean_sbu_1, # of connection points: 6
#     Node 5, Type 0, BuildingBlock: KUMJIN_clean_sbu_1, # of connection points: 6
#     Node 6, Type 0, BuildingBlock: KUMJIN_clean_sbu_1, # of connection points: 6
#     Node 7, Type 0, BuildingBlock: KUMJIN_clean_sbu_1, # of connection points: 6
#     Edge 8, Type (0, 0), BuildingBlock: XUDNAN_clean_linker_2, # of connection points: 2
#     Edge 9, Type (0, 0), BuildingBlock: XUDNAN_clean_linker_2, # of connection points: 2
#     Edge 10, Type (0, 0), BuildingBlock: XUDNAN_clean_linker_2, # of connection points: 2
#     Edge 11, Type (0, 0), BuildingBlock: XUDNAN_clean_linker_2, # of connection points: 2
#     Edge 12, Type (0, 0), BuildingBlock: XUDNAN_clean_linker_2, # of connection points: 2
#     Edge 13, Type (0, 0), BuildingBlock: XUDNAN_clean_linker_2, # of connection points: 2
#     Edge 14, Type (0, 0), BuildingBlock: XUDNAN_clean_linker_2, # of connection points: 2
#     Edge 15, Type (0, 0), BuildingBlock: XUDNAN_clean_linker_2, # of connection points: 2
#     Edge 16, Type (0, 0), BuildingBlock: XUDNAN_clean_linker_2, # of connection points: 2
#     Edge 17, Type (0, 0), BuildingBlock: XUDNAN_clean_linker_2, # of connection points: 2
#     Edge 18, Type (0, 0), BuildingBlock: XUDNAN_clean_linker_2, # of connection points: 2
#     Edge 19, Type (0, 0), BuildingBlock: XUDNAN_clean_linker_2, # of connection points: 2
#     Edge 20, Type (0, 0), BuildingBlock: XUDNAN_clean_linker_2, # of connection points: 2
#     Edge 21, Type (0, 0), BuildingBlock: XUDNAN_clean_linker_2, # of connection points: 2
#     Edge 22, Type (0, 0), BuildingBlock: XUDNAN_clean_linker_2, # of connection points: 2
#     Edge 23, Type (0, 0), BuildingBlock: XUDNAN_clean_linker_2, # of connection points: 2
#     Edge 24, Type (0, 0), BuildingBlock: XUDNAN_clean_linker_2, # of connection points: 2
#     Edge 25, Type (0, 0), BuildingBlock: XUDNAN_clean_linker_2, # of connection points: 2
#     Edge 26, Type (0, 0), BuildingBlock: XUDNAN_clean_linker_2, # of connection points: 2
#     Edge 27, Type (0, 0), BuildingBlock: XUDNAN_clean_linker_2, # of connection points: 2
#     Edge 28, Type (0, 0), BuildingBlock: XUDNAN_clean_linker_2, # of connection points: 2
#     Edge 29, Type (0, 0), BuildingBlock: XUDNAN_clean_linker_2, # of connection points: 2
#     Edge 30, Type (0, 0), BuildingBlock: XUDNAN_clean_linker_2, # of connection points: 2
#     Edge 31, Type (0, 0), BuildingBlock: XUDNAN_clean_linker_2, # of connection points: 2
# Relax obj value: 0.008
# Max RMSD: 0.072
# Mean RMSD: 0.071
data_MOF--net-snk--node1-KUMJIN_clean_sbu_1--edge1-XUDNAN_clean_linker_2
_symmetry_space_group_name_H-M    P1
_symmetry_Int_Tables_number       1
_symmetry_cell_setting            triclinic
loop_
_symmetry_equiv_pos_as_xyz
'x, y, z'
_cell_length_a     38.280734
_cell_length_b     38.21966
_cell_length_c     24.899227
_cell_angle_alpha  90.233272
_cell_angle_beta   90.162697
_cell_angle_gamma 90.085089
loop_
_atom_site_label
_atom_site_type_symbol
_atom_site_fract_x
_atom_site_fract_y
_atom_site_fract_z
_atom_type_partial_charge
Eu0 Eu 0.01304 0.03238 0.58651 0.0
C1 C 0.94497 0.92104 0.45355 0.0
N2 N 0.98015 0.92517 0.45544 0.0
C3 C 0.9874 0.86414 0.47417 0.0
C4 C 0.92939 0.88847 0.46479 0.0
C5 C 1.0016 0.8971 0.46314 0.0
C6 C 0.95112 0.85994 0.47597 0.0
C7 C 0.88831 0.94558 0.43292 0.0
C8 C 0.92481 0.94927 0.43835 0.0
C9 C 0.8723 0.91386 0.44734 0.0
C10 C 0.89283 0.88534 0.46329 0.0
Eu11 Eu 1.00209 0.98249 0.4431 0.0
N12 N 0.94123 0.97938 0.42434 0.0
C13 C 0.86931 0.97328 0.41074 0.0
C14 C 0.92341 1.0046 0.39702 0.0
C15 C 0.88709 1.00254 0.39133 0.0
H16 H 0.02961 0.90058 0.4626 0.0
H17 H 0.87295 0.02328 0.37136 0.0
H18 H 0.94722 0.09125 0.59356 0.0
H19 H 0.1514 0.06083 0.61687 0.0
H20 H 0.93724 0.02627 0.37936 0.0
H21 H 0.84123 0.97153 0.40583 0.0
H22 H 0.0974 0.02485 0.61904 0.0
H23 H 1.00441 0.84211 0.48176 0.0
H24 H 0.84423 0.91072 0.44442 0.0
H25 H 0.88026 0.86071 0.47277 0.0
H26 H 0.93751 0.15368 0.57268 0.0
H27 H 0.94018 0.83446 0.48486 0.0
H28 H 0.14856 0.12253 0.5871 0.0
N29 N 1.00153 0.09308 0.57672 0.0
C30 C 0.0297 0.11412 0.56946 0.0
C31 C 0.96356 0.14279 0.57069 0.0
C32 C 0.02576 0.15016 0.55924 0.0
C33 C 0.96901 0.10731 0.58148 0.0
C34 C 0.992 0.16417 0.55816 0.0
N35 N 0.06503 0.06583 0.59032 0.0
C36 C 0.09611 0.05191 0.60671 0.0
C37 C 0.09251 0.12155 0.57493 0.0
C38 C 0.06256 0.10014 0.57733 0.0
C39 C 0.12491 0.10694 0.58833 0.0
C40 C 0.12661 0.07214 0.6053 0.0
H41 H 0.9878 0.19172 0.55042 0.0
H42 H 0.05312 0.19887 0.54434 0.0
H43 H 0.11169 0.17374 0.558 0.0
O44 O 0.02196 1.00315 0.66055 0.0
O45 O 0.05481 0.03496 0.5211 0.0
O46 O 0.02429 0.03767 0.44256 0.0
O47 O 1.00127 0.05526 0.66524 0.0
O48 O 0.0458 0.98274 0.5792 0.0
O49 O 0.05172 0.96664 0.48867 0.0
O50 O 0.99354 0.9729 0.3571 0.0
O51 O 0.99163 0.95619 0.5235 0.0
O52 O 0.96506 0.99825 0.5734 0.0
O53 O 0.04509 0.96726 0.3906 0.0
O54 O 0.97998 0.0376 0.45216 0.0
O55 O 0.96176 0.03876 0.53998 0.0
C56 C 0.05096 0.04729 0.47228 0.0
C57 C 0.98351 0.01498 0.73159 0.0
C58 C 0.96986 0.99567 0.82266 0.0
C59 C 0.93569 0.98773 0.80572 0.0
C60 C 0.94919 0.00716 0.71566 0.0
C61 C 0.92541 0.99381 0.75272 0.0
C62 C 0.99368 0.00958 0.78531 0.0
C63 C 0.06097 0.96478 0.54007 0.0
C64 C 0.00917 0.02716 0.69187 0.0
C65 C 0.0556 0.17124 0.55308 0.0
C66 C 0.08895 0.15695 0.56098 0.0
C67 C 0.96797 0.96543 0.5588 0.0
C68 C 0.04099 0.98776 0.30076 0.0
C69 C 0.04255 0.99864 0.20359 0.0
C70 C 0.06984 0.0228 0.21234 0.0
C71 C 0.06784 0.0124 0.30818 0.0
C72 C 0.02824 0.98126 0.24851 0.0
C73 C 0.08218 0.02964 0.26417 0.0
C74 C 0.95862 0.049 0.48969 0.0
C75 C 0.02645 0.96822 0.34682 0.0
H76 H 0.91681 0.97718 0.83369 0.0
H77 H 0.94085 0.01122 0.67456 0.0
H78 H 0.89893 0.9881 0.74031 0.0
H79 H 0.02027 0.01534 0.79767 0.0
H80 H 0.08225 0.03604 0.17911 0.0
H81 H 0.07804 0.01813 0.34788 0.0
H82 H 0.00702 0.96278 0.24319 0.0
H83 H 0.10332 0.04807 0.2702 0.0
Eu84 Eu 0.22921 0.76079 0.83445 0.0
C85 C 0.34131 0.68764 0.68041 0.0
N86 N 0.33834 0.72152 0.69614 0.0
C87 C 0.40028 0.7252 0.7097 0.0
C88 C 0.37403 0.67074 0.68043 0.0
C89 C 0.36728 0.74085 0.70866 0.0
C90 C 0.40363 0.68987 0.69606 0.0
C91 C 0.31435 0.63592 0.64183 0.0
C92 C 0.3119 0.67062 0.66105 0.0
C93 C 0.34645 0.61826 0.64463 0.0
C94 C 0.37629 0.63571 0.66352 0.0
Eu95 Eu 0.28215 0.74668 0.69221 0.0
N96 N 0.28165 0.68893 0.65681 0.0
C97 C 0.28488 0.62061 0.61801 0.0
C98 C 0.25401 0.6752 0.62897 0.0
C99 C 0.25475 0.64058 0.61069 0.0
H100 H 0.36462 0.76818 0.71885 0.0
H101 H 0.23236 0.62958 0.59001 0.0
H102 H 0.16557 0.69866 0.82448 0.0
H103 H 0.21511 0.89941 0.87862 0.0
H104 H 0.23144 0.69104 0.62002 0.0
H105 H 0.28564 0.59399 0.60291 0.0
H106 H 0.24668 0.84346 0.86571 0.0
H107 H 0.42307 0.74039 0.72087 0.0
H108 H 0.34876 0.59152 0.63044 0.0
H109 H 0.40112 0.62214 0.6638 0.0
H110 H 0.10229 0.69569 0.80967 0.0
H111 H 0.42923 0.6778 0.69673 0.0
H112 H 0.15107 0.90166 0.86512 0.0
N113 N 0.16789 0.75441 0.82267 0.0
C114 C 0.1489 0.78443 0.82506 0.0
C115 C 0.1151 0.72087 0.81305 0.0
C116 C 0.11213 0.78376 0.82033 0.0
C117 C 0.15131 0.72275 0.81989 0.0
C118 C 0.09544 0.75155 0.81252 0.0
N119 N 0.20122 0.81537 0.84228 0.0
C120 C 0.21883 0.8446 0.85879 0.0
C121 C 0.1468 0.84674 0.84421 0.0
C122 C 0.16596 0.81568 0.83625 0.0
C123 C 0.16486 0.87726 0.85878 0.0
C124 C 0.20102 0.87613 0.86639 0.0
H125 H 0.06729 0.74997 0.80847 0.0
H126 H 0.06483 0.81484 0.82247 0.0
H127 H 0.09512 0.86982 0.84446 0.0
O128 O 0.2546 0.76926 0.91268 0.0
O129 O 0.22413 0.80291 0.76864 0.0
O130 O 0.22691 0.76622 0.69741 0.0
O131 O 0.20548 0.74206 0.90857 0.0
O132 O 0.28251 0.78692 0.83213 0.0
O133 O 0.29837 0.79405 0.74221 0.0
O134 O 0.28871 0.74683 0.60411 0.0
O135 O 0.30934 0.72792 0.76915 0.0
O136 O 0.26123 0.71245 0.81706 0.0
O137 O 0.29698 0.79467 0.65079 0.0
O138 O 0.22656 0.72537 0.70116 0.0
O139 O 0.2222 0.70862 0.78947 0.0
C140 C 0.21936 0.797 0.71707 0.0
C141 C 0.21633 0.77546 0.98676 0.0
C142 C 0.21897 0.7892 0.0829 0.0
C143 C 0.19059 0.81218 0.07605 0.0
C144 C 0.188 0.79842 0.9813 0.0
C145 C 0.17536 0.81675 0.02563 0.0
C146 C 0.23176 0.77088 0.03767 0.0
C147 C 0.30129 0.80159 0.79392 0.0
C148 C 0.22918 0.75547 0.93998 0.0
C149 C 0.09305 0.8149 0.82601 0.0
C150 C 0.1103 0.84621 0.83862 0.0
C151 C 0.29515 0.71217 0.81062 0.0
C152 C 0.30566 0.7994 0.55441 0.0
C153 C 0.30246 0.80736 0.45689 0.0
C154 C 0.32253 0.83806 0.46244 0.0
C155 C 0.32531 0.83033 0.55865 0.0
C156 C 0.29444 0.78783 0.50331 0.0
C157 C 0.33381 0.84937 0.51289 0.0
C158 C 0.21489 0.7038 0.73815 0.0
C159 C 0.29681 0.77987 0.60365 0.0
H160 H 0.17963 0.82618 0.10993 0.0
H161 H 0.17525 0.80185 0.94298 0.0
H162 H 0.15338 0.83427 0.02101 0.0
H163 H 0.2537 0.75319 0.04191 0.0
H164 H 0.32981 0.85329 0.42761 0.0
H165 H 0.33435 0.83972 0.59739 0.0
H166 H 0.27877 0.76428 0.4999 0.0
H167 H 0.34921 0.87304 0.51654 0.0
Eu168 Eu 0.50305 0.98287 0.07685 0.0
C169 C 0.5485 0.11647 0.94719 0.0
N170 N 0.51705 0.10068 0.95479 0.0
C171 C 0.48926 0.15653 0.96363 0.0
C172 C 0.55138 0.15328 0.94736 0.0
C173 C 0.48753 0.12001 0.96207 0.0
C174 C 0.52129 0.17326 0.95607 0.0
C175 C 0.61118 0.11163 0.9343 0.0
C176 C 0.57808 0.09578 0.94015 0.0
C177 C 0.61388 0.14824 0.93251 0.0
C178 C 0.58404 0.169 0.93874 0.0
Eu179 Eu 0.51624 0.03973 0.94156 0.0
N180 N 0.57469 0.0603 0.9408 0.0
C181 C 0.64069 0.09022 0.93087 0.0
C182 C 0.60352 0.03941 0.93878 0.0
C183 C 0.63686 0.05399 0.93385 0.0
H184 H 0.46242 0.10747 0.96492 0.0
H185 H 0.6596 0.03722 0.9321 0.0
H186 H 0.56814 0.926 0.10165 0.0
H187 H 0.36298 0.9652 0.10763 0.0
H188 H 0.6013 0.01157 0.94148 0.0
H189 H 0.66657 0.10142 0.92668 0.0
H190 H 0.41768 0.99892 0.09582 0.0
H191 H 0.46575 0.17177 0.96952 0.0
H192 H 0.63904 0.1608 0.92733 0.0
H193 H 0.58665 0.19723 0.93814 0.0
H194 H 0.57532 0.86209 0.11304 0.0
H195 H 0.52248 0.20159 0.95667 0.0
H196 H 0.3648 0.90051 0.10925 0.0
N197 N 0.51317 0.92279 0.09016 0.0
C198 C 0.4841 0.90233 0.09203 0.0
C199 C 0.54958 0.87303 0.1067 0.0
C200 C 0.48694 0.86589 0.09958 0.0
C201 C 0.54548 0.90909 0.09996 0.0
C202 C 0.52025 0.85125 0.10555 0.0
N203 N 0.44934 0.95365 0.0874 0.0
C204 C 0.41846 0.97069 0.09559 0.0
C205 C 0.42091 0.89797 0.09879 0.0
C206 C 0.45133 0.91821 0.09129 0.0
C207 C 0.38874 0.91516 0.10344 0.0
C208 C 0.38759 0.95169 0.10257 0.0
H209 H 0.52348 0.82336 0.11136 0.0
H210 H 0.45822 0.81738 0.1088 0.0
H211 H 0.4005 0.84546 0.10852 0.0
O212 O 0.50954 0.01957 0.14449 0.0
O213 O 0.46234 0.97445 1.01047 0.0
O214 O 0.49279 0.98553 0.93263 0.0
O215 O 0.50403 0.9645 0.1596 0.0
O216 O 0.47709 0.03571 0.06942 0.0
O217 O 0.46285 0.04289 0.9804 0.0
O218 O 0.53289 0.0433 0.85755 0.0
O219 O 0.5364 0.05866 0.02293 0.0
O220 O 0.5553 0.00706 0.05759 0.0
O221 O 0.48143 0.06078 0.8802 0.0
O222 O 0.54384 0.9871 0.93723 0.0
O223 O 0.54524 0.96026 0.02207 0.0
C224 C 0.46857 0.96845 0.95927 0.0
C225 C 0.53622 0.99665 0.22313 0.0
C226 C 0.55137 0.00629 0.31737 0.0
C227 C 0.58484 0.99278 0.30744 0.0
C228 C 0.56973 0.98312 0.21401 0.0
C229 C 0.59403 0.98162 0.25588 0.0
C230 C 0.52725 0.00865 0.27477 0.0
C231 C 0.45622 0.04737 0.03177 0.0
C232 C 0.50942 0.99511 0.18073 0.0
C233 C 0.45654 0.84546 0.10354 0.0
C234 C 0.42364 0.86147 0.10343 0.0
C235 C 0.5581 0.04117 0.05377 0.0
C236 C 0.48742 0.03474 0.79443 0.0
C237 C 0.48627 0.02112 0.69833 0.0
C238 C 0.46021 0.99598 0.70783 0.0
C239 C 0.46089 0.00992 0.80265 0.0
C240 C 0.49978 0.04058 0.74197 0.0
C241 C 0.44746 0.99066 0.75958 0.0
C242 C 0.55373 0.96205 0.97055 0.0
C243 C 0.50255 0.05402 0.84052 0.0
H244 H 0.60377 0.99073 0.3397 0.0
H245 H 0.57675 0.97297 0.17487 0.0
H246 H 0.61982 0.97108 0.2486 0.0
H247 H 0.50112 0.01839 0.28233 0.0
H248 H 0.4492 0.98088 0.67495 0.0
H249 H 0.45058 1.00536 0.84245 0.0
H250 H 0.52012 0.05982 0.73524 0.0
H251 H 0.42704 0.97158 0.76632 0.0
Eu252 Eu 0.21699 0.25778 0.17548 0.0
C253 C 0.35052 0.29909 0.30863 0.0
N254 N 0.33944 0.26613 0.29699 0.0
C255 C 0.39794 0.24885 0.27561 0.0
C256 C 0.38604 0.3083 0.30362 0.0
C257 C 0.36247 0.24097 0.28116 0.0
C258 C 0.4098 0.28266 0.28692 0.0
C259 C 0.33712 0.35781 0.33936 0.0
C260 C 0.32621 0.32356 0.32594 0.0
C261 C 0.37232 0.36737 0.33308 0.0
C262 C 0.39675 0.3426 0.31567 0.0
Eu263 Eu 0.27936 0.25455 0.308 0.0
N264 N 0.29237 0.31339 0.33246 0.0
C265 C 0.31265 0.38104 0.36092 0.0
C266 C 0.26967 0.33477 0.35911 0.0
C267 C 0.27896 0.36919 0.37195 0.0
H268 H 0.35349 0.21473 0.27352 0.0
H269 H 0.26042 0.38623 0.39178 0.0
H270 H 0.15958 0.32353 0.18681 0.0
H271 H 0.19538 0.11696 0.15477 0.0
H272 H 0.24483 0.32517 0.37266 0.0
H273 H 0.31997 0.40755 0.37173 0.0
H274 H 0.23045 0.17091 0.1634 0.0
H275 H 0.41611 0.2288 0.26296 0.0
H276 H 0.3811 0.3936 0.34293 0.0
H277 H 0.42393 0.35017 0.31206 0.0
H278 H 0.09552 0.33145 0.19054 0.0
H279 H 0.43733 0.28867 0.28278 0.0
H280 H 0.13084 0.12029 0.15483 0.0
N281 N 0.15654 0.26828 0.17958 0.0
C282 C 0.13561 0.23964 0.17474 0.0
C283 C 0.10647 0.3055 0.18629 0.0
C284 C 0.09895 0.243 0.1753 0.0
C285 C 0.14268 0.30094 0.18486 0.0
C286 C 0.08449 0.27642 0.18149 0.0
N287 N 0.18639 0.20421 0.17001 0.0
C288 C 0.20243 0.17263 0.16399 0.0
C289 C 0.12984 0.17667 0.16366 0.0
C290 C 0.1509 0.20676 0.16914 0.0
C291 C 0.14613 0.14405 0.15882 0.0
C292 C 0.18257 0.14204 0.1589 0.0
H293 H 0.05643 0.28007 0.18225 0.0
H294 H 0.04969 0.21517 0.16961 0.0
H295 H 0.07672 0.15723 0.1589 0.0
O296 O 0.23751 0.24737 0.09504 0.0
O297 O 0.19549 0.22834 0.249 0.0
O298 O 0.24595 0.20811 0.28592 0.0
O299 O 0.19508 0.28381 0.1047 0.0
O300 O 0.26813 0.22884 0.1685 0.0
O301 O 0.28844 0.20838 0.25077 0.0
O302 O 0.2651 0.25249 0.39425 0.0
O303 O 0.30154 0.27989 0.23206 0.0
O304 O 0.2528 0.3042 0.19308 0.0
O305 O 0.3097 0.22304 0.364 0.0
O306 O 0.22487 0.27987 0.31287 0.0
O307 O 0.21758 0.30478 0.22961 0.0
C308 C 0.21186 0.20826 0.28372 0.0
C309 C 0.19796 0.25219 0.02232 0.0
C310 C 0.19768 0.24097 0.9251 0.0
C311 C 0.16665 0.22163 0.93133 0.0
C312 C 0.16696 0.23289 0.02703 0.0
C313 C 0.15146 0.21774 0.98184 0.0
C314 C 0.21319 0.25638 0.97112 0.0
C315 C 0.28686 0.20719 0.19761 0.0
C316 C 0.21495 0.26727 0.07062 0.0
C317 C 0.07792 0.21307 0.16945 0.0
C318 C 0.09331 0.18006 0.16329 0.0
C319 C 0.28682 0.30371 0.20149 0.0
C320 C 0.29811 0.21698 0.45954 0.0
C321 C 0.2884 0.21462 0.55699 0.0
C322 C 0.31199 0.18653 0.55999 0.0
C323 C 0.32166 0.18897 0.46425 0.0
C324 C 0.28164 0.23002 0.50638 0.0
C325 C 0.3285 0.17396 0.51406 0.0
C326 C 0.21094 0.30379 0.28124 0.0
C327 C 0.29069 0.23128 0.4053 0.0
H328 H 0.15379 0.20985 0.89691 0.0
H329 H 0.15466 0.22953 0.06559 0.0
H330 H 0.1275 0.20292 0.98597 0.0
H331 H 0.23729 0.27107 0.9673 0.0
H332 H 0.31804 0.1745 0.59822 0.0
H333 H 0.33466 0.17833 0.42924 0.0
H334 H 0.2634 0.25158 0.50346 0.0
H335 H 0.34668 0.15238 0.51706 0.0
Eu336 Eu 0.72624 0.25957 0.3414 0.0
C337 C 0.86104 0.22497 0.20191 0.0
N338 N 0.84346 0.25558 0.20866 0.0
C339 C 0.89777 0.28659 0.21718 0.0
C340 C 0.89789 0.22402 0.20354 0.0
C341 C 0.86131 0.28635 0.21394 0.0
C342 C 0.91615 0.25524 0.21252 0.0
C343 C 0.85973 0.16288 0.18056 0.0
C344 C 0.84225 0.19465 0.19083 0.0
C345 C 0.89637 0.16184 0.18272 0.0
C346 C 0.91538 0.19225 0.19455 0.0
Eu347 Eu 0.7818 0.25208 0.20169 0.0
N348 N 0.80682 0.19642 0.18883 0.0
C349 C 0.83985 0.13322 0.16763 0.0
C350 C 0.78741 0.16811 0.17352 0.0
C351 C 0.80354 0.13593 0.16366 0.0
H352 H 0.84772 0.31097 0.21397 0.0
H353 H 0.78802 0.11337 0.15237 0.0
H354 H 0.65359 0.21996 0.29825 0.0
H355 H 0.74352 0.38916 0.43288 0.0
H356 H 0.75952 0.17047 0.16863 0.0
H357 H 0.85231 0.10832 0.15962 0.0
H358 H 0.76125 0.32998 0.40586 0.0
H359 H 0.9117 0.31106 0.22208 0.0
H360 H 0.91027 0.13766 0.17506 0.0
H361 H 0.94365 0.19106 0.19574 0.0
H362 H 0.59087 0.23344 0.28657 0.0
H363 H 0.94444 0.25557 0.21418 0.0
H364 H 0.68257 0.40851 0.4188 0.0
N365 N 0.66649 0.27076 0.32695 0.0
C366 C 0.65452 0.30248 0.34339 0.0
C367 C 0.60852 0.25316 0.30222 0.0
C368 C 0.61886 0.31114 0.3383 0.0
C369 C 0.64405 0.2457 0.30833 0.0
C370 C 0.59589 0.2861 0.31694 0.0
N371 N 0.71219 0.31693 0.37061 0.0
C372 C 0.73522 0.33859 0.39639 0.0
C373 C 0.66643 0.35968 0.38188 0.0
C374 C 0.67813 0.32645 0.36482 0.0
C375 C 0.69052 0.38275 0.40527 0.0
C376 C 0.72498 0.37199 0.41307 0.0
H377 H 0.56834 0.29181 0.31221 0.0
H378 H 0.58004 0.35158 0.35062 0.0
H379 H 0.62162 0.39402 0.38895 0.0
O380 O 0.72044 0.26221 0.42962 0.0
O381 O 0.702 0.2822 0.26439 0.0
O382 O 0.75122 0.30076 0.22176 0.0
O383 O 0.70894 0.21373 0.38596 0.0
O384 O 0.77928 0.28745 0.3413 0.0
O385 O 0.79119 0.30153 0.25229 0.0
O386 O 0.75616 0.24493 0.1234 0.0
O387 O 0.79141 0.21062 0.26678 0.0
O388 O 0.78271 0.24259 0.34358 0.0
O389 O 0.8043 0.2739 0.12856 0.0
O390 O 0.7274 0.22828 0.20474 0.0
O391 O 0.72184 0.20941 0.29219 0.0
C392 C 0.71726 0.30123 0.22723 0.0
C393 C 0.70047 0.21203 0.48268 0.0
C394 C 0.70328 0.20633 0.58068 0.0
C395 C 0.68184 0.17648 0.57683 0.0
C396 C 0.67939 0.18197 0.48024 0.0
C397 C 0.67003 0.16449 0.52704 0.0
C398 C 0.71218 0.22436 0.53316 0.0
C399 C 0.79521 0.30664 0.30463 0.0
C400 C 0.71022 0.22977 0.43219 0.0
C401 C 0.60729 0.34437 0.35453 0.0
C402 C 0.63101 0.36858 0.37621 0.0
C403 C 0.79523 0.21498 0.319 0.0
C404 C 0.79409 0.24195 0.04847 0.0
C405 C 0.79001 0.22854 0.95231 0.0
C406 C 0.81947 0.20681 0.95739 0.0
C407 C 0.82365 0.22042 0.05204 0.0
C408 C 0.7774 0.24613 0.99835 0.0
C409 C 0.8361 0.20286 1.00687 0.0
C410 C 0.71512 0.20635 0.24055 0.0
C411 C 0.78091 0.26036 0.09663 0.0
H412 H 0.67392 0.16244 0.61249 0.0
H413 H 0.66991 0.17204 0.44207 0.0
H414 H 0.65355 0.14149 0.52472 0.0
H415 H 0.72888 0.24725 0.5353 0.0
H416 H 0.83014 0.19334 0.92279 0.0
H417 H 0.83742 0.21746 0.08956 0.0
H418 H 0.75461 0.26281 0.99532 0.0
H419 H 0.85897 0.18636 1.01013 0.0
Eu420 Eu 0.73723 0.76409 0.69399 0.0
C421 C 0.85187 0.8123 0.83464 0.0
N422 N 0.84527 0.77743 0.8303 0.0
C423 C 0.90591 0.76584 0.81496 0.0
C424 C 0.88595 0.82543 0.82717 0.0
C425 C 0.87162 0.75404 0.82172 0.0
C426 C 0.91307 0.8017 0.81726 0.0
C427 C 0.83045 0.87123 0.84949 0.0
C428 C 0.82422 0.83491 0.84521 0.0
C429 C 0.86417 0.8845 0.84047 0.0
C430 C 0.89184 0.86167 0.82943 0.0
Eu431 Eu 0.7868 0.75972 0.84189 0.0
N432 N 0.79163 0.82139 0.8531 0.0
C433 C 0.8028 0.8931 0.86426 0.0
C434 C 0.76573 0.84227 0.87295 0.0
C435 C 0.77055 0.87843 0.87729 0.0
H436 H 0.8659 0.72637 0.81953 0.0
H437 H 0.7496 0.89489 0.89182 0.0
H438 H 0.6923 0.8395 0.69909 0.0
H439 H 0.69552 0.63891 0.61169 0.0
H440 H 0.74159 0.83127 0.88721 0.0
H441 H 0.80652 0.92111 0.86806 0.0
H442 H 0.73763 0.68333 0.64525 0.0
H443 H 0.92674 0.74734 0.80758 0.0
H444 H 0.86928 0.91236 0.84296 0.0
H445 H 0.91777 0.87229 0.82317 0.0
H446 H 0.63086 0.8593 0.69635 0.0
H447 H 0.9396 0.81078 0.81137 0.0
H448 H 0.63215 0.65197 0.61157 0.0
N449 N 0.67944 0.78581 0.68843 0.0
C450 C 0.65407 0.76228 0.67605 0.0
C451 C 0.63697 0.83186 0.69112 0.0
C452 C 0.61879 0.77252 0.67199 0.0
C453 C 0.67167 0.82051 0.69335 0.0
C454 C 0.61032 0.80766 0.68118 0.0
N455 N 0.69826 0.72019 0.66501 0.0
C456 C 0.70997 0.68892 0.64555 0.0
C457 C 0.63889 0.70415 0.64438 0.0
C458 C 0.66385 0.7285 0.66306 0.0
C459 C 0.65048 0.67136 0.62646 0.0
C460 C 0.68624 0.66389 0.62642 0.0
H461 H 0.58352 0.81659 0.67864 0.0
H462 H 0.56615 0.75508 0.65368 0.0
H463 H 0.58382 0.69522 0.62903 0.0
O464 O 0.7694 0.75517 0.62209 0.0
O465 O 0.71646 0.72065 0.74845 0.0
O466 O 0.74026 0.72226 0.83563 0.0
O467 O 0.72913 0.79444 0.62112 0.0
O468 O 0.78117 0.72373 0.70278 0.0
O469 O 0.79409 0.71058 0.79293 0.0
O470 O 0.78231 0.76753 0.92865 0.0
O471 O 0.81371 0.77314 0.76255 0.0
O472 O 0.77265 0.8071 0.72384 0.0
O473 O 0.81364 0.72514 0.89879 0.0
O474 O 0.7306 0.77654 0.84023 0.0
O475 O 0.7307 0.80455 0.75994 0.0
C476 C 0.7183 0.70973 0.79896 0.0
C477 C 0.73837 0.76355 0.54023 0.0
C478 C 0.74697 0.75134 0.44442 0.0
C479 C 0.71204 0.74 0.44103 0.0
C480 C 0.70342 0.75281 0.53504 0.0
C481 C 0.69051 0.74079 0.486 0.0
C482 C 0.76018 0.7627 0.49469 0.0
C483 C 0.79564 0.70416 0.74074 0.0
C484 C 0.75145 0.7768 0.59254 0.0
C485 C 0.59343 0.74778 0.65665 0.0
C486 C 0.60348 0.71369 0.64259 0.0
C487 C 0.80546 0.79949 0.73138 0.0
C488 C 0.82958 0.7503 0.9832 0.0
C489 C 0.84524 0.75444 0.0786 0.0
C490 C 0.87831 0.76725 0.06377 0.0
C491 C 0.86271 0.7632 0.96973 0.0
C492 C 0.82089 0.7461 0.03777 0.0
C493 C 0.88688 0.77155 1.00978 0.0
C494 C 0.71488 0.79611 0.80468 0.0
C495 C 0.80338 0.74226 0.94121 0.0
H496 H 0.70129 0.73037 0.40348 0.0
H497 H 0.6858 0.75415 0.56868 0.0
H498 H 0.66359 0.73233 0.48274 0.0
H499 H 0.78696 0.77167 0.49813 0.0
H500 H 0.89743 0.77453 0.09396 0.0
H501 H 0.86998 0.76704 0.92845 0.0
H502 H 0.7953 0.73612 0.04831 0.0
H503 H 0.91233 0.78164 0.99892 0.0
Eu504 Eu 0.51321 0.53268 0.08763 0.0
C505 C 0.45092 0.41351 0.95231 0.0
N506 N 0.485 0.4216 0.96141 0.0
C507 C 0.49764 0.36172 0.98162 0.0
C508 C 0.43854 0.37914 0.95977 0.0
C509 C 0.50865 0.39626 0.97417 0.0
C510 C 0.4624 0.35316 0.9747 0.0
C511 C 0.39303 0.43215 0.92524 0.0
C512 C 0.42857 0.43974 0.93507 0.0
C513 C 0.38024 0.39825 0.93461 0.0
C514 C 0.40299 0.37176 0.95147 0.0
Eu515 Eu 0.50184 0.48012 0.94708 0.0
N516 N 0.44185 0.47217 0.9256 0.0
C517 C 0.37163 0.45857 0.90467 0.0
C518 C 0.42169 0.49703 0.90137 0.0
C519 C 0.38619 0.49096 0.89182 0.0
H520 H 0.53593 0.4029 0.979 0.0
H521 H 0.37022 0.51108 0.87368 0.0
H522 H 0.44864 0.59316 0.09217 0.0
H523 H 0.65223 0.5506 0.12528 0.0
H524 H 0.4329 0.52138 0.88813 0.0
H525 H 0.34419 0.45381 0.89667 0.0
H526 H 0.59725 0.51724 0.11181 0.0
H527 H 0.51632 0.34173 0.99251 0.0
H528 H 0.35298 0.39202 0.92761 0.0
H529 H 0.39291 0.34554 0.9572 0.0
H530 H 0.44248 0.65716 0.08858 0.0
H531 H 0.45395 0.32636 0.98037 0.0
H532 H 0.6516 0.6153 0.12099 0.0
N533 N 0.50418 0.59406 0.08777 0.0
C534 C 0.53334 0.61429 0.09113 0.0
C535 C 0.46821 0.64546 0.08851 0.0
C536 C 0.531 0.65114 0.09208 0.0
C537 C 0.47183 0.60908 0.08922 0.0
C538 C 0.49795 0.66662 0.08921 0.0
N539 N 0.56676 0.56263 0.09737 0.0
C540 C 0.59708 0.54548 0.10927 0.0
C541 C 0.59597 0.6182 0.10543 0.0
C542 C 0.56548 0.59811 0.09722 0.0
C543 C 0.62758 0.60079 0.11471 0.0
C544 C 0.62807 0.56426 0.11709 0.0
H545 H 0.49506 0.69482 0.08964 0.0
H546 H 0.56018 0.69963 0.09862 0.0
H547 H 0.61698 0.67079 0.11114 0.0
O548 O 0.52663 0.5042 0.16047 0.0
O549 O 0.55451 0.54228 0.02172 0.0
O550 O 0.52096 0.53593 0.94647 0.0
O551 O 0.49571 0.55096 0.16689 0.0
O552 O 0.53741 0.47868 0.08137 0.0
O553 O 0.55295 0.4715 0.99247 0.0
O554 O 0.49511 0.47341 0.85951 0.0
O555 O 0.48402 0.45612 0.02644 0.0
O556 O 0.46257 0.50348 0.07118 0.0
O557 O 0.5452 0.46167 0.89778 0.0
O558 O 0.47821 0.53518 0.95091 0.0
O559 O 0.4628 0.5424 0.04001 0.0
C560 C 0.54942 0.54741 0.96999 0.0
C561 C 0.48694 0.50665 0.23205 0.0
C562 C 0.47592 0.48959 0.32502 0.0
C563 C 0.44896 0.46739 0.30701 0.0
C564 C 0.45964 0.4847 0.21505 0.0
C565 C 0.44075 0.46521 0.25238 0.0
C566 C 0.49474 0.50935 0.28715 0.0
C567 C 0.55737 0.46489 0.04398 0.0
C568 C 0.50916 0.52458 0.1925 0.0
C569 C 0.56148 0.67131 0.09797 0.0
C570 C 0.59382 0.65488 0.10518 0.0
C571 C 0.4604 0.47034 0.05759 0.0
C572 C 0.54214 0.45206 0.80125 0.0
C573 C 0.54207 0.45261 0.70282 0.0
C574 C 0.57058 0.42945 0.70322 0.0
C575 C 0.57081 0.4292 0.80034 0.0
C576 C 0.52789 0.46388 0.75224 0.0
C577 C 0.58483 0.41796 0.75162 0.0
C578 C 0.45883 0.54987 0.98863 0.0
C579 C 0.52708 0.46262 0.85348 0.0
H580 H 0.43405 0.45196 0.33529 0.0
H581 H 0.45333 0.48223 0.17292 0.0
H582 H 0.4199 0.44811 0.23887 0.0
H583 H 0.51612 0.52595 0.30036 0.0
H584 H 0.58227 0.42065 0.66597 0.0
H585 H 0.58219 0.41965 0.83737 0.0
H586 H 0.50577 0.48156 0.75252 0.0
H587 H 0.60688 0.40026 0.75138 0.0
Eu588 Eu 0.00858 0.47287 0.58685 0.0
C589 C 0.01721 0.62196 0.45383 0.0
N590 N 0.98957 0.60023 0.46166 0.0
C591 C 0.95133 0.64944 0.47108 0.0
C592 C 0.01299 0.65862 0.45618 0.0
C593 C 0.95676 0.61332 0.46832 0.0
C594 C 0.97962 0.6722 0.46556 0.0
C595 C 0.07902 0.62966 0.43556 0.0
C596 C 0.04984 0.6076 0.44304 0.0
C597 C 0.07486 0.66613 0.4381 0.0
C598 C 0.04196 0.68056 0.44843 0.0
Eu599 Eu 1.00092 0.53995 0.45335 0.0
N600 N 0.0533 0.57215 0.44162 0.0
C601 C 0.11172 0.61444 0.42676 0.0
C602 C 0.08533 0.55726 0.43415 0.0
C603 C 0.11491 0.57811 0.42647 0.0
H604 H 0.9346 0.59596 0.46993 0.0
H605 H 0.14021 0.5661 0.42064 0.0
H606 H 0.06777 0.40842 0.57332 0.0
H607 H 0.8745 0.46268 0.65984 0.0
H608 H 0.08861 0.52942 0.43503 0.0
H609 H 0.13476 0.63051 0.42106 0.0
H610 H 0.92996 0.49244 0.63797 0.0
H611 H 0.92529 0.65976 0.47654 0.0
H612 H 0.097 0.68342 0.43252 0.0
H613 H 0.03919 0.70875 0.45023 0.0
H614 H 0.06886 0.34406 0.56354 0.0
H615 H 0.97529 0.70019 0.46747 0.0
H616 H 0.86913 0.39866 0.64693 0.0
N617 N 0.0126 0.41114 0.58057 0.0
C618 C 0.98271 0.39288 0.58957 0.0
C619 C 0.04431 0.35747 0.56982 0.0
C620 C 0.98222 0.35599 0.58653 0.0
C621 C 0.04352 0.39395 0.57405 0.0
C622 C 0.01338 0.33841 0.575 0.0
N623 N 0.95477 0.44635 0.60992 0.0
C624 C 0.92758 0.46474 0.63133 0.0
C625 C 0.92218 0.39267 0.61833 0.0
C626 C 0.9531 0.41093 0.60556 0.0
C627 C 0.89338 0.41171 0.63687 0.0
C628 C 0.89627 0.44785 0.6441 0.0
H629 H 0.0141 0.31012 0.57235 0.0
H630 H 0.95017 0.30951 0.59451 0.0
H631 H 0.89752 0.34166 0.62208 0.0
O632 O 0.00697 0.49477 0.6701 0.0
O633 O 0.96044 0.46627 0.53314 0.0
O634 O 0.9868 0.48275 0.45628 0.0
O635 O 0.04061 0.45081 0.65034 0.0
O636 O 0.98647 0.52772 0.59102 0.0
O637 O 0.95607 0.5413 0.51399 0.0
O638 O 0.00897 0.54345 0.36533 0.0
O639 O 0.03137 0.55936 0.52651 0.0
O640 O 0.05282 0.50703 0.55657 0.0
O641 O 0.95651 0.54683 0.39966 0.0
O642 O 0.03757 0.49377 0.44237 0.0
O643 O 0.04692 0.45831 0.51838 0.0
C644 C 0.95971 0.46971 0.48075 0.0
C645 C 0.04287 0.46949 0.74362 0.0
C646 C 0.04063 0.48308 0.8402 0.0
C647 C 0.06806 0.45946 0.84885 0.0
C648 C 0.07057 0.44628 0.75404 0.0
C649 C 0.083 0.44141 0.80608 0.0
C650 C 0.02808 0.48837 0.78719 0.0
C651 C 0.95878 0.5406 0.56689 0.0
C652 C 0.02936 0.47183 0.6875 0.0
C653 C 0.95111 0.3378 0.59718 0.0
C654 C 0.92116 0.35609 0.61306 0.0
C655 C 0.05263 0.5414 0.55771 0.0
C656 C 0.95958 0.55024 0.30189 0.0
C657 C 0.962 0.54635 0.20329 0.0
C658 C 0.92573 0.55139 0.2013 0.0
C659 C 0.92331 0.55558 0.29809 0.0
C660 C 0.97909 0.54607 0.25388 0.0
C661 C 0.90665 0.55622 0.24828 0.0
C662 C 0.05306 0.46746 0.46758 0.0
C663 C 0.97554 0.5464 0.35623 0.0
H664 H 0.07812 0.45514 0.88901 0.0
H665 H 0.08262 0.43148 0.72186 0.0
H666 H 0.10424 0.42335 0.81334 0.0
H667 H 0.00672 0.50636 0.7802 0.0
H668 H 0.91214 0.55182 0.16306 0.0
H669 H 0.90754 0.55876 0.33383 0.0
H670 H 0.00701 0.54169 0.25581 0.0
H671 H 0.87869 0.56017 0.2461 0.0
H672 H 0.04621 0.09977 0.39642 0.0
H673 H 0.1204 0.04206 0.49358 0.0
H674 H 0.16861 0.07728 0.45659 0.0
H675 H 0.10147 0.11139 0.27707 0.0
H676 H 0.08456 0.1547 0.26638 0.0
H677 H 0.05799 0.12244 0.29925 0.0
H678 H 0.05118 0.16811 0.37736 0.0
H679 H 0.0804 0.19812 0.34441 0.0
H680 H 0.08974 0.18364 0.41175 0.0
H681 H 0.20887 0.11777 0.40909 0.0
H682 H 0.2393 0.16172 0.35485 0.0
H683 H 0.14003 0.19525 0.28746 0.0
C684 C 0.07268 0.09447 0.40947 0.0
C685 C 0.07957 0.06824 0.44815 0.0
C686 C 0.11445 0.06228 0.46465 0.0
C687 C 0.14205 0.08206 0.44361 0.0
C688 C 0.13446 0.10788 0.40601 0.0
C689 C 0.10069 0.11429 0.38907 0.0
C690 C 0.09992 0.14439 0.34922 0.0
C691 C 0.0851 0.13243 0.29476 0.0
C692 C 0.07907 0.1754 0.37206 0.0
C693 C 0.13865 0.15316 0.34528 0.0
C694 C 0.15791 0.13179 0.37876 0.0
C695 C 0.19408 0.13461 0.38263 0.0
C696 C 0.21116 0.15975 0.35139 0.0
C697 C 0.19229 0.18198 0.31622 0.0
C698 C 0.15537 0.17861 0.31348 0.0
H699 H 0.09184 0.95605 0.63956 0.0
H700 H 0.09396 0.91631 0.47591 0.0
H701 H 0.13734 0.87207 0.50292 0.0
H702 H 0.18592 0.94228 0.66678 0.0
H703 H 0.17838 0.93014 0.73567 0.0
H704 H 0.14933 0.96041 0.7028 0.0
H705 H 0.0956 0.9204 0.7237 0.0
H706 H 0.12553 0.89278 0.75906 0.0
H707 H 0.09813 0.87447 0.70699 0.0
H708 H 0.17748 0.82976 0.54853 0.0
H709 H 0.21156 0.79218 0.60877 0.0
H710 H 0.18493 0.85921 0.74377 0.0
C711 C 0.10165 0.93833 0.60913 0.0
C712 C 0.08914 0.93975 0.55547 0.0
C713 C 0.10288 0.91593 0.51721 0.0
C714 C 0.12766 0.89067 0.53218 0.0
C715 C 0.13894 0.8897 0.58548 0.0
C716 C 0.12666 0.9131 0.62327 0.0
C717 C 0.14235 0.90575 0.67821 0.0
C718 C 0.16536 0.93648 0.69695 0.0
C719 C 0.11361 0.89781 0.71933 0.0
C720 C 0.1643 0.87358 0.66598 0.0
C721 C 0.16225 0.86519 0.61197 0.0
C722 C 0.17938 0.8362 0.5908 0.0
C723 C 0.19866 0.8149 0.62564 0.0
C724 C 0.20078 0.82231 0.6815 0.0
C725 C 0.18377 0.85256 0.7016 0.0
H726 H 0.31127 0.8339 0.89292 0.0
H727 H 0.35328 0.82878 0.73109 0.0
H728 H 0.40099 0.86823 0.7579 0.0
H729 H 0.32975 0.92674 0.91201 0.0
H730 H 0.34043 0.92214 0.9822 0.0
H731 H 0.30983 0.89245 0.95097 0.0
H732 H 0.3475 0.83947 0.98116 0.0
H733 H 0.37725 0.86951 0.01297 0.0
H734 H 0.39331 0.83853 0.96433 0.0
H735 H 0.44608 0.90498 0.80256 0.0
H736 H 0.48163 0.94425 0.85833 0.0
H737 H 0.40827 0.93217 0.98979 0.0
C738 C 0.33045 0.8411 0.86304 0.0
C739 C 0.3287 0.8274 0.81001 0.0
C740 C 0.35415 0.83811 0.77216 0.0
C741 C 0.38146 0.86065 0.78698 0.0
C742 C 0.38273 0.87309 0.83958 0.0
C743 C 0.35756 0.86439 0.8768 0.0
C744 C 0.36454 0.88278 0.93008 0.0
C745 C 0.33433 0.9075 0.94466 0.0
C746 C 0.37106 0.85594 0.97474 0.0
C747 C 0.39763 0.9031 0.9169 0.0
C748 C 0.40779 0.8965 0.86462 0.0
C749 C 0.43804 0.91089 0.84322 0.0
C750 C 0.45803 0.9334 0.87542 0.0
C751 C 0.44751 0.94225 0.92839 0.0
C752 C 0.41703 0.92632 0.94956 0.0
H753 H 0.44078 0.07195 0.1328 0.0
H754 H 0.40269 0.07091 0.96822 0.0
H755 H 0.35339 0.10853 0.99514 0.0
H756 H 0.35487 0.07068 0.19734 0.0
H757 H 0.36835 0.09952 0.25102 0.0
H758 H 0.39971 0.07091 0.21967 0.0
H759 H 0.43906 0.12424 0.19838 0.0
H760 H 0.4078 0.15306 0.22935 0.0
H761 H 0.42121 0.16038 0.16099 0.0
H762 H 0.31124 0.14888 0.03752 0.0
H763 H 0.27741 0.18951 0.09249 0.0
H764 H 0.34043 0.16301 0.23207 0.0
C765 C 0.4219 0.0793 0.10243 0.0
C766 C 0.42572 0.0686 0.0482 0.0
C767 C 0.40045 0.07892 1.00984 0.0
C768 C 0.3723 0.10018 0.0248 0.0
C769 C 0.36962 0.11058 0.07834 0.0
C770 C 0.39355 0.1004 0.11671 0.0
C771 C 0.38509 0.11629 0.17116 0.0
C772 C 0.37649 0.08764 0.21222 0.0
C773 C 0.41508 0.13989 0.19112 0.0
C774 C 0.35298 0.13758 0.15709 0.0
C775 C 0.34464 0.13372 0.10331 0.0
C776 C 0.31735 0.15194 0.07975 0.0
C777 C 0.29836 0.1752 0.11161 0.0
C778 C 0.30646 0.18019 0.16688 0.0
C779 C 0.33372 0.16034 0.19007 0.0
H780 H 0.89999 0.96608 0.59689 0.0
H781 H 0.99274 0.90147 0.58565 0.0
H782 H 0.96099 0.85238 0.62697 0.0
H783 H 0.86819 0.93151 0.72542 0.0
H784 H 0.82301 0.9328 0.70522 0.0
H785 H 0.85358 0.96356 0.6772 0.0
H786 H 0.83597 0.94307 0.58121 0.0
H787 H 0.80569 0.91211 0.60953 0.0
H788 H 0.83917 0.89733 0.56408 0.0
H789 H 0.9195 0.8098 0.66771 0.0
H790 H 0.87081 0.7765 0.70717 0.0
H791 H 0.80367 0.86734 0.69284 0.0
C792 C 0.91364 0.94174 0.604 0.0
C793 C 0.94888 0.93757 0.58805 0.0
C794 C 0.96573 0.90518 0.5972 0.0
C795 C 0.94792 0.87713 0.62077 0.0
C796 C 0.91308 0.88171 0.63504 0.0
C797 C 0.89603 0.91316 0.62727 0.0
C798 C 0.85809 0.91041 0.64492 0.0
C799 C 0.85029 0.93613 0.69093 0.0
C800 C 0.83326 0.91607 0.59709 0.0
C801 C 0.85673 0.87276 0.66432 0.0
C802 C 0.88881 0.85677 0.65809 0.0
C803 C 0.89431 0.82212 0.67301 0.0
C804 C 0.86648 0.80342 0.6956 0.0
C805 C 0.83351 0.81933 0.70362 0.0
C806 C 0.82852 0.85439 0.68704 0.0
H807 H 0.95324 0.08782 0.39734 0.0
H808 H 0.89864 0.06492 0.54558 0.0
H809 H 0.85132 0.10532 0.51881 0.0
H810 H 0.92997 0.17725 0.38128 0.0
H811 H 0.9228 0.1739 0.3099 0.0
H812 H 0.9534 0.14511 0.34235 0.0
H813 H 0.92054 0.09167 0.30386 0.0
H814 H 0.8887 0.11937 0.27202 0.0
H815 H 0.8747 0.08605 0.31787 0.0
H816 H 0.81084 0.15053 0.47634 0.0
H817 H 0.77849 0.19221 0.41907 0.0
H818 H 0.85624 0.17981 0.29452 0.0
C819 C 0.93137 0.09125 0.42433 0.0
C820 C 0.93006 0.07352 0.47412 0.0
C821 C 0.90073 0.0787 0.50783 0.0
C822 C 0.87358 0.10146 0.49277 0.0
C823 C 0.87563 0.11824 0.44319 0.0
C824 C 0.90356 0.11293 0.40918 0.0
C825 C 0.89842 0.13202 0.35649 0.0
C826 C 0.9279 0.15865 0.34697 0.0
C827 C 0.89544 0.10572 0.3098 0.0
C828 C 0.8638 0.15006 0.36679 0.0
C829 C 0.85113 0.14188 0.41715 0.0
C830 C 0.82035 0.15667 0.43658 0.0
C831 C 0.80216 0.18038 0.40378 0.0
C832 C 0.81436 0.18873 0.35169 0.0
C833 C 0.84556 0.17316 0.33314 0.0
H834 H 0.66107 0.20842 0.1689 0.0
H835 H 0.72032 0.13784 0.26968 0.0
H836 H 0.68651 0.08757 0.23331 0.0
H837 H 0.57771 0.16183 0.18652 0.0
H838 H 0.56316 0.17119 0.11919 0.0
H839 H 0.59198 0.20122 0.15353 0.0
H840 H 0.6372 0.19669 0.07544 0.0
H841 H 0.60669 0.16832 0.04194 0.0
H842 H 0.65095 0.15388 0.05309 0.0
H843 H 0.64924 0.04474 0.17961 0.0
H844 H 0.60755 0.01334 0.12092 0.0
H845 H 0.56852 0.11254 0.06179 0.0
C846 C 0.66675 0.18233 0.18332 0.0
C847 C 0.6934 0.17676 0.22161 0.0
C848 C 0.69988 0.14249 0.24039 0.0
C849 C 0.68092 0.11385 0.21981 0.0
C850 C 0.65498 0.12013 0.18154 0.0
C851 C 0.64737 0.15363 0.16442 0.0
C852 C 0.61746 0.15348 0.12446 0.0
C853 C 0.5857 0.17309 0.14731 0.0
C854 C 0.62888 0.16899 0.07051 0.0
C855 C 0.6103 0.11454 0.11986 0.0
C856 C 0.63224 0.09574 0.15314 0.0
C857 C 0.63151 0.05928 0.1542 0.0
C858 C 0.60756 0.04163 0.12085 0.0
C859 C 0.58411 0.0603 0.08749 0.0
C860 C 0.58578 0.09733 0.08702 0.0
H861 H 0.69802 0.86568 0.7919 0.0
H862 H 0.66249 0.76858 0.86285 0.0
H863 H 0.61496 0.80021 0.90882 0.0
H864 H 0.68526 0.91847 0.9028 0.0
H865 H 0.66957 0.95636 0.86733 0.0
H866 H 0.69813 0.92585 0.83414 0.0
H867 H 0.65266 0.91709 0.75788 0.0
H868 H 0.62422 0.94814 0.79042 0.0
H869 H 0.60852 0.90483 0.77453 0.0
H870 H 0.57597 0.84267 0.95492 0.0
H871 H 0.54472 0.89322 0.99319 0.0
H872 H 0.6039 0.96295 0.89082 0.0
C873 C 0.67936 0.851 0.81544 0.0
C874 C 0.68344 0.81468 0.82333 0.0
C875 C 0.65947 0.79641 0.85609 0.0
C876 C 0.63244 0.81412 0.8823 0.0
C877 C 0.62963 0.85009 0.87504 0.0
C878 C 0.65201 0.86832 0.84175 0.0
C879 C 0.64427 0.90722 0.84344 0.0
C880 C 0.67622 0.92819 0.8631 0.0
C881 C 0.63166 0.92008 0.78829 0.0
C882 C 0.61502 0.90802 0.88436 0.0
C883 C 0.60696 0.87475 0.90188 0.0
C884 C 0.58204 0.86887 0.94148 0.0
C885 C 0.56495 0.8978 0.96387 0.0
C886 C 0.57298 0.93219 0.94707 0.0
C887 C 0.59776 0.93717 0.90576 0.0
H888 H 0.60881 0.58576 1.0016 0.0
H889 H 0.54627 0.55733 0.86216 0.0
H890 H 0.58381 0.59328 0.8052 0.0
H891 H 0.62275 0.67488 0.96423 0.0
H892 H 0.66768 0.67793 0.98584 0.0
H893 H 0.6385 0.64797 0.01838 0.0
H894 H 0.67847 0.59588 0.99917 0.0
H895 H 0.70929 0.62514 0.96805 0.0
H896 H 0.69298 0.58771 0.93145 0.0
H897 H 0.62597 0.63289 0.76251 0.0
H898 H 0.67052 0.67513 0.73658 0.0
H899 H 0.70729 0.68134 0.90111 0.0
C900 C 0.60302 0.58714 0.95923 0.0
C901 C 0.5741 0.56872 0.93695 0.0
C902 C 0.56788 0.57113 0.88084 0.0
C903 C 0.58919 0.59152 0.8478 0.0
C904 C 0.61698 0.6096 0.87095 0.0
C905 C 0.62414 0.60777 0.92526 0.0
C906 C 0.65555 0.63078 0.93913 0.0
C907 C 0.64547 0.65965 0.97923 0.0
C908 C 0.68588 0.60855 0.96073 0.0
C909 C 0.66425 0.64612 0.88435 0.0
C910 C 0.6417 0.6331 0.84581 0.0
C911 C 0.6438 0.64325 0.79241 0.0
C912 C 0.66937 0.66759 0.7779 0.0
C913 C 0.6927 0.68218 0.81614 0.0
C914 C 0.69011 0.67087 0.87039 0.0
H915 H 0.65422 0.33431 0.24638 0.0
H916 H 0.7338 0.32009 0.12495 0.0
H917 H 0.70084 0.35848 0.06351 0.0
H918 H 0.579 0.33808 0.15808 0.0
H919 H 0.55769 0.37208 0.19614 0.0
H920 H 0.58654 0.34186 0.22936 0.0
H921 H 0.62364 0.39371 0.26606 0.0
H922 H 0.59436 0.42382 0.23359 0.0
H923 H 0.64055 0.42563 0.21992 0.0
H924 H 0.65882 0.39888 0.01493 0.0
H925 H 0.61323 0.44056 0.98563 0.0
H926 H 0.56282 0.43095 0.14084 0.0
C927 C 0.66445 0.33879 0.20676 0.0
C928 C 0.69641 0.32368 0.19045 0.0
C929 C 0.70931 0.33116 0.1384 0.0
C930 C 0.69072 0.35292 0.10311 0.0
C931 C 0.6594 0.36756 0.12059 0.0
C932 C 0.64652 0.36106 0.17141 0.0
C933 C 0.61327 0.38163 0.18145 0.0
C934 C 0.58229 0.35693 0.19186 0.0
C935 C 0.61826 0.40775 0.22801 0.0
C936 C 0.60933 0.40046 0.12824 0.0
C937 C 0.63604 0.39182 0.09349 0.0
C938 C 0.63784 0.4059 0.04191 0.0
C939 C 0.61179 0.42955 0.02557 0.0
C940 C 0.5845 0.43929 0.06088 0.0
C941 C 0.58342 0.42435 0.11286 0.0
H942 H 0.91807 0.41337 0.50914 0.0
H943 H 0.94232 0.48224 0.37657 0.0
H944 H 0.90061 0.45038 0.31916 0.0
H945 H 0.91505 0.33587 0.42747 0.0
H946 H 0.88088 0.31564 0.46623 0.0
H947 H 0.91036 0.34628 0.49763 0.0
H948 H 0.85706 0.38304 0.52899 0.0
H949 H 0.82773 0.35271 0.49635 0.0
H950 H 0.82617 0.39854 0.47974 0.0
H951 H 0.85694 0.4105 0.27537 0.0
H952 H 0.81716 0.3632 0.24651 0.0
H953 H 0.82535 0.31616 0.4045 0.0
C954 C 0.91417 0.42216 0.46849 0.0
C955 C 0.93297 0.45105 0.448 0.0
C956 C 0.92776 0.46086 0.39374 0.0
C957 C 0.90415 0.44276 0.36064 0.0
C958 C 0.88631 0.41428 0.38193 0.0
C959 C 0.8913 0.40371 0.4344 0.0
C960 C 0.87095 0.37046 0.44586 0.0
C961 C 0.89578 0.34027 0.46013 0.0
C962 C 0.84387 0.37657 0.49038 0.0
C963 C 0.85351 0.36428 0.39182 0.0
C964 C 0.86255 0.39005 0.3557 0.0
C965 C 0.84982 0.39005 0.30322 0.0
C966 C 0.82739 0.3629 0.28709 0.0
C967 C 0.81829 0.33568 0.32295 0.0
C968 C 0.83158 0.3366 0.3761 0.0
H969 H 0.80493 0.67604 0.63867 0.0
H970 H 0.83877 0.66559 0.80481 0.0
H971 H 0.88128 0.62124 0.77765 0.0
H972 H 0.81448 0.58132 0.60625 0.0
H973 H 0.82932 0.58968 0.53887 0.0
H974 H 0.79961 0.61967 0.57107 0.0
H975 H 0.84291 0.67092 0.55456 0.0
H976 H 0.87187 0.64071 0.52163 0.0
H977 H 0.88751 0.66684 0.57722 0.0
H978 H 0.92417 0.58376 0.73352 0.0
H979 H 0.96244 0.54972 0.6752 0.0
H980 H 0.89888 0.57785 0.53691 0.0
C981 C 0.82091 0.66406 0.66944 0.0
C982 C 0.81845 0.6747 0.72395 0.0
C983 C 0.83995 0.65822 0.76282 0.0
C984 C 0.86432 0.63288 0.74785 0.0
C985 C 0.86659 0.6236 0.69395 0.0
C986 C 0.84516 0.63805 0.65532 0.0
C987 C 0.85355 0.62312 0.60011 0.0
C988 C 0.82238 0.6022 0.57777 0.0
C989 C 0.86464 0.65216 0.56112 0.0
C990 C 0.88398 0.5992 0.61381 0.0
C991 C 0.89083 0.6001 0.66828 0.0
C992 C 0.91876 0.58229 0.69088 0.0
C993 C 0.94048 0.56301 0.65704 0.0
C994 C 0.9341 0.56102 0.60088 0.0
C995 C 0.90499 0.57907 0.57925 0.0
H996 H 0.35811 0.30531 0.18127 0.0
H997 H 0.26418 0.36859 0.17303 0.0
H998 H 0.29831 0.41733 0.13539 0.0
H999 H 0.41835 0.37654 0.21533 0.0
H1000 H 0.4534 0.36048 0.17394 0.0
H1001 H 0.42283 0.33018 0.20261 0.0
H1002 H 0.40762 0.30508 0.10952 0.0
H1003 H 0.43907 0.33439 0.08049 0.0
H1004 H 0.39447 0.33431 0.05666 0.0
H1005 H 0.34243 0.46001 0.1008 0.0
H1006 H 0.39352 0.49284 0.0672 0.0
H1007 H 0.4587 0.40144 0.0902 0.0
C1008 C 0.34483 0.32954 0.17192 0.0
C1009 C 0.30834 0.33303 0.18015 0.0
C1010 C 0.29195 0.36508 0.16684 0.0
C1011 C 0.31117 0.39304 0.14558 0.0
C1012 C 0.34687 0.38865 0.13724 0.0
C1013 C 0.36364 0.35773 0.14984 0.0
C1014 C 0.40211 0.35972 0.13482 0.0
C1015 C 0.42552 0.35656 0.18473 0.0
C1016 C 0.41135 0.33173 0.09279 0.0
C1017 C 0.40417 0.39637 0.11156 0.0
C1018 C 0.37206 0.41275 0.11425 0.0
C1019 C 0.36763 0.44735 0.09813 0.0
C1020 C 0.39679 0.46583 0.07925 0.0
C1021 C 0.4299 0.4496 0.07576 0.0
C1022 C 0.43352 0.41428 0.09168 0.0
H1023 H 0.45654 0.59058 0.89794 0.0
H1024 H 0.3981 0.56514 0.04161 0.0
H1025 H 0.35121 0.60554 0.01334 0.0
H1026 H 0.43296 0.68272 0.89198 0.0
H1027 H 0.42959 0.683 0.81976 0.0
H1028 H 0.45914 0.65317 0.85241 0.0
H1029 H 0.42944 0.60073 0.80408 0.0
H1030 H 0.40024 0.63056 0.77117 0.0
H1031 H 0.38283 0.59491 0.80983 0.0
H1032 H 0.30951 0.64688 0.96741 0.0
H1033 H 0.27637 0.68646 0.90831 0.0
H1034 H 0.36209 0.68617 0.79478 0.0
C1035 C 0.43394 0.59367 0.9236 0.0
C1036 C 0.4311 0.57485 0.97224 0.0
C1037 C 0.40108 0.57958 1.00457 0.0
C1038 C 0.37425 0.60241 0.98873 0.0
C1039 C 0.37783 0.62049 0.94049 0.0
C1040 C 0.40699 0.61652 0.90851 0.0
C1041 C 0.40397 0.63832 0.8579 0.0
C1042 C 0.43315 0.66594 0.85539 0.0
C1043 C 0.40411 0.61469 0.8078 0.0
C1044 C 0.36851 0.6552 0.86626 0.0
C1045 C 0.35388 0.64445 0.91414 0.0
C1046 C 0.32083 0.65558 0.92998 0.0
C1047 C 0.30216 0.67807 0.89598 0.0
C1048 C 0.31649 0.68952 0.84658 0.0
C1049 C 0.35036 0.67811 0.83207 0.0
H1050 H 0.16797 0.70413 0.65547 0.0
H1051 H 0.20801 0.63907 0.78374 0.0
H1052 H 0.17034 0.59016 0.75244 0.0
H1053 H 0.07874 0.67233 0.65858 0.0
H1054 H 0.07362 0.67449 0.58665 0.0
H1055 H 0.10303 0.70413 0.62051 0.0
H1056 H 0.15392 0.68332 0.55942 0.0
H1057 H 0.12428 0.6541 0.52553 0.0
H1058 H 0.16374 0.63725 0.55517 0.0
H1059 H 0.13041 0.54733 0.70296 0.0
H1060 H 0.08898 0.51562 0.6439 0.0
H1061 H 0.07346 0.61012 0.55092 0.0
C1062 C 0.1687 0.6796 0.67708 0.0
C1063 C 0.19103 0.67517 0.72176 0.0
C1064 C 0.19103 0.6429 0.74941 0.0
C1065 C 0.16982 0.61501 0.7318 0.0
C1066 C 0.1485 0.62005 0.68692 0.0
C1067 C 0.14753 0.65173 0.66038 0.0
C1068 C 0.12264 0.6505 0.61305 0.0
C1069 C 0.09273 0.67693 0.62016 0.0
C1070 C 0.14235 0.65664 0.56018 0.0
C1071 C 0.10959 0.61318 0.617 0.0
C1072 C 0.12504 0.59589 0.65953 0.0
C1073 C 0.11797 0.56075 0.66985 0.0
C1074 C 0.09444 0.54292 0.63598 0.0
C1075 C 0.07785 0.56033 0.59272 0.0
C1076 C 0.08555 0.596 0.58355 0.0
H1077 H 0.17463 0.30567 0.37749 0.0
H1078 H 0.19962 0.3673 0.23641 0.0
H1079 H 0.16308 0.41519 0.27009 0.0
H1080 H 0.08553 0.33314 0.38926 0.0
H1081 H 0.0856 0.3355 0.46155 0.0
H1082 H 0.11434 0.30548 0.42759 0.0
H1083 H 0.16762 0.3329 0.47636 0.0
H1084 H 0.13905 0.36293 0.51078 0.0
H1085 H 0.17512 0.37937 0.47185 0.0
H1086 H 0.12177 0.45468 0.31437 0.0
H1087 H 0.0801 0.48626 0.37037 0.0
H1088 H 0.08332 0.40215 0.48712 0.0
C1089 C 0.17249 0.32935 0.35399 0.0
C1090 C 0.18964 0.33252 0.30395 0.0
C1091 C 0.18631 0.36395 0.27438 0.0
C1092 C 0.16574 0.39145 0.29326 0.0
C1093 C 0.1489 0.38743 0.3422 0.0
C1094 C 0.15215 0.35744 0.37258 0.0
C1095 C 0.13086 0.36034 0.42381 0.0
C1096 C 0.10239 0.33193 0.42564 0.0
C1097 C 0.15459 0.3588 0.47366 0.0
C1098 C 0.11507 0.39651 0.41692 0.0
C1099 C 0.12583 0.41138 0.36936 0.0
C1100 C 0.11364 0.44367 0.35232 0.0
C1101 C 0.08992 0.46151 0.3849 0.0
C1102 C 0.07885 0.44749 0.43483 0.0
C1103 C 0.09171 0.41435 0.45062 0.0
H1104 H 0.99919 0.04167 0.89493 0.0
H1105 H 0.96338 0.93454 0.87783 0.0
H1106 H 0.97858 0.92327 0.97288 0.0
H1107 H 0.07158 0.02505 0.98553 0.0
H1108 H 0.06429 0.06399 0.02498 0.0
H1109 H 0.05216 0.06307 0.95503 0.0
H1110 H 0.98888 0.08053 0.9802 0.0
H1111 H 1.00083 0.08143 0.0502 0.0
H1112 H 0.96501 0.05437 0.02776 0.0
H1113 H 0.99826 0.92365 0.06972 0.0
H1114 H 0.01889 0.93592 0.16168 0.0
H1115 H 0.03749 0.04431 0.11776 0.0
C1116 C 0.99497 0.01577 0.91118 0.0
C1117 C 0.98041 0.98884 0.87909 0.0
C1118 C 0.97457 0.95545 0.90186 0.0
C1119 C 0.98316 0.94882 0.95571 0.0
C1120 C 0.99719 0.97599 0.98649 0.0
C1121 C 1.00285 0.00887 0.96519 0.0
C1122 C 0.01685 0.03387 1.00757 0.0
C1123 C 0.05339 0.04727 0.99236 0.0
C1124 C 0.99136 0.06435 0.01698 0.0
C1125 C 0.01841 0.00986 0.05588 0.0
C1126 C 0.00717 0.97656 0.0428 0.0
C1127 C 0.00682 0.94974 0.08055 0.0
C1128 C 0.01832 0.95712 0.13301 0.0
C1129 C 0.02972 0.9912 0.14776 0.0
C1130 C 0.02948 0.01783 0.10823 0.0
H1131 H 0.27593 0.84919 0.37756 0.0
H1132 H 0.30061 0.74096 0.41312 0.0
H1133 H 0.28263 0.72404 0.32091 0.0
H1134 H 0.20047 0.8323 0.29507 0.0
H1135 H 0.20993 0.86751 0.2494 0.0
H1136 H 0.22387 0.87043 0.3184 0.0
H1137 H 0.28768 0.88052 0.28729 0.0
H1138 H 0.27396 0.87748 0.2182 0.0
H1139 H 0.30793 0.84916 0.24299 0.0
H1140 H 0.26311 0.71969 0.22258 0.0
H1141 H 0.24103 0.72785 0.12993 0.0
H1142 H 0.23146 0.83936 0.15984 0.0
C1143 C 0.27775 0.8219 0.36602 0.0
C1144 C 0.2899 0.79643 0.4026 0.0
C1145 C 0.29114 0.76092 0.38602 0.0
C1146 C 0.28121 0.75111 0.33359 0.0
C1147 C 0.26998 0.7771 0.2983 0.0
C1148 C 0.26803 0.81174 0.31409 0.0
C1149 C 0.25511 0.83476 0.26893 0.0
C1150 C 0.22028 0.85227 0.28385 0.0
C1151 C 0.28283 0.86209 0.25345 0.0
C1152 C 0.2502 0.80777 0.22497 0.0
C1153 C 0.2589 0.77463 0.24246 0.0
C1154 C 0.25626 0.74557 0.20858 0.0
C1155 C 0.24396 0.75049 0.15583 0.0
C1156 C 0.23439 0.78423 0.13744 0.0
C1157 C 0.23805 0.81314 0.17265 0.0
H1158 H 0.50957 0.97215 0.62656 0.0
H1159 H 0.48983 0.08322 0.64421 0.0
H1160 H 0.50466 0.09207 0.54831 0.0
H1161 H 0.58382 0.98093 0.53583 0.0
H1162 H 0.57223 0.94241 0.49771 0.0
H1163 H 0.56092 0.94543 0.56775 0.0
H1164 H 0.496 0.93389 0.54368 0.0
H1165 H 0.50704 0.93112 0.47356 0.0
H1166 H 0.47438 0.9618 0.49583 0.0
H1167 H 0.51699 0.08749 0.44797 0.0
H1168 H 0.53228 0.07093 0.35438 0.0
H1169 H 0.5474 0.96362 0.40453 0.0
C1170 C 0.5087 0.99837 0.61026 0.0
C1171 C 0.49854 0.02705 0.64258 0.0
C1172 C 0.49783 0.061 0.6201 0.0
C1173 C 0.506 0.06619 0.56567 0.0
C1174 C 0.51533 0.03722 0.53459 0.0
C1175 C 0.5173 1.00406 0.55638 0.0
C1176 C 0.52826 0.9773 0.51469 0.0
C1177 C 0.5634 0.96054 0.52991 0.0
C1178 C 0.49971 0.94939 0.50647 0.0
C1179 C 0.53177 1.00044 0.46578 0.0
C1180 C 0.52386 0.03488 0.47783 0.0
C1181 C 0.52369 0.06071 0.43832 0.0
C1182 C 0.53224 0.05112 0.38536 0.0
C1183 C 0.54128 0.01618 0.37274 0.0
C1184 C 0.541 0.99062 0.41349 0.0
H1185 H 0.20643 0.18994 0.84846 0.0
H1186 H 0.22393 0.30049 0.87779 0.0
H1187 H 0.24597 0.30704 0.78479 0.0
H1188 H 0.28289 0.17566 0.7685 0.0
H1189 H 0.26165 0.14475 0.72431 0.0
H1190 H 0.24704 0.14947 0.7926 0.0
H1191 H 0.18431 0.16211 0.75837 0.0
H1192 H 0.19883 0.1578 0.68991 0.0
H1193 H 0.17721 0.19726 0.71154 0.0
H1194 H 0.26498 0.30113 0.68605 0.0
H1195 H 0.28498 0.28205 0.59579 0.0
H1196 H 0.25536 0.17545 0.63322 0.0
C1197 C 0.21476 0.2156 0.83533 0.0
C1198 C 0.21323 0.24477 0.87044 0.0
C1199 C 0.22504 0.27772 0.85182 0.0
C1200 C 0.23731 0.28173 0.79888 0.0
C1201 C 0.23785 0.25249 0.76505 0.0
C1202 C 0.22723 0.21997 0.78292 0.0
C1203 C 0.23137 0.19236 0.73958 0.0
C1204 C 0.25728 0.16389 0.75731 0.0
C1205 C 0.19581 0.17646 0.72394 0.0
C1206 C 0.24612 0.21427 0.69445 0.0
C1207 C 0.24934 0.24899 0.70946 0.0
C1208 C 0.26256 0.27399 0.67405 0.0
C1209 C 0.27361 0.26301 0.6227 0.0
C1210 C 0.27174 0.22731 0.60749 0.0
C1211 C 0.2572 0.20292 0.64374 0.0
H1212 H 0.77518 0.17745 0.87819 0.0
H1213 H 0.76766 0.28941 0.90452 0.0
H1214 H 0.74492 0.29666 0.81191 0.0
H1215 H 0.80476 0.18112 0.74332 0.0
H1216 H 0.78023 0.14329 0.72169 0.0
H1217 H 0.79431 0.14705 0.79053 0.0
H1218 H 0.73037 0.13969 0.82271 0.0
H1219 H 0.7161 0.13564 0.75398 0.0
H1220 H 0.69706 0.16846 0.79702 0.0
H1221 H 0.72556 0.29133 0.71337 0.0
H1222 H 0.70727 0.27341 0.62167 0.0
H1223 H 0.72873 0.16516 0.66157 0.0
C1224 C 0.76869 0.20353 0.86459 0.0
C1225 C 0.77332 0.2329 0.89859 0.0
C1226 C 0.76403 0.26649 0.87939 0.0
C1227 C 0.75135 0.27087 0.82671 0.0
C1228 C 0.74787 0.24137 0.79387 0.0
C1229 C 0.75597 0.20831 0.81243 0.0
C1230 C 0.75008 0.18076 0.76953 0.0
C1231 C 0.78439 0.16196 0.75545 0.0
C1232 C 0.72171 0.15461 0.78685 0.0
C1233 C 0.73764 0.2034 0.72362 0.0
C1234 C 0.73658 0.23831 0.73814 0.0
C1235 C 0.72618 0.26402 0.70176 0.0
C1236 C 0.71609 0.25365 0.64962 0.0
C1237 C 0.71632 0.21786 0.63443 0.0
C1238 C 0.72769 0.19267 0.67205 0.0
H1239 H 0.72799 0.77173 0.34288 0.0
H1240 H 0.81542 0.7305 0.43399 0.0
H1241 H 0.85011 0.72667 0.35039 0.0
H1242 H 0.73853 0.71723 0.22757 0.0
H1243 H 0.72635 0.7507 0.18032 0.0
H1244 H 0.70907 0.75165 0.2475 0.0
H1245 H 0.73291 0.81457 0.26097 0.0
H1246 H 0.75003 0.81394 0.19367 0.0
H1247 H 0.77859 0.82328 0.24961 0.0
H1248 H 0.87423 0.72516 0.25576 0.0
H1249 H 0.88713 0.7288 0.15886 0.0
H1250 H 0.7836 0.77099 0.12988 0.0
C1251 C 0.75443 0.76182 0.34536 0.0
C1252 C 0.76894 0.75126 0.39509 0.0
C1253 C 0.80385 0.73904 0.39655 0.0
C1254 C 0.82364 0.73655 0.34919 0.0
C1255 C 0.80821 0.74653 0.30075 0.0
C1256 C 0.77447 0.75916 0.29862 0.0
C1257 C 0.76383 0.76801 0.24157 0.0
C1258 C 0.7326 0.74555 0.22318 0.0
C1259 C 0.75588 0.80728 0.23616 0.0
C1260 C 0.79679 0.75813 0.21167 0.0
C1261 C 0.82208 0.7458 0.24652 0.0
C1262 C 0.85469 0.735 0.22823 0.0
C1263 C 0.8618 0.7373 0.17307 0.0
C1264 C 0.83647 0.75034 0.13659 0.0
C1265 C 0.80343 0.76058 0.15645 0.0
H1266 H 0.5262 0.41356 0.61341 0.0
H1267 H 0.52717 0.52013 0.67382 0.0
H1268 H 0.50958 0.54152 0.58391 0.0
H1269 H 0.56149 0.43134 0.48498 0.0
H1270 H 0.53453 0.39999 0.44986 0.0
H1271 H 0.54561 0.39307 0.51933 0.0
H1272 H 0.4799 0.38863 0.54334 0.0
H1273 H 0.46862 0.39529 0.47384 0.0
H1274 H 0.45081 0.42365 0.52484 0.0
H1275 H 0.49644 0.55135 0.48489 0.0
H1276 H 0.48316 0.54832 0.38746 0.0
H1277 H 0.48871 0.43513 0.39336 0.0
C1278 C 0.52246 0.44139 0.6078 0.0
C1279 C 0.5281 0.46523 0.65056 0.0
C1280 C 0.52267 0.50141 0.64175 0.0
C1281 C 0.51291 0.51378 0.59076 0.0
C1282 C 0.50828 0.48959 0.54918 0.0
C1283 C 0.51239 0.45409 0.55742 0.0
C1284 C 0.50592 0.43349 0.5062 0.0
C1285 C 0.53885 0.41329 0.4891 0.0
C1286 C 0.47444 0.40881 0.51245 0.0
C1287 C 0.4979 0.46294 0.4676 0.0
C1288 C 0.49964 0.49514 0.49297 0.0
C1289 C 0.49463 0.52624 0.46483 0.0
C1290 C 0.4873 0.52431 0.40953 0.0
C1291 C 0.48466 0.49152 0.38312 0.0
C1292 C 0.49008 0.46053 0.41273 0.0
H1293 H 0.99826 0.45633 0.91803 0.0
H1294 H 0.05409 0.55009 0.87233 0.0
H1295 H 0.04226 0.57601 0.96204 0.0
H1296 H 0.93028 0.50094 0.99874 0.0
H1297 H 0.92878 0.46609 0.04724 0.0
H1298 H 0.9399 0.45667 0.97844 0.0
H1299 H 0.99726 0.42758 1.01076 0.0
H1300 H 0.98678 0.43773 0.07953 0.0
H1301 H 0.02754 0.45242 0.05138 0.0
H1302 H 0.02864 0.58915 0.06087 0.0
H1303 H 0.00654 0.5922 0.15447 0.0
H1304 H 0.9576 0.49082 0.13399 0.0
C1305 C 0.00692 0.48279 0.92644 0.0
C1306 C 0.02638 0.50163 0.88793 0.0
C1307 C 0.03835 0.53569 0.90081 0.0
C1308 C 0.0321 0.55038 0.95189 0.0
C1309 C 0.01366 0.53071 0.98961 0.0
C1310 C 1.00055 0.49794 0.97698 0.0
C1311 C 0.9817 0.48205 0.02461 0.0
C1312 C 0.94286 0.4761 1.01147 0.0
C1313 C 0.99939 0.44792 0.04261 0.0
C1314 C 0.98649 0.51077 0.06625 0.0
C1315 C 0.00537 0.53847 0.04561 0.0
C1316 C 0.01365 0.56767 0.07718 0.0
C1317 C 1.00137 0.56906 0.13047 0.0
C1318 C 0.98083 0.54158 0.15157 0.0
C1319 C 0.97366 0.51198 0.11903 0.0
loop_
_geom_bond_atom_site_label_1
_geom_bond_atom_site_label_2
_geom_bond_distance
_geom_bond_site_symmetry_2
_ccdc_geom_bond_type
Eu0 N29 2.601 . S
Eu0 N35 2.544 1_655 S
Eu0 O44 2.458 1_655 S
Eu0 O45 2.361 1_655 S
Eu0 O47 2.443 . S
Eu0 O48 2.277 1_645 S
Eu0 O52 2.349 1_545 S
Eu0 O55 2.388 . S
Eu0 C64 2.791 . S
C1 N2 1.365 1_655 S
C1 C4 1.405 . S
C1 C8 1.448 . S
N2 C1 1.365 1_455 S
N2 C5 1.319 . S
N2 Eu11 2.601 . S
C3 C5 1.397 . S
C3 C6 1.367 . S
C3 H23 0.931 . S
C4 C1 1.405 . S
C4 C6 1.403 1_655 S
C4 C10 1.439 . S
C5 N2 1.319 . S
C5 C3 1.397 . S
C5 H16 0.930 . S
C6 C3 1.367 . S
C6 C4 1.403 1_455 S
C6 H27 0.929 . S
C7 C8 1.430 . S
C7 C9 1.387 . S
C7 C13 1.404 . S
C8 C1 1.448 . S
C8 C7 1.430 . S
C8 N12 1.351 . S
C9 C7 1.387 . S
C9 C10 1.374 . S
C9 H24 0.931 . S
C10 C4 1.439 . S
C10 C9 1.374 . S
C10 H25 0.931 . S
Eu11 N2 2.601 . S
Eu11 N12 2.537 1_455 S
Eu11 O46 2.353 1_565 S
Eu11 O49 2.394 . S
Eu11 O50 2.457 1_455 S
Eu11 O51 2.357 1_455 S
Eu11 O53 2.448 . S
Eu11 O54 2.272 1_465 S
Eu11 C75 2.793 . S
N12 C8 1.351 . S
N12 Eu11 2.537 1_655 S
N12 C14 1.325 . S
C13 C7 1.404 . S
C13 C15 1.366 . S
C13 H21 0.930 . S
C14 N12 1.325 . S
C14 C15 1.416 . S
C14 H20 0.929 . S
C15 C13 1.366 . S
C15 C14 1.416 . S
C15 H17 0.930 . S
H16 C5 0.930 . S
H17 C15 0.930 . S
H18 C33 0.930 . S
H19 C40 0.930 . S
H20 C14 0.929 . S
H21 C13 0.930 . S
H22 C36 0.929 . S
H23 C3 0.931 . S
H24 C9 0.931 . S
H25 C10 0.931 . S
H26 C31 0.931 . S
H27 C6 0.929 . S
H28 C39 0.930 . S
N29 Eu0 2.601 . S
N29 C30 1.365 1_655 S
N29 C33 1.319 . S
C30 N29 1.365 1_455 S
C30 C32 1.405 . S
C30 C38 1.448 . S
C31 H26 0.931 . S
C31 C33 1.397 . S
C31 C34 1.367 . S
C32 C30 1.405 . S
C32 C34 1.403 1_455 S
C32 C65 1.439 . S
C33 H18 0.930 . S
C33 N29 1.319 . S
C33 C31 1.397 . S
C34 C31 1.367 . S
C34 C32 1.403 1_655 S
C34 H41 0.929 . S
N35 Eu0 2.544 1_455 S
N35 C36 1.325 . S
N35 C38 1.351 . S
C36 H22 0.929 . S
C36 N35 1.325 . S
C36 C40 1.416 . S
C37 C38 1.430 . S
C37 C39 1.404 . S
C37 C66 1.387 . S
C38 C30 1.448 . S
C38 N35 1.351 . S
C38 C37 1.430 . S
C39 H28 0.930 . S
C39 C37 1.404 . S
C39 C40 1.366 . S
C40 H19 0.930 . S
C40 C36 1.416 . S
C40 C39 1.366 . S
H41 C34 0.929 . S
H42 C65 0.931 . S
H43 C66 0.931 . S
O44 Eu0 2.458 1_455 S
O44 C64 1.252 1_455 S
O45 Eu0 2.361 1_455 S
O45 C56 1.249 . S
O46 Eu11 2.353 1_545 S
O46 C56 1.264 . S
O47 Eu0 2.443 . S
O47 C64 1.268 . S
O48 Eu0 2.277 1_465 S
O48 C63 1.255 . S
O49 Eu11 2.394 . S
O49 C63 1.257 . S
O50 Eu11 2.457 1_655 S
O50 C75 1.252 1_655 S
O51 Eu11 2.357 1_655 S
O51 C67 1.249 . S
O52 Eu0 2.349 1_565 S
O52 C67 1.264 . S
O53 Eu11 2.448 . S
O53 C75 1.268 . S
O54 Eu11 2.272 1_645 S
O54 C74 1.255 . S
O55 Eu0 2.388 . S
O55 C74 1.257 . S
C56 O45 1.249 . S
C56 O46 1.264 . S
C57 C60 1.382 . S
C57 C62 1.390 . S
C57 C64 1.506 . S
C58 C59 1.398 . S
C58 C62 1.392 . S
C59 C58 1.398 . S
C59 C61 1.372 . S
C59 H76 0.931 . S
C60 C57 1.382 . S
C60 C61 1.390 . S
C60 H77 0.931 . S
C61 C59 1.372 . S
C61 C60 1.390 . S
C61 H78 0.929 . S
C62 C57 1.390 . S
C62 C58 1.392 . S
C62 H79 0.930 1_645 S
C63 O48 1.255 . S
C63 O49 1.257 . S
C64 Eu0 2.791 . S
C64 O44 1.252 1_655 S
C64 O47 1.268 . S
C64 C57 1.506 . S
C65 C32 1.439 . S
C65 H42 0.931 . S
C65 C66 1.374 . S
C66 C37 1.387 . S
C66 H43 0.931 . S
C66 C65 1.374 . S
C67 O51 1.249 . S
C67 O52 1.264 . S
C68 C71 1.382 . S
C68 C72 1.390 . S
C68 C75 1.506 . S
C69 C70 1.398 . S
C69 C72 1.392 . S
C70 C69 1.398 . S
C70 C73 1.372 . S
C70 H80 0.931 . S
C71 C68 1.382 . S
C71 C73 1.390 . S
C71 H81 0.931 . S
C72 C68 1.390 . S
C72 C69 1.392 . S
C72 H82 0.930 1_465 S
C73 C70 1.372 . S
C73 C71 1.390 . S
C73 H83 0.929 . S
C74 O54 1.255 . S
C74 O55 1.257 . S
C75 Eu11 2.793 . S
C75 O50 1.252 1_455 S
C75 O53 1.268 . S
C75 C68 1.506 . S
H76 C59 0.931 . S
H77 C60 0.931 . S
H78 C61 0.929 . S
H79 C62 0.930 1_465 S
H80 C70 0.931 . S
H81 C71 0.931 . S
H82 C72 0.930 1_645 S
H83 C73 0.929 . S
Eu84 N113 2.600 . S
Eu84 N119 2.562 . S
Eu84 O128 2.462 . S
Eu84 O129 2.373 . S
Eu84 O131 2.432 . S
Eu84 O132 2.291 . S
Eu84 O136 2.335 . S
Eu84 O139 2.372 . S
Eu84 C148 2.787 . S
C85 N86 1.365 . S
C85 C88 1.405 . S
C85 C92 1.448 . S
N86 C85 1.365 . S
N86 C89 1.319 . S
N86 Eu95 2.600 . S
C87 C89 1.397 . S
C87 C90 1.367 . S
C87 H107 0.931 . S
C88 C85 1.405 . S
C88 C90 1.403 . S
C88 C94 1.439 . S
C89 N86 1.319 . S
C89 C87 1.397 . S
C89 H100 0.930 . S
C90 C87 1.367 . S
C90 C88 1.403 . S
C90 H111 0.929 . S
C91 C92 1.430 . S
C91 C93 1.387 . S
C91 C97 1.404 . S
C92 C85 1.448 . S
C92 C91 1.430 . S
C92 N96 1.351 . S
C93 C91 1.387 . S
C93 C94 1.374 . S
C93 H108 0.931 . S
C94 C88 1.439 . S
C94 C93 1.374 . S
C94 H109 0.931 . S
Eu95 N86 2.600 . S
Eu95 N96 2.562 . S
Eu95 O130 2.335 . S
Eu95 O133 2.372 . S
Eu95 O134 2.462 . S
Eu95 O135 2.373 . S
Eu95 O137 2.432 . S
Eu95 O138 2.291 . S
Eu95 C159 2.787 . S
N96 C92 1.351 . S
N96 Eu95 2.562 . S
N96 C98 1.325 . S
C97 C91 1.404 . S
C97 C99 1.366 . S
C97 H105 0.930 . S
C98 N96 1.325 . S
C98 C99 1.416 . S
C98 H104 0.929 . S
C99 C97 1.366 . S
C99 C98 1.416 . S
C99 H101 0.930 . S
H100 C89 0.930 . S
H101 C99 0.930 . S
H102 C117 0.930 . S
H103 C124 0.930 . S
H104 C98 0.929 . S
H105 C97 0.930 . S
H106 C120 0.929 . S
H107 C87 0.931 . S
H108 C93 0.931 . S
H109 C94 0.931 . S
H110 C115 0.931 . S
H111 C90 0.929 . S
H112 C123 0.930 . S
N113 Eu84 2.600 . S
N113 C114 1.365 . S
N113 C117 1.319 . S
C114 N113 1.365 . S
C114 C116 1.405 . S
C114 C122 1.448 . S
C115 H110 0.931 . S
C115 C117 1.397 . S
C115 C118 1.367 . S
C116 C114 1.405 . S
C116 C118 1.403 . S
C116 C149 1.439 . S
C117 H102 0.930 . S
C117 N113 1.319 . S
C117 C115 1.397 . S
C118 C115 1.367 . S
C118 C116 1.403 . S
C118 H125 0.929 . S
N119 Eu84 2.562 . S
N119 C120 1.325 . S
N119 C122 1.351 . S
C120 H106 0.929 . S
C120 N119 1.325 . S
C120 C124 1.416 . S
C121 C122 1.430 . S
C121 C123 1.404 . S
C121 C150 1.387 . S
C122 C114 1.448 . S
C122 N119 1.351 . S
C122 C121 1.430 . S
C123 H112 0.930 . S
C123 C121 1.404 . S
C123 C124 1.366 . S
C124 H103 0.930 . S
C124 C120 1.416 . S
C124 C123 1.366 . S
H125 C118 0.929 . S
H126 C149 0.931 . S
H127 C150 0.931 . S
O128 Eu84 2.462 . S
O128 C148 1.252 . S
O129 Eu84 2.373 . S
O129 C140 1.249 . S
O130 Eu95 2.335 . S
O130 C140 1.264 . S
O131 Eu84 2.432 . S
O131 C148 1.268 . S
O132 Eu84 2.291 . S
O132 C147 1.255 . S
O133 Eu95 2.372 . S
O133 C147 1.257 . S
O134 Eu95 2.462 . S
O134 C159 1.252 . S
O135 Eu95 2.373 . S
O135 C151 1.249 . S
O136 Eu84 2.335 . S
O136 C151 1.264 . S
O137 Eu95 2.432 . S
O137 C159 1.268 . S
O138 Eu95 2.291 . S
O138 C158 1.255 . S
O139 Eu84 2.372 . S
O139 C158 1.257 . S
C140 O129 1.249 . S
C140 O130 1.264 . S
C141 C144 1.382 1_556 S
C141 C146 1.390 1_556 S
C141 C148 1.506 . S
C142 C143 1.398 . S
C142 C146 1.392 . S
C143 C142 1.398 . S
C143 C145 1.372 . S
C143 H160 0.931 . S
C144 C141 1.382 1_554 S
C144 C145 1.390 . S
C144 H161 0.931 1_554 S
C145 C143 1.372 . S
C145 C144 1.390 . S
C145 H162 0.929 . S
C146 C141 1.390 1_554 S
C146 C142 1.392 . S
C146 H163 0.930 1_554 S
C147 O132 1.255 . S
C147 O133 1.257 . S
C148 Eu84 2.787 . S
C148 O128 1.252 . S
C148 O131 1.268 . S
C148 C141 1.506 . S
C149 C116 1.439 . S
C149 H126 0.931 . S
C149 C150 1.374 . S
C150 C121 1.387 . S
C150 H127 0.931 . S
C150 C149 1.374 . S
C151 O135 1.249 . S
C151 O136 1.264 . S
C152 C155 1.382 . S
C152 C156 1.390 . S
C152 C159 1.506 . S
C153 C154 1.398 . S
C153 C156 1.392 . S
C154 C153 1.398 . S
C154 C157 1.372 . S
C154 H164 0.931 . S
C155 C152 1.382 . S
C155 C157 1.390 . S
C155 H165 0.931 . S
C156 C152 1.390 . S
C156 C153 1.392 . S
C156 H166 0.930 . S
C157 C154 1.372 . S
C157 C155 1.390 . S
C157 H167 0.929 . S
C158 O138 1.255 . S
C158 O139 1.257 . S
C159 Eu95 2.787 . S
C159 O134 1.252 . S
C159 O137 1.268 . S
C159 C152 1.506 . S
H160 C143 0.931 . S
H161 C144 0.931 1_556 S
H162 C145 0.929 . S
H163 C146 0.930 1_556 S
H164 C154 0.931 . S
H165 C155 0.931 . S
H166 C156 0.930 . S
H167 C157 0.929 . S
Eu168 N197 2.600 . S
Eu168 N203 2.562 . S
Eu168 O212 2.462 . S
Eu168 O213 2.373 1_554 S
Eu168 O215 2.432 . S
Eu168 O216 2.291 1_565 S
Eu168 O220 2.335 1_565 S
Eu168 O223 2.372 . S
Eu168 C232 2.787 . S
C169 N170 1.365 . S
C169 C172 1.405 . S
C169 C176 1.448 . S
N170 C169 1.365 . S
N170 C173 1.319 . S
N170 Eu179 2.600 . S
C171 C173 1.397 . S
C171 C174 1.367 . S
C171 H191 0.931 . S
C172 C169 1.405 . S
C172 C174 1.403 . S
C172 C178 1.439 . S
C173 N170 1.319 . S
C173 C171 1.397 . S
C173 H184 0.930 . S
C174 C171 1.367 . S
C174 C172 1.403 . S
C174 H195 0.929 . S
C175 C176 1.430 . S
C175 C177 1.387 . S
C175 C181 1.404 . S
C176 C169 1.448 . S
C176 C175 1.430 . S
C176 N180 1.351 . S
C177 C175 1.387 . S
C177 C178 1.374 . S
C177 H192 0.931 . S
C178 C172 1.439 . S
C178 C177 1.374 . S
C178 H193 0.931 . S
Eu179 N170 2.600 . S
Eu179 N180 2.562 . S
Eu179 O214 2.335 1_545 S
Eu179 O217 2.372 . S
Eu179 O218 2.462 . S
Eu179 O219 2.373 1_556 S
Eu179 O221 2.432 . S
Eu179 O222 2.291 1_545 S
Eu179 C243 2.787 . S
N180 C176 1.351 . S
N180 Eu179 2.562 . S
N180 C182 1.325 . S
C181 C175 1.404 . S
C181 C183 1.366 . S
C181 H189 0.930 . S
C182 N180 1.325 . S
C182 C183 1.416 . S
C182 H188 0.929 . S
C183 C181 1.366 . S
C183 C182 1.416 . S
C183 H185 0.930 . S
H184 C173 0.930 . S
H185 C183 0.930 . S
H186 C201 0.930 . S
H187 C208 0.930 . S
H188 C182 0.929 . S
H189 C181 0.930 . S
H190 C204 0.929 . S
H191 C171 0.931 . S
H192 C177 0.931 . S
H193 C178 0.931 . S
H194 C199 0.931 . S
H195 C174 0.929 . S
H196 C207 0.930 . S
N197 Eu168 2.600 . S
N197 C198 1.365 . S
N197 C201 1.319 . S
C198 N197 1.365 . S
C198 C200 1.405 . S
C198 C206 1.448 . S
C199 H194 0.931 . S
C199 C201 1.397 . S
C199 C202 1.367 . S
C200 C198 1.405 . S
C200 C202 1.403 . S
C200 C233 1.439 . S
C201 H186 0.930 . S
C201 N197 1.319 . S
C201 C199 1.397 . S
C202 C199 1.367 . S
C202 C200 1.403 . S
C202 H209 0.929 . S
N203 Eu168 2.562 . S
N203 C204 1.325 . S
N203 C206 1.351 . S
C204 H190 0.929 . S
C204 N203 1.325 . S
C204 C208 1.416 . S
C205 C206 1.430 . S
C205 C207 1.404 . S
C205 C234 1.387 . S
C206 C198 1.448 . S
C206 N203 1.351 . S
C206 C205 1.430 . S
C207 H196 0.930 . S
C207 C205 1.404 . S
C207 C208 1.366 . S
C208 H187 0.930 . S
C208 C204 1.416 . S
C208 C207 1.366 . S
H209 C202 0.929 . S
H210 C233 0.931 . S
H211 C234 0.931 . S
O212 Eu168 2.462 . S
O212 C232 1.252 . S
O213 Eu168 2.373 1_556 S
O213 C224 1.249 . S
O214 Eu179 2.335 1_565 S
O214 C224 1.264 . S
O215 Eu168 2.432 . S
O215 C232 1.268 . S
O216 Eu168 2.291 1_545 S
O216 C231 1.255 . S
O217 Eu179 2.372 . S
O217 C231 1.257 1_556 S
O218 Eu179 2.462 . S
O218 C243 1.252 . S
O219 Eu179 2.373 1_554 S
O219 C235 1.249 . S
O220 Eu168 2.335 1_545 S
O220 C235 1.264 . S
O221 Eu179 2.432 . S
O221 C243 1.268 . S
O222 Eu179 2.291 1_565 S
O222 C242 1.255 . S
O223 Eu168 2.372 . S
O223 C242 1.257 1_554 S
C224 O213 1.249 . S
C224 O214 1.264 . S
C225 C228 1.382 . S
C225 C230 1.390 . S
C225 C232 1.506 . S
C226 C227 1.398 . S
C226 C230 1.392 . S
C227 C226 1.398 . S
C227 C229 1.372 . S
C227 H244 0.931 . S
C228 C225 1.382 . S
C228 C229 1.390 . S
C228 H245 0.931 . S
C229 C227 1.372 . S
C229 C228 1.390 . S
C229 H246 0.929 . S
C230 C225 1.390 . S
C230 C226 1.392 . S
C230 H247 0.930 1_565 S
C231 O216 1.255 . S
C231 O217 1.257 1_554 S
C232 Eu168 2.787 . S
C232 O212 1.252 . S
C232 O215 1.268 . S
C232 C225 1.506 . S
C233 C200 1.439 . S
C233 H210 0.931 . S
C233 C234 1.374 . S
C234 C205 1.387 . S
C234 H211 0.931 . S
C234 C233 1.374 . S
C235 O219 1.249 . S
C235 O220 1.264 . S
C236 C239 1.382 . S
C236 C240 1.390 . S
C236 C243 1.506 . S
C237 C238 1.398 . S
C237 C240 1.392 . S
C238 C237 1.398 . S
C238 C241 1.372 . S
C238 H248 0.931 . S
C239 C236 1.382 . S
C239 C241 1.390 . S
C239 H249 0.931 . S
C240 C236 1.390 . S
C240 C237 1.392 . S
C240 H250 0.930 1_545 S
C241 C238 1.372 . S
C241 C239 1.390 . S
C241 H251 0.929 . S
C242 O222 1.255 . S
C242 O223 1.257 1_556 S
C243 Eu179 2.787 . S
C243 O218 1.252 . S
C243 O221 1.268 . S
C243 C236 1.506 . S
H244 C227 0.931 . S
H245 C228 0.931 . S
H246 C229 0.929 . S
H247 C230 0.930 1_545 S
H248 C238 0.931 . S
H249 C239 0.931 . S
H250 C240 0.930 1_565 S
H251 C241 0.929 . S
Eu252 N281 2.600 . S
Eu252 N287 2.562 . S
Eu252 O296 2.462 . S
Eu252 O297 2.373 . S
Eu252 O299 2.432 . S
Eu252 O300 2.291 . S
Eu252 O304 2.335 . S
Eu252 O307 2.372 . S
Eu252 C316 2.787 . S
C253 N254 1.365 . S
C253 C256 1.405 . S
C253 C260 1.448 . S
N254 C253 1.365 . S
N254 C257 1.319 . S
N254 Eu263 2.600 . S
C255 C257 1.397 . S
C255 C258 1.367 . S
C255 H275 0.931 . S
C256 C253 1.405 . S
C256 C258 1.403 . S
C256 C262 1.439 . S
C257 N254 1.319 . S
C257 C255 1.397 . S
C257 H268 0.930 . S
C258 C255 1.367 . S
C258 C256 1.403 . S
C258 H279 0.929 . S
C259 C260 1.430 . S
C259 C261 1.387 . S
C259 C265 1.404 . S
C260 C253 1.448 . S
C260 C259 1.430 . S
C260 N264 1.351 . S
C261 C259 1.387 . S
C261 C262 1.374 . S
C261 H276 0.931 . S
C262 C256 1.439 . S
C262 C261 1.374 . S
C262 H277 0.931 . S
Eu263 N254 2.600 . S
Eu263 N264 2.562 . S
Eu263 O298 2.335 . S
Eu263 O301 2.372 . S
Eu263 O302 2.462 . S
Eu263 O303 2.373 . S
Eu263 O305 2.432 . S
Eu263 O306 2.291 . S
Eu263 C327 2.787 . S
N264 C260 1.351 . S
N264 Eu263 2.562 . S
N264 C266 1.325 . S
C265 C259 1.404 . S
C265 C267 1.366 . S
C265 H273 0.930 . S
C266 N264 1.325 . S
C266 C267 1.416 . S
C266 H272 0.929 . S
C267 C265 1.366 . S
C267 C266 1.416 . S
C267 H269 0.930 . S
H268 C257 0.930 . S
H269 C267 0.930 . S
H270 C285 0.930 . S
H271 C292 0.930 . S
H272 C266 0.929 . S
H273 C265 0.930 . S
H274 C288 0.929 . S
H275 C255 0.931 . S
H276 C261 0.931 . S
H277 C262 0.931 . S
H278 C283 0.931 . S
H279 C258 0.929 . S
H280 C291 0.930 . S
N281 Eu252 2.600 . S
N281 C282 1.365 . S
N281 C285 1.319 . S
C282 N281 1.365 . S
C282 C284 1.405 . S
C282 C290 1.448 . S
C283 H278 0.931 . S
C283 C285 1.397 . S
C283 C286 1.367 . S
C284 C282 1.405 . S
C284 C286 1.403 . S
C284 C317 1.439 . S
C285 H270 0.930 . S
C285 N281 1.319 . S
C285 C283 1.397 . S
C286 C283 1.367 . S
C286 C284 1.403 . S
C286 H293 0.929 . S
N287 Eu252 2.562 . S
N287 C288 1.325 . S
N287 C290 1.351 . S
C288 H274 0.929 . S
C288 N287 1.325 . S
C288 C292 1.416 . S
C289 C290 1.430 . S
C289 C291 1.404 . S
C289 C318 1.387 . S
C290 C282 1.448 . S
C290 N287 1.351 . S
C290 C289 1.430 . S
C291 H280 0.930 . S
C291 C289 1.404 . S
C291 C292 1.366 . S
C292 H271 0.930 . S
C292 C288 1.416 . S
C292 C291 1.366 . S
H293 C286 0.929 . S
H294 C317 0.931 . S
H295 C318 0.931 . S
O296 Eu252 2.462 . S
O296 C316 1.252 . S
O297 Eu252 2.373 . S
O297 C308 1.249 . S
O298 Eu263 2.335 . S
O298 C308 1.264 . S
O299 Eu252 2.432 . S
O299 C316 1.268 . S
O300 Eu252 2.291 . S
O300 C315 1.255 . S
O301 Eu263 2.372 . S
O301 C315 1.257 . S
O302 Eu263 2.462 . S
O302 C327 1.252 . S
O303 Eu263 2.373 . S
O303 C319 1.249 . S
O304 Eu252 2.335 . S
O304 C319 1.264 . S
O305 Eu263 2.432 . S
O305 C327 1.268 . S
O306 Eu263 2.291 . S
O306 C326 1.255 . S
O307 Eu252 2.372 . S
O307 C326 1.257 . S
C308 O297 1.249 . S
C308 O298 1.264 . S
C309 C312 1.382 1_554 S
C309 C314 1.390 1_554 S
C309 C316 1.506 . S
C310 C311 1.398 . S
C310 C314 1.392 . S
C311 C310 1.398 . S
C311 C313 1.372 . S
C311 H328 0.931 . S
C312 C309 1.382 1_556 S
C312 C313 1.390 . S
C312 H329 0.931 1_556 S
C313 C311 1.372 . S
C313 C312 1.390 . S
C313 H330 0.929 . S
C314 C309 1.390 1_556 S
C314 C310 1.392 . S
C314 H331 0.930 1_556 S
C315 O300 1.255 . S
C315 O301 1.257 . S
C316 Eu252 2.787 . S
C316 O296 1.252 . S
C316 O299 1.268 . S
C316 C309 1.506 . S
C317 C284 1.439 . S
C317 H294 0.931 . S
C317 C318 1.374 . S
C318 C289 1.387 . S
C318 H295 0.931 . S
C318 C317 1.374 . S
C319 O303 1.249 . S
C319 O304 1.264 . S
C320 C323 1.382 . S
C320 C324 1.390 . S
C320 C327 1.506 . S
C321 C322 1.398 . S
C321 C324 1.392 . S
C322 C321 1.398 . S
C322 C325 1.372 . S
C322 H332 0.931 . S
C323 C320 1.382 . S
C323 C325 1.390 . S
C323 H333 0.931 . S
C324 C320 1.390 . S
C324 C321 1.392 . S
C324 H334 0.930 . S
C325 C322 1.372 . S
C325 C323 1.390 . S
C325 H335 0.929 . S
C326 O306 1.255 . S
C326 O307 1.257 . S
C327 Eu263 2.787 . S
C327 O302 1.252 . S
C327 O305 1.268 . S
C327 C320 1.506 . S
H328 C311 0.931 . S
H329 C312 0.931 1_554 S
H330 C313 0.929 . S
H331 C314 0.930 1_554 S
H332 C322 0.931 . S
H333 C323 0.931 . S
H334 C324 0.930 . S
H335 C325 0.929 . S
Eu336 N365 2.600 . S
Eu336 N371 2.562 . S
Eu336 O380 2.462 . S
Eu336 O381 2.373 . S
Eu336 O383 2.432 . S
Eu336 O384 2.291 . S
Eu336 O388 2.335 . S
Eu336 O391 2.372 . S
Eu336 C400 2.787 . S
C337 N338 1.365 . S
C337 C340 1.405 . S
C337 C344 1.448 . S
N338 C337 1.365 . S
N338 C341 1.319 . S
N338 Eu347 2.600 . S
C339 C341 1.397 . S
C339 C342 1.367 . S
C339 H359 0.931 . S
C340 C337 1.405 . S
C340 C342 1.403 . S
C340 C346 1.439 . S
C341 N338 1.319 . S
C341 C339 1.397 . S
C341 H352 0.930 . S
C342 C339 1.367 . S
C342 C340 1.403 . S
C342 H363 0.929 . S
C343 C344 1.430 . S
C343 C345 1.387 . S
C343 C349 1.404 . S
C344 C337 1.448 . S
C344 C343 1.430 . S
C344 N348 1.351 . S
C345 C343 1.387 . S
C345 C346 1.374 . S
C345 H360 0.931 . S
C346 C340 1.439 . S
C346 C345 1.374 . S
C346 H361 0.931 . S
Eu347 N338 2.600 . S
Eu347 N348 2.562 . S
Eu347 O382 2.335 . S
Eu347 O385 2.372 . S
Eu347 O386 2.462 . S
Eu347 O387 2.373 . S
Eu347 O389 2.432 . S
Eu347 O390 2.291 . S
Eu347 C411 2.787 . S
N348 C344 1.351 . S
N348 Eu347 2.562 . S
N348 C350 1.325 . S
C349 C343 1.404 . S
C349 C351 1.366 . S
C349 H357 0.930 . S
C350 N348 1.325 . S
C350 C351 1.416 . S
C350 H356 0.929 . S
C351 C349 1.366 . S
C351 C350 1.416 . S
C351 H353 0.930 . S
H352 C341 0.930 . S
H353 C351 0.930 . S
H354 C369 0.930 . S
H355 C376 0.930 . S
H356 C350 0.929 . S
H357 C349 0.930 . S
H358 C372 0.929 . S
H359 C339 0.931 . S
H360 C345 0.931 . S
H361 C346 0.931 . S
H362 C367 0.931 . S
H363 C342 0.929 . S
H364 C375 0.930 . S
N365 Eu336 2.600 . S
N365 C366 1.365 . S
N365 C369 1.319 . S
C366 N365 1.365 . S
C366 C368 1.405 . S
C366 C374 1.448 . S
C367 H362 0.931 . S
C367 C369 1.397 . S
C367 C370 1.367 . S
C368 C366 1.405 . S
C368 C370 1.403 . S
C368 C401 1.439 . S
C369 H354 0.930 . S
C369 N365 1.319 . S
C369 C367 1.397 . S
C370 C367 1.367 . S
C370 C368 1.403 . S
C370 H377 0.929 . S
N371 Eu336 2.562 . S
N371 C372 1.325 . S
N371 C374 1.351 . S
C372 H358 0.929 . S
C372 N371 1.325 . S
C372 C376 1.416 . S
C373 C374 1.430 . S
C373 C375 1.404 . S
C373 C402 1.387 . S
C374 C366 1.448 . S
C374 N371 1.351 . S
C374 C373 1.430 . S
C375 H364 0.930 . S
C375 C373 1.404 . S
C375 C376 1.366 . S
C376 H355 0.930 . S
C376 C372 1.416 . S
C376 C375 1.366 . S
H377 C370 0.929 . S
H378 C401 0.931 . S
H379 C402 0.931 . S
O380 Eu336 2.462 . S
O380 C400 1.252 . S
O381 Eu336 2.373 . S
O381 C392 1.249 . S
O382 Eu347 2.335 . S
O382 C392 1.264 . S
O383 Eu336 2.432 . S
O383 C400 1.268 . S
O384 Eu336 2.291 . S
O384 C399 1.255 . S
O385 Eu347 2.372 . S
O385 C399 1.257 . S
O386 Eu347 2.462 . S
O386 C411 1.252 . S
O387 Eu347 2.373 . S
O387 C403 1.249 . S
O388 Eu336 2.335 . S
O388 C403 1.264 . S
O389 Eu347 2.432 . S
O389 C411 1.268 . S
O390 Eu347 2.291 . S
O390 C410 1.255 . S
O391 Eu336 2.372 . S
O391 C410 1.257 . S
C392 O381 1.249 . S
C392 O382 1.264 . S
C393 C396 1.382 . S
C393 C398 1.390 . S
C393 C400 1.506 . S
C394 C395 1.398 . S
C394 C398 1.392 . S
C395 C394 1.398 . S
C395 C397 1.372 . S
C395 H412 0.931 . S
C396 C393 1.382 . S
C396 C397 1.390 . S
C396 H413 0.931 . S
C397 C395 1.372 . S
C397 C396 1.390 . S
C397 H414 0.929 . S
C398 C393 1.390 . S
C398 C394 1.392 . S
C398 H415 0.930 . S
C399 O384 1.255 . S
C399 O385 1.257 . S
C400 Eu336 2.787 . S
C400 O380 1.252 . S
C400 O383 1.268 . S
C400 C393 1.506 . S
C401 C368 1.439 . S
C401 H378 0.931 . S
C401 C402 1.374 . S
C402 C373 1.387 . S
C402 H379 0.931 . S
C402 C401 1.374 . S
C403 O387 1.249 . S
C403 O388 1.264 . S
C404 C407 1.382 1_554 S
C404 C408 1.390 1_554 S
C404 C411 1.506 . S
C405 C406 1.398 . S
C405 C408 1.392 . S
C406 C405 1.398 . S
C406 C409 1.372 . S
C406 H416 0.931 . S
C407 C404 1.382 1_556 S
C407 C409 1.390 . S
C407 H417 0.931 1_556 S
C408 C404 1.390 1_556 S
C408 C405 1.392 . S
C408 H418 0.930 1_556 S
C409 C406 1.372 . S
C409 C407 1.390 . S
C409 H419 0.929 . S
C410 O390 1.255 . S
C410 O391 1.257 . S
C411 Eu347 2.787 . S
C411 O386 1.252 . S
C411 O389 1.268 . S
C411 C404 1.506 . S
H412 C395 0.931 . S
H413 C396 0.931 . S
H414 C397 0.929 . S
H415 C398 0.930 . S
H416 C406 0.931 . S
H417 C407 0.931 1_554 S
H418 C408 0.930 1_554 S
H419 C409 0.929 . S
Eu420 N449 2.600 . S
Eu420 N455 2.562 . S
Eu420 O464 2.462 . S
Eu420 O465 2.373 . S
Eu420 O467 2.432 . S
Eu420 O468 2.291 . S
Eu420 O472 2.335 . S
Eu420 O475 2.372 . S
Eu420 C484 2.787 . S
C421 N422 1.365 . S
C421 C424 1.405 . S
C421 C428 1.448 . S
N422 C421 1.365 . S
N422 C425 1.319 . S
N422 Eu431 2.600 . S
C423 C425 1.397 . S
C423 C426 1.367 . S
C423 H443 0.931 . S
C424 C421 1.405 . S
C424 C426 1.403 . S
C424 C430 1.439 . S
C425 N422 1.319 . S
C425 C423 1.397 . S
C425 H436 0.930 . S
C426 C423 1.367 . S
C426 C424 1.403 . S
C426 H447 0.929 . S
C427 C428 1.430 . S
C427 C429 1.387 . S
C427 C433 1.404 . S
C428 C421 1.448 . S
C428 C427 1.430 . S
C428 N432 1.351 . S
C429 C427 1.387 . S
C429 C430 1.374 . S
C429 H444 0.931 . S
C430 C424 1.439 . S
C430 C429 1.374 . S
C430 H445 0.931 . S
Eu431 N422 2.600 . S
Eu431 N432 2.562 . S
Eu431 O466 2.335 . S
Eu431 O469 2.372 . S
Eu431 O470 2.462 . S
Eu431 O471 2.373 . S
Eu431 O473 2.432 . S
Eu431 O474 2.291 . S
Eu431 C495 2.787 . S
N432 C428 1.351 . S
N432 Eu431 2.562 . S
N432 C434 1.325 . S
C433 C427 1.404 . S
C433 C435 1.366 . S
C433 H441 0.930 . S
C434 N432 1.325 . S
C434 C435 1.416 . S
C434 H440 0.929 . S
C435 C433 1.366 . S
C435 C434 1.416 . S
C435 H437 0.930 . S
H436 C425 0.930 . S
H437 C435 0.930 . S
H438 C453 0.930 . S
H439 C460 0.930 . S
H440 C434 0.929 . S
H441 C433 0.930 . S
H442 C456 0.929 . S
H443 C423 0.931 . S
H444 C429 0.931 . S
H445 C430 0.931 . S
H446 C451 0.931 . S
H447 C426 0.929 . S
H448 C459 0.930 . S
N449 Eu420 2.600 . S
N449 C450 1.365 . S
N449 C453 1.319 . S
C450 N449 1.365 . S
C450 C452 1.405 . S
C450 C458 1.448 . S
C451 H446 0.931 . S
C451 C453 1.397 . S
C451 C454 1.367 . S
C452 C450 1.405 . S
C452 C454 1.403 . S
C452 C485 1.439 . S
C453 H438 0.930 . S
C453 N449 1.319 . S
C453 C451 1.397 . S
C454 C451 1.367 . S
C454 C452 1.403 . S
C454 H461 0.929 . S
N455 Eu420 2.562 . S
N455 C456 1.325 . S
N455 C458 1.351 . S
C456 H442 0.929 . S
C456 N455 1.325 . S
C456 C460 1.416 . S
C457 C458 1.430 . S
C457 C459 1.404 . S
C457 C486 1.387 . S
C458 C450 1.448 . S
C458 N455 1.351 . S
C458 C457 1.430 . S
C459 H448 0.930 . S
C459 C457 1.404 . S
C459 C460 1.366 . S
C460 H439 0.930 . S
C460 C456 1.416 . S
C460 C459 1.366 . S
H461 C454 0.929 . S
H462 C485 0.931 . S
H463 C486 0.931 . S
O464 Eu420 2.462 . S
O464 C484 1.252 . S
O465 Eu420 2.373 . S
O465 C476 1.249 . S
O466 Eu431 2.335 . S
O466 C476 1.264 . S
O467 Eu420 2.432 . S
O467 C484 1.268 . S
O468 Eu420 2.291 . S
O468 C483 1.255 . S
O469 Eu431 2.372 . S
O469 C483 1.257 . S
O470 Eu431 2.462 . S
O470 C495 1.252 . S
O471 Eu431 2.373 . S
O471 C487 1.249 . S
O472 Eu420 2.335 . S
O472 C487 1.264 . S
O473 Eu431 2.432 . S
O473 C495 1.268 . S
O474 Eu431 2.291 . S
O474 C494 1.255 . S
O475 Eu420 2.372 . S
O475 C494 1.257 . S
C476 O465 1.249 . S
C476 O466 1.264 . S
C477 C480 1.382 . S
C477 C482 1.390 . S
C477 C484 1.506 . S
C478 C479 1.398 . S
C478 C482 1.392 . S
C479 C478 1.398 . S
C479 C481 1.372 . S
C479 H496 0.931 . S
C480 C477 1.382 . S
C480 C481 1.390 . S
C480 H497 0.931 . S
C481 C479 1.372 . S
C481 C480 1.390 . S
C481 H498 0.929 . S
C482 C477 1.390 . S
C482 C478 1.392 . S
C482 H499 0.930 . S
C483 O468 1.255 . S
C483 O469 1.257 . S
C484 Eu420 2.787 . S
C484 O464 1.252 . S
C484 O467 1.268 . S
C484 C477 1.506 . S
C485 C452 1.439 . S
C485 H462 0.931 . S
C485 C486 1.374 . S
C486 C457 1.387 . S
C486 H463 0.931 . S
C486 C485 1.374 . S
C487 O471 1.249 . S
C487 O472 1.264 . S
C488 C491 1.382 1_556 S
C488 C492 1.390 1_556 S
C488 C495 1.506 . S
C489 C490 1.398 . S
C489 C492 1.392 . S
C490 C489 1.398 . S
C490 C493 1.372 . S
C490 H500 0.931 . S
C491 C488 1.382 1_554 S
C491 C493 1.390 . S
C491 H501 0.931 1_554 S
C492 C488 1.390 1_554 S
C492 C489 1.392 . S
C492 H502 0.930 1_554 S
C493 C490 1.372 . S
C493 C491 1.390 . S
C493 H503 0.929 . S
C494 O474 1.255 . S
C494 O475 1.257 . S
C495 Eu431 2.787 . S
C495 O470 1.252 . S
C495 O473 1.268 . S
C495 C488 1.506 . S
H496 C479 0.931 . S
H497 C480 0.931 . S
H498 C481 0.929 . S
H499 C482 0.930 . S
H500 C490 0.931 . S
H501 C491 0.931 1_556 S
H502 C492 0.930 1_556 S
H503 C493 0.929 . S
Eu504 N533 2.600 . S
Eu504 N539 2.562 . S
Eu504 O548 2.462 . S
Eu504 O549 2.373 1_554 S
Eu504 O551 2.432 . S
Eu504 O552 2.291 . S
Eu504 O556 2.335 . S
Eu504 O559 2.372 . S
Eu504 C568 2.787 . S
C505 N506 1.365 . S
C505 C508 1.405 . S
C505 C512 1.448 . S
N506 C505 1.365 . S
N506 C509 1.319 . S
N506 Eu515 2.600 . S
C507 C509 1.397 . S
C507 C510 1.367 . S
C507 H527 0.931 . S
C508 C505 1.405 . S
C508 C510 1.403 . S
C508 C514 1.439 . S
C509 N506 1.319 . S
C509 C507 1.397 . S
C509 H520 0.930 . S
C510 C507 1.367 . S
C510 C508 1.403 . S
C510 H531 0.929 . S
C511 C512 1.430 . S
C511 C513 1.387 . S
C511 C517 1.404 . S
C512 C505 1.448 . S
C512 C511 1.430 . S
C512 N516 1.351 . S
C513 C511 1.387 . S
C513 C514 1.374 . S
C513 H528 0.931 . S
C514 C508 1.439 . S
C514 C513 1.374 . S
C514 H529 0.931 . S
Eu515 N506 2.600 . S
Eu515 N516 2.562 . S
Eu515 O550 2.335 . S
Eu515 O553 2.372 . S
Eu515 O554 2.462 . S
Eu515 O555 2.373 1_556 S
Eu515 O557 2.432 . S
Eu515 O558 2.291 . S
Eu515 C579 2.787 . S
N516 C512 1.351 . S
N516 Eu515 2.562 . S
N516 C518 1.325 . S
C517 C511 1.404 . S
C517 C519 1.366 . S
C517 H525 0.930 . S
C518 N516 1.325 . S
C518 C519 1.416 . S
C518 H524 0.929 . S
C519 C517 1.366 . S
C519 C518 1.416 . S
C519 H521 0.930 . S
H520 C509 0.930 . S
H521 C519 0.930 . S
H522 C537 0.930 . S
H523 C544 0.930 . S
H524 C518 0.929 . S
H525 C517 0.930 . S
H526 C540 0.929 . S
H527 C507 0.931 . S
H528 C513 0.931 . S
H529 C514 0.931 . S
H530 C535 0.931 . S
H531 C510 0.929 . S
H532 C543 0.930 . S
N533 Eu504 2.600 . S
N533 C534 1.365 . S
N533 C537 1.319 . S
C534 N533 1.365 . S
C534 C536 1.405 . S
C534 C542 1.448 . S
C535 H530 0.931 . S
C535 C537 1.397 . S
C535 C538 1.367 . S
C536 C534 1.405 . S
C536 C538 1.403 . S
C536 C569 1.439 . S
C537 H522 0.930 . S
C537 N533 1.319 . S
C537 C535 1.397 . S
C538 C535 1.367 . S
C538 C536 1.403 . S
C538 H545 0.929 . S
N539 Eu504 2.562 . S
N539 C540 1.325 . S
N539 C542 1.351 . S
C540 H526 0.929 . S
C540 N539 1.325 . S
C540 C544 1.416 . S
C541 C542 1.430 . S
C541 C543 1.404 . S
C541 C570 1.387 . S
C542 C534 1.448 . S
C542 N539 1.351 . S
C542 C541 1.430 . S
C543 H532 0.930 . S
C543 C541 1.404 . S
C543 C544 1.366 . S
C544 H523 0.930 . S
C544 C540 1.416 . S
C544 C543 1.366 . S
H545 C538 0.929 . S
H546 C569 0.931 . S
H547 C570 0.931 . S
O548 Eu504 2.462 . S
O548 C568 1.252 . S
O549 Eu504 2.373 1_556 S
O549 C560 1.249 . S
O550 Eu515 2.335 . S
O550 C560 1.264 . S
O551 Eu504 2.432 . S
O551 C568 1.268 . S
O552 Eu504 2.291 . S
O552 C567 1.255 . S
O553 Eu515 2.372 . S
O553 C567 1.257 1_556 S
O554 Eu515 2.462 . S
O554 C579 1.252 . S
O555 Eu515 2.373 1_554 S
O555 C571 1.249 . S
O556 Eu504 2.335 . S
O556 C571 1.264 . S
O557 Eu515 2.432 . S
O557 C579 1.268 . S
O558 Eu515 2.291 . S
O558 C578 1.255 . S
O559 Eu504 2.372 . S
O559 C578 1.257 1_554 S
C560 O549 1.249 . S
C560 O550 1.264 . S
C561 C564 1.382 . S
C561 C566 1.390 . S
C561 C568 1.506 . S
C562 C563 1.398 . S
C562 C566 1.392 . S
C563 C562 1.398 . S
C563 C565 1.372 . S
C563 H580 0.931 . S
C564 C561 1.382 . S
C564 C565 1.390 . S
C564 H581 0.931 . S
C565 C563 1.372 . S
C565 C564 1.390 . S
C565 H582 0.929 . S
C566 C561 1.390 . S
C566 C562 1.392 . S
C566 H583 0.930 . S
C567 O552 1.255 . S
C567 O553 1.257 1_554 S
C568 Eu504 2.787 . S
C568 O548 1.252 . S
C568 O551 1.268 . S
C568 C561 1.506 . S
C569 C536 1.439 . S
C569 H546 0.931 . S
C569 C570 1.374 . S
C570 C541 1.387 . S
C570 H547 0.931 . S
C570 C569 1.374 . S
C571 O555 1.249 . S
C571 O556 1.264 . S
C572 C575 1.382 . S
C572 C576 1.390 . S
C572 C579 1.506 . S
C573 C574 1.398 . S
C573 C576 1.392 . S
C574 C573 1.398 . S
C574 C577 1.372 . S
C574 H584 0.931 . S
C575 C572 1.382 . S
C575 C577 1.390 . S
C575 H585 0.931 . S
C576 C572 1.390 . S
C576 C573 1.392 . S
C576 H586 0.930 . S
C577 C574 1.372 . S
C577 C575 1.390 . S
C577 H587 0.929 . S
C578 O558 1.255 . S
C578 O559 1.257 1_556 S
C579 Eu515 2.787 . S
C579 O554 1.252 . S
C579 O557 1.268 . S
C579 C572 1.506 . S
H580 C563 0.931 . S
H581 C564 0.931 . S
H582 C565 0.929 . S
H583 C566 0.930 . S
H584 C574 0.931 . S
H585 C575 0.931 . S
H586 C576 0.930 . S
H587 C577 0.929 . S
Eu588 N617 2.601 . S
Eu588 N623 2.537 1_455 S
Eu588 O632 2.457 1_455 S
Eu588 O633 2.357 1_455 S
Eu588 O635 2.447 . S
Eu588 O636 2.272 1_455 S
Eu588 O640 2.353 . S
Eu588 O643 2.394 . S
Eu588 C652 2.793 . S
C589 N590 1.365 1_455 S
C589 C592 1.405 . S
C589 C596 1.448 . S
N590 C589 1.365 1_655 S
N590 C593 1.319 . S
N590 Eu599 2.601 . S
C591 C593 1.397 . S
C591 C594 1.367 . S
C591 H611 0.931 . S
C592 C589 1.405 . S
C592 C594 1.403 1_455 S
C592 C598 1.439 . S
C593 N590 1.319 . S
C593 C591 1.397 . S
C593 H604 0.930 . S
C594 C591 1.367 . S
C594 C592 1.403 1_655 S
C594 H615 0.929 . S
C595 C596 1.430 . S
C595 C597 1.387 . S
C595 C601 1.404 . S
C596 C589 1.448 . S
C596 C595 1.430 . S
C596 N600 1.351 . S
C597 C595 1.387 . S
C597 C598 1.374 . S
C597 H612 0.931 . S
C598 C592 1.439 . S
C598 C597 1.374 . S
C598 H613 0.931 . S
Eu599 N590 2.601 . S
Eu599 N600 2.544 1_655 S
Eu599 O634 2.349 . S
Eu599 O637 2.388 . S
Eu599 O638 2.458 1_655 S
Eu599 O639 2.361 1_655 S
Eu599 O641 2.443 . S
Eu599 O642 2.277 1_655 S
Eu599 C663 2.791 . S
N600 C596 1.351 . S
N600 Eu599 2.544 1_455 S
N600 C602 1.325 . S
C601 C595 1.404 . S
C601 C603 1.366 . S
C601 H609 0.930 . S
C602 N600 1.325 . S
C602 C603 1.416 . S
C602 H608 0.929 . S
C603 C601 1.366 . S
C603 C602 1.416 . S
C603 H605 0.930 . S
H604 C593 0.930 . S
H605 C603 0.930 . S
H606 C621 0.930 . S
H607 C628 0.930 . S
H608 C602 0.929 . S
H609 C601 0.930 . S
H610 C624 0.929 . S
H611 C591 0.931 . S
H612 C597 0.931 . S
H613 C598 0.931 . S
H614 C619 0.931 . S
H615 C594 0.929 . S
H616 C627 0.930 . S
N617 Eu588 2.601 . S
N617 C618 1.365 1_455 S
N617 C621 1.319 . S
C618 N617 1.365 1_655 S
C618 C620 1.405 . S
C618 C626 1.448 . S
C619 H614 0.931 . S
C619 C621 1.397 . S
C619 C622 1.367 . S
C620 C618 1.405 . S
C620 C622 1.403 1_655 S
C620 C653 1.439 . S
C621 H606 0.930 . S
C621 N617 1.319 . S
C621 C619 1.397 . S
C622 C619 1.367 . S
C622 C620 1.403 1_455 S
C622 H629 0.929 . S
N623 Eu588 2.537 1_655 S
N623 C624 1.325 . S
N623 C626 1.351 . S
C624 H610 0.929 . S
C624 N623 1.325 . S
C624 C628 1.416 . S
C625 C626 1.430 . S
C625 C627 1.404 . S
C625 C654 1.387 . S
C626 C618 1.448 . S
C626 N623 1.351 . S
C626 C625 1.430 . S
C627 H616 0.930 . S
C627 C625 1.404 . S
C627 C628 1.366 . S
C628 H607 0.930 . S
C628 C624 1.416 . S
C628 C627 1.366 . S
H629 C622 0.929 . S
H630 C653 0.931 . S
H631 C654 0.931 . S
O632 Eu588 2.457 1_655 S
O632 C652 1.252 1_655 S
O633 Eu588 2.357 1_655 S
O633 C644 1.249 . S
O634 Eu599 2.349 . S
O634 C644 1.264 . S
O635 Eu588 2.447 . S
O635 C652 1.268 . S
O636 Eu588 2.272 1_655 S
O636 C651 1.255 . S
O637 Eu599 2.388 . S
O637 C651 1.257 . S
O638 Eu599 2.458 1_455 S
O638 C663 1.252 1_455 S
O639 Eu599 2.361 1_455 S
O639 C655 1.249 . S
O640 Eu588 2.353 . S
O640 C655 1.264 . S
O641 Eu599 2.443 . S
O641 C663 1.268 . S
O642 Eu599 2.277 1_455 S
O642 C662 1.255 . S
O643 Eu588 2.394 . S
O643 C662 1.257 . S
C644 O633 1.249 . S
C644 O634 1.264 . S
C645 C648 1.382 . S
C645 C650 1.390 . S
C645 C652 1.506 . S
C646 C647 1.398 . S
C646 C650 1.392 . S
C647 C646 1.398 . S
C647 C649 1.372 . S
C647 H664 0.931 . S
C648 C645 1.382 . S
C648 C649 1.390 . S
C648 H665 0.931 . S
C649 C647 1.372 . S
C649 C648 1.390 . S
C649 H666 0.929 . S
C650 C645 1.390 . S
C650 C646 1.392 . S
C650 H667 0.930 1_455 S
C651 O636 1.255 . S
C651 O637 1.257 . S
C652 Eu588 2.793 . S
C652 O632 1.252 1_455 S
C652 O635 1.268 . S
C652 C645 1.506 . S
C653 C620 1.439 . S
C653 H630 0.931 . S
C653 C654 1.374 . S
C654 C625 1.387 . S
C654 H631 0.931 . S
C654 C653 1.374 . S
C655 O639 1.249 . S
C655 O640 1.264 . S
C656 C659 1.382 . S
C656 C660 1.390 . S
C656 C663 1.506 . S
C657 C658 1.398 . S
C657 C660 1.392 . S
C658 C657 1.398 . S
C658 C661 1.372 . S
C658 H668 0.931 . S
C659 C656 1.382 . S
C659 C661 1.390 . S
C659 H669 0.931 . S
C660 C656 1.390 . S
C660 C657 1.392 . S
C660 H670 0.930 1_655 S
C661 C658 1.372 . S
C661 C659 1.390 . S
C661 H671 0.929 . S
C662 O642 1.255 . S
C662 O643 1.257 . S
C663 Eu599 2.791 . S
C663 O638 1.252 1_655 S
C663 O641 1.268 . S
C663 C656 1.506 . S
H664 C647 0.931 . S
H665 C648 0.931 . S
H666 C649 0.929 . S
H667 C650 0.930 1_655 S
H668 C658 0.931 . S
H669 C659 0.931 . S
H670 C660 0.930 1_455 S
H671 C661 0.929 . S
H672 C684 0.930 . S
H673 C686 0.930 . S
H674 C687 0.930 . S
H675 C691 0.959 . S
H676 C691 0.959 . S
H677 C691 0.961 . S
H678 C692 0.960 . S
H679 C692 0.961 . S
H680 C692 0.959 . S
H681 C695 0.929 . S
H682 C696 0.931 . S
H683 C698 0.930 . S
C684 H672 0.930 . S
C684 C685 1.399 . S
C684 C689 1.399 . S
C685 C684 1.399 . S
C685 C686 1.376 . S
C686 H673 0.930 . S
C686 C685 1.376 . S
C686 C687 1.388 . S
C687 H674 0.930 . S
C687 C686 1.388 . S
C687 C688 1.390 . S
C688 C687 1.390 . S
C688 C689 1.394 . S
C688 C694 1.465 . S
C689 C684 1.399 . S
C689 C688 1.394 . S
C689 C690 1.516 . S
C690 C689 1.516 . S
C690 C691 1.502 . S
C690 C692 1.561 . S
C690 C693 1.526 . S
C691 H675 0.959 . S
C691 H676 0.959 . S
C691 H677 0.961 . S
C691 C690 1.502 . S
C692 H678 0.960 . S
C692 H679 0.961 . S
C692 H680 0.959 . S
C692 C690 1.561 . S
C693 C690 1.526 . S
C693 C694 1.396 . S
C693 C698 1.390 . S
C694 C688 1.465 . S
C694 C693 1.396 . S
C694 C695 1.399 . S
C695 H681 0.929 . S
C695 C694 1.399 . S
C695 C696 1.385 . S
C696 H682 0.931 . S
C696 C695 1.385 . S
C696 C697 1.389 . S
C697 C696 1.389 . S
C697 C698 1.387 . S
C698 H683 0.930 . S
C698 C693 1.390 . S
C698 C697 1.387 . S
H699 C711 0.930 . S
H700 C713 0.930 . S
H701 C714 0.930 . S
H702 C718 0.959 . S
H703 C718 0.959 . S
H704 C718 0.961 . S
H705 C719 0.960 . S
H706 C719 0.961 . S
H707 C719 0.959 . S
H708 C722 0.929 . S
H709 C723 0.931 . S
H710 C725 0.930 . S
C711 H699 0.930 . S
C711 C712 1.399 . S
C711 C716 1.399 . S
C712 C711 1.399 . S
C712 C713 1.376 . S
C713 H700 0.930 . S
C713 C712 1.376 . S
C713 C714 1.388 . S
C714 H701 0.930 . S
C714 C713 1.388 . S
C714 C715 1.390 . S
C715 C714 1.390 . S
C715 C716 1.394 . S
C715 C721 1.465 . S
C716 C711 1.399 . S
C716 C715 1.394 . S
C716 C717 1.516 . S
C717 C716 1.516 . S
C717 C718 1.502 . S
C717 C719 1.561 . S
C717 C720 1.526 . S
C718 H702 0.959 . S
C718 H703 0.959 . S
C718 H704 0.961 . S
C718 C717 1.502 . S
C719 H705 0.960 . S
C719 H706 0.961 . S
C719 H707 0.959 . S
C719 C717 1.561 . S
C720 C717 1.526 . S
C720 C721 1.396 . S
C720 C725 1.390 . S
C721 C715 1.465 . S
C721 C720 1.396 . S
C721 C722 1.399 . S
C722 H708 0.929 . S
C722 C721 1.399 . S
C722 C723 1.385 . S
C723 H709 0.931 . S
C723 C722 1.385 . S
C723 C724 1.389 . S
C724 C723 1.389 . S
C724 C725 1.387 . S
C725 H710 0.930 . S
C725 C720 1.390 . S
C725 C724 1.387 . S
H726 C738 0.930 . S
H727 C740 0.930 . S
H728 C741 0.930 . S
H729 C745 0.959 . S
H730 C745 0.959 . S
H731 C745 0.961 . S
H732 C746 0.960 . S
H733 C746 0.961 1_554 S
H734 C746 0.959 . S
H735 C749 0.929 . S
H736 C750 0.931 . S
H737 C752 0.930 . S
C738 H726 0.930 . S
C738 C739 1.399 . S
C738 C743 1.399 . S
C739 C738 1.399 . S
C739 C740 1.376 . S
C740 H727 0.930 . S
C740 C739 1.376 . S
C740 C741 1.388 . S
C741 H728 0.930 . S
C741 C740 1.388 . S
C741 C742 1.390 . S
C742 C741 1.390 . S
C742 C743 1.394 . S
C742 C748 1.465 . S
C743 C738 1.399 . S
C743 C742 1.394 . S
C743 C744 1.516 . S
C744 C743 1.516 . S
C744 C745 1.502 . S
C744 C746 1.561 . S
C744 C747 1.526 . S
C745 H729 0.959 . S
C745 H730 0.959 . S
C745 H731 0.961 . S
C745 C744 1.502 . S
C746 H732 0.960 . S
C746 H733 0.961 1_556 S
C746 H734 0.959 . S
C746 C744 1.561 . S
C747 C744 1.526 . S
C747 C748 1.396 . S
C747 C752 1.390 . S
C748 C742 1.465 . S
C748 C747 1.396 . S
C748 C749 1.399 . S
C749 H735 0.929 . S
C749 C748 1.399 . S
C749 C750 1.385 . S
C750 H736 0.931 . S
C750 C749 1.385 . S
C750 C751 1.389 . S
C751 C750 1.389 . S
C751 C752 1.387 . S
C752 H737 0.930 . S
C752 C747 1.390 . S
C752 C751 1.387 . S
H753 C765 0.930 . S
H754 C767 0.930 1_556 S
H755 C768 0.930 . S
H756 C772 0.959 . S
H757 C772 0.959 . S
H758 C772 0.961 . S
H759 C773 0.960 . S
H760 C773 0.961 . S
H761 C773 0.959 . S
H762 C776 0.929 . S
H763 C777 0.931 . S
H764 C779 0.930 . S
C765 H753 0.930 . S
C765 C766 1.399 . S
C765 C770 1.399 . S
C766 C765 1.399 . S
C766 C767 1.376 . S
C767 H754 0.930 1_554 S
C767 C766 1.376 . S
C767 C768 1.388 . S
C768 H755 0.930 . S
C768 C767 1.388 . S
C768 C769 1.390 . S
C769 C768 1.390 . S
C769 C770 1.394 . S
C769 C775 1.465 . S
C770 C765 1.399 . S
C770 C769 1.394 . S
C770 C771 1.516 . S
C771 C770 1.516 . S
C771 C772 1.502 . S
C771 C773 1.561 . S
C771 C774 1.526 . S
C772 H756 0.959 . S
C772 H757 0.959 . S
C772 H758 0.961 . S
C772 C771 1.502 . S
C773 H759 0.960 . S
C773 H760 0.961 . S
C773 H761 0.959 . S
C773 C771 1.561 . S
C774 C771 1.526 . S
C774 C775 1.396 . S
C774 C779 1.390 . S
C775 C769 1.465 . S
C775 C774 1.396 . S
C775 C776 1.399 . S
C776 H762 0.929 . S
C776 C775 1.399 . S
C776 C777 1.385 . S
C777 H763 0.931 . S
C777 C776 1.385 . S
C777 C778 1.389 . S
C778 C777 1.389 . S
C778 C779 1.387 . S
C779 H764 0.930 . S
C779 C774 1.390 . S
C779 C778 1.387 . S
H780 C792 0.930 . S
H781 C794 0.930 . S
H782 C795 0.930 . S
H783 C799 0.959 . S
H784 C799 0.959 . S
H785 C799 0.961 . S
H786 C800 0.960 . S
H787 C800 0.961 . S
H788 C800 0.959 . S
H789 C803 0.929 . S
H790 C804 0.931 . S
H791 C806 0.930 . S
C792 H780 0.930 . S
C792 C793 1.399 . S
C792 C797 1.399 . S
C793 C792 1.399 . S
C793 C794 1.376 . S
C794 H781 0.930 . S
C794 C793 1.376 . S
C794 C795 1.388 . S
C795 H782 0.930 . S
C795 C794 1.388 . S
C795 C796 1.390 . S
C796 C795 1.390 . S
C796 C797 1.394 . S
C796 C802 1.465 . S
C797 C792 1.399 . S
C797 C796 1.394 . S
C797 C798 1.516 . S
C798 C797 1.516 . S
C798 C799 1.502 . S
C798 C800 1.561 . S
C798 C801 1.526 . S
C799 H783 0.959 . S
C799 H784 0.959 . S
C799 H785 0.961 . S
C799 C798 1.502 . S
C800 H786 0.960 . S
C800 H787 0.961 . S
C800 H788 0.959 . S
C800 C798 1.561 . S
C801 C798 1.526 . S
C801 C802 1.396 . S
C801 C806 1.390 . S
C802 C796 1.465 . S
C802 C801 1.396 . S
C802 C803 1.399 . S
C803 H789 0.929 . S
C803 C802 1.399 . S
C803 C804 1.385 . S
C804 H790 0.931 . S
C804 C803 1.385 . S
C804 C805 1.389 . S
C805 C804 1.389 . S
C805 C806 1.387 . S
C806 H791 0.930 . S
C806 C801 1.390 . S
C806 C805 1.387 . S
H807 C819 0.930 . S
H808 C821 0.930 . S
H809 C822 0.930 . S
H810 C826 0.959 . S
H811 C826 0.959 . S
H812 C826 0.961 . S
H813 C827 0.960 . S
H814 C827 0.961 . S
H815 C827 0.959 . S
H816 C830 0.929 . S
H817 C831 0.931 . S
H818 C833 0.930 . S
C819 H807 0.930 . S
C819 C820 1.399 . S
C819 C824 1.399 . S
C820 C819 1.399 . S
C820 C821 1.376 . S
C821 H808 0.930 . S
C821 C820 1.376 . S
C821 C822 1.388 . S
C822 H809 0.930 . S
C822 C821 1.388 . S
C822 C823 1.390 . S
C823 C822 1.390 . S
C823 C824 1.394 . S
C823 C829 1.465 . S
C824 C819 1.399 . S
C824 C823 1.394 . S
C824 C825 1.516 . S
C825 C824 1.516 . S
C825 C826 1.502 . S
C825 C827 1.561 . S
C825 C828 1.526 . S
C826 H810 0.959 . S
C826 H811 0.959 . S
C826 H812 0.961 . S
C826 C825 1.502 . S
C827 H813 0.960 . S
C827 H814 0.961 . S
C827 H815 0.959 . S
C827 C825 1.561 . S
C828 C825 1.526 . S
C828 C829 1.396 . S
C828 C833 1.390 . S
C829 C823 1.465 . S
C829 C828 1.396 . S
C829 C830 1.399 . S
C830 H816 0.929 . S
C830 C829 1.399 . S
C830 C831 1.385 . S
C831 H817 0.931 . S
C831 C830 1.385 . S
C831 C832 1.389 . S
C832 C831 1.389 . S
C832 C833 1.387 . S
C833 H818 0.930 . S
C833 C828 1.390 . S
C833 C832 1.387 . S
H834 C846 0.930 . S
H835 C848 0.930 . S
H836 C849 0.930 . S
H837 C853 0.959 . S
H838 C853 0.959 . S
H839 C853 0.961 . S
H840 C854 0.960 . S
H841 C854 0.961 . S
H842 C854 0.959 . S
H843 C857 0.929 . S
H844 C858 0.931 . S
H845 C860 0.930 . S
C846 H834 0.930 . S
C846 C847 1.399 . S
C846 C851 1.399 . S
C847 C846 1.399 . S
C847 C848 1.376 . S
C848 H835 0.930 . S
C848 C847 1.376 . S
C848 C849 1.388 . S
C849 H836 0.930 . S
C849 C848 1.388 . S
C849 C850 1.390 . S
C850 C849 1.390 . S
C850 C851 1.394 . S
C850 C856 1.465 . S
C851 C846 1.399 . S
C851 C850 1.394 . S
C851 C852 1.516 . S
C852 C851 1.516 . S
C852 C853 1.502 . S
C852 C854 1.561 . S
C852 C855 1.526 . S
C853 H837 0.959 . S
C853 H838 0.959 . S
C853 H839 0.961 . S
C853 C852 1.502 . S
C854 H840 0.960 . S
C854 H841 0.961 . S
C854 H842 0.959 . S
C854 C852 1.561 . S
C855 C852 1.526 . S
C855 C856 1.396 . S
C855 C860 1.390 . S
C856 C850 1.465 . S
C856 C855 1.396 . S
C856 C857 1.399 . S
C857 H843 0.929 . S
C857 C856 1.399 . S
C857 C858 1.385 . S
C858 H844 0.931 . S
C858 C857 1.385 . S
C858 C859 1.389 . S
C859 C858 1.389 . S
C859 C860 1.387 . S
C860 H845 0.930 . S
C860 C855 1.390 . S
C860 C859 1.387 . S
H861 C873 0.930 . S
H862 C875 0.930 . S
H863 C876 0.930 . S
H864 C880 0.959 . S
H865 C880 0.959 . S
H866 C880 0.961 . S
H867 C881 0.960 . S
H868 C881 0.961 . S
H869 C881 0.959 . S
H870 C884 0.929 . S
H871 C885 0.931 . S
H872 C887 0.930 . S
C873 H861 0.930 . S
C873 C874 1.399 . S
C873 C878 1.399 . S
C874 C873 1.399 . S
C874 C875 1.376 . S
C875 H862 0.930 . S
C875 C874 1.376 . S
C875 C876 1.388 . S
C876 H863 0.930 . S
C876 C875 1.388 . S
C876 C877 1.390 . S
C877 C876 1.390 . S
C877 C878 1.394 . S
C877 C883 1.465 . S
C878 C873 1.399 . S
C878 C877 1.394 . S
C878 C879 1.516 . S
C879 C878 1.516 . S
C879 C880 1.502 . S
C879 C881 1.561 . S
C879 C882 1.526 . S
C880 H864 0.959 . S
C880 H865 0.959 . S
C880 H866 0.961 . S
C880 C879 1.502 . S
C881 H867 0.960 . S
C881 H868 0.961 . S
C881 H869 0.959 . S
C881 C879 1.561 . S
C882 C879 1.526 . S
C882 C883 1.396 . S
C882 C887 1.390 . S
C883 C877 1.465 . S
C883 C882 1.396 . S
C883 C884 1.399 . S
C884 H870 0.929 . S
C884 C883 1.399 . S
C884 C885 1.385 . S
C885 H871 0.931 . S
C885 C884 1.385 . S
C885 C886 1.389 . S
C886 C885 1.389 . S
C886 C887 1.387 . S
C887 H872 0.930 . S
C887 C882 1.390 . S
C887 C886 1.387 . S
H888 C900 0.930 . S
H889 C902 0.930 . S
H890 C903 0.930 . S
H891 C907 0.959 . S
H892 C907 0.959 . S
H893 C907 0.961 1_554 S
H894 C908 0.960 . S
H895 C908 0.961 . S
H896 C908 0.959 . S
H897 C911 0.929 . S
H898 C912 0.931 . S
H899 C914 0.930 . S
C900 H888 0.930 . S
C900 C901 1.399 . S
C900 C905 1.399 . S
C901 C900 1.399 . S
C901 C902 1.376 . S
C902 H889 0.930 . S
C902 C901 1.376 . S
C902 C903 1.388 . S
C903 H890 0.930 . S
C903 C902 1.388 . S
C903 C904 1.390 . S
C904 C903 1.390 . S
C904 C905 1.394 . S
C904 C910 1.465 . S
C905 C900 1.399 . S
C905 C904 1.394 . S
C905 C906 1.516 . S
C906 C905 1.516 . S
C906 C907 1.502 . S
C906 C908 1.561 . S
C906 C909 1.526 . S
C907 H891 0.959 . S
C907 H892 0.959 . S
C907 H893 0.961 1_556 S
C907 C906 1.502 . S
C908 H894 0.960 . S
C908 H895 0.961 . S
C908 H896 0.959 . S
C908 C906 1.561 . S
C909 C906 1.526 . S
C909 C910 1.396 . S
C909 C914 1.390 . S
C910 C904 1.465 . S
C910 C909 1.396 . S
C910 C911 1.399 . S
C911 H897 0.929 . S
C911 C910 1.399 . S
C911 C912 1.385 . S
C912 H898 0.931 . S
C912 C911 1.385 . S
C912 C913 1.389 . S
C913 C912 1.389 . S
C913 C914 1.387 . S
C914 H899 0.930 . S
C914 C909 1.390 . S
C914 C913 1.387 . S
H915 C927 0.930 . S
H916 C929 0.930 . S
H917 C930 0.930 . S
H918 C934 0.959 . S
H919 C934 0.959 . S
H920 C934 0.961 . S
H921 C935 0.960 . S
H922 C935 0.961 . S
H923 C935 0.959 . S
H924 C938 0.929 . S
H925 C939 0.931 1_556 S
H926 C941 0.930 . S
C927 H915 0.930 . S
C927 C928 1.399 . S
C927 C932 1.399 . S
C928 C927 1.399 . S
C928 C929 1.376 . S
C929 H916 0.930 . S
C929 C928 1.376 . S
C929 C930 1.388 . S
C930 H917 0.930 . S
C930 C929 1.388 . S
C930 C931 1.390 . S
C931 C930 1.390 . S
C931 C932 1.394 . S
C931 C937 1.465 . S
C932 C927 1.399 . S
C932 C931 1.394 . S
C932 C933 1.516 . S
C933 C932 1.516 . S
C933 C934 1.502 . S
C933 C935 1.561 . S
C933 C936 1.526 . S
C934 H918 0.959 . S
C934 H919 0.959 . S
C934 H920 0.961 . S
C934 C933 1.502 . S
C935 H921 0.960 . S
C935 H922 0.961 . S
C935 H923 0.959 . S
C935 C933 1.561 . S
C936 C933 1.526 . S
C936 C937 1.396 . S
C936 C941 1.390 . S
C937 C931 1.465 . S
C937 C936 1.396 . S
C937 C938 1.399 . S
C938 H924 0.929 . S
C938 C937 1.399 . S
C938 C939 1.385 . S
C939 H925 0.931 1_554 S
C939 C938 1.385 . S
C939 C940 1.389 . S
C940 C939 1.389 . S
C940 C941 1.387 . S
C941 H926 0.930 . S
C941 C936 1.390 . S
C941 C940 1.387 . S
H942 C954 0.930 . S
H943 C956 0.930 . S
H944 C957 0.930 . S
H945 C961 0.959 . S
H946 C961 0.959 . S
H947 C961 0.961 . S
H948 C962 0.960 . S
H949 C962 0.961 . S
H950 C962 0.959 . S
H951 C965 0.929 . S
H952 C966 0.931 . S
H953 C968 0.930 . S
C954 H942 0.930 . S
C954 C955 1.399 . S
C954 C959 1.399 . S
C955 C954 1.399 . S
C955 C956 1.376 . S
C956 H943 0.930 . S
C956 C955 1.376 . S
C956 C957 1.388 . S
C957 H944 0.930 . S
C957 C956 1.388 . S
C957 C958 1.390 . S
C958 C957 1.390 . S
C958 C959 1.394 . S
C958 C964 1.465 . S
C959 C954 1.399 . S
C959 C958 1.394 . S
C959 C960 1.516 . S
C960 C959 1.516 . S
C960 C961 1.502 . S
C960 C962 1.561 . S
C960 C963 1.526 . S
C961 H945 0.959 . S
C961 H946 0.959 . S
C961 H947 0.961 . S
C961 C960 1.502 . S
C962 H948 0.960 . S
C962 H949 0.961 . S
C962 H950 0.959 . S
C962 C960 1.561 . S
C963 C960 1.526 . S
C963 C964 1.396 . S
C963 C968 1.390 . S
C964 C958 1.465 . S
C964 C963 1.396 . S
C964 C965 1.399 . S
C965 H951 0.929 . S
C965 C964 1.399 . S
C965 C966 1.385 . S
C966 H952 0.931 . S
C966 C965 1.385 . S
C966 C967 1.389 . S
C967 C966 1.389 . S
C967 C968 1.387 . S
C968 H953 0.930 . S
C968 C963 1.390 . S
C968 C967 1.387 . S
H969 C981 0.930 . S
H970 C983 0.930 . S
H971 C984 0.930 . S
H972 C988 0.959 . S
H973 C988 0.959 . S
H974 C988 0.961 . S
H975 C989 0.960 . S
H976 C989 0.961 . S
H977 C989 0.959 . S
H978 C992 0.929 . S
H979 C993 0.931 . S
H980 C995 0.930 . S
C981 H969 0.930 . S
C981 C982 1.399 . S
C981 C986 1.399 . S
C982 C981 1.399 . S
C982 C983 1.376 . S
C983 H970 0.930 . S
C983 C982 1.376 . S
C983 C984 1.388 . S
C984 H971 0.930 . S
C984 C983 1.388 . S
C984 C985 1.390 . S
C985 C984 1.390 . S
C985 C986 1.394 . S
C985 C991 1.465 . S
C986 C981 1.399 . S
C986 C985 1.394 . S
C986 C987 1.516 . S
C987 C986 1.516 . S
C987 C988 1.502 . S
C987 C989 1.561 . S
C987 C990 1.526 . S
C988 H972 0.959 . S
C988 H973 0.959 . S
C988 H974 0.961 . S
C988 C987 1.502 . S
C989 H975 0.960 . S
C989 H976 0.961 . S
C989 H977 0.959 . S
C989 C987 1.561 . S
C990 C987 1.526 . S
C990 C991 1.396 . S
C990 C995 1.390 . S
C991 C985 1.465 . S
C991 C990 1.396 . S
C991 C992 1.399 . S
C992 H978 0.929 . S
C992 C991 1.399 . S
C992 C993 1.385 . S
C993 H979 0.931 . S
C993 C992 1.385 . S
C993 C994 1.389 . S
C994 C993 1.389 . S
C994 C995 1.387 . S
C995 H980 0.930 . S
C995 C990 1.390 . S
C995 C994 1.387 . S
H996 C1008 0.930 . S
H997 C1010 0.930 . S
H998 C1011 0.930 . S
H999 C1015 0.959 . S
H1000 C1015 0.959 . S
H1001 C1015 0.961 . S
H1002 C1016 0.960 . S
H1003 C1016 0.961 . S
H1004 C1016 0.959 . S
H1005 C1019 0.929 . S
H1006 C1020 0.931 1_556 S
H1007 C1022 0.930 . S
C1008 H996 0.930 . S
C1008 C1009 1.399 . S
C1008 C1013 1.399 . S
C1009 C1008 1.399 . S
C1009 C1010 1.376 . S
C1010 H997 0.930 . S
C1010 C1009 1.376 . S
C1010 C1011 1.388 . S
C1011 H998 0.930 . S
C1011 C1010 1.388 . S
C1011 C1012 1.390 . S
C1012 C1011 1.390 . S
C1012 C1013 1.394 . S
C1012 C1018 1.465 . S
C1013 C1008 1.399 . S
C1013 C1012 1.394 . S
C1013 C1014 1.516 . S
C1014 C1013 1.516 . S
C1014 C1015 1.502 . S
C1014 C1016 1.561 . S
C1014 C1017 1.526 . S
C1015 H999 0.959 . S
C1015 H1000 0.959 . S
C1015 H1001 0.961 . S
C1015 C1014 1.502 . S
C1016 H1002 0.960 . S
C1016 H1003 0.961 . S
C1016 H1004 0.959 . S
C1016 C1014 1.561 . S
C1017 C1014 1.526 . S
C1017 C1018 1.396 . S
C1017 C1022 1.390 . S
C1018 C1012 1.465 . S
C1018 C1017 1.396 . S
C1018 C1019 1.399 . S
C1019 H1005 0.929 . S
C1019 C1018 1.399 . S
C1019 C1020 1.385 . S
C1020 H1006 0.931 1_554 S
C1020 C1019 1.385 . S
C1020 C1021 1.389 . S
C1021 C1020 1.389 . S
C1021 C1022 1.387 . S
C1022 H1007 0.930 . S
C1022 C1017 1.390 . S
C1022 C1021 1.387 . S
H1023 C1035 0.930 . S
H1024 C1037 0.930 1_554 S
H1025 C1038 0.930 . S
H1026 C1042 0.959 . S
H1027 C1042 0.959 . S
H1028 C1042 0.961 . S
H1029 C1043 0.960 . S
H1030 C1043 0.961 . S
H1031 C1043 0.959 . S
H1032 C1046 0.929 . S
H1033 C1047 0.931 . S
H1034 C1049 0.930 . S
C1035 H1023 0.930 . S
C1035 C1036 1.399 . S
C1035 C1040 1.399 . S
C1036 C1035 1.399 . S
C1036 C1037 1.376 . S
C1037 H1024 0.930 1_556 S
C1037 C1036 1.376 . S
C1037 C1038 1.388 . S
C1038 H1025 0.930 . S
C1038 C1037 1.388 . S
C1038 C1039 1.390 . S
C1039 C1038 1.390 . S
C1039 C1040 1.394 . S
C1039 C1045 1.465 . S
C1040 C1035 1.399 . S
C1040 C1039 1.394 . S
C1040 C1041 1.516 . S
C1041 C1040 1.516 . S
C1041 C1042 1.502 . S
C1041 C1043 1.561 . S
C1041 C1044 1.526 . S
C1042 H1026 0.959 . S
C1042 H1027 0.959 . S
C1042 H1028 0.961 . S
C1042 C1041 1.502 . S
C1043 H1029 0.960 . S
C1043 H1030 0.961 . S
C1043 H1031 0.959 . S
C1043 C1041 1.561 . S
C1044 C1041 1.526 . S
C1044 C1045 1.396 . S
C1044 C1049 1.390 . S
C1045 C1039 1.465 . S
C1045 C1044 1.396 . S
C1045 C1046 1.399 . S
C1046 H1032 0.929 . S
C1046 C1045 1.399 . S
C1046 C1047 1.385 . S
C1047 H1033 0.931 . S
C1047 C1046 1.385 . S
C1047 C1048 1.389 . S
C1048 C1047 1.389 . S
C1048 C1049 1.387 . S
C1049 H1034 0.930 . S
C1049 C1044 1.390 . S
C1049 C1048 1.387 . S
H1050 C1062 0.930 . S
H1051 C1064 0.930 . S
H1052 C1065 0.930 . S
H1053 C1069 0.959 . S
H1054 C1069 0.959 . S
H1055 C1069 0.961 . S
H1056 C1070 0.960 . S
H1057 C1070 0.961 . S
H1058 C1070 0.959 . S
H1059 C1073 0.929 . S
H1060 C1074 0.931 . S
H1061 C1076 0.930 . S
C1062 H1050 0.930 . S
C1062 C1063 1.399 . S
C1062 C1067 1.399 . S
C1063 C1062 1.399 . S
C1063 C1064 1.376 . S
C1064 H1051 0.930 . S
C1064 C1063 1.376 . S
C1064 C1065 1.388 . S
C1065 H1052 0.930 . S
C1065 C1064 1.388 . S
C1065 C1066 1.390 . S
C1066 C1065 1.390 . S
C1066 C1067 1.394 . S
C1066 C1072 1.465 . S
C1067 C1062 1.399 . S
C1067 C1066 1.394 . S
C1067 C1068 1.516 . S
C1068 C1067 1.516 . S
C1068 C1069 1.502 . S
C1068 C1070 1.561 . S
C1068 C1071 1.526 . S
C1069 H1053 0.959 . S
C1069 H1054 0.959 . S
C1069 H1055 0.961 . S
C1069 C1068 1.502 . S
C1070 H1056 0.960 . S
C1070 H1057 0.961 . S
C1070 H1058 0.959 . S
C1070 C1068 1.561 . S
C1071 C1068 1.526 . S
C1071 C1072 1.396 . S
C1071 C1076 1.390 . S
C1072 C1066 1.465 . S
C1072 C1071 1.396 . S
C1072 C1073 1.399 . S
C1073 H1059 0.929 . S
C1073 C1072 1.399 . S
C1073 C1074 1.385 . S
C1074 H1060 0.931 . S
C1074 C1073 1.385 . S
C1074 C1075 1.389 . S
C1075 C1074 1.389 . S
C1075 C1076 1.387 . S
C1076 H1061 0.930 . S
C1076 C1071 1.390 . S
C1076 C1075 1.387 . S
H1077 C1089 0.930 . S
H1078 C1091 0.930 . S
H1079 C1092 0.930 . S
H1080 C1096 0.959 . S
H1081 C1096 0.959 . S
H1082 C1096 0.961 . S
H1083 C1097 0.960 . S
H1084 C1097 0.961 . S
H1085 C1097 0.959 . S
H1086 C1100 0.929 . S
H1087 C1101 0.931 . S
H1088 C1103 0.930 . S
C1089 H1077 0.930 . S
C1089 C1090 1.399 . S
C1089 C1094 1.399 . S
C1090 C1089 1.399 . S
C1090 C1091 1.376 . S
C1091 H1078 0.930 . S
C1091 C1090 1.376 . S
C1091 C1092 1.388 . S
C1092 H1079 0.930 . S
C1092 C1091 1.388 . S
C1092 C1093 1.390 . S
C1093 C1092 1.390 . S
C1093 C1094 1.394 . S
C1093 C1099 1.465 . S
C1094 C1089 1.399 . S
C1094 C1093 1.394 . S
C1094 C1095 1.516 . S
C1095 C1094 1.516 . S
C1095 C1096 1.502 . S
C1095 C1097 1.561 . S
C1095 C1098 1.526 . S
C1096 H1080 0.959 . S
C1096 H1081 0.959 . S
C1096 H1082 0.961 . S
C1096 C1095 1.502 . S
C1097 H1083 0.960 . S
C1097 H1084 0.961 . S
C1097 H1085 0.959 . S
C1097 C1095 1.561 . S
C1098 C1095 1.526 . S
C1098 C1099 1.396 . S
C1098 C1103 1.390 . S
C1099 C1093 1.465 . S
C1099 C1098 1.396 . S
C1099 C1100 1.399 . S
C1100 H1086 0.929 . S
C1100 C1099 1.399 . S
C1100 C1101 1.385 . S
C1101 H1087 0.931 . S
C1101 C1100 1.385 . S
C1101 C1102 1.389 . S
C1102 C1101 1.389 . S
C1102 C1103 1.387 . S
C1103 H1088 0.930 . S
C1103 C1098 1.390 . S
C1103 C1102 1.387 . S
H1104 C1116 0.930 . S
H1105 C1118 0.930 . S
H1106 C1119 0.930 . S
H1107 C1123 0.960 . S
H1108 C1123 0.959 1_554 S
H1109 C1123 0.961 . S
H1110 C1124 0.960 . S
H1111 C1124 0.961 1_554 S
H1112 C1124 0.961 . S
H1113 C1127 0.929 . S
H1114 C1128 0.931 . S
H1115 C1130 0.930 . S
C1116 H1104 0.930 . S
C1116 C1117 1.399 1_445 S
C1116 C1121 1.399 . S
C1117 C1116 1.399 1_665 S
C1117 C1118 1.376 . S
C1118 H1105 0.930 . S
C1118 C1117 1.376 . S
C1118 C1119 1.388 . S
C1119 H1106 0.930 . S
C1119 C1118 1.388 . S
C1119 C1120 1.390 . S
C1120 C1119 1.390 . S
C1120 C1121 1.394 1_665 S
C1120 C1126 1.465 1_556 S
C1121 C1116 1.399 . S
C1121 C1120 1.394 1_445 S
C1121 C1122 1.516 . S
C1122 C1121 1.516 . S
C1122 C1123 1.502 . S
C1122 C1124 1.561 1_455 S
C1122 C1125 1.526 1_556 S
C1123 H1107 0.960 . S
C1123 H1108 0.959 1_556 S
C1123 H1109 0.961 . S
C1123 C1122 1.502 . S
C1124 H1110 0.960 . S
C1124 H1111 0.961 1_556 S
C1124 H1112 0.961 . S
C1124 C1122 1.561 1_655 S
C1125 C1122 1.526 1_554 S
C1125 C1126 1.396 1_445 S
C1125 C1130 1.390 . S
C1126 C1120 1.465 1_554 S
C1126 C1125 1.396 1_665 S
C1126 C1127 1.399 . S
C1127 H1113 0.929 . S
C1127 C1126 1.399 . S
C1127 C1128 1.385 . S
C1128 H1114 0.931 . S
C1128 C1127 1.385 . S
C1128 C1129 1.390 1_565 S
C1129 C1128 1.390 1_545 S
C1129 C1130 1.386 1_655 S
C1130 H1115 0.930 . S
C1130 C1125 1.390 . S
C1130 C1129 1.386 1_455 S
H1131 C1143 0.930 . S
H1132 C1145 0.930 . S
H1133 C1146 0.930 . S
H1134 C1150 0.959 . S
H1135 C1150 0.959 . S
H1136 C1150 0.961 . S
H1137 C1151 0.960 . S
H1138 C1151 0.961 . S
H1139 C1151 0.959 . S
H1140 C1154 0.929 . S
H1141 C1155 0.931 . S
H1142 C1157 0.930 . S
C1143 H1131 0.930 . S
C1143 C1144 1.399 . S
C1143 C1148 1.399 . S
C1144 C1143 1.399 . S
C1144 C1145 1.376 . S
C1145 H1132 0.930 . S
C1145 C1144 1.376 . S
C1145 C1146 1.388 . S
C1146 H1133 0.930 . S
C1146 C1145 1.388 . S
C1146 C1147 1.390 . S
C1147 C1146 1.390 . S
C1147 C1148 1.394 . S
C1147 C1153 1.465 . S
C1148 C1143 1.399 . S
C1148 C1147 1.394 . S
C1148 C1149 1.516 . S
C1149 C1148 1.516 . S
C1149 C1150 1.502 . S
C1149 C1151 1.561 . S
C1149 C1152 1.526 . S
C1150 H1134 0.959 . S
C1150 H1135 0.959 . S
C1150 H1136 0.961 . S
C1150 C1149 1.502 . S
C1151 H1137 0.960 . S
C1151 H1138 0.961 . S
C1151 H1139 0.959 . S
C1151 C1149 1.561 . S
C1152 C1149 1.526 . S
C1152 C1153 1.396 . S
C1152 C1157 1.390 . S
C1153 C1147 1.465 . S
C1153 C1152 1.396 . S
C1153 C1154 1.399 . S
C1154 H1140 0.929 . S
C1154 C1153 1.399 . S
C1154 C1155 1.385 . S
C1155 H1141 0.931 . S
C1155 C1154 1.385 . S
C1155 C1156 1.389 . S
C1156 C1155 1.389 . S
C1156 C1157 1.387 . S
C1157 H1142 0.930 . S
C1157 C1152 1.390 . S
C1157 C1156 1.387 . S
H1158 C1170 0.930 . S
H1159 C1172 0.930 . S
H1160 C1173 0.930 . S
H1161 C1177 0.959 . S
H1162 C1177 0.959 . S
H1163 C1177 0.961 . S
H1164 C1178 0.960 . S
H1165 C1178 0.961 . S
H1166 C1178 0.959 . S
H1167 C1181 0.929 . S
H1168 C1182 0.931 . S
H1169 C1184 0.930 . S
C1170 H1158 0.930 . S
C1170 C1171 1.399 . S
C1170 C1175 1.399 . S
C1171 C1170 1.399 . S
C1171 C1172 1.376 1_565 S
C1172 H1159 0.930 . S
C1172 C1171 1.376 1_545 S
C1172 C1173 1.388 . S
C1173 H1160 0.930 . S
C1173 C1172 1.388 . S
C1173 C1174 1.390 . S
C1174 C1173 1.390 . S
C1174 C1175 1.394 1_545 S
C1174 C1180 1.465 . S
C1175 C1170 1.399 . S
C1175 C1174 1.394 1_565 S
C1175 C1176 1.516 . S
C1176 C1175 1.516 . S
C1176 C1177 1.502 . S
C1176 C1178 1.561 . S
C1176 C1179 1.526 . S
C1177 H1161 0.959 . S
C1177 H1162 0.959 . S
C1177 H1163 0.961 . S
C1177 C1176 1.502 . S
C1178 H1164 0.960 . S
C1178 H1165 0.961 . S
C1178 H1166 0.959 . S
C1178 C1176 1.561 . S
C1179 C1176 1.526 . S
C1179 C1180 1.396 1_565 S
C1179 C1184 1.390 . S
C1180 C1174 1.465 . S
C1180 C1179 1.396 1_545 S
C1180 C1181 1.399 . S
C1181 H1167 0.929 . S
C1181 C1180 1.399 . S
C1181 C1182 1.385 . S
C1182 H1168 0.931 . S
C1182 C1181 1.385 . S
C1182 C1183 1.389 . S
C1183 C1182 1.389 . S
C1183 C1184 1.387 1_545 S
C1184 H1169 0.930 . S
C1184 C1179 1.390 . S
C1184 C1183 1.387 1_565 S
H1185 C1197 0.930 . S
H1186 C1199 0.930 . S
H1187 C1200 0.930 . S
H1188 C1204 0.959 . S
H1189 C1204 0.959 . S
H1190 C1204 0.961 . S
H1191 C1205 0.960 . S
H1192 C1205 0.961 . S
H1193 C1205 0.959 . S
H1194 C1208 0.929 . S
H1195 C1209 0.931 . S
H1196 C1211 0.930 . S
C1197 H1185 0.930 . S
C1197 C1198 1.399 . S
C1197 C1202 1.399 . S
C1198 C1197 1.399 . S
C1198 C1199 1.376 . S
C1199 H1186 0.930 . S
C1199 C1198 1.376 . S
C1199 C1200 1.388 . S
C1200 H1187 0.930 . S
C1200 C1199 1.388 . S
C1200 C1201 1.390 . S
C1201 C1200 1.390 . S
C1201 C1202 1.394 . S
C1201 C1207 1.465 . S
C1202 C1197 1.399 . S
C1202 C1201 1.394 . S
C1202 C1203 1.516 . S
C1203 C1202 1.516 . S
C1203 C1204 1.502 . S
C1203 C1205 1.561 . S
C1203 C1206 1.526 . S
C1204 H1188 0.959 . S
C1204 H1189 0.959 . S
C1204 H1190 0.961 . S
C1204 C1203 1.502 . S
C1205 H1191 0.960 . S
C1205 H1192 0.961 . S
C1205 H1193 0.959 . S
C1205 C1203 1.561 . S
C1206 C1203 1.526 . S
C1206 C1207 1.396 . S
C1206 C1211 1.390 . S
C1207 C1201 1.465 . S
C1207 C1206 1.396 . S
C1207 C1208 1.399 . S
C1208 H1194 0.929 . S
C1208 C1207 1.399 . S
C1208 C1209 1.385 . S
C1209 H1195 0.931 . S
C1209 C1208 1.385 . S
C1209 C1210 1.389 . S
C1210 C1209 1.389 . S
C1210 C1211 1.387 . S
C1211 H1196 0.930 . S
C1211 C1206 1.390 . S
C1211 C1210 1.387 . S
H1212 C1224 0.930 . S
H1213 C1226 0.930 . S
H1214 C1227 0.930 . S
H1215 C1231 0.959 . S
H1216 C1231 0.959 . S
H1217 C1231 0.961 . S
H1218 C1232 0.960 . S
H1219 C1232 0.961 . S
H1220 C1232 0.959 . S
H1221 C1235 0.929 . S
H1222 C1236 0.931 . S
H1223 C1238 0.930 . S
C1224 H1212 0.930 . S
C1224 C1225 1.399 . S
C1224 C1229 1.399 . S
C1225 C1224 1.399 . S
C1225 C1226 1.376 . S
C1226 H1213 0.930 . S
C1226 C1225 1.376 . S
C1226 C1227 1.388 . S
C1227 H1214 0.930 . S
C1227 C1226 1.388 . S
C1227 C1228 1.390 . S
C1228 C1227 1.390 . S
C1228 C1229 1.394 . S
C1228 C1234 1.465 . S
C1229 C1224 1.399 . S
C1229 C1228 1.394 . S
C1229 C1230 1.516 . S
C1230 C1229 1.516 . S
C1230 C1231 1.502 . S
C1230 C1232 1.561 . S
C1230 C1233 1.526 . S
C1231 H1215 0.959 . S
C1231 H1216 0.959 . S
C1231 H1217 0.961 . S
C1231 C1230 1.502 . S
C1232 H1218 0.960 . S
C1232 H1219 0.961 . S
C1232 H1220 0.959 . S
C1232 C1230 1.561 . S
C1233 C1230 1.526 . S
C1233 C1234 1.396 . S
C1233 C1238 1.390 . S
C1234 C1228 1.465 . S
C1234 C1233 1.396 . S
C1234 C1235 1.399 . S
C1235 H1221 0.929 . S
C1235 C1234 1.399 . S
C1235 C1236 1.385 . S
C1236 H1222 0.931 . S
C1236 C1235 1.385 . S
C1236 C1237 1.389 . S
C1237 C1236 1.389 . S
C1237 C1238 1.387 . S
C1238 H1223 0.930 . S
C1238 C1233 1.390 . S
C1238 C1237 1.387 . S
H1239 C1251 0.930 . S
H1240 C1253 0.930 . S
H1241 C1254 0.930 . S
H1242 C1258 0.959 . S
H1243 C1258 0.959 . S
H1244 C1258 0.961 . S
H1245 C1259 0.960 . S
H1246 C1259 0.961 . S
H1247 C1259 0.959 . S
H1248 C1262 0.929 . S
H1249 C1263 0.931 . S
H1250 C1265 0.930 . S
C1251 H1239 0.930 . S
C1251 C1252 1.399 . S
C1251 C1256 1.399 . S
C1252 C1251 1.399 . S
C1252 C1253 1.376 . S
C1253 H1240 0.930 . S
C1253 C1252 1.376 . S
C1253 C1254 1.388 . S
C1254 H1241 0.930 . S
C1254 C1253 1.388 . S
C1254 C1255 1.390 . S
C1255 C1254 1.390 . S
C1255 C1256 1.394 . S
C1255 C1261 1.465 . S
C1256 C1251 1.399 . S
C1256 C1255 1.394 . S
C1256 C1257 1.516 . S
C1257 C1256 1.516 . S
C1257 C1258 1.502 . S
C1257 C1259 1.561 . S
C1257 C1260 1.526 . S
C1258 H1242 0.959 . S
C1258 H1243 0.959 . S
C1258 H1244 0.961 . S
C1258 C1257 1.502 . S
C1259 H1245 0.960 . S
C1259 H1246 0.961 . S
C1259 H1247 0.959 . S
C1259 C1257 1.561 . S
C1260 C1257 1.526 . S
C1260 C1261 1.396 . S
C1260 C1265 1.390 . S
C1261 C1255 1.465 . S
C1261 C1260 1.396 . S
C1261 C1262 1.399 . S
C1262 H1248 0.929 . S
C1262 C1261 1.399 . S
C1262 C1263 1.385 . S
C1263 H1249 0.931 . S
C1263 C1262 1.385 . S
C1263 C1264 1.389 . S
C1264 C1263 1.389 . S
C1264 C1265 1.387 . S
C1265 H1250 0.930 . S
C1265 C1260 1.390 . S
C1265 C1264 1.387 . S
H1266 C1278 0.930 . S
H1267 C1280 0.930 . S
H1268 C1281 0.930 . S
H1269 C1285 0.959 . S
H1270 C1285 0.959 . S
H1271 C1285 0.961 . S
H1272 C1286 0.960 . S
H1273 C1286 0.961 . S
H1274 C1286 0.959 . S
H1275 C1289 0.929 . S
H1276 C1290 0.931 . S
H1277 C1292 0.930 . S
C1278 H1266 0.930 . S
C1278 C1279 1.399 . S
C1278 C1283 1.399 . S
C1279 C1278 1.399 . S
C1279 C1280 1.376 . S
C1280 H1267 0.930 . S
C1280 C1279 1.376 . S
C1280 C1281 1.388 . S
C1281 H1268 0.930 . S
C1281 C1280 1.388 . S
C1281 C1282 1.390 . S
C1282 C1281 1.390 . S
C1282 C1283 1.394 . S
C1282 C1288 1.465 . S
C1283 C1278 1.399 . S
C1283 C1282 1.394 . S
C1283 C1284 1.516 . S
C1284 C1283 1.516 . S
C1284 C1285 1.502 . S
C1284 C1286 1.561 . S
C1284 C1287 1.526 . S
C1285 H1269 0.959 . S
C1285 H1270 0.959 . S
C1285 H1271 0.961 . S
C1285 C1284 1.502 . S
C1286 H1272 0.960 . S
C1286 H1273 0.961 . S
C1286 H1274 0.959 . S
C1286 C1284 1.561 . S
C1287 C1284 1.526 . S
C1287 C1288 1.396 . S
C1287 C1292 1.390 . S
C1288 C1282 1.465 . S
C1288 C1287 1.396 . S
C1288 C1289 1.399 . S
C1289 H1275 0.929 . S
C1289 C1288 1.399 . S
C1289 C1290 1.385 . S
C1290 H1276 0.931 . S
C1290 C1289 1.385 . S
C1290 C1291 1.389 . S
C1291 C1290 1.389 . S
C1291 C1292 1.387 . S
C1292 H1277 0.930 . S
C1292 C1287 1.390 . S
C1292 C1291 1.387 . S
H1293 C1305 0.930 . S
H1294 C1307 0.930 . S
H1295 C1308 0.930 . S
H1296 C1312 0.959 . S
H1297 C1312 0.959 1_554 S
H1298 C1312 0.961 . S
H1299 C1313 0.960 . S
H1300 C1313 0.961 1_554 S
H1301 C1313 0.959 . S
H1302 C1316 0.929 . S
H1303 C1317 0.931 . S
H1304 C1319 0.930 . S
C1305 H1293 0.930 . S
C1305 C1306 1.399 1_655 S
C1305 C1310 1.399 . S
C1306 C1305 1.399 1_455 S
C1306 C1307 1.376 . S
C1307 H1294 0.930 . S
C1307 C1306 1.376 . S
C1307 C1308 1.388 . S
C1308 H1295 0.930 . S
C1308 C1307 1.388 . S
C1308 C1309 1.390 . S
C1309 C1308 1.390 . S
C1309 C1310 1.394 1_455 S
C1309 C1315 1.465 1_556 S
C1310 C1305 1.399 . S
C1310 C1309 1.394 1_655 S
C1310 C1311 1.516 . S
C1311 C1310 1.516 . S
C1311 C1312 1.502 . S
C1311 C1313 1.561 1_655 S
C1311 C1314 1.526 1_556 S
C1312 H1296 0.959 . S
C1312 H1297 0.959 1_556 S
C1312 H1298 0.961 . S
C1312 C1311 1.502 . S
C1313 H1299 0.960 . S
C1313 H1300 0.961 1_556 S
C1313 H1301 0.959 . S
C1313 C1311 1.561 1_455 S
C1314 C1311 1.526 1_554 S
C1314 C1315 1.396 1_655 S
C1314 C1319 1.390 . S
C1315 C1309 1.465 1_554 S
C1315 C1314 1.396 1_455 S
C1315 C1316 1.399 . S
C1316 H1302 0.929 . S
C1316 C1315 1.399 . S
C1316 C1317 1.385 . S
C1317 H1303 0.931 . S
C1317 C1316 1.385 . S
C1317 C1318 1.391 . S
C1318 C1317 1.391 . S
C1318 C1319 1.386 1_455 S
C1319 H1304 0.930 . S
C1319 C1314 1.390 . S
C1319 C1318 1.386 1_655 S
C685 C56 1.484 . S
C697 C308 1.475 . S
C712 C63 1.480 . S
C724 C140 1.473 . S
C739 C147 1.482 . S
C751 C224 1.489 . S
C766 C231 1.483 . S
C778 C315 1.511 . S
C793 C67 1.470 . S
C805 C487 1.484 . S
C820 C74 1.468 . S
C832 C403 1.484 . S
C847 C410 1.485 . S
C859 C235 1.506 . S
C874 C494 1.505 . S
C886 C242 1.490 . S
C901 C560 1.488 . S
C913 C476 1.494 . S
C928 C392 1.496 . S
C940 C567 1.467 . S
C955 C644 1.493 . S
C967 C399 1.479 . S
C982 C483 1.478 . S
C994 C651 1.517 . S
C1009 C319 1.474 . S
C1021 C571 1.488 . S
C1036 C578 1.467 . S
C1048 C151 1.481 . S
C1063 C158 1.480 . S
C1075 C655 1.502 . S
C1090 C326 1.482 . S
C1102 C662 1.505 . S
C1117 C58 1.350 1_565 S
C1129 C69 1.322 1_645 S
C1144 C153 1.331 . S
C1156 C142 1.331 . S
C1171 C237 1.278 1_565 S
C1183 C226 1.407 1_545 S
C1198 C310 1.275 . S
C1210 C321 1.400 . S
C1225 C405 1.349 . S
C1237 C394 1.353 . S
C1252 C478 1.407 . S
C1264 C489 1.280 . S
C1279 C573 1.409 . S
C1291 C562 1.281 . S
C1306 C646 1.354 . S
C1318 C657 1.318 1_455 S
