# Generated by pormake.
# Topology zfq, (5)-cn, num edge types: 1
# Building blocks:
#     Node 0, Type 0, BuildingBlock: BEQFEK_clean_sbu_0, # of connection points: 5
#     Node 1, Type 0, BuildingBlock: BEQFEK_clean_sbu_0, # of connection points: 5
#     Node 2, Type 0, BuildingBlock: BEQFEK_clean_sbu_0, # of connection points: 5
#     Node 3, Type 0, BuildingBlock: BEQFEK_clean_sbu_0, # of connection points: 5
#     Node 4, Type 0, BuildingBlock: BEQFEK_clean_sbu_0, # of connection points: 5
#     Node 5, Type 0, BuildingBlock: BEQFEK_clean_sbu_0, # of connection points: 5
#     Node 6, Type 0, BuildingBlock: BEQFEK_clean_sbu_0, # of connection points: 5
#     Node 7, Type 0, BuildingBlock: BEQFEK_clean_sbu_0, # of connection points: 5
#     Node 8, Type 0, BuildingBlock: BEQFEK_clean_sbu_0, # of connection points: 5
#     Node 9, Type 0, BuildingBlock: BEQFEK_clean_sbu_0, # of connection points: 5
#     Node 10, Type 0, BuildingBlock: BEQFEK_clean_sbu_0, # of connection points: 5
#     Node 11, Type 0, BuildingBlock: BEQFEK_clean_sbu_0, # of connection points: 5
#     Node 12, Type 0, BuildingBlock: BEQFEK_clean_sbu_0, # of connection points: 5
#     Node 13, Type 0, BuildingBlock: BEQFEK_clean_sbu_0, # of connection points: 5
#     Node 14, Type 0, BuildingBlock: BEQFEK_clean_sbu_0, # of connection points: 5
#     Node 15, Type 0, BuildingBlock: BEQFEK_clean_sbu_0, # of connection points: 5
#     Edge 16, Type (0, 0), BuildingBlock: TEMPAE_clean_linker_10, # of connection points: 2
#     Edge 17, Type (0, 0), BuildingBlock: TEMPAE_clean_linker_10, # of connection points: 2
#     Edge 18, Type (0, 0), BuildingBlock: TEMPAE_clean_linker_10, # of connection points: 2
#     Edge 19, Type (0, 0), BuildingBlock: TEMPAE_clean_linker_10, # of connection points: 2
#     Edge 20, Type (0, 0), BuildingBlock: TEMPAE_clean_linker_10, # of connection points: 2
#     Edge 21, Type (0, 0), BuildingBlock: TEMPAE_clean_linker_10, # of connection points: 2
#     Edge 22, Type (0, 0), BuildingBlock: TEMPAE_clean_linker_10, # of connection points: 2
#     Edge 23, Type (0, 0), BuildingBlock: TEMPAE_clean_linker_10, # of connection points: 2
#     Edge 24, Type (0, 0), BuildingBlock: TEMPAE_clean_linker_10, # of connection points: 2
#     Edge 25, Type (0, 0), BuildingBlock: TEMPAE_clean_linker_10, # of connection points: 2
#     Edge 26, Type (0, 0), BuildingBlock: TEMPAE_clean_linker_10, # of connection points: 2
#     Edge 27, Type (0, 0), BuildingBlock: TEMPAE_clean_linker_10, # of connection points: 2
#     Edge 28, Type (0, 0), BuildingBlock: TEMPAE_clean_linker_10, # of connection points: 2
#     Edge 29, Type (0, 0), BuildingBlock: TEMPAE_clean_linker_10, # of connection points: 2
#     Edge 30, Type (0, 0), BuildingBlock: TEMPAE_clean_linker_10, # of connection points: 2
#     Edge 31, Type (0, 0), BuildingBlock: TEMPAE_clean_linker_10, # of connection points: 2
#     Edge 32, Type (0, 0), BuildingBlock: TEMPAE_clean_linker_10, # of connection points: 2
#     Edge 33, Type (0, 0), BuildingBlock: TEMPAE_clean_linker_10, # of connection points: 2
#     Edge 34, Type (0, 0), BuildingBlock: TEMPAE_clean_linker_10, # of connection points: 2
#     Edge 35, Type (0, 0), BuildingBlock: TEMPAE_clean_linker_10, # of connection points: 2
#     Edge 36, Type (0, 0), BuildingBlock: TEMPAE_clean_linker_10, # of connection points: 2
#     Edge 37, Type (0, 0), BuildingBlock: TEMPAE_clean_linker_10, # of connection points: 2
#     Edge 38, Type (0, 0), BuildingBlock: TEMPAE_clean_linker_10, # of connection points: 2
#     Edge 39, Type (0, 0), BuildingBlock: TEMPAE_clean_linker_10, # of connection points: 2
#     Edge 40, Type (0, 0), BuildingBlock: TEMPAE_clean_linker_10, # of connection points: 2
#     Edge 41, Type (0, 0), BuildingBlock: TEMPAE_clean_linker_10, # of connection points: 2
#     Edge 42, Type (0, 0), BuildingBlock: TEMPAE_clean_linker_10, # of connection points: 2
#     Edge 43, Type (0, 0), BuildingBlock: TEMPAE_clean_linker_10, # of connection points: 2
#     Edge 44, Type (0, 0), BuildingBlock: TEMPAE_clean_linker_10, # of connection points: 2
#     Edge 45, Type (0, 0), BuildingBlock: TEMPAE_clean_linker_10, # of connection points: 2
#     Edge 46, Type (0, 0), BuildingBlock: TEMPAE_clean_linker_10, # of connection points: 2
#     Edge 47, Type (0, 0), BuildingBlock: TEMPAE_clean_linker_10, # of connection points: 2
#     Edge 48, Type (0, 0), BuildingBlock: TEMPAE_clean_linker_10, # of connection points: 2
#     Edge 49, Type (0, 0), BuildingBlock: TEMPAE_clean_linker_10, # of connection points: 2
#     Edge 50, Type (0, 0), BuildingBlock: TEMPAE_clean_linker_10, # of connection points: 2
#     Edge 51, Type (0, 0), BuildingBlock: TEMPAE_clean_linker_10, # of connection points: 2
#     Edge 52, Type (0, 0), BuildingBlock: TEMPAE_clean_linker_10, # of connection points: 2
#     Edge 53, Type (0, 0), BuildingBlock: TEMPAE_clean_linker_10, # of connection points: 2
#     Edge 54, Type (0, 0), BuildingBlock: TEMPAE_clean_linker_10, # of connection points: 2
#     Edge 55, Type (0, 0), BuildingBlock: TEMPAE_clean_linker_10, # of connection points: 2
# Relax obj value: 0.120
# Max RMSD: 0.179
# Mean RMSD: 0.179
data_MOF--net-zfq--node1-BEQFEK_clean_sbu_0--edge1-TEMPAE_clean_linker_10
_symmetry_space_group_name_H-M    P1
_symmetry_Int_Tables_number       1
_symmetry_cell_setting            triclinic
loop_
_symmetry_equiv_pos_as_xyz
'x, y, z'
_cell_length_a     29.41526
_cell_length_b     29.434017
_cell_length_c     77.169572
_cell_angle_alpha  90.000949
_cell_angle_beta   90.002446
_cell_angle_gamma 89.999425
loop_
_atom_site_label
_atom_site_type_symbol
_atom_site_fract_x
_atom_site_fract_y
_atom_site_fract_z
_atom_type_partial_charge
Co0 Co 0.18658 0.16719 0.15067 0.0
Co1 Co 0.18729 0.17495 0.11008 0.0
C2 C 0.13828 0.2428 0.13098 0.0
O3 O 0.14947 0.2213 0.14468 0.0
O4 O 0.15288 0.23052 0.11614 0.0
C5 C 0.16217 0.17113 0.18608 0.0
O6 O 0.12132 0.17453 0.17931 0.0
C7 C 0.20628 0.20396 0.07411 0.0
C8 C 0.21054 0.13737 0.06097 0.0
C9 C 0.21518 0.18363 0.05822 0.0
N10 N 0.19712 0.17107 0.0857 0.0
N11 N 0.19913 0.13144 0.07769 0.0
C12 C 0.21035 0.25319 0.07866 0.0
H13 H 0.21706 0.2573 0.09273 0.0
H14 H 0.23793 0.26947 0.07105 0.0
H15 H 0.17788 0.27054 0.07553 0.0
C16 C 0.28571 0.16328 0.14507 0.0
N17 N 0.24286 0.16649 0.13905 0.0
N18 N 0.2437 0.17058 0.12208 0.0
C19 C 0.28741 0.17056 0.11677 0.0
C20 C 0.31535 0.16569 0.13114 0.0
C21 C 0.29774 0.16074 0.16388 0.0
H22 H 0.28478 0.1915 0.17056 0.0
H23 H 0.335 0.15824 0.16589 0.0
H24 H 0.28078 0.13081 0.16977 0.0
O25 O 0.14951 0.11376 0.1445 0.0
O26 O 0.14594 0.12403 0.116 0.0
H27 H 0.28599 0.1481 0.09043 0.0
H28 H 0.33979 0.17182 0.09701 0.0
C29 C 0.30235 0.17496 0.09832 0.0
H30 H 0.29153 0.20845 0.09321 0.0
H31 H 0.1941 0.1002 0.08379 0.0
O32 O 0.19618 0.16735 0.17604 0.0
C33 C 0.13406 0.10289 0.12967 0.0
Co34 Co 0.18679 0.81768 0.85052 0.0
Co35 Co 0.17255 0.81912 0.89102 0.0
C36 C 0.25045 0.86786 0.87292 0.0
O37 O 0.24064 0.85229 0.85799 0.0
O38 O 0.22678 0.85748 0.88618 0.0
C39 C 0.22616 0.80285 0.81657 0.0
O40 O 0.2653 0.80405 0.82476 0.0
C41 C 0.19864 0.80071 0.9274 0.0
C42 C 0.13223 0.80619 0.9406 0.0
C43 C 0.1778 0.79702 0.94355 0.0
N44 N 0.16663 0.81087 0.91554 0.0
N45 N 0.1271 0.81434 0.92356 0.0
C46 C 0.24824 0.79641 0.92334 0.0
H47 H 0.26919 0.80854 0.93437 0.0
H48 H 0.25707 0.81593 0.91158 0.0
H49 H 0.25653 0.76024 0.92084 0.0
C50 C 0.18027 0.71867 0.85689 0.0
N51 N 0.18066 0.76195 0.86254 0.0
N52 N 0.17395 0.76235 0.8794 0.0
C53 C 0.16823 0.71928 0.88496 0.0
C54 C 0.17216 0.69028 0.87088 0.0
C55 C 0.18648 0.70495 0.83837 0.0
H56 H 0.16197 0.72375 0.83014 0.0
H57 H 0.2213 0.71418 0.83413 0.0
H58 H 0.18127 0.66792 0.83653 0.0
O59 O 0.13395 0.85801 0.85467 0.0
O60 O 0.12001 0.855 0.88299 0.0
H61 H 0.13179 0.726 0.90883 0.0
H62 H 0.15319 0.66935 0.90485 0.0
C63 C 0.16053 0.70611 0.90346 0.0
H64 H 0.19136 0.71417 0.9111 0.0
H65 H 0.09651 0.82197 0.91736 0.0
O66 O 0.18955 0.80746 0.82514 0.0
C67 C 0.11065 0.86958 0.86787 0.0
Co68 Co 0.81156 0.82873 0.1502 0.0
Co69 Co 0.81247 0.82005 0.10957 0.0
C70 C 0.86108 0.75297 0.13078 0.0
O71 O 0.8496 0.77494 0.14434 0.0
O72 O 0.84659 0.76459 0.11585 0.0
C73 C 0.79615 0.79227 0.18405 0.0
O74 O 0.79623 0.75347 0.17562 0.0
C75 C 0.79503 0.79144 0.07338 0.0
C76 C 0.79105 0.85832 0.06044 0.0
C77 C 0.78659 0.81212 0.0575 0.0
N78 N 0.80368 0.82411 0.08512 0.0
N79 N 0.80189 0.8639 0.07723 0.0
C80 C 0.79094 0.74209 0.07774 0.0
H81 H 0.78439 0.73759 0.0918 0.0
H82 H 0.76325 0.72609 0.0701 0.0
H83 H 0.82333 0.72478 0.07447 0.0
C84 C 0.71229 0.83245 0.14383 0.0
N85 N 0.75553 0.82907 0.13821 0.0
N86 N 0.75559 0.8244 0.12125 0.0
C87 C 0.71217 0.824 0.1156 0.0
C88 C 0.68346 0.82934 0.12969 0.0
C89 C 0.6989 0.83605 0.16248 0.0
H90 H 0.71977 0.86247 0.16895 0.0
H91 H 0.70563 0.80313 0.16899 0.0
H92 H 0.66233 0.84445 0.16394 0.0
O93 O 0.84846 0.88235 0.1441 0.0
O94 O 0.85352 0.87103 0.11569 0.0
H95 H 0.71429 0.84535 0.08912 0.0
H96 H 0.66074 0.82074 0.09552 0.0
C97 C 0.69817 0.81848 0.09708 0.0
H98 H 0.70991 0.78502 0.09226 0.0
H99 H 0.80661 0.89502 0.08345 0.0
O100 O 0.80163 0.829 0.17563 0.0
C101 C 0.86464 0.89272 0.12933 0.0
Co102 Co 0.81614 0.18317 0.85119 0.0
Co103 Co 0.83216 0.18324 0.8915 0.0
C104 C 0.75309 0.13432 0.87454 0.0
O105 O 0.76295 0.14882 0.85945 0.0
O106 O 0.77689 0.14536 0.8877 0.0
C107 C 0.77496 0.19429 0.81728 0.0
O108 O 0.73603 0.19062 0.82551 0.0
C109 C 0.80806 0.19937 0.92789 0.0
C110 C 0.87553 0.2025 0.94041 0.0
C111 C 0.82936 0.20596 0.94376 0.0
N112 N 0.84017 0.19232 0.91579 0.0
N113 N 0.88041 0.19382 0.92338 0.0
C114 C 0.75848 0.2035 0.92386 0.0
H115 H 0.75357 0.21353 0.91012 0.0
H116 H 0.74203 0.2288 0.93248 0.0
H117 H 0.74192 0.17005 0.92589 0.0
C118 C 0.82164 0.28237 0.85694 0.0
N119 N 0.82265 0.23932 0.86281 0.0
N120 N 0.82977 0.23968 0.87964 0.0
C121 C 0.83413 0.28311 0.88498 0.0
C122 C 0.82914 0.31149 0.87075 0.0
C123 C 0.81394 0.29522 0.83841 0.0
H124 H 0.77929 0.28449 0.83447 0.0
H125 H 0.81763 0.33235 0.83635 0.0
H126 H 0.83871 0.27705 0.83007 0.0
O127 O 0.86928 0.14319 0.85496 0.0
O128 O 0.88397 0.14665 0.88319 0.0
H129 H 0.84439 0.33455 0.90473 0.0
H130 H 0.81098 0.28608 0.91118 0.0
C131 C 0.84069 0.2972 0.90344 0.0
H132 H 0.8714 0.28036 0.90874 0.0
H133 H 0.91124 0.18974 0.91687 0.0
O134 O 0.81185 0.19249 0.82582 0.0
C135 C 0.89292 0.13181 0.86808 0.0
Co136 Co 0.81455 0.17582 0.65318 0.0
Co137 Co 0.81787 0.16833 0.61239 0.0
C138 C 0.86554 0.24324 0.63214 0.0
O139 O 0.85003 0.23011 0.6467 0.0
O140 O 0.85529 0.22255 0.61816 0.0
C141 C 0.79852 0.21362 0.68706 0.0
O142 O 0.80103 0.25272 0.67891 0.0
C143 C 0.80103 0.19686 0.57606 0.0
C144 C 0.80528 0.13093 0.56248 0.0
C145 C 0.79703 0.17675 0.55979 0.0
N146 N 0.81045 0.16419 0.58775 0.0
N147 N 0.81324 0.12497 0.57949 0.0
C148 C 0.79788 0.24637 0.58037 0.0
H149 H 0.76197 0.25535 0.58308 0.0
H150 H 0.8101 0.26741 0.56938 0.0
H151 H 0.81803 0.25439 0.59207 0.0
C152 C 0.71586 0.1693 0.64611 0.0
N153 N 0.75938 0.1709 0.64071 0.0
N154 N 0.76038 0.16842 0.62367 0.0
C155 C 0.71733 0.16536 0.61774 0.0
C156 C 0.68789 0.16565 0.63175 0.0
C157 C 0.70135 0.17319 0.66463 0.0
H158 H 0.71128 0.20706 0.66966 0.0
H159 H 0.66406 0.16895 0.6661 0.0
H160 H 0.7191 0.14705 0.67247 0.0
O161 O 0.85505 0.12372 0.64858 0.0
O162 O 0.85459 0.11529 0.61992 0.0
H163 H 0.72444 0.13412 0.59284 0.0
H164 H 0.66762 0.15406 0.59751 0.0
C165 C 0.70439 0.16152 0.59905 0.0
H166 H 0.71219 0.19392 0.59238 0.0
H167 H 0.8201 0.09398 0.58552 0.0
O168 O 0.8029 0.177 0.67849 0.0
C169 C 0.86807 0.10322 0.63492 0.0
Co170 Co 0.18486 0.185 0.35078 0.0
Co171 Co 0.16586 0.18487 0.39082 0.0
C172 C 0.24567 0.13526 0.37447 0.0
O173 O 0.23748 0.15045 0.35934 0.0
O174 O 0.22077 0.14618 0.38734 0.0
C175 C 0.19244 0.15822 0.31616 0.0
O176 O 0.19139 0.11833 0.32381 0.0
C177 C 0.19 0.20137 0.42705 0.0
C178 C 0.12284 0.20355 0.43984 0.0
C179 C 0.16906 0.20755 0.44301 0.0
N180 N 0.15766 0.19396 0.41508 0.0
N181 N 0.1176 0.19492 0.42282 0.0
C182 C 0.2394 0.20616 0.42282 0.0
H183 H 0.24378 0.21645 0.40908 0.0
H184 H 0.25581 0.23153 0.43143 0.0
H185 H 0.25642 0.17288 0.4247 0.0
C186 C 0.17994 0.28415 0.35648 0.0
N187 N 0.17815 0.24111 0.36232 0.0
N188 N 0.16942 0.24142 0.37904 0.0
C189 C 0.16458 0.28486 0.38431 0.0
C190 C 0.17104 0.31324 0.37018 0.0
C191 C 0.18967 0.29682 0.33807 0.0
H192 H 0.16283 0.28241 0.3296 0.0
H193 H 0.22256 0.28162 0.33406 0.0
H194 H 0.19089 0.33422 0.3363 0.0
O195 O 0.13125 0.14524 0.35417 0.0
O196 O 0.11409 0.14874 0.38219 0.0
H197 H 0.1251 0.28089 0.40753 0.0
H198 H 0.15004 0.33617 0.40368 0.0
C199 C 0.15553 0.29898 0.40261 0.0
H200 H 0.18492 0.28937 0.41081 0.0
H201 H 0.08667 0.19045 0.41642 0.0
O202 O 0.19115 0.1938 0.32548 0.0
C203 C 0.10645 0.13385 0.36697 0.0
Co204 Co 0.18834 0.81548 0.65231 0.0
Co205 Co 0.18581 0.82873 0.6118 0.0
C206 C 0.13739 0.75134 0.63044 0.0
O207 O 0.15341 0.76142 0.64528 0.0
O208 O 0.1475 0.77468 0.61707 0.0
C209 C 0.20166 0.77725 0.68649 0.0
O210 O 0.19642 0.73798 0.67864 0.0
C211 C 0.2032 0.80124 0.57552 0.0
C212 C 0.19658 0.86695 0.56193 0.0
C213 C 0.20597 0.82134 0.55922 0.0
N214 N 0.19329 0.83369 0.58723 0.0
N215 N 0.18916 0.8728 0.57898 0.0
C216 C 0.20802 0.7519 0.5799 0.0
H217 H 0.18951 0.74359 0.59195 0.0
H218 H 0.24443 0.74386 0.58202 0.0
H219 H 0.19508 0.73039 0.56916 0.0
C220 C 0.28737 0.82029 0.64543 0.0
N221 N 0.24384 0.8209 0.64001 0.0
N222 N 0.243 0.82754 0.62314 0.0
C223 C 0.28603 0.83243 0.61738 0.0
C224 C 0.31544 0.82789 0.6313 0.0
C225 C 0.30167 0.81282 0.66381 0.0
H226 H 0.28538 0.83872 0.67221 0.0
H227 H 0.28982 0.77889 0.66814 0.0
H228 H 0.33913 0.81498 0.66532 0.0
O229 O 0.14736 0.86797 0.64802 0.0
O230 O 0.14997 0.88141 0.61967 0.0
H231 H 0.27807 0.868 0.59337 0.0
H232 H 0.33542 0.84855 0.59748 0.0
C233 C 0.29886 0.84006 0.59885 0.0
H234 H 0.2918 0.80879 0.59133 0.0
H235 H 0.18151 0.90358 0.58502 0.0
O236 O 0.19978 0.81364 0.67764 0.0
C237 C 0.13539 0.89088 0.63477 0.0
Co238 Co 0.81697 0.8158 0.34856 0.0
Co239 Co 0.83343 0.81663 0.38892 0.0
C240 C 0.75508 0.86644 0.37139 0.0
O241 O 0.76367 0.85077 0.35637 0.0
O242 O 0.77951 0.85573 0.38441 0.0
C243 C 0.77657 0.80545 0.31456 0.0
O244 O 0.73774 0.81035 0.32276 0.0
C245 C 0.80771 0.79763 0.42526 0.0
C246 C 0.8741 0.80317 0.43847 0.0
C247 C 0.82855 0.79385 0.4414 0.0
N248 N 0.83969 0.808 0.41341 0.0
N249 N 0.87921 0.81149 0.42143 0.0
C250 C 0.75812 0.79327 0.42118 0.0
H251 H 0.74933 0.81245 0.40933 0.0
H252 H 0.74979 0.75705 0.41882 0.0
H253 H 0.73716 0.80572 0.43216 0.0
C254 C 0.82183 0.71655 0.35478 0.0
N255 N 0.82292 0.75981 0.36045 0.0
N256 N 0.83088 0.75997 0.37723 0.0
C257 C 0.83616 0.71676 0.38269 0.0
C258 C 0.83048 0.68789 0.36865 0.0
C259 C 0.81336 0.70315 0.33636 0.0
H260 H 0.83865 0.72005 0.32787 0.0
H261 H 0.77909 0.71503 0.33241 0.0
H262 H 0.81568 0.66583 0.33454 0.0
O263 O 0.8702 0.8559 0.35255 0.0
O264 O 0.886 0.85217 0.38071 0.0
H265 H 0.87367 0.72359 0.40632 0.0
H266 H 0.85311 0.66666 0.40228 0.0
C267 C 0.84504 0.70332 0.40109 0.0
H268 H 0.81443 0.71058 0.40897 0.0
H269 H 0.90978 0.81929 0.41525 0.0
O270 O 0.81344 0.80601 0.32315 0.0
C271 C 0.89438 0.86715 0.36556 0.0
Co272 Co 0.68498 0.67567 0.64964 0.0
Co273 Co 0.68802 0.6746 0.6088 0.0
C274 C 0.63845 0.74718 0.62774 0.0
O275 O 0.64887 0.72936 0.64227 0.0
O276 O 0.65329 0.7308 0.61353 0.0
C277 C 0.6965 0.71435 0.68369 0.0
O278 O 0.69517 0.7532 0.67533 0.0
C279 C 0.70846 0.70074 0.57272 0.0
C280 C 0.71275 0.63346 0.56011 0.0
C281 C 0.71748 0.67958 0.557 0.0
N282 N 0.69907 0.6685 0.58454 0.0
N283 N 0.70115 0.62844 0.57686 0.0
C284 C 0.71263 0.75018 0.57692 0.0
H285 H 0.7201 0.75488 0.59091 0.0
H286 H 0.73976 0.76623 0.56902 0.0
H287 H 0.67992 0.76728 0.57396 0.0
C288 C 0.78475 0.67099 0.64468 0.0
N289 N 0.74204 0.67272 0.63841 0.0
N290 N 0.74351 0.67151 0.62136 0.0
C291 C 0.78731 0.6685 0.61629 0.0
C292 C 0.81469 0.66792 0.63089 0.0
C293 C 0.79666 0.67258 0.66351 0.0
H294 H 0.78779 0.70653 0.66876 0.0
H295 H 0.83343 0.66621 0.66565 0.0
H296 H 0.77648 0.64681 0.67064 0.0
O297 O 0.6474 0.62169 0.64409 0.0
O298 O 0.64663 0.62472 0.61529 0.0
H299 H 0.78706 0.63932 0.59092 0.0
H300 H 0.84044 0.66533 0.59686 0.0
C301 C 0.80292 0.66826 0.59784 0.0
H302 H 0.79201 0.70015 0.59145 0.0
H303 H 0.69585 0.59755 0.58318 0.0
O304 O 0.69299 0.67748 0.67521 0.0
C305 C 0.63346 0.60709 0.62949 0.0
Co306 Co 0.67851 0.31828 0.35169 0.0
Co307 Co 0.67565 0.31582 0.39255 0.0
C308 C 0.74868 0.36566 0.37384 0.0
O309 O 0.73169 0.35471 0.35923 0.0
O310 O 0.73159 0.35125 0.38799 0.0
C311 C 0.71796 0.30971 0.31762 0.0
O312 O 0.75671 0.31322 0.32598 0.0
C313 C 0.70156 0.29625 0.42872 0.0
C314 C 0.63422 0.29145 0.44127 0.0
C315 C 0.6804 0.28737 0.44446 0.0
N316 N 0.66928 0.30497 0.41682 0.0
N317 N 0.62916 0.30258 0.42447 0.0
C318 C 0.75109 0.29253 0.42456 0.0
H319 H 0.75593 0.28476 0.41061 0.0
H320 H 0.76742 0.26579 0.43257 0.0
H321 H 0.76783 0.32547 0.42741 0.0
C322 C 0.67459 0.21874 0.35677 0.0
N323 N 0.67571 0.26145 0.363 0.0
N324 N 0.67368 0.26016 0.38004 0.0
C325 C 0.67066 0.21643 0.38515 0.0
C326 C 0.67103 0.18888 0.37057 0.0
C327 C 0.67662 0.20692 0.33793 0.0
H328 H 0.71046 0.21649 0.33273 0.0
H329 H 0.67087 0.1701 0.33574 0.0
H330 H 0.65055 0.22668 0.33078 0.0
O331 O 0.62401 0.35524 0.35692 0.0
O332 O 0.62523 0.35632 0.38574 0.0
H333 H 0.66782 0.16362 0.40475 0.0
H334 H 0.70112 0.21294 0.41024 0.0
C335 C 0.66983 0.20114 0.40364 0.0
H336 H 0.64016 0.21645 0.41029 0.0
H337 H 0.59824 0.30738 0.4181 0.0
O338 O 0.68095 0.31047 0.32614 0.0
C339 C 0.60825 0.36903 0.37136 0.0
Co340 Co 0.31501 0.32815 0.65122 0.0
Co341 Co 0.31733 0.3179 0.61054 0.0
C342 C 0.36551 0.25201 0.63266 0.0
O343 O 0.35354 0.27423 0.64609 0.0
O344 O 0.3515 0.26325 0.61763 0.0
C345 C 0.29621 0.29358 0.68507 0.0
O346 O 0.29423 0.2547 0.67673 0.0
C347 C 0.3018 0.28722 0.57418 0.0
C348 C 0.30037 0.35361 0.56082 0.0
C349 C 0.2954 0.30739 0.55803 0.0
N350 N 0.30934 0.32027 0.58593 0.0
N351 N 0.30886 0.35973 0.57777 0.0
C352 C 0.30274 0.23751 0.5783 0.0
H353 H 0.32622 0.23066 0.58919 0.0
H354 H 0.26827 0.22624 0.58221 0.0
H355 H 0.31359 0.21749 0.56683 0.0
C356 C 0.21604 0.33193 0.64422 0.0
N357 N 0.25947 0.32785 0.63889 0.0
N358 N 0.26017 0.32282 0.62194 0.0
C359 C 0.21701 0.32293 0.61601 0.0
C360 C 0.18784 0.329 0.62991 0.0
C361 C 0.20174 0.3369 0.66272 0.0
H362 H 0.22322 0.36277 0.66921 0.0
H363 H 0.20668 0.30401 0.66947 0.0
H364 H 0.16543 0.34681 0.66376 0.0
O365 O 0.3518 0.38157 0.64488 0.0
O366 O 0.35779 0.36956 0.61651 0.0
H367 H 0.21972 0.34424 0.58956 0.0
H368 H 0.1663 0.31875 0.59571 0.0
C369 C 0.20372 0.31714 0.59744 0.0
H370 H 0.21622 0.2839 0.5927 0.0
H371 H 0.31355 0.39103 0.58387 0.0
O372 O 0.30419 0.32976 0.67659 0.0
C373 C 0.36825 0.39171 0.63012 0.0
Co374 Co 0.32192 0.68435 0.35049 0.0
Co375 Co 0.32236 0.68493 0.39131 0.0
C376 C 0.25007 0.63657 0.37197 0.0
O377 O 0.26836 0.64749 0.35758 0.0
O378 O 0.26595 0.651 0.38632 0.0
C379 C 0.28344 0.69568 0.31639 0.0
O380 O 0.24446 0.69369 0.32467 0.0
C381 C 0.29672 0.70265 0.42764 0.0
C382 C 0.3643 0.70707 0.44005 0.0
C383 C 0.31818 0.71103 0.44336 0.0
N384 N 0.3288 0.6944 0.41563 0.0
N385 N 0.36905 0.69649 0.42319 0.0
C386 C 0.2471 0.70656 0.42365 0.0
H387 H 0.24196 0.71482 0.40976 0.0
H388 H 0.23095 0.73302 0.43185 0.0
H389 H 0.23039 0.67353 0.42639 0.0
C390 C 0.32641 0.78383 0.35632 0.0
N391 N 0.32465 0.74076 0.36219 0.0
N392 N 0.32568 0.74113 0.37925 0.0
C393 C 0.3286 0.78454 0.38475 0.0
C394 C 0.32929 0.81292 0.37041 0.0
C395 C 0.32558 0.79672 0.33758 0.0
H396 H 0.29167 0.78853 0.33211 0.0
H397 H 0.33255 0.83346 0.33574 0.0
H398 H 0.35129 0.77653 0.33042 0.0
O399 O 0.37606 0.64679 0.35569 0.0
O400 O 0.37189 0.64354 0.38444 0.0
H401 H 0.32914 0.83622 0.40483 0.0
H402 H 0.29651 0.78599 0.40957 0.0
C403 C 0.32796 0.79876 0.40337 0.0
H404 H 0.35751 0.78365 0.41016 0.0
H405 H 0.39985 0.692 0.41671 0.0
O406 O 0.32025 0.69313 0.32498 0.0
C407 C 0.39002 0.6316 0.37019 0.0
Co408 Co 0.31234 0.66569 0.15186 0.0
Co409 Co 0.31192 0.67225 0.11114 0.0
C410 C 0.3613 0.74034 0.13168 0.0
O411 O 0.35029 0.71918 0.14548 0.0
O412 O 0.34632 0.72783 0.11693 0.0
C413 C 0.29948 0.70359 0.18567 0.0
O414 O 0.30054 0.74213 0.17709 0.0
C415 C 0.29426 0.70046 0.07498 0.0
C416 C 0.28903 0.6336 0.06209 0.0
C417 C 0.28546 0.67987 0.05912 0.0
N418 N 0.30235 0.66771 0.08675 0.0
N419 N 0.29976 0.62791 0.07889 0.0
C420 C 0.29111 0.7499 0.07932 0.0
H421 H 0.28378 0.75454 0.09331 0.0
H422 H 0.26429 0.76661 0.07146 0.0
H423 H 0.32413 0.7664 0.07637 0.0
C424 C 0.21278 0.66227 0.14594 0.0
N425 N 0.25589 0.665 0.14012 0.0
N426 N 0.25548 0.66865 0.12312 0.0
C427 C 0.21193 0.66897 0.11763 0.0
C428 C 0.18358 0.66468 0.13188 0.0
C429 C 0.19988 0.65987 0.16466 0.0
H430 H 0.20758 0.69293 0.17091 0.0
H431 H 0.16317 0.65235 0.16632 0.0
H432 H 0.22038 0.63332 0.17122 0.0
O433 O 0.34908 0.61176 0.14588 0.0
O434 O 0.353 0.62139 0.11735 0.0
H435 H 0.21299 0.64602 0.09135 0.0
H436 H 0.15997 0.6718 0.09774 0.0
C437 C 0.19748 0.6736 0.09913 0.0
H438 H 0.20958 0.70658 0.09397 0.0
H439 H 0.30399 0.59675 0.08514 0.0
O440 O 0.30329 0.66646 0.17737 0.0
C441 C 0.36464 0.60049 0.1311 0.0
Co442 Co 0.68205 0.6854 0.84839 0.0
Co443 Co 0.66798 0.68296 0.88893 0.0
C444 C 0.74519 0.63381 0.87055 0.0
O445 O 0.73559 0.64965 0.85563 0.0
O446 O 0.72159 0.64427 0.8838 0.0
C447 C 0.72071 0.69827 0.81414 0.0
O448 O 0.76008 0.69422 0.82203 0.0
C449 C 0.69506 0.69878 0.92541 0.0
C450 C 0.62869 0.69434 0.9387 0.0
C451 C 0.67455 0.70202 0.94163 0.0
N452 N 0.66262 0.69028 0.91352 0.0
N453 N 0.62312 0.68743 0.9216 0.0
C454 C 0.74474 0.70196 0.92131 0.0
H455 H 0.75299 0.68283 0.9094 0.0
H456 H 0.75396 0.73802 0.91908 0.0
H457 H 0.76545 0.6887 0.93222 0.0
C458 C 0.67764 0.78446 0.85535 0.0
N459 N 0.67694 0.74093 0.86073 0.0
N460 N 0.67029 0.74003 0.87759 0.0
C461 C 0.66574 0.78298 0.88343 0.0
C462 C 0.67032 0.81251 0.86953 0.0
C463 C 0.6842 0.79866 0.8369 0.0
H464 H 0.65889 0.78112 0.82861 0.0
H465 H 0.71856 0.78815 0.83253 0.0
H466 H 0.68042 0.83592 0.83527 0.0
O467 O 0.62867 0.64563 0.85249 0.0
O468 O 0.6149 0.64805 0.88082 0.0
H469 H 0.62955 0.77643 0.90735 0.0
H470 H 0.65324 0.83236 0.9038 0.0
C471 C 0.65898 0.79543 0.90205 0.0
H472 H 0.6896 0.78565 0.90952 0.0
H473 H 0.59225 0.68099 0.9154 0.0
O474 O 0.68432 0.69625 0.82299 0.0
C475 C 0.60528 0.63398 0.86565 0.0
Co476 Co 0.6877 0.32738 0.15278 0.0
Co477 Co 0.68611 0.3167 0.11208 0.0
C478 C 0.63794 0.25077 0.13419 0.0
O479 O 0.64954 0.27317 0.14762 0.0
O480 O 0.65216 0.26197 0.11919 0.0
C481 C 0.70319 0.29329 0.18699 0.0
O482 O 0.70304 0.25399 0.17892 0.0
C483 C 0.70195 0.28586 0.07572 0.0
C484 C 0.7024 0.35217 0.06229 0.0
C485 C 0.70776 0.30598 0.05953 0.0
N486 N 0.6943 0.3189 0.08746 0.0
N487 N 0.69426 0.35832 0.07926 0.0
C488 C 0.7016 0.23617 0.07987 0.0
H489 H 0.67909 0.2292 0.09104 0.0
H490 H 0.73646 0.2251 0.08336 0.0
H491 H 0.68997 0.21606 0.06854 0.0
C492 C 0.78686 0.331 0.14599 0.0
N493 N 0.74348 0.32712 0.14056 0.0
N494 N 0.74304 0.32197 0.12361 0.0
C495 C 0.78628 0.32186 0.11779 0.0
C496 C 0.81533 0.32778 0.13174 0.0
C497 C 0.8007 0.3354 0.16457 0.0
H498 H 0.79369 0.30291 0.17134 0.0
H499 H 0.8374 0.34346 0.16585 0.0
H500 H 0.78025 0.36237 0.1709 0.0
O501 O 0.65045 0.38043 0.14623 0.0
O502 O 0.64515 0.36806 0.11788 0.0
H503 H 0.78316 0.34305 0.09132 0.0
H504 H 0.83707 0.3187 0.09747 0.0
C505 C 0.7997 0.3163 0.09921 0.0
H506 H 0.78788 0.2828 0.09448 0.0
H507 H 0.68929 0.3896 0.08534 0.0
O508 O 0.69797 0.3295 0.17822 0.0
C509 C 0.63413 0.39023 0.13141 0.0
Co510 Co 0.31207 0.31838 0.84958 0.0
Co511 Co 0.32851 0.3197 0.88997 0.0
C512 C 0.24924 0.36786 0.87247 0.0
O513 O 0.25826 0.35245 0.85744 0.0
O514 O 0.27387 0.35769 0.88549 0.0
C515 C 0.27206 0.31 0.8154 0.0
O516 O 0.2334 0.31808 0.82335 0.0
C517 C 0.30354 0.30133 0.92645 0.0
C518 C 0.37023 0.30721 0.93942 0.0
C519 C 0.32474 0.29797 0.94254 0.0
N520 N 0.33525 0.31142 0.91446 0.0
N521 N 0.37495 0.31509 0.92234 0.0
C522 C 0.25384 0.29683 0.92257 0.0
H523 H 0.24467 0.3159 0.91075 0.0
H524 H 0.24556 0.26057 0.92028 0.0
H525 H 0.23313 0.30931 0.93361 0.0
C526 C 0.31877 0.21944 0.85586 0.0
N527 N 0.31901 0.26268 0.86153 0.0
N528 N 0.32675 0.26298 0.87833 0.0
C529 C 0.33259 0.21987 0.88381 0.0
C530 C 0.32763 0.19091 0.86975 0.0
C531 C 0.3111 0.20602 0.83738 0.0
H532 H 0.33655 0.2232 0.82904 0.0
H533 H 0.27689 0.21763 0.83325 0.0
H534 H 0.31387 0.16874 0.83554 0.0
O535 O 0.36472 0.3592 0.85346 0.0
O536 O 0.38048 0.35596 0.88163 0.0
H537 H 0.36998 0.22658 0.90747 0.0
H538 H 0.34851 0.1699 0.9036 0.0
C539 C 0.34106 0.20665 0.90226 0.0
H540 H 0.31053 0.21464 0.91008 0.0
H541 H 0.40537 0.32278 0.91603 0.0
O542 O 0.30855 0.30811 0.8242 0.0
C543 C 0.38874 0.37083 0.86646 0.0
C544 C 0.21219 0.16957 0.21235 0.0
C545 C 0.16843 0.17125 0.20512 0.0
C546 C 0.21846 0.16893 0.23039 0.0
C547 C 0.18008 0.16979 0.24144 0.0
C548 C 0.13587 0.17193 0.23423 0.0
C549 C 0.13059 0.17272 0.21616 0.0
C550 C 0.26613 0.16682 0.23761 0.0
C551 C 0.09409 0.17275 0.2456 0.0
C552 C 0.18963 0.1218 0.28693 0.0
C553 C 0.19203 0.1614 0.29701 0.0
C554 C 0.18649 0.12408 0.26882 0.0
C555 C 0.18592 0.167 0.26056 0.0
C556 C 0.18939 0.2071 0.2706 0.0
C557 C 0.19233 0.20384 0.28873 0.0
C558 C 0.18278 0.08054 0.25855 0.0
C559 C 0.18912 0.25346 0.26223 0.0
H560 H 0.24164 0.16858 0.20392 0.0
H561 H 0.09667 0.17407 0.2107 0.0
H562 H 0.27193 0.19561 0.24662 0.0
H563 H 0.27061 0.13506 0.24516 0.0
H564 H 0.2924 0.16792 0.22728 0.0
H565 H 0.06218 0.17548 0.23797 0.0
H566 H 0.09259 0.14131 0.25351 0.0
H567 H 0.09583 0.20185 0.25471 0.0
H568 H 0.18942 0.08886 0.29321 0.0
H569 H 0.19428 0.2346 0.29641 0.0
H570 H 0.21007 0.07898 0.24865 0.0
H571 H 0.14982 0.07965 0.25157 0.0
H572 H 0.18519 0.04988 0.26689 0.0
H573 H 0.21632 0.25564 0.2523 0.0
H574 H 0.19414 0.28122 0.2718 0.0
H575 H 0.15626 0.25901 0.2555 0.0
C576 C 0.20818 0.7397 0.71554 0.0
C577 C 0.20873 0.77942 0.70549 0.0
C578 C 0.21298 0.74163 0.73364 0.0
C579 C 0.21847 0.78428 0.74187 0.0
C580 C 0.22 0.82438 0.73176 0.0
C581 C 0.21514 0.82147 0.71371 0.0
C582 C 0.21126 0.69813 0.74399 0.0
C583 C 0.22585 0.8705 0.74005 0.0
C584 C 0.18246 0.79727 0.78884 0.0
C585 C 0.22439 0.79664 0.79752 0.0
C586 C 0.18009 0.79275 0.77077 0.0
C587 C 0.22061 0.78729 0.7611 0.0
C588 C 0.26301 0.78594 0.76977 0.0
C589 C 0.26441 0.7907 0.78789 0.0
C590 C 0.13421 0.79446 0.762 0.0
C591 C 0.30692 0.78001 0.75989 0.0
H592 H 0.20337 0.70706 0.70931 0.0
H593 H 0.21585 0.85233 0.70606 0.0
H594 H 0.24199 0.69513 0.75225 0.0
H595 H 0.18138 0.69865 0.75276 0.0
H596 H 0.20895 0.66758 0.73559 0.0
H597 H 0.22814 0.89821 0.73032 0.0
H598 H 0.19668 0.8776 0.74876 0.0
H599 H 0.25705 0.87101 0.74813 0.0
H600 H 0.15133 0.80176 0.79616 0.0
H601 H 0.29694 0.79004 0.79448 0.0
H602 H 0.12875 0.76318 0.75425 0.0
H603 H 0.13295 0.82364 0.75291 0.0
H604 H 0.10585 0.79789 0.77142 0.0
H605 H 0.30557 0.74851 0.75202 0.0
H606 H 0.33693 0.77823 0.7686 0.0
H607 H 0.31166 0.8088 0.75079 0.0
C608 C 0.73741 0.80124 0.28573 0.0
C609 C 0.77777 0.80087 0.29543 0.0
C610 C 0.73837 0.79868 0.26756 0.0
C611 C 0.78068 0.79576 0.25888 0.0
C612 C 0.82147 0.79472 0.2686 0.0
C613 C 0.81952 0.79721 0.28674 0.0
C614 C 0.69416 0.7997 0.25762 0.0
C615 C 0.86727 0.79163 0.25982 0.0
C616 C 0.78621 0.75256 0.21251 0.0
C617 C 0.79041 0.79318 0.20313 0.0
C618 C 0.78227 0.7529 0.23065 0.0
C619 C 0.78253 0.79485 0.23961 0.0
C620 C 0.78602 0.836 0.2302 0.0
C621 C 0.78991 0.83467 0.21208 0.0
C622 C 0.77855 0.70833 0.24024 0.0
C623 C 0.78639 0.88142 0.2393 0.0
H624 H 0.705 0.80395 0.29233 0.0
H625 H 0.8509 0.79681 0.29411 0.0
H626 H 0.69325 0.82999 0.24907 0.0
H627 H 0.69151 0.76933 0.24917 0.0
H628 H 0.66407 0.80068 0.26632 0.0
H629 H 0.89574 0.79015 0.26927 0.0
H630 H 0.86871 0.76095 0.25149 0.0
H631 H 0.87237 0.82154 0.25129 0.0
H632 H 0.78648 0.72035 0.20571 0.0
H633 H 0.79297 0.86624 0.20495 0.0
H634 H 0.74758 0.70813 0.24843 0.0
H635 H 0.80815 0.70415 0.249 0.0
H636 H 0.77722 0.67874 0.23131 0.0
H637 H 0.75546 0.88513 0.2474 0.0
H638 H 0.78794 0.91034 0.23007 0.0
H639 H 0.81615 0.88348 0.2481 0.0
C640 C 0.78822 0.2523 0.71573 0.0
C641 C 0.79142 0.21205 0.70607 0.0
C642 C 0.7833 0.25116 0.73382 0.0
C643 C 0.78157 0.20875 0.74245 0.0
C644 C 0.78385 0.16801 0.73275 0.0
C645 C 0.78871 0.17015 0.71468 0.0
C646 C 0.78089 0.29531 0.74375 0.0
C647 C 0.78213 0.12212 0.74148 0.0
C648 C 0.81816 0.20225 0.78954 0.0
C649 C 0.77627 0.19961 0.79818 0.0
C650 C 0.82028 0.20578 0.77144 0.0
C651 C 0.77952 0.20685 0.7617 0.0
C652 C 0.73708 0.20494 0.77034 0.0
C653 C 0.73595 0.20128 0.78849 0.0
C654 C 0.86621 0.20768 0.76271 0.0
C655 C 0.69292 0.20616 0.76038 0.0
H656 H 0.79014 0.28483 0.70918 0.0
H657 H 0.79094 0.13885 0.70733 0.0
H658 H 0.74992 0.29604 0.75194 0.0
H659 H 0.81059 0.29813 0.75254 0.0
H660 H 0.7805 0.32538 0.73504 0.0
H661 H 0.78248 0.09368 0.73202 0.0
H662 H 0.81172 0.11829 0.75028 0.0
H663 H 0.75102 0.11932 0.74954 0.0
H664 H 0.84951 0.2011 0.79691 0.0
H665 H 0.70344 0.19938 0.79505 0.0
H666 H 0.86885 0.23879 0.75465 0.0
H667 H 0.87023 0.17813 0.75392 0.0
H668 H 0.89467 0.20752 0.77217 0.0
H669 H 0.69148 0.23707 0.75217 0.0
H670 H 0.66278 0.20584 0.76905 0.0
H671 H 0.69089 0.17641 0.75158 0.0
C672 C 0.70471 0.75393 0.7123 0.0
C673 C 0.70208 0.71336 0.70279 0.0
C674 C 0.70906 0.75338 0.73043 0.0
C675 C 0.71081 0.71127 0.73927 0.0
C676 C 0.70871 0.67022 0.72974 0.0
C677 C 0.70439 0.67176 0.71163 0.0
C678 C 0.71125 0.79786 0.74014 0.0
C679 C 0.71047 0.62462 0.73869 0.0
C680 C 0.75829 0.70525 0.78507 0.0
C681 C 0.71842 0.7036 0.79504 0.0
C682 C 0.75637 0.70848 0.76692 0.0
C683 C 0.71357 0.70999 0.75853 0.0
C684 C 0.67325 0.70905 0.76853 0.0
C685 C 0.67615 0.70594 0.78665 0.0
C686 C 0.80011 0.70959 0.75669 0.0
C687 C 0.62696 0.71056 0.76008 0.0
H688 H 0.70304 0.78623 0.70559 0.0
H689 H 0.70255 0.64022 0.70441 0.0
H690 H 0.68198 0.8005 0.74915 0.0
H691 H 0.74263 0.79926 0.7481 0.0
H692 H 0.71077 0.82767 0.73132 0.0
H693 H 0.7095 0.59585 0.72938 0.0
H694 H 0.74196 0.62189 0.74654 0.0
H695 H 0.6813 0.62129 0.74771 0.0
H696 H 0.79109 0.70357 0.79144 0.0
H697 H 0.64514 0.70479 0.79422 0.0
H698 H 0.80106 0.74023 0.74833 0.0
H699 H 0.80193 0.67955 0.74804 0.0
H700 H 0.83061 0.70971 0.76519 0.0
H701 H 0.62394 0.74133 0.75186 0.0
H702 H 0.59891 0.71075 0.76972 0.0
H703 H 0.62261 0.68065 0.75149 0.0
C704 C 0.75782 0.30643 0.28894 0.0
C705 C 0.7172 0.30578 0.29847 0.0
C706 C 0.75742 0.30389 0.27076 0.0
C707 C 0.71539 0.30062 0.2619 0.0
C708 C 0.67431 0.29953 0.27145 0.0
C709 C 0.67571 0.30209 0.2896 0.0
C710 C 0.80193 0.30505 0.26102 0.0
C711 C 0.62881 0.29602 0.26247 0.0
C712 C 0.70794 0.33721 0.21475 0.0
C713 C 0.70819 0.29528 0.20609 0.0
C714 C 0.7109 0.33946 0.23289 0.0
C715 C 0.71422 0.29881 0.24262 0.0
C716 C 0.71522 0.25643 0.23396 0.0
C717 C 0.7122 0.25517 0.21581 0.0
C718 C 0.70978 0.38531 0.24166 0.0
C719 C 0.7188 0.21236 0.24389 0.0
H720 H 0.79004 0.30924 0.29566 0.0
H721 H 0.64414 0.30147 0.29684 0.0
H722 H 0.8053 0.27423 0.25284 0.0
H723 H 0.80266 0.33484 0.25221 0.0
H724 H 0.83171 0.30699 0.26984 0.0
H725 H 0.60003 0.29503 0.27179 0.0
H726 H 0.62401 0.32546 0.25368 0.0
H727 H 0.62765 0.2649 0.25438 0.0
H728 H 0.70497 0.36839 0.20736 0.0
H729 H 0.7125 0.22262 0.20924 0.0
H730 H 0.74035 0.38967 0.24992 0.0
H731 H 0.67966 0.38754 0.25027 0.0
H732 H 0.70838 0.41375 0.23221 0.0
H733 H 0.74953 0.21271 0.25223 0.0
H734 H 0.72055 0.18233 0.2352 0.0
H735 H 0.68895 0.20849 0.25255 0.0
C736 C 0.31514 0.2965 0.78792 0.0
C737 C 0.27364 0.30491 0.7963 0.0
C738 C 0.31767 0.29356 0.7698 0.0
C739 C 0.27774 0.29909 0.75978 0.0
C740 C 0.2356 0.30679 0.76815 0.0
C741 C 0.23405 0.30962 0.78631 0.0
C742 C 0.36325 0.28525 0.76136 0.0
C743 C 0.19229 0.31272 0.7579 0.0
C744 C 0.29342 0.33652 0.71306 0.0
C745 C 0.28976 0.29519 0.70411 0.0
C746 C 0.28892 0.33834 0.73115 0.0
C747 C 0.28043 0.29788 0.74053 0.0
C748 C 0.27592 0.25618 0.73156 0.0
C749 C 0.28069 0.25532 0.71346 0.0
C750 C 0.29398 0.38347 0.74026 0.0
C751 C 0.26673 0.21236 0.74111 0.0
H752 H 0.34591 0.29266 0.79551 0.0
H753 H 0.20183 0.31606 0.79267 0.0
H754 H 0.36161 0.25457 0.75303 0.0
H755 H 0.37215 0.31435 0.75287 0.0
H756 H 0.39089 0.28058 0.771 0.0
H757 H 0.16207 0.31703 0.76637 0.0
H758 H 0.19518 0.34294 0.74937 0.0
H759 H 0.18671 0.28285 0.74939 0.0
H760 H 0.30033 0.36752 0.70595 0.0
H761 H 0.27766 0.22325 0.70665 0.0
H762 H 0.32334 0.38218 0.74928 0.0
H763 H 0.26327 0.3907 0.74814 0.0
H764 H 0.29926 0.41199 0.73105 0.0
H765 H 0.2952 0.20493 0.75011 0.0
H766 H 0.26255 0.18305 0.73218 0.0
H767 H 0.2355 0.21568 0.74907 0.0
C768 C 0.24419 0.70061 0.28762 0.0
C769 C 0.28466 0.69939 0.29723 0.0
C770 C 0.24496 0.7024 0.26943 0.0
C771 C 0.28721 0.70296 0.26064 0.0
C772 C 0.32817 0.70239 0.27028 0.0
C773 C 0.3264 0.70065 0.28844 0.0
C774 C 0.20058 0.70312 0.2596 0.0
C775 C 0.37391 0.70301 0.26138 0.0
C776 C 0.29293 0.66229 0.21395 0.0
C777 C 0.29479 0.70345 0.20481 0.0
C778 C 0.2899 0.66168 0.23211 0.0
C779 C 0.28871 0.7032 0.24136 0.0
C780 C 0.28998 0.74486 0.2322 0.0
C781 C 0.29298 0.74449 0.21404 0.0
C782 C 0.28855 0.61655 0.24141 0.0
C783 C 0.28876 0.78983 0.24161 0.0
H784 H 0.21178 0.69973 0.29429 0.0
H785 H 0.35787 0.69983 0.29574 0.0
H786 H 0.19917 0.73336 0.25103 0.0
H787 H 0.19815 0.67268 0.25117 0.0
H788 H 0.17063 0.70373 0.26836 0.0
H789 H 0.40258 0.70344 0.27075 0.0
H790 H 0.37743 0.67263 0.25298 0.0
H791 H 0.37666 0.73332 0.2529 0.0
H792 H 0.29417 0.63042 0.20694 0.0
H793 H 0.29435 0.77646 0.2071 0.0
H794 H 0.25765 0.61441 0.24961 0.0
H795 H 0.31837 0.6135 0.25014 0.0
H796 H 0.28868 0.58732 0.2323 0.0
H797 H 0.25796 0.79186 0.24987 0.0
H798 H 0.28882 0.8192 0.23257 0.0
H799 H 0.31867 0.79272 0.2503 0.0
C800 C 0.09358 0.03347 0.14021 0.0
C801 C 0.09661 0.06976 0.12854 0.0
C802 C 0.05584 0.00424 0.14 0.0
C803 C 0.01972 0.01271 0.12828 0.0
C804 C 0.02264 0.04946 0.11653 0.0
C805 C 0.06141 0.07708 0.11661 0.0
C806 C 0.0545 0.96448 0.15235 0.0
C807 C 0.98429 0.06037 0.10418 0.0
C808 C 0.93797 0.91799 0.1167 0.0
C809 C 0.90211 0.92585 0.12829 0.0
C810 C 0.97669 0.94568 0.11672 0.0
C811 C 0.9789 0.98303 0.12822 0.0
C812 C 0.94213 0.99204 0.13958 0.0
C813 C 0.90442 0.96275 0.1397 0.0
C814 C 0.01573 0.9342 0.10477 0.0
C815 C 0.94272 0.03243 0.15163 0.0
H816 H 0.12077 0.02792 0.14946 0.0
H817 H 0.0633 0.1057 0.10779 0.0
H818 H 0.02558 0.96833 0.16145 0.0
H819 H 0.04902 0.93246 0.14505 0.0
H820 H 0.08633 0.9613 0.16001 0.0
H821 H 0.99155 0.09081 0.09613 0.0
H822 H 0.97795 0.03114 0.09545 0.0
H823 H 0.95252 0.06647 0.11158 0.0
H824 H 0.93661 0.88893 0.10807 0.0
H825 H 0.87672 0.96872 0.14868 0.0
H826 H 0.04708 0.92849 0.11247 0.0
H827 H 0.02256 0.96301 0.09589 0.0
H828 H 0.00895 0.90337 0.09688 0.0
H829 H 0.9711 0.02907 0.16101 0.0
H830 H 0.91045 0.03599 0.15898 0.0
H831 H 0.94863 0.06407 0.14414 0.0
C832 C 0.9649 0.09385 0.87726 0.0
C833 C 0.92741 0.09588 0.86612 0.0
C834 C 0.99521 0.05708 0.87658 0.0
C835 C 0.98676 0.02094 0.86489 0.0
C836 C 0.94916 0.0231 0.8535 0.0
C837 C 0.9203 0.06093 0.85407 0.0
C838 C 0.03579 0.05653 0.88857 0.0
C839 C 0.93837 0.98467 0.84119 0.0
C840 C 0.08303 0.9404 0.8539 0.0
C841 C 0.07611 0.90546 0.86596 0.0
C842 C 0.05416 0.97823 0.85339 0.0
C843 C 0.01672 0.98039 0.86486 0.0
C844 C 0.00846 0.94425 0.87657 0.0
C845 C 0.03879 0.9075 0.87719 0.0
C846 C 0.06476 0.01666 0.84106 0.0
C847 C 0.96806 0.94479 0.88864 0.0
H848 H 0.97034 0.12089 0.88658 0.0
H849 H 0.89084 0.0621 0.84563 0.0
H850 H 0.03257 0.02809 0.89792 0.0
H851 H 0.06742 0.05081 0.88104 0.0
H852 H 0.03928 0.08873 0.89597 0.0
H853 H 0.90814 0.99195 0.83302 0.0
H854 H 0.9678 0.97795 0.83258 0.0
H855 H 0.93189 0.95311 0.84866 0.0
H856 H 0.11236 0.93924 0.8454 0.0
H857 H 0.0335 0.88046 0.88652 0.0
H858 H 0.0714 0.04821 0.84852 0.0
H859 H 0.0352 0.02341 0.83252 0.0
H860 H 0.09485 0.00936 0.83282 0.0
H861 H 0.97142 0.97323 0.89799 0.0
H862 H 0.96467 0.91259 0.89604 0.0
H863 H 0.93631 0.95053 0.88118 0.0
C864 C 0.939 0.07556 0.6488 0.0
C865 C 0.90479 0.06934 0.63636 0.0
C866 C 0.97742 0.04746 0.64914 0.0
C867 C 0.98095 0.01134 0.63713 0.0
C868 C 0.94565 0.0038 0.62496 0.0
C869 C 0.9083 0.03351 0.62451 0.0
C870 C 0.01495 0.05743 0.66196 0.0
C871 C 0.94759 0.9647 0.61232 0.0
C872 C 0.09658 0.96245 0.62564 0.0
C873 C 0.09856 0.92448 0.63654 0.0
C874 C 0.059 0.99183 0.62606 0.0
C875 C 0.02194 0.98187 0.63716 0.0
C876 C 0.02392 0.94359 0.64823 0.0
C877 C 0.06259 0.91578 0.64799 0.0
C878 C 0.05871 0.0332 0.61449 0.0
C879 C 0.98457 0.93109 0.65986 0.0
H880 H 0.93674 0.1038 0.65778 0.0
H881 H 0.88187 0.0288 0.61488 0.0
H882 H 0.02118 0.02739 0.67029 0.0
H883 H 0.04703 0.06462 0.6549 0.0
H884 H 0.00694 0.08695 0.6704 0.0
H885 H 0.91598 0.96172 0.60453 0.0
H886 H 0.97669 0.96929 0.60336 0.0
H887 H 0.95313 0.93232 0.61938 0.0
H888 H 0.12436 0.96903 0.61675 0.0
H889 H 0.06371 0.88588 0.65618 0.0
H890 H 0.05199 0.06417 0.62228 0.0
H891 H 0.03097 0.03028 0.60482 0.0
H892 H 0.09138 0.03767 0.60747 0.0
H893 H 0.97688 0.95943 0.66886 0.0
H894 H 0.99146 0.90004 0.66761 0.0
H895 H 0.95366 0.92522 0.65191 0.0
C896 C 0.035 0.09402 0.37568 0.0
C897 C 0.07248 0.09755 0.36458 0.0
C898 C 0.00557 0.05658 0.3747 0.0
C899 C 0.01485 0.02128 0.36273 0.0
C900 C 0.05228 0.02505 0.35132 0.0
C901 C 0.08027 0.0635 0.35221 0.0
C902 C 0.96513 0.05433 0.38672 0.0
C903 C 0.06393 0.98761 0.33868 0.0
C904 C 0.96607 0.90603 0.37456 0.0
C905 C 0.92842 0.9035 0.3635 0.0
C906 C 0.99554 0.94349 0.37398 0.0
C907 C 0.98609 0.97983 0.36249 0.0
C908 C 0.94845 0.9771 0.35113 0.0
C909 C 0.92045 0.93861 0.3516 0.0
C910 C 0.0362 0.94463 0.38592 0.0
C911 C 0.93659 0.01567 0.33904 0.0
H912 H 0.02896 0.12034 0.38524 0.0
H913 H 0.10967 0.06578 0.34378 0.0
H914 H 0.93361 0.04794 0.3792 0.0
H915 H 0.96932 0.02565 0.39591 0.0
H916 H 0.96073 0.08611 0.39431 0.0
H917 H 0.09355 0.99637 0.3304 0.0
H918 H 0.07188 0.95599 0.34591 0.0
H919 H 0.03443 0.98018 0.3302 0.0
H920 H 0.97219 0.87889 0.38378 0.0
H921 H 0.89087 0.93708 0.34323 0.0
H922 H 0.03218 0.97245 0.39549 0.0
H923 H 0.06758 0.95173 0.37841 0.0
H924 H 0.04074 0.91217 0.39306 0.0
H925 H 0.92879 0.04662 0.3467 0.0
H926 H 0.9068 0.00769 0.33072 0.0
H927 H 0.96593 0.02386 0.33057 0.0
C928 C 0.40582 0.46326 0.6401 0.0
C929 C 0.40519 0.42538 0.62914 0.0
C930 C 0.44287 0.49335 0.64003 0.0
C931 C 0.48072 0.48415 0.62922 0.0
C932 C 0.48028 0.4457 0.61822 0.0
C933 C 0.44215 0.41722 0.6181 0.0
C934 C 0.44156 0.53488 0.6515 0.0
C935 C 0.5205 0.43404 0.60689 0.0
C936 C 0.56154 0.57878 0.61671 0.0
C937 C 0.5963 0.5736 0.62898 0.0
C938 C 0.52335 0.55039 0.61686 0.0
C939 C 0.52065 0.51499 0.62921 0.0
C940 C 0.55625 0.50883 0.64136 0.0
C941 C 0.59336 0.53888 0.64132 0.0
C942 C 0.48547 0.55892 0.60404 0.0
C943 C 0.55517 0.47051 0.65436 0.0
H944 H 0.37724 0.46943 0.64866 0.0
H945 H 0.44205 0.38739 0.60985 0.0
H946 H 0.46946 0.53332 0.66115 0.0
H947 H 0.44699 0.56593 0.6436 0.0
H948 H 0.40876 0.53819 0.65852 0.0
H949 H 0.51528 0.40201 0.59953 0.0
H950 H 0.52695 0.46189 0.59753 0.0
H951 H 0.55149 0.43042 0.61497 0.0
H952 H 0.56339 0.60623 0.60737 0.0
H953 H 0.62024 0.53503 0.65083 0.0
H954 H 0.45301 0.56451 0.61106 0.0
H955 H 0.48073 0.52876 0.59562 0.0
H956 H 0.49221 0.5889 0.59568 0.0
H957 H 0.5254 0.47441 0.66305 0.0
H958 H 0.58644 0.46925 0.66241 0.0
H959 H 0.55131 0.43753 0.64754 0.0
C960 C 0.41432 0.55631 0.38094 0.0
C961 C 0.42299 0.59409 0.37041 0.0
C962 C 0.44295 0.51835 0.38063 0.0
C963 C 0.48211 0.51899 0.37 0.0
C964 C 0.49145 0.55745 0.35952 0.0
C965 C 0.46111 0.59431 0.35958 0.0
C966 C 0.43101 0.47742 0.39154 0.0
C967 C 0.53372 0.55986 0.34847 0.0
C968 C 0.57718 0.4402 0.3838 0.0
C969 C 0.57393 0.40543 0.37145 0.0
C970 C 0.5481 0.47781 0.38322 0.0
C971 C 0.51395 0.4799 0.37034 0.0
C972 C 0.50972 0.44427 0.35809 0.0
C973 C 0.54043 0.40776 0.35859 0.0
C974 C 0.55449 0.51571 0.3962 0.0
C975 C 0.47268 0.44465 0.34455 0.0
H976 H 0.3842 0.55588 0.38906 0.0
H977 H 0.46753 0.62357 0.35141 0.0
H978 H 0.42961 0.44656 0.38329 0.0
H979 H 0.45768 0.4717 0.40145 0.0
H980 H 0.3978 0.48137 0.39823 0.0
H981 H 0.53646 0.59258 0.34137 0.0
H982 H 0.56434 0.55567 0.35672 0.0
H983 H 0.53383 0.53172 0.33892 0.0
H984 H 0.60367 0.43882 0.39355 0.0
H985 H 0.53808 0.38088 0.34903 0.0
H986 H 0.52354 0.51936 0.40429 0.0
H987 H 0.55963 0.54843 0.38932 0.0
H988 H 0.58401 0.50974 0.40489 0.0
H989 H 0.43894 0.44746 0.3509 0.0
H990 H 0.47307 0.41357 0.33638 0.0
H991 H 0.47662 0.4747 0.33601 0.0
C992 C 0.59425 0.46044 0.14156 0.0
C993 C 0.59659 0.42329 0.13026 0.0
C994 C 0.55647 0.48963 0.14137 0.0
C995 C 0.51965 0.4803 0.13007 0.0
C996 C 0.52188 0.44268 0.1187 0.0
C997 C 0.56067 0.41508 0.11873 0.0
C998 C 0.55587 0.53029 0.1533 0.0
C999 C 0.4828 0.43087 0.10682 0.0
C1000 C 0.40502 0.53121 0.14191 0.0
C1001 C 0.40205 0.56724 0.13011 0.0
C1002 C 0.44271 0.5019 0.14179 0.0
C1003 C 0.47883 0.51001 0.13003 0.0
C1004 C 0.47596 0.54648 0.11815 0.0
C1005 C 0.43725 0.57419 0.11815 0.0
C1006 C 0.444 0.46244 0.15428 0.0
C1007 C 0.5143 0.55702 0.10576 0.0
H1008 H 0.62199 0.46667 0.1505 0.0
H1009 H 0.56204 0.38582 0.11021 0.0
H1010 H 0.54997 0.56176 0.1457 0.0
H1011 H 0.52748 0.52714 0.16268 0.0
H1012 H 0.58813 0.53401 0.16064 0.0
H1013 H 0.48954 0.39978 0.09907 0.0
H1014 H 0.45146 0.42543 0.11455 0.0
H1015 H 0.47599 0.4594 0.0978 0.0
H1016 H 0.37784 0.52594 0.15118 0.0
H1017 H 0.43541 0.60259 0.10922 0.0
H1018 H 0.47292 0.46649 0.16337 0.0
H1019 H 0.44947 0.43024 0.14709 0.0
H1020 H 0.41216 0.45947 0.16194 0.0
H1021 H 0.5461 0.56325 0.11313 0.0
H1022 H 0.50709 0.58727 0.0976 0.0
H1023 H 0.52058 0.52756 0.09713 0.0
C1024 C 0.46092 0.40928 0.8751 0.0
C1025 C 0.42276 0.40712 0.8643 0.0
C1026 C 0.49087 0.44632 0.87425 0.0
C1027 C 0.48138 0.48263 0.86275 0.0
C1028 C 0.44306 0.48038 0.85171 0.0
C1029 C 0.41458 0.44227 0.85243 0.0
C1030 C 0.53221 0.44696 0.88585 0.0
C1031 C 0.43114 0.51898 0.83964 0.0
C1032 C 0.53358 0.59595 0.87512 0.0
C1033 C 0.5704 0.59842 0.86366 0.0
C1034 C 0.50326 0.55918 0.87453 0.0
C1035 C 0.51099 0.52346 0.86258 0.0
C1036 C 0.54777 0.52616 0.85081 0.0
C1037 C 0.57665 0.56399 0.85133 0.0
C1038 C 0.46354 0.55809 0.88691 0.0
C1039 C 0.55779 0.4882 0.8382 0.0
H1040 H 0.46718 0.38209 0.88428 0.0
H1041 H 0.3846 0.44101 0.84427 0.0
H1042 H 0.5633 0.4531 0.87805 0.0
H1043 H 0.52935 0.47518 0.89531 0.0
H1044 H 0.53645 0.41465 0.89311 0.0
H1045 H 0.40052 0.51154 0.8317 0.0
H1046 H 0.42472 0.55027 0.84728 0.0
H1047 H 0.45998 0.52625 0.83081 0.0
H1048 H 0.52877 0.62258 0.88466 0.0
H1049 H 0.60556 0.56547 0.84263 0.0
H1050 H 0.46771 0.52957 0.89617 0.0
H1051 H 0.43143 0.55216 0.87971 0.0
H1052 H 0.46027 0.59016 0.89441 0.0
H1053 H 0.5654 0.45654 0.84546 0.0
H1054 H 0.58711 0.49608 0.82964 0.0
H1055 H 0.52763 0.48132 0.82999 0.0
C1056 C 0.26949 0.2546 0.96111 0.0
C1057 C 0.30521 0.28593 0.95967 0.0
C1058 C 0.25275 0.24138 0.97738 0.0
C1059 C 0.27308 0.25888 0.9926 0.0
C1060 C 0.309 0.29067 0.99127 0.0
C1061 C 0.32457 0.30385 0.97482 0.0
C1062 C 0.21432 0.20743 0.97825 0.0
C1063 C 0.332 0.30961 0.0072 0.0
C1064 C 0.21079 0.24442 0.03549 0.0
C1065 C 0.2309 0.20467 0.04189 0.0
C1066 C 0.22438 0.26282 0.0195 0.0
C1067 C 0.25915 0.24112 0.00986 0.0
C1068 C 0.28004 0.20141 0.01647 0.0
C1069 C 0.26532 0.18345 0.03232 0.0
C1070 C 0.20083 0.30476 0.01271 0.0
C1071 C 0.31768 0.1776 0.00672 0.0
H1072 H 0.25558 0.23892 0.94961 0.0
H1073 H 0.35239 0.32786 0.97381 0.0
H1074 H 0.22697 0.17492 0.98369 0.0
H1075 H 0.18712 0.21996 0.987 0.0
H1076 H 0.19928 0.20056 0.96531 0.0
H1077 H 0.35771 0.33592 0.00397 0.0
H1078 H 0.30644 0.3247 0.01606 0.0
H1079 H 0.34911 0.28174 0.01436 0.0
H1080 H 0.18353 0.26034 0.04272 0.0
H1081 H 0.28099 0.15277 0.0373 0.0
H1082 H 0.18325 0.29668 1.00037 0.0
H1083 H 0.22615 0.33168 0.00987 0.0
H1084 H 0.17548 0.3184 0.02203 0.0
H1085 H 0.30478 0.16522 0.99407 0.0
H1086 H 0.33167 0.14823 0.01402 0.0
H1087 H 0.34575 0.20174 0.00399 0.0
C1088 C 0.29147 0.74031 0.0363 0.0
C1089 C 0.27075 0.7008 0.04263 0.0
C1090 C 0.27845 0.75892 0.02027 0.0
C1091 C 0.24368 0.73763 0.0105 0.0
C1092 C 0.22238 0.69798 0.01698 0.0
C1093 C 0.23649 0.67984 0.03288 0.0
C1094 C 0.30242 0.80078 0.01364 0.0
C1095 C 0.18477 0.67457 0.00708 0.0
C1096 C 0.17846 0.80195 0.97584 0.0
C1097 C 0.19762 0.78449 0.96058 0.0
C1098 C 0.19406 0.7881 0.9922 0.0
C1099 C 0.22981 0.75607 0.99334 0.0
C1100 C 0.25 0.73906 0.978 0.0
C1101 C 0.23325 0.753 0.96182 0.0
C1102 C 0.17125 0.80658 0.00825 0.0
C1103 C 0.28823 0.70486 0.97867 0.0
H1104 H 0.31866 0.75599 0.04364 0.0
H1105 H 0.22037 0.64932 0.03779 0.0
H1106 H 0.31966 0.79294 0.0012 0.0
H1107 H 0.27738 0.8281 0.011 0.0
H1108 H 0.32812 0.81377 0.02295 0.0
H1109 H 0.17078 0.64487 0.01419 0.0
H1110 H 0.15669 0.69883 0.0045 0.0
H1111 H 0.19766 0.66276 0.99434 0.0
H1112 H 0.15072 0.8261 0.97499 0.0
H1113 H 0.24705 0.73772 0.95022 0.0
H1114 H 0.19694 0.82122 0.01717 0.0
H1115 H 0.15403 0.77855 0.01528 0.0
H1116 H 0.14566 0.83314 0.00518 0.0
H1117 H 0.31551 0.71686 0.98749 0.0
H1118 H 0.30321 0.69843 0.96568 0.0
H1119 H 0.27539 0.6722 0.98392 0.0
C1120 C 0.67569 0.69484 0.97386 0.0
C1121 C 0.69499 0.71286 0.95872 0.0
C1122 C 0.69189 0.70725 0.99031 0.0
C1123 C 0.72838 0.73839 0.99165 0.0
C1124 C 0.74876 0.75584 0.97642 0.0
C1125 C 0.73142 0.74336 0.96016 0.0
C1126 C 0.66886 0.68836 0.00624 0.0
C1127 C 0.78778 0.7891 0.9773 0.0
C1128 C 0.73688 0.81327 0.03149 0.0
C1129 C 0.77097 0.79153 0.04108 0.0
C1130 C 0.72212 0.79572 0.01558 0.0
C1131 C 0.74259 0.75586 0.00891 0.0
C1132 C 0.77706 0.73365 0.01855 0.0
C1133 C 0.79073 0.75168 0.0346 0.0
C1134 C 0.68483 0.8201 0.00584 0.0
C1135 C 0.80015 0.69152 0.01171 0.0
H1136 H 0.64735 0.67144 0.97285 0.0
H1137 H 0.74537 0.75907 0.94867 0.0
H1138 H 0.69434 0.67302 0.01507 0.0
H1139 H 0.65197 0.7163 0.01343 0.0
H1140 H 0.64293 0.66226 0.00299 0.0
H1141 H 0.80292 0.79572 0.96436 0.0
H1142 H 0.77567 0.82183 0.98274 0.0
H1143 H 0.81476 0.77612 0.98605 0.0
H1144 H 0.72145 0.84402 0.03652 0.0
H1145 H 0.81774 0.73535 0.04183 0.0
H1146 H 0.6564 0.79638 0.00311 0.0
H1147 H 0.69789 0.83229 0.99319 0.0
H1148 H 0.67128 0.84968 0.01314 0.0
H1149 H 0.77453 0.6649 0.00885 0.0
H1150 H 0.82538 0.67755 0.02101 0.0
H1151 H 0.81778 0.69949 0.99937 0.0
C1152 C 0.76883 0.19657 0.96641 0.0
C1153 C 0.80892 0.21756 0.96071 0.0
C1154 C 0.74975 0.20752 0.98257 0.0
C1155 C 0.77124 0.24032 0.99321 0.0
C1156 C 0.81193 0.2613 0.98755 0.0
C1157 C 0.83045 0.24937 0.97143 0.0
C1158 C 0.70673 0.18393 0.9883 0.0
C1159 C 0.83569 0.29676 0.99842 0.0
C1160 C 0.70508 0.30571 0.02725 0.0
C1161 C 0.7201 0.28529 0.04264 0.0
C1162 C 0.72016 0.29033 0.01103 0.0
C1163 C 0.75104 0.25354 0.01016 0.0
C1164 C 0.76522 0.23178 0.02561 0.0
C1165 C 0.74996 0.24822 0.04168 0.0
C1166 C 0.70447 0.31467 0.99487 0.0
C1167 C 0.79805 0.19236 0.02522 0.0
H1168 H 0.75279 0.17102 0.95837 0.0
H1169 H 0.8615 0.26558 0.96706 0.0
H1170 H 0.71263 0.16616 0.00078 0.0
H1171 H 0.6795 0.20933 0.99054 0.0
H1172 H 0.69453 0.15882 0.97862 0.0
H1173 H 0.86709 0.30978 0.99214 0.0
H1174 H 0.81247 0.3258 0.00081 0.0
H1175 H 0.84487 0.28231 0.01123 0.0
H1176 H 0.68214 0.3345 0.0279 0.0
H1177 H 0.76316 0.23324 0.05345 0.0
H1178 H 0.69031 0.29003 0.98543 0.0
H1179 H 0.73389 0.33153 0.98858 0.0
H1180 H 0.67823 0.34081 0.99769 0.0
H1181 H 0.78652 0.16633 0.01579 0.0
H1182 H 0.80185 0.17611 0.03813 0.0
H1183 H 0.83194 0.20441 0.02089 0.0
C1184 C 0.75362 0.23344 0.54184 0.0
C1185 C 0.7846 0.19732 0.54286 0.0
C1186 C 0.7395 0.25068 0.52575 0.0
C1187 C 0.75581 0.23054 0.51029 0.0
C1188 C 0.78739 0.19435 0.51122 0.0
C1189 C 0.80142 0.17824 0.52749 0.0
C1190 C 0.70583 0.2894 0.52531 0.0
C1191 C 0.80517 0.1716 0.49504 0.0
C1192 C 0.67929 0.23874 0.47082 0.0
C1193 C 0.70081 0.2726 0.46105 0.0
C1194 C 0.69721 0.22439 0.48674 0.0
C1195 C 0.73723 0.24503 0.49322 0.0
C1196 C 0.75898 0.27954 0.48346 0.0
C1197 C 0.74056 0.29282 0.46743 0.0
C1198 C 0.67328 0.18709 0.49662 0.0
C1199 C 0.80125 0.30284 0.49009 0.0
H1200 H 0.73884 0.24723 0.55353 0.0
H1201 H 0.82517 0.15013 0.52817 0.0
H1202 H 0.71802 0.31664 0.51652 0.0
H1203 H 0.67284 0.27714 0.52014 0.0
H1204 H 0.69995 0.30422 0.53836 0.0
H1205 H 0.83141 0.14554 0.49795 0.0
H1206 H 0.7767 0.15498 0.48805 0.0
H1207 H 0.82003 0.19722 0.48616 0.0
H1208 H 0.64856 0.22303 0.46589 0.0
H1209 H 0.75666 0.31977 0.4601 0.0
H1210 H 0.66205 0.19994 0.50943 0.0
H1211 H 0.69706 0.15852 0.49902 0.0
H1212 H 0.64312 0.17384 0.48958 0.0
H1213 H 0.79386 0.31975 0.50263 0.0
H1214 H 0.81437 0.32865 0.48086 0.0
H1215 H 0.82835 0.27741 0.49253 0.0
C1216 C 0.23037 0.19816 0.46532 0.0
C1217 C 0.18997 0.21903 0.45988 0.0
C1218 C 0.2501 0.20911 0.48137 0.0
C1219 C 0.22894 0.2418 0.49215 0.0
C1220 C 0.18788 0.26259 0.48676 0.0
C1221 C 0.16873 0.25065 0.47076 0.0
C1222 C 0.29346 0.1857 0.48681 0.0
C1223 C 0.16446 0.29792 0.4978 0.0
C1224 C 0.25256 0.24958 0.54046 0.0
C1225 C 0.28237 0.28671 0.54122 0.0
C1226 C 0.23654 0.23318 0.52449 0.0
C1227 C 0.24986 0.25507 0.50896 0.0
C1228 C 0.28068 0.29194 0.50963 0.0
C1229 C 0.29654 0.30727 0.52575 0.0
C1230 C 0.20383 0.19365 0.52431 0.0
C1231 C 0.29547 0.31641 0.49338 0.0
H1232 H 0.24619 0.17273 0.45716 0.0
H1233 H 0.13743 0.26674 0.46658 0.0
H1234 H 0.32071 0.21121 0.48884 0.0
H1235 H 0.28824 0.16795 0.49934 0.0
H1236 H 0.30529 0.16059 0.47705 0.0
H1237 H 0.1327 0.31077 0.49175 0.0
H1238 H 0.15598 0.28341 0.51067 0.0
H1239 H 0.18764 0.32708 0.50003 0.0
H1240 H 0.23997 0.23451 0.55231 0.0
H1241 H 0.31942 0.33613 0.52626 0.0
H1242 H 0.21499 0.16769 0.51479 0.0
H1243 H 0.16969 0.20559 0.52023 0.0
H1244 H 0.20071 0.17733 0.53724 0.0
H1245 H 0.3093 0.29187 0.48383 0.0
H1246 H 0.32171 0.34266 0.49602 0.0
H1247 H 0.26567 0.33314 0.48729 0.0
C1248 C 0.24897 0.76508 0.54094 0.0
C1249 C 0.21764 0.80085 0.54221 0.0
C1250 C 0.26213 0.74776 0.52476 0.0
C1251 C 0.24456 0.76755 0.50944 0.0
C1252 C 0.21263 0.80337 0.51061 0.0
C1253 C 0.19951 0.8195 0.52698 0.0
C1254 C 0.29617 0.70939 0.52405 0.0
C1255 C 0.19356 0.82576 0.49457 0.0
C1256 C 0.31951 0.76005 0.46957 0.0
C1257 C 0.29809 0.72577 0.45999 0.0
C1258 C 0.30195 0.7744 0.48553 0.0
C1259 C 0.26245 0.7533 0.49225 0.0
C1260 C 0.24074 0.71845 0.48266 0.0
C1261 C 0.25875 0.70521 0.46656 0.0
C1262 C 0.32575 0.81213 0.49522 0.0
C1263 C 0.19904 0.69466 0.48956 0.0
H1264 H 0.26477 0.75165 0.5525 0.0
H1265 H 0.17545 0.84731 0.52784 0.0
H1266 H 0.28382 0.68203 0.51535 0.0
H1267 H 0.32876 0.72201 0.51865 0.0
H1268 H 0.30288 0.69462 0.53705 0.0
H1269 H 0.16705 0.85137 0.49769 0.0
H1270 H 0.22135 0.84285 0.48736 0.0
H1271 H 0.17865 0.79987 0.48581 0.0
H1272 H 0.34989 0.77605 0.46446 0.0
H1273 H 0.24272 0.67802 0.45933 0.0
H1274 H 0.33792 0.79947 0.50794 0.0
H1275 H 0.30161 0.84028 0.49782 0.0
H1276 H 0.35528 0.8259 0.48794 0.0
H1277 H 0.20725 0.6777 0.50201 0.0
H1278 H 0.18574 0.66879 0.48038 0.0
H1279 H 0.17181 0.71976 0.49223 0.0
C1280 C 0.82783 0.79881 0.4737 0.0
C1281 C 0.80867 0.78138 0.45844 0.0
C1282 C 0.81194 0.78525 0.49006 0.0
C1283 C 0.77589 0.75355 0.49119 0.0
C1284 C 0.75578 0.7365 0.47584 0.0
C1285 C 0.77283 0.75012 0.45967 0.0
C1286 C 0.83469 0.80375 0.50612 0.0
C1287 C 0.71719 0.70269 0.4765 0.0
C1288 C 0.76718 0.67826 0.53095 0.0
C1289 C 0.73296 0.69988 0.5405 0.0
C1290 C 0.78199 0.6959 0.51505 0.0
C1291 C 0.7614 0.73568 0.50836 0.0
C1292 C 0.72665 0.75763 0.51793 0.0
C1293 C 0.71296 0.73954 0.53396 0.0
C1294 C 0.81957 0.6718 0.50537 0.0
C1295 C 0.70339 0.79965 0.51107 0.0
H1296 H 0.85573 0.82277 0.47286 0.0
H1297 H 0.75905 0.73481 0.44808 0.0
H1298 H 0.80902 0.81901 0.51489 0.0
H1299 H 0.85129 0.77563 0.5133 0.0
H1300 H 0.86076 0.82983 0.50304 0.0
H1301 H 0.70247 0.69606 0.46349 0.0
H1302 H 0.72957 0.67006 0.48193 0.0
H1303 H 0.68982 0.71522 0.48516 0.0
H1304 H 0.78274 0.64762 0.53602 0.0
H1305 H 0.68578 0.75574 0.54115 0.0
H1306 H 0.84798 0.69567 0.50281 0.0
H1307 H 0.80685 0.65982 0.49264 0.0
H1308 H 0.83303 0.64214 0.51264 0.0
H1309 H 0.72885 0.82658 0.50844 0.0
H1310 H 0.67764 0.8132 0.52025 0.0
H1311 H 0.68635 0.79176 0.4986 0.0
C1312 C 0.58276 0.19647 0.12069 0.0
C1313 C 0.59929 0.21856 0.13553 0.0
C1314 C 0.53873 0.17804 0.12037 0.0
C1315 C 0.5106 0.18232 0.13517 0.0
C1316 C 0.52896 0.19982 0.15075 0.0
C1317 C 0.57331 0.21729 0.15079 0.0
C1318 C 0.52092 0.15818 0.10367 0.0
C1319 C 0.50021 0.20502 0.16684 0.0
C1320 C 0.38648 0.20945 0.12705 0.0
C1321 C 0.36531 0.16879 0.13171 0.0
C1322 C 0.43381 0.21399 0.12802 0.0
C1323 C 0.46055 0.17656 0.13351 0.0
C1324 C 0.43921 0.13496 0.13787 0.0
C1325 C 0.39157 0.13173 0.1371 0.0
C1326 C 0.45508 0.25918 0.12346 0.0
C1327 C 0.46662 0.09415 0.14343 0.0
H1328 H 0.60282 0.19651 0.10891 0.0
H1329 H 0.58587 0.23369 0.16242 0.0
H1330 H 0.49976 0.1277 0.10622 0.0
H1331 H 0.49911 0.18363 0.09708 0.0
H1332 H 0.54895 0.14872 0.09472 0.0
H1333 H 0.52121 0.21205 0.1785 0.0
H1334 H 0.47623 0.23374 0.16501 0.0
H1335 H 0.47968 0.17407 0.16923 0.0
H1336 H 0.36581 0.238 0.12294 0.0
H1337 H 0.37478 0.10027 0.14063 0.0
H1338 H 0.47961 0.25482 0.11267 0.0
H1339 H 0.47427 0.27255 0.13475 0.0
H1340 H 0.4294 0.28488 0.11955 0.0
H1341 H 0.49324 0.08657 0.13367 0.0
H1342 H 0.44511 0.06347 0.1452 0.0
H1343 H 0.48423 0.1015 0.15583 0.0
C1344 C 0.13461 0.61534 0.87599 0.0
C1345 C 0.17302 0.64027 0.87106 0.0
C1346 C 0.13597 0.56764 0.87661 0.0
C1347 C 0.17698 0.54489 0.87249 0.0
C1348 C 0.21567 0.57025 0.86731 0.0
C1349 C 0.21304 0.61768 0.86655 0.0
C1350 C 0.09393 0.54175 0.88191 0.0
C1351 C 0.2602 0.54738 0.8629 0.0
C1352 C 0.21524 0.4314 0.88949 0.0
C1353 C 0.21667 0.40606 0.87408 0.0
C1354 C 0.1979 0.47575 0.88964 0.0
C1355 C 0.18091 0.49475 0.87409 0.0
C1356 C 0.17635 0.4671 0.85919 0.0
C1357 C 0.19444 0.42299 0.85933 0.0
C1358 C 0.20299 0.5039 0.90588 0.0
C1359 C 0.15704 0.48565 0.84251 0.0
H1360 H 0.10362 0.63322 0.87936 0.0
H1361 H 0.24263 0.63732 0.86278 0.0
H1362 H 0.08683 0.51407 0.87253 0.0
H1363 H 0.09948 0.52569 0.89473 0.0
H1364 H 0.06357 0.56409 0.88278 0.0
H1365 H 0.28692 0.57211 0.85908 0.0
H1366 H 0.27263 0.52775 0.87423 0.0
H1367 H 0.25523 0.52305 0.85209 0.0
H1368 H 0.23151 0.41836 0.90108 0.0
H1369 H 0.19446 0.40335 0.84745 0.0
H1370 H 0.17241 0.52509 0.90814 0.0
H1371 H 0.23241 0.52719 0.90435 0.0
H1372 H 0.20896 0.4824 0.91749 0.0
H1373 H 0.12714 0.50762 0.84505 0.0
H1374 H 0.14686 0.45798 0.83351 0.0
H1375 H 0.18318 0.50675 0.83596 0.0
C1376 C 0.42471 0.77745 0.14786 0.0
C1377 C 0.39987 0.77281 0.13242 0.0
C1378 C 0.46888 0.79537 0.14778 0.0
C1379 C 0.48827 0.80987 0.13193 0.0
C1380 C 0.46127 0.81066 0.11674 0.0
C1381 C 0.41737 0.7919 0.11714 0.0
C1382 C 0.49639 0.79395 0.16429 0.0
C1383 C 0.4802 0.82719 0.0997 0.0
C1384 C 0.60624 0.86295 0.13377 0.0
C1385 C 0.63355 0.82538 0.12988 0.0
C1386 C 0.55861 0.85898 0.13405 0.0
C1387 C 0.53834 0.81621 0.1307 0.0
C1388 C 0.56616 0.77827 0.12671 0.0
C1389 C 0.61347 0.78348 0.1262 0.0
C1390 C 0.53006 0.90029 0.138 0.0
C1391 C 0.54604 0.73189 0.12326 0.0
H1392 H 0.41136 0.76346 0.15982 0.0
H1393 H 0.39822 0.78922 0.10517 0.0
H1394 H 0.52105 0.76546 0.16357 0.0
H1395 H 0.51613 0.82571 0.16601 0.0
H1396 H 0.47459 0.7888 0.17588 0.0
H1397 H 0.45282 0.83426 0.09016 0.0
H1398 H 0.50071 0.85845 0.10154 0.0
H1399 H 0.50291 0.80079 0.09418 0.0
H1400 H 0.6222 0.89536 0.13651 0.0
H1401 H 0.63498 0.75459 0.12321 0.0
H1402 H 0.5113 0.89513 0.15031 0.0
H1403 H 0.50435 0.90542 0.12766 0.0
H1404 H 0.55092 0.93161 0.13918 0.0
H1405 H 0.52612 0.7205 0.13468 0.0
H1406 H 0.57247 0.70596 0.12044 0.0
H1407 H 0.52239 0.73357 0.11209 0.0
C1408 C 0.78056 0.57089 0.88752 0.0
C1409 C 0.77747 0.59526 0.87192 0.0
C1410 C 0.7983 0.5267 0.88784 0.0
C1411 C 0.81407 0.50684 0.87227 0.0
C1412 C 0.81661 0.53344 0.85702 0.0
C1413 C 0.79809 0.5774 0.857 0.0
C1414 C 0.79515 0.49965 0.90443 0.0
C1415 C 0.83451 0.51395 0.84027 0.0
C1416 C 0.86431 0.3879 0.87495 0.0
C1417 C 0.82641 0.36142 0.87068 0.0
C1418 C 0.86143 0.43557 0.87511 0.0
C1419 C 0.8194 0.45671 0.87122 0.0
C1420 C 0.78114 0.42975 0.86682 0.0
C1421 C 0.78529 0.38238 0.86647 0.0
C1422 C 0.90305 0.4632 0.87953 0.0
C1423 C 0.73552 0.45086 0.86277 0.0
H1424 H 0.7655 0.58462 0.89922 0.0
H1425 H 0.79668 0.59623 0.84493 0.0
H1426 H 0.76618 0.47561 0.9035 0.0
H1427 H 0.82637 0.4793 0.90654 0.0
H1428 H 0.78964 0.52184 0.91588 0.0
H1429 H 0.84306 0.54105 0.83079 0.0
H1430 H 0.86518 0.49288 0.84259 0.0
H1431 H 0.80821 0.49171 0.8344 0.0
H1432 H 0.89614 0.37126 0.87811 0.0
H1433 H 0.75611 0.36153 0.86322 0.0
H1434 H 0.89729 0.48217 0.89175 0.0
H1435 H 0.90962 0.48868 0.86923 0.0
H1436 H 0.9338 0.44167 0.8811 0.0
H1437 H 0.7236 0.47114 0.87401 0.0
H1438 H 0.70924 0.42501 0.85966 0.0
H1439 H 0.73869 0.47433 0.85159 0.0
C1440 C 0.42053 0.19717 0.61934 0.0
C1441 C 0.40424 0.21992 0.63408 0.0
C1442 C 0.46444 0.17842 0.61909 0.0
C1443 C 0.49275 0.1832 0.63381 0.0
C1444 C 0.47468 0.20162 0.64929 0.0
C1445 C 0.43041 0.21926 0.64929 0.0
C1446 C 0.4819 0.15745 0.60254 0.0
C1447 C 0.50367 0.20748 0.66529 0.0
C1448 C 0.61125 0.13189 0.63685 0.0
C1449 C 0.63797 0.16848 0.63136 0.0
C1450 C 0.56358 0.13531 0.63711 0.0
C1451 C 0.54272 0.17672 0.63219 0.0
C1452 C 0.56994 0.21355 0.62646 0.0
C1453 C 0.6173 0.20874 0.62595 0.0
C1454 C 0.5357 0.09504 0.6429 0.0
C1455 C 0.54918 0.25854 0.62132 0.0
H1456 H 0.40031 0.19678 0.6076 0.0
H1457 H 0.41806 0.23622 0.66084 0.0
H1458 H 0.5039 0.1823 0.59571 0.0
H1459 H 0.50278 0.12692 0.60532 0.0
H1460 H 0.45369 0.14777 0.5937 0.0
H1461 H 0.48297 0.21601 0.67689 0.0
H1462 H 0.52342 0.17623 0.66804 0.0
H1463 H 0.52838 0.23539 0.66309 0.0
H1464 H 0.6277 0.10074 0.64098 0.0
H1465 H 0.63838 0.23689 0.62175 0.0
H1466 H 0.50805 0.08817 0.63347 0.0
H1467 H 0.51943 0.1026 0.65554 0.0
H1468 H 0.55668 0.06389 0.64435 0.0
H1469 H 0.52471 0.25357 0.61055 0.0
H1470 H 0.57517 0.28365 0.61714 0.0
H1471 H 0.53004 0.27303 0.63241 0.0
C1472 C 0.21525 0.38467 0.36844 0.0
C1473 C 0.17319 0.3632 0.37018 0.0
C1474 C 0.21858 0.43212 0.36894 0.0
C1475 C 0.17862 0.45862 0.37092 0.0
C1476 C 0.13584 0.43689 0.37241 0.0
C1477 C 0.13369 0.38918 0.37219 0.0
C1478 C 0.26499 0.45385 0.36754 0.0
C1479 C 0.09255 0.46399 0.37424 0.0
C1480 C 0.20881 0.57504 0.38777 0.0
C1481 C 0.2174 0.59816 0.37219 0.0
C1482 C 0.19185 0.53049 0.38768 0.0
C1483 C 0.18263 0.50896 0.37166 0.0
C1484 C 0.18543 0.53425 0.3561 0.0
C1485 C 0.20289 0.57862 0.35654 0.0
C1486 C 0.18897 0.50491 0.4046 0.0
C1487 C 0.17472 0.51296 0.33878 0.0
H1488 H 0.24565 0.36417 0.36696 0.0
H1489 H 0.10121 0.37211 0.3735 0.0
H1490 H 0.26618 0.47664 0.3561 0.0
H1491 H 0.27175 0.47497 0.37917 0.0
H1492 H 0.29262 0.42833 0.3663 0.0
H1493 H 0.06195 0.44191 0.37484 0.0
H1494 H 0.09389 0.48498 0.38616 0.0
H1495 H 0.08891 0.48764 0.36313 0.0
H1496 H 0.21924 0.58998 0.39998 0.0
H1497 H 0.20855 0.59647 0.34444 0.0
H1498 H 0.21873 0.4819 0.40574 0.0
H1499 H 0.15792 0.48361 0.40512 0.0
H1500 H 0.18902 0.52823 0.41592 0.0
H1501 H 0.20332 0.49065 0.33484 0.0
H1502 H 0.16975 0.53902 0.32854 0.0
H1503 H 0.14373 0.49158 0.33959 0.0
C1504 C 0.58186 0.79691 0.64274 0.0
C1505 C 0.60013 0.77992 0.62723 0.0
C1506 C 0.53763 0.81474 0.64327 0.0
C1507 C 0.5111 0.81525 0.62797 0.0
C1508 C 0.53132 0.80335 0.61196 0.0
C1509 C 0.57583 0.7862 0.61175 0.0
C1510 C 0.51779 0.82841 0.66054 0.0
C1511 C 0.50438 0.80358 0.5953 0.0
C1512 C 0.38694 0.78384 0.63334 0.0
C1513 C 0.36543 0.82559 0.63081 0.0
C1514 C 0.43435 0.78023 0.63243 0.0
C1515 C 0.46082 0.81962 0.62919 0.0
C1516 C 0.43908 0.86215 0.62691 0.0
C1517 C 0.39137 0.86455 0.62759 0.0
C1518 C 0.45606 0.73408 0.63472 0.0
C1519 C 0.46616 0.9049 0.62375 0.0
H1520 H 0.60067 0.793 0.65473 0.0
H1521 H 0.58974 0.77373 0.59964 0.0
H1522 H 0.49645 0.85929 0.65924 0.0
H1523 H 0.49572 0.80065 0.66543 0.0
H1524 H 0.54473 0.83492 0.67032 0.0
H1525 H 0.52677 0.80152 0.58374 0.0
H1526 H 0.48114 0.77387 0.59516 0.0
H1527 H 0.48316 0.8346 0.59429 0.0
H1528 H 0.36647 0.75386 0.63578 0.0
H1529 H 0.37429 0.89681 0.6257 0.0
H1530 H 0.47969 0.7347 0.64592 0.0
H1531 H 0.47631 0.72531 0.62306 0.0
H1532 H 0.43055 0.70684 0.6369 0.0
H1533 H 0.49086 0.91013 0.63444 0.0
H1534 H 0.44414 0.93545 0.62275 0.0
H1535 H 0.48605 0.90159 0.61161 0.0
C1536 C 0.78709 0.61625 0.36551 0.0
C1537 C 0.82837 0.63789 0.36891 0.0
C1538 C 0.78332 0.56891 0.36662 0.0
C1539 C 0.82209 0.54264 0.371 0.0
C1540 C 0.8643 0.56443 0.37398 0.0
C1541 C 0.86683 0.61206 0.37305 0.0
C1542 C 0.73754 0.54712 0.36347 0.0
C1543 C 0.90644 0.53756 0.37837 0.0
C1544 C 0.78554 0.42992 0.38954 0.0
C1545 C 0.7814 0.40393 0.37437 0.0
C1546 C 0.80289 0.47428 0.38897 0.0
C1547 C 0.81722 0.49261 0.37291 0.0
C1548 C 0.81879 0.46441 0.35807 0.0
C1549 C 0.80062 0.42038 0.35895 0.0
C1550 C 0.80078 0.50311 0.40513 0.0
C1551 C 0.83519 0.48218 0.34082 0.0
H1552 H 0.75746 0.63658 0.36236 0.0
H1553 H 0.89877 0.62919 0.3756 0.0
H1554 H 0.73997 0.52233 0.35268 0.0
H1555 H 0.72663 0.52817 0.37519 0.0
H1556 H 0.71086 0.57244 0.36022 0.0
H1557 H 0.93732 0.55927 0.37882 0.0
H1558 H 0.90218 0.52097 0.39117 0.0
H1559 H 0.9118 0.5102 0.36869 0.0
H1560 H 0.77125 0.41742 0.40159 0.0
H1561 H 0.79833 0.40024 0.34722 0.0
H1562 H 0.77152 0.52679 0.40416 0.0
H1563 H 0.83196 0.52392 0.40656 0.0
H1564 H 0.79637 0.48215 0.41699 0.0
H1565 H 0.80831 0.50371 0.33495 0.0
H1566 H 0.84307 0.45414 0.33167 0.0
H1567 H 0.86593 0.50358 0.34246 0.0
C1568 C 0.07408 0.71516 0.61388 0.0
C1569 C 0.09877 0.71904 0.62938 0.0
C1570 C 0.02978 0.69757 0.61383 0.0
C1571 C 0.01006 0.68293 0.6296 0.0
C1572 C 0.03691 0.68127 0.6448 0.0
C1573 C 0.08102 0.69943 0.64453 0.0
C1574 C 0.0025 0.69956 0.59727 0.0
C1575 C 0.01755 0.66472 0.66178 0.0
C1576 C 0.88545 0.71185 0.63527 0.0
C1577 C 0.8646 0.67046 0.63145 0.0
C1578 C 0.93286 0.71606 0.63485 0.0
C1579 C 0.9599 0.67759 0.6308 0.0
C1580 C 0.93881 0.63527 0.6274 0.0
C1581 C 0.89112 0.63234 0.62757 0.0
C1582 C 0.95392 0.76199 0.63836 0.0
C1583 C 0.96651 0.59342 0.62339 0.0
H1584 H 0.0877 0.72945 0.60202 0.0
H1585 H 0.10007 0.70147 0.65653 0.0
H1586 H 0.98214 0.6682 0.59551 0.0
H1587 H 0.97843 0.72855 0.59795 0.0
H1588 H 0.02456 0.70427 0.58572 0.0
H1589 H 0.04473 0.65695 0.67133 0.0
H1590 H 0.99531 0.69144 0.66735 0.0
H1591 H 0.99647 0.6339 0.65983 0.0
H1592 H 0.8645 0.74119 0.63819 0.0
H1593 H 0.87448 0.60038 0.62463 0.0
H1594 H 0.97386 0.77318 0.62692 0.0
H1595 H 0.97773 0.75969 0.64947 0.0
H1596 H 0.92803 0.78838 0.64129 0.0
H1597 H 0.98483 0.59809 0.61095 0.0
H1598 H 0.94507 0.56245 0.6224 0.0
H1599 H 0.99254 0.58797 0.63358 0.0
C1600 C 0.69961 0.92132 0.35844 0.0
C1601 C 0.72323 0.90526 0.37302 0.0
C1602 C 0.68111 0.96529 0.35821 0.0
C1603 C 0.68684 0.99379 0.37282 0.0
C1604 C 0.70594 0.97592 0.38821 0.0
C1605 C 0.72349 0.93164 0.38818 0.0
C1606 C 0.65951 0.98261 0.34175 0.0
C1607 C 0.71261 0.00509 0.40411 0.0
C1608 C 0.7132 0.11783 0.36449 0.0
C1609 C 0.67329 0.13894 0.37007 0.0
C1610 C 0.71759 0.07048 0.36508 0.0
C1611 C 0.68072 0.04371 0.37109 0.0
C1612 C 0.63963 0.06498 0.37615 0.0
C1613 C 0.6366 0.11261 0.37578 0.0
C1614 C 0.76223 0.04925 0.35974 0.0
C1615 C 0.59934 0.03757 0.38225 0.0
H1616 H 0.69845 0.90093 0.34675 0.0
H1617 H 0.74102 0.91938 0.39962 0.0
H1618 H 0.62927 0.0038 0.34467 0.0
H1619 H 0.68425 0.00423 0.33469 0.0
H1620 H 0.64916 0.95433 0.33307 0.0
H1621 H 0.72139 0.9845 0.4157 0.0
H1622 H 0.74067 0.02951 0.4017 0.0
H1623 H 0.6816 0.02512 0.40697 0.0
H1624 H 0.74147 0.13858 0.36016 0.0
H1625 H 0.60573 0.12937 0.38003 0.0
H1626 H 0.7566 0.02448 0.34913 0.0
H1627 H 0.77708 0.03037 0.37083 0.0
H1628 H 0.78734 0.07491 0.35529 0.0
H1629 H 0.59196 0.00969 0.37299 0.0
H1630 H 0.56836 0.0588 0.38375 0.0
H1631 H 0.60721 0.02166 0.39493 0.0
C1632 C 0.11767 0.28295 0.62832 0.0
C1633 C 0.13797 0.32562 0.62983 0.0
C1634 C 0.07029 0.2784 0.6286 0.0
C1635 C 0.0427 0.31771 0.63016 0.0
C1636 C 0.06326 0.36112 0.63138 0.0
C1637 C 0.11094 0.36452 0.63135 0.0
C1638 C 0.04983 0.2314 0.62745 0.0
C1639 C 0.03498 0.40373 0.63278 0.0
C1640 C 0.92321 0.2894 0.61606 0.0
C1641 C 0.90393 0.27589 0.63188 0.0
C1642 C 0.9672 0.30784 0.61542 0.0
C1643 C 0.99247 0.31237 0.63093 0.0
C1644 C 0.97124 0.30372 0.64706 0.0
C1645 C 0.927 0.28599 0.64735 0.0
C1646 C 0.98814 0.31804 0.598 0.0
C1647 C 0.9969 0.30813 0.66392 0.0
H1648 H 0.13903 0.25306 0.62715 0.0
H1649 H 0.12714 0.39747 0.63247 0.0
H1650 H 0.0287 0.2246 0.63907 0.0
H1651 H 0.02725 0.22909 0.61596 0.0
H1652 H 0.07612 0.20443 0.62644 0.0
H1653 H 0.05618 0.43496 0.63274 0.0
H1654 H 0.01053 0.40554 0.62186 0.0
H1655 H 0.01477 0.40301 0.64491 0.0
H1656 H 0.90538 0.28249 0.60405 0.0
H1657 H 0.91229 0.27621 0.65968 0.0
H1658 H 0.01117 0.28981 0.59428 0.0
H1659 H 0.00872 0.34959 0.59852 0.0
H1660 H 0.96188 0.32172 0.58774 0.0
H1661 H 0.021 0.27928 0.66517 0.0
H1662 H 0.97374 0.3077 0.67529 0.0
H1663 H 0.01711 0.3399 0.66422 0.0
C1664 C 0.27481 0.0683 0.3909 0.0
C1665 C 0.27741 0.09639 0.37623 0.0
C1666 C 0.29219 0.02394 0.39055 0.0
C1667 C 0.31343 0.00771 0.37529 0.0
C1668 C 0.32139 0.03784 0.36133 0.0
C1669 C 0.30308 0.08185 0.36192 0.0
C1670 C 0.28315 0.99301 0.40578 0.0
C1671 C 0.34524 0.0223 0.34506 0.0
C1672 C 0.36323 0.88855 0.37722 0.0
C1673 C 0.32737 0.86293 0.37038 0.0
C1674 C 0.36012 0.9361 0.37835 0.0
C1675 C 0.31976 0.958 0.37285 0.0
C1676 C 0.28383 0.93202 0.36563 0.0
C1677 C 0.28831 0.88476 0.36434 0.0
C1678 C 0.39946 0.96268 0.38574 0.0
C1679 C 0.24 0.95395 0.35976 0.0
H1680 H 0.25557 0.07931 0.40212 0.0
H1681 H 0.306 0.10355 0.35063 0.0
H1682 H 0.25537 0.96908 0.40239 0.0
H1683 H 0.31363 0.97246 0.40892 0.0
H1684 H 0.27284 0.0123 0.41751 0.0
H1685 H 0.35689 0.05148 0.33708 0.0
H1686 H 0.37495 0.00062 0.34823 0.0
H1687 H 0.32146 0.00165 0.33715 0.0
H1688 H 0.39345 0.87127 0.38184 0.0
H1689 H 0.26063 0.86459 0.35914 0.0
H1690 H 0.38979 0.97703 0.39851 0.0
H1691 H 0.40811 0.99165 0.37715 0.0
H1692 H 0.43021 0.94125 0.3875 0.0
H1693 H 0.22355 0.97144 0.37086 0.0
H1694 H 0.2156 0.92891 0.35433 0.0
H1695 H 0.24711 0.98002 0.34974 0.0
C1696 C 0.92297 0.71588 0.14783 0.0
C1697 C 0.89966 0.72059 0.13204 0.0
C1698 C 0.96719 0.69814 0.14836 0.0
C1699 C 0.98824 0.68393 0.1328 0.0
C1700 C 0.96278 0.68319 0.11722 0.0
C1701 C 0.91878 0.70173 0.117 0.0
C1702 C 0.99298 0.69945 0.16528 0.0
C1703 C 0.98353 0.66702 0.10043 0.0
C1704 C 0.11376 0.71083 0.12854 0.0
C1705 C 0.1337 0.66884 0.13216 0.0
C1706 C 0.06642 0.71597 0.1287 0.0
C1707 C 0.03844 0.67786 0.13227 0.0
C1708 C 0.05861 0.63509 0.1357 0.0
C1709 C 0.10626 0.63118 0.13576 0.0
C1710 C 0.04641 0.76236 0.12519 0.0
C1711 C 0.02991 0.59362 0.13924 0.0
H1712 H 0.90835 0.72966 0.1596 0.0
H1713 H 0.90085 0.70448 0.10477 0.0
H1714 H 0.01291 0.66787 0.16718 0.0
H1715 H 0.01736 0.72823 0.16502 0.0
H1716 H 0.96996 0.70407 0.17655 0.0
H1717 H 0.95718 0.66005 0.09046 0.0
H1718 H 0.00672 0.69358 0.09534 0.0
H1719 H 0.00392 0.63578 0.1025 0.0
H1720 H 0.13538 0.73978 0.12575 0.0
H1721 H 0.12213 0.59868 0.13844 0.0
H1722 H 0.02533 0.7733 0.13636 0.0
H1723 H 0.02387 0.76092 0.11368 0.0
H1724 H 0.07296 0.78851 0.12286 0.0
H1725 H 0.00881 0.59915 0.15096 0.0
H1726 H 0.05085 0.56263 0.1412 0.0
H1727 H 0.00626 0.58765 0.12828 0.0
C1728 C 0.63506 0.88794 0.87587 0.0
C1729 C 0.67234 0.86252 0.87008 0.0
C1730 C 0.63778 0.93548 0.87721 0.0
C1731 C 0.67895 0.95763 0.87286 0.0
C1732 C 0.7164 0.93186 0.86674 0.0
C1733 C 0.71249 0.88459 0.86534 0.0
C1734 C 0.59702 0.96183 0.88354 0.0
C1735 C 0.76104 0.95408 0.86203 0.0
C1736 C 0.69682 0.08079 0.86139 0.0
C1737 C 0.7206 0.09601 0.87606 0.0
C1738 C 0.67846 0.03682 0.86078 0.0
C1739 C 0.68428 0.0075 0.87514 0.0
C1740 C 0.70315 0.02462 0.8907 0.0
C1741 C 0.72078 0.06888 0.89102 0.0
C1742 C 0.6573 0.02031 0.84411 0.0
C1743 C 0.7096 0.99463 0.90638 0.0
H1744 H 0.60395 0.87053 0.87943 0.0
H1745 H 0.74123 0.86462 0.86094 0.0
H1746 H 0.60454 0.97688 0.8964 0.0
H1747 H 0.58936 0.9903 0.87458 0.0
H1748 H 0.56631 0.94008 0.88474 0.0
H1749 H 0.78663 0.92916 0.85736 0.0
H1750 H 0.75559 0.97983 0.85174 0.0
H1751 H 0.7752 0.97197 0.87348 0.0
H1752 H 0.69566 0.10181 0.84986 0.0
H1753 H 0.73844 0.08048 0.90253 0.0
H1754 H 0.62723 0.99864 0.84675 0.0
H1755 H 0.6824 -0.00062 0.83693 0.0
H1756 H 0.64682 0.04901 0.83565 0.0
H1757 H 0.67891 0.97372 0.90882 0.0
H1758 H 0.71729 0.01473 0.91821 0.0
H1759 H 0.73837 0.97104 0.904 0.0
C1760 C 0.89224 0.36262 0.13513 0.0
C1761 C 0.86528 0.32449 0.13169 0.0
C1762 C 0.93994 0.35939 0.13498 0.0
C1763 C 0.96066 0.31682 0.13167 0.0
C1764 C 0.93318 0.27828 0.12819 0.0
C1765 C 0.88578 0.28275 0.1281 0.0
C1766 C 0.96808 0.40131 0.1384 0.0
C1767 C 0.9538 0.23209 0.12482 0.0
C1768 C 0.08079 0.29358 0.11683 0.0
C1769 C 0.0997 0.27523 0.132 0.0
C1770 C 0.03667 0.31187 0.11686 0.0
C1771 C 0.01091 0.31133 0.13236 0.0
C1772 C 0.03174 0.29772 0.14805 0.0
C1773 C 0.07609 0.28029 0.14771 0.0
C1774 C 0.01616 0.32748 0.09996 0.0
C1775 C 0.0056 0.29658 0.16489 0.0
H1776 H 0.87595 0.39491 0.1378 0.0
H1777 H 0.86454 0.25343 0.12545 0.0
H1778 H 0.98834 0.3967 0.1504 0.0
H1779 H 0.99249 0.40676 0.12764 0.0
H1780 H 0.94678 0.43224 0.13986 0.0
H1781 H 0.92759 0.2056 0.12248 0.0
H1782 H 0.9765 0.23363 0.11336 0.0
H1783 H 0.97482 0.22155 0.13607 0.0
H1784 H 0.09895 0.29057 0.10466 0.0
H1785 H 0.09054 0.26691 0.15958 0.0
H1786 H 0.99531 0.35849 0.10187 0.0
H1787 H 0.99345 0.30053 0.09484 0.0
H1788 H 0.04268 0.3346 0.09007 0.0
H1789 H 0.98545 0.32807 0.16664 0.0
H1790 H 0.02842 0.29232 0.17625 0.0
H1791 H 0.98141 0.26765 0.16464 0.0
C1792 C 0.28434 0.9324 0.88944 0.0
C1793 C 0.28266 0.90648 0.87418 0.0
C1794 C 0.3014 0.97687 0.88929 0.0
C1795 C 0.31783 0.99544 0.87357 0.0
C1796 C 0.32199 0.96733 0.85878 0.0
C1797 C 0.30422 0.9231 0.85924 0.0
C1798 C 0.29673 0.00553 0.90542 0.0
C1799 C 0.34062 0.98542 0.84192 0.0
C1800 C 0.28617 0.11844 0.86576 0.0
C1801 C 0.32651 0.14088 0.86996 0.0
C1802 C 0.28328 0.07102 0.8667 0.0
C1803 C 0.32198 0.04553 0.87177 0.0
C1804 C 0.36328 0.06813 0.87558 0.0
C1805 C 0.36495 0.1158 0.87475 0.0
C1806 C 0.23845 0.04832 0.86261 0.0
C1807 C 0.40532 0.0421 0.88078 0.0
H1808 H 0.26853 0.91966 0.90117 0.0
H1809 H 0.30397 0.90304 0.84745 0.0
H1810 H 0.32738 0.02678 0.90746 0.0
H1811 H 0.26729 0.02879 0.9039 0.0
H1812 H 0.29107 0.9844 0.91715 0.0
H1813 H 0.35041 0.95753 0.83296 0.0
H1814 H 0.31425 0.00641 0.83546 0.0
H1815 H 0.37065 0.00742 0.84421 0.0
H1816 H 0.25654 0.13818 0.86211 0.0
H1817 H 0.39617 0.13355 0.8779 0.0
H1818 H 0.22625 0.0292 0.87409 0.0
H1819 H 0.24292 0.02356 0.85191 0.0
H1820 H 0.21179 0.07311 0.85878 0.0
H1821 H 0.39983 0.02579 0.89357 0.0
H1822 H 0.43573 0.06435 0.88167 0.0
H1823 H 0.41229 0.01457 0.87133 0.0
loop_
_geom_bond_atom_site_label_1
_geom_bond_atom_site_label_2
_geom_bond_distance
_geom_bond_site_symmetry_2
_ccdc_geom_bond_type
Co0 O3 1.970 . S
Co0 N17 1.989 . S
Co0 O25 1.967 . S
Co0 O32 1.920 . S
Co1 O4 1.966 . S
Co1 N10 2.022 . S
Co1 N18 1.993 . S
Co1 O26 1.941 . S
C2 O3 1.258 . S
C2 O4 1.263 . S
O3 Co0 1.970 . S
O3 C2 1.258 . S
O4 Co1 1.966 . S
O4 C2 1.263 . S
C5 O6 1.235 . S
C5 O32 1.289 . S
O6 C5 1.235 . S
C7 C9 1.400 . S
C7 N10 1.351 . S
C7 C12 1.501 . S
C8 C9 1.387 . S
C8 N11 1.341 . S
C9 C7 1.400 . S
C9 C8 1.387 . S
N10 Co1 2.022 . S
N10 C7 1.351 . S
N10 N11 1.365 . S
N11 C8 1.341 . S
N11 N10 1.365 . S
N11 H31 0.862 . S
C12 C7 1.501 . S
C12 H13 0.961 . S
C12 H14 0.961 . S
C12 H15 0.960 . S
H13 C12 0.961 . S
H14 C12 0.961 . S
H15 C12 0.960 . S
C16 N17 1.342 . S
C16 C20 1.401 . S
C16 C21 1.499 . S
N17 Co0 1.989 . S
N17 C16 1.342 . S
N17 N18 1.388 . S
N18 Co1 1.993 . S
N18 N17 1.388 . S
N18 C19 1.346 . S
C19 N18 1.346 . S
C19 C20 1.396 . S
C19 C29 1.510 . S
C20 C16 1.401 . S
C20 C19 1.396 . S
C21 C16 1.499 . S
C21 H22 0.959 . S
C21 H23 0.960 . S
C21 H24 0.961 . S
H22 C21 0.959 . S
H23 C21 0.960 . S
H24 C21 0.961 . S
O25 Co0 1.967 . S
O25 C33 1.258 . S
O26 Co1 1.941 . S
O26 C33 1.266 . S
H27 C29 0.959 . S
H28 C29 0.961 . S
C29 C19 1.510 . S
C29 H27 0.959 . S
C29 H28 0.961 . S
C29 H30 0.960 . S
H30 C29 0.960 . S
H31 N11 0.862 . S
O32 Co0 1.920 . S
O32 C5 1.289 . S
C33 O25 1.258 . S
C33 O26 1.266 . S
Co34 O37 1.970 . S
Co34 N51 1.989 . S
Co34 O59 1.967 . S
Co34 O66 1.920 . S
Co35 O38 1.966 . S
Co35 N44 2.022 . S
Co35 N52 1.993 . S
Co35 O60 1.941 . S
C36 O37 1.258 . S
C36 O38 1.263 . S
O37 Co34 1.970 . S
O37 C36 1.258 . S
O38 Co35 1.966 . S
O38 C36 1.263 . S
C39 O40 1.235 . S
C39 O66 1.289 . S
O40 C39 1.235 . S
C41 C43 1.400 . S
C41 N44 1.351 . S
C41 C46 1.501 . S
C42 C43 1.387 . S
C42 N45 1.341 . S
C43 C41 1.400 . S
C43 C42 1.387 . S
N44 Co35 2.022 . S
N44 C41 1.351 . S
N44 N45 1.365 . S
N45 C42 1.341 . S
N45 N44 1.365 . S
N45 H65 0.862 . S
C46 C41 1.501 . S
C46 H47 0.961 . S
C46 H48 0.961 . S
C46 H49 0.960 . S
H47 C46 0.961 . S
H48 C46 0.961 . S
H49 C46 0.960 . S
C50 N51 1.342 . S
C50 C54 1.401 . S
C50 C55 1.499 . S
N51 Co34 1.989 . S
N51 C50 1.342 . S
N51 N52 1.388 . S
N52 Co35 1.993 . S
N52 N51 1.388 . S
N52 C53 1.346 . S
C53 N52 1.346 . S
C53 C54 1.396 . S
C53 C63 1.510 . S
C54 C50 1.401 . S
C54 C53 1.396 . S
C55 C50 1.499 . S
C55 H56 0.959 . S
C55 H57 0.960 . S
C55 H58 0.961 . S
H56 C55 0.959 . S
H57 C55 0.960 . S
H58 C55 0.961 . S
O59 Co34 1.967 . S
O59 C67 1.258 . S
O60 Co35 1.941 . S
O60 C67 1.266 . S
H61 C63 0.959 . S
H62 C63 0.961 . S
C63 C53 1.510 . S
C63 H61 0.959 . S
C63 H62 0.961 . S
C63 H64 0.960 . S
H64 C63 0.960 . S
H65 N45 0.862 . S
O66 Co34 1.920 . S
O66 C39 1.289 . S
C67 O59 1.258 . S
C67 O60 1.266 . S
Co68 O71 1.970 . S
Co68 N85 1.989 . S
Co68 O93 1.967 . S
Co68 O100 1.920 . S
Co69 O72 1.966 . S
Co69 N78 2.022 . S
Co69 N86 1.993 . S
Co69 O94 1.941 . S
C70 O71 1.258 . S
C70 O72 1.263 . S
O71 Co68 1.970 . S
O71 C70 1.258 . S
O72 Co69 1.966 . S
O72 C70 1.263 . S
C73 O74 1.235 . S
C73 O100 1.289 . S
O74 C73 1.235 . S
C75 C77 1.400 . S
C75 N78 1.351 . S
C75 C80 1.501 . S
C76 C77 1.387 . S
C76 N79 1.341 . S
C77 C75 1.400 . S
C77 C76 1.387 . S
N78 Co69 2.022 . S
N78 C75 1.351 . S
N78 N79 1.365 . S
N79 C76 1.341 . S
N79 N78 1.365 . S
N79 H99 0.862 . S
C80 C75 1.501 . S
C80 H81 0.961 . S
C80 H82 0.961 . S
C80 H83 0.960 . S
H81 C80 0.961 . S
H82 C80 0.961 . S
H83 C80 0.960 . S
C84 N85 1.342 . S
C84 C88 1.401 . S
C84 C89 1.499 . S
N85 Co68 1.989 . S
N85 C84 1.342 . S
N85 N86 1.388 . S
N86 Co69 1.993 . S
N86 N85 1.388 . S
N86 C87 1.346 . S
C87 N86 1.346 . S
C87 C88 1.396 . S
C87 C97 1.510 . S
C88 C84 1.401 . S
C88 C87 1.396 . S
C89 C84 1.499 . S
C89 H90 0.959 . S
C89 H91 0.960 . S
C89 H92 0.961 . S
H90 C89 0.959 . S
H91 C89 0.960 . S
H92 C89 0.961 . S
O93 Co68 1.967 . S
O93 C101 1.258 . S
O94 Co69 1.941 . S
O94 C101 1.266 . S
H95 C97 0.959 . S
H96 C97 0.961 . S
C97 C87 1.510 . S
C97 H95 0.959 . S
C97 H96 0.961 . S
C97 H98 0.960 . S
H98 C97 0.960 . S
H99 N79 0.862 . S
O100 Co68 1.920 . S
O100 C73 1.289 . S
C101 O93 1.258 . S
C101 O94 1.266 . S
Co102 O105 1.970 . S
Co102 N119 1.989 . S
Co102 O127 1.967 . S
Co102 O134 1.920 . S
Co103 O106 1.966 . S
Co103 N112 2.022 . S
Co103 N120 1.993 . S
Co103 O128 1.941 . S
C104 O105 1.258 . S
C104 O106 1.263 . S
O105 Co102 1.970 . S
O105 C104 1.258 . S
O106 Co103 1.966 . S
O106 C104 1.263 . S
C107 O108 1.235 . S
C107 O134 1.289 . S
O108 C107 1.235 . S
C109 C111 1.400 . S
C109 N112 1.351 . S
C109 C114 1.501 . S
C110 C111 1.387 . S
C110 N113 1.341 . S
C111 C109 1.400 . S
C111 C110 1.387 . S
N112 Co103 2.022 . S
N112 C109 1.351 . S
N112 N113 1.365 . S
N113 C110 1.341 . S
N113 N112 1.365 . S
N113 H133 0.862 . S
C114 C109 1.501 . S
C114 H115 0.961 . S
C114 H116 0.961 . S
C114 H117 0.960 . S
H115 C114 0.961 . S
H116 C114 0.961 . S
H117 C114 0.960 . S
C118 N119 1.342 . S
C118 C122 1.401 . S
C118 C123 1.499 . S
N119 Co102 1.989 . S
N119 C118 1.342 . S
N119 N120 1.388 . S
N120 Co103 1.993 . S
N120 N119 1.388 . S
N120 C121 1.346 . S
C121 N120 1.346 . S
C121 C122 1.396 . S
C121 C131 1.510 . S
C122 C118 1.401 . S
C122 C121 1.396 . S
C123 C118 1.499 . S
C123 H124 0.959 . S
C123 H125 0.960 . S
C123 H126 0.961 . S
H124 C123 0.959 . S
H125 C123 0.960 . S
H126 C123 0.961 . S
O127 Co102 1.967 . S
O127 C135 1.258 . S
O128 Co103 1.941 . S
O128 C135 1.266 . S
H129 C131 0.959 . S
H130 C131 0.961 . S
C131 C121 1.510 . S
C131 H129 0.959 . S
C131 H130 0.961 . S
C131 H132 0.960 . S
H132 C131 0.960 . S
H133 N113 0.862 . S
O134 Co102 1.920 . S
O134 C107 1.289 . S
C135 O127 1.258 . S
C135 O128 1.266 . S
Co136 O139 1.970 . S
Co136 N153 1.989 . S
Co136 O161 1.967 . S
Co136 O168 1.920 . S
Co137 O140 1.966 . S
Co137 N146 2.022 . S
Co137 N154 1.993 . S
Co137 O162 1.941 . S
C138 O139 1.258 . S
C138 O140 1.263 . S
O139 Co136 1.970 . S
O139 C138 1.258 . S
O140 Co137 1.966 . S
O140 C138 1.263 . S
C141 O142 1.235 . S
C141 O168 1.289 . S
O142 C141 1.235 . S
C143 C145 1.400 . S
C143 N146 1.351 . S
C143 C148 1.501 . S
C144 C145 1.387 . S
C144 N147 1.341 . S
C145 C143 1.400 . S
C145 C144 1.387 . S
N146 Co137 2.022 . S
N146 C143 1.351 . S
N146 N147 1.365 . S
N147 C144 1.341 . S
N147 N146 1.365 . S
N147 H167 0.862 . S
C148 C143 1.501 . S
C148 H149 0.961 . S
C148 H150 0.961 . S
C148 H151 0.960 . S
H149 C148 0.961 . S
H150 C148 0.961 . S
H151 C148 0.960 . S
C152 N153 1.342 . S
C152 C156 1.401 . S
C152 C157 1.499 . S
N153 Co136 1.989 . S
N153 C152 1.342 . S
N153 N154 1.388 . S
N154 Co137 1.993 . S
N154 N153 1.388 . S
N154 C155 1.346 . S
C155 N154 1.346 . S
C155 C156 1.396 . S
C155 C165 1.510 . S
C156 C152 1.401 . S
C156 C155 1.396 . S
C157 C152 1.499 . S
C157 H158 0.959 . S
C157 H159 0.960 . S
C157 H160 0.961 . S
H158 C157 0.959 . S
H159 C157 0.960 . S
H160 C157 0.961 . S
O161 Co136 1.967 . S
O161 C169 1.258 . S
O162 Co137 1.941 . S
O162 C169 1.266 . S
H163 C165 0.959 . S
H164 C165 0.961 . S
C165 C155 1.510 . S
C165 H163 0.959 . S
C165 H164 0.961 . S
C165 H166 0.960 . S
H166 C165 0.960 . S
H167 N147 0.862 . S
O168 Co136 1.920 . S
O168 C141 1.289 . S
C169 O161 1.258 . S
C169 O162 1.266 . S
Co170 O173 1.970 . S
Co170 N187 1.989 . S
Co170 O195 1.967 . S
Co170 O202 1.920 . S
Co171 O174 1.966 . S
Co171 N180 2.022 . S
Co171 N188 1.993 . S
Co171 O196 1.941 . S
C172 O173 1.258 . S
C172 O174 1.263 . S
O173 Co170 1.970 . S
O173 C172 1.258 . S
O174 Co171 1.966 . S
O174 C172 1.263 . S
C175 O176 1.235 . S
C175 O202 1.289 . S
O176 C175 1.235 . S
C177 C179 1.400 . S
C177 N180 1.351 . S
C177 C182 1.501 . S
C178 C179 1.387 . S
C178 N181 1.341 . S
C179 C177 1.400 . S
C179 C178 1.387 . S
N180 Co171 2.022 . S
N180 C177 1.351 . S
N180 N181 1.365 . S
N181 C178 1.341 . S
N181 N180 1.365 . S
N181 H201 0.862 . S
C182 C177 1.501 . S
C182 H183 0.961 . S
C182 H184 0.961 . S
C182 H185 0.960 . S
H183 C182 0.961 . S
H184 C182 0.961 . S
H185 C182 0.960 . S
C186 N187 1.342 . S
C186 C190 1.401 . S
C186 C191 1.499 . S
N187 Co170 1.989 . S
N187 C186 1.342 . S
N187 N188 1.388 . S
N188 Co171 1.993 . S
N188 N187 1.388 . S
N188 C189 1.346 . S
C189 N188 1.346 . S
C189 C190 1.396 . S
C189 C199 1.510 . S
C190 C186 1.401 . S
C190 C189 1.396 . S
C191 C186 1.499 . S
C191 H192 0.959 . S
C191 H193 0.960 . S
C191 H194 0.961 . S
H192 C191 0.959 . S
H193 C191 0.960 . S
H194 C191 0.961 . S
O195 Co170 1.967 . S
O195 C203 1.258 . S
O196 Co171 1.941 . S
O196 C203 1.266 . S
H197 C199 0.959 . S
H198 C199 0.961 . S
C199 C189 1.510 . S
C199 H197 0.959 . S
C199 H198 0.961 . S
C199 H200 0.960 . S
H200 C199 0.960 . S
H201 N181 0.862 . S
O202 Co170 1.920 . S
O202 C175 1.289 . S
C203 O195 1.258 . S
C203 O196 1.266 . S
Co204 O207 1.970 . S
Co204 N221 1.989 . S
Co204 O229 1.967 . S
Co204 O236 1.920 . S
Co205 O208 1.966 . S
Co205 N214 2.022 . S
Co205 N222 1.993 . S
Co205 O230 1.941 . S
C206 O207 1.258 . S
C206 O208 1.263 . S
O207 Co204 1.970 . S
O207 C206 1.258 . S
O208 Co205 1.966 . S
O208 C206 1.263 . S
C209 O210 1.235 . S
C209 O236 1.289 . S
O210 C209 1.235 . S
C211 C213 1.400 . S
C211 N214 1.351 . S
C211 C216 1.501 . S
C212 C213 1.387 . S
C212 N215 1.341 . S
C213 C211 1.400 . S
C213 C212 1.387 . S
N214 Co205 2.022 . S
N214 C211 1.351 . S
N214 N215 1.365 . S
N215 C212 1.341 . S
N215 N214 1.365 . S
N215 H235 0.862 . S
C216 C211 1.501 . S
C216 H217 0.961 . S
C216 H218 0.961 . S
C216 H219 0.960 . S
H217 C216 0.961 . S
H218 C216 0.961 . S
H219 C216 0.960 . S
C220 N221 1.342 . S
C220 C224 1.401 . S
C220 C225 1.499 . S
N221 Co204 1.989 . S
N221 C220 1.342 . S
N221 N222 1.388 . S
N222 Co205 1.993 . S
N222 N221 1.388 . S
N222 C223 1.346 . S
C223 N222 1.346 . S
C223 C224 1.396 . S
C223 C233 1.510 . S
C224 C220 1.401 . S
C224 C223 1.396 . S
C225 C220 1.499 . S
C225 H226 0.959 . S
C225 H227 0.960 . S
C225 H228 0.961 . S
H226 C225 0.959 . S
H227 C225 0.960 . S
H228 C225 0.961 . S
O229 Co204 1.967 . S
O229 C237 1.258 . S
O230 Co205 1.941 . S
O230 C237 1.266 . S
H231 C233 0.959 . S
H232 C233 0.961 . S
C233 C223 1.510 . S
C233 H231 0.959 . S
C233 H232 0.961 . S
C233 H234 0.960 . S
H234 C233 0.960 . S
H235 N215 0.862 . S
O236 Co204 1.920 . S
O236 C209 1.289 . S
C237 O229 1.258 . S
C237 O230 1.266 . S
Co238 O241 1.970 . S
Co238 N255 1.989 . S
Co238 O263 1.967 . S
Co238 O270 1.920 . S
Co239 O242 1.966 . S
Co239 N248 2.022 . S
Co239 N256 1.993 . S
Co239 O264 1.941 . S
C240 O241 1.258 . S
C240 O242 1.263 . S
O241 Co238 1.970 . S
O241 C240 1.258 . S
O242 Co239 1.966 . S
O242 C240 1.263 . S
C243 O244 1.235 . S
C243 O270 1.289 . S
O244 C243 1.235 . S
C245 C247 1.400 . S
C245 N248 1.351 . S
C245 C250 1.501 . S
C246 C247 1.387 . S
C246 N249 1.341 . S
C247 C245 1.400 . S
C247 C246 1.387 . S
N248 Co239 2.022 . S
N248 C245 1.351 . S
N248 N249 1.365 . S
N249 C246 1.341 . S
N249 N248 1.365 . S
N249 H269 0.862 . S
C250 C245 1.501 . S
C250 H251 0.961 . S
C250 H252 0.961 . S
C250 H253 0.960 . S
H251 C250 0.961 . S
H252 C250 0.961 . S
H253 C250 0.960 . S
C254 N255 1.342 . S
C254 C258 1.401 . S
C254 C259 1.499 . S
N255 Co238 1.989 . S
N255 C254 1.342 . S
N255 N256 1.388 . S
N256 Co239 1.993 . S
N256 N255 1.388 . S
N256 C257 1.346 . S
C257 N256 1.346 . S
C257 C258 1.396 . S
C257 C267 1.510 . S
C258 C254 1.401 . S
C258 C257 1.396 . S
C259 C254 1.499 . S
C259 H260 0.959 . S
C259 H261 0.960 . S
C259 H262 0.961 . S
H260 C259 0.959 . S
H261 C259 0.960 . S
H262 C259 0.961 . S
O263 Co238 1.967 . S
O263 C271 1.258 . S
O264 Co239 1.941 . S
O264 C271 1.266 . S
H265 C267 0.959 . S
H266 C267 0.961 . S
C267 C257 1.510 . S
C267 H265 0.959 . S
C267 H266 0.961 . S
C267 H268 0.960 . S
H268 C267 0.960 . S
H269 N249 0.862 . S
O270 Co238 1.920 . S
O270 C243 1.289 . S
C271 O263 1.258 . S
C271 O264 1.266 . S
Co272 O275 1.970 . S
Co272 N289 1.989 . S
Co272 O297 1.967 . S
Co272 O304 1.920 . S
Co273 O276 1.966 . S
Co273 N282 2.022 . S
Co273 N290 1.993 . S
Co273 O298 1.941 . S
C274 O275 1.258 . S
C274 O276 1.263 . S
O275 Co272 1.970 . S
O275 C274 1.258 . S
O276 Co273 1.966 . S
O276 C274 1.263 . S
C277 O278 1.235 . S
C277 O304 1.289 . S
O278 C277 1.235 . S
C279 C281 1.400 . S
C279 N282 1.351 . S
C279 C284 1.501 . S
C280 C281 1.387 . S
C280 N283 1.341 . S
C281 C279 1.400 . S
C281 C280 1.387 . S
N282 Co273 2.022 . S
N282 C279 1.351 . S
N282 N283 1.365 . S
N283 C280 1.341 . S
N283 N282 1.365 . S
N283 H303 0.862 . S
C284 C279 1.501 . S
C284 H285 0.961 . S
C284 H286 0.961 . S
C284 H287 0.960 . S
H285 C284 0.961 . S
H286 C284 0.961 . S
H287 C284 0.960 . S
C288 N289 1.342 . S
C288 C292 1.401 . S
C288 C293 1.499 . S
N289 Co272 1.989 . S
N289 C288 1.342 . S
N289 N290 1.388 . S
N290 Co273 1.993 . S
N290 N289 1.388 . S
N290 C291 1.346 . S
C291 N290 1.346 . S
C291 C292 1.396 . S
C291 C301 1.510 . S
C292 C288 1.401 . S
C292 C291 1.396 . S
C293 C288 1.499 . S
C293 H294 0.959 . S
C293 H295 0.960 . S
C293 H296 0.961 . S
H294 C293 0.959 . S
H295 C293 0.960 . S
H296 C293 0.961 . S
O297 Co272 1.967 . S
O297 C305 1.258 . S
O298 Co273 1.941 . S
O298 C305 1.266 . S
H299 C301 0.959 . S
H300 C301 0.961 . S
C301 C291 1.510 . S
C301 H299 0.959 . S
C301 H300 0.961 . S
C301 H302 0.960 . S
H302 C301 0.960 . S
H303 N283 0.862 . S
O304 Co272 1.920 . S
O304 C277 1.289 . S
C305 O297 1.258 . S
C305 O298 1.266 . S
Co306 O309 1.970 . S
Co306 N323 1.989 . S
Co306 O331 1.967 . S
Co306 O338 1.920 . S
Co307 O310 1.966 . S
Co307 N316 2.022 . S
Co307 N324 1.993 . S
Co307 O332 1.941 . S
C308 O309 1.258 . S
C308 O310 1.263 . S
O309 Co306 1.970 . S
O309 C308 1.258 . S
O310 Co307 1.966 . S
O310 C308 1.263 . S
C311 O312 1.235 . S
C311 O338 1.289 . S
O312 C311 1.235 . S
C313 C315 1.400 . S
C313 N316 1.351 . S
C313 C318 1.501 . S
C314 C315 1.387 . S
C314 N317 1.341 . S
C315 C313 1.400 . S
C315 C314 1.387 . S
N316 Co307 2.022 . S
N316 C313 1.351 . S
N316 N317 1.365 . S
N317 C314 1.341 . S
N317 N316 1.365 . S
N317 H337 0.862 . S
C318 C313 1.501 . S
C318 H319 0.961 . S
C318 H320 0.961 . S
C318 H321 0.960 . S
H319 C318 0.961 . S
H320 C318 0.961 . S
H321 C318 0.960 . S
C322 N323 1.342 . S
C322 C326 1.401 . S
C322 C327 1.499 . S
N323 Co306 1.989 . S
N323 C322 1.342 . S
N323 N324 1.388 . S
N324 Co307 1.993 . S
N324 N323 1.388 . S
N324 C325 1.346 . S
C325 N324 1.346 . S
C325 C326 1.396 . S
C325 C335 1.510 . S
C326 C322 1.401 . S
C326 C325 1.396 . S
C327 C322 1.499 . S
C327 H328 0.959 . S
C327 H329 0.960 . S
C327 H330 0.961 . S
H328 C327 0.959 . S
H329 C327 0.960 . S
H330 C327 0.961 . S
O331 Co306 1.967 . S
O331 C339 1.258 . S
O332 Co307 1.941 . S
O332 C339 1.266 . S
H333 C335 0.959 . S
H334 C335 0.961 . S
C335 C325 1.510 . S
C335 H333 0.959 . S
C335 H334 0.961 . S
C335 H336 0.960 . S
H336 C335 0.960 . S
H337 N317 0.862 . S
O338 Co306 1.920 . S
O338 C311 1.289 . S
C339 O331 1.258 . S
C339 O332 1.266 . S
Co340 O343 1.970 . S
Co340 N357 1.989 . S
Co340 O365 1.967 . S
Co340 O372 1.920 . S
Co341 O344 1.966 . S
Co341 N350 2.022 . S
Co341 N358 1.993 . S
Co341 O366 1.941 . S
C342 O343 1.258 . S
C342 O344 1.263 . S
O343 Co340 1.970 . S
O343 C342 1.258 . S
O344 Co341 1.966 . S
O344 C342 1.263 . S
C345 O346 1.235 . S
C345 O372 1.289 . S
O346 C345 1.235 . S
C347 C349 1.400 . S
C347 N350 1.351 . S
C347 C352 1.501 . S
C348 C349 1.387 . S
C348 N351 1.341 . S
C349 C347 1.400 . S
C349 C348 1.387 . S
N350 Co341 2.022 . S
N350 C347 1.351 . S
N350 N351 1.365 . S
N351 C348 1.341 . S
N351 N350 1.365 . S
N351 H371 0.862 . S
C352 C347 1.501 . S
C352 H353 0.961 . S
C352 H354 0.961 . S
C352 H355 0.960 . S
H353 C352 0.961 . S
H354 C352 0.961 . S
H355 C352 0.960 . S
C356 N357 1.342 . S
C356 C360 1.401 . S
C356 C361 1.499 . S
N357 Co340 1.989 . S
N357 C356 1.342 . S
N357 N358 1.388 . S
N358 Co341 1.993 . S
N358 N357 1.388 . S
N358 C359 1.346 . S
C359 N358 1.346 . S
C359 C360 1.396 . S
C359 C369 1.510 . S
C360 C356 1.401 . S
C360 C359 1.396 . S
C361 C356 1.499 . S
C361 H362 0.959 . S
C361 H363 0.960 . S
C361 H364 0.961 . S
H362 C361 0.959 . S
H363 C361 0.960 . S
H364 C361 0.961 . S
O365 Co340 1.967 . S
O365 C373 1.258 . S
O366 Co341 1.941 . S
O366 C373 1.266 . S
H367 C369 0.959 . S
H368 C369 0.961 . S
C369 C359 1.510 . S
C369 H367 0.959 . S
C369 H368 0.961 . S
C369 H370 0.960 . S
H370 C369 0.960 . S
H371 N351 0.862 . S
O372 Co340 1.920 . S
O372 C345 1.289 . S
C373 O365 1.258 . S
C373 O366 1.266 . S
Co374 O377 1.970 . S
Co374 N391 1.989 . S
Co374 O399 1.967 . S
Co374 O406 1.920 . S
Co375 O378 1.966 . S
Co375 N384 2.022 . S
Co375 N392 1.993 . S
Co375 O400 1.941 . S
C376 O377 1.258 . S
C376 O378 1.263 . S
O377 Co374 1.970 . S
O377 C376 1.258 . S
O378 Co375 1.966 . S
O378 C376 1.263 . S
C379 O380 1.235 . S
C379 O406 1.289 . S
O380 C379 1.235 . S
C381 C383 1.400 . S
C381 N384 1.351 . S
C381 C386 1.501 . S
C382 C383 1.387 . S
C382 N385 1.341 . S
C383 C381 1.400 . S
C383 C382 1.387 . S
N384 Co375 2.022 . S
N384 C381 1.351 . S
N384 N385 1.365 . S
N385 C382 1.341 . S
N385 N384 1.365 . S
N385 H405 0.862 . S
C386 C381 1.501 . S
C386 H387 0.961 . S
C386 H388 0.961 . S
C386 H389 0.960 . S
H387 C386 0.961 . S
H388 C386 0.961 . S
H389 C386 0.960 . S
C390 N391 1.342 . S
C390 C394 1.401 . S
C390 C395 1.499 . S
N391 Co374 1.989 . S
N391 C390 1.342 . S
N391 N392 1.388 . S
N392 Co375 1.993 . S
N392 N391 1.388 . S
N392 C393 1.346 . S
C393 N392 1.346 . S
C393 C394 1.396 . S
C393 C403 1.510 . S
C394 C390 1.401 . S
C394 C393 1.396 . S
C395 C390 1.499 . S
C395 H396 0.959 . S
C395 H397 0.960 . S
C395 H398 0.961 . S
H396 C395 0.959 . S
H397 C395 0.960 . S
H398 C395 0.961 . S
O399 Co374 1.967 . S
O399 C407 1.258 . S
O400 Co375 1.941 . S
O400 C407 1.266 . S
H401 C403 0.959 . S
H402 C403 0.961 . S
C403 C393 1.510 . S
C403 H401 0.959 . S
C403 H402 0.961 . S
C403 H404 0.960 . S
H404 C403 0.960 . S
H405 N385 0.862 . S
O406 Co374 1.920 . S
O406 C379 1.289 . S
C407 O399 1.258 . S
C407 O400 1.266 . S
Co408 O411 1.970 . S
Co408 N425 1.989 . S
Co408 O433 1.967 . S
Co408 O440 1.920 . S
Co409 O412 1.966 . S
Co409 N418 2.022 . S
Co409 N426 1.993 . S
Co409 O434 1.941 . S
C410 O411 1.258 . S
C410 O412 1.263 . S
O411 Co408 1.970 . S
O411 C410 1.258 . S
O412 Co409 1.966 . S
O412 C410 1.263 . S
C413 O414 1.235 . S
C413 O440 1.289 . S
O414 C413 1.235 . S
C415 C417 1.400 . S
C415 N418 1.351 . S
C415 C420 1.501 . S
C416 C417 1.387 . S
C416 N419 1.341 . S
C417 C415 1.400 . S
C417 C416 1.387 . S
N418 Co409 2.022 . S
N418 C415 1.351 . S
N418 N419 1.365 . S
N419 C416 1.341 . S
N419 N418 1.365 . S
N419 H439 0.862 . S
C420 C415 1.501 . S
C420 H421 0.961 . S
C420 H422 0.961 . S
C420 H423 0.960 . S
H421 C420 0.961 . S
H422 C420 0.961 . S
H423 C420 0.960 . S
C424 N425 1.342 . S
C424 C428 1.401 . S
C424 C429 1.499 . S
N425 Co408 1.989 . S
N425 C424 1.342 . S
N425 N426 1.388 . S
N426 Co409 1.993 . S
N426 N425 1.388 . S
N426 C427 1.346 . S
C427 N426 1.346 . S
C427 C428 1.396 . S
C427 C437 1.510 . S
C428 C424 1.401 . S
C428 C427 1.396 . S
C429 C424 1.499 . S
C429 H430 0.959 . S
C429 H431 0.960 . S
C429 H432 0.961 . S
H430 C429 0.959 . S
H431 C429 0.960 . S
H432 C429 0.961 . S
O433 Co408 1.967 . S
O433 C441 1.258 . S
O434 Co409 1.941 . S
O434 C441 1.266 . S
H435 C437 0.959 . S
H436 C437 0.961 . S
C437 C427 1.510 . S
C437 H435 0.959 . S
C437 H436 0.961 . S
C437 H438 0.960 . S
H438 C437 0.960 . S
H439 N419 0.862 . S
O440 Co408 1.920 . S
O440 C413 1.289 . S
C441 O433 1.258 . S
C441 O434 1.266 . S
Co442 O445 1.970 . S
Co442 N459 1.989 . S
Co442 O467 1.967 . S
Co442 O474 1.920 . S
Co443 O446 1.966 . S
Co443 N452 2.022 . S
Co443 N460 1.993 . S
Co443 O468 1.941 . S
C444 O445 1.258 . S
C444 O446 1.263 . S
O445 Co442 1.970 . S
O445 C444 1.258 . S
O446 Co443 1.966 . S
O446 C444 1.263 . S
C447 O448 1.235 . S
C447 O474 1.289 . S
O448 C447 1.235 . S
C449 C451 1.400 . S
C449 N452 1.351 . S
C449 C454 1.501 . S
C450 C451 1.387 . S
C450 N453 1.341 . S
C451 C449 1.400 . S
C451 C450 1.387 . S
N452 Co443 2.022 . S
N452 C449 1.351 . S
N452 N453 1.365 . S
N453 C450 1.341 . S
N453 N452 1.365 . S
N453 H473 0.862 . S
C454 C449 1.501 . S
C454 H455 0.961 . S
C454 H456 0.961 . S
C454 H457 0.960 . S
H455 C454 0.961 . S
H456 C454 0.961 . S
H457 C454 0.960 . S
C458 N459 1.342 . S
C458 C462 1.401 . S
C458 C463 1.499 . S
N459 Co442 1.989 . S
N459 C458 1.342 . S
N459 N460 1.388 . S
N460 Co443 1.993 . S
N460 N459 1.388 . S
N460 C461 1.346 . S
C461 N460 1.346 . S
C461 C462 1.396 . S
C461 C471 1.510 . S
C462 C458 1.401 . S
C462 C461 1.396 . S
C463 C458 1.499 . S
C463 H464 0.959 . S
C463 H465 0.960 . S
C463 H466 0.961 . S
H464 C463 0.959 . S
H465 C463 0.960 . S
H466 C463 0.961 . S
O467 Co442 1.967 . S
O467 C475 1.258 . S
O468 Co443 1.941 . S
O468 C475 1.266 . S
H469 C471 0.959 . S
H470 C471 0.961 . S
C471 C461 1.510 . S
C471 H469 0.959 . S
C471 H470 0.961 . S
C471 H472 0.960 . S
H472 C471 0.960 . S
H473 N453 0.862 . S
O474 Co442 1.920 . S
O474 C447 1.289 . S
C475 O467 1.258 . S
C475 O468 1.266 . S
Co476 O479 1.970 . S
Co476 N493 1.989 . S
Co476 O501 1.967 . S
Co476 O508 1.920 . S
Co477 O480 1.966 . S
Co477 N486 2.022 . S
Co477 N494 1.993 . S
Co477 O502 1.941 . S
C478 O479 1.258 . S
C478 O480 1.263 . S
O479 Co476 1.970 . S
O479 C478 1.258 . S
O480 Co477 1.966 . S
O480 C478 1.263 . S
C481 O482 1.235 . S
C481 O508 1.289 . S
O482 C481 1.235 . S
C483 C485 1.400 . S
C483 N486 1.351 . S
C483 C488 1.501 . S
C484 C485 1.387 . S
C484 N487 1.341 . S
C485 C483 1.400 . S
C485 C484 1.387 . S
N486 Co477 2.022 . S
N486 C483 1.351 . S
N486 N487 1.365 . S
N487 C484 1.341 . S
N487 N486 1.365 . S
N487 H507 0.862 . S
C488 C483 1.501 . S
C488 H489 0.961 . S
C488 H490 0.961 . S
C488 H491 0.960 . S
H489 C488 0.961 . S
H490 C488 0.961 . S
H491 C488 0.960 . S
C492 N493 1.342 . S
C492 C496 1.401 . S
C492 C497 1.499 . S
N493 Co476 1.989 . S
N493 C492 1.342 . S
N493 N494 1.388 . S
N494 Co477 1.993 . S
N494 N493 1.388 . S
N494 C495 1.346 . S
C495 N494 1.346 . S
C495 C496 1.396 . S
C495 C505 1.510 . S
C496 C492 1.401 . S
C496 C495 1.396 . S
C497 C492 1.499 . S
C497 H498 0.959 . S
C497 H499 0.960 . S
C497 H500 0.961 . S
H498 C497 0.959 . S
H499 C497 0.960 . S
H500 C497 0.961 . S
O501 Co476 1.967 . S
O501 C509 1.258 . S
O502 Co477 1.941 . S
O502 C509 1.266 . S
H503 C505 0.959 . S
H504 C505 0.961 . S
C505 C495 1.510 . S
C505 H503 0.959 . S
C505 H504 0.961 . S
C505 H506 0.960 . S
H506 C505 0.960 . S
H507 N487 0.862 . S
O508 Co476 1.920 . S
O508 C481 1.289 . S
C509 O501 1.258 . S
C509 O502 1.266 . S
Co510 O513 1.970 . S
Co510 N527 1.989 . S
Co510 O535 1.967 . S
Co510 O542 1.920 . S
Co511 O514 1.966 . S
Co511 N520 2.022 . S
Co511 N528 1.993 . S
Co511 O536 1.941 . S
C512 O513 1.258 . S
C512 O514 1.263 . S
O513 Co510 1.970 . S
O513 C512 1.258 . S
O514 Co511 1.966 . S
O514 C512 1.263 . S
C515 O516 1.235 . S
C515 O542 1.289 . S
O516 C515 1.235 . S
C517 C519 1.400 . S
C517 N520 1.351 . S
C517 C522 1.501 . S
C518 C519 1.387 . S
C518 N521 1.341 . S
C519 C517 1.400 . S
C519 C518 1.387 . S
N520 Co511 2.022 . S
N520 C517 1.351 . S
N520 N521 1.365 . S
N521 C518 1.341 . S
N521 N520 1.365 . S
N521 H541 0.862 . S
C522 C517 1.501 . S
C522 H523 0.961 . S
C522 H524 0.961 . S
C522 H525 0.960 . S
H523 C522 0.961 . S
H524 C522 0.961 . S
H525 C522 0.960 . S
C526 N527 1.342 . S
C526 C530 1.401 . S
C526 C531 1.499 . S
N527 Co510 1.989 . S
N527 C526 1.342 . S
N527 N528 1.388 . S
N528 Co511 1.993 . S
N528 N527 1.388 . S
N528 C529 1.346 . S
C529 N528 1.346 . S
C529 C530 1.396 . S
C529 C539 1.510 . S
C530 C526 1.401 . S
C530 C529 1.396 . S
C531 C526 1.499 . S
C531 H532 0.959 . S
C531 H533 0.960 . S
C531 H534 0.961 . S
H532 C531 0.959 . S
H533 C531 0.960 . S
H534 C531 0.961 . S
O535 Co510 1.967 . S
O535 C543 1.258 . S
O536 Co511 1.941 . S
O536 C543 1.266 . S
H537 C539 0.959 . S
H538 C539 0.961 . S
C539 C529 1.510 . S
C539 H537 0.959 . S
C539 H538 0.961 . S
C539 H540 0.960 . S
H540 C539 0.960 . S
H541 N521 0.862 . S
O542 Co510 1.920 . S
O542 C515 1.289 . S
C543 O535 1.258 . S
C543 O536 1.266 . S
C544 C545 1.391 . S
C544 C546 1.394 . S
C544 H560 0.931 . S
C545 C544 1.391 . S
C545 C549 1.376 . S
C546 C544 1.394 . S
C546 C547 1.369 . S
C546 C550 1.531 . S
C547 C546 1.369 . S
C547 C548 1.410 . S
C547 C555 1.503 . S
C548 C547 1.410 . S
C548 C549 1.392 . S
C548 C551 1.511 . S
C549 C545 1.376 . S
C549 C548 1.392 . S
C549 H561 0.929 . S
C550 C546 1.531 . S
C550 H562 0.960 . S
C550 H563 0.962 . S
C550 H564 0.960 . S
C551 C548 1.511 . S
C551 H565 0.961 . S
C551 H566 0.961 . S
C551 H567 0.961 . S
C552 C553 1.370 . S
C552 C554 1.363 . S
C552 H568 0.931 . S
C553 C552 1.370 . S
C553 C557 1.408 . S
C554 C552 1.363 . S
C554 C555 1.370 . S
C554 C558 1.524 . S
C555 C547 1.503 . S
C555 C554 1.370 . S
C555 C556 1.403 . S
C556 C555 1.403 . S
C556 C557 1.404 . S
C556 C559 1.539 . S
C557 C553 1.408 . S
C557 C556 1.404 . S
C557 H569 0.930 . S
C558 C554 1.524 . S
C558 H570 0.956 . S
C558 H571 0.961 . S
C558 H572 0.961 . S
C559 C556 1.539 . S
C559 H573 0.958 . S
C559 H574 0.961 . S
C559 H575 0.960 . S
H560 C544 0.931 . S
H561 C549 0.929 . S
H562 C550 0.960 . S
H563 C550 0.962 . S
H564 C550 0.960 . S
H565 C551 0.961 . S
H566 C551 0.961 . S
H567 C551 0.961 . S
H568 C552 0.931 . S
H569 C557 0.930 . S
H570 C558 0.956 . S
H571 C558 0.961 . S
H572 C558 0.961 . S
H573 C559 0.958 . S
H574 C559 0.961 . S
H575 C559 0.960 . S
C576 C577 1.391 . S
C576 C578 1.394 . S
C576 H592 0.931 . S
C577 C576 1.391 . S
C577 C581 1.376 . S
C578 C576 1.394 . S
C578 C579 1.369 . S
C578 C582 1.531 . S
C579 C578 1.369 . S
C579 C580 1.410 . S
C579 C587 1.503 . S
C580 C579 1.410 . S
C580 C581 1.392 . S
C580 C583 1.511 . S
C581 C577 1.376 . S
C581 C580 1.392 . S
C581 H593 0.929 . S
C582 C578 1.531 . S
C582 H594 0.960 . S
C582 H595 0.962 . S
C582 H596 0.960 . S
C583 C580 1.511 . S
C583 H597 0.961 . S
C583 H598 0.961 . S
C583 H599 0.961 . S
C584 C585 1.370 . S
C584 C586 1.363 . S
C584 H600 0.931 . S
C585 C584 1.370 . S
C585 C589 1.408 . S
C586 C584 1.363 . S
C586 C587 1.370 . S
C586 C590 1.524 . S
C587 C579 1.503 . S
C587 C586 1.370 . S
C587 C588 1.403 . S
C588 C587 1.403 . S
C588 C589 1.404 . S
C588 C591 1.539 . S
C589 C585 1.408 . S
C589 C588 1.404 . S
C589 H601 0.930 . S
C590 C586 1.524 . S
C590 H602 0.956 . S
C590 H603 0.961 . S
C590 H604 0.961 . S
C591 C588 1.539 . S
C591 H605 0.958 . S
C591 H606 0.961 . S
C591 H607 0.960 . S
H592 C576 0.931 . S
H593 C581 0.929 . S
H594 C582 0.960 . S
H595 C582 0.962 . S
H596 C582 0.960 . S
H597 C583 0.961 . S
H598 C583 0.961 . S
H599 C583 0.961 . S
H600 C584 0.931 . S
H601 C589 0.930 . S
H602 C590 0.956 . S
H603 C590 0.961 . S
H604 C590 0.961 . S
H605 C591 0.958 . S
H606 C591 0.961 . S
H607 C591 0.960 . S
C608 C609 1.391 . S
C608 C610 1.394 . S
C608 H624 0.931 . S
C609 C608 1.391 . S
C609 C613 1.376 . S
C610 C608 1.394 . S
C610 C611 1.369 . S
C610 C614 1.531 . S
C611 C610 1.369 . S
C611 C612 1.410 . S
C611 C619 1.503 . S
C612 C611 1.410 . S
C612 C613 1.392 . S
C612 C615 1.511 . S
C613 C609 1.376 . S
C613 C612 1.392 . S
C613 H625 0.929 . S
C614 C610 1.531 . S
C614 H626 0.960 . S
C614 H627 0.962 . S
C614 H628 0.960 . S
C615 C612 1.511 . S
C615 H629 0.961 . S
C615 H630 0.961 . S
C615 H631 0.961 . S
C616 C617 1.370 . S
C616 C618 1.363 . S
C616 H632 0.931 . S
C617 C616 1.370 . S
C617 C621 1.408 . S
C618 C616 1.363 . S
C618 C619 1.370 . S
C618 C622 1.524 . S
C619 C611 1.503 . S
C619 C618 1.370 . S
C619 C620 1.403 . S
C620 C619 1.403 . S
C620 C621 1.404 . S
C620 C623 1.539 . S
C621 C617 1.408 . S
C621 C620 1.404 . S
C621 H633 0.930 . S
C622 C618 1.524 . S
C622 H634 0.956 . S
C622 H635 0.961 . S
C622 H636 0.961 . S
C623 C620 1.539 . S
C623 H637 0.958 . S
C623 H638 0.961 . S
C623 H639 0.960 . S
H624 C608 0.931 . S
H625 C613 0.929 . S
H626 C614 0.960 . S
H627 C614 0.962 . S
H628 C614 0.960 . S
H629 C615 0.961 . S
H630 C615 0.961 . S
H631 C615 0.961 . S
H632 C616 0.931 . S
H633 C621 0.930 . S
H634 C622 0.956 . S
H635 C622 0.961 . S
H636 C622 0.961 . S
H637 C623 0.958 . S
H638 C623 0.961 . S
H639 C623 0.960 . S
C640 C641 1.391 . S
C640 C642 1.394 . S
C640 H656 0.931 . S
C641 C640 1.391 . S
C641 C645 1.376 . S
C642 C640 1.394 . S
C642 C643 1.369 . S
C642 C646 1.531 . S
C643 C642 1.369 . S
C643 C644 1.410 . S
C643 C651 1.503 . S
C644 C643 1.410 . S
C644 C645 1.392 . S
C644 C647 1.511 . S
C645 C641 1.376 . S
C645 C644 1.392 . S
C645 H657 0.929 . S
C646 C642 1.531 . S
C646 H658 0.960 . S
C646 H659 0.962 . S
C646 H660 0.960 . S
C647 C644 1.511 . S
C647 H661 0.961 . S
C647 H662 0.961 . S
C647 H663 0.961 . S
C648 C649 1.370 . S
C648 C650 1.363 . S
C648 H664 0.931 . S
C649 C648 1.370 . S
C649 C653 1.408 . S
C650 C648 1.363 . S
C650 C651 1.370 . S
C650 C654 1.524 . S
C651 C643 1.503 . S
C651 C650 1.370 . S
C651 C652 1.403 . S
C652 C651 1.403 . S
C652 C653 1.404 . S
C652 C655 1.539 . S
C653 C649 1.408 . S
C653 C652 1.404 . S
C653 H665 0.930 . S
C654 C650 1.524 . S
C654 H666 0.956 . S
C654 H667 0.961 . S
C654 H668 0.961 . S
C655 C652 1.539 . S
C655 H669 0.958 . S
C655 H670 0.961 . S
C655 H671 0.960 . S
H656 C640 0.931 . S
H657 C645 0.929 . S
H658 C646 0.960 . S
H659 C646 0.962 . S
H660 C646 0.960 . S
H661 C647 0.961 . S
H662 C647 0.961 . S
H663 C647 0.961 . S
H664 C648 0.931 . S
H665 C653 0.930 . S
H666 C654 0.956 . S
H667 C654 0.961 . S
H668 C654 0.961 . S
H669 C655 0.958 . S
H670 C655 0.961 . S
H671 C655 0.960 . S
C672 C673 1.391 . S
C672 C674 1.394 . S
C672 H688 0.931 . S
C673 C672 1.391 . S
C673 C677 1.376 . S
C674 C672 1.394 . S
C674 C675 1.369 . S
C674 C678 1.531 . S
C675 C674 1.369 . S
C675 C676 1.410 . S
C675 C683 1.503 . S
C676 C675 1.410 . S
C676 C677 1.392 . S
C676 C679 1.511 . S
C677 C673 1.376 . S
C677 C676 1.392 . S
C677 H689 0.929 . S
C678 C674 1.531 . S
C678 H690 0.960 . S
C678 H691 0.962 . S
C678 H692 0.960 . S
C679 C676 1.511 . S
C679 H693 0.961 . S
C679 H694 0.961 . S
C679 H695 0.961 . S
C680 C681 1.370 . S
C680 C682 1.363 . S
C680 H696 0.931 . S
C681 C680 1.370 . S
C681 C685 1.408 . S
C682 C680 1.363 . S
C682 C683 1.370 . S
C682 C686 1.524 . S
C683 C675 1.503 . S
C683 C682 1.370 . S
C683 C684 1.403 . S
C684 C683 1.403 . S
C684 C685 1.404 . S
C684 C687 1.539 . S
C685 C681 1.408 . S
C685 C684 1.404 . S
C685 H697 0.930 . S
C686 C682 1.524 . S
C686 H698 0.956 . S
C686 H699 0.961 . S
C686 H700 0.961 . S
C687 C684 1.539 . S
C687 H701 0.958 . S
C687 H702 0.961 . S
C687 H703 0.960 . S
H688 C672 0.931 . S
H689 C677 0.929 . S
H690 C678 0.960 . S
H691 C678 0.962 . S
H692 C678 0.960 . S
H693 C679 0.961 . S
H694 C679 0.961 . S
H695 C679 0.961 . S
H696 C680 0.931 . S
H697 C685 0.930 . S
H698 C686 0.956 . S
H699 C686 0.961 . S
H700 C686 0.961 . S
H701 C687 0.958 . S
H702 C687 0.961 . S
H703 C687 0.960 . S
C704 C705 1.391 . S
C704 C706 1.394 . S
C704 H720 0.931 . S
C705 C704 1.391 . S
C705 C709 1.376 . S
C706 C704 1.394 . S
C706 C707 1.369 . S
C706 C710 1.531 . S
C707 C706 1.369 . S
C707 C708 1.410 . S
C707 C715 1.503 . S
C708 C707 1.410 . S
C708 C709 1.392 . S
C708 C711 1.511 . S
C709 C705 1.376 . S
C709 C708 1.392 . S
C709 H721 0.929 . S
C710 C706 1.531 . S
C710 H722 0.960 . S
C710 H723 0.962 . S
C710 H724 0.960 . S
C711 C708 1.511 . S
C711 H725 0.961 . S
C711 H726 0.961 . S
C711 H727 0.961 . S
C712 C713 1.370 . S
C712 C714 1.363 . S
C712 H728 0.931 . S
C713 C712 1.370 . S
C713 C717 1.408 . S
C714 C712 1.363 . S
C714 C715 1.370 . S
C714 C718 1.524 . S
C715 C707 1.503 . S
C715 C714 1.370 . S
C715 C716 1.403 . S
C716 C715 1.403 . S
C716 C717 1.404 . S
C716 C719 1.539 . S
C717 C713 1.408 . S
C717 C716 1.404 . S
C717 H729 0.930 . S
C718 C714 1.524 . S
C718 H730 0.956 . S
C718 H731 0.961 . S
C718 H732 0.961 . S
C719 C716 1.539 . S
C719 H733 0.958 . S
C719 H734 0.961 . S
C719 H735 0.960 . S
H720 C704 0.931 . S
H721 C709 0.929 . S
H722 C710 0.960 . S
H723 C710 0.962 . S
H724 C710 0.960 . S
H725 C711 0.961 . S
H726 C711 0.961 . S
H727 C711 0.961 . S
H728 C712 0.931 . S
H729 C717 0.930 . S
H730 C718 0.956 . S
H731 C718 0.961 . S
H732 C718 0.961 . S
H733 C719 0.958 . S
H734 C719 0.961 . S
H735 C719 0.960 . S
C736 C737 1.391 . S
C736 C738 1.394 . S
C736 H752 0.931 . S
C737 C736 1.391 . S
C737 C741 1.376 . S
C738 C736 1.394 . S
C738 C739 1.369 . S
C738 C742 1.531 . S
C739 C738 1.369 . S
C739 C740 1.410 . S
C739 C747 1.503 . S
C740 C739 1.410 . S
C740 C741 1.392 . S
C740 C743 1.511 . S
C741 C737 1.376 . S
C741 C740 1.392 . S
C741 H753 0.929 . S
C742 C738 1.531 . S
C742 H754 0.960 . S
C742 H755 0.962 . S
C742 H756 0.960 . S
C743 C740 1.511 . S
C743 H757 0.961 . S
C743 H758 0.961 . S
C743 H759 0.961 . S
C744 C745 1.370 . S
C744 C746 1.363 . S
C744 H760 0.931 . S
C745 C744 1.370 . S
C745 C749 1.408 . S
C746 C744 1.363 . S
C746 C747 1.370 . S
C746 C750 1.524 . S
C747 C739 1.503 . S
C747 C746 1.370 . S
C747 C748 1.403 . S
C748 C747 1.403 . S
C748 C749 1.404 . S
C748 C751 1.539 . S
C749 C745 1.408 . S
C749 C748 1.404 . S
C749 H761 0.930 . S
C750 C746 1.524 . S
C750 H762 0.956 . S
C750 H763 0.961 . S
C750 H764 0.961 . S
C751 C748 1.539 . S
C751 H765 0.958 . S
C751 H766 0.961 . S
C751 H767 0.960 . S
H752 C736 0.931 . S
H753 C741 0.929 . S
H754 C742 0.960 . S
H755 C742 0.962 . S
H756 C742 0.960 . S
H757 C743 0.961 . S
H758 C743 0.961 . S
H759 C743 0.961 . S
H760 C744 0.931 . S
H761 C749 0.930 . S
H762 C750 0.956 . S
H763 C750 0.961 . S
H764 C750 0.961 . S
H765 C751 0.958 . S
H766 C751 0.961 . S
H767 C751 0.960 . S
C768 C769 1.391 . S
C768 C770 1.394 . S
C768 H784 0.931 . S
C769 C768 1.391 . S
C769 C773 1.376 . S
C770 C768 1.394 . S
C770 C771 1.369 . S
C770 C774 1.531 . S
C771 C770 1.369 . S
C771 C772 1.410 . S
C771 C779 1.503 . S
C772 C771 1.410 . S
C772 C773 1.392 . S
C772 C775 1.511 . S
C773 C769 1.376 . S
C773 C772 1.392 . S
C773 H785 0.929 . S
C774 C770 1.531 . S
C774 H786 0.960 . S
C774 H787 0.962 . S
C774 H788 0.960 . S
C775 C772 1.511 . S
C775 H789 0.961 . S
C775 H790 0.961 . S
C775 H791 0.961 . S
C776 C777 1.370 . S
C776 C778 1.363 . S
C776 H792 0.931 . S
C777 C776 1.370 . S
C777 C781 1.408 . S
C778 C776 1.363 . S
C778 C779 1.370 . S
C778 C782 1.524 . S
C779 C771 1.503 . S
C779 C778 1.370 . S
C779 C780 1.403 . S
C780 C779 1.403 . S
C780 C781 1.404 . S
C780 C783 1.539 . S
C781 C777 1.408 . S
C781 C780 1.404 . S
C781 H793 0.930 . S
C782 C778 1.524 . S
C782 H794 0.956 . S
C782 H795 0.961 . S
C782 H796 0.961 . S
C783 C780 1.539 . S
C783 H797 0.958 . S
C783 H798 0.961 . S
C783 H799 0.960 . S
H784 C768 0.931 . S
H785 C773 0.929 . S
H786 C774 0.960 . S
H787 C774 0.962 . S
H788 C774 0.960 . S
H789 C775 0.961 . S
H790 C775 0.961 . S
H791 C775 0.961 . S
H792 C776 0.931 . S
H793 C781 0.930 . S
H794 C782 0.956 . S
H795 C782 0.961 . S
H796 C782 0.961 . S
H797 C783 0.958 . S
H798 C783 0.961 . S
H799 C783 0.960 . S
C800 C801 1.391 . S
C800 C802 1.394 . S
C800 H816 0.931 . S
C801 C800 1.391 . S
C801 C805 1.376 . S
C802 C800 1.394 . S
C802 C803 1.369 . S
C802 C806 1.531 . S
C803 C802 1.369 . S
C803 C804 1.410 . S
C803 C811 1.503 1_445 S
C804 C803 1.410 . S
C804 C805 1.392 . S
C804 C807 1.511 1_455 S
C805 C801 1.376 . S
C805 C804 1.392 . S
C805 H817 0.929 . S
C806 C802 1.531 . S
C806 H818 0.959 1_445 S
C806 H819 0.962 1_545 S
C806 H820 0.960 . S
C807 C804 1.511 1_655 S
C807 H821 0.961 1_655 S
C807 H822 0.961 . S
C807 H823 0.961 . S
C808 C809 1.370 . S
C808 C810 1.363 . S
C808 H824 0.931 . S
C809 C808 1.370 . S
C809 C813 1.408 . S
C810 C808 1.363 . S
C810 C811 1.370 . S
C810 C814 1.524 1_655 S
C811 C803 1.503 1_665 S
C811 C810 1.370 . S
C811 C812 1.403 . S
C812 C811 1.403 . S
C812 C813 1.404 . S
C812 C815 1.539 1_565 S
C813 C809 1.408 . S
C813 C812 1.404 . S
C813 H825 0.930 . S
C814 C810 1.524 1_455 S
C814 H826 0.956 . S
C814 H827 0.961 . S
C814 H828 0.961 . S
C815 C812 1.539 1_545 S
C815 H829 0.958 . S
C815 H830 0.961 . S
C815 H831 0.960 . S
H816 C800 0.931 . S
H817 C805 0.929 . S
H818 C806 0.959 1_665 S
H819 C806 0.962 1_565 S
H820 C806 0.960 . S
H821 C807 0.961 1_455 S
H822 C807 0.961 . S
H823 C807 0.961 . S
H824 C808 0.931 . S
H825 C813 0.930 . S
H826 C814 0.956 . S
H827 C814 0.961 . S
H828 C814 0.961 . S
H829 C815 0.958 . S
H830 C815 0.961 . S
H831 C815 0.960 . S
C832 C833 1.391 . S
C832 C834 1.394 . S
C832 H848 0.931 . S
C833 C832 1.391 . S
C833 C837 1.376 . S
C834 C832 1.394 . S
C834 C835 1.369 . S
C834 C838 1.531 1_655 S
C835 C834 1.369 . S
C835 C836 1.410 . S
C835 C843 1.503 1_645 S
C836 C835 1.410 . S
C836 C837 1.392 . S
C836 C839 1.511 1_545 S
C837 C833 1.376 . S
C837 C836 1.392 . S
C837 H849 0.929 . S
C838 C834 1.531 1_455 S
C838 H850 0.960 . S
C838 H851 0.962 . S
C838 H852 0.960 . S
C839 C836 1.511 1_565 S
C839 H853 0.961 . S
C839 H854 0.961 . S
C839 H855 0.961 . S
C840 C841 1.370 . S
C840 C842 1.363 . S
C840 H856 0.931 . S
C841 C840 1.370 . S
C841 C845 1.408 . S
C842 C840 1.363 . S
C842 C843 1.370 . S
C842 C846 1.524 1_565 S
C843 C835 1.503 1_465 S
C843 C842 1.370 . S
C843 C844 1.403 . S
C844 C843 1.403 . S
C844 C845 1.404 . S
C844 C847 1.539 1_455 S
C845 C841 1.408 . S
C845 C844 1.404 . S
C845 H857 0.930 . S
C846 C842 1.524 1_545 S
C846 H858 0.956 . S
C846 H859 0.961 . S
C846 H860 0.961 . S
C847 C844 1.539 1_655 S
C847 H861 0.958 . S
C847 H862 0.961 . S
C847 H863 0.960 . S
H848 C832 0.931 . S
H849 C837 0.929 . S
H850 C838 0.960 . S
H851 C838 0.962 . S
H852 C838 0.960 . S
H853 C839 0.961 . S
H854 C839 0.961 . S
H855 C839 0.961 . S
H856 C840 0.931 . S
H857 C845 0.930 . S
H858 C846 0.956 . S
H859 C846 0.961 . S
H860 C846 0.961 . S
H861 C847 0.958 . S
H862 C847 0.961 . S
H863 C847 0.960 . S
C864 C865 1.391 . S
C864 C866 1.394 . S
C864 H880 0.931 . S
C865 C864 1.391 . S
C865 C869 1.376 . S
C866 C864 1.394 . S
C866 C867 1.369 . S
C866 C870 1.531 1_655 S
C867 C866 1.369 . S
C867 C868 1.410 . S
C867 C875 1.503 1_645 S
C868 C867 1.410 . S
C868 C869 1.392 . S
C868 C871 1.511 1_545 S
C869 C865 1.376 . S
C869 C868 1.392 . S
C869 H881 0.929 . S
C870 C866 1.531 1_455 S
C870 H882 0.960 . S
C870 H883 0.962 . S
C870 H884 0.960 . S
C871 C868 1.511 1_565 S
C871 H885 0.961 . S
C871 H886 0.961 . S
C871 H887 0.961 . S
C872 C873 1.370 . S
C872 C874 1.363 . S
C872 H888 0.931 . S
C873 C872 1.370 . S
C873 C877 1.408 . S
C874 C872 1.363 . S
C874 C875 1.370 . S
C874 C878 1.524 1_565 S
C875 C867 1.503 1_465 S
C875 C874 1.370 . S
C875 C876 1.403 . S
C876 C875 1.403 . S
C876 C877 1.404 . S
C876 C879 1.539 1_455 S
C877 C873 1.408 . S
C877 C876 1.404 . S
C877 H889 0.930 . S
C878 C874 1.524 1_545 S
C878 H890 0.956 . S
C878 H891 0.961 . S
C878 H892 0.961 . S
C879 C876 1.539 1_655 S
C879 H893 0.958 . S
C879 H894 0.961 . S
C879 H895 0.960 . S
H880 C864 0.931 . S
H881 C869 0.929 . S
H882 C870 0.960 . S
H883 C870 0.962 . S
H884 C870 0.960 . S
H885 C871 0.961 . S
H886 C871 0.961 . S
H887 C871 0.961 . S
H888 C872 0.931 . S
H889 C877 0.930 . S
H890 C878 0.956 . S
H891 C878 0.961 . S
H892 C878 0.961 . S
H893 C879 0.958 . S
H894 C879 0.961 . S
H895 C879 0.960 . S
C896 C897 1.391 . S
C896 C898 1.394 . S
C896 H912 0.931 . S
C897 C896 1.391 . S
C897 C901 1.376 . S
C898 C896 1.394 . S
C898 C899 1.369 . S
C898 C902 1.531 1_455 S
C899 C898 1.369 . S
C899 C900 1.410 . S
C899 C907 1.503 1_445 S
C900 C899 1.410 . S
C900 C901 1.392 . S
C900 C903 1.511 1_545 S
C901 C897 1.376 . S
C901 C900 1.392 . S
C901 H913 0.929 . S
C902 C898 1.531 1_655 S
C902 H914 0.960 . S
C902 H915 0.962 . S
C902 H916 0.960 . S
C903 C900 1.511 1_565 S
C903 H917 0.961 . S
C903 H918 0.961 . S
C903 H919 0.961 1_565 S
C904 C905 1.370 . S
C904 C906 1.363 . S
C904 H920 0.931 . S
C905 C904 1.370 . S
C905 C909 1.408 . S
C906 C904 1.363 . S
C906 C907 1.370 . S
C906 C910 1.524 1_655 S
C907 C899 1.503 1_665 S
C907 C906 1.370 . S
C907 C908 1.403 . S
C908 C907 1.403 . S
C908 C909 1.404 . S
C908 C911 1.539 1_565 S
C909 C905 1.408 . S
C909 C908 1.404 . S
C909 H921 0.930 . S
C910 C906 1.524 1_455 S
C910 H922 0.956 . S
C910 H923 0.961 . S
C910 H924 0.961 . S
C911 C908 1.539 1_545 S
C911 H925 0.958 . S
C911 H926 0.961 . S
C911 H927 0.960 . S
H912 C896 0.931 . S
H913 C901 0.929 . S
H914 C902 0.960 . S
H915 C902 0.962 . S
H916 C902 0.960 . S
H917 C903 0.961 . S
H918 C903 0.961 . S
H919 C903 0.961 1_545 S
H920 C904 0.931 . S
H921 C909 0.930 . S
H922 C910 0.956 . S
H923 C910 0.961 . S
H924 C910 0.961 . S
H925 C911 0.958 . S
H926 C911 0.961 . S
H927 C911 0.960 . S
C928 C929 1.391 . S
C928 C930 1.394 . S
C928 H944 0.931 . S
C929 C928 1.391 . S
C929 C933 1.376 . S
C930 C928 1.394 . S
C930 C931 1.369 . S
C930 C934 1.531 . S
C931 C930 1.369 . S
C931 C932 1.410 . S
C931 C939 1.503 . S
C932 C931 1.410 . S
C932 C933 1.392 . S
C932 C935 1.511 . S
C933 C929 1.376 . S
C933 C932 1.392 . S
C933 H945 0.929 . S
C934 C930 1.531 . S
C934 H946 0.960 . S
C934 H947 0.962 . S
C934 H948 0.960 . S
C935 C932 1.511 . S
C935 H949 0.961 . S
C935 H950 0.961 . S
C935 H951 0.961 . S
C936 C937 1.370 . S
C936 C938 1.363 . S
C936 H952 0.931 . S
C937 C936 1.370 . S
C937 C941 1.408 . S
C938 C936 1.363 . S
C938 C939 1.370 . S
C938 C942 1.524 . S
C939 C931 1.503 . S
C939 C938 1.370 . S
C939 C940 1.403 . S
C940 C939 1.403 . S
C940 C941 1.404 . S
C940 C943 1.539 . S
C941 C937 1.408 . S
C941 C940 1.404 . S
C941 H953 0.930 . S
C942 C938 1.524 . S
C942 H954 0.956 . S
C942 H955 0.961 . S
C942 H956 0.961 . S
C943 C940 1.539 . S
C943 H957 0.958 . S
C943 H958 0.961 . S
C943 H959 0.960 . S
H944 C928 0.931 . S
H945 C933 0.929 . S
H946 C934 0.960 . S
H947 C934 0.962 . S
H948 C934 0.960 . S
H949 C935 0.961 . S
H950 C935 0.961 . S
H951 C935 0.961 . S
H952 C936 0.931 . S
H953 C941 0.930 . S
H954 C942 0.956 . S
H955 C942 0.961 . S
H956 C942 0.961 . S
H957 C943 0.958 . S
H958 C943 0.961 . S
H959 C943 0.960 . S
C960 C961 1.391 . S
C960 C962 1.394 . S
C960 H976 0.931 . S
C961 C960 1.391 . S
C961 C965 1.376 . S
C962 C960 1.394 . S
C962 C963 1.369 . S
C962 C966 1.531 . S
C963 C962 1.369 . S
C963 C964 1.410 . S
C963 C971 1.503 . S
C964 C963 1.410 . S
C964 C965 1.392 . S
C964 C967 1.511 . S
C965 C961 1.376 . S
C965 C964 1.392 . S
C965 H977 0.929 . S
C966 C962 1.531 . S
C966 H978 0.960 . S
C966 H979 0.962 . S
C966 H980 0.960 . S
C967 C964 1.511 . S
C967 H981 0.961 . S
C967 H982 0.961 . S
C967 H983 0.961 . S
C968 C969 1.370 . S
C968 C970 1.363 . S
C968 H984 0.931 . S
C969 C968 1.370 . S
C969 C973 1.408 . S
C970 C968 1.363 . S
C970 C971 1.370 . S
C970 C974 1.524 . S
C971 C963 1.503 . S
C971 C970 1.370 . S
C971 C972 1.403 . S
C972 C971 1.403 . S
C972 C973 1.404 . S
C972 C975 1.539 . S
C973 C969 1.408 . S
C973 C972 1.404 . S
C973 H985 0.930 . S
C974 C970 1.524 . S
C974 H986 0.956 . S
C974 H987 0.961 . S
C974 H988 0.961 . S
C975 C972 1.539 . S
C975 H989 0.958 . S
C975 H990 0.961 . S
C975 H991 0.960 . S
H976 C960 0.931 . S
H977 C965 0.929 . S
H978 C966 0.960 . S
H979 C966 0.962 . S
H980 C966 0.960 . S
H981 C967 0.961 . S
H982 C967 0.961 . S
H983 C967 0.961 . S
H984 C968 0.931 . S
H985 C973 0.930 . S
H986 C974 0.956 . S
H987 C974 0.961 . S
H988 C974 0.961 . S
H989 C975 0.958 . S
H990 C975 0.961 . S
H991 C975 0.960 . S
C992 C993 1.391 . S
C992 C994 1.394 . S
C992 H1008 0.931 . S
C993 C992 1.391 . S
C993 C997 1.376 . S
C994 C992 1.394 . S
C994 C995 1.369 . S
C994 C998 1.531 . S
C995 C994 1.369 . S
C995 C996 1.410 . S
C995 C1003 1.503 . S
C996 C995 1.410 . S
C996 C997 1.392 . S
C996 C999 1.511 . S
C997 C993 1.376 . S
C997 C996 1.392 . S
C997 H1009 0.929 . S
C998 C994 1.531 . S
C998 H1010 0.960 . S
C998 H1011 0.962 . S
C998 H1012 0.960 . S
C999 C996 1.511 . S
C999 H1013 0.961 . S
C999 H1014 0.961 . S
C999 H1015 0.961 . S
C1000 C1001 1.370 . S
C1000 C1002 1.363 . S
C1000 H1016 0.931 . S
C1001 C1000 1.370 . S
C1001 C1005 1.408 . S
C1002 C1000 1.363 . S
C1002 C1003 1.370 . S
C1002 C1006 1.524 . S
C1003 C995 1.503 . S
C1003 C1002 1.370 . S
C1003 C1004 1.403 . S
C1004 C1003 1.403 . S
C1004 C1005 1.404 . S
C1004 C1007 1.539 . S
C1005 C1001 1.408 . S
C1005 C1004 1.404 . S
C1005 H1017 0.930 . S
C1006 C1002 1.524 . S
C1006 H1018 0.956 . S
C1006 H1019 0.961 . S
C1006 H1020 0.961 . S
C1007 C1004 1.539 . S
C1007 H1021 0.958 . S
C1007 H1022 0.961 . S
C1007 H1023 0.960 . S
H1008 C992 0.931 . S
H1009 C997 0.929 . S
H1010 C998 0.960 . S
H1011 C998 0.962 . S
H1012 C998 0.960 . S
H1013 C999 0.961 . S
H1014 C999 0.961 . S
H1015 C999 0.961 . S
H1016 C1000 0.931 . S
H1017 C1005 0.930 . S
H1018 C1006 0.956 . S
H1019 C1006 0.961 . S
H1020 C1006 0.961 . S
H1021 C1007 0.958 . S
H1022 C1007 0.961 . S
H1023 C1007 0.960 . S
C1024 C1025 1.391 . S
C1024 C1026 1.394 . S
C1024 H1040 0.931 . S
C1025 C1024 1.391 . S
C1025 C1029 1.376 . S
C1026 C1024 1.394 . S
C1026 C1027 1.369 . S
C1026 C1030 1.531 . S
C1027 C1026 1.369 . S
C1027 C1028 1.410 . S
C1027 C1035 1.503 . S
C1028 C1027 1.410 . S
C1028 C1029 1.392 . S
C1028 C1031 1.511 . S
C1029 C1025 1.376 . S
C1029 C1028 1.392 . S
C1029 H1041 0.929 . S
C1030 C1026 1.531 . S
C1030 H1042 0.960 . S
C1030 H1043 0.962 . S
C1030 H1044 0.960 . S
C1031 C1028 1.511 . S
C1031 H1045 0.961 . S
C1031 H1046 0.961 . S
C1031 H1047 0.961 . S
C1032 C1033 1.370 . S
C1032 C1034 1.363 . S
C1032 H1048 0.931 . S
C1033 C1032 1.370 . S
C1033 C1037 1.408 . S
C1034 C1032 1.363 . S
C1034 C1035 1.370 . S
C1034 C1038 1.524 . S
C1035 C1027 1.503 . S
C1035 C1034 1.370 . S
C1035 C1036 1.403 . S
C1036 C1035 1.403 . S
C1036 C1037 1.404 . S
C1036 C1039 1.539 . S
C1037 C1033 1.408 . S
C1037 C1036 1.404 . S
C1037 H1049 0.930 . S
C1038 C1034 1.524 . S
C1038 H1050 0.956 . S
C1038 H1051 0.961 . S
C1038 H1052 0.961 . S
C1039 C1036 1.539 . S
C1039 H1053 0.958 . S
C1039 H1054 0.961 . S
C1039 H1055 0.960 . S
H1040 C1024 0.931 . S
H1041 C1029 0.929 . S
H1042 C1030 0.960 . S
H1043 C1030 0.962 . S
H1044 C1030 0.960 . S
H1045 C1031 0.961 . S
H1046 C1031 0.961 . S
H1047 C1031 0.961 . S
H1048 C1032 0.931 . S
H1049 C1037 0.930 . S
H1050 C1038 0.956 . S
H1051 C1038 0.961 . S
H1052 C1038 0.961 . S
H1053 C1039 0.958 . S
H1054 C1039 0.961 . S
H1055 C1039 0.960 . S
C1056 C1057 1.391 . S
C1056 C1058 1.394 . S
C1056 H1072 0.931 . S
C1057 C1056 1.391 . S
C1057 C1061 1.376 . S
C1058 C1056 1.394 . S
C1058 C1059 1.369 . S
C1058 C1062 1.531 . S
C1059 C1058 1.369 . S
C1059 C1060 1.410 . S
C1059 C1067 1.503 1_556 S
C1060 C1059 1.410 . S
C1060 C1061 1.392 . S
C1060 C1063 1.511 1_556 S
C1061 C1057 1.376 . S
C1061 C1060 1.392 . S
C1061 H1073 0.929 . S
C1062 C1058 1.531 . S
C1062 H1074 0.960 . S
C1062 H1075 0.962 . S
C1062 H1076 0.960 . S
C1063 C1060 1.511 1_554 S
C1063 H1077 0.975 . S
C1063 H1078 0.961 . S
C1063 H1079 0.961 . S
C1064 C1065 1.370 . S
C1064 C1066 1.363 . S
C1064 H1080 0.931 . S
C1065 C1064 1.370 . S
C1065 C1069 1.408 . S
C1066 C1064 1.363 . S
C1066 C1067 1.370 . S
C1066 C1070 1.524 . S
C1067 C1059 1.503 1_554 S
C1067 C1066 1.370 . S
C1067 C1068 1.403 . S
C1068 C1067 1.403 . S
C1068 C1069 1.404 . S
C1068 C1071 1.539 . S
C1069 C1065 1.408 . S
C1069 C1068 1.404 . S
C1069 H1081 0.930 . S
C1070 C1066 1.524 . S
C1070 H1082 0.956 1_554 S
C1070 H1083 0.961 . S
C1070 H1084 0.961 . S
C1071 C1068 1.539 . S
C1071 H1085 0.958 . S
C1071 H1086 0.961 . S
C1071 H1087 0.960 . S
H1072 C1056 0.931 . S
H1073 C1061 0.929 . S
H1074 C1062 0.960 . S
H1075 C1062 0.962 . S
H1076 C1062 0.960 . S
H1077 C1063 0.975 . S
H1078 C1063 0.961 . S
H1079 C1063 0.961 . S
H1080 C1064 0.931 . S
H1081 C1069 0.930 . S
H1082 C1070 0.956 1_556 S
H1083 C1070 0.961 . S
H1084 C1070 0.961 . S
H1085 C1071 0.958 . S
H1086 C1071 0.961 . S
H1087 C1071 0.960 . S
C1088 C1089 1.391 . S
C1088 C1090 1.394 . S
C1088 H1104 0.931 . S
C1089 C1088 1.391 . S
C1089 C1093 1.376 . S
C1090 C1088 1.394 . S
C1090 C1091 1.369 . S
C1090 C1094 1.528 . S
C1091 C1090 1.369 . S
C1091 C1092 1.410 . S
C1091 C1099 1.503 1_554 S
C1092 C1091 1.410 . S
C1092 C1093 1.392 . S
C1092 C1095 1.511 . S
C1093 C1089 1.376 . S
C1093 C1092 1.392 . S
C1093 H1105 0.929 . S
C1094 C1090 1.528 . S
C1094 H1106 0.964 1_554 S
C1094 H1107 0.962 . S
C1094 H1108 0.959 . S
C1095 C1092 1.511 . S
C1095 H1109 0.961 . S
C1095 H1110 0.961 . S
C1095 H1111 0.961 . S
C1096 C1097 1.370 . S
C1096 C1098 1.363 . S
C1096 H1112 0.931 . S
C1097 C1096 1.370 . S
C1097 C1101 1.408 . S
C1098 C1096 1.363 . S
C1098 C1099 1.370 . S
C1098 C1102 1.524 1_556 S
C1099 C1091 1.503 1_556 S
C1099 C1098 1.370 . S
C1099 C1100 1.403 . S
C1100 C1099 1.403 . S
C1100 C1101 1.404 . S
C1100 C1103 1.539 . S
C1101 C1097 1.408 . S
C1101 C1100 1.404 . S
C1101 H1113 0.930 . S
C1102 C1098 1.524 1_554 S
C1102 H1114 0.956 . S
C1102 H1115 0.961 . S
C1102 H1116 0.961 1_554 S
C1103 C1100 1.539 . S
C1103 H1117 0.958 . S
C1103 H1118 0.961 . S
C1103 H1119 0.960 . S
H1104 C1088 0.931 . S
H1105 C1093 0.929 . S
H1106 C1094 0.964 1_556 S
H1107 C1094 0.962 . S
H1108 C1094 0.959 . S
H1109 C1095 0.961 . S
H1110 C1095 0.961 . S
H1111 C1095 0.961 . S
H1112 C1096 0.931 . S
H1113 C1101 0.930 . S
H1114 C1102 0.956 . S
H1115 C1102 0.961 . S
H1116 C1102 0.961 1_556 S
H1117 C1103 0.958 . S
H1118 C1103 0.961 . S
H1119 C1103 0.960 . S
C1120 C1121 1.391 . S
C1120 C1122 1.394 . S
C1120 H1136 0.931 . S
C1121 C1120 1.391 . S
C1121 C1125 1.376 . S
C1122 C1120 1.394 . S
C1122 C1123 1.369 . S
C1122 C1126 1.531 1_556 S
C1123 C1122 1.369 . S
C1123 C1124 1.410 . S
C1123 C1131 1.503 1_556 S
C1124 C1123 1.410 . S
C1124 C1125 1.392 . S
C1124 C1127 1.511 . S
C1125 C1121 1.376 . S
C1125 C1124 1.392 . S
C1125 H1137 0.929 . S
C1126 C1122 1.531 1_554 S
C1126 H1138 0.960 . S
C1126 H1139 0.962 . S
C1126 H1140 0.978 . S
C1127 C1124 1.511 . S
C1127 H1141 0.961 . S
C1127 H1142 0.961 . S
C1127 H1143 0.961 . S
C1128 C1129 1.370 . S
C1128 C1130 1.363 . S
C1128 H1144 0.931 . S
C1129 C1128 1.370 . S
C1129 C1133 1.408 . S
C1130 C1128 1.363 . S
C1130 C1131 1.370 . S
C1130 C1134 1.524 . S
C1131 C1123 1.503 1_554 S
C1131 C1130 1.370 . S
C1131 C1132 1.403 . S
C1132 C1131 1.403 . S
C1132 C1133 1.404 . S
C1132 C1135 1.539 . S
C1133 C1129 1.408 . S
C1133 C1132 1.404 . S
C1133 H1145 0.930 . S
C1134 C1130 1.524 . S
C1134 H1146 0.970 . S
C1134 H1147 0.961 1_554 S
C1134 H1148 0.961 . S
C1135 C1132 1.539 . S
C1135 H1149 0.958 . S
C1135 H1150 0.961 . S
C1135 H1151 0.960 . S
H1136 C1120 0.931 . S
H1137 C1125 0.929 . S
H1138 C1126 0.960 . S
H1139 C1126 0.962 . S
H1140 C1126 0.978 . S
H1141 C1127 0.961 . S
H1142 C1127 0.961 . S
H1143 C1127 0.961 . S
H1144 C1128 0.931 . S
H1145 C1133 0.930 . S
H1146 C1134 0.970 . S
H1147 C1134 0.961 1_556 S
H1148 C1134 0.961 . S
H1149 C1135 0.958 . S
H1150 C1135 0.961 . S
H1151 C1135 0.960 . S
C1152 C1153 1.391 . S
C1152 C1154 1.394 . S
C1152 H1168 0.931 . S
C1153 C1152 1.391 . S
C1153 C1157 1.376 . S
C1154 C1152 1.394 . S
C1154 C1155 1.369 . S
C1154 C1158 1.531 . S
C1155 C1154 1.369 . S
C1155 C1156 1.410 . S
C1155 C1163 1.503 1_556 S
C1156 C1155 1.410 . S
C1156 C1157 1.392 . S
C1156 C1159 1.511 1_556 S
C1157 C1153 1.376 . S
C1157 C1156 1.392 . S
C1157 H1169 0.929 . S
C1158 C1154 1.531 . S
C1158 H1170 0.960 . S
C1158 H1171 0.962 . S
C1158 H1172 0.960 . S
C1159 C1156 1.511 1_554 S
C1159 H1173 0.961 1_554 S
C1159 H1174 0.961 . S
C1159 H1175 0.961 . S
C1160 C1161 1.370 . S
C1160 C1162 1.363 . S
C1160 H1176 0.931 . S
C1161 C1160 1.370 . S
C1161 C1165 1.408 . S
C1162 C1160 1.363 . S
C1162 C1163 1.370 . S
C1162 C1166 1.524 1_554 S
C1163 C1155 1.503 1_554 S
C1163 C1162 1.370 . S
C1163 C1164 1.403 . S
C1164 C1163 1.403 . S
C1164 C1165 1.404 . S
C1164 C1167 1.539 . S
C1165 C1161 1.408 . S
C1165 C1164 1.404 . S
C1165 H1177 0.930 . S
C1166 C1162 1.524 1_556 S
C1166 H1178 0.956 . S
C1166 H1179 0.961 . S
C1166 H1180 0.961 1_556 S
C1167 C1164 1.539 . S
C1167 H1181 0.958 . S
C1167 H1182 0.961 . S
C1167 H1183 0.960 . S
H1168 C1152 0.931 . S
H1169 C1157 0.929 . S
H1170 C1158 0.960 . S
H1171 C1158 0.962 . S
H1172 C1158 0.960 . S
H1173 C1159 0.961 1_556 S
H1174 C1159 0.961 . S
H1175 C1159 0.961 . S
H1176 C1160 0.931 . S
H1177 C1165 0.930 . S
H1178 C1166 0.956 . S
H1179 C1166 0.961 . S
H1180 C1166 0.961 1_554 S
H1181 C1167 0.958 . S
H1182 C1167 0.961 . S
H1183 C1167 0.960 . S
C1184 C1185 1.391 . S
C1184 C1186 1.394 . S
C1184 H1200 0.931 . S
C1185 C1184 1.391 . S
C1185 C1189 1.376 . S
C1186 C1184 1.394 . S
C1186 C1187 1.369 . S
C1186 C1190 1.531 . S
C1187 C1186 1.369 . S
C1187 C1188 1.410 . S
C1187 C1195 1.503 . S
C1188 C1187 1.410 . S
C1188 C1189 1.392 . S
C1188 C1191 1.511 . S
C1189 C1185 1.376 . S
C1189 C1188 1.392 . S
C1189 H1201 0.929 . S
C1190 C1186 1.531 . S
C1190 H1202 0.960 . S
C1190 H1203 0.962 . S
C1190 H1204 0.960 . S
C1191 C1188 1.511 . S
C1191 H1205 0.961 . S
C1191 H1206 0.961 . S
C1191 H1207 0.961 . S
C1192 C1193 1.370 . S
C1192 C1194 1.363 . S
C1192 H1208 0.931 . S
C1193 C1192 1.370 . S
C1193 C1197 1.408 . S
C1194 C1192 1.363 . S
C1194 C1195 1.370 . S
C1194 C1198 1.524 . S
C1195 C1187 1.503 . S
C1195 C1194 1.370 . S
C1195 C1196 1.403 . S
C1196 C1195 1.403 . S
C1196 C1197 1.404 . S
C1196 C1199 1.539 . S
C1197 C1193 1.408 . S
C1197 C1196 1.404 . S
C1197 H1209 0.930 . S
C1198 C1194 1.524 . S
C1198 H1210 0.956 . S
C1198 H1211 0.961 . S
C1198 H1212 0.961 . S
C1199 C1196 1.539 . S
C1199 H1213 0.958 . S
C1199 H1214 0.961 . S
C1199 H1215 0.960 . S
H1200 C1184 0.931 . S
H1201 C1189 0.929 . S
H1202 C1190 0.960 . S
H1203 C1190 0.962 . S
H1204 C1190 0.960 . S
H1205 C1191 0.961 . S
H1206 C1191 0.961 . S
H1207 C1191 0.961 . S
H1208 C1192 0.931 . S
H1209 C1197 0.930 . S
H1210 C1198 0.956 . S
H1211 C1198 0.961 . S
H1212 C1198 0.961 . S
H1213 C1199 0.958 . S
H1214 C1199 0.961 . S
H1215 C1199 0.960 . S
C1216 C1217 1.391 . S
C1216 C1218 1.394 . S
C1216 H1232 0.931 . S
C1217 C1216 1.391 . S
C1217 C1221 1.376 . S
C1218 C1216 1.394 . S
C1218 C1219 1.369 . S
C1218 C1222 1.531 . S
C1219 C1218 1.369 . S
C1219 C1220 1.410 . S
C1219 C1227 1.503 . S
C1220 C1219 1.410 . S
C1220 C1221 1.392 . S
C1220 C1223 1.511 . S
C1221 C1217 1.376 . S
C1221 C1220 1.392 . S
C1221 H1233 0.929 . S
C1222 C1218 1.531 . S
C1222 H1234 0.960 . S
C1222 H1235 0.962 . S
C1222 H1236 0.960 . S
C1223 C1220 1.511 . S
C1223 H1237 0.961 . S
C1223 H1238 0.961 . S
C1223 H1239 0.961 . S
C1224 C1225 1.370 . S
C1224 C1226 1.363 . S
C1224 H1240 0.931 . S
C1225 C1224 1.370 . S
C1225 C1229 1.408 . S
C1226 C1224 1.363 . S
C1226 C1227 1.370 . S
C1226 C1230 1.524 . S
C1227 C1219 1.503 . S
C1227 C1226 1.370 . S
C1227 C1228 1.403 . S
C1228 C1227 1.403 . S
C1228 C1229 1.404 . S
C1228 C1231 1.539 . S
C1229 C1225 1.408 . S
C1229 C1228 1.404 . S
C1229 H1241 0.930 . S
C1230 C1226 1.524 . S
C1230 H1242 0.956 . S
C1230 H1243 0.961 . S
C1230 H1244 0.961 . S
C1231 C1228 1.539 . S
C1231 H1245 0.958 . S
C1231 H1246 0.961 . S
C1231 H1247 0.960 . S
H1232 C1216 0.931 . S
H1233 C1221 0.929 . S
H1234 C1222 0.960 . S
H1235 C1222 0.962 . S
H1236 C1222 0.960 . S
H1237 C1223 0.961 . S
H1238 C1223 0.961 . S
H1239 C1223 0.961 . S
H1240 C1224 0.931 . S
H1241 C1229 0.930 . S
H1242 C1230 0.956 . S
H1243 C1230 0.961 . S
H1244 C1230 0.961 . S
H1245 C1231 0.958 . S
H1246 C1231 0.961 . S
H1247 C1231 0.960 . S
C1248 C1249 1.391 . S
C1248 C1250 1.394 . S
C1248 H1264 0.931 . S
C1249 C1248 1.391 . S
C1249 C1253 1.376 . S
C1250 C1248 1.394 . S
C1250 C1251 1.369 . S
C1250 C1254 1.531 . S
C1251 C1250 1.369 . S
C1251 C1252 1.410 . S
C1251 C1259 1.503 . S
C1252 C1251 1.410 . S
C1252 C1253 1.392 . S
C1252 C1255 1.511 . S
C1253 C1249 1.376 . S
C1253 C1252 1.392 . S
C1253 H1265 0.929 . S
C1254 C1250 1.531 . S
C1254 H1266 0.960 . S
C1254 H1267 0.962 . S
C1254 H1268 0.960 . S
C1255 C1252 1.511 . S
C1255 H1269 0.961 . S
C1255 H1270 0.961 . S
C1255 H1271 0.961 . S
C1256 C1257 1.370 . S
C1256 C1258 1.363 . S
C1256 H1272 0.931 . S
C1257 C1256 1.370 . S
C1257 C1261 1.408 . S
C1258 C1256 1.363 . S
C1258 C1259 1.370 . S
C1258 C1262 1.524 . S
C1259 C1251 1.503 . S
C1259 C1258 1.370 . S
C1259 C1260 1.403 . S
C1260 C1259 1.403 . S
C1260 C1261 1.404 . S
C1260 C1263 1.539 . S
C1261 C1257 1.408 . S
C1261 C1260 1.404 . S
C1261 H1273 0.930 . S
C1262 C1258 1.524 . S
C1262 H1274 0.956 . S
C1262 H1275 0.961 . S
C1262 H1276 0.961 . S
C1263 C1260 1.539 . S
C1263 H1277 0.958 . S
C1263 H1278 0.961 . S
C1263 H1279 0.960 . S
H1264 C1248 0.931 . S
H1265 C1253 0.929 . S
H1266 C1254 0.960 . S
H1267 C1254 0.962 . S
H1268 C1254 0.960 . S
H1269 C1255 0.961 . S
H1270 C1255 0.961 . S
H1271 C1255 0.961 . S
H1272 C1256 0.931 . S
H1273 C1261 0.930 . S
H1274 C1262 0.956 . S
H1275 C1262 0.961 . S
H1276 C1262 0.961 . S
H1277 C1263 0.958 . S
H1278 C1263 0.961 . S
H1279 C1263 0.960 . S
C1280 C1281 1.391 . S
C1280 C1282 1.394 . S
C1280 H1296 0.931 . S
C1281 C1280 1.391 . S
C1281 C1285 1.376 . S
C1282 C1280 1.394 . S
C1282 C1283 1.369 . S
C1282 C1286 1.531 . S
C1283 C1282 1.369 . S
C1283 C1284 1.410 . S
C1283 C1291 1.503 . S
C1284 C1283 1.410 . S
C1284 C1285 1.392 . S
C1284 C1287 1.511 . S
C1285 C1281 1.376 . S
C1285 C1284 1.392 . S
C1285 H1297 0.929 . S
C1286 C1282 1.531 . S
C1286 H1298 0.960 . S
C1286 H1299 0.962 . S
C1286 H1300 0.960 . S
C1287 C1284 1.511 . S
C1287 H1301 0.961 . S
C1287 H1302 0.961 . S
C1287 H1303 0.961 . S
C1288 C1289 1.370 . S
C1288 C1290 1.363 . S
C1288 H1304 0.931 . S
C1289 C1288 1.370 . S
C1289 C1293 1.408 . S
C1290 C1288 1.363 . S
C1290 C1291 1.370 . S
C1290 C1294 1.524 . S
C1291 C1283 1.503 . S
C1291 C1290 1.370 . S
C1291 C1292 1.403 . S
C1292 C1291 1.403 . S
C1292 C1293 1.404 . S
C1292 C1295 1.539 . S
C1293 C1289 1.408 . S
C1293 C1292 1.404 . S
C1293 H1305 0.930 . S
C1294 C1290 1.524 . S
C1294 H1306 0.956 . S
C1294 H1307 0.961 . S
C1294 H1308 0.961 . S
C1295 C1292 1.539 . S
C1295 H1309 0.958 . S
C1295 H1310 0.961 . S
C1295 H1311 0.960 . S
H1296 C1280 0.931 . S
H1297 C1285 0.929 . S
H1298 C1286 0.960 . S
H1299 C1286 0.962 . S
H1300 C1286 0.960 . S
H1301 C1287 0.961 . S
H1302 C1287 0.961 . S
H1303 C1287 0.961 . S
H1304 C1288 0.931 . S
H1305 C1293 0.930 . S
H1306 C1294 0.956 . S
H1307 C1294 0.961 . S
H1308 C1294 0.961 . S
H1309 C1295 0.958 . S
H1310 C1295 0.961 . S
H1311 C1295 0.960 . S
C1312 C1313 1.391 . S
C1312 C1314 1.394 . S
C1312 H1328 0.931 . S
C1313 C1312 1.391 . S
C1313 C1317 1.376 . S
C1314 C1312 1.394 . S
C1314 C1315 1.369 . S
C1314 C1318 1.531 . S
C1315 C1314 1.369 . S
C1315 C1316 1.410 . S
C1315 C1323 1.503 . S
C1316 C1315 1.410 . S
C1316 C1317 1.392 . S
C1316 C1319 1.511 . S
C1317 C1313 1.376 . S
C1317 C1316 1.392 . S
C1317 H1329 0.929 . S
C1318 C1314 1.531 . S
C1318 H1330 0.960 . S
C1318 H1331 0.962 . S
C1318 H1332 0.960 . S
C1319 C1316 1.511 . S
C1319 H1333 0.961 . S
C1319 H1334 0.961 . S
C1319 H1335 0.961 . S
C1320 C1321 1.370 . S
C1320 C1322 1.363 . S
C1320 H1336 0.931 . S
C1321 C1320 1.370 . S
C1321 C1325 1.408 . S
C1322 C1320 1.363 . S
C1322 C1323 1.370 . S
C1322 C1326 1.524 . S
C1323 C1315 1.503 . S
C1323 C1322 1.370 . S
C1323 C1324 1.403 . S
C1324 C1323 1.403 . S
C1324 C1325 1.404 . S
C1324 C1327 1.539 . S
C1325 C1321 1.408 . S
C1325 C1324 1.404 . S
C1325 H1337 0.930 . S
C1326 C1322 1.524 . S
C1326 H1338 0.956 . S
C1326 H1339 0.961 . S
C1326 H1340 0.961 . S
C1327 C1324 1.539 . S
C1327 H1341 0.958 . S
C1327 H1342 0.961 . S
C1327 H1343 0.960 . S
H1328 C1312 0.931 . S
H1329 C1317 0.929 . S
H1330 C1318 0.960 . S
H1331 C1318 0.962 . S
H1332 C1318 0.960 . S
H1333 C1319 0.961 . S
H1334 C1319 0.961 . S
H1335 C1319 0.961 . S
H1336 C1320 0.931 . S
H1337 C1325 0.930 . S
H1338 C1326 0.956 . S
H1339 C1326 0.961 . S
H1340 C1326 0.961 . S
H1341 C1327 0.958 . S
H1342 C1327 0.961 . S
H1343 C1327 0.960 . S
C1344 C1345 1.391 . S
C1344 C1346 1.394 . S
C1344 H1360 0.931 . S
C1345 C1344 1.391 . S
C1345 C1349 1.376 . S
C1346 C1344 1.394 . S
C1346 C1347 1.369 . S
C1346 C1350 1.531 . S
C1347 C1346 1.369 . S
C1347 C1348 1.410 . S
C1347 C1355 1.503 . S
C1348 C1347 1.410 . S
C1348 C1349 1.392 . S
C1348 C1351 1.511 . S
C1349 C1345 1.376 . S
C1349 C1348 1.392 . S
C1349 H1361 0.929 . S
C1350 C1346 1.531 . S
C1350 H1362 0.960 . S
C1350 H1363 0.962 . S
C1350 H1364 0.960 . S
C1351 C1348 1.511 . S
C1351 H1365 0.961 . S
C1351 H1366 0.961 . S
C1351 H1367 0.961 . S
C1352 C1353 1.370 . S
C1352 C1354 1.363 . S
C1352 H1368 0.931 . S
C1353 C1352 1.370 . S
C1353 C1357 1.408 . S
C1354 C1352 1.363 . S
C1354 C1355 1.370 . S
C1354 C1358 1.524 . S
C1355 C1347 1.503 . S
C1355 C1354 1.370 . S
C1355 C1356 1.403 . S
C1356 C1355 1.403 . S
C1356 C1357 1.404 . S
C1356 C1359 1.539 . S
C1357 C1353 1.408 . S
C1357 C1356 1.404 . S
C1357 H1369 0.930 . S
C1358 C1354 1.524 . S
C1358 H1370 0.956 . S
C1358 H1371 0.961 . S
C1358 H1372 0.961 . S
C1359 C1356 1.539 . S
C1359 H1373 0.958 . S
C1359 H1374 0.961 . S
C1359 H1375 0.960 . S
H1360 C1344 0.931 . S
H1361 C1349 0.929 . S
H1362 C1350 0.960 . S
H1363 C1350 0.962 . S
H1364 C1350 0.960 . S
H1365 C1351 0.961 . S
H1366 C1351 0.961 . S
H1367 C1351 0.961 . S
H1368 C1352 0.931 . S
H1369 C1357 0.930 . S
H1370 C1358 0.956 . S
H1371 C1358 0.961 . S
H1372 C1358 0.961 . S
H1373 C1359 0.958 . S
H1374 C1359 0.961 . S
H1375 C1359 0.960 . S
C1376 C1377 1.391 . S
C1376 C1378 1.394 . S
C1376 H1392 0.931 . S
C1377 C1376 1.391 . S
C1377 C1381 1.376 . S
C1378 C1376 1.394 . S
C1378 C1379 1.369 . S
C1378 C1382 1.531 . S
C1379 C1378 1.369 . S
C1379 C1380 1.410 . S
C1379 C1387 1.503 . S
C1380 C1379 1.410 . S
C1380 C1381 1.392 . S
C1380 C1383 1.511 . S
C1381 C1377 1.376 . S
C1381 C1380 1.392 . S
C1381 H1393 0.929 . S
C1382 C1378 1.531 . S
C1382 H1394 0.960 . S
C1382 H1395 0.962 . S
C1382 H1396 0.960 . S
C1383 C1380 1.511 . S
C1383 H1397 0.961 . S
C1383 H1398 0.961 . S
C1383 H1399 0.961 . S
C1384 C1385 1.370 . S
C1384 C1386 1.363 . S
C1384 H1400 0.931 . S
C1385 C1384 1.370 . S
C1385 C1389 1.408 . S
C1386 C1384 1.363 . S
C1386 C1387 1.370 . S
C1386 C1390 1.524 . S
C1387 C1379 1.503 . S
C1387 C1386 1.370 . S
C1387 C1388 1.403 . S
C1388 C1387 1.403 . S
C1388 C1389 1.404 . S
C1388 C1391 1.539 . S
C1389 C1385 1.408 . S
C1389 C1388 1.404 . S
C1389 H1401 0.930 . S
C1390 C1386 1.524 . S
C1390 H1402 0.956 . S
C1390 H1403 0.961 . S
C1390 H1404 0.961 . S
C1391 C1388 1.539 . S
C1391 H1405 0.958 . S
C1391 H1406 0.961 . S
C1391 H1407 0.960 . S
H1392 C1376 0.931 . S
H1393 C1381 0.929 . S
H1394 C1382 0.960 . S
H1395 C1382 0.962 . S
H1396 C1382 0.960 . S
H1397 C1383 0.961 . S
H1398 C1383 0.961 . S
H1399 C1383 0.961 . S
H1400 C1384 0.931 . S
H1401 C1389 0.930 . S
H1402 C1390 0.956 . S
H1403 C1390 0.961 . S
H1404 C1390 0.961 . S
H1405 C1391 0.958 . S
H1406 C1391 0.961 . S
H1407 C1391 0.960 . S
C1408 C1409 1.391 . S
C1408 C1410 1.394 . S
C1408 H1424 0.931 . S
C1409 C1408 1.391 . S
C1409 C1413 1.376 . S
C1410 C1408 1.394 . S
C1410 C1411 1.369 . S
C1410 C1414 1.531 . S
C1411 C1410 1.369 . S
C1411 C1412 1.410 . S
C1411 C1419 1.503 . S
C1412 C1411 1.410 . S
C1412 C1413 1.392 . S
C1412 C1415 1.511 . S
C1413 C1409 1.376 . S
C1413 C1412 1.392 . S
C1413 H1425 0.929 . S
C1414 C1410 1.531 . S
C1414 H1426 0.960 . S
C1414 H1427 0.962 . S
C1414 H1428 0.960 . S
C1415 C1412 1.511 . S
C1415 H1429 0.961 . S
C1415 H1430 0.961 . S
C1415 H1431 0.961 . S
C1416 C1417 1.370 . S
C1416 C1418 1.363 . S
C1416 H1432 0.931 . S
C1417 C1416 1.370 . S
C1417 C1421 1.408 . S
C1418 C1416 1.363 . S
C1418 C1419 1.370 . S
C1418 C1422 1.524 . S
C1419 C1411 1.503 . S
C1419 C1418 1.370 . S
C1419 C1420 1.403 . S
C1420 C1419 1.403 . S
C1420 C1421 1.404 . S
C1420 C1423 1.539 . S
C1421 C1417 1.408 . S
C1421 C1420 1.404 . S
C1421 H1433 0.930 . S
C1422 C1418 1.524 . S
C1422 H1434 0.956 . S
C1422 H1435 0.961 . S
C1422 H1436 0.961 . S
C1423 C1420 1.539 . S
C1423 H1437 0.958 . S
C1423 H1438 0.961 . S
C1423 H1439 0.960 . S
H1424 C1408 0.931 . S
H1425 C1413 0.929 . S
H1426 C1414 0.960 . S
H1427 C1414 0.962 . S
H1428 C1414 0.960 . S
H1429 C1415 0.961 . S
H1430 C1415 0.961 . S
H1431 C1415 0.961 . S
H1432 C1416 0.931 . S
H1433 C1421 0.930 . S
H1434 C1422 0.956 . S
H1435 C1422 0.961 . S
H1436 C1422 0.961 . S
H1437 C1423 0.958 . S
H1438 C1423 0.961 . S
H1439 C1423 0.960 . S
C1440 C1441 1.391 . S
C1440 C1442 1.394 . S
C1440 H1456 0.931 . S
C1441 C1440 1.391 . S
C1441 C1445 1.376 . S
C1442 C1440 1.394 . S
C1442 C1443 1.369 . S
C1442 C1446 1.531 . S
C1443 C1442 1.369 . S
C1443 C1444 1.410 . S
C1443 C1451 1.503 . S
C1444 C1443 1.410 . S
C1444 C1445 1.392 . S
C1444 C1447 1.511 . S
C1445 C1441 1.376 . S
C1445 C1444 1.392 . S
C1445 H1457 0.929 . S
C1446 C1442 1.531 . S
C1446 H1458 0.960 . S
C1446 H1459 0.962 . S
C1446 H1460 0.960 . S
C1447 C1444 1.511 . S
C1447 H1461 0.961 . S
C1447 H1462 0.961 . S
C1447 H1463 0.961 . S
C1448 C1449 1.370 . S
C1448 C1450 1.363 . S
C1448 H1464 0.931 . S
C1449 C1448 1.370 . S
C1449 C1453 1.408 . S
C1450 C1448 1.363 . S
C1450 C1451 1.370 . S
C1450 C1454 1.524 . S
C1451 C1443 1.503 . S
C1451 C1450 1.370 . S
C1451 C1452 1.403 . S
C1452 C1451 1.403 . S
C1452 C1453 1.404 . S
C1452 C1455 1.539 . S
C1453 C1449 1.408 . S
C1453 C1452 1.404 . S
C1453 H1465 0.930 . S
C1454 C1450 1.524 . S
C1454 H1466 0.956 . S
C1454 H1467 0.961 . S
C1454 H1468 0.961 . S
C1455 C1452 1.539 . S
C1455 H1469 0.958 . S
C1455 H1470 0.961 . S
C1455 H1471 0.960 . S
H1456 C1440 0.931 . S
H1457 C1445 0.929 . S
H1458 C1446 0.960 . S
H1459 C1446 0.962 . S
H1460 C1446 0.960 . S
H1461 C1447 0.961 . S
H1462 C1447 0.961 . S
H1463 C1447 0.961 . S
H1464 C1448 0.931 . S
H1465 C1453 0.930 . S
H1466 C1454 0.956 . S
H1467 C1454 0.961 . S
H1468 C1454 0.961 . S
H1469 C1455 0.958 . S
H1470 C1455 0.961 . S
H1471 C1455 0.960 . S
C1472 C1473 1.391 . S
C1472 C1474 1.394 . S
C1472 H1488 0.931 . S
C1473 C1472 1.391 . S
C1473 C1477 1.376 . S
C1474 C1472 1.394 . S
C1474 C1475 1.369 . S
C1474 C1478 1.531 . S
C1475 C1474 1.369 . S
C1475 C1476 1.410 . S
C1475 C1483 1.503 . S
C1476 C1475 1.410 . S
C1476 C1477 1.392 . S
C1476 C1479 1.511 . S
C1477 C1473 1.376 . S
C1477 C1476 1.392 . S
C1477 H1489 0.929 . S
C1478 C1474 1.531 . S
C1478 H1490 0.960 . S
C1478 H1491 0.962 . S
C1478 H1492 0.960 . S
C1479 C1476 1.511 . S
C1479 H1493 0.961 . S
C1479 H1494 0.961 . S
C1479 H1495 0.961 . S
C1480 C1481 1.370 . S
C1480 C1482 1.363 . S
C1480 H1496 0.931 . S
C1481 C1480 1.370 . S
C1481 C1485 1.408 . S
C1482 C1480 1.363 . S
C1482 C1483 1.370 . S
C1482 C1486 1.524 . S
C1483 C1475 1.503 . S
C1483 C1482 1.370 . S
C1483 C1484 1.403 . S
C1484 C1483 1.403 . S
C1484 C1485 1.404 . S
C1484 C1487 1.539 . S
C1485 C1481 1.408 . S
C1485 C1484 1.404 . S
C1485 H1497 0.930 . S
C1486 C1482 1.524 . S
C1486 H1498 0.956 . S
C1486 H1499 0.961 . S
C1486 H1500 0.961 . S
C1487 C1484 1.539 . S
C1487 H1501 0.958 . S
C1487 H1502 0.961 . S
C1487 H1503 0.960 . S
H1488 C1472 0.931 . S
H1489 C1477 0.929 . S
H1490 C1478 0.960 . S
H1491 C1478 0.962 . S
H1492 C1478 0.960 . S
H1493 C1479 0.961 . S
H1494 C1479 0.961 . S
H1495 C1479 0.961 . S
H1496 C1480 0.931 . S
H1497 C1485 0.930 . S
H1498 C1486 0.956 . S
H1499 C1486 0.961 . S
H1500 C1486 0.961 . S
H1501 C1487 0.958 . S
H1502 C1487 0.961 . S
H1503 C1487 0.960 . S
C1504 C1505 1.391 . S
C1504 C1506 1.394 . S
C1504 H1520 0.931 . S
C1505 C1504 1.391 . S
C1505 C1509 1.376 . S
C1506 C1504 1.394 . S
C1506 C1507 1.369 . S
C1506 C1510 1.531 . S
C1507 C1506 1.369 . S
C1507 C1508 1.410 . S
C1507 C1515 1.503 . S
C1508 C1507 1.410 . S
C1508 C1509 1.392 . S
C1508 C1511 1.511 . S
C1509 C1505 1.376 . S
C1509 C1508 1.392 . S
C1509 H1521 0.929 . S
C1510 C1506 1.531 . S
C1510 H1522 0.960 . S
C1510 H1523 0.962 . S
C1510 H1524 0.960 . S
C1511 C1508 1.511 . S
C1511 H1525 0.961 . S
C1511 H1526 0.961 . S
C1511 H1527 0.961 . S
C1512 C1513 1.370 . S
C1512 C1514 1.363 . S
C1512 H1528 0.931 . S
C1513 C1512 1.370 . S
C1513 C1517 1.408 . S
C1514 C1512 1.363 . S
C1514 C1515 1.370 . S
C1514 C1518 1.524 . S
C1515 C1507 1.503 . S
C1515 C1514 1.370 . S
C1515 C1516 1.403 . S
C1516 C1515 1.403 . S
C1516 C1517 1.404 . S
C1516 C1519 1.539 . S
C1517 C1513 1.408 . S
C1517 C1516 1.404 . S
C1517 H1529 0.930 . S
C1518 C1514 1.524 . S
C1518 H1530 0.956 . S
C1518 H1531 0.961 . S
C1518 H1532 0.961 . S
C1519 C1516 1.539 . S
C1519 H1533 0.958 . S
C1519 H1534 0.961 . S
C1519 H1535 0.960 . S
H1520 C1504 0.931 . S
H1521 C1509 0.929 . S
H1522 C1510 0.960 . S
H1523 C1510 0.962 . S
H1524 C1510 0.960 . S
H1525 C1511 0.961 . S
H1526 C1511 0.961 . S
H1527 C1511 0.961 . S
H1528 C1512 0.931 . S
H1529 C1517 0.930 . S
H1530 C1518 0.956 . S
H1531 C1518 0.961 . S
H1532 C1518 0.961 . S
H1533 C1519 0.958 . S
H1534 C1519 0.961 . S
H1535 C1519 0.960 . S
C1536 C1537 1.391 . S
C1536 C1538 1.394 . S
C1536 H1552 0.931 . S
C1537 C1536 1.391 . S
C1537 C1541 1.376 . S
C1538 C1536 1.394 . S
C1538 C1539 1.369 . S
C1538 C1542 1.531 . S
C1539 C1538 1.369 . S
C1539 C1540 1.410 . S
C1539 C1547 1.503 . S
C1540 C1539 1.410 . S
C1540 C1541 1.392 . S
C1540 C1543 1.511 . S
C1541 C1537 1.376 . S
C1541 C1540 1.392 . S
C1541 H1553 0.929 . S
C1542 C1538 1.531 . S
C1542 H1554 0.960 . S
C1542 H1555 0.962 . S
C1542 H1556 0.960 . S
C1543 C1540 1.511 . S
C1543 H1557 0.961 . S
C1543 H1558 0.961 . S
C1543 H1559 0.961 . S
C1544 C1545 1.370 . S
C1544 C1546 1.363 . S
C1544 H1560 0.931 . S
C1545 C1544 1.370 . S
C1545 C1549 1.408 . S
C1546 C1544 1.363 . S
C1546 C1547 1.370 . S
C1546 C1550 1.524 . S
C1547 C1539 1.503 . S
C1547 C1546 1.370 . S
C1547 C1548 1.403 . S
C1548 C1547 1.403 . S
C1548 C1549 1.404 . S
C1548 C1551 1.539 . S
C1549 C1545 1.408 . S
C1549 C1548 1.404 . S
C1549 H1561 0.930 . S
C1550 C1546 1.524 . S
C1550 H1562 0.956 . S
C1550 H1563 0.961 . S
C1550 H1564 0.961 . S
C1551 C1548 1.539 . S
C1551 H1565 0.958 . S
C1551 H1566 0.961 . S
C1551 H1567 0.960 . S
H1552 C1536 0.931 . S
H1553 C1541 0.929 . S
H1554 C1542 0.960 . S
H1555 C1542 0.962 . S
H1556 C1542 0.960 . S
H1557 C1543 0.961 . S
H1558 C1543 0.961 . S
H1559 C1543 0.961 . S
H1560 C1544 0.931 . S
H1561 C1549 0.930 . S
H1562 C1550 0.956 . S
H1563 C1550 0.961 . S
H1564 C1550 0.961 . S
H1565 C1551 0.958 . S
H1566 C1551 0.961 . S
H1567 C1551 0.960 . S
C1568 C1569 1.391 . S
C1568 C1570 1.394 1_455 S
C1568 H1584 0.931 . S
C1569 C1568 1.391 . S
C1569 C1573 1.376 . S
C1570 C1568 1.394 1_655 S
C1570 C1571 1.369 . S
C1570 C1574 1.531 . S
C1571 C1570 1.369 . S
C1571 C1572 1.410 . S
C1571 C1579 1.503 . S
C1572 C1571 1.410 . S
C1572 C1573 1.392 1_655 S
C1572 C1575 1.511 . S
C1573 C1569 1.376 . S
C1573 C1572 1.392 1_455 S
C1573 H1585 0.929 . S
C1574 C1570 1.531 . S
C1574 H1586 0.960 . S
C1574 H1587 0.962 . S
C1574 H1588 0.960 . S
C1575 C1572 1.511 . S
C1575 H1589 0.961 . S
C1575 H1590 0.961 . S
C1575 H1591 0.961 . S
C1576 C1577 1.370 . S
C1576 C1578 1.363 . S
C1576 H1592 0.931 . S
C1577 C1576 1.370 . S
C1577 C1581 1.408 . S
C1578 C1576 1.363 . S
C1578 C1579 1.370 . S
C1578 C1582 1.524 . S
C1579 C1571 1.503 . S
C1579 C1578 1.370 . S
C1579 C1580 1.403 . S
C1580 C1579 1.403 . S
C1580 C1581 1.404 . S
C1580 C1583 1.539 . S
C1581 C1577 1.408 . S
C1581 C1580 1.404 . S
C1581 H1593 0.930 . S
C1582 C1578 1.524 . S
C1582 H1594 0.956 . S
C1582 H1595 0.961 . S
C1582 H1596 0.961 . S
C1583 C1580 1.539 . S
C1583 H1597 0.958 . S
C1583 H1598 0.961 . S
C1583 H1599 0.960 . S
H1584 C1568 0.931 . S
H1585 C1573 0.929 . S
H1586 C1574 0.960 . S
H1587 C1574 0.962 . S
H1588 C1574 0.960 . S
H1589 C1575 0.961 . S
H1590 C1575 0.961 . S
H1591 C1575 0.961 . S
H1592 C1576 0.931 . S
H1593 C1581 0.930 . S
H1594 C1582 0.956 . S
H1595 C1582 0.961 . S
H1596 C1582 0.961 . S
H1597 C1583 0.958 . S
H1598 C1583 0.961 . S
H1599 C1583 0.960 . S
C1600 C1601 1.391 . S
C1600 C1602 1.394 1_565 S
C1600 H1616 0.931 . S
C1601 C1600 1.391 . S
C1601 C1605 1.376 . S
C1602 C1600 1.394 1_545 S
C1602 C1603 1.369 . S
C1602 C1606 1.531 . S
C1603 C1602 1.369 . S
C1603 C1604 1.410 . S
C1603 C1611 1.503 . S
C1604 C1603 1.410 . S
C1604 C1605 1.392 1_545 S
C1604 C1607 1.511 . S
C1605 C1601 1.376 . S
C1605 C1604 1.392 1_565 S
C1605 H1617 0.929 . S
C1606 C1602 1.531 . S
C1606 H1618 0.960 . S
C1606 H1619 0.962 . S
C1606 H1620 0.960 . S
C1607 C1604 1.511 . S
C1607 H1621 0.961 . S
C1607 H1622 0.961 . S
C1607 H1623 0.961 . S
C1608 C1609 1.370 . S
C1608 C1610 1.363 . S
C1608 H1624 0.931 . S
C1609 C1608 1.370 . S
C1609 C1613 1.408 . S
C1610 C1608 1.363 . S
C1610 C1611 1.370 . S
C1610 C1614 1.524 . S
C1611 C1603 1.503 . S
C1611 C1610 1.370 . S
C1611 C1612 1.403 . S
C1612 C1611 1.403 . S
C1612 C1613 1.404 . S
C1612 C1615 1.539 . S
C1613 C1609 1.408 . S
C1613 C1612 1.404 . S
C1613 H1625 0.930 . S
C1614 C1610 1.524 . S
C1614 H1626 0.956 . S
C1614 H1627 0.961 . S
C1614 H1628 0.961 . S
C1615 C1612 1.539 . S
C1615 H1629 0.958 . S
C1615 H1630 0.961 . S
C1615 H1631 0.960 . S
H1616 C1600 0.931 . S
H1617 C1605 0.929 . S
H1618 C1606 0.960 . S
H1619 C1606 0.962 . S
H1620 C1606 0.960 . S
H1621 C1607 0.961 . S
H1622 C1607 0.961 . S
H1623 C1607 0.961 . S
H1624 C1608 0.931 . S
H1625 C1613 0.930 . S
H1626 C1614 0.956 . S
H1627 C1614 0.961 . S
H1628 C1614 0.961 . S
H1629 C1615 0.958 . S
H1630 C1615 0.961 . S
H1631 C1615 0.960 . S
C1632 C1633 1.391 . S
C1632 C1634 1.394 . S
C1632 H1648 0.931 . S
C1633 C1632 1.391 . S
C1633 C1637 1.376 . S
C1634 C1632 1.394 . S
C1634 C1635 1.369 . S
C1634 C1638 1.531 . S
C1635 C1634 1.369 . S
C1635 C1636 1.410 . S
C1635 C1643 1.503 . S
C1636 C1635 1.410 . S
C1636 C1637 1.392 . S
C1636 C1639 1.511 . S
C1637 C1633 1.376 . S
C1637 C1636 1.392 . S
C1637 H1649 0.929 . S
C1638 C1634 1.531 . S
C1638 H1650 0.960 . S
C1638 H1651 0.962 . S
C1638 H1652 0.960 . S
C1639 C1636 1.511 . S
C1639 H1653 0.961 . S
C1639 H1654 0.961 . S
C1639 H1655 0.961 . S
C1640 C1641 1.370 . S
C1640 C1642 1.363 1_655 S
C1640 H1656 0.931 . S
C1641 C1640 1.370 . S
C1641 C1645 1.408 . S
C1642 C1640 1.363 1_455 S
C1642 C1643 1.370 . S
C1642 C1646 1.524 . S
C1643 C1635 1.503 . S
C1643 C1642 1.370 . S
C1643 C1644 1.403 . S
C1644 C1643 1.403 . S
C1644 C1645 1.404 1_455 S
C1644 C1647 1.539 . S
C1645 C1641 1.408 . S
C1645 C1644 1.404 1_655 S
C1645 H1657 0.930 . S
C1646 C1642 1.524 . S
C1646 H1658 0.956 . S
C1646 H1659 0.961 . S
C1646 H1660 0.961 . S
C1647 C1644 1.539 . S
C1647 H1661 0.958 . S
C1647 H1662 0.961 . S
C1647 H1663 0.960 . S
H1648 C1632 0.931 . S
H1649 C1637 0.929 . S
H1650 C1638 0.960 . S
H1651 C1638 0.962 . S
H1652 C1638 0.960 . S
H1653 C1639 0.961 . S
H1654 C1639 0.961 . S
H1655 C1639 0.961 . S
H1656 C1640 0.931 . S
H1657 C1645 0.930 . S
H1658 C1646 0.956 . S
H1659 C1646 0.961 . S
H1660 C1646 0.961 . S
H1661 C1647 0.958 . S
H1662 C1647 0.961 . S
H1663 C1647 0.960 . S
C1664 C1665 1.391 . S
C1664 C1666 1.394 1_545 S
C1664 H1680 0.931 . S
C1665 C1664 1.391 . S
C1665 C1669 1.376 . S
C1666 C1664 1.394 1_565 S
C1666 C1667 1.369 . S
C1666 C1670 1.531 . S
C1667 C1666 1.369 . S
C1667 C1668 1.410 . S
C1667 C1675 1.503 . S
C1668 C1667 1.410 . S
C1668 C1669 1.392 1_565 S
C1668 C1671 1.511 . S
C1669 C1665 1.376 . S
C1669 C1668 1.392 1_545 S
C1669 H1681 0.929 . S
C1670 C1666 1.531 . S
C1670 H1682 0.960 . S
C1670 H1683 0.962 . S
C1670 H1684 0.960 . S
C1671 C1668 1.511 . S
C1671 H1685 0.961 . S
C1671 H1686 0.961 . S
C1671 H1687 0.961 . S
C1672 C1673 1.370 . S
C1672 C1674 1.363 . S
C1672 H1688 0.931 . S
C1673 C1672 1.370 . S
C1673 C1677 1.408 . S
C1674 C1672 1.363 . S
C1674 C1675 1.370 . S
C1674 C1678 1.524 . S
C1675 C1667 1.503 . S
C1675 C1674 1.370 . S
C1675 C1676 1.403 . S
C1676 C1675 1.403 . S
C1676 C1677 1.404 . S
C1676 C1679 1.539 . S
C1677 C1673 1.408 . S
C1677 C1676 1.404 . S
C1677 H1689 0.930 . S
C1678 C1674 1.524 . S
C1678 H1690 0.956 . S
C1678 H1691 0.961 . S
C1678 H1692 0.961 . S
C1679 C1676 1.539 . S
C1679 H1693 0.958 . S
C1679 H1694 0.961 . S
C1679 H1695 0.960 . S
H1680 C1664 0.931 . S
H1681 C1669 0.929 . S
H1682 C1670 0.960 . S
H1683 C1670 0.962 . S
H1684 C1670 0.960 . S
H1685 C1671 0.961 . S
H1686 C1671 0.961 . S
H1687 C1671 0.961 . S
H1688 C1672 0.931 . S
H1689 C1677 0.930 . S
H1690 C1678 0.956 . S
H1691 C1678 0.961 . S
H1692 C1678 0.961 . S
H1693 C1679 0.958 . S
H1694 C1679 0.961 . S
H1695 C1679 0.960 . S
C1696 C1697 1.391 . S
C1696 C1698 1.394 1_655 S
C1696 H1712 0.931 . S
C1697 C1696 1.391 . S
C1697 C1701 1.376 . S
C1698 C1696 1.394 1_455 S
C1698 C1699 1.369 . S
C1698 C1702 1.531 . S
C1699 C1698 1.369 . S
C1699 C1700 1.410 . S
C1699 C1707 1.503 . S
C1700 C1699 1.410 . S
C1700 C1701 1.392 1_455 S
C1700 C1703 1.511 . S
C1701 C1697 1.376 . S
C1701 C1700 1.392 1_655 S
C1701 H1713 0.929 . S
C1702 C1698 1.531 . S
C1702 H1714 0.960 . S
C1702 H1715 0.962 . S
C1702 H1716 0.960 . S
C1703 C1700 1.511 . S
C1703 H1717 0.961 . S
C1703 H1718 0.961 . S
C1703 H1719 0.961 . S
C1704 C1705 1.370 . S
C1704 C1706 1.363 . S
C1704 H1720 0.931 . S
C1705 C1704 1.370 . S
C1705 C1709 1.408 . S
C1706 C1704 1.363 . S
C1706 C1707 1.370 . S
C1706 C1710 1.524 . S
C1707 C1699 1.503 . S
C1707 C1706 1.370 . S
C1707 C1708 1.403 . S
C1708 C1707 1.403 . S
C1708 C1709 1.404 . S
C1708 C1711 1.539 . S
C1709 C1705 1.408 . S
C1709 C1708 1.404 . S
C1709 H1721 0.930 . S
C1710 C1706 1.524 . S
C1710 H1722 0.956 . S
C1710 H1723 0.961 . S
C1710 H1724 0.961 . S
C1711 C1708 1.539 . S
C1711 H1725 0.958 . S
C1711 H1726 0.961 . S
C1711 H1727 0.960 . S
H1712 C1696 0.931 . S
H1713 C1701 0.929 . S
H1714 C1702 0.960 . S
H1715 C1702 0.962 . S
H1716 C1702 0.960 . S
H1717 C1703 0.961 . S
H1718 C1703 0.961 . S
H1719 C1703 0.961 . S
H1720 C1704 0.931 . S
H1721 C1709 0.930 . S
H1722 C1710 0.956 . S
H1723 C1710 0.961 . S
H1724 C1710 0.961 . S
H1725 C1711 0.958 . S
H1726 C1711 0.961 . S
H1727 C1711 0.960 . S
C1728 C1729 1.391 . S
C1728 C1730 1.394 . S
C1728 H1744 0.931 . S
C1729 C1728 1.391 . S
C1729 C1733 1.376 . S
C1730 C1728 1.394 . S
C1730 C1731 1.369 . S
C1730 C1734 1.531 . S
C1731 C1730 1.369 . S
C1731 C1732 1.410 . S
C1731 C1739 1.503 . S
C1732 C1731 1.410 . S
C1732 C1733 1.392 . S
C1732 C1735 1.511 . S
C1733 C1729 1.376 . S
C1733 C1732 1.392 . S
C1733 H1745 0.929 . S
C1734 C1730 1.531 . S
C1734 H1746 0.960 . S
C1734 H1747 0.962 . S
C1734 H1748 0.960 . S
C1735 C1732 1.511 . S
C1735 H1749 0.961 . S
C1735 H1750 0.961 . S
C1735 H1751 0.961 . S
C1736 C1737 1.370 . S
C1736 C1738 1.363 1_545 S
C1736 H1752 0.931 . S
C1737 C1736 1.370 . S
C1737 C1741 1.408 . S
C1738 C1736 1.363 1_565 S
C1738 C1739 1.370 . S
C1738 C1742 1.524 . S
C1739 C1731 1.503 . S
C1739 C1738 1.370 . S
C1739 C1740 1.403 . S
C1740 C1739 1.403 . S
C1740 C1741 1.404 1_565 S
C1740 C1743 1.539 . S
C1741 C1737 1.408 . S
C1741 C1740 1.404 1_545 S
C1741 H1753 0.930 . S
C1742 C1738 1.524 . S
C1742 H1754 0.956 . S
C1742 H1755 0.961 . S
C1742 H1756 0.961 . S
C1743 C1740 1.539 . S
C1743 H1757 0.958 . S
C1743 H1758 0.961 . S
C1743 H1759 0.960 . S
H1744 C1728 0.931 . S
H1745 C1733 0.929 . S
H1746 C1734 0.960 . S
H1747 C1734 0.962 . S
H1748 C1734 0.960 . S
H1749 C1735 0.961 . S
H1750 C1735 0.961 . S
H1751 C1735 0.961 . S
H1752 C1736 0.931 . S
H1753 C1741 0.930 . S
H1754 C1742 0.956 . S
H1755 C1742 0.961 . S
H1756 C1742 0.961 . S
H1757 C1743 0.958 . S
H1758 C1743 0.961 . S
H1759 C1743 0.960 . S
C1760 C1761 1.391 . S
C1760 C1762 1.394 . S
C1760 H1776 0.931 . S
C1761 C1760 1.391 . S
C1761 C1765 1.376 . S
C1762 C1760 1.394 . S
C1762 C1763 1.369 . S
C1762 C1766 1.531 . S
C1763 C1762 1.369 . S
C1763 C1764 1.410 . S
C1763 C1771 1.503 . S
C1764 C1763 1.410 . S
C1764 C1765 1.392 . S
C1764 C1767 1.511 . S
C1765 C1761 1.376 . S
C1765 C1764 1.392 . S
C1765 H1777 0.929 . S
C1766 C1762 1.531 . S
C1766 H1778 0.960 . S
C1766 H1779 0.962 . S
C1766 H1780 0.960 . S
C1767 C1764 1.511 . S
C1767 H1781 0.961 . S
C1767 H1782 0.961 . S
C1767 H1783 0.961 . S
C1768 C1769 1.370 . S
C1768 C1770 1.363 1_455 S
C1768 H1784 0.931 . S
C1769 C1768 1.370 . S
C1769 C1773 1.408 . S
C1770 C1768 1.363 1_655 S
C1770 C1771 1.370 . S
C1770 C1774 1.524 . S
C1771 C1763 1.503 . S
C1771 C1770 1.370 . S
C1771 C1772 1.403 . S
C1772 C1771 1.403 . S
C1772 C1773 1.404 1_655 S
C1772 C1775 1.539 . S
C1773 C1769 1.408 . S
C1773 C1772 1.404 1_455 S
C1773 H1785 0.930 . S
C1774 C1770 1.524 . S
C1774 H1786 0.956 . S
C1774 H1787 0.961 . S
C1774 H1788 0.961 . S
C1775 C1772 1.539 . S
C1775 H1789 0.958 . S
C1775 H1790 0.961 . S
C1775 H1791 0.960 . S
H1776 C1760 0.931 . S
H1777 C1765 0.929 . S
H1778 C1766 0.960 . S
H1779 C1766 0.962 . S
H1780 C1766 0.960 . S
H1781 C1767 0.961 . S
H1782 C1767 0.961 . S
H1783 C1767 0.961 . S
H1784 C1768 0.931 . S
H1785 C1773 0.930 . S
H1786 C1774 0.956 . S
H1787 C1774 0.961 . S
H1788 C1774 0.961 . S
H1789 C1775 0.958 . S
H1790 C1775 0.961 . S
H1791 C1775 0.960 . S
C1792 C1793 1.391 . S
C1792 C1794 1.394 1_565 S
C1792 H1808 0.931 . S
C1793 C1792 1.391 . S
C1793 C1797 1.376 . S
C1794 C1792 1.394 1_545 S
C1794 C1795 1.369 . S
C1794 C1798 1.531 . S
C1795 C1794 1.369 . S
C1795 C1796 1.410 . S
C1795 C1803 1.503 . S
C1796 C1795 1.410 . S
C1796 C1797 1.392 1_545 S
C1796 C1799 1.511 . S
C1797 C1793 1.376 . S
C1797 C1796 1.392 1_565 S
C1797 H1809 0.929 . S
C1798 C1794 1.531 . S
C1798 H1810 0.960 . S
C1798 H1811 0.962 . S
C1798 H1812 0.960 . S
C1799 C1796 1.511 . S
C1799 H1813 0.961 . S
C1799 H1814 0.961 . S
C1799 H1815 0.961 . S
C1800 C1801 1.370 . S
C1800 C1802 1.363 . S
C1800 H1816 0.931 . S
C1801 C1800 1.370 . S
C1801 C1805 1.408 . S
C1802 C1800 1.363 . S
C1802 C1803 1.370 . S
C1802 C1806 1.524 . S
C1803 C1795 1.503 . S
C1803 C1802 1.370 . S
C1803 C1804 1.403 . S
C1804 C1803 1.403 . S
C1804 C1805 1.404 . S
C1804 C1807 1.539 . S
C1805 C1801 1.408 . S
C1805 C1804 1.404 . S
C1805 H1817 0.930 . S
C1806 C1802 1.524 . S
C1806 H1818 0.956 . S
C1806 H1819 0.961 . S
C1806 H1820 0.961 . S
C1807 C1804 1.539 . S
C1807 H1821 0.958 . S
C1807 H1822 0.961 . S
C1807 H1823 0.960 . S
H1808 C1792 0.931 . S
H1809 C1797 0.929 . S
H1810 C1798 0.960 . S
H1811 C1798 0.962 . S
H1812 C1798 0.960 . S
H1813 C1799 0.961 . S
H1814 C1799 0.961 . S
H1815 C1799 0.961 . S
H1816 C1800 0.931 . S
H1817 C1805 0.930 . S
H1818 C1806 0.956 . S
H1819 C1806 0.961 . S
H1820 C1806 0.961 . S
H1821 C1807 0.958 . S
H1822 C1807 0.961 . S
H1823 C1807 0.960 . S
C545 C5 1.672 . S
C553 C175 1.673 . S
C577 C209 1.667 . S
C585 C39 1.674 . S
C609 C243 1.685 . S
C617 C73 1.678 . S
C641 C141 1.664 . S
C649 C107 1.675 . S
C673 C277 1.684 . S
C681 C447 1.684 . S
C705 C311 1.662 . S
C713 C481 1.679 . S
C737 C515 1.663 . S
C745 C345 1.674 . S
C769 C379 1.665 . S
C777 C413 1.682 . S
C801 C33 1.154 . S
C809 C101 1.205 . S
C833 C135 1.160 . S
C841 C67 1.202 . S
C865 C169 1.215 . S
C873 C237 1.178 . S
C897 C203 1.218 . S
C905 C271 1.179 . S
C929 C373 1.156 . S
C937 C305 1.205 . S
C961 C407 1.159 . S
C969 C339 1.203 . S
C993 C509 1.223 . S
C1001 C441 1.176 . S
C1025 C543 1.215 . S
C1033 C475 1.183 . S
C1057 C519 1.515 . S
C1065 C9 1.539 . S
C1089 C417 1.520 . S
C1097 C43 1.545 . S
C1121 C451 1.572 . S
C1129 C77 1.564 . S
C1153 C111 1.559 . S
C1161 C485 1.561 . S
C1185 C145 1.578 . S
C1193 C315 1.563 . S
C1217 C179 1.528 . S
C1225 C349 1.537 . S
C1249 C213 1.579 . S
C1257 C383 1.562 . S
C1281 C247 1.577 . S
C1289 C281 1.562 . S
C1313 C478 0.993 . S
C1321 C20 0.980 . S
C1345 C54 0.979 . S
C1353 C512 0.956 . S
C1377 C410 0.924 . S
C1385 C88 0.982 . S
C1409 C444 0.955 . S
C1417 C122 0.981 . S
C1441 C342 0.927 . S
C1449 C156 0.982 . S
C1473 C190 0.979 . S
C1481 C376 0.966 . S
C1505 C274 0.997 . S
C1513 C224 0.980 . S
C1537 C258 0.976 . S
C1545 C308 0.980 . S
C1569 C206 0.994 . S
C1577 C292 0.980 . S
C1601 C240 0.970 . S
C1609 C326 0.980 . S
C1633 C360 0.980 . S
C1641 C138 0.959 . S
C1665 C172 0.945 . S
C1673 C394 0.982 . S
C1697 C70 1.001 . S
C1705 C428 0.979 . S
C1729 C462 0.981 . S
C1737 C104 0.954 . S
C1761 C496 0.980 . S
C1769 C2 0.953 . S
C1793 C36 0.968 . S
C1801 C530 0.980 . S
