# Generated by pormake.
# Topology snp, (6)-cn, num edge types: 1
# Building blocks:
#     Node 0, Type 0, BuildingBlock: HISSIN_clean_sbu_0, # of connection points: 6
#     Node 1, Type 0, BuildingBlock: HISSIN_clean_sbu_0, # of connection points: 6
#     Node 2, Type 0, BuildingBlock: HISSIN_clean_sbu_0, # of connection points: 6
#     Node 3, Type 0, BuildingBlock: HISSIN_clean_sbu_0, # of connection points: 6
#     Edge 4, Type (0, 0), BuildingBlock: UVAHIK_clean_linker_0, # of connection points: 2
#     Edge 5, Type (0, 0), BuildingBlock: UVAHIK_clean_linker_0, # of connection points: 2
#     Edge 6, Type (0, 0), BuildingBlock: UVAHIK_clean_linker_0, # of connection points: 2
#     Edge 7, Type (0, 0), BuildingBlock: UVAHIK_clean_linker_0, # of connection points: 2
#     Edge 8, Type (0, 0), BuildingBlock: UVAHIK_clean_linker_0, # of connection points: 2
#     Edge 9, Type (0, 0), BuildingBlock: UVAHIK_clean_linker_0, # of connection points: 2
#     Edge 10, Type (0, 0), BuildingBlock: UVAHIK_clean_linker_0, # of connection points: 2
#     Edge 11, Type (0, 0), BuildingBlock: UVAHIK_clean_linker_0, # of connection points: 2
#     Edge 12, Type (0, 0), BuildingBlock: UVAHIK_clean_linker_0, # of connection points: 2
#     Edge 13, Type (0, 0), BuildingBlock: UVAHIK_clean_linker_0, # of connection points: 2
#     Edge 14, Type (0, 0), BuildingBlock: UVAHIK_clean_linker_0, # of connection points: 2
#     Edge 15, Type (0, 0), BuildingBlock: UVAHIK_clean_linker_0, # of connection points: 2
# Relax obj value: 0.539
# Max RMSD: 0.183
# Mean RMSD: 0.183
data_MOF--net-snp--node1-HISSIN_clean_sbu_0--edge1-UVAHIK_clean_linker_0
_symmetry_space_group_name_H-M    P1
_symmetry_Int_Tables_number       1
_symmetry_cell_setting            triclinic
loop_
_symmetry_equiv_pos_as_xyz
'x, y, z'
_cell_length_a     30.27133
_cell_length_b     30.251713
_cell_length_c     3841985.0
_cell_angle_alpha  90.754266
_cell_angle_beta   88.890795
_cell_angle_gamma 119.20964
loop_
_atom_site_label
_atom_site_type_symbol
_atom_site_fract_x
_atom_site_fract_y
_atom_site_fract_z
_atom_type_partial_charge
Eu0 Eu 0.23131 0.96709 0.0 0.0
Eu1 Eu 0.30811 0.08871 1e-05 0.0
C2 C 0.35421 0.01392 0.0 0.0
C3 C 0.19587 0.8544 0.0 0.0
C4 C 0.24662 0.86604 0.0 0.0
C5 C 0.18723 0.85285 0.0 0.0
C6 C 0.26886 0.87748 0.0 0.0
C7 C 0.16518 0.84262 0.0 0.0
C8 C 0.24027 0.87603 0.0 0.0
C9 C 0.18187 0.87292 0.0 0.0
O10 O 0.27675 0.05207 1e-05 0.0
O11 O 0.22189 0.96928 1e-05 0.0
C12 C 0.24314 0.00463 1e-05 0.0
O13 O 0.1854 0.00633 0.0 0.0
O14 O 0.37524 0.14788 1e-05 0.0
O15 O 0.32893 0.16828 1e-05 0.0
O16 O 0.2268 0.06545 1e-05 0.0
C17 C 0.19568 0.04973 0.0 0.0
O18 O 0.25035 0.00618 0.0 0.0
O19 O 0.29968 0.09017 0.0 0.0
O20 O 0.3593 0.05481 1e-05 0.0
O21 O 0.16563 0.90496 0.0 0.0
O22 O 0.21481 0.88859 1e-05 0.0
O23 O 0.31093 0.97975 0.0 0.0
C24 C 0.37553 0.22366 1e-05 0.0
C25 C 0.34193 0.21322 1e-05 0.0
C26 C 0.42901 0.30817 1e-05 0.0
C27 C 0.35232 0.24994 1e-05 0.0
C28 C 0.41854 0.27147 1e-05 0.0
C29 C 0.39656 0.29745 1e-05 0.0
C30 C 0.36816 0.18452 1e-05 0.0
C31 C 0.27496 0.05479 0.0 0.0
H32 H 0.27119 0.87373 0.0 0.0
H33 H 0.16351 0.84842 0.0 0.0
H34 H 0.30957 0.89384 0.0 0.0
H35 H 0.12562 0.83229 0.0 0.0
H36 H 0.30843 0.17641 1e-05 0.0
H37 H 0.46359 0.34411 1e-05 0.0
H38 H 0.32623 0.24084 1e-05 0.0
H39 H 0.44486 0.27993 1e-05 0.0
Eu40 Eu 0.07707 0.20239 1e-05 0.0
Eu41 Eu 0.19607 0.27788 1e-05 0.0
C42 C 0.12265 0.32217 1e-05 0.0
C43 C 0.94671 0.16271 1e-05 0.0
C44 C 0.9664 0.21024 1e-05 0.0
C45 C 0.86226 0.14304 1e-05 0.0
C46 C 0.93438 0.22418 1e-05 0.0
C47 C 0.89449 0.1292 1e-05 0.0
C48 C 0.88194 0.19081 1e-05 0.0
C49 C 0.98053 0.15009 1e-05 0.0
O50 O 0.16282 0.25906 1e-05 0.0
O51 O 0.07774 0.21633 1e-05 0.0
C52 C 0.1147 0.23533 1e-05 0.0
O53 O 0.10068 0.15714 1e-05 0.0
O54 O 0.26187 0.35183 1e-05 0.0
O55 O 0.26966 0.29661 1e-05 0.0
O56 O 0.18306 0.1986 1e-05 0.0
C57 C 0.14705 0.16478 1e-05 0.0
O58 O 0.11812 0.18336 1e-05 0.0
O59 O 0.19196 0.25876 1e-05 0.0
O60 O 0.15574 0.32334 1e-05 0.0
O61 O 1.01561 0.14693 1e-05 0.0
O62 O 0.9984 0.1763 1e-05 0.0
O63 O 0.0967 0.2814 1e-05 0.0
C64 C 0.31761 0.38185 1e-05 0.0
C65 C 0.29409 0.37803 1e-05 0.0
C66 C 0.39385 0.45458 1e-05 0.0
C67 C 0.32078 0.41095 1e-05 0.0
C68 C 0.36711 0.42104 1e-05 0.0
C69 C 0.3715 0.44899 1e-05 0.0
C70 C 0.29111 0.34346 1e-05 0.0
C71 C 0.16145 0.21482 1e-05 0.0
H72 H 1.00662 0.23666 1e-05 0.0
H73 H 0.82203 0.11655 1e-05 0.0
H74 H 0.95095 0.26073 0.0 0.0
H75 H 0.87869 0.09257 1e-05 0.0
H76 H 0.25569 0.34816 1e-05 0.0
H77 H 0.43248 0.4838 1e-05 0.0
H78 H 0.30228 0.4044 1e-05 0.0
H79 H 0.38556 0.42479 1e-05 0.0
Eu80 Eu 0.94685 0.12111 0.0 0.0
Eu81 Eu 0.92832 0.00726 1e-05 0.0
C82 C 0.83595 0.0302 0.0 0.0
C83 C 0.92839 0.22756 0.0 0.0
C84 C 0.87514 0.2021 0.0 0.0
C85 C 0.92819 0.28135 0.0 0.0
C86 C 0.84875 0.21559 0.0 0.0
C87 C 0.95467 0.26806 0.0 0.0
C88 C 0.87493 0.25433 0.0 0.0
C89 C 0.95636 0.21008 0.0 0.0
O90 O 0.95669 0.04717 1e-05 0.0
O91 O 0.94851 0.11798 1e-05 0.0
C92 C 0.95787 0.08874 1e-05 0.0
O93 O 1.01666 0.12205 1e-05 0.0
O94 O 0.88133 0.92661 1e-05 0.0
O95 O 0.94654 0.95292 1e-05 0.0
O96 O 1.00573 0.05243 0.0 0.0
C97 C 0.03448 0.10112 0.0 0.0
O98 O 0.95715 0.09258 0.0 0.0
O99 O 0.9233 0.00765 0.0 0.0
O100 O 0.85491 0.00862 1e-05 0.0
O101 O 0.98361 0.19345 0.0 0.0
O102 O 0.93094 0.18135 1e-05 0.0
O103 O 0.8657 0.06763 0.0 0.0
C104 C 0.87243 0.87545 1e-05 0.0
C105 C 0.87697 0.88615 1e-05 0.0
C106 C 0.79802 0.79404 1e-05 0.0
C107 C 0.8423 0.85117 1e-05 0.0
C108 C 0.83309 0.8289 1e-05 0.0
C109 C 0.80186 0.80505 1e-05 0.0
C110 C 0.90528 0.91383 1e-05 0.0
C111 C 0.94224 0.04545 0.0 0.0
H112 H 0.8537 0.17062 0.0 0.0
H113 H 0.94953 0.31091 0.0 0.0
H114 H 0.80776 0.19441 0.0 0.0
H115 H 0.99568 0.28815 0.0 0.0
H116 H 0.90675 0.92184 1e-05 0.0
H117 H 0.76731 0.75906 1e-05 0.0
H118 H 0.84729 0.86038 1e-05 0.0
H119 H 0.82871 0.82009 1e-05 0.0
Eu120 Eu 0.12914 0.90129 1e-05 0.0
Eu121 Eu 1.00545 0.82796 1e-05 0.0
C122 C 0.07751 0.77843 1e-05 0.0
C123 C 0.25948 0.0128 1e-05 0.0
C124 C 0.30773 0.02197 1e-05 0.0
C125 C 0.27369 0.08851 1e-05 0.0
C126 C 0.33788 0.06261 1e-05 0.0
C127 C 0.24321 0.04727 1e-05 0.0
C128 C 0.32032 0.0951 1e-05 0.0
C129 C 0.22574 0.96507 1e-05 0.0
O130 O 0.03862 0.83311 1e-05 0.0
O131 O 0.12469 0.87852 1e-05 0.0
C132 C 0.08629 0.85499 1e-05 0.0
O133 O 0.09137 0.94694 1e-05 0.0
O134 O 0.94113 0.75248 1e-05 0.0
O135 O 0.92845 0.81665 1e-05 0.0
O136 O 0.02615 0.89178 1e-05 0.0
C137 C 0.06408 0.93724 1e-05 0.0
O138 O 0.09741 0.90619 1e-05 0.0
O139 O 1.01271 0.87015 1e-05 0.0
O140 O 0.03242 0.77472 1e-05 0.0
O141 O 0.19756 0.967 1e-05 0.0
O142 O 0.20124 0.92566 1e-05 0.0
O143 O 0.11899 0.82201 1e-05 0.0
C144 C 0.87317 0.74988 1e-05 0.0
C145 C 0.89005 0.77 1e-05 0.0
C146 C 0.79244 0.68793 1e-05 0.0
C147 C 0.85859 0.74883 1e-05 0.0
C148 C 0.82409 0.70921 1e-05 0.0
C149 C 0.80984 0.70693 1e-05 0.0
C150 C 0.90811 0.76839 1e-05 0.0
C151 C 0.05086 0.8954 1e-05 0.0
H152 H 0.32093 -0.00415 1e-05 0.0
H153 H 0.25928 0.1132 1e-05 0.0
H154 H 0.37298 0.06545 1e-05 0.0
H155 H 0.20608 0.04098 1e-05 0.0
H156 H 0.92796 0.80134 1e-05 0.0
H157 H 0.75515 0.65566 1e-05 0.0
H158 H 0.87267 0.76495 1e-05 0.0
H159 H 0.81076 0.6931 1e-05 0.0
C160 C 0.08423 0.18598 0.0 0.0
C161 C 0.06616 0.13338 0.0 0.0
C162 C 0.10736 0.21624 0.0 0.0
C163 C 0.16609 0.2036 0.0 0.0
H164 H 0.26242 0.27096 0.0 0.0
C165 C 0.17652 0.07463 0.0 0.0
C166 C 0.19651 0.0884 0.0 0.0
C167 C 0.18858 0.11131 0.0 0.0
C168 C 0.23559 0.25046 0.0 0.0
H169 H 0.05649 0.07123 0.0 0.0
H170 H 0.09767 0.12292 0.0 0.0
H171 H 0.20037 0.29654 0.0 0.0
H172 H 0.23982 0.15209 1e-05 0.0
H173 H 0.26345 0.21564 0.0 0.0
H174 H 0.1996 0.15628 0.0 0.0
C175 C 0.09417 0.14189 0.0 0.0
C176 C 0.20002 0.26554 0.0 0.0
C177 C 0.07113 0.11173 0.0 0.0
C178 C 0.22566 0.14001 0.0 0.0
C179 C 0.2392 0.17674 0.0 0.0
C180 C 0.20132 0.18751 0.0 0.0
C181 C 0.11516 0.19527 0.0 0.0
C182 C 0.15573 0.22895 0.0 0.0
C183 C 0.22118 0.16329 0.0 0.0
C184 C 0.22742 0.20298 0.0 0.0
H185 H 0.08006 0.20402 0.0 0.0
H186 H 0.12169 0.25664 0.0 0.0
H187 H 0.13805 0.18335 0.0 0.0
H188 H 0.15316 0.03518 0.0 0.0
H189 H 0.17147 0.09797 0.0 0.0
C190 C 0.13793 0.00476 1e-05 0.0
C191 C 0.08689 0.96759 1e-05 0.0
C192 C 0.16309 0.02478 1e-05 0.0
C193 C 0.13632 0.05635 1e-05 0.0
H194 H 0.2711 0.14574 1e-05 0.0
C195 C 0.12257 0.12638 1e-05 0.0
C196 C 0.1609 0.15438 1e-05 0.0
C197 C 0.13394 0.1252 1e-05 0.0
C198 C 0.23365 0.12174 1e-05 0.0
H199 H 0.0213 0.92418 1e-05 0.0
H200 H 0.06467 0.96086 1e-05 0.0
H201 H 0.24031 0.05528 1e-05 0.0
H202 H 0.24192 0.20334 1e-05 0.0
H203 H 0.26226 0.19909 1e-05 0.0
H204 H 0.13049 0.12324 1e-05 0.0
C205 C 0.08593 0.97334 1e-05 0.0
C206 C 0.2159 0.06941 1e-05 0.0
C207 C 0.06081 0.95296 1e-05 0.0
C208 C 0.21136 0.18055 1e-05 0.0
C209 C 0.22298 0.17897 1e-05 0.0
C210 C 0.15577 0.10903 1e-05 0.0
C211 C 0.13776 0.00907 1e-05 0.0
C212 C 0.16303 0.03748 1e-05 0.0
C213 C 0.18455 0.15065 1e-05 0.0
C214 C 0.19717 0.13794 1e-05 0.0
H215 H 0.15911 0.01749 1e-05 0.0
H216 H 0.20234 0.05387 1e-05 0.0
H217 H 0.09701 0.03239 1e-05 0.0
H218 H 0.0832 0.10638 1e-05 0.0
H219 H 0.1024 0.10234 1e-05 0.0
C220 C 0.74837 0.98508 1e-05 0.0
C221 C 0.78111 0.01496 0.0 0.0
C222 C 0.69787 0.97522 1e-05 0.0
C223 C 0.59739 0.97882 0.0 0.0
H224 H 0.54747 0.00044 1e-05 0.0
C225 C 0.39969 0.96712 0.0 0.0
C226 C 0.39935 0.00634 0.0 0.0
C227 C 0.44269 0.96069 0.0 0.0
C228 C 0.56078 -0.00579 1e-05 0.0
H229 H 0.78561 0.05628 0.0 0.0
H230 H 0.69866 0.03915 0.0 0.0
H231 H 0.62858 0.00147 1e-05 0.0
H232 H 0.44437 0.06933 1e-05 0.0
H233 H 0.51845 0.0582 1e-05 0.0
H234 H 0.53042 0.97337 0.0 0.0
C235 C 0.71147 0.02302 0.0 0.0
C236 C 0.60709 -0.00578 1e-05 0.0
C237 C 0.7617 0.03319 0.0 0.0
C238 C 0.44296 0.03867 1e-05 0.0
C239 C 0.48551 0.03202 1e-05 0.0
C240 C 0.55094 0.97854 0.0 0.0
C241 C 0.67893 -0.00553 0.0 0.0
C242 C 0.62662 0.98772 1e-05 0.0
C243 C 0.48609 -0.00703 1e-05 0.0
C244 C 0.53258 0.98744 1e-05 0.0
H245 H 0.76206 0.9705 1e-05 0.0
H246 H 0.67374 0.9528 1e-05 0.0
H247 H 0.61094 0.97305 0.0 0.0
H248 H 0.36691 0.94154 0.0 0.0
H249 H 0.44175 0.93011 0.0 0.0
C250 C 0.09203 0.37518 1e-05 0.0
C251 C 0.11506 0.36729 1e-05 0.0
C252 C 0.08694 0.41895 1e-05 0.0
C253 C 0.07746 0.5157 1e-05 0.0
H254 H 0.12535 0.60213 1e-05 0.0
C255 C 0.0385 0.6836 1e-05 0.0
C256 C 0.08088 0.73082 1e-05 0.0
C257 C 0.04183 0.63894 1e-05 0.0
C258 C 0.1118 0.57836 1e-05 0.0
H259 H 0.14968 0.39907 1e-05 0.0
H260 H 0.13939 0.47396 1e-05 0.0
H261 H 0.13107 0.52384 1e-05 0.0
H262 H 0.15983 0.76734 1e-05 0.0
H263 H 0.16514 0.68888 1e-05 0.0
H264 H 0.05756 0.56961 1e-05 0.0
C265 C 0.12587 0.44676 1e-05 0.0
C266 C 0.11472 0.53334 1e-05 0.0
C267 C 0.13192 0.40379 1e-05 0.0
C268 C 0.12642 0.73178 1e-05 0.0
C269 C 0.12943 0.68679 1e-05 0.0
C270 C 0.07352 0.56002 1e-05 0.0
C271 C 0.10363 0.45519 1e-05 0.0
C272 C 0.09804 0.50168 1e-05 0.0
C273 C 0.08734 0.63986 1e-05 0.0
C274 C 0.091 0.59221 1e-05 0.0
H275 H 0.07862 0.34795 1e-05 0.0
H276 H 0.06937 0.42415 1e-05 0.0
H277 H 0.06412 0.49216 1e-05 0.0
H278 H 1.00284 0.68117 1e-05 0.0
H279 H 1.00862 0.60348 1e-05 0.0
C280 C 0.22118 0.23159 0.0 0.0
C281 C 0.17598 0.19942 0.0 0.0
C282 C 0.23432 0.21638 0.0 0.0
C283 C 0.20238 0.10042 0.0 0.0
H284 H 0.27523 0.20008 0.0 0.0
C285 C 0.23066 0.03691 0.0 0.0
C286 C 0.26975 0.07057 0.0 0.0
C287 C 0.22129 0.05269 0.0 0.0
C288 C 0.2555 0.17124 0.0 0.0
H289 H 0.10966 0.12492 0.0 0.0
H290 H 0.13201 0.0989 0.0 0.0
H291 H 0.2554 0.22634 0.0 0.0
H292 H 0.33007 0.14817 0.0 0.0
H293 H 0.31614 0.17484 0.0 0.0
H294 H 0.20282 0.04534 0.0 0.0
C295 C 0.15795 0.13601 0.0 0.0
C296 C 0.24391 0.18666 0.0 0.0
C297 C 0.14475 0.15128 0.0 0.0
C298 C 0.29985 0.12059 0.0 0.0
C299 C 0.29113 0.1362 0.0 0.0
C300 C 0.21415 0.085 0.0 0.0
C301 C 0.203 0.16816 0.0 0.0
C302 C 0.21671 0.15163 0.0 0.0
C303 C 0.2513 0.10276 0.0 0.0
C304 C 0.24051 0.11986 0.0 0.0
H305 H 0.24673 0.26876 0.0 0.0
H306 H 0.26971 0.24249 0.0 0.0
H307 H 0.18259 0.07183 0.0 0.0
H308 H 0.20562 -0.00161 0.0 0.0
H309 H 0.18939 0.02529 0.0 0.0
C310 C 0.04982 0.19147 1e-05 0.0
C311 C 0.10056 0.22414 1e-05 0.0
C312 C 0.03599 0.17744 1e-05 0.0
C313 C 0.0779 0.21432 1e-05 0.0
H314 H 0.97323 0.07726 1e-05 0.0
C315 C 0.98561 0.15295 1e-05 0.0
C316 C 0.97289 0.10419 1e-05 0.0
C317 C 1.00207 0.16783 1e-05 0.0
C318 C 1.00272 0.11572 1e-05 0.0
H319 H 0.17645 0.26711 1e-05 0.0
H320 H 0.15227 0.24354 1e-05 0.0
H321 H 1.00105 0.10212 1e-05 0.0
H322 H 0.96771 0.03304 1e-05 0.0
H323 H 0.99541 0.05843 1e-05 0.0
H324 H 0.07946 0.22786 1e-05 0.0
C325 C 0.12291 0.22887 1e-05 0.0
C326 C 1.0185 0.13027 1e-05 0.0
C327 C 0.13691 0.24254 1e-05 0.0
C328 C 0.97679 0.07084 1e-05 0.0
C329 C 0.99266 0.08549 1e-05 0.0
C330 C 0.06164 0.19992 1e-05 0.0
C331 C 0.07209 0.19569 1e-05 0.0
C332 C 0.05636 0.17994 1e-05 0.0
C333 C 1.00599 0.13444 1e-05 0.0
C334 C 0.02362 0.15025 1e-05 0.0
H335 H 0.02033 0.1758 1e-05 0.0
H336 H 0.99646 0.15241 1e-05 0.0
H337 H 0.10686 0.25295 1e-05 0.0
H338 H 0.9835 0.18011 1e-05 0.0
H339 H 1.01123 0.20562 1e-05 0.0
C340 C 0.99117 0.90031 0.0 0.0
C341 C 0.04074 0.91288 0.0 0.0
C342 C 0.98133 0.91656 0.0 0.0
C343 C 0.04365 0.00895 0.0 0.0
H344 H 0.91617 0.92231 0.0 0.0
C345 C 0.9785 0.07111 0.0 0.0
C346 C 0.95121 0.03344 0.0 0.0
C347 C 0.99027 0.0586 0.0 0.0
C348 C 0.95226 0.94724 0.0 0.0
H349 H 0.11895 0.95392 0.0 0.0
H350 H 0.10198 0.98169 0.0 0.0
H351 H 0.93554 0.89649 0.0 0.0
H352 H 0.91462 0.95223 0.0 0.0
H353 H 0.93408 0.9309 0.0 0.0
H354 H 0.0605 0.05927 0.0 0.0
C355 C 0.07031 0.95937 0.0 0.0
C356 C 0.96326 0.93253 0.0 0.0
C357 C 0.08015 0.94293 0.0 0.0
C358 C 0.93536 0.98284 0.0 0.0
C359 C 0.94655 0.97036 0.0 0.0
C360 C 0.03248 0.02386 0.0 0.0
C361 C 0.02054 0.94635 0.0 0.0
C362 C 1.00921 0.96288 0.0 0.0
C363 C 0.97448 0.00778 0.0 0.0
C364 C 0.98652 -0.00681 0.0 0.0
H365 H 0.95948 0.87773 0.0 0.0
H366 H 0.94251 0.90609 0.0 0.0
H367 H 0.07937 0.03411 0.0 0.0
H368 H 0.99173 0.11053 0.0 0.0
H369 H 1.01149 0.08897 0.0 0.0
C370 C 0.14924 0.88133 1e-05 0.0
C371 C 0.09857 0.86115 1e-05 0.0
C372 C 0.16319 0.89476 1e-05 0.0
C373 C 0.12898 0.93848 1e-05 0.0
H374 H 0.21545 0.89669 1e-05 0.0
C375 C 0.23097 0.02466 1e-05 0.0
C376 C 0.22736 -0.01052 1e-05 0.0
C377 C 0.2142 0.00917 1e-05 0.0
C378 C 0.19132 0.90885 1e-05 0.0
H379 H 0.02287 0.83893 1e-05 0.0
H380 H 0.04743 0.86322 1e-05 0.0
H381 H 0.18751 0.86813 1e-05 0.0
H382 H 0.20364 0.91007 1e-05 0.0
H383 H 0.17653 0.88381 1e-05 0.0
H384 H 0.13414 0.98051 1e-05 0.0
C385 C 0.07636 0.86824 1e-05 0.0
C386 C 0.17533 0.89249 1e-05 0.0
C387 C 0.06213 0.85372 1e-05 0.0
C388 C 0.20715 0.93853 1e-05 0.0
C389 C 0.19164 0.92335 1e-05 0.0
C390 C 0.1461 0.95597 1e-05 0.0
C391 C 0.1273 0.8895 1e-05 0.0
C392 C 0.14354 0.90661 1e-05 0.0
C393 C 0.19449 0.9582 1e-05 0.0
C394 C 0.1773 0.94114 1e-05 0.0
H395 H 0.17883 0.88804 1e-05 0.0
H396 H 0.20271 0.91094 1e-05 0.0
H397 H 0.10499 0.95067 1e-05 0.0
H398 H 0.24601 0.06414 1e-05 0.0
H399 H 0.2174 0.03736 1e-05 0.0
C400 C 0.75008 0.78678 1e-05 0.0
C401 C 0.76467 0.76872 1e-05 0.0
C402 C 0.72271 0.75425 1e-05 0.0
C403 C 0.71102 0.63789 1e-05 0.0
H404 H 0.662 0.68766 1e-05 0.0
C405 C 0.80088 0.67557 1e-05 0.0
C406 C 0.77837 0.68282 1e-05 0.0
C407 C 0.77404 0.65957 1e-05 0.0
C408 C 0.67422 0.67169 1e-05 0.0
H409 H 0.75631 0.70093 1e-05 0.0
H410 H 0.70632 0.64359 1e-05 0.0
H411 H 0.65261 0.70782 1e-05 0.0
H412 H 0.70856 0.67457 1e-05 0.0
H413 H 0.66091 0.6456 1e-05 0.0
H414 H 0.73214 0.60136 1e-05 0.0
C415 C 0.71801 0.68342 1e-05 0.0
C416 C 0.66965 0.68411 1e-05 0.0
C417 C 0.74633 0.7163 1e-05 0.0
C418 C 0.72698 0.6697 1e-05 0.0
C419 C 0.69982 0.65336 1e-05 0.0
C420 C 0.71405 0.62409 1e-05 0.0
C421 C 0.70828 0.7024 1e-05 0.0
C422 C 0.69273 0.67175 1e-05 0.0
C423 C 0.72365 0.6499 1e-05 0.0
C424 C 0.70046 0.64517 1e-05 0.0
H425 H 0.76198 0.82668 1e-05 0.0
H426 H 0.7165 0.771 1e-05 0.0
H427 H 0.72824 0.62628 1e-05 0.0
H428 H 0.84009 0.68422 1e-05 0.0
H429 H 0.79432 0.65824 1e-05 0.0
C430 C 0.31571 0.92159 0.0 0.0
C431 C 0.26627 0.90982 0.0 0.0
C432 C 0.3444 0.96271 0.0 0.0
C433 C 0.35008 0.08174 0.0 0.0
H434 H 0.40874 0.06499 0.0 0.0
C435 C 0.31358 0.12579 0.0 0.0
C436 C 0.34457 0.12634 0.0 0.0
C437 C 0.33051 0.13074 0.0 0.0
C438 C 0.39436 0.07148 0.0 0.0
H439 H 0.20761 0.93079 0.0 0.0
H440 H 0.25614 -0.00085 0.0 0.0
H441 H 0.38291 0.00115 0.0 0.0
H442 H 0.42185 0.14706 0.0 0.0
H443 H 0.45029 0.15269 0.0 0.0
H444 H 0.3566 0.14937 0.0 0.0
C445 C 0.27353 0.97827 0.0 0.0
C446 C 0.37922 0.03452 0.0 0.0
C447 C 0.24515 0.93782 0.0 0.0
C448 C 0.39609 0.1434 0.0 0.0
C449 C 0.41267 0.14718 0.0 0.0
C450 C 0.36472 0.11847 0.0 0.0
C451 C 0.32404 -0.00746 0.0 0.0
C452 C 0.35377 0.0377 0.0 0.0
C453 C 0.37821 0.13556 0.0 0.0
C454 C 0.38379 0.11182 0.0 0.0
H455 H 0.333 0.90035 0.0 0.0
H456 H 0.38294 0.97219 0.0 0.0
H457 H 0.33217 0.0857 0.0 0.0
H458 H 0.27401 0.11417 0.0 0.0
H459 H 0.30328 0.12268 0.0 0.0
C460 C 0.45188 0.48576 1e-05 0.0
C461 C 0.40204 0.47699 1e-05 0.0
C462 C 0.47468 0.49635 1e-05 0.0
C463 C 0.44473 0.4997 1e-05 0.0
H464 H 0.492 0.40168 1e-05 0.0
C465 C 0.43232 0.38645 1e-05 0.0
C466 C 0.41086 0.33409 1e-05 0.0
C467 C 0.44762 0.42065 1e-05 0.0
C468 C 0.47913 0.42938 1e-05 0.0
H469 H 0.34135 0.4826 1e-05 0.0
H470 H 0.3787 0.4965 1e-05 0.0
H471 H 0.49388 0.44078 1e-05 0.0
H472 H 0.38932 0.27675 1e-05 0.0
H473 H 0.4145 0.33575 1e-05 0.0
H474 H 0.4254 0.48366 1e-05 0.0
C475 C 0.40088 0.49564 1e-05 0.0
C476 C 0.48098 0.45274 1e-05 0.0
C477 C 0.37879 0.48662 1e-05 0.0
C478 C 0.40501 0.31671 1e-05 0.0
C479 C 0.42034 0.35069 1e-05 0.0
C480 C 0.44224 0.47564 1e-05 0.0
C481 C 0.44745 0.49664 1e-05 0.0
C482 C 0.46094 0.48594 1e-05 0.0
C483 C 0.44215 0.40305 1e-05 0.0
C484 C 0.45666 0.43803 1e-05 0.0
H485 H 0.47167 0.47972 1e-05 0.0
H486 H 0.51172 0.49946 1e-05 0.0
H487 H 0.43056 0.52633 1e-05 0.0
H488 H 0.43705 0.40092 1e-05 0.0
H489 H 0.4641 0.46076 1e-05 0.0
C490 C 0.86238 0.31015 0.0 0.0
C491 C 0.84739 0.26169 0.0 0.0
C492 C 0.84325 0.3156 0.0 0.0
C493 C 0.75649 0.24007 0.0 0.0
H494 H 0.87667 0.32193 0.0 0.0
C495 C 0.81496 0.17039 0.0 0.0
C496 C 0.84934 0.20481 0.0 0.0
C497 C 0.79397 0.18706 0.0 0.0
C498 C 0.84202 0.29988 0.0 0.0
H499 H 0.79756 0.18124 0.0 0.0
H500 H 0.7654 0.19045 0.0 0.0
H501 H 0.87799 0.33666 0.0 0.0
H502 H 0.88305 0.28184 1e-05 0.0
H503 H 0.84675 0.31111 0.0 0.0
H504 H 0.72264 0.1999 0.0 0.0
C505 C 0.79091 0.22458 0.0 0.0
C506 C 0.84274 0.30843 0.0 0.0
C507 C 0.80969 0.21919 0.0 0.0
C508 C 0.85765 0.25479 0.0 0.0
C509 C 0.83668 0.27148 0.0 0.0
C510 C 0.75598 0.23114 0.0 0.0
C511 C 0.80929 0.27266 0.0 0.0
C512 C 0.80129 0.2762 0.0 0.0
C513 C 0.80706 0.23847 0.0 0.0
C514 C 0.79999 0.25876 0.0 0.0
H515 H 0.89065 0.34367 0.0 0.0
H516 H 0.85744 0.35328 0.0 0.0
H517 H 0.72329 0.21565 0.0 0.0
H518 H 0.8078 0.13166 0.0 0.0
H519 H 0.7716 0.16064 0.0 0.0
loop_
_geom_bond_atom_site_label_1
_geom_bond_atom_site_label_2
_geom_bond_distance
_geom_bond_site_symmetry_2
_ccdc_geom_bond_type
Eu0 C9 2.828 . S
Eu0 O11 2.392 1_554 S
Eu0 O13 2.418 . S
Eu0 O18 2.373 . S
Eu0 O21 2.488 . S
Eu0 O22 2.471 . S
Eu0 O23 2.349 . S
Eu1 O10 2.373 . S
Eu1 O14 2.488 . S
Eu1 O15 2.471 . S
Eu1 O16 2.349 . S
Eu1 O19 2.392 1_556 S
Eu1 O20 2.418 . S
Eu1 C30 2.828 . S
C2 O20 1.244 1_554 S
C2 O23 1.265 . S
C3 C4 1.379 . S
C3 C7 1.373 . S
C3 C9 1.505 . S
C4 C3 1.379 . S
C4 C6 1.369 . S
C4 H32 0.930 . S
C5 C7 1.383 1_565 S
C5 C8 1.382 1_565 S
C5 H33 0.930 . S
C6 C4 1.369 . S
C6 C8 1.392 . S
C6 H34 0.930 . S
C7 C3 1.373 . S
C7 C5 1.383 1_545 S
C7 H35 0.931 1_545 S
C8 C5 1.382 1_545 S
C8 C6 1.392 . S
C9 Eu0 2.828 . S
C9 C3 1.505 . S
C9 O21 1.249 . S
C9 O22 1.244 . S
O10 Eu1 2.373 . S
O10 C12 1.258 . S
O11 Eu0 2.392 1_556 S
O11 C12 1.242 . S
C12 O10 1.258 . S
C12 O11 1.242 . S
O13 Eu0 2.418 . S
O13 C17 1.244 . S
O14 Eu1 2.488 . S
O14 C30 1.249 . S
O15 Eu1 2.471 . S
O15 C30 1.244 . S
O16 Eu1 2.349 . S
O16 C17 1.265 1_556 S
C17 O13 1.244 . S
C17 O16 1.265 1_554 S
O18 Eu0 2.373 . S
O18 C31 1.258 . S
O19 Eu1 2.392 1_554 S
O19 C31 1.242 . S
O20 Eu1 2.418 . S
O20 C2 1.244 1_556 S
O21 Eu0 2.488 . S
O21 C9 1.249 . S
O22 Eu0 2.471 . S
O22 C9 1.244 . S
O23 Eu0 2.349 . S
O23 C2 1.265 . S
C24 C25 1.379 . S
C24 C28 1.373 . S
C24 C30 1.505 . S
C25 C24 1.379 . S
C25 C27 1.369 . S
C25 H36 0.930 . S
C26 C28 1.383 . S
C26 C29 1.382 . S
C26 H37 0.930 . S
C27 C25 1.369 . S
C27 C29 1.392 . S
C27 H38 0.930 . S
C28 C24 1.373 . S
C28 C26 1.383 . S
C28 H39 0.931 . S
C29 C26 1.382 . S
C29 C27 1.392 . S
C30 Eu1 2.828 . S
C30 O14 1.249 . S
C30 O15 1.244 . S
C30 C24 1.505 . S
C31 O18 1.258 . S
C31 O19 1.242 . S
H32 C4 0.930 . S
H33 C5 0.930 . S
H34 C6 0.930 . S
H35 C7 0.931 1_565 S
H36 C25 0.930 . S
H37 C26 0.930 . S
H38 C27 0.930 . S
H39 C28 0.931 . S
Eu40 C49 2.828 . S
Eu40 O51 2.392 . S
Eu40 O53 2.418 . S
Eu40 O58 2.373 . S
Eu40 O61 2.488 . S
Eu40 O62 2.471 . S
Eu40 O63 2.349 . S
Eu41 O50 2.373 . S
Eu41 O54 2.488 . S
Eu41 O55 2.471 . S
Eu41 O56 2.349 . S
Eu41 O59 2.392 . S
Eu41 O60 2.418 . S
Eu41 C70 2.828 . S
C42 O60 1.244 . S
C42 O63 1.265 . S
C43 C44 1.379 . S
C43 C47 1.373 . S
C43 C49 1.505 . S
C44 C43 1.379 . S
C44 C46 1.369 . S
C44 H72 0.930 . S
C45 C47 1.383 1_655 S
C45 C48 1.382 1_655 S
C45 H73 0.930 . S
C46 C44 1.369 . S
C46 C48 1.392 . S
C46 H74 0.930 . S
C47 C43 1.373 . S
C47 C45 1.383 1_455 S
C47 H75 0.931 1_455 S
C48 C45 1.382 1_455 S
C48 C46 1.392 . S
C49 Eu40 2.828 . S
C49 C43 1.505 . S
C49 O61 1.249 . S
C49 O62 1.244 . S
O50 Eu41 2.373 . S
O50 C52 1.258 . S
O51 Eu40 2.392 . S
O51 C52 1.242 . S
C52 O50 1.258 . S
C52 O51 1.242 . S
O53 Eu40 2.418 . S
O53 C57 1.244 . S
O54 Eu41 2.488 . S
O54 C70 1.249 . S
O55 Eu41 2.471 . S
O55 C70 1.244 . S
O56 Eu41 2.349 . S
O56 C57 1.265 . S
C57 O53 1.244 . S
C57 O56 1.265 . S
O58 Eu40 2.373 . S
O58 C71 1.258 . S
O59 Eu41 2.392 . S
O59 C71 1.242 . S
O60 Eu41 2.418 . S
O60 C42 1.244 . S
O61 Eu40 2.488 . S
O61 C49 1.249 . S
O62 Eu40 2.471 . S
O62 C49 1.244 . S
O63 Eu40 2.349 . S
O63 C42 1.265 . S
C64 C65 1.379 . S
C64 C68 1.373 . S
C64 C70 1.505 . S
C65 C64 1.379 . S
C65 C67 1.369 . S
C65 H76 0.930 . S
C66 C68 1.383 . S
C66 C69 1.382 . S
C66 H77 0.930 . S
C67 C65 1.369 . S
C67 C69 1.392 . S
C67 H78 0.930 . S
C68 C64 1.373 . S
C68 C66 1.383 . S
C68 H79 0.931 . S
C69 C66 1.382 . S
C69 C67 1.392 . S
C70 Eu41 2.828 . S
C70 O54 1.249 . S
C70 O55 1.244 . S
C70 C64 1.505 . S
C71 O58 1.258 . S
C71 O59 1.242 . S
H72 C44 0.930 . S
H73 C45 0.930 . S
H74 C46 0.930 . S
H75 C47 0.931 1_655 S
H76 C65 0.930 . S
H77 C66 0.930 . S
H78 C67 0.930 . S
H79 C68 0.931 . S
Eu80 C89 2.828 . S
Eu80 O91 2.392 1_554 S
Eu80 O93 2.418 . S
Eu80 O98 2.354 1_545 S
Eu80 O101 2.488 . S
Eu80 O102 2.471 . S
Eu80 O103 2.349 . S
Eu81 O90 2.373 1_565 S
Eu81 O94 2.488 . S
Eu81 O95 2.471 . S
Eu81 O96 2.349 . S
Eu81 O99 2.392 1_556 S
Eu81 O100 2.418 . S
Eu81 C110 2.828 . S
C82 O100 1.244 1_554 S
C82 O103 1.265 1_565 S
C83 C84 1.379 . S
C83 C87 1.373 . S
C83 C89 1.505 . S
C84 C83 1.379 . S
C84 C86 1.369 . S
C84 H112 0.930 . S
C85 C87 1.383 . S
C85 C88 1.382 . S
C85 H113 0.930 . S
C86 C84 1.369 . S
C86 C88 1.392 . S
C86 H114 0.930 . S
C87 C83 1.373 . S
C87 C85 1.383 . S
C87 H115 0.931 . S
C88 C85 1.382 . S
C88 C86 1.392 . S
C89 Eu80 2.828 . S
C89 C83 1.505 . S
C89 O101 1.249 . S
C89 O102 1.244 . S
O90 Eu81 2.373 1_545 S
O90 C92 1.258 . S
O91 Eu80 2.392 1_556 S
O91 C92 1.242 . S
C92 O90 1.258 . S
C92 O91 1.242 . S
O93 Eu80 2.418 . S
O93 C97 1.244 . S
O94 Eu81 2.488 . S
O94 C110 1.249 . S
O95 Eu81 2.471 . S
O95 C110 1.244 . S
O96 Eu81 2.349 . S
O96 C97 1.265 1_566 S
C97 O93 1.244 . S
C97 O96 1.265 1_544 S
O98 Eu80 2.354 1_565 S
O98 C111 1.277 . S
O99 Eu81 2.392 1_554 S
O99 C111 1.242 . S
O100 Eu81 2.418 . S
O100 C82 1.244 1_556 S
O101 Eu80 2.488 . S
O101 C89 1.249 . S
O102 Eu80 2.471 . S
O102 C89 1.244 . S
O103 Eu80 2.349 . S
O103 C82 1.265 1_545 S
C104 C105 1.379 . S
C104 C108 1.373 . S
C104 C110 1.505 . S
C105 C104 1.379 . S
C105 C107 1.369 . S
C105 H116 0.930 . S
C106 C108 1.383 . S
C106 C109 1.382 . S
C106 H117 0.930 . S
C107 C105 1.369 . S
C107 C109 1.392 . S
C107 H118 0.930 . S
C108 C104 1.373 . S
C108 C106 1.383 . S
C108 H119 0.931 . S
C109 C106 1.382 . S
C109 C107 1.392 . S
C110 Eu81 2.828 . S
C110 O94 1.249 . S
C110 O95 1.244 . S
C110 C104 1.505 . S
C111 O98 1.277 . S
C111 O99 1.242 . S
H112 C84 0.930 . S
H113 C85 0.930 . S
H114 C86 0.930 . S
H115 C87 0.931 . S
H116 C105 0.930 . S
H117 C106 0.930 . S
H118 C107 0.930 . S
H119 C108 0.931 . S
Eu120 C129 2.828 . S
Eu120 O131 2.392 . S
Eu120 O133 2.418 . S
Eu120 O138 2.354 1_455 S
Eu120 O141 2.488 . S
Eu120 O142 2.471 . S
Eu120 O143 2.349 . S
Eu121 O130 2.373 1_655 S
Eu121 O134 2.488 . S
Eu121 O135 2.471 . S
Eu121 O136 2.349 . S
Eu121 O139 2.392 . S
Eu121 O140 2.418 . S
Eu121 C150 2.828 . S
C122 O140 1.244 . S
C122 O143 1.265 1_655 S
C123 C124 1.379 . S
C123 C127 1.373 . S
C123 C129 1.505 . S
C124 C123 1.379 . S
C124 C126 1.369 . S
C124 H152 0.930 . S
C125 C127 1.383 . S
C125 C128 1.382 . S
C125 H153 0.930 . S
C126 C124 1.369 . S
C126 C128 1.392 . S
C126 H154 0.930 . S
C127 C123 1.373 . S
C127 C125 1.383 . S
C127 H155 0.931 . S
C128 C125 1.382 . S
C128 C126 1.392 . S
C129 Eu120 2.828 . S
C129 C123 1.505 . S
C129 O141 1.249 . S
C129 O142 1.244 . S
O130 Eu121 2.373 1_455 S
O130 C132 1.258 . S
O131 Eu120 2.392 . S
O131 C132 1.242 . S
C132 O130 1.258 . S
C132 O131 1.242 . S
O133 Eu120 2.418 . S
O133 C137 1.244 . S
O134 Eu121 2.488 . S
O134 C150 1.249 . S
O135 Eu121 2.471 . S
O135 C150 1.244 . S
O136 Eu121 2.349 . S
O136 C137 1.265 1_655 S
C137 O133 1.244 . S
C137 O136 1.265 1_455 S
O138 Eu120 2.354 1_655 S
O138 C151 1.277 . S
O139 Eu121 2.392 . S
O139 C151 1.242 . S
O140 Eu121 2.418 . S
O140 C122 1.244 . S
O141 Eu120 2.488 . S
O141 C129 1.249 . S
O142 Eu120 2.471 . S
O142 C129 1.244 . S
O143 Eu120 2.349 . S
O143 C122 1.265 1_455 S
C144 C145 1.379 . S
C144 C148 1.373 . S
C144 C150 1.505 . S
C145 C144 1.379 . S
C145 C147 1.369 . S
C145 H156 0.930 . S
C146 C148 1.383 . S
C146 C149 1.382 . S
C146 H157 0.930 . S
C147 C145 1.369 . S
C147 C149 1.392 . S
C147 H158 0.930 . S
C148 C144 1.373 . S
C148 C146 1.383 . S
C148 H159 0.931 . S
C149 C146 1.382 . S
C149 C147 1.392 . S
C150 Eu121 2.828 . S
C150 O134 1.249 . S
C150 O135 1.244 . S
C150 C144 1.505 . S
C151 O138 1.277 . S
C151 O139 1.242 . S
H152 C124 0.930 . S
H153 C125 0.930 . S
H154 C126 0.930 . S
H155 C127 0.931 . S
H156 C145 0.930 . S
H157 C146 0.930 . S
H158 C147 0.930 . S
H159 C148 0.931 . S
C160 C161 1.349 1_546 S
C160 C162 1.327 . S
C160 H185 0.950 . S
C161 C160 1.349 1_564 S
C161 C177 1.349 . S
C162 C160 1.327 . S
C162 C181 1.429 1_556 S
C162 H186 0.950 . S
C163 C180 1.574 . S
C163 C182 1.368 . S
C163 H187 0.949 . S
H164 C168 0.949 . S
C165 C166 1.349 . S
C165 C167 1.327 . S
C165 H188 0.950 . S
C166 C165 1.349 . S
C166 C178 1.349 1_554 S
C167 C165 1.327 . S
C167 C183 1.429 . S
C167 H189 0.950 . S
C168 H164 0.949 . S
C168 C176 1.574 . S
C168 C184 1.368 1_556 S
H169 C177 0.950 . S
H170 C175 0.950 . S
H171 C176 0.949 . S
H172 C178 0.950 . S
H173 C179 0.950 . S
H174 C180 0.949 . S
C175 H170 0.950 . S
C175 C177 1.327 . S
C175 C181 1.429 1_565 S
C176 C168 1.574 . S
C176 H171 0.949 . S
C176 C182 1.368 1_556 S
C177 C161 1.349 . S
C177 H169 0.950 . S
C177 C175 1.327 . S
C178 C166 1.349 1_556 S
C178 H172 0.950 . S
C178 C179 1.327 . S
C179 H173 0.950 . S
C179 C178 1.327 . S
C179 C183 1.429 1_556 S
C180 C163 1.574 . S
C180 H174 0.949 . S
C180 C184 1.368 . S
C181 C162 1.429 1_554 S
C181 C175 1.429 1_545 S
C181 C182 1.523 1_655 S
C182 C163 1.368 . S
C182 C176 1.368 1_554 S
C182 C181 1.523 1_455 S
C183 C167 1.429 . S
C183 C179 1.429 1_554 S
C183 C184 1.523 . S
C184 C168 1.368 1_554 S
C184 C180 1.368 . S
C184 C183 1.523 . S
H185 C160 0.950 . S
H186 C162 0.950 . S
H187 C163 0.949 . S
H188 C165 0.950 . S
H189 C167 0.950 . S
C190 C191 1.349 . S
C190 C192 1.327 . S
C190 H215 0.950 . S
C191 C190 1.349 . S
C191 C207 1.349 1_655 S
C192 C190 1.327 . S
C192 C211 1.429 1_655 S
C192 H216 0.950 . S
C193 C210 1.574 . S
C193 C212 1.368 . S
C193 H217 0.949 . S
H194 C198 0.949 . S
C195 C196 1.349 . S
C195 C197 1.327 . S
C195 H218 0.950 . S
C196 C195 1.349 . S
C196 C208 1.349 . S
C197 C195 1.327 . S
C197 C213 1.429 . S
C197 H219 0.950 . S
C198 H194 0.949 . S
C198 C206 1.574 . S
C198 C214 1.368 . S
H199 C207 0.950 . S
H200 C205 0.950 . S
H201 C206 0.949 . S
H202 C208 0.950 . S
H203 C209 0.950 . S
H204 C210 0.949 . S
C205 H200 0.950 . S
C205 C207 1.327 . S
C205 C211 1.429 . S
C206 C198 1.574 . S
C206 H201 0.949 . S
C206 C212 1.368 . S
C207 C191 1.349 1_455 S
C207 H199 0.950 . S
C207 C205 1.327 . S
C208 C196 1.349 . S
C208 H202 0.950 . S
C208 C209 1.327 . S
C209 H203 0.950 . S
C209 C208 1.327 . S
C209 C213 1.429 . S
C210 C193 1.574 . S
C210 H204 0.949 . S
C210 C214 1.368 . S
C211 C192 1.429 1_455 S
C211 C205 1.429 . S
C211 C212 1.523 1_565 S
C212 C193 1.368 . S
C212 C206 1.368 . S
C212 C211 1.523 1_545 S
C213 C197 1.429 . S
C213 C209 1.429 . S
C213 C214 1.523 . S
C214 C198 1.368 . S
C214 C210 1.368 . S
C214 C213 1.523 . S
H215 C190 0.950 . S
H216 C192 0.950 . S
H217 C193 0.949 . S
H218 C195 0.950 . S
H219 C197 0.950 . S
C220 C221 1.349 1_556 S
C220 C222 1.327 1_565 S
C220 H245 0.950 . S
C221 C220 1.349 1_554 S
C221 C237 1.349 1_565 S
C222 C220 1.327 1_545 S
C222 C241 1.429 1_556 S
C222 H246 0.950 1_545 S
C223 C240 1.574 . S
C223 C242 1.368 . S
C223 H247 0.949 . S
H224 C228 0.949 . S
C225 C226 1.349 . S
C225 C227 1.327 . S
C225 H248 0.950 . S
C226 C225 1.349 . S
C226 C238 1.349 1_554 S
C227 C225 1.327 . S
C227 C243 1.429 . S
C227 H249 0.950 . S
C228 H224 0.949 . S
C228 C236 1.574 . S
C228 C244 1.368 1_556 S
H229 C237 0.950 . S
H230 C235 0.950 . S
H231 C236 0.949 . S
H232 C238 0.950 . S
H233 C239 0.950 . S
H234 C240 0.949 . S
C235 H230 0.950 . S
C235 C237 1.327 . S
C235 C241 1.429 . S
C236 C228 1.574 . S
C236 H231 0.949 . S
C236 C242 1.368 1_556 S
C237 C221 1.349 1_545 S
C237 H229 0.950 . S
C237 C235 1.327 . S
C238 C226 1.349 1_556 S
C238 H232 0.950 . S
C238 C239 1.327 . S
C239 H233 0.950 . S
C239 C238 1.327 . S
C239 C243 1.429 1_556 S
C240 C223 1.574 . S
C240 H234 0.949 . S
C240 C244 1.368 . S
C241 C222 1.429 1_554 S
C241 C235 1.429 . S
C241 C242 1.523 . S
C242 C223 1.368 . S
C242 C236 1.368 1_554 S
C242 C241 1.523 . S
C243 C227 1.429 . S
C243 C239 1.429 1_554 S
C243 C244 1.523 . S
C244 C228 1.368 1_554 S
C244 C240 1.368 . S
C244 C243 1.523 . S
H245 C220 0.950 . S
H246 C222 0.950 1_565 S
H247 C223 0.949 . S
H248 C225 0.950 . S
H249 C227 0.950 . S
C250 C251 1.349 . S
C250 C252 1.327 . S
C250 H275 0.950 . S
C251 C250 1.349 . S
C251 C267 1.349 . S
C252 C250 1.327 . S
C252 C271 1.429 . S
C252 H276 0.950 . S
C253 C270 1.574 . S
C253 C272 1.368 . S
C253 H277 0.949 . S
H254 C258 0.949 . S
C255 C256 1.349 1_455 S
C255 C257 1.327 . S
C255 H278 0.950 . S
C256 C255 1.349 1_655 S
C256 C268 1.349 . S
C257 C255 1.327 . S
C257 C273 1.429 . S
C257 H279 0.950 . S
C258 H254 0.949 . S
C258 C266 1.574 . S
C258 C274 1.368 . S
H259 C267 0.950 . S
H260 C265 0.950 . S
H261 C266 0.949 . S
H262 C268 0.950 . S
H263 C269 0.950 1_655 S
H264 C270 0.949 . S
C265 H260 0.950 . S
C265 C267 1.327 . S
C265 C271 1.429 . S
C266 C258 1.574 . S
C266 H261 0.949 . S
C266 C272 1.368 . S
C267 C251 1.349 . S
C267 H259 0.950 . S
C267 C265 1.327 . S
C268 C256 1.349 . S
C268 H262 0.950 . S
C268 C269 1.327 1_655 S
C269 H263 0.950 1_455 S
C269 C268 1.327 1_455 S
C269 C273 1.429 . S
C270 C253 1.574 . S
C270 H264 0.949 . S
C270 C274 1.368 . S
C271 C252 1.429 . S
C271 C265 1.429 . S
C271 C272 1.523 . S
C272 C253 1.368 . S
C272 C266 1.368 . S
C272 C271 1.523 . S
C273 C257 1.429 . S
C273 C269 1.429 . S
C273 C274 1.523 . S
C274 C258 1.368 . S
C274 C270 1.368 . S
C274 C273 1.523 . S
H275 C250 0.950 . S
H276 C252 0.950 . S
H277 C253 0.949 . S
H278 C255 0.950 . S
H279 C257 0.950 . S
C280 C281 1.349 . S
C280 C282 1.327 . S
C280 H305 0.950 . S
C281 C280 1.349 . S
C281 C297 1.349 . S
C282 C280 1.327 . S
C282 C301 1.429 . S
C282 H306 0.950 . S
C283 C300 1.574 . S
C283 C302 1.368 . S
C283 H307 0.949 . S
H284 C288 0.949 . S
C285 C286 1.349 . S
C285 C287 1.327 . S
C285 H308 0.950 . S
C286 C285 1.349 . S
C286 C298 1.349 . S
C287 C285 1.327 . S
C287 C303 1.429 . S
C287 H309 0.950 . S
C288 H284 0.949 . S
C288 C296 1.574 . S
C288 C304 1.368 . S
H289 C297 0.950 . S
H290 C295 0.950 . S
H291 C296 0.949 . S
H292 C298 0.950 . S
H293 C299 0.950 . S
H294 C300 0.949 . S
C295 H290 0.950 . S
C295 C297 1.327 . S
C295 C301 1.429 . S
C296 C288 1.574 . S
C296 H291 0.949 . S
C296 C302 1.368 . S
C297 C281 1.349 . S
C297 H289 0.950 . S
C297 C295 1.327 . S
C298 C286 1.349 . S
C298 H292 0.950 . S
C298 C299 1.327 . S
C299 H293 0.950 . S
C299 C298 1.327 . S
C299 C303 1.429 . S
C300 C283 1.574 . S
C300 H294 0.949 . S
C300 C304 1.368 . S
C301 C282 1.429 . S
C301 C295 1.429 . S
C301 C302 1.523 . S
C302 C283 1.368 . S
C302 C296 1.368 . S
C302 C301 1.523 . S
C303 C287 1.429 . S
C303 C299 1.429 . S
C303 C304 1.523 . S
C304 C288 1.368 . S
C304 C300 1.368 . S
C304 C303 1.523 . S
H305 C280 0.950 . S
H306 C282 0.950 . S
H307 C283 0.949 . S
H308 C285 0.950 . S
H309 C287 0.950 . S
C310 C311 1.349 . S
C310 C312 1.327 . S
C310 H335 0.950 . S
C311 C310 1.349 . S
C311 C327 1.349 . S
C312 C310 1.327 . S
C312 C331 1.429 . S
C312 H336 0.950 . S
C313 C330 1.574 . S
C313 C332 1.368 . S
C313 H337 0.949 . S
H314 C318 0.949 . S
C315 C316 1.349 . S
C315 C317 1.327 . S
C315 H338 0.950 . S
C316 C315 1.349 . S
C316 C328 1.349 . S
C317 C315 1.327 . S
C317 C333 1.429 . S
C317 H339 0.950 . S
C318 H314 0.949 . S
C318 C326 1.574 . S
C318 C334 1.368 . S
H319 C327 0.950 . S
H320 C325 0.950 1_655 S
H321 C326 0.949 1_455 S
H322 C328 0.950 . S
H323 C329 0.950 . S
H324 C330 0.949 . S
C325 H320 0.950 1_455 S
C325 C327 1.327 . S
C325 C331 1.429 . S
C326 C318 1.574 . S
C326 H321 0.949 1_655 S
C326 C332 1.368 . S
C327 C311 1.349 . S
C327 H319 0.950 . S
C327 C325 1.327 . S
C328 C316 1.349 . S
C328 H322 0.950 . S
C328 C329 1.327 . S
C329 H323 0.950 . S
C329 C328 1.327 . S
C329 C333 1.429 . S
C330 C313 1.574 . S
C330 H324 0.949 . S
C330 C334 1.368 . S
C331 C312 1.429 . S
C331 C325 1.429 . S
C331 C332 1.523 1_455 S
C332 C313 1.368 . S
C332 C326 1.368 . S
C332 C331 1.523 1_655 S
C333 C317 1.429 . S
C333 C329 1.429 . S
C333 C334 1.523 . S
C334 C318 1.368 . S
C334 C330 1.368 . S
C334 C333 1.523 . S
H335 C310 0.950 . S
H336 C312 0.950 . S
H337 C313 0.949 . S
H338 C315 0.950 . S
H339 C317 0.950 . S
C340 C341 1.349 . S
C340 C342 1.327 . S
C340 H365 0.950 . S
C341 C340 1.349 . S
C341 C357 1.349 . S
C342 C340 1.327 . S
C342 C361 1.429 . S
C342 H366 0.950 . S
C343 C360 1.574 . S
C343 C362 1.368 . S
C343 H367 0.949 . S
H344 C348 0.949 . S
C345 C346 1.349 . S
C345 C347 1.327 . S
C345 H368 0.950 . S
C346 C345 1.349 . S
C346 C358 1.349 . S
C347 C345 1.327 . S
C347 C363 1.429 . S
C347 H369 0.950 . S
C348 H344 0.949 . S
C348 C356 1.574 . S
C348 C364 1.368 . S
H349 C357 0.950 . S
H350 C355 0.950 . S
H351 C356 0.949 . S
H352 C358 0.950 . S
H353 C359 0.950 . S
H354 C360 0.949 . S
C355 H350 0.950 . S
C355 C357 1.327 . S
C355 C361 1.429 . S
C356 C348 1.574 . S
C356 H351 0.949 . S
C356 C362 1.368 . S
C357 C341 1.349 . S
C357 H349 0.950 . S
C357 C355 1.327 . S
C358 C346 1.349 . S
C358 H352 0.950 . S
C358 C359 1.327 . S
C359 H353 0.950 . S
C359 C358 1.327 . S
C359 C363 1.429 . S
C360 C343 1.574 . S
C360 H354 0.949 . S
C360 C364 1.368 . S
C361 C342 1.429 . S
C361 C355 1.429 . S
C361 C362 1.523 . S
C362 C343 1.368 . S
C362 C356 1.368 . S
C362 C361 1.523 . S
C363 C347 1.429 . S
C363 C359 1.429 . S
C363 C364 1.523 . S
C364 C348 1.368 . S
C364 C360 1.368 . S
C364 C363 1.523 . S
H365 C340 0.950 . S
H366 C342 0.950 . S
H367 C343 0.949 . S
H368 C345 0.950 . S
H369 C347 0.950 . S
C370 C371 1.349 . S
C370 C372 1.327 . S
C370 H395 0.950 . S
C371 C370 1.349 . S
C371 C387 1.349 . S
C372 C370 1.327 . S
C372 C391 1.429 . S
C372 H396 0.950 . S
C373 C390 1.574 1_565 S
C373 C392 1.368 . S
C373 H397 0.949 . S
H374 C378 0.949 . S
C375 C376 1.349 . S
C375 C377 1.327 . S
C375 H398 0.950 . S
C376 C375 1.349 . S
C376 C388 1.349 . S
C377 C375 1.327 . S
C377 C393 1.429 . S
C377 H399 0.950 . S
C378 H374 0.949 . S
C378 C386 1.574 . S
C378 C394 1.368 . S
H379 C387 0.950 . S
H380 C385 0.950 . S
H381 C386 0.949 . S
H382 C388 0.950 . S
H383 C389 0.951 . S
H384 C390 0.949 . S
C385 H380 0.950 . S
C385 C387 1.327 . S
C385 C391 1.429 . S
C386 C378 1.574 . S
C386 H381 0.949 . S
C386 C392 1.368 . S
C387 C371 1.349 . S
C387 H379 0.950 . S
C387 C385 1.327 . S
C388 C376 1.349 . S
C388 H382 0.950 . S
C388 C389 1.327 1_545 S
C389 H383 0.951 . S
C389 C388 1.327 1_565 S
C389 C393 1.427 1_565 S
C390 C373 1.574 1_545 S
C390 H384 0.949 . S
C390 C394 1.368 1_545 S
C391 C372 1.429 . S
C391 C385 1.429 . S
C391 C392 1.523 . S
C392 C373 1.368 . S
C392 C386 1.368 . S
C392 C391 1.523 . S
C393 C377 1.429 . S
C393 C389 1.427 1_545 S
C393 C394 1.523 1_545 S
C394 C378 1.368 . S
C394 C390 1.368 1_565 S
C394 C393 1.523 1_565 S
H395 C370 0.950 . S
H396 C372 0.950 . S
H397 C373 0.949 . S
H398 C375 0.950 . S
H399 C377 0.950 . S
C400 C401 1.349 . S
C400 C402 1.327 . S
C400 H425 0.950 . S
C401 C400 1.349 . S
C401 C417 1.349 . S
C402 C400 1.327 . S
C402 C421 1.429 . S
C402 H426 0.950 . S
C403 C420 1.574 . S
C403 C422 1.368 . S
C403 H427 0.949 . S
H404 C408 0.949 . S
C405 C406 1.349 . S
C405 C407 1.327 . S
C405 H428 0.950 . S
C406 C405 1.349 . S
C406 C418 1.349 . S
C407 C405 1.327 . S
C407 C423 1.429 . S
C407 H429 0.950 . S
C408 H404 0.949 . S
C408 C416 1.574 . S
C408 C424 1.368 . S
H409 C417 0.950 . S
H410 C415 0.950 . S
H411 C416 0.949 . S
H412 C418 0.950 . S
H413 C419 0.950 . S
H414 C420 0.949 . S
C415 H410 0.950 . S
C415 C417 1.327 . S
C415 C421 1.429 . S
C416 C408 1.574 . S
C416 H411 0.949 . S
C416 C422 1.368 . S
C417 C401 1.349 . S
C417 H409 0.950 . S
C417 C415 1.327 . S
C418 C406 1.349 . S
C418 H412 0.950 . S
C418 C419 1.327 . S
C419 H413 0.950 . S
C419 C418 1.327 . S
C419 C423 1.429 . S
C420 C403 1.574 . S
C420 H414 0.949 . S
C420 C424 1.368 . S
C421 C402 1.429 . S
C421 C415 1.429 . S
C421 C422 1.523 . S
C422 C403 1.368 . S
C422 C416 1.368 . S
C422 C421 1.523 . S
C423 C407 1.429 . S
C423 C419 1.429 . S
C423 C424 1.523 . S
C424 C408 1.368 . S
C424 C420 1.368 . S
C424 C423 1.523 . S
H425 C400 0.950 . S
H426 C402 0.950 . S
H427 C403 0.949 . S
H428 C405 0.950 . S
H429 C407 0.950 . S
C430 C431 1.349 1_565 S
C430 C432 1.327 . S
C430 H455 0.950 . S
C431 C430 1.349 1_545 S
C431 C447 1.349 . S
C432 C430 1.327 . S
C432 C451 1.429 . S
C432 H456 0.950 . S
C433 C450 1.574 . S
C433 C452 1.368 . S
C433 H457 0.949 1_565 S
H434 C438 0.949 . S
C435 C436 1.349 . S
C435 C437 1.327 . S
C435 H458 0.950 . S
C436 C435 1.349 . S
C436 C448 1.349 . S
C437 C435 1.327 . S
C437 C453 1.429 . S
C437 H459 0.950 . S
C438 H434 0.949 . S
C438 C446 1.574 . S
C438 C454 1.368 . S
H439 C447 0.950 . S
H440 C445 0.950 . S
H441 C446 0.949 . S
H442 C448 0.950 . S
H443 C449 0.950 . S
H444 C450 0.949 . S
C445 H440 0.950 . S
C445 C447 1.327 . S
C445 C451 1.429 1_545 S
C446 C438 1.574 . S
C446 H441 0.949 . S
C446 C452 1.368 . S
C447 C431 1.349 . S
C447 H439 0.950 . S
C447 C445 1.327 . S
C448 C436 1.349 . S
C448 H442 0.950 . S
C448 C449 1.327 . S
C449 H443 0.950 . S
C449 C448 1.327 . S
C449 C453 1.429 . S
C450 C433 1.574 . S
C450 H444 0.949 . S
C450 C454 1.368 . S
C451 C432 1.429 . S
C451 C445 1.429 1_565 S
C451 C452 1.523 . S
C452 C433 1.368 . S
C452 C446 1.368 . S
C452 C451 1.523 . S
C453 C437 1.429 . S
C453 C449 1.429 . S
C453 C454 1.523 . S
C454 C438 1.368 . S
C454 C450 1.368 . S
C454 C453 1.523 . S
H455 C430 0.950 . S
H456 C432 0.950 . S
H457 C433 0.949 1_545 S
H458 C435 0.950 . S
H459 C437 0.950 . S
C460 C461 1.349 . S
C460 C462 1.327 . S
C460 H485 0.950 . S
C461 C460 1.349 . S
C461 C477 1.349 . S
C462 C460 1.327 . S
C462 C481 1.429 . S
C462 H486 0.950 . S
C463 C480 1.574 . S
C463 C482 1.368 . S
C463 H487 0.949 . S
H464 C468 0.949 . S
C465 C466 1.349 . S
C465 C467 1.327 . S
C465 H488 0.950 . S
C466 C465 1.349 . S
C466 C478 1.349 . S
C467 C465 1.327 . S
C467 C483 1.429 . S
C467 H489 0.950 . S
C468 H464 0.949 . S
C468 C476 1.574 . S
C468 C484 1.368 . S
H469 C477 0.950 . S
H470 C475 0.950 . S
H471 C476 0.949 . S
H472 C478 0.950 . S
H473 C479 0.950 . S
H474 C480 0.949 . S
C475 H470 0.950 . S
C475 C477 1.327 . S
C475 C481 1.429 . S
C476 C468 1.574 . S
C476 H471 0.949 . S
C476 C482 1.368 . S
C477 C461 1.349 . S
C477 H469 0.950 . S
C477 C475 1.327 . S
C478 C466 1.349 . S
C478 H472 0.950 . S
C478 C479 1.327 . S
C479 H473 0.950 . S
C479 C478 1.327 . S
C479 C483 1.429 . S
C480 C463 1.574 . S
C480 H474 0.949 . S
C480 C484 1.368 . S
C481 C462 1.429 . S
C481 C475 1.429 . S
C481 C482 1.523 . S
C482 C463 1.368 . S
C482 C476 1.368 . S
C482 C481 1.523 . S
C483 C467 1.429 . S
C483 C479 1.429 . S
C483 C484 1.523 . S
C484 C468 1.368 . S
C484 C480 1.368 . S
C484 C483 1.523 . S
H485 C460 0.950 . S
H486 C462 0.950 . S
H487 C463 0.949 . S
H488 C465 0.950 . S
H489 C467 0.950 . S
C490 C491 1.349 . S
C490 C492 1.327 . S
C490 H515 0.950 . S
C491 C490 1.349 . S
C491 C507 1.349 . S
C492 C490 1.327 . S
C492 C511 1.429 . S
C492 H516 0.950 . S
C493 C510 1.574 . S
C493 C512 1.368 . S
C493 H517 0.949 . S
H494 C498 0.949 . S
C495 C496 1.349 . S
C495 C497 1.327 . S
C495 H518 0.950 . S
C496 C495 1.349 . S
C496 C508 1.349 . S
C497 C495 1.327 . S
C497 C513 1.429 1_455 S
C497 H519 0.950 . S
C498 H494 0.949 . S
C498 C506 1.574 . S
C498 C514 1.368 . S
H499 C507 0.950 . S
H500 C505 0.950 . S
H501 C506 0.949 . S
H502 C508 0.950 . S
H503 C509 0.950 . S
H504 C510 0.949 . S
C505 H500 0.950 . S
C505 C507 1.327 . S
C505 C511 1.429 . S
C506 C498 1.574 . S
C506 H501 0.949 . S
C506 C512 1.368 . S
C507 C491 1.349 . S
C507 H499 0.950 . S
C507 C505 1.327 . S
C508 C496 1.349 . S
C508 H502 0.950 . S
C508 C509 1.327 1_455 S
C509 H503 0.950 . S
C509 C508 1.327 1_655 S
C509 C513 1.429 . S
C510 C493 1.574 . S
C510 H504 0.949 . S
C510 C514 1.368 . S
C511 C492 1.429 . S
C511 C505 1.429 . S
C511 C512 1.523 . S
C512 C493 1.368 . S
C512 C506 1.368 . S
C512 C511 1.523 . S
C513 C497 1.429 1_655 S
C513 C509 1.429 . S
C513 C514 1.523 . S
C514 C498 1.368 . S
C514 C510 1.368 . S
C514 C513 1.523 . S
H515 C490 0.950 . S
H516 C492 0.950 . S
H517 C493 0.949 . S
H518 C495 0.950 . S
H519 C497 0.950 . S
C161 C97 0.867 1_565 S
C166 C17 0.867 . S
C191 C137 0.867 1_655 S
C196 C57 0.867 . S
C221 C82 1.074 . S
C226 C2 1.074 . S
C251 C42 1.074 . S
C256 C122 1.074 . S
C281 C71 4.643 . S
C286 C31 4.643 . S
C311 C52 4.406 . S
C316 C92 4.406 . S
C341 C151 4.643 . S
C346 C111 4.643 . S
C371 C132 4.406 . S
C376 C12 4.406 . S
C401 C109 0.869 . S
C406 C149 0.869 . S
C431 C8 1.170 . S
C436 C128 1.170 . S
C461 C69 0.868 . S
C466 C29 0.868 . S
C491 C88 1.171 . S
C496 C48 1.171 . S
