# Generated by pormake.
# Topology wfx, (7)-cn, num edge types: 1
# Building blocks:
#     Node 0, Type 0, BuildingBlock: NUHQUE_clean_sbu_2, # of connection points: 7
#     Node 1, Type 0, BuildingBlock: NUHQUE_clean_sbu_2, # of connection points: 7
#     Node 2, Type 0, BuildingBlock: NUHQUE_clean_sbu_2, # of connection points: 7
#     Node 3, Type 0, BuildingBlock: NUHQUE_clean_sbu_2, # of connection points: 7
#     Node 4, Type 0, BuildingBlock: NUHQUE_clean_sbu_2, # of connection points: 7
#     Node 5, Type 0, BuildingBlock: NUHQUE_clean_sbu_2, # of connection points: 7
#     Node 6, Type 0, BuildingBlock: NUHQUE_clean_sbu_2, # of connection points: 7
#     Node 7, Type 0, BuildingBlock: NUHQUE_clean_sbu_2, # of connection points: 7
#     Node 8, Type 0, BuildingBlock: NUHQUE_clean_sbu_2, # of connection points: 7
#     Node 9, Type 0, BuildingBlock: NUHQUE_clean_sbu_2, # of connection points: 7
#     Node 10, Type 0, BuildingBlock: NUHQUE_clean_sbu_2, # of connection points: 7
#     Node 11, Type 0, BuildingBlock: NUHQUE_clean_sbu_2, # of connection points: 7
#     Node 12, Type 0, BuildingBlock: NUHQUE_clean_sbu_2, # of connection points: 7
#     Node 13, Type 0, BuildingBlock: NUHQUE_clean_sbu_2, # of connection points: 7
#     Node 14, Type 0, BuildingBlock: NUHQUE_clean_sbu_2, # of connection points: 7
#     Node 15, Type 0, BuildingBlock: NUHQUE_clean_sbu_2, # of connection points: 7
#     Edge 16, Type (0, 0), BuildingBlock: XUDNAN_clean_linker_2, # of connection points: 2
#     Edge 17, Type (0, 0), BuildingBlock: XUDNAN_clean_linker_2, # of connection points: 2
#     Edge 18, Type (0, 0), BuildingBlock: XUDNAN_clean_linker_2, # of connection points: 2
#     Edge 19, Type (0, 0), BuildingBlock: XUDNAN_clean_linker_2, # of connection points: 2
#     Edge 20, Type (0, 0), BuildingBlock: XUDNAN_clean_linker_2, # of connection points: 2
#     Edge 21, Type (0, 0), BuildingBlock: XUDNAN_clean_linker_2, # of connection points: 2
#     Edge 22, Type (0, 0), BuildingBlock: XUDNAN_clean_linker_2, # of connection points: 2
#     Edge 23, Type (0, 0), BuildingBlock: XUDNAN_clean_linker_2, # of connection points: 2
#     Edge 24, Type (0, 0), BuildingBlock: XUDNAN_clean_linker_2, # of connection points: 2
#     Edge 25, Type (0, 0), BuildingBlock: XUDNAN_clean_linker_2, # of connection points: 2
#     Edge 26, Type (0, 0), BuildingBlock: XUDNAN_clean_linker_2, # of connection points: 2
#     Edge 27, Type (0, 0), BuildingBlock: XUDNAN_clean_linker_2, # of connection points: 2
#     Edge 28, Type (0, 0), BuildingBlock: XUDNAN_clean_linker_2, # of connection points: 2
#     Edge 29, Type (0, 0), BuildingBlock: XUDNAN_clean_linker_2, # of connection points: 2
#     Edge 30, Type (0, 0), BuildingBlock: XUDNAN_clean_linker_2, # of connection points: 2
#     Edge 31, Type (0, 0), BuildingBlock: XUDNAN_clean_linker_2, # of connection points: 2
#     Edge 32, Type (0, 0), BuildingBlock: XUDNAN_clean_linker_2, # of connection points: 2
#     Edge 33, Type (0, 0), BuildingBlock: XUDNAN_clean_linker_2, # of connection points: 2
#     Edge 34, Type (0, 0), BuildingBlock: XUDNAN_clean_linker_2, # of connection points: 2
#     Edge 35, Type (0, 0), BuildingBlock: XUDNAN_clean_linker_2, # of connection points: 2
#     Edge 36, Type (0, 0), BuildingBlock: XUDNAN_clean_linker_2, # of connection points: 2
#     Edge 37, Type (0, 0), BuildingBlock: XUDNAN_clean_linker_2, # of connection points: 2
#     Edge 38, Type (0, 0), BuildingBlock: XUDNAN_clean_linker_2, # of connection points: 2
#     Edge 39, Type (0, 0), BuildingBlock: XUDNAN_clean_linker_2, # of connection points: 2
#     Edge 40, Type (0, 0), BuildingBlock: XUDNAN_clean_linker_2, # of connection points: 2
#     Edge 41, Type (0, 0), BuildingBlock: XUDNAN_clean_linker_2, # of connection points: 2
#     Edge 42, Type (0, 0), BuildingBlock: XUDNAN_clean_linker_2, # of connection points: 2
#     Edge 43, Type (0, 0), BuildingBlock: XUDNAN_clean_linker_2, # of connection points: 2
#     Edge 44, Type (0, 0), BuildingBlock: XUDNAN_clean_linker_2, # of connection points: 2
#     Edge 45, Type (0, 0), BuildingBlock: XUDNAN_clean_linker_2, # of connection points: 2
#     Edge 46, Type (0, 0), BuildingBlock: XUDNAN_clean_linker_2, # of connection points: 2
#     Edge 47, Type (0, 0), BuildingBlock: XUDNAN_clean_linker_2, # of connection points: 2
#     Edge 48, Type (0, 0), BuildingBlock: XUDNAN_clean_linker_2, # of connection points: 2
#     Edge 49, Type (0, 0), BuildingBlock: XUDNAN_clean_linker_2, # of connection points: 2
#     Edge 50, Type (0, 0), BuildingBlock: XUDNAN_clean_linker_2, # of connection points: 2
#     Edge 51, Type (0, 0), BuildingBlock: XUDNAN_clean_linker_2, # of connection points: 2
#     Edge 52, Type (0, 0), BuildingBlock: XUDNAN_clean_linker_2, # of connection points: 2
#     Edge 53, Type (0, 0), BuildingBlock: XUDNAN_clean_linker_2, # of connection points: 2
#     Edge 54, Type (0, 0), BuildingBlock: XUDNAN_clean_linker_2, # of connection points: 2
#     Edge 55, Type (0, 0), BuildingBlock: XUDNAN_clean_linker_2, # of connection points: 2
#     Edge 56, Type (0, 0), BuildingBlock: XUDNAN_clean_linker_2, # of connection points: 2
#     Edge 57, Type (0, 0), BuildingBlock: XUDNAN_clean_linker_2, # of connection points: 2
#     Edge 58, Type (0, 0), BuildingBlock: XUDNAN_clean_linker_2, # of connection points: 2
#     Edge 59, Type (0, 0), BuildingBlock: XUDNAN_clean_linker_2, # of connection points: 2
#     Edge 60, Type (0, 0), BuildingBlock: XUDNAN_clean_linker_2, # of connection points: 2
#     Edge 61, Type (0, 0), BuildingBlock: XUDNAN_clean_linker_2, # of connection points: 2
#     Edge 62, Type (0, 0), BuildingBlock: XUDNAN_clean_linker_2, # of connection points: 2
#     Edge 63, Type (0, 0), BuildingBlock: XUDNAN_clean_linker_2, # of connection points: 2
#     Edge 64, Type (0, 0), BuildingBlock: XUDNAN_clean_linker_2, # of connection points: 2
#     Edge 65, Type (0, 0), BuildingBlock: XUDNAN_clean_linker_2, # of connection points: 2
#     Edge 66, Type (0, 0), BuildingBlock: XUDNAN_clean_linker_2, # of connection points: 2
#     Edge 67, Type (0, 0), BuildingBlock: XUDNAN_clean_linker_2, # of connection points: 2
#     Edge 68, Type (0, 0), BuildingBlock: XUDNAN_clean_linker_2, # of connection points: 2
#     Edge 69, Type (0, 0), BuildingBlock: XUDNAN_clean_linker_2, # of connection points: 2
#     Edge 70, Type (0, 0), BuildingBlock: XUDNAN_clean_linker_2, # of connection points: 2
#     Edge 71, Type (0, 0), BuildingBlock: XUDNAN_clean_linker_2, # of connection points: 2
# Relax obj value: 0.246
# Max RMSD: 0.275
# Mean RMSD: 0.275
data_MOF--net-wfx--node1-NUHQUE_clean_sbu_2--edge1-XUDNAN_clean_linker_2
_symmetry_space_group_name_H-M    P1
_symmetry_Int_Tables_number       1
_symmetry_cell_setting            triclinic
loop_
_symmetry_equiv_pos_as_xyz
'x, y, z'
_cell_length_a     44.585423
_cell_length_b     44.7575
_cell_length_c     48.137151
_cell_angle_alpha  89.942517
_cell_angle_beta   90.019462
_cell_angle_gamma 89.842078
loop_
_atom_site_label
_atom_site_type_symbol
_atom_site_fract_x
_atom_site_fract_y
_atom_site_fract_z
_atom_type_partial_charge
O0 O 0.67136 0.13762 0.07957 0.0
Tb1 Tb 0.69395 0.12554 0.11802 0.0
Eu2 Eu 0.69106 0.04107 0.11586 0.0
C3 C 0.64272 0.14463 0.0798 0.0
O4 O 0.62701 0.13985 0.10244 0.0
C5 C 0.73182 0.08396 0.08123 0.0
O6 O 0.73166 0.01097 0.11484 0.0
C7 C 0.64607 1.00844 0.10081 0.0
C8 C 0.75648 0.01538 0.12895 0.0
O9 O 0.7585 0.03848 0.14566 0.0
C10 C 0.66929 0.08497 0.16453 0.0
C11 C 0.61671 0.99359 0.10421 0.0
C12 C 0.59219 1.0048 0.08906 0.0
C13 C 0.56534 0.98878 0.08752 0.0
C14 C 0.56289 0.96148 0.10141 0.0
C15 C 0.58725 0.94928 0.11592 0.0
C16 C 0.6141 0.96565 0.11776 0.0
O17 O 0.73336 0.10271 0.10211 0.0
O18 O 0.70898 0.06581 0.0788 0.0
O19 O 0.69331 0.17432 0.11872 0.0
O20 O 0.72012 0.15135 0.14821 0.0
C21 C 0.71185 0.17757 0.13924 0.0
O22 O 0.68614 0.06157 0.15857 0.0
O23 O 0.66142 0.10432 0.14525 0.0
O24 O 0.66961 0.99765 0.1139 0.0
O25 O 0.64711 0.03752 0.09643 0.0
H26 H 0.59436 0.02543 0.07741 0.0
H27 H 0.54231 0.94876 0.09961 0.0
H28 H 0.63327 0.95584 0.12822 0.0
O29 O 0.36981 0.63814 0.08596 0.0
Tb30 Tb 0.39386 0.66921 0.11229 0.0
Eu31 Eu 0.46887 0.69935 0.12609 0.0
C32 C 0.38189 0.62497 0.06433 0.0
O33 O 0.41088 0.62722 0.05997 0.0
C34 C 0.42558 0.71728 0.0765 0.0
O35 O 0.49561 0.74155 0.13119 0.0
C36 C 0.50225 0.66011 0.10108 0.0
C37 C 0.50857 0.7503 0.1543 0.0
O38 O 0.50606 0.73401 0.17689 0.0
C39 C 0.42884 0.66106 0.16673 0.0
C40 C 0.51684 0.63034 0.09826 0.0
C41 C 0.50697 0.61084 0.07724 0.0
C42 C 0.52327 0.58484 0.07068 0.0
C43 C 0.5492 0.578 0.08583 0.0
C44 C 0.55989 0.59727 0.10651 0.0
C45 C 0.54363 0.62347 0.11267 0.0
O46 O 0.41466 0.69003 0.07606 0.0
O47 O 0.44016 0.72755 0.0981 0.0
O48 O 0.37254 0.71167 0.12465 0.0
O49 O 0.34987 0.67065 0.13163 0.0
C50 C 0.34793 0.69947 0.13396 0.0
O51 O 0.44564 0.68508 0.16516 0.0
O52 O 0.42074 0.64678 0.14405 0.0
O53 O 0.51241 0.6787 0.12005 0.0
O54 O 0.47332 0.66313 0.09587 0.0
H55 H 0.48735 0.6166 0.06503 0.0
H56 H 0.56257 0.55876 0.0799 0.0
H57 H 0.55246 0.63889 0.12794 0.0
O58 O 0.88046 0.37758 0.09166 0.0
Tb59 Tb 0.8495 0.40699 0.11363 0.0
Eu60 Eu 0.81907 0.4803 0.12335 0.0
C61 C 0.88727 0.37988 0.06511 0.0
O62 O 0.87909 0.40371 0.05106 0.0
C63 C 0.80261 0.43611 0.07508 0.0
O64 O 0.78067 0.51161 0.13273 0.0
C65 C 0.86001 0.50984 0.09649 0.0
C66 C 0.75326 0.5016 0.13634 0.0
O67 O 0.74868 0.47262 0.13676 0.0
C68 C 0.85913 0.44479 0.16662 0.0
C69 C 0.89007 0.524 0.09671 0.0
C70 C 0.91306 0.51137 0.0805 0.0
C71 C 0.94037 0.52638 0.07675 0.0
C72 C 0.94493 0.55382 0.08997 0.0
C73 C 0.92242 0.56693 0.10625 0.0
C74 C 0.89488 0.55202 0.10945 0.0
O75 O 0.83053 0.42673 0.07607 0.0
O76 O 0.79093 0.45141 0.09564 0.0
O77 O 0.80443 0.39121 0.12521 0.0
O78 O 0.84277 0.36653 0.13792 0.0
C79 C 0.81373 0.36753 0.13846 0.0
O80 O 0.83463 0.46098 0.1639 0.0
O81 O 0.87291 0.43357 0.14474 0.0
O82 O 0.83846 0.52262 0.11084 0.0
O83 O 0.85832 0.48048 0.09615 0.0
H84 H 0.90915 0.49056 0.06959 0.0
H85 H 0.96594 0.5655 0.08681 0.0
H86 H 0.87714 0.56253 0.12135 0.0
O87 O 0.13718 0.87799 0.08336 0.0
Tb88 Tb 0.11552 0.84727 0.11183 0.0
Eu89 Eu 0.04219 0.82122 0.12403 0.0
C90 C 0.15464 0.86556 0.06457 0.0
O91 O 0.15687 0.83627 0.0641 0.0
C92 C 0.08383 0.80063 0.07563 0.0
O93 O 1.00951 0.78498 0.13537 0.0
C94 C 0.01239 0.86227 0.0973 0.0
C95 C 0.01861 0.75753 0.14022 0.0
O96 O 0.04752 0.75194 0.14148 0.0
C97 C 0.08135 0.85905 0.16743 0.0
C98 C 0.99735 0.89197 0.09757 0.0
C99 C 1.01079 0.91611 0.0836 0.0
C100 C 0.99513 0.94311 0.07969 0.0
C101 C 0.96635 0.94632 0.09094 0.0
C102 C 0.95221 0.92244 0.10424 0.0
C103 C 0.96762 0.8952 0.10743 0.0
O104 O 0.09287 0.82848 0.07574 0.0
O105 O 0.06842 0.79021 0.09659 0.0
O106 O 0.16256 0.84018 0.12249 0.0
O107 O 0.13203 0.80412 0.12755 0.0
C108 C 0.16002 0.81235 0.12972 0.0
O109 O 0.06323 0.8361 0.16407 0.0
O110 O 0.09507 0.87186 0.14622 0.0
O111 O 0.99973 0.84048 0.11127 0.0
O112 O 0.04193 0.86087 0.0973 0.0
H113 H 0.03271 0.91324 0.07422 0.0
H114 H 0.95409 0.96705 0.08793 0.0
H115 H 0.95605 0.87641 0.1167 0.0
O116 O 0.15059 0.87601 0.42741 0.0
Tb117 Tb 0.17662 0.90404 0.39931 0.0
Eu118 Eu 0.20329 0.97859 0.37729 0.0
C119 C 0.13849 0.88675 0.4502 0.0
O120 O 0.14001 0.91561 0.45496 0.0
C121 C 0.22543 0.93898 0.42954 0.0
O122 O 0.24795 1.00034 0.3684 0.0
C123 C 0.1674 0.01679 0.40069 0.0
C124 C 0.2529 0.0225 0.35106 0.0
O125 O 0.23123 0.03213 0.33484 0.0
C126 C 0.15808 0.93582 0.34576 0.0
C127 C 0.1368 0.03001 0.40254 0.0
C128 C 0.11599 0.01819 0.42157 0.0
C129 C 0.08856 0.03269 0.42664 0.0
C130 C 0.08191 0.05929 0.41261 0.0
C131 C 0.10201 0.0713 0.39331 0.0
C132 C 0.12941 0.05661 0.38816 0.0
O133 O 0.19828 0.92823 0.43259 0.0
O134 O 0.23334 0.9535 0.40697 0.0
O135 O 0.18595 0.86071 0.38064 0.0
O136 O 0.22053 0.89327 0.38132 0.0
C137 C 0.21374 0.86603 0.37425 0.0
O138 O 0.18233 0.95219 0.3422 0.0
O139 O 0.14859 0.92944 0.37097 0.0
O140 O 0.18402 0.02332 0.37887 0.0
O141 O 0.17163 0.98937 0.41013 0.0
H142 H 0.12146 0.99814 0.43318 0.0
H143 H 0.06062 0.07043 0.41623 0.0
H144 H 0.14522 0.06643 0.37372 0.0
O145 O 0.64377 0.14746 0.43116 0.0
Tb146 Tb 0.62349 0.17774 0.4012 0.0
Eu147 Eu 0.54941 0.19718 0.37741 0.0
C148 C 0.63351 0.1451 0.45665 0.0
O149 O 0.60714 0.15643 0.46277 0.0
C150 C 0.58561 0.22961 0.4269 0.0
O151 O 0.52317 0.23911 0.36918 0.0
C152 C 0.51288 0.15967 0.40065 0.0
C153 C 0.51074 0.24833 0.34599 0.0
O154 O 0.5131 0.23237 0.32322 0.0
C155 C 0.59558 0.15653 0.34554 0.0
C156 C 0.49934 0.12925 0.40105 0.0
C157 C 0.51276 0.10587 0.41632 0.0
C158 C 0.49849 0.078 0.41859 0.0
C159 C 0.47059 0.0737 0.40585 0.0
C160 C 0.45596 0.0969 0.3917 0.0
C161 C 0.47073 0.12456 0.389 0.0
O162 O 0.60091 0.20518 0.43227 0.0
O163 O 0.5702 0.23272 0.40394 0.0
O164 O 0.67177 0.18344 0.39675 0.0
O165 O 0.64288 0.21411 0.37618 0.0
C166 C 0.67083 0.20703 0.3811 0.0
O167 O 0.57719 0.1793 0.34217 0.0
O168 O 0.60359 0.14767 0.37064 0.0
O169 O 0.50534 0.1773 0.3798 0.0
O170 O 0.54078 0.16353 0.40941 0.0
H171 H 0.53402 0.10935 0.42673 0.0
H172 H 0.4597 0.05218 0.40781 0.0
H173 H 0.45939 0.14283 0.37856 0.0
O174 O 0.35636 0.63456 0.43313 0.0
Tb175 Tb 0.33492 0.62574 0.39351 0.0
Eu176 Eu 0.32573 0.53795 0.38692 0.0
C177 C 0.34504 0.65485 0.44992 0.0
O178 O 0.31851 0.66621 0.44432 0.0
C179 C 0.29088 0.58539 0.42602 0.0
O180 O 0.28161 0.51349 0.38391 0.0
C181 C 0.36829 0.50266 0.40359 0.0
C182 C 0.27037 0.50369 0.36037 0.0
O183 O 0.28536 0.50789 0.33721 0.0
C184 C 0.35291 0.58543 0.34511 0.0
C185 C 0.39859 0.48899 0.40217 0.0
C186 C 0.42178 0.50108 0.4185 0.0
C187 C 0.44895 0.48569 0.42201 0.0
C188 C 0.45322 0.45835 0.4086 0.0
C189 C 0.43051 0.44577 0.39219 0.0
C190 C 0.40323 0.46129 0.38885 0.0
O191 O 0.29301 0.60584 0.4066 0.0
O192 O 0.30667 0.56053 0.42518 0.0
O193 O 0.30441 0.65549 0.371 0.0
O194 O 0.34666 0.67211 0.3839 0.0
C195 C 0.32151 0.67894 0.37179 0.0
O196 O 0.33548 0.56182 0.34624 0.0
O197 O 0.36306 0.59717 0.36819 0.0
O198 O 0.34702 0.4939 0.38642 0.0
O199 O 0.36602 0.53086 0.41115 0.0
H200 H 0.4182 0.52172 0.4298 0.0
H201 H 0.47444 0.44673 0.41108 0.0
H202 H 0.38523 0.45109 0.37711 0.0
O203 O 0.87645 0.37375 0.42516 0.0
Tb204 Tb 0.90345 0.34676 0.39724 0.0
Eu205 Eu 0.97853 0.31947 0.37511 0.0
C206 C 0.88769 0.38862 0.44618 0.0
O207 O 0.91691 0.38965 0.44956 0.0
C208 C 0.9405 0.29863 0.42763 0.0
O209 O 1.00673 0.27868 0.3664 0.0
C210 C 0.01397 0.35708 0.39977 0.0
C211 C 1.00094 0.25855 0.34733 0.0
O212 O 0.97848 0.26271 0.33008 0.0
C213 C 0.93582 0.36323 0.3432 0.0
C214 C 0.02722 0.38727 0.40369 0.0
C215 C 0.01596 0.4057 0.42491 0.0
C216 C 0.03085 0.43203 0.43246 0.0
C217 C 0.05686 0.44039 0.41825 0.0
C218 C 0.06947 0.42191 0.39778 0.0
C219 C 0.05421 0.3955 0.39024 0.0
O220 O 0.92884 0.32545 0.43045 0.0
O221 O 0.9522 0.28968 0.404 0.0
O222 O 0.88425 0.3032 0.38581 0.0
O223 O 0.86251 0.34304 0.37277 0.0
C224 C 0.86101 0.31408 0.37276 0.0
O225 O 0.95231 0.33915 0.33938 0.0
O226 O 0.93061 0.37279 0.3686 0.0
O227 O 0.02201 0.34121 0.378 0.0
O228 O 0.9862 0.35204 0.40799 0.0
H229 H 0.99631 0.39891 0.43656 0.0
H230 H 0.06832 0.46068 0.42438 0.0
H231 H 0.06424 0.38059 0.37513 0.0
O232 O 0.37822 0.88302 0.92175 0.0
Tb233 Tb 0.34387 0.89979 0.89364 0.0
Eu234 Eu 0.31755 0.9776 0.8703 0.0
C235 C 0.37237 0.87719 0.94801 0.0
O236 O 0.34773 0.88766 0.95932 0.0
C237 C 0.29228 0.93754 0.92143 0.0
O238 O 0.28082 0.00952 0.85752 0.0
C239 C 0.35783 0.00951 0.89523 0.0
C240 C 0.25291 1.00078 0.85441 0.0
O241 O 0.2467 0.97214 0.85584 0.0
C242 C 0.35437 0.92977 0.83712 0.0
C243 C 0.38822 0.02209 0.89947 0.0
C244 C 0.40543 0.01134 0.92177 0.0
C245 C 0.43145 0.02626 0.93029 0.0
C246 C 0.44085 0.05165 0.91575 0.0
C247 C 0.42379 0.06336 0.89377 0.0
C248 C 0.3976 0.04822 0.88542 0.0
O249 O 0.31834 0.92407 0.92483 0.0
O250 O 0.28578 0.95442 0.89978 0.0
O251 O 0.34894 0.85246 0.88498 0.0
O252 O 0.30634 0.87234 0.87791 0.0
C253 C 0.32164 0.84736 0.87709 0.0
O254 O 0.33352 0.95025 0.83397 0.0
O255 O 0.36651 0.92524 0.86161 0.0
O256 O 0.34135 0.01956 0.87458 0.0
O257 O 0.35231 0.9815 0.90203 0.0
H258 H 0.39776 0.99213 0.9335 0.0
H259 H 0.46078 0.06335 0.92259 0.0
H260 H 0.38369 0.05777 0.86921 0.0
O261 O 0.65042 0.36468 0.91725 0.0
Tb262 Tb 0.62323 0.33145 0.89603 0.0
Eu263 Eu 0.54445 0.31407 0.88545 0.0
C264 C 0.64834 0.37082 0.94392 0.0
O265 O 0.62564 0.36053 0.95837 0.0
C266 C 0.58638 0.2889 0.93467 0.0
O267 O 0.51532 0.2737 0.8787 0.0
C268 C 0.51146 0.35548 0.90805 0.0
C269 C 0.51212 0.25974 0.8549 0.0
O270 O 0.52496 0.27045 0.83245 0.0
C271 C 0.5872 0.34652 0.84141 0.0
C272 C 0.49693 0.38551 0.90654 0.0
C273 C 0.50871 0.40948 0.92213 0.0
C274 C 0.49343 0.43698 0.92339 0.0
C275 C 0.46615 0.44027 0.90936 0.0
C276 C 0.45363 0.41691 0.894 0.0
C277 C 0.46906 0.38942 0.89272 0.0
O278 O 0.60343 0.3128 0.93374 0.0
O279 O 0.56711 0.28258 0.91499 0.0
O280 O 0.66966 0.32149 0.88533 0.0
O281 O 0.63708 0.28756 0.87976 0.0
C282 C 0.66556 0.29401 0.87775 0.0
O283 O 0.56663 0.32581 0.84501 0.0
O284 O 0.60273 0.35749 0.8624 0.0
O285 O 0.50088 0.33436 0.89179 0.0
O286 O 0.54066 0.3533 0.91252 0.0
H287 H 0.5294 0.40665 0.93368 0.0
H288 H 0.45371 0.46099 0.91162 0.0
H289 H 0.45906 0.37104 0.88143 0.0
O290 O 0.14987 0.6409 0.92148 0.0
Tb291 Tb 0.18068 0.61423 0.89659 0.0
Eu292 Eu 0.20028 0.54036 0.87394 0.0
C293 C 0.15076 0.6428 0.94875 0.0
O294 O 0.16773 0.62439 0.96308 0.0
C295 C 0.22919 0.57577 0.92511 0.0
O296 O 0.23609 0.50795 0.85968 0.0
C297 C 0.16129 0.5087 0.9012 0.0
C298 C 0.26416 0.51619 0.85632 0.0
O299 O 0.27074 0.54478 0.85678 0.0
C300 C 0.15913 0.58533 0.84132 0.0
C301 C 0.13146 0.4941 0.90292 0.0
C302 C 0.11276 0.50055 0.92576 0.0
C303 C 0.08729 0.48306 0.93106 0.0
C304 C 0.0797 0.46012 0.9127 0.0
C305 C 0.09801 0.45293 0.89008 0.0
C306 C 0.12398 0.46995 0.88523 0.0
O307 O 0.20396 0.59029 0.92969 0.0
O308 O 0.23441 0.5627 0.90119 0.0
O309 O 0.22239 0.62837 0.8759 0.0
O310 O 0.1893 0.66073 0.88578 0.0
C311 C 0.21572 0.65678 0.87517 0.0
O312 O 0.18138 0.56634 0.83767 0.0
O313 O 0.15086 0.59299 0.86663 0.0
O314 O 0.18067 0.49757 0.88345 0.0
O315 O 0.16376 0.53783 0.90462 0.0
H316 H 0.11915 0.51772 0.94048 0.0
H317 H 0.06026 0.4464 0.9172 0.0
H318 H 0.13879 0.46362 0.86838 0.0
O319 O 0.89587 0.13034 0.92891 0.0
Tb320 Tb 0.91037 0.16676 0.90197 0.0
Eu321 Eu 0.97632 0.2022 0.88052 0.0
C322 C 0.89588 0.13249 0.95619 0.0
O323 O 0.91062 0.15428 0.96809 0.0
C324 C 0.93809 0.22206 0.93204 0.0
O325 O 1.00646 0.23872 0.86449 0.0
C326 C 1.0098 0.16425 0.90751 0.0
C327 C 0.99677 0.26626 0.86135 0.0
O328 O 0.96811 0.272 0.86488 0.0
C329 C 0.94027 0.15635 0.84451 0.0
C330 C 0.02634 0.13546 0.90839 0.0
C331 C 0.02081 0.11591 0.93075 0.0
C332 C 0.03932 0.09098 0.93525 0.0
C333 C 0.0624 0.08473 0.91649 0.0
C334 C 0.06849 0.10378 0.89415 0.0
C335 C 0.05057 0.1294 0.89023 0.0
O336 O 0.93099 0.19371 0.93453 0.0
O337 O 0.94999 0.23228 0.90901 0.0
O338 O 0.86245 0.16132 0.89547 0.0
O339 O 0.88207 0.20269 0.88419 0.0
C340 C 0.85702 0.18763 0.88539 0.0
O341 O 0.95301 0.18276 0.84327 0.0
O342 O 0.93432 0.14387 0.86868 0.0
O343 O 0.02042 0.18562 0.89165 0.0
O344 O 0.98034 0.16416 0.90911 0.0
H345 H 1.00337 0.12116 0.94568 0.0
H346 H 0.07681 0.06555 0.92022 0.0
H347 H 0.05599 0.14481 0.87361 0.0
O348 O 0.88832 0.13176 0.57935 0.0
Tb349 Tb 0.85065 0.11731 0.60473 0.0
Eu350 Eu 0.8269 0.04353 0.62379 0.0
C351 C 0.88423 0.13688 0.55264 0.0
O352 O 0.8597 0.12702 0.54072 0.0
C353 C 0.79828 0.0845 0.57918 0.0
O354 O 0.79207 0.01269 0.64159 0.0
C355 C 0.86275 0.01356 0.5916 0.0
C356 C 0.7658 0.02366 0.64872 0.0
O357 O 0.76217 0.0528 0.64924 0.0
C358 C 0.86743 0.08561 0.66377 0.0
C359 C 0.89077 0.99568 0.59136 0.0
C360 C 0.91281 1.00216 0.57131 0.0
C361 C 0.93764 0.98315 0.56785 0.0
C362 C 0.94112 0.95852 0.58552 0.0
C363 C 0.91925 0.95127 0.60518 0.0
C364 C 0.894 0.96987 0.60808 0.0
O365 O 0.82609 0.0916 0.57378 0.0
O366 O 0.79221 0.07108 0.60246 0.0
O367 O 0.84697 0.16484 0.59736 0.0
O368 O 0.81303 0.14421 0.62151 0.0
C369 C 0.82217 0.16933 0.61065 0.0
O370 O 0.84894 0.06277 0.66135 0.0
O371 O 0.87347 0.10492 0.6436 0.0
O372 O 0.83961 1.00183 0.60445 0.0
O373 O 0.86474 0.04274 0.5947 0.0
H374 H 0.90965 0.02087 0.55727 0.0
H375 H 0.96019 0.9437 0.5827 0.0
H376 H 0.87665 0.96372 0.62275 0.0
O377 O 0.38442 0.85064 0.57502 0.0
Tb378 Tb 0.39532 0.83023 0.61463 0.0
Eu379 Eu 0.48529 0.82246 0.62311 0.0
C380 C 0.36037 0.841 0.56202 0.0
O381 O 0.3461 0.81783 0.57223 0.0
C382 C 0.43948 0.78862 0.58523 0.0
O383 O 0.51657 0.78381 0.63089 0.0
C384 C 0.51483 0.86975 0.60993 0.0
C385 C 0.50566 0.75687 0.63467 0.0
O386 O 0.47642 0.75325 0.63467 0.0
C387 C 0.43444 0.84625 0.66405 0.0
C388 C 0.53172 0.89689 0.6023 0.0
C389 C 0.52299 0.91384 0.57905 0.0
C390 C 0.54008 0.93846 0.57042 0.0
C391 C 0.56575 0.94631 0.58547 0.0
C392 C 0.57496 0.92958 0.60864 0.0
C393 C 0.55784 0.9048 0.61694 0.0
O394 O 0.42299 0.79115 0.60761 0.0
O395 O 0.46635 0.80041 0.58506 0.0
O396 O 0.36488 0.79408 0.62541 0.0
O397 O 0.35261 0.83832 0.63618 0.0
C398 C 0.34419 0.81051 0.63663 0.0
O399 O 0.45692 0.82729 0.66179 0.0
O400 O 0.42201 0.85815 0.64195 0.0
O401 O 0.52614 0.84892 0.62618 0.0
O402 O 0.48709 0.86522 0.6015 0.0
H403 H 0.5033 0.9075 0.56726 0.0
H404 H 0.57957 0.96458 0.57814 0.0
H405 H 0.56498 0.89161 0.63466 0.0
O406 O 0.65507 0.37616 0.57921 0.0
Tb407 Tb 0.68082 0.40235 0.60859 0.0
Eu408 Eu 0.70169 0.4743 0.63216 0.0
C409 C 0.63777 0.38759 0.55987 0.0
O410 O 0.63391 0.41667 0.55852 0.0
C411 C 0.73064 0.43955 0.58128 0.0
O412 O 0.74016 0.50319 0.64621 0.0
C413 C 0.66466 0.50762 0.60422 0.0
C414 C 0.76347 0.4916 0.65903 0.0
O415 O 0.76269 0.46343 0.66667 0.0
C416 C 0.65882 0.43018 0.66379 0.0
C417 C 0.63493 0.52209 0.60031 0.0
C418 C 0.61745 0.51444 0.57696 0.0
C419 C 0.59238 0.53178 0.56962 0.0
C420 C 0.58403 0.55594 0.58634 0.0
C421 C 0.60111 0.56425 0.60945 0.0
C422 C 0.62659 0.54722 0.61641 0.0
O423 O 0.7048 0.42652 0.57607 0.0
O424 O 0.736 0.45139 0.60568 0.0
O425 O 0.68903 0.35712 0.6237 0.0
O426 O 0.72424 0.38836 0.6254 0.0
C427 C 0.71706 0.36061 0.63015 0.0
O428 O 0.68172 0.44818 0.66762 0.0
O429 O 0.65037 0.42296 0.63843 0.0
O430 O 0.68191 0.51758 0.62435 0.0
O431 O 0.66805 0.47884 0.59911 0.0
H432 H 0.62452 0.4964 0.56342 0.0
H433 H 0.56505 0.56961 0.5801 0.0
H434 H 0.64046 0.55431 0.63366 0.0
O435 O 0.12721 0.64808 0.5802 0.0
Tb436 Tb 0.10537 0.67827 0.60931 0.0
Eu437 Eu 0.02981 0.69674 0.62456 0.0
C438 C 0.14324 0.66035 0.56024 0.0
O439 O 0.14369 0.68964 0.55833 0.0
C440 C 0.07059 0.72847 0.57863 0.0
O441 O 0.99613 0.73167 0.63741 0.0
C442 C 1.00169 0.65482 0.59792 0.0
C443 C 1.0052 0.7583 0.64521 0.0
O444 O 0.03403 0.76284 0.64892 0.0
C445 C 0.07349 0.66104 0.66538 0.0
C446 C 0.98943 0.62406 0.6003 0.0
C447 C 1.00118 0.60123 0.5833 0.0
C448 C 0.98836 0.57256 0.5834 0.0
C449 C 0.96345 0.56696 0.60032 0.0
C450 C 0.95121 0.58927 0.61708 0.0
C451 C 0.96415 0.61785 0.61717 0.0
O452 O 0.08439 0.7028 0.57495 0.0
O453 O 0.05229 0.73228 0.59956 0.0
O454 O 0.15255 0.68475 0.61865 0.0
O455 O 0.1218 0.71935 0.62913 0.0
C456 C 0.14995 0.71131 0.62917 0.0
O457 O 0.05299 0.68216 0.66351 0.0
O458 O 0.08744 0.65058 0.64316 0.0
O459 O 0.98823 0.67575 0.61247 0.0
O460 O 0.03103 0.65841 0.59623 0.0
H461 H 0.02008 0.60584 0.56982 0.0
H462 H 0.95283 0.54517 0.59992 0.0
H463 H 0.95422 0.63513 0.62998 0.0
H464 H 0.49199 0.02234 0.94011 0.0
H465 H 0.40517 0.01288 0.97995 0.0
H466 H 0.43019 1.00462 0.025 0.0
H467 H 0.53072 0.96646 0.9811 0.0
H468 H 0.56519 0.98736 0.98234 0.0
H469 H 0.54026 0.99154 0.95316 0.0
H470 H 0.53858 0.04872 0.96158 0.0
H471 H 0.56315 0.04462 0.99107 0.0
H472 H 0.52726 0.06274 0.99509 0.0
H473 H 0.46415 0.99898 0.06571 0.0
H474 H 0.50557 0.99159 0.09917 0.0
H475 H 0.57023 1.00534 0.03307 0.0
C476 C 0.47828 0.01835 0.95831 0.0
C477 C 0.44666 0.01803 0.95653 0.0
C478 C 0.42944 0.01264 0.98075 0.0
C479 C 0.44341 1.00829 0.00647 0.0
C480 C 0.47457 0.00945 0.0076 0.0
C481 C 0.49184 0.01402 0.98416 0.0
C482 C 0.52496 0.01397 0.99107 0.0
C483 C 0.54123 0.9883 0.97604 0.0
C484 C 0.53932 0.04432 0.9843 0.0
C485 C 0.52355 1.00868 0.0221 0.0
C486 C 0.49426 1.00632 0.0312 0.0
C487 C 0.4872 1.0008 0.05889 0.0
C488 C 0.51078 0.99672 0.07771 0.0
C489 C 0.54094 0.99815 0.06868 0.0
C490 C 0.54735 1.00478 0.04062 0.0
H491 H 0.52196 0.5236 0.06568 0.0
H492 H 0.51001 0.60567 0.0188 0.0
H493 H 0.50528 0.57641 0.9756 0.0
H494 H 0.5661 0.48482 0.01483 0.0
H495 H 0.54913 0.44894 0.02112 0.0
H496 H 0.55118 0.47609 0.04867 0.0
H497 H 0.49359 0.47326 0.05548 0.0
H498 H 0.49147 0.44572 0.02832 0.0
H499 H 0.46919 0.47931 0.02613 0.0
H500 H 0.50427 0.53895 0.93749 0.0
H501 H 0.49871 0.49488 0.90725 0.0
H502 H 0.51003 0.43654 0.97852 0.0
C503 C 0.51808 0.53535 0.04633 0.0
C504 C 0.5162 0.56692 0.04559 0.0
C505 C 0.51103 0.58152 0.01992 0.0
C506 C 0.50872 0.56511 0.99524 0.0
C507 C 0.51155 0.53414 0.99659 0.0
C508 C 0.51557 0.51931 0.02148 0.0
C509 C 0.51698 0.48575 0.01717 0.0
C510 C 0.54768 0.47317 0.02597 0.0
C511 C 0.49127 0.47009 0.03268 0.0
C512 C 0.51289 0.48404 0.98594 0.0
C513 C 0.51033 0.5123 0.97452 0.0
C514 C 0.50612 0.51671 0.94618 0.0
C515 C 0.50314 0.49157 0.92917 0.0
C516 C 0.50397 0.46236 0.94056 0.0
C517 C 0.5098 0.45857 0.96921 0.0
H518 H 0.05919 0.53282 0.95256 0.0
H519 H 0.07599 0.43875 0.9679 0.0
H520 H 0.0414 0.43994 0.00782 0.0
H521 H 0.05196 0.55463 0.0268 0.0
H522 H 0.02246 0.58114 0.01959 0.0
H523 H 0.05072 0.57358 0.99375 0.0
H524 H 1.0091 0.56014 0.95835 0.0
H525 H 0.98077 0.56729 0.98414 0.0
H526 H 0.98225 0.53154 0.96697 0.0
H527 H 1.00166 0.44976 0.04295 0.0
H528 H 0.96195 0.46915 0.07406 0.0
H529 H 0.97101 0.55683 0.03646 0.0
C530 C 0.0561 0.51276 0.96483 0.0
C531 C 0.07009 0.48569 0.95722 0.0
C532 C 0.06525 0.45967 0.9734 0.0
C533 C 0.04571 0.46011 0.99609 0.0
C534 C 0.03138 0.48683 1.00252 0.0
C535 C 0.03658 0.51282 0.98768 0.0
C536 C 0.01726 0.53819 0.9984 0.0
C537 C 0.03677 0.56337 0.01035 0.0
C538 C 0.99609 0.54996 0.9756 0.0
C539 C 1.00007 0.52218 0.02111 0.0
C540 C 1.00859 0.49259 0.02316 0.0
C541 C 0.99502 0.473 0.04185 0.0
C542 C 0.97239 0.4841 0.05925 0.0
C543 C 0.96369 0.51447 0.05783 0.0
C544 C 0.97766 0.53362 0.03837 0.0
H545 H 0.96517 0.97416 0.03927 0.0
H546 H 0.0525 0.96525 0.07836 0.0
H547 H 0.07237 1.00453 0.04721 0.0
H548 H 0.99131 0.98475 0.97063 0.0
H549 H 0.96272 0.01152 0.96135 0.0
H550 H 0.95518 0.98369 0.98742 0.0
H551 H 0.94086 0.02533 0.02237 0.0
H552 H 0.94846 0.05334 0.99641 0.0
H553 H 0.96719 0.05483 0.02957 0.0
H554 H 0.08285 0.04344 0.0113 0.0
H555 H 0.08419 0.07813 0.97146 0.0
H556 H 0.98972 0.06224 0.95609 0.0
C557 C 0.98835 0.98085 0.04167 0.0
C558 C 1.00726 0.96694 0.06149 0.0
C559 C 0.03768 0.97563 0.06333 0.0
C560 C 0.04907 0.99801 0.04587 0.0
C561 C 0.0297 0.01139 0.02676 0.0
C562 C 1.00001 1.00311 0.0245 0.0
C563 C 0.98421 0.02013 1.00149 0.0
C564 C 0.97269 0.99874 0.97889 0.0
C565 C 0.95867 0.03956 0.01317 0.0
C566 C 1.00979 0.03915 0.99091 0.0
C567 C 0.03576 0.03384 0.00592 0.0
C568 C 0.06266 0.04788 0.9995 0.0
C569 C 0.0632 0.06745 0.97684 0.0
C570 C 0.03705 0.07273 0.96079 0.0
C571 C 1.00988 0.05882 0.96825 0.0
H572 H 0.0574 0.06179 0.46784 0.0
H573 H 0.0698 0.97491 0.42945 0.0
H574 H 0.03127 0.95371 0.46051 0.0
H575 H 0.04674 0.03419 0.53773 0.0
H576 H 0.01892 0.06188 0.54657 0.0
H577 H 0.04738 0.07037 0.52125 0.0
H578 H 1.00614 0.08409 0.4855 0.0
H579 H 0.97753 0.0754 0.51065 0.0
H580 H 0.97747 0.05717 0.47727 0.0
H581 H 0.9912 0.94219 0.49422 0.0
H582 H 0.95396 0.93954 0.53184 0.0
H583 H 0.96755 0.03358 0.54974 0.0
C584 C 0.05189 0.03832 0.46597 0.0
C585 C 0.06648 0.01991 0.44624 0.0
C586 C 0.05905 0.98926 0.44459 0.0
C587 C 0.03708 0.97711 0.46198 0.0
C588 C 0.02291 0.9959 0.48096 0.0
C589 C 0.03014 0.02576 0.48333 0.0
C590 C 0.01194 0.04075 0.50606 0.0
C591 C 0.03247 0.05248 0.52928 0.0
C592 C 0.99209 0.06583 0.49415 0.0
C593 C 0.99324 0.01459 0.51597 0.0
C594 C 0.99993 0.98905 0.50103 0.0
C595 C 0.9859 0.96195 0.50622 0.0
C596 C 0.96488 0.96067 0.52768 0.0
C597 C 0.95823 0.98626 0.5439 0.0
C598 C 0.97221 0.01373 0.53762 0.0
H599 H 0.51764 0.0812 0.47266 0.0
H600 H 0.50503 0.01947 0.40427 0.0
H601 H 0.51464 0.977 0.4358 0.0
H602 H 0.5778 0.03748 0.50814 0.0
H603 H 0.56403 0.04713 0.54218 0.0
H604 H 0.55911 0.07275 0.51362 0.0
H605 H 0.50189 0.07365 0.52302 0.0
H606 H 0.50654 0.04762 0.55123 0.0
H607 H 0.48128 0.03904 0.52312 0.0
H608 H 0.5199 0.94128 0.47533 0.0
H609 H 0.52722 0.9144 0.51972 0.0
H610 H 0.53752 0.99907 0.56243 0.0
C611 C 0.51799 0.0588 0.46418 0.0
C612 C 0.51074 0.05355 0.43604 0.0
C613 C 0.51058 0.02389 0.42579 0.0
C614 C 0.51591 0.99965 0.44353 0.0
C615 C 0.52169 1.00547 0.47141 0.0
C616 C 0.52338 0.03429 0.48163 0.0
C617 C 0.52896 0.03421 0.5127 0.0
C618 C 0.55928 0.04875 0.51956 0.0
C619 C 0.50312 0.04954 0.52843 0.0
C620 C 0.52957 1.00091 0.51832 0.0
C621 C 0.5252 0.98475 0.49424 0.0
C622 C 0.52371 0.95365 0.49431 0.0
C623 C 0.52754 0.9386 0.51962 0.0
C624 C 0.53292 0.95468 0.54441 0.0
C625 C 0.53367 0.98624 0.54371 0.0
H626 H 0.56355 0.48163 0.54993 0.0
H627 H 0.58484 0.57358 0.52964 0.0
H628 H 0.55195 0.57106 0.48856 0.0
H629 H 0.55826 0.45481 0.47677 0.0
H630 H 0.52731 0.43032 0.48444 0.0
H631 H 0.55481 0.43835 0.5108 0.0
H632 H 0.51269 0.45615 0.54379 0.0
H633 H 0.485 0.4486 0.51752 0.0
H634 H 0.48749 0.48535 0.53261 0.0
H635 H 0.51277 0.56097 0.45328 0.0
H636 H 0.4729 0.54171 0.4224 0.0
H637 H 0.47753 0.45587 0.46413 0.0
C638 C 0.56185 0.50085 0.53633 0.0
C639 C 0.5766 0.5278 0.54284 0.0
C640 C 0.57356 0.55278 0.52494 0.0
C641 C 0.55496 0.55157 0.5016 0.0
C642 C 0.53978 0.52511 0.49625 0.0
C643 C 0.54332 0.50001 0.51275 0.0
C644 C 0.52326 0.47487 0.50285 0.0
C645 C 0.54203 0.448 0.49311 0.0
C646 C 0.50078 0.46572 0.52554 0.0
C647 C 0.50761 0.49006 0.47864 0.0
C648 C 0.51746 0.51905 0.47527 0.0
C649 C 0.50518 0.53813 0.45535 0.0
C650 C 0.48247 0.52713 0.43806 0.0
C651 C 0.47249 0.49732 0.44074 0.0
C652 C 0.48521 0.47861 0.46134 0.0
H653 H 1.00219 0.57558 0.52773 0.0
H654 H 0.99853 0.51458 0.59779 0.0
H655 H 1.00791 0.47212 0.5664 0.0
H656 H 0.96537 0.52984 0.47952 0.0
H657 H 0.98852 0.53944 0.45017 0.0
H658 H 0.98356 0.56574 0.47809 0.0
H659 H 0.04112 0.56884 0.48492 0.0
H660 H 0.04629 0.54297 0.45666 0.0
H661 H 0.0624 0.535 0.49022 0.0
H662 H 0.01281 0.4361 0.52756 0.0
H663 H 0.02058 0.40866 0.48369 0.0
H664 H 0.02314 0.49261 0.4386 0.0
C665 C 1.00421 0.55338 0.53651 0.0
C666 C 0.99944 0.5483 0.56515 0.0
C667 C 1.00179 0.51887 0.57585 0.0
C668 C 1.00709 0.49464 0.55822 0.0
C669 C 1.0104 0.50022 0.52997 0.0
C670 C 1.00972 0.52885 0.51917 0.0
C671 C 0.01372 0.52842 0.48789 0.0
C672 C 0.98615 0.54165 0.47306 0.0
C673 C 0.04261 0.54477 0.47943 0.0
C674 C 0.01627 0.49509 0.48288 0.0
C675 C 0.01404 0.47928 0.50745 0.0
C676 C 0.01485 0.44819 0.50817 0.0
C677 C 0.01889 0.4328 0.48315 0.0
C678 C 0.02224 0.44855 0.45784 0.0
C679 C 0.02062 0.48008 0.45772 0.0
H680 H 0.56785 0.90091 0.08726 0.0
H681 H 0.59925 0.92811 0.16856 0.0
H682 H 0.58578 0.87814 0.18732 0.0
H683 H 0.50416 0.86426 0.10993 0.0
H684 H 0.50565 0.83495 0.08432 0.0
H685 H 0.52177 0.87084 0.07679 0.0
H686 H 0.57295 0.84583 0.066 0.0
H687 H 0.55688 0.80975 0.07318 0.0
H688 H 0.59005 0.82163 0.09148 0.0
H689 H 0.56329 0.82659 0.19774 0.0
H690 H 0.53633 0.77823 0.19844 0.0
H691 H 0.51906 0.78693 0.11005 0.0
C692 C 0.57243 0.89616 0.10892 0.0
C693 C 0.58452 0.91828 0.12655 0.0
C694 C 0.59026 0.9113 0.15472 0.0
C695 C 0.58251 0.88308 0.16551 0.0
C696 C 0.56936 0.86219 0.14773 0.0
C697 C 0.56472 0.86841 0.11993 0.0
C698 C 0.54847 0.84328 0.10538 0.0
C699 C 0.51823 0.85398 0.09342 0.0
C700 C 0.56828 0.82929 0.08268 0.0
C701 C 0.54406 0.82205 0.12944 0.0
C702 C 0.55639 0.8331 0.15369 0.0
C703 C 0.55389 0.81763 0.17878 0.0
C704 C 0.53849 0.79021 0.179 0.0
C705 C 0.52562 0.7787 0.15432 0.0
C706 C 0.5287 0.79493 0.1293 0.0
H707 H 0.69381 0.48807 0.14299 0.0
H708 H 0.7543 0.56263 0.13021 0.0
H709 H 0.71087 0.59689 0.12705 0.0
H710 H 0.64005 0.50992 0.09501 0.0
H711 H 0.60829 0.49756 0.11509 0.0
H712 H 0.64418 0.47981 0.11965 0.0
H713 H 0.64234 0.49149 0.1724 0.0
H714 H 0.60638 0.5094 0.16798 0.0
H715 H 0.63693 0.52949 0.18377 0.0
H716 H 0.66027 0.62225 0.12093 0.0
H717 H 0.60754 0.63562 0.1104 0.0
H718 H 0.58066 0.5445 0.12774 0.0
C719 C 0.69802 0.51169 0.14009 0.0
C720 C 0.72751 0.52265 0.13708 0.0
C721 C 0.73193 0.55369 0.13287 0.0
C722 C 0.70738 0.57337 0.13108 0.0
C723 C 0.67855 0.56172 0.13381 0.0
C724 C 0.67383 0.53159 0.13832 0.0
C725 C 0.64072 0.52426 0.13861 0.0
C726 C 0.63287 0.50156 0.11573 0.0
C727 C 0.63102 0.51299 0.16741 0.0
C728 C 0.6275 0.55476 0.13254 0.0
C729 C 0.64959 0.57624 0.1303 0.0
C730 C 0.64276 0.60571 0.12313 0.0
C731 C 0.61273 0.61318 0.1174 0.0
C732 C 0.58999 0.59118 0.11858 0.0
C733 C 0.59754 0.56185 0.12699 0.0
H734 H 0.02946 0.69847 0.15131 0.0
H735 H 0.95855 0.76021 0.12802 0.0
H736 H 0.92365 0.71788 0.12246 0.0
H737 H 0.013 0.64387 0.10331 0.0
H738 H 0.02149 0.6126 0.12562 0.0
H739 H 0.03952 0.64792 0.13133 0.0
H740 H 0.02027 0.64842 0.18217 0.0
H741 H 1.00214 0.61297 0.17662 0.0
H742 H 0.9807 0.6445 0.1889 0.0
H743 H 0.89823 0.66818 0.11413 0.0
H744 H 0.88517 0.61574 0.10324 0.0
H745 H 0.97226 0.587 0.13333 0.0
C746 C 1.00642 0.70319 0.14568 0.0
C747 C 0.99672 0.73268 0.14031 0.0
C748 C 0.96645 0.73783 0.13257 0.0
C749 C 0.94643 0.71392 0.12936 0.0
C750 C 0.95688 0.68502 0.13433 0.0
C751 C 0.98613 0.67964 0.14256 0.0
C752 C 0.99248 0.6465 0.1447 0.0
C753 C 0.01812 0.6372 0.12507 0.0
C754 C 0.9993 0.63758 0.1749 0.0
C755 C 0.96266 0.63404 0.13529 0.0
C756 C 0.94221 0.65653 0.12978 0.0
C757 C 0.91385 0.65036 0.11893 0.0
C758 C 0.90653 0.62051 0.11297 0.0
C759 C 0.92761 0.59731 0.11766 0.0
C760 C 0.95564 0.60426 0.1297 0.0
H761 H 0.81152 0.01596 0.15522 0.0
H762 H 0.75986 0.96817 0.09311 0.0
H763 H 0.80289 0.93482 0.08458 0.0
H764 H 0.87961 0.01582 0.11972 0.0
H765 H 0.90281 0.01012 0.14997 0.0
H766 H 0.86688 0.02808 0.1534 0.0
H767 H 0.85121 0.98863 0.19009 0.0
H768 H 0.88712 0.97039 0.18659 0.0
H769 H 0.85308 0.9495 0.18144 0.0
H770 H 0.85243 0.90857 0.08047 0.0
H771 H 0.90612 0.89443 0.07851 0.0
H772 H 0.92611 0.9597 0.14217 0.0
C773 C 0.80911 0.99823 0.14011 0.0
C774 C 0.78217 0.99464 0.12499 0.0
C775 C 0.78012 0.97131 0.10516 0.0
C776 C 0.80444 0.95211 0.10021 0.0
C777 C 0.83067 0.95628 0.1154 0.0
C778 C 0.8332 0.97878 0.13492 0.0
C779 C 0.86455 0.97963 0.1471 0.0
C780 C 0.87933 0.01022 0.14223 0.0
C781 C 0.86394 0.97157 0.17815 0.0
C782 C 0.87962 0.95518 0.13035 0.0
C783 C 0.85945 0.94139 0.11275 0.0
C784 C 0.86833 0.91886 0.09448 0.0
C785 C 0.89876 0.91078 0.09365 0.0
C786 C 0.91992 0.92552 0.11064 0.0
C787 C 0.91013 0.94762 0.12952 0.0
H788 H 0.03466 0.23532 0.38957 0.0
H789 H 1.00614 0.21764 0.30501 0.0
H790 H 0.03417 0.16976 0.30584 0.0
H791 H 0.1093 0.20125 0.3853 0.0
H792 H 0.10711 0.18595 0.41989 0.0
H793 H 0.08756 0.2201 0.41158 0.0
H794 H 0.03762 0.19681 0.42842 0.0
H795 H 0.05701 0.16272 0.43693 0.0
H796 H 0.02526 0.1619 0.41375 0.0
H797 H 0.0639 0.12268 0.3168 0.0
H798 H 0.08806 0.07843 0.33854 0.0
H799 H 0.09451 0.12624 0.41644 0.0
C800 C 0.03473 0.22167 0.37101 0.0
C801 C 0.01855 0.23041 0.34704 0.0
C802 C 0.01855 0.21148 0.3235 0.0
C803 C 0.03452 0.18433 0.32376 0.0
C804 C 0.05017 0.17635 0.34778 0.0
C805 C 0.05012 0.19439 0.37107 0.0
C806 C 0.06646 0.17968 0.39509 0.0
C807 C 0.09426 0.19783 0.40345 0.0
C808 C 0.04532 0.17499 0.42 0.0
C809 C 0.07531 0.15028 0.38186 0.0
C810 C 0.06628 0.14897 0.3544 0.0
C811 C 0.0713 0.12359 0.33819 0.0
C812 C 0.0852 0.09868 0.35058 0.0
C813 C 0.09348 0.09928 0.37892 0.0
C814 C 0.08884 0.12554 0.39457 0.0
H815 H 0.29518 0.0195 0.39203 0.0
H816 H 0.27746 0.05998 0.31174 0.0
H817 H 0.32696 0.08507 0.31358 0.0
H818 H 0.33175 0.08351 0.42207 0.0
H819 H 0.35819 0.06126 0.44151 0.0
H820 H 0.32166 0.04651 0.43351 0.0
H821 H 0.34626 1.00046 0.41022 0.0
H822 H 0.38287 0.015 0.41814 0.0
H823 H 0.37324 1.00589 0.38278 0.0
H824 H 0.37998 0.1045 0.32413 0.0
H825 H 0.43049 0.11652 0.34248 0.0
H826 H 0.41056 0.06572 0.41706 0.0
C827 C 0.30168 0.03352 0.37471 0.0
C828 C 0.28252 0.03757 0.35159 0.0
C829 C 0.29179 0.0565 0.32962 0.0
C830 C 0.31986 0.07084 0.33051 0.0
C831 C 0.33819 0.06636 0.35369 0.0
C832 C 0.32928 0.04828 0.37546 0.0
C833 C 0.3527 0.04729 0.39821 0.0
C834 C 0.34033 0.06044 0.42543 0.0
C835 C 0.36446 0.01526 0.40257 0.0
C836 C 0.37647 0.06727 0.3857 0.0
C837 C 0.36785 0.07809 0.36002 0.0
C838 C 0.38681 0.0963 0.34432 0.0
C839 C 0.41541 0.10319 0.35499 0.0
C840 C 0.4248 0.09193 0.38113 0.0
C841 C 0.40455 0.07427 0.39675 0.0
H842 H 0.45382 0.397 0.41827 0.0
H843 H 0.4189 0.42678 0.33883 0.0
H844 H 0.43324 0.37807 0.31796 0.0
H845 H 0.51783 0.36168 0.39217 0.0
H846 H 0.51741 0.33147 0.41692 0.0
H847 H 0.50153 0.36711 0.42607 0.0
H848 H 0.45088 0.34195 0.43789 0.0
H849 H 0.46675 0.3061 0.42927 0.0
H850 H 0.43285 0.3186 0.4124 0.0
H851 H 0.45578 0.32681 0.30534 0.0
H852 H 0.48215 0.27793 0.30283 0.0
H853 H 0.50234 0.28424 0.39089 0.0
C854 C 0.44892 0.39323 0.39651 0.0
C855 C 0.43541 0.41567 0.38008 0.0
C856 C 0.42906 0.40975 0.35179 0.0
C857 C 0.43727 0.38225 0.33978 0.0
C858 C 0.45154 0.36096 0.35645 0.0
C859 C 0.45702 0.36618 0.38429 0.0
C860 C 0.4738 0.34059 0.39765 0.0
C861 C 0.50445 0.35085 0.40885 0.0
C862 C 0.45493 0.32594 0.42065 0.0
C863 C 0.47732 0.32017 0.37291 0.0
C864 C 0.46433 0.33205 0.34929 0.0
C865 C 0.46578 0.31721 0.3238 0.0
C866 C 0.48083 0.28952 0.32253 0.0
C867 C 0.49428 0.27715 0.34661 0.0
C868 C 0.49227 0.29284 0.37201 0.0
H869 H 0.11795 0.44385 0.42633 0.0
H870 H 0.08974 0.41721 0.3437 0.0
H871 H 0.13896 0.43339 0.32509 0.0
H872 H 0.15491 0.51047 0.40565 0.0
H873 H 0.1843 0.50705 0.43118 0.0
H874 H 0.14791 0.49135 0.43797 0.0
H875 H 0.17226 0.43956 0.44672 0.0
H876 H 0.20874 0.45514 0.43998 0.0
H877 H 0.196 0.42327 0.42043 0.0
H878 H 0.19081 0.45535 0.31542 0.0
H879 H 0.24048 0.47985 0.31562 0.0
H880 H 0.23311 0.49319 0.40466 0.0
C881 C 0.12191 0.44149 0.40425 0.0
C882 C 0.0997 0.4295 0.38641 0.0
C883 C 0.10636 0.42616 0.3578 0.0
C884 C 0.13421 0.43545 0.34705 0.0
C885 C 0.15519 0.44792 0.36519 0.0
C886 C 0.14932 0.45082 0.39322 0.0
C887 C 0.17505 0.46575 0.40833 0.0
C888 C 0.16493 0.49541 0.42155 0.0
C889 C 0.18883 0.44466 0.43015 0.0
C890 C 0.19639 0.47101 0.3844 0.0
C891 C 0.18465 0.46053 0.35968 0.0
C892 C 0.20022 0.46348 0.3347 0.0
C893 C 0.22843 0.47748 0.33502 0.0
C894 C 0.2408 0.48844 0.36014 0.0
C895 C 0.22444 0.48499 0.38509 0.0
H896 H 0.49467 0.22608 0.89934 0.0
H897 H 0.49322 0.22787 0.80922 0.0
H898 H 0.46756 0.17881 0.80897 0.0
H899 H 0.51135 0.14896 0.90567 0.0
H900 H 0.4888 0.14377 0.93635 0.0
H901 H 0.50521 0.17966 0.92923 0.0
H902 H 0.4527 0.2044 0.93176 0.0
H903 H 0.43609 0.16859 0.93895 0.0
H904 H 0.42284 0.19061 0.91004 0.0
H905 H 0.44325 0.12815 0.81911 0.0
H906 H 0.42475 0.08026 0.83861 0.0
H907 H 0.44246 0.11312 0.92176 0.0
C908 C 0.48864 0.21643 0.87949 0.0
C909 C 0.49573 0.23097 0.85427 0.0
C910 C 0.48791 0.2172 0.8288 0.0
C911 C 0.47329 0.18937 0.82847 0.0
C912 C 0.4668 0.17558 0.85378 0.0
C913 C 0.47435 0.1887 0.8788 0.0
C914 C 0.46636 0.16886 0.90313 0.0
C915 C 0.49461 0.15978 0.91955 0.0
C916 C 0.44311 0.18402 0.92207 0.0
C917 C 0.45303 0.14247 0.88795 0.0
C918 C 0.45334 0.14666 0.85951 0.0
C919 C 0.44281 0.12472 0.84136 0.0
C920 C 0.43221 0.09766 0.85259 0.0
C921 C 0.43241 0.09277 0.88166 0.0
C922 C 0.44244 0.11587 0.8994 0.0
H923 H 0.43437 0.46555 0.8647 0.0
H924 H 0.40411 0.38028 0.89675 0.0
H925 H 0.35169 0.39409 0.8851 0.0
H926 H 0.37842 0.50719 0.89458 0.0
H927 H 0.37479 0.53378 0.86663 0.0
H928 H 0.4099 0.51487 0.8722 0.0
H929 H 0.4092 0.49546 0.82145 0.0
H930 H 0.37411 0.51458 0.81562 0.0
H931 H 0.37708 0.47504 0.80902 0.0
H932 H 0.3018 0.42057 0.87549 0.0
H933 H 0.26006 0.45641 0.86899 0.0
H934 H 0.32381 0.52505 0.84569 0.0
C935 C 0.41682 0.44939 0.86856 0.0
C936 C 0.42339 0.42171 0.88145 0.0
C937 C 0.39973 0.40134 0.88639 0.0
C938 C 0.36985 0.40912 0.88001 0.0
C939 C 0.36407 0.43728 0.86856 0.0
C940 C 0.38705 0.45695 0.86269 0.0
C941 C 0.37508 0.48696 0.85316 0.0
C942 C 0.38514 0.51216 0.87282 0.0
C943 C 0.38443 0.49338 0.82302 0.0
C944 C 0.34171 0.48153 0.85527 0.0
C945 C 0.33568 0.45263 0.86375 0.0
C946 C 0.30635 0.44307 0.86843 0.0
C947 C 0.28275 0.46361 0.86461 0.0
C948 C 0.28859 0.49354 0.85657 0.0
C949 C 0.31851 0.5023 0.85153 0.0
H950 H 0.98424 0.32567 0.8541 0.0
H951 H 0.05829 0.26309 0.86164 0.0
H952 H 0.094 0.30518 0.86166 0.0
H953 H 0.02448 0.38192 0.81024 0.0
H954 H 1.00622 0.4126 0.82768 0.0
H955 H 0.98707 0.37741 0.82379 0.0
H956 H 0.97889 0.37482 0.87709 0.0
H957 H 0.99782 0.40991 0.88112 0.0
H958 H 1.01081 0.37753 0.89994 0.0
H959 H 0.12094 0.35447 0.86753 0.0
H960 H 0.13586 0.40582 0.8805 0.0
H961 H 0.04446 0.43593 0.86787 0.0
C962 C 1.00801 0.32073 0.855 0.0
C963 C 0.01843 0.29105 0.85764 0.0
C964 C 0.04973 0.28562 0.85927 0.0
C965 C 0.07023 0.30941 0.85925 0.0
C966 C 0.05914 0.3385 0.85718 0.0
C967 C 0.02873 0.34417 0.85489 0.0
C968 C 0.02222 0.37735 0.85556 0.0
C969 C 1.00923 0.38794 0.82765 0.0
C970 C 1.00122 0.38535 0.87987 0.0
C971 C 0.05352 0.38948 0.85998 0.0
C972 C 0.07466 0.36682 0.86031 0.0
C973 C 0.1047 0.37245 0.86662 0.0
C974 C 0.11307 0.40174 0.87374 0.0
C975 C 0.0914 0.4249 0.87476 0.0
C976 C 0.06157 0.41875 0.86674 0.0
H977 H 0.19281 0.99035 0.84822 0.0
H978 H 0.25736 0.06179 0.85884 0.0
H979 H 0.21589 0.09831 0.86227 0.0
H980 H 0.13615 0.03475 0.80849 0.0
H981 H 0.10543 0.01615 0.82554 0.0
H982 H 0.14023 0.99652 0.81971 0.0
H983 H 0.14406 0.98461 0.87235 0.0
H984 H 0.1093 1.00395 0.87827 0.0
H985 H 0.14249 0.01481 0.89708 0.0
H986 H 0.16708 0.12594 0.87077 0.0
H987 H 0.11609 0.14111 0.88566 0.0
H988 H 0.08383 0.05187 0.86847 0.0
C989 C 0.1983 0.01377 0.85053 0.0
C990 C 0.22837 0.02318 0.85299 0.0
C991 C 0.23452 0.05402 0.85655 0.0
C992 C 0.21108 0.07498 0.85847 0.0
C993 C 0.18161 0.06484 0.85644 0.0
C994 C 0.17522 0.03493 0.85239 0.0
C995 C 0.14182 0.02923 0.85346 0.0
C996 C 0.13023 0.01853 0.82511 0.0
C997 C 0.13398 1.00685 0.87667 0.0
C998 C 0.13042 0.06032 0.86 0.0
C999 C 0.15359 0.08075 0.86112 0.0
C1000 C 0.14869 0.1103 0.86929 0.0
C1001 C 0.11961 0.11884 0.87748 0.0
C1002 C 0.096 0.09779 0.87772 0.0
C1003 C 0.10138 0.06854 0.86787 0.0
H1004 H 0.01753 0.81663 0.6576 0.0
H1005 H 0.94544 0.75817 0.63134 0.0
H1006 H 0.91229 0.80199 0.62525 0.0
H1007 H 0.96935 0.8731 0.69357 0.0
H1008 H 0.9926 0.9035 0.68188 0.0
H1009 H 1.00897 0.86727 0.68837 0.0
H1010 H 0.03044 0.86637 0.6383 0.0
H1011 H 0.01427 0.9025 0.63171 0.0
H1012 H 1.00537 0.87154 0.60928 0.0
H1013 H 0.88903 0.85274 0.61661 0.0
H1014 H 0.87903 0.90548 0.60397 0.0
H1015 H 0.96634 0.93039 0.63568 0.0
C1016 C 0.99452 0.81291 0.65133 0.0
C1017 C 0.98402 0.78389 0.64527 0.0
C1018 C 0.95392 0.78012 0.6365 0.0
C1019 C 0.93487 0.80491 0.63301 0.0
C1020 C 0.94615 0.8333 0.63866 0.0
C1021 C 0.97528 0.83735 0.64776 0.0
C1022 C 0.98295 0.87019 0.64987 0.0
C1023 C 0.98882 0.87903 0.68023 0.0
C1024 C 1.00982 0.87809 0.63117 0.0
C1025 C 0.95412 0.88402 0.6393 0.0
C1026 C 0.93286 0.86246 0.63353 0.0
C1027 C 0.90525 0.86984 0.62164 0.0
C1028 C 0.89963 0.89986 0.61473 0.0
C1029 C 0.9217 0.92197 0.61938 0.0
C1030 C 0.94887 0.91397 0.63252 0.0
H1031 H 0.7069 0.04002 0.64594 0.0
H1032 H 0.76507 0.96255 0.65347 0.0
H1033 H 0.72086 0.92947 0.64991 0.0
H1034 H 0.64099 0.00954 0.6828 0.0
H1035 H 0.61514 0.02689 0.65887 0.0
H1036 H 0.65068 0.04431 0.66616 0.0
H1037 H 0.66304 0.04489 0.61352 0.0
H1038 H 0.62765 0.02748 0.60611 0.0
H1039 H 0.66196 0.0104 0.59424 0.0
H1040 H 0.67086 0.90496 0.64063 0.0
H1041 H 0.62005 0.89132 0.62445 0.0
H1042 H 0.59521 0.98506 0.62281 0.0
C1043 C 0.71032 0.01613 0.64774 0.0
C1044 C 0.73938 1.00385 0.65048 0.0
C1045 C 0.74294 0.97243 0.65175 0.0
C1046 C 0.71797 0.95349 0.64977 0.0
C1047 C 0.68966 0.96635 0.6465 0.0
C1048 C 0.68576 0.99698 0.64548 0.0
C1049 C 0.65359 1.00525 0.63895 0.0
C1050 C 0.63926 0.02252 0.66315 0.0
C1051 C 0.65146 0.02304 0.61159 0.0
C1052 C 0.64006 0.9745 0.63598 0.0
C1053 C 0.66106 0.9523 0.64072 0.0
C1054 C 0.65411 0.92215 0.63733 0.0
C1055 C 0.62516 0.91459 0.62829 0.0
C1056 C 0.60367 0.93713 0.62252 0.0
C1057 C 0.61115 0.96735 0.62712 0.0
H1058 H 0.48991 0.69789 0.63682 0.0
H1059 H 0.5672 0.75662 0.63708 0.0
H1060 H 0.60081 0.7126 0.63779 0.0
H1061 H 0.5221 0.63839 0.68104 0.0
H1062 H 0.50456 0.60926 0.661 0.0
H1063 H 0.48676 0.64533 0.66397 0.0
H1064 H 0.48502 0.64991 0.61028 0.0
H1065 H 0.50259 0.61388 0.60716 0.0
H1066 H 0.51925 0.64597 0.59067 0.0
H1067 H 0.62587 0.66197 0.63354 0.0
H1068 H 0.63973 0.60989 0.62194 0.0
H1069 H 0.54602 0.58463 0.62569 0.0
C1070 C 0.51389 0.70157 0.63762 0.0
C1071 C 0.52591 0.73072 0.63712 0.0
C1072 C 0.55745 0.73449 0.63762 0.0
C1073 C 0.57674 0.70961 0.63814 0.0
C1074 C 0.56413 0.68113 0.63833 0.0
C1075 C 0.5334 0.67705 0.63809 0.0
C1076 C 0.52539 0.64431 0.63591 0.0
C1077 C 0.50872 0.6337 0.66204 0.0
C1078 C 0.507 0.63817 0.60944 0.0
C1079 C 0.55639 0.63059 0.63419 0.0
C1080 C 0.57851 0.65208 0.636 0.0
C1081 C 0.60877 0.64488 0.63265 0.0
C1082 C 0.61648 0.61518 0.62631 0.0
C1083 C 0.59399 0.59315 0.62319 0.0
C1084 C 0.56373 0.60092 0.62823 0.0
H1085 H 0.78191 0.53882 0.62696 0.0
H1086 H 0.80942 0.48205 0.69551 0.0
H1087 H 0.85864 0.50728 0.69661 0.0
H1088 H 0.8499 0.53525 0.59179 0.0
H1089 H 0.84908 0.57314 0.57906 0.0
H1090 H 0.81456 0.55408 0.58649 0.0
H1091 H 0.79898 0.59681 0.6198 0.0
H1092 H 0.83362 0.61598 0.61256 0.0
H1093 H 0.82356 0.6072 0.64789 0.0
H1094 H 0.9063 0.53475 0.68737 0.0
H1095 H 0.95008 0.55986 0.66619 0.0
H1096 H 0.89262 0.59802 0.60289 0.0
C1097 C 0.79797 0.53234 0.64275 0.0
C1098 C 0.79166 0.50884 0.66154 0.0
C1099 C 0.81368 0.50021 0.68117 0.0
C1100 C 0.84164 0.51451 0.68201 0.0
C1101 C 0.84735 0.53731 0.66298 0.0
C1102 C 0.82619 0.5461 0.6436 0.0
C1103 C 0.83914 0.56882 0.62351 0.0
C1104 C 0.83812 0.55711 0.59345 0.0
C1105 C 0.82285 0.59899 0.62611 0.0
C1106 C 0.87109 0.57089 0.6342 0.0
C1107 C 0.87516 0.55294 0.65731 0.0
C1108 C 0.90324 0.5494 0.66969 0.0
C1109 C 0.92792 0.56389 0.65771 0.0
C1110 C 0.92439 0.58164 0.63362 0.0
C1111 C 0.89555 0.58559 0.62202 0.0
H1112 H 0.63661 0.27475 0.96548 0.0
H1113 H 0.54225 0.25377 0.95553 0.0
H1114 H 0.54674 0.21424 0.99099 0.0
H1115 H 0.66121 0.19924 0.97232 0.0
H1116 H 0.68975 0.207 0.99782 0.0
H1117 H 0.67898 0.23536 0.97316 0.0
H1118 H 0.66685 0.27187 0.01334 0.0
H1119 H 0.67795 0.24378 0.03815 0.0
H1120 H 0.64122 0.26054 0.04029 0.0
H1121 H 0.56099 0.17724 0.02744 0.0
H1122 H 0.58464 0.14424 0.06243 0.0
H1123 H 0.67061 0.18611 0.04674 0.0
C1124 C 0.61683 0.26219 0.97122 0.0
C1125 C 0.58899 0.26752 0.958 0.0
C1126 C 0.56375 0.25014 0.9655 0.0
C1127 C 0.56607 0.22762 0.9856 0.0
C1128 C 0.59389 0.22246 0.99784 0.0
C1129 C 0.61887 0.23916 0.99099 0.0
C1130 C 0.64636 0.22803 0.00653 0.0
C1131 C 0.67049 0.21673 0.98624 0.0
C1132 C 0.65882 0.25251 0.02572 0.0
C1133 C 0.63285 0.20249 0.0231 0.0
C1134 C 0.60249 0.19991 0.01793 0.0
C1135 C 0.5848 0.17884 0.03153 0.0
C1136 C 0.59839 0.16015 0.05128 0.0
C1137 C 0.62945 0.16226 0.05688 0.0
C1138 C 0.64694 0.18351 0.04234 0.0
H1139 H 0.23242 0.60765 0.97433 0.0
H1140 H 0.28235 0.54577 0.92226 0.0
H1141 H 0.32558 0.54954 0.95364 0.0
H1142 H 0.29316 0.65529 0.98967 0.0
H1143 H 0.28247 0.6622 0.0252 0.0
H1144 H 0.25429 0.65323 0.99978 0.0
H1145 H 0.2363 0.60904 0.03016 0.0
H1146 H 0.26437 0.61791 0.05578 0.0
H1147 H 0.26285 0.58092 0.04107 0.0
H1148 H 0.36507 0.56309 0.98787 0.0
H1149 H 0.39748 0.58396 0.02473 0.0
H1150 H 0.322 0.63536 0.05598 0.0
C1151 C 0.25226 0.59453 0.96979 0.0
C1152 C 0.25388 0.57645 0.94575 0.0
C1153 C 0.28044 0.55987 0.94045 0.0
C1154 C 0.30521 0.56178 0.9582 0.0
C1155 C 0.30312 0.58017 0.98137 0.0
C1156 C 0.2773 0.59607 0.98742 0.0
C1157 C 0.2815 0.61497 0.01325 0.0
C1158 C 0.27764 0.6484 0.00656 0.0
C1159 C 0.25998 0.60511 0.03644 0.0
C1160 C 0.31382 0.60747 0.02042 0.0
C1161 C 0.32585 0.58739 1.00172 0.0
C1162 C 0.35582 0.57846 0.00297 0.0
C1163 C 0.37407 0.59044 0.0239 0.0
C1164 C 0.36219 0.61087 0.04343 0.0
C1165 C 0.33158 0.61924 0.04172 0.0
H1166 H 0.93618 0.28359 0.93272 0.0
H1167 H 0.93094 0.20568 0.98627 0.0
H1168 H 0.92158 0.23817 0.02653 0.0
H1169 H 0.97217 0.33335 0.984 0.0
H1170 H 0.95109 0.36561 0.97281 0.0
H1171 H 0.96007 0.33644 0.94837 0.0
H1172 H 0.90371 0.33071 0.9365 0.0
H1173 H 0.89452 0.35981 0.96085 0.0
H1174 H 0.87725 0.32359 0.96403 0.0
H1175 H 0.91063 0.27842 0.06061 0.0
H1176 H 0.8957 0.32374 0.08603 0.0
H1177 H 0.90651 0.37617 0.0107 0.0
C1178 C 0.93352 0.27343 0.953 0.0
C1179 C 0.93426 0.24204 0.9563 0.0
C1180 C 0.93024 0.22959 0.98311 0.0
C1181 C 0.92513 0.2479 0.00621 0.0
C1182 C 0.92417 0.27869 1.00223 0.0
C1183 C 0.92819 0.29144 0.97633 0.0
C1184 C 0.9242 0.32508 0.9776 0.0
C1185 C 0.95364 0.34106 0.97026 0.0
C1186 C 0.89838 0.33539 0.95863 0.0
C1187 C 0.91646 0.32909 0.00807 0.0
C1188 C 0.91717 0.30206 0.02194 0.0
C1189 C 0.91021 0.29977 0.05005 0.0
C1190 C 0.90182 0.32573 0.06433 0.0
C1191 C 0.90002 0.35363 0.05044 0.0
C1192 C 0.90786 0.35527 0.02198 0.0
H1193 H 0.2852 0.88943 0.95513 0.0
H1194 H 0.24762 0.97667 0.93658 0.0
H1195 H 0.20933 0.96924 0.97328 0.0
H1196 H 0.21559 0.8533 0.96488 0.0
H1197 H 0.22904 0.82912 0.99216 0.0
H1198 H 0.25456 0.84254 0.96606 0.0
H1199 H 0.28893 0.86439 0.0044 0.0
H1200 H 0.26353 0.85099 0.03067 0.0
H1201 H 0.27344 0.88999 0.02952 0.0
H1202 H 0.17502 0.95158 0.01248 0.0
H1203 H 0.1454 0.92362 0.04755 0.0
H1204 H 0.20481 0.84746 0.03754 0.0
C1205 C 0.26924 0.9072 0.95909 0.0
C1206 C 0.26957 0.9338 0.94339 0.0
C1207 C 0.24775 0.95616 0.94854 0.0
C1208 C 0.22605 0.95219 0.96938 0.0
C1209 C 0.22636 0.9256 0.98453 0.0
C1210 C 0.24727 0.9034 0.97939 0.0
C1211 C 0.24179 0.87609 0.9971 0.0
C1212 C 0.23482 0.84866 0.97897 0.0
C1213 C 0.26851 0.87003 0.01658 0.0
C1214 C 0.21448 0.88631 0.01308 0.0
C1215 C 0.20605 0.91503 0.0059 0.0
C1216 C 0.18139 0.92905 0.0182 0.0
C1217 C 0.16476 0.9131 0.03809 0.0
C1218 C 0.1727 0.88338 0.04502 0.0
C1219 C 0.198 0.87007 0.03245 0.0
H1220 H 0.10248 0.7316 0.52868 0.0
H1221 H 0.05377 0.78573 0.58869 0.0
H1222 H 0.06543 0.83073 0.56204 0.0
H1223 H 0.16144 0.78422 0.51517 0.0
H1224 H 0.16342 0.77698 0.47838 0.0
H1225 H 0.1511 0.74807 0.50178 0.0
H1226 H 0.10194 0.74252 0.47374 0.0
H1227 H 0.11408 0.7714 0.4502 0.0
H1228 H 0.07857 0.77485 0.46783 0.0
H1229 H 0.08311 0.87034 0.53087 0.0
H1230 H 0.10482 0.90286 0.49494 0.0
H1231 H 0.14134 0.8249 0.45303 0.0
C1232 C 0.09416 0.7529 0.53606 0.0
C1233 C 0.07708 0.75488 0.56085 0.0
C1234 C 0.06668 0.7833 0.56976 0.0
C1235 C 0.07324 0.8092 0.55478 0.0
C1236 C 0.09007 0.80658 0.53064 0.0
C1237 C 0.10027 0.77927 0.52107 0.0
C1238 C 0.11778 0.78325 0.49419 0.0
C1239 C 0.15037 0.7725 0.4976 0.0
C1240 C 0.10215 0.76704 0.47006 0.0
C1241 C 0.11607 0.81704 0.4906 0.0
C1242 C 0.09995 0.82987 0.51198 0.0
C1243 C 0.09561 0.86062 0.51385 0.0
C1244 C 0.10807 0.87894 0.49332 0.0
C1245 C 0.12461 0.86654 0.47102 0.0
C1246 C 0.12854 0.83507 0.46964 0.0
H1247 H 0.78546 0.08107 0.52339 0.0
H1248 H 0.75466 0.11838 0.60146 0.0
H1249 H 0.70899 0.13739 0.57847 0.0
H1250 H 0.7562 0.13961 0.47762 0.0
H1251 H 0.7447 0.11375 0.45101 0.0
H1252 H 0.77604 0.10479 0.47315 0.0
H1253 H 0.75026 0.05519 0.48704 0.0
H1254 H 0.71861 0.06417 0.46527 0.0
H1255 H 0.71301 0.05611 0.50158 0.0
H1256 H 0.66566 0.1494 0.54849 0.0
H1257 H 0.62828 0.15806 0.5117 0.0
H1258 H 0.68615 0.11311 0.4523 0.0
C1259 C 0.76931 0.09382 0.53533 0.0
C1260 C 0.77344 0.09859 0.56404 0.0
C1261 C 0.75172 0.11467 0.57939 0.0
C1262 C 0.72574 0.12545 0.56656 0.0
C1263 C 0.72173 0.11966 0.53842 0.0
C1264 C 0.7429 0.10444 0.52285 0.0
C1265 C 0.73219 0.10031 0.49319 0.0
C1266 C 0.75355 0.11554 0.47253 0.0
C1267 C 0.72829 0.06697 0.48638 0.0
C1268 C 0.70206 0.11611 0.4945 0.0
C1269 C 0.6964 0.12669 0.52093 0.0
C1270 C 0.66981 0.14134 0.52766 0.0
C1271 C 0.64859 0.14591 0.50665 0.0
C1272 C 0.65422 0.13615 0.47915 0.0
C1273 C 0.68122 0.12078 0.47313 0.0
H1274 H 0.32755 0.69066 0.49342 0.0
H1275 H 0.40612 0.65247 0.45356 0.0
H1276 H 0.43879 0.68221 0.48419 0.0
H1277 H 0.35507 0.76373 0.50192 0.0
H1278 H 0.33875 0.76957 0.53573 0.0
H1279 H 0.32142 0.74411 0.51174 0.0
H1280 H 0.32445 0.70212 0.54867 0.0
H1281 H 0.34222 0.72736 0.57272 0.0
H1282 H 0.36022 0.69258 0.56382 0.0
H1283 H 0.46285 0.71978 0.51562 0.0
H1284 H 0.47689 0.75802 0.5502 0.0
H1285 H 0.38311 0.76956 0.57185 0.0
C1286 C 0.35163 0.68817 0.49149 0.0
C1287 C 0.36429 0.6692 0.4711 0.0
C1288 C 0.39589 0.66662 0.46916 0.0
C1289 C 0.41466 0.68357 0.48636 0.0
C1290 C 0.4015 0.70263 0.50571 0.0
C1291 C 0.37073 0.70458 0.50882 0.0
C1292 C 0.36241 0.72686 0.53128 0.0
C1293 C 0.3433 0.75258 0.51944 0.0
C1294 C 0.34637 0.71129 0.55556 0.0
C1295 C 0.39328 0.73758 0.5398 0.0
C1296 C 0.41549 0.72348 0.52466 0.0
C1297 C 0.44569 0.73066 0.52791 0.0
C1298 C 0.45344 0.75253 0.54747 0.0
C1299 C 0.43109 0.76664 0.56376 0.0
C1300 C 0.40066 0.75899 0.5598 0.0
H1301 H 0.73559 0.40577 0.53322 0.0
H1302 H 0.78291 0.47052 0.58407 0.0
H1303 H 0.82708 0.46602 0.55393 0.0
H1304 H 0.79775 0.35836 0.52109 0.0
H1305 H 0.78826 0.34981 0.48557 0.0
H1306 H 0.75916 0.3594 0.50993 0.0
H1307 H 0.74117 0.40205 0.47756 0.0
H1308 H 0.77011 0.39253 0.45296 0.0
H1309 H 0.76748 0.43007 0.46628 0.0
H1310 H 0.86761 0.45198 0.52099 0.0
H1311 H 0.90126 0.43083 0.48525 0.0
H1312 H 0.82803 0.37638 0.45439 0.0
C1313 C 0.75505 0.41937 0.53768 0.0
C1314 C 0.75568 0.43848 0.56105 0.0
C1315 C 0.78179 0.45563 0.56637 0.0
C1316 C 0.80708 0.45329 0.54934 0.0
C1317 C 0.80601 0.43387 0.52685 0.0
C1318 C 0.78065 0.41738 0.52076 0.0
C1319 C 0.78599 0.39747 0.49575 0.0
C1320 C 0.7826 0.3643 0.50356 0.0
C1321 C 0.76494 0.40606 0.47171 0.0
C1322 C 0.81836 0.40516 0.48907 0.0
C1323 C 0.82943 0.42618 0.50733 0.0
C1324 C 0.85914 0.4358 0.50629 0.0
C1325 C 0.87811 0.42362 0.48597 0.0
C1326 C 0.86724 0.40224 0.46686 0.0
C1327 C 0.83689 0.39308 0.46841 0.0
H1328 H 0.38451 0.87139 0.00344 0.0
H1329 H 0.39386 0.82643 0.92417 0.0
H1330 H 0.41045 0.78053 0.94827 0.0
H1331 H 0.45138 0.8343 0.03617 0.0
H1332 H 0.4335 0.833 0.06971 0.0
H1333 H 0.42492 0.86295 0.04592 0.0
H1334 H 0.36838 0.84995 0.04948 0.0
H1335 H 0.37681 0.81972 0.07288 0.0
H1336 H 0.35615 0.81259 0.04141 0.0
H1337 H 0.41793 0.73745 0.9815 0.0
H1338 H 0.42459 0.70274 0.02127 0.0
H1339 H 0.41539 0.77707 0.07834 0.0
C1340 C 0.39095 0.85213 0.99119 0.0
C1341 C 0.3882 0.85245 0.962 0.0
C1342 C 0.39637 0.82678 0.94655 0.0
C1343 C 0.40558 0.80054 0.96006 0.0
C1344 C 0.40723 0.80064 0.98896 0.0
C1345 C 0.40104 0.82604 0.00431 0.0
C1346 C 0.40431 0.82013 0.03514 0.0
C1347 C 0.43006 0.8387 0.04745 0.0
C1348 C 0.37465 0.82594 0.05062 0.0
C1349 C 0.41206 0.7872 0.03475 0.0
C1350 C 0.41343 0.77626 0.00795 0.0
C1351 C 0.41771 0.7459 1.00256 0.0
C1352 C 0.42122 0.72634 0.02518 0.0
C1353 C 0.42091 0.73741 0.05268 0.0
C1354 C 0.41634 0.76819 0.05743 0.0
H1355 H 0.65213 0.38771 0.99869 0.0
H1356 H 0.70299 0.38508 0.92177 0.0
H1357 H 0.7478 0.40283 0.94673 0.0
H1358 H 0.68731 0.45484 0.02703 0.0
H1359 H 0.68695 0.44077 0.06213 0.0
H1360 H 0.65843 0.42926 0.03792 0.0
H1361 H 0.67209 0.37375 0.04722 0.0
H1362 H 0.70078 0.38513 0.07129 0.0
H1363 H 0.71025 0.36139 0.04237 0.0
H1364 H 0.7884 0.41593 0.98088 0.0
H1365 H 0.82043 0.42875 0.02119 0.0
H1366 H 0.7425 0.42576 0.07501 0.0
C1367 C 0.67252 0.39138 0.98697 0.0
C1368 C 0.67395 0.3851 0.95823 0.0
C1369 C 0.70121 0.38993 0.94375 0.0
C1370 C 0.72687 0.39989 0.95776 0.0
C1371 C 0.72485 0.40524 0.98618 0.0
C1372 C 0.69828 0.40156 1.00057 0.0
C1373 C 0.70229 0.40832 0.03117 0.0
C1374 C 0.68258 0.43488 0.04008 0.0
C1375 C 0.69598 0.38049 0.04905 0.0
C1376 C 0.73523 0.41632 0.0317 0.0
C1377 C 0.74797 0.41402 0.00562 0.0
C1378 C 0.77859 0.41834 1.00131 0.0
C1379 C 0.7966 0.42547 0.02427 0.0
C1380 C 0.78376 0.42867 0.05097 0.0
C1381 C 0.75272 0.42409 0.05465 0.0
H1382 H 0.13121 0.64749 0.00283 0.0
H1383 H 0.13983 0.69737 0.9259 0.0
H1384 H 0.12204 0.74292 0.94959 0.0
H1385 H 0.06213 0.6861 0.02594 0.0
H1386 H 0.07294 0.68504 0.06201 0.0
H1387 H 0.08528 0.65599 0.03873 0.0
H1388 H 0.14051 0.66658 0.05235 0.0
H1389 H 0.12832 0.69573 0.0755 0.0
H1390 H 0.15516 0.70387 0.04857 0.0
H1391 H 0.10884 0.78416 0.98272 0.0
H1392 H 0.09505 0.81709 0.02197 0.0
H1393 H 0.09053 0.73993 0.0764 0.0
C1394 C 0.1289 0.66792 0.99093 0.0
C1395 C 0.13681 0.66889 0.96252 0.0
C1396 C 0.13356 0.69602 0.9476 0.0
C1397 C 0.12362 0.72207 0.9609 0.0
C1398 C 0.11639 0.7205 0.989 0.0
C1399 C 0.11827 0.69402 0.00374 0.0
C1400 C 0.10895 0.69849 0.03374 0.0
C1401 C 0.08064 0.68033 0.04049 0.0
C1402 C 0.13478 0.69071 0.05371 0.0
C1403 C 0.10239 0.73173 0.0337 0.0
C1404 C 0.10704 0.74405 0.00773 0.0
C1405 C 0.1045 0.7747 0.00301 0.0
C1406 C 0.09678 0.79323 0.02541 0.0
C1407 C 0.09125 0.78096 0.05202 0.0
C1408 C 0.09397 0.7498 0.0561 0.0
H1409 H 0.78465 0.11466 0.08251 0.0
H1410 H 0.73343 0.05242 0.03235 0.0
H1411 H 0.77306 0.05359 0.99648 0.0
H1412 H 0.80923 0.15975 0.0279 0.0
H1413 H 0.84577 0.16657 0.04258 0.0
H1414 H 0.81458 0.15857 0.06501 0.0
H1415 H 0.84425 0.1145 0.08684 0.0
H1416 H 0.87556 0.12224 0.06431 0.0
H1417 H 0.85905 0.08552 0.06472 0.0
H1418 H 0.81631 0.06539 0.96428 0.0
H1419 H 0.8589 0.08725 0.93848 0.0
H1420 H 0.88201 0.14017 0.01089 0.0
C1421 C 0.78185 0.10099 0.06414 0.0
C1422 C 0.75595 0.08347 0.06023 0.0
C1423 C 0.75315 0.06599 0.03583 0.0
C1424 C 0.77557 0.06643 0.01538 0.0
C1425 C 0.80076 0.08418 0.01983 0.0
C1426 C 0.80402 0.10102 0.04369 0.0
C1427 C 0.83233 0.11946 0.04293 0.0
C1428 C 0.82503 0.15306 0.04469 0.0
C1429 C 0.85409 0.10984 0.06607 0.0
C1430 C 0.84418 0.11098 0.01459 0.0
C1431 C 0.82583 0.09045 1.00161 0.0
C1432 C 0.83114 0.08107 0.97442 0.0
C1433 C 0.85543 0.09355 0.95995 0.0
C1434 C 0.87402 0.11519 0.97273 0.0
C1435 C 0.86863 0.12329 1.00064 0.0
H1436 H 0.88958 0.14584 0.49674 0.0
H1437 H 0.91616 0.18235 0.57646 0.0
H1438 H 0.93578 0.2273 0.5529 0.0
H1439 H 0.95425 0.17532 0.45679 0.0
H1440 H 0.93147 0.18253 0.42656 0.0
H1441 H 0.9221 0.15221 0.44962 0.0
H1442 H 0.86858 0.17428 0.4555 0.0
H1443 H 0.87794 0.20482 0.4328 0.0
H1444 H 0.86425 0.21226 0.46732 0.0
H1445 H 0.94527 0.27144 0.52116 0.0
H1446 H 0.9509 0.30809 0.4828 0.0
H1447 H 0.92205 0.24104 0.42377 0.0
C1448 C 0.90035 0.1629 0.50915 0.0
C1449 C 0.90162 0.16046 0.53839 0.0
C1450 C 0.91543 0.18347 0.55399 0.0
C1451 C 0.9264 0.20922 0.54081 0.0
C1452 C 0.9239 0.21134 0.512 0.0
C1453 C 0.91183 0.18848 0.4963 0.0
C1454 C 0.91094 0.19659 0.46576 0.0
C1455 C 0.93089 0.1754 0.44868 0.0
C1456 C 0.87851 0.19701 0.45472 0.0
C1457 C 0.92393 0.22775 0.46676 0.0
C1458 C 0.93091 0.23607 0.49365 0.0
C1459 C 0.94062 0.2649 0.49996 0.0
C1460 C 0.9436 0.28557 0.47816 0.0
C1461 C 0.93745 0.27703 0.45048 0.0
C1462 C 0.92764 0.24777 0.44475 0.0
H1463 H 0.2264 0.88931 0.46255 0.0
H1464 H 0.27836 0.96746 0.43989 0.0
H1465 H 0.31988 0.94999 0.46997 0.0
H1466 H 0.24962 0.88387 0.53364 0.0
H1467 H 0.25127 0.84362 0.53335 0.0
H1468 H 0.22567 0.86294 0.51062 0.0
H1469 H 0.24893 0.83562 0.46835 0.0
H1470 H 0.27492 0.81647 0.49087 0.0
H1471 H 0.28869 0.83828 0.46211 0.0
H1472 H 0.35538 0.92406 0.50319 0.0
H1473 H 0.38175 0.89209 0.53737 0.0
H1474 H 0.30716 0.82992 0.53592 0.0
C1475 C 0.24632 0.90299 0.46426 0.0
C1476 C 0.24908 0.92994 0.44926 0.0
C1477 C 0.27579 0.94684 0.45143 0.0
C1478 C 0.29948 0.93705 0.46836 0.0
C1479 C 0.29622 0.91012 0.48259 0.0
C1480 C 0.27034 0.8933 0.48063 0.0
C1481 C 0.2727 0.86485 0.49746 0.0
C1482 C 0.24838 0.86378 0.52012 0.0
C1483 C 0.27123 0.83718 0.47857 0.0
C1484 C 0.30368 0.86863 0.50978 0.0
C1485 C 0.31698 0.89478 0.50087 0.0
C1486 C 0.34528 0.90342 0.51018 0.0
C1487 C 0.36012 0.88509 0.52952 0.0
C1488 C 0.34659 0.85848 0.53926 0.0
C1489 C 0.31825 0.85001 0.52878 0.0
H1490 H 0.65112 0.32866 0.55069 0.0
H1491 H 0.59414 0.40098 0.52157 0.0
H1492 H 0.5725 0.36733 0.48613 0.0
H1493 H 0.66787 0.29918 0.48393 0.0
H1494 H 0.66805 0.26075 0.49517 0.0
H1495 H 0.67759 0.28995 0.51927 0.0
H1496 H 0.6362 0.27146 0.55287 0.0
H1497 H 0.62651 0.24224 0.5288 0.0
H1498 H 0.59817 0.2681 0.54054 0.0
H1499 H 0.55829 0.32631 0.45324 0.0
H1500 H 0.55364 0.28173 0.42365 0.0
H1501 H 0.62087 0.2362 0.47366 0.0
C1502 C 0.63383 0.33739 0.53709 0.0
C1503 C 0.62408 0.36745 0.53905 0.0
C1504 C 0.60181 0.37805 0.52052 0.0
C1505 C 0.58938 0.35907 0.50038 0.0
C1506 C 0.59959 0.32961 0.49899 0.0
C1507 C 0.62141 0.31885 0.51676 0.0
C1508 C 0.62954 0.28672 0.51005 0.0
C1509 C 0.66273 0.28401 0.50159 0.0
C1510 C 0.62215 0.26591 0.53452 0.0
C1511 C 0.60895 0.2811 0.4856 0.0
C1512 C 0.59174 0.30607 0.47971 0.0
C1513 C 0.57155 0.30659 0.45768 0.0
C1514 C 0.56912 0.28109 0.44098 0.0
C1515 C 0.58691 0.25535 0.44627 0.0
C1516 C 0.60682 0.25537 0.46913 0.0
H1517 H 0.17752 0.68072 0.5174 0.0
H1518 H 0.15392 0.59964 0.56176 0.0
H1519 H 0.18952 0.57103 0.53242 0.0
H1520 H 0.18515 0.64811 0.44969 0.0
H1521 H 0.21647 0.67143 0.44034 0.0
H1522 H 0.18884 0.68488 0.46458 0.0
H1523 H 0.23091 0.69481 0.50066 0.0
H1524 H 0.25858 0.68112 0.47656 0.0
H1525 H 0.25566 0.66475 0.51065 0.0
H1526 H 0.22949 0.55184 0.49863 0.0
H1527 H 0.26785 0.54355 0.46219 0.0
H1528 H 0.26352 0.6376 0.44044 0.0
C1529 C 0.1796 0.6569 0.52093 0.0
C1530 C 0.16287 0.64238 0.54187 0.0
C1531 C 0.16641 0.6112 0.54575 0.0
C1532 C 0.18665 0.59481 0.52926 0.0
C1533 C 0.20307 0.60998 0.50901 0.0
C1534 C 0.19958 0.64034 0.50476 0.0
C1535 C 0.21984 0.6516 0.48187 0.0
C1536 C 0.20147 0.66477 0.45769 0.0
C1537 C 0.24259 0.67441 0.49312 0.0
C1538 C 0.23512 0.62279 0.47363 0.0
C1539 C 0.22547 0.59902 0.48961 0.0
C1540 C 0.23707 0.5703 0.48594 0.0
C1541 C 0.25889 0.56582 0.46525 0.0
C1542 C 0.26859 0.5899 0.44839 0.0
C1543 C 0.25649 0.61867 0.45283 0.0
H1544 H 0.59335 0.17379 0.29067 0.0
H1545 H 0.62389 0.1022 0.34476 0.0
H1546 H 0.64465 0.07558 0.30422 0.0
H1547 H 0.57289 0.12763 0.2317 0.0
H1548 H 0.58635 0.15409 0.20639 0.0
H1549 H 0.57272 0.16702 0.2395 0.0
H1550 H 0.62306 0.19423 0.24813 0.0
H1551 H 0.63689 0.18133 0.2151 0.0
H1552 H 0.65769 0.17342 0.24637 0.0
H1553 H 0.66316 0.05715 0.25807 0.0
H1554 H 0.67874 0.04854 0.20956 0.0
H1555 H 0.6369 0.13241 0.18539 0.0
C1556 C 0.60406 0.15233 0.29396 0.0
C1557 C 0.60673 0.13997 0.32093 0.0
C1558 C 0.62143 0.11209 0.32434 0.0
C1559 C 0.6333 0.09677 0.30142 0.0
C1560 C 0.63046 0.10964 0.27519 0.0
C1561 C 0.61627 0.13682 0.27131 0.0
C1562 C 0.61722 0.14622 0.24104 0.0
C1563 C 0.5854 0.14889 0.22895 0.0
C1564 C 0.63476 0.17553 0.23746 0.0
C1565 C 0.63406 0.12001 0.22852 0.0
C1566 C 0.64144 0.09916 0.24858 0.0
C1567 C 0.65741 0.07327 0.24215 0.0
C1568 C 0.66617 0.06858 0.21449 0.0
C1569 C 0.65897 0.08967 0.19353 0.0
C1570 C 0.64261 0.11568 0.2008 0.0
H1571 H 0.37317 0.56076 0.29567 0.0
H1572 H 0.34933 0.64432 0.33506 0.0
H1573 H 0.36305 0.6719 0.29281 0.0
H1574 H 0.43879 0.59101 0.26271 0.0
H1575 H 0.43566 0.56889 0.23159 0.0
H1576 H 0.42101 0.55491 0.26396 0.0
H1577 H 0.36878 0.54805 0.2413 0.0
H1578 H 0.38333 0.56187 0.20882 0.0
H1579 H 0.35096 0.57938 0.22435 0.0
H1580 H 0.38234 0.69091 0.24841 0.0
H1581 H 0.40615 0.7008 0.20316 0.0
H1582 H 0.41918 0.60565 0.19075 0.0
C1583 C 0.37028 0.58478 0.29502 0.0
C1584 C 0.35954 0.60055 0.31849 0.0
C1585 C 0.35705 0.63198 0.31728 0.0
C1586 C 0.36486 0.64779 0.29333 0.0
C1587 C 0.37582 0.63184 0.27073 0.0
C1588 C 0.37878 0.60109 0.27125 0.0
C1589 C 0.39359 0.59001 0.2447 0.0
C1590 C 0.42406 0.57533 0.25113 0.0
C1591 C 0.37291 0.56856 0.22885 0.0
C1592 C 0.39771 0.61927 0.22907 0.0
C1593 C 0.38749 0.64305 0.24475 0.0
C1594 C 0.39025 0.6725 0.23581 0.0
C1595 C 0.40394 0.6779 0.21017 0.0
C1596 C 0.41443 0.654 0.19355 0.0
C1597 C 0.411 0.62425 0.20298 0.0
H1598 H 0.93931 0.34972 0.2871 0.0
H1599 H 0.90454 0.41563 0.34504 0.0
H1600 H 0.88303 0.44412 0.3061 0.0
H1601 H 0.95863 0.40161 0.23195 0.0
H1602 H 0.94694 0.37699 0.20441 0.0
H1603 H 0.96039 0.36169 0.23674 0.0
H1604 H 0.91113 0.33169 0.24217 0.0
H1605 H 0.89754 0.34688 0.20985 0.0
H1606 H 0.87567 0.3511 0.24108 0.0
H1607 H 0.86376 0.46487 0.2616 0.0
H1608 H 0.84797 0.47672 0.21374 0.0
H1609 H 0.89548 0.39835 0.18371 0.0
C1610 C 0.9274 0.37028 0.29157 0.0
C1611 C 0.92388 0.3805 0.31923 0.0
C1612 C 0.90777 0.40734 0.32413 0.0
C1613 C 0.89541 0.42375 0.30211 0.0
C1614 C 0.89927 0.41311 0.27519 0.0
C1615 C 0.91482 0.38702 0.26974 0.0
C1616 C 0.91499 0.38037 0.23879 0.0
C1617 C 0.94716 0.38016 0.2273 0.0
C1618 C 0.89887 0.35076 0.23262 0.0
C1619 C 0.89726 0.4069 0.2278 0.0
C1620 C 0.88834 0.42539 0.24924 0.0
C1621 C 0.87081 0.45071 0.24459 0.0
C1622 C 0.86196 0.45726 0.21731 0.0
C1623 C 0.87079 0.43872 0.19492 0.0
C1624 C 0.88889 0.41331 0.20031 0.0
H1625 H 0.16705 0.9467 0.28961 0.0
H1626 H 0.11285 0.89507 0.34719 0.0
H1627 H 0.08674 0.87168 0.30793 0.0
H1628 H 0.10742 0.95927 0.23872 0.0
H1629 H 0.13201 0.95579 0.20918 0.0
H1630 H 0.14639 0.96941 0.24178 0.0
H1631 H 0.187 0.92793 0.24159 0.0
H1632 H 0.1728 0.91423 0.209 0.0
H1633 H 0.17582 0.8894 0.23839 0.0
H1634 H 0.06712 0.85281 0.26326 0.0
H1635 H 0.05524 0.83893 0.21517 0.0
H1636 H 0.12142 0.90239 0.18518 0.0
C1637 C 0.14953 0.93065 0.29393 0.0
C1638 C 0.1419 0.92297 0.32161 0.0
C1639 C 0.11897 0.90166 0.3263 0.0
C1640 C 0.10399 0.88814 0.3041 0.0
C1641 C 0.11196 0.8962 0.27719 0.0
C1642 C 0.13411 0.91695 0.27189 0.0
C1643 C 0.13835 0.92115 0.2408 0.0
C1644 C 0.13058 0.95332 0.23211 0.0
C1645 C 0.1704 0.91266 0.23193 0.0
C1646 C 0.11546 0.89914 0.22959 0.0
C1647 C 0.10044 0.88519 0.25105 0.0
C1648 C 0.07859 0.86369 0.24623 0.0
C1649 C 0.07198 0.85599 0.21873 0.0
C1650 C 0.0872 0.86964 0.1962 0.0
C1651 C 0.10913 0.89171 0.20183 0.0
H1652 H 0.41985 0.9011 0.68479 0.0
H1653 H 0.42117 0.80674 0.70508 0.0
H1654 H 0.3993 0.8179 0.75123 0.0
H1655 H 0.44205 0.92454 0.75452 0.0
H1656 H 0.4201 0.95837 0.75337 0.0
H1657 H 0.43511 0.94282 0.72176 0.0
H1658 H 0.38168 0.94158 0.70059 0.0
H1659 H 0.3665 0.95698 0.73215 0.0
H1660 H 0.35215 0.92222 0.71876 0.0
H1661 H 0.37865 0.83936 0.79524 0.0
H1662 H 0.36073 0.8698 0.83465 0.0
H1663 H 0.3723 0.9504 0.78605 0.0
C1664 C 0.41535 0.88287 0.69899 0.0
C1665 C 0.42196 0.85307 0.69159 0.0
C1666 C 0.41635 0.82971 0.71064 0.0
C1667 C 0.40387 0.83584 0.73676 0.0
C1668 C 0.39774 0.8655 0.74358 0.0
C1669 C 0.40356 0.88869 0.7254 0.0
C1670 C 0.39635 0.91868 0.73847 0.0
C1671 C 0.4251 0.93719 0.74224 0.0
C1672 C 0.37275 0.93586 0.72148 0.0
C1673 C 0.3841 0.90864 0.76629 0.0
C1674 C 0.38567 0.8779 0.76897 0.0
C1675 C 0.37721 0.86342 0.79333 0.0
C1676 C 0.36711 0.88083 0.81561 0.0
C1677 C 0.36494 0.91224 0.8132 0.0
C1678 C 0.37332 0.92632 0.78816 0.0
H1679 H 0.63011 0.38686 0.82353 0.0
H1680 H 0.556 0.33243 0.79428 0.0
H1681 H 0.5652 0.34966 0.74652 0.0
H1682 H 0.6177 0.44945 0.77593 0.0
H1683 H 0.65716 0.45613 0.77074 0.0
H1684 H 0.64413 0.44061 0.8031 0.0
H1685 H 0.68016 0.3956 0.79705 0.0
H1686 H 0.69328 0.41098 0.76469 0.0
H1687 H 0.67835 0.37361 0.76573 0.0
H1688 H 0.58309 0.37099 0.70175 0.0
H1689 H 0.60889 0.39498 0.66248 0.0
H1690 H 0.67175 0.43603 0.71979 0.0
C1691 C 0.61559 0.37882 0.80714 0.0
C1692 C 0.59216 0.35836 0.81287 0.0
C1693 C 0.57398 0.34816 0.79065 0.0
C1694 C 0.57901 0.35784 0.76335 0.0
C1695 C 0.6023 0.37781 0.75843 0.0
C1696 C 0.62032 0.38826 0.77964 0.0
C1697 C 0.64435 0.40901 0.76838 0.0
C1698 C 0.6406 0.44068 0.78025 0.0
C1699 C 0.6759 0.39654 0.77431 0.0
C1700 C 0.63718 0.40827 0.73753 0.0
C1701 C 0.61273 0.39021 0.73236 0.0
C1702 C 0.60213 0.38536 0.70554 0.0
C1703 C 0.61698 0.39916 0.68333 0.0
C1704 C 0.64226 0.41765 0.68793 0.0
C1705 C 0.65231 0.42233 0.71552 0.0
H1706 H 0.16924 0.57724 0.78469 0.0
H1707 H 0.10904 0.62011 0.84353 0.0
H1708 H 0.0802 0.64152 0.80494 0.0
H1709 H 0.17096 0.63742 0.73577 0.0
H1710 H 0.17117 0.61402 0.70531 0.0
H1711 H 0.18678 0.60035 0.73742 0.0
H1712 H 0.15157 0.55451 0.73545 0.0
H1713 H 0.13583 0.56805 0.7033 0.0
H1714 H 0.11166 0.56019 0.73239 0.0
H1715 H 0.05842 0.65963 0.76117 0.0
H1716 H 0.04511 0.67478 0.71382 0.0
H1717 H 0.11879 0.62144 0.68131 0.0
C1718 C 0.14978 0.59084 0.78942 0.0
C1719 C 0.14135 0.59669 0.81732 0.0
C1720 C 0.11597 0.615 0.82251 0.0
C1721 C 0.09934 0.62733 0.80066 0.0
C1722 C 0.1082 0.62125 0.77355 0.0
C1723 C 0.13277 0.60349 0.76769 0.0
C1724 C 0.13766 0.60147 0.73642 0.0
C1725 C 0.16847 0.61408 0.72826 0.0
C1726 C 0.13396 0.56913 0.72629 0.0
C1727 C 0.11226 0.62125 0.72585 0.0
C1728 C 0.09553 0.63212 0.74778 0.0
C1729 C 0.07123 0.65116 0.74377 0.0
C1730 C 0.06385 0.65963 0.71664 0.0
C1731 C 0.08072 0.64926 0.69358 0.0
C1732 C 0.1052 0.62956 0.69836 0.0
H1733 H 0.93521 0.1785 0.79121 0.0
H1734 H 0.92798 0.09695 0.83967 0.0
H1735 H 0.9121 0.06965 0.79782 0.0
H1736 H 0.87027 0.16622 0.75062 0.0
H1737 H 0.88541 0.18162 0.719 0.0
H1738 H 0.89891 0.19453 0.75211 0.0
H1739 H 0.9533 0.18112 0.73783 0.0
H1740 H 0.93995 0.16821 0.7046 0.0
H1741 H 0.96185 0.1437 0.7264 0.0
H1742 H 0.89401 0.05171 0.7521 0.0
H1743 H 0.87418 0.04412 0.70494 0.0
H1744 H 0.89249 0.13704 0.68523 0.0
C1745 C 0.93087 0.15478 0.79286 0.0
C1746 C 0.93313 0.13981 0.81871 0.0
C1747 C 0.92654 0.1089 0.82013 0.0
C1748 C 0.91756 0.09315 0.79644 0.0
C1749 C 0.91518 0.10858 0.77142 0.0
C1750 C 0.92162 0.13868 0.76937 0.0
C1751 C 0.91543 0.15016 0.74022 0.0
C1752 C 0.89105 0.17457 0.74052 0.0
C1753 C 0.94436 0.16146 0.72645 0.0
C1754 C 0.90425 0.12185 0.72636 0.0
C1755 C 0.90447 0.09815 0.74478 0.0
C1756 C 0.89398 0.07 0.73738 0.0
C1757 C 0.88269 0.06595 0.71051 0.0
C1758 C 0.88192 0.0899 0.69123 0.0
C1759 C 0.89322 0.11814 0.69927 0.0
H1760 H 0.76213 0.34564 0.11542 0.0
H1761 H 0.82555 0.33195 0.18247 0.0
H1762 H 0.80106 0.28417 0.19424 0.0
H1763 H 0.69578 0.307 0.14833 0.0
H1764 H 0.68478 0.29055 0.11573 0.0
H1765 H 0.703 0.32646 0.11621 0.0
H1766 H 0.74357 0.30639 0.08261 0.0
H1767 H 0.7257 0.27044 0.08219 0.0
H1768 H 0.76461 0.27341 0.09194 0.0
H1769 H 0.77524 0.23508 0.1944 0.0
H1770 H 0.74962 0.18776 0.18281 0.0
H1771 H 0.70356 0.23207 0.11487 0.0
C1772 C 0.76989 0.33314 0.13332 0.0
C1773 C 0.79518 0.34264 0.14855 0.0
C1774 C 0.80582 0.32515 0.17096 0.0
C1775 C 0.79206 0.29802 0.17778 0.0
C1776 C 0.76782 0.28859 0.1618 0.0
C1777 C 0.75669 0.30563 0.14006 0.0
C1778 C 0.73301 0.28857 0.12396 0.0
C1779 C 0.70232 0.30407 0.12621 0.0
C1780 C 0.7423 0.28446 0.09338 0.0
C1781 C 0.7333 0.25908 0.13953 0.0
C1782 C 0.75321 0.25973 0.16152 0.0
C1783 C 0.75913 0.23444 0.1776 0.0
C1784 C 0.74457 0.20766 0.17086 0.0
C1785 C 0.72447 0.20642 0.14819 0.0
C1786 C 0.71843 0.23258 0.13266 0.0
H1787 H 0.33022 0.7569 0.12082 0.0
H1788 H 0.30154 0.67605 0.16269 0.0
H1789 H 0.251 0.69752 0.16896 0.0
H1790 H 0.28417 0.81012 0.16234 0.0
H1791 H 0.27574 0.83309 0.13254 0.0
H1792 H 0.31069 0.81284 0.13419 0.0
H1793 H 0.2986 0.78794 0.08701 0.0
H1794 H 0.2635 0.80781 0.08533 0.0
H1795 H 0.264 0.76763 0.08299 0.0
H1796 H 0.20213 0.72476 0.16564 0.0
H1797 H 0.15892 0.75814 0.15598 0.0
H1798 H 0.21893 0.82203 0.11749 0.0
C1799 C 0.31352 0.7442 0.13209 0.0
C1800 C 0.31981 0.71496 0.14158 0.0
C1801 C 0.29719 0.69858 0.15546 0.0
C1802 C 0.2684 0.71056 0.15908 0.0
C1803 C 0.26252 0.73902 0.14872 0.0
C1804 C 0.28447 0.75583 0.13576 0.0
C1805 C 0.27159 0.78506 0.12501 0.0
C1806 C 0.28643 0.81186 0.13939 0.0
C1807 C 0.2746 0.78722 0.09321 0.0
C1808 C 0.23902 0.7818 0.1337 0.0
C1809 C 0.23426 0.75503 0.14726 0.0
C1810 C 0.20564 0.74607 0.15553 0.0
C1811 C 0.18124 0.76505 0.14991 0.0
C1812 C 0.18571 0.79275 0.13645 0.0
C1813 C 0.215 0.80122 0.12839 0.0
H1814 H 0.26481 0.69787 0.36078 0.0
H1815 H 0.35652 0.72874 0.36797 0.0
H1816 H 0.33914 0.781 0.36245 0.0
H1817 H 0.23711 0.75621 0.31157 0.0
H1818 H 0.20146 0.75868 0.32909 0.0
H1819 H 0.22172 0.72376 0.32854 0.0
H1820 H 0.21987 0.72163 0.38234 0.0
H1821 H 0.19977 0.75647 0.38308 0.0
H1822 H 0.23435 0.75255 0.40216 0.0
H1823 H 0.31105 0.82992 0.36227 0.0
H1824 H 0.27461 0.8712 0.3687 0.0
H1825 H 0.20141 0.80799 0.36259 0.0
C1826 C 0.2813 0.71558 0.36023 0.0
C1827 C 0.312 0.70942 0.36435 0.0
C1828 C 0.33291 0.73312 0.36448 0.0
C1829 C 0.32324 0.76281 0.36132 0.0
C1830 C 0.29262 0.76829 0.35807 0.0
C1831 C 0.27198 0.74527 0.35745 0.0
C1832 C 0.24016 0.75709 0.35704 0.0
C1833 C 0.22418 0.74842 0.32994 0.0
C1834 C 0.22252 0.7463 0.38268 0.0
C1835 C 0.24605 0.79033 0.35824 0.0
C1836 C 0.27643 0.79642 0.35842 0.0
C1837 C 0.28722 0.82546 0.3616 0.0
C1838 C 0.26641 0.84877 0.36518 0.0
C1839 C 0.23529 0.84274 0.3658 0.0
C1840 C 0.22508 0.81327 0.36169 0.0
H1841 H 0.84065 0.26094 0.39397 0.0
H1842 H 0.81873 0.33144 0.33555 0.0
H1843 H 0.7686 0.30934 0.32834 0.0
H1844 H 0.79777 0.19987 0.36011 0.0
H1845 H 0.78559 0.18471 0.39293 0.0
H1846 H 0.82113 0.20361 0.39049 0.0
H1847 H 0.80498 0.23933 0.42998 0.0
H1848 H 0.76929 0.22084 0.43239 0.0
H1849 H 0.77077 0.26058 0.42647 0.0
H1850 H 0.7189 0.28307 0.33153 0.0
H1851 H 0.67402 0.2532 0.34371 0.0
H1852 H 0.72798 0.19999 0.40019 0.0
C1853 C 0.82566 0.27102 0.37891 0.0
C1854 C 0.83368 0.29754 0.36486 0.0
C1855 C 0.81309 0.31086 0.34618 0.0
C1856 C 0.78455 0.29851 0.34201 0.0
C1857 C 0.77686 0.27289 0.35683 0.0
C1858 C 0.79687 0.25916 0.37479 0.0
C1859 C 0.7821 0.2334 0.38999 0.0
C1860 C 0.79757 0.20363 0.38294 0.0
C1861 C 0.78177 0.23889 0.42157 0.0
C1862 C 0.75071 0.23494 0.37788 0.0
C1863 C 0.74813 0.25785 0.35878 0.0
C1864 C 0.72076 0.26476 0.34613 0.0
C1865 C 0.69538 0.24778 0.35319 0.0
C1866 C 0.69763 0.22416 0.3726 0.0
C1867 C 0.72572 0.21763 0.3849 0.0
H1868 H 0.26295 0.82831 0.87068 0.0
H1869 H 0.35531 0.79759 0.87031 0.0
H1870 H 0.33826 0.74568 0.86471 0.0
H1871 H 0.23419 0.77018 0.91078 0.0
H1872 H 0.19919 0.76671 0.89232 0.0
H1873 H 0.21853 0.80191 0.89272 0.0
H1874 H 0.2188 0.80269 0.83888 0.0
H1875 H 0.19942 0.76738 0.83832 0.0
H1876 H 0.2345 0.77149 0.82015 0.0
H1877 H 0.31149 0.69656 0.86303 0.0
H1878 H 0.27647 0.65393 0.86717 0.0
H1879 H 0.20147 0.71577 0.86937 0.0
C1880 C 0.2795 0.81068 0.86872 0.0
C1881 C 0.31045 0.81702 0.87065 0.0
C1882 C 0.33148 0.7933 0.86866 0.0
C1883 C 0.32203 0.76369 0.86541 0.0
C1884 C 0.2914 0.758 0.86403 0.0
C1885 C 0.2704 0.7808 0.86553 0.0
C1886 C 0.23883 0.76825 0.86545 0.0
C1887 C 0.22169 0.77729 0.8919 0.0
C1888 C 0.22189 0.77804 0.83913 0.0
C1889 C 0.24546 0.73496 0.86489 0.0
C1890 C 0.27592 0.72953 0.86347 0.0
C1891 C 0.28755 0.70052 0.86376 0.0
C1892 C 0.26753 0.67643 0.86602 0.0
C1893 C 0.23634 0.68156 0.86835 0.0
C1894 C 0.22524 0.71119 0.86733 0.0
H1895 H 0.83771 0.2455 0.8751 0.0
H1896 H 0.80688 0.15396 0.88198 0.0
H1897 H 0.75466 0.17079 0.87583 0.0
H1898 H 0.77986 0.2777 0.91388 0.0
H1899 H 0.77613 0.311 0.89306 0.0
H1900 H 0.81148 0.29159 0.89448 0.0
H1901 H 0.81157 0.287 0.84081 0.0
H1902 H 0.77613 0.30643 0.83925 0.0
H1903 H 0.78001 0.2701 0.82353 0.0
H1904 H 0.70534 0.19756 0.87282 0.0
H1905 H 0.6626 0.23298 0.87472 0.0
H1906 H 0.72474 0.30722 0.87053 0.0
C1907 C 0.81999 0.22902 0.87463 0.0
C1908 C 0.82638 0.1984 0.87874 0.0
C1909 C 0.80254 0.17752 0.87867 0.0
C1910 C 0.77275 0.18684 0.87512 0.0
C1911 C 0.76703 0.21718 0.87158 0.0
C1912 C 0.78993 0.238 0.87123 0.0
C1913 C 0.77734 0.26945 0.86902 0.0
C1914 C 0.78676 0.28854 0.89411 0.0
C1915 C 0.78683 0.28411 0.84152 0.0
C1916 C 0.74392 0.26303 0.86928 0.0
C1917 C 0.73844 0.2327 0.87022 0.0
C1918 C 0.70932 0.22137 0.87171 0.0
C1919 C 0.68517 0.2416 0.8727 0.0
C1920 C 0.69037 0.27275 0.87254 0.0
C1921 C 0.7201 0.28348 0.87038 0.0
H1922 H 0.72416 0.3101 0.66269 0.0
H1923 H 0.75571 0.35464 0.58819 0.0
H1924 H 0.78378 0.30945 0.57486 0.0
H1925 H 0.79732 0.27022 0.67473 0.0
H1926 H 0.77931 0.23752 0.68875 0.0
H1927 H 0.76229 0.2738 0.69311 0.0
H1928 H 0.71355 0.25403 0.67049 0.0
H1929 H 0.73059 0.21789 0.66559 0.0
H1930 H 0.71507 0.23772 0.63627 0.0
H1931 H 0.80488 0.25984 0.56751 0.0
H1932 H 0.82557 0.20904 0.56939 0.0
H1933 H 0.78374 0.19497 0.64978 0.0
C1934 C 0.73773 0.31041 0.64405 0.0
C1935 C 0.73836 0.33587 0.62664 0.0
C1936 C 0.75572 0.33557 0.6021 0.0
C1937 C 0.77142 0.30991 0.5942 0.0
C1938 C 0.77005 0.28499 0.61145 0.0
C1939 C 0.75448 0.28511 0.63625 0.0
C1940 C 0.758 0.2553 0.65117 0.0
C1941 C 0.77525 0.25945 0.67857 0.0
C1942 C 0.72747 0.24036 0.65616 0.0
C1943 C 0.77669 0.23807 0.63014 0.0
C1944 C 0.78328 0.25592 0.60749 0.0
C1945 C 0.80027 0.24573 0.58525 0.0
C1946 C 0.81186 0.21681 0.58653 0.0
C1947 C 0.80635 0.19824 0.60976 0.0
C1948 C 0.78804 0.20871 0.6317 0.0
H1949 H 0.20812 0.69951 0.61795 0.0
H1950 H 0.14999 0.76589 0.65556 0.0
H1951 H 0.19433 0.79793 0.66485 0.0
H1952 H 0.27244 0.7079 0.66251 0.0
H1953 H 0.29879 0.70362 0.63438 0.0
H1954 H 0.26277 0.68562 0.63265 0.0
H1955 H 0.25219 0.71164 0.58551 0.0
H1956 H 0.28807 0.72981 0.58713 0.0
H1957 H 0.25445 0.75178 0.58317 0.0
H1958 H 0.24555 0.82361 0.66745 0.0
H1959 H 0.29822 0.84072 0.66235 0.0
H1960 H 0.32119 0.75662 0.62301 0.0
C1961 C 0.20472 0.72057 0.62858 0.0
C1962 C 0.1758 0.73017 0.63642 0.0
C1963 C 0.17211 0.75814 0.64964 0.0
C1964 C 0.19712 0.7764 0.65498 0.0
C1965 C 0.22543 0.7663 0.64675 0.0
C1966 C 0.22921 0.73903 0.63372 0.0
C1967 C 0.26142 0.7339 0.62521 0.0
C1968 C 0.27462 0.70611 0.63956 0.0
C1969 C 0.26417 0.73166 0.59338 0.0
C1970 C 0.27547 0.76227 0.63598 0.0
C1971 C 0.25446 0.78086 0.6482 0.0
C1972 C 0.26221 0.80907 0.65821 0.0
C1973 C 0.2921 0.81858 0.65531 0.0
C1974 C 0.31371 0.79978 0.64272 0.0
C1975 C 0.30526 0.77121 0.6333 0.0
loop_
_geom_bond_atom_site_label_1
_geom_bond_atom_site_label_2
_geom_bond_distance
_geom_bond_site_symmetry_2
_ccdc_geom_bond_type
O0 Tb1 2.292 . S
O0 C3 1.255 . S
Tb1 O0 2.292 . S
Tb1 O17 2.326 . S
Tb1 O19 2.500 . S
Tb1 O20 2.473 . S
Tb1 O23 2.324 . S
Eu2 O6 2.292 . S
Eu2 C7 2.852 . S
Eu2 O18 2.324 . S
Eu2 O22 2.326 . S
Eu2 O24 2.500 . S
Eu2 O25 2.473 . S
C3 O0 1.255 . S
C3 O4 1.247 . S
O4 C3 1.247 . S
C5 O17 1.242 . S
C5 O18 1.258 . S
O6 Eu2 2.292 . S
O6 C8 1.255 . S
C7 Eu2 2.852 . S
C7 C11 1.503 . S
C7 O24 1.273 . S
C7 O25 1.257 . S
C8 O6 1.255 . S
C8 O9 1.247 . S
O9 C8 1.247 . S
C10 O22 1.242 . S
C10 O23 1.258 . S
C11 C7 1.503 . S
C11 C12 1.379 . S
C11 C16 1.392 1_545 S
C12 C11 1.379 . S
C12 C13 1.404 . S
C12 H26 0.929 . S
C13 C12 1.404 . S
C13 C14 1.389 1_545 S
C14 C13 1.389 1_565 S
C14 C15 1.399 . S
C14 H27 0.931 . S
C15 C14 1.399 . S
C15 C16 1.390 . S
C16 C11 1.392 1_565 S
C16 C15 1.390 . S
C16 H28 0.929 . S
O17 Tb1 2.326 . S
O17 C5 1.242 . S
O18 Eu2 2.324 . S
O18 C5 1.258 . S
O19 Tb1 2.500 . S
O19 C21 1.273 . S
O20 Tb1 2.473 . S
O20 C21 1.257 . S
C21 O19 1.273 . S
C21 O20 1.257 . S
O22 Eu2 2.326 . S
O22 C10 1.242 . S
O23 Tb1 2.324 . S
O23 C10 1.258 . S
O24 Eu2 2.500 . S
O24 C7 1.273 . S
O25 Eu2 2.473 . S
O25 C7 1.257 . S
H26 C12 0.929 . S
H27 C14 0.931 . S
H28 C16 0.929 . S
O29 Tb30 2.292 . S
O29 C32 1.255 . S
Tb30 O29 2.292 . S
Tb30 O46 2.326 . S
Tb30 O48 2.500 . S
Tb30 O49 2.473 . S
Tb30 O52 2.324 . S
Eu31 O35 2.292 . S
Eu31 C36 2.852 . S
Eu31 O47 2.324 . S
Eu31 O51 2.326 . S
Eu31 O53 2.500 . S
Eu31 O54 2.473 . S
C32 O29 1.255 . S
C32 O33 1.247 . S
O33 C32 1.247 . S
C34 O46 1.242 . S
C34 O47 1.258 . S
O35 Eu31 2.292 . S
O35 C37 1.255 . S
C36 Eu31 2.852 . S
C36 C40 1.503 . S
C36 O53 1.273 . S
C36 O54 1.257 . S
C37 O35 1.255 . S
C37 O38 1.247 . S
O38 C37 1.247 . S
C39 O51 1.242 . S
C39 O52 1.258 . S
C40 C36 1.503 . S
C40 C41 1.379 . S
C40 C45 1.392 . S
C41 C40 1.379 . S
C41 C42 1.404 . S
C41 H55 0.929 . S
C42 C41 1.404 . S
C42 C43 1.389 . S
C43 C42 1.389 . S
C43 C44 1.399 . S
C43 H56 0.931 . S
C44 C43 1.399 . S
C44 C45 1.390 . S
C45 C40 1.392 . S
C45 C44 1.390 . S
C45 H57 0.929 . S
O46 Tb30 2.326 . S
O46 C34 1.242 . S
O47 Eu31 2.324 . S
O47 C34 1.258 . S
O48 Tb30 2.500 . S
O48 C50 1.273 . S
O49 Tb30 2.473 . S
O49 C50 1.257 . S
C50 O48 1.273 . S
C50 O49 1.257 . S
O51 Eu31 2.326 . S
O51 C39 1.242 . S
O52 Tb30 2.324 . S
O52 C39 1.258 . S
O53 Eu31 2.500 . S
O53 C36 1.273 . S
O54 Eu31 2.473 . S
O54 C36 1.257 . S
H55 C41 0.929 . S
H56 C43 0.931 . S
H57 C45 0.929 . S
O58 Tb59 2.292 . S
O58 C61 1.255 . S
Tb59 O58 2.292 . S
Tb59 O75 2.326 . S
Tb59 O77 2.500 . S
Tb59 O78 2.473 . S
Tb59 O81 2.324 . S
Eu60 O64 2.292 . S
Eu60 C65 2.852 . S
Eu60 O76 2.324 . S
Eu60 O80 2.326 . S
Eu60 O82 2.500 . S
Eu60 O83 2.473 . S
C61 O58 1.255 . S
C61 O62 1.247 . S
O62 C61 1.247 . S
C63 O75 1.242 . S
C63 O76 1.258 . S
O64 Eu60 2.292 . S
O64 C66 1.255 . S
C65 Eu60 2.852 . S
C65 C69 1.503 . S
C65 O82 1.273 . S
C65 O83 1.257 . S
C66 O64 1.255 . S
C66 O67 1.247 . S
O67 C66 1.247 . S
C68 O80 1.242 . S
C68 O81 1.258 . S
C69 C65 1.503 . S
C69 C70 1.379 . S
C69 C74 1.392 . S
C70 C69 1.379 . S
C70 C71 1.404 . S
C70 H84 0.929 . S
C71 C70 1.404 . S
C71 C72 1.389 . S
C72 C71 1.389 . S
C72 C73 1.399 . S
C72 H85 0.931 . S
C73 C72 1.399 . S
C73 C74 1.390 . S
C74 C69 1.392 . S
C74 C73 1.390 . S
C74 H86 0.929 . S
O75 Tb59 2.326 . S
O75 C63 1.242 . S
O76 Eu60 2.324 . S
O76 C63 1.258 . S
O77 Tb59 2.500 . S
O77 C79 1.273 . S
O78 Tb59 2.473 . S
O78 C79 1.257 . S
C79 O77 1.273 . S
C79 O78 1.257 . S
O80 Eu60 2.326 . S
O80 C68 1.242 . S
O81 Tb59 2.324 . S
O81 C68 1.258 . S
O82 Eu60 2.500 . S
O82 C65 1.273 . S
O83 Eu60 2.473 . S
O83 C65 1.257 . S
H84 C70 0.929 . S
H85 C72 0.931 . S
H86 C74 0.929 . S
O87 Tb88 2.292 . S
O87 C90 1.255 . S
Tb88 O87 2.292 . S
Tb88 O104 2.326 . S
Tb88 O106 2.500 . S
Tb88 O107 2.473 . S
Tb88 O110 2.324 . S
Eu89 O93 2.292 . S
Eu89 C94 2.852 . S
Eu89 O105 2.324 . S
Eu89 O109 2.326 . S
Eu89 O111 2.500 . S
Eu89 O112 2.473 . S
C90 O87 1.255 . S
C90 O91 1.247 . S
O91 C90 1.247 . S
C92 O104 1.242 . S
C92 O105 1.258 . S
O93 Eu89 2.292 . S
O93 C95 1.255 . S
C94 Eu89 2.852 . S
C94 C98 1.503 . S
C94 O111 1.273 . S
C94 O112 1.257 . S
C95 O93 1.255 . S
C95 O96 1.247 . S
O96 C95 1.247 . S
C97 O109 1.242 . S
C97 O110 1.258 . S
C98 C94 1.503 . S
C98 C99 1.379 . S
C98 C103 1.392 1_455 S
C99 C98 1.379 . S
C99 C100 1.404 . S
C99 H113 0.929 . S
C100 C99 1.404 . S
C100 C101 1.389 1_455 S
C101 C100 1.389 1_655 S
C101 C102 1.399 . S
C101 H114 0.931 . S
C102 C101 1.399 . S
C102 C103 1.390 . S
C103 C98 1.392 1_655 S
C103 C102 1.390 . S
C103 H115 0.929 . S
O104 Tb88 2.326 . S
O104 C92 1.242 . S
O105 Eu89 2.324 . S
O105 C92 1.258 . S
O106 Tb88 2.500 . S
O106 C108 1.273 . S
O107 Tb88 2.473 . S
O107 C108 1.257 . S
C108 O106 1.273 . S
C108 O107 1.257 . S
O109 Eu89 2.326 . S
O109 C97 1.242 . S
O110 Tb88 2.324 . S
O110 C97 1.258 . S
O111 Eu89 2.500 . S
O111 C94 1.273 . S
O112 Eu89 2.473 . S
O112 C94 1.257 . S
H113 C99 0.929 . S
H114 C101 0.931 . S
H115 C103 0.929 . S
O116 Tb117 2.292 . S
O116 C119 1.255 . S
Tb117 O116 2.292 . S
Tb117 O133 2.326 . S
Tb117 O135 2.500 . S
Tb117 O136 2.473 . S
Tb117 O139 2.324 . S
Eu118 O122 2.292 . S
Eu118 C123 2.852 . S
Eu118 O134 2.324 . S
Eu118 O138 2.326 . S
Eu118 O140 2.500 . S
Eu118 O141 2.473 . S
C119 O116 1.255 . S
C119 O120 1.247 . S
O120 C119 1.247 . S
C121 O133 1.242 . S
C121 O134 1.258 . S
O122 Eu118 2.292 . S
O122 C124 1.255 . S
C123 Eu118 2.852 . S
C123 C127 1.503 . S
C123 O140 1.273 . S
C123 O141 1.257 . S
C124 O122 1.255 . S
C124 O125 1.247 . S
O125 C124 1.247 . S
C126 O138 1.242 . S
C126 O139 1.258 . S
C127 C123 1.503 . S
C127 C128 1.379 . S
C127 C132 1.392 1_565 S
C128 C127 1.379 . S
C128 C129 1.404 . S
C128 H142 0.929 . S
C129 C128 1.404 . S
C129 C130 1.389 1_565 S
C130 C129 1.389 1_545 S
C130 C131 1.399 . S
C130 H143 0.931 . S
C131 C130 1.399 . S
C131 C132 1.390 . S
C132 C127 1.392 1_545 S
C132 C131 1.390 . S
C132 H144 0.929 . S
O133 Tb117 2.326 . S
O133 C121 1.242 . S
O134 Eu118 2.324 . S
O134 C121 1.258 . S
O135 Tb117 2.500 . S
O135 C137 1.273 . S
O136 Tb117 2.473 . S
O136 C137 1.257 . S
C137 O135 1.273 . S
C137 O136 1.257 . S
O138 Eu118 2.326 . S
O138 C126 1.242 . S
O139 Tb117 2.324 . S
O139 C126 1.258 . S
O140 Eu118 2.500 . S
O140 C123 1.273 . S
O141 Eu118 2.473 . S
O141 C123 1.257 . S
H142 C128 0.929 . S
H143 C130 0.931 . S
H144 C132 0.929 . S
O145 Tb146 2.292 . S
O145 C148 1.255 . S
Tb146 O145 2.292 . S
Tb146 O162 2.326 . S
Tb146 O164 2.500 . S
Tb146 O165 2.473 . S
Tb146 O168 2.324 . S
Eu147 O151 2.292 . S
Eu147 C152 2.852 . S
Eu147 O163 2.324 . S
Eu147 O167 2.326 . S
Eu147 O169 2.500 . S
Eu147 O170 2.473 . S
C148 O145 1.255 . S
C148 O149 1.247 . S
O149 C148 1.247 . S
C150 O162 1.242 . S
C150 O163 1.258 . S
O151 Eu147 2.292 . S
O151 C153 1.255 . S
C152 Eu147 2.852 . S
C152 C156 1.503 . S
C152 O169 1.273 . S
C152 O170 1.257 . S
C153 O151 1.255 . S
C153 O154 1.247 . S
O154 C153 1.247 . S
C155 O167 1.242 . S
C155 O168 1.258 . S
C156 C152 1.503 . S
C156 C157 1.379 . S
C156 C161 1.392 . S
C157 C156 1.379 . S
C157 C158 1.404 . S
C157 H171 0.929 . S
C158 C157 1.404 . S
C158 C159 1.389 . S
C159 C158 1.389 . S
C159 C160 1.399 . S
C159 H172 0.931 . S
C160 C159 1.399 . S
C160 C161 1.390 . S
C161 C156 1.392 . S
C161 C160 1.390 . S
C161 H173 0.929 . S
O162 Tb146 2.326 . S
O162 C150 1.242 . S
O163 Eu147 2.324 . S
O163 C150 1.258 . S
O164 Tb146 2.500 . S
O164 C166 1.273 . S
O165 Tb146 2.473 . S
O165 C166 1.257 . S
C166 O164 1.273 . S
C166 O165 1.257 . S
O167 Eu147 2.326 . S
O167 C155 1.242 . S
O168 Tb146 2.324 . S
O168 C155 1.258 . S
O169 Eu147 2.500 . S
O169 C152 1.273 . S
O170 Eu147 2.473 . S
O170 C152 1.257 . S
H171 C157 0.929 . S
H172 C159 0.931 . S
H173 C161 0.929 . S
O174 Tb175 2.292 . S
O174 C177 1.255 . S
Tb175 O174 2.292 . S
Tb175 O191 2.326 . S
Tb175 O193 2.500 . S
Tb175 O194 2.473 . S
Tb175 O197 2.324 . S
Eu176 O180 2.292 . S
Eu176 C181 2.852 . S
Eu176 O192 2.324 . S
Eu176 O196 2.326 . S
Eu176 O198 2.500 . S
Eu176 O199 2.473 . S
C177 O174 1.255 . S
C177 O178 1.247 . S
O178 C177 1.247 . S
C179 O191 1.242 . S
C179 O192 1.258 . S
O180 Eu176 2.292 . S
O180 C182 1.255 . S
C181 Eu176 2.852 . S
C181 C185 1.503 . S
C181 O198 1.273 . S
C181 O199 1.257 . S
C182 O180 1.255 . S
C182 O183 1.247 . S
O183 C182 1.247 . S
C184 O196 1.242 . S
C184 O197 1.258 . S
C185 C181 1.503 . S
C185 C186 1.379 . S
C185 C190 1.392 . S
C186 C185 1.379 . S
C186 C187 1.404 . S
C186 H200 0.929 . S
C187 C186 1.404 . S
C187 C188 1.389 . S
C188 C187 1.389 . S
C188 C189 1.399 . S
C188 H201 0.931 . S
C189 C188 1.399 . S
C189 C190 1.390 . S
C190 C185 1.392 . S
C190 C189 1.390 . S
C190 H202 0.929 . S
O191 Tb175 2.326 . S
O191 C179 1.242 . S
O192 Eu176 2.324 . S
O192 C179 1.258 . S
O193 Tb175 2.500 . S
O193 C195 1.273 . S
O194 Tb175 2.473 . S
O194 C195 1.257 . S
C195 O193 1.273 . S
C195 O194 1.257 . S
O196 Eu176 2.326 . S
O196 C184 1.242 . S
O197 Tb175 2.324 . S
O197 C184 1.258 . S
O198 Eu176 2.500 . S
O198 C181 1.273 . S
O199 Eu176 2.473 . S
O199 C181 1.257 . S
H200 C186 0.929 . S
H201 C188 0.931 . S
H202 C190 0.929 . S
O203 Tb204 2.292 . S
O203 C206 1.255 . S
Tb204 O203 2.292 . S
Tb204 O220 2.326 . S
Tb204 O222 2.500 . S
Tb204 O223 2.473 . S
Tb204 O226 2.324 . S
Eu205 O209 2.292 . S
Eu205 C210 2.852 . S
Eu205 O221 2.324 . S
Eu205 O225 2.326 . S
Eu205 O227 2.500 . S
Eu205 O228 2.473 . S
C206 O203 1.255 . S
C206 O207 1.247 . S
O207 C206 1.247 . S
C208 O220 1.242 . S
C208 O221 1.258 . S
O209 Eu205 2.292 . S
O209 C211 1.255 . S
C210 Eu205 2.852 . S
C210 C214 1.503 . S
C210 O227 1.273 . S
C210 O228 1.257 . S
C211 O209 1.255 . S
C211 O212 1.247 . S
O212 C211 1.247 . S
C213 O225 1.242 . S
C213 O226 1.258 . S
C214 C210 1.503 . S
C214 C215 1.379 . S
C214 C219 1.392 1_655 S
C215 C214 1.379 . S
C215 C216 1.404 . S
C215 H229 0.929 . S
C216 C215 1.404 . S
C216 C217 1.389 1_655 S
C217 C216 1.389 1_455 S
C217 C218 1.399 . S
C217 H230 0.931 . S
C218 C217 1.399 . S
C218 C219 1.390 . S
C219 C214 1.392 1_455 S
C219 C218 1.390 . S
C219 H231 0.929 . S
O220 Tb204 2.326 . S
O220 C208 1.242 . S
O221 Eu205 2.324 . S
O221 C208 1.258 . S
O222 Tb204 2.500 . S
O222 C224 1.273 . S
O223 Tb204 2.473 . S
O223 C224 1.257 . S
C224 O222 1.273 . S
C224 O223 1.257 . S
O225 Eu205 2.326 . S
O225 C213 1.242 . S
O226 Tb204 2.324 . S
O226 C213 1.258 . S
O227 Eu205 2.500 . S
O227 C210 1.273 . S
O228 Eu205 2.473 . S
O228 C210 1.257 . S
H229 C215 0.929 . S
H230 C217 0.931 . S
H231 C219 0.929 . S
O232 Tb233 2.292 . S
O232 C235 1.255 . S
Tb233 O232 2.292 . S
Tb233 O249 2.326 . S
Tb233 O251 2.500 . S
Tb233 O252 2.473 . S
Tb233 O255 2.324 . S
Eu234 O238 2.292 . S
Eu234 C239 2.852 . S
Eu234 O250 2.324 . S
Eu234 O254 2.326 . S
Eu234 O256 2.500 . S
Eu234 O257 2.473 . S
C235 O232 1.255 . S
C235 O236 1.247 . S
O236 C235 1.247 . S
C237 O249 1.242 . S
C237 O250 1.258 . S
O238 Eu234 2.292 . S
O238 C240 1.255 . S
C239 Eu234 2.852 . S
C239 C243 1.503 . S
C239 O256 1.273 . S
C239 O257 1.257 . S
C240 O238 1.255 . S
C240 O241 1.247 . S
O241 C240 1.247 . S
C242 O254 1.242 . S
C242 O255 1.258 . S
C243 C239 1.503 . S
C243 C244 1.379 . S
C243 C248 1.392 1_565 S
C244 C243 1.379 . S
C244 C245 1.404 . S
C244 H258 0.929 . S
C245 C244 1.404 . S
C245 C246 1.389 1_565 S
C246 C245 1.389 1_545 S
C246 C247 1.399 . S
C246 H259 0.931 . S
C247 C246 1.399 . S
C247 C248 1.390 . S
C248 C243 1.392 1_545 S
C248 C247 1.390 . S
C248 H260 0.929 . S
O249 Tb233 2.326 . S
O249 C237 1.242 . S
O250 Eu234 2.324 . S
O250 C237 1.258 . S
O251 Tb233 2.500 . S
O251 C253 1.273 . S
O252 Tb233 2.473 . S
O252 C253 1.257 . S
C253 O251 1.273 . S
C253 O252 1.257 . S
O254 Eu234 2.326 . S
O254 C242 1.242 . S
O255 Tb233 2.324 . S
O255 C242 1.258 . S
O256 Eu234 2.500 . S
O256 C239 1.273 . S
O257 Eu234 2.473 . S
O257 C239 1.257 . S
H258 C244 0.929 . S
H259 C246 0.931 . S
H260 C248 0.929 . S
O261 Tb262 2.292 . S
O261 C264 1.255 . S
Tb262 O261 2.292 . S
Tb262 O278 2.326 . S
Tb262 O280 2.500 . S
Tb262 O281 2.473 . S
Tb262 O284 2.324 . S
Eu263 O267 2.292 . S
Eu263 C268 2.852 . S
Eu263 O279 2.324 . S
Eu263 O283 2.326 . S
Eu263 O285 2.500 . S
Eu263 O286 2.473 . S
C264 O261 1.255 . S
C264 O265 1.247 . S
O265 C264 1.247 . S
C266 O278 1.242 . S
C266 O279 1.258 . S
O267 Eu263 2.292 . S
O267 C269 1.255 . S
C268 Eu263 2.852 . S
C268 C272 1.503 . S
C268 O285 1.273 . S
C268 O286 1.257 . S
C269 O267 1.255 . S
C269 O270 1.247 . S
O270 C269 1.247 . S
C271 O283 1.242 . S
C271 O284 1.258 . S
C272 C268 1.503 . S
C272 C273 1.379 . S
C272 C277 1.392 . S
C273 C272 1.379 . S
C273 C274 1.404 . S
C273 H287 0.929 . S
C274 C273 1.404 . S
C274 C275 1.389 . S
C275 C274 1.389 . S
C275 C276 1.399 . S
C275 H288 0.931 . S
C276 C275 1.399 . S
C276 C277 1.390 . S
C277 C272 1.392 . S
C277 C276 1.390 . S
C277 H289 0.929 . S
O278 Tb262 2.326 . S
O278 C266 1.242 . S
O279 Eu263 2.324 . S
O279 C266 1.258 . S
O280 Tb262 2.500 . S
O280 C282 1.273 . S
O281 Tb262 2.473 . S
O281 C282 1.257 . S
C282 O280 1.273 . S
C282 O281 1.257 . S
O283 Eu263 2.326 . S
O283 C271 1.242 . S
O284 Tb262 2.324 . S
O284 C271 1.258 . S
O285 Eu263 2.500 . S
O285 C268 1.273 . S
O286 Eu263 2.473 . S
O286 C268 1.257 . S
H287 C273 0.929 . S
H288 C275 0.931 . S
H289 C277 0.929 . S
O290 Tb291 2.292 . S
O290 C293 1.255 . S
Tb291 O290 2.292 . S
Tb291 O307 2.326 . S
Tb291 O309 2.500 . S
Tb291 O310 2.473 . S
Tb291 O313 2.324 . S
Eu292 O296 2.292 . S
Eu292 C297 2.852 . S
Eu292 O308 2.324 . S
Eu292 O312 2.326 . S
Eu292 O314 2.500 . S
Eu292 O315 2.473 . S
C293 O290 1.255 . S
C293 O294 1.247 . S
O294 C293 1.247 . S
C295 O307 1.242 . S
C295 O308 1.258 . S
O296 Eu292 2.292 . S
O296 C298 1.255 . S
C297 Eu292 2.852 . S
C297 C301 1.503 . S
C297 O314 1.273 . S
C297 O315 1.257 . S
C298 O296 1.255 . S
C298 O299 1.247 . S
O299 C298 1.247 . S
C300 O312 1.242 . S
C300 O313 1.258 . S
C301 C297 1.503 . S
C301 C302 1.379 . S
C301 C306 1.392 . S
C302 C301 1.379 . S
C302 C303 1.404 . S
C302 H316 0.929 . S
C303 C302 1.404 . S
C303 C304 1.389 . S
C304 C303 1.389 . S
C304 C305 1.399 . S
C304 H317 0.931 . S
C305 C304 1.399 . S
C305 C306 1.390 . S
C306 C301 1.392 . S
C306 C305 1.390 . S
C306 H318 0.929 . S
O307 Tb291 2.326 . S
O307 C295 1.242 . S
O308 Eu292 2.324 . S
O308 C295 1.258 . S
O309 Tb291 2.500 . S
O309 C311 1.273 . S
O310 Tb291 2.473 . S
O310 C311 1.257 . S
C311 O309 1.273 . S
C311 O310 1.257 . S
O312 Eu292 2.326 . S
O312 C300 1.242 . S
O313 Tb291 2.324 . S
O313 C300 1.258 . S
O314 Eu292 2.500 . S
O314 C297 1.273 . S
O315 Eu292 2.473 . S
O315 C297 1.257 . S
H316 C302 0.929 . S
H317 C304 0.931 . S
H318 C306 0.929 . S
O319 Tb320 2.292 . S
O319 C322 1.255 . S
Tb320 O319 2.292 . S
Tb320 O336 2.326 . S
Tb320 O338 2.500 . S
Tb320 O339 2.473 . S
Tb320 O342 2.324 . S
Eu321 O325 2.292 . S
Eu321 C326 2.852 . S
Eu321 O337 2.324 . S
Eu321 O341 2.326 . S
Eu321 O343 2.500 . S
Eu321 O344 2.473 . S
C322 O319 1.255 . S
C322 O323 1.247 . S
O323 C322 1.247 . S
C324 O336 1.242 . S
C324 O337 1.258 . S
O325 Eu321 2.292 . S
O325 C327 1.255 . S
C326 Eu321 2.852 . S
C326 C330 1.503 . S
C326 O343 1.273 . S
C326 O344 1.257 . S
C327 O325 1.255 . S
C327 O328 1.247 . S
O328 C327 1.247 . S
C329 O341 1.242 . S
C329 O342 1.258 . S
C330 C326 1.503 . S
C330 C331 1.379 . S
C330 C335 1.392 1_655 S
C331 C330 1.379 . S
C331 C332 1.404 . S
C331 H345 0.929 . S
C332 C331 1.404 . S
C332 C333 1.389 1_655 S
C333 C332 1.389 1_455 S
C333 C334 1.399 . S
C333 H346 0.931 . S
C334 C333 1.399 . S
C334 C335 1.390 . S
C335 C330 1.392 1_455 S
C335 C334 1.390 . S
C335 H347 0.929 . S
O336 Tb320 2.326 . S
O336 C324 1.242 . S
O337 Eu321 2.324 . S
O337 C324 1.258 . S
O338 Tb320 2.500 . S
O338 C340 1.273 . S
O339 Tb320 2.473 . S
O339 C340 1.257 . S
C340 O338 1.273 . S
C340 O339 1.257 . S
O341 Eu321 2.326 . S
O341 C329 1.242 . S
O342 Tb320 2.324 . S
O342 C329 1.258 . S
O343 Eu321 2.500 . S
O343 C326 1.273 . S
O344 Eu321 2.473 . S
O344 C326 1.257 . S
H345 C331 0.929 . S
H346 C333 0.931 . S
H347 C335 0.929 . S
O348 Tb349 2.292 . S
O348 C351 1.255 . S
Tb349 O348 2.292 . S
Tb349 O365 2.326 . S
Tb349 O367 2.500 . S
Tb349 O368 2.473 . S
Tb349 O371 2.324 . S
Eu350 O354 2.292 . S
Eu350 C355 2.852 . S
Eu350 O366 2.324 . S
Eu350 O370 2.326 . S
Eu350 O372 2.500 . S
Eu350 O373 2.473 . S
C351 O348 1.255 . S
C351 O352 1.247 . S
O352 C351 1.247 . S
C353 O365 1.242 . S
C353 O366 1.258 . S
O354 Eu350 2.292 . S
O354 C356 1.255 . S
C355 Eu350 2.852 . S
C355 C359 1.503 . S
C355 O372 1.273 . S
C355 O373 1.257 . S
C356 O354 1.255 . S
C356 O357 1.247 . S
O357 C356 1.247 . S
C358 O370 1.242 . S
C358 O371 1.258 . S
C359 C355 1.503 . S
C359 C360 1.379 . S
C359 C364 1.392 1_545 S
C360 C359 1.379 . S
C360 C361 1.404 . S
C360 H374 0.929 . S
C361 C360 1.404 . S
C361 C362 1.389 1_545 S
C362 C361 1.389 1_565 S
C362 C363 1.399 . S
C362 H375 0.931 . S
C363 C362 1.399 . S
C363 C364 1.390 . S
C364 C359 1.392 1_565 S
C364 C363 1.390 . S
C364 H376 0.929 . S
O365 Tb349 2.326 . S
O365 C353 1.242 . S
O366 Eu350 2.324 . S
O366 C353 1.258 . S
O367 Tb349 2.500 . S
O367 C369 1.273 . S
O368 Tb349 2.473 . S
O368 C369 1.257 . S
C369 O367 1.273 . S
C369 O368 1.257 . S
O370 Eu350 2.326 . S
O370 C358 1.242 . S
O371 Tb349 2.324 . S
O371 C358 1.258 . S
O372 Eu350 2.500 . S
O372 C355 1.273 . S
O373 Eu350 2.473 . S
O373 C355 1.257 . S
H374 C360 0.929 . S
H375 C362 0.931 . S
H376 C364 0.929 . S
O377 Tb378 2.292 . S
O377 C380 1.255 . S
Tb378 O377 2.292 . S
Tb378 O394 2.326 . S
Tb378 O396 2.500 . S
Tb378 O397 2.473 . S
Tb378 O400 2.324 . S
Eu379 O383 2.292 . S
Eu379 C384 2.852 . S
Eu379 O395 2.324 . S
Eu379 O399 2.326 . S
Eu379 O401 2.500 . S
Eu379 O402 2.473 . S
C380 O377 1.255 . S
C380 O381 1.247 . S
O381 C380 1.247 . S
C382 O394 1.242 . S
C382 O395 1.258 . S
O383 Eu379 2.292 . S
O383 C385 1.255 . S
C384 Eu379 2.852 . S
C384 C388 1.503 . S
C384 O401 1.273 . S
C384 O402 1.257 . S
C385 O383 1.255 . S
C385 O386 1.247 . S
O386 C385 1.247 . S
C387 O399 1.242 . S
C387 O400 1.258 . S
C388 C384 1.503 . S
C388 C389 1.379 . S
C388 C393 1.392 . S
C389 C388 1.379 . S
C389 C390 1.404 . S
C389 H403 0.929 . S
C390 C389 1.404 . S
C390 C391 1.389 . S
C391 C390 1.389 . S
C391 C392 1.399 . S
C391 H404 0.931 . S
C392 C391 1.399 . S
C392 C393 1.390 . S
C393 C388 1.392 . S
C393 C392 1.390 . S
C393 H405 0.929 . S
O394 Tb378 2.326 . S
O394 C382 1.242 . S
O395 Eu379 2.324 . S
O395 C382 1.258 . S
O396 Tb378 2.500 . S
O396 C398 1.273 . S
O397 Tb378 2.473 . S
O397 C398 1.257 . S
C398 O396 1.273 . S
C398 O397 1.257 . S
O399 Eu379 2.326 . S
O399 C387 1.242 . S
O400 Tb378 2.324 . S
O400 C387 1.258 . S
O401 Eu379 2.500 . S
O401 C384 1.273 . S
O402 Eu379 2.473 . S
O402 C384 1.257 . S
H403 C389 0.929 . S
H404 C391 0.931 . S
H405 C393 0.929 . S
O406 Tb407 2.292 . S
O406 C409 1.255 . S
Tb407 O406 2.292 . S
Tb407 O423 2.326 . S
Tb407 O425 2.500 . S
Tb407 O426 2.473 . S
Tb407 O429 2.324 . S
Eu408 O412 2.292 . S
Eu408 C413 2.852 . S
Eu408 O424 2.324 . S
Eu408 O428 2.326 . S
Eu408 O430 2.500 . S
Eu408 O431 2.473 . S
C409 O406 1.255 . S
C409 O410 1.247 . S
O410 C409 1.247 . S
C411 O423 1.242 . S
C411 O424 1.258 . S
O412 Eu408 2.292 . S
O412 C414 1.255 . S
C413 Eu408 2.852 . S
C413 C417 1.503 . S
C413 O430 1.273 . S
C413 O431 1.257 . S
C414 O412 1.255 . S
C414 O415 1.247 . S
O415 C414 1.247 . S
C416 O428 1.242 . S
C416 O429 1.258 . S
C417 C413 1.503 . S
C417 C418 1.379 . S
C417 C422 1.392 . S
C418 C417 1.379 . S
C418 C419 1.404 . S
C418 H432 0.929 . S
C419 C418 1.404 . S
C419 C420 1.389 . S
C420 C419 1.389 . S
C420 C421 1.399 . S
C420 H433 0.931 . S
C421 C420 1.399 . S
C421 C422 1.390 . S
C422 C417 1.392 . S
C422 C421 1.390 . S
C422 H434 0.929 . S
O423 Tb407 2.326 . S
O423 C411 1.242 . S
O424 Eu408 2.324 . S
O424 C411 1.258 . S
O425 Tb407 2.500 . S
O425 C427 1.273 . S
O426 Tb407 2.473 . S
O426 C427 1.257 . S
C427 O425 1.273 . S
C427 O426 1.257 . S
O428 Eu408 2.326 . S
O428 C416 1.242 . S
O429 Tb407 2.324 . S
O429 C416 1.258 . S
O430 Eu408 2.500 . S
O430 C413 1.273 . S
O431 Eu408 2.473 . S
O431 C413 1.257 . S
H432 C418 0.929 . S
H433 C420 0.931 . S
H434 C422 0.929 . S
O435 Tb436 2.292 . S
O435 C438 1.255 . S
Tb436 O435 2.292 . S
Tb436 O452 2.326 . S
Tb436 O454 2.500 . S
Tb436 O455 2.473 . S
Tb436 O458 2.324 . S
Eu437 O441 2.292 . S
Eu437 C442 2.852 . S
Eu437 O453 2.324 . S
Eu437 O457 2.326 . S
Eu437 O459 2.500 . S
Eu437 O460 2.473 . S
C438 O435 1.255 . S
C438 O439 1.247 . S
O439 C438 1.247 . S
C440 O452 1.242 . S
C440 O453 1.258 . S
O441 Eu437 2.292 . S
O441 C443 1.255 . S
C442 Eu437 2.852 . S
C442 C446 1.503 . S
C442 O459 1.273 . S
C442 O460 1.257 . S
C443 O441 1.255 . S
C443 O444 1.247 . S
O444 C443 1.247 . S
C445 O457 1.242 . S
C445 O458 1.258 . S
C446 C442 1.503 . S
C446 C447 1.379 . S
C446 C451 1.392 1_455 S
C447 C446 1.379 . S
C447 C448 1.404 . S
C447 H461 0.929 . S
C448 C447 1.404 . S
C448 C449 1.389 1_455 S
C449 C448 1.389 1_655 S
C449 C450 1.399 . S
C449 H462 0.931 . S
C450 C449 1.399 . S
C450 C451 1.390 . S
C451 C446 1.392 1_655 S
C451 C450 1.390 . S
C451 H463 0.929 . S
O452 Tb436 2.326 . S
O452 C440 1.242 . S
O453 Eu437 2.324 . S
O453 C440 1.258 . S
O454 Tb436 2.500 . S
O454 C456 1.273 . S
O455 Tb436 2.473 . S
O455 C456 1.257 . S
C456 O454 1.273 . S
C456 O455 1.257 . S
O457 Eu437 2.326 . S
O457 C445 1.242 . S
O458 Tb436 2.324 . S
O458 C445 1.258 . S
O459 Eu437 2.500 . S
O459 C442 1.273 . S
O460 Eu437 2.473 . S
O460 C442 1.257 . S
H461 C447 0.929 . S
H462 C449 0.931 . S
H463 C451 0.929 . S
H464 C476 0.930 . S
H465 C478 0.930 . S
H466 C479 0.930 1_554 S
H467 C483 0.959 . S
H468 C483 0.959 . S
H469 C483 0.961 . S
H470 C484 0.960 1_565 S
H471 C484 0.961 . S
H472 C484 0.959 . S
H473 C487 0.929 . S
H474 C488 0.931 . S
H475 C490 0.938 . S
C476 H464 0.930 . S
C476 C477 1.399 . S
C476 C481 1.399 . S
C477 C476 1.399 . S
C477 C478 1.376 1_565 S
C478 H465 0.930 . S
C478 C477 1.376 1_545 S
C478 C479 1.388 . S
C479 H466 0.930 1_556 S
C479 C478 1.388 . S
C479 C480 1.390 . S
C480 C479 1.390 . S
C480 C481 1.394 1_545 S
C480 C486 1.465 1_556 S
C481 C476 1.399 . S
C481 C480 1.394 1_565 S
C481 C482 1.516 . S
C482 C481 1.516 . S
C482 C483 1.502 . S
C482 C484 1.561 1_565 S
C482 C485 1.526 1_556 S
C483 H467 0.959 . S
C483 H468 0.959 . S
C483 H469 0.961 . S
C483 C482 1.502 . S
C484 H470 0.960 1_545 S
C484 H471 0.961 . S
C484 H472 0.959 . S
C484 C482 1.561 1_545 S
C485 C482 1.526 1_554 S
C485 C486 1.396 1_565 S
C485 C490 1.390 . S
C486 C480 1.465 1_554 S
C486 C485 1.396 1_545 S
C486 C487 1.399 . S
C487 H473 0.929 . S
C487 C486 1.399 . S
C487 C488 1.385 . S
C488 H474 0.931 . S
C488 C487 1.385 . S
C488 C489 1.389 . S
C489 C488 1.389 . S
C489 C490 1.378 1_545 S
C490 H475 0.938 . S
C490 C485 1.390 . S
C490 C489 1.378 1_565 S
H491 C503 0.930 . S
H492 C505 0.930 . S
H493 C506 0.930 1_556 S
H494 C510 0.959 . S
H495 C510 0.959 . S
H496 C510 0.961 . S
H497 C511 0.960 . S
H498 C511 0.961 . S
H499 C511 0.959 . S
H500 C514 0.929 . S
H501 C515 0.931 . S
H502 C517 0.930 . S
C503 H491 0.930 . S
C503 C504 1.399 . S
C503 C508 1.399 . S
C504 C503 1.399 . S
C504 C505 1.376 . S
C505 H492 0.930 . S
C505 C504 1.376 . S
C505 C506 1.388 . S
C506 H493 0.930 1_554 S
C506 C505 1.388 . S
C506 C507 1.390 . S
C507 C506 1.390 . S
C507 C508 1.394 . S
C507 C513 1.465 1_554 S
C508 C503 1.399 . S
C508 C507 1.394 . S
C508 C509 1.516 . S
C509 C508 1.516 . S
C509 C510 1.502 . S
C509 C511 1.561 . S
C509 C512 1.526 1_554 S
C510 H494 0.959 . S
C510 H495 0.959 . S
C510 H496 0.961 . S
C510 C509 1.502 . S
C511 H497 0.960 . S
C511 H498 0.961 . S
C511 H499 0.959 . S
C511 C509 1.561 . S
C512 C509 1.526 1_556 S
C512 C513 1.396 . S
C512 C517 1.390 . S
C513 C507 1.465 1_556 S
C513 C512 1.396 . S
C513 C514 1.399 . S
C514 H500 0.929 . S
C514 C513 1.399 . S
C514 C515 1.385 . S
C515 H501 0.931 . S
C515 C514 1.385 . S
C515 C516 1.389 . S
C516 C515 1.389 . S
C516 C517 1.387 . S
C517 H502 0.930 . S
C517 C512 1.390 . S
C517 C516 1.387 . S
H518 C530 0.930 . S
H519 C532 0.930 . S
H520 C533 0.930 . S
H521 C537 0.959 . S
H522 C537 0.959 . S
H523 C537 0.961 . S
H524 C538 0.960 . S
H525 C538 0.961 1_554 S
H526 C538 0.959 . S
H527 C541 0.929 . S
H528 C542 0.931 . S
H529 C544 0.930 . S
C530 H518 0.930 . S
C530 C531 1.399 . S
C530 C535 1.399 . S
C531 C530 1.399 . S
C531 C532 1.376 . S
C532 H519 0.930 . S
C532 C531 1.376 . S
C532 C533 1.388 . S
C533 H520 0.930 . S
C533 C532 1.388 . S
C533 C534 1.390 . S
C534 C533 1.390 . S
C534 C535 1.394 . S
C534 C540 1.465 1_456 S
C535 C530 1.399 . S
C535 C534 1.394 . S
C535 C536 1.516 1_556 S
C536 C535 1.516 1_554 S
C536 C537 1.502 . S
C536 C538 1.561 1_454 S
C536 C539 1.526 1_455 S
C537 H521 0.959 . S
C537 H522 0.959 . S
C537 H523 0.961 . S
C537 C536 1.502 . S
C538 H524 0.960 . S
C538 H525 0.961 1_556 S
C538 H526 0.959 . S
C538 C536 1.561 1_656 S
C539 C536 1.526 1_655 S
C539 C540 1.396 . S
C539 C544 1.390 . S
C540 C534 1.465 1_654 S
C540 C539 1.396 . S
C540 C541 1.399 . S
C541 H527 0.929 . S
C541 C540 1.399 . S
C541 C542 1.385 . S
C542 H528 0.931 . S
C542 C541 1.385 . S
C542 C543 1.389 . S
C543 C542 1.389 . S
C543 C544 1.387 . S
C544 H529 0.930 . S
C544 C539 1.390 . S
C544 C543 1.387 . S
H545 C557 0.930 . S
H546 C559 0.930 . S
H547 C560 0.930 . S
H548 C564 0.959 1_556 S
H549 C564 0.959 1_546 S
H550 C564 0.961 . S
H551 C565 0.960 . S
H552 C565 0.961 . S
H553 C565 0.959 . S
H554 C568 0.929 . S
H555 C569 0.931 . S
H556 C571 0.930 . S
C557 H545 0.930 . S
C557 C558 1.399 1_655 S
C557 C562 1.399 . S
C558 C557 1.399 1_455 S
C558 C559 1.376 . S
C559 H546 0.930 . S
C559 C558 1.376 . S
C559 C560 1.388 . S
C560 H547 0.930 . S
C560 C559 1.388 . S
C560 C561 1.390 . S
C561 C560 1.390 . S
C561 C562 1.394 1_455 S
C561 C567 1.465 1_564 S
C562 C557 1.399 . S
C562 C561 1.394 1_655 S
C562 C563 1.516 1_565 S
C563 C562 1.516 1_545 S
C563 C564 1.502 1_545 S
C563 C565 1.561 . S
C563 C566 1.526 1_554 S
C564 H548 0.959 1_554 S
C564 H549 0.959 1_564 S
C564 H550 0.961 . S
C564 C563 1.502 1_565 S
C565 H551 0.960 . S
C565 H552 0.961 . S
C565 H553 0.959 . S
C565 C563 1.561 . S
C566 C563 1.526 1_556 S
C566 C567 1.396 1_655 S
C566 C571 1.390 . S
C567 C561 1.465 1_546 S
C567 C566 1.396 1_455 S
C567 C568 1.399 . S
C568 H554 0.929 . S
C568 C567 1.399 . S
C568 C569 1.385 . S
C569 H555 0.931 . S
C569 C568 1.385 . S
C569 C570 1.389 1_455 S
C570 C569 1.389 1_655 S
C570 C571 1.387 . S
C571 H556 0.930 . S
C571 C566 1.390 . S
C571 C570 1.387 . S
H572 C584 0.930 . S
H573 C586 0.930 . S
H574 C587 0.930 . S
H575 C591 0.959 . S
H576 C591 0.959 . S
H577 C591 0.961 . S
H578 C592 0.960 . S
H579 C592 0.961 . S
H580 C592 0.959 . S
H581 C595 0.929 . S
H582 C596 0.931 . S
H583 C598 0.930 . S
C584 H572 0.930 . S
C584 C585 1.399 1_545 S
C584 C589 1.399 . S
C585 C584 1.399 1_565 S
C585 C586 1.376 . S
C586 H573 0.930 . S
C586 C585 1.376 . S
C586 C587 1.388 . S
C587 H574 0.930 . S
C587 C586 1.388 . S
C587 C588 1.390 . S
C588 C587 1.390 . S
C588 C589 1.394 1_565 S
C588 C594 1.465 1_455 S
C589 C584 1.399 . S
C589 C588 1.394 1_545 S
C589 C590 1.516 . S
C590 C589 1.516 . S
C590 C591 1.502 . S
C590 C592 1.561 1_455 S
C590 C593 1.526 1_455 S
C591 H575 0.959 . S
C591 H576 0.959 . S
C591 H577 0.961 . S
C591 C590 1.502 . S
C592 H578 0.960 . S
C592 H579 0.961 . S
C592 H580 0.959 . S
C592 C590 1.561 1_655 S
C593 C590 1.526 1_655 S
C593 C594 1.396 1_545 S
C593 C598 1.390 . S
C594 C588 1.465 1_655 S
C594 C593 1.396 1_565 S
C594 C595 1.399 . S
C595 H581 0.929 . S
C595 C594 1.399 . S
C595 C596 1.385 . S
C596 H582 0.931 . S
C596 C595 1.385 . S
C596 C597 1.389 1_565 S
C597 C596 1.389 1_545 S
C597 C598 1.387 . S
C598 H583 0.930 . S
C598 C593 1.390 . S
C598 C597 1.387 . S
H599 C611 0.930 . S
H600 C613 0.930 . S
H601 C614 0.930 . S
H602 C618 0.959 . S
H603 C618 0.959 . S
H604 C618 0.961 . S
H605 C619 0.960 . S
H606 C619 0.961 . S
H607 C619 0.959 . S
H608 C622 0.929 . S
H609 C623 0.931 . S
H610 C625 0.930 . S
C611 H599 0.930 . S
C611 C612 1.399 . S
C611 C616 1.399 . S
C612 C611 1.399 . S
C612 C613 1.376 . S
C613 H600 0.930 . S
C613 C612 1.376 . S
C613 C614 1.388 1_545 S
C614 H601 0.930 . S
C614 C613 1.388 1_565 S
C614 C615 1.390 1_565 S
C615 C614 1.390 1_545 S
C615 C616 1.392 . S
C615 C621 1.466 1_545 S
C616 C611 1.399 . S
C616 C615 1.392 . S
C616 C617 1.516 . S
C617 C616 1.516 . S
C617 C618 1.502 . S
C617 C619 1.561 . S
C617 C620 1.526 1_545 S
C618 H602 0.959 . S
C618 H603 0.959 . S
C618 H604 0.961 . S
C618 C617 1.502 . S
C619 H605 0.960 . S
C619 H606 0.961 . S
C619 H607 0.959 . S
C619 C617 1.561 . S
C620 C617 1.526 1_565 S
C620 C621 1.396 . S
C620 C625 1.390 . S
C621 C615 1.466 1_565 S
C621 C620 1.396 . S
C621 C622 1.399 . S
C622 H608 0.929 . S
C622 C621 1.399 . S
C622 C623 1.385 . S
C623 H609 0.931 . S
C623 C622 1.385 . S
C623 C624 1.389 . S
C624 C623 1.389 . S
C624 C625 1.387 . S
C625 H610 0.930 . S
C625 C620 1.390 . S
C625 C624 1.387 . S
H626 C638 0.930 . S
H627 C640 0.930 . S
H628 C641 0.930 . S
H629 C645 0.959 . S
H630 C645 0.959 . S
H631 C645 0.961 . S
H632 C646 0.960 . S
H633 C646 0.961 . S
H634 C646 0.959 . S
H635 C649 0.929 . S
H636 C650 0.931 . S
H637 C652 0.930 . S
C638 H626 0.930 . S
C638 C639 1.399 . S
C638 C643 1.399 . S
C639 C638 1.399 . S
C639 C640 1.376 . S
C640 H627 0.930 . S
C640 C639 1.376 . S
C640 C641 1.388 . S
C641 H628 0.930 . S
C641 C640 1.388 . S
C641 C642 1.390 . S
C642 C641 1.390 . S
C642 C643 1.394 . S
C642 C648 1.465 . S
C643 C638 1.399 . S
C643 C642 1.394 . S
C643 C644 1.516 . S
C644 C643 1.516 . S
C644 C645 1.502 . S
C644 C646 1.561 . S
C644 C647 1.526 . S
C645 H629 0.959 . S
C645 H630 0.959 . S
C645 H631 0.961 . S
C645 C644 1.502 . S
C646 H632 0.960 . S
C646 H633 0.961 . S
C646 H634 0.959 . S
C646 C644 1.561 . S
C647 C644 1.526 . S
C647 C648 1.396 . S
C647 C652 1.390 . S
C648 C642 1.465 . S
C648 C647 1.396 . S
C648 C649 1.399 . S
C649 H635 0.929 . S
C649 C648 1.399 . S
C649 C650 1.385 . S
C650 H636 0.931 . S
C650 C649 1.385 . S
C650 C651 1.389 . S
C651 C650 1.389 . S
C651 C652 1.387 . S
C652 H637 0.930 . S
C652 C647 1.390 . S
C652 C651 1.387 . S
H653 C665 0.930 1_655 S
H654 C667 0.930 . S
H655 C668 0.930 . S
H656 C672 0.959 . S
H657 C672 0.959 . S
H658 C672 0.961 . S
H659 C673 0.960 . S
H660 C673 0.961 . S
H661 C673 0.959 . S
H662 C676 0.929 . S
H663 C677 0.933 . S
H664 C679 0.930 . S
C665 H653 0.930 1_455 S
C665 C666 1.399 . S
C665 C670 1.399 . S
C666 C665 1.399 . S
C666 C667 1.376 . S
C667 H654 0.930 . S
C667 C666 1.376 . S
C667 C668 1.388 . S
C668 H655 0.930 . S
C668 C667 1.388 . S
C668 C669 1.390 . S
C669 C668 1.390 . S
C669 C670 1.394 . S
C669 C675 1.465 . S
C670 C665 1.399 . S
C670 C669 1.394 . S
C670 C671 1.516 1_455 S
C671 C670 1.516 1_655 S
C671 C672 1.502 . S
C671 C673 1.561 1_655 S
C671 C674 1.526 . S
C672 H656 0.959 . S
C672 H657 0.959 . S
C672 H658 0.961 . S
C672 C671 1.502 . S
C673 H659 0.960 . S
C673 H660 0.961 . S
C673 H661 0.959 . S
C673 C671 1.561 1_455 S
C674 C671 1.526 . S
C674 C675 1.396 1_655 S
C674 C679 1.390 . S
C675 C669 1.465 . S
C675 C674 1.396 1_455 S
C675 C676 1.399 . S
C676 H662 0.929 . S
C676 C675 1.399 . S
C676 C677 1.391 . S
C677 H663 0.933 . S
C677 C676 1.391 . S
C677 C678 1.382 1_455 S
C678 C677 1.382 1_655 S
C678 C679 1.387 . S
C679 H664 0.930 . S
C679 C674 1.390 . S
C679 C678 1.387 . S
H680 C692 0.930 . S
H681 C694 0.930 . S
H682 C695 0.930 . S
H683 C699 0.959 . S
H684 C699 0.959 . S
H685 C699 0.961 . S
H686 C700 0.960 . S
H687 C700 0.961 . S
H688 C700 0.959 . S
H689 C703 0.929 . S
H690 C704 0.931 . S
H691 C706 0.930 . S
C692 H680 0.930 . S
C692 C693 1.399 . S
C692 C697 1.399 . S
C693 C692 1.399 . S
C693 C694 1.376 . S
C694 H681 0.930 . S
C694 C693 1.376 . S
C694 C695 1.388 . S
C695 H682 0.930 . S
C695 C694 1.388 . S
C695 C696 1.390 . S
C696 C695 1.390 . S
C696 C697 1.394 . S
C696 C702 1.465 . S
C697 C692 1.399 . S
C697 C696 1.394 . S
C697 C698 1.516 . S
C698 C697 1.516 . S
C698 C699 1.502 . S
C698 C700 1.561 . S
C698 C701 1.526 . S
C699 H683 0.959 . S
C699 H684 0.959 . S
C699 H685 0.961 . S
C699 C698 1.502 . S
C700 H686 0.960 . S
C700 H687 0.961 . S
C700 H688 0.959 . S
C700 C698 1.561 . S
C701 C698 1.526 . S
C701 C702 1.396 . S
C701 C706 1.390 . S
C702 C696 1.465 . S
C702 C701 1.396 . S
C702 C703 1.399 . S
C703 H689 0.929 . S
C703 C702 1.399 . S
C703 C704 1.385 . S
C704 H690 0.931 . S
C704 C703 1.385 . S
C704 C705 1.389 . S
C705 C704 1.389 . S
C705 C706 1.387 . S
C706 H691 0.930 . S
C706 C701 1.390 . S
C706 C705 1.387 . S
H707 C719 0.930 . S
H708 C721 0.930 . S
H709 C722 0.930 . S
H710 C726 0.959 . S
H711 C726 0.959 . S
H712 C726 0.961 . S
H713 C727 0.960 . S
H714 C727 0.961 . S
H715 C727 0.959 . S
H716 C730 0.929 . S
H717 C731 0.931 . S
H718 C733 0.930 . S
C719 H707 0.930 . S
C719 C720 1.399 . S
C719 C724 1.399 . S
C720 C719 1.399 . S
C720 C721 1.376 . S
C721 H708 0.930 . S
C721 C720 1.376 . S
C721 C722 1.388 . S
C722 H709 0.930 . S
C722 C721 1.388 . S
C722 C723 1.390 . S
C723 C722 1.390 . S
C723 C724 1.394 . S
C723 C729 1.465 . S
C724 C719 1.399 . S
C724 C723 1.394 . S
C724 C725 1.516 . S
C725 C724 1.516 . S
C725 C726 1.502 . S
C725 C727 1.561 . S
C725 C728 1.526 . S
C726 H710 0.959 . S
C726 H711 0.959 . S
C726 H712 0.961 . S
C726 C725 1.502 . S
C727 H713 0.960 . S
C727 H714 0.961 . S
C727 H715 0.959 . S
C727 C725 1.561 . S
C728 C725 1.526 . S
C728 C729 1.396 . S
C728 C733 1.390 . S
C729 C723 1.465 . S
C729 C728 1.396 . S
C729 C730 1.399 . S
C730 H716 0.929 . S
C730 C729 1.399 . S
C730 C731 1.385 . S
C731 H717 0.931 . S
C731 C730 1.385 . S
C731 C732 1.389 . S
C732 C731 1.389 . S
C732 C733 1.387 . S
C733 H718 0.930 . S
C733 C728 1.390 . S
C733 C732 1.387 . S
H734 C746 0.930 . S
H735 C748 0.923 1_455 S
H736 C749 0.930 . S
H737 C753 0.959 . S
H738 C753 0.959 . S
H739 C753 0.961 . S
H740 C754 0.960 . S
H741 C754 0.961 . S
H742 C754 0.959 . S
H743 C757 0.929 . S
H744 C758 0.931 . S
H745 C760 0.930 . S
C746 H734 0.930 . S
C746 C747 1.399 . S
C746 C751 1.399 . S
C747 C746 1.399 . S
C747 C748 1.378 . S
C748 H735 0.923 1_655 S
C748 C747 1.378 . S
C748 C749 1.393 . S
C749 H736 0.930 . S
C749 C748 1.393 . S
C749 C750 1.390 . S
C750 C749 1.390 . S
C750 C751 1.394 . S
C750 C756 1.465 . S
C751 C746 1.399 . S
C751 C750 1.394 . S
C751 C752 1.516 . S
C752 C751 1.516 . S
C752 C753 1.502 . S
C752 C754 1.561 . S
C752 C755 1.526 . S
C753 H737 0.959 . S
C753 H738 0.959 . S
C753 H739 0.961 . S
C753 C752 1.502 . S
C754 H740 0.960 . S
C754 H741 0.961 . S
C754 H742 0.959 . S
C754 C752 1.561 . S
C755 C752 1.526 . S
C755 C756 1.396 . S
C755 C760 1.390 . S
C756 C750 1.465 . S
C756 C755 1.396 . S
C756 C757 1.399 . S
C757 H743 0.929 . S
C757 C756 1.399 . S
C757 C758 1.385 . S
C758 H744 0.931 . S
C758 C757 1.385 . S
C758 C759 1.389 . S
C759 C758 1.389 . S
C759 C760 1.387 . S
C760 H745 0.930 . S
C760 C755 1.390 . S
C760 C759 1.387 . S
H761 C773 0.930 . S
H762 C775 0.930 . S
H763 C776 0.930 1_545 S
H764 C780 0.959 . S
H765 C780 0.959 . S
H766 C780 0.961 . S
H767 C781 0.960 . S
H768 C781 0.961 . S
H769 C781 0.959 . S
H770 C784 0.929 . S
H771 C785 0.931 . S
H772 C787 0.930 . S
C773 H761 0.930 . S
C773 C774 1.399 . S
C773 C778 1.399 . S
C774 C773 1.399 . S
C774 C775 1.376 1_565 S
C775 H762 0.930 . S
C775 C774 1.376 1_545 S
C775 C776 1.388 1_545 S
C776 H763 0.930 1_565 S
C776 C775 1.388 1_565 S
C776 C777 1.390 . S
C777 C776 1.390 . S
C777 C778 1.394 . S
C777 C783 1.465 . S
C778 C773 1.399 . S
C778 C777 1.394 . S
C778 C779 1.516 . S
C779 C778 1.516 . S
C779 C780 1.502 . S
C779 C781 1.561 . S
C779 C782 1.526 . S
C780 H764 0.959 . S
C780 H765 0.959 . S
C780 H766 0.961 . S
C780 C779 1.502 . S
C781 H767 0.960 . S
C781 H768 0.961 . S
C781 H769 0.959 . S
C781 C779 1.561 . S
C782 C779 1.526 . S
C782 C783 1.396 . S
C782 C787 1.390 . S
C783 C777 1.465 . S
C783 C782 1.396 . S
C783 C784 1.399 . S
C784 H770 0.929 . S
C784 C783 1.399 . S
C784 C785 1.385 . S
C785 H771 0.931 . S
C785 C784 1.385 . S
C785 C786 1.389 . S
C786 C785 1.389 . S
C786 C787 1.387 . S
C787 H772 0.930 . S
C787 C782 1.390 . S
C787 C786 1.387 . S
H788 C800 0.930 . S
H789 C802 0.930 . S
H790 C803 0.930 . S
H791 C807 0.959 . S
H792 C807 0.959 . S
H793 C807 0.961 . S
H794 C808 0.960 . S
H795 C808 0.961 . S
H796 C808 0.959 . S
H797 C811 0.929 . S
H798 C812 0.931 . S
H799 C814 0.930 . S
C800 H788 0.930 . S
C800 C801 1.399 . S
C800 C805 1.399 . S
C801 C800 1.399 . S
C801 C802 1.376 1_455 S
C802 H789 0.930 . S
C802 C801 1.376 1_655 S
C802 C803 1.388 . S
C803 H790 0.930 . S
C803 C802 1.388 . S
C803 C804 1.390 1_655 S
C804 C803 1.390 1_455 S
C804 C805 1.394 . S
C804 C810 1.465 . S
C805 C800 1.399 . S
C805 C804 1.394 . S
C805 C806 1.516 . S
C806 C805 1.516 . S
C806 C807 1.502 . S
C806 C808 1.561 . S
C806 C809 1.526 . S
C807 H791 0.959 . S
C807 H792 0.959 . S
C807 H793 0.961 . S
C807 C806 1.502 . S
C808 H794 0.960 . S
C808 H795 0.961 . S
C808 H796 0.959 . S
C808 C806 1.561 . S
C809 C806 1.526 . S
C809 C810 1.396 . S
C809 C814 1.390 . S
C810 C804 1.465 . S
C810 C809 1.396 . S
C810 C811 1.399 . S
C811 H797 0.929 . S
C811 C810 1.399 . S
C811 C812 1.385 . S
C812 H798 0.931 . S
C812 C811 1.385 . S
C812 C813 1.389 . S
C813 C812 1.389 . S
C813 C814 1.387 . S
C814 H799 0.930 . S
C814 C809 1.390 . S
C814 C813 1.387 . S
H815 C827 0.930 1_565 S
H816 C829 0.930 . S
H817 C830 0.930 . S
H818 C834 0.959 . S
H819 C834 0.959 . S
H820 C834 0.961 . S
H821 C835 0.960 . S
H822 C835 0.961 . S
H823 C835 0.959 . S
H824 C838 0.929 . S
H825 C839 0.931 . S
H826 C841 0.930 . S
C827 H815 0.930 1_545 S
C827 C828 1.399 . S
C827 C832 1.399 . S
C828 C827 1.399 . S
C828 C829 1.376 . S
C829 H816 0.930 . S
C829 C828 1.376 . S
C829 C830 1.388 . S
C830 H817 0.930 . S
C830 C829 1.388 . S
C830 C831 1.390 . S
C831 C830 1.390 . S
C831 C832 1.394 . S
C831 C837 1.465 . S
C832 C827 1.399 . S
C832 C831 1.394 . S
C832 C833 1.516 . S
C833 C832 1.516 . S
C833 C834 1.502 . S
C833 C835 1.561 1_545 S
C833 C836 1.526 . S
C834 H818 0.959 . S
C834 H819 0.959 . S
C834 H820 0.961 . S
C834 C833 1.502 . S
C835 H821 0.960 . S
C835 H822 0.961 . S
C835 H823 0.959 . S
C835 C833 1.561 1_565 S
C836 C833 1.526 . S
C836 C837 1.396 . S
C836 C841 1.390 . S
C837 C831 1.465 . S
C837 C836 1.396 . S
C837 C838 1.399 . S
C838 H824 0.929 . S
C838 C837 1.399 . S
C838 C839 1.385 . S
C839 H825 0.931 . S
C839 C838 1.385 . S
C839 C840 1.389 . S
C840 C839 1.389 . S
C840 C841 1.387 . S
C841 H826 0.930 . S
C841 C836 1.390 . S
C841 C840 1.387 . S
H842 C854 0.930 . S
H843 C856 0.930 . S
H844 C857 0.930 . S
H845 C861 0.959 . S
H846 C861 0.959 . S
H847 C861 0.961 . S
H848 C862 0.960 . S
H849 C862 0.961 . S
H850 C862 0.959 . S
H851 C865 0.929 . S
H852 C866 0.931 . S
H853 C868 0.930 . S
C854 H842 0.930 . S
C854 C855 1.399 . S
C854 C859 1.399 . S
C855 C854 1.399 . S
C855 C856 1.376 . S
C856 H843 0.930 . S
C856 C855 1.376 . S
C856 C857 1.388 . S
C857 H844 0.930 . S
C857 C856 1.388 . S
C857 C858 1.390 . S
C858 C857 1.390 . S
C858 C859 1.394 . S
C858 C864 1.465 . S
C859 C854 1.399 . S
C859 C858 1.394 . S
C859 C860 1.516 . S
C860 C859 1.516 . S
C860 C861 1.502 . S
C860 C862 1.561 . S
C860 C863 1.526 . S
C861 H845 0.959 . S
C861 H846 0.959 . S
C861 H847 0.961 . S
C861 C860 1.502 . S
C862 H848 0.960 . S
C862 H849 0.961 . S
C862 H850 0.959 . S
C862 C860 1.561 . S
C863 C860 1.526 . S
C863 C864 1.396 . S
C863 C868 1.390 . S
C864 C858 1.465 . S
C864 C863 1.396 . S
C864 C865 1.399 . S
C865 H851 0.929 . S
C865 C864 1.399 . S
C865 C866 1.385 . S
C866 H852 0.931 . S
C866 C865 1.385 . S
C866 C867 1.389 . S
C867 C866 1.389 . S
C867 C868 1.387 . S
C868 H853 0.930 . S
C868 C863 1.390 . S
C868 C867 1.387 . S
H869 C881 0.930 . S
H870 C883 0.930 . S
H871 C884 0.930 . S
H872 C888 0.959 . S
H873 C888 0.959 . S
H874 C888 0.961 . S
H875 C889 0.960 . S
H876 C889 0.961 . S
H877 C889 0.959 . S
H878 C892 0.929 . S
H879 C893 0.931 . S
H880 C895 0.930 . S
C881 H869 0.930 . S
C881 C882 1.399 . S
C881 C886 1.399 . S
C882 C881 1.399 . S
C882 C883 1.376 . S
C883 H870 0.930 . S
C883 C882 1.376 . S
C883 C884 1.388 . S
C884 H871 0.930 . S
C884 C883 1.388 . S
C884 C885 1.390 . S
C885 C884 1.390 . S
C885 C886 1.394 . S
C885 C891 1.465 . S
C886 C881 1.399 . S
C886 C885 1.394 . S
C886 C887 1.516 . S
C887 C886 1.516 . S
C887 C888 1.502 . S
C887 C889 1.561 . S
C887 C890 1.526 . S
C888 H872 0.959 . S
C888 H873 0.959 . S
C888 H874 0.961 . S
C888 C887 1.502 . S
C889 H875 0.960 . S
C889 H876 0.961 . S
C889 H877 0.959 . S
C889 C887 1.561 . S
C890 C887 1.526 . S
C890 C891 1.396 . S
C890 C895 1.390 . S
C891 C885 1.465 . S
C891 C890 1.396 . S
C891 C892 1.399 . S
C892 H878 0.929 . S
C892 C891 1.399 . S
C892 C893 1.385 . S
C893 H879 0.931 . S
C893 C892 1.385 . S
C893 C894 1.389 . S
C894 C893 1.389 . S
C894 C895 1.387 . S
C895 H880 0.930 . S
C895 C890 1.390 . S
C895 C894 1.387 . S
H896 C908 0.930 . S
H897 C910 0.930 . S
H898 C911 0.930 . S
H899 C915 0.959 . S
H900 C915 0.959 . S
H901 C915 0.961 . S
H902 C916 0.960 . S
H903 C916 0.961 . S
H904 C916 0.959 . S
H905 C919 0.929 . S
H906 C920 0.931 . S
H907 C922 0.930 . S
C908 H896 0.930 . S
C908 C909 1.399 . S
C908 C913 1.399 . S
C909 C908 1.399 . S
C909 C910 1.376 . S
C910 H897 0.930 . S
C910 C909 1.376 . S
C910 C911 1.388 . S
C911 H898 0.930 . S
C911 C910 1.388 . S
C911 C912 1.390 . S
C912 C911 1.390 . S
C912 C913 1.394 . S
C912 C918 1.465 . S
C913 C908 1.399 . S
C913 C912 1.394 . S
C913 C914 1.516 . S
C914 C913 1.516 . S
C914 C915 1.502 . S
C914 C916 1.561 . S
C914 C917 1.526 . S
C915 H899 0.959 . S
C915 H900 0.959 . S
C915 H901 0.961 . S
C915 C914 1.502 . S
C916 H902 0.960 . S
C916 H903 0.961 . S
C916 H904 0.959 . S
C916 C914 1.561 . S
C917 C914 1.526 . S
C917 C918 1.396 . S
C917 C922 1.390 . S
C918 C912 1.465 . S
C918 C917 1.396 . S
C918 C919 1.399 . S
C919 H905 0.929 . S
C919 C918 1.399 . S
C919 C920 1.385 . S
C920 H906 0.931 . S
C920 C919 1.385 . S
C920 C921 1.389 . S
C921 C920 1.389 . S
C921 C922 1.387 . S
C922 H907 0.930 . S
C922 C917 1.390 . S
C922 C921 1.387 . S
H923 C935 0.930 . S
H924 C937 0.930 . S
H925 C938 0.930 . S
H926 C942 0.959 . S
H927 C942 0.959 . S
H928 C942 0.961 . S
H929 C943 0.960 . S
H930 C943 0.961 . S
H931 C943 0.959 . S
H932 C946 0.929 . S
H933 C947 0.931 . S
H934 C949 0.930 . S
C935 H923 0.930 . S
C935 C936 1.399 . S
C935 C940 1.399 . S
C936 C935 1.399 . S
C936 C937 1.376 . S
C937 H924 0.930 . S
C937 C936 1.376 . S
C937 C938 1.388 . S
C938 H925 0.930 . S
C938 C937 1.388 . S
C938 C939 1.390 . S
C939 C938 1.390 . S
C939 C940 1.394 . S
C939 C945 1.465 . S
C940 C935 1.399 . S
C940 C939 1.394 . S
C940 C941 1.516 . S
C941 C940 1.516 . S
C941 C942 1.502 . S
C941 C943 1.561 . S
C941 C944 1.526 . S
C942 H926 0.959 . S
C942 H927 0.959 . S
C942 H928 0.961 . S
C942 C941 1.502 . S
C943 H929 0.960 . S
C943 H930 0.961 . S
C943 H931 0.959 . S
C943 C941 1.561 . S
C944 C941 1.526 . S
C944 C945 1.396 . S
C944 C949 1.390 . S
C945 C939 1.465 . S
C945 C944 1.396 . S
C945 C946 1.399 . S
C946 H932 0.929 . S
C946 C945 1.399 . S
C946 C947 1.385 . S
C947 H933 0.931 . S
C947 C946 1.385 . S
C947 C948 1.389 . S
C948 C947 1.389 . S
C948 C949 1.387 . S
C949 H934 0.930 . S
C949 C944 1.390 . S
C949 C948 1.387 . S
H950 C962 0.930 . S
H951 C964 0.930 . S
H952 C965 0.930 . S
H953 C969 0.959 . S
H954 C969 0.959 . S
H955 C969 0.961 . S
H956 C970 0.960 . S
H957 C970 0.961 . S
H958 C970 0.959 . S
H959 C973 0.929 . S
H960 C974 0.931 . S
H961 C976 0.930 . S
C962 H950 0.930 . S
C962 C963 1.399 . S
C962 C967 1.399 . S
C963 C962 1.399 . S
C963 C964 1.376 1_455 S
C964 H951 0.930 . S
C964 C963 1.376 1_655 S
C964 C965 1.388 . S
C965 H952 0.930 . S
C965 C964 1.388 . S
C965 C966 1.390 1_655 S
C966 C965 1.390 1_455 S
C966 C967 1.394 . S
C966 C972 1.465 . S
C967 C962 1.399 . S
C967 C966 1.394 . S
C967 C968 1.516 . S
C968 C967 1.516 . S
C968 C969 1.502 . S
C968 C970 1.561 . S
C968 C971 1.526 . S
C969 H953 0.959 . S
C969 H954 0.959 . S
C969 H955 0.961 . S
C969 C968 1.502 . S
C970 H956 0.960 . S
C970 H957 0.961 . S
C970 H958 0.959 . S
C970 C968 1.561 . S
C971 C968 1.526 . S
C971 C972 1.396 . S
C971 C976 1.390 . S
C972 C966 1.465 . S
C972 C971 1.396 . S
C972 C973 1.399 . S
C973 H959 0.929 . S
C973 C972 1.399 . S
C973 C974 1.385 . S
C974 H960 0.931 . S
C974 C973 1.385 . S
C974 C975 1.389 . S
C975 C974 1.389 . S
C975 C976 1.387 . S
C976 H961 0.930 . S
C976 C971 1.390 . S
C976 C975 1.387 . S
H977 C989 0.930 . S
H978 C991 0.930 . S
H979 C992 0.930 . S
H980 C996 0.959 . S
H981 C996 0.959 . S
H982 C996 0.961 . S
H983 C997 0.960 . S
H984 C997 0.961 . S
H985 C997 0.959 . S
H986 C1000 0.929 . S
H987 C1001 0.931 . S
H988 C1003 0.930 . S
C989 H977 0.930 . S
C989 C990 1.399 . S
C989 C994 1.399 . S
C990 C989 1.399 . S
C990 C991 1.376 1_545 S
C991 H978 0.930 . S
C991 C990 1.376 1_565 S
C991 C992 1.388 . S
C992 H979 0.930 . S
C992 C991 1.388 . S
C992 C993 1.390 1_565 S
C993 C992 1.390 1_545 S
C993 C994 1.394 . S
C993 C999 1.465 . S
C994 C989 1.399 . S
C994 C993 1.394 . S
C994 C995 1.516 . S
C995 C994 1.516 . S
C995 C996 1.502 . S
C995 C997 1.561 . S
C995 C998 1.526 . S
C996 H980 0.959 . S
C996 H981 0.959 . S
C996 H982 0.961 . S
C996 C995 1.502 . S
C997 H983 0.960 . S
C997 H984 0.961 . S
C997 H985 0.959 . S
C997 C995 1.561 . S
C998 C995 1.526 . S
C998 C999 1.396 . S
C998 C1003 1.390 . S
C999 C993 1.465 . S
C999 C998 1.396 . S
C999 C1000 1.399 . S
C1000 H986 0.929 . S
C1000 C999 1.399 . S
C1000 C1001 1.385 . S
C1001 H987 0.931 . S
C1001 C1000 1.385 . S
C1001 C1002 1.389 . S
C1002 C1001 1.389 . S
C1002 C1003 1.387 . S
C1003 H988 0.930 . S
C1003 C998 1.390 . S
C1003 C1002 1.387 . S
H1004 C1016 0.930 . S
H1005 C1018 0.930 . S
H1006 C1019 0.930 . S
H1007 C1023 0.959 . S
H1008 C1023 0.959 . S
H1009 C1023 0.961 . S
H1010 C1024 0.960 . S
H1011 C1024 0.961 . S
H1012 C1024 0.959 . S
H1013 C1027 0.929 . S
H1014 C1028 0.931 . S
H1015 C1030 0.930 . S
C1016 H1004 0.930 . S
C1016 C1017 1.399 . S
C1016 C1021 1.399 . S
C1017 C1016 1.399 . S
C1017 C1018 1.376 1_655 S
C1018 H1005 0.930 . S
C1018 C1017 1.376 1_455 S
C1018 C1019 1.388 . S
C1019 H1006 0.930 . S
C1019 C1018 1.388 . S
C1019 C1020 1.390 1_455 S
C1020 C1019 1.390 1_655 S
C1020 C1021 1.394 . S
C1020 C1026 1.465 . S
C1021 C1016 1.399 . S
C1021 C1020 1.394 . S
C1021 C1022 1.516 . S
C1022 C1021 1.516 . S
C1022 C1023 1.502 . S
C1022 C1024 1.561 . S
C1022 C1025 1.526 . S
C1023 H1007 0.959 . S
C1023 H1008 0.959 . S
C1023 H1009 0.961 . S
C1023 C1022 1.502 . S
C1024 H1010 0.960 . S
C1024 H1011 0.961 . S
C1024 H1012 0.959 . S
C1024 C1022 1.561 . S
C1025 C1022 1.526 . S
C1025 C1026 1.396 . S
C1025 C1030 1.390 . S
C1026 C1020 1.465 . S
C1026 C1025 1.396 . S
C1026 C1027 1.399 . S
C1027 H1013 0.929 . S
C1027 C1026 1.399 . S
C1027 C1028 1.385 . S
C1028 H1014 0.931 . S
C1028 C1027 1.385 . S
C1028 C1029 1.389 . S
C1029 C1028 1.389 . S
C1029 C1030 1.387 . S
C1030 H1015 0.930 . S
C1030 C1025 1.390 . S
C1030 C1029 1.387 . S
H1031 C1043 0.930 . S
H1032 C1045 0.930 . S
H1033 C1046 0.930 . S
H1034 C1050 0.959 . S
H1035 C1050 0.959 . S
H1036 C1050 0.961 . S
H1037 C1051 0.960 . S
H1038 C1051 0.961 . S
H1039 C1051 0.959 1_565 S
H1040 C1054 0.929 . S
H1041 C1055 0.931 . S
H1042 C1057 0.930 . S
C1043 H1031 0.930 . S
C1043 C1044 1.399 1_545 S
C1043 C1048 1.399 1_545 S
C1044 C1043 1.399 1_565 S
C1044 C1045 1.376 . S
C1045 H1032 0.930 . S
C1045 C1044 1.376 . S
C1045 C1046 1.388 . S
C1046 H1033 0.930 . S
C1046 C1045 1.388 . S
C1046 C1047 1.390 . S
C1047 C1046 1.390 . S
C1047 C1048 1.394 . S
C1047 C1053 1.465 . S
C1048 C1043 1.399 1_565 S
C1048 C1047 1.394 . S
C1048 C1049 1.516 . S
C1049 C1048 1.516 . S
C1049 C1050 1.502 1_565 S
C1049 C1051 1.561 1_565 S
C1049 C1052 1.526 . S
C1050 H1034 0.959 . S
C1050 H1035 0.959 . S
C1050 H1036 0.961 . S
C1050 C1049 1.502 1_545 S
C1051 H1037 0.960 . S
C1051 H1038 0.961 . S
C1051 H1039 0.959 1_545 S
C1051 C1049 1.561 1_545 S
C1052 C1049 1.526 . S
C1052 C1053 1.396 . S
C1052 C1057 1.390 . S
C1053 C1047 1.465 . S
C1053 C1052 1.396 . S
C1053 C1054 1.399 . S
C1054 H1040 0.929 . S
C1054 C1053 1.399 . S
C1054 C1055 1.385 . S
C1055 H1041 0.931 . S
C1055 C1054 1.385 . S
C1055 C1056 1.389 . S
C1056 C1055 1.389 . S
C1056 C1057 1.387 . S
C1057 H1042 0.930 . S
C1057 C1052 1.390 . S
C1057 C1056 1.387 . S
H1058 C1070 0.930 . S
H1059 C1072 0.930 . S
H1060 C1073 0.930 . S
H1061 C1077 0.959 . S
H1062 C1077 0.959 . S
H1063 C1077 0.961 . S
H1064 C1078 0.960 . S
H1065 C1078 0.961 . S
H1066 C1078 0.959 . S
H1067 C1081 0.929 . S
H1068 C1082 0.931 . S
H1069 C1084 0.930 . S
C1070 H1058 0.930 . S
C1070 C1071 1.399 . S
C1070 C1075 1.399 . S
C1071 C1070 1.399 . S
C1071 C1072 1.376 . S
C1072 H1059 0.930 . S
C1072 C1071 1.376 . S
C1072 C1073 1.388 . S
C1073 H1060 0.930 . S
C1073 C1072 1.388 . S
C1073 C1074 1.390 . S
C1074 C1073 1.390 . S
C1074 C1075 1.394 . S
C1074 C1080 1.465 . S
C1075 C1070 1.399 . S
C1075 C1074 1.394 . S
C1075 C1076 1.516 . S
C1076 C1075 1.516 . S
C1076 C1077 1.502 . S
C1076 C1078 1.561 . S
C1076 C1079 1.526 . S
C1077 H1061 0.959 . S
C1077 H1062 0.959 . S
C1077 H1063 0.961 . S
C1077 C1076 1.502 . S
C1078 H1064 0.960 . S
C1078 H1065 0.961 . S
C1078 H1066 0.959 . S
C1078 C1076 1.561 . S
C1079 C1076 1.526 . S
C1079 C1080 1.396 . S
C1079 C1084 1.390 . S
C1080 C1074 1.465 . S
C1080 C1079 1.396 . S
C1080 C1081 1.399 . S
C1081 H1067 0.929 . S
C1081 C1080 1.399 . S
C1081 C1082 1.385 . S
C1082 H1068 0.931 . S
C1082 C1081 1.385 . S
C1082 C1083 1.389 . S
C1083 C1082 1.389 . S
C1083 C1084 1.387 . S
C1084 H1069 0.930 . S
C1084 C1079 1.390 . S
C1084 C1083 1.387 . S
H1085 C1097 0.930 . S
H1086 C1099 0.930 . S
H1087 C1100 0.930 . S
H1088 C1104 0.959 . S
H1089 C1104 0.959 . S
H1090 C1104 0.961 . S
H1091 C1105 0.960 . S
H1092 C1105 0.961 . S
H1093 C1105 0.959 . S
H1094 C1108 0.929 . S
H1095 C1109 0.931 . S
H1096 C1111 0.930 . S
C1097 H1085 0.930 . S
C1097 C1098 1.399 . S
C1097 C1102 1.399 . S
C1098 C1097 1.399 . S
C1098 C1099 1.376 . S
C1099 H1086 0.930 . S
C1099 C1098 1.376 . S
C1099 C1100 1.388 . S
C1100 H1087 0.930 . S
C1100 C1099 1.388 . S
C1100 C1101 1.390 . S
C1101 C1100 1.390 . S
C1101 C1102 1.394 . S
C1101 C1107 1.465 . S
C1102 C1097 1.399 . S
C1102 C1101 1.394 . S
C1102 C1103 1.516 . S
C1103 C1102 1.516 . S
C1103 C1104 1.502 . S
C1103 C1105 1.561 . S
C1103 C1106 1.526 . S
C1104 H1088 0.959 . S
C1104 H1089 0.959 . S
C1104 H1090 0.961 . S
C1104 C1103 1.502 . S
C1105 H1091 0.960 . S
C1105 H1092 0.961 . S
C1105 H1093 0.959 . S
C1105 C1103 1.561 . S
C1106 C1103 1.526 . S
C1106 C1107 1.396 . S
C1106 C1111 1.390 . S
C1107 C1101 1.465 . S
C1107 C1106 1.396 . S
C1107 C1108 1.399 . S
C1108 H1094 0.929 . S
C1108 C1107 1.399 . S
C1108 C1109 1.385 . S
C1109 H1095 0.931 . S
C1109 C1108 1.385 . S
C1109 C1110 1.389 . S
C1110 C1109 1.389 . S
C1110 C1111 1.387 . S
C1111 H1096 0.930 . S
C1111 C1106 1.390 . S
C1111 C1110 1.387 . S
H1112 C1124 0.930 . S
H1113 C1126 0.930 . S
H1114 C1127 0.930 . S
H1115 C1131 0.951 1_556 S
H1116 C1131 0.969 . S
H1117 C1131 0.956 1_556 S
H1118 C1132 0.960 . S
H1119 C1132 0.961 . S
H1120 C1132 0.959 . S
H1121 C1135 0.929 1_556 S
H1122 C1136 0.931 . S
H1123 C1138 0.930 . S
C1124 H1112 0.930 . S
C1124 C1125 1.399 . S
C1124 C1129 1.399 . S
C1125 C1124 1.399 . S
C1125 C1126 1.376 . S
C1126 H1113 0.930 . S
C1126 C1125 1.376 . S
C1126 C1127 1.388 . S
C1127 H1114 0.930 . S
C1127 C1126 1.388 . S
C1127 C1128 1.390 . S
C1128 C1127 1.390 . S
C1128 C1129 1.394 . S
C1128 C1134 1.465 1_556 S
C1129 C1124 1.399 . S
C1129 C1128 1.394 . S
C1129 C1130 1.516 1_556 S
C1130 C1129 1.516 1_554 S
C1130 C1131 1.505 . S
C1130 C1132 1.561 . S
C1130 C1133 1.526 . S
C1131 H1115 0.951 1_554 S
C1131 H1116 0.969 . S
C1131 H1117 0.956 1_554 S
C1131 C1130 1.505 . S
C1132 H1118 0.960 . S
C1132 H1119 0.961 . S
C1132 H1120 0.959 . S
C1132 C1130 1.561 . S
C1133 C1130 1.526 . S
C1133 C1134 1.396 . S
C1133 C1138 1.390 . S
C1134 C1128 1.465 1_554 S
C1134 C1133 1.396 . S
C1134 C1135 1.399 . S
C1135 H1121 0.929 1_554 S
C1135 C1134 1.399 . S
C1135 C1136 1.385 . S
C1136 H1122 0.931 . S
C1136 C1135 1.385 . S
C1136 C1137 1.389 . S
C1137 C1136 1.389 . S
C1137 C1138 1.387 . S
C1138 H1123 0.930 . S
C1138 C1133 1.390 . S
C1138 C1137 1.387 . S
H1139 C1151 0.930 . S
H1140 C1153 0.930 . S
H1141 C1154 0.930 . S
H1142 C1158 0.959 . S
H1143 C1158 0.959 . S
H1144 C1158 0.961 . S
H1145 C1159 0.960 . S
H1146 C1159 0.961 . S
H1147 C1159 0.959 . S
H1148 C1162 0.929 . S
H1149 C1163 0.931 . S
H1150 C1165 0.930 . S
C1151 H1139 0.930 . S
C1151 C1152 1.399 . S
C1151 C1156 1.399 . S
C1152 C1151 1.399 . S
C1152 C1153 1.376 . S
C1153 H1140 0.930 . S
C1153 C1152 1.376 . S
C1153 C1154 1.388 . S
C1154 H1141 0.930 . S
C1154 C1153 1.388 . S
C1154 C1155 1.390 . S
C1155 C1154 1.390 . S
C1155 C1156 1.394 . S
C1155 C1161 1.465 . S
C1156 C1151 1.399 . S
C1156 C1155 1.394 . S
C1156 C1157 1.516 1_556 S
C1157 C1156 1.516 1_554 S
C1157 C1158 1.502 . S
C1157 C1159 1.561 . S
C1157 C1160 1.526 . S
C1158 H1142 0.959 . S
C1158 H1143 0.959 . S
C1158 H1144 0.961 . S
C1158 C1157 1.502 . S
C1159 H1145 0.960 . S
C1159 H1146 0.961 . S
C1159 H1147 0.959 . S
C1159 C1157 1.561 . S
C1160 C1157 1.526 . S
C1160 C1161 1.396 1_554 S
C1160 C1165 1.390 . S
C1161 C1155 1.465 . S
C1161 C1160 1.396 1_556 S
C1161 C1162 1.399 . S
C1162 H1148 0.929 . S
C1162 C1161 1.399 . S
C1162 C1163 1.385 1_556 S
C1163 H1149 0.931 . S
C1163 C1162 1.385 1_554 S
C1163 C1164 1.389 . S
C1164 C1163 1.389 . S
C1164 C1165 1.387 . S
C1165 H1150 0.930 . S
C1165 C1160 1.390 . S
C1165 C1164 1.387 . S
H1166 C1178 0.930 . S
H1167 C1180 0.930 . S
H1168 C1181 0.930 . S
H1169 C1185 0.959 1_554 S
H1170 C1185 0.959 . S
H1171 C1185 0.961 . S
H1172 C1186 0.960 . S
H1173 C1186 0.961 . S
H1174 C1186 0.959 . S
H1175 C1189 0.929 . S
H1176 C1190 0.931 . S
H1177 C1192 0.930 . S
C1178 H1166 0.930 . S
C1178 C1179 1.399 . S
C1178 C1183 1.399 . S
C1179 C1178 1.399 . S
C1179 C1180 1.376 . S
C1180 H1167 0.930 . S
C1180 C1179 1.376 . S
C1180 C1181 1.388 . S
C1181 H1168 0.930 . S
C1181 C1180 1.388 . S
C1181 C1182 1.390 . S
C1182 C1181 1.390 . S
C1182 C1183 1.394 . S
C1182 C1188 1.465 1_556 S
C1183 C1178 1.399 . S
C1183 C1182 1.394 . S
C1183 C1184 1.516 . S
C1184 C1183 1.516 . S
C1184 C1185 1.502 . S
C1184 C1186 1.561 . S
C1184 C1187 1.526 1_556 S
C1185 H1169 0.959 1_556 S
C1185 H1170 0.959 . S
C1185 H1171 0.961 . S
C1185 C1184 1.502 . S
C1186 H1172 0.960 . S
C1186 H1173 0.961 . S
C1186 H1174 0.959 . S
C1186 C1184 1.561 . S
C1187 C1184 1.526 1_554 S
C1187 C1188 1.396 . S
C1187 C1192 1.390 . S
C1188 C1182 1.465 1_554 S
C1188 C1187 1.396 . S
C1188 C1189 1.399 . S
C1189 H1175 0.929 . S
C1189 C1188 1.399 . S
C1189 C1190 1.385 . S
C1190 H1176 0.931 . S
C1190 C1189 1.385 . S
C1190 C1191 1.389 . S
C1191 C1190 1.389 . S
C1191 C1192 1.387 . S
C1192 H1177 0.930 . S
C1192 C1187 1.390 . S
C1192 C1191 1.387 . S
H1193 C1205 0.930 . S
H1194 C1207 0.930 . S
H1195 C1208 0.930 . S
H1196 C1212 0.959 . S
H1197 C1212 0.959 . S
H1198 C1212 0.961 . S
H1199 C1213 0.960 1_556 S
H1200 C1213 0.961 . S
H1201 C1213 0.959 . S
H1202 C1216 0.929 . S
H1203 C1217 0.931 . S
H1204 C1219 0.930 . S
C1205 H1193 0.930 . S
C1205 C1206 1.399 . S
C1205 C1210 1.399 . S
C1206 C1205 1.399 . S
C1206 C1207 1.376 . S
C1207 H1194 0.930 . S
C1207 C1206 1.376 . S
C1207 C1208 1.388 . S
C1208 H1195 0.930 . S
C1208 C1207 1.388 . S
C1208 C1209 1.390 . S
C1209 C1208 1.390 . S
C1209 C1210 1.394 . S
C1209 C1215 1.465 1_556 S
C1210 C1205 1.399 . S
C1210 C1209 1.394 . S
C1210 C1211 1.516 . S
C1211 C1210 1.516 . S
C1211 C1212 1.502 . S
C1211 C1213 1.561 1_556 S
C1211 C1214 1.526 1_556 S
C1212 H1196 0.959 . S
C1212 H1197 0.959 . S
C1212 H1198 0.961 . S
C1212 C1211 1.502 . S
C1213 H1199 0.960 1_554 S
C1213 H1200 0.961 . S
C1213 H1201 0.959 . S
C1213 C1211 1.561 1_554 S
C1214 C1211 1.526 1_554 S
C1214 C1215 1.396 . S
C1214 C1219 1.390 . S
C1215 C1209 1.465 1_554 S
C1215 C1214 1.396 . S
C1215 C1216 1.399 . S
C1216 H1202 0.929 . S
C1216 C1215 1.399 . S
C1216 C1217 1.385 . S
C1217 H1203 0.931 . S
C1217 C1216 1.385 . S
C1217 C1218 1.389 . S
C1218 C1217 1.389 . S
C1218 C1219 1.387 . S
C1219 H1204 0.930 . S
C1219 C1214 1.390 . S
C1219 C1218 1.387 . S
H1220 C1232 0.930 . S
H1221 C1234 0.930 . S
H1222 C1235 0.930 . S
H1223 C1239 0.959 . S
H1224 C1239 0.959 . S
H1225 C1239 0.961 . S
H1226 C1240 0.960 . S
H1227 C1240 0.961 . S
H1228 C1240 0.959 . S
H1229 C1243 0.929 . S
H1230 C1244 0.931 . S
H1231 C1246 0.930 . S
C1232 H1220 0.930 . S
C1232 C1233 1.399 . S
C1232 C1237 1.399 . S
C1233 C1232 1.399 . S
C1233 C1234 1.376 . S
C1234 H1221 0.930 . S
C1234 C1233 1.376 . S
C1234 C1235 1.388 . S
C1235 H1222 0.930 . S
C1235 C1234 1.388 . S
C1235 C1236 1.390 . S
C1236 C1235 1.390 . S
C1236 C1237 1.394 . S
C1236 C1242 1.465 . S
C1237 C1232 1.399 . S
C1237 C1236 1.394 . S
C1237 C1238 1.516 . S
C1238 C1237 1.516 . S
C1238 C1239 1.502 . S
C1238 C1240 1.561 . S
C1238 C1241 1.526 . S
C1239 H1223 0.959 . S
C1239 H1224 0.959 . S
C1239 H1225 0.961 . S
C1239 C1238 1.502 . S
C1240 H1226 0.960 . S
C1240 H1227 0.961 . S
C1240 H1228 0.959 . S
C1240 C1238 1.561 . S
C1241 C1238 1.526 . S
C1241 C1242 1.396 . S
C1241 C1246 1.390 . S
C1242 C1236 1.465 . S
C1242 C1241 1.396 . S
C1242 C1243 1.399 . S
C1243 H1229 0.929 . S
C1243 C1242 1.399 . S
C1243 C1244 1.385 . S
C1244 H1230 0.931 . S
C1244 C1243 1.385 . S
C1244 C1245 1.389 . S
C1245 C1244 1.389 . S
C1245 C1246 1.387 . S
C1246 H1231 0.930 . S
C1246 C1241 1.390 . S
C1246 C1245 1.387 . S
H1247 C1259 0.930 . S
H1248 C1261 0.930 . S
H1249 C1262 0.930 . S
H1250 C1266 0.959 . S
H1251 C1266 0.959 . S
H1252 C1266 0.961 . S
H1253 C1267 0.960 . S
H1254 C1267 0.961 . S
H1255 C1267 0.959 . S
H1256 C1270 0.929 . S
H1257 C1271 0.931 . S
H1258 C1273 0.930 . S
C1259 H1247 0.930 . S
C1259 C1260 1.399 . S
C1259 C1264 1.399 . S
C1260 C1259 1.399 . S
C1260 C1261 1.376 . S
C1261 H1248 0.930 . S
C1261 C1260 1.376 . S
C1261 C1262 1.388 . S
C1262 H1249 0.930 . S
C1262 C1261 1.388 . S
C1262 C1263 1.390 . S
C1263 C1262 1.390 . S
C1263 C1264 1.394 . S
C1263 C1269 1.465 . S
C1264 C1259 1.399 . S
C1264 C1263 1.394 . S
C1264 C1265 1.516 . S
C1265 C1264 1.516 . S
C1265 C1266 1.502 . S
C1265 C1267 1.561 . S
C1265 C1268 1.526 . S
C1266 H1250 0.959 . S
C1266 H1251 0.959 . S
C1266 H1252 0.961 . S
C1266 C1265 1.502 . S
C1267 H1253 0.960 . S
C1267 H1254 0.961 . S
C1267 H1255 0.959 . S
C1267 C1265 1.561 . S
C1268 C1265 1.526 . S
C1268 C1269 1.396 . S
C1268 C1273 1.390 . S
C1269 C1263 1.465 . S
C1269 C1268 1.396 . S
C1269 C1270 1.399 . S
C1270 H1256 0.929 . S
C1270 C1269 1.399 . S
C1270 C1271 1.385 . S
C1271 H1257 0.931 . S
C1271 C1270 1.385 . S
C1271 C1272 1.389 . S
C1272 C1271 1.389 . S
C1272 C1273 1.387 . S
C1273 H1258 0.930 . S
C1273 C1268 1.390 . S
C1273 C1272 1.387 . S
H1274 C1286 0.930 . S
H1275 C1288 0.930 . S
H1276 C1289 0.930 . S
H1277 C1293 0.959 . S
H1278 C1293 0.959 . S
H1279 C1293 0.961 . S
H1280 C1294 0.960 . S
H1281 C1294 0.961 . S
H1282 C1294 0.959 . S
H1283 C1297 0.929 . S
H1284 C1298 0.931 . S
H1285 C1300 0.930 . S
C1286 H1274 0.930 . S
C1286 C1287 1.399 . S
C1286 C1291 1.399 . S
C1287 C1286 1.399 . S
C1287 C1288 1.376 . S
C1288 H1275 0.930 . S
C1288 C1287 1.376 . S
C1288 C1289 1.388 . S
C1289 H1276 0.930 . S
C1289 C1288 1.388 . S
C1289 C1290 1.390 . S
C1290 C1289 1.390 . S
C1290 C1291 1.394 . S
C1290 C1296 1.465 . S
C1291 C1286 1.399 . S
C1291 C1290 1.394 . S
C1291 C1292 1.516 . S
C1292 C1291 1.516 . S
C1292 C1293 1.502 . S
C1292 C1294 1.561 . S
C1292 C1295 1.526 . S
C1293 H1277 0.959 . S
C1293 H1278 0.959 . S
C1293 H1279 0.961 . S
C1293 C1292 1.502 . S
C1294 H1280 0.960 . S
C1294 H1281 0.961 . S
C1294 H1282 0.959 . S
C1294 C1292 1.561 . S
C1295 C1292 1.526 . S
C1295 C1296 1.396 . S
C1295 C1300 1.390 . S
C1296 C1290 1.465 . S
C1296 C1295 1.396 . S
C1296 C1297 1.399 . S
C1297 H1283 0.929 . S
C1297 C1296 1.399 . S
C1297 C1298 1.385 . S
C1298 H1284 0.931 . S
C1298 C1297 1.385 . S
C1298 C1299 1.389 . S
C1299 C1298 1.389 . S
C1299 C1300 1.387 . S
C1300 H1285 0.930 . S
C1300 C1295 1.390 . S
C1300 C1299 1.387 . S
H1301 C1313 0.930 . S
H1302 C1315 0.930 . S
H1303 C1316 0.930 . S
H1304 C1320 0.959 . S
H1305 C1320 0.959 . S
H1306 C1320 0.961 . S
H1307 C1321 0.960 . S
H1308 C1321 0.961 . S
H1309 C1321 0.959 . S
H1310 C1324 0.929 . S
H1311 C1325 0.931 . S
H1312 C1327 0.930 . S
C1313 H1301 0.930 . S
C1313 C1314 1.399 . S
C1313 C1318 1.399 . S
C1314 C1313 1.399 . S
C1314 C1315 1.376 . S
C1315 H1302 0.930 . S
C1315 C1314 1.376 . S
C1315 C1316 1.388 . S
C1316 H1303 0.930 . S
C1316 C1315 1.388 . S
C1316 C1317 1.390 . S
C1317 C1316 1.390 . S
C1317 C1318 1.394 . S
C1317 C1323 1.465 . S
C1318 C1313 1.399 . S
C1318 C1317 1.394 . S
C1318 C1319 1.516 . S
C1319 C1318 1.516 . S
C1319 C1320 1.502 . S
C1319 C1321 1.561 . S
C1319 C1322 1.526 . S
C1320 H1304 0.959 . S
C1320 H1305 0.959 . S
C1320 H1306 0.961 . S
C1320 C1319 1.502 . S
C1321 H1307 0.960 . S
C1321 H1308 0.961 . S
C1321 H1309 0.959 . S
C1321 C1319 1.561 . S
C1322 C1319 1.526 . S
C1322 C1323 1.396 . S
C1322 C1327 1.390 . S
C1323 C1317 1.465 . S
C1323 C1322 1.396 . S
C1323 C1324 1.399 . S
C1324 H1310 0.929 . S
C1324 C1323 1.399 . S
C1324 C1325 1.385 . S
C1325 H1311 0.931 . S
C1325 C1324 1.385 . S
C1325 C1326 1.389 . S
C1326 C1325 1.389 . S
C1326 C1327 1.387 . S
C1327 H1312 0.930 . S
C1327 C1322 1.390 . S
C1327 C1326 1.387 . S
H1328 C1340 0.930 . S
H1329 C1342 0.930 . S
H1330 C1343 0.930 . S
H1331 C1347 0.959 . S
H1332 C1347 0.959 . S
H1333 C1347 0.961 . S
H1334 C1348 0.960 . S
H1335 C1348 0.961 . S
H1336 C1348 0.959 . S
H1337 C1351 0.929 1_556 S
H1338 C1352 0.931 . S
H1339 C1354 0.930 . S
C1340 H1328 0.930 . S
C1340 C1341 1.399 . S
C1340 C1345 1.399 . S
C1341 C1340 1.399 . S
C1341 C1342 1.376 . S
C1342 H1329 0.930 . S
C1342 C1341 1.376 . S
C1342 C1343 1.388 . S
C1343 H1330 0.930 . S
C1343 C1342 1.388 . S
C1343 C1344 1.390 . S
C1344 C1343 1.390 . S
C1344 C1345 1.394 . S
C1344 C1350 1.465 1_556 S
C1345 C1340 1.399 . S
C1345 C1344 1.394 . S
C1345 C1346 1.516 1_556 S
C1346 C1345 1.516 1_554 S
C1346 C1347 1.502 . S
C1346 C1348 1.561 . S
C1346 C1349 1.526 . S
C1347 H1331 0.959 . S
C1347 H1332 0.959 . S
C1347 H1333 0.961 . S
C1347 C1346 1.502 . S
C1348 H1334 0.960 . S
C1348 H1335 0.961 . S
C1348 H1336 0.959 . S
C1348 C1346 1.561 . S
C1349 C1346 1.526 . S
C1349 C1350 1.396 . S
C1349 C1354 1.390 . S
C1350 C1344 1.465 1_554 S
C1350 C1349 1.396 . S
C1350 C1351 1.399 . S
C1351 H1337 0.929 1_554 S
C1351 C1350 1.399 . S
C1351 C1352 1.385 . S
C1352 H1338 0.931 . S
C1352 C1351 1.385 . S
C1352 C1353 1.389 . S
C1353 C1352 1.389 . S
C1353 C1354 1.387 . S
C1354 H1339 0.930 . S
C1354 C1349 1.390 . S
C1354 C1353 1.387 . S
H1355 C1367 0.930 . S
H1356 C1369 0.930 . S
H1357 C1370 0.930 . S
H1358 C1374 0.959 . S
H1359 C1374 0.959 . S
H1360 C1374 0.961 . S
H1361 C1375 0.960 . S
H1362 C1375 0.961 . S
H1363 C1375 0.959 . S
H1364 C1378 0.929 1_556 S
H1365 C1379 0.931 . S
H1366 C1381 0.930 . S
C1367 H1355 0.930 . S
C1367 C1368 1.399 . S
C1367 C1372 1.415 . S
C1368 C1367 1.399 . S
C1368 C1369 1.376 . S
C1369 H1356 0.930 . S
C1369 C1368 1.376 . S
C1369 C1370 1.388 . S
C1370 H1357 0.930 . S
C1370 C1369 1.388 . S
C1370 C1371 1.390 . S
C1371 C1370 1.390 . S
C1371 C1372 1.409 . S
C1371 C1377 1.465 1_556 S
C1372 C1367 1.415 . S
C1372 C1371 1.409 . S
C1372 C1373 1.486 1_556 S
C1373 C1372 1.486 1_554 S
C1373 C1374 1.502 . S
C1373 C1375 1.561 . S
C1373 C1376 1.526 . S
C1374 H1358 0.959 . S
C1374 H1359 0.959 . S
C1374 H1360 0.961 . S
C1374 C1373 1.502 . S
C1375 H1361 0.960 . S
C1375 H1362 0.961 . S
C1375 H1363 0.959 . S
C1375 C1373 1.561 . S
C1376 C1373 1.526 . S
C1376 C1377 1.396 . S
C1376 C1381 1.390 . S
C1377 C1371 1.465 1_554 S
C1377 C1376 1.396 . S
C1377 C1378 1.399 . S
C1378 H1364 0.929 1_554 S
C1378 C1377 1.399 . S
C1378 C1379 1.385 . S
C1379 H1365 0.931 . S
C1379 C1378 1.385 . S
C1379 C1380 1.389 . S
C1380 C1379 1.389 . S
C1380 C1381 1.387 . S
C1381 H1366 0.930 . S
C1381 C1376 1.390 . S
C1381 C1380 1.387 . S
H1382 C1394 0.930 . S
H1383 C1396 0.930 . S
H1384 C1397 0.930 . S
H1385 C1401 0.959 . S
H1386 C1401 0.959 . S
H1387 C1401 0.961 . S
H1388 C1402 0.960 . S
H1389 C1402 0.961 . S
H1390 C1402 0.959 . S
H1391 C1405 0.929 1_556 S
H1392 C1406 0.931 . S
H1393 C1408 0.930 . S
C1394 H1382 0.930 . S
C1394 C1395 1.399 . S
C1394 C1399 1.399 . S
C1395 C1394 1.399 . S
C1395 C1396 1.376 . S
C1396 H1383 0.930 . S
C1396 C1395 1.376 . S
C1396 C1397 1.388 . S
C1397 H1384 0.930 . S
C1397 C1396 1.388 . S
C1397 C1398 1.390 . S
C1398 C1397 1.390 . S
C1398 C1399 1.394 . S
C1398 C1404 1.465 1_556 S
C1399 C1394 1.399 . S
C1399 C1398 1.394 . S
C1399 C1400 1.516 1_556 S
C1400 C1399 1.516 1_554 S
C1400 C1401 1.502 . S
C1400 C1402 1.561 . S
C1400 C1403 1.526 . S
C1401 H1385 0.959 . S
C1401 H1386 0.959 . S
C1401 H1387 0.961 . S
C1401 C1400 1.502 . S
C1402 H1388 0.960 . S
C1402 H1389 0.961 . S
C1402 H1390 0.959 . S
C1402 C1400 1.561 . S
C1403 C1400 1.526 . S
C1403 C1404 1.396 . S
C1403 C1408 1.390 . S
C1404 C1398 1.465 1_554 S
C1404 C1403 1.396 . S
C1404 C1405 1.399 . S
C1405 H1391 0.929 1_554 S
C1405 C1404 1.399 . S
C1405 C1406 1.385 . S
C1406 H1392 0.931 . S
C1406 C1405 1.385 . S
C1406 C1407 1.389 . S
C1407 C1406 1.389 . S
C1407 C1408 1.387 . S
C1408 H1393 0.930 . S
C1408 C1403 1.390 . S
C1408 C1407 1.387 . S
H1409 C1421 0.930 . S
H1410 C1423 0.930 . S
H1411 C1424 0.930 1_556 S
H1412 C1428 0.959 . S
H1413 C1428 0.959 . S
H1414 C1428 0.961 . S
H1415 C1429 0.960 . S
H1416 C1429 0.961 . S
H1417 C1429 0.959 . S
H1418 C1432 0.929 . S
H1419 C1433 0.931 . S
H1420 C1435 0.930 . S
C1421 H1409 0.930 . S
C1421 C1422 1.399 . S
C1421 C1426 1.399 . S
C1422 C1421 1.399 . S
C1422 C1423 1.376 . S
C1423 H1410 0.930 . S
C1423 C1422 1.376 . S
C1423 C1424 1.388 . S
C1424 H1411 0.930 1_554 S
C1424 C1423 1.388 . S
C1424 C1425 1.390 . S
C1425 C1424 1.390 . S
C1425 C1426 1.394 . S
C1425 C1431 1.465 1_554 S
C1426 C1421 1.399 . S
C1426 C1425 1.394 . S
C1426 C1427 1.516 . S
C1427 C1426 1.516 . S
C1427 C1428 1.502 . S
C1427 C1429 1.561 . S
C1427 C1430 1.526 1_554 S
C1428 H1412 0.959 . S
C1428 H1413 0.959 . S
C1428 H1414 0.961 . S
C1428 C1427 1.502 . S
C1429 H1415 0.960 . S
C1429 H1416 0.961 . S
C1429 H1417 0.959 . S
C1429 C1427 1.561 . S
C1430 C1427 1.526 1_556 S
C1430 C1431 1.396 . S
C1430 C1435 1.390 . S
C1431 C1425 1.465 1_556 S
C1431 C1430 1.396 . S
C1431 C1432 1.399 . S
C1432 H1418 0.929 . S
C1432 C1431 1.399 . S
C1432 C1433 1.385 . S
C1433 H1419 0.931 . S
C1433 C1432 1.385 . S
C1433 C1434 1.389 . S
C1434 C1433 1.389 . S
C1434 C1435 1.387 . S
C1435 H1420 0.930 . S
C1435 C1430 1.390 . S
C1435 C1434 1.387 . S
H1436 C1448 0.930 . S
H1437 C1450 0.930 . S
H1438 C1451 0.930 . S
H1439 C1455 0.959 . S
H1440 C1455 0.959 . S
H1441 C1455 0.961 . S
H1442 C1456 0.960 . S
H1443 C1456 0.961 . S
H1444 C1456 0.959 . S
H1445 C1459 0.929 . S
H1446 C1460 0.931 . S
H1447 C1462 0.930 . S
C1448 H1436 0.930 . S
C1448 C1449 1.399 . S
C1448 C1453 1.399 . S
C1449 C1448 1.399 . S
C1449 C1450 1.376 . S
C1450 H1437 0.930 . S
C1450 C1449 1.376 . S
C1450 C1451 1.388 . S
C1451 H1438 0.930 . S
C1451 C1450 1.388 . S
C1451 C1452 1.390 . S
C1452 C1451 1.390 . S
C1452 C1453 1.394 . S
C1452 C1458 1.465 . S
C1453 C1448 1.399 . S
C1453 C1452 1.394 . S
C1453 C1454 1.516 . S
C1454 C1453 1.516 . S
C1454 C1455 1.502 . S
C1454 C1456 1.561 . S
C1454 C1457 1.526 . S
C1455 H1439 0.959 . S
C1455 H1440 0.959 . S
C1455 H1441 0.961 . S
C1455 C1454 1.502 . S
C1456 H1442 0.960 . S
C1456 H1443 0.961 . S
C1456 H1444 0.959 . S
C1456 C1454 1.561 . S
C1457 C1454 1.526 . S
C1457 C1458 1.396 . S
C1457 C1462 1.390 . S
C1458 C1452 1.465 . S
C1458 C1457 1.396 . S
C1458 C1459 1.399 . S
C1459 H1445 0.929 . S
C1459 C1458 1.399 . S
C1459 C1460 1.385 . S
C1460 H1446 0.931 . S
C1460 C1459 1.385 . S
C1460 C1461 1.389 . S
C1461 C1460 1.389 . S
C1461 C1462 1.387 . S
C1462 H1447 0.930 . S
C1462 C1457 1.390 . S
C1462 C1461 1.387 . S
H1463 C1475 0.930 . S
H1464 C1477 0.930 . S
H1465 C1478 0.930 . S
H1466 C1482 0.959 . S
H1467 C1482 0.959 . S
H1468 C1482 0.961 . S
H1469 C1483 0.960 . S
H1470 C1483 0.961 . S
H1471 C1483 0.959 . S
H1472 C1486 0.929 . S
H1473 C1487 0.931 . S
H1474 C1489 0.930 . S
C1475 H1463 0.930 . S
C1475 C1476 1.399 . S
C1475 C1480 1.399 . S
C1476 C1475 1.399 . S
C1476 C1477 1.376 . S
C1477 H1464 0.930 . S
C1477 C1476 1.376 . S
C1477 C1478 1.388 . S
C1478 H1465 0.930 . S
C1478 C1477 1.388 . S
C1478 C1479 1.390 . S
C1479 C1478 1.390 . S
C1479 C1480 1.394 . S
C1479 C1485 1.465 . S
C1480 C1475 1.399 . S
C1480 C1479 1.394 . S
C1480 C1481 1.516 . S
C1481 C1480 1.516 . S
C1481 C1482 1.502 . S
C1481 C1483 1.561 . S
C1481 C1484 1.526 . S
C1482 H1466 0.959 . S
C1482 H1467 0.959 . S
C1482 H1468 0.961 . S
C1482 C1481 1.502 . S
C1483 H1469 0.960 . S
C1483 H1470 0.961 . S
C1483 H1471 0.959 . S
C1483 C1481 1.561 . S
C1484 C1481 1.526 . S
C1484 C1485 1.396 . S
C1484 C1489 1.390 . S
C1485 C1479 1.465 . S
C1485 C1484 1.396 . S
C1485 C1486 1.399 . S
C1486 H1472 0.929 . S
C1486 C1485 1.399 . S
C1486 C1487 1.385 . S
C1487 H1473 0.931 . S
C1487 C1486 1.385 . S
C1487 C1488 1.389 . S
C1488 C1487 1.389 . S
C1488 C1489 1.387 . S
C1489 H1474 0.930 . S
C1489 C1484 1.390 . S
C1489 C1488 1.387 . S
H1490 C1502 0.930 . S
H1491 C1504 0.930 . S
H1492 C1505 0.930 . S
H1493 C1509 0.959 . S
H1494 C1509 0.959 . S
H1495 C1509 0.961 . S
H1496 C1510 0.960 . S
H1497 C1510 0.961 . S
H1498 C1510 0.959 . S
H1499 C1513 0.929 . S
H1500 C1514 0.931 . S
H1501 C1516 0.930 . S
C1502 H1490 0.930 . S
C1502 C1503 1.399 . S
C1502 C1507 1.399 . S
C1503 C1502 1.399 . S
C1503 C1504 1.376 . S
C1504 H1491 0.930 . S
C1504 C1503 1.376 . S
C1504 C1505 1.388 . S
C1505 H1492 0.930 . S
C1505 C1504 1.388 . S
C1505 C1506 1.390 . S
C1506 C1505 1.390 . S
C1506 C1507 1.394 . S
C1506 C1512 1.465 . S
C1507 C1502 1.399 . S
C1507 C1506 1.394 . S
C1507 C1508 1.516 . S
C1508 C1507 1.516 . S
C1508 C1509 1.502 . S
C1508 C1510 1.561 . S
C1508 C1511 1.526 . S
C1509 H1493 0.959 . S
C1509 H1494 0.959 . S
C1509 H1495 0.961 . S
C1509 C1508 1.502 . S
C1510 H1496 0.960 . S
C1510 H1497 0.961 . S
C1510 H1498 0.959 . S
C1510 C1508 1.561 . S
C1511 C1508 1.526 . S
C1511 C1512 1.396 . S
C1511 C1516 1.390 . S
C1512 C1506 1.465 . S
C1512 C1511 1.396 . S
C1512 C1513 1.399 . S
C1513 H1499 0.929 . S
C1513 C1512 1.399 . S
C1513 C1514 1.385 . S
C1514 H1500 0.931 . S
C1514 C1513 1.385 . S
C1514 C1515 1.389 . S
C1515 C1514 1.389 . S
C1515 C1516 1.387 . S
C1516 H1501 0.930 . S
C1516 C1511 1.390 . S
C1516 C1515 1.387 . S
H1517 C1529 0.930 . S
H1518 C1531 0.930 . S
H1519 C1532 0.930 . S
H1520 C1536 0.959 . S
H1521 C1536 0.959 . S
H1522 C1536 0.961 . S
H1523 C1537 0.960 . S
H1524 C1537 0.961 . S
H1525 C1537 0.959 . S
H1526 C1540 0.929 . S
H1527 C1541 0.931 . S
H1528 C1543 0.930 . S
C1529 H1517 0.930 . S
C1529 C1530 1.399 . S
C1529 C1534 1.399 . S
C1530 C1529 1.399 . S
C1530 C1531 1.376 . S
C1531 H1518 0.930 . S
C1531 C1530 1.376 . S
C1531 C1532 1.388 . S
C1532 H1519 0.930 . S
C1532 C1531 1.388 . S
C1532 C1533 1.390 . S
C1533 C1532 1.390 . S
C1533 C1534 1.394 . S
C1533 C1539 1.465 . S
C1534 C1529 1.399 . S
C1534 C1533 1.394 . S
C1534 C1535 1.516 . S
C1535 C1534 1.516 . S
C1535 C1536 1.502 . S
C1535 C1537 1.561 . S
C1535 C1538 1.526 . S
C1536 H1520 0.959 . S
C1536 H1521 0.959 . S
C1536 H1522 0.961 . S
C1536 C1535 1.502 . S
C1537 H1523 0.960 . S
C1537 H1524 0.961 . S
C1537 H1525 0.959 . S
C1537 C1535 1.561 . S
C1538 C1535 1.526 . S
C1538 C1539 1.396 . S
C1538 C1543 1.390 . S
C1539 C1533 1.465 . S
C1539 C1538 1.396 . S
C1539 C1540 1.399 . S
C1540 H1526 0.929 . S
C1540 C1539 1.399 . S
C1540 C1541 1.385 . S
C1541 H1527 0.931 . S
C1541 C1540 1.385 . S
C1541 C1542 1.389 . S
C1542 C1541 1.389 . S
C1542 C1543 1.387 . S
C1543 H1528 0.930 . S
C1543 C1538 1.390 . S
C1543 C1542 1.387 . S
H1544 C1556 0.930 . S
H1545 C1558 0.930 . S
H1546 C1559 0.930 . S
H1547 C1563 0.959 . S
H1548 C1563 0.959 . S
H1549 C1563 0.961 . S
H1550 C1564 0.960 . S
H1551 C1564 0.961 . S
H1552 C1564 0.959 . S
H1553 C1567 0.929 . S
H1554 C1568 0.931 . S
H1555 C1570 0.930 . S
C1556 H1544 0.930 . S
C1556 C1557 1.399 . S
C1556 C1561 1.399 . S
C1557 C1556 1.399 . S
C1557 C1558 1.376 . S
C1558 H1545 0.930 . S
C1558 C1557 1.376 . S
C1558 C1559 1.388 . S
C1559 H1546 0.930 . S
C1559 C1558 1.388 . S
C1559 C1560 1.390 . S
C1560 C1559 1.390 . S
C1560 C1561 1.394 . S
C1560 C1566 1.465 . S
C1561 C1556 1.399 . S
C1561 C1560 1.394 . S
C1561 C1562 1.516 . S
C1562 C1561 1.516 . S
C1562 C1563 1.502 . S
C1562 C1564 1.561 . S
C1562 C1565 1.526 . S
C1563 H1547 0.959 . S
C1563 H1548 0.959 . S
C1563 H1549 0.961 . S
C1563 C1562 1.502 . S
C1564 H1550 0.960 . S
C1564 H1551 0.961 . S
C1564 H1552 0.959 . S
C1564 C1562 1.561 . S
C1565 C1562 1.526 . S
C1565 C1566 1.396 . S
C1565 C1570 1.390 . S
C1566 C1560 1.465 . S
C1566 C1565 1.396 . S
C1566 C1567 1.399 . S
C1567 H1553 0.929 . S
C1567 C1566 1.399 . S
C1567 C1568 1.385 . S
C1568 H1554 0.931 . S
C1568 C1567 1.385 . S
C1568 C1569 1.389 . S
C1569 C1568 1.389 . S
C1569 C1570 1.387 . S
C1570 H1555 0.930 . S
C1570 C1565 1.390 . S
C1570 C1569 1.387 . S
H1571 C1583 0.930 . S
H1572 C1585 0.930 . S
H1573 C1586 0.930 . S
H1574 C1590 0.959 . S
H1575 C1590 0.959 . S
H1576 C1590 0.961 . S
H1577 C1591 0.960 . S
H1578 C1591 0.961 . S
H1579 C1591 0.959 . S
H1580 C1594 0.929 . S
H1581 C1595 0.931 . S
H1582 C1597 0.930 . S
C1583 H1571 0.930 . S
C1583 C1584 1.399 . S
C1583 C1588 1.399 . S
C1584 C1583 1.399 . S
C1584 C1585 1.376 . S
C1585 H1572 0.930 . S
C1585 C1584 1.376 . S
C1585 C1586 1.388 . S
C1586 H1573 0.930 . S
C1586 C1585 1.388 . S
C1586 C1587 1.390 . S
C1587 C1586 1.390 . S
C1587 C1588 1.394 . S
C1587 C1593 1.465 . S
C1588 C1583 1.399 . S
C1588 C1587 1.394 . S
C1588 C1589 1.516 . S
C1589 C1588 1.516 . S
C1589 C1590 1.502 . S
C1589 C1591 1.561 . S
C1589 C1592 1.526 . S
C1590 H1574 0.959 . S
C1590 H1575 0.959 . S
C1590 H1576 0.961 . S
C1590 C1589 1.502 . S
C1591 H1577 0.960 . S
C1591 H1578 0.961 . S
C1591 H1579 0.959 . S
C1591 C1589 1.561 . S
C1592 C1589 1.526 . S
C1592 C1593 1.396 . S
C1592 C1597 1.390 . S
C1593 C1587 1.465 . S
C1593 C1592 1.396 . S
C1593 C1594 1.399 . S
C1594 H1580 0.929 . S
C1594 C1593 1.399 . S
C1594 C1595 1.385 . S
C1595 H1581 0.931 . S
C1595 C1594 1.385 . S
C1595 C1596 1.389 . S
C1596 C1595 1.389 . S
C1596 C1597 1.387 . S
C1597 H1582 0.930 . S
C1597 C1592 1.390 . S
C1597 C1596 1.387 . S
H1598 C1610 0.930 . S
H1599 C1612 0.930 . S
H1600 C1613 0.930 . S
H1601 C1617 0.959 . S
H1602 C1617 0.959 . S
H1603 C1617 0.961 . S
H1604 C1618 0.960 . S
H1605 C1618 0.961 . S
H1606 C1618 0.959 . S
H1607 C1621 0.929 . S
H1608 C1622 0.931 . S
H1609 C1624 0.930 . S
C1610 H1598 0.930 . S
C1610 C1611 1.399 . S
C1610 C1615 1.399 . S
C1611 C1610 1.399 . S
C1611 C1612 1.376 . S
C1612 H1599 0.930 . S
C1612 C1611 1.376 . S
C1612 C1613 1.388 . S
C1613 H1600 0.930 . S
C1613 C1612 1.388 . S
C1613 C1614 1.390 . S
C1614 C1613 1.390 . S
C1614 C1615 1.394 . S
C1614 C1620 1.465 . S
C1615 C1610 1.399 . S
C1615 C1614 1.394 . S
C1615 C1616 1.516 . S
C1616 C1615 1.516 . S
C1616 C1617 1.502 . S
C1616 C1618 1.561 . S
C1616 C1619 1.526 . S
C1617 H1601 0.959 . S
C1617 H1602 0.959 . S
C1617 H1603 0.961 . S
C1617 C1616 1.502 . S
C1618 H1604 0.960 . S
C1618 H1605 0.961 . S
C1618 H1606 0.959 . S
C1618 C1616 1.561 . S
C1619 C1616 1.526 . S
C1619 C1620 1.396 . S
C1619 C1624 1.390 . S
C1620 C1614 1.465 . S
C1620 C1619 1.396 . S
C1620 C1621 1.399 . S
C1621 H1607 0.929 . S
C1621 C1620 1.399 . S
C1621 C1622 1.385 . S
C1622 H1608 0.931 . S
C1622 C1621 1.385 . S
C1622 C1623 1.389 . S
C1623 C1622 1.389 . S
C1623 C1624 1.387 . S
C1624 H1609 0.930 . S
C1624 C1619 1.390 . S
C1624 C1623 1.387 . S
H1625 C1637 0.930 . S
H1626 C1639 0.930 . S
H1627 C1640 0.930 . S
H1628 C1644 0.959 . S
H1629 C1644 0.959 . S
H1630 C1644 0.961 . S
H1631 C1645 0.960 . S
H1632 C1645 0.961 . S
H1633 C1645 0.959 . S
H1634 C1648 0.929 . S
H1635 C1649 0.931 . S
H1636 C1651 0.930 . S
C1637 H1625 0.930 . S
C1637 C1638 1.399 . S
C1637 C1642 1.399 . S
C1638 C1637 1.399 . S
C1638 C1639 1.376 . S
C1639 H1626 0.930 . S
C1639 C1638 1.376 . S
C1639 C1640 1.388 . S
C1640 H1627 0.930 . S
C1640 C1639 1.388 . S
C1640 C1641 1.390 . S
C1641 C1640 1.390 . S
C1641 C1642 1.394 . S
C1641 C1647 1.465 . S
C1642 C1637 1.399 . S
C1642 C1641 1.394 . S
C1642 C1643 1.516 . S
C1643 C1642 1.516 . S
C1643 C1644 1.502 . S
C1643 C1645 1.561 . S
C1643 C1646 1.526 . S
C1644 H1628 0.959 . S
C1644 H1629 0.959 . S
C1644 H1630 0.961 . S
C1644 C1643 1.502 . S
C1645 H1631 0.960 . S
C1645 H1632 0.961 . S
C1645 H1633 0.959 . S
C1645 C1643 1.561 . S
C1646 C1643 1.526 . S
C1646 C1647 1.396 . S
C1646 C1651 1.390 . S
C1647 C1641 1.465 . S
C1647 C1646 1.396 . S
C1647 C1648 1.399 . S
C1648 H1634 0.929 . S
C1648 C1647 1.399 . S
C1648 C1649 1.385 . S
C1649 H1635 0.931 . S
C1649 C1648 1.385 . S
C1649 C1650 1.389 . S
C1650 C1649 1.389 . S
C1650 C1651 1.387 . S
C1651 H1636 0.930 . S
C1651 C1646 1.390 . S
C1651 C1650 1.387 . S
H1652 C1664 0.930 . S
H1653 C1666 0.930 . S
H1654 C1667 0.930 . S
H1655 C1671 0.959 . S
H1656 C1671 0.959 . S
H1657 C1671 0.961 . S
H1658 C1672 0.960 . S
H1659 C1672 0.961 . S
H1660 C1672 0.959 . S
H1661 C1675 0.929 . S
H1662 C1676 0.931 . S
H1663 C1678 0.930 . S
C1664 H1652 0.930 . S
C1664 C1665 1.399 . S
C1664 C1669 1.399 . S
C1665 C1664 1.399 . S
C1665 C1666 1.376 . S
C1666 H1653 0.930 . S
C1666 C1665 1.376 . S
C1666 C1667 1.388 . S
C1667 H1654 0.930 . S
C1667 C1666 1.388 . S
C1667 C1668 1.390 . S
C1668 C1667 1.390 . S
C1668 C1669 1.394 . S
C1668 C1674 1.465 . S
C1669 C1664 1.399 . S
C1669 C1668 1.394 . S
C1669 C1670 1.516 . S
C1670 C1669 1.516 . S
C1670 C1671 1.502 . S
C1670 C1672 1.561 . S
C1670 C1673 1.526 . S
C1671 H1655 0.959 . S
C1671 H1656 0.959 . S
C1671 H1657 0.961 . S
C1671 C1670 1.502 . S
C1672 H1658 0.960 . S
C1672 H1659 0.961 . S
C1672 H1660 0.959 . S
C1672 C1670 1.561 . S
C1673 C1670 1.526 . S
C1673 C1674 1.396 . S
C1673 C1678 1.390 . S
C1674 C1668 1.465 . S
C1674 C1673 1.396 . S
C1674 C1675 1.399 . S
C1675 H1661 0.929 . S
C1675 C1674 1.399 . S
C1675 C1676 1.385 . S
C1676 H1662 0.931 . S
C1676 C1675 1.385 . S
C1676 C1677 1.389 . S
C1677 C1676 1.389 . S
C1677 C1678 1.387 . S
C1678 H1663 0.930 . S
C1678 C1673 1.390 . S
C1678 C1677 1.387 . S
H1679 C1691 0.930 . S
H1680 C1693 0.930 . S
H1681 C1694 0.930 . S
H1682 C1698 0.959 . S
H1683 C1698 0.959 . S
H1684 C1698 0.961 . S
H1685 C1699 0.960 . S
H1686 C1699 0.961 . S
H1687 C1699 0.959 . S
H1688 C1702 0.929 . S
H1689 C1703 0.931 . S
H1690 C1705 0.930 . S
C1691 H1679 0.930 . S
C1691 C1692 1.399 . S
C1691 C1696 1.399 . S
C1692 C1691 1.399 . S
C1692 C1693 1.376 . S
C1693 H1680 0.930 . S
C1693 C1692 1.376 . S
C1693 C1694 1.388 . S
C1694 H1681 0.930 . S
C1694 C1693 1.388 . S
C1694 C1695 1.390 . S
C1695 C1694 1.390 . S
C1695 C1696 1.394 . S
C1695 C1701 1.465 . S
C1696 C1691 1.399 . S
C1696 C1695 1.394 . S
C1696 C1697 1.516 . S
C1697 C1696 1.516 . S
C1697 C1698 1.502 . S
C1697 C1699 1.561 . S
C1697 C1700 1.526 . S
C1698 H1682 0.959 . S
C1698 H1683 0.959 . S
C1698 H1684 0.961 . S
C1698 C1697 1.502 . S
C1699 H1685 0.960 . S
C1699 H1686 0.961 . S
C1699 H1687 0.959 . S
C1699 C1697 1.561 . S
C1700 C1697 1.526 . S
C1700 C1701 1.396 . S
C1700 C1705 1.390 . S
C1701 C1695 1.465 . S
C1701 C1700 1.396 . S
C1701 C1702 1.399 . S
C1702 H1688 0.929 . S
C1702 C1701 1.399 . S
C1702 C1703 1.385 . S
C1703 H1689 0.931 . S
C1703 C1702 1.385 . S
C1703 C1704 1.389 . S
C1704 C1703 1.389 . S
C1704 C1705 1.387 . S
C1705 H1690 0.930 . S
C1705 C1700 1.390 . S
C1705 C1704 1.387 . S
H1706 C1718 0.930 . S
H1707 C1720 0.930 . S
H1708 C1721 0.930 . S
H1709 C1725 0.959 . S
H1710 C1725 0.959 . S
H1711 C1725 0.961 . S
H1712 C1726 0.960 . S
H1713 C1726 0.961 . S
H1714 C1726 0.959 . S
H1715 C1729 0.929 . S
H1716 C1730 0.931 . S
H1717 C1732 0.930 . S
C1718 H1706 0.930 . S
C1718 C1719 1.399 . S
C1718 C1723 1.399 . S
C1719 C1718 1.399 . S
C1719 C1720 1.376 . S
C1720 H1707 0.930 . S
C1720 C1719 1.376 . S
C1720 C1721 1.388 . S
C1721 H1708 0.930 . S
C1721 C1720 1.388 . S
C1721 C1722 1.390 . S
C1722 C1721 1.390 . S
C1722 C1723 1.394 . S
C1722 C1728 1.465 . S
C1723 C1718 1.399 . S
C1723 C1722 1.394 . S
C1723 C1724 1.516 . S
C1724 C1723 1.516 . S
C1724 C1725 1.502 . S
C1724 C1726 1.561 . S
C1724 C1727 1.526 . S
C1725 H1709 0.959 . S
C1725 H1710 0.959 . S
C1725 H1711 0.961 . S
C1725 C1724 1.502 . S
C1726 H1712 0.960 . S
C1726 H1713 0.961 . S
C1726 H1714 0.959 . S
C1726 C1724 1.561 . S
C1727 C1724 1.526 . S
C1727 C1728 1.396 . S
C1727 C1732 1.390 . S
C1728 C1722 1.465 . S
C1728 C1727 1.396 . S
C1728 C1729 1.399 . S
C1729 H1715 0.929 . S
C1729 C1728 1.399 . S
C1729 C1730 1.385 . S
C1730 H1716 0.931 . S
C1730 C1729 1.385 . S
C1730 C1731 1.389 . S
C1731 C1730 1.389 . S
C1731 C1732 1.387 . S
C1732 H1717 0.930 . S
C1732 C1727 1.390 . S
C1732 C1731 1.387 . S
H1733 C1745 0.930 . S
H1734 C1747 0.930 . S
H1735 C1748 0.930 . S
H1736 C1752 0.959 . S
H1737 C1752 0.959 . S
H1738 C1752 0.961 . S
H1739 C1753 0.960 . S
H1740 C1753 0.961 . S
H1741 C1753 0.959 . S
H1742 C1756 0.929 . S
H1743 C1757 0.931 . S
H1744 C1759 0.930 . S
C1745 H1733 0.930 . S
C1745 C1746 1.399 . S
C1745 C1750 1.399 . S
C1746 C1745 1.399 . S
C1746 C1747 1.376 . S
C1747 H1734 0.930 . S
C1747 C1746 1.376 . S
C1747 C1748 1.388 . S
C1748 H1735 0.930 . S
C1748 C1747 1.388 . S
C1748 C1749 1.390 . S
C1749 C1748 1.390 . S
C1749 C1750 1.394 . S
C1749 C1755 1.465 . S
C1750 C1745 1.399 . S
C1750 C1749 1.394 . S
C1750 C1751 1.516 . S
C1751 C1750 1.516 . S
C1751 C1752 1.502 . S
C1751 C1753 1.561 . S
C1751 C1754 1.526 . S
C1752 H1736 0.959 . S
C1752 H1737 0.959 . S
C1752 H1738 0.961 . S
C1752 C1751 1.502 . S
C1753 H1739 0.960 . S
C1753 H1740 0.961 . S
C1753 H1741 0.959 . S
C1753 C1751 1.561 . S
C1754 C1751 1.526 . S
C1754 C1755 1.396 . S
C1754 C1759 1.390 . S
C1755 C1749 1.465 . S
C1755 C1754 1.396 . S
C1755 C1756 1.399 . S
C1756 H1742 0.929 . S
C1756 C1755 1.399 . S
C1756 C1757 1.385 . S
C1757 H1743 0.931 . S
C1757 C1756 1.385 . S
C1757 C1758 1.389 . S
C1758 C1757 1.389 . S
C1758 C1759 1.387 . S
C1759 H1744 0.930 . S
C1759 C1754 1.390 . S
C1759 C1758 1.387 . S
H1760 C1772 0.930 . S
H1761 C1774 0.930 . S
H1762 C1775 0.930 . S
H1763 C1779 0.959 . S
H1764 C1779 0.959 . S
H1765 C1779 0.961 . S
H1766 C1780 0.960 . S
H1767 C1780 0.961 . S
H1768 C1780 0.959 . S
H1769 C1783 0.929 . S
H1770 C1784 0.931 . S
H1771 C1786 0.930 . S
C1772 H1760 0.930 . S
C1772 C1773 1.399 . S
C1772 C1777 1.399 . S
C1773 C1772 1.399 . S
C1773 C1774 1.376 . S
C1774 H1761 0.930 . S
C1774 C1773 1.376 . S
C1774 C1775 1.388 . S
C1775 H1762 0.930 . S
C1775 C1774 1.388 . S
C1775 C1776 1.390 . S
C1776 C1775 1.390 . S
C1776 C1777 1.394 . S
C1776 C1782 1.465 . S
C1777 C1772 1.399 . S
C1777 C1776 1.394 . S
C1777 C1778 1.516 . S
C1778 C1777 1.516 . S
C1778 C1779 1.502 . S
C1778 C1780 1.561 . S
C1778 C1781 1.526 . S
C1779 H1763 0.959 . S
C1779 H1764 0.959 . S
C1779 H1765 0.961 . S
C1779 C1778 1.502 . S
C1780 H1766 0.960 . S
C1780 H1767 0.961 . S
C1780 H1768 0.959 . S
C1780 C1778 1.561 . S
C1781 C1778 1.526 . S
C1781 C1782 1.396 . S
C1781 C1786 1.390 . S
C1782 C1776 1.465 . S
C1782 C1781 1.396 . S
C1782 C1783 1.399 . S
C1783 H1769 0.929 . S
C1783 C1782 1.399 . S
C1783 C1784 1.385 . S
C1784 H1770 0.931 . S
C1784 C1783 1.385 . S
C1784 C1785 1.389 . S
C1785 C1784 1.389 . S
C1785 C1786 1.387 . S
C1786 H1771 0.930 . S
C1786 C1781 1.390 . S
C1786 C1785 1.387 . S
H1787 C1799 0.930 . S
H1788 C1801 0.930 . S
H1789 C1802 0.930 . S
H1790 C1806 0.959 . S
H1791 C1806 0.959 . S
H1792 C1806 0.961 . S
H1793 C1807 0.960 . S
H1794 C1807 0.961 . S
H1795 C1807 0.959 . S
H1796 C1810 0.929 . S
H1797 C1811 0.931 . S
H1798 C1813 0.930 . S
C1799 H1787 0.930 . S
C1799 C1800 1.399 . S
C1799 C1804 1.399 . S
C1800 C1799 1.399 . S
C1800 C1801 1.376 . S
C1801 H1788 0.930 . S
C1801 C1800 1.376 . S
C1801 C1802 1.388 . S
C1802 H1789 0.930 . S
C1802 C1801 1.388 . S
C1802 C1803 1.390 . S
C1803 C1802 1.390 . S
C1803 C1804 1.394 . S
C1803 C1809 1.465 . S
C1804 C1799 1.399 . S
C1804 C1803 1.394 . S
C1804 C1805 1.516 . S
C1805 C1804 1.516 . S
C1805 C1806 1.502 . S
C1805 C1807 1.561 . S
C1805 C1808 1.526 . S
C1806 H1790 0.959 . S
C1806 H1791 0.959 . S
C1806 H1792 0.961 . S
C1806 C1805 1.502 . S
C1807 H1793 0.960 . S
C1807 H1794 0.961 . S
C1807 H1795 0.959 . S
C1807 C1805 1.561 . S
C1808 C1805 1.526 . S
C1808 C1809 1.396 . S
C1808 C1813 1.390 . S
C1809 C1803 1.465 . S
C1809 C1808 1.396 . S
C1809 C1810 1.399 . S
C1810 H1796 0.929 . S
C1810 C1809 1.399 . S
C1810 C1811 1.385 . S
C1811 H1797 0.931 . S
C1811 C1810 1.385 . S
C1811 C1812 1.389 . S
C1812 C1811 1.389 . S
C1812 C1813 1.387 . S
C1813 H1798 0.930 . S
C1813 C1808 1.390 . S
C1813 C1812 1.387 . S
H1814 C1826 0.930 . S
H1815 C1828 0.930 . S
H1816 C1829 0.930 . S
H1817 C1833 0.959 . S
H1818 C1833 0.959 . S
H1819 C1833 0.961 . S
H1820 C1834 0.960 . S
H1821 C1834 0.961 . S
H1822 C1834 0.959 . S
H1823 C1837 0.929 . S
H1824 C1838 0.931 . S
H1825 C1840 0.930 . S
C1826 H1814 0.930 . S
C1826 C1827 1.399 . S
C1826 C1831 1.399 . S
C1827 C1826 1.399 . S
C1827 C1828 1.376 . S
C1828 H1815 0.930 . S
C1828 C1827 1.376 . S
C1828 C1829 1.388 . S
C1829 H1816 0.930 . S
C1829 C1828 1.388 . S
C1829 C1830 1.390 . S
C1830 C1829 1.390 . S
C1830 C1831 1.394 . S
C1830 C1836 1.465 . S
C1831 C1826 1.399 . S
C1831 C1830 1.394 . S
C1831 C1832 1.516 . S
C1832 C1831 1.516 . S
C1832 C1833 1.502 . S
C1832 C1834 1.561 . S
C1832 C1835 1.526 . S
C1833 H1817 0.959 . S
C1833 H1818 0.959 . S
C1833 H1819 0.961 . S
C1833 C1832 1.502 . S
C1834 H1820 0.960 . S
C1834 H1821 0.961 . S
C1834 H1822 0.959 . S
C1834 C1832 1.561 . S
C1835 C1832 1.526 . S
C1835 C1836 1.396 . S
C1835 C1840 1.390 . S
C1836 C1830 1.465 . S
C1836 C1835 1.396 . S
C1836 C1837 1.399 . S
C1837 H1823 0.929 . S
C1837 C1836 1.399 . S
C1837 C1838 1.385 . S
C1838 H1824 0.931 . S
C1838 C1837 1.385 . S
C1838 C1839 1.389 . S
C1839 C1838 1.389 . S
C1839 C1840 1.387 . S
C1840 H1825 0.930 . S
C1840 C1835 1.390 . S
C1840 C1839 1.387 . S
H1841 C1853 0.930 . S
H1842 C1855 0.930 . S
H1843 C1856 0.930 . S
H1844 C1860 0.959 . S
H1845 C1860 0.959 . S
H1846 C1860 0.961 . S
H1847 C1861 0.960 . S
H1848 C1861 0.961 . S
H1849 C1861 0.959 . S
H1850 C1864 0.929 . S
H1851 C1865 0.931 . S
H1852 C1867 0.930 . S
C1853 H1841 0.930 . S
C1853 C1854 1.399 . S
C1853 C1858 1.399 . S
C1854 C1853 1.399 . S
C1854 C1855 1.376 . S
C1855 H1842 0.930 . S
C1855 C1854 1.376 . S
C1855 C1856 1.388 . S
C1856 H1843 0.930 . S
C1856 C1855 1.388 . S
C1856 C1857 1.390 . S
C1857 C1856 1.390 . S
C1857 C1858 1.394 . S
C1857 C1863 1.465 . S
C1858 C1853 1.399 . S
C1858 C1857 1.394 . S
C1858 C1859 1.516 . S
C1859 C1858 1.516 . S
C1859 C1860 1.502 . S
C1859 C1861 1.561 . S
C1859 C1862 1.526 . S
C1860 H1844 0.959 . S
C1860 H1845 0.959 . S
C1860 H1846 0.961 . S
C1860 C1859 1.502 . S
C1861 H1847 0.960 . S
C1861 H1848 0.961 . S
C1861 H1849 0.959 . S
C1861 C1859 1.561 . S
C1862 C1859 1.526 . S
C1862 C1863 1.396 . S
C1862 C1867 1.390 . S
C1863 C1857 1.465 . S
C1863 C1862 1.396 . S
C1863 C1864 1.399 . S
C1864 H1850 0.929 . S
C1864 C1863 1.399 . S
C1864 C1865 1.385 . S
C1865 H1851 0.931 . S
C1865 C1864 1.385 . S
C1865 C1866 1.389 . S
C1866 C1865 1.389 . S
C1866 C1867 1.387 . S
C1867 H1852 0.930 . S
C1867 C1862 1.390 . S
C1867 C1866 1.387 . S
H1868 C1880 0.930 . S
H1869 C1882 0.930 . S
H1870 C1883 0.930 . S
H1871 C1887 0.959 . S
H1872 C1887 0.959 . S
H1873 C1887 0.961 . S
H1874 C1888 0.960 . S
H1875 C1888 0.961 . S
H1876 C1888 0.959 . S
H1877 C1891 0.929 . S
H1878 C1892 0.931 . S
H1879 C1894 0.930 . S
C1880 H1868 0.930 . S
C1880 C1881 1.399 . S
C1880 C1885 1.399 . S
C1881 C1880 1.399 . S
C1881 C1882 1.376 . S
C1882 H1869 0.930 . S
C1882 C1881 1.376 . S
C1882 C1883 1.388 . S
C1883 H1870 0.930 . S
C1883 C1882 1.388 . S
C1883 C1884 1.390 . S
C1884 C1883 1.390 . S
C1884 C1885 1.394 . S
C1884 C1890 1.465 . S
C1885 C1880 1.399 . S
C1885 C1884 1.394 . S
C1885 C1886 1.516 . S
C1886 C1885 1.516 . S
C1886 C1887 1.502 . S
C1886 C1888 1.561 . S
C1886 C1889 1.526 . S
C1887 H1871 0.959 . S
C1887 H1872 0.959 . S
C1887 H1873 0.961 . S
C1887 C1886 1.502 . S
C1888 H1874 0.960 . S
C1888 H1875 0.961 . S
C1888 H1876 0.959 . S
C1888 C1886 1.561 . S
C1889 C1886 1.526 . S
C1889 C1890 1.396 . S
C1889 C1894 1.390 . S
C1890 C1884 1.465 . S
C1890 C1889 1.396 . S
C1890 C1891 1.399 . S
C1891 H1877 0.929 . S
C1891 C1890 1.399 . S
C1891 C1892 1.385 . S
C1892 H1878 0.931 . S
C1892 C1891 1.385 . S
C1892 C1893 1.389 . S
C1893 C1892 1.389 . S
C1893 C1894 1.387 . S
C1894 H1879 0.930 . S
C1894 C1889 1.390 . S
C1894 C1893 1.387 . S
H1895 C1907 0.930 . S
H1896 C1909 0.930 . S
H1897 C1910 0.930 . S
H1898 C1914 0.959 . S
H1899 C1914 0.959 . S
H1900 C1914 0.961 . S
H1901 C1915 0.960 . S
H1902 C1915 0.961 . S
H1903 C1915 0.959 . S
H1904 C1918 0.929 . S
H1905 C1919 0.931 . S
H1906 C1921 0.930 . S
C1907 H1895 0.930 . S
C1907 C1908 1.399 . S
C1907 C1912 1.399 . S
C1908 C1907 1.399 . S
C1908 C1909 1.376 . S
C1909 H1896 0.930 . S
C1909 C1908 1.376 . S
C1909 C1910 1.388 . S
C1910 H1897 0.930 . S
C1910 C1909 1.388 . S
C1910 C1911 1.390 . S
C1911 C1910 1.390 . S
C1911 C1912 1.394 . S
C1911 C1917 1.465 . S
C1912 C1907 1.399 . S
C1912 C1911 1.394 . S
C1912 C1913 1.516 . S
C1913 C1912 1.516 . S
C1913 C1914 1.502 . S
C1913 C1915 1.561 . S
C1913 C1916 1.526 . S
C1914 H1898 0.959 . S
C1914 H1899 0.959 . S
C1914 H1900 0.961 . S
C1914 C1913 1.502 . S
C1915 H1901 0.960 . S
C1915 H1902 0.961 . S
C1915 H1903 0.959 . S
C1915 C1913 1.561 . S
C1916 C1913 1.526 . S
C1916 C1917 1.396 . S
C1916 C1921 1.390 . S
C1917 C1911 1.465 . S
C1917 C1916 1.396 . S
C1917 C1918 1.399 . S
C1918 H1904 0.929 . S
C1918 C1917 1.399 . S
C1918 C1919 1.385 . S
C1919 H1905 0.931 . S
C1919 C1918 1.385 . S
C1919 C1920 1.389 . S
C1920 C1919 1.389 . S
C1920 C1921 1.387 . S
C1921 H1906 0.930 . S
C1921 C1916 1.390 . S
C1921 C1920 1.387 . S
H1922 C1934 0.930 . S
H1923 C1936 0.930 . S
H1924 C1937 0.930 . S
H1925 C1941 0.959 . S
H1926 C1941 0.959 . S
H1927 C1941 0.961 . S
H1928 C1942 0.960 . S
H1929 C1942 0.961 . S
H1930 C1942 0.959 . S
H1931 C1945 0.929 . S
H1932 C1946 0.931 . S
H1933 C1948 0.930 . S
C1934 H1922 0.930 . S
C1934 C1935 1.399 . S
C1934 C1939 1.399 . S
C1935 C1934 1.399 . S
C1935 C1936 1.376 . S
C1936 H1923 0.930 . S
C1936 C1935 1.376 . S
C1936 C1937 1.388 . S
C1937 H1924 0.930 . S
C1937 C1936 1.388 . S
C1937 C1938 1.390 . S
C1938 C1937 1.390 . S
C1938 C1939 1.394 . S
C1938 C1944 1.465 . S
C1939 C1934 1.399 . S
C1939 C1938 1.394 . S
C1939 C1940 1.516 . S
C1940 C1939 1.516 . S
C1940 C1941 1.502 . S
C1940 C1942 1.561 . S
C1940 C1943 1.526 . S
C1941 H1925 0.959 . S
C1941 H1926 0.959 . S
C1941 H1927 0.961 . S
C1941 C1940 1.502 . S
C1942 H1928 0.960 . S
C1942 H1929 0.961 . S
C1942 H1930 0.959 . S
C1942 C1940 1.561 . S
C1943 C1940 1.526 . S
C1943 C1944 1.396 . S
C1943 C1948 1.390 . S
C1944 C1938 1.465 . S
C1944 C1943 1.396 . S
C1944 C1945 1.399 . S
C1945 H1931 0.929 . S
C1945 C1944 1.399 . S
C1945 C1946 1.385 . S
C1946 H1932 0.931 . S
C1946 C1945 1.385 . S
C1946 C1947 1.389 . S
C1947 C1946 1.389 . S
C1947 C1948 1.387 . S
C1948 H1933 0.930 . S
C1948 C1943 1.390 . S
C1948 C1947 1.387 . S
H1949 C1961 0.930 . S
H1950 C1963 0.930 . S
H1951 C1964 0.930 . S
H1952 C1968 0.959 . S
H1953 C1968 0.959 . S
H1954 C1968 0.961 . S
H1955 C1969 0.960 . S
H1956 C1969 0.961 . S
H1957 C1969 0.959 . S
H1958 C1972 0.929 . S
H1959 C1973 0.931 . S
H1960 C1975 0.930 . S
C1961 H1949 0.930 . S
C1961 C1962 1.399 . S
C1961 C1966 1.399 . S
C1962 C1961 1.399 . S
C1962 C1963 1.376 . S
C1963 H1950 0.930 . S
C1963 C1962 1.376 . S
C1963 C1964 1.388 . S
C1964 H1951 0.930 . S
C1964 C1963 1.388 . S
C1964 C1965 1.390 . S
C1965 C1964 1.390 . S
C1965 C1966 1.394 . S
C1965 C1971 1.465 . S
C1966 C1961 1.399 . S
C1966 C1965 1.394 . S
C1966 C1967 1.516 . S
C1967 C1966 1.516 . S
C1967 C1968 1.502 . S
C1967 C1969 1.561 . S
C1967 C1970 1.526 . S
C1968 H1952 0.959 . S
C1968 H1953 0.959 . S
C1968 H1954 0.961 . S
C1968 C1967 1.502 . S
C1969 H1955 0.960 . S
C1969 H1956 0.961 . S
C1969 H1957 0.959 . S
C1969 C1967 1.561 . S
C1970 C1967 1.526 . S
C1970 C1971 1.396 . S
C1970 C1975 1.390 . S
C1971 C1965 1.465 . S
C1971 C1970 1.396 . S
C1971 C1972 1.399 . S
C1972 H1958 0.929 . S
C1972 C1971 1.399 . S
C1972 C1973 1.385 . S
C1973 H1959 0.931 . S
C1973 C1972 1.385 . S
C1973 C1974 1.389 . S
C1974 C1973 1.389 . S
C1974 C1975 1.387 . S
C1975 H1960 0.930 . S
C1975 C1970 1.390 . S
C1975 C1974 1.387 . S
C477 C245 1.678 . S
C489 C13 1.754 . S
C504 C42 1.742 . S
C516 C274 1.709 . S
C531 C303 1.703 . S
C543 C71 1.746 . S
C558 C100 1.760 . S
C570 C332 1.683 . S
C585 C129 1.760 . S
C597 C361 1.679 . S
C612 C158 1.706 . S
C624 C390 1.720 . S
C639 C419 1.686 . S
C651 C187 1.757 . S
C666 C448 1.756 . S
C678 C216 1.690 . S
C693 C15 2.889 . S
C705 C37 2.494 . S
C720 C66 2.437 . S
C732 C44 2.869 . S
C747 C95 2.431 1_655 S
C759 C73 2.869 . S
C774 C8 2.424 1_565 S
C786 C102 2.868 . S
C801 C211 2.443 1_455 S
C813 C131 2.882 . S
C828 C124 2.484 1_545 S
C840 C160 2.889 . S
C855 C189 2.888 . S
C867 C153 2.497 . S
C882 C218 2.888 . S
C894 C182 2.497 . S
C909 C269 2.497 . S
C921 C247 2.889 . S
C936 C276 2.869 . S
C948 C298 2.420 . S
C963 C327 2.413 1_455 S
C975 C305 2.869 . S
C990 C240 2.413 1_545 S
C1002 C334 2.869 . S
C1017 C443 2.414 1_655 S
C1029 C363 2.869 . S
C1044 C356 2.483 1_565 S
C1056 C392 2.885 . S
C1071 C385 2.454 . S
C1083 C421 2.878 . S
C1098 C414 2.428 . S
C1110 C450 2.872 . S
C1125 C266 0.972 . S
C1137 C3 1.063 . S
C1152 C295 0.951 . S
C1164 C32 1.058 . S
C1179 C324 1.060 . S
C1191 C61 1.061 . S
C1206 C237 1.014 . S
C1218 C90 1.069 . S
C1233 C440 0.959 . S
C1245 C119 1.054 . S
C1260 C353 0.997 . S
C1272 C148 1.054 . S
C1287 C177 1.068 . S
C1299 C382 1.009 . S
C1314 C411 0.952 . S
C1326 C206 1.058 . S
C1341 C235 1.064 . S
C1353 C34 1.080 . S
C1368 C264 1.068 . S
C1380 C63 1.069 . S
C1395 C293 1.063 . S
C1407 C92 1.081 . S
C1422 C5 1.021 . S
C1434 C322 1.071 . S
C1449 C351 1.066 . S
C1461 C208 1.076 . S
C1476 C121 0.951 . S
C1488 C380 1.062 . S
C1503 C409 1.063 . S
C1515 C150 0.953 . S
C1530 C438 1.071 . S
C1542 C179 1.012 . S
C1557 C155 1.735 . S
C1569 C10 1.816 . S
C1584 C184 1.762 . S
C1596 C39 1.735 . S
C1611 C213 1.733 . S
C1623 C68 1.815 . S
C1638 C126 1.739 . S
C1650 C97 1.755 . S
C1665 C387 1.728 . S
C1677 C242 1.743 . S
C1692 C271 1.776 . S
C1704 C416 1.723 . S
C1719 C300 1.735 . S
C1731 C445 1.802 . S
C1746 C329 1.800 . S
C1758 C358 1.809 . S
C1773 C79 0.797 . S
C1785 C21 0.916 . S
C1800 C50 0.797 . S
C1812 C108 0.916 . S
C1827 C195 0.780 . S
C1839 C137 0.938 . S
C1854 C224 0.800 . S
C1866 C166 0.914 . S
C1881 C253 0.771 . S
C1893 C311 0.905 . S
C1908 C340 0.780 . S
C1920 C282 0.893 . S
C1935 C427 0.790 . S
C1947 C369 0.880 . S
C1962 C456 0.937 . S
C1974 C398 0.826 . S
