# Generated by pormake.
# Topology irl, (4)-cn, num edge types: 1
# Building blocks:
#     Node 0, Type 0, BuildingBlock: ESEHIV_clean_sbu_0, # of connection points: 4
#     Node 1, Type 0, BuildingBlock: ESEHIV_clean_sbu_0, # of connection points: 4
#     Node 2, Type 0, BuildingBlock: ESEHIV_clean_sbu_0, # of connection points: 4
#     Node 3, Type 0, BuildingBlock: ESEHIV_clean_sbu_0, # of connection points: 4
#     Node 4, Type 0, BuildingBlock: ESEHIV_clean_sbu_0, # of connection points: 4
#     Node 5, Type 0, BuildingBlock: ESEHIV_clean_sbu_0, # of connection points: 4
#     Node 6, Type 0, BuildingBlock: ESEHIV_clean_sbu_0, # of connection points: 4
#     Node 7, Type 0, BuildingBlock: ESEHIV_clean_sbu_0, # of connection points: 4
#     Edge 8, Type (0, 0), BuildingBlock: MIFKUJ_clean_linker_0, # of connection points: 2
#     Edge 9, Type (0, 0), BuildingBlock: MIFKUJ_clean_linker_0, # of connection points: 2
#     Edge 10, Type (0, 0), BuildingBlock: MIFKUJ_clean_linker_0, # of connection points: 2
#     Edge 11, Type (0, 0), BuildingBlock: MIFKUJ_clean_linker_0, # of connection points: 2
#     Edge 12, Type (0, 0), BuildingBlock: MIFKUJ_clean_linker_0, # of connection points: 2
#     Edge 13, Type (0, 0), BuildingBlock: MIFKUJ_clean_linker_0, # of connection points: 2
#     Edge 14, Type (0, 0), BuildingBlock: MIFKUJ_clean_linker_0, # of connection points: 2
#     Edge 15, Type (0, 0), BuildingBlock: MIFKUJ_clean_linker_0, # of connection points: 2
#     Edge 16, Type (0, 0), BuildingBlock: MIFKUJ_clean_linker_0, # of connection points: 2
#     Edge 17, Type (0, 0), BuildingBlock: MIFKUJ_clean_linker_0, # of connection points: 2
#     Edge 18, Type (0, 0), BuildingBlock: MIFKUJ_clean_linker_0, # of connection points: 2
#     Edge 19, Type (0, 0), BuildingBlock: MIFKUJ_clean_linker_0, # of connection points: 2
#     Edge 20, Type (0, 0), BuildingBlock: MIFKUJ_clean_linker_0, # of connection points: 2
#     Edge 21, Type (0, 0), BuildingBlock: MIFKUJ_clean_linker_0, # of connection points: 2
#     Edge 22, Type (0, 0), BuildingBlock: MIFKUJ_clean_linker_0, # of connection points: 2
#     Edge 23, Type (0, 0), BuildingBlock: MIFKUJ_clean_linker_0, # of connection points: 2
# Relax obj value: 0.081
# Max RMSD: 0.129
# Mean RMSD: 0.129
data_MOF--net-irl--node1-ESEHIV_clean_sbu_0--edge1-MIFKUJ_clean_linker_0
_symmetry_space_group_name_H-M    P1
_symmetry_Int_Tables_number       1
_symmetry_cell_setting            triclinic
loop_
_symmetry_equiv_pos_as_xyz
'x, y, z'
_cell_length_a     13.234757
_cell_length_b     85.089022
_cell_length_c     38.300465
_cell_angle_alpha  89.370411
_cell_angle_beta   89.942259
_cell_angle_gamma 90.219072
loop_
_atom_site_label
_atom_site_type_symbol
_atom_site_fract_x
_atom_site_fract_y
_atom_site_fract_z
_atom_type_partial_charge
Cu0 Cu 0.98786 0.15125 0.04797 0.0
N1 N 0.88382 0.13635 0.04324 0.0
N2 N 0.82129 0.1118 0.04129 0.0
C3 C 0.89909 0.12107 0.05108 0.0
C4 C 0.75394 0.12177 0.0265 0.0
C5 C 0.7929 0.1369 0.02762 0.0
O6 O 0.05217 0.14549 0.09207 0.0
C7 C 0.05431 0.15884 0.97979 0.0
O8 O 0.01699 0.17268 0.98705 0.0
H9 H 0.9692 0.11677 0.06203 0.0
H10 H 0.75935 0.14737 0.01646 0.0
N11 N 0.94951 0.17241 0.05322 0.0
N12 N 0.97208 0.19848 0.05858 0.0
C13 C 0.01616 0.18416 0.05898 0.0
C14 C 0.85927 0.17947 0.0497 0.0
C15 C 0.87296 0.19553 0.05291 0.0
C16 C 0.98674 0.14488 0.11658 0.0
O17 O 0.89257 0.14851 0.10942 0.0
H18 H 0.09658 0.18221 0.06148 0.0
H19 H 0.78903 0.17345 0.0443 0.0
O20 O 0.06349 0.14868 1.00437 0.0
H21 H 0.68269 0.11837 0.01493 0.0
H22 H 0.81438 0.20432 0.05076 0.0
Cu23 Cu 0.94225 0.89794 0.05128 0.0
N24 N 0.86866 0.91697 0.04962 0.0
N25 N 0.82645 0.94252 0.04594 0.0
C26 C 0.90033 0.93201 0.05349 0.0
C27 C 0.74572 0.93374 0.03696 0.0
C28 C 0.77205 0.91814 0.03896 0.0
O29 O 0.01996 0.89625 0.09524 0.0
C30 C 0.07173 0.88695 0.99314 0.0
O31 O 0.09357 0.87429 0.01151 0.0
H32 H 0.977 0.93526 0.05988 0.0
H33 H 0.72465 0.90834 0.03172 0.0
N34 N 0.8475 0.88129 0.05394 0.0
N35 N 0.76668 0.85807 0.05107 0.0
C36 C 0.84934 0.8665 0.04115 0.0
C37 C 0.76222 0.88196 0.07304 0.0
C38 C 0.71203 0.86784 0.07103 0.0
C39 C 0.08031 0.9061 0.10917 0.0
O40 O 0.10686 0.91878 0.09156 0.0
H41 H 0.9098 0.86196 0.02519 0.0
H42 H 0.73905 0.89201 0.08809 0.0
O43 O 0.01634 0.89754 1.00658 0.0
H44 H 0.67288 0.93824 0.02894 0.0
H45 H 0.64219 0.8648 0.08426 0.0
Cu46 Cu 0.15743 0.89324 0.55135 0.0
N47 N 0.06763 0.91025 0.54861 0.0
N48 N 0.02405 0.93574 0.54732 0.0
C49 C 0.09911 0.92522 0.55228 0.0
C50 C 0.9416 0.92691 0.54007 0.0
C51 C 0.96874 0.9112 0.54085 0.0
O52 O 0.22817 0.89403 0.50585 0.0
C53 C 0.16718 0.89728 0.62192 0.0
O54 O 0.06986 0.89745 0.61528 0.0
H55 H 0.17702 0.92828 0.55748 0.0
H56 H 0.9203 0.90125 0.53553 0.0
N57 N 0.10092 0.87298 0.55473 0.0
N58 N 0.10337 0.8466 0.55685 0.0
C59 C 0.15707 0.85992 0.5511 0.0
C60 C 0.00778 0.86785 0.56325 0.0
C61 C 0.00904 0.85157 0.56454 0.0
C62 C 0.17087 0.8898 0.48062 0.0
O63 O 0.07819 0.88528 0.48798 0.0
H64 H 0.23715 0.86031 0.54544 0.0
H65 H 0.94417 0.87535 0.56882 0.0
O66 O 0.22871 0.89568 0.59633 0.0
H67 H 0.86694 0.93142 0.53451 0.0
H68 H 0.94535 0.84404 0.57081 0.0
Cu69 Cu 0.97056 0.14537 0.55613 0.0
N70 N 0.06896 0.12951 0.55609 0.0
N71 N 0.12131 0.1045 0.55378 0.0
C72 C 0.04168 0.11434 0.55275 0.0
C73 C 0.20272 0.11393 0.55807 0.0
C74 C 0.17021 0.1294 0.55932 0.0
O75 O 0.91822 0.14491 0.50863 0.0
C76 C 0.93476 0.13865 0.6233 0.0
O77 O 0.03255 0.1412 0.62188 0.0
H78 H 0.96373 0.11063 0.55032 0.0
H79 H 0.21695 0.13973 0.56247 0.0
N80 N 0.01101 0.16625 0.56427 0.0
N81 N 0.98892 0.19229 0.56969 0.0
C82 C 0.94753 0.17847 0.5599 0.0
C83 C 0.09638 0.17247 0.57731 0.0
C84 C 0.08313 0.18853 0.58055 0.0
C85 C 0.98572 0.14969 0.48711 0.0
O86 O 0.0723 0.15468 0.49969 0.0
H87 H 0.87169 0.17709 0.54987 0.0
H88 H 0.16243 0.16581 0.58479 0.0
O89 O 0.88272 0.13993 0.59537 0.0
H90 H 0.2802 0.10999 0.55985 0.0
H91 H 0.13781 0.19667 0.59112 0.0
Cu92 Cu 0.50494 0.65014 0.04664 0.0
N93 N 0.42219 0.63215 0.04716 0.0
N94 N 0.39272 0.60613 0.04779 0.0
C95 C 0.46242 0.61769 0.04446 0.0
C96 C 0.30426 0.61373 0.05258 0.0
C97 C 0.32273 0.62979 0.05234 0.0
O98 O 0.57021 0.65001 0.0921 0.0
C99 C 0.52734 0.64899 0.97831 0.0
O100 O 0.43005 0.65088 0.98344 0.0
H101 H 0.54228 0.61579 0.04031 0.0
H102 H 0.26802 0.63898 0.05651 0.0
N103 N 0.44499 0.67014 0.04214 0.0
N104 N 0.4442 0.69657 0.03912 0.0
C105 C 0.501 0.6834 0.04145 0.0
C106 C 0.34851 0.67494 0.03996 0.0
C107 C 0.34777 0.6912 0.03814 0.0
C108 C 0.50683 0.65372 0.11572 0.0
O109 O 0.41327 0.65677 0.10658 0.0
H110 H 0.58254 0.6832 0.0427 0.0
H111 H 0.28342 0.66723 0.04007 0.0
O112 O 0.58591 0.64804 1.00465 0.0
H113 H 0.23176 0.60813 0.05703 0.0
H114 H 0.28075 0.6984 0.03672 0.0
Cu115 Cu 0.43944 0.39646 0.04968 0.0
N116 N 0.53072 0.41332 0.04543 0.0
N117 N 0.56952 0.43899 0.0415 0.0
C118 C 0.49627 0.42816 0.04694 0.0
C119 C 0.65453 0.43052 0.03649 0.0
C120 C 0.63022 0.41465 0.03871 0.0
O121 O 0.36695 0.40033 0.09318 0.0
C122 C 0.42555 0.39182 0.9805 0.0
O123 O 0.51428 0.38602 0.98873 0.0
H124 H 0.41788 0.43088 0.05203 0.0
H125 H 0.68089 0.40486 0.03509 0.0
N126 N 0.48774 0.37579 0.05514 0.0
N127 N 0.47279 0.34948 0.0585 0.0
C128 C 0.425 0.36331 0.05314 0.0
C129 C 0.5793 0.36975 0.06225 0.0
C130 C 0.5703 0.35352 0.06434 0.0
C131 C 0.42905 0.40246 0.11823 0.0
O132 O 0.52639 0.40183 0.11179 0.0
H133 H 0.3448 0.36451 0.04847 0.0
H134 H 0.64739 0.37661 0.06581 0.0
O135 O 0.36968 0.39722 1.00477 0.0
H136 H 0.72841 0.4354 0.03074 0.0
H137 H 0.63116 0.34537 0.06954 0.0
Cu138 Cu 0.52175 0.39113 0.55591 0.0
N139 N 0.42562 0.40709 0.5607 0.0
N140 N 0.37993 0.43236 0.56541 0.0
C141 C 0.45601 0.42188 0.56729 0.0
C142 C 0.29742 0.42372 0.55724 0.0
C143 C 0.32588 0.40809 0.55435 0.0
O144 O 0.56796 0.3931 0.50759 0.0
C145 C 0.56743 0.39318 0.62325 0.0
O146 O 0.47315 0.38835 0.62267 0.0
H147 H 0.53446 0.42497 0.5714 0.0
H148 H 0.27825 0.39836 0.54676 0.0
N149 N 0.48095 0.37005 0.56249 0.0
N150 N 0.50201 0.34391 0.56725 0.0
C151 C 0.5463 0.35798 0.56049 0.0
C152 C 0.39132 0.36349 0.57075 0.0
C153 C 0.40404 0.34737 0.57365 0.0
C154 C 0.50187 0.38795 0.48624 0.0
O155 O 0.41758 0.38199 0.49888 0.0
H156 H 0.62523 0.3596 0.55401 0.0
H157 H 0.32218 0.36995 0.57484 0.0
O158 O 0.61395 0.39539 0.59436 0.0
H159 H 0.22243 0.42835 0.55285 0.0
H160 H 0.34582 0.33895 0.58065 0.0
Cu161 Cu 0.45006 0.64289 0.55267 0.0
N162 N 0.53359 0.62528 0.55905 0.0
N163 N 0.56587 0.59942 0.56262 0.0
C164 C 0.49606 0.61062 0.55618 0.0
C165 C 0.65136 0.60748 0.57011 0.0
C166 C 0.63122 0.62345 0.56788 0.0
O167 O 0.39243 0.64084 0.50624 0.0
C168 C 0.41201 0.6445 0.6205 0.0
O169 O 0.50828 0.64806 0.61765 0.0
H170 H 0.41757 0.60831 0.5502 0.0
H171 H 0.6836 0.63297 0.57261 0.0
N172 N 0.50874 0.66305 0.55329 0.0
N173 N 0.50849 0.68943 0.55497 0.0
C174 C 0.45323 0.6761 0.55812 0.0
C175 C 0.60313 0.6682 0.54673 0.0
C176 C 0.60321 0.68448 0.54776 0.0
C177 C 0.4604 0.63813 0.48346 0.0
O178 O 0.55504 0.63714 0.49347 0.0
H179 H 0.37252 0.67575 0.56262 0.0
H180 H 0.66667 0.66072 0.54087 0.0
O181 O 0.36129 0.64173 0.59296 0.0
H182 H 0.7235 0.60228 0.5766 0.0
H183 H 0.66796 0.69204 0.5433 0.0
H184 H 0.71927 0.96257 1.00487 0.0
H185 H 0.72273 0.99119 1.00535 0.0
H186 H 0.95126 0.99013 0.08548 0.0
H187 H 0.94664 0.96125 0.08561 0.0
H188 H 0.80268 1.01148 0.1 0.0
H189 H 0.0139 0.9998 1.00246 0.0
H190 H 0.05992 0.98721 0.94702 0.0
H191 H 0.81062 1.00988 0.89579 0.0
H192 H 0.76218 0.02244 0.95106 0.0
H193 H 0.92298 0.09285 0.08667 0.0
H194 H 0.92679 0.06423 0.08778 0.0
H195 H 0.71257 0.06305 1.00309 0.0
H196 H 0.71154 0.0918 1.00086 0.0
H197 H 0.85957 0.04271 0.99156 0.0
H198 H 0.64561 0.05387 0.08931 0.0
H199 H 0.59852 0.06633 0.14479 0.0
H200 H 0.85178 0.04458 0.19566 0.0
H201 H 0.9012 0.03215 0.14034 0.0
C202 C 0.77 0.96836 0.02279 0.0
C203 C 0.83239 0.95953 0.04536 0.0
C204 C 0.77256 0.98479 0.02279 0.0
C205 C 0.83782 0.9929 0.04524 0.0
C206 C 0.90038 0.98416 0.06785 0.0
C207 C 0.89825 0.96765 0.06773 0.0
C208 C 0.8389 1.01046 0.04528 0.0
C209 C 0.81677 1.01832 0.07641 0.0
C210 C 0.85472 1.01943 0.01434 0.0
C211 C 0.88388 1.01195 0.981 0.0
C212 C 0.9684 1.00201 0.97944 0.0
C213 C 0.99501 0.99489 0.94803 0.0
C214 C 0.93809 0.99771 0.91792 0.0
C215 C 0.85458 1.00769 0.91914 0.0
C216 C 0.82757 1.01482 0.9505 0.0
C217 C 0.87691 0.08657 0.0681 0.0
C218 C 0.81732 0.09477 0.04352 0.0
C219 C 0.87835 0.07012 0.06904 0.0
C220 C 0.81925 0.06136 0.04576 0.0
C221 C 0.75883 0.06948 0.0214 0.0
C222 C 0.75756 0.08598 0.02036 0.0
C223 C 0.82257 0.04378 0.04625 0.0
C224 C 0.84562 0.0359 0.0152 0.0
C225 C 0.80746 0.0348 0.07726 0.0
C226 C 0.77765 0.0422 0.11059 0.0
C227 C 0.6917 0.05184 0.11226 0.0
C228 C 0.66451 0.05888 0.14369 0.0
C229 C 0.72228 0.05628 0.17371 0.0
C230 C 0.80719 0.0466 0.17238 0.0
C231 C 0.83476 0.03954 0.141 0.0
H232 H 0.70111 0.06175 0.19802 0.0
H233 H 0.95881 0.99219 0.89363 0.0
H234 H 0.8998 0.95742 0.51679 0.0
H235 H 0.91785 0.98602 0.51762 0.0
H236 H 0.18753 0.98147 0.57994 0.0
H237 H 0.16766 0.953 0.58052 0.0
H238 H 0.07907 1.00447 0.60407 0.0
H239 H 0.19205 0.98981 0.48973 0.0
H240 H 0.1809 0.9778 0.43151 0.0
H241 H 0.92558 1.00678 0.40656 0.0
H242 H 0.93414 1.01879 0.46482 0.0
H243 H 0.25483 0.08333 0.58086 0.0
H244 H 0.2424 0.05459 0.57901 0.0
H245 H 0.96572 0.05834 0.52019 0.0
H246 H 0.97927 0.08692 0.52106 0.0
H247 H 0.08071 0.03578 0.49409 0.0
H248 H 0.96547 0.05 0.60851 0.0
H249 H 0.97839 0.06255 0.66607 0.0
H250 H 0.23885 0.03458 0.69045 0.0
H251 H 0.22833 0.02202 0.63279 0.0
C252 C 0.96243 0.96246 0.53098 0.0
C253 C 0.03265 0.95274 0.54833 0.0
C254 C 0.97335 0.97888 0.5311 0.0
C255 C 0.05519 0.986 0.54833 0.0
C256 C 0.12408 0.97634 0.56624 0.0
C257 C 0.11304 0.95997 0.56626 0.0
C258 C 0.06906 1.00346 0.54798 0.0
C259 C 0.08078 1.01126 0.57993 0.0
C260 C 0.06932 1.01249 0.51663 0.0
C261 C 0.0632 1.0051 0.48178 0.0
C262 C 0.13292 0.99351 0.47196 0.0
C263 C 0.12719 0.98673 0.43892 0.0
C264 C 0.05259 0.99153 0.41537 0.0
C265 C 0.98333 1.00308 0.42483 0.0
C266 C 0.98859 1.00988 0.45785 0.0
C267 C 0.19199 0.07804 0.56721 0.0
C268 C 0.11756 0.08751 0.55143 0.0
C269 C 0.1844 0.06158 0.56643 0.0
C270 C 0.10218 0.05422 0.5499 0.0
C271 C 0.02956 0.06367 0.53328 0.0
C272 C 0.03699 0.08007 0.5341 0.0
C273 C 0.09063 0.03673 0.55011 0.0
C274 C 0.07923 0.02895 0.51818 0.0
C275 C 0.09065 0.02772 0.58144 0.0
C276 C 0.09673 0.03519 0.61619 0.0
C277 C 0.02595 0.04661 0.62604 0.0
C278 C 0.03277 0.05371 0.6587 0.0
C279 C 0.10956 0.0494 0.68186 0.0
C280 C 0.17951 0.03793 0.67245 0.0
C281 C 0.17312 0.03081 0.6398 0.0
H282 H 0.11472 0.05491 0.70714 0.0
H283 H 0.04859 0.98634 0.38973 0.0
H284 H 0.25792 0.58273 0.03361 0.0
H285 H 0.29045 0.55444 0.03271 0.0
H286 H 0.60148 0.56286 0.06039 0.0
H287 H 0.56966 0.59101 0.0616 0.0
H288 H 0.59213 0.54171 1.00993 0.0
H289 H 0.42934 0.54858 0.12045 0.0
H290 H 0.2954 0.55719 0.16066 0.0
H291 H 0.0803 0.52786 0.10821 0.0
H292 H 0.21275 0.51923 0.06736 0.0
H293 H 0.71108 0.46157 0.05454 0.0
H294 H 0.68516 0.4901 0.0554 0.0
H295 H 0.37268 0.4834 0.0273 0.0
H296 H 0.39801 0.4551 0.02616 0.0
H297 H 0.38626 0.50377 0.07908 0.0
H298 H 0.54996 0.49716 0.96806 0.0
H299 H 0.685 0.48849 0.92834 0.0
H300 H 0.89978 0.51727 0.98245 0.0
H301 H 0.76619 0.52595 0.0228 0.0
C302 C 0.33304 0.57859 0.03981 0.0
C303 C 0.41097 0.58931 0.04757 0.0
C304 C 0.35167 0.56236 0.03925 0.0
C305 C 0.44847 0.55641 0.04671 0.0
C306 C 0.52631 0.56708 0.05435 0.0
C307 C 0.50784 0.58327 0.05491 0.0
C308 C 0.46906 0.53913 0.04643 0.0
C309 C 0.54785 0.53345 0.02543 0.0
C310 C 0.41057 0.52822 0.06612 0.0
C311 C 0.33074 0.53339 0.09062 0.0
C312 C 0.35329 0.54407 0.11731 0.0
C313 C 0.27768 0.54893 0.14025 0.0
C314 C 0.17934 0.54311 0.13693 0.0
C315 C 0.15647 0.53238 0.11071 0.0
C316 C 0.2318 0.52748 0.08767 0.0
C317 C 0.63717 0.46618 0.04819 0.0
C318 C 0.55661 0.45592 0.04058 0.0
C319 C 0.62231 0.48252 0.04873 0.0
C320 C 0.52679 0.48899 0.04136 0.0
C321 C 0.44683 0.47877 0.03338 0.0
C322 C 0.46153 0.4625 0.03287 0.0
C323 C 0.50883 0.50634 0.0424 0.0
C324 C 0.43058 0.51203 0.0636 0.0
C325 C 0.56796 0.51725 0.02294 0.0
C326 C 0.6483 0.51208 0.99867 0.0
C327 C 0.62616 0.50154 0.97166 0.0
C328 C 0.7024 0.49665 0.949 0.0
C329 C 0.80097 0.50229 0.95293 0.0
C330 C 0.82343 0.51288 0.97948 0.0
C331 C 0.74747 0.51781 1.00223 0.0
H332 H 0.85989 0.49849 0.93536 0.0
H333 H 0.12091 0.54688 0.15473 0.0
H334 H 0.26047 0.45486 0.53556 0.0
H335 H 0.28752 0.48335 0.5363 0.0
H336 H 0.55138 0.47683 0.60076 0.0
H337 H 0.52237 0.44853 0.60134 0.0
H338 H 0.45249 0.50145 0.62234 0.0
H339 H 0.5656 0.48352 0.51015 0.0
H340 H 0.54896 0.47028 0.45348 0.0
H341 H 0.30811 0.50148 0.42461 0.0
H342 H 0.32244 0.51478 0.48134 0.0
H343 H 0.67802 0.57671 0.59514 0.0
H344 H 0.64597 0.54838 0.59588 0.0
H345 H 0.38333 0.55531 0.53107 0.0
H346 H 0.41732 0.58343 0.52886 0.0
H347 H 0.48008 0.53054 0.50978 0.0
H348 H 0.36818 0.54865 0.62185 0.0
H349 H 0.38617 0.56202 0.67833 0.0
H350 H 0.6255 0.53055 0.7073 0.0
H351 H 0.60983 0.51713 0.65078 0.0
C352 C 0.3233 0.45949 0.55034 0.0
C353 C 0.38992 0.44929 0.568 0.0
C354 C 0.33946 0.47581 0.55043 0.0
C355 C 0.42293 0.48232 0.56797 0.0
C356 C 0.48695 0.47219 0.58676 0.0
C357 C 0.47069 0.45592 0.5868 0.0
C358 C 0.4452 0.49957 0.56636 0.0
C359 C 0.45956 0.50775 0.59768 0.0
C360 C 0.45283 0.50798 0.53429 0.0
C361 C 0.4444 0.50004 0.50013 0.0
C362 C 0.50861 0.48748 0.49182 0.0
C363 C 0.49967 0.47998 0.45967 0.0
C364 C 0.42734 0.485 0.4355 0.0
C365 C 0.36399 0.49758 0.44339 0.0
C366 C 0.37252 0.50511 0.47552 0.0
C367 C 0.61406 0.57223 0.58072 0.0
C368 C 0.54977 0.58254 0.56229 0.0
C369 C 0.59509 0.55598 0.58147 0.0
C370 C 0.51091 0.54963 0.56407 0.0
C371 C 0.44832 0.55984 0.54494 0.0
C372 C 0.46745 0.57603 0.54402 0.0
C373 C 0.48733 0.53242 0.56576 0.0
C374 C 0.47281 0.52424 0.53445 0.0
C375 C 0.47959 0.52402 0.59783 0.0
C376 C 0.48845 0.53198 0.63196 0.0
C377 C 0.42507 0.54465 0.64018 0.0
C378 C 0.43479 0.55223 0.67221 0.0
C379 C 0.50709 0.54716 0.69636 0.0
C380 C 0.56961 0.53448 0.68856 0.0
C381 C 0.56029 0.52687 0.65655 0.0
H382 H 0.51454 0.55305 0.72113 0.0
H383 H 0.42053 0.47918 0.41063 0.0
H384 H 0.88221 0.12441 0.15647 0.0
H385 H 0.8884 0.12179 0.21996 0.0
H386 H 0.14512 0.15316 0.22252 0.0
H387 H 0.14035 0.1555 0.15838 0.0
H388 H 0.1538 0.12995 0.27435 0.0
H389 H 0.91278 0.16766 0.23102 0.0
H390 H 0.7693 0.17654 0.19494 0.0
H391 H 0.57597 0.14255 0.24528 0.0
H392 H 0.71886 0.13328 0.28127 0.0
H393 H 0.10336 0.16388 0.4383 0.0
H394 H 0.10506 0.15972 0.37569 0.0
H395 H 0.84855 0.12857 0.38539 0.0
H396 H 0.84624 0.13271 0.44899 0.0
H397 H 0.83615 0.14909 0.32811 0.0
H398 H 0.07546 0.11302 0.37549 0.0
H399 H 0.21951 0.10454 0.41173 0.0
H400 H 0.41649 0.13566 0.35441 0.0
H401 H 0.27324 0.14455 0.31819 0.0
C402 C 0.94206 0.13033 0.17052 0.0
C403 C 0.01067 0.14019 0.15273 0.0
C404 C 0.9451 0.12891 0.20678 0.0
C405 C 0.01544 0.1376 0.22603 0.0
C406 C 0.08977 0.14642 0.20813 0.0
C407 C 0.08749 0.1477 0.17156 0.0
C408 C 0.0042 0.13873 0.26453 0.0
C409 C 0.08479 0.13426 0.28612 0.0
C410 C 0.91301 0.144 0.27992 0.0
C411 C 0.82676 0.14967 0.25856 0.0
C412 C 0.83985 0.162 0.23421 0.0
C413 C 0.75863 0.16711 0.21379 0.0
C414 C 0.66364 0.16009 0.21775 0.0
C415 C 0.64964 0.14796 0.2422 0.0
C416 C 0.73071 0.14278 0.26262 0.0
C417 C 0.0466 0.1562 0.42728 0.0
C418 C 0.97515 0.1485 0.44873 0.0
C419 C 0.04814 0.15378 0.3914 0.0
C420 C 0.97862 0.14354 0.37597 0.0
C421 C 0.90363 0.1364 0.39691 0.0
C422 C 0.90203 0.13882 0.43314 0.0
C423 C 0.98602 0.14042 0.33798 0.0
C424 C 0.90477 0.14459 0.31643 0.0
C425 C 0.07668 0.13491 0.32267 0.0
C426 C 0.16331 0.12954 0.34428 0.0
C427 C 0.1493 0.11816 0.37078 0.0
C428 C 0.23086 0.11326 0.3913 0.0
C429 C 0.32705 0.11958 0.38542 0.0
C430 C 0.34191 0.13079 0.35895 0.0
C431 C 0.26056 0.13575 0.3384 0.0
H432 H 0.39011 0.11577 0.40133 0.0
H433 H 0.60084 0.16406 0.20192 0.0
H434 H 0.2895 0.91173 0.4453 0.0
H435 H 0.30418 0.91482 0.38136 0.0
H436 H 0.12855 0.87254 0.36769 0.0
H437 H 0.11432 0.86945 0.43081 0.0
H438 H 0.27379 0.874 0.31942 0.0
H439 H 0.01809 0.90882 0.3639 0.0
H440 H 0.9564 0.93003 0.40167 0.0
H441 H 0.16798 0.96226 0.35456 0.0
H442 H 0.23183 0.94114 0.31674 0.0
H443 H 0.03439 0.8818 0.15452 0.0
H444 H 0.07683 0.87936 0.21643 0.0
H445 H 0.24068 0.9232 0.21083 0.0
H446 H 0.19741 0.92583 0.14888 0.0
H447 H 0.12551 0.92246 0.26814 0.0
H448 H 0.36463 0.88737 0.21749 0.0
H449 H 0.4219 0.86552 0.18071 0.0
H450 H 0.23743 0.83324 0.23986 0.0
H451 H 0.17798 0.85494 0.27672 0.0
C452 C 0.25674 0.90288 0.42858 0.0
C453 C 0.20087 0.89034 0.44314 0.0
C454 C 0.2641 0.90474 0.39201 0.0
C455 C 0.2162 0.89402 0.36944 0.0
C456 C 0.16614 0.88099 0.38423 0.0
C457 C 0.15802 0.87924 0.42047 0.0
C458 C 0.21106 0.89669 0.33067 0.0
C459 C 0.24119 0.8846 0.30825 0.0
C460 C 0.17001 0.91059 0.31574 0.0
C461 C 0.13047 0.92338 0.33781 0.0
C462 C 0.0518 0.92041 0.36173 0.0
C463 C 0.01643 0.93241 0.38312 0.0
C464 C 0.0585 0.94746 0.38059 0.0
C465 C 0.13565 0.95057 0.35652 0.0
C466 C 0.17142 0.9386 0.33508 0.0
C467 C 0.08033 0.89087 0.16627 0.0
C468 C 0.11268 0.90399 0.1464 0.0
C469 C 0.1049 0.88944 0.20183 0.0
C470 C 0.16306 0.90102 0.21856 0.0
C471 C 0.19589 0.91408 0.19874 0.0
C472 C 0.17142 0.91552 0.16314 0.0
C473 C 0.18698 0.89965 0.25682 0.0
C474 C 0.15989 0.91198 0.27917 0.0
C475 C 0.2303 0.88591 0.27171 0.0
C476 C 0.26629 0.87281 0.24971 0.0
C477 C 0.33575 0.87563 0.22251 0.0
C478 C 0.36869 0.86327 0.20167 0.0
C479 C 0.33318 0.84801 0.2079 0.0
C480 C 0.26483 0.84507 0.23505 0.0
C481 C 0.2316 0.85739 0.25596 0.0
H482 H 0.35874 0.83846 0.19173 0.0
H483 H 0.0311 0.9567 0.39727 0.0
H484 H 0.30968 0.87995 0.65843 0.0
H485 H 0.3266 0.87833 0.72254 0.0
H486 H 0.10559 0.91509 0.73316 0.0
H487 H 0.08892 0.91668 0.66984 0.0
H488 H 0.25219 0.91838 0.78128 0.0
H489 H 0.03956 0.87592 0.73843 0.0
H490 H 0.00784 0.85245 0.70274 0.0
H491 H 0.24916 0.82817 0.75494 0.0
H492 H 0.28301 0.85159 0.7907 0.0
H493 H 0.01557 0.90929 0.94484 0.0
H494 H 0.06069 0.91104 0.88321 0.0
H495 H 0.24847 0.86999 0.89449 0.0
H496 H 0.20066 0.86787 0.95624 0.0
H497 H 0.14989 0.86771 0.83623 0.0
H498 H 0.34886 0.90872 0.88477 0.0
H499 H 0.38461 0.93221 0.9199 0.0
H500 H 0.17861 0.95921 0.85711 0.0
H501 H 0.14065 0.93584 0.82184 0.0
C502 C 0.26741 0.888 0.6745 0.0
C503 C 0.1984 0.89851 0.65909 0.0
C504 C 0.27606 0.88695 0.71117 0.0
C505 C 0.21623 0.89644 0.73294 0.0
C506 C 0.15256 0.90761 0.71723 0.0
C507 C 0.1432 0.90853 0.68091 0.0
C508 C 0.21298 0.89424 0.77186 0.0
C509 C 0.22967 0.9073 0.79328 0.0
C510 C 0.18619 0.87971 0.78788 0.0
C511 C 0.1645 0.86554 0.76695 0.0
C512 C 0.08614 0.8656 0.74217 0.0
C513 C 0.06776 0.85231 0.72195 0.0
C514 C 0.12665 0.83885 0.7265 0.0
C515 C 0.20373 0.83862 0.75141 0.0
C516 C 0.2225 0.85189 0.77168 0.0
C517 C 0.06718 0.90068 0.93441 0.0
C518 C 0.10479 0.88848 0.95583 0.0
C519 C 0.09351 0.90174 0.89898 0.0
C520 C 0.1598 0.89083 0.88389 0.0
C521 C 0.19756 0.87863 0.90524 0.0
C522 C 0.17043 0.87746 0.94071 0.0
C523 C 0.18684 0.89199 0.84577 0.0
C524 C 0.1743 0.87874 0.82447 0.0
C525 C 0.21822 0.90635 0.82985 0.0
C526 C 0.24143 0.92049 0.8508 0.0
C527 C 0.31075 0.91965 0.87857 0.0
C528 C 0.33147 0.93294 0.89849 0.0
C529 C 0.28378 0.94718 0.89078 0.0
C530 C 0.21548 0.94817 0.86305 0.0
C531 C 0.19447 0.9349 0.84305 0.0
H532 H 0.29985 0.95746 0.90625 0.0
H533 H 0.11239 0.82859 0.71076 0.0
H534 H 0.08035 0.1292 0.95244 0.0
H535 H 0.04762 0.12136 0.89184 0.0
H536 H 0.99557 0.16977 0.86316 0.0
H537 H 0.03072 0.17775 0.92276 0.0
H538 H 0.83063 0.14685 0.84801 0.0
H539 H 0.19092 0.15639 0.83375 0.0
H540 H 0.37169 0.15225 0.84627 0.0
H541 H 0.34124 0.10342 0.82111 0.0
H542 H 0.15982 0.10723 0.80887 0.0
H543 H 0.83216 0.15864 0.66469 0.0
H544 H 0.83155 0.15713 0.72849 0.0
H545 H 0.95091 0.11006 0.72422 0.0
H546 H 0.9538 0.11181 0.66043 0.0
H547 H 0.07234 0.12746 0.7596 0.0
H548 H 0.71991 0.11826 0.76482 0.0
H549 H 0.53868 0.12168 0.75216 0.0
H550 H 0.54853 0.1681 0.79483 0.0
H551 H 0.73022 0.16507 0.80731 0.0
C552 C 0.0648 0.13821 0.93301 0.0
C553 C 0.05745 0.1541 0.9426 0.0
C554 C 0.04538 0.1337 0.89849 0.0
C555 C 0.01759 0.14499 0.87327 0.0
C556 C 0.01572 0.16087 0.88236 0.0
C557 C 0.03645 0.1654 0.9165 0.0
C558 C 0.98483 0.1404 0.8378 0.0
C559 C 0.88321 0.14264 0.82851 0.0
C560 C 0.05291 0.13439 0.81296 0.0
C561 C 0.16143 0.13204 0.82099 0.0
C562 C 0.2224 0.14472 0.83139 0.0
C563 C 0.32505 0.14245 0.83833 0.0
C564 C 0.36775 0.12756 0.83473 0.0
C565 C 0.30795 0.11493 0.82406 0.0
C566 C 0.20523 0.11714 0.81711 0.0
C567 C 0.85248 0.14766 0.67741 0.0
C568 C 0.89113 0.13523 0.65779 0.0
C569 C 0.85297 0.14682 0.71395 0.0
C570 C 0.89174 0.13348 0.73135 0.0
C571 C 0.92095 0.12048 0.71151 0.0
C572 C 0.92119 0.12138 0.67505 0.0
C573 C 0.91767 0.1342 0.76917 0.0
C574 C 0.01842 0.1313 0.77905 0.0
C575 C 0.84834 0.13948 0.79462 0.0
C576 C 0.73918 0.14148 0.78673 0.0
C577 C 0.68379 0.12927 0.77119 0.0
C578 C 0.58088 0.13113 0.76409 0.0
C579 C 0.53228 0.14513 0.77252 0.0
C580 C 0.58638 0.15728 0.78821 0.0
C581 C 0.68933 0.15549 0.79535 0.0
H582 H 0.4526 0.14654 0.76703 0.0
H583 H 0.4473 0.12583 0.84 0.0
H584 H 0.43737 0.67421 0.16267 0.0
H585 H 0.43789 0.67122 0.22591 0.0
H586 H 0.62567 0.63009 0.21725 0.0
H587 H 0.62449 0.63304 0.15316 0.0
H588 H 0.45604 0.62441 0.25573 0.0
H589 H 0.71679 0.6632 0.25523 0.0
H590 H 0.79987 0.68817 0.2387 0.0
H591 H 0.55847 0.71399 0.28594 0.0
H592 H 0.47311 0.68916 0.30232 0.0
H593 H 0.53994 0.61746 0.43875 0.0
H594 H 0.54382 0.61962 0.3752 0.0
H595 H 0.34484 0.65961 0.37947 0.0
H596 H 0.34021 0.65734 0.44362 0.0
H597 H 0.52407 0.66557 0.34345 0.0
H598 H 0.26221 0.62682 0.34292 0.0
H599 H 0.178 0.60187 0.35885 0.0
H600 H 0.42217 0.576 0.31345 0.0
H601 H 0.50866 0.60082 0.29768 0.0
C602 C 0.48131 0.66479 0.17429 0.0
C603 C 0.53112 0.65387 0.15318 0.0
C604 C 0.48167 0.66311 0.21046 0.0
C605 C 0.53192 0.65045 0.22636 0.0
C606 C 0.58656 0.63996 0.20544 0.0
C607 C 0.58687 0.64173 0.16897 0.0
C608 C 0.51792 0.6475 0.26431 0.0
C609 C 0.47292 0.63327 0.27503 0.0
C610 C 0.5365 0.65931 0.28927 0.0
C611 C 0.58812 0.67429 0.27977 0.0
C612 C 0.68101 0.67419 0.26188 0.0
C613 C 0.72859 0.68833 0.25257 0.0
C614 C 0.68435 0.70266 0.26118 0.0
C615 C 0.59261 0.70288 0.27925 0.0
C616 C 0.54466 0.68877 0.28861 0.0
C617 C 0.49429 0.62638 0.42603 0.0
C618 C 0.43928 0.63718 0.44588 0.0
C619 C 0.49668 0.62762 0.38975 0.0
C620 C 0.44483 0.63979 0.37262 0.0
C621 C 0.38526 0.65012 0.39227 0.0
C622 C 0.38168 0.64873 0.42877 0.0
C623 C 0.46191 0.64252 0.33478 0.0
C624 C 0.50755 0.6567 0.32413 0.0
C625 C 0.4441 0.63066 0.30991 0.0
C626 C 0.3924 0.6157 0.31941 0.0
C627 C 0.29845 0.61582 0.33661 0.0
C628 C 0.25019 0.60169 0.34555 0.0
C629 C 0.29483 0.58736 0.33725 0.0
C630 C 0.38774 0.58712 0.31991 0.0
C631 C 0.43636 0.60121 0.31092 0.0
H632 H 0.25732 0.57643 0.34418 0.0
H633 H 0.72125 0.71359 0.25391 0.0
H634 H 0.4226 0.36826 0.43892 0.0
H635 H 0.40966 0.37214 0.37607 0.0
H636 H 0.58645 0.41468 0.38328 0.0
H637 H 0.59941 0.4108 0.44704 0.0
H638 H 0.41068 0.41894 0.34545 0.0
H639 H 0.68616 0.38321 0.34452 0.0
H640 H 0.78173 0.35933 0.36006 0.0
H641 H 0.54976 0.33062 0.31488 0.0
H642 H 0.45199 0.35432 0.2995 0.0
H643 H 0.4875 0.42562 0.16087 0.0
H644 H 0.48865 0.42456 0.22459 0.0
H645 H 0.31328 0.38174 0.22252 0.0
H646 H 0.31179 0.38288 0.15831 0.0
H647 H 0.49163 0.37836 0.25783 0.0
H648 H 0.21654 0.41465 0.25865 0.0
H649 H 0.12432 0.4388 0.24279 0.0
H650 H 0.36043 0.46685 0.28748 0.0
H651 H 0.45488 0.44287 0.30317 0.0
C652 C 0.46052 0.3783 0.42711 0.0
C653 C 0.51227 0.38921 0.44787 0.0
C654 C 0.45314 0.38049 0.39111 0.0
C655 C 0.49722 0.39367 0.37486 0.0
C656 C 0.55192 0.4044 0.39531 0.0
C657 C 0.56022 0.40211 0.4316 0.0
C658 C 0.48023 0.39647 0.3369 0.0
C659 C 0.43007 0.41021 0.32616 0.0
C660 C 0.50284 0.38487 0.31188 0.0
C661 C 0.56129 0.37055 0.32113 0.0
C662 C 0.65506 0.3718 0.33817 0.0
C663 C 0.70973 0.35829 0.34689 0.0
C664 C 0.67173 0.34346 0.33854 0.0
C665 C 0.57905 0.34211 0.32137 0.0
C666 C 0.52403 0.35558 0.3126 0.0
C667 C 0.44521 0.41638 0.1741 0.0
C668 C 0.3982 0.40447 0.15483 0.0
C669 C 0.44632 0.41574 0.21053 0.0
C670 C 0.40127 0.40306 0.22842 0.0
C671 C 0.34835 0.39166 0.20924 0.0
C672 C 0.34623 0.39241 0.17263 0.0
C673 C 0.42098 0.40075 0.26637 0.0
C674 C 0.4721 0.3871 0.27709 0.0
C675 C 0.39981 0.41248 0.29126 0.0
C676 C 0.34327 0.42694 0.2818 0.0
C677 C 0.24929 0.42597 0.26482 0.0
C678 C 0.1965 0.43963 0.25592 0.0
C679 C 0.23661 0.45435 0.26404 0.0
C680 C 0.32951 0.45544 0.28116 0.0
C681 C 0.38265 0.44181 0.2901 0.0
H682 H 0.1956 0.46492 0.25714 0.0
H683 H 0.71419 0.33302 0.34531 0.0
H684 H 0.43887 0.36953 0.93173 0.0
H685 H 0.46728 0.37406 0.86947 0.0
H686 H 0.40314 0.4233 0.88219 0.0
H687 H 0.37356 0.41872 0.94501 0.0
H688 H 0.33961 0.40964 0.81468 0.0
H689 H 0.63166 0.4148 0.88744 0.0
H690 H 0.74739 0.40663 0.93459 0.0
H691 H 0.81691 0.36437 0.87934 0.0
H692 H 0.69992 0.37214 0.83216 0.0
H693 H 0.57132 0.42199 0.65222 0.0
H694 H 0.55894 0.42644 0.71523 0.0
H695 H 0.62778 0.37762 0.73479 0.0
H696 H 0.64059 0.37327 0.67198 0.0
H697 H 0.69617 0.39621 0.78785 0.0
H698 H 0.38831 0.38893 0.72078 0.0
H699 H 0.27013 0.39601 0.67346 0.0
H700 H 0.2296 0.44167 0.71791 0.0
H701 H 0.34906 0.43494 0.7652 0.0
C702 C 0.42618 0.38119 0.92097 0.0
C703 C 0.40331 0.39375 0.94303 0.0
C704 C 0.44341 0.3838 0.88546 0.0
C705 C 0.43948 0.39907 0.87137 0.0
C706 C 0.4068 0.41144 0.8926 0.0
C707 C 0.3889 0.40879 0.92838 0.0
C708 C 0.48198 0.4021 0.83599 0.0
C709 C 0.41805 0.40706 0.80892 0.0
C710 C 0.58425 0.39858 0.82841 0.0
C711 C 0.65645 0.39401 0.85636 0.0
C712 C 0.67111 0.40371 0.88544 0.0
C713 C 0.73696 0.39916 0.91218 0.0
C714 C 0.78939 0.38498 0.90998 0.0
C715 C 0.77622 0.37535 0.881 0.0
C716 C 0.71018 0.37983 0.85424 0.0
C717 C 0.59011 0.41248 0.67011 0.0
C718 C 0.60892 0.39736 0.6574 0.0
C719 C 0.58128 0.41496 0.70609 0.0
C720 C 0.59016 0.40227 0.72971 0.0
C721 C 0.62043 0.38758 0.71712 0.0
C722 C 0.62895 0.38512 0.6812 0.0
C723 C 0.55349 0.40349 0.76633 0.0
C724 C 0.61841 0.39921 0.7937 0.0
C725 C 0.45213 0.4076 0.77412 0.0
C726 C 0.37838 0.4115 0.74627 0.0
C727 C 0.35455 0.40051 0.72035 0.0
C728 C 0.2874 0.40446 0.69354 0.0
C729 C 0.2426 0.4193 0.69262 0.0
C730 C 0.26455 0.4302 0.71861 0.0
C731 C 0.33198 0.42632 0.74542 0.0
H732 H 0.19071 0.42235 0.67182 0.0
H733 H 0.84033 0.38147 0.93071 0.0
H734 H 0.59053 0.6233 0.94298 0.0
H735 H 0.57271 0.62025 0.87953 0.0
H736 H 0.50949 0.66976 0.86897 0.0
H737 H 0.52745 0.67277 0.93204 0.0
H738 H 0.35207 0.65024 0.84727 0.0
H739 H 0.71069 0.65601 0.8316 0.0
H740 H 0.89047 0.64981 0.84096 0.0
H741 H 0.8415 0.60311 0.80304 0.0
H742 H 0.66081 0.60893 0.79404 0.0
H743 H 0.34303 0.66625 0.66512 0.0
H744 H 0.35421 0.66388 0.72868 0.0
H745 H 0.42166 0.61454 0.71935 0.0
H746 H 0.40973 0.61696 0.65565 0.0
H747 H 0.57104 0.63054 0.75238 0.0
H748 H 0.21502 0.62533 0.76385 0.0
H749 H 0.03543 0.63156 0.75405 0.0
H750 H 0.07857 0.67695 0.79967 0.0
H751 H 0.25883 0.67109 0.80932 0.0
C752 C 0.57886 0.63364 0.92675 0.0
C753 C 0.56206 0.64831 0.94207 0.0
C754 C 0.56736 0.63187 0.89063 0.0
C755 C 0.53847 0.64476 0.8697 0.0
C756 C 0.5313 0.65967 0.88471 0.0
C757 C 0.54301 0.66143 0.92062 0.0
C758 C 0.50161 0.64246 0.83359 0.0
C759 C 0.40017 0.64608 0.82638 0.0
C760 C 0.56337 0.63643 0.80685 0.0
C761 C 0.67178 0.63284 0.81263 0.0
C762 C 0.73787 0.64435 0.8257 0.0
C763 C 0.84003 0.64092 0.83086 0.0
C764 C 0.87728 0.62606 0.82275 0.0
C765 C 0.81246 0.6146 0.80941 0.0
C766 C 0.71015 0.61796 0.80428 0.0
C767 C 0.35394 0.65473 0.67682 0.0
C768 C 0.37299 0.6417 0.65576 0.0
C769 C 0.36148 0.65339 0.71312 0.0
C770 C 0.38934 0.63903 0.72876 0.0
C771 C 0.39998 0.6257 0.70782 0.0
C772 C 0.39151 0.62703 0.67152 0.0
C773 C 0.42188 0.63865 0.76582 0.0
C774 C 0.52244 0.6345 0.77332 0.0
C775 C 0.35928 0.64418 0.7929 0.0
C776 C 0.25085 0.64781 0.78703 0.0
C777 C 0.18652 0.6367 0.7715 0.0
C778 C 0.08453 0.64016 0.76601 0.0
C779 C 0.04576 0.65466 0.77608 0.0
C780 C 0.10879 0.66572 0.79181 0.0
C781 C 0.21087 0.66233 0.79733 0.0
H782 H 0.96678 0.65732 0.77181 0.0
H783 H 0.95646 0.62344 0.82668 0.0
H784 H 0.29633 0.34063 0.02771 0.0
H785 H 0.21554 0.3149 0.0299 0.0
H786 H 0.46407 0.29665 0.09037 0.0
H787 H 0.54541 0.32256 0.08878 0.0
H788 H 0.40582 0.27606 0.03974 0.0
H789 H 0.24158 0.3051 0.12965 0.0
H790 H 0.15047 0.3275 0.15491 0.0
H791 H 0.90502 0.32026 0.08357 0.0
H792 H 0.99538 0.29794 0.05751 0.0
H793 H 0.15344 0.20501 0.08882 0.0
H794 H 0.24151 0.23028 0.08995 0.0
H795 H 0.99426 0.2519 0.03444 0.0
H796 H 0.90574 0.22667 0.03317 0.0
H797 H 0.0558 0.27062 0.0849 0.0
H798 H 0.22073 0.24223 0.99371 0.0
H799 H 0.31152 0.22001 0.96754 0.0
H800 H 0.55494 0.22612 0.04024 0.0
H801 H 0.46485 0.24825 0.06719 0.0
C802 C 0.33387 0.33127 0.04186 0.0
C803 C 0.42734 0.3339 0.05849 0.0
C804 C 0.28736 0.31646 0.04298 0.0
C805 C 0.33263 0.30381 0.06077 0.0
C806 C 0.42726 0.30621 0.07656 0.0
C807 C 0.47392 0.32108 0.07555 0.0
C808 C 0.28053 0.28818 0.06291 0.0
C809 C 0.32989 0.27483 0.05013 0.0
C810 C 0.18043 0.28655 0.07573 0.0
C811 C 0.12572 0.29994 0.09141 0.0
C812 C 0.16854 0.30836 0.11916 0.0
C813 C 0.11697 0.32103 0.13365 0.0
C814 C 0.02213 0.32532 0.12079 0.0
C815 C 0.97855 0.31693 0.09347 0.0
C816 C 0.02988 0.30426 0.07884 0.0
C817 C 0.1178 0.21509 0.07663 0.0
C818 C 0.02231 0.21365 0.06068 0.0
C819 C 0.16849 0.22959 0.0773 0.0
C820 C 0.1256 0.24305 0.0618 0.0
C821 C 0.02935 0.24174 0.04657 0.0
C822 C 0.97845 0.22725 0.04596 0.0
C823 C 0.18069 0.25847 0.06147 0.0
C824 C 0.13187 0.27181 0.07461 0.0
C825 C 0.28115 0.26008 0.04888 0.0
C826 C 0.3355 0.24679 0.03272 0.0
C827 C 0.29322 0.23876 1.00431 0.0
C828 C 0.34462 0.22619 0.9893 0.0
C829 C 0.4388 0.22163 1.00229 0.0
C830 C 0.48189 0.22965 0.03026 0.0
C831 C 0.43071 0.24221 0.04539 0.0
H832 H 0.47849 0.2119 0.99063 0.0
H833 H 0.98232 0.33514 0.13205 0.0
H834 H 0.63691 0.70739 0.05024 0.0
H835 H 0.69612 0.73434 0.04875 0.0
H836 H 0.39419 0.75036 0.02655 0.0
H837 H 0.33412 0.72326 0.0264 0.0
H838 H 0.52197 0.76643 0.98801 0.0
H839 H 0.50536 0.75322 0.10961 0.0
H840 H 0.53911 0.73754 0.16283 0.0
H841 H 0.85785 0.74525 0.14996 0.0
H842 H 0.82608 0.76081 0.09635 0.0
H843 H 0.58064 0.84599 0.04039 0.0
H844 H 0.53425 0.8183 0.03477 0.0
H845 H 0.84844 0.80539 0.04128 0.0
H846 H 0.89528 0.8333 0.04686 0.0
H847 H 0.72229 0.78764 0.08638 0.0
H848 H 0.73257 0.80236 0.96531 0.0
H849 H 0.69222 0.81859 0.9135 0.0
H850 H 0.3763 0.80871 0.92758 0.0
H851 H 0.41463 0.79259 0.9798 0.0
C852 C 0.58226 0.71647 0.04474 0.0
C853 C 0.47974 0.7128 0.03851 0.0
C854 C 0.61666 0.73205 0.04426 0.0
C855 C 0.54967 0.74453 0.03812 0.0
C856 C 0.44768 0.741 0.0315 0.0
C857 C 0.41315 0.72537 0.03169 0.0
C858 C 0.58612 0.76122 0.03848 0.0
C859 C 0.56468 0.77108 1.00976 0.0
C860 C 0.64399 0.76733 0.06644 0.0
C861 C 0.66337 0.75804 0.09875 0.0
C862 C 0.5827 0.75148 0.11798 0.0
C863 C 0.60147 0.74263 0.14824 0.0
C864 C 0.70058 0.74036 0.15971 0.0
C865 C 0.78112 0.74699 0.141 0.0
C866 C 0.76278 0.75584 0.11069 0.0
C867 C 0.63996 0.83727 0.04034 0.0
C868 C 0.74165 0.84184 0.04411 0.0
C869 C 0.61338 0.82143 0.03698 0.0
C870 C 0.68773 0.80971 0.03751 0.0
C871 C 0.7897 0.81422 0.04076 0.0
C872 C 0.81652 0.83016 0.04366 0.0
C873 C 0.65775 0.79279 0.03602 0.0
C874 C 0.68015 0.78292 0.06458 0.0
C875 C 0.59976 0.78672 1.00813 0.0
C876 C 0.57645 0.79637 0.97667 0.0
C877 C 0.65441 0.80375 0.95754 0.0
C878 C 0.63192 0.81291 0.92806 0.0
C879 C 0.53174 0.81471 0.9173 0.0
C880 C 0.45386 0.80732 0.93596 0.0
C881 C 0.47595 0.79815 0.96548 0.0
H882 H 0.51448 0.8218 0.89447 0.0
H883 H 0.71494 0.7335 0.18315 0.0
H884 H 0.02324 0.82063 0.58915 0.0
H885 H 0.09069 0.79393 0.58915 0.0
H886 H 0.33886 0.80943 0.52422 0.0
H887 H 0.26988 0.83593 0.52287 0.0
H888 H 0.27285 0.78222 0.50208 0.0
H889 H 0.36256 0.80281 0.61428 0.0
H890 H 0.32996 0.81498 0.67134 0.0
H891 H 0.13763 0.77625 0.70044 0.0
H892 H 0.16773 0.76397 0.64332 0.0
H893 H 0.59063 0.71582 0.52529 0.0
H894 H 0.52316 0.74253 0.52679 0.0
H895 H 0.27322 0.72622 0.58992 0.0
H896 H 0.34187 0.69964 0.58951 0.0
H897 H 0.33913 0.75374 0.61335 0.0
H898 H 0.2478 0.73334 0.50125 0.0
H899 H 0.27842 0.72122 0.44402 0.0
H900 H 0.47299 0.75967 0.41481 0.0
H901 H 0.4446 0.77192 0.47208 0.0
C902 C 0.09155 0.81838 0.57455 0.0
C903 C 0.14123 0.83061 0.55625 0.0
C904 C 0.1308 0.80307 0.57488 0.0
C905 C 0.22113 0.79962 0.55718 0.0
C906 C 0.26952 0.81173 0.53829 0.0
C907 C 0.23025 0.82699 0.53783 0.0
C908 C 0.26546 0.78346 0.55816 0.0
C909 C 0.28852 0.7761 0.52647 0.0
C910 C 0.28413 0.77523 0.58989 0.0
C911 C 0.26667 0.78254 0.62437 0.0
C912 C 0.31274 0.79694 0.63274 0.0
C913 C 0.29478 0.80385 0.66511 0.0
C914 C 0.23164 0.7964 0.68947 0.0
C915 C 0.18645 0.78201 0.68153 0.0
C916 C 0.20396 0.77507 0.64917 0.0
C917 C 0.52199 0.71791 0.53985 0.0
C918 C 0.47148 0.70543 0.557 0.0
C919 C 0.48282 0.73321 0.54041 0.0
C920 C 0.39192 0.73643 0.558 0.0
C921 C 0.34301 0.72409 0.57597 0.0
C922 C 0.38207 0.70881 0.57543 0.0
C923 C 0.34689 0.75254 0.55727 0.0
C924 C 0.32359 0.75988 0.58899 0.0
C925 C 0.32797 0.76077 0.52558 0.0
C926 C 0.34488 0.75346 0.49109 0.0
C927 C 0.29772 0.73915 0.48272 0.0
C928 C 0.31457 0.73227 0.45026 0.0
C929 C 0.37783 0.73965 0.42584 0.0
C930 C 0.42414 0.75396 0.43378 0.0
C931 C 0.40764 0.76088 0.46623 0.0
H932 H 0.39078 0.7343 0.40072 0.0
H933 H 0.21793 0.80176 0.71452 0.0
H934 H 0.41204 0.31511 0.56184 0.0
H935 H 0.49436 0.28943 0.56284 0.0
H936 H 0.78427 0.31196 0.5749 0.0
H937 H 0.70297 0.33759 0.57444 0.0
H938 H 0.79418 0.28912 0.52677 0.0
H939 H 0.66753 0.29365 0.64386 0.0
H940 H 0.53755 0.29791 0.68892 0.0
H941 H 0.3694 0.25823 0.65172 0.0
H942 H 0.49779 0.25386 0.60612 0.0
H943 H 0.07993 0.22113 0.57174 0.0
H944 H -0.00215 0.2468 0.57205 0.0
H945 H 0.70605 0.22424 0.56701 0.0
H946 H 0.7869 0.19861 0.56821 0.0
H947 H 0.69681 0.24721 0.61146 0.0
H948 H 0.82025 0.24257 0.49434 0.0
H949 H 0.94732 0.23829 0.44832 0.0
H950 H 0.11787 0.27799 0.48412 0.0
H951 H 0.99242 0.28239 0.53067 0.0
C952 C 0.49315 0.31466 0.56505 0.0
C953 C 0.55026 0.3286 0.56801 0.0
C954 C 0.54032 0.29991 0.56555 0.0
C955 C 0.64576 0.29869 0.56916 0.0
C956 C 0.70296 0.31254 0.57192 0.0
C957 C 0.65598 0.32727 0.57152 0.0
C958 C 0.69676 0.28302 0.56992 0.0
C959 C 0.77373 0.28003 0.5456 0.0
C960 C 0.66881 0.27096 0.59388 0.0
C961 C 0.59177 0.27352 0.62137 0.0
C962 C 0.60245 0.28591 0.64512 0.0
C963 C 0.52913 0.28833 0.67079 0.0
C964 C 0.44514 0.27837 0.67312 0.0
C965 C 0.43443 0.26595 0.64985 0.0
C966 C 0.50749 0.26348 0.62411 0.0
C967 C -0.00169 0.22156 0.57096 0.0
C968 C 0.9407 0.20762 0.56971 0.0
C969 C 0.95128 0.23633 0.57078 0.0
C970 C 0.84539 0.23757 0.56902 0.0
C971 C 0.78774 0.22369 0.56822 0.0
C972 C 0.83456 0.20895 0.56854 0.0
C973 C 0.7944 0.25327 0.56826 0.0
C974 C 0.71739 0.25628 0.59259 0.0
C975 C 0.82195 0.26532 0.54417 0.0
C976 C 0.89749 0.26271 0.51621 0.0
C977 C 0.88527 0.25032 0.49257 0.0
C978 C 0.95692 0.24788 0.46636 0.0
C979 C 0.04076 0.25783 0.46336 0.0
C980 C 0.05298 0.27027 0.48651 0.0
C981 C 0.98158 0.27275 0.5128 0.0
H982 H 0.09614 0.25593 0.44304 0.0
H983 H 0.38846 0.28027 0.69301 0.0
loop_
_geom_bond_atom_site_label_1
_geom_bond_atom_site_label_2
_geom_bond_distance
_geom_bond_site_symmetry_2
_ccdc_geom_bond_type
Cu0 N1 1.999 . S
Cu0 O6 1.974 . S
Cu0 N11 1.985 . S
Cu0 O20 1.959 1_554 S
N1 Cu0 1.999 . S
N1 C3 1.263 . S
N1 C5 1.389 . S
N2 C3 1.358 . S
N2 C4 1.400 . S
C3 N1 1.263 . S
C3 N2 1.358 . S
C3 H9 0.930 . S
C4 N2 1.400 . S
C4 C5 1.351 . S
C4 H21 0.930 . S
C5 N1 1.389 . S
C5 C4 1.351 . S
C5 H10 0.930 1_554 S
O6 Cu0 1.974 . S
O6 C16 1.282 . S
C7 O8 1.261 1_455 S
C7 O20 1.251 . S
O8 C7 1.261 1_655 S
H9 C3 0.930 . S
H10 C5 0.930 1_556 S
N11 Cu0 1.985 . S
N11 C13 1.335 . S
N11 C14 1.390 . S
N12 C13 1.345 . S
N12 C15 1.336 . S
C13 N11 1.335 . S
C13 N12 1.345 . S
C13 H18 0.930 . S
C14 N11 1.390 . S
C14 C15 1.346 . S
C14 H19 0.930 . S
C15 N12 1.336 . S
C15 C14 1.346 . S
C15 H22 0.929 . S
C16 O6 1.282 . S
C16 O17 1.216 1_455 S
O17 C16 1.216 1_655 S
H18 C13 0.930 . S
H19 C14 0.930 . S
O20 Cu0 1.959 1_556 S
O20 C7 1.251 . S
H21 C4 0.930 . S
H22 C15 0.929 . S
Cu23 N24 1.999 . S
Cu23 O29 1.974 . S
Cu23 N34 1.985 . S
Cu23 O43 1.959 1_554 S
N24 Cu23 1.999 . S
N24 C26 1.263 . S
N24 C28 1.389 . S
N25 C26 1.358 . S
N25 C27 1.400 . S
C26 N24 1.263 . S
C26 N25 1.358 . S
C26 H32 0.930 . S
C27 N25 1.400 . S
C27 C28 1.351 . S
C27 H44 0.930 . S
C28 N24 1.389 . S
C28 C27 1.351 . S
C28 H33 0.930 1_554 S
O29 Cu23 1.974 . S
O29 C39 1.282 . S
C30 O31 1.261 1_655 S
C30 O43 1.251 . S
O31 C30 1.261 1_455 S
H32 C26 0.930 . S
H33 C28 0.930 1_556 S
N34 Cu23 1.985 . S
N34 C36 1.335 . S
N34 C37 1.390 . S
N35 C36 1.345 . S
N35 C38 1.336 . S
C36 N34 1.335 . S
C36 N35 1.345 . S
C36 H41 0.930 . S
C37 N34 1.390 . S
C37 C38 1.346 . S
C37 H42 0.930 . S
C38 N35 1.336 . S
C38 C37 1.346 . S
C38 H45 0.929 . S
C39 O29 1.282 . S
C39 O40 1.216 1_655 S
O40 C39 1.216 1_455 S
H41 C36 0.930 . S
H42 C37 0.930 . S
O43 Cu23 1.959 1_556 S
O43 C30 1.251 . S
H44 C27 0.930 . S
H45 C38 0.929 . S
Cu46 N47 1.999 . S
Cu46 O52 1.974 . S
Cu46 N57 1.985 . S
Cu46 O66 1.959 . S
N47 Cu46 1.999 . S
N47 C49 1.263 . S
N47 C51 1.389 . S
N48 C49 1.358 . S
N48 C50 1.400 . S
C49 N47 1.263 . S
C49 N48 1.358 . S
C49 H55 0.930 . S
C50 N48 1.400 . S
C50 C51 1.351 . S
C50 H67 0.930 . S
C51 N47 1.389 . S
C51 C50 1.351 . S
C51 H56 0.930 . S
O52 Cu46 1.974 . S
O52 C62 1.282 . S
C53 O54 1.261 1_455 S
C53 O66 1.251 . S
O54 C53 1.261 1_655 S
H55 C49 0.930 . S
H56 C51 0.930 . S
N57 Cu46 1.985 . S
N57 C59 1.335 . S
N57 C60 1.390 . S
N58 C59 1.345 . S
N58 C61 1.336 . S
C59 N57 1.335 . S
C59 N58 1.345 . S
C59 H64 0.930 . S
C60 N57 1.390 . S
C60 C61 1.346 . S
C60 H65 0.930 . S
C61 N58 1.336 . S
C61 C60 1.346 . S
C61 H68 0.929 . S
C62 O52 1.282 . S
C62 O63 1.216 1_455 S
O63 C62 1.216 1_655 S
H64 C59 0.930 . S
H65 C60 0.930 . S
O66 Cu46 1.959 . S
O66 C53 1.251 . S
H67 C50 0.930 . S
H68 C61 0.929 . S
Cu69 N70 1.999 . S
Cu69 O75 1.974 . S
Cu69 N80 1.985 . S
Cu69 O89 1.959 . S
N70 Cu69 1.999 . S
N70 C72 1.263 . S
N70 C74 1.389 . S
N71 C72 1.358 . S
N71 C73 1.400 . S
C72 N70 1.263 . S
C72 N71 1.358 . S
C72 H78 0.930 . S
C73 N71 1.400 . S
C73 C74 1.351 . S
C73 H90 0.930 . S
C74 N70 1.389 . S
C74 C73 1.351 . S
C74 H79 0.930 . S
O75 Cu69 1.974 . S
O75 C85 1.282 . S
C76 O77 1.261 1_655 S
C76 O89 1.251 . S
O77 C76 1.261 1_455 S
H78 C72 0.930 . S
H79 C74 0.930 . S
N80 Cu69 1.985 . S
N80 C82 1.335 . S
N80 C83 1.390 . S
N81 C82 1.345 . S
N81 C84 1.336 . S
C82 N80 1.335 . S
C82 N81 1.345 . S
C82 H87 0.930 . S
C83 N80 1.390 . S
C83 C84 1.346 . S
C83 H88 0.930 . S
C84 N81 1.336 . S
C84 C83 1.346 . S
C84 H91 0.929 . S
C85 O75 1.282 . S
C85 O86 1.216 1_655 S
O86 C85 1.216 1_455 S
H87 C82 0.930 . S
H88 C83 0.930 . S
O89 Cu69 1.959 . S
O89 C76 1.251 . S
H90 C73 0.930 . S
H91 C84 0.929 . S
Cu92 N93 1.999 . S
Cu92 O98 1.974 . S
Cu92 N103 1.985 . S
Cu92 O112 1.959 1_554 S
N93 Cu92 1.999 . S
N93 C95 1.263 . S
N93 C97 1.389 . S
N94 C95 1.358 . S
N94 C96 1.400 . S
C95 N93 1.263 . S
C95 N94 1.358 . S
C95 H101 0.930 . S
C96 N94 1.400 . S
C96 C97 1.351 . S
C96 H113 0.930 . S
C97 N93 1.389 . S
C97 C96 1.351 . S
C97 H102 0.930 1_554 S
O98 Cu92 1.974 . S
O98 C108 1.282 . S
C99 O100 1.261 . S
C99 O112 1.251 . S
O100 C99 1.261 . S
H101 C95 0.930 . S
H102 C97 0.930 1_556 S
N103 Cu92 1.985 . S
N103 C105 1.335 . S
N103 C106 1.390 . S
N104 C105 1.345 . S
N104 C107 1.336 . S
C105 N103 1.335 . S
C105 N104 1.345 . S
C105 H110 0.930 . S
C106 N103 1.390 . S
C106 C107 1.346 . S
C106 H111 0.930 . S
C107 N104 1.336 . S
C107 C106 1.346 . S
C107 H114 0.929 . S
C108 O98 1.282 . S
C108 O109 1.216 . S
O109 C108 1.216 . S
H110 C105 0.930 . S
H111 C106 0.930 . S
O112 Cu92 1.959 1_556 S
O112 C99 1.251 . S
H113 C96 0.930 . S
H114 C107 0.929 . S
Cu115 N116 1.999 . S
Cu115 O121 1.974 . S
Cu115 N126 1.985 . S
Cu115 O135 1.959 1_554 S
N116 Cu115 1.999 . S
N116 C118 1.263 . S
N116 C120 1.389 . S
N117 C118 1.358 . S
N117 C119 1.400 . S
C118 N116 1.263 . S
C118 N117 1.358 . S
C118 H124 0.930 . S
C119 N117 1.400 . S
C119 C120 1.351 . S
C119 H136 0.930 . S
C120 N116 1.389 . S
C120 C119 1.351 . S
C120 H125 0.930 1_554 S
O121 Cu115 1.974 . S
O121 C131 1.282 . S
C122 O123 1.261 . S
C122 O135 1.251 . S
O123 C122 1.261 . S
H124 C118 0.930 . S
H125 C120 0.930 1_556 S
N126 Cu115 1.985 . S
N126 C128 1.335 . S
N126 C129 1.390 . S
N127 C128 1.345 . S
N127 C130 1.336 . S
C128 N126 1.335 . S
C128 N127 1.345 . S
C128 H133 0.930 . S
C129 N126 1.390 . S
C129 C130 1.346 . S
C129 H134 0.930 . S
C130 N127 1.336 . S
C130 C129 1.346 . S
C130 H137 0.929 . S
C131 O121 1.282 . S
C131 O132 1.216 . S
O132 C131 1.216 . S
H133 C128 0.930 . S
H134 C129 0.930 . S
O135 Cu115 1.959 1_556 S
O135 C122 1.251 . S
H136 C119 0.930 . S
H137 C130 0.929 . S
Cu138 N139 1.999 . S
Cu138 O144 1.974 . S
Cu138 N149 1.985 . S
Cu138 O158 1.959 . S
N139 Cu138 1.999 . S
N139 C141 1.263 . S
N139 C143 1.389 . S
N140 C141 1.358 . S
N140 C142 1.400 . S
C141 N139 1.263 . S
C141 N140 1.358 . S
C141 H147 0.930 . S
C142 N140 1.400 . S
C142 C143 1.351 . S
C142 H159 0.930 . S
C143 N139 1.389 . S
C143 C142 1.351 . S
C143 H148 0.930 . S
O144 Cu138 1.974 . S
O144 C154 1.282 . S
C145 O146 1.261 . S
C145 O158 1.251 . S
O146 C145 1.261 . S
H147 C141 0.930 . S
H148 C143 0.930 . S
N149 Cu138 1.985 . S
N149 C151 1.335 . S
N149 C152 1.390 . S
N150 C151 1.345 . S
N150 C153 1.336 . S
C151 N149 1.335 . S
C151 N150 1.345 . S
C151 H156 0.930 . S
C152 N149 1.390 . S
C152 C153 1.346 . S
C152 H157 0.930 . S
C153 N150 1.336 . S
C153 C152 1.346 . S
C153 H160 0.929 . S
C154 O144 1.282 . S
C154 O155 1.216 . S
O155 C154 1.216 . S
H156 C151 0.930 . S
H157 C152 0.930 . S
O158 Cu138 1.959 . S
O158 C145 1.251 . S
H159 C142 0.930 . S
H160 C153 0.929 . S
Cu161 N162 1.999 . S
Cu161 O167 1.974 . S
Cu161 N172 1.985 . S
Cu161 O181 1.959 . S
N162 Cu161 1.999 . S
N162 C164 1.263 . S
N162 C166 1.389 . S
N163 C164 1.358 . S
N163 C165 1.400 . S
C164 N162 1.263 . S
C164 N163 1.358 . S
C164 H170 0.930 . S
C165 N163 1.400 . S
C165 C166 1.351 . S
C165 H182 0.930 . S
C166 N162 1.389 . S
C166 C165 1.351 . S
C166 H171 0.930 . S
O167 Cu161 1.974 . S
O167 C177 1.282 . S
C168 O169 1.261 . S
C168 O181 1.251 . S
O169 C168 1.261 . S
H170 C164 0.930 . S
H171 C166 0.930 . S
N172 Cu161 1.985 . S
N172 C174 1.335 . S
N172 C175 1.390 . S
N173 C174 1.345 . S
N173 C176 1.336 . S
C174 N172 1.335 . S
C174 N173 1.345 . S
C174 H179 0.930 . S
C175 N172 1.390 . S
C175 C176 1.346 . S
C175 H180 0.930 . S
C176 N173 1.336 . S
C176 C175 1.346 . S
C176 H183 0.929 . S
C177 O167 1.282 . S
C177 O178 1.216 . S
O178 C177 1.216 . S
H179 C174 0.930 . S
H180 C175 0.930 . S
O181 Cu161 1.959 . S
O181 C168 1.251 . S
H182 C165 0.930 . S
H183 C176 0.929 . S
H184 C202 0.951 . S
H185 C204 0.951 . S
H186 C206 0.950 . S
H187 C207 0.950 . S
H188 C209 0.950 . S
H189 C212 0.955 . S
H190 C213 0.950 . S
H191 C215 0.950 . S
H192 C216 0.950 1_655 S
H193 C217 0.951 . S
H194 C219 0.951 . S
H195 C221 0.950 . S
H196 C222 0.950 . S
H197 C224 0.950 . S
H198 C227 0.950 . S
H199 C228 0.950 . S
H200 C230 0.950 . S
H201 C231 0.950 1_455 S
C202 H184 0.951 . S
C202 C203 1.366 . S
C202 C204 1.388 . S
C203 C202 1.366 . S
C203 C207 1.385 1_655 S
C204 H185 0.951 . S
C204 C202 1.388 . S
C204 C205 1.366 . S
C205 C204 1.366 . S
C205 C206 1.414 1_655 S
C205 C208 1.500 . S
C206 H186 0.950 . S
C206 C205 1.414 1_455 S
C206 C207 1.374 . S
C207 H187 0.950 . S
C207 C203 1.385 1_455 S
C207 C206 1.374 . S
C208 C205 1.500 . S
C208 C209 1.377 . S
C208 C210 1.386 1_655 S
C209 H188 0.950 . S
C209 C208 1.377 . S
C209 C225 1.377 1_565 S
C210 C208 1.386 1_455 S
C210 C211 1.524 1_554 S
C210 C224 1.377 1_565 S
C211 C210 1.524 1_556 S
C211 C212 1.396 1_556 S
C211 C216 1.363 . S
C212 H189 0.955 . S
C212 C211 1.396 1_554 S
C212 C213 1.329 1_554 S
C213 H190 0.950 . S
C213 C212 1.329 1_556 S
C213 C214 1.287 . S
C214 C213 1.287 . S
C214 C215 1.524 . S
C214 H233 0.913 . S
C215 H191 0.950 . S
C215 C214 1.524 . S
C215 C216 1.415 . S
C216 H192 0.950 1_455 S
C216 C211 1.363 . S
C216 C215 1.415 . S
C217 H193 0.951 . S
C217 C218 1.366 . S
C217 C219 1.388 . S
C218 C217 1.366 . S
C218 C222 1.385 1_455 S
C219 H194 0.951 . S
C219 C217 1.388 . S
C219 C220 1.366 . S
C220 C219 1.366 . S
C220 C221 1.414 1_455 S
C220 C223 1.500 . S
C221 H195 0.950 . S
C221 C220 1.414 1_655 S
C221 C222 1.374 . S
C222 H196 0.950 . S
C222 C218 1.385 1_655 S
C222 C221 1.374 . S
C223 C220 1.500 . S
C223 C224 1.377 . S
C223 C225 1.386 1_455 S
C224 H197 0.950 . S
C224 C210 1.377 1_545 S
C224 C223 1.377 . S
C225 C209 1.377 1_545 S
C225 C223 1.386 1_655 S
C225 C226 1.524 . S
C226 C225 1.524 . S
C226 C227 1.397 . S
C226 C231 1.363 . S
C227 H198 0.950 . S
C227 C226 1.397 . S
C227 C228 1.334 . S
C228 H199 0.950 . S
C228 C227 1.334 . S
C228 C229 1.287 . S
C229 C228 1.287 . S
C229 C230 1.524 . S
C229 H232 0.999 . S
C230 H200 0.950 . S
C230 C229 1.524 . S
C230 C231 1.415 . S
C231 H201 0.950 1_655 S
C231 C226 1.363 . S
C231 C230 1.415 . S
H232 C229 0.999 . S
H233 C214 0.913 . S
H234 C252 0.951 . S
H235 C254 0.951 . S
H236 C256 0.950 . S
H237 C257 0.950 . S
H238 C259 0.950 . S
H239 C262 0.950 1_455 S
H240 C263 0.950 . S
H241 C265 0.950 . S
H242 C266 0.950 . S
H243 C267 0.951 . S
H244 C269 0.951 . S
H245 C271 0.950 . S
H246 C272 0.950 . S
H247 C274 0.950 . S
H248 C277 0.950 1_655 S
H249 C278 0.950 . S
H250 C280 0.950 . S
H251 C281 0.950 . S
C252 H234 0.951 . S
C252 C253 1.366 1_655 S
C252 C254 1.388 . S
C253 C252 1.366 1_455 S
C253 C257 1.385 . S
C254 H235 0.951 . S
C254 C252 1.388 . S
C254 C255 1.366 1_655 S
C255 C254 1.366 1_455 S
C255 C256 1.414 . S
C255 C258 1.499 . S
C256 H236 0.950 . S
C256 C255 1.414 . S
C256 C257 1.374 . S
C257 H237 0.950 . S
C257 C253 1.385 . S
C257 C256 1.374 . S
C258 C255 1.499 . S
C258 C259 1.373 . S
C258 C260 1.389 1_455 S
C259 H238 0.950 . S
C259 C258 1.373 . S
C259 C275 1.377 1_565 S
C260 C258 1.389 1_655 S
C260 C261 1.524 . S
C260 C274 1.377 1_565 S
C261 C260 1.524 . S
C261 C262 1.397 . S
C261 C266 1.363 . S
C262 H239 0.950 1_655 S
C262 C261 1.397 . S
C262 C263 1.334 . S
C263 H240 0.950 . S
C263 C262 1.334 . S
C263 C264 1.287 . S
C264 C263 1.287 . S
C264 C265 1.524 . S
C264 H283 0.913 . S
C265 H241 0.950 . S
C265 C264 1.524 . S
C265 C266 1.415 . S
C266 H242 0.950 . S
C266 C261 1.363 . S
C266 C265 1.415 . S
C267 H243 0.951 . S
C267 C268 1.366 1_455 S
C267 C269 1.388 . S
C268 C267 1.366 1_655 S
C268 C272 1.385 . S
C269 H244 0.951 . S
C269 C267 1.388 . S
C269 C270 1.366 1_455 S
C270 C269 1.366 1_655 S
C270 C271 1.414 . S
C270 C273 1.499 . S
C271 H245 0.950 . S
C271 C270 1.414 . S
C271 C272 1.374 . S
C272 H246 0.950 . S
C272 C268 1.385 . S
C272 C271 1.374 . S
C273 C270 1.499 . S
C273 C274 1.373 . S
C273 C275 1.389 1_655 S
C274 H247 0.950 . S
C274 C260 1.377 1_545 S
C274 C273 1.373 . S
C275 C259 1.377 1_545 S
C275 C273 1.389 1_455 S
C275 C276 1.524 . S
C276 C275 1.524 . S
C276 C277 1.397 . S
C276 C281 1.363 . S
C277 H248 0.950 1_455 S
C277 C276 1.397 . S
C277 C278 1.334 . S
C278 H249 0.950 . S
C278 C277 1.334 . S
C278 C279 1.287 . S
C279 C278 1.287 . S
C279 C280 1.524 . S
C279 H282 0.999 . S
C280 H250 0.950 . S
C280 C279 1.524 . S
C280 C281 1.415 . S
C281 H251 0.950 . S
C281 C276 1.363 . S
C281 C280 1.415 . S
H282 C279 0.999 . S
H283 C264 0.913 . S
H284 C302 0.951 . S
H285 C304 0.951 . S
H286 C306 0.950 . S
H287 C307 0.950 . S
H288 C309 0.950 . S
H289 C312 0.950 . S
H290 C313 0.950 . S
H291 C315 0.950 . S
H292 C316 0.950 . S
H293 C317 0.951 . S
H294 C319 0.951 . S
H295 C321 0.950 . S
H296 C322 0.950 . S
H297 C324 0.950 . S
H298 C327 0.950 . S
H299 C328 0.950 . S
H300 C330 0.950 . S
H301 C331 0.950 . S
C302 H284 0.951 . S
C302 C303 1.366 . S
C302 C304 1.388 . S
C303 C302 1.366 . S
C303 C307 1.385 . S
C304 H285 0.951 . S
C304 C302 1.388 . S
C304 C305 1.366 . S
C305 C304 1.366 . S
C305 C306 1.414 . S
C305 C308 1.499 . S
C306 H286 0.950 . S
C306 C305 1.414 . S
C306 C307 1.374 . S
C307 H287 0.950 . S
C307 C303 1.385 . S
C307 C306 1.374 . S
C308 C305 1.499 . S
C308 C309 1.373 . S
C308 C310 1.389 . S
C309 H288 0.950 . S
C309 C308 1.373 . S
C309 C325 1.377 . S
C310 C308 1.389 . S
C310 C311 1.524 . S
C310 C324 1.377 . S
C311 C310 1.524 . S
C311 C312 1.397 . S
C311 C316 1.363 . S
C312 H289 0.950 . S
C312 C311 1.397 . S
C312 C313 1.334 . S
C313 H290 0.950 . S
C313 C312 1.334 . S
C313 C314 1.287 . S
C314 C313 1.287 . S
C314 C315 1.524 . S
C314 H333 0.913 . S
C315 H291 0.950 . S
C315 C314 1.524 . S
C315 C316 1.415 . S
C316 H292 0.950 . S
C316 C311 1.363 . S
C316 C315 1.415 . S
C317 H293 0.951 . S
C317 C318 1.366 . S
C317 C319 1.388 . S
C318 C317 1.366 . S
C318 C322 1.385 . S
C319 H294 0.951 . S
C319 C317 1.388 . S
C319 C320 1.366 . S
C320 C319 1.366 . S
C320 C321 1.414 . S
C320 C323 1.499 . S
C321 H295 0.950 . S
C321 C320 1.414 . S
C321 C322 1.374 . S
C322 H296 0.950 . S
C322 C318 1.385 . S
C322 C321 1.374 . S
C323 C320 1.499 . S
C323 C324 1.373 . S
C323 C325 1.389 . S
C324 H297 0.950 . S
C324 C310 1.377 . S
C324 C323 1.373 . S
C325 C309 1.377 . S
C325 C323 1.389 . S
C325 C326 1.524 . S
C326 C325 1.524 . S
C326 C327 1.397 1_554 S
C326 C331 1.363 . S
C327 H298 0.950 . S
C327 C326 1.397 1_556 S
C327 C328 1.334 . S
C328 H299 0.950 . S
C328 C327 1.334 . S
C328 C329 1.287 . S
C329 C328 1.287 . S
C329 C330 1.524 . S
C329 H332 0.999 . S
C330 H300 0.950 . S
C330 C329 1.524 . S
C330 C331 1.415 1_556 S
C331 H301 0.950 . S
C331 C326 1.363 . S
C331 C330 1.415 1_554 S
H332 C329 0.999 . S
H333 C314 0.913 . S
H334 C352 0.951 . S
H335 C354 0.951 . S
H336 C356 0.950 . S
H337 C357 0.950 . S
H338 C359 0.950 . S
H339 C362 0.950 . S
H340 C363 0.950 . S
H341 C365 0.950 . S
H342 C366 0.950 . S
H343 C367 0.951 . S
H344 C369 0.951 . S
H345 C371 0.950 . S
H346 C372 0.950 . S
H347 C374 0.950 . S
H348 C377 0.950 . S
H349 C378 0.950 . S
H350 C380 0.950 . S
H351 C381 0.950 . S
C352 H334 0.951 . S
C352 C353 1.366 . S
C352 C354 1.388 . S
C353 C352 1.366 . S
C353 C357 1.385 . S
C354 H335 0.951 . S
C354 C352 1.388 . S
C354 C355 1.366 . S
C355 C354 1.366 . S
C355 C356 1.414 . S
C355 C358 1.499 . S
C356 H336 0.950 . S
C356 C355 1.414 . S
C356 C357 1.374 . S
C357 H337 0.950 . S
C357 C353 1.385 . S
C357 C356 1.374 . S
C358 C355 1.499 . S
C358 C359 1.373 . S
C358 C360 1.389 . S
C359 H338 0.950 . S
C359 C358 1.373 . S
C359 C375 1.377 . S
C360 C358 1.389 . S
C360 C361 1.524 . S
C360 C374 1.377 . S
C361 C360 1.524 . S
C361 C362 1.397 . S
C361 C366 1.363 . S
C362 H339 0.950 . S
C362 C361 1.397 . S
C362 C363 1.334 . S
C363 H340 0.950 . S
C363 C362 1.334 . S
C363 C364 1.287 . S
C364 C363 1.287 . S
C364 C365 1.524 . S
C364 H383 0.913 . S
C365 H341 0.950 . S
C365 C364 1.524 . S
C365 C366 1.415 . S
C366 H342 0.950 . S
C366 C361 1.363 . S
C366 C365 1.415 . S
C367 H343 0.951 . S
C367 C368 1.366 . S
C367 C369 1.388 . S
C368 C367 1.366 . S
C368 C372 1.385 . S
C369 H344 0.951 . S
C369 C367 1.388 . S
C369 C370 1.366 . S
C370 C369 1.366 . S
C370 C371 1.414 . S
C370 C373 1.499 . S
C371 H345 0.950 . S
C371 C370 1.414 . S
C371 C372 1.374 . S
C372 H346 0.950 . S
C372 C368 1.385 . S
C372 C371 1.374 . S
C373 C370 1.499 . S
C373 C374 1.373 . S
C373 C375 1.389 . S
C374 H347 0.950 . S
C374 C360 1.377 . S
C374 C373 1.373 . S
C375 C359 1.377 . S
C375 C373 1.389 . S
C375 C376 1.524 . S
C376 C375 1.524 . S
C376 C377 1.397 . S
C376 C381 1.363 . S
C377 H348 0.950 . S
C377 C376 1.397 . S
C377 C378 1.334 . S
C378 H349 0.950 . S
C378 C377 1.334 . S
C378 C379 1.287 . S
C379 C378 1.287 . S
C379 C380 1.524 . S
C379 H382 0.999 . S
C380 H350 0.950 . S
C380 C379 1.524 . S
C380 C381 1.415 . S
C381 H351 0.950 . S
C381 C376 1.363 . S
C381 C380 1.415 . S
H382 C379 0.999 . S
H383 C364 0.913 . S
H384 C402 0.951 . S
H385 C404 0.951 . S
H386 C406 0.950 . S
H387 C407 0.950 . S
H388 C409 0.950 . S
H389 C412 0.950 . S
H390 C413 0.950 . S
H391 C415 0.950 . S
H392 C416 0.950 . S
H393 C417 0.951 . S
H394 C419 0.951 . S
H395 C421 0.950 . S
H396 C422 0.950 . S
H397 C424 0.950 . S
H398 C427 0.950 . S
H399 C428 0.950 . S
H400 C430 0.950 . S
H401 C431 0.950 . S
C402 H384 0.951 . S
C402 C403 1.366 1_655 S
C402 C404 1.388 . S
C403 C402 1.366 1_455 S
C403 C407 1.385 . S
C404 H385 0.951 . S
C404 C402 1.388 . S
C404 C405 1.366 1_655 S
C405 C404 1.366 1_455 S
C405 C406 1.414 . S
C405 C408 1.499 . S
C406 H386 0.950 . S
C406 C405 1.414 . S
C406 C407 1.374 . S
C407 H387 0.950 . S
C407 C403 1.385 . S
C407 C406 1.374 . S
C408 C405 1.499 . S
C408 C409 1.373 . S
C408 C410 1.389 1_455 S
C409 H388 0.950 . S
C409 C408 1.373 . S
C409 C425 1.377 . S
C410 C408 1.389 1_655 S
C410 C411 1.524 . S
C410 C424 1.377 . S
C411 C410 1.524 . S
C411 C412 1.397 . S
C411 C416 1.363 . S
C412 H389 0.950 . S
C412 C411 1.397 . S
C412 C413 1.334 . S
C413 H390 0.950 . S
C413 C412 1.334 . S
C413 C414 1.287 . S
C414 C413 1.287 . S
C414 C415 1.524 . S
C414 H433 0.913 . S
C415 H391 0.950 . S
C415 C414 1.524 . S
C415 C416 1.415 . S
C416 H392 0.950 . S
C416 C411 1.363 . S
C416 C415 1.415 . S
C417 H393 0.951 . S
C417 C418 1.366 1_455 S
C417 C419 1.388 . S
C418 C417 1.366 1_655 S
C418 C422 1.385 . S
C419 H394 0.951 . S
C419 C417 1.388 . S
C419 C420 1.366 1_455 S
C420 C419 1.366 1_655 S
C420 C421 1.414 . S
C420 C423 1.499 . S
C421 H395 0.950 . S
C421 C420 1.414 . S
C421 C422 1.374 . S
C422 H396 0.950 . S
C422 C418 1.385 . S
C422 C421 1.374 . S
C423 C420 1.499 . S
C423 C424 1.373 . S
C423 C425 1.389 1_655 S
C424 H397 0.950 . S
C424 C410 1.377 . S
C424 C423 1.373 . S
C425 C409 1.377 . S
C425 C423 1.389 1_455 S
C425 C426 1.524 . S
C426 C425 1.524 . S
C426 C427 1.397 . S
C426 C431 1.363 . S
C427 H398 0.950 . S
C427 C426 1.397 . S
C427 C428 1.334 . S
C428 H399 0.950 . S
C428 C427 1.334 . S
C428 C429 1.287 . S
C429 C428 1.287 . S
C429 C430 1.524 . S
C429 H432 0.999 . S
C430 H400 0.950 . S
C430 C429 1.524 . S
C430 C431 1.415 . S
C431 H401 0.950 . S
C431 C426 1.363 . S
C431 C430 1.415 . S
H432 C429 0.999 . S
H433 C414 0.913 . S
H434 C452 0.951 . S
H435 C454 0.951 . S
H436 C456 0.950 . S
H437 C457 0.950 . S
H438 C459 0.950 . S
H439 C462 0.950 . S
H440 C463 0.950 . S
H441 C465 0.950 . S
H442 C466 0.950 . S
H443 C467 0.951 . S
H444 C469 0.951 . S
H445 C471 0.950 . S
H446 C472 0.950 . S
H447 C474 0.950 1_455 S
H448 C477 0.950 . S
H449 C478 0.950 . S
H450 C480 0.950 . S
H451 C481 0.950 . S
C452 H434 0.951 . S
C452 C453 1.366 . S
C452 C454 1.388 . S
C453 C452 1.366 . S
C453 C457 1.385 1_455 S
C454 H435 0.951 . S
C454 C452 1.388 . S
C454 C455 1.366 . S
C455 C454 1.366 . S
C455 C456 1.414 1_455 S
C455 C458 1.498 1_455 S
C456 H436 0.950 . S
C456 C455 1.414 1_655 S
C456 C457 1.374 . S
C457 H437 0.950 . S
C457 C453 1.385 1_655 S
C457 C456 1.374 . S
C458 C455 1.498 1_655 S
C458 C459 1.373 . S
C458 C460 1.389 . S
C459 H438 0.950 . S
C459 C458 1.373 . S
C459 C475 1.376 1_655 S
C460 C458 1.389 . S
C460 C461 1.524 . S
C460 C474 1.376 . S
C461 C460 1.524 . S
C461 C462 1.397 . S
C461 C466 1.363 1_655 S
C462 H439 0.950 . S
C462 C461 1.397 . S
C462 C463 1.334 . S
C463 H440 0.950 . S
C463 C462 1.334 . S
C463 C464 1.287 . S
C464 C463 1.287 . S
C464 C465 1.524 1_655 S
C464 H483 0.913 . S
C465 H441 0.950 . S
C465 C464 1.524 1_455 S
C465 C466 1.415 . S
C466 H442 0.950 . S
C466 C461 1.363 1_455 S
C466 C465 1.415 . S
C467 H443 0.951 . S
C467 C468 1.366 . S
C467 C469 1.388 . S
C468 C467 1.366 . S
C468 C472 1.385 1_655 S
C469 H444 0.951 . S
C469 C467 1.388 . S
C469 C470 1.366 . S
C470 C469 1.366 . S
C470 C471 1.414 1_655 S
C470 C473 1.499 1_655 S
C471 H445 0.950 . S
C471 C470 1.414 1_455 S
C471 C472 1.374 . S
C472 H446 0.950 . S
C472 C468 1.385 1_455 S
C472 C471 1.374 . S
C473 C470 1.499 1_455 S
C473 C474 1.373 1_455 S
C473 C475 1.389 . S
C474 H447 0.950 1_655 S
C474 C460 1.376 . S
C474 C473 1.373 1_655 S
C475 C459 1.376 1_455 S
C475 C473 1.389 . S
C475 C476 1.525 . S
C476 C475 1.525 . S
C476 C477 1.397 . S
C476 C481 1.363 1_455 S
C477 H448 0.950 . S
C477 C476 1.397 . S
C477 C478 1.334 . S
C478 H449 0.950 . S
C478 C477 1.334 . S
C478 C479 1.287 . S
C479 C478 1.287 . S
C479 C480 1.524 1_455 S
C479 H482 0.999 . S
C480 H450 0.950 . S
C480 C479 1.524 1_655 S
C480 C481 1.415 . S
C481 H451 0.950 . S
C481 C476 1.363 1_655 S
C481 C480 1.415 . S
H482 C479 0.999 . S
H483 C464 0.913 . S
H484 C502 0.951 . S
H485 C504 0.951 . S
H486 C506 0.950 . S
H487 C507 0.950 . S
H488 C509 0.950 . S
H489 C512 0.950 . S
H490 C513 0.950 . S
H491 C515 0.950 . S
H492 C516 0.950 . S
H493 C517 0.951 . S
H494 C519 0.951 . S
H495 C521 0.950 . S
H496 C522 0.950 . S
H497 C524 0.950 . S
H498 C527 0.950 . S
H499 C528 0.950 . S
H500 C530 0.950 . S
H501 C531 0.950 . S
C502 H484 0.951 . S
C502 C503 1.366 . S
C502 C504 1.388 . S
C503 C502 1.366 . S
C503 C507 1.385 1_455 S
C504 H485 0.951 . S
C504 C502 1.388 . S
C504 C505 1.366 . S
C505 C504 1.366 . S
C505 C506 1.414 1_455 S
C505 C508 1.499 . S
C506 H486 0.950 . S
C506 C505 1.414 1_655 S
C506 C507 1.374 . S
C507 H487 0.950 . S
C507 C503 1.385 1_655 S
C507 C506 1.374 . S
C508 C505 1.499 . S
C508 C509 1.373 1_455 S
C508 C510 1.389 . S
C509 H488 0.950 . S
C509 C508 1.373 1_655 S
C509 C525 1.377 . S
C510 C508 1.389 . S
C510 C511 1.524 . S
C510 C524 1.377 . S
C511 C510 1.524 . S
C511 C512 1.397 1_455 S
C511 C516 1.363 . S
C512 H489 0.950 . S
C512 C511 1.397 1_655 S
C512 C513 1.334 . S
C513 H490 0.950 . S
C513 C512 1.334 . S
C513 C514 1.287 1_655 S
C514 C513 1.287 1_455 S
C514 C515 1.524 . S
C514 H533 0.913 . S
C515 H491 0.950 . S
C515 C514 1.524 . S
C515 C516 1.415 . S
C516 H492 0.950 . S
C516 C511 1.363 . S
C516 C515 1.415 . S
C517 H493 0.951 . S
C517 C518 1.366 . S
C517 C519 1.388 . S
C518 C517 1.366 . S
C518 C522 1.385 1_655 S
C519 H494 0.951 . S
C519 C517 1.388 . S
C519 C520 1.366 . S
C520 C519 1.366 . S
C520 C521 1.414 1_655 S
C520 C523 1.499 . S
C521 H495 0.950 . S
C521 C520 1.414 1_455 S
C521 C522 1.374 . S
C522 H496 0.950 . S
C522 C518 1.385 1_455 S
C522 C521 1.374 . S
C523 C520 1.499 . S
C523 C524 1.373 1_655 S
C523 C525 1.389 . S
C524 H497 0.950 . S
C524 C510 1.377 . S
C524 C523 1.373 1_455 S
C525 C509 1.377 . S
C525 C523 1.389 . S
C525 C526 1.524 . S
C526 C525 1.524 . S
C526 C527 1.397 1_655 S
C526 C531 1.363 . S
C527 H498 0.950 . S
C527 C526 1.397 1_455 S
C527 C528 1.334 . S
C528 H499 0.950 . S
C528 C527 1.334 . S
C528 C529 1.287 1_455 S
C529 C528 1.287 1_655 S
C529 C530 1.524 . S
C529 H532 0.999 . S
C530 H500 0.950 . S
C530 C529 1.524 . S
C530 C531 1.415 . S
C531 H501 0.950 . S
C531 C526 1.363 . S
C531 C530 1.415 . S
H532 C529 0.999 . S
H533 C514 0.913 . S
H534 C552 0.951 1_655 S
H535 C554 0.951 1_655 S
H536 C556 0.950 . S
H537 C557 0.950 . S
H538 C559 0.950 . S
H539 C562 0.950 . S
H540 C563 0.950 . S
H541 C565 0.950 . S
H542 C566 0.950 . S
H543 C567 0.951 1_455 S
H544 C569 0.951 1_455 S
H545 C571 0.950 . S
H546 C572 0.950 . S
H547 C574 0.950 . S
H548 C577 0.950 . S
H549 C578 0.950 . S
H550 C580 0.950 . S
H551 C581 0.950 . S
C552 H534 0.951 1_455 S
C552 C553 1.366 . S
C552 C554 1.388 . S
C553 C552 1.366 . S
C553 C557 1.385 . S
C554 H535 0.951 1_455 S
C554 C552 1.388 . S
C554 C555 1.366 . S
C555 C554 1.366 . S
C555 C556 1.414 . S
C555 C558 1.499 . S
C556 H536 0.950 . S
C556 C555 1.414 . S
C556 C557 1.374 . S
C557 H537 0.950 . S
C557 C553 1.385 . S
C557 C556 1.374 . S
C558 C555 1.499 . S
C558 C559 1.373 1_455 S
C558 C560 1.389 . S
C559 H538 0.950 . S
C559 C558 1.373 1_655 S
C559 C575 1.377 . S
C560 C558 1.389 . S
C560 C561 1.524 . S
C560 C574 1.377 . S
C561 C560 1.524 . S
C561 C562 1.397 . S
C561 C566 1.363 . S
C562 H539 0.950 . S
C562 C561 1.397 . S
C562 C563 1.334 . S
C563 H540 0.950 . S
C563 C562 1.334 . S
C563 C564 1.287 . S
C564 C563 1.287 . S
C564 C565 1.524 . S
C564 H583 0.913 . S
C565 H541 0.950 . S
C565 C564 1.524 . S
C565 C566 1.415 . S
C566 H542 0.950 . S
C566 C561 1.363 . S
C566 C565 1.415 . S
C567 H543 0.951 1_655 S
C567 C568 1.366 . S
C567 C569 1.388 . S
C568 C567 1.366 . S
C568 C572 1.385 . S
C569 H544 0.951 1_655 S
C569 C567 1.388 . S
C569 C570 1.366 . S
C570 C569 1.366 . S
C570 C571 1.414 . S
C570 C573 1.499 . S
C571 H545 0.950 . S
C571 C570 1.414 . S
C571 C572 1.374 . S
C572 H546 0.950 . S
C572 C568 1.385 . S
C572 C571 1.374 . S
C573 C570 1.499 . S
C573 C574 1.373 1_655 S
C573 C575 1.389 . S
C574 H547 0.950 . S
C574 C560 1.377 . S
C574 C573 1.373 1_455 S
C575 C559 1.377 . S
C575 C573 1.389 . S
C575 C576 1.524 . S
C576 C575 1.524 . S
C576 C577 1.397 . S
C576 C581 1.363 . S
C577 H548 0.950 . S
C577 C576 1.397 . S
C577 C578 1.334 . S
C578 H549 0.950 . S
C578 C577 1.334 . S
C578 C579 1.287 . S
C579 C578 1.287 . S
C579 C580 1.524 . S
C579 H582 0.999 . S
C580 H550 0.950 . S
C580 C579 1.524 . S
C580 C581 1.415 . S
C581 H551 0.950 . S
C581 C576 1.363 . S
C581 C580 1.415 . S
H582 C579 0.999 . S
H583 C564 0.913 . S
H584 C602 0.951 . S
H585 C604 0.951 . S
H586 C606 0.950 . S
H587 C607 0.950 . S
H588 C609 0.950 . S
H589 C612 0.950 . S
H590 C613 0.950 . S
H591 C615 0.950 . S
H592 C616 0.950 . S
H593 C617 0.951 . S
H594 C619 0.951 . S
H595 C621 0.950 . S
H596 C622 0.950 . S
H597 C624 0.950 . S
H598 C627 0.950 . S
H599 C628 0.950 . S
H600 C630 0.950 . S
H601 C631 0.950 . S
C602 H584 0.951 . S
C602 C603 1.366 . S
C602 C604 1.388 . S
C603 C602 1.366 . S
C603 C607 1.385 . S
C604 H585 0.951 . S
C604 C602 1.388 . S
C604 C605 1.366 . S
C605 C604 1.366 . S
C605 C606 1.414 . S
C605 C608 1.499 . S
C606 H586 0.950 . S
C606 C605 1.414 . S
C606 C607 1.374 . S
C607 H587 0.950 . S
C607 C603 1.385 . S
C607 C606 1.374 . S
C608 C605 1.499 . S
C608 C609 1.373 . S
C608 C610 1.389 . S
C609 H588 0.950 . S
C609 C608 1.373 . S
C609 C625 1.377 . S
C610 C608 1.389 . S
C610 C611 1.524 . S
C610 C624 1.377 . S
C611 C610 1.524 . S
C611 C612 1.397 . S
C611 C616 1.363 . S
C612 H589 0.950 . S
C612 C611 1.397 . S
C612 C613 1.334 . S
C613 H590 0.950 . S
C613 C612 1.334 . S
C613 C614 1.287 . S
C614 C613 1.287 . S
C614 C615 1.524 . S
C614 H633 0.913 . S
C615 H591 0.950 . S
C615 C614 1.524 . S
C615 C616 1.415 . S
C616 H592 0.950 . S
C616 C611 1.363 . S
C616 C615 1.415 . S
C617 H593 0.951 . S
C617 C618 1.366 . S
C617 C619 1.388 . S
C618 C617 1.366 . S
C618 C622 1.385 . S
C619 H594 0.951 . S
C619 C617 1.388 . S
C619 C620 1.366 . S
C620 C619 1.366 . S
C620 C621 1.414 . S
C620 C623 1.499 . S
C621 H595 0.950 . S
C621 C620 1.414 . S
C621 C622 1.374 . S
C622 H596 0.950 . S
C622 C618 1.385 . S
C622 C621 1.374 . S
C623 C620 1.499 . S
C623 C624 1.373 . S
C623 C625 1.389 . S
C624 H597 0.950 . S
C624 C610 1.377 . S
C624 C623 1.373 . S
C625 C609 1.377 . S
C625 C623 1.389 . S
C625 C626 1.524 . S
C626 C625 1.524 . S
C626 C627 1.397 . S
C626 C631 1.363 . S
C627 H598 0.950 . S
C627 C626 1.397 . S
C627 C628 1.334 . S
C628 H599 0.950 . S
C628 C627 1.334 . S
C628 C629 1.287 . S
C629 C628 1.287 . S
C629 C630 1.524 . S
C629 H632 0.999 . S
C630 H600 0.950 . S
C630 C629 1.524 . S
C630 C631 1.415 . S
C631 H601 0.950 . S
C631 C626 1.363 . S
C631 C630 1.415 . S
H632 C629 0.999 . S
H633 C614 0.913 . S
H634 C652 0.951 . S
H635 C654 0.951 . S
H636 C656 0.950 . S
H637 C657 0.950 . S
H638 C659 0.950 . S
H639 C662 0.950 . S
H640 C663 0.950 . S
H641 C665 0.950 . S
H642 C666 0.950 . S
H643 C667 0.951 . S
H644 C669 0.951 . S
H645 C671 0.950 . S
H646 C672 0.950 . S
H647 C674 0.950 . S
H648 C677 0.950 . S
H649 C678 0.950 . S
H650 C680 0.950 . S
H651 C681 0.950 . S
C652 H634 0.951 . S
C652 C653 1.366 . S
C652 C654 1.388 . S
C653 C652 1.366 . S
C653 C657 1.385 . S
C654 H635 0.951 . S
C654 C652 1.388 . S
C654 C655 1.366 . S
C655 C654 1.366 . S
C655 C656 1.414 . S
C655 C658 1.499 . S
C656 H636 0.950 . S
C656 C655 1.414 . S
C656 C657 1.374 . S
C657 H637 0.950 . S
C657 C653 1.385 . S
C657 C656 1.374 . S
C658 C655 1.499 . S
C658 C659 1.373 . S
C658 C660 1.389 . S
C659 H638 0.950 . S
C659 C658 1.373 . S
C659 C675 1.377 . S
C660 C658 1.389 . S
C660 C661 1.524 . S
C660 C674 1.377 . S
C661 C660 1.524 . S
C661 C662 1.397 . S
C661 C666 1.363 . S
C662 H639 0.950 . S
C662 C661 1.397 . S
C662 C663 1.334 . S
C663 H640 0.950 . S
C663 C662 1.334 . S
C663 C664 1.287 . S
C664 C663 1.287 . S
C664 C665 1.524 . S
C664 H683 0.913 . S
C665 H641 0.950 . S
C665 C664 1.524 . S
C665 C666 1.415 . S
C666 H642 0.950 . S
C666 C661 1.363 . S
C666 C665 1.415 . S
C667 H643 0.951 . S
C667 C668 1.366 . S
C667 C669 1.388 . S
C668 C667 1.366 . S
C668 C672 1.385 . S
C669 H644 0.951 . S
C669 C667 1.388 . S
C669 C670 1.366 . S
C670 C669 1.366 . S
C670 C671 1.414 . S
C670 C673 1.499 . S
C671 H645 0.950 . S
C671 C670 1.414 . S
C671 C672 1.374 . S
C672 H646 0.950 . S
C672 C668 1.385 . S
C672 C671 1.374 . S
C673 C670 1.499 . S
C673 C674 1.373 . S
C673 C675 1.389 . S
C674 H647 0.950 . S
C674 C660 1.377 . S
C674 C673 1.373 . S
C675 C659 1.377 . S
C675 C673 1.389 . S
C675 C676 1.524 . S
C676 C675 1.524 . S
C676 C677 1.397 . S
C676 C681 1.363 . S
C677 H648 0.950 . S
C677 C676 1.397 . S
C677 C678 1.334 . S
C678 H649 0.950 . S
C678 C677 1.334 . S
C678 C679 1.287 . S
C679 C678 1.287 . S
C679 C680 1.524 . S
C679 H682 0.999 . S
C680 H650 0.950 . S
C680 C679 1.524 . S
C680 C681 1.415 . S
C681 H651 0.950 . S
C681 C676 1.363 . S
C681 C680 1.415 . S
H682 C679 0.999 . S
H683 C664 0.913 . S
H684 C702 0.951 . S
H685 C704 0.951 . S
H686 C706 0.950 . S
H687 C707 0.950 . S
H688 C709 0.950 . S
H689 C712 0.950 . S
H690 C713 0.950 . S
H691 C715 0.950 . S
H692 C716 0.950 . S
H693 C717 0.951 . S
H694 C719 0.951 . S
H695 C721 0.950 . S
H696 C722 0.950 . S
H697 C724 0.950 . S
H698 C727 0.950 . S
H699 C728 0.950 . S
H700 C730 0.950 . S
H701 C731 0.950 . S
C702 H684 0.951 . S
C702 C703 1.366 . S
C702 C704 1.388 . S
C703 C702 1.366 . S
C703 C707 1.385 . S
C704 H685 0.951 . S
C704 C702 1.388 . S
C704 C705 1.366 . S
C705 C704 1.366 . S
C705 C706 1.414 . S
C705 C708 1.499 . S
C706 H686 0.950 . S
C706 C705 1.414 . S
C706 C707 1.374 . S
C707 H687 0.950 . S
C707 C703 1.385 . S
C707 C706 1.374 . S
C708 C705 1.499 . S
C708 C709 1.373 . S
C708 C710 1.389 . S
C709 H688 0.950 . S
C709 C708 1.373 . S
C709 C725 1.377 . S
C710 C708 1.389 . S
C710 C711 1.524 . S
C710 C724 1.377 . S
C711 C710 1.524 . S
C711 C712 1.397 . S
C711 C716 1.363 . S
C712 H689 0.950 . S
C712 C711 1.397 . S
C712 C713 1.334 . S
C713 H690 0.950 . S
C713 C712 1.334 . S
C713 C714 1.287 . S
C714 C713 1.287 . S
C714 C715 1.524 . S
C714 H733 0.913 . S
C715 H691 0.950 . S
C715 C714 1.524 . S
C715 C716 1.415 . S
C716 H692 0.950 . S
C716 C711 1.363 . S
C716 C715 1.415 . S
C717 H693 0.951 . S
C717 C718 1.366 . S
C717 C719 1.388 . S
C718 C717 1.366 . S
C718 C722 1.385 . S
C719 H694 0.951 . S
C719 C717 1.388 . S
C719 C720 1.366 . S
C720 C719 1.366 . S
C720 C721 1.414 . S
C720 C723 1.499 . S
C721 H695 0.950 . S
C721 C720 1.414 . S
C721 C722 1.374 . S
C722 H696 0.950 . S
C722 C718 1.385 . S
C722 C721 1.374 . S
C723 C720 1.499 . S
C723 C724 1.373 . S
C723 C725 1.389 . S
C724 H697 0.950 . S
C724 C710 1.377 . S
C724 C723 1.373 . S
C725 C709 1.377 . S
C725 C723 1.389 . S
C725 C726 1.524 . S
C726 C725 1.524 . S
C726 C727 1.397 . S
C726 C731 1.363 . S
C727 H698 0.950 . S
C727 C726 1.397 . S
C727 C728 1.334 . S
C728 H699 0.950 . S
C728 C727 1.334 . S
C728 C729 1.287 . S
C729 C728 1.287 . S
C729 C730 1.524 . S
C729 H732 0.999 . S
C730 H700 0.950 . S
C730 C729 1.524 . S
C730 C731 1.415 . S
C731 H701 0.950 . S
C731 C726 1.363 . S
C731 C730 1.415 . S
H732 C729 0.999 . S
H733 C714 0.913 . S
H734 C752 0.951 . S
H735 C754 0.951 . S
H736 C756 0.950 . S
H737 C757 0.950 . S
H738 C759 0.950 . S
H739 C762 0.950 . S
H740 C763 0.950 . S
H741 C765 0.950 . S
H742 C766 0.950 . S
H743 C767 0.951 . S
H744 C769 0.951 . S
H745 C771 0.950 . S
H746 C772 0.950 . S
H747 C774 0.950 . S
H748 C777 0.950 . S
H749 C778 0.950 . S
H750 C780 0.950 . S
H751 C781 0.950 . S
C752 H734 0.951 . S
C752 C753 1.366 . S
C752 C754 1.388 . S
C753 C752 1.366 . S
C753 C757 1.385 . S
C754 H735 0.951 . S
C754 C752 1.388 . S
C754 C755 1.366 . S
C755 C754 1.366 . S
C755 C756 1.414 . S
C755 C758 1.499 . S
C756 H736 0.950 . S
C756 C755 1.414 . S
C756 C757 1.374 . S
C757 H737 0.950 . S
C757 C753 1.385 . S
C757 C756 1.374 . S
C758 C755 1.499 . S
C758 C759 1.373 . S
C758 C760 1.389 . S
C759 H738 0.950 . S
C759 C758 1.373 . S
C759 C775 1.377 . S
C760 C758 1.389 . S
C760 C761 1.524 . S
C760 C774 1.377 . S
C761 C760 1.524 . S
C761 C762 1.397 . S
C761 C766 1.363 . S
C762 H739 0.950 . S
C762 C761 1.397 . S
C762 C763 1.334 . S
C763 H740 0.950 . S
C763 C762 1.334 . S
C763 C764 1.287 . S
C764 C763 1.287 . S
C764 C765 1.524 . S
C764 H783 0.913 . S
C765 H741 0.950 . S
C765 C764 1.524 . S
C765 C766 1.415 . S
C766 H742 0.950 . S
C766 C761 1.363 . S
C766 C765 1.415 . S
C767 H743 0.951 . S
C767 C768 1.366 . S
C767 C769 1.388 . S
C768 C767 1.366 . S
C768 C772 1.385 . S
C769 H744 0.951 . S
C769 C767 1.388 . S
C769 C770 1.366 . S
C770 C769 1.366 . S
C770 C771 1.414 . S
C770 C773 1.499 . S
C771 H745 0.950 . S
C771 C770 1.414 . S
C771 C772 1.374 . S
C772 H746 0.950 . S
C772 C768 1.385 . S
C772 C771 1.374 . S
C773 C770 1.499 . S
C773 C774 1.373 . S
C773 C775 1.389 . S
C774 H747 0.950 . S
C774 C760 1.377 . S
C774 C773 1.373 . S
C775 C759 1.377 . S
C775 C773 1.389 . S
C775 C776 1.524 . S
C776 C775 1.524 . S
C776 C777 1.397 . S
C776 C781 1.363 . S
C777 H748 0.950 . S
C777 C776 1.397 . S
C777 C778 1.334 . S
C778 H749 0.950 . S
C778 C777 1.334 . S
C778 C779 1.287 . S
C779 C778 1.287 . S
C779 C780 1.524 . S
C779 H782 0.999 . S
C780 H750 0.950 . S
C780 C779 1.524 . S
C780 C781 1.415 . S
C781 H751 0.950 . S
C781 C776 1.363 . S
C781 C780 1.415 . S
H782 C779 0.999 . S
H783 C764 0.913 . S
H784 C802 0.951 . S
H785 C804 0.951 . S
H786 C806 0.950 . S
H787 C807 0.950 . S
H788 C809 0.950 . S
H789 C812 0.950 . S
H790 C813 0.950 . S
H791 C815 0.950 . S
H792 C816 0.950 1_655 S
H793 C817 0.951 . S
H794 C819 0.951 . S
H795 C821 0.950 . S
H796 C822 0.950 . S
H797 C824 0.950 . S
H798 C827 0.950 . S
H799 C828 0.950 . S
H800 C830 0.950 . S
H801 C831 0.950 1_554 S
C802 H784 0.951 . S
C802 C803 1.366 . S
C802 C804 1.388 . S
C803 C802 1.366 . S
C803 C807 1.385 . S
C804 H785 0.951 . S
C804 C802 1.388 . S
C804 C805 1.366 . S
C805 C804 1.366 . S
C805 C806 1.414 . S
C805 C808 1.499 . S
C806 H786 0.950 . S
C806 C805 1.414 . S
C806 C807 1.374 . S
C807 H787 0.950 . S
C807 C803 1.385 . S
C807 C806 1.374 . S
C808 C805 1.499 . S
C808 C809 1.373 . S
C808 C810 1.389 . S
C809 H788 0.950 . S
C809 C808 1.373 . S
C809 C825 1.377 . S
C810 C808 1.389 . S
C810 C811 1.524 . S
C810 C824 1.377 . S
C811 C810 1.524 . S
C811 C812 1.397 . S
C811 C816 1.363 . S
C812 H789 0.950 . S
C812 C811 1.397 . S
C812 C813 1.334 . S
C813 H790 0.950 . S
C813 C812 1.334 . S
C813 C814 1.287 1_455 S
C814 C813 1.287 1_655 S
C814 C815 1.524 . S
C814 H833 0.913 . S
C815 H791 0.950 . S
C815 C814 1.524 . S
C815 C816 1.415 1_655 S
C816 H792 0.950 1_455 S
C816 C811 1.363 . S
C816 C815 1.415 1_455 S
C817 H793 0.951 . S
C817 C818 1.366 . S
C817 C819 1.388 . S
C818 C817 1.366 . S
C818 C822 1.385 . S
C819 H794 0.951 . S
C819 C817 1.388 . S
C819 C820 1.366 . S
C820 C819 1.366 . S
C820 C821 1.414 . S
C820 C823 1.499 . S
C821 H795 0.950 . S
C821 C820 1.414 . S
C821 C822 1.374 . S
C822 H796 0.950 . S
C822 C818 1.385 . S
C822 C821 1.374 . S
C823 C820 1.499 . S
C823 C824 1.373 . S
C823 C825 1.389 . S
C824 H797 0.950 . S
C824 C810 1.377 . S
C824 C823 1.373 . S
C825 C809 1.377 . S
C825 C823 1.389 . S
C825 C826 1.524 1_554 S
C826 C825 1.524 1_556 S
C826 C827 1.397 . S
C826 C831 1.363 . S
C827 H798 0.950 . S
C827 C826 1.397 . S
C827 C828 1.334 . S
C828 H799 0.950 . S
C828 C827 1.334 . S
C828 C829 1.287 . S
C829 C828 1.287 . S
C829 C830 1.524 . S
C829 H832 0.999 . S
C830 H800 0.950 . S
C830 C829 1.524 . S
C830 C831 1.415 . S
C831 H801 0.950 1_556 S
C831 C826 1.363 . S
C831 C830 1.415 . S
H832 C829 0.999 . S
H833 C814 0.913 . S
H834 C852 0.951 . S
H835 C854 0.951 . S
H836 C856 0.954 . S
H837 C857 0.955 . S
H838 C859 0.950 . S
H839 C862 0.950 . S
H840 C863 0.950 . S
H841 C865 0.950 . S
H842 C866 0.950 . S
H843 C867 0.957 . S
H844 C869 0.943 1_556 S
H845 C871 0.950 . S
H846 C872 0.950 . S
H847 C874 0.950 . S
H848 C877 0.950 . S
H849 C878 0.950 . S
H850 C880 0.950 . S
H851 C881 0.950 . S
C852 H834 0.951 . S
C852 C853 1.366 . S
C852 C854 1.388 . S
C853 C852 1.366 . S
C853 C857 1.385 . S
C854 H835 0.951 . S
C854 C852 1.388 . S
C854 C855 1.366 . S
C855 C854 1.366 . S
C855 C856 1.414 . S
C855 C858 1.499 . S
C856 H836 0.954 . S
C856 C855 1.414 . S
C856 C857 1.374 . S
C857 H837 0.955 . S
C857 C853 1.385 . S
C857 C856 1.374 . S
C858 C855 1.499 . S
C858 C859 1.373 1_554 S
C858 C860 1.389 . S
C859 H838 0.950 . S
C859 C858 1.373 1_556 S
C859 C875 1.377 . S
C860 C858 1.389 . S
C860 C861 1.524 . S
C860 C874 1.377 . S
C861 C860 1.524 . S
C861 C862 1.397 . S
C861 C866 1.363 . S
C862 H839 0.950 . S
C862 C861 1.397 . S
C862 C863 1.334 . S
C863 H840 0.950 . S
C863 C862 1.334 . S
C863 C864 1.287 . S
C864 C863 1.287 . S
C864 C865 1.524 . S
C864 H883 0.913 . S
C865 H841 0.950 . S
C865 C864 1.524 . S
C865 C866 1.415 . S
C866 H842 0.950 . S
C866 C861 1.363 . S
C866 C865 1.415 . S
C867 H843 0.957 . S
C867 C868 1.366 . S
C867 C869 1.388 . S
C868 C867 1.366 . S
C868 C872 1.385 . S
C869 H844 0.943 1_554 S
C869 C867 1.388 . S
C869 C870 1.366 . S
C870 C869 1.366 . S
C870 C871 1.414 . S
C870 C873 1.499 . S
C871 H845 0.950 . S
C871 C870 1.414 . S
C871 C872 1.374 . S
C872 H846 0.950 . S
C872 C868 1.385 . S
C872 C871 1.374 . S
C873 C870 1.499 . S
C873 C874 1.373 . S
C873 C875 1.389 1_554 S
C874 H847 0.950 . S
C874 C860 1.377 . S
C874 C873 1.373 . S
C875 C859 1.377 . S
C875 C873 1.389 1_556 S
C875 C876 1.524 . S
C876 C875 1.524 . S
C876 C877 1.397 . S
C876 C881 1.363 . S
C877 H848 0.950 . S
C877 C876 1.397 . S
C877 C878 1.334 . S
C878 H849 0.950 . S
C878 C877 1.334 . S
C878 C879 1.287 . S
C879 C878 1.287 . S
C879 C880 1.524 . S
C879 H882 0.999 . S
C880 H850 0.950 . S
C880 C879 1.524 . S
C880 C881 1.415 . S
C881 H851 0.950 . S
C881 C876 1.363 . S
C881 C880 1.415 . S
H882 C879 0.999 . S
H883 C864 0.913 . S
H884 C902 0.951 . S
H885 C904 0.951 . S
H886 C906 0.950 . S
H887 C907 0.950 . S
H888 C909 0.950 . S
H889 C912 0.950 . S
H890 C913 0.950 . S
H891 C915 0.950 1_655 S
H892 C916 0.950 . S
H893 C917 0.951 . S
H894 C919 0.951 . S
H895 C921 0.950 . S
H896 C922 0.950 . S
H897 C924 0.950 . S
H898 C927 0.950 . S
H899 C928 0.950 . S
H900 C930 0.950 . S
H901 C931 0.950 . S
C902 H884 0.951 . S
C902 C903 1.366 . S
C902 C904 1.388 . S
C903 C902 1.366 . S
C903 C907 1.385 . S
C904 H885 0.951 . S
C904 C902 1.388 . S
C904 C905 1.366 . S
C905 C904 1.366 . S
C905 C906 1.414 . S
C905 C908 1.499 . S
C906 H886 0.950 . S
C906 C905 1.414 . S
C906 C907 1.374 . S
C907 H887 0.950 . S
C907 C903 1.385 . S
C907 C906 1.374 . S
C908 C905 1.499 . S
C908 C909 1.373 . S
C908 C910 1.389 . S
C909 H888 0.950 . S
C909 C908 1.373 . S
C909 C925 1.377 . S
C910 C908 1.389 . S
C910 C911 1.524 . S
C910 C924 1.377 . S
C911 C910 1.524 . S
C911 C912 1.397 . S
C911 C916 1.363 . S
C912 H889 0.950 . S
C912 C911 1.397 . S
C912 C913 1.334 . S
C913 H890 0.950 . S
C913 C912 1.334 . S
C913 C914 1.287 . S
C914 C913 1.287 . S
C914 C915 1.524 . S
C914 H933 0.913 . S
C915 H891 0.950 1_455 S
C915 C914 1.524 . S
C915 C916 1.415 . S
C916 H892 0.950 . S
C916 C911 1.363 . S
C916 C915 1.415 . S
C917 H893 0.951 . S
C917 C918 1.366 . S
C917 C919 1.388 . S
C918 C917 1.366 . S
C918 C922 1.385 . S
C919 H894 0.951 . S
C919 C917 1.388 . S
C919 C920 1.366 . S
C920 C919 1.366 . S
C920 C921 1.414 . S
C920 C923 1.499 . S
C921 H895 0.950 . S
C921 C920 1.414 . S
C921 C922 1.374 . S
C922 H896 0.950 . S
C922 C918 1.385 . S
C922 C921 1.374 . S
C923 C920 1.499 . S
C923 C924 1.373 . S
C923 C925 1.389 . S
C924 H897 0.950 . S
C924 C910 1.377 . S
C924 C923 1.373 . S
C925 C909 1.377 . S
C925 C923 1.389 . S
C925 C926 1.524 . S
C926 C925 1.524 . S
C926 C927 1.397 . S
C926 C931 1.363 . S
C927 H898 0.950 . S
C927 C926 1.397 . S
C927 C928 1.334 . S
C928 H899 0.950 . S
C928 C927 1.334 . S
C928 C929 1.287 . S
C929 C928 1.287 . S
C929 C930 1.524 . S
C929 H932 0.999 . S
C930 H900 0.950 . S
C930 C929 1.524 . S
C930 C931 1.415 . S
C931 H901 0.950 . S
C931 C926 1.363 . S
C931 C930 1.415 . S
H932 C929 0.999 . S
H933 C914 0.913 . S
H934 C952 0.951 . S
H935 C954 0.951 . S
H936 C956 0.950 . S
H937 C957 0.950 . S
H938 C959 0.950 . S
H939 C962 0.950 . S
H940 C963 0.950 . S
H941 C965 0.950 . S
H942 C966 0.950 . S
H943 C967 0.951 . S
H944 C969 0.951 . S
H945 C971 0.950 . S
H946 C972 0.950 . S
H947 C974 0.950 . S
H948 C977 0.950 . S
H949 C978 0.950 . S
H950 C980 0.950 . S
H951 C981 0.950 1_455 S
C952 H934 0.951 . S
C952 C953 1.366 . S
C952 C954 1.388 . S
C953 C952 1.366 . S
C953 C957 1.385 . S
C954 H935 0.951 . S
C954 C952 1.388 . S
C954 C955 1.366 . S
C955 C954 1.366 . S
C955 C956 1.414 . S
C955 C958 1.499 . S
C956 H936 0.950 . S
C956 C955 1.414 . S
C956 C957 1.374 . S
C957 H937 0.950 . S
C957 C953 1.385 . S
C957 C956 1.374 . S
C958 C955 1.499 . S
C958 C959 1.373 . S
C958 C960 1.389 . S
C959 H938 0.950 . S
C959 C958 1.373 . S
C959 C975 1.377 . S
C960 C958 1.389 . S
C960 C961 1.524 . S
C960 C974 1.377 . S
C961 C960 1.524 . S
C961 C962 1.397 . S
C961 C966 1.363 . S
C962 H939 0.950 . S
C962 C961 1.397 . S
C962 C963 1.334 . S
C963 H940 0.950 . S
C963 C962 1.334 . S
C963 C964 1.287 . S
C964 C963 1.287 . S
C964 C965 1.524 . S
C964 H983 0.913 . S
C965 H941 0.950 . S
C965 C964 1.524 . S
C965 C966 1.415 . S
C966 H942 0.950 . S
C966 C961 1.363 . S
C966 C965 1.415 . S
C967 H943 0.951 . S
C967 C968 1.366 . S
C967 C969 1.388 . S
C968 C967 1.366 . S
C968 C972 1.385 . S
C969 H944 0.951 . S
C969 C967 1.388 . S
C969 C970 1.366 . S
C970 C969 1.366 . S
C970 C971 1.414 . S
C970 C973 1.499 . S
C971 H945 0.950 . S
C971 C970 1.414 . S
C971 C972 1.374 . S
C972 H946 0.950 . S
C972 C968 1.385 . S
C972 C971 1.374 . S
C973 C970 1.499 . S
C973 C974 1.373 . S
C973 C975 1.389 . S
C974 H947 0.950 . S
C974 C960 1.377 . S
C974 C973 1.373 . S
C975 C959 1.377 . S
C975 C973 1.389 . S
C975 C976 1.524 . S
C976 C975 1.524 . S
C976 C977 1.397 . S
C976 C981 1.363 . S
C977 H948 0.950 . S
C977 C976 1.397 . S
C977 C978 1.334 . S
C978 H949 0.950 . S
C978 C977 1.334 . S
C978 C979 1.287 . S
C979 C978 1.287 . S
C979 C980 1.524 1_655 S
C979 H982 0.999 1_655 S
C980 H950 0.950 . S
C980 C979 1.524 1_455 S
C980 C981 1.415 1_455 S
C981 H951 0.950 1_655 S
C981 C976 1.363 . S
C981 C980 1.415 1_655 S
H982 C979 0.999 1_455 S
H983 C964 0.913 . S
C203 N25 1.466 . S
C218 N2 1.465 . S
C253 N48 1.466 . S
C268 N71 1.467 . S
C303 N94 1.465 . S
C318 N117 1.466 . S
C353 N140 1.465 . S
C368 N163 1.466 . S
C403 C16 1.493 . S
C418 C85 1.492 . S
C453 C62 1.492 . S
C468 C39 1.493 . S
C503 C53 1.503 . S
C518 C30 1.503 . S
C553 C7 1.503 . S
C568 C76 1.503 . S
C603 C108 1.494 . S
C618 C177 1.494 . S
C653 C154 1.494 . S
C668 C131 1.494 . S
C703 C122 1.505 . S
C718 C145 1.505 . S
C753 C99 1.505 . S
C768 C168 1.504 . S
C803 N127 1.488 . S
C818 N12 1.487 . S
C853 N104 1.488 . S
C868 N35 1.487 . S
C903 N58 1.488 . S
C918 N173 1.489 . S
C953 N150 1.488 . S
C968 N81 1.489 . S
