# Generated by pormake.
# Topology vcc, (6)-cn, num edge types: 1
# Building blocks:
#     Node 0, Type 0, BuildingBlock: MIFKUJ_clean_sbu_0, # of connection points: 6
#     Node 1, Type 0, BuildingBlock: MIFKUJ_clean_sbu_0, # of connection points: 6
#     Node 2, Type 0, BuildingBlock: MIFKUJ_clean_sbu_0, # of connection points: 6
#     Node 3, Type 0, BuildingBlock: MIFKUJ_clean_sbu_0, # of connection points: 6
#     Node 4, Type 0, BuildingBlock: MIFKUJ_clean_sbu_0, # of connection points: 6
#     Node 5, Type 0, BuildingBlock: MIFKUJ_clean_sbu_0, # of connection points: 6
#     Node 6, Type 0, BuildingBlock: MIFKUJ_clean_sbu_0, # of connection points: 6
#     Node 7, Type 0, BuildingBlock: MIFKUJ_clean_sbu_0, # of connection points: 6
#     Node 8, Type 0, BuildingBlock: MIFKUJ_clean_sbu_0, # of connection points: 6
#     Node 9, Type 0, BuildingBlock: MIFKUJ_clean_sbu_0, # of connection points: 6
#     Node 10, Type 0, BuildingBlock: MIFKUJ_clean_sbu_0, # of connection points: 6
#     Node 11, Type 0, BuildingBlock: MIFKUJ_clean_sbu_0, # of connection points: 6
#     Node 12, Type 0, BuildingBlock: MIFKUJ_clean_sbu_0, # of connection points: 6
#     Node 13, Type 0, BuildingBlock: MIFKUJ_clean_sbu_0, # of connection points: 6
#     Node 14, Type 0, BuildingBlock: MIFKUJ_clean_sbu_0, # of connection points: 6
#     Node 15, Type 0, BuildingBlock: MIFKUJ_clean_sbu_0, # of connection points: 6
#     Node 16, Type 0, BuildingBlock: MIFKUJ_clean_sbu_0, # of connection points: 6
#     Node 17, Type 0, BuildingBlock: MIFKUJ_clean_sbu_0, # of connection points: 6
#     Node 18, Type 0, BuildingBlock: MIFKUJ_clean_sbu_0, # of connection points: 6
#     Node 19, Type 0, BuildingBlock: MIFKUJ_clean_sbu_0, # of connection points: 6
#     Node 20, Type 0, BuildingBlock: MIFKUJ_clean_sbu_0, # of connection points: 6
#     Node 21, Type 0, BuildingBlock: MIFKUJ_clean_sbu_0, # of connection points: 6
#     Node 22, Type 0, BuildingBlock: MIFKUJ_clean_sbu_0, # of connection points: 6
#     Node 23, Type 0, BuildingBlock: MIFKUJ_clean_sbu_0, # of connection points: 6
#     Node 24, Type 0, BuildingBlock: MIFKUJ_clean_sbu_0, # of connection points: 6
#     Node 25, Type 0, BuildingBlock: MIFKUJ_clean_sbu_0, # of connection points: 6
#     Node 26, Type 0, BuildingBlock: MIFKUJ_clean_sbu_0, # of connection points: 6
#     Node 27, Type 0, BuildingBlock: MIFKUJ_clean_sbu_0, # of connection points: 6
#     Node 28, Type 0, BuildingBlock: MIFKUJ_clean_sbu_0, # of connection points: 6
#     Node 29, Type 0, BuildingBlock: MIFKUJ_clean_sbu_0, # of connection points: 6
#     Node 30, Type 0, BuildingBlock: MIFKUJ_clean_sbu_0, # of connection points: 6
#     Node 31, Type 0, BuildingBlock: MIFKUJ_clean_sbu_0, # of connection points: 6
#     Edge 32, Type (0, 0), BuildingBlock: UVAHIK_clean_linker_0, # of connection points: 2
#     Edge 33, Type (0, 0), BuildingBlock: UVAHIK_clean_linker_0, # of connection points: 2
#     Edge 34, Type (0, 0), BuildingBlock: UVAHIK_clean_linker_0, # of connection points: 2
#     Edge 35, Type (0, 0), BuildingBlock: UVAHIK_clean_linker_0, # of connection points: 2
#     Edge 36, Type (0, 0), BuildingBlock: UVAHIK_clean_linker_0, # of connection points: 2
#     Edge 37, Type (0, 0), BuildingBlock: UVAHIK_clean_linker_0, # of connection points: 2
#     Edge 38, Type (0, 0), BuildingBlock: UVAHIK_clean_linker_0, # of connection points: 2
#     Edge 39, Type (0, 0), BuildingBlock: UVAHIK_clean_linker_0, # of connection points: 2
#     Edge 40, Type (0, 0), BuildingBlock: UVAHIK_clean_linker_0, # of connection points: 2
#     Edge 41, Type (0, 0), BuildingBlock: UVAHIK_clean_linker_0, # of connection points: 2
#     Edge 42, Type (0, 0), BuildingBlock: UVAHIK_clean_linker_0, # of connection points: 2
#     Edge 43, Type (0, 0), BuildingBlock: UVAHIK_clean_linker_0, # of connection points: 2
#     Edge 44, Type (0, 0), BuildingBlock: UVAHIK_clean_linker_0, # of connection points: 2
#     Edge 45, Type (0, 0), BuildingBlock: UVAHIK_clean_linker_0, # of connection points: 2
#     Edge 46, Type (0, 0), BuildingBlock: UVAHIK_clean_linker_0, # of connection points: 2
#     Edge 47, Type (0, 0), BuildingBlock: UVAHIK_clean_linker_0, # of connection points: 2
#     Edge 48, Type (0, 0), BuildingBlock: UVAHIK_clean_linker_0, # of connection points: 2
#     Edge 49, Type (0, 0), BuildingBlock: UVAHIK_clean_linker_0, # of connection points: 2
#     Edge 50, Type (0, 0), BuildingBlock: UVAHIK_clean_linker_0, # of connection points: 2
#     Edge 51, Type (0, 0), BuildingBlock: UVAHIK_clean_linker_0, # of connection points: 2
#     Edge 52, Type (0, 0), BuildingBlock: UVAHIK_clean_linker_0, # of connection points: 2
#     Edge 53, Type (0, 0), BuildingBlock: UVAHIK_clean_linker_0, # of connection points: 2
#     Edge 54, Type (0, 0), BuildingBlock: UVAHIK_clean_linker_0, # of connection points: 2
#     Edge 55, Type (0, 0), BuildingBlock: UVAHIK_clean_linker_0, # of connection points: 2
#     Edge 56, Type (0, 0), BuildingBlock: UVAHIK_clean_linker_0, # of connection points: 2
#     Edge 57, Type (0, 0), BuildingBlock: UVAHIK_clean_linker_0, # of connection points: 2
#     Edge 58, Type (0, 0), BuildingBlock: UVAHIK_clean_linker_0, # of connection points: 2
#     Edge 59, Type (0, 0), BuildingBlock: UVAHIK_clean_linker_0, # of connection points: 2
#     Edge 60, Type (0, 0), BuildingBlock: UVAHIK_clean_linker_0, # of connection points: 2
#     Edge 61, Type (0, 0), BuildingBlock: UVAHIK_clean_linker_0, # of connection points: 2
#     Edge 62, Type (0, 0), BuildingBlock: UVAHIK_clean_linker_0, # of connection points: 2
#     Edge 63, Type (0, 0), BuildingBlock: UVAHIK_clean_linker_0, # of connection points: 2
#     Edge 64, Type (0, 0), BuildingBlock: UVAHIK_clean_linker_0, # of connection points: 2
#     Edge 65, Type (0, 0), BuildingBlock: UVAHIK_clean_linker_0, # of connection points: 2
#     Edge 66, Type (0, 0), BuildingBlock: UVAHIK_clean_linker_0, # of connection points: 2
#     Edge 67, Type (0, 0), BuildingBlock: UVAHIK_clean_linker_0, # of connection points: 2
#     Edge 68, Type (0, 0), BuildingBlock: UVAHIK_clean_linker_0, # of connection points: 2
#     Edge 69, Type (0, 0), BuildingBlock: UVAHIK_clean_linker_0, # of connection points: 2
#     Edge 70, Type (0, 0), BuildingBlock: UVAHIK_clean_linker_0, # of connection points: 2
#     Edge 71, Type (0, 0), BuildingBlock: UVAHIK_clean_linker_0, # of connection points: 2
#     Edge 72, Type (0, 0), BuildingBlock: UVAHIK_clean_linker_0, # of connection points: 2
#     Edge 73, Type (0, 0), BuildingBlock: UVAHIK_clean_linker_0, # of connection points: 2
#     Edge 74, Type (0, 0), BuildingBlock: UVAHIK_clean_linker_0, # of connection points: 2
#     Edge 75, Type (0, 0), BuildingBlock: UVAHIK_clean_linker_0, # of connection points: 2
#     Edge 76, Type (0, 0), BuildingBlock: UVAHIK_clean_linker_0, # of connection points: 2
#     Edge 77, Type (0, 0), BuildingBlock: UVAHIK_clean_linker_0, # of connection points: 2
#     Edge 78, Type (0, 0), BuildingBlock: UVAHIK_clean_linker_0, # of connection points: 2
#     Edge 79, Type (0, 0), BuildingBlock: UVAHIK_clean_linker_0, # of connection points: 2
#     Edge 80, Type (0, 0), BuildingBlock: UVAHIK_clean_linker_0, # of connection points: 2
#     Edge 81, Type (0, 0), BuildingBlock: UVAHIK_clean_linker_0, # of connection points: 2
#     Edge 82, Type (0, 0), BuildingBlock: UVAHIK_clean_linker_0, # of connection points: 2
#     Edge 83, Type (0, 0), BuildingBlock: UVAHIK_clean_linker_0, # of connection points: 2
#     Edge 84, Type (0, 0), BuildingBlock: UVAHIK_clean_linker_0, # of connection points: 2
#     Edge 85, Type (0, 0), BuildingBlock: UVAHIK_clean_linker_0, # of connection points: 2
#     Edge 86, Type (0, 0), BuildingBlock: UVAHIK_clean_linker_0, # of connection points: 2
#     Edge 87, Type (0, 0), BuildingBlock: UVAHIK_clean_linker_0, # of connection points: 2
#     Edge 88, Type (0, 0), BuildingBlock: UVAHIK_clean_linker_0, # of connection points: 2
#     Edge 89, Type (0, 0), BuildingBlock: UVAHIK_clean_linker_0, # of connection points: 2
#     Edge 90, Type (0, 0), BuildingBlock: UVAHIK_clean_linker_0, # of connection points: 2
#     Edge 91, Type (0, 0), BuildingBlock: UVAHIK_clean_linker_0, # of connection points: 2
#     Edge 92, Type (0, 0), BuildingBlock: UVAHIK_clean_linker_0, # of connection points: 2
#     Edge 93, Type (0, 0), BuildingBlock: UVAHIK_clean_linker_0, # of connection points: 2
#     Edge 94, Type (0, 0), BuildingBlock: UVAHIK_clean_linker_0, # of connection points: 2
#     Edge 95, Type (0, 0), BuildingBlock: UVAHIK_clean_linker_0, # of connection points: 2
#     Edge 96, Type (0, 0), BuildingBlock: UVAHIK_clean_linker_0, # of connection points: 2
#     Edge 97, Type (0, 0), BuildingBlock: UVAHIK_clean_linker_0, # of connection points: 2
#     Edge 98, Type (0, 0), BuildingBlock: UVAHIK_clean_linker_0, # of connection points: 2
#     Edge 99, Type (0, 0), BuildingBlock: UVAHIK_clean_linker_0, # of connection points: 2
#     Edge 100, Type (0, 0), BuildingBlock: UVAHIK_clean_linker_0, # of connection points: 2
#     Edge 101, Type (0, 0), BuildingBlock: UVAHIK_clean_linker_0, # of connection points: 2
#     Edge 102, Type (0, 0), BuildingBlock: UVAHIK_clean_linker_0, # of connection points: 2
#     Edge 103, Type (0, 0), BuildingBlock: UVAHIK_clean_linker_0, # of connection points: 2
#     Edge 104, Type (0, 0), BuildingBlock: UVAHIK_clean_linker_0, # of connection points: 2
#     Edge 105, Type (0, 0), BuildingBlock: UVAHIK_clean_linker_0, # of connection points: 2
#     Edge 106, Type (0, 0), BuildingBlock: UVAHIK_clean_linker_0, # of connection points: 2
#     Edge 107, Type (0, 0), BuildingBlock: UVAHIK_clean_linker_0, # of connection points: 2
#     Edge 108, Type (0, 0), BuildingBlock: UVAHIK_clean_linker_0, # of connection points: 2
#     Edge 109, Type (0, 0), BuildingBlock: UVAHIK_clean_linker_0, # of connection points: 2
#     Edge 110, Type (0, 0), BuildingBlock: UVAHIK_clean_linker_0, # of connection points: 2
#     Edge 111, Type (0, 0), BuildingBlock: UVAHIK_clean_linker_0, # of connection points: 2
#     Edge 112, Type (0, 0), BuildingBlock: UVAHIK_clean_linker_0, # of connection points: 2
#     Edge 113, Type (0, 0), BuildingBlock: UVAHIK_clean_linker_0, # of connection points: 2
#     Edge 114, Type (0, 0), BuildingBlock: UVAHIK_clean_linker_0, # of connection points: 2
#     Edge 115, Type (0, 0), BuildingBlock: UVAHIK_clean_linker_0, # of connection points: 2
#     Edge 116, Type (0, 0), BuildingBlock: UVAHIK_clean_linker_0, # of connection points: 2
#     Edge 117, Type (0, 0), BuildingBlock: UVAHIK_clean_linker_0, # of connection points: 2
#     Edge 118, Type (0, 0), BuildingBlock: UVAHIK_clean_linker_0, # of connection points: 2
#     Edge 119, Type (0, 0), BuildingBlock: UVAHIK_clean_linker_0, # of connection points: 2
#     Edge 120, Type (0, 0), BuildingBlock: UVAHIK_clean_linker_0, # of connection points: 2
#     Edge 121, Type (0, 0), BuildingBlock: UVAHIK_clean_linker_0, # of connection points: 2
#     Edge 122, Type (0, 0), BuildingBlock: UVAHIK_clean_linker_0, # of connection points: 2
#     Edge 123, Type (0, 0), BuildingBlock: UVAHIK_clean_linker_0, # of connection points: 2
#     Edge 124, Type (0, 0), BuildingBlock: UVAHIK_clean_linker_0, # of connection points: 2
#     Edge 125, Type (0, 0), BuildingBlock: UVAHIK_clean_linker_0, # of connection points: 2
#     Edge 126, Type (0, 0), BuildingBlock: UVAHIK_clean_linker_0, # of connection points: 2
#     Edge 127, Type (0, 0), BuildingBlock: UVAHIK_clean_linker_0, # of connection points: 2
# Relax obj value: 0.067
# Max RMSD: 0.131
# Mean RMSD: 0.131
data_MOF--net-vcc--node1-MIFKUJ_clean_sbu_0--edge1-UVAHIK_clean_linker_0
_symmetry_space_group_name_H-M    P1
_symmetry_Int_Tables_number       1
_symmetry_cell_setting            triclinic
loop_
_symmetry_equiv_pos_as_xyz
'x, y, z'
_cell_length_a     61.2131
_cell_length_b     70.667633
_cell_length_c     57.68222
_cell_angle_alpha  90.013002
_cell_angle_beta   89.902844
_cell_angle_gamma 89.999553
loop_
_atom_site_label
_atom_site_type_symbol
_atom_site_fract_x
_atom_site_fract_y
_atom_site_fract_z
_atom_type_partial_charge
Zn0 Zn 0.32867 0.0027 0.10629 0.0
Zn1 Zn 0.3267 0.00518 0.03262 0.0
C2 C 0.35947 0.99572 0.13989 0.0
O3 O 0.3461 0.98122 0.14134 0.0
C4 C 0.28931 0.01591 0.00803 0.0
O5 O 0.30157 0.03107 0.00584 0.0
O6 O 0.30272 0.00435 0.12811 0.0
O7 O 0.32711 0.01664 0.0772 0.0
O8 O 0.32876 0.03221 0.04542 0.0
C9 C 0.30438 0.0161 0.14476 0.0
O10 O 0.32144 0.02736 0.14548 0.0
O11 O 0.35578 0.00837 0.12471 0.0
C12 C 0.34301 0.98928 0.99083 0.0
O13 O 0.3299 0.9756 0.9975 0.0
O14 O 0.34569 0.00345 0.00411 0.0
O15 O 0.33308 0.983 0.05573 0.0
O16 O 0.33317 0.97674 0.09377 0.0
O17 O 0.29631 0.00214 0.02008 0.0
C18 C 0.32764 0.03248 0.06726 0.0
C19 C 0.33596 0.97156 0.07274 0.0
Zn20 Zn 0.93169 0.24462 0.10448 0.0
Zn21 Zn 0.92567 0.24145 0.03771 0.0
C22 C 0.89819 0.24984 0.13515 0.0
O23 O 0.91055 0.26499 0.13676 0.0
C24 C 0.96532 0.22709 0.01869 0.0
O25 O 0.95281 0.21215 0.01599 0.0
O26 O 0.95421 0.24718 0.12983 0.0
O27 O 0.9419 0.22607 0.08073 0.0
O28 O 0.91731 0.21788 0.05548 0.0
C29 C 0.95423 0.23402 0.14488 0.0
O30 O 0.94091 0.21963 0.14211 0.0
O31 O 0.90375 0.23691 0.12094 0.0
C32 C 0.91256 0.2547 0.99363 0.0
O33 O 0.92309 0.26965 1.00127 0.0
O34 O 0.91063 0.24039 0.0068 0.0
O35 O 0.91794 0.26673 0.0526 0.0
O36 O 0.92449 0.26997 0.09048 0.0
O37 O 0.95767 0.24143 0.02926 0.0
C38 C 0.92795 0.21416 0.07373 0.0
C39 C 0.91833 0.27668 0.07105 0.0
Zn40 Zn 0.31676 0.24924 0.15949 0.0
Zn41 Zn 0.33193 0.2421 0.21269 0.0
C42 C 0.35464 0.26033 0.13522 0.0
O43 O 0.34253 0.27564 0.13392 0.0
C44 C 0.29184 0.23172 0.23289 0.0
O45 O 0.30324 0.21603 0.23457 0.0
O46 O 0.29863 0.25252 0.13061 0.0
O47 O 0.30656 0.22464 0.17368 0.0
O48 O 0.33597 0.21845 0.19403 0.0
C49 C 0.30046 0.23912 0.116 0.0
O50 O 0.31284 0.22455 0.12124 0.0
O51 O 0.34748 0.24622 0.14665 0.0
C52 C 0.3453 0.25283 0.25694 0.0
O53 O 0.33606 0.26837 0.24917 0.0
O54 O 0.34666 0.23861 0.24353 0.0
O55 O 0.34476 0.26562 0.19882 0.0
O56 O 0.31601 0.27357 0.17812 0.0
O57 O 0.30017 0.24568 0.22209 0.0
C58 C 0.32065 0.21286 0.18092 0.0
C59 C 0.33346 0.27816 0.18865 0.0
Zn60 Zn 0.91939 0.00281 0.14649 0.0
Zn61 Zn 0.92646 0.00431 0.22058 0.0
C62 C 0.88583 0.99414 0.11654 0.0
O63 O 0.8992 0.97967 0.11465 0.0
C64 C 0.96383 0.0149 0.24524 0.0
O65 O 0.9512 0.02979 0.24776 0.0
O66 O 0.94392 0.0045 0.12272 0.0
O67 O 0.92243 0.01736 0.17517 0.0
O68 O 0.92355 0.03138 0.20812 0.0
C69 C 0.94083 0.01502 0.10509 0.0
O70 O 0.92301 0.02534 0.10408 0.0
O71 O 0.89084 0.00759 0.13018 0.0
C72 C 0.91091 0.98857 0.26297 0.0
O73 O 0.92405 0.97489 0.25634 0.0
O74 O 0.90802 0.00261 0.24954 0.0
O75 O 0.91871 0.98227 0.1977 0.0
O76 O 0.91639 0.97676 0.15959 0.0
O77 O 0.9572 0.00126 0.2327 0.0
C78 C 0.92241 0.0327 0.18631 0.0
C79 C 0.91491 0.97113 0.18058 0.0
Zn80 Zn 0.65216 0.98986 0.95798 0.0
Zn81 Zn 0.67452 0.99513 0.90978 0.0
C82 C 0.69251 0.97989 0.97775 0.0
O83 O 0.68114 0.96443 0.98161 0.0
C84 C 0.6404 0.00753 0.88116 0.0
O85 O 0.65359 0.02219 0.88048 0.0
O86 O 0.63766 0.98739 0.98938 0.0
O87 O 0.64102 0.01321 0.94278 0.0
O88 O 0.67349 0.01973 0.9284 0.0
C89 C 0.63928 0.00172 0.00261 0.0
O90 O 0.64845 0.01717 0.99446 0.0
O91 O 0.68383 0.99324 0.96626 0.0
C92 C 0.69532 0.98494 0.8679 0.0
O93 O 0.68236 0.97039 0.8714 0.0
O94 O 0.69586 0.99804 0.88306 0.0
O95 O 0.6805 0.96946 0.92435 0.0
O96 O 0.64786 0.96609 0.93982 0.0
O97 O 0.64554 0.99337 0.89358 0.0
C98 C 0.65478 0.02522 0.93539 0.0
C99 C 0.66441 0.95896 0.92983 0.0
Zn100 Zn 0.07657 0.7523 0.96849 0.0
Zn101 Zn 0.06779 0.74802 0.90334 0.0
C102 C 0.0378 0.76637 0.98924 0.0
O103 O 0.05025 0.78148 0.99053 0.0
C104 C 0.10335 0.74424 0.87479 0.0
O105 O 0.09194 0.72866 0.87202 0.0
O106 O 0.09323 0.75451 0.99842 0.0
O107 O 0.08434 0.72694 0.95398 0.0
O108 O 0.07541 0.72263 0.91683 0.0
C109 C 0.09191 0.7405 0.01217 0.0
O110 O 0.08112 0.72537 0.00554 0.0
O111 O 0.0451 0.75178 0.97892 0.0
C112 C 0.04604 0.75921 0.86273 0.0
O113 O 0.05783 0.7743 0.86723 0.0
O114 O 0.04659 0.74539 0.87685 0.0
O115 O 0.0561 0.766 0.92696 0.0
O116 O 0.08254 0.77561 0.94927 0.0
O117 O 0.09613 0.75686 0.88857 0.0
C118 C 0.08302 0.71654 0.93596 0.0
C119 C 0.06957 0.77876 0.93262 0.0
Zn120 Zn 0.67459 0.75414 0.78335 0.0
Zn121 Zn 0.68187 0.75162 0.85333 0.0
C122 C 0.71304 0.76806 0.76123 0.0
O123 O 0.70084 0.78331 0.75985 0.0
C124 C 0.65046 0.74735 0.88668 0.0
O125 O 0.66352 0.7327 0.88884 0.0
O126 O 0.65662 0.75239 0.75445 0.0
O127 O 0.66901 0.73052 0.80379 0.0
O128 O 0.67458 0.72571 0.84171 0.0
C129 C 0.65943 0.73817 0.74132 0.0
O130 O 0.6727 0.72461 0.74798 0.0
O131 O 0.70567 0.75367 0.77189 0.0
C132 C 0.70697 0.76478 0.89077 0.0
O133 O 0.69166 0.77776 0.88964 0.0
O134 O 0.70716 0.75163 0.8757 0.0
O135 O 0.68735 0.76544 0.82454 0.0
O136 O 0.66789 0.77932 0.79856 0.0
O137 O 0.65476 0.75957 0.87111 0.0
C138 C 0.66857 0.71987 0.82176 0.0
C139 C 0.67611 0.77958 0.81859 0.0
Zn140 Zn 0.08259 0.98995 0.79119 0.0
Zn141 Zn 0.06165 0.99802 0.83934 0.0
C142 C 0.04328 0.97904 0.77004 0.0
O143 O 0.05497 0.96351 0.76827 0.0
C144 C 0.09809 0.00995 0.86488 0.0
O145 O 0.08541 0.0249 0.86642 0.0
O146 O 0.09888 0.98599 0.76125 0.0
O147 O 0.09422 0.01366 0.80512 0.0
O148 O 0.06258 0.02217 0.81984 0.0
C149 C 0.09938 0.00027 0.74786 0.0
O150 O 0.09049 0.01619 0.75489 0.0
O151 O 0.05128 0.99311 0.78083 0.0
C152 C 0.0446 0.99004 0.88346 0.0
O153 O 0.0576 0.97551 0.8799 0.0
O154 O 0.04246 0.00227 0.86742 0.0
O155 O 0.05363 0.97212 0.82649 0.0
O156 O 0.08594 0.96705 0.81107 0.0
O157 O 0.09162 0.99574 0.85327 0.0
C158 C 0.08152 0.02655 0.81238 0.0
C159 C 0.06931 0.96091 0.82186 0.0
Zn160 Zn 0.30816 0.49623 0.5912 0.0
Zn161 Zn 0.32692 0.5033 0.54116 0.0
C162 C 0.34487 0.48495 0.61726 0.0
O163 O 0.33233 0.46989 0.61844 0.0
C164 C 0.28789 0.51378 0.51885 0.0
O165 O 0.2996 0.52931 0.51714 0.0
O166 O 0.28915 0.49304 0.61934 0.0
O167 O 0.2986 0.52079 0.57653 0.0
O168 O 0.33025 0.52668 0.56024 0.0
C169 C 0.29029 0.50669 0.63366 0.0
O170 O 0.30229 0.52148 0.6283 0.0
O171 O 0.33846 0.49902 0.60528 0.0
C172 C 0.34286 0.49244 0.49803 0.0
O173 O 0.33368 0.47677 0.50549 0.0
O174 O 0.34316 0.5068 0.51128 0.0
O175 O 0.33871 0.47978 0.55564 0.0
O176 O 0.30785 0.47196 0.57264 0.0
O177 O 0.29561 0.49992 0.53028 0.0
C178 C 0.31358 0.53244 0.57123 0.0
C179 C 0.32622 0.46725 0.56414 0.0
Zn180 Zn 0.94016 0.74802 0.58996 0.0
Zn181 Zn 0.92089 0.74092 0.54105 0.0
C182 C 0.9038 0.76047 0.61557 0.0
O183 O 0.91691 0.77515 0.61706 0.0
C184 C 0.96086 0.73023 0.52025 0.0
O185 O 0.94927 0.71472 0.51772 0.0
O186 O 0.95918 0.7516 0.61806 0.0
O187 O 0.94843 0.72244 0.57649 0.0
O188 O 0.91658 0.71764 0.56012 0.0
C189 C 0.95779 0.73846 0.63306 0.0
O190 O 0.94556 0.72365 0.62845 0.0
O191 O 0.90991 0.74614 0.6039 0.0
C192 C 0.90587 0.7519 0.49754 0.0
O193 O 0.91504 0.76754 0.50507 0.0
O194 O 0.9054 0.73753 0.51076 0.0
O195 O 0.90905 0.76456 0.55517 0.0
O196 O 0.94044 0.77226 0.57091 0.0
O197 O 0.95257 0.74404 0.53136 0.0
C198 C 0.93297 0.7113 0.57105 0.0
C199 C 0.92183 0.7771 0.5631 0.0
Zn200 Zn 0.31485 0.74931 0.66179 0.0
Zn201 Zn 0.33506 0.74273 0.71102 0.0
C202 C 0.35128 0.75886 0.63471 0.0
O203 O 0.3391 0.77411 0.63313 0.0
C204 C 0.29545 0.73486 0.73368 0.0
O205 O 0.30636 0.71905 0.73678 0.0
O206 O 0.29529 0.75257 0.634 0.0
O207 O 0.30473 0.72548 0.6777 0.0
O208 O 0.33682 0.71889 0.69243 0.0
C209 C 0.29571 0.73879 0.6198 0.0
O210 O 0.30746 0.72381 0.62498 0.0
O211 O 0.34465 0.74519 0.64724 0.0
C212 C 0.3519 0.75368 0.75409 0.0
O213 O 0.34412 0.76976 0.74619 0.0
O214 O 0.35099 0.7391 0.7412 0.0
O215 O 0.34763 0.76557 0.69567 0.0
O216 O 0.31647 0.7739 0.67966 0.0
O217 O 0.30402 0.74783 0.7214 0.0
C218 C 0.31946 0.71346 0.68246 0.0
C219 C 0.33523 0.77829 0.68745 0.0
Zn220 Zn 0.93535 0.50044 0.65095 0.0
Zn221 Zn 0.92728 0.50423 0.71849 0.0
C222 C 0.90229 0.49686 0.61943 0.0
O223 O 0.91437 0.48157 0.61742 0.0
C224 C 0.9666 0.51745 0.73943 0.0
O225 O 0.95472 0.53288 0.74108 0.0
O226 O 0.95855 0.49802 0.6263 0.0
O227 O 0.94515 0.51663 0.67692 0.0
O228 O 0.92136 0.52836 0.70081 0.0
C229 C 0.95934 0.51157 0.61181 0.0
O230 O 0.94654 0.52626 0.61497 0.0
O231 O 0.9079 0.5093 0.63426 0.0
C232 C 0.91153 0.49098 0.7616 0.0
O233 O 0.92245 0.47602 0.75461 0.0
O234 O 0.91032 0.50526 0.7483 0.0
O235 O 0.91968 0.4795 0.70175 0.0
O236 O 0.92696 0.47524 0.66408 0.0
O237 O 0.95872 0.50316 0.72897 0.0
C238 C 0.93249 0.53001 0.68244 0.0
C239 C 0.91996 0.46919 0.68354 0.0
Zn240 Zn 0.66691 0.49413 0.46264 0.0
Zn241 Zn 0.68415 0.50053 0.4114 0.0
C242 C 0.70928 0.48713 0.48112 0.0
O243 O 0.70029 0.47042 0.48415 0.0
C244 C 0.64699 0.51005 0.38507 0.0
O245 O 0.65896 0.52544 0.38349 0.0
O246 O 0.65243 0.49065 0.49352 0.0
O247 O 0.65297 0.51644 0.44758 0.0
O248 O 0.68306 0.52491 0.42942 0.0
C249 C 0.65174 0.50534 0.5062 0.0
O250 O 0.65922 0.52139 0.49787 0.0
O251 O 0.69839 0.49997 0.47088 0.0
C252 C 0.7033 0.49029 0.36939 0.0
O253 O 0.69148 0.47529 0.37432 0.0
O254 O 0.70355 0.50401 0.38365 0.0
O255 O 0.69509 0.47702 0.4272 0.0
O256 O 0.66423 0.47018 0.44453 0.0
O257 O 0.65404 0.49632 0.39725 0.0
C258 C 0.6646 0.52914 0.43811 0.0
C259 C 0.68078 0.46493 0.43297 0.0
Zn260 Zn 0.08533 0.25424 0.46464 0.0
Zn261 Zn 0.06965 0.24609 0.41316 0.0
C262 C 0.0432 0.26235 0.48217 0.0
O263 O 0.05309 0.27868 0.4851 0.0
C264 C 0.10719 0.23592 0.38776 0.0
O265 O 0.09546 0.22036 0.38697 0.0
O266 O 0.09865 0.25836 0.49609 0.0
O267 O 0.09977 0.23146 0.45114 0.0
O268 O 0.07046 0.22213 0.43231 0.0
C269 C 0.0973 0.24415 0.50952 0.0
O270 O 0.08884 0.22837 0.5015 0.0
O271 O 0.0535 0.24901 0.47214 0.0
C272 C 0.05169 0.25498 0.37012 0.0
O273 O 0.06308 0.27025 0.37494 0.0
O274 O 0.05107 0.24165 0.38493 0.0
O275 O 0.05844 0.27039 0.42718 0.0
O276 O 0.08848 0.27781 0.44581 0.0
O277 O 0.09994 0.24995 0.3993 0.0
C278 C 0.08854 0.21833 0.44206 0.0
C279 C 0.07221 0.28273 0.43365 0.0
Zn280 Zn 0.66209 0.25618 0.29052 0.0
Zn281 Zn 0.68072 0.24984 0.3399 0.0
C282 C 0.70436 0.26336 0.27176 0.0
O283 O 0.69513 0.27985 0.26789 0.0
C284 C 0.64392 0.23933 0.3663 0.0
O285 O 0.65618 0.2241 0.36755 0.0
O286 O 0.64802 0.25951 0.25931 0.0
O287 O 0.64889 0.2334 0.30537 0.0
O288 O 0.68041 0.22584 0.32107 0.0
C289 C 0.64899 0.24511 0.24614 0.0
O290 O 0.65746 0.22938 0.25429 0.0
O291 O 0.69363 0.2507 0.2825 0.0
C292 C 0.69965 0.2593 0.38248 0.0
O293 O 0.68814 0.27453 0.37788 0.0
O294 O 0.69996 0.24592 0.36773 0.0
O295 O 0.69088 0.27406 0.32513 0.0
O296 O 0.65946 0.28025 0.30851 0.0
O297 O 0.65059 0.25324 0.35419 0.0
C298 C 0.66198 0.22094 0.31295 0.0
C299 C 0.67645 0.28591 0.31898 0.0
Zn300 Zn 0.08379 0.49091 0.28956 0.0
Zn301 Zn 0.0657 0.49904 0.33966 0.0
C302 C 0.04425 0.48089 0.26813 0.0
O303 O 0.05568 0.46521 0.26634 0.0
C304 C 0.10321 0.50946 0.36487 0.0
O305 O 0.09121 0.52484 0.3662 0.0
O306 O 0.09957 0.48673 0.25945 0.0
O307 O 0.09629 0.51444 0.30336 0.0
O308 O 0.06594 0.52314 0.32081 0.0
C309 C 0.09958 0.50106 0.24615 0.0
O310 O 0.0909 0.51694 0.25364 0.0
O311 O 0.05243 0.49475 0.27921 0.0
C312 C 0.04839 0.48961 0.38286 0.0
O313 O 0.05988 0.47447 0.37769 0.0
O314 O 0.04732 0.50298 0.36815 0.0
O315 O 0.05511 0.47474 0.32525 0.0
O316 O 0.08663 0.46781 0.30929 0.0
O317 O 0.09612 0.4955 0.35312 0.0
C318 C 0.08427 0.52735 0.3118 0.0
C319 C 0.06977 0.46267 0.32043 0.0
Zn320 Zn 0.81554 0.99457 0.59963 0.0
Zn321 Zn 0.83406 0.00183 0.54767 0.0
C322 C 0.8525 0.98348 0.62515 0.0
O323 O 0.8403 0.96821 0.62637 0.0
C324 C 0.79438 0.01224 0.52724 0.0
O325 O 0.80582 0.02793 0.5258 0.0
O326 O 0.79611 0.99084 0.62778 0.0
O327 O 0.80663 0.01962 0.58521 0.0
O328 O 0.8374 0.02533 0.56669 0.0
C329 C 0.79702 0.00389 0.64297 0.0
O330 O 0.80926 0.01879 0.63879 0.0
O331 O 0.84559 0.9976 0.61363 0.0
C332 C 0.85077 0.99033 0.5044 0.0
O333 O 0.84313 0.97429 0.51262 0.0
O334 O 0.84966 0.00508 0.51699 0.0
O335 O 0.84646 0.97868 0.56237 0.0
O336 O 0.81649 0.97016 0.58079 0.0
O337 O 0.80261 0.99816 0.53784 0.0
C338 C 0.82142 0.03115 0.5788 0.0
C339 C 0.8348 0.96591 0.57165 0.0
Zn340 Zn 0.43572 0.25193 0.59389 0.0
Zn341 Zn 0.41867 0.244 0.5414 0.0
C342 C 0.39778 0.26102 0.61921 0.0
O343 O 0.40925 0.27669 0.62063 0.0
C344 C 0.45825 0.23423 0.51965 0.0
O345 O 0.44725 0.21829 0.51864 0.0
O346 O 0.45439 0.25532 0.62232 0.0
O347 O 0.44719 0.22858 0.57796 0.0
O348 O 0.41641 0.22082 0.56111 0.0
C349 C 0.45367 0.24152 0.63646 0.0
O350 O 0.44204 0.22655 0.63097 0.0
O351 O 0.40541 0.2473 0.60738 0.0
C352 C 0.40089 0.25383 0.49839 0.0
O353 O 0.40877 0.27013 0.5055 0.0
O354 O 0.40235 0.23953 0.51167 0.0
O355 O 0.40586 0.26733 0.55561 0.0
O356 O 0.43446 0.27646 0.57595 0.0
O357 O 0.4498 0.2482 0.53035 0.0
C358 C 0.43308 0.21615 0.5728 0.0
C359 C 0.41657 0.28026 0.56579 0.0
Zn360 Zn 0.81418 0.25042 0.65066 0.0
Zn361 Zn 0.82586 0.24506 0.71271 0.0
C362 C 0.84953 0.25694 0.62172 0.0
O363 O 0.83766 0.27238 0.62012 0.0
C364 C 0.78757 0.2301 0.73419 0.0
O365 O 0.80027 0.21515 0.73554 0.0
O366 O 0.79311 0.25274 0.6241 0.0
O367 O 0.80356 0.22979 0.67175 0.0
O368 O 0.83244 0.22269 0.69218 0.0
C369 C 0.79249 0.23881 0.61016 0.0
O370 O 0.80418 0.2237 0.61486 0.0
O371 O 0.84303 0.24378 0.63514 0.0
C372 C 0.84181 0.25613 0.75629 0.0
O373 O 0.83054 0.27117 0.75031 0.0
O374 O 0.84299 0.24229 0.74226 0.0
O375 O 0.83251 0.2711 0.70029 0.0
O376 O 0.81889 0.27603 0.66504 0.0
O377 O 0.79451 0.24468 0.72357 0.0
C378 C 0.81824 0.21801 0.67727 0.0
C379 C 0.82814 0.28201 0.68338 0.0
Zn380 Zn 0.43945 0.99667 0.65748 0.0
Zn381 Zn 0.41732 0.00348 0.70608 0.0
C382 C 0.4043 0.98605 0.62928 0.0
O383 O 0.41694 0.97104 0.62815 0.0
C384 C 0.45607 0.01371 0.72798 0.0
O385 O 0.44421 0.02912 0.73004 0.0
O386 O 0.45992 0.99333 0.63019 0.0
O387 O 0.4477 0.02136 0.67276 0.0
O388 O 0.41516 0.02713 0.68734 0.0
C389 C 0.45968 0.0068 0.61556 0.0
O390 O 0.44766 0.02178 0.62002 0.0
O391 O 0.41012 -0.00015 0.642 0.0
C392 C 0.39978 0.99155 0.74868 0.0
O393 O 0.40772 0.97564 0.74041 0.0
O394 O 0.40088 0.0064 0.73626 0.0
O395 O 0.40593 0.98048 0.6904 0.0
O396 O 0.43781 0.97224 0.6759 0.0
O397 O 0.44833 -0.00024 0.71675 0.0
C398 C 0.43249 0.03297 0.67757 0.0
C399 C 0.4188 0.96778 0.68296 0.0
Zn400 Zn 0.17521 0.9928 0.46339 0.0
Zn401 Zn 0.19215 0.00215 0.41363 0.0
C402 C 0.2159 0.98294 0.4822 0.0
O403 O 0.20515 0.96691 0.48402 0.0
C404 C 0.15311 0.01305 0.3917 0.0
O405 O 0.16487 0.02853 0.38977 0.0
O406 O 0.16038 0.98823 0.49405 0.0
O407 O 0.16239 0.01654 0.45037 0.0
O408 O 0.19313 0.02539 0.43392 0.0
C409 C 0.16096 0.00231 0.50776 0.0
O410 O 0.16971 0.01821 0.50044 0.0
O411 O 0.20667 0.99693 0.47242 0.0
C412 C 0.20542 0.99479 0.36822 0.0
O413 O 0.19291 0.98017 0.37291 0.0
O414 O 0.2087 0.00706 0.38399 0.0
O415 O 0.20323 0.97731 0.42568 0.0
O416 O 0.17277 0.96965 0.44355 0.0
O417 O 0.16106 -0.00104 0.40252 0.0
C418 C 0.17483 0.02959 0.44298 0.0
C419 C 0.18922 0.96491 0.43143 0.0
Zn420 Zn 0.57604 0.75082 0.4603 0.0
Zn421 Zn 0.55775 0.74546 0.40808 0.0
C422 C 0.53684 0.76146 0.48175 0.0
O423 O 0.54868 0.7769 0.48362 0.0
C424 C 0.59439 0.73497 0.38119 0.0
O425 O 0.58188 0.71992 0.37945 0.0
O426 O 0.59222 0.75313 0.49042 0.0
O427 O 0.58769 0.72803 0.44434 0.0
O428 O 0.55759 0.72067 0.42551 0.0
C429 C 0.59369 0.73807 0.50236 0.0
O430 O 0.58598 0.7222 0.49376 0.0
O431 O 0.54464 0.74748 0.47057 0.0
C432 C 0.53909 0.75695 0.36605 0.0
O433 O 0.55134 0.77162 0.37124 0.0
O434 O 0.53822 0.74316 0.3802 0.0
O435 O 0.5487 0.76936 0.42457 0.0
O436 O 0.57989 0.77449 0.44217 0.0
O437 O 0.58795 0.74868 0.39378 0.0
C438 C 0.57578 0.71587 0.43429 0.0
C439 C 0.56387 0.7806 0.43048 0.0
Zn440 Zn 0.17009 0.75271 0.29553 0.0
Zn441 Zn 0.18748 0.74425 0.34702 0.0
C442 C 0.20928 0.76272 0.27387 0.0
O443 O 0.19785 0.77844 0.27278 0.0
C444 C 0.14989 0.73346 0.37182 0.0
O445 O 0.16193 0.71809 0.37276 0.0
O446 O 0.15407 0.75651 0.26538 0.0
O447 O 0.15753 0.72933 0.30997 0.0
O448 O 0.18767 0.72051 0.32765 0.0
C449 C 0.15356 0.74195 0.25244 0.0
O450 O 0.1619 0.72605 0.26023 0.0
O451 O 0.20124 0.74865 0.28468 0.0
C452 C 0.20423 0.75345 0.39053 0.0
O453 O 0.19188 0.76814 0.38572 0.0
O454 O 0.20587 0.74026 0.3756 0.0
O455 O 0.19828 0.76853 0.33297 0.0
O456 O 0.16817 0.77634 0.31462 0.0
O457 O 0.15695 0.74758 0.36033 0.0
C458 C 0.16952 0.71636 0.31828 0.0
C459 C 0.18465 0.78104 0.32665 0.0
Zn460 Zn 0.59319 0.9918 0.29482 0.0
Zn461 Zn 0.57465 0.99838 0.34527 0.0
C462 C 0.5505 0.98427 0.2784 0.0
O463 O 0.55977 0.96784 0.27425 0.0
C464 C 0.61114 0.00886 0.37171 0.0
O465 O 0.59903 0.02419 0.37258 0.0
O466 O 0.60602 0.98847 0.26272 0.0
O467 O 0.60659 0.01453 0.30941 0.0
O468 O 0.5756 0.02239 0.32636 0.0
C469 C 0.60503 0.00294 0.24964 0.0
O470 O 0.59756 0.01888 0.25832 0.0
O471 O 0.56151 0.99716 0.28833 0.0
C472 C 0.55519 0.98871 0.38778 0.0
O473 O 0.56679 0.97353 0.3831 0.0
O474 O 0.55502 0.00218 0.37314 0.0
O475 O 0.5649 0.97416 0.33022 0.0
O476 O 0.59611 0.96783 0.31293 0.0
O477 O 0.6045 0.99487 0.35975 0.0
C478 C 0.59388 0.02709 0.31755 0.0
C479 C 0.57923 0.96228 0.32378 0.0
Zn480 Zn 0.81587 0.49521 0.0987 0.0
Zn481 Zn 0.82883 0.50298 0.04432 0.0
C482 C 0.85463 0.48513 0.12148 0.0
O483 O 0.84289 0.46963 0.12322 0.0
C484 C 0.78803 0.51328 0.02505 0.0
O485 O 0.79893 0.52921 0.023 0.0
O486 O 0.79855 0.49165 0.12797 0.0
O487 O 0.80402 0.51916 0.08455 0.0
O488 O 0.83283 0.52655 0.06383 0.0
C489 C 0.80052 0.50483 0.14282 0.0
O490 O 0.81286 0.51948 0.13777 0.0
O491 O 0.84681 0.49911 0.11034 0.0
C492 C 0.84252 0.49282 0.99993 0.0
O493 O 0.83285 0.47733 0.00724 0.0
O494 O 0.84355 0.507 0.01347 0.0
O495 O 0.84138 0.4785 0.0564 0.0
O496 O 0.81514 0.47066 0.08085 0.0
O497 O 0.79705 0.49944 0.0354 0.0
C498 C 0.81757 0.53148 0.07749 0.0
C499 C 0.83097 0.46599 0.06774 0.0
Zn500 Zn 0.43066 0.75183 0.09357 0.0
Zn501 Zn 0.41486 0.74404 0.04229 0.0
C502 C 0.39278 0.76182 0.11821 0.0
O503 O 0.40426 0.77751 0.11909 0.0
C504 C 0.4579 0.7358 0.02591 0.0
O505 O 0.44894 0.71907 0.02304 0.0
O506 O 0.449 0.75581 0.12212 0.0
O507 O 0.44169 0.72751 0.07941 0.0
O508 O 0.41092 0.72074 0.06192 0.0
C509 C 0.44826 0.74227 0.13662 0.0
O510 O 0.43681 0.72712 0.13141 0.0
O511 O 0.40035 0.74785 0.10683 0.0
C512 C 0.40375 0.75348 0.99693 0.0
O513 O 0.41295 0.76909 0.00451 0.0
O514 O 0.40185 0.73954 0.01072 0.0
O515 O 0.40146 0.76797 0.05413 0.0
O516 O 0.43012 0.77612 0.07497 0.0
O517 O 0.44674 0.74891 0.03529 0.0
C518 C 0.42733 0.71545 0.07367 0.0
C519 C 0.41329 0.78068 0.06329 0.0
Zn520 Zn 0.81227 0.75496 0.1623 0.0
Zn521 Zn 0.82522 0.74529 0.21489 0.0
C522 C 0.85137 0.76655 0.1413 0.0
O523 O 0.83948 0.78201 0.14036 0.0
C524 C 0.78438 0.73386 0.23357 0.0
O525 O 0.79539 0.71792 0.23472 0.0
O526 O 0.79642 0.75939 0.13231 0.0
O527 O 0.80071 0.72996 0.17398 0.0
O528 O 0.82972 0.72254 0.19425 0.0
C529 C 0.79984 0.74669 0.11711 0.0
O530 O 0.81213 0.73211 0.12255 0.0
O531 O 0.84361 0.7521 0.15157 0.0
C532 C 0.83896 0.75381 0.25956 0.0
O533 O 0.82911 0.7695 0.25326 0.0
O534 O 0.84 0.74016 0.24525 0.0
O535 O 0.8376 0.77028 0.20433 0.0
O536 O 0.81038 0.77876 0.1817 0.0
O537 O 0.79335 0.74814 0.22407 0.0
C538 C 0.8145 0.71768 0.18055 0.0
C539 C 0.82651 0.78316 0.19449 0.0
Zn540 Zn 0.43732 0.49642 0.16514 0.0
Zn541 Zn 0.41852 0.50437 0.21455 0.0
C542 C 0.40069 0.48513 0.1389 0.0
O543 O 0.41311 0.46998 0.13788 0.0
C544 C 0.45808 0.51462 0.23649 0.0
O545 O 0.44671 0.53033 0.23818 0.0
O546 O 0.45656 0.49276 0.13733 0.0
O547 O 0.44689 0.52139 0.17904 0.0
O548 O 0.4152 0.52758 0.19497 0.0
C549 C 0.45539 0.50619 0.12273 0.0
O550 O 0.44305 0.52089 0.1276 0.0
O551 O 0.40718 0.49923 0.15078 0.0
C552 C 0.40168 0.49389 0.2575 0.0
O553 O 0.4105 0.478 0.25023 0.0
O554 O 0.40224 0.50829 0.24434 0.0
O555 O 0.40627 0.48073 0.20057 0.0
O556 O 0.43708 0.4722 0.18405 0.0
O557 O 0.44991 0.50078 0.22534 0.0
C558 C 0.43184 0.53313 0.18376 0.0
C559 C 0.41855 0.46786 0.19249 0.0
Zn560 Zn 0.17744 0.49307 0.96263 0.0
Zn561 Zn 0.19367 0.50115 0.91057 0.0
C562 C 0.21675 0.48074 0.98364 0.0
O563 O 0.20495 0.46524 0.98481 0.0
C564 C 0.15618 0.51258 0.88662 0.0
O565 O 0.16873 0.52762 0.88534 0.0
O566 O 0.16139 0.48848 0.99249 0.0
O567 O 0.16677 0.51822 0.95129 0.0
O568 O 0.19452 0.52571 0.92861 0.0
C569 C 0.16271 0.50204 0.00689 0.0
O570 O 0.17336 0.51742 1.00089 0.0
O571 O 0.20897 0.49503 0.97307 0.0
C572 C 0.20992 0.49072 0.86725 0.0
O573 O 0.19805 0.47593 0.87292 0.0
O574 O 0.21157 0.50429 0.88161 0.0
O575 O 0.20393 0.47656 0.9248 0.0
O576 O 0.17268 0.47061 0.94182 0.0
O577 O 0.16294 0.49829 0.89795 0.0
C578 C 0.17828 0.53061 0.94103 0.0
C579 C 0.18894 0.46492 0.93007 0.0
Zn580 Zn 0.5798 0.25478 0.96039 0.0
Zn581 Zn 0.56254 0.24605 0.90909 0.0
C582 C 0.54028 0.26514 0.98191 0.0
O583 O 0.5515 0.28097 0.98296 0.0
C584 C 0.60021 0.23391 0.88525 0.0
O585 O 0.58784 0.21873 0.88432 0.0
O586 O 0.59589 0.25893 0.99037 0.0
O587 O 0.59206 0.23091 0.94662 0.0
O588 O 0.56174 0.2225 0.92905 0.0
C589 C 0.59666 0.24465 0.00374 0.0
O590 O 0.5883 0.22854 0.9966 0.0
O591 O 0.54854 0.2511 0.97121 0.0
C592 C 0.5465 0.2548 0.86524 0.0
O593 O 0.55934 0.26922 0.86981 0.0
O594 O 0.54433 0.24188 0.88044 0.0
O595 O 0.5526 0.27123 0.92181 0.0
O596 O 0.58253 0.27824 0.94093 0.0
O597 O 0.59323 0.24837 0.89615 0.0
C598 C 0.57986 0.21807 0.93834 0.0
C599 C 0.56662 0.28336 0.92831 0.0
Zn600 Zn 0.17184 0.25195 0.79363 0.0
Zn601 Zn 0.19066 0.24302 0.84403 0.0
C602 C 0.21104 0.26245 0.77133 0.0
O603 O 0.19963 0.27818 0.77032 0.0
C604 C 0.15407 0.23151 0.86982 0.0
O605 O 0.16635 0.21626 0.87008 0.0
O606 O 0.15526 0.25665 0.76409 0.0
O607 O 0.15957 0.22807 0.80709 0.0
O608 O 0.18963 0.21895 0.82471 0.0
C609 C 0.15376 0.24251 0.75054 0.0
O610 O 0.16186 0.22618 0.7572 0.0
O611 O 0.20304 0.2484 0.78224 0.0
C612 C 0.20905 0.25248 0.88657 0.0
O613 O 0.19694 0.26732 0.88176 0.0
O614 O 0.20998 0.23904 0.87191 0.0
O615 O 0.20041 0.26805 0.83025 0.0
O616 O 0.16907 0.27489 0.8139 0.0
O617 O 0.16066 0.24593 0.85858 0.0
C618 C 0.1713 0.21497 0.81554 0.0
C619 C 0.1857 0.28007 0.82535 0.0
Zn620 Zn 0.5713 0.49609 0.78907 0.0
Zn621 Zn 0.5629 0.50246 0.85045 0.0
C622 C 0.53173 0.48251 0.76885 0.0
O623 O 0.54369 0.46712 0.76736 0.0
C624 C 0.60054 0.51027 0.87556 0.0
O625 O 0.58904 0.52593 0.87687 0.0
O626 O 0.58736 0.49263 0.75903 0.0
O627 O 0.58016 0.52196 0.80079 0.0
O628 O 0.56517 0.52788 0.83518 0.0
C629 C 0.58578 0.50635 0.74489 0.0
O630 O 0.57474 0.52147 0.75113 0.0
O631 O 0.53958 0.49691 0.77912 0.0
C632 C 0.54612 0.49152 0.89349 0.0
O633 O 0.55927 0.47736 0.88866 0.0
O634 O 0.54409 0.50483 0.87883 0.0
O635 O 0.55032 0.48126 0.83161 0.0
O636 O 0.57744 0.47322 0.80903 0.0
O637 O 0.59306 0.4966 0.86355 0.0
C638 C 0.5753 0.53334 0.81712 0.0
C639 C 0.56386 0.4689 0.82479 0.0
C640 C 0.41497 0.81442 0.07635 0.0
C641 C 0.407 0.80076 0.06086 0.0
C642 C 0.40814 0.83323 0.07467 0.0
C643 C 0.36372 0.86283 0.05 0.0
H644 H 0.40242 0.90368 0.06802 0.0
C645 C 0.34093 0.94311 0.04698 0.0
C646 C 0.34394 0.95214 0.06846 0.0
C647 C 0.34907 0.92482 0.04332 0.0
C648 C 0.39149 0.89239 0.06285 0.0
H649 H 0.3862 0.79617 0.03098 0.0
H650 H 0.37491 0.82907 0.0275 0.0
H651 H 0.41641 0.87142 0.06619 0.0
H652 H 0.35808 0.94921 0.10278 0.0
H653 H 0.37251 0.9176 0.0962 0.0
H654 H 0.33888 0.88407 0.04653 0.0
C655 C 0.3859 0.82522 0.04141 0.0
C656 C 0.39942 0.87388 0.06197 0.0
C657 C 0.39248 0.80636 0.04332 0.0
C658 C 0.35534 0.94261 0.08608 0.0
C659 C 0.36377 0.92458 0.08229 0.0
C660 C 0.35589 0.88141 0.05054 0.0
C661 C 0.39344 0.83888 0.05723 0.0
C662 C 0.38552 0.85879 0.05607 0.0
C663 C 0.36075 0.91552 0.06091 0.0
C664 C 0.3696 0.89626 0.05747 0.0
H665 H 0.42605 0.8105 0.09016 0.0
H666 H 0.41399 0.84323 0.08746 0.0
H667 H 0.35242 0.85159 0.04567 0.0
H668 H 0.33214 0.9501 0.03315 0.0
H669 H 0.34653 0.91804 0.0267 0.0
C670 C 0.85152 0.43977 0.04835 0.0
C671 C 0.83837 0.44607 0.06678 0.0
C672 C 0.85951 0.42125 0.04796 0.0
C673 C 0.85277 0.37389 0.07604 0.0
H674 H 0.91057 0.36533 0.05042 0.0
C675 C 0.90219 0.30515 0.0904 0.0
C676 C 0.91021 0.2964 0.0702 0.0
C677 C 0.89327 0.32333 0.08947 0.0
C678 C 0.89436 0.36753 0.05749 0.0
H679 H 0.8232 0.43785 0.09923 0.0
H680 H 0.83788 0.40586 0.09914 0.0
H681 H 0.89509 0.39711 0.04999 0.0
H682 H 0.91561 0.30006 0.0333 0.0
H683 H 0.90053 0.33214 0.03186 0.0
H684 H 0.85262 0.34431 0.08433 0.0
C685 C 0.84153 0.41496 0.08455 0.0
C686 C 0.88537 0.38572 0.05714 0.0
C687 C 0.83318 0.43338 0.0847 0.0
C688 C 0.90953 0.30641 0.04914 0.0
C689 C 0.90098 0.32475 0.04831 0.0
C690 C 0.86195 0.35578 0.07677 0.0
C691 C 0.85492 0.40864 0.06622 0.0
C692 C 0.86441 0.38917 0.06638 0.0
C693 C 0.89254 0.33328 0.06842 0.0
C694 C 0.8828 0.35245 0.06748 0.0
H695 H 0.85566 0.44916 0.03418 0.0
H696 H 0.86929 0.41686 0.03325 0.0
H697 H 0.83645 0.37581 0.08289 0.0
H698 H 0.90234 0.29779 0.10687 0.0
H699 H 0.887 0.32967 0.10524 0.0
C700 C 0.42428 0.43282 0.18857 0.0
C701 C 0.41012 0.44833 0.19083 0.0
C702 C 0.4159 0.4144 0.18738 0.0
C703 C 0.36519 0.38696 0.19992 0.0
H704 H 0.39366 0.3485 0.16264 0.0
C705 C 0.32773 0.31298 0.1825 0.0
C706 C 0.34172 0.29779 0.18763 0.0
C707 C 0.33582 0.33149 0.18189 0.0
C708 C 0.38559 0.35914 0.17314 0.0
H709 H 0.37611 0.45685 0.19265 0.0
H710 H 0.36155 0.42504 0.18966 0.0
H711 H 0.40842 0.3806 0.1633 0.0
H712 H 0.37521 0.29 0.19549 0.0
H713 H 0.38929 0.32224 0.19399 0.0
H714 H 0.3421 0.36547 0.20929 0.0
C715 C 0.37912 0.42684 0.18974 0.0
C716 C 0.39411 0.37749 0.17367 0.0
C717 C 0.38748 0.44514 0.19133 0.0
C718 C 0.36397 0.30142 0.19168 0.0
C719 C 0.3721 0.31984 0.19065 0.0
C720 C 0.3565 0.3687 0.19908 0.0
C721 C 0.39319 0.41118 0.18802 0.0
C722 C 0.38409 0.39163 0.18717 0.0
C723 C 0.35808 0.33505 0.18592 0.0
C724 C 0.3667 0.35461 0.18582 0.0
H725 H 0.44181 0.43488 0.18817 0.0
H726 H 0.42728 0.4027 0.18637 0.0
H727 H 0.35726 0.3973 0.21093 0.0
H728 H 0.31053 0.31058 0.17928 0.0
H729 H 0.32472 0.34303 0.17811 0.0
C730 C 0.84822 0.80861 0.21402 0.0
C731 C 0.83367 0.80312 0.19643 0.0
C732 C 0.85614 0.82715 0.21509 0.0
C733 C 0.84693 0.87573 0.1913 0.0
H734 H 0.90747 0.88324 0.20889 0.0
C735 C 0.89563 0.94211 0.16689 0.0
C736 C 0.90677 0.95164 0.18474 0.0
C737 C 0.88644 0.92433 0.1707 0.0
C738 C 0.89047 0.88136 0.20422 0.0
H739 H 0.81589 0.81286 0.16624 0.0
H740 H 0.83025 0.84494 0.16752 0.0
H741 H 0.89155 0.8516 0.21077 0.0
H742 H 0.91743 0.94965 0.22046 0.0
H743 H 0.90173 0.91806 0.22694 0.0
H744 H 0.84632 0.9054 0.18369 0.0
C745 C 0.83513 0.83514 0.18097 0.0
C746 C 0.88126 0.86324 0.20536 0.0
C747 C 0.82695 0.81667 0.18013 0.0
C748 C 0.90892 0.9427 0.2064 0.0
C749 C 0.9 0.92465 0.21009 0.0
C750 C 0.85624 0.89374 0.18984 0.0
C751 C 0.84997 0.84063 0.19838 0.0
C752 C 0.85942 0.86012 0.19862 0.0
C753 C 0.8884 0.91546 0.19233 0.0
C754 C 0.87816 0.89669 0.196 0.0
H755 H 0.85359 0.79854 0.22697 0.0
H756 H 0.86715 0.83088 0.22903 0.0
H757 H 0.82994 0.87407 0.18653 0.0
H758 H 0.8935 0.94856 0.15001 0.0
H759 H 0.8778 0.91747 0.15664 0.0
C760 C 0.6261 0.05022 0.93393 0.0
C761 C 0.64836 0.04534 0.93389 0.0
C762 C 0.61966 0.06911 0.93275 0.0
C763 C 0.63717 0.1166 0.94737 0.0
H764 H 0.59155 0.13246 0.90502 0.0
C765 C 0.61021 0.19455 0.94094 0.0
C766 C 0.58794 0.19837 0.93732 0.0
C767 C 0.6182 0.1761 0.93941 0.0
C768 C 0.60408 0.12824 0.91718 0.0
H769 H 0.68135 0.05641 0.93246 0.0
H770 H 0.67001 0.0897 0.93095 0.0
H771 H 0.60469 0.09988 0.90402 0.0
H772 H 0.55654 0.18579 0.92944 0.0
H773 H 0.5703 0.15342 0.92762 0.0
H774 H 0.63611 0.14463 0.9612 0.0
C775 C 0.65762 0.07877 0.93175 0.0
C776 C 0.6117 0.10961 0.91647 0.0
C777 C 0.66409 0.05977 0.93253 0.0
C778 C 0.57379 0.1833 0.93225 0.0
C779 C 0.58175 0.16476 0.93103 0.0
C780 C 0.62936 0.13517 0.9483 0.0
C781 C 0.63533 0.08358 0.93184 0.0
C782 C 0.62823 0.10361 0.93163 0.0
C783 C 0.60408 0.16093 0.93454 0.0
C784 C 0.61264 0.14122 0.93329 0.0
H785 H 0.61357 0.03941 0.93478 0.0
H786 H 0.60238 0.07244 0.93305 0.0
H787 H 0.64973 0.11225 0.95945 0.0
H788 H 0.62162 0.20589 0.94459 0.0
H789 H 0.63555 0.17381 0.94176 0.0
C790 C 0.09396 0.68754 0.95811 0.0
C791 C 0.09201 0.69713 0.93687 0.0
C792 C 0.10361 0.66962 0.95903 0.0
C793 C 0.14371 0.63999 0.93045 0.0
H794 H 0.11321 0.59765 0.95832 0.0
C795 C 0.17637 0.56327 0.92413 0.0
C796 C 0.17138 0.55063 0.94215 0.0
C797 C 0.16756 0.58154 0.92407 0.0
C798 C 0.12223 0.60935 0.95089 0.0
H799 H 0.09877 0.69552 0.89997 0.0
H800 H 0.11607 0.66439 0.90174 0.0
H801 H 0.09589 0.62865 0.95738 0.0
H802 H 0.1544 0.54755 0.97494 0.0
H803 H 0.14012 0.57959 0.97557 0.0
H804 H 0.17036 0.62103 0.92457 0.0
C805 C 0.10991 0.6707 0.91758 0.0
C806 C 0.11217 0.62707 0.95022 0.0
C807 C 0.09986 0.68842 0.91657 0.0
C808 C 0.15833 0.5569 0.96066 0.0
C809 C 0.14994 0.57526 0.96087 0.0
C810 C 0.15399 0.62234 0.93151 0.0
C811 C 0.11191 0.66117 0.93881 0.0
C812 C 0.12276 0.6425 0.93987 0.0
C813 C 0.15394 0.58771 0.9423 0.0
C814 C 0.14335 0.60672 0.94165 0.0
H815 H 0.08806 0.69389 0.97402 0.0
H816 H 0.10503 0.66254 0.97561 0.0
H817 H 0.15228 0.65176 0.92256 0.0
H818 H 0.18633 0.5588 0.90959 0.0
H819 H 0.17086 0.59056 0.90931 0.0
C820 C 0.6534 0.69047 0.83973 0.0
C821 C 0.65978 0.70043 0.81972 0.0
C822 C 0.64363 0.6727 0.83794 0.0
C823 C 0.63826 0.6312 0.80091 0.0
H824 H 0.58494 0.62253 0.83574 0.0
C825 C 0.59126 0.56052 0.79479 0.0
C826 C 0.58264 0.55327 0.81558 0.0
C827 C 0.59946 0.57896 0.79383 0.0
C828 C 0.59994 0.62461 0.8261 0.0
H829 H 0.66142 0.69924 0.78218 0.0
H830 H 0.64464 0.66792 0.77913 0.0
H831 H 0.60246 0.65346 0.83712 0.0
H832 H 0.5757 0.55982 0.85161 0.0
H833 H 0.5905 0.59166 0.85012 0.0
H834 H 0.63623 0.60222 0.79047 0.0
C835 C 0.64713 0.67403 0.79614 0.0
C836 C 0.60992 0.64236 0.82685 0.0
C837 C 0.65666 0.69197 0.7979 0.0
C838 C 0.58208 0.56498 0.83527 0.0
C839 C 0.59048 0.58332 0.83437 0.0
C840 C 0.62842 0.61335 0.80037 0.0
C841 C 0.64025 0.66437 0.81614 0.0
C842 C 0.62927 0.64577 0.81444 0.0
C843 C 0.59943 0.59052 0.81369 0.0
C844 C 0.60924 0.60978 0.81315 0.0
H845 H 0.65548 0.69657 0.85681 0.0
H846 H 0.6387 0.66544 0.85364 0.0
H847 H 0.65326 0.63345 0.79131 0.0
H848 H 0.59183 0.55191 0.77927 0.0
H849 H 0.60587 0.58414 0.77751 0.0
C850 C 0.14006 0.19237 0.81248 0.0
C851 C 0.16246 0.19548 0.81643 0.0
C852 C 0.13132 0.17416 0.81351 0.0
C853 C 0.14565 0.1246 0.806 0.0
H854 H 0.09208 0.1146 0.83989 0.0
C855 C 0.11271 0.049 0.81526 0.0
C856 C 0.09002 0.04607 0.8144 0.0
C857 C 0.12129 0.06722 0.81675 0.0
C858 C 0.10687 0.11718 0.83006 0.0
H859 H 0.19322 0.18187 0.8246 0.0
H860 H 0.17793 0.14981 0.82589 0.0
H861 H 0.10785 0.14635 0.84029 0.0
H862 H 0.05848 0.05992 0.81483 0.0
H863 H 0.0735 0.09202 0.81657 0.0
H864 H 0.14446 0.09576 0.79507 0.0
C865 C 0.16721 0.1616 0.82211 0.0
C866 C 0.11596 0.13534 0.83042 0.0
C867 C 0.17594 0.17992 0.82143 0.0
C868 C 0.07604 0.06179 0.81543 0.0
C869 C 0.08468 0.08015 0.81657 0.0
C870 C 0.13644 0.10652 0.80538 0.0
C871 C 0.1448 0.15857 0.8182 0.0
C872 C 0.13547 0.13921 0.81843 0.0
C873 C 0.10746 0.08309 0.81704 0.0
C874 C 0.11697 0.10252 0.81749 0.0
H875 H 0.12917 0.20405 0.80873 0.0
H876 H 0.11405 0.17222 0.81021 0.0
H877 H 0.16049 0.12726 0.79628 0.0
H878 H 0.12394 0.03716 0.81498 0.0
H879 H 0.13886 0.06881 0.81778 0.0
C880 C 0.41989 0.31519 0.57242 0.0
C881 C 0.40693 0.29931 0.56757 0.0
C882 C 0.41044 0.33317 0.57372 0.0
C883 C 0.36043 0.35924 0.55618 0.0
H884 H 0.38247 0.39711 0.5988 0.0
C885 C 0.31981 0.43249 0.5694 0.0
C886 C 0.3343 0.4477 0.56641 0.0
C887 C 0.32783 0.41402 0.57122 0.0
C888 C 0.37618 0.38662 0.58685 0.0
H889 H 0.37383 0.28961 0.56125 0.0
H890 H 0.35731 0.32069 0.56435 0.0
H891 H 0.39824 0.36538 0.59897 0.0
H892 H 0.36847 0.45568 0.56373 0.0
H893 H 0.38236 0.42352 0.56727 0.0
H894 H 0.33817 0.38052 0.54435 0.0
C895 C 0.37484 0.31951 0.56629 0.0
C896 C 0.38529 0.3685 0.58681 0.0
C897 C 0.38432 0.30165 0.56461 0.0
C898 C 0.35689 0.4442 0.56579 0.0
C899 C 0.36488 0.42585 0.56802 0.0
C900 C 0.35113 0.37725 0.55649 0.0
C901 C 0.38779 0.33554 0.57058 0.0
C902 C 0.37768 0.35465 0.57129 0.0
C903 C 0.35043 0.41059 0.57056 0.0
C904 C 0.35909 0.39113 0.57163 0.0
H905 H 0.43737 0.31376 0.57477 0.0
H906 H 0.42097 0.34523 0.57675 0.0
H907 H 0.35442 0.34908 0.54367 0.0
H908 H 0.30233 0.43483 0.56998 0.0
H909 H 0.31641 0.40242 0.57323 0.0
C910 C 0.86629 0.94364 0.57118 0.0
C911 C 0.84365 0.9465 0.57319 0.0
C912 C 0.87508 0.92547 0.57199 0.0
C913 C 0.86237 0.87569 0.588 0.0
H914 H 0.91118 0.865 0.54702 0.0
C915 C 0.89121 0.80031 0.56493 0.0
C916 C 0.9138 0.79671 0.56567 0.0
C917 C 0.88321 0.81865 0.56759 0.0
C918 C 0.89773 0.86785 0.55875 0.0
H919 H 0.81246 0.93259 0.57802 0.0
H920 H 0.82772 0.90059 0.57857 0.0
H921 H 0.89552 0.89665 0.5479 0.0
H922 H 0.94571 0.8095 0.56994 0.0
H923 H 0.93165 0.84185 0.57404 0.0
H924 H 0.86422 0.84654 0.5981 0.0
C925 C 0.83877 0.91248 0.57687 0.0
C926 C 0.88875 0.886 0.55933 0.0
C927 C 0.82997 0.93078 0.57642 0.0
C928 C 0.92824 0.81187 0.56922 0.0
C929 C 0.92022 0.83034 0.57151 0.0
C930 C 0.8712 0.85746 0.58718 0.0
C931 C 0.86145 0.9096 0.57445 0.0
C932 C 0.87095 0.89019 0.57398 0.0
C933 C 0.89761 0.83386 0.57075 0.0
C934 C 0.88894 0.85337 0.57252 0.0
H935 H 0.87734 0.9555 0.56911 0.0
H936 H 0.89264 0.92391 0.57073 0.0
H937 H 0.84894 0.87844 0.59977 0.0
H938 H 0.87962 0.78891 0.56244 0.0
H939 H 0.86574 0.82099 0.56673 0.0
C940 C 0.42516 0.93281 0.67966 0.0
C941 C 0.41074 0.9482 0.68106 0.0
C942 C 0.41705 0.91431 0.67886 0.0
C943 C 0.36701 0.88707 0.69292 0.0
H944 H 0.39473 0.84773 0.65639 0.0
C945 C 0.32924 0.81292 0.68074 0.0
C946 C 0.34349 0.79781 0.68532 0.0
C947 C 0.33733 0.83135 0.67891 0.0
C948 C 0.3869 0.85861 0.6667 0.0
H949 H 0.37658 0.95645 0.68149 0.0
H950 H 0.36251 0.92445 0.67936 0.0
H951 H 0.4094 0.87989 0.6554 0.0
H952 H 0.37739 0.79003 0.69101 0.0
H953 H 0.39142 0.82216 0.68761 0.0
H954 H 0.34438 0.86581 0.70397 0.0
C955 C 0.38005 0.92647 0.67975 0.0
C956 C 0.39534 0.87697 0.66624 0.0
C957 C 0.38813 0.94484 0.68086 0.0
C958 C 0.36597 0.80141 0.68764 0.0
C959 C 0.37405 0.81975 0.6855 0.0
C960 C 0.35846 0.86879 0.69316 0.0
C961 C 0.39437 0.91095 0.67915 0.0
C962 C 0.38551 0.89141 0.6794 0.0
C963 C 0.3598 0.8349 0.68129 0.0
C964 C 0.36837 0.8544 0.68014 0.0
H965 H 0.44267 0.93504 0.67976 0.0
H966 H 0.42853 0.90266 0.6786 0.0
H967 H 0.35931 0.89772 0.70367 0.0
H968 H 0.31186 0.81054 0.67881 0.0
H969 H 0.32604 0.84283 0.67552 0.0
C970 C 0.83578 0.31329 0.66461 0.0
C971 C 0.83498 0.30207 0.68469 0.0
C972 C 0.84387 0.33175 0.66554 0.0
C973 C 0.87898 0.36265 0.70157 0.0
H974 H 0.8554 0.40218 0.66228 0.0
C975 C 0.90634 0.44118 0.70613 0.0
C976 C 0.91085 0.44981 0.68468 0.0
C977 C 0.89673 0.42324 0.707 0.0
C978 C 0.8622 0.39123 0.67326 0.0
H979 H 0.84131 0.30172 0.7217 0.0
H980 H 0.85479 0.33407 0.72345 0.0
H981 H 0.83823 0.37105 0.66259 0.0
H982 H 0.90887 0.44627 0.64733 0.0
H983 H 0.89202 0.41509 0.64895 0.0
H984 H 0.9028 0.38303 0.71237 0.0
C985 C 0.84973 0.32844 0.70683 0.0
C986 C 0.85242 0.37338 0.6734 0.0
C987 C 0.84185 0.30992 0.70586 0.0
C988 C 0.9057 0.44004 0.66415 0.0
C989 C 0.89589 0.42223 0.66505 0.0
C990 C 0.88861 0.38057 0.70159 0.0
C991 C 0.85115 0.3395 0.68663 0.0
C992 C 0.86083 0.3588 0.68737 0.0
C993 C 0.8912 0.41371 0.68646 0.0
C994 C 0.88046 0.39496 0.68724 0.0
H995 H 0.83076 0.30765 0.64799 0.0
H996 H 0.84501 0.33974 0.64956 0.0
H997 H 0.88613 0.35169 0.71225 0.0
H998 H 0.91009 0.44831 0.72225 0.0
H999 H 0.89321 0.41699 0.72374 0.0
C1000 C 0.6695 0.56356 0.42979 0.0
C1001 C 0.65573 0.54834 0.43538 0.0
C1002 C 0.6609 0.58173 0.42731 0.0
C1003 C 0.61083 0.60788 0.41501 0.0
H1004 H 0.63731 0.6477 0.45167 0.0
C1005 C 0.57043 0.68104 0.42902 0.0
C1006 C 0.58439 0.69669 0.43095 0.0
C1007 C 0.57913 0.6628 0.4274 0.0
C1008 C 0.62994 0.63686 0.44096 0.0
H1009 H 0.62216 0.54 0.44206 0.0
H1010 H 0.60719 0.57175 0.43752 0.0
H1011 H 0.65304 0.61612 0.45222 0.0
H1012 H 0.61821 0.70586 0.43104 0.0
H1013 H 0.63333 0.67428 0.42735 0.0
H1014 H 0.58783 0.62866 0.40353 0.0
C1015 C 0.62458 0.56961 0.43516 0.0
C1016 C 0.63894 0.61878 0.44137 0.0
C1017 C 0.63319 0.55151 0.43797 0.0
C1018 C 0.60708 0.69396 0.43012 0.0
C1019 C 0.61574 0.67586 0.42809 0.0
C1020 C 0.60196 0.62607 0.41436 0.0
C1021 C 0.63839 0.58487 0.43001 0.0
C1022 C 0.62939 0.60415 0.42851 0.0
C1023 C 0.60191 0.66002 0.4273 0.0
C1024 C 0.61138 0.64074 0.42741 0.0
H1025 H 0.68692 0.56148 0.42762 0.0
H1026 H 0.67182 0.59334 0.42323 0.0
H1027 H 0.60329 0.59676 0.40487 0.0
H1028 H 0.55286 0.68286 0.42957 0.0
H1029 H 0.56803 0.65087 0.42698 0.0
C1030 C 0.14417 0.05272 0.44354 0.0
C1031 C 0.16674 0.0492 0.44228 0.0
C1032 C 0.13621 0.07116 0.44233 0.0
C1033 C 0.15036 0.11968 0.45471 0.0
H1034 H 0.10369 0.13234 0.41202 0.0
C1035 C 0.11993 0.19606 0.44465 0.0
C1036 C 0.09747 0.19898 0.44134 0.0
C1037 C 0.12869 0.17788 0.44379 0.0
C1038 C 0.1165 0.12899 0.42428 0.0
H1039 H 0.19869 0.06214 0.43889 0.0
H1040 H 0.18469 0.09462 0.4374 0.0
H1041 H 0.11863 0.10033 0.41236 0.0
H1042 H 0.06649 0.18523 0.43455 0.0
H1043 H 0.08163 0.15329 0.43393 0.0
H1044 H 0.14783 0.14799 0.46732 0.0
C1045 C 0.17326 0.083 0.43912 0.0
C1046 C 0.12512 0.11071 0.42434 0.0
C1047 C 0.18123 0.06448 0.43992 0.0
C1048 C 0.08389 0.18337 0.43711 0.0
C1049 C 0.09261 0.1651 0.4366 0.0
C1050 C 0.14154 0.13788 0.45491 0.0
C1051 C 0.15068 0.08644 0.44021 0.0
C1052 C 0.14211 0.10593 0.43956 0.0
C1053 C 0.11513 0.16215 0.43996 0.0
C1054 C 0.1245 0.14276 0.43968 0.0
H1055 H 0.13259 0.0412 0.44516 0.0
H1056 H 0.11874 0.0735 0.44338 0.0
H1057 H 0.16327 0.11621 0.46682 0.0
H1058 H 0.13087 0.20786 0.44761 0.0
H1059 H 0.14616 0.17621 0.44592 0.0
C1060 C 0.6708 0.18658 0.31628 0.0
C1061 C 0.65522 0.20099 0.31361 0.0
C1062 C 0.66427 0.16768 0.31698 0.0
C1063 C 0.61839 0.13733 0.33122 0.0
H1064 H 0.64564 0.10107 0.28981 0.0
C1065 C 0.58542 0.06156 0.32047 0.0
C1066 C 0.60077 0.04701 0.31753 0.0
C1067 C 0.59209 0.08043 0.32022 0.0
C1068 C 0.63809 0.11094 0.30175 0.0
H1069 H 0.62064 0.20708 0.30993 0.0
H1070 H 0.60925 0.17401 0.31151 0.0
H1071 H 0.65772 0.13393 0.28946 0.0
H1072 H 0.63515 0.04064 0.31264 0.0
H1073 H 0.64688 0.07348 0.31299 0.0
H1074 H 0.5991 0.11437 0.34395 0.0
C1075 C 0.62646 0.17737 0.31292 0.0
C1076 C 0.64497 0.12973 0.30145 0.0
C1077 C 0.63301 0.19623 0.31186 0.0
C1078 C 0.62291 0.05161 0.31466 0.0
C1079 C 0.62962 0.07043 0.31474 0.0
C1080 C 0.6117 0.11848 0.33175 0.0
C1081 C 0.64205 0.16298 0.3154 0.0
C1082 C 0.6351 0.14306 0.31611 0.0
C1083 C 0.61427 0.08507 0.31736 0.0
C1084 C 0.62143 0.10508 0.31696 0.0
H1085 H 0.68803 0.18989 0.31766 0.0
H1086 H 0.67653 0.15675 0.31902 0.0
H1087 H 0.61071 0.1474 0.34282 0.0
H1088 H 0.56822 0.05838 0.32261 0.0
H1089 H 0.57981 0.09137 0.32193 0.0
C1090 C 0.13881 0.69332 0.3163 0.0
C1091 C 0.16128 0.69679 0.31889 0.0
C1092 C 0.13075 0.67489 0.31694 0.0
C1093 C 0.14569 0.62653 0.30473 0.0
H1094 H 0.09637 0.61327 0.3438 0.0
C1095 C 0.1154 0.54996 0.31155 0.0
C1096 C 0.09281 0.54679 0.31329 0.0
C1097 C 0.12384 0.56819 0.31325 0.0
C1098 C 0.10994 0.6168 0.33253 0.0
H1099 H 0.19295 0.68376 0.32422 0.0
H1100 H 0.1788 0.65132 0.32476 0.0
H1101 H 0.1112 0.64533 0.34508 0.0
H1102 H 0.06129 0.56018 0.31816 0.0
H1103 H 0.07596 0.59228 0.3202 0.0
H1104 H 0.14409 0.59838 0.29146 0.0
C1105 C 0.16751 0.66297 0.32241 0.0
C1106 C 0.11849 0.63509 0.33341 0.0
C1107 C 0.17556 0.68147 0.32216 0.0
C1108 C 0.07878 0.56224 0.31679 0.0
C1109 C 0.08722 0.58059 0.31813 0.0
C1110 C 0.13696 0.60833 0.30358 0.0
C1111 C 0.14503 0.65957 0.31983 0.0
C1112 C 0.13644 0.64008 0.31953 0.0
C1113 C 0.10988 0.58377 0.31634 0.0
C1114 C 0.119 0.60322 0.31751 0.0
H1115 H 0.12739 0.70486 0.31391 0.0
H1116 H 0.11338 0.67258 0.31474 0.0
H1117 H 0.15935 0.63016 0.29361 0.0
H1118 H 0.12666 0.53828 0.30923 0.0
H1119 H 0.14139 0.57002 0.31237 0.0
C1120 C 0.29048 0.02971 0.18185 0.0
C1121 C 0.28913 0.01567 0.16466 0.0
C1122 C 0.27853 0.0281 0.20238 0.0
C1123 C 0.2548 0.99171 0.23988 0.0
H1124 H 0.23033 0.03468 0.27273 0.0
C1125 C 0.21008 0.98363 0.32741 0.0
C1126 C 0.21434 0.99727 0.34456 0.0
C1127 C 0.21771 0.98609 0.30479 0.0
C1128 C 0.23727 0.02257 0.26386 0.0
H1129 H 0.27325 0.98942 0.15497 0.0
H1130 H 0.25217 0.98666 0.19087 0.0
H1131 H 0.24473 0.03889 0.23358 0.0
H1132 H 0.2301 0.02417 0.35142 0.0
H1133 H 0.24373 0.02836 0.31191 0.0
H1134 H 0.2477 0.97545 0.27024 0.0
C1135 C 0.26275 -0.00121 0.18854 0.0
C1136 C 0.24544 0.02497 0.2414 0.0
C1137 C 0.27468 0.00045 0.16791 0.0
C1138 C 0.22654 0.0134 0.33861 0.0
C1139 C 0.23419 0.01587 0.31593 0.0
C1140 C 0.24665 0.98932 0.26232 0.0
C1141 C 0.26496 0.01239 0.20622 0.0
C1142 C 0.25449 0.0096 0.22924 0.0
C1143 C 0.22982 0.00224 0.29876 0.0
C1144 C 0.23797 0.00475 0.27466 0.0
H1145 H 0.30139 0.04168 0.17984 0.0
H1146 H 0.28075 0.03875 0.21568 0.0
H1147 H 0.26202 0.97965 0.23117 0.0
H1148 H 0.20065 0.97106 0.33136 0.0
H1149 H 0.21383 0.97543 0.29194 0.0
C1150 C 0.04235 0.26785 0.33103 0.0
C1151 C 0.04117 0.25299 0.34718 0.0
C1152 C 0.03351 0.26579 0.30888 0.0
C1153 C 0.01739 0.22948 0.26635 0.0
H1154 H 0.98597 0.27094 0.23763 0.0
C1155 C 0.96697 0.2208 0.18265 0.0
C1156 C 0.96712 0.23566 0.16646 0.0
C1157 C 0.97736 0.2228 0.20403 0.0
C1158 C 0.99498 0.25933 0.24526 0.0
H1159 H 0.02946 0.2244 0.35285 0.0
H1160 H 0.01378 0.22087 0.31418 0.0
H1161 H 0.00041 0.27467 0.27671 0.0
H1162 H 0.97892 0.26406 0.15969 0.0
H1163 H 0.99728 0.26751 0.19704 0.0
H1164 H 0.01184 0.2141 0.23493 0.0
C1165 C 0.02183 0.23403 0.31859 0.0
C1166 C 0.00321 0.26145 0.26769 0.0
C1167 C 0.03066 0.2361 0.3408 0.0
C1168 C 0.97848 0.25237 0.17182 0.0
C1169 C 0.98885 0.25439 0.19327 0.0
C1170 C 0.00916 0.22736 0.24391 0.0
C1171 C 0.02329 0.24882 0.30233 0.0
C1172 C 0.01445 0.24653 0.27852 0.0
C1173 C 0.98813 0.23972 0.20974 0.0
C1174 C 0.99779 0.24224 0.23315 0.0
H1175 H 0.05037 0.28105 0.33536 0.0
H1176 H 0.03514 0.27738 0.29671 0.0
H1177 H 0.02631 0.21784 0.27404 0.0
H1178 H 0.95838 0.20772 0.17907 0.0
H1179 H 0.9763 0.2113 0.21639 0.0
C1180 C 0.21872 0.26632 0.92505 0.0
C1181 C 0.22006 0.25116 0.90934 0.0
C1182 C 0.22793 0.26493 0.9471 0.0
C1183 C 0.24531 0.2299 0.9906 0.0
H1184 H 0.27458 0.27297 0.01837 0.0
C1185 C 0.29199 0.22501 0.0773 0.0
C1186 C 0.29005 0.24021 0.09289 0.0
C1187 C 0.28322 0.22621 0.05502 0.0
C1188 C 0.26622 0.26089 0.01097 0.0
H1189 H 0.23251 0.22272 0.90434 0.0
H1190 H 0.24886 0.22034 0.94288 0.0
H1191 H 0.26082 0.27525 0.97884 0.0
H1192 H 0.27703 0.26852 0.09741 0.0
H1193 H 0.26152 0.27056 0.05848 0.0
H1194 H 0.25073 0.21554 0.02275 0.0
C1195 C 0.2404 0.23324 0.93818 0.0
C1196 C 0.25837 0.26218 0.98829 0.0
C1197 C 0.23118 0.23465 0.91605 0.0
C1198 C 0.27883 0.25656 0.08581 0.0
C1199 C 0.27008 0.25778 0.06346 0.0
C1200 C 0.25318 0.2286 0.01328 0.0
C1201 C 0.23874 0.24833 0.95401 0.0
C1202 C 0.24777 0.24672 0.97785 0.0
C1203 C 0.27232 0.24265 0.04776 0.0
C1204 C 0.26369 0.2441 0.02375 0.0
H1205 H 0.21024 0.27925 0.92048 0.0
H1206 H 0.2261 0.27673 0.95893 0.0
H1207 H 0.23691 0.21784 0.98322 0.0
H1208 H 0.30055 0.2122 0.08218 0.0
H1209 H 0.28544 0.21439 0.0433 0.0
C1210 C 0.97062 -0.00062 0.08195 0.0
C1211 C 0.95544 0.01413 0.08463 0.0
C1212 C 0.98221 0.99729 0.06114 0.0
C1213 C 0.99794 0.02223 0.00697 0.0
H1214 H 0.99881 0.97176 0.98061 0.0
C1215 C 0.02111 0.00857 0.91115 0.0
C1216 C 0.03414 0.99265 0.90642 0.0
C1217 C 0.01224 0.01133 0.93329 0.0
C1218 C 0.99898 0.98591 0.98782 0.0
H1219 H 0.94135 0.03883 0.06804 0.0
H1220 H 0.96149 0.03522 0.03195 0.0
H1221 H 0.98367 0.97667 0.01923 0.0
H1222 H 0.04794 0.96708 0.92125 0.0
H1223 H 0.03274 0.97199 0.95973 0.0
H1224 H 0.01316 0.03149 0.97552 0.0
C1225 C 0.96452 0.02525 0.04584 0.0
C1226 C 0.99034 0.98871 0.01 0.0
C1227 C 0.95286 0.02726 0.06652 0.0
C1228 C 0.03789 0.97947 0.92423 0.0
C1229 C 0.02909 0.98224 0.94632 0.0
C1230 C 0.00665 0.01942 0.9848 0.0
C1231 C 0.97897 0.01002 0.04269 0.0
C1232 C 0.98957 0.00692 0.01978 0.0
C1233 C 0.01623 0.99824 0.95119 0.0
C1234 C 0.00715 0.00124 0.97488 0.0
H1235 H 0.97298 0.98903 0.09557 0.0
H1236 H 0.99345 0.98555 0.05934 0.0
H1237 H 0.99781 0.0364 0.01412 0.0
H1238 H 0.01788 0.01898 0.89781 0.0
H1239 H 0.00215 0.02367 0.93634 0.0
C1240 C 0.71933 0.00303 0.84019 0.0
C1241 C 0.70758 0.98655 0.84577 0.0
C1242 C 0.72956 0.00485 0.81854 0.0
C1243 C 0.74901 0.97703 0.76784 0.0
H1244 H 0.74398 0.02486 0.73538 0.0
C1245 C 0.77425 0.98548 0.67154 0.0
C1246 C 0.7857 0.00204 0.66564 0.0
C1247 C 0.76458 0.98359 0.69346 0.0
C1248 C 0.74573 0.01146 0.74429 0.0
H1249 H 0.69779 0.95891 0.8331 0.0
H1250 H 0.71542 0.96213 0.79552 0.0
H1251 H 0.72845 0.02158 0.77412 0.0
H1252 H 0.79572 0.02969 0.67811 0.0
H1253 H 0.77907 0.02633 0.71618 0.0
H1254 H 0.76626 0.9669 0.73799 0.0
C1255 C 0.71695 0.9736 0.80787 0.0
C1256 C 0.73686 0.00959 0.76655 0.0
C1257 C 0.70671 0.9718 0.82943 0.0
C1258 C 0.78699 0.01674 0.68202 0.0
C1259 C 0.77732 0.01486 0.70386 0.0
C1260 C 0.75788 0.9789 0.74558 0.0
C1261 C 0.72833 0.99021 0.80203 0.0
C1262 C 0.73835 0.99235 0.7786 0.0
C1263 C 0.7661 0.99823 0.70994 0.0
C1264 C 0.75634 0.99613 0.73351 0.0
H1265 H 0.72034 0.01466 0.85237 0.0
H1266 H 0.73843 0.01774 0.81474 0.0
H1267 H 0.75073 0.96362 0.77674 0.0
H1268 H 0.77294 0.97389 0.65933 0.0
H1269 H 0.75583 0.97067 0.69746 0.0
C1270 C 0.02402 0.74073 0.83387 0.0
C1271 C 0.03445 0.75764 0.84032 0.0
C1272 C 0.01492 0.73878 0.81177 0.0
C1273 C 0.99657 0.76608 0.76044 0.0
H1274 H 0.00747 0.71903 0.72779 0.0
C1275 C 0.97852 0.75724 0.66272 0.0
C1276 C 0.96811 0.74036 0.65612 0.0
C1277 C 0.98683 0.75935 0.68516 0.0
C1278 C 0.00411 0.73219 0.73674 0.0
H1279 H 0.04287 0.78598 0.82889 0.0
H1280 H 0.02721 0.78252 0.7904 0.0
H1281 H 0.02025 0.72278 0.76752 0.0
H1282 H 0.95868 0.71231 0.66775 0.0
H1283 H 0.97308 0.71602 0.70677 0.0
H1284 H 0.98052 0.77551 0.72958 0.0
C1285 C 0.02587 0.77081 0.80243 0.0
C1286 C 0.01137 0.73432 0.75954 0.0
C1287 C 0.03496 0.77275 0.82448 0.0
C1288 C 0.96662 0.7255 0.67225 0.0
C1289 C 0.97497 0.72759 0.69461 0.0
C1290 C 0.98934 0.76396 0.73761 0.0
C1291 C 0.01603 0.75371 0.79567 0.0
C1292 C 0.0077 0.75129 0.77166 0.0
C1293 C 0.98497 0.74459 0.7014 0.0
C1294 C 0.99303 0.74699 0.72551 0.0
H1295 H 0.0233 0.72884 0.84569 0.0
H1296 H 0.00714 0.72553 0.80723 0.0
H1297 H 0.99323 0.77924 0.76938 0.0
H1298 H 0.97993 0.76895 0.6507 0.0
H1299 H 0.99471 0.77254 0.68978 0.0
C1300 C 0.72097 0.77896 0.92743 0.0
C1301 C 0.72148 0.76414 0.91119 0.0
C1302 C 0.73221 0.77742 0.94836 0.0
C1303 C 0.75191 0.7412 0.98859 0.0
H1304 H 0.77934 0.78382 0.01932 0.0
C1305 C 0.79503 0.73417 0.07696 0.0
C1306 C 0.79132 0.74861 0.09327 0.0
C1307 C 0.78782 0.73611 0.05416 0.0
C1308 C 0.77156 0.77184 0.01102 0.0
H1309 H 0.73515 0.7365 0.9036 0.0
H1310 H 0.75502 0.7339 0.94017 0.0
H1311 H 0.76605 0.78731 0.97967 0.0
H1312 H 0.77699 0.77635 0.09848 0.0
H1313 H 0.76418 0.77966 0.0586 0.0
H1314 H 0.75717 0.72579 0.01999 0.0
C1315 C 0.74561 0.74658 0.93681 0.0
C1316 C 0.76402 0.77382 0.9883 0.0
C1317 C 0.73437 0.74814 0.91581 0.0
C1318 C 0.78009 0.76498 0.08632 0.0
C1319 C 0.77291 0.76694 0.06345 0.0
C1320 C 0.75947 0.73922 0.01128 0.0
C1321 C 0.74422 0.76103 0.95354 0.0
C1322 C 0.75392 0.75856 0.97691 0.0
C1323 C 0.77676 0.75254 0.04711 0.0
C1324 C 0.76921 0.75456 0.02281 0.0
H1325 H 0.71126 0.79152 0.92437 0.0
H1326 H 0.73063 0.78874 0.96092 0.0
H1327 H 0.74384 0.72927 0.98047 0.0
H1328 H 0.80367 0.72138 0.08173 0.0
H1329 H 0.79123 0.72485 0.04193 0.0
C1330 C 0.23004 0.50868 0.83637 0.0
C1331 C 0.21961 0.49203 0.84381 0.0
C1332 C 0.23779 0.51023 0.81364 0.0
C1333 C 0.25325 0.4819 0.76228 0.0
H1334 H 0.242 0.52847 0.72882 0.0
C1335 C 0.26955 0.48874 0.66408 0.0
C1336 C 0.28005 0.5054 0.65683 0.0
C1337 C 0.26142 0.48717 0.68667 0.0
C1338 C 0.24543 0.51543 0.73799 0.0
H1339 H 0.20957 0.46382 0.8334 0.0
H1340 H 0.22298 0.46659 0.79383 0.0
H1341 H 0.23043 0.52558 0.76914 0.0
H1342 H 0.28976 0.53366 0.66739 0.0
H1343 H 0.27575 0.53086 0.70671 0.0
H1344 H 0.26829 0.47176 0.73115 0.0
C1345 C 0.22533 0.47839 0.80556 0.0
C1346 C 0.23886 0.5138 0.7611 0.0
C1347 C 0.21754 0.47685 0.82823 0.0
C1348 C 0.28175 0.52062 0.67242 0.0
C1349 C 0.27361 0.51906 0.69494 0.0
C1350 C 0.25984 0.48354 0.73917 0.0
C1351 C 0.23534 0.49516 0.79793 0.0
C1352 C 0.24271 0.49701 0.77351 0.0
C1353 C 0.26359 0.50225 0.70242 0.0
C1354 C 0.25602 0.50033 0.72677 0.0
H1355 H 0.2319 0.52062 0.84797 0.0
H1356 H 0.24571 0.52324 0.80835 0.0
H1357 H 0.2567 0.46887 0.77146 0.0
H1358 H 0.26795 0.47678 0.65247 0.0
H1359 H 0.2535 0.47413 0.69183 0.0
C1360 C 0.2258 0.73545 0.4203 0.0
C1361 C 0.21482 0.75201 0.41351 0.0
C1362 C 0.23471 0.73394 0.44256 0.0
C1363 C 0.25256 0.7626 0.49281 0.0
H1364 H 0.24404 0.71604 0.52719 0.0
C1365 C 0.27392 0.75658 0.59005 0.0
C1366 C 0.28472 0.73998 0.597 0.0
C1367 C 0.26485 0.75795 0.56786 0.0
C1368 C 0.24674 0.72908 0.51775 0.0
H1369 H 0.20494 0.78009 0.42464 0.0
H1370 H 0.22033 0.7774 0.46332 0.0
H1371 H 0.23032 0.71856 0.48764 0.0
H1372 H 0.29406 0.71167 0.58626 0.0
H1373 H 0.27846 0.71413 0.54765 0.0
H1374 H 0.26902 0.77311 0.52287 0.0
C1375 C 0.22223 0.76564 0.45145 0.0
C1376 C 0.23892 0.7305 0.49506 0.0
C1377 C 0.2133 0.76712 0.42928 0.0
C1378 C 0.28584 0.72467 0.58149 0.0
C1379 C 0.27678 0.72603 0.55935 0.0
C1380 C 0.2604 0.76117 0.51548 0.0
C1381 C 0.2329 0.74899 0.45843 0.0
C1382 C 0.24171 0.74729 0.48234 0.0
C1383 C 0.26636 0.74274 0.55218 0.0
C1384 C 0.25758 0.74439 0.52823 0.0
H1385 H 0.22726 0.72356 0.40854 0.0
H1386 H 0.24306 0.72101 0.44732 0.0
H1387 H 0.25524 0.77564 0.48337 0.0
H1388 H 0.27275 0.76862 0.6016 0.0
H1389 H 0.25666 0.77093 0.56298 0.0
C1390 C 0.04001 0.47659 0.42214 0.0
C1391 C 0.0386 0.49157 0.40619 0.0
C1392 C 0.03216 0.47871 0.44472 0.0
C1393 C 0.01929 0.51514 0.48827 0.0
H1394 H 0.98738 0.47454 0.5183 0.0
C1395 C 0.97232 0.52493 0.57417 0.0
C1396 C 0.97208 0.50989 0.5901 0.0
C1397 C 0.98213 0.52279 0.55247 0.0
C1398 C 0.99657 0.4859 0.51029 0.0
H1399 H 0.02744 0.52042 0.40129 0.0
H1400 H 0.01349 0.52406 0.44074 0.0
H1401 H 1.0 0.47057 0.4785 0.0
H1402 H 0.98278 0.48105 0.59615 0.0
H1403 H 1.00016 0.47738 0.55826 0.0
H1404 H 0.01576 0.53051 0.52004 0.0
C1405 C 0.02096 0.51075 0.43582 0.0
C1406 C 0.00373 0.48365 0.48746 0.0
C1407 C 0.02878 0.50862 0.41318 0.0
C1408 C 0.98263 0.49289 0.58423 0.0
C1409 C 0.99243 0.49074 0.56246 0.0
C1410 C 0.01214 0.51739 0.51112 0.0
C1411 C 0.02273 0.49587 0.45189 0.0
C1412 C 0.01509 0.49828 0.47615 0.0
C1413 C 0.99193 0.50555 0.54619 0.0
C1414 C 0.0006 0.50283 0.52236 0.0
H1415 H 0.04751 0.46327 0.41733 0.0
H1416 H 0.03396 0.46704 0.45674 0.0
H1417 H 0.02834 0.52654 0.48018 0.0
H1418 H 0.96437 0.53824 0.57815 0.0
H1419 H 0.98127 0.53442 0.54028 0.0
C1420 C 0.79189 0.51843 0.18176 0.0
C1421 C 0.78998 0.50347 0.16583 0.0
C1422 C 0.78266 0.51702 0.20383 0.0
C1423 C 0.76404 0.48209 0.24679 0.0
H1424 H 0.73389 0.525 0.27397 0.0
C1425 C 0.71382 0.47639 0.33114 0.0
C1426 C 0.71486 0.49152 0.34692 0.0
C1427 C 0.72368 0.47779 0.30938 0.0
C1428 C 0.74252 0.51297 0.26675 0.0
H1429 H 0.77665 0.47537 0.16048 0.0
H1430 H 0.76037 0.47296 0.19905 0.0
H1431 H 0.74908 0.52757 0.23499 0.0
H1432 H 0.72746 0.51985 0.35243 0.0
H1433 H 0.74492 0.52222 0.31445 0.0
H1434 H 0.7575 0.46749 0.27855 0.0
C1435 C 0.76924 0.4857 0.1945 0.0
C1436 C 0.75117 0.51443 0.24441 0.0
C1437 C 0.77843 0.48713 0.17237 0.0
C1438 C 0.72632 0.50797 0.34063 0.0
C1439 C 0.73619 0.50937 0.31882 0.0
C1440 C 0.75542 0.48064 0.26916 0.0
C1441 C 0.77134 0.50061 0.2105 0.0
C1442 C 0.76199 0.499 0.23417 0.0
C1443 C 0.73482 0.49435 0.30289 0.0
C1444 C 0.74452 0.49605 0.27937 0.0
H1445 H 0.8007 0.53122 0.17728 0.0
H1446 H 0.78477 0.52866 0.21584 0.0
H1447 H 0.7726 0.47006 0.23952 0.0
H1448 H 0.70509 0.46352 0.33543 0.0
H1449 H 0.72209 0.46606 0.29742 0.0
C1450 C 0.70988 0.27225 0.42129 0.0
C1451 C 0.71052 0.2573 0.40523 0.0
C1452 C 0.71888 0.27012 0.44336 0.0
C1453 C 0.73392 0.23367 0.48604 0.0
H1454 H 0.76614 0.27467 0.51476 0.0
C1455 C 0.78118 0.22508 0.57206 0.0
C1456 C 0.78083 0.24028 0.58779 0.0
C1457 C 0.77188 0.22693 0.55008 0.0
C1458 C 0.75693 0.26318 0.50711 0.0
H1459 H 0.72151 0.22847 0.39961 0.0
H1460 H 0.73743 0.22481 0.43815 0.0
H1461 H 0.75241 0.27836 0.47538 0.0
H1462 H 0.76982 0.26915 0.59303 0.0
H1463 H 0.75334 0.27228 0.55474 0.0
H1464 H 0.73846 0.21849 0.51779 0.0
C1465 C 0.7297 0.23811 0.43372 0.0
C1466 C 0.74911 0.26528 0.48452 0.0
C1467 C 0.72073 0.24026 0.41159 0.0
C1468 C 0.77042 0.25719 0.5813 0.0
C1469 C 0.76113 0.25903 0.55929 0.0
C1470 C 0.74174 0.23157 0.50865 0.0
C1471 C 0.72871 0.25298 0.44991 0.0
C1472 C 0.73749 0.25056 0.47373 0.0
C1473 C 0.76202 0.24401 0.54332 0.0
C1474 C 0.75331 0.24632 0.51945 0.0
H1475 H 0.70212 0.28556 0.41697 0.0
H1476 H 0.71762 0.28177 0.45549 0.0
H1477 H 0.72473 0.22218 0.47836 0.0
H1478 H 0.78908 0.21186 0.5765 0.0
H1479 H 0.77302 0.21514 0.53814 0.0
C1480 C 0.52425 0.23708 0.83578 0.0
C1481 C 0.5358 0.25341 0.84232 0.0
C1482 C 0.5151 0.23566 0.81362 0.0
C1483 C 0.49753 0.26453 0.7635 0.0
H1484 H 0.50445 0.21778 0.72907 0.0
C1485 C 0.47558 0.25899 0.66639 0.0
C1486 C 0.46443 0.24258 0.65939 0.0
C1487 C 0.48466 0.26017 0.6886 0.0
C1488 C 0.50218 0.23087 0.73853 0.0
H1489 H 0.5465 0.28116 0.83085 0.0
H1490 H 0.53067 0.27864 0.79235 0.0
H1491 H 0.51859 0.22004 0.76848 0.0
H1492 H 0.45436 0.21444 0.67008 0.0
H1493 H 0.46995 0.2166 0.70872 0.0
H1494 H 0.4811 0.27536 0.73361 0.0
C1495 C 0.52851 0.26699 0.80434 0.0
C1496 C 0.51025 0.23215 0.76114 0.0
C1497 C 0.5377 0.26838 0.82639 0.0
C1498 C 0.46288 0.22729 0.67489 0.0
C1499 C 0.47193 0.22847 0.69704 0.0
C1500 C 0.48944 0.26324 0.74092 0.0
C1501 C 0.51722 0.25058 0.79762 0.0
C1502 C 0.50806 0.24901 0.77386 0.0
C1503 C 0.48278 0.24498 0.70424 0.0
C1504 C 0.4917 0.24641 0.72814 0.0
H1505 H 0.52249 0.2253 0.84765 0.0
H1506 H 0.50628 0.22291 0.80904 0.0
H1507 H 0.49532 0.27763 0.77295 0.0
H1508 H 0.4771 0.271 0.65484 0.0
H1509 H 0.49318 0.27299 0.69349 0.0
C1510 C 0.47062 0.02038 0.5772 0.0
C1511 C 0.47112 0.00521 0.59296 0.0
C1512 C 0.48002 0.01865 0.55522 0.0
C1513 C 0.4963 0.98285 0.51196 0.0
H1514 H 0.52788 0.02467 0.48411 0.0
C1515 C 0.54447 0.9753 0.42629 0.0
C1516 C 0.54398 0.99044 0.41049 0.0
C1517 C 0.53513 0.97709 0.44829 0.0
C1518 C 0.51886 0.01295 0.49151 0.0
H1519 H 0.48233 0.97641 0.5981 0.0
H1520 H 0.49898 0.97344 0.55973 0.0
H1521 H 0.51355 0.02777 0.5234 0.0
H1522 H 0.53288 0.01927 0.40532 0.0
H1523 H 0.51632 0.02234 0.44373 0.0
H1524 H 0.5016 0.96804 0.48007 0.0
C1525 C 0.49103 0.98662 0.56432 0.0
C1526 C 0.51069 0.0147 0.51407 0.0
C1527 C 0.48165 0.98836 0.58638 0.0
C1528 C 0.53356 0.00734 0.41708 0.0
C1529 C 0.52422 0.00914 0.43915 0.0
C1530 C 0.50447 0.9811 0.4894 0.0
C1531 C 0.49016 0.00169 0.5484 0.0
C1532 C 0.49931 -0.00032 0.52458 0.0
C1533 C 0.52504 0.99407 0.45509 0.0
C1534 C 0.51587 0.99612 0.47889 0.0
H1535 H 0.46262 0.03356 0.58167 0.0
H1536 H 0.47882 0.03047 0.54334 0.0
H1537 H 0.48728 0.97113 0.51936 0.0
H1538 H 0.55239 0.96208 0.42183 0.0
H1539 H 0.5363 0.96528 0.46019 0.0
C1540 C 0.46937 0.76053 0.16649 0.0
C1541 C 0.45882 0.74379 0.1596 0.0
C1542 C 0.47827 0.76212 0.18874 0.0
C1543 C 0.49669 0.73356 0.23886 0.0
H1544 H 0.48752 0.77998 0.27338 0.0
C1545 C 0.51723 0.73943 0.33618 0.0
C1546 C 0.52812 0.75596 0.34325 0.0
C1547 C 0.50827 0.73815 0.31395 0.0
C1548 C 0.49039 0.76698 0.26389 0.0
H1549 H 0.44963 0.7155 0.17056 0.0
H1550 H 0.46494 0.71833 0.20925 0.0
H1551 H 0.47384 0.77737 0.23381 0.0
H1552 H 0.53769 0.78425 0.33269 0.0
H1553 H 0.5222 0.78195 0.29397 0.0
H1554 H 0.51321 0.72315 0.26894 0.0
C1555 C 0.46657 0.73017 0.19745 0.0
C1556 C 0.4826 0.76551 0.24119 0.0
C1557 C 0.45768 0.72859 0.17527 0.0
C1558 C 0.5294 0.77131 0.32782 0.0
C1559 C 0.52042 0.77004 0.30563 0.0
C1560 C 0.50446 0.73503 0.26155 0.0
C1561 C 0.47684 0.74698 0.20452 0.0
C1562 C 0.48563 0.74876 0.22843 0.0
C1563 C 0.50996 0.75337 0.29834 0.0
C1564 C 0.50137 0.75174 0.27434 0.0
H1565 H 0.47054 0.77249 0.15481 0.0
H1566 H 0.48632 0.77518 0.19357 0.0
H1567 H 0.49958 0.72056 0.22939 0.0
H1568 H 0.51593 0.72736 0.34767 0.0
H1569 H 0.50004 0.72521 0.30896 0.0
C1570 C 0.47767 0.48846 0.09337 0.0
C1571 C 0.46624 0.50487 0.0999 0.0
C1572 C 0.48668 0.48692 0.07116 0.0
C1573 C 0.50358 0.51534 0.02038 0.0
H1574 H 0.49607 0.4682 0.98689 0.0
C1575 C 0.52352 0.50866 0.92305 0.0
C1576 C 0.5353 0.49249 0.91636 0.0
C1577 C 0.51462 0.50997 0.94531 0.0
C1578 C 0.49846 0.4814 0.9961 0.0
H1579 H 0.45566 0.53265 0.08845 0.0
H1580 H 0.47118 0.52988 0.04979 0.0
H1581 H 0.48251 0.47093 0.02655 0.0
H1582 H 0.54652 0.46482 0.92755 0.0
H1583 H 0.5311 0.46718 0.96635 0.0
H1584 H 0.51946 0.52582 0.98992 0.0
C1585 C 0.47339 0.51829 0.06183 0.0
C1586 C 0.49076 0.48294 0.01883 0.0
C1587 C 0.46439 0.51982 0.08398 0.0
C1588 C 0.53754 0.47749 0.93217 0.0
C1589 C 0.52861 0.47878 0.95438 0.0
C1590 C 0.51125 0.5138 0.99766 0.0
C1591 C 0.48447 0.50177 0.0551 0.0
C1592 C 0.49321 0.49994 0.0312 0.0
C1593 C 0.51727 0.49512 0.96128 0.0
C1594 C 0.50875 0.49682 0.98527 0.0
H1595 H 0.4794 0.47671 0.10527 0.0
H1596 H 0.49538 0.47411 0.06656 0.0
H1597 H 0.50599 0.52854 0.02957 0.0
H1598 H 0.52147 0.52044 0.91124 0.0
H1599 H 0.50569 0.52264 0.95005 0.0
C1600 C 0.35939 0.00631 0.95683 0.0
C1601 C 0.35168 0.98945 0.96685 0.0
C1602 C 0.36488 0.00697 0.93329 0.0
C1603 C 0.35427 0.98133 0.87827 0.0
H1604 H 0.40164 0.01228 0.85467 0.0
C1605 C 0.38713 0.97543 0.7848 0.0
C1606 C 0.39178 0.9923 0.77289 0.0
C1607 C 0.38137 0.97578 0.80823 0.0
C1608 C 0.3882 0.00374 0.86101 0.0
H1609 H 0.34481 0.95983 0.96035 0.0
H1610 H 0.35506 0.9608 0.91958 0.0
H1611 H 0.39477 0.01099 0.89636 0.0
H1612 H 0.39376 0.02282 0.77612 0.0
H1613 H 0.38381 0.02341 0.81727 0.0
H1614 H 0.34804 0.97379 0.84294 0.0
C1615 C 0.35621 0.97369 0.92964 0.0
C1616 C 0.38425 0.00299 0.8849 0.0
C1617 C 0.35052 0.97308 0.9531 0.0
C1618 C 0.39016 0.0096 0.78481 0.0
C1619 C 0.38465 0.00993 0.80838 0.0
C1620 C 0.35835 0.98195 0.85445 0.0
C1621 C 0.36298 0.99074 0.91928 0.0
C1622 C 0.36729 0.99168 0.89386 0.0
C1623 C 0.38035 0.993 0.82036 0.0
C1624 C 0.37541 0.9931 0.84557 0.0
H1625 H 0.36034 0.01921 0.96693 0.0
H1626 H 0.36985 0.02039 0.92591 0.0
H1627 H 0.34073 0.97283 0.88442 0.0
H1628 H 0.38824 0.96187 0.77611 0.0
H1629 H 0.37832 0.9625 0.81703 0.0
C1630 C 0.90351 0.27081 0.95632 0.0
C1631 C 0.90466 0.25411 0.96945 0.0
C1632 C 0.89733 0.27022 0.93305 0.0
C1633 C 0.87062 0.23973 0.88891 0.0
H1634 H 0.89917 0.27422 0.84622 0.0
C1635 C 0.85725 0.2375 0.78944 0.0
C1636 C 0.85166 0.25504 0.77961 0.0
C1637 C 0.86496 0.23654 0.81223 0.0
C1638 C 0.89105 0.26454 0.85798 0.0
H1639 H 0.90009 0.22369 0.96854 0.0
H1640 H 0.88983 0.22258 0.92774 0.0
H1641 H 0.9098 0.27405 0.88691 0.0
H1642 H 0.85039 0.28532 0.7856 0.0
H1643 H 0.8642 0.28363 0.82517 0.0
H1644 H 0.85208 0.23011 0.85969 0.0
C1645 C 0.89325 0.23621 0.93552 0.0
C1646 C 0.89701 0.2645 0.88132 0.0
C1647 C 0.8992 0.23682 0.9589 0.0
C1648 C 0.85452 0.2716 0.79272 0.0
C1649 C 0.86252 0.27066 0.81533 0.0
C1650 C 0.86484 0.23962 0.86547 0.0
C1651 C 0.89242 0.25289 0.92224 0.0
C1652 C 0.88665 0.2523 0.89718 0.0
C1653 C 0.86755 0.25311 0.82541 0.0
C1654 C 0.87481 0.2522 0.84986 0.0
H1655 H 0.90745 0.28437 0.96401 0.0
H1656 H 0.89636 0.28341 0.92356 0.0
H1657 H 0.8621 0.23029 0.90063 0.0
H1658 H 0.85513 0.2245 0.77976 0.0
H1659 H 0.86886 0.22284 0.81958 0.0
C1660 C 0.35697 0.23406 0.29175 0.0
C1661 C 0.35198 0.25158 0.28151 0.0
C1662 C 0.36139 0.23288 0.31551 0.0
C1663 C 0.35231 0.25935 0.37012 0.0
H1664 H 0.39821 0.22723 0.39446 0.0
C1665 C 0.38775 0.26835 0.46155 0.0
C1666 C 0.39223 0.25203 0.4746 0.0
C1667 C 0.38114 0.2669 0.4385 0.0
C1668 C 0.38513 0.23605 0.38792 0.0
H1669 H 0.34854 0.28168 0.28795 0.0
H1670 H 0.35671 0.27971 0.32908 0.0
H1671 H 0.39087 0.22746 0.35282 0.0
H1672 H 0.39296 0.22134 0.47382 0.0
H1673 H 0.38147 0.21883 0.43329 0.0
H1674 H 0.34694 0.26829 0.40511 0.0
C1675 C 0.35665 0.26678 0.31898 0.0
C1676 C 0.38093 0.2362 0.36409 0.0
C1677 C 0.35214 0.26794 0.29533 0.0
C1678 C 0.38955 0.23418 0.46422 0.0
C1679 C 0.38314 0.23273 0.441 0.0
C1680 C 0.35659 0.25928 0.39386 0.0
C1681 C 0.36096 0.24922 0.32945 0.0
C1682 C 0.3647 0.24809 0.35487 0.0
C1683 C 0.37902 0.2491 0.42789 0.0
C1684 C 0.37325 0.24785 0.40298 0.0
H1685 H 0.35688 0.22118 0.28156 0.0
H1686 H 0.36454 0.21912 0.32305 0.0
H1687 H 0.33932 0.26833 0.36369 0.0
H1688 H 0.38966 0.28231 0.46905 0.0
H1689 H 0.3783 0.27977 0.42876 0.0
C1690 C 0.89425 0.00564 0.29681 0.0
C1691 C 0.90223 0.98881 0.28694 0.0
C1692 C 0.8885 0.00634 0.32029 0.0
C1693 C 0.89845 0.98085 0.37561 0.0
H1694 H 0.8503 0.01141 0.3982 0.0
C1695 C 0.86378 0.97442 0.46826 0.0
C1696 C 0.85885 0.99121 0.48022 0.0
C1697 C 0.86991 0.9749 0.44494 0.0
C1698 C 0.86395 0.00299 0.39214 0.0
H1699 H 0.90941 0.95928 0.2937 0.0
H1700 H 0.89872 0.96031 0.33434 0.0
H1701 H 0.85803 0.01023 0.35667 0.0
H1702 H 0.85668 0.02174 0.47714 0.0
H1703 H 0.86723 0.02255 0.43616 0.0
H1704 H 0.904 0.97329 0.41106 0.0
C1705 C 0.89754 0.97316 0.3242 0.0
C1706 C 0.8684 0.0023 0.36835 0.0
C1707 C 0.90349 0.97251 0.30081 0.0
C1708 C 0.86048 0.00857 0.46842 0.0
C1709 C 0.86635 0.00902 0.44494 0.0
C1710 C 0.89386 0.98141 0.39933 0.0
C1711 C 0.89042 0.99018 0.3344 0.0
C1712 C 0.88564 0.99112 0.35974 0.0
C1713 C 0.87101 0.99217 0.43294 0.0
C1714 C 0.8765 0.99239 0.40785 0.0
H1715 H 0.89322 0.01849 0.28663 0.0
H1716 H 0.88328 0.01974 0.32753 0.0
H1717 H 0.9122 0.97246 0.36975 0.0
H1718 H 0.86268 0.96082 0.47684 0.0
H1719 H 0.87322 0.96167 0.43611 0.0
C1720 C 0.62923 0.98318 0.0383 0.0
C1721 C 0.633 0.00069 0.0274 0.0
C1722 C 0.62525 0.98231 0.06221 0.0
C1723 C 0.60735 0.0112 0.11207 0.0
H1724 H 0.64016 0.97536 0.14914 0.0
C1725 C 0.6111 0.01819 0.21108 0.0
C1726 C 0.61003 0.00165 0.22454 0.0
C1727 C 0.61385 0.01716 0.18708 0.0
C1728 C 0.63063 0.98528 0.13905 0.0
H1729 H 0.63495 0.031 0.03294 0.0
H1730 H 0.62779 0.02947 0.07442 0.0
H1731 H 0.64374 0.97494 0.10694 0.0
H1732 H 0.61148 0.97101 0.22336 0.0
H1733 H 0.61596 0.96917 0.1813 0.0
H1734 H 0.59414 0.02154 0.14396 0.0
C1735 C 0.6279 0.01643 0.06456 0.0
C1736 C 0.63269 0.98503 0.11485 0.0
C1737 C 0.6321 0.01729 0.04078 0.0
C1738 C 0.61235 0.98402 0.21349 0.0
C1739 C 0.61496 0.98298 0.18937 0.0
C1740 C 0.60519 0.01138 0.13618 0.0
C1741 C 0.62467 -0.00107 0.07561 0.0
C1742 C 0.6213 0.99817 0.10113 0.0
C1743 C 0.6154 -0.00045 0.17582 0.0
C1744 C 0.61705 -0.00137 0.15004 0.0
H1745 H 0.62992 0.97013 0.02848 0.0
H1746 H 0.62265 0.96863 0.07022 0.0
H1747 H 0.59808 0.0213 0.10196 0.0
H1748 H 0.60956 0.032 0.21905 0.0
H1749 H 0.61466 0.03023 0.17732 0.0
C1750 C 0.10676 0.75912 0.04569 0.0
C1751 C 0.10074 0.74163 0.03598 0.0
C1752 C 0.11344 0.76023 0.06885 0.0
C1753 C 0.13539 0.73166 0.11675 0.0
H1754 H 0.10834 0.76907 0.15678 0.0
C1755 C 0.14246 0.72635 0.21551 0.0
C1756 C 0.14576 0.74305 0.22823 0.0
C1757 C 0.13704 0.7271 0.19205 0.0
C1758 C 0.11628 0.75872 0.14579 0.0
H1759 H 0.09757 0.71156 0.04271 0.0
H1760 H 0.10945 0.71348 0.08293 0.0
H1761 H 0.10003 0.76891 0.11535 0.0
H1762 H 0.14548 0.77369 0.22644 0.0
H1763 H 0.13634 0.77504 0.18524 0.0
H1764 H 0.15176 0.72149 0.14695 0.0
C1765 C 0.10899 0.72632 0.07269 0.0
C1766 C 0.11151 0.75863 0.12207 0.0
C1767 C 0.10209 0.72524 0.04968 0.0
C1768 C 0.14293 0.76058 0.21712 0.0
C1769 C 0.13766 0.76134 0.19352 0.0
C1770 C 0.14028 0.73183 0.14037 0.0
C1771 C 0.1145 0.74384 0.0826 0.0
C1772 C 0.12078 0.74492 0.10739 0.0
C1773 C 0.135 0.74458 0.18062 0.0
C1774 C 0.13052 0.74516 0.15528 0.0
H1775 H 0.10581 0.77201 0.03559 0.0
H1776 H 0.11776 0.7739 0.07601 0.0
H1777 H 0.14304 0.72112 0.10578 0.0
H1778 H 0.14431 0.71262 0.22362 0.0
H1779 H 0.13456 0.71392 0.18284 0.0
C1780 C 0.65088 0.72136 0.70427 0.0
C1781 C 0.65001 0.7379 0.71776 0.0
C1782 C 0.64374 0.72154 0.68129 0.0
C1783 C 0.63746 0.7533 0.632 0.0
H1784 H 0.60085 0.7136 0.60675 0.0
C1785 C 0.60383 0.75578 0.53839 0.0
C1786 C 0.60193 0.73856 0.52639 0.0
C1787 C 0.6097 0.75597 0.5618 0.0
C1788 C 0.61135 0.72465 0.61342 0.0
H1789 H 0.64053 0.7675 0.71791 0.0
H1790 H 0.62825 0.7678 0.67765 0.0
H1791 H 0.61022 0.71324 0.64781 0.0
H1792 H 0.60556 0.70812 0.52918 0.0
H1793 H 0.61651 0.70849 0.56969 0.0
H1794 H 0.63911 0.7645 0.5976 0.0
C1795 C 0.63449 0.75474 0.6849 0.0
C1796 C 0.6166 0.72448 0.63696 0.0
C1797 C 0.64138 0.75451 0.70798 0.0
C1798 C 0.60671 0.72161 0.53802 0.0
C1799 C 0.61281 0.72182 0.56132 0.0
C1800 C 0.63242 0.75338 0.60839 0.0
C1801 C 0.63583 0.73831 0.67128 0.0
C1802 C 0.62972 0.73878 0.64647 0.0
C1803 C 0.61402 0.73897 0.57363 0.0
C1804 C 0.61935 0.73902 0.59878 0.0
H1805 H 0.65742 0.70835 0.71134 0.0
H1806 H 0.64506 0.7087 0.67112 0.0
H1807 H 0.64786 0.76437 0.63885 0.0
H1808 H 0.60009 0.76907 0.52992 0.0
H1809 H 0.61023 0.76943 0.57077 0.0
C1810 C 0.11201 0.01535 0.71112 0.0
C1811 C 0.10834 -0.00116 0.72412 0.0
C1812 C 0.11914 0.01421 0.68819 0.0
C1813 C 0.11832 0.98335 0.63749 0.0
H1814 H 0.16305 0.01748 0.61469 0.0
C1815 C 0.14929 0.98288 0.54209 0.0
C1816 C 0.1537 0.00063 0.53213 0.0
C1817 C 0.14424 0.98141 0.56571 0.0
C1818 C 0.15037 0.00798 0.62071 0.0
H1819 H 0.10949 0.96817 0.72336 0.0
H1820 H 0.12185 0.9662 0.68301 0.0
H1821 H 0.15423 0.01703 0.65586 0.0
H1822 H 0.15539 0.0308 0.53887 0.0
H1823 H 0.14613 0.0283 0.57971 0.0
H1824 H 0.11407 0.97463 0.60221 0.0
C1825 C 0.11918 0.98 0.69068 0.0
C1826 C 0.1454 0.00768 0.64431 0.0
C1827 C 0.11226 0.98114 0.71379 0.0
C1828 C 0.1523 0.01689 0.54605 0.0
C1829 C 0.14715 0.01544 0.56954 0.0
C1830 C 0.1232 0.98373 0.61378 0.0
C1831 C 0.12259 0.99654 0.67764 0.0
C1832 C 0.12911 0.99557 0.65291 0.0
C1833 C 0.14344 0.99767 0.57977 0.0
C1834 C 0.13904 0.99629 0.60507 0.0
H1835 H 0.10915 0.0292 0.71858 0.0
H1836 H 0.1214 0.02719 0.67849 0.0
H1837 H 0.10555 0.97398 0.64362 0.0
H1838 H 0.15033 0.97009 0.53181 0.0
H1839 H 0.14158 0.96751 0.57307 0.0
C1840 C 0.35184 0.47735 0.46014 0.0
C1841 C 0.35042 0.49376 0.47377 0.0
C1842 C 0.35691 0.47856 0.43662 0.0
C1843 C 0.38027 0.50993 0.39174 0.0
H1844 H 0.3482 0.47676 0.35039 0.0
C1845 C 0.38911 0.51283 0.29176 0.0
C1846 C 0.39291 0.49517 0.28128 0.0
C1847 C 0.38253 0.51387 0.31495 0.0
C1848 C 0.35731 0.48607 0.36174 0.0
H1849 H 0.35378 0.52432 0.4736 0.0
H1850 H 0.36238 0.52648 0.43233 0.0
H1851 H 0.34026 0.47631 0.39178 0.0
H1852 H 0.39217 0.46478 0.2866 0.0
H1853 H 0.38052 0.46662 0.3269 0.0
H1854 H 0.39731 0.51965 0.36151 0.0
C1855 C 0.35979 0.51264 0.43992 0.0
C1856 C 0.35286 0.48576 0.38545 0.0
C1857 C 0.35484 0.51141 0.46355 0.0
C1858 C 0.3894 0.4786 0.29419 0.0
C1859 C 0.38262 0.47964 0.31724 0.0
C1860 C 0.38464 0.51032 0.36795 0.0
C1861 C 0.36051 0.49624 0.42612 0.0
C1862 C 0.36455 0.49744 0.40078 0.0
C1863 C 0.37937 0.49727 0.32793 0.0
C1864 C 0.37343 0.49816 0.35279 0.0
H1865 H 0.34872 0.46352 0.46755 0.0
H1866 H 0.35786 0.46562 0.42661 0.0
H1867 H 0.38967 0.51901 0.4031 0.0
H1868 H 0.39175 0.52584 0.28224 0.0
H1869 H 0.37998 0.52764 0.32277 0.0
C1870 C 0.8961 0.76728 0.46009 0.0
C1871 C 0.89803 0.75074 0.4734 0.0
C1872 C 0.89033 0.76628 0.43676 0.0
C1873 C 0.86563 0.73512 0.39244 0.0
H1874 H 0.89477 0.76972 0.35033 0.0
C1875 C 0.85292 0.73426 0.29266 0.0
C1876 C 0.8479 0.75206 0.28319 0.0
C1877 C 0.86027 0.73279 0.31554 0.0
C1878 C 0.88649 0.76 0.36191 0.0
H1879 H 0.89501 0.72016 0.47284 0.0
H1880 H 0.88525 0.71837 0.43186 0.0
H1881 H 0.90476 0.76951 0.39117 0.0
H1882 H 0.84711 0.78226 0.28997 0.0
H1883 H 0.86018 0.77967 0.32968 0.0
H1884 H 0.84743 0.72562 0.36292 0.0
C1885 C 0.88793 0.73215 0.43957 0.0
C1886 C 0.89211 0.75993 0.38532 0.0
C1887 C 0.89356 0.73317 0.46302 0.0
C1888 C 0.8508 0.76834 0.2968 0.0
C1889 C 0.8584 0.76688 0.31949 0.0
C1890 C 0.86014 0.73508 0.36892 0.0
C1891 C 0.88654 0.74869 0.4261 0.0
C1892 C 0.88145 0.74776 0.40096 0.0
C1893 C 0.86304 0.7491 0.32914 0.0
C1894 C 0.87025 0.74778 0.35355 0.0
H1895 H 0.89925 0.78105 0.46764 0.0
H1896 H 0.88887 0.77934 0.42705 0.0
H1897 H 0.857 0.72566 0.40405 0.0
H1898 H 0.85076 0.72147 0.28257 0.0
H1899 H 0.86385 0.71892 0.32259 0.0
C1900 C 0.36184 0.73466 0.7893 0.0
C1901 C 0.35924 0.75232 0.77844 0.0
C1902 C 0.3665 0.7336 0.81302 0.0
C1903 C 0.36171 0.76226 0.86651 0.0
H1904 H 0.40166 0.72539 0.89252 0.0
C1905 C 0.39577 0.76855 0.95879 0.0
C1906 C 0.39677 0.75213 0.97246 0.0
C1907 C 0.39014 0.76747 0.93541 0.0
C1908 C 0.39025 0.7356 0.88551 0.0
H1909 H 0.36054 0.7827 0.78365 0.0
H1910 H 0.36917 0.78088 0.8247 0.0
H1911 H 0.39491 0.72567 0.85074 0.0
H1912 H 0.39256 0.72165 0.97236 0.0
H1913 H 0.38281 0.71976 0.93122 0.0
H1914 H 0.35739 0.77243 0.90115 0.0
C1915 C 0.367 0.76782 0.81514 0.0
C1916 C 0.38639 0.73578 0.86159 0.0
C1917 C 0.36222 0.76887 0.79154 0.0
C1918 C 0.39185 0.73456 0.96227 0.0
C1919 C 0.38642 0.73346 0.93873 0.0
C1920 C 0.36567 0.76215 0.89031 0.0
C1921 C 0.36874 0.75019 0.8263 0.0
C1922 C 0.37229 0.7493 0.85178 0.0
C1923 C 0.38554 0.74992 0.92508 0.0
C1924 C 0.38018 0.74899 0.90004 0.0
H1925 H 0.35955 0.72165 0.77968 0.0
H1926 H 0.36763 0.7198 0.82109 0.0
H1927 H 0.35032 0.77255 0.85964 0.0
H1928 H 0.39946 0.7823 0.9661 0.0
H1929 H 0.38984 0.78037 0.92528 0.0
C1930 C 0.90144 0.47525 0.79889 0.0
C1931 C 0.90274 0.49178 0.78547 0.0
C1932 C 0.89484 0.47611 0.82205 0.0
C1933 C 0.86764 0.507 0.86555 0.0
H1934 H 0.89733 0.47393 0.90894 0.0
C1935 C 0.85568 0.51117 0.96536 0.0
C1936 C 0.85116 0.49373 0.97604 0.0
C1937 C 0.86264 0.51181 0.94224 0.0
C1938 C 0.88886 0.4832 0.89699 0.0
H1939 H 0.89775 0.52216 0.78565 0.0
H1940 H 0.8867 0.52375 0.82623 0.0
H1941 H 0.90755 0.47335 0.86813 0.0
H1942 H 0.85086 0.46329 0.9711 0.0
H1943 H 0.86328 0.46442 0.93099 0.0
H1944 H 0.84915 0.51697 0.89471 0.0
C1945 C 0.8904 0.51005 0.81878 0.0
C1946 C 0.8946 0.4828 0.87358 0.0
C1947 C 0.8968 0.50915 0.79552 0.0
C1948 C 0.85417 0.47695 0.96335 0.0
C1949 C 0.86139 0.47758 0.94042 0.0
C1950 C 0.86205 0.50752 0.88906 0.0
C1951 C 0.88962 0.49356 0.83242 0.0
C1952 C 0.88387 0.49451 0.85748 0.0
C1953 C 0.86553 0.495 0.92957 0.0
C1954 C 0.87243 0.49546 0.90494 0.0
H1955 H 0.90573 0.46162 0.79158 0.0
H1956 H 0.89392 0.46306 0.83183 0.0
H1957 H 0.85887 0.51607 0.85363 0.0
H1958 H 0.85342 0.52433 0.9747 0.0
H1959 H 0.86585 0.52542 0.93429 0.0
C1960 C 0.59686 0.52147 0.70765 0.0
C1961 C 0.59509 0.50511 0.72133 0.0
C1962 C 0.60453 0.52035 0.68492 0.0
C1963 C 0.60827 0.48826 0.63575 0.0
H1964 H 0.64989 0.52497 0.61233 0.0
C1965 C 0.6413 0.48666 0.54147 0.0
C1966 C 0.64433 0.50424 0.53054 0.0
C1967 C 0.63591 0.48578 0.56502 0.0
C1968 C 0.63806 0.51474 0.61852 0.0
H1969 H 0.60015 0.47473 0.72204 0.0
H1970 H 0.61339 0.47276 0.68201 0.0
H1971 H 0.64013 0.52515 0.65329 0.0
H1972 H 0.64333 0.53466 0.53545 0.0
H1973 H 0.63339 0.53315 0.57621 0.0
H1974 H 0.60571 0.47817 0.60087 0.0
C1975 C 0.60885 0.48644 0.68901 0.0
C1976 C 0.63258 0.5148 0.64199 0.0
C1977 C 0.60141 0.48759 0.71191 0.0
C1978 C 0.64129 0.52089 0.54342 0.0
C1979 C 0.63576 0.52002 0.56686 0.0
C1980 C 0.61362 0.48829 0.61218 0.0
C1981 C 0.61039 0.50281 0.6753 0.0
C1982 C 0.61744 0.50172 0.65078 0.0
C1983 C 0.63334 0.50247 0.57804 0.0
C1984 C 0.62836 0.50171 0.60324 0.0
H1985 H 0.59215 0.53518 0.71444 0.0
H1986 H 0.60535 0.53317 0.67466 0.0
H1987 H 0.59638 0.47813 0.64207 0.0
H1988 H 0.64363 0.47358 0.53201 0.0
H1989 H 0.63433 0.47203 0.57313 0.0
C1990 C 0.14192 0.2625 0.71686 0.0
C1991 C 0.14473 0.24455 0.72694 0.0
C1992 C 0.13514 0.26416 0.69378 0.0
C1993 C 0.10789 0.23804 0.64669 0.0
H1994 H 0.14198 0.26989 0.60551 0.0
C1995 C 0.10344 0.22927 0.54818 0.0
C1996 C 0.10343 0.24557 0.53425 0.0
C1997 C 0.10773 0.23053 0.57186 0.0
C1998 C 0.13207 0.26116 0.61682 0.0
H1999 H 0.14199 0.21433 0.72102 0.0
H2000 H 0.13 0.21724 0.68098 0.0
H2001 H 0.14965 0.26997 0.64708 0.0
H2002 H 0.10829 0.27597 0.53418 0.0
H2003 H 0.11556 0.2782 0.57576 0.0
H2004 H 0.09036 0.22913 0.61661 0.0
C2005 C 0.13302 0.23002 0.69084 0.0
C2006 C 0.13647 0.26121 0.64062 0.0
C2007 C 0.14 0.22836 0.71375 0.0
C2008 C 0.10826 0.26314 0.54445 0.0
C2009 C 0.11246 0.26441 0.56826 0.0
C2010 C 0.10342 0.23806 0.62298 0.0
C2011 C 0.13077 0.24791 0.68051 0.0
C2012 C 0.12469 0.24938 0.65571 0.0
C2013 C 0.11198 0.24813 0.58228 0.0
C2014 C 0.11575 0.24931 0.60769 0.0
H2015 H 0.14551 0.27524 0.72658 0.0
H2016 H 0.13339 0.27813 0.68628 0.0
H2017 H 0.09831 0.22901 0.65798 0.0
H2018 H 0.09996 0.21549 0.54084 0.0
H2019 H 0.10773 0.21764 0.58202 0.0
C2020 C 0.60888 0.22988 0.04079 0.0
C2021 C 0.60507 0.24628 0.02766 0.0
C2022 C 0.61521 0.23119 0.06395 0.0
C2023 C 0.61142 0.26216 0.11444 0.0
H2024 H 0.65587 0.2289 0.13949 0.0
C2025 C 0.63833 0.26392 0.21099 0.0
C2026 C 0.64272 0.24636 0.22144 0.0
C2027 C 0.63426 0.26506 0.18715 0.0
C2028 C 0.64324 0.23815 0.13283 0.0
H2029 H 0.60524 0.27697 0.02841 0.0
H2030 H 0.61623 0.27925 0.06913 0.0
H2031 H 0.64882 0.22902 0.09794 0.0
H2032 H 0.64546 0.21616 0.21527 0.0
H2033 H 0.63788 0.21809 0.174 0.0
H2034 H 0.60546 0.27097 0.14942 0.0
C2035 C 0.61426 0.26538 0.06139 0.0
C2036 C 0.6393 0.23827 0.10901 0.0
C2037 C 0.60813 0.26407 0.03808 0.0
C2038 C 0.64232 0.22994 0.20773 0.0
C2039 C 0.63815 0.23106 0.184 0.0
C2040 C 0.61528 0.26197 0.13834 0.0
C2041 C 0.61771 0.24893 0.07459 0.0
C2042 C 0.62314 0.25007 0.0996 0.0
C2043 C 0.63443 0.24865 0.17333 0.0
C2044 C 0.63102 0.24974 0.14785 0.0
H2045 H 0.60667 0.21596 0.03327 0.0
H2046 H 0.61753 0.21826 0.07374 0.0
H2047 H 0.59871 0.27128 0.10768 0.0
H2048 H 0.63862 0.27684 0.22108 0.0
H2049 H 0.63158 0.27884 0.17947 0.0
C2050 C 0.15117 0.51664 0.04426 0.0
C2051 C 0.15357 0.50038 0.03049 0.0
C2052 C 0.14376 0.5152 0.06705 0.0
C2053 C 0.14203 0.4831 0.11624 0.0
H2054 H 0.0992 0.51859 0.14004 0.0
C2055 C 0.11071 0.48194 0.21143 0.0
C2056 C 0.10717 0.49963 0.2219 0.0
C2057 C 0.11583 0.48075 0.18782 0.0
C2058 C 0.11136 0.5087 0.13374 0.0
H2059 H 0.14992 0.46986 0.02968 0.0
H2060 H 0.13713 0.46734 0.06986 0.0
H2061 H 0.10819 0.5187 0.0989 0.0
H2062 H 0.10718 0.52997 0.21617 0.0
H2063 H 0.11665 0.52795 0.17534 0.0
H2064 H 0.14568 0.47345 0.15122 0.0
C2065 C 0.14097 0.48117 0.06287 0.0
C2066 C 0.1164 0.50871 0.11017 0.0
C2067 C 0.14814 0.48263 0.03989 0.0
C2068 C 0.10959 0.51611 0.20856 0.0
C2069 C 0.11484 0.51494 0.18508 0.0
C2070 C 0.1371 0.48317 0.13993 0.0
C2071 C 0.1388 0.49746 0.07666 0.0
C2072 C 0.13202 0.49612 0.10124 0.0
C2073 C 0.11761 0.49726 0.17431 0.0
C2074 C 0.12198 0.49621 0.149 0.0
H2075 H 0.1552 0.53051 0.0375 0.0
H2076 H 0.14245 0.52797 0.07737 0.0
H2077 H 0.15428 0.47335 0.10981 0.0
H2078 H 0.10886 0.46898 0.22127 0.0
H2079 H 0.11776 0.46691 0.18002 0.0
C2080 C 0.33684 0.18036 0.17856 0.0
C2081 C 0.32016 0.1931 0.17251 0.0
C2082 C 0.3374 0.16222 0.16896 0.0
C2083 C 0.30378 0.12664 0.1385 0.0
H2084 H 0.35963 0.1088 0.1153 0.0
C2085 C 0.31497 0.05182 0.10055 0.0
C2086 C 0.32759 0.0503 0.08037 0.0
C2087 C 0.3143 0.06875 0.11297 0.0
C2088 C 0.34391 0.11363 0.1216 0.0
H2089 H 0.29059 0.19655 0.15222 0.0
H2090 H 0.29169 0.16498 0.13539 0.0
H2091 H 0.35753 0.13916 0.13531 0.0
H2092 H 0.34888 0.0653 0.05667 0.0
H2093 H 0.34764 0.09514 0.07823 0.0
H2094 H 0.29006 0.10135 0.12426 0.0
C2095 C 0.30424 0.16896 0.14767 0.0
C2096 C 0.34274 0.1309 0.13331 0.0
C2097 C 0.30368 0.18709 0.15724 0.0
C2098 C 0.33926 0.0661 0.07242 0.0
C2099 C 0.33865 0.08309 0.08483 0.0
C2100 C 0.30495 0.10935 0.12684 0.0
C2101 C 0.32128 0.15642 0.15317 0.0
C2102 C 0.32264 0.13765 0.14175 0.0
C2103 C 0.32613 0.08459 0.10524 0.0
C2104 C 0.32501 0.10272 0.11813 0.0
H2105 H 0.34973 0.18451 0.19034 0.0
H2106 H 0.35056 0.15277 0.17378 0.0
H2107 H 0.28809 0.1314 0.14496 0.0
H2108 H 0.3051 0.04004 0.10631 0.0
H2109 H 0.30451 0.06943 0.12861 0.0
C2110 C 0.91241 0.06703 0.18714 0.0
C2111 C 0.9201 0.05125 0.17477 0.0
C2112 C 0.91098 0.08474 0.17642 0.0
C2113 C 0.92345 0.12224 0.15463 0.0
H2114 H 0.90702 0.12713 0.09001 0.0
C2115 C 0.94057 0.18991 0.10222 0.0
C2116 C 0.92486 0.19604 0.08617 0.0
C2117 C 0.93826 0.17255 0.11351 0.0
C2118 C 0.9114 0.12606 0.10815 0.0
H2119 H 0.93293 0.0417 0.14196 0.0
H2120 H 0.93051 0.07253 0.12304 0.0
H2121 H 0.90548 0.09619 0.10868 0.0
H2122 H 0.89439 0.18873 0.0693 0.0
H2123 H 0.89024 0.15837 0.08918 0.0
H2124 H 0.92914 0.1521 0.1542 0.0
C2125 C 0.92498 0.0712 0.14081 0.0
C2126 C 0.91078 0.10827 0.11878 0.0
C2127 C 0.92631 0.05351 0.15154 0.0
C2128 C 0.90676 0.18439 0.08161 0.0
C2129 C 0.90444 0.16698 0.09292 0.0
C2130 C 0.92404 0.14 0.14402 0.0
C2131 C 0.9174 0.08708 0.15316 0.0
C2132 C 0.917 0.10611 0.1421 0.0
C2133 C 0.92021 0.16083 0.10897 0.0
C2134 C 0.91826 0.1421 0.12058 0.0
H2135 H 0.90748 0.0657 0.20511 0.0
H2136 H 0.90481 0.09659 0.18638 0.0
H2137 H 0.92857 0.1211 0.17254 0.0
H2138 H 0.95496 0.19835 0.10574 0.0
H2139 H 0.95094 0.16812 0.1254 0.0
C2140 C 0.68959 0.80241 0.84778 0.0
C2141 C 0.67219 0.79537 0.83462 0.0
C2142 C 0.68695 0.81863 0.86128 0.0
C2143 C 0.65129 0.86089 0.86622 0.0
H2144 H 0.68605 0.86978 0.92133 0.0
C2145 C 0.64453 0.92889 0.92129 0.0
C2146 C 0.66438 0.93877 0.92322 0.0
C2147 C 0.64421 0.91029 0.91312 0.0
C2148 C 0.67624 0.86741 0.90599 0.0
H2149 H 0.63822 0.79923 0.8255 0.0
H2150 H 0.63311 0.82712 0.85001 0.0
H2151 H 0.68666 0.83866 0.90291 0.0
H2152 H 0.69951 0.93671 0.91902 0.0
H2153 H 0.69895 0.90392 0.90529 0.0
H2154 H 0.64061 0.88962 0.86972 0.0
C2155 C 0.64906 0.82051 0.84946 0.0
C2156 C 0.67665 0.84965 0.89531 0.0
C2157 C 0.65187 0.80447 0.83557 0.0
C2158 C 0.68398 0.92946 0.91765 0.0
C2159 C 0.68368 0.91071 0.90991 0.0
C2160 C 0.65055 0.87849 0.87717 0.0
C2161 C 0.66671 0.82805 0.86214 0.0
C2162 C 0.66453 0.84626 0.87498 0.0
C2163 C 0.66376 0.90112 0.9072 0.0
C2164 C 0.6633 0.88199 0.89689 0.0
H2165 H 0.70553 0.79576 0.84694 0.0
H2166 H 0.70108 0.82412 0.87031 0.0
H2167 H 0.64205 0.85905 0.85039 0.0
H2168 H 0.62915 0.93572 0.92536 0.0
H2169 H 0.62867 0.90312 0.9112 0.0
C2170 C 0.08961 0.80744 0.91846 0.0
C2171 C 0.0704 0.79666 0.91949 0.0
C2172 C 0.09 0.82457 0.90632 0.0
C2173 C 0.05795 0.85328 0.86364 0.0
H2174 H 0.09333 0.89426 0.88786 0.0
C2175 C 0.04954 0.9326 0.83767 0.0
C2176 C 0.06914 0.9413 0.83075 0.0
C2177 C 0.04976 0.91436 0.84713 0.0
C2178 C 0.08347 0.88288 0.88088 0.0
H2179 H 0.03648 0.79533 0.90896 0.0
H2180 H 0.03678 0.82548 0.88876 0.0
H2181 H 0.09372 0.86362 0.9072 0.0
H2182 H 0.10429 0.93776 0.82828 0.0
H2183 H 0.10464 0.90616 0.84535 0.0
H2184 H 0.04707 0.87307 0.8379 0.0
C2185 C 0.05184 0.82056 0.89649 0.0
C2186 C 0.08379 0.86525 0.89182 0.0
C2187 C 0.05159 0.8033 0.90824 0.0
C2188 C 0.0889 0.9314 0.83333 0.0
C2189 C 0.08916 0.91337 0.8432 0.0
C2190 C 0.05732 0.87104 0.85299 0.0
C2191 C 0.07103 0.83148 0.89537 0.0
C2192 C 0.07105 0.85017 0.88335 0.0
C2193 C 0.06962 0.90474 0.85026 0.0
C2194 C 0.07012 0.88595 0.8615 0.0
H2195 H 0.10439 0.80255 0.92685 0.0
H2196 H 0.10522 0.83233 0.90547 0.0
H2197 H 0.04827 0.84197 0.85627 0.0
H2198 H 0.03408 0.9399 0.83588 0.0
H2199 H 0.03451 0.90797 0.85256 0.0
C2200 C 0.29725 0.68689 0.66641 0.0
C2201 C 0.31763 0.69405 0.67339 0.0
C2202 C 0.29582 0.66923 0.65568 0.0
C2203 C 0.32672 0.63807 0.61873 0.0
H2204 H 0.28816 0.59805 0.63975 0.0
C2205 C 0.33189 0.56274 0.58178 0.0
C2206 C 0.31272 0.55193 0.58026 0.0
C2207 C 0.33157 0.58047 0.59238 0.0
C2208 C 0.29871 0.60919 0.63335 0.0
H2209 H 0.3524 0.68825 0.67508 0.0
H2210 H 0.34988 0.6575 0.6559 0.0
H2211 H 0.28917 0.62806 0.66069 0.0
H2212 H 0.278 0.55145 0.58773 0.0
H2213 H 0.27722 0.58277 0.60538 0.0
H2214 H 0.33589 0.61965 0.59105 0.0
C2215 C 0.33508 0.66555 0.65889 0.0
C2216 C 0.29937 0.62628 0.64547 0.0
C2217 C 0.33647 0.68305 0.66997 0.0
C2218 C 0.29306 0.55945 0.5888 0.0
C2219 C 0.29267 0.57733 0.59909 0.0
C2220 C 0.3258 0.62113 0.60638 0.0
C2221 C 0.31479 0.65863 0.65143 0.0
C2222 C 0.31358 0.64073 0.6384 0.0
C2223 C 0.312 0.58792 0.60136 0.0
C2224 C 0.31199 0.60638 0.61369 0.0
H2225 H 0.28247 0.69509 0.66886 0.0
H2226 H 0.28002 0.66413 0.64999 0.0
H2227 H 0.33756 0.64919 0.61279 0.0
H2228 H 0.34734 0.55723 0.57555 0.0
H2229 H 0.34686 0.58804 0.59416 0.0
C2230 C 0.9135 0.68151 0.58171 0.0
C2231 C 0.93319 0.6915 0.57917 0.0
C2232 C 0.91338 0.66331 0.59114 0.0
C2233 C 0.94785 0.63103 0.62656 0.0
H2234 H 0.90418 0.59398 0.60883 0.0
C2235 C 0.95015 0.55324 0.65609 0.0
C2236 C 0.93144 0.54724 0.66813 0.0
C2237 C 0.95005 0.57024 0.64383 0.0
C2238 C 0.91639 0.60426 0.61393 0.0
H2239 H 0.96828 0.69005 0.58358 0.0
H2240 H 0.96828 0.65794 0.59894 0.0
H2241 H 0.90544 0.62452 0.58903 0.0
H2242 H 0.89781 0.55398 0.67647 0.0
H2243 H 0.89745 0.58369 0.65433 0.0
H2244 H 0.95916 0.61037 0.65091 0.0
C2245 C 0.95278 0.66436 0.59452 0.0
C2246 C 0.91709 0.62179 0.60273 0.0
C2247 C 0.95284 0.68272 0.58553 0.0
C2248 C 0.91242 0.55832 0.66728 0.0
C2249 C 0.91219 0.5752 0.65459 0.0
C2250 C 0.9474 0.61338 0.63739 0.0
C2251 C 0.933 0.65452 0.59785 0.0
C2252 C 0.93274 0.63549 0.60901 0.0
C2253 C 0.93113 0.58141 0.6431 0.0
C2254 C 0.9316 0.59992 0.63127 0.0
H2255 H 0.89805 0.68799 0.57717 0.0
H2256 H 0.89778 0.65642 0.59378 0.0
H2257 H 0.95981 0.64127 0.63233 0.0
H2258 H 0.96509 0.54502 0.65664 0.0
H2259 H 0.96481 0.57474 0.63501 0.0
C2260 C 0.69879 0.31296 0.33322 0.0
C2261 C 0.67842 0.30571 0.3265 0.0
C2262 C 0.70034 0.33098 0.3429 0.0
C2263 C 0.66897 0.37535 0.35306 0.0
H2264 H 0.70817 0.3802 0.40554 0.0
C2265 C 0.66261 0.43518 0.42021 0.0
C2266 C 0.6818 0.44582 0.423 0.0
C2267 C 0.66311 0.41812 0.4081 0.0
C2268 C 0.69727 0.37901 0.39082 0.0
H2269 H 0.64378 0.31172 0.32393 0.0
H2270 H 0.64629 0.34287 0.34158 0.0
H2271 H 0.70746 0.35076 0.38349 0.0
H2272 H 0.71668 0.44666 0.41632 0.0
H2273 H 0.71759 0.41642 0.39567 0.0
H2274 H 0.6582 0.40342 0.36122 0.0
C2275 C 0.6612 0.33493 0.33887 0.0
C2276 C 0.69696 0.36226 0.37806 0.0
C2277 C 0.65972 0.31703 0.32884 0.0
C2278 C 0.70165 0.43872 0.41437 0.0
C2279 C 0.7022 0.42148 0.40261 0.0
C2280 C 0.66904 0.39197 0.36608 0.0
C2281 C 0.68148 0.34197 0.34642 0.0
C2282 C 0.68271 0.36019 0.35909 0.0
C2283 C 0.68285 0.41129 0.39899 0.0
C2284 C 0.6831 0.39385 0.3851 0.0
H2285 H 0.71351 0.30456 0.33137 0.0
H2286 H 0.71628 0.33615 0.34799 0.0
H2287 H 0.65811 0.37439 0.33831 0.0
H2288 H 0.64707 0.44038 0.42658 0.0
H2289 H 0.64804 0.41033 0.40562 0.0
C2290 C 0.05018 0.30896 0.41663 0.0
C2291 C 0.07021 0.30229 0.42518 0.0
C2292 C 0.04872 0.32692 0.40673 0.0
C2293 C 0.07921 0.37225 0.39984 0.0
H2294 H 0.04276 0.3774 0.34523 0.0
C2295 C 0.08771 0.4331 0.33424 0.0
C2296 C 0.06854 0.44362 0.33063 0.0
C2297 C 0.0869 0.41594 0.34612 0.0
C2298 C 0.05287 0.37613 0.36055 0.0
H2299 H 0.10434 0.30921 0.43044 0.0
H2300 H 0.10208 0.3402 0.41239 0.0
H2301 H 0.0432 0.3475 0.36634 0.0
H2302 H 0.03343 0.44417 0.33578 0.0
H2303 H 0.03199 0.41371 0.35598 0.0
H2304 H 0.08955 0.40071 0.39322 0.0
C2305 C 0.08729 0.33188 0.41389 0.0
C2306 C 0.05304 0.35909 0.37277 0.0
C2307 C 0.08864 0.31406 0.42416 0.0
C2308 C 0.04845 0.43633 0.33835 0.0
C2309 C 0.0476 0.41897 0.34985 0.0
C2310 C 0.07932 0.38914 0.38736 0.0
C2311 C 0.06736 0.33846 0.40481 0.0
C2312 C 0.06631 0.3569 0.39251 0.0
C2313 C 0.06687 0.40885 0.35416 0.0
C2314 C 0.06626 0.39114 0.36758 0.0
H2315 H 0.03566 0.30021 0.41739 0.0
H2316 H 0.03301 0.33167 0.4004 0.0
H2317 H 0.08926 0.37125 0.41522 0.0
H2318 H 0.10343 0.43843 0.3286 0.0
H2319 H 0.10193 0.40823 0.34916 0.0
C2320 C 0.84001 0.06179 0.58744 0.0
C2321 C 0.82072 0.05103 0.58664 0.0
C2322 C 0.83976 0.08016 0.59635 0.0
C2323 C 0.80614 0.12144 0.60573 0.0
H2324 H 0.84438 0.13235 0.65756 0.0
C2325 C 0.79981 0.19148 0.65653 0.0
C2326 C 0.81889 0.19924 0.66609 0.0
C2327 C 0.80017 0.17359 0.64627 0.0
C2328 C 0.83389 0.12974 0.64282 0.0
H2329 H 0.78595 0.05121 0.59391 0.0
H2330 H 0.78545 0.08368 0.60885 0.0
H2331 H 0.84485 0.10102 0.63993 0.0
H2332 H 0.85342 0.19466 0.67192 0.0
H2333 H 0.85437 0.16379 0.6531 0.0
H2334 H 0.79565 0.15021 0.60787 0.0
C2335 C 0.80074 0.07772 0.60281 0.0
C2336 C 0.83408 0.11172 0.63286 0.0
C2337 C 0.80106 0.05918 0.59434 0.0
C2338 C 0.83842 0.18891 0.66489 0.0
C2339 C 0.83889 0.17115 0.65422 0.0
C2340 C 0.80624 0.13959 0.61536 0.0
C2341 C 0.82016 0.08824 0.60417 0.0
C2342 C 0.82012 0.10741 0.61435 0.0
C2343 C 0.81972 0.16316 0.64492 0.0
C2344 C 0.82002 0.14397 0.63417 0.0
H2345 H 0.85543 0.05586 0.58176 0.0
H2346 H 0.8549 0.08807 0.59717 0.0
H2347 H 0.79536 0.11844 0.5913 0.0
H2348 H 0.78447 0.1991 0.65735 0.0
H2349 H 0.78497 0.16784 0.63979 0.0
C2350 C 0.41599 0.18586 0.58553 0.0
C2351 C 0.43476 0.19709 0.58292 0.0
C2352 C 0.41719 0.16854 0.59701 0.0
C2353 C 0.45272 0.12974 0.6115 0.0
H2354 H 0.41356 0.1216 0.66349 0.0
C2355 C 0.45469 0.0604 0.66373 0.0
C2356 C 0.43437 0.05286 0.67024 0.0
C2357 C 0.45614 0.0788 0.65508 0.0
C2358 C 0.42443 0.12353 0.64885 0.0
H2359 H 0.46959 0.19882 0.58953 0.0
H2360 H 0.47172 0.16811 0.60907 0.0
H2361 H 0.4131 0.15181 0.64309 0.0
H2362 H 0.39968 0.05865 0.67312 0.0
H2363 H 0.40204 0.0904 0.65729 0.0
H2364 H 0.46342 0.10126 0.61638 0.0
C2365 C 0.45612 0.17292 0.60245 0.0
C2366 C 0.42421 0.14085 0.63729 0.0
C2367 C 0.45487 0.19042 0.59133 0.0
C2368 C 0.4156 0.06415 0.66841 0.0
C2369 C 0.417 0.08242 0.65944 0.0
C2370 C 0.4527 0.11227 0.62279 0.0
C2371 C 0.43722 0.16202 0.60568 0.0
C2372 C 0.4382 0.144 0.61842 0.0
C2373 C 0.43725 0.08992 0.65244 0.0
C2374 C 0.43839 0.1089 0.64148 0.0
H2375 H 0.40026 0.19069 0.57932 0.0
H2376 H 0.40245 0.16023 0.59919 0.0
H2377 H 0.46357 0.1319 0.59688 0.0
H2378 H 0.46946 0.05203 0.66512 0.0
H2379 H 0.47206 0.08424 0.65029 0.0
C2380 C 0.1727 0.8149 0.32783 0.0
C2381 C 0.18729 0.80068 0.33484 0.0
C2382 C 0.17418 0.83307 0.33721 0.0
C2383 C 0.21073 0.86485 0.3706 0.0
H2384 H 0.15625 0.8892 0.38762 0.0
C2385 C 0.20669 0.94137 0.40496 0.0
C2386 C 0.19104 0.94555 0.42207 0.0
C2387 C 0.20709 0.92362 0.39443 0.0
C2388 C 0.17162 0.8825 0.38321 0.0
H2389 H 0.21533 0.79452 0.3566 0.0
H2390 H 0.21752 0.82596 0.37333 0.0
H2391 H 0.15549 0.85872 0.36812 0.0
H2392 H 0.16421 0.93415 0.44232 0.0
H2393 H 0.16533 0.90295 0.42438 0.0
H2394 H 0.22686 0.88833 0.38647 0.0
C2395 C 0.20516 0.82324 0.36034 0.0
C2396 C 0.17118 0.86517 0.37167 0.0
C2397 C 0.2038 0.80515 0.35084 0.0
C2398 C 0.17634 0.9314 0.42905 0.0
C2399 C 0.17688 0.91358 0.41864 0.0
C2400 C 0.21118 0.88214 0.38229 0.0
C2401 C 0.19018 0.83734 0.35388 0.0
C2402 C 0.19072 0.85613 0.36527 0.0
C2403 C 0.19201 0.90961 0.40093 0.0
C2404 C 0.19162 0.89113 0.38877 0.0
H2405 H 0.15992 0.81193 0.31539 0.0
H2406 H 0.16265 0.84373 0.33155 0.0
H2407 H 0.22608 0.85835 0.3657 0.0
H2408 H 0.21822 0.95199 0.39915 0.0
H2409 H 0.2188 0.92111 0.38067 0.0
C2410 C 0.58403 0.80996 0.42007 0.0
C2411 C 0.56427 0.79993 0.42108 0.0
C2412 C 0.585 0.82749 0.40911 0.0
C2413 C 0.55523 0.85683 0.36648 0.0
H2414 H 0.59443 0.89589 0.38882 0.0
C2415 C 0.55631 0.93521 0.33682 0.0
C2416 C 0.57695 0.94242 0.33082 0.0
C2417 C 0.55437 0.91708 0.34607 0.0
C2418 C 0.58357 0.885 0.38235 0.0
H2419 H 0.52985 0.80059 0.41232 0.0
H2420 H 0.53132 0.83165 0.394 0.0
H2421 H 0.5909 0.86643 0.41043 0.0
H2422 H 0.61162 0.93624 0.32901 0.0
H2423 H 0.6082 0.90457 0.34577 0.0
H2424 H 0.54741 0.87594 0.33884 0.0
C2425 C 0.54622 0.82571 0.40099 0.0
C2426 C 0.58156 0.86813 0.39464 0.0
C2427 C 0.54533 0.80801 0.41166 0.0
C2428 C 0.59552 0.93098 0.33343 0.0
C2429 C 0.59361 0.91297 0.34309 0.0
C2430 C 0.55698 0.87386 0.35442 0.0
C2431 C 0.56615 0.83551 0.39927 0.0
C2432 C 0.56751 0.85377 0.38675 0.0
C2433 C 0.57307 0.90606 0.34981 0.0
C2434 C 0.57131 0.88796 0.36218 0.0
H2435 H 0.59895 0.80398 0.42699 0.0
H2436 H 0.6007 0.83446 0.40776 0.0
H2437 H 0.54455 0.84595 0.35969 0.0
H2438 H 0.54173 0.94375 0.33486 0.0
H2439 H 0.53839 0.91198 0.35124 0.0
C2440 C 0.8314 0.56496 0.07963 0.0
C2441 C 0.81624 0.55111 0.08652 0.0
C2442 C 0.83075 0.58314 0.08927 0.0
C2443 C 0.79473 0.61601 0.12214 0.0
H2444 H 0.84934 0.64071 0.13761 0.0
C2445 C 0.79827 0.69354 0.15377 0.0
C2446 C 0.81369 0.69824 0.17088 0.0
C2447 C 0.79831 0.67561 0.14353 0.0
C2448 C 0.83393 0.63395 0.13361 0.0
H2449 H 0.78828 0.54567 0.10875 0.0
H2450 H 0.78742 0.57709 0.12578 0.0
H2451 H 0.84988 0.60961 0.11942 0.0
H2452 H 0.84089 0.68756 0.19104 0.0
H2453 H 0.84063 0.65613 0.17356 0.0
H2454 H 0.77876 0.64008 0.13695 0.0
C2455 C 0.79962 0.57407 0.11267 0.0
C2456 C 0.83424 0.61621 0.12285 0.0
C2457 C 0.8002 0.55597 0.10298 0.0
C2458 C 0.82885 0.68444 0.17785 0.0
C2459 C 0.82881 0.66646 0.16768 0.0
C2460 C 0.79441 0.63371 0.13297 0.0
C2461 C 0.81496 0.58788 0.10607 0.0
C2462 C 0.81465 0.60699 0.11701 0.0
C2463 C 0.81366 0.66186 0.15023 0.0
C2464 C 0.814 0.64292 0.13887 0.0
H2465 H 0.84392 0.56172 0.06694 0.0
H2466 H 0.84261 0.59349 0.08351 0.0
H2467 H 0.77932 0.60945 0.11767 0.0
H2468 H 0.78639 0.70383 0.14791 0.0
H2469 H 0.78658 0.67269 0.12996 0.0
C2470 C 0.41312 0.56279 0.17111 0.0
C2471 C 0.4325 0.55236 0.17376 0.0
C2472 C 0.41334 0.58024 0.15977 0.0
C2473 C 0.44707 0.62062 0.14526 0.0
H2474 H 0.40757 0.62749 0.09344 0.0
C2475 C 0.4489 0.68875 0.09045 0.0
C2476 C 0.42885 0.6959 0.08254 0.0
C2477 C 0.4501 0.67076 0.1004 0.0
C2478 C 0.41848 0.62597 0.10807 0.0
H2479 H 0.46741 0.55227 0.16725 0.0
H2480 H 0.46784 0.58317 0.148 0.0
H2481 H 0.40794 0.59749 0.11429 0.0
H2482 H 0.39435 0.68983 0.07871 0.0
H2483 H 0.3962 0.6588 0.09683 0.0
H2484 H 0.45705 0.64924 0.13986 0.0
C2485 C 0.4525 0.57765 0.1545 0.0
C2486 C 0.41875 0.60873 0.11991 0.0
C2487 C 0.45223 0.56 0.16547 0.0
C2488 C 0.41008 0.68461 0.08445 0.0
C2489 C 0.41119 0.66675 0.09477 0.0
C2490 C 0.44654 0.638 0.13371 0.0
C2491 C 0.43299 0.58775 0.15126 0.0
C2492 C 0.433 0.60594 0.13861 0.0
C2493 C 0.4312 0.65963 0.10305 0.0
C2494 C 0.4322 0.64093 0.11496 0.0
H2495 H 0.39764 0.55723 0.17719 0.0
H2496 H 0.39812 0.58787 0.15761 0.0
H2497 H 0.45809 0.6188 0.15977 0.0
H2498 H 0.46368 0.69711 0.08906 0.0
H2499 H 0.46589 0.66564 0.10606 0.0
C2500 C 0.17024 0.4348 0.91897 0.0
C2501 C 0.18953 0.44544 0.92074 0.0
C2502 C 0.1705 0.41686 0.90882 0.0
C2503 C 0.20457 0.38593 0.87077 0.0
H2504 H 0.16411 0.34735 0.89186 0.0
C2505 C 0.20704 0.30678 0.84278 0.0
C2506 C 0.18706 0.2995 0.83474 0.0
C2507 C 0.208 0.32476 0.85287 0.0
C2508 C 0.17543 0.35805 0.88577 0.0
H2509 H 0.22434 0.44545 0.91387 0.0
H2510 H 0.22506 0.4138 0.89715 0.0
H2511 H 0.165 0.37792 0.91137 0.0
H2512 H 0.15246 0.30536 0.8309 0.0
H2513 H 0.15412 0.33659 0.84902 0.0
H2514 H 0.21539 0.36558 0.84563 0.0
C2515 C 0.20953 0.41951 0.90284 0.0
C2516 C 0.17588 0.37562 0.89683 0.0
C2517 C 0.20919 0.43761 0.91262 0.0
C2518 C 0.16811 0.31061 0.83682 0.0
C2519 C 0.16901 0.32841 0.8473 0.0
C2520 C 0.20437 0.3682 0.86 0.0
C2521 C 0.19015 0.40894 0.90057 0.0
C2522 C 0.1903 0.38991 0.88934 0.0
C2523 C 0.18893 0.3356 0.85551 0.0
C2524 C 0.18964 0.35419 0.86726 0.0
H2525 H 0.15478 0.44056 0.92483 0.0
H2526 H 0.15515 0.40941 0.90699 0.0
H2527 H 0.21562 0.39662 0.86418 0.0
H2528 H 0.2219 0.29854 0.84141 0.0
H2529 H 0.22353 0.33 0.85916 0.0
C2530 C 0.58012 0.31687 0.92716 0.0
C2531 C 0.56514 0.30307 0.91976 0.0
C2532 C 0.5796 0.33512 0.9178 0.0
C2533 C 0.54443 0.3681 0.88435 0.0
H2534 H 0.59951 0.39276 0.87047 0.0
C2535 C 0.54827 0.44522 0.85244 0.0
C2536 C 0.56394 0.44989 0.83556 0.0
C2537 C 0.54846 0.4275 0.8631 0.0
C2538 C 0.58398 0.386 0.87402 0.0
H2539 H 0.53759 0.29775 0.89703 0.0
H2540 H 0.53701 0.32931 0.8804 0.0
H2541 H 0.5995 0.3616 0.88847 0.0
H2542 H 0.59187 0.43942 0.81625 0.0
H2543 H 0.59185 0.40824 0.8344 0.0
H2544 H 0.52891 0.39216 0.86915 0.0
C2545 C 0.54894 0.3262 0.89371 0.0
C2546 C 0.58397 0.36824 0.88468 0.0
C2547 C 0.54935 0.30803 0.90317 0.0
C2548 C 0.57964 0.43631 0.82929 0.0
C2549 C 0.57973 0.41848 0.83984 0.0
C2550 C 0.54445 0.38579 0.87357 0.0
C2551 C 0.56416 0.33994 0.90075 0.0
C2552 C 0.56419 0.35906 0.88995 0.0
C2553 C 0.56417 0.41388 0.85693 0.0
C2554 C 0.56422 0.39498 0.86827 0.0
H2555 H 0.59242 0.31354 0.94001 0.0
H2556 H 0.59132 0.34544 0.92394 0.0
H2557 H 0.52889 0.36155 0.88838 0.0
H2558 H 0.53585 0.4553 0.8576 0.0
H2559 H 0.53643 0.42458 0.87641 0.0
C2560 C 0.25945 0.03067 0.98498 0.0
C2561 C 0.26876 0.01441 0.99483 0.0
C2562 C 0.24112 0.02926 0.97078 0.0
C2563 C 0.19593 0.9973 0.95361 0.0
H2564 H 0.19407 0.03028 0.89989 0.0
C2565 C 0.12921 0.99218 0.88269 0.0
C2566 C 0.11899 0.00948 0.8775 0.0
C2567 C 0.14819 0.99183 0.89613 0.0
C2568 C 0.19436 0.02103 0.91485 0.0
H2569 H 0.26596 0.98392 0.99793 0.0
H2570 H 0.23414 0.98139 0.97265 0.0
H2571 H 0.22547 0.03137 0.92571 0.0
H2572 H 0.12094 0.03994 0.88155 0.0
H2573 H 0.15421 0.03931 0.90472 0.0
H2574 H 0.1648 0.98687 0.94242 0.0
C2575 C 0.24079 0.99528 0.97622 0.0
C2576 C 0.21227 0.02171 0.92974 0.0
C2577 C 0.25904 0.99672 0.99067 0.0
C2578 C 0.12841 0.0264 0.88538 0.0
C2579 C 0.14751 0.02606 0.89852 0.0
C2580 C 0.17809 0.99649 0.93855 0.0
C2581 C 0.23182 0.01152 0.96583 0.0
C2582 C 0.21313 0.01007 0.94951 0.0
C2583 C 0.15743 0.00877 0.90426 0.0
C2584 C 0.17702 0.00854 0.91923 0.0
H2585 H 0.26645 0.04452 0.98806 0.0
H2586 H 0.2343 0.04212 0.96357 0.0
H2587 H 0.19596 0.98826 0.96877 0.0
H2588 H 0.12225 0.97892 0.87686 0.0
H2589 H 0.15564 0.97833 0.9002 0.0
C2590 C 0.12471 0.21509 0.8921 0.0
C2591 C 0.13388 0.23205 0.88394 0.0
C2592 C 0.10682 0.21534 0.90712 0.0
C2593 C 0.06234 0.24589 0.9301 0.0
H2594 H 0.06132 0.20819 0.97897 0.0
C2595 C 0.997 0.24566 0.00294 0.0
C2596 C 0.9867 0.22812 0.00668 0.0
C2597 C 0.01583 0.24684 0.9892 0.0
C2598 C 0.06134 0.21875 0.96537 0.0
H2599 H 0.13116 0.26262 0.88473 0.0
H2600 H 0.10009 0.26312 0.91142 0.0
H2601 H 0.09197 0.20916 0.95202 0.0
H2602 H 0.98857 0.19802 0.99968 0.0
H2603 H 0.02157 0.20006 0.97604 0.0
H2604 H 0.0317 0.25554 0.94376 0.0
C2605 C 0.10654 0.24958 0.90591 0.0
C2606 C 0.07885 0.21927 0.94981 0.0
C2607 C 0.12438 0.24931 0.89064 0.0
C2608 C 0.99611 0.21173 0.99714 0.0
C2609 C 0.01505 0.21289 0.98365 0.0
C2610 C 0.0449 0.24547 0.94583 0.0
C2611 C 0.09774 0.23258 0.91462 0.0
C2612 C 0.07945 0.23267 0.93175 0.0
C2613 C 0.0249 0.23049 0.97919 0.0
C2614 C 0.04409 0.23175 0.96345 0.0
H2615 H 0.1315 0.20154 0.88703 0.0
H2616 H 0.10015 0.20196 0.91291 0.0
H2617 H 0.0621 0.25628 0.9163 0.0
H2618 H 0.99013 0.25857 0.00997 0.0
H2619 H 0.0232 0.26057 0.98625 0.0
C2620 C 0.26123 0.21744 0.25559 0.0
C2621 C 0.27122 0.23364 0.24626 0.0
C2622 C 0.24353 0.21905 0.27077 0.0
C2623 C 0.20081 0.25175 0.29298 0.0
H2624 H 0.20113 0.21697 0.345 0.0
C2625 C 0.13688 0.25475 0.36807 0.0
C2626 C 0.12758 0.23718 0.37394 0.0
C2627 C 0.15509 0.25565 0.35328 0.0
C2628 C 0.20073 0.22673 0.33052 0.0
H2629 H 0.26991 0.26427 0.24492 0.0
H2630 H 0.23902 0.26712 0.27172 0.0
H2631 H 0.23076 0.21607 0.31688 0.0
H2632 H 0.13048 0.20681 0.36942 0.0
H2633 H 0.16214 0.20838 0.34398 0.0
H2634 H 0.17064 0.26238 0.30687 0.0
C2635 C 0.24479 0.25313 0.2671 0.0
C2636 C 0.21768 0.22617 0.3143 0.0
C2637 C 0.2625 0.25151 0.25173 0.0
C2638 C 0.13721 0.22058 0.36524 0.0
C2639 C 0.15546 0.22146 0.35073 0.0
C2640 C 0.18383 0.25237 0.30934 0.0
C2641 C 0.23542 0.23691 0.27724 0.0
C2642 C 0.21778 0.23841 0.29506 0.0
C2643 C 0.16451 0.23899 0.34436 0.0
C2644 C 0.18342 0.23964 0.32808 0.0
H2645 H 0.26738 0.20345 0.25156 0.0
H2646 H 0.23637 0.20622 0.27769 0.0
H2647 H 0.20028 0.26134 0.27835 0.0
H2648 H 0.12977 0.2678 0.37442 0.0
H2649 H 0.16179 0.26936 0.34883 0.0
C2650 C 0.9929 0.02975 0.26937 0.0
C2651 C 0.98424 0.0135 0.25882 0.0
C2652 C 0.01086 0.02845 0.28414 0.0
C2653 C 0.05651 0.99727 0.30217 0.0
H2654 H 0.0557 0.02959 0.35655 0.0
C2655 C 0.12289 0.99403 0.37386 0.0
C2656 C 0.13192 0.0117 0.37962 0.0
C2657 C 0.10396 0.99297 0.36032 0.0
C2658 C 0.05617 0.02051 0.34142 0.0
H2659 H 0.98796 0.98315 0.255 0.0
H2660 H 0.01921 0.98079 0.2812 0.0
H2661 H 0.02494 0.03007 0.32985 0.0
H2662 H 0.12782 0.04208 0.37654 0.0
H2663 H 0.0947 0.04023 0.35327 0.0
H2664 H 0.08782 0.9877 0.31399 0.0
C2665 C 0.01227 0.99461 0.2778 0.0
C2666 C 0.03861 0.02085 0.32602 0.0
C2667 C 0.99435 0.99594 0.2628 0.0
C2668 C 0.12127 0.02826 0.37232 0.0
C2669 C 0.10225 0.0272 0.35909 0.0
C2670 C 0.07403 0.99683 0.31772 0.0
C2671 C 0.02049 0.01083 0.28897 0.0
C2672 C 0.03872 0.0095 0.30596 0.0
C2673 C 0.09357 0.00957 0.35265 0.0
C2674 C 0.07418 0.00869 0.33729 0.0
H2675 H 0.98563 0.04352 0.26647 0.0
H2676 H 0.0171 0.04131 0.29191 0.0
H2677 H 0.05722 0.98845 0.28683 0.0
H2678 H 0.13081 0.98104 0.37918 0.0
H2679 H 0.09751 0.9792 0.35574 0.0
C2680 C 0.85417 0.01136 0.09864 0.0
C2681 C 0.86545 0.9944 0.10296 0.0
C2682 C 0.83525 0.0113 0.08502 0.0
C2683 C 0.79076 0.98047 0.06646 0.0
H2684 H 0.78581 0.01292 0.0125 0.0
C2685 C 0.7248 0.96685 0.99858 0.0
C2686 C 0.71385 0.9825 0.98918 0.0
C2687 C 0.74362 0.96937 0.01182 0.0
C2688 C 0.78678 0.00395 0.02768 0.0
H2689 H 0.86566 0.96411 0.09679 0.0
H2690 H 0.83255 0.964 0.07351 0.0
H2691 H 0.81738 0.01604 0.03822 0.0
H2692 H 0.7144 0.01305 0.98557 0.0
H2693 H 0.74705 0.01751 0.00918 0.0
H2694 H 0.76024 0.96848 0.05636 0.0
C2695 C 0.83835 0.97731 0.08049 0.0
C2696 C 0.80484 0.00576 0.04237 0.0
C2697 C 0.85735 0.97741 0.09372 0.0
C2698 C 0.72256 0.0007 0.99254 0.0
C2699 C 0.7413 0.00325 0.00604 0.0
C2700 C 0.77265 0.9788 0.05198 0.0
C2701 C 0.82715 0.99423 0.07594 0.0
C2702 C 0.80714 0.99378 0.06163 0.0
C2703 C 0.75177 0.98762 0.01626 0.0
C2704 C 0.77063 0.99024 0.03215 0.0
H2705 H 0.86014 0.02467 0.10548 0.0
H2706 H 0.82682 0.02451 0.08177 0.0
H2707 H 0.79202 0.97126 0.08141 0.0
H2708 H 0.71861 0.95264 0.99607 0.0
H2709 H 0.75161 0.95697 0.01886 0.0
C2710 C 0.00796 0.78231 0.01157 0.0
C2711 C 0.01691 0.76566 0.00221 0.0
C2712 C 0.98946 0.78157 0.02576 0.0
C2713 C 0.96004 0.74991 0.06525 0.0
H2714 H 0.91368 0.78697 0.05957 0.0
C2715 C 0.88098 0.74803 0.12136 0.0
C2716 C 0.87199 0.76553 0.12795 0.0
C2717 C 0.89884 0.74731 0.10616 0.0
C2718 C 0.92662 0.77666 0.06163 0.0
H2719 H 0.01315 0.73519 1.0 0.0
H2720 H 0.98079 0.73392 0.02489 0.0
H2721 H 0.94366 0.78703 0.03179 0.0
H2722 H 0.8754 0.79596 0.12486 0.0
H2723 H 0.90681 0.79473 0.09907 0.0
H2724 H 0.94322 0.73976 0.09538 0.0
C2725 C 0.9882 0.74752 0.02129 0.0
C2726 C 0.94375 0.77666 0.04561 0.0
C2727 C 0.00661 0.74828 0.00688 0.0
C2728 C 0.88181 0.78225 0.11991 0.0
C2729 C 0.89972 0.78154 0.10494 0.0
C2730 C 0.94295 0.74999 0.08142 0.0
C2731 C 0.97957 0.76415 0.03107 0.0
C2732 C 0.96074 0.7634 0.04734 0.0
C2733 C 0.90815 0.76407 0.0974 0.0
C2734 C 0.92613 0.7635 0.07994 0.0
H2735 H 0.0155 0.79592 0.00832 0.0
H2736 H 0.9833 0.79461 0.03317 0.0
H2737 H 0.97304 0.73964 0.06718 0.0
H2738 H 0.87367 0.73489 0.12716 0.0
H2739 H 0.90483 0.73361 0.10064 0.0
C2740 C 0.87225 0.74347 0.63399 0.0
C2741 C 0.88292 0.76049 0.62844 0.0
C2742 C 0.85346 0.74362 0.64786 0.0
C2743 C 0.80853 0.7741 0.66784 0.0
H2744 H 0.8065 0.74074 0.72117 0.0
C2745 C 0.7431 0.78332 0.73852 0.0
C2746 C 0.73379 0.76692 0.7481 0.0
C2747 C 0.76152 0.78212 0.72426 0.0
C2748 C 0.80663 0.74997 0.70619 0.0
H2749 H 0.88187 0.79101 0.63226 0.0
H2750 H 0.84898 0.79126 0.65613 0.0
H2751 H 0.83727 0.73891 0.69428 0.0
H2752 H 0.73678 0.73641 0.7506 0.0
H2753 H 0.76861 0.73425 0.72533 0.0
H2754 H 0.77785 0.78504 0.67939 0.0
C2755 C 0.85516 0.77782 0.64991 0.0
C2756 C 0.82427 0.74891 0.6908 0.0
C2757 C 0.87406 0.77766 0.63635 0.0
C2758 C 0.74364 0.74933 0.7436 0.0
C2759 C 0.76195 0.74811 0.72914 0.0
C2760 C 0.7908 0.77504 0.68307 0.0
C2761 C 0.84483 0.7608 0.65608 0.0
C2762 C 0.82549 0.76109 0.6716 0.0
C2763 C 0.77095 0.76447 0.71901 0.0
C2764 C 0.78971 0.76314 0.7026 0.0
H2765 H 0.87875 0.73003 0.62817 0.0
H2766 H 0.8457 0.73031 0.65221 0.0
H2767 H 0.80892 0.7835 0.65301 0.0
H2768 H 0.73599 0.7971 0.74179 0.0
H2769 H 0.76829 0.79507 0.71725 0.0
C2770 C 0.88325 0.00175 0.64331 0.0
C2771 C 0.87328 0.98433 0.63813 0.0
C2772 C 0.90206 0.00238 0.65709 0.0
C2773 C 0.94813 0.97323 0.67717 0.0
H2774 H 0.9499 0.00739 0.72977 0.0
C2775 C 0.01253 0.96428 0.74819 0.0
C2776 C 0.0224 0.9806 0.7573 0.0
C2777 C 0.99418 0.96566 0.73397 0.0
C2778 C 0.94982 0.99794 0.71499 0.0
H2779 H 0.87555 0.95393 0.6427 0.0
H2780 H 0.90839 0.95503 0.66642 0.0
H2781 H 0.91897 0.00851 0.70303 0.0
H2782 H 0.02033 0.01119 0.75921 0.0
H2783 H 0.98841 0.01366 0.734 0.0
H2784 H 0.97891 0.9627 0.68882 0.0
C2785 C 0.90168 0.96819 0.65993 0.0
C2786 C 0.9321 -0.0014 0.69968 0.0
C2787 C 0.8828 0.96757 0.64645 0.0
C2788 C 0.01304 0.99834 0.75253 0.0
C2789 C 0.99472 -0.00025 0.73809 0.0
C2790 C 0.96587 0.97267 0.69232 0.0
C2791 C 0.9114 0.98559 0.66561 0.0
C2792 C 0.93094 0.98604 0.68082 0.0
C2793 C 0.98533 0.98343 0.72828 0.0
C2794 C 0.96679 0.98478 0.71166 0.0
H2795 H 0.87623 0.0149 0.63719 0.0
H2796 H 0.90931 0.01598 0.66107 0.0
H2797 H 0.94785 0.9636 0.66256 0.0
H2798 H 0.01921 0.95038 0.75174 0.0
H2799 H 0.98705 0.95276 0.72726 0.0
C2800 C 0.25798 0.52815 0.49532 0.0
C2801 C 0.26751 0.51196 0.50516 0.0
C2802 C 0.24037 0.52656 0.48009 0.0
C2803 C 0.19709 0.49406 0.45879 0.0
H2804 H 0.19774 0.5282 0.40615 0.0
C2805 C 0.13309 0.49071 0.38415 0.0
C2806 C 0.12375 0.50826 0.37834 0.0
C2807 C 0.15139 0.48985 0.39872 0.0
C2808 C 0.19727 0.51861 0.42079 0.0
H2809 H 0.26553 0.48138 0.50729 0.0
H2810 H 0.23485 0.47856 0.48037 0.0
H2811 H 0.22748 0.52913 0.43405 0.0
H2812 H 0.12669 0.53864 0.38263 0.0
H2813 H 0.1586 0.53715 0.40766 0.0
H2814 H 0.16677 0.48355 0.44526 0.0
C2815 C 0.24088 0.49253 0.48464 0.0
C2816 C 0.21427 0.5192 0.43689 0.0
C2817 C 0.25848 0.49414 0.50007 0.0
C2818 C 0.13346 0.5249 0.3868 0.0
C2819 C 0.15183 0.52405 0.40107 0.0
C2820 C 0.18009 0.4934 0.44254 0.0
C2821 C 0.2319 0.50872 0.47407 0.0
C2822 C 0.21424 0.50719 0.45636 0.0
C2823 C 0.16088 0.50653 0.40743 0.0
C2824 C 0.17982 0.50591 0.42357 0.0
H2825 H 0.26438 0.54211 0.49904 0.0
H2826 H 0.23352 0.53939 0.47283 0.0
H2827 H 0.19644 0.48467 0.4736 0.0
H2828 H 0.1259 0.47764 0.37797 0.0
H2829 H 0.15811 0.47615 0.40319 0.0
C2830 C 0.12041 0.71796 0.39492 0.0
C2831 C 0.12958 0.73458 0.38576 0.0
C2832 C 0.10256 0.7188 0.40998 0.0
C2833 C 0.0579 0.74984 0.43136 0.0
H2834 H 0.05786 0.7142 0.4825 0.0
C2835 C 0.99136 0.74987 0.50357 0.0
C2836 C 0.98214 0.73203 0.50816 0.0
C2837 C 0.01026 0.75144 0.48993 0.0
C2838 C 0.05759 0.7242 0.46828 0.0
H2839 H 0.12681 0.76514 0.38474 0.0
H2840 H 0.09571 0.76666 0.41142 0.0
H2841 H 0.08849 0.71469 0.45555 0.0
H2842 H 0.98594 0.70184 0.50271 0.0
H2843 H 0.01892 0.70456 0.47931 0.0
H2844 H 0.02689 0.75932 0.44432 0.0
C2845 C 0.1022 0.75293 0.40672 0.0
C2846 C 0.07511 0.72444 0.45273 0.0
C2847 C 0.12004 0.75207 0.39145 0.0
C2848 C 0.99261 0.7158 0.49951 0.0
C2849 C 0.01158 0.71735 0.48615 0.0
C2850 C 0.0404 0.74968 0.44707 0.0
C2851 C 0.09349 0.7363 0.41651 0.0
C2852 C 0.07533 0.737 0.43379 0.0
C2853 C 0.02047 0.73518 0.48092 0.0
C2854 C 0.03989 0.73663 0.46547 0.0
H2855 H 0.1272 0.70423 0.39069 0.0
H2856 H 0.09594 0.70566 0.41663 0.0
H2857 H 0.05742 0.75962 0.41693 0.0
H2858 H 0.98361 0.76265 0.5099 0.0
H2859 H 0.01683 0.76537 0.48633 0.0
C2860 C 0.26608 0.75635 0.74921 0.0
C2861 C 0.27483 0.73807 0.74655 0.0
C2862 C 0.248 0.75942 0.76371 0.0
C2863 C 0.21938 0.737 0.81325 0.0
H2864 H 0.17135 0.77042 0.79767 0.0
C2865 C 0.13501 0.73002 0.85425 0.0
C2866 C 0.12432 0.74633 0.86231 0.0
C2867 C 0.15437 0.73141 0.84166 0.0
C2868 C 0.18484 0.76129 0.80239 0.0
H2869 H 0.27079 0.70858 0.75599 0.0
H2870 H 0.23917 0.7138 0.78063 0.0
H2871 H 0.20286 0.76802 0.77152 0.0
H2872 H 0.12549 0.77696 0.86351 0.0
H2873 H 0.15951 0.77943 0.8408 0.0
H2874 H 0.20109 0.72975 0.84361 0.0
C2875 C 0.24657 0.72589 0.77217 0.0
C2876 C 0.20286 0.75988 0.78743 0.0
C2877 C 0.26462 0.72286 0.75786 0.0
C2878 C 0.13348 0.76416 0.85757 0.0
C2879 C 0.15281 0.76558 0.84452 0.0
C2880 C 0.2014 0.73831 0.82803 0.0
C2881 C 0.23834 0.74425 0.77575 0.0
C2882 C 0.22007 0.74732 0.79242 0.0
C2883 C 0.16343 0.74916 0.83653 0.0
C2884 C 0.18371 0.75011 0.82249 0.0
H2885 H 0.27364 0.76838 0.74077 0.0
H2886 H 0.24208 0.77373 0.76609 0.0
H2887 H 0.23263 0.72761 0.818 0.0
H2888 H 0.12842 0.71606 0.85766 0.0
H2889 H 0.16206 0.71854 0.83551 0.0
C2890 C 0.12563 0.49477 0.86731 0.0
C2891 C 0.13559 0.51202 0.87321 0.0
C2892 C 0.10752 0.49444 0.85245 0.0
C2893 C 0.08008 0.52418 0.80797 0.0
H2894 H 0.03204 0.48902 0.81589 0.0
C2895 C 0.9975 0.53245 0.76103 0.0
C2896 C 0.98765 0.5161 0.75197 0.0
C2897 C 0.01631 0.53115 0.77463 0.0
C2898 C 0.04548 0.49877 0.81331 0.0
H2899 H 0.13373 0.54248 0.86918 0.0
H2900 H 0.10194 0.54198 0.84404 0.0
H2901 H 0.06269 0.4883 0.84296 0.0
H2902 H 0.99005 0.48552 0.74978 0.0
H2903 H 0.0229 0.48325 0.77371 0.0
H2904 H 0.06261 0.53493 0.77866 0.0
C2905 C 0.10844 0.52863 0.85014 0.0
C2906 C 0.06306 0.49836 0.82882 0.0
C2907 C 0.12659 0.52893 0.86474 0.0
C2908 C 0.99729 0.4984 0.75643 0.0
C2909 C 0.01599 0.49707 0.77028 0.0
C2910 C 0.06245 0.52469 0.79263 0.0
C2911 C 0.09893 0.51138 0.84336 0.0
C2912 C 0.08049 0.51121 0.82649 0.0
C2913 C 0.02559 0.51343 0.77968 0.0
C2914 C 0.04487 0.51211 0.79524 0.0
H2915 H 0.13228 0.48149 0.87348 0.0
H2916 H 0.10072 0.48088 0.84752 0.0
H2917 H 0.09344 0.53397 0.80523 0.0
H2918 H 0.99048 0.54629 0.75793 0.0
H2919 H 0.02323 0.54399 0.78177 0.0
C2920 C 0.74496 0.47628 0.49724 0.0
C2921 C 0.73088 0.49123 0.49146 0.0
C2922 C 0.76458 0.47979 0.50878 0.0
C2923 C 0.7902 0.51219 0.54936 0.0
H2924 H 0.84348 0.48679 0.53057 0.0
C2925 C 0.87134 0.5162 0.60262 0.0
C2926 C 0.88284 0.49903 0.60438 0.0
C2927 C 0.85346 0.51782 0.58748 0.0
C2928 C 0.82872 0.4939 0.53619 0.0
H2929 H 0.72639 0.52164 0.49306 0.0
H2930 H 0.76068 0.52774 0.51375 0.0
H2931 H 0.8112 0.48481 0.50608 0.0
H2932 H 0.88412 0.46998 0.59215 0.0
H2933 H 0.8531 0.47266 0.56653 0.0
H2934 H 0.80747 0.52059 0.58002 0.0
C2935 C 0.75651 0.51333 0.50913 0.0
C2936 C 0.81027 0.49282 0.52207 0.0
C2937 C 0.737 0.50985 0.49716 0.0
C2938 C 0.87587 0.48351 0.59106 0.0
C2939 C 0.8581 0.48509 0.57615 0.0
C2940 C 0.80866 0.51312 0.56368 0.0
C2941 C 0.77043 0.49831 0.51515 0.0
C2942 C 0.79067 0.50157 0.52875 0.0
C2943 C 0.84679 0.50228 0.57388 0.0
C2944 C 0.82798 0.50354 0.55755 0.0
H2945 H 0.7407 0.46179 0.49309 0.0
H2946 H 0.77489 0.46791 0.51338 0.0
H2947 H 0.77525 0.51901 0.55497 0.0
H2948 H 0.87634 0.52841 0.61264 0.0
H2949 H 0.84513 0.53128 0.58614 0.0
C2950 C 0.01396 0.24091 0.49798 0.0
C2951 C 0.02138 0.25923 0.49259 0.0
C2952 C 0.99437 0.23833 0.51022 0.0
C2953 C 0.94262 0.26203 0.52541 0.0
H2954 H 0.94374 0.2314 0.58119 0.0
C2955 C 0.87763 0.27106 0.59566 0.0
C2956 C 0.86946 0.25508 0.60727 0.0
C2957 C 0.89556 0.2696 0.58085 0.0
C2958 C 0.943 0.23974 0.56547 0.0
H2959 H 0.01372 0.28912 0.49504 0.0
H2960 H 0.97949 0.28461 0.51589 0.0
H2961 H 0.97565 0.23208 0.55558 0.0
H2962 H 0.87406 0.225 0.61277 0.0
H2963 H 0.90548 0.22236 0.58649 0.0
H2964 H 0.91016 0.26982 0.53514 0.0
C2965 C 0.9888 0.27224 0.5108 0.0
C2966 C 0.96129 0.24013 0.55081 0.0
C2967 C 0.00846 0.27483 0.49893 0.0
C2968 C 0.88001 0.23759 0.60409 0.0
C2969 C 0.89801 0.23609 0.58907 0.0
C2970 C 0.92434 0.26153 0.53991 0.0
C2971 C 0.98167 0.254 0.5169 0.0
C2972 C 0.96146 0.25165 0.53093 0.0
C2973 C 0.9058 0.25208 0.57702 0.0
C2974 C 0.92449 0.2508 0.56047 0.0
H2975 H 0.02364 0.22862 0.49345 0.0
H2976 H 0.98921 0.22411 0.51458 0.0
H2977 H 0.94213 0.27077 0.51 0.0
H2978 H 0.8701 0.28482 0.59791 0.0
H2979 H 0.90144 0.28232 0.57243 0.0
C2980 C 0.73995 0.27405 0.25516 0.0
C2981 C 0.72608 0.25917 0.2618 0.0
C2982 C 0.75973 0.27031 0.24399 0.0
C2983 C 0.78596 0.23659 0.20562 0.0
H2984 H 0.83886 0.26322 0.2229 0.0
C2985 C 0.86728 0.2311 0.15289 0.0
C2986 C 0.87858 0.24827 0.15008 0.0
C2987 C 0.84936 0.22999 0.16806 0.0
C2988 C 0.8242 0.25575 0.21772 0.0
H2989 H 0.72215 0.22867 0.26219 0.0
H2990 H 0.75671 0.22215 0.24215 0.0
H2991 H 0.80644 0.26586 0.24724 0.0
H2992 H 0.87951 0.27782 0.16034 0.0
H2993 H 0.84834 0.27599 0.18604 0.0
H2994 H 0.80344 0.22716 0.17551 0.0
C2995 C 0.75225 0.23668 0.24581 0.0
C2996 C 0.80569 0.25721 0.23175 0.0
C2997 C 0.73258 0.24042 0.25738 0.0
C2998 C 0.87138 0.26429 0.1623 0.0
C2999 C 0.85354 0.26321 0.17724 0.0
C3000 C 0.80448 0.23528 0.19139 0.0
C3001 C 0.76593 0.25162 0.23889 0.0
C3002 C 0.78624 0.24802 0.22557 0.0
C3003 C 0.84246 0.24603 0.18061 0.0
C3004 C 0.82364 0.24528 0.19697 0.0
H3005 H 0.73538 0.28863 0.25834 0.0
H3006 H 0.76987 0.2821 0.23868 0.0
H3007 H 0.77112 0.22942 0.20041 0.0
H3008 H 0.87249 0.21851 0.14372 0.0
H3009 H 0.84118 0.21652 0.17028 0.0
C3010 C 0.88506 0.50408 0.13943 0.0
C3011 C 0.87568 0.48646 0.13399 0.0
C3012 C 0.90391 0.50505 0.15317 0.0
C3013 C 0.95087 0.4766 0.17307 0.0
H3014 H 0.95157 0.51018 0.22625 0.0
C3015 C 0.0137 0.46669 0.24541 0.0
C3016 C 0.02357 0.48282 0.25502 0.0
C3017 C 0.99568 0.46837 0.23077 0.0
C3018 C 0.95178 0.50091 0.21131 0.0
H3019 H 0.87907 0.45609 0.13807 0.0
H3020 H 0.91192 0.45779 0.16164 0.0
H3021 H 0.92093 0.51129 0.19909 0.0
H3022 H 0.02176 0.5134 0.2574 0.0
H3023 H 0.99031 0.51639 0.23152 0.0
H3024 H 0.98159 0.46617 0.18507 0.0
C3025 C 0.90478 0.47085 0.15539 0.0
C3026 C 0.93423 0.50156 0.19574 0.0
C3027 C 0.88587 0.46989 0.14196 0.0
C3028 C 0.01447 0.50068 0.25033 0.0
C3029 C 0.99643 0.50239 0.2355 0.0
C3030 C 0.96841 0.47601 0.1885 0.0
C3031 C 0.9139 0.48843 0.16139 0.0
C3032 C 0.93341 0.48916 0.17669 0.0
C3033 C 0.9871 0.48625 0.22515 0.0
C3034 C 0.96892 0.48788 0.20809 0.0
H3035 H 0.8775 0.5171 0.13363 0.0
H3036 H 0.91067 0.51879 0.15739 0.0
H3037 H 0.95091 0.4671 0.15833 0.0
H3038 H 0.02015 0.4527 0.24885 0.0
H3039 H 0.98858 0.45559 0.22366 0.0
C3040 C 0.76373 0.02681 0.5051 0.0
C3041 C 0.77382 0.01049 0.51392 0.0
C3042 C 0.74606 0.02539 0.48994 0.0
C3043 C 0.70377 0.9928 0.46687 0.0
H3044 H 0.70406 0.0284 0.4157 0.0
C3045 C 0.64097 0.99022 0.39113 0.0
C3046 C 0.63128 0.00773 0.3858 0.0
C3047 C 0.659 0.98934 0.40606 0.0
C3048 C 0.70369 0.01841 0.42993 0.0
H3049 H 0.77272 0.97983 0.51446 0.0
H3050 H 0.74193 0.97731 0.48765 0.0
H3051 H 0.7335 0.0291 0.44395 0.0
H3052 H 0.63324 0.03803 0.39141 0.0
H3053 H 0.66466 0.03651 0.4171 0.0
H3054 H 0.67386 0.98211 0.45258 0.0
C3055 C 0.74758 0.99124 0.49266 0.0
C3056 C 0.72051 0.01886 0.44623 0.0
C3057 C 0.76523 0.99267 0.50802 0.0
C3058 C 0.6403 0.02432 0.39518 0.0
C3059 C 0.6584 0.02346 0.40983 0.0
C3060 C 0.68694 0.99228 0.45043 0.0
C3061 C 0.73811 0.00759 0.483 0.0
C3062 C 0.72059 0.0063 0.46515 0.0
C3063 C 0.66784 0.00597 0.41563 0.0
C3064 C 0.68656 0.0053 0.432 0.0
H3065 H 0.76979 0.04075 0.5095 0.0
H3066 H 0.73881 0.0383 0.48339 0.0
H3067 H 0.70325 0.98298 0.48127 0.0
H3068 H 0.63432 0.97719 0.38424 0.0
H3069 H 0.66605 0.97568 0.41009 0.0
C3070 C 0.48902 0.22008 0.4971 0.0
C3071 C 0.47871 0.23626 0.50609 0.0
C3072 C 0.50678 0.22172 0.48202 0.0
C3073 C 0.54907 0.25479 0.45971 0.0
H3074 H 0.55026 0.21917 0.40854 0.0
C3075 C 0.61353 0.25781 0.3852 0.0
C3076 C 0.62348 0.24037 0.38004 0.0
C3077 C 0.59518 0.25858 0.39978 0.0
C3078 C 0.55022 0.22917 0.42278 0.0
H3079 H 0.47947 0.26692 0.50687 0.0
H3080 H 0.51042 0.26984 0.48018 0.0
H3081 H 0.52026 0.21821 0.43623 0.0
H3082 H 0.62164 0.21005 0.38561 0.0
H3083 H 0.58968 0.21138 0.41067 0.0
H3084 H 0.57914 0.26574 0.44599 0.0
C3085 C 0.50487 0.25583 0.48502 0.0
C3086 C 0.53307 0.22858 0.43875 0.0
C3087 C 0.48712 0.25417 0.50031 0.0
C3088 C 0.61439 0.22373 0.38925 0.0
C3089 C 0.59599 0.22447 0.40354 0.0
C3090 C 0.56623 0.25546 0.44358 0.0
C3091 C 0.51462 0.23961 0.47529 0.0
C3092 C 0.53244 0.24113 0.45769 0.0
C3093 C 0.58626 0.24189 0.40917 0.0
C3094 C 0.56717 0.24243 0.42516 0.0
H3095 H 0.48312 0.20605 0.50139 0.0
H3096 H 0.51422 0.2089 0.47542 0.0
H3097 H 0.54919 0.26461 0.47412 0.0
H3098 H 0.62022 0.27089 0.37843 0.0
H3099 H 0.58795 0.2722 0.40368 0.0
C3100 C 0.75842 0.21429 0.75771 0.0
C3101 C 0.76696 0.23082 0.74766 0.0
C3102 C 0.74034 0.21516 0.7725 0.0
C3103 C 0.6947 0.24634 0.79176 0.0
H3104 H 0.69527 0.2133 0.84544 0.0
C3105 C 0.63067 0.25169 0.86579 0.0
C3106 C 0.62097 0.23442 0.87212 0.0
C3107 C 0.64912 0.25196 0.85139 0.0
C3108 C 0.69484 0.22256 0.83048 0.0
H3109 H 0.76284 0.26122 0.74482 0.0
H3110 H 0.73159 0.26281 0.77097 0.0
H3111 H 0.7255 0.2123 0.81797 0.0
H3112 H 0.62345 0.2039 0.86908 0.0
H3113 H 0.65573 0.20438 0.84431 0.0
H3114 H 0.66406 0.2567 0.8046 0.0
C3115 C 0.73861 0.24909 0.76716 0.0
C3116 C 0.7121 0.22192 0.81462 0.0
C3117 C 0.75659 0.24819 0.75218 0.0
C3118 C 0.63051 0.21744 0.86445 0.0
C3119 C 0.64907 0.21771 0.85034 0.0
C3120 C 0.6775 0.24709 0.80776 0.0
C3121 C 0.73046 0.23262 0.77782 0.0
C3122 C 0.71217 0.23365 0.7949 0.0
C3123 C 0.65839 0.23496 0.84336 0.0
C3124 C 0.67729 0.23507 0.82717 0.0
H3125 H 0.76592 0.20066 0.75445 0.0
H3126 H 0.73422 0.20212 0.77991 0.0
H3127 H 0.69403 0.25543 0.77667 0.0
H3128 H 0.62363 0.265 0.87137 0.0
H3129 H 0.65609 0.26546 0.84645 0.0
C3130 C 0.48699 0.02852 0.74928 0.0
C3131 C 0.47682 0.01213 0.74082 0.0
C3132 C 0.50508 0.02721 0.76384 0.0
C3133 C 0.5478 0.99451 0.78574 0.0
H3134 H 0.54897 0.03017 0.83688 0.0
C3135 C 0.60988 0.99016 0.86154 0.0
C3136 C 0.6206 0.00726 0.86661 0.0
C3137 C 0.59198 0.98994 0.84651 0.0
C3138 C 0.5489 0.02018 0.82263 0.0
H3139 H 0.47804 0.98147 0.74025 0.0
H3140 H 0.50946 0.97912 0.76615 0.0
H3141 H 0.51905 0.03123 0.80919 0.0
H3142 H 0.62067 0.03754 0.86046 0.0
H3143 H 0.58929 0.03715 0.83453 0.0
H3144 H 0.57764 0.98337 0.79959 0.0
C3145 C 0.50364 0.99302 0.76127 0.0
C3146 C 0.53184 0.02084 0.80667 0.0
C3147 C 0.48563 0.99436 0.74645 0.0
C3148 C 0.61278 0.02414 0.85683 0.0
C3149 C 0.59476 0.02394 0.84208 0.0
C3150 C 0.56481 0.99376 0.80188 0.0
C3151 C 0.51328 0.00945 0.77054 0.0
C3152 C 0.53122 0.0082 0.78782 0.0
C3153 C 0.5843 0.00683 0.8366 0.0
C3154 C 0.56564 0.00675 0.8203 0.0
H3155 H 0.48072 0.04243 0.74501 0.0
H3156 H 0.51246 0.04016 0.77011 0.0
H3157 H 0.54792 0.98467 0.77135 0.0
H3158 H 0.6156 0.97692 0.86878 0.0
H3159 H 0.58408 0.97658 0.84269 0.0
C3160 C 0.24567 0.003 0.4992 0.0
C3161 C 0.23736 0.98502 0.49361 0.0
C3162 C 0.26478 0.00472 0.51234 0.0
C3163 C 0.31399 0.97882 0.53082 0.0
H3164 H 0.31158 0.01061 0.58559 0.0
C3165 C 0.37664 0.97077 0.60373 0.0
C3166 C 0.38456 0.98715 0.61463 0.0
C3167 C 0.35905 0.97177 0.58845 0.0
C3168 C 0.31268 0.00189 0.57019 0.0
H3169 H 0.24297 0.95482 0.49657 0.0
H3170 H 0.27637 0.95784 0.51915 0.0
H3171 H 0.281 0.01053 0.55841 0.0
H3172 H 0.37996 0.01741 0.61848 0.0
H3173 H 0.34933 0.01924 0.59142 0.0
H3174 H 0.34555 0.97013 0.54242 0.0
C3175 C 0.26814 0.97059 0.51347 0.0
C3176 C 0.29516 0.00186 0.55463 0.0
C3177 C 0.24895 0.96886 0.50063 0.0
C3178 C 0.37416 0.00453 0.61038 0.0
C3179 C 0.35659 0.00556 0.59491 0.0
C3180 C 0.33153 0.97895 0.54624 0.0
C3181 C 0.27606 0.98851 0.51981 0.0
C3182 C 0.29549 0.99006 0.53502 0.0
C3183 C 0.34903 0.98922 0.58351 0.0
C3184 C 0.33092 0.99019 0.56637 0.0
H3185 H 0.23704 0.01571 0.49411 0.0
H3186 H 0.27063 0.01871 0.51685 0.0
H3187 H 0.31482 0.96979 0.51566 0.0
H3188 H 0.38415 0.95712 0.60684 0.0
H3189 H 0.35331 0.95882 0.58048 0.0
C3190 C 0.38127 0.73997 0.61584 0.0
C3191 C 0.37168 0.75755 0.62101 0.0
C3192 C 0.3996 0.73896 0.60127 0.0
C3193 C 0.4452 0.76754 0.57855 0.0
H3194 H 0.44487 0.73285 0.52645 0.0
C3195 C 0.50648 0.77615 0.50434 0.0
C3196 C 0.51622 0.75983 0.49506 0.0
C3197 C 0.48865 0.77476 0.51935 0.0
C3198 C 0.44537 0.74245 0.54107 0.0
H3199 H 0.37413 0.78785 0.61559 0.0
H3200 H 0.4061 0.78609 0.59056 0.0
H3201 H 0.41502 0.73202 0.55471 0.0
H3202 H 0.5144 0.72921 0.49361 0.0
H3203 H 0.48336 0.72673 0.52019 0.0
H3204 H 0.47545 0.77797 0.56522 0.0
C3205 C 0.3995 0.77309 0.59764 0.0
C3206 C 0.42828 0.74195 0.55726 0.0
C3207 C 0.3811 0.77408 0.61189 0.0
C3208 C 0.50718 0.74207 0.50041 0.0
C3209 C 0.48938 0.74065 0.51564 0.0
C3210 C 0.4623 0.76796 0.56253 0.0
C3211 C 0.40884 0.75553 0.59196 0.0
C3212 C 0.42785 0.75473 0.57595 0.0
C3213 C 0.48022 0.75699 0.5257 0.0
C3214 C 0.46243 0.75567 0.54332 0.0
H3215 H 0.37431 0.72698 0.62256 0.0
H3216 H 0.40656 0.72524 0.5973 0.0
H3217 H 0.44551 0.77735 0.59299 0.0
H3218 H 0.5129 0.79007 0.50037 0.0
H3219 H 0.48165 0.78768 0.52622 0.0
C3220 C 0.36336 0.74247 0.1374 0.0
C3221 C 0.3724 0.76021 0.13192 0.0
C3222 C 0.34517 0.74118 0.15213 0.0
C3223 C 0.29912 0.76915 0.17533 0.0
H3224 H 0.3006 0.73431 0.22726 0.0
C3225 C 0.23943 0.77738 0.25096 0.0
C3226 C 0.22966 0.76103 0.26015 0.0
C3227 C 0.25696 0.77602 0.23557 0.0
C3228 C 0.29979 0.74395 0.21269 0.0
H3229 H 0.36912 0.79049 0.13705 0.0
H3230 H 0.33743 0.78824 0.16239 0.0
H3231 H 0.3301 0.73388 0.19856 0.0
H3232 H 0.23119 0.73039 0.26106 0.0
H3233 H 0.26182 0.72797 0.23387 0.0
H3234 H 0.26896 0.77928 0.18925 0.0
C3235 C 0.34432 0.77532 0.15538 0.0
C3236 C 0.31668 0.74368 0.19624 0.0
C3237 C 0.36256 0.7766 0.14093 0.0
C3238 C 0.23843 0.74326 0.25433 0.0
C3239 C 0.25598 0.74188 0.23875 0.0
C3240 C 0.28226 0.76936 0.19164 0.0
C3241 C 0.33553 0.75761 0.16135 0.0
C3242 C 0.3167 0.75653 0.17762 0.0
C3243 C 0.26511 0.75826 0.22877 0.0
C3244 C 0.28257 0.75704 0.21079 0.0
H3245 H 0.37066 0.72958 0.13081 0.0
H3246 H 0.33865 0.72734 0.1563 0.0
H3247 H 0.29846 0.77898 0.16094 0.0
H3248 H 0.23323 0.7913 0.25528 0.0
H3249 H 0.26397 0.78895 0.22875 0.0
C3250 C 0.51442 0.97315 0.26381 0.0
C3251 C 0.5284 0.98818 0.2695 0.0
C3252 C 0.49437 0.97664 0.25318 0.0
C3253 C 0.4687 0.00929 0.2137 0.0
H3254 H 0.41527 0.98357 0.23136 0.0
C3255 C 0.38973 0.0142 0.15863 0.0
C3256 C 0.37799 0.99724 0.15614 0.0
C3257 C 0.40685 0.01546 0.17462 0.0
C3258 C 0.43009 0.99075 0.22608 0.0
H3259 H 0.5322 0.0187 0.2691 0.0
H3260 H 0.49718 0.02477 0.24997 0.0
H3261 H 0.44731 0.98139 0.25627 0.0
H3262 H 0.37518 0.96824 0.16812 0.0
H3263 H 0.40525 0.97022 0.19527 0.0
H3264 H 0.45196 0.01786 0.18293 0.0
C3265 C 0.50176 0.01032 0.25394 0.0
C3266 C 0.44836 0.98959 0.24044 0.0
C3267 C 0.52168 0.00684 0.26497 0.0
C3268 C 0.38379 0.98157 0.16975 0.0
C3269 C 0.40094 0.98277 0.18552 0.0
C3270 C 0.4505 0.01027 0.19916 0.0
C3271 C 0.48806 0.99522 0.24772 0.0
C3272 C 0.46795 -0.00148 0.23414 0.0
C3273 C 0.41262 -0.00026 0.18829 0.0
C3274 C 0.43113 0.00062 0.20491 0.0
H3275 H 0.51916 0.95863 0.26716 0.0
H3276 H 0.48417 0.96474 0.24838 0.0
H3277 H 0.48371 0.01617 0.20838 0.0
H3278 H 0.38552 0.02655 0.14845 0.0
H3279 H 0.41539 0.0288 0.17644 0.0
C3280 C 0.63013 0.52488 0.89913 0.0
C3281 C 0.6207 0.50851 0.8896 0.0
C3282 C 0.6477 0.52362 0.91441 0.0
C3283 C 0.69176 0.49232 0.9358 0.0
H3284 H 0.69063 0.52721 0.98774 0.0
C3285 C 0.75832 0.49299 0.00793 0.0
C3286 C 0.76681 0.51103 0.01298 0.0
C3287 C 0.73952 0.49107 0.99426 0.0
C3288 C 0.69123 0.51741 0.9733 0.0
H3289 H 0.62284 0.47793 0.88809 0.0
H3290 H 0.65364 0.47566 0.91513 0.0
H3291 H 0.66027 0.52664 0.96058 0.0
H3292 H 0.7618 0.54116 0.00828 0.0
H3293 H 0.72902 0.53782 0.98483 0.0
H3294 H 0.72291 0.4832 0.94868 0.0
C3295 C 0.64743 0.48952 0.91058 0.0
C3296 C 0.67386 0.51712 0.95765 0.0
C3297 C 0.6298 0.4908 0.8951 0.0
C3298 C 0.7557 0.52706 0.00474 0.0
C3299 C 0.73683 0.52515 0.99135 0.0
C3300 C 0.70916 0.49255 0.95159 0.0
C3301 C 0.65629 0.50593 0.92079 0.0
C3302 C 0.6741 0.5049 0.93838 0.0
C3303 C 0.72866 0.50715 0.98568 0.0
C3304 C 0.70928 0.50539 0.97025 0.0
H3305 H 0.62372 0.53878 0.89505 0.0
H3306 H 0.65447 0.53659 0.92136 0.0
H3307 H 0.69253 0.48278 0.92113 0.0
H3308 H 0.76658 0.48035 0.01391 0.0
H3309 H 0.73352 0.47701 0.99033 0.0
C3310 C 0.61908 0.76587 0.90381 0.0
C3311 C 0.63129 0.74907 0.90221 0.0
C3312 C 0.60134 0.76712 0.9192 0.0
C3313 C 0.5776 0.74291 0.97096 0.0
H3314 H 0.52357 0.76701 0.95217 0.0
C3315 C 0.49386 0.72484 0.01042 0.0
C3316 C 0.47966 0.7398 0.01588 0.0
C3317 C 0.51355 0.72831 0.99893 0.0
C3318 C 0.53867 0.76047 0.95777 0.0
H3319 H 0.6341 0.7203 0.91503 0.0
H3320 H 0.6032 0.72228 0.94105 0.0
H3321 H 0.55565 0.76889 0.92694 0.0
H3322 H 0.47507 0.77019 0.01388 0.0
H3323 H 0.50944 0.77621 0.99332 0.0
H3324 H 0.5603 0.73376 1.00125 0.0
C3325 C 0.60755 0.73473 0.93113 0.0
C3326 C 0.55707 0.76157 0.94336 0.0
C3327 C 0.62524 0.73354 0.916 0.0
C3328 C 0.48576 0.75838 0.01002 0.0
C3329 C 0.50532 0.76183 0.99813 0.0
C3330 C 0.55918 0.74162 0.98517 0.0
C3331 C 0.59547 0.75155 0.93316 0.0
C3332 C 0.57662 0.75241 0.94953 0.0
C3333 C 0.51931 0.74679 0.99232 0.0
C3334 C 0.53942 0.75005 0.97852 0.0
H3335 H 0.62339 0.77809 0.89343 0.0
H3336 H 0.59244 0.78032 0.92038 0.0
H3337 H 0.59253 0.73612 0.9766 0.0
H3338 H 0.4896 0.71037 0.01471 0.0
H3339 H 0.52395 0.71644 0.9945 0.0
C3340 C 0.62493 0.7536 0.36277 0.0
C3341 C 0.61468 0.73616 0.36719 0.0
C3342 C 0.64289 0.75464 0.34767 0.0
C3343 C 0.66947 0.72745 0.30004 0.0
H3344 H 0.71869 0.76072 0.3112 0.0
C3345 C 0.75201 0.71913 0.25299 0.0
C3346 C 0.76305 0.73552 0.24567 0.0
C3347 C 0.73302 0.72044 0.26637 0.0
C3348 C 0.70492 0.75154 0.30769 0.0
H3349 H 0.61591 0.70604 0.36014 0.0
H3350 H 0.64736 0.70774 0.3345 0.0
H3351 H 0.68792 0.76057 0.33827 0.0
H3352 H 0.76256 0.76619 0.24638 0.0
H3353 H 0.72933 0.76848 0.26996 0.0
H3354 H 0.68668 0.7181 0.26979 0.0
C3355 C 0.64121 0.72075 0.34199 0.0
C3356 C 0.68727 0.75145 0.32321 0.0
C3357 C 0.62324 0.71974 0.35688 0.0
C3358 C 0.75438 0.7533 0.25164 0.0
C3359 C 0.73546 0.75461 0.26531 0.0
C3360 C 0.68714 0.72745 0.28466 0.0
C3361 C 0.65104 0.73823 0.33678 0.0
C3362 C 0.66944 0.73919 0.31977 0.0
C3363 C 0.72468 0.73818 0.27299 0.0
C3364 C 0.7052 0.73932 0.28843 0.0
H3365 H 0.61866 0.76653 0.37039 0.0
H3366 H 0.64995 0.76836 0.344 0.0
H3367 H 0.65581 0.71818 0.29643 0.0
H3368 H 0.75826 0.70521 0.24872 0.0
H3369 H 0.72525 0.70751 0.27217 0.0
C3370 C 0.48773 0.49479 0.25464 0.0
C3371 C 0.47874 0.51266 0.24971 0.0
C3372 C 0.50576 0.4931 0.26951 0.0
C3373 C 0.53423 0.51986 0.31608 0.0
H3374 H 0.58098 0.48367 0.30648 0.0
C3375 C 0.61657 0.52538 0.36328 0.0
C3376 C 0.62629 0.50878 0.37184 0.0
C3377 C 0.59786 0.52451 0.34951 0.0
C3378 C 0.56788 0.49368 0.30955 0.0
H3379 H 0.48239 0.5428 0.25554 0.0
H3380 H 0.51396 0.53995 0.28074 0.0
H3381 H 0.5504 0.48482 0.27923 0.0
H3382 H 0.62384 0.4782 0.37281 0.0
H3383 H 0.59103 0.47665 0.34843 0.0
H3384 H 0.55189 0.52901 0.34605 0.0
C3385 C 0.50677 0.52714 0.27382 0.0
C3386 C 0.55035 0.49435 0.29392 0.0
C3387 C 0.48873 0.5288 0.25916 0.0
C3388 C 0.61666 0.49124 0.36655 0.0
C3389 C 0.598 0.49035 0.35246 0.0
C3390 C 0.55176 0.51927 0.33154 0.0
C3391 C 0.51523 0.50926 0.27968 0.0
C3392 C 0.53346 0.50768 0.29678 0.0
C3393 C 0.58844 0.507 0.34374 0.0
C3394 C 0.56896 0.50637 0.3283 0.0
H3395 H 0.48035 0.48206 0.24772 0.0
H3396 H 0.51176 0.4791 0.27367 0.0
H3397 H 0.52125 0.52995 0.31927 0.0
H3398 H 0.62353 0.53913 0.36706 0.0
H3399 H 0.59106 0.53759 0.3429 0.0
C3400 C 0.37132 0.46914 0.11621 0.0
C3401 C 0.38037 0.48593 0.12503 0.0
C3402 C 0.35314 0.46968 0.10164 0.0
C3403 C 0.32455 0.50012 0.06018 0.0
H3404 H 0.27782 0.46359 0.0676 0.0
C3405 C 0.24633 0.49988 0.00276 0.0
C3406 C 0.2372 0.48218 0.99726 0.0
C3407 C 0.26399 0.50118 0.01813 0.0
C3408 C 0.29086 0.47373 0.06504 0.0
H3409 H 0.37726 0.51648 0.12572 0.0
H3410 H 0.34541 0.51743 0.1 0.0
H3411 H 0.3074 0.46454 0.0957 0.0
H3412 H 0.24021 0.45193 0.00261 0.0
H3413 H 0.27125 0.45413 0.02872 0.0
H3414 H 0.30821 0.50907 0.02923 0.0
C3415 C 0.35248 0.50385 0.1044 0.0
C3416 C 0.30777 0.47433 0.08126 0.0
C3417 C 0.37059 0.5033 0.11926 0.0
C3418 C 0.24671 0.4658 0.00664 0.0
C3419 C 0.26441 0.46708 0.02182 0.0
C3420 C 0.30766 0.49944 0.04381 0.0
C3421 C 0.34365 0.48703 0.09533 0.0
C3422 C 0.32493 0.48739 0.07891 0.0
C3423 C 0.27297 0.4848 0.02823 0.0
C3424 C 0.29072 0.48607 0.04589 0.0
H3425 H 0.37844 0.45552 0.12035 0.0
H3426 H 0.34686 0.45648 0.09479 0.0
H3427 H 0.33766 0.51022 0.05777 0.0
H3428 H 0.23931 0.51279 0.99592 0.0
H3429 H 0.27005 0.51508 0.02273 0.0
C3430 C 0.38483 0.27597 0.11329 0.0
C3431 C 0.37533 0.25929 0.1219 0.0
C3432 C 0.40332 0.27523 0.09911 0.0
C3433 C 0.43235 0.24445 0.05821 0.0
H3434 H 0.47901 0.28096 0.06611 0.0
C3435 C 0.51117 0.24539 1.00111 0.0
C3436 C 0.51986 0.26325 0.99558 0.0
C3437 C 0.49349 0.24378 0.0165 0.0
C3438 C 0.46601 0.2708 0.06344 0.0
H3439 H 0.37797 0.22871 0.12263 0.0
H3440 H 0.41037 0.22739 0.09761 0.0
H3441 H 0.44912 0.28 0.09394 0.0
H3442 H 0.51604 0.29346 1.00087 0.0
H3443 H 0.48505 0.29071 0.02703 0.0
H3444 H 0.44908 0.2355 0.0274 0.0
C3445 C 0.40341 0.24105 0.10188 0.0
C3446 C 0.44892 0.27021 0.07949 0.0
C3447 C 0.38498 0.24181 0.11634 0.0
C3448 C 0.50991 0.27946 0.00494 0.0
C3449 C 0.49222 0.27787 0.02013 0.0
C3450 C 0.44945 0.24511 0.04202 0.0
C3451 C 0.41269 0.25777 0.09299 0.0
C3452 C 0.43173 0.25722 0.07691 0.0
C3453 C 0.48409 0.26001 0.02658 0.0
C3454 C 0.46633 0.25851 0.04424 0.0
H3455 H 0.37782 0.28967 0.11726 0.0
H3456 H 0.40992 0.28835 0.09239 0.0
H3457 H 0.41924 0.23438 0.05564 0.0
H3458 H 0.51854 0.23262 0.99427 0.0
H3459 H 0.48772 0.2298 0.02111 0.0
C3460 C 0.36687 0.27574 0.64097 0.0
C3461 C 0.37711 0.25933 0.63248 0.0
C3462 C 0.3483 0.27448 0.65496 0.0
C3463 C 0.31986 0.24311 0.69566 0.0
H3464 H 0.27214 0.27843 0.68686 0.0
C3465 C 0.24059 0.24297 0.75232 0.0
C3466 C 0.23146 0.26073 0.75758 0.0
C3467 C 0.25836 0.24152 0.737 0.0
C3468 C 0.28542 0.2686 0.68978 0.0
H3469 H 0.37569 0.22869 0.63185 0.0
H3470 H 0.34312 0.22648 0.6566 0.0
H3471 H 0.30232 0.27798 0.65938 0.0
H3472 H 0.23459 0.29093 0.75181 0.0
H3473 H 0.26567 0.28847 0.72576 0.0
H3474 H 0.3031 0.234 0.72639 0.0
C3475 C 0.34958 0.24032 0.65234 0.0
C3476 C 0.30269 0.26829 0.67392 0.0
C3477 C 0.36811 0.24159 0.63804 0.0
C3478 C 0.24105 0.27701 0.74796 0.0
C3479 C 0.25879 0.27558 0.73282 0.0
C3480 C 0.30257 0.24348 0.71166 0.0
C3481 C 0.33954 0.25678 0.66104 0.0
C3482 C 0.32029 0.25577 0.67684 0.0
C3483 C 0.26739 0.25781 0.72668 0.0
C3484 C 0.2853 0.25647 0.70913 0.0
H3485 H 0.37336 0.28963 0.637 0.0
H3486 H 0.34113 0.28743 0.66155 0.0
H3487 H 0.33327 0.23339 0.69849 0.0
H3488 H 0.23353 0.23014 0.75937 0.0
H3489 H 0.2645 0.22759 0.73263 0.0
C3490 C 0.5012 0.50133 0.75104 0.0
C3491 C 0.51074 0.4837 0.75611 0.0
C3492 C 0.48269 0.50246 0.73683 0.0
C3493 C 0.43659 0.47442 0.71406 0.0
H3494 H 0.43717 0.51019 0.66307 0.0
C3495 C 0.3739 0.469 0.64048 0.0
C3496 C 0.36508 0.48576 0.63134 0.0
C3497 C 0.3917 0.46957 0.65558 0.0
C3498 C 0.43656 0.5003 0.67739 0.0
H3499 H 0.50789 0.45342 0.75086 0.0
H3500 H 0.47551 0.45537 0.72643 0.0
H3501 H 0.46726 0.50994 0.69085 0.0
H3502 H 0.36838 0.51628 0.63043 0.0
H3503 H 0.3993 0.51735 0.65723 0.0
H3504 H 0.40592 0.46483 0.70091 0.0
C3505 C 0.48233 0.46833 0.73336 0.0
C3506 C 0.45383 0.50015 0.69331 0.0
C3507 C 0.50094 0.46722 0.74732 0.0
C3508 C 0.37489 0.50311 0.63711 0.0
C3509 C 0.39263 0.5037 0.65245 0.0
C3510 C 0.41927 0.47466 0.69829 0.0
C3511 C 0.47318 0.48597 0.72766 0.0
C3512 C 0.45416 0.48704 0.71165 0.0
C3513 C 0.40104 0.48693 0.6622 0.0
C3514 C 0.41915 0.4874 0.67952 0.0
H3515 H 0.5084 0.51431 0.75745 0.0
H3516 H 0.47589 0.51624 0.73292 0.0
H3517 H 0.43619 0.46435 0.72821 0.0
H3518 H 0.3669 0.45537 0.63615 0.0
H3519 H 0.39805 0.45632 0.66216 0.0
loop_
_geom_bond_atom_site_label_1
_geom_bond_atom_site_label_2
_geom_bond_distance
_geom_bond_site_symmetry_2
_ccdc_geom_bond_type
Zn0 O6 1.969 . S
Zn0 O7 1.965 1_565 S
Zn0 O11 2.024 1_565 S
Zn0 O16 1.969 . S
Zn1 O8 1.969 . S
Zn1 O14 1.969 . S
Zn1 O15 1.965 1_545 S
Zn1 O17 2.024 1_545 S
C2 O3 1.277 . S
C2 O11 1.021 1_565 S
O3 C2 1.277 . S
C4 O5 1.229 . S
C4 O17 1.058 1_545 S
O5 C4 1.229 . S
O6 Zn0 1.969 . S
O6 C9 1.267 1_565 S
O7 Zn0 1.965 1_545 S
O7 C18 1.260 . S
O8 Zn1 1.969 . S
O8 C18 1.258 . S
C9 O6 1.267 1_545 S
C9 O10 1.228 . S
O10 C9 1.228 . S
O11 Zn0 2.024 1_545 S
O11 C2 1.021 1_545 S
C12 O13 1.226 1_545 S
C12 O14 1.269 1_556 S
O13 C12 1.226 1_565 S
O14 Zn1 1.969 . S
O14 C12 1.269 1_554 S
O15 Zn1 1.965 1_565 S
O15 C19 1.260 . S
O16 Zn0 1.969 . S
O16 C19 1.258 . S
O17 Zn1 2.024 1_565 S
O17 C4 1.058 1_565 S
C18 O7 1.260 . S
C18 O8 1.258 . S
C19 O15 1.260 . S
C19 O16 1.258 . S
Zn20 O26 1.969 . S
Zn20 O27 1.965 . S
Zn20 O31 2.024 . S
Zn20 O36 1.969 . S
Zn21 O28 1.969 . S
Zn21 O34 1.969 . S
Zn21 O35 1.965 . S
Zn21 O37 2.024 . S
C22 O23 1.229 . S
C22 O31 1.058 . S
O23 C22 1.229 . S
C24 O25 1.229 . S
C24 O37 1.058 . S
O25 C24 1.229 . S
O26 Zn20 1.969 . S
O26 C29 1.267 . S
O27 Zn20 1.965 . S
O27 C38 1.260 . S
O28 Zn21 1.969 . S
O28 C38 1.258 . S
C29 O26 1.267 . S
C29 O30 1.228 . S
O30 C29 1.228 . S
O31 Zn20 2.024 . S
O31 C22 1.058 . S
C32 O33 1.228 . S
C32 O34 1.267 1_556 S
O33 C32 1.228 . S
O34 Zn21 1.969 . S
O34 C32 1.267 1_554 S
O35 Zn21 1.965 . S
O35 C39 1.260 . S
O36 Zn20 1.969 . S
O36 C39 1.258 . S
O37 Zn21 2.024 . S
O37 C24 1.058 . S
C38 O27 1.260 . S
C38 O28 1.258 . S
C39 O35 1.260 . S
C39 O36 1.258 . S
Zn40 O46 1.969 . S
Zn40 O47 1.965 . S
Zn40 O51 2.024 . S
Zn40 O56 1.969 . S
Zn41 O48 1.969 . S
Zn41 O54 1.969 . S
Zn41 O55 1.965 . S
Zn41 O57 2.024 . S
C42 O43 1.229 . S
C42 O51 1.058 . S
O43 C42 1.229 . S
C44 O45 1.229 . S
C44 O57 1.058 . S
O45 C44 1.229 . S
O46 Zn40 1.969 . S
O46 C49 1.267 . S
O47 Zn40 1.965 . S
O47 C58 1.260 . S
O48 Zn41 1.969 . S
O48 C58 1.258 . S
C49 O46 1.267 . S
C49 O50 1.228 . S
O50 C49 1.228 . S
O51 Zn40 2.024 . S
O51 C42 1.058 . S
C52 O53 1.228 . S
C52 O54 1.267 . S
O53 C52 1.228 . S
O54 Zn41 1.969 . S
O54 C52 1.267 . S
O55 Zn41 1.965 . S
O55 C59 1.260 . S
O56 Zn40 1.969 . S
O56 C59 1.258 . S
O57 Zn41 2.024 . S
O57 C44 1.058 . S
C58 O47 1.260 . S
C58 O48 1.258 . S
C59 O55 1.260 . S
C59 O56 1.258 . S
Zn60 O66 1.969 . S
Zn60 O67 1.965 1_565 S
Zn60 O71 2.024 1_565 S
Zn60 O76 1.969 . S
Zn61 O68 1.969 . S
Zn61 O74 1.969 . S
Zn61 O75 1.965 1_545 S
Zn61 O77 2.024 1_545 S
C62 O63 1.277 . S
C62 O71 1.021 1_565 S
O63 C62 1.277 . S
C64 O65 1.229 . S
C64 O77 1.058 1_545 S
O65 C64 1.229 . S
O66 Zn60 1.969 . S
O66 C69 1.267 1_565 S
O67 Zn60 1.965 1_545 S
O67 C78 1.260 . S
O68 Zn61 1.969 . S
O68 C78 1.258 . S
C69 O66 1.267 1_545 S
C69 O70 1.228 . S
O70 C69 1.228 . S
O71 Zn60 2.024 1_545 S
O71 C62 1.021 1_545 S
C72 O73 1.225 1_545 S
C72 O74 1.269 . S
O73 C72 1.225 1_565 S
O74 Zn61 1.969 . S
O74 C72 1.269 . S
O75 Zn61 1.965 1_565 S
O75 C79 1.260 . S
O76 Zn60 1.969 . S
O76 C79 1.258 . S
O77 Zn61 2.024 1_565 S
O77 C64 1.058 1_565 S
C78 O67 1.260 . S
C78 O68 1.258 . S
C79 O75 1.260 . S
C79 O76 1.258 . S
Zn80 O86 1.969 . S
Zn80 O87 1.965 1_565 S
Zn80 O91 2.024 1_565 S
Zn80 O96 1.969 . S
Zn81 O88 1.969 . S
Zn81 O94 1.969 . S
Zn81 O95 1.965 1_545 S
Zn81 O97 2.024 1_545 S
C82 O83 1.229 . S
C82 O91 1.058 1_565 S
O83 C82 1.229 . S
C84 O85 1.277 . S
C84 O97 1.021 1_545 S
O85 C84 1.277 . S
O86 Zn80 1.969 . S
O86 C89 1.269 1_556 S
O87 Zn80 1.965 1_545 S
O87 C98 1.260 . S
O88 Zn81 1.969 . S
O88 C98 1.258 . S
C89 O86 1.269 1_554 S
C89 O90 1.226 1_565 S
O90 C89 1.226 1_545 S
O91 Zn80 2.024 1_545 S
O91 C82 1.058 1_545 S
C92 O93 1.228 . S
C92 O94 1.267 1_565 S
O93 C92 1.228 . S
O94 Zn81 1.969 . S
O94 C92 1.267 1_545 S
O95 Zn81 1.965 1_565 S
O95 C99 1.260 . S
O96 Zn80 1.969 . S
O96 C99 1.258 . S
O97 Zn81 2.024 1_565 S
O97 C84 1.021 1_565 S
C98 O87 1.260 . S
C98 O88 1.258 . S
C99 O95 1.260 . S
C99 O96 1.258 . S
Zn100 O106 1.969 . S
Zn100 O107 1.965 . S
Zn100 O111 2.024 . S
Zn100 O116 1.969 . S
Zn101 O108 1.969 . S
Zn101 O114 1.969 . S
Zn101 O115 1.965 . S
Zn101 O117 2.024 . S
C102 O103 1.229 . S
C102 O111 1.058 . S
O103 C102 1.229 . S
C104 O105 1.229 . S
C104 O117 1.058 . S
O105 C104 1.229 . S
O106 Zn100 1.969 . S
O106 C109 1.267 1_556 S
O107 Zn100 1.965 . S
O107 C118 1.260 . S
O108 Zn101 1.969 . S
O108 C118 1.258 . S
C109 O106 1.267 1_554 S
C109 O110 1.228 . S
O110 C109 1.228 . S
O111 Zn100 2.024 . S
O111 C102 1.058 . S
C112 O113 1.228 . S
C112 O114 1.267 . S
O113 C112 1.228 . S
O114 Zn101 1.969 . S
O114 C112 1.267 . S
O115 Zn101 1.965 . S
O115 C119 1.260 . S
O116 Zn100 1.969 . S
O116 C119 1.258 . S
O117 Zn101 2.024 . S
O117 C104 1.058 . S
C118 O107 1.260 . S
C118 O108 1.258 . S
C119 O115 1.260 . S
C119 O116 1.258 . S
Zn120 O126 1.969 . S
Zn120 O127 1.965 . S
Zn120 O131 2.024 . S
Zn120 O136 1.969 . S
Zn121 O128 1.969 . S
Zn121 O134 1.969 . S
Zn121 O135 1.965 . S
Zn121 O137 2.024 . S
C122 O123 1.229 . S
C122 O131 1.058 . S
O123 C122 1.229 . S
C124 O125 1.229 . S
C124 O137 1.058 . S
O125 C124 1.229 . S
O126 Zn120 1.969 . S
O126 C129 1.267 . S
O127 Zn120 1.965 . S
O127 C138 1.260 . S
O128 Zn121 1.969 . S
O128 C138 1.258 . S
C129 O126 1.267 . S
C129 O130 1.228 . S
O130 C129 1.228 . S
O131 Zn120 2.024 . S
O131 C122 1.058 . S
C132 O133 1.228 . S
C132 O134 1.267 . S
O133 C132 1.228 . S
O134 Zn121 1.969 . S
O134 C132 1.267 . S
O135 Zn121 1.965 . S
O135 C139 1.260 . S
O136 Zn120 1.969 . S
O136 C139 1.258 . S
O137 Zn121 2.024 . S
O137 C124 1.058 . S
C138 O127 1.260 . S
C138 O128 1.258 . S
C139 O135 1.260 . S
C139 O136 1.258 . S
Zn140 O146 1.969 . S
Zn140 O147 1.965 1_565 S
Zn140 O151 2.024 1_565 S
Zn140 O156 1.969 . S
Zn141 O148 1.969 . S
Zn141 O154 1.969 . S
Zn141 O155 1.965 1_545 S
Zn141 O157 2.024 1_545 S
C142 O143 1.229 . S
C142 O151 1.058 1_565 S
O143 C142 1.229 . S
C144 O145 1.277 . S
C144 O157 1.021 1_545 S
O145 C144 1.277 . S
O146 Zn140 1.969 . S
O146 C149 1.269 . S
O147 Zn140 1.965 1_545 S
O147 C158 1.260 . S
O148 Zn141 1.969 . S
O148 C158 1.258 . S
C149 O146 1.269 . S
C149 O150 1.225 1_565 S
O150 C149 1.225 1_545 S
O151 Zn140 2.024 1_545 S
O151 C142 1.058 1_545 S
C152 O153 1.228 . S
C152 O154 1.267 1_565 S
O153 C152 1.228 . S
O154 Zn141 1.969 . S
O154 C152 1.267 1_545 S
O155 Zn141 1.965 1_565 S
O155 C159 1.260 . S
O156 Zn140 1.969 . S
O156 C159 1.258 . S
O157 Zn141 2.024 1_565 S
O157 C144 1.021 1_565 S
C158 O147 1.260 . S
C158 O148 1.258 . S
C159 O155 1.260 . S
C159 O156 1.258 . S
Zn160 O166 1.969 . S
Zn160 O167 1.965 . S
Zn160 O171 2.024 . S
Zn160 O176 1.969 . S
Zn161 O168 1.969 . S
Zn161 O174 1.969 . S
Zn161 O175 1.965 . S
Zn161 O177 2.024 . S
C162 O163 1.229 . S
C162 O171 1.058 . S
O163 C162 1.229 . S
C164 O165 1.229 . S
C164 O177 1.058 . S
O165 C164 1.229 . S
O166 Zn160 1.969 . S
O166 C169 1.267 . S
O167 Zn160 1.965 . S
O167 C178 1.260 . S
O168 Zn161 1.969 . S
O168 C178 1.258 . S
C169 O166 1.267 . S
C169 O170 1.228 . S
O170 C169 1.228 . S
O171 Zn160 2.024 . S
O171 C162 1.058 . S
C172 O173 1.228 . S
C172 O174 1.267 . S
O173 C172 1.228 . S
O174 Zn161 1.969 . S
O174 C172 1.267 . S
O175 Zn161 1.965 . S
O175 C179 1.260 . S
O176 Zn160 1.969 . S
O176 C179 1.258 . S
O177 Zn161 2.024 . S
O177 C164 1.058 . S
C178 O167 1.260 . S
C178 O168 1.258 . S
C179 O175 1.260 . S
C179 O176 1.258 . S
Zn180 O186 1.969 . S
Zn180 O187 1.965 . S
Zn180 O191 2.024 . S
Zn180 O196 1.969 . S
Zn181 O188 1.969 . S
Zn181 O194 1.969 . S
Zn181 O195 1.965 . S
Zn181 O197 2.024 . S
C182 O183 1.229 . S
C182 O191 1.058 . S
O183 C182 1.229 . S
C184 O185 1.229 . S
C184 O197 1.058 . S
O185 C184 1.229 . S
O186 Zn180 1.969 . S
O186 C189 1.267 . S
O187 Zn180 1.965 . S
O187 C198 1.260 . S
O188 Zn181 1.969 . S
O188 C198 1.258 . S
C189 O186 1.267 . S
C189 O190 1.228 . S
O190 C189 1.228 . S
O191 Zn180 2.024 . S
O191 C182 1.058 . S
C192 O193 1.228 . S
C192 O194 1.267 . S
O193 C192 1.228 . S
O194 Zn181 1.969 . S
O194 C192 1.267 . S
O195 Zn181 1.965 . S
O195 C199 1.260 . S
O196 Zn180 1.969 . S
O196 C199 1.258 . S
O197 Zn181 2.024 . S
O197 C184 1.058 . S
C198 O187 1.260 . S
C198 O188 1.258 . S
C199 O195 1.260 . S
C199 O196 1.258 . S
Zn200 O206 1.969 . S
Zn200 O207 1.965 . S
Zn200 O211 2.024 . S
Zn200 O216 1.969 . S
Zn201 O208 1.969 . S
Zn201 O214 1.969 . S
Zn201 O215 1.965 . S
Zn201 O217 2.024 . S
C202 O203 1.229 . S
C202 O211 1.058 . S
O203 C202 1.229 . S
C204 O205 1.229 . S
C204 O217 1.058 . S
O205 C204 1.229 . S
O206 Zn200 1.969 . S
O206 C209 1.267 . S
O207 Zn200 1.965 . S
O207 C218 1.260 . S
O208 Zn201 1.969 . S
O208 C218 1.258 . S
C209 O206 1.267 . S
C209 O210 1.228 . S
O210 C209 1.228 . S
O211 Zn200 2.024 . S
O211 C202 1.058 . S
C212 O213 1.228 . S
C212 O214 1.267 . S
O213 C212 1.228 . S
O214 Zn201 1.969 . S
O214 C212 1.267 . S
O215 Zn201 1.965 . S
O215 C219 1.260 . S
O216 Zn200 1.969 . S
O216 C219 1.258 . S
O217 Zn201 2.024 . S
O217 C204 1.058 . S
C218 O207 1.260 . S
C218 O208 1.258 . S
C219 O215 1.260 . S
C219 O216 1.258 . S
Zn220 O226 1.969 . S
Zn220 O227 1.965 . S
Zn220 O231 2.024 . S
Zn220 O236 1.969 . S
Zn221 O228 1.969 . S
Zn221 O234 1.969 . S
Zn221 O235 1.965 . S
Zn221 O237 2.024 . S
C222 O223 1.229 . S
C222 O231 1.058 . S
O223 C222 1.229 . S
C224 O225 1.229 . S
C224 O237 1.058 . S
O225 C224 1.229 . S
O226 Zn220 1.969 . S
O226 C229 1.267 . S
O227 Zn220 1.965 . S
O227 C238 1.260 . S
O228 Zn221 1.969 . S
O228 C238 1.258 . S
C229 O226 1.267 . S
C229 O230 1.228 . S
O230 C229 1.228 . S
O231 Zn220 2.024 . S
O231 C222 1.058 . S
C232 O233 1.228 . S
C232 O234 1.267 . S
O233 C232 1.228 . S
O234 Zn221 1.969 . S
O234 C232 1.267 . S
O235 Zn221 1.965 . S
O235 C239 1.260 . S
O236 Zn220 1.969 . S
O236 C239 1.258 . S
O237 Zn221 2.024 . S
O237 C224 1.058 . S
C238 O227 1.260 . S
C238 O228 1.258 . S
C239 O235 1.260 . S
C239 O236 1.258 . S
Zn240 O246 1.969 . S
Zn240 O247 1.965 . S
Zn240 O251 2.024 . S
Zn240 O256 1.969 . S
Zn241 O248 1.969 . S
Zn241 O254 1.969 . S
Zn241 O255 1.965 . S
Zn241 O257 2.024 . S
C242 O243 1.229 . S
C242 O251 1.058 . S
O243 C242 1.229 . S
C244 O245 1.229 . S
C244 O257 1.058 . S
O245 C244 1.229 . S
O246 Zn240 1.969 . S
O246 C249 1.267 . S
O247 Zn240 1.965 . S
O247 C258 1.260 . S
O248 Zn241 1.969 . S
O248 C258 1.258 . S
C249 O246 1.267 . S
C249 O250 1.228 . S
O250 C249 1.228 . S
O251 Zn240 2.024 . S
O251 C242 1.058 . S
C252 O253 1.228 . S
C252 O254 1.267 . S
O253 C252 1.228 . S
O254 Zn241 1.969 . S
O254 C252 1.267 . S
O255 Zn241 1.965 . S
O255 C259 1.260 . S
O256 Zn240 1.969 . S
O256 C259 1.258 . S
O257 Zn241 2.024 . S
O257 C244 1.058 . S
C258 O247 1.260 . S
C258 O248 1.258 . S
C259 O255 1.260 . S
C259 O256 1.258 . S
Zn260 O266 1.969 . S
Zn260 O267 1.965 . S
Zn260 O271 2.024 . S
Zn260 O276 1.969 . S
Zn261 O268 1.969 . S
Zn261 O274 1.969 . S
Zn261 O275 1.965 . S
Zn261 O277 2.024 . S
C262 O263 1.229 . S
C262 O271 1.058 . S
O263 C262 1.229 . S
C264 O265 1.229 . S
C264 O277 1.058 . S
O265 C264 1.229 . S
O266 Zn260 1.969 . S
O266 C269 1.267 . S
O267 Zn260 1.965 . S
O267 C278 1.260 . S
O268 Zn261 1.969 . S
O268 C278 1.258 . S
C269 O266 1.267 . S
C269 O270 1.228 . S
O270 C269 1.228 . S
O271 Zn260 2.024 . S
O271 C262 1.058 . S
C272 O273 1.228 . S
C272 O274 1.267 . S
O273 C272 1.228 . S
O274 Zn261 1.969 . S
O274 C272 1.267 . S
O275 Zn261 1.965 . S
O275 C279 1.260 . S
O276 Zn260 1.969 . S
O276 C279 1.258 . S
O277 Zn261 2.024 . S
O277 C264 1.058 . S
C278 O267 1.260 . S
C278 O268 1.258 . S
C279 O275 1.260 . S
C279 O276 1.258 . S
Zn280 O286 1.969 . S
Zn280 O287 1.965 . S
Zn280 O291 2.024 . S
Zn280 O296 1.969 . S
Zn281 O288 1.969 . S
Zn281 O294 1.969 . S
Zn281 O295 1.965 . S
Zn281 O297 2.024 . S
C282 O283 1.229 . S
C282 O291 1.058 . S
O283 C282 1.229 . S
C284 O285 1.229 . S
C284 O297 1.058 . S
O285 C284 1.229 . S
O286 Zn280 1.969 . S
O286 C289 1.267 . S
O287 Zn280 1.965 . S
O287 C298 1.260 . S
O288 Zn281 1.969 . S
O288 C298 1.258 . S
C289 O286 1.267 . S
C289 O290 1.228 . S
O290 C289 1.228 . S
O291 Zn280 2.024 . S
O291 C282 1.058 . S
C292 O293 1.228 . S
C292 O294 1.267 . S
O293 C292 1.228 . S
O294 Zn281 1.969 . S
O294 C292 1.267 . S
O295 Zn281 1.965 . S
O295 C299 1.260 . S
O296 Zn280 1.969 . S
O296 C299 1.258 . S
O297 Zn281 2.024 . S
O297 C284 1.058 . S
C298 O287 1.260 . S
C298 O288 1.258 . S
C299 O295 1.260 . S
C299 O296 1.258 . S
Zn300 O306 1.969 . S
Zn300 O307 1.965 . S
Zn300 O311 2.024 . S
Zn300 O316 1.969 . S
Zn301 O308 1.969 . S
Zn301 O314 1.969 . S
Zn301 O315 1.965 . S
Zn301 O317 2.024 . S
C302 O303 1.229 . S
C302 O311 1.058 . S
O303 C302 1.229 . S
C304 O305 1.229 . S
C304 O317 1.058 . S
O305 C304 1.229 . S
O306 Zn300 1.969 . S
O306 C309 1.267 . S
O307 Zn300 1.965 . S
O307 C318 1.260 . S
O308 Zn301 1.969 . S
O308 C318 1.258 . S
C309 O306 1.267 . S
C309 O310 1.228 . S
O310 C309 1.228 . S
O311 Zn300 2.024 . S
O311 C302 1.058 . S
C312 O313 1.228 . S
C312 O314 1.267 . S
O313 C312 1.228 . S
O314 Zn301 1.969 . S
O314 C312 1.267 . S
O315 Zn301 1.965 . S
O315 C319 1.260 . S
O316 Zn300 1.969 . S
O316 C319 1.258 . S
O317 Zn301 2.024 . S
O317 C304 1.058 . S
C318 O307 1.260 . S
C318 O308 1.258 . S
C319 O315 1.260 . S
C319 O316 1.258 . S
Zn320 O326 1.969 . S
Zn320 O327 1.965 1_565 S
Zn320 O331 2.024 1_565 S
Zn320 O336 1.969 . S
Zn321 O328 1.969 . S
Zn321 O334 1.969 . S
Zn321 O335 1.965 1_545 S
Zn321 O337 2.024 1_545 S
C322 O323 1.277 . S
C322 O331 1.021 1_565 S
O323 C322 1.277 . S
C324 O325 1.229 . S
C324 O337 1.058 1_545 S
O325 C324 1.229 . S
O326 Zn320 1.969 . S
O326 C329 1.267 1_565 S
O327 Zn320 1.965 1_545 S
O327 C338 1.260 . S
O328 Zn321 1.969 . S
O328 C338 1.258 . S
C329 O326 1.267 1_545 S
C329 O330 1.228 . S
O330 C329 1.228 . S
O331 Zn320 2.024 1_545 S
O331 C322 1.021 1_545 S
C332 O333 1.225 1_545 S
C332 O334 1.270 . S
O333 C332 1.225 1_565 S
O334 Zn321 1.969 . S
O334 C332 1.270 . S
O335 Zn321 1.965 1_565 S
O335 C339 1.260 . S
O336 Zn320 1.969 . S
O336 C339 1.258 . S
O337 Zn321 2.024 1_565 S
O337 C324 1.058 1_565 S
C338 O327 1.260 . S
C338 O328 1.258 . S
C339 O335 1.260 . S
C339 O336 1.258 . S
Zn340 O346 1.969 . S
Zn340 O347 1.965 . S
Zn340 O351 2.024 . S
Zn340 O356 1.969 . S
Zn341 O348 1.969 . S
Zn341 O354 1.969 . S
Zn341 O355 1.965 . S
Zn341 O357 2.024 . S
C342 O343 1.229 . S
C342 O351 1.058 . S
O343 C342 1.229 . S
C344 O345 1.229 . S
C344 O357 1.058 . S
O345 C344 1.229 . S
O346 Zn340 1.969 . S
O346 C349 1.267 . S
O347 Zn340 1.965 . S
O347 C358 1.260 . S
O348 Zn341 1.969 . S
O348 C358 1.258 . S
C349 O346 1.267 . S
C349 O350 1.228 . S
O350 C349 1.228 . S
O351 Zn340 2.024 . S
O351 C342 1.058 . S
C352 O353 1.228 . S
C352 O354 1.267 . S
O353 C352 1.228 . S
O354 Zn341 1.969 . S
O354 C352 1.267 . S
O355 Zn341 1.965 . S
O355 C359 1.260 . S
O356 Zn340 1.969 . S
O356 C359 1.258 . S
O357 Zn341 2.024 . S
O357 C344 1.058 . S
C358 O347 1.260 . S
C358 O348 1.258 . S
C359 O355 1.260 . S
C359 O356 1.258 . S
Zn360 O366 1.969 . S
Zn360 O367 1.965 . S
Zn360 O371 2.024 . S
Zn360 O376 1.969 . S
Zn361 O368 1.969 . S
Zn361 O374 1.969 . S
Zn361 O375 1.965 . S
Zn361 O377 2.024 . S
C362 O363 1.229 . S
C362 O371 1.058 . S
O363 C362 1.229 . S
C364 O365 1.229 . S
C364 O377 1.058 . S
O365 C364 1.229 . S
O366 Zn360 1.969 . S
O366 C369 1.267 . S
O367 Zn360 1.965 . S
O367 C378 1.260 . S
O368 Zn361 1.969 . S
O368 C378 1.258 . S
C369 O366 1.267 . S
C369 O370 1.228 . S
O370 C369 1.228 . S
O371 Zn360 2.024 . S
O371 C362 1.058 . S
C372 O373 1.228 . S
C372 O374 1.267 . S
O373 C372 1.228 . S
O374 Zn361 1.969 . S
O374 C372 1.267 . S
O375 Zn361 1.965 . S
O375 C379 1.260 . S
O376 Zn360 1.969 . S
O376 C379 1.258 . S
O377 Zn361 2.024 . S
O377 C364 1.058 . S
C378 O367 1.260 . S
C378 O368 1.258 . S
C379 O375 1.260 . S
C379 O376 1.258 . S
Zn380 O386 1.969 . S
Zn380 O387 1.965 1_565 S
Zn380 O391 2.024 1_565 S
Zn380 O396 1.969 . S
Zn381 O388 1.969 . S
Zn381 O394 1.969 . S
Zn381 O395 1.965 1_545 S
Zn381 O397 2.024 1_545 S
C382 O383 1.277 . S
C382 O391 1.021 1_565 S
O383 C382 1.277 . S
C384 O385 1.229 . S
C384 O397 1.058 1_545 S
O385 C384 1.229 . S
O386 Zn380 1.969 . S
O386 C389 1.267 1_565 S
O387 Zn380 1.965 1_545 S
O387 C398 1.260 . S
O388 Zn381 1.969 . S
O388 C398 1.258 . S
C389 O386 1.267 1_545 S
C389 O390 1.228 . S
O390 C389 1.228 . S
O391 Zn380 2.024 1_545 S
O391 C382 1.021 1_545 S
C392 O393 1.226 1_545 S
C392 O394 1.269 . S
O393 C392 1.226 1_565 S
O394 Zn381 1.969 . S
O394 C392 1.269 . S
O395 Zn381 1.965 1_565 S
O395 C399 1.260 . S
O396 Zn380 1.969 . S
O396 C399 1.258 . S
O397 Zn381 2.024 1_565 S
O397 C384 1.058 1_565 S
C398 O387 1.260 . S
C398 O388 1.258 . S
C399 O395 1.260 . S
C399 O396 1.258 . S
Zn400 O406 1.969 . S
Zn400 O407 1.965 1_565 S
Zn400 O411 2.024 1_565 S
Zn400 O416 1.969 . S
Zn401 O408 1.969 . S
Zn401 O414 1.969 . S
Zn401 O415 1.965 1_545 S
Zn401 O417 2.024 1_545 S
C402 O403 1.229 . S
C402 O411 1.058 1_565 S
O403 C402 1.229 . S
C404 O405 1.277 . S
C404 O417 1.021 1_545 S
O405 C404 1.277 . S
O406 Zn400 1.969 . S
O406 C409 1.270 . S
O407 Zn400 1.965 1_545 S
O407 C418 1.260 . S
O408 Zn401 1.969 . S
O408 C418 1.258 . S
C409 O406 1.270 . S
C409 O410 1.225 1_565 S
O410 C409 1.225 1_545 S
O411 Zn400 2.024 1_545 S
O411 C402 1.058 1_545 S
C412 O413 1.228 . S
C412 O414 1.267 1_565 S
O413 C412 1.228 . S
O414 Zn401 1.969 . S
O414 C412 1.267 1_545 S
O415 Zn401 1.965 1_565 S
O415 C419 1.260 . S
O416 Zn400 1.969 . S
O416 C419 1.258 . S
O417 Zn401 2.024 1_565 S
O417 C404 1.021 1_565 S
C418 O407 1.260 . S
C418 O408 1.258 . S
C419 O415 1.260 . S
C419 O416 1.258 . S
Zn420 O426 1.969 . S
Zn420 O427 1.965 . S
Zn420 O431 2.024 . S
Zn420 O436 1.969 . S
Zn421 O428 1.969 . S
Zn421 O434 1.969 . S
Zn421 O435 1.965 . S
Zn421 O437 2.024 . S
C422 O423 1.229 . S
C422 O431 1.058 . S
O423 C422 1.229 . S
C424 O425 1.229 . S
C424 O437 1.058 . S
O425 C424 1.229 . S
O426 Zn420 1.969 . S
O426 C429 1.267 . S
O427 Zn420 1.965 . S
O427 C438 1.260 . S
O428 Zn421 1.969 . S
O428 C438 1.258 . S
C429 O426 1.267 . S
C429 O430 1.228 . S
O430 C429 1.228 . S
O431 Zn420 2.024 . S
O431 C422 1.058 . S
C432 O433 1.228 . S
C432 O434 1.267 . S
O433 C432 1.228 . S
O434 Zn421 1.969 . S
O434 C432 1.267 . S
O435 Zn421 1.965 . S
O435 C439 1.260 . S
O436 Zn420 1.969 . S
O436 C439 1.258 . S
O437 Zn421 2.024 . S
O437 C424 1.058 . S
C438 O427 1.260 . S
C438 O428 1.258 . S
C439 O435 1.260 . S
C439 O436 1.258 . S
Zn440 O446 1.969 . S
Zn440 O447 1.965 . S
Zn440 O451 2.024 . S
Zn440 O456 1.969 . S
Zn441 O448 1.969 . S
Zn441 O454 1.969 . S
Zn441 O455 1.965 . S
Zn441 O457 2.024 . S
C442 O443 1.229 . S
C442 O451 1.058 . S
O443 C442 1.229 . S
C444 O445 1.229 . S
C444 O457 1.058 . S
O445 C444 1.229 . S
O446 Zn440 1.969 . S
O446 C449 1.267 . S
O447 Zn440 1.965 . S
O447 C458 1.260 . S
O448 Zn441 1.969 . S
O448 C458 1.258 . S
C449 O446 1.267 . S
C449 O450 1.228 . S
O450 C449 1.228 . S
O451 Zn440 2.024 . S
O451 C442 1.058 . S
C452 O453 1.228 . S
C452 O454 1.267 . S
O453 C452 1.228 . S
O454 Zn441 1.969 . S
O454 C452 1.267 . S
O455 Zn441 1.965 . S
O455 C459 1.260 . S
O456 Zn440 1.969 . S
O456 C459 1.258 . S
O457 Zn441 2.024 . S
O457 C444 1.058 . S
C458 O447 1.260 . S
C458 O448 1.258 . S
C459 O455 1.260 . S
C459 O456 1.258 . S
Zn460 O466 1.969 . S
Zn460 O467 1.965 1_565 S
Zn460 O471 2.024 1_565 S
Zn460 O476 1.969 . S
Zn461 O468 1.969 . S
Zn461 O474 1.969 . S
Zn461 O475 1.965 1_545 S
Zn461 O477 2.024 1_545 S
C462 O463 1.229 . S
C462 O471 1.058 1_565 S
O463 C462 1.229 . S
C464 O465 1.277 . S
C464 O477 1.021 1_545 S
O465 C464 1.277 . S
O466 Zn460 1.969 . S
O466 C469 1.269 . S
O467 Zn460 1.965 1_545 S
O467 C478 1.260 . S
O468 Zn461 1.969 . S
O468 C478 1.258 . S
C469 O466 1.269 . S
C469 O470 1.226 1_565 S
O470 C469 1.226 1_545 S
O471 Zn460 2.024 1_545 S
O471 C462 1.058 1_545 S
C472 O473 1.228 . S
C472 O474 1.267 1_565 S
O473 C472 1.228 . S
O474 Zn461 1.969 . S
O474 C472 1.267 1_545 S
O475 Zn461 1.965 1_565 S
O475 C479 1.260 . S
O476 Zn460 1.969 . S
O476 C479 1.258 . S
O477 Zn461 2.024 1_565 S
O477 C464 1.021 1_565 S
C478 O467 1.260 . S
C478 O468 1.258 . S
C479 O475 1.260 . S
C479 O476 1.258 . S
Zn480 O486 1.969 . S
Zn480 O487 1.965 . S
Zn480 O491 2.024 . S
Zn480 O496 1.969 . S
Zn481 O488 1.969 . S
Zn481 O494 1.969 . S
Zn481 O495 1.965 . S
Zn481 O497 2.024 . S
C482 O483 1.229 . S
C482 O491 1.058 . S
O483 C482 1.229 . S
C484 O485 1.229 . S
C484 O497 1.058 . S
O485 C484 1.229 . S
O486 Zn480 1.969 . S
O486 C489 1.267 . S
O487 Zn480 1.965 . S
O487 C498 1.260 . S
O488 Zn481 1.969 . S
O488 C498 1.258 . S
C489 O486 1.267 . S
C489 O490 1.228 . S
O490 C489 1.228 . S
O491 Zn480 2.024 . S
O491 C482 1.058 . S
C492 O493 1.228 . S
C492 O494 1.267 1_556 S
O493 C492 1.228 . S
O494 Zn481 1.969 . S
O494 C492 1.267 1_554 S
O495 Zn481 1.965 . S
O495 C499 1.260 . S
O496 Zn480 1.969 . S
O496 C499 1.258 . S
O497 Zn481 2.024 . S
O497 C484 1.058 . S
C498 O487 1.260 . S
C498 O488 1.258 . S
C499 O495 1.260 . S
C499 O496 1.258 . S
Zn500 O506 1.969 . S
Zn500 O507 1.965 . S
Zn500 O511 2.024 . S
Zn500 O516 1.969 . S
Zn501 O508 1.969 . S
Zn501 O514 1.969 . S
Zn501 O515 1.965 . S
Zn501 O517 2.024 . S
C502 O503 1.229 . S
C502 O511 1.058 . S
O503 C502 1.229 . S
C504 O505 1.229 . S
C504 O517 1.058 . S
O505 C504 1.229 . S
O506 Zn500 1.969 . S
O506 C509 1.267 . S
O507 Zn500 1.965 . S
O507 C518 1.260 . S
O508 Zn501 1.969 . S
O508 C518 1.258 . S
C509 O506 1.267 . S
C509 O510 1.228 . S
O510 C509 1.228 . S
O511 Zn500 2.024 . S
O511 C502 1.058 . S
C512 O513 1.228 . S
C512 O514 1.267 1_556 S
O513 C512 1.228 . S
O514 Zn501 1.969 . S
O514 C512 1.267 1_554 S
O515 Zn501 1.965 . S
O515 C519 1.260 . S
O516 Zn500 1.969 . S
O516 C519 1.258 . S
O517 Zn501 2.024 . S
O517 C504 1.058 . S
C518 O507 1.260 . S
C518 O508 1.258 . S
C519 O515 1.260 . S
C519 O516 1.258 . S
Zn520 O526 1.969 . S
Zn520 O527 1.965 . S
Zn520 O531 2.024 . S
Zn520 O536 1.969 . S
Zn521 O528 1.969 . S
Zn521 O534 1.969 . S
Zn521 O535 1.965 . S
Zn521 O537 2.024 . S
C522 O523 1.229 . S
C522 O531 1.058 . S
O523 C522 1.229 . S
C524 O525 1.229 . S
C524 O537 1.058 . S
O525 C524 1.229 . S
O526 Zn520 1.969 . S
O526 C529 1.267 . S
O527 Zn520 1.965 . S
O527 C538 1.260 . S
O528 Zn521 1.969 . S
O528 C538 1.258 . S
C529 O526 1.267 . S
C529 O530 1.228 . S
O530 C529 1.228 . S
O531 Zn520 2.024 . S
O531 C522 1.058 . S
C532 O533 1.228 . S
C532 O534 1.267 . S
O533 C532 1.228 . S
O534 Zn521 1.969 . S
O534 C532 1.267 . S
O535 Zn521 1.965 . S
O535 C539 1.260 . S
O536 Zn520 1.969 . S
O536 C539 1.258 . S
O537 Zn521 2.024 . S
O537 C524 1.058 . S
C538 O527 1.260 . S
C538 O528 1.258 . S
C539 O535 1.260 . S
C539 O536 1.258 . S
Zn540 O546 1.969 . S
Zn540 O547 1.965 . S
Zn540 O551 2.024 . S
Zn540 O556 1.969 . S
Zn541 O548 1.969 . S
Zn541 O554 1.969 . S
Zn541 O555 1.965 . S
Zn541 O557 2.024 . S
C542 O543 1.229 . S
C542 O551 1.058 . S
O543 C542 1.229 . S
C544 O545 1.229 . S
C544 O557 1.058 . S
O545 C544 1.229 . S
O546 Zn540 1.969 . S
O546 C549 1.267 . S
O547 Zn540 1.965 . S
O547 C558 1.260 . S
O548 Zn541 1.969 . S
O548 C558 1.258 . S
C549 O546 1.267 . S
C549 O550 1.228 . S
O550 C549 1.228 . S
O551 Zn540 2.024 . S
O551 C542 1.058 . S
C552 O553 1.228 . S
C552 O554 1.267 . S
O553 C552 1.228 . S
O554 Zn541 1.969 . S
O554 C552 1.267 . S
O555 Zn541 1.965 . S
O555 C559 1.260 . S
O556 Zn540 1.969 . S
O556 C559 1.258 . S
O557 Zn541 2.024 . S
O557 C544 1.058 . S
C558 O547 1.260 . S
C558 O548 1.258 . S
C559 O555 1.260 . S
C559 O556 1.258 . S
Zn560 O566 1.969 . S
Zn560 O567 1.965 . S
Zn560 O571 2.024 . S
Zn560 O576 1.969 . S
Zn561 O568 1.969 . S
Zn561 O574 1.969 . S
Zn561 O575 1.965 . S
Zn561 O577 2.024 . S
C562 O563 1.229 . S
C562 O571 1.058 . S
O563 C562 1.229 . S
C564 O565 1.229 . S
C564 O577 1.058 . S
O565 C564 1.229 . S
O566 Zn560 1.969 . S
O566 C569 1.267 1_556 S
O567 Zn560 1.965 . S
O567 C578 1.260 . S
O568 Zn561 1.969 . S
O568 C578 1.258 . S
C569 O566 1.267 1_554 S
C569 O570 1.228 . S
O570 C569 1.228 . S
O571 Zn560 2.024 . S
O571 C562 1.058 . S
C572 O573 1.228 . S
C572 O574 1.267 . S
O573 C572 1.228 . S
O574 Zn561 1.969 . S
O574 C572 1.267 . S
O575 Zn561 1.965 . S
O575 C579 1.260 . S
O576 Zn560 1.969 . S
O576 C579 1.258 . S
O577 Zn561 2.024 . S
O577 C564 1.058 . S
C578 O567 1.260 . S
C578 O568 1.258 . S
C579 O575 1.260 . S
C579 O576 1.258 . S
Zn580 O586 1.969 . S
Zn580 O587 1.965 . S
Zn580 O591 2.024 . S
Zn580 O596 1.969 . S
Zn581 O588 1.969 . S
Zn581 O594 1.969 . S
Zn581 O595 1.965 . S
Zn581 O597 2.024 . S
C582 O583 1.229 . S
C582 O591 1.058 . S
O583 C582 1.229 . S
C584 O585 1.229 . S
C584 O597 1.058 . S
O585 C584 1.229 . S
O586 Zn580 1.969 . S
O586 C589 1.267 1_556 S
O587 Zn580 1.965 . S
O587 C598 1.260 . S
O588 Zn581 1.969 . S
O588 C598 1.258 . S
C589 O586 1.267 1_554 S
C589 O590 1.228 . S
O590 C589 1.228 . S
O591 Zn580 2.024 . S
O591 C582 1.058 . S
C592 O593 1.228 . S
C592 O594 1.267 . S
O593 C592 1.228 . S
O594 Zn581 1.969 . S
O594 C592 1.267 . S
O595 Zn581 1.965 . S
O595 C599 1.260 . S
O596 Zn580 1.969 . S
O596 C599 1.258 . S
O597 Zn581 2.024 . S
O597 C584 1.058 . S
C598 O587 1.260 . S
C598 O588 1.258 . S
C599 O595 1.260 . S
C599 O596 1.258 . S
Zn600 O606 1.969 . S
Zn600 O607 1.965 . S
Zn600 O611 2.024 . S
Zn600 O616 1.969 . S
Zn601 O608 1.969 . S
Zn601 O614 1.969 . S
Zn601 O615 1.965 . S
Zn601 O617 2.024 . S
C602 O603 1.229 . S
C602 O611 1.058 . S
O603 C602 1.229 . S
C604 O605 1.229 . S
C604 O617 1.058 . S
O605 C604 1.229 . S
O606 Zn600 1.969 . S
O606 C609 1.267 . S
O607 Zn600 1.965 . S
O607 C618 1.260 . S
O608 Zn601 1.969 . S
O608 C618 1.258 . S
C609 O606 1.267 . S
C609 O610 1.228 . S
O610 C609 1.228 . S
O611 Zn600 2.024 . S
O611 C602 1.058 . S
C612 O613 1.228 . S
C612 O614 1.267 . S
O613 C612 1.228 . S
O614 Zn601 1.969 . S
O614 C612 1.267 . S
O615 Zn601 1.965 . S
O615 C619 1.260 . S
O616 Zn600 1.969 . S
O616 C619 1.258 . S
O617 Zn601 2.024 . S
O617 C604 1.058 . S
C618 O607 1.260 . S
C618 O608 1.258 . S
C619 O615 1.260 . S
C619 O616 1.258 . S
Zn620 O626 1.969 . S
Zn620 O627 1.965 . S
Zn620 O631 2.024 . S
Zn620 O636 1.969 . S
Zn621 O628 1.969 . S
Zn621 O634 1.969 . S
Zn621 O635 1.965 . S
Zn621 O637 2.024 . S
C622 O623 1.229 . S
C622 O631 1.058 . S
O623 C622 1.229 . S
C624 O625 1.229 . S
C624 O637 1.058 . S
O625 C624 1.229 . S
O626 Zn620 1.969 . S
O626 C629 1.267 . S
O627 Zn620 1.965 . S
O627 C638 1.260 . S
O628 Zn621 1.969 . S
O628 C638 1.258 . S
C629 O626 1.267 . S
C629 O630 1.228 . S
O630 C629 1.228 . S
O631 Zn620 2.024 . S
O631 C622 1.058 . S
C632 O633 1.228 . S
C632 O634 1.267 . S
O633 C632 1.228 . S
O634 Zn621 1.969 . S
O634 C632 1.267 . S
O635 Zn621 1.965 . S
O635 C639 1.260 . S
O636 Zn620 1.969 . S
O636 C639 1.258 . S
O637 Zn621 2.024 . S
O637 C624 1.058 . S
C638 O627 1.260 . S
C638 O628 1.258 . S
C639 O635 1.260 . S
C639 O636 1.258 . S
C640 C641 1.349 . S
C640 C642 1.327 . S
C640 H665 0.950 . S
C641 C640 1.349 . S
C641 C657 1.349 . S
C642 C640 1.327 . S
C642 C661 1.429 . S
C642 H666 0.950 . S
C643 C660 1.574 . S
C643 C662 1.368 . S
C643 H667 0.949 . S
H644 C648 0.949 . S
C645 C646 1.349 . S
C645 C647 1.327 . S
C645 H668 0.950 . S
C646 C645 1.349 . S
C646 C658 1.349 . S
C647 C645 1.327 . S
C647 C663 1.429 . S
C647 H669 0.950 . S
C648 H644 0.949 . S
C648 C656 1.574 . S
C648 C664 1.368 . S
H649 C657 0.950 . S
H650 C655 0.950 . S
H651 C656 0.949 . S
H652 C658 0.950 . S
H653 C659 0.950 . S
H654 C660 0.949 . S
C655 H650 0.950 . S
C655 C657 1.327 . S
C655 C661 1.429 . S
C656 C648 1.574 . S
C656 H651 0.949 . S
C656 C662 1.368 . S
C657 C641 1.349 . S
C657 H649 0.950 . S
C657 C655 1.327 . S
C658 C646 1.349 . S
C658 H652 0.950 . S
C658 C659 1.327 . S
C659 H653 0.950 . S
C659 C658 1.327 . S
C659 C663 1.429 . S
C660 C643 1.574 . S
C660 H654 0.949 . S
C660 C664 1.368 . S
C661 C642 1.429 . S
C661 C655 1.429 . S
C661 C662 1.523 . S
C662 C643 1.368 . S
C662 C656 1.368 . S
C662 C661 1.523 . S
C663 C647 1.429 . S
C663 C659 1.429 . S
C663 C664 1.523 . S
C664 C648 1.368 . S
C664 C660 1.368 . S
C664 C663 1.523 . S
H665 C640 0.950 . S
H666 C642 0.950 . S
H667 C643 0.949 . S
H668 C645 0.950 . S
H669 C647 0.950 . S
C670 C671 1.349 . S
C670 C672 1.327 . S
C670 H695 0.950 . S
C671 C670 1.349 . S
C671 C687 1.349 . S
C672 C670 1.327 . S
C672 C691 1.429 . S
C672 H696 0.950 . S
C673 C690 1.574 . S
C673 C692 1.368 . S
C673 H697 0.949 . S
H674 C678 0.949 . S
C675 C676 1.349 . S
C675 C677 1.327 . S
C675 H698 0.950 . S
C676 C675 1.349 . S
C676 C688 1.349 . S
C677 C675 1.327 . S
C677 C693 1.429 . S
C677 H699 0.950 . S
C678 H674 0.949 . S
C678 C686 1.574 . S
C678 C694 1.368 . S
H679 C687 0.950 . S
H680 C685 0.950 . S
H681 C686 0.949 . S
H682 C688 0.950 . S
H683 C689 0.950 . S
H684 C690 0.949 . S
C685 H680 0.950 . S
C685 C687 1.327 . S
C685 C691 1.429 . S
C686 C678 1.574 . S
C686 H681 0.949 . S
C686 C692 1.368 . S
C687 C671 1.349 . S
C687 H679 0.950 . S
C687 C685 1.327 . S
C688 C676 1.349 . S
C688 H682 0.950 . S
C688 C689 1.327 . S
C689 H683 0.950 . S
C689 C688 1.327 . S
C689 C693 1.429 . S
C690 C673 1.574 . S
C690 H684 0.949 . S
C690 C694 1.368 . S
C691 C672 1.429 . S
C691 C685 1.429 . S
C691 C692 1.523 . S
C692 C673 1.368 . S
C692 C686 1.368 . S
C692 C691 1.523 . S
C693 C677 1.429 . S
C693 C689 1.429 . S
C693 C694 1.523 . S
C694 C678 1.368 . S
C694 C690 1.368 . S
C694 C693 1.523 . S
H695 C670 0.950 . S
H696 C672 0.950 . S
H697 C673 0.949 . S
H698 C675 0.950 . S
H699 C677 0.950 . S
C700 C701 1.349 . S
C700 C702 1.327 . S
C700 H725 0.950 . S
C701 C700 1.349 . S
C701 C717 1.349 . S
C702 C700 1.327 . S
C702 C721 1.429 . S
C702 H726 0.950 . S
C703 C720 1.574 . S
C703 C722 1.368 . S
C703 H727 0.949 . S
H704 C708 0.949 . S
C705 C706 1.349 . S
C705 C707 1.327 . S
C705 H728 0.950 . S
C706 C705 1.349 . S
C706 C718 1.349 . S
C707 C705 1.327 . S
C707 C723 1.429 . S
C707 H729 0.950 . S
C708 H704 0.949 . S
C708 C716 1.574 . S
C708 C724 1.368 . S
H709 C717 0.950 . S
H710 C715 0.950 . S
H711 C716 0.949 . S
H712 C718 0.950 . S
H713 C719 0.950 . S
H714 C720 0.949 . S
C715 H710 0.950 . S
C715 C717 1.327 . S
C715 C721 1.429 . S
C716 C708 1.574 . S
C716 H711 0.949 . S
C716 C722 1.368 . S
C717 C701 1.349 . S
C717 H709 0.950 . S
C717 C715 1.327 . S
C718 C706 1.349 . S
C718 H712 0.950 . S
C718 C719 1.327 . S
C719 H713 0.950 . S
C719 C718 1.327 . S
C719 C723 1.429 . S
C720 C703 1.574 . S
C720 H714 0.949 . S
C720 C724 1.368 . S
C721 C702 1.429 . S
C721 C715 1.429 . S
C721 C722 1.523 . S
C722 C703 1.368 . S
C722 C716 1.368 . S
C722 C721 1.523 . S
C723 C707 1.429 . S
C723 C719 1.429 . S
C723 C724 1.523 . S
C724 C708 1.368 . S
C724 C720 1.368 . S
C724 C723 1.523 . S
H725 C700 0.950 . S
H726 C702 0.950 . S
H727 C703 0.949 . S
H728 C705 0.950 . S
H729 C707 0.950 . S
C730 C731 1.349 . S
C730 C732 1.327 . S
C730 H755 0.950 . S
C731 C730 1.349 . S
C731 C747 1.349 . S
C732 C730 1.327 . S
C732 C751 1.429 . S
C732 H756 0.950 . S
C733 C750 1.574 . S
C733 C752 1.368 . S
C733 H757 0.949 . S
H734 C738 0.949 . S
C735 C736 1.349 . S
C735 C737 1.327 . S
C735 H758 0.950 . S
C736 C735 1.349 . S
C736 C748 1.349 . S
C737 C735 1.327 . S
C737 C753 1.429 . S
C737 H759 0.950 . S
C738 H734 0.949 . S
C738 C746 1.574 . S
C738 C754 1.368 . S
H739 C747 0.950 . S
H740 C745 0.950 . S
H741 C746 0.949 . S
H742 C748 0.950 . S
H743 C749 0.950 . S
H744 C750 0.949 . S
C745 H740 0.950 . S
C745 C747 1.327 . S
C745 C751 1.429 . S
C746 C738 1.574 . S
C746 H741 0.949 . S
C746 C752 1.368 . S
C747 C731 1.349 . S
C747 H739 0.950 . S
C747 C745 1.327 . S
C748 C736 1.349 . S
C748 H742 0.950 . S
C748 C749 1.327 . S
C749 H743 0.950 . S
C749 C748 1.327 . S
C749 C753 1.429 . S
C750 C733 1.574 . S
C750 H744 0.949 . S
C750 C754 1.368 . S
C751 C732 1.429 . S
C751 C745 1.429 . S
C751 C752 1.523 . S
C752 C733 1.368 . S
C752 C746 1.368 . S
C752 C751 1.523 . S
C753 C737 1.429 . S
C753 C749 1.429 . S
C753 C754 1.523 . S
C754 C738 1.368 . S
C754 C750 1.368 . S
C754 C753 1.523 . S
H755 C730 0.950 . S
H756 C732 0.950 . S
H757 C733 0.949 . S
H758 C735 0.950 . S
H759 C737 0.950 . S
C760 C761 1.349 . S
C760 C762 1.327 . S
C760 H785 0.950 . S
C761 C760 1.349 . S
C761 C777 1.349 . S
C762 C760 1.327 . S
C762 C781 1.429 . S
C762 H786 0.950 . S
C763 C780 1.574 . S
C763 C782 1.368 . S
C763 H787 0.949 . S
H764 C768 0.949 . S
C765 C766 1.349 . S
C765 C767 1.327 . S
C765 H788 0.950 . S
C766 C765 1.349 . S
C766 C778 1.349 . S
C767 C765 1.327 . S
C767 C783 1.429 . S
C767 H789 0.950 . S
C768 H764 0.949 . S
C768 C776 1.574 . S
C768 C784 1.368 . S
H769 C777 0.950 . S
H770 C775 0.950 . S
H771 C776 0.949 . S
H772 C778 0.950 . S
H773 C779 0.950 . S
H774 C780 0.949 . S
C775 H770 0.950 . S
C775 C777 1.327 . S
C775 C781 1.429 . S
C776 C768 1.574 . S
C776 H771 0.949 . S
C776 C782 1.368 . S
C777 C761 1.349 . S
C777 H769 0.950 . S
C777 C775 1.327 . S
C778 C766 1.349 . S
C778 H772 0.950 . S
C778 C779 1.327 . S
C779 H773 0.950 . S
C779 C778 1.327 . S
C779 C783 1.429 . S
C780 C763 1.574 . S
C780 H774 0.949 . S
C780 C784 1.368 . S
C781 C762 1.429 . S
C781 C775 1.429 . S
C781 C782 1.523 . S
C782 C763 1.368 . S
C782 C776 1.368 . S
C782 C781 1.523 . S
C783 C767 1.429 . S
C783 C779 1.429 . S
C783 C784 1.523 . S
C784 C768 1.368 . S
C784 C780 1.368 . S
C784 C783 1.523 . S
H785 C760 0.950 . S
H786 C762 0.950 . S
H787 C763 0.949 . S
H788 C765 0.950 . S
H789 C767 0.950 . S
C790 C791 1.349 . S
C790 C792 1.327 . S
C790 H815 0.950 . S
C791 C790 1.349 . S
C791 C807 1.349 . S
C792 C790 1.327 . S
C792 C811 1.429 . S
C792 H816 0.950 . S
C793 C810 1.574 . S
C793 C812 1.368 . S
C793 H817 0.949 . S
H794 C798 0.949 . S
C795 C796 1.349 . S
C795 C797 1.327 . S
C795 H818 0.950 . S
C796 C795 1.349 . S
C796 C808 1.349 . S
C797 C795 1.327 . S
C797 C813 1.429 . S
C797 H819 0.950 . S
C798 H794 0.949 . S
C798 C806 1.574 . S
C798 C814 1.368 . S
H799 C807 0.950 . S
H800 C805 0.950 . S
H801 C806 0.949 . S
H802 C808 0.950 . S
H803 C809 0.950 . S
H804 C810 0.949 . S
C805 H800 0.950 . S
C805 C807 1.327 . S
C805 C811 1.429 . S
C806 C798 1.574 . S
C806 H801 0.949 . S
C806 C812 1.368 . S
C807 C791 1.349 . S
C807 H799 0.950 . S
C807 C805 1.327 . S
C808 C796 1.349 . S
C808 H802 0.950 . S
C808 C809 1.327 . S
C809 H803 0.950 . S
C809 C808 1.327 . S
C809 C813 1.429 . S
C810 C793 1.574 . S
C810 H804 0.949 . S
C810 C814 1.368 . S
C811 C792 1.429 . S
C811 C805 1.429 . S
C811 C812 1.523 . S
C812 C793 1.368 . S
C812 C806 1.368 . S
C812 C811 1.523 . S
C813 C797 1.429 . S
C813 C809 1.429 . S
C813 C814 1.523 . S
C814 C798 1.368 . S
C814 C810 1.368 . S
C814 C813 1.523 . S
H815 C790 0.950 . S
H816 C792 0.950 . S
H817 C793 0.949 . S
H818 C795 0.950 . S
H819 C797 0.950 . S
C820 C821 1.349 . S
C820 C822 1.327 . S
C820 H845 0.950 . S
C821 C820 1.349 . S
C821 C837 1.349 . S
C822 C820 1.327 . S
C822 C841 1.429 . S
C822 H846 0.950 . S
C823 C840 1.574 . S
C823 C842 1.368 . S
C823 H847 0.949 . S
H824 C828 0.949 . S
C825 C826 1.349 . S
C825 C827 1.327 . S
C825 H848 0.950 . S
C826 C825 1.349 . S
C826 C838 1.349 . S
C827 C825 1.327 . S
C827 C843 1.429 . S
C827 H849 0.950 . S
C828 H824 0.949 . S
C828 C836 1.574 . S
C828 C844 1.368 . S
H829 C837 0.950 . S
H830 C835 0.950 . S
H831 C836 0.949 . S
H832 C838 0.950 . S
H833 C839 0.950 . S
H834 C840 0.949 . S
C835 H830 0.950 . S
C835 C837 1.327 . S
C835 C841 1.429 . S
C836 C828 1.574 . S
C836 H831 0.949 . S
C836 C842 1.368 . S
C837 C821 1.349 . S
C837 H829 0.950 . S
C837 C835 1.327 . S
C838 C826 1.349 . S
C838 H832 0.950 . S
C838 C839 1.327 . S
C839 H833 0.950 . S
C839 C838 1.327 . S
C839 C843 1.429 . S
C840 C823 1.574 . S
C840 H834 0.949 . S
C840 C844 1.368 . S
C841 C822 1.429 . S
C841 C835 1.429 . S
C841 C842 1.523 . S
C842 C823 1.368 . S
C842 C836 1.368 . S
C842 C841 1.523 . S
C843 C827 1.429 . S
C843 C839 1.429 . S
C843 C844 1.523 . S
C844 C828 1.368 . S
C844 C840 1.368 . S
C844 C843 1.523 . S
H845 C820 0.950 . S
H846 C822 0.950 . S
H847 C823 0.949 . S
H848 C825 0.950 . S
H849 C827 0.950 . S
C850 C851 1.349 . S
C850 C852 1.327 . S
C850 H875 0.950 . S
C851 C850 1.349 . S
C851 C867 1.349 . S
C852 C850 1.327 . S
C852 C871 1.429 . S
C852 H876 0.950 . S
C853 C870 1.574 . S
C853 C872 1.368 . S
C853 H877 0.949 . S
H854 C858 0.949 . S
C855 C856 1.349 . S
C855 C857 1.327 . S
C855 H878 0.950 . S
C856 C855 1.349 . S
C856 C868 1.349 . S
C857 C855 1.327 . S
C857 C873 1.429 . S
C857 H879 0.950 . S
C858 H854 0.949 . S
C858 C866 1.574 . S
C858 C874 1.368 . S
H859 C867 0.950 . S
H860 C865 0.950 . S
H861 C866 0.949 . S
H862 C868 0.950 . S
H863 C869 0.950 . S
H864 C870 0.949 . S
C865 H860 0.950 . S
C865 C867 1.327 . S
C865 C871 1.429 . S
C866 C858 1.574 . S
C866 H861 0.949 . S
C866 C872 1.368 . S
C867 C851 1.349 . S
C867 H859 0.950 . S
C867 C865 1.327 . S
C868 C856 1.349 . S
C868 H862 0.950 . S
C868 C869 1.327 . S
C869 H863 0.950 . S
C869 C868 1.327 . S
C869 C873 1.429 . S
C870 C853 1.574 . S
C870 H864 0.949 . S
C870 C874 1.368 . S
C871 C852 1.429 . S
C871 C865 1.429 . S
C871 C872 1.523 . S
C872 C853 1.368 . S
C872 C866 1.368 . S
C872 C871 1.523 . S
C873 C857 1.429 . S
C873 C869 1.429 . S
C873 C874 1.523 . S
C874 C858 1.368 . S
C874 C870 1.368 . S
C874 C873 1.523 . S
H875 C850 0.950 . S
H876 C852 0.950 . S
H877 C853 0.949 . S
H878 C855 0.950 . S
H879 C857 0.950 . S
C880 C881 1.349 . S
C880 C882 1.327 . S
C880 H905 0.950 . S
C881 C880 1.349 . S
C881 C897 1.349 . S
C882 C880 1.327 . S
C882 C901 1.429 . S
C882 H906 0.950 . S
C883 C900 1.574 . S
C883 C902 1.368 . S
C883 H907 0.949 . S
H884 C888 0.949 . S
C885 C886 1.349 . S
C885 C887 1.327 . S
C885 H908 0.950 . S
C886 C885 1.349 . S
C886 C898 1.349 . S
C887 C885 1.327 . S
C887 C903 1.429 . S
C887 H909 0.950 . S
C888 H884 0.949 . S
C888 C896 1.574 . S
C888 C904 1.368 . S
H889 C897 0.950 . S
H890 C895 0.950 . S
H891 C896 0.949 . S
H892 C898 0.950 . S
H893 C899 0.950 . S
H894 C900 0.949 . S
C895 H890 0.950 . S
C895 C897 1.327 . S
C895 C901 1.429 . S
C896 C888 1.574 . S
C896 H891 0.949 . S
C896 C902 1.368 . S
C897 C881 1.349 . S
C897 H889 0.950 . S
C897 C895 1.327 . S
C898 C886 1.349 . S
C898 H892 0.950 . S
C898 C899 1.327 . S
C899 H893 0.950 . S
C899 C898 1.327 . S
C899 C903 1.429 . S
C900 C883 1.574 . S
C900 H894 0.949 . S
C900 C904 1.368 . S
C901 C882 1.429 . S
C901 C895 1.429 . S
C901 C902 1.523 . S
C902 C883 1.368 . S
C902 C896 1.368 . S
C902 C901 1.523 . S
C903 C887 1.429 . S
C903 C899 1.429 . S
C903 C904 1.523 . S
C904 C888 1.368 . S
C904 C900 1.368 . S
C904 C903 1.523 . S
H905 C880 0.950 . S
H906 C882 0.950 . S
H907 C883 0.949 . S
H908 C885 0.950 . S
H909 C887 0.950 . S
C910 C911 1.349 . S
C910 C912 1.327 . S
C910 H935 0.950 . S
C911 C910 1.349 . S
C911 C927 1.349 . S
C912 C910 1.327 . S
C912 C931 1.429 . S
C912 H936 0.950 . S
C913 C930 1.574 . S
C913 C932 1.368 . S
C913 H937 0.949 . S
H914 C918 0.949 . S
C915 C916 1.349 . S
C915 C917 1.327 . S
C915 H938 0.950 . S
C916 C915 1.349 . S
C916 C928 1.349 . S
C917 C915 1.327 . S
C917 C933 1.429 . S
C917 H939 0.950 . S
C918 H914 0.949 . S
C918 C926 1.574 . S
C918 C934 1.368 . S
H919 C927 0.950 . S
H920 C925 0.950 . S
H921 C926 0.949 . S
H922 C928 0.950 . S
H923 C929 0.950 . S
H924 C930 0.949 . S
C925 H920 0.950 . S
C925 C927 1.327 . S
C925 C931 1.429 . S
C926 C918 1.574 . S
C926 H921 0.949 . S
C926 C932 1.368 . S
C927 C911 1.349 . S
C927 H919 0.950 . S
C927 C925 1.327 . S
C928 C916 1.349 . S
C928 H922 0.950 . S
C928 C929 1.327 . S
C929 H923 0.950 . S
C929 C928 1.327 . S
C929 C933 1.429 . S
C930 C913 1.574 . S
C930 H924 0.949 . S
C930 C934 1.368 . S
C931 C912 1.429 . S
C931 C925 1.429 . S
C931 C932 1.523 . S
C932 C913 1.368 . S
C932 C926 1.368 . S
C932 C931 1.523 . S
C933 C917 1.429 . S
C933 C929 1.429 . S
C933 C934 1.523 . S
C934 C918 1.368 . S
C934 C930 1.368 . S
C934 C933 1.523 . S
H935 C910 0.950 . S
H936 C912 0.950 . S
H937 C913 0.949 . S
H938 C915 0.950 . S
H939 C917 0.950 . S
C940 C941 1.349 . S
C940 C942 1.327 . S
C940 H965 0.950 . S
C941 C940 1.349 . S
C941 C957 1.349 . S
C942 C940 1.327 . S
C942 C961 1.429 . S
C942 H966 0.950 . S
C943 C960 1.574 . S
C943 C962 1.368 . S
C943 H967 0.949 . S
H944 C948 0.949 . S
C945 C946 1.349 . S
C945 C947 1.327 . S
C945 H968 0.950 . S
C946 C945 1.349 . S
C946 C958 1.349 . S
C947 C945 1.327 . S
C947 C963 1.429 . S
C947 H969 0.950 . S
C948 H944 0.949 . S
C948 C956 1.574 . S
C948 C964 1.368 . S
H949 C957 0.950 . S
H950 C955 0.950 . S
H951 C956 0.949 . S
H952 C958 0.950 . S
H953 C959 0.950 . S
H954 C960 0.949 . S
C955 H950 0.950 . S
C955 C957 1.327 . S
C955 C961 1.429 . S
C956 C948 1.574 . S
C956 H951 0.949 . S
C956 C962 1.368 . S
C957 C941 1.349 . S
C957 H949 0.950 . S
C957 C955 1.327 . S
C958 C946 1.349 . S
C958 H952 0.950 . S
C958 C959 1.327 . S
C959 H953 0.950 . S
C959 C958 1.327 . S
C959 C963 1.429 . S
C960 C943 1.574 . S
C960 H954 0.949 . S
C960 C964 1.368 . S
C961 C942 1.429 . S
C961 C955 1.429 . S
C961 C962 1.523 . S
C962 C943 1.368 . S
C962 C956 1.368 . S
C962 C961 1.523 . S
C963 C947 1.429 . S
C963 C959 1.429 . S
C963 C964 1.523 . S
C964 C948 1.368 . S
C964 C960 1.368 . S
C964 C963 1.523 . S
H965 C940 0.950 . S
H966 C942 0.950 . S
H967 C943 0.949 . S
H968 C945 0.950 . S
H969 C947 0.950 . S
C970 C971 1.349 . S
C970 C972 1.327 . S
C970 H995 0.950 . S
C971 C970 1.349 . S
C971 C987 1.349 . S
C972 C970 1.327 . S
C972 C991 1.429 . S
C972 H996 0.950 . S
C973 C990 1.574 . S
C973 C992 1.368 . S
C973 H997 0.949 . S
H974 C978 0.949 . S
C975 C976 1.349 . S
C975 C977 1.327 . S
C975 H998 0.950 . S
C976 C975 1.349 . S
C976 C988 1.349 . S
C977 C975 1.327 . S
C977 C993 1.429 . S
C977 H999 0.950 . S
C978 H974 0.949 . S
C978 C986 1.574 . S
C978 C994 1.368 . S
H979 C987 0.950 . S
H980 C985 0.950 . S
H981 C986 0.949 . S
H982 C988 0.950 . S
H983 C989 0.950 . S
H984 C990 0.949 . S
C985 H980 0.950 . S
C985 C987 1.327 . S
C985 C991 1.429 . S
C986 C978 1.574 . S
C986 H981 0.949 . S
C986 C992 1.368 . S
C987 C971 1.349 . S
C987 H979 0.950 . S
C987 C985 1.327 . S
C988 C976 1.349 . S
C988 H982 0.950 . S
C988 C989 1.327 . S
C989 H983 0.950 . S
C989 C988 1.327 . S
C989 C993 1.429 . S
C990 C973 1.574 . S
C990 H984 0.949 . S
C990 C994 1.368 . S
C991 C972 1.429 . S
C991 C985 1.429 . S
C991 C992 1.523 . S
C992 C973 1.368 . S
C992 C986 1.368 . S
C992 C991 1.523 . S
C993 C977 1.429 . S
C993 C989 1.429 . S
C993 C994 1.523 . S
C994 C978 1.368 . S
C994 C990 1.368 . S
C994 C993 1.523 . S
H995 C970 0.950 . S
H996 C972 0.950 . S
H997 C973 0.949 . S
H998 C975 0.950 . S
H999 C977 0.950 . S
C1000 C1001 1.349 . S
C1000 C1002 1.327 . S
C1000 H1025 0.950 . S
C1001 C1000 1.349 . S
C1001 C1017 1.349 . S
C1002 C1000 1.327 . S
C1002 C1021 1.429 . S
C1002 H1026 0.950 . S
C1003 C1020 1.574 . S
C1003 C1022 1.368 . S
C1003 H1027 0.949 . S
H1004 C1008 0.949 . S
C1005 C1006 1.349 . S
C1005 C1007 1.327 . S
C1005 H1028 0.950 . S
C1006 C1005 1.349 . S
C1006 C1018 1.349 . S
C1007 C1005 1.327 . S
C1007 C1023 1.429 . S
C1007 H1029 0.950 . S
C1008 H1004 0.949 . S
C1008 C1016 1.574 . S
C1008 C1024 1.368 . S
H1009 C1017 0.950 . S
H1010 C1015 0.950 . S
H1011 C1016 0.949 . S
H1012 C1018 0.950 . S
H1013 C1019 0.950 . S
H1014 C1020 0.949 . S
C1015 H1010 0.950 . S
C1015 C1017 1.327 . S
C1015 C1021 1.429 . S
C1016 C1008 1.574 . S
C1016 H1011 0.949 . S
C1016 C1022 1.368 . S
C1017 C1001 1.349 . S
C1017 H1009 0.950 . S
C1017 C1015 1.327 . S
C1018 C1006 1.349 . S
C1018 H1012 0.950 . S
C1018 C1019 1.327 . S
C1019 H1013 0.950 . S
C1019 C1018 1.327 . S
C1019 C1023 1.429 . S
C1020 C1003 1.574 . S
C1020 H1014 0.949 . S
C1020 C1024 1.368 . S
C1021 C1002 1.429 . S
C1021 C1015 1.429 . S
C1021 C1022 1.523 . S
C1022 C1003 1.368 . S
C1022 C1016 1.368 . S
C1022 C1021 1.523 . S
C1023 C1007 1.429 . S
C1023 C1019 1.429 . S
C1023 C1024 1.523 . S
C1024 C1008 1.368 . S
C1024 C1020 1.368 . S
C1024 C1023 1.523 . S
H1025 C1000 0.950 . S
H1026 C1002 0.950 . S
H1027 C1003 0.949 . S
H1028 C1005 0.950 . S
H1029 C1007 0.950 . S
C1030 C1031 1.349 . S
C1030 C1032 1.327 . S
C1030 H1055 0.950 . S
C1031 C1030 1.349 . S
C1031 C1047 1.349 . S
C1032 C1030 1.327 . S
C1032 C1051 1.429 . S
C1032 H1056 0.950 . S
C1033 C1050 1.574 . S
C1033 C1052 1.368 . S
C1033 H1057 0.949 . S
H1034 C1038 0.949 . S
C1035 C1036 1.349 . S
C1035 C1037 1.327 . S
C1035 H1058 0.950 . S
C1036 C1035 1.349 . S
C1036 C1048 1.349 . S
C1037 C1035 1.327 . S
C1037 C1053 1.429 . S
C1037 H1059 0.950 . S
C1038 H1034 0.949 . S
C1038 C1046 1.574 . S
C1038 C1054 1.368 . S
H1039 C1047 0.950 . S
H1040 C1045 0.950 . S
H1041 C1046 0.949 . S
H1042 C1048 0.950 . S
H1043 C1049 0.950 . S
H1044 C1050 0.949 . S
C1045 H1040 0.950 . S
C1045 C1047 1.327 . S
C1045 C1051 1.429 . S
C1046 C1038 1.574 . S
C1046 H1041 0.949 . S
C1046 C1052 1.368 . S
C1047 C1031 1.349 . S
C1047 H1039 0.950 . S
C1047 C1045 1.327 . S
C1048 C1036 1.349 . S
C1048 H1042 0.950 . S
C1048 C1049 1.327 . S
C1049 H1043 0.950 . S
C1049 C1048 1.327 . S
C1049 C1053 1.429 . S
C1050 C1033 1.574 . S
C1050 H1044 0.949 . S
C1050 C1054 1.368 . S
C1051 C1032 1.429 . S
C1051 C1045 1.429 . S
C1051 C1052 1.523 . S
C1052 C1033 1.368 . S
C1052 C1046 1.368 . S
C1052 C1051 1.523 . S
C1053 C1037 1.429 . S
C1053 C1049 1.429 . S
C1053 C1054 1.523 . S
C1054 C1038 1.368 . S
C1054 C1050 1.368 . S
C1054 C1053 1.523 . S
H1055 C1030 0.950 . S
H1056 C1032 0.950 . S
H1057 C1033 0.949 . S
H1058 C1035 0.950 . S
H1059 C1037 0.950 . S
C1060 C1061 1.349 . S
C1060 C1062 1.327 . S
C1060 H1085 0.950 . S
C1061 C1060 1.349 . S
C1061 C1077 1.349 . S
C1062 C1060 1.327 . S
C1062 C1081 1.429 . S
C1062 H1086 0.950 . S
C1063 C1080 1.574 . S
C1063 C1082 1.368 . S
C1063 H1087 0.949 . S
H1064 C1068 0.949 . S
C1065 C1066 1.349 . S
C1065 C1067 1.327 . S
C1065 H1088 0.950 . S
C1066 C1065 1.349 . S
C1066 C1078 1.349 . S
C1067 C1065 1.327 . S
C1067 C1083 1.429 . S
C1067 H1089 0.950 . S
C1068 H1064 0.949 . S
C1068 C1076 1.574 . S
C1068 C1084 1.368 . S
H1069 C1077 0.950 . S
H1070 C1075 0.950 . S
H1071 C1076 0.949 . S
H1072 C1078 0.950 . S
H1073 C1079 0.950 . S
H1074 C1080 0.949 . S
C1075 H1070 0.950 . S
C1075 C1077 1.327 . S
C1075 C1081 1.429 . S
C1076 C1068 1.574 . S
C1076 H1071 0.949 . S
C1076 C1082 1.368 . S
C1077 C1061 1.349 . S
C1077 H1069 0.950 . S
C1077 C1075 1.327 . S
C1078 C1066 1.349 . S
C1078 H1072 0.950 . S
C1078 C1079 1.327 . S
C1079 H1073 0.950 . S
C1079 C1078 1.327 . S
C1079 C1083 1.429 . S
C1080 C1063 1.574 . S
C1080 H1074 0.949 . S
C1080 C1084 1.368 . S
C1081 C1062 1.429 . S
C1081 C1075 1.429 . S
C1081 C1082 1.523 . S
C1082 C1063 1.368 . S
C1082 C1076 1.368 . S
C1082 C1081 1.523 . S
C1083 C1067 1.429 . S
C1083 C1079 1.429 . S
C1083 C1084 1.523 . S
C1084 C1068 1.368 . S
C1084 C1080 1.368 . S
C1084 C1083 1.523 . S
H1085 C1060 0.950 . S
H1086 C1062 0.950 . S
H1087 C1063 0.949 . S
H1088 C1065 0.950 . S
H1089 C1067 0.950 . S
C1090 C1091 1.349 . S
C1090 C1092 1.327 . S
C1090 H1115 0.950 . S
C1091 C1090 1.349 . S
C1091 C1107 1.349 . S
C1092 C1090 1.327 . S
C1092 C1111 1.429 . S
C1092 H1116 0.950 . S
C1093 C1110 1.574 . S
C1093 C1112 1.368 . S
C1093 H1117 0.949 . S
H1094 C1098 0.949 . S
C1095 C1096 1.349 . S
C1095 C1097 1.327 . S
C1095 H1118 0.950 . S
C1096 C1095 1.349 . S
C1096 C1108 1.349 . S
C1097 C1095 1.327 . S
C1097 C1113 1.429 . S
C1097 H1119 0.950 . S
C1098 H1094 0.949 . S
C1098 C1106 1.574 . S
C1098 C1114 1.368 . S
H1099 C1107 0.950 . S
H1100 C1105 0.950 . S
H1101 C1106 0.949 . S
H1102 C1108 0.950 . S
H1103 C1109 0.950 . S
H1104 C1110 0.949 . S
C1105 H1100 0.950 . S
C1105 C1107 1.327 . S
C1105 C1111 1.429 . S
C1106 C1098 1.574 . S
C1106 H1101 0.949 . S
C1106 C1112 1.368 . S
C1107 C1091 1.349 . S
C1107 H1099 0.950 . S
C1107 C1105 1.327 . S
C1108 C1096 1.349 . S
C1108 H1102 0.950 . S
C1108 C1109 1.327 . S
C1109 H1103 0.950 . S
C1109 C1108 1.327 . S
C1109 C1113 1.429 . S
C1110 C1093 1.574 . S
C1110 H1104 0.949 . S
C1110 C1114 1.368 . S
C1111 C1092 1.429 . S
C1111 C1105 1.429 . S
C1111 C1112 1.523 . S
C1112 C1093 1.368 . S
C1112 C1106 1.368 . S
C1112 C1111 1.523 . S
C1113 C1097 1.429 . S
C1113 C1109 1.429 . S
C1113 C1114 1.523 . S
C1114 C1098 1.368 . S
C1114 C1110 1.368 . S
C1114 C1113 1.523 . S
H1115 C1090 0.950 . S
H1116 C1092 0.950 . S
H1117 C1093 0.949 . S
H1118 C1095 0.950 . S
H1119 C1097 0.950 . S
C1120 C1121 1.341 1_545 S
C1120 C1122 1.327 . S
C1120 H1145 0.950 . S
C1121 C1120 1.341 1_565 S
C1121 C1137 1.357 . S
C1122 C1120 1.327 . S
C1122 C1141 1.427 1_545 S
C1122 H1146 0.950 . S
C1123 C1140 1.574 . S
C1123 C1142 1.366 . S
C1123 H1147 0.949 . S
H1124 C1128 0.949 . S
C1125 C1126 1.341 1_565 S
C1125 C1127 1.327 . S
C1125 H1148 0.950 . S
C1126 C1125 1.341 1_545 S
C1126 C1138 1.357 . S
C1127 C1125 1.327 . S
C1127 C1143 1.427 1_565 S
C1127 H1149 0.950 . S
C1128 H1124 0.949 . S
C1128 C1136 1.574 . S
C1128 C1144 1.366 . S
H1129 C1137 0.950 . S
H1130 C1135 0.950 . S
H1131 C1136 0.949 . S
H1132 C1138 0.950 . S
H1133 C1139 0.950 . S
H1134 C1140 0.949 . S
C1135 H1130 0.950 . S
C1135 C1137 1.327 . S
C1135 C1141 1.430 . S
C1136 C1128 1.574 . S
C1136 H1131 0.949 . S
C1136 C1142 1.370 1_545 S
C1137 C1121 1.357 . S
C1137 H1129 0.950 . S
C1137 C1135 1.327 . S
C1138 C1126 1.357 . S
C1138 H1132 0.950 . S
C1138 C1139 1.327 . S
C1139 H1133 0.950 . S
C1139 C1138 1.327 . S
C1139 C1143 1.430 . S
C1140 C1123 1.574 . S
C1140 H1134 0.949 . S
C1140 C1144 1.370 1_565 S
C1141 C1122 1.427 1_565 S
C1141 C1135 1.430 . S
C1141 C1142 1.523 . S
C1142 C1123 1.366 . S
C1142 C1136 1.370 1_565 S
C1142 C1141 1.523 . S
C1143 C1127 1.427 1_545 S
C1143 C1139 1.430 . S
C1143 C1144 1.523 . S
C1144 C1128 1.366 . S
C1144 C1140 1.370 1_545 S
C1144 C1143 1.523 . S
H1145 C1120 0.950 . S
H1146 C1122 0.950 . S
H1147 C1123 0.949 . S
H1148 C1125 0.950 . S
H1149 C1127 0.950 . S
C1150 C1151 1.349 . S
C1150 C1152 1.327 . S
C1150 H1175 0.950 . S
C1151 C1150 1.349 . S
C1151 C1167 1.349 . S
C1152 C1150 1.327 . S
C1152 C1171 1.429 . S
C1152 H1176 0.950 . S
C1153 C1170 1.574 . S
C1153 C1172 1.368 1_655 S
C1153 H1177 0.949 . S
H1154 C1158 0.949 . S
C1155 C1156 1.349 . S
C1155 C1157 1.327 . S
C1155 H1178 0.950 . S
C1156 C1155 1.349 . S
C1156 C1168 1.349 . S
C1157 C1155 1.327 . S
C1157 C1173 1.429 . S
C1157 H1179 0.950 . S
C1158 H1154 0.949 . S
C1158 C1166 1.574 . S
C1158 C1174 1.368 1_455 S
H1159 C1167 0.950 . S
H1160 C1165 0.950 . S
H1161 C1166 0.949 . S
H1162 C1168 0.950 . S
H1163 C1169 0.950 . S
H1164 C1170 0.949 . S
C1165 H1160 0.950 . S
C1165 C1167 1.327 . S
C1165 C1171 1.429 . S
C1166 C1158 1.574 . S
C1166 H1161 0.949 . S
C1166 C1172 1.368 . S
C1167 C1151 1.349 . S
C1167 H1159 0.950 . S
C1167 C1165 1.327 . S
C1168 C1156 1.349 . S
C1168 H1162 0.950 . S
C1168 C1169 1.327 . S
C1169 H1163 0.950 . S
C1169 C1168 1.327 . S
C1169 C1173 1.429 . S
C1170 C1153 1.574 . S
C1170 H1164 0.949 . S
C1170 C1174 1.368 . S
C1171 C1152 1.429 . S
C1171 C1165 1.429 . S
C1171 C1172 1.523 . S
C1172 C1153 1.368 1_455 S
C1172 C1166 1.368 . S
C1172 C1171 1.523 . S
C1173 C1157 1.429 . S
C1173 C1169 1.429 . S
C1173 C1174 1.523 . S
C1174 C1158 1.368 1_655 S
C1174 C1170 1.368 . S
C1174 C1173 1.523 . S
H1175 C1150 0.950 . S
H1176 C1152 0.950 . S
H1177 C1153 0.949 . S
H1178 C1155 0.950 . S
H1179 C1157 0.950 . S
C1180 C1181 1.349 . S
C1180 C1182 1.327 . S
C1180 H1205 0.950 . S
C1181 C1180 1.349 . S
C1181 C1197 1.349 . S
C1182 C1180 1.327 . S
C1182 C1201 1.429 . S
C1182 H1206 0.950 . S
C1183 C1200 1.574 1_556 S
C1183 C1202 1.368 . S
C1183 H1207 0.949 . S
H1184 C1188 0.949 . S
C1185 C1186 1.349 . S
C1185 C1187 1.327 . S
C1185 H1208 0.950 . S
C1186 C1185 1.349 . S
C1186 C1198 1.349 . S
C1187 C1185 1.327 . S
C1187 C1203 1.429 . S
C1187 H1209 0.950 . S
C1188 H1184 0.949 . S
C1188 C1196 1.574 1_554 S
C1188 C1204 1.368 . S
H1189 C1197 0.950 . S
H1190 C1195 0.950 . S
H1191 C1196 0.949 . S
H1192 C1198 0.950 . S
H1193 C1199 0.950 . S
H1194 C1200 0.949 . S
C1195 H1190 0.950 . S
C1195 C1197 1.327 . S
C1195 C1201 1.429 . S
C1196 C1188 1.574 1_556 S
C1196 H1191 0.949 . S
C1196 C1202 1.368 . S
C1197 C1181 1.349 . S
C1197 H1189 0.950 . S
C1197 C1195 1.327 . S
C1198 C1186 1.349 . S
C1198 H1192 0.950 . S
C1198 C1199 1.327 . S
C1199 H1193 0.950 . S
C1199 C1198 1.327 . S
C1199 C1203 1.429 . S
C1200 C1183 1.574 1_554 S
C1200 H1194 0.949 . S
C1200 C1204 1.368 . S
C1201 C1182 1.429 . S
C1201 C1195 1.429 . S
C1201 C1202 1.523 . S
C1202 C1183 1.368 . S
C1202 C1196 1.368 . S
C1202 C1201 1.523 . S
C1203 C1187 1.429 . S
C1203 C1199 1.429 . S
C1203 C1204 1.523 . S
C1204 C1188 1.368 . S
C1204 C1200 1.368 . S
C1204 C1203 1.523 . S
H1205 C1180 0.950 . S
H1206 C1182 0.950 . S
H1207 C1183 0.949 . S
H1208 C1185 0.950 . S
H1209 C1187 0.950 . S
C1210 C1211 1.357 . S
C1210 C1212 1.327 . S
C1210 H1235 0.950 . S
C1211 C1210 1.357 . S
C1211 C1227 1.341 1_565 S
C1212 C1210 1.327 . S
C1212 C1231 1.430 . S
C1212 H1236 0.950 . S
C1213 C1230 1.574 1_554 S
C1213 C1232 1.370 1_445 S
C1213 H1237 0.949 . S
H1214 C1218 0.949 . S
C1215 C1216 1.357 . S
C1215 C1217 1.327 . S
C1215 H1238 0.950 . S
C1216 C1215 1.357 . S
C1216 C1228 1.341 1_545 S
C1217 C1215 1.327 . S
C1217 C1233 1.430 . S
C1217 H1239 0.950 . S
C1218 H1214 0.949 . S
C1218 C1226 1.574 1_556 S
C1218 C1234 1.370 1_665 S
H1219 C1227 0.950 . S
H1220 C1225 0.950 . S
H1221 C1226 0.949 . S
H1222 C1228 0.950 . S
H1223 C1229 0.950 . S
H1224 C1230 0.949 . S
C1225 H1220 0.950 . S
C1225 C1227 1.327 . S
C1225 C1231 1.427 1_545 S
C1226 C1218 1.574 1_554 S
C1226 H1221 0.949 . S
C1226 C1232 1.366 . S
C1227 C1211 1.341 1_545 S
C1227 H1219 0.950 . S
C1227 C1225 1.327 . S
C1228 C1216 1.341 1_565 S
C1228 H1222 0.950 . S
C1228 C1229 1.327 . S
C1229 H1223 0.950 . S
C1229 C1228 1.327 . S
C1229 C1233 1.427 1_565 S
C1230 C1213 1.574 1_556 S
C1230 H1224 0.949 . S
C1230 C1234 1.366 . S
C1231 C1212 1.430 . S
C1231 C1225 1.427 1_565 S
C1231 C1232 1.523 . S
C1232 C1213 1.370 1_665 S
C1232 C1226 1.366 . S
C1232 C1231 1.523 . S
C1233 C1217 1.430 . S
C1233 C1229 1.427 1_545 S
C1233 C1234 1.523 . S
C1234 C1218 1.370 1_445 S
C1234 C1230 1.366 . S
C1234 C1233 1.523 . S
H1235 C1210 0.950 . S
H1236 C1212 0.950 . S
H1237 C1213 0.949 . S
H1238 C1215 0.950 . S
H1239 C1217 0.950 . S
C1240 C1241 1.357 . S
C1240 C1242 1.327 . S
C1240 H1265 0.950 . S
C1241 C1240 1.357 . S
C1241 C1257 1.341 1_545 S
C1242 C1240 1.327 . S
C1242 C1261 1.430 . S
C1242 H1266 0.950 . S
C1243 C1260 1.574 . S
C1243 C1262 1.370 1_565 S
C1243 H1267 0.949 . S
H1244 C1248 0.949 . S
C1245 C1246 1.357 . S
C1245 C1247 1.327 . S
C1245 H1268 0.950 . S
C1246 C1245 1.357 . S
C1246 C1258 1.341 1_565 S
C1247 C1245 1.327 . S
C1247 C1263 1.430 . S
C1247 H1269 0.950 . S
C1248 H1244 0.949 . S
C1248 C1256 1.574 . S
C1248 C1264 1.370 1_545 S
H1249 C1257 0.950 . S
H1250 C1255 0.950 . S
H1251 C1256 0.949 . S
H1252 C1258 0.950 . S
H1253 C1259 0.950 . S
H1254 C1260 0.949 . S
C1255 H1250 0.950 . S
C1255 C1257 1.327 . S
C1255 C1261 1.427 1_565 S
C1256 C1248 1.574 . S
C1256 H1251 0.949 . S
C1256 C1262 1.366 . S
C1257 C1241 1.341 1_565 S
C1257 H1249 0.950 . S
C1257 C1255 1.327 . S
C1258 C1246 1.341 1_545 S
C1258 H1252 0.950 . S
C1258 C1259 1.327 . S
C1259 H1253 0.950 . S
C1259 C1258 1.327 . S
C1259 C1263 1.427 1_545 S
C1260 C1243 1.574 . S
C1260 H1254 0.949 . S
C1260 C1264 1.366 . S
C1261 C1242 1.430 . S
C1261 C1255 1.427 1_545 S
C1261 C1262 1.523 . S
C1262 C1243 1.370 1_545 S
C1262 C1256 1.366 . S
C1262 C1261 1.523 . S
C1263 C1247 1.430 . S
C1263 C1259 1.427 1_565 S
C1263 C1264 1.523 . S
C1264 C1248 1.370 1_565 S
C1264 C1260 1.366 . S
C1264 C1263 1.523 . S
H1265 C1240 0.950 . S
H1266 C1242 0.950 . S
H1267 C1243 0.949 . S
H1268 C1245 0.950 . S
H1269 C1247 0.950 . S
C1270 C1271 1.349 . S
C1270 C1272 1.327 . S
C1270 H1295 0.950 . S
C1271 C1270 1.349 . S
C1271 C1287 1.349 . S
C1272 C1270 1.327 . S
C1272 C1291 1.429 . S
C1272 H1296 0.950 . S
C1273 C1290 1.574 . S
C1273 C1292 1.368 . S
C1273 H1297 0.949 . S
H1274 C1278 0.949 . S
C1275 C1276 1.349 . S
C1275 C1277 1.327 . S
C1275 H1298 0.950 . S
C1276 C1275 1.349 . S
C1276 C1288 1.349 . S
C1277 C1275 1.327 . S
C1277 C1293 1.429 . S
C1277 H1299 0.950 . S
C1278 H1274 0.949 . S
C1278 C1286 1.574 . S
C1278 C1294 1.368 . S
H1279 C1287 0.950 . S
H1280 C1285 0.950 . S
H1281 C1286 0.949 . S
H1282 C1288 0.950 . S
H1283 C1289 0.950 . S
H1284 C1290 0.949 . S
C1285 H1280 0.950 . S
C1285 C1287 1.327 . S
C1285 C1291 1.429 . S
C1286 C1278 1.574 . S
C1286 H1281 0.949 . S
C1286 C1292 1.368 1_655 S
C1287 C1271 1.349 . S
C1287 H1279 0.950 . S
C1287 C1285 1.327 . S
C1288 C1276 1.349 . S
C1288 H1282 0.950 . S
C1288 C1289 1.327 . S
C1289 H1283 0.950 . S
C1289 C1288 1.327 . S
C1289 C1293 1.429 . S
C1290 C1273 1.574 . S
C1290 H1284 0.949 . S
C1290 C1294 1.368 1_455 S
C1291 C1272 1.429 . S
C1291 C1285 1.429 . S
C1291 C1292 1.523 . S
C1292 C1273 1.368 . S
C1292 C1286 1.368 1_455 S
C1292 C1291 1.523 . S
C1293 C1277 1.429 . S
C1293 C1289 1.429 . S
C1293 C1294 1.523 . S
C1294 C1278 1.368 . S
C1294 C1290 1.368 1_655 S
C1294 C1293 1.523 . S
H1295 C1270 0.950 . S
H1296 C1272 0.950 . S
H1297 C1273 0.949 . S
H1298 C1275 0.950 . S
H1299 C1277 0.950 . S
C1300 C1301 1.349 . S
C1300 C1302 1.327 . S
C1300 H1325 0.950 . S
C1301 C1300 1.349 . S
C1301 C1317 1.349 . S
C1302 C1300 1.327 . S
C1302 C1321 1.429 . S
C1302 H1326 0.950 . S
C1303 C1320 1.574 1_556 S
C1303 C1322 1.368 . S
C1303 H1327 0.949 . S
H1304 C1308 0.949 . S
C1305 C1306 1.349 . S
C1305 C1307 1.327 . S
C1305 H1328 0.950 . S
C1306 C1305 1.349 . S
C1306 C1318 1.349 . S
C1307 C1305 1.327 . S
C1307 C1323 1.429 . S
C1307 H1329 0.950 . S
C1308 H1304 0.949 . S
C1308 C1316 1.574 1_554 S
C1308 C1324 1.368 . S
H1309 C1317 0.950 . S
H1310 C1315 0.950 . S
H1311 C1316 0.949 . S
H1312 C1318 0.950 . S
H1313 C1319 0.950 . S
H1314 C1320 0.949 . S
C1315 H1310 0.950 . S
C1315 C1317 1.327 . S
C1315 C1321 1.429 . S
C1316 C1308 1.574 1_556 S
C1316 H1311 0.949 . S
C1316 C1322 1.368 . S
C1317 C1301 1.349 . S
C1317 H1309 0.950 . S
C1317 C1315 1.327 . S
C1318 C1306 1.349 . S
C1318 H1312 0.950 . S
C1318 C1319 1.327 . S
C1319 H1313 0.950 . S
C1319 C1318 1.327 . S
C1319 C1323 1.429 . S
C1320 C1303 1.574 1_554 S
C1320 H1314 0.949 . S
C1320 C1324 1.368 . S
C1321 C1302 1.429 . S
C1321 C1315 1.429 . S
C1321 C1322 1.523 . S
C1322 C1303 1.368 . S
C1322 C1316 1.368 . S
C1322 C1321 1.523 . S
C1323 C1307 1.429 . S
C1323 C1319 1.429 . S
C1323 C1324 1.523 . S
C1324 C1308 1.368 . S
C1324 C1320 1.368 . S
C1324 C1323 1.523 . S
H1325 C1300 0.950 . S
H1326 C1302 0.950 . S
H1327 C1303 0.949 . S
H1328 C1305 0.950 . S
H1329 C1307 0.950 . S
C1330 C1331 1.349 . S
C1330 C1332 1.327 . S
C1330 H1355 0.950 . S
C1331 C1330 1.349 . S
C1331 C1347 1.349 . S
C1332 C1330 1.327 . S
C1332 C1351 1.429 . S
C1332 H1356 0.950 . S
C1333 C1350 1.574 . S
C1333 C1352 1.368 . S
C1333 H1357 0.949 . S
H1334 C1338 0.949 . S
C1335 C1336 1.349 . S
C1335 C1337 1.327 . S
C1335 H1358 0.950 . S
C1336 C1335 1.349 . S
C1336 C1348 1.349 . S
C1337 C1335 1.327 . S
C1337 C1353 1.429 . S
C1337 H1359 0.950 . S
C1338 H1334 0.949 . S
C1338 C1346 1.574 . S
C1338 C1354 1.368 . S
H1339 C1347 0.950 . S
H1340 C1345 0.950 . S
H1341 C1346 0.949 . S
H1342 C1348 0.950 . S
H1343 C1349 0.950 . S
H1344 C1350 0.949 . S
C1345 H1340 0.950 . S
C1345 C1347 1.327 . S
C1345 C1351 1.429 . S
C1346 C1338 1.574 . S
C1346 H1341 0.949 . S
C1346 C1352 1.368 . S
C1347 C1331 1.349 . S
C1347 H1339 0.950 . S
C1347 C1345 1.327 . S
C1348 C1336 1.349 . S
C1348 H1342 0.950 . S
C1348 C1349 1.327 . S
C1349 H1343 0.950 . S
C1349 C1348 1.327 . S
C1349 C1353 1.429 . S
C1350 C1333 1.574 . S
C1350 H1344 0.949 . S
C1350 C1354 1.368 . S
C1351 C1332 1.429 . S
C1351 C1345 1.429 . S
C1351 C1352 1.523 . S
C1352 C1333 1.368 . S
C1352 C1346 1.368 . S
C1352 C1351 1.523 . S
C1353 C1337 1.429 . S
C1353 C1349 1.429 . S
C1353 C1354 1.523 . S
C1354 C1338 1.368 . S
C1354 C1350 1.368 . S
C1354 C1353 1.523 . S
H1355 C1330 0.950 . S
H1356 C1332 0.950 . S
H1357 C1333 0.949 . S
H1358 C1335 0.950 . S
H1359 C1337 0.950 . S
C1360 C1361 1.349 . S
C1360 C1362 1.327 . S
C1360 H1385 0.950 . S
C1361 C1360 1.349 . S
C1361 C1377 1.349 . S
C1362 C1360 1.327 . S
C1362 C1381 1.429 . S
C1362 H1386 0.950 . S
C1363 C1380 1.574 . S
C1363 C1382 1.368 . S
C1363 H1387 0.949 . S
H1364 C1368 0.949 . S
C1365 C1366 1.349 . S
C1365 C1367 1.327 . S
C1365 H1388 0.950 . S
C1366 C1365 1.349 . S
C1366 C1378 1.349 . S
C1367 C1365 1.327 . S
C1367 C1383 1.429 . S
C1367 H1389 0.950 . S
C1368 H1364 0.949 . S
C1368 C1376 1.574 . S
C1368 C1384 1.368 . S
H1369 C1377 0.950 . S
H1370 C1375 0.950 . S
H1371 C1376 0.949 . S
H1372 C1378 0.950 . S
H1373 C1379 0.950 . S
H1374 C1380 0.949 . S
C1375 H1370 0.950 . S
C1375 C1377 1.327 . S
C1375 C1381 1.429 . S
C1376 C1368 1.574 . S
C1376 H1371 0.949 . S
C1376 C1382 1.368 . S
C1377 C1361 1.349 . S
C1377 H1369 0.950 . S
C1377 C1375 1.327 . S
C1378 C1366 1.349 . S
C1378 H1372 0.950 . S
C1378 C1379 1.327 . S
C1379 H1373 0.950 . S
C1379 C1378 1.327 . S
C1379 C1383 1.429 . S
C1380 C1363 1.574 . S
C1380 H1374 0.949 . S
C1380 C1384 1.368 . S
C1381 C1362 1.429 . S
C1381 C1375 1.429 . S
C1381 C1382 1.523 . S
C1382 C1363 1.368 . S
C1382 C1376 1.368 . S
C1382 C1381 1.523 . S
C1383 C1367 1.429 . S
C1383 C1379 1.429 . S
C1383 C1384 1.523 . S
C1384 C1368 1.368 . S
C1384 C1380 1.368 . S
C1384 C1383 1.523 . S
H1385 C1360 0.950 . S
H1386 C1362 0.950 . S
H1387 C1363 0.949 . S
H1388 C1365 0.950 . S
H1389 C1367 0.950 . S
C1390 C1391 1.349 . S
C1390 C1392 1.327 . S
C1390 H1415 0.950 . S
C1391 C1390 1.349 . S
C1391 C1407 1.349 . S
C1392 C1390 1.327 . S
C1392 C1411 1.429 . S
C1392 H1416 0.950 . S
C1393 C1410 1.574 . S
C1393 C1412 1.368 1_655 S
C1393 H1417 0.949 . S
H1394 C1398 0.949 . S
C1395 C1396 1.349 . S
C1395 C1397 1.327 . S
C1395 H1418 0.950 . S
C1396 C1395 1.349 . S
C1396 C1408 1.349 . S
C1397 C1395 1.327 . S
C1397 C1413 1.429 . S
C1397 H1419 0.950 . S
C1398 H1394 0.949 . S
C1398 C1406 1.574 . S
C1398 C1414 1.368 1_455 S
H1399 C1407 0.950 . S
H1400 C1405 0.950 . S
H1401 C1406 0.949 . S
H1402 C1408 0.950 . S
H1403 C1409 0.950 . S
H1404 C1410 0.949 . S
C1405 H1400 0.950 . S
C1405 C1407 1.327 . S
C1405 C1411 1.429 . S
C1406 C1398 1.574 . S
C1406 H1401 0.949 . S
C1406 C1412 1.368 . S
C1407 C1391 1.349 . S
C1407 H1399 0.950 . S
C1407 C1405 1.327 . S
C1408 C1396 1.349 . S
C1408 H1402 0.950 . S
C1408 C1409 1.327 . S
C1409 H1403 0.950 . S
C1409 C1408 1.327 . S
C1409 C1413 1.429 . S
C1410 C1393 1.574 . S
C1410 H1404 0.949 . S
C1410 C1414 1.368 . S
C1411 C1392 1.429 . S
C1411 C1405 1.429 . S
C1411 C1412 1.523 . S
C1412 C1393 1.368 1_455 S
C1412 C1406 1.368 . S
C1412 C1411 1.523 . S
C1413 C1397 1.429 . S
C1413 C1409 1.429 . S
C1413 C1414 1.523 . S
C1414 C1398 1.368 1_655 S
C1414 C1410 1.368 . S
C1414 C1413 1.523 . S
H1415 C1390 0.950 . S
H1416 C1392 0.950 . S
H1417 C1393 0.949 . S
H1418 C1395 0.950 . S
H1419 C1397 0.950 . S
C1420 C1421 1.349 . S
C1420 C1422 1.327 . S
C1420 H1445 0.950 . S
C1421 C1420 1.349 . S
C1421 C1437 1.349 . S
C1422 C1420 1.327 . S
C1422 C1441 1.429 . S
C1422 H1446 0.950 . S
C1423 C1440 1.574 . S
C1423 C1442 1.368 . S
C1423 H1447 0.949 . S
H1424 C1428 0.949 . S
C1425 C1426 1.349 . S
C1425 C1427 1.327 . S
C1425 H1448 0.950 . S
C1426 C1425 1.349 . S
C1426 C1438 1.349 . S
C1427 C1425 1.327 . S
C1427 C1443 1.429 . S
C1427 H1449 0.950 . S
C1428 H1424 0.949 . S
C1428 C1436 1.574 . S
C1428 C1444 1.368 . S
H1429 C1437 0.950 . S
H1430 C1435 0.950 . S
H1431 C1436 0.949 . S
H1432 C1438 0.950 . S
H1433 C1439 0.950 . S
H1434 C1440 0.949 . S
C1435 H1430 0.950 . S
C1435 C1437 1.327 . S
C1435 C1441 1.429 . S
C1436 C1428 1.574 . S
C1436 H1431 0.949 . S
C1436 C1442 1.368 . S
C1437 C1421 1.349 . S
C1437 H1429 0.950 . S
C1437 C1435 1.327 . S
C1438 C1426 1.349 . S
C1438 H1432 0.950 . S
C1438 C1439 1.327 . S
C1439 H1433 0.950 . S
C1439 C1438 1.327 . S
C1439 C1443 1.429 . S
C1440 C1423 1.574 . S
C1440 H1434 0.949 . S
C1440 C1444 1.368 . S
C1441 C1422 1.429 . S
C1441 C1435 1.429 . S
C1441 C1442 1.523 . S
C1442 C1423 1.368 . S
C1442 C1436 1.368 . S
C1442 C1441 1.523 . S
C1443 C1427 1.429 . S
C1443 C1439 1.429 . S
C1443 C1444 1.523 . S
C1444 C1428 1.368 . S
C1444 C1440 1.368 . S
C1444 C1443 1.523 . S
H1445 C1420 0.950 . S
H1446 C1422 0.950 . S
H1447 C1423 0.949 . S
H1448 C1425 0.950 . S
H1449 C1427 0.950 . S
C1450 C1451 1.349 . S
C1450 C1452 1.327 . S
C1450 H1475 0.950 . S
C1451 C1450 1.349 . S
C1451 C1467 1.349 . S
C1452 C1450 1.327 . S
C1452 C1471 1.429 . S
C1452 H1476 0.950 . S
C1453 C1470 1.574 . S
C1453 C1472 1.368 . S
C1453 H1477 0.949 . S
H1454 C1458 0.949 . S
C1455 C1456 1.349 . S
C1455 C1457 1.327 . S
C1455 H1478 0.950 . S
C1456 C1455 1.349 . S
C1456 C1468 1.349 . S
C1457 C1455 1.327 . S
C1457 C1473 1.429 . S
C1457 H1479 0.950 . S
C1458 H1454 0.949 . S
C1458 C1466 1.574 . S
C1458 C1474 1.368 . S
H1459 C1467 0.950 . S
H1460 C1465 0.950 . S
H1461 C1466 0.949 . S
H1462 C1468 0.950 . S
H1463 C1469 0.950 . S
H1464 C1470 0.949 . S
C1465 H1460 0.950 . S
C1465 C1467 1.327 . S
C1465 C1471 1.429 . S
C1466 C1458 1.574 . S
C1466 H1461 0.949 . S
C1466 C1472 1.368 . S
C1467 C1451 1.349 . S
C1467 H1459 0.950 . S
C1467 C1465 1.327 . S
C1468 C1456 1.349 . S
C1468 H1462 0.950 . S
C1468 C1469 1.327 . S
C1469 H1463 0.950 . S
C1469 C1468 1.327 . S
C1469 C1473 1.429 . S
C1470 C1453 1.574 . S
C1470 H1464 0.949 . S
C1470 C1474 1.368 . S
C1471 C1452 1.429 . S
C1471 C1465 1.429 . S
C1471 C1472 1.523 . S
C1472 C1453 1.368 . S
C1472 C1466 1.368 . S
C1472 C1471 1.523 . S
C1473 C1457 1.429 . S
C1473 C1469 1.429 . S
C1473 C1474 1.523 . S
C1474 C1458 1.368 . S
C1474 C1470 1.368 . S
C1474 C1473 1.523 . S
H1475 C1450 0.950 . S
H1476 C1452 0.950 . S
H1477 C1453 0.949 . S
H1478 C1455 0.950 . S
H1479 C1457 0.950 . S
C1480 C1481 1.349 . S
C1480 C1482 1.327 . S
C1480 H1505 0.950 . S
C1481 C1480 1.349 . S
C1481 C1497 1.349 . S
C1482 C1480 1.327 . S
C1482 C1501 1.429 . S
C1482 H1506 0.950 . S
C1483 C1500 1.574 . S
C1483 C1502 1.368 . S
C1483 H1507 0.949 . S
H1484 C1488 0.949 . S
C1485 C1486 1.349 . S
C1485 C1487 1.327 . S
C1485 H1508 0.950 . S
C1486 C1485 1.349 . S
C1486 C1498 1.349 . S
C1487 C1485 1.327 . S
C1487 C1503 1.429 . S
C1487 H1509 0.950 . S
C1488 H1484 0.949 . S
C1488 C1496 1.574 . S
C1488 C1504 1.368 . S
H1489 C1497 0.950 . S
H1490 C1495 0.950 . S
H1491 C1496 0.949 . S
H1492 C1498 0.950 . S
H1493 C1499 0.950 . S
H1494 C1500 0.949 . S
C1495 H1490 0.950 . S
C1495 C1497 1.327 . S
C1495 C1501 1.429 . S
C1496 C1488 1.574 . S
C1496 H1491 0.949 . S
C1496 C1502 1.368 . S
C1497 C1481 1.349 . S
C1497 H1489 0.950 . S
C1497 C1495 1.327 . S
C1498 C1486 1.349 . S
C1498 H1492 0.950 . S
C1498 C1499 1.327 . S
C1499 H1493 0.950 . S
C1499 C1498 1.327 . S
C1499 C1503 1.429 . S
C1500 C1483 1.574 . S
C1500 H1494 0.949 . S
C1500 C1504 1.368 . S
C1501 C1482 1.429 . S
C1501 C1495 1.429 . S
C1501 C1502 1.523 . S
C1502 C1483 1.368 . S
C1502 C1496 1.368 . S
C1502 C1501 1.523 . S
C1503 C1487 1.429 . S
C1503 C1499 1.429 . S
C1503 C1504 1.523 . S
C1504 C1488 1.368 . S
C1504 C1500 1.368 . S
C1504 C1503 1.523 . S
H1505 C1480 0.950 . S
H1506 C1482 0.950 . S
H1507 C1483 0.949 . S
H1508 C1485 0.950 . S
H1509 C1487 0.950 . S
C1510 C1511 1.341 1_545 S
C1510 C1512 1.327 . S
C1510 H1535 0.950 . S
C1511 C1510 1.341 1_565 S
C1511 C1527 1.357 . S
C1512 C1510 1.327 . S
C1512 C1531 1.427 1_545 S
C1512 H1536 0.950 . S
C1513 C1530 1.574 . S
C1513 C1532 1.366 . S
C1513 H1537 0.949 . S
H1514 C1518 0.949 . S
C1515 C1516 1.341 1_565 S
C1515 C1517 1.327 . S
C1515 H1538 0.950 . S
C1516 C1515 1.341 1_545 S
C1516 C1528 1.357 . S
C1517 C1515 1.327 . S
C1517 C1533 1.427 1_565 S
C1517 H1539 0.950 . S
C1518 H1514 0.949 . S
C1518 C1526 1.574 . S
C1518 C1534 1.366 . S
H1519 C1527 0.950 . S
H1520 C1525 0.950 . S
H1521 C1526 0.949 . S
H1522 C1528 0.950 . S
H1523 C1529 0.950 . S
H1524 C1530 0.949 . S
C1525 H1520 0.950 . S
C1525 C1527 1.327 . S
C1525 C1531 1.430 . S
C1526 C1518 1.574 . S
C1526 H1521 0.949 . S
C1526 C1532 1.370 1_545 S
C1527 C1511 1.357 . S
C1527 H1519 0.950 . S
C1527 C1525 1.327 . S
C1528 C1516 1.357 . S
C1528 H1522 0.950 . S
C1528 C1529 1.327 . S
C1529 H1523 0.950 . S
C1529 C1528 1.327 . S
C1529 C1533 1.430 . S
C1530 C1513 1.574 . S
C1530 H1524 0.949 . S
C1530 C1534 1.370 1_565 S
C1531 C1512 1.427 1_565 S
C1531 C1525 1.430 . S
C1531 C1532 1.523 . S
C1532 C1513 1.366 . S
C1532 C1526 1.370 1_565 S
C1532 C1531 1.523 . S
C1533 C1517 1.427 1_545 S
C1533 C1529 1.430 . S
C1533 C1534 1.523 . S
C1534 C1518 1.366 . S
C1534 C1530 1.370 1_545 S
C1534 C1533 1.523 . S
H1535 C1510 0.950 . S
H1536 C1512 0.950 . S
H1537 C1513 0.949 . S
H1538 C1515 0.950 . S
H1539 C1517 0.950 . S
C1540 C1541 1.349 . S
C1540 C1542 1.327 . S
C1540 H1565 0.950 . S
C1541 C1540 1.349 . S
C1541 C1557 1.349 . S
C1542 C1540 1.327 . S
C1542 C1561 1.429 . S
C1542 H1566 0.950 . S
C1543 C1560 1.574 . S
C1543 C1562 1.368 . S
C1543 H1567 0.949 . S
H1544 C1548 0.949 . S
C1545 C1546 1.349 . S
C1545 C1547 1.327 . S
C1545 H1568 0.950 . S
C1546 C1545 1.349 . S
C1546 C1558 1.349 . S
C1547 C1545 1.327 . S
C1547 C1563 1.429 . S
C1547 H1569 0.950 . S
C1548 H1544 0.949 . S
C1548 C1556 1.574 . S
C1548 C1564 1.368 . S
H1549 C1557 0.950 . S
H1550 C1555 0.950 . S
H1551 C1556 0.949 . S
H1552 C1558 0.950 . S
H1553 C1559 0.950 . S
H1554 C1560 0.949 . S
C1555 H1550 0.950 . S
C1555 C1557 1.327 . S
C1555 C1561 1.429 . S
C1556 C1548 1.574 . S
C1556 H1551 0.949 . S
C1556 C1562 1.368 . S
C1557 C1541 1.349 . S
C1557 H1549 0.950 . S
C1557 C1555 1.327 . S
C1558 C1546 1.349 . S
C1558 H1552 0.950 . S
C1558 C1559 1.327 . S
C1559 H1553 0.950 . S
C1559 C1558 1.327 . S
C1559 C1563 1.429 . S
C1560 C1543 1.574 . S
C1560 H1554 0.949 . S
C1560 C1564 1.368 . S
C1561 C1542 1.429 . S
C1561 C1555 1.429 . S
C1561 C1562 1.523 . S
C1562 C1543 1.368 . S
C1562 C1556 1.368 . S
C1562 C1561 1.523 . S
C1563 C1547 1.429 . S
C1563 C1559 1.429 . S
C1563 C1564 1.523 . S
C1564 C1548 1.368 . S
C1564 C1560 1.368 . S
C1564 C1563 1.523 . S
H1565 C1540 0.950 . S
H1566 C1542 0.950 . S
H1567 C1543 0.949 . S
H1568 C1545 0.950 . S
H1569 C1547 0.950 . S
C1570 C1571 1.349 . S
C1570 C1572 1.327 . S
C1570 H1595 0.950 . S
C1571 C1570 1.349 . S
C1571 C1587 1.349 . S
C1572 C1570 1.327 . S
C1572 C1591 1.429 . S
C1572 H1596 0.950 . S
C1573 C1590 1.574 1_554 S
C1573 C1592 1.368 . S
C1573 H1597 0.949 . S
H1574 C1578 0.949 . S
C1575 C1576 1.349 . S
C1575 C1577 1.327 . S
C1575 H1598 0.950 . S
C1576 C1575 1.349 . S
C1576 C1588 1.349 . S
C1577 C1575 1.327 . S
C1577 C1593 1.429 . S
C1577 H1599 0.950 . S
C1578 H1574 0.949 . S
C1578 C1586 1.574 1_556 S
C1578 C1594 1.368 . S
H1579 C1587 0.950 . S
H1580 C1585 0.950 . S
H1581 C1586 0.949 . S
H1582 C1588 0.950 . S
H1583 C1589 0.950 . S
H1584 C1590 0.949 . S
C1585 H1580 0.950 . S
C1585 C1587 1.327 . S
C1585 C1591 1.429 . S
C1586 C1578 1.574 1_554 S
C1586 H1581 0.949 . S
C1586 C1592 1.368 . S
C1587 C1571 1.349 . S
C1587 H1579 0.950 . S
C1587 C1585 1.327 . S
C1588 C1576 1.349 . S
C1588 H1582 0.950 . S
C1588 C1589 1.327 . S
C1589 H1583 0.950 . S
C1589 C1588 1.327 . S
C1589 C1593 1.429 . S
C1590 C1573 1.574 1_556 S
C1590 H1584 0.949 . S
C1590 C1594 1.368 . S
C1591 C1572 1.429 . S
C1591 C1585 1.429 . S
C1591 C1592 1.523 . S
C1592 C1573 1.368 . S
C1592 C1586 1.368 . S
C1592 C1591 1.523 . S
C1593 C1577 1.429 . S
C1593 C1589 1.429 . S
C1593 C1594 1.523 . S
C1594 C1578 1.368 . S
C1594 C1590 1.368 . S
C1594 C1593 1.523 . S
H1595 C1570 0.950 . S
H1596 C1572 0.950 . S
H1597 C1573 0.949 . S
H1598 C1575 0.950 . S
H1599 C1577 0.950 . S
C1600 C1601 1.349 . S
C1600 C1602 1.327 . S
C1600 H1625 0.950 . S
C1601 C1600 1.349 . S
C1601 C1617 1.349 1_545 S
C1602 C1600 1.327 . S
C1602 C1621 1.429 . S
C1602 H1626 0.950 . S
C1603 C1620 1.574 . S
C1603 C1622 1.368 1_565 S
C1603 H1627 0.949 . S
H1604 C1608 0.949 . S
C1605 C1606 1.349 1_565 S
C1605 C1607 1.327 . S
C1605 H1628 0.950 . S
C1606 C1605 1.349 1_545 S
C1606 C1618 1.349 . S
C1607 C1605 1.327 . S
C1607 C1623 1.429 1_565 S
C1607 H1629 0.950 . S
C1608 H1604 0.949 . S
C1608 C1616 1.574 . S
C1608 C1624 1.368 . S
H1609 C1617 0.950 . S
H1610 C1615 0.950 . S
H1611 C1616 0.949 . S
H1612 C1618 0.950 . S
H1613 C1619 0.950 . S
H1614 C1620 0.949 . S
C1615 H1610 0.950 . S
C1615 C1617 1.327 . S
C1615 C1621 1.429 1_565 S
C1616 C1608 1.574 . S
C1616 H1611 0.949 . S
C1616 C1622 1.368 . S
C1617 C1601 1.349 1_565 S
C1617 H1609 0.950 . S
C1617 C1615 1.327 . S
C1618 C1606 1.349 . S
C1618 H1612 0.950 . S
C1618 C1619 1.327 . S
C1619 H1613 0.950 . S
C1619 C1618 1.327 . S
C1619 C1623 1.429 . S
C1620 C1603 1.574 . S
C1620 H1614 0.949 . S
C1620 C1624 1.368 1_565 S
C1621 C1602 1.429 . S
C1621 C1615 1.429 1_545 S
C1621 C1622 1.523 . S
C1622 C1603 1.368 1_545 S
C1622 C1616 1.368 . S
C1622 C1621 1.523 . S
C1623 C1607 1.429 1_545 S
C1623 C1619 1.429 . S
C1623 C1624 1.523 . S
C1624 C1608 1.368 . S
C1624 C1620 1.368 1_545 S
C1624 C1623 1.523 . S
H1625 C1600 0.950 . S
H1626 C1602 0.950 . S
H1627 C1603 0.949 . S
H1628 C1605 0.950 . S
H1629 C1607 0.950 . S
C1630 C1631 1.349 . S
C1630 C1632 1.327 . S
C1630 H1655 0.950 . S
C1631 C1630 1.349 . S
C1631 C1647 1.349 . S
C1632 C1630 1.327 . S
C1632 C1651 1.429 . S
C1632 H1656 0.950 . S
C1633 C1650 1.574 . S
C1633 C1652 1.368 . S
C1633 H1657 0.949 . S
H1634 C1638 0.949 . S
C1635 C1636 1.349 . S
C1635 C1637 1.327 . S
C1635 H1658 0.950 . S
C1636 C1635 1.349 . S
C1636 C1648 1.349 . S
C1637 C1635 1.327 . S
C1637 C1653 1.429 . S
C1637 H1659 0.950 . S
C1638 H1634 0.949 . S
C1638 C1646 1.574 . S
C1638 C1654 1.368 . S
H1639 C1647 0.950 . S
H1640 C1645 0.950 . S
H1641 C1646 0.949 . S
H1642 C1648 0.950 . S
H1643 C1649 0.950 . S
H1644 C1650 0.949 . S
C1645 H1640 0.950 . S
C1645 C1647 1.327 . S
C1645 C1651 1.429 . S
C1646 C1638 1.574 . S
C1646 H1641 0.949 . S
C1646 C1652 1.368 . S
C1647 C1631 1.349 . S
C1647 H1639 0.950 . S
C1647 C1645 1.327 . S
C1648 C1636 1.349 . S
C1648 H1642 0.950 . S
C1648 C1649 1.327 . S
C1649 H1643 0.950 . S
C1649 C1648 1.327 . S
C1649 C1653 1.429 . S
C1650 C1633 1.574 . S
C1650 H1644 0.949 . S
C1650 C1654 1.368 . S
C1651 C1632 1.429 . S
C1651 C1645 1.429 . S
C1651 C1652 1.523 . S
C1652 C1633 1.368 . S
C1652 C1646 1.368 . S
C1652 C1651 1.523 . S
C1653 C1637 1.429 . S
C1653 C1649 1.429 . S
C1653 C1654 1.523 . S
C1654 C1638 1.368 . S
C1654 C1650 1.368 . S
C1654 C1653 1.523 . S
H1655 C1630 0.950 . S
H1656 C1632 0.950 . S
H1657 C1633 0.949 . S
H1658 C1635 0.950 . S
H1659 C1637 0.950 . S
C1660 C1661 1.349 . S
C1660 C1662 1.327 . S
C1660 H1685 0.950 . S
C1661 C1660 1.349 . S
C1661 C1677 1.349 . S
C1662 C1660 1.327 . S
C1662 C1681 1.429 . S
C1662 H1686 0.950 . S
C1663 C1680 1.574 . S
C1663 C1682 1.368 . S
C1663 H1687 0.949 . S
H1664 C1668 0.949 . S
C1665 C1666 1.349 . S
C1665 C1667 1.327 . S
C1665 H1688 0.950 . S
C1666 C1665 1.349 . S
C1666 C1678 1.349 . S
C1667 C1665 1.327 . S
C1667 C1683 1.429 . S
C1667 H1689 0.950 . S
C1668 H1664 0.949 . S
C1668 C1676 1.574 . S
C1668 C1684 1.368 . S
H1669 C1677 0.950 . S
H1670 C1675 0.950 . S
H1671 C1676 0.949 . S
H1672 C1678 0.950 . S
H1673 C1679 0.950 . S
H1674 C1680 0.949 . S
C1675 H1670 0.950 . S
C1675 C1677 1.327 . S
C1675 C1681 1.429 . S
C1676 C1668 1.574 . S
C1676 H1671 0.949 . S
C1676 C1682 1.368 . S
C1677 C1661 1.349 . S
C1677 H1669 0.950 . S
C1677 C1675 1.327 . S
C1678 C1666 1.349 . S
C1678 H1672 0.950 . S
C1678 C1679 1.327 . S
C1679 H1673 0.950 . S
C1679 C1678 1.327 . S
C1679 C1683 1.429 . S
C1680 C1663 1.574 . S
C1680 H1674 0.949 . S
C1680 C1684 1.368 . S
C1681 C1662 1.429 . S
C1681 C1675 1.429 . S
C1681 C1682 1.523 . S
C1682 C1663 1.368 . S
C1682 C1676 1.368 . S
C1682 C1681 1.523 . S
C1683 C1667 1.429 . S
C1683 C1679 1.429 . S
C1683 C1684 1.523 . S
C1684 C1668 1.368 . S
C1684 C1680 1.368 . S
C1684 C1683 1.523 . S
H1685 C1660 0.950 . S
H1686 C1662 0.950 . S
H1687 C1663 0.949 . S
H1688 C1665 0.950 . S
H1689 C1667 0.950 . S
C1690 C1691 1.349 . S
C1690 C1692 1.327 . S
C1690 H1715 0.950 . S
C1691 C1690 1.349 . S
C1691 C1707 1.349 1_545 S
C1692 C1690 1.327 . S
C1692 C1711 1.429 . S
C1692 H1716 0.950 . S
C1693 C1710 1.574 . S
C1693 C1712 1.368 1_565 S
C1693 H1717 0.949 . S
H1694 C1698 0.949 . S
C1695 C1696 1.349 1_565 S
C1695 C1697 1.327 . S
C1695 H1718 0.950 . S
C1696 C1695 1.349 1_545 S
C1696 C1708 1.349 . S
C1697 C1695 1.327 . S
C1697 C1713 1.429 1_565 S
C1697 H1719 0.950 . S
C1698 H1694 0.949 . S
C1698 C1706 1.574 . S
C1698 C1714 1.368 . S
H1699 C1707 0.950 . S
H1700 C1705 0.950 . S
H1701 C1706 0.949 . S
H1702 C1708 0.950 . S
H1703 C1709 0.950 . S
H1704 C1710 0.949 . S
C1705 H1700 0.950 . S
C1705 C1707 1.327 . S
C1705 C1711 1.429 1_565 S
C1706 C1698 1.574 . S
C1706 H1701 0.949 . S
C1706 C1712 1.368 . S
C1707 C1691 1.349 1_565 S
C1707 H1699 0.950 . S
C1707 C1705 1.327 . S
C1708 C1696 1.349 . S
C1708 H1702 0.950 . S
C1708 C1709 1.327 . S
C1709 H1703 0.950 . S
C1709 C1708 1.327 . S
C1709 C1713 1.429 . S
C1710 C1693 1.574 . S
C1710 H1704 0.949 . S
C1710 C1714 1.368 1_565 S
C1711 C1692 1.429 . S
C1711 C1705 1.429 1_545 S
C1711 C1712 1.523 . S
C1712 C1693 1.368 1_545 S
C1712 C1706 1.368 . S
C1712 C1711 1.523 . S
C1713 C1697 1.429 1_545 S
C1713 C1709 1.429 . S
C1713 C1714 1.523 . S
C1714 C1698 1.368 . S
C1714 C1710 1.368 1_545 S
C1714 C1713 1.523 . S
H1715 C1690 0.950 . S
H1716 C1692 0.950 . S
H1717 C1693 0.949 . S
H1718 C1695 0.950 . S
H1719 C1697 0.950 . S
C1720 C1721 1.349 . S
C1720 C1722 1.327 . S
C1720 H1745 0.950 . S
C1721 C1720 1.349 . S
C1721 C1737 1.349 1_565 S
C1722 C1720 1.327 . S
C1722 C1741 1.429 . S
C1722 H1746 0.950 . S
C1723 C1740 1.574 . S
C1723 C1742 1.368 1_545 S
C1723 H1747 0.949 . S
H1724 C1728 0.949 . S
C1725 C1726 1.349 1_545 S
C1725 C1727 1.327 . S
C1725 H1748 0.950 . S
C1726 C1725 1.349 1_565 S
C1726 C1738 1.349 . S
C1727 C1725 1.327 . S
C1727 C1743 1.429 1_545 S
C1727 H1749 0.950 . S
C1728 H1724 0.949 . S
C1728 C1736 1.574 . S
C1728 C1744 1.368 . S
H1729 C1737 0.950 . S
H1730 C1735 0.950 . S
H1731 C1736 0.949 . S
H1732 C1738 0.950 . S
H1733 C1739 0.950 . S
H1734 C1740 0.949 . S
C1735 H1730 0.950 . S
C1735 C1737 1.327 . S
C1735 C1741 1.429 1_545 S
C1736 C1728 1.574 . S
C1736 H1731 0.949 . S
C1736 C1742 1.368 . S
C1737 C1721 1.349 1_545 S
C1737 H1729 0.950 . S
C1737 C1735 1.327 . S
C1738 C1726 1.349 . S
C1738 H1732 0.950 . S
C1738 C1739 1.327 . S
C1739 H1733 0.950 . S
C1739 C1738 1.327 . S
C1739 C1743 1.429 . S
C1740 C1723 1.574 . S
C1740 H1734 0.949 . S
C1740 C1744 1.368 1_545 S
C1741 C1722 1.429 . S
C1741 C1735 1.429 1_565 S
C1741 C1742 1.523 . S
C1742 C1723 1.368 1_565 S
C1742 C1736 1.368 . S
C1742 C1741 1.523 . S
C1743 C1727 1.429 1_565 S
C1743 C1739 1.429 . S
C1743 C1744 1.523 . S
C1744 C1728 1.368 . S
C1744 C1740 1.368 1_565 S
C1744 C1743 1.523 . S
H1745 C1720 0.950 . S
H1746 C1722 0.950 . S
H1747 C1723 0.949 . S
H1748 C1725 0.950 . S
H1749 C1727 0.950 . S
C1750 C1751 1.349 . S
C1750 C1752 1.327 . S
C1750 H1775 0.950 . S
C1751 C1750 1.349 . S
C1751 C1767 1.349 . S
C1752 C1750 1.327 . S
C1752 C1771 1.429 . S
C1752 H1776 0.950 . S
C1753 C1770 1.574 . S
C1753 C1772 1.368 . S
C1753 H1777 0.949 . S
H1754 C1758 0.949 . S
C1755 C1756 1.349 . S
C1755 C1757 1.327 . S
C1755 H1778 0.950 . S
C1756 C1755 1.349 . S
C1756 C1768 1.349 . S
C1757 C1755 1.327 . S
C1757 C1773 1.429 . S
C1757 H1779 0.950 . S
C1758 H1754 0.949 . S
C1758 C1766 1.574 . S
C1758 C1774 1.368 . S
H1759 C1767 0.950 . S
H1760 C1765 0.950 . S
H1761 C1766 0.949 . S
H1762 C1768 0.950 . S
H1763 C1769 0.950 . S
H1764 C1770 0.949 . S
C1765 H1760 0.950 . S
C1765 C1767 1.327 . S
C1765 C1771 1.429 . S
C1766 C1758 1.574 . S
C1766 H1761 0.949 . S
C1766 C1772 1.368 . S
C1767 C1751 1.349 . S
C1767 H1759 0.950 . S
C1767 C1765 1.327 . S
C1768 C1756 1.349 . S
C1768 H1762 0.950 . S
C1768 C1769 1.327 . S
C1769 H1763 0.950 . S
C1769 C1768 1.327 . S
C1769 C1773 1.429 . S
C1770 C1753 1.574 . S
C1770 H1764 0.949 . S
C1770 C1774 1.368 . S
C1771 C1752 1.429 . S
C1771 C1765 1.429 . S
C1771 C1772 1.523 . S
C1772 C1753 1.368 . S
C1772 C1766 1.368 . S
C1772 C1771 1.523 . S
C1773 C1757 1.429 . S
C1773 C1769 1.429 . S
C1773 C1774 1.523 . S
C1774 C1758 1.368 . S
C1774 C1770 1.368 . S
C1774 C1773 1.523 . S
H1775 C1750 0.950 . S
H1776 C1752 0.950 . S
H1777 C1753 0.949 . S
H1778 C1755 0.950 . S
H1779 C1757 0.950 . S
C1780 C1781 1.349 . S
C1780 C1782 1.327 . S
C1780 H1805 0.950 . S
C1781 C1780 1.349 . S
C1781 C1797 1.349 . S
C1782 C1780 1.327 . S
C1782 C1801 1.429 . S
C1782 H1806 0.950 . S
C1783 C1800 1.574 . S
C1783 C1802 1.368 . S
C1783 H1807 0.949 . S
H1784 C1788 0.949 . S
C1785 C1786 1.349 . S
C1785 C1787 1.327 . S
C1785 H1808 0.950 . S
C1786 C1785 1.349 . S
C1786 C1798 1.349 . S
C1787 C1785 1.327 . S
C1787 C1803 1.429 . S
C1787 H1809 0.950 . S
C1788 H1784 0.949 . S
C1788 C1796 1.574 . S
C1788 C1804 1.368 . S
H1789 C1797 0.950 . S
H1790 C1795 0.950 . S
H1791 C1796 0.949 . S
H1792 C1798 0.950 . S
H1793 C1799 0.950 . S
H1794 C1800 0.949 . S
C1795 H1790 0.950 . S
C1795 C1797 1.327 . S
C1795 C1801 1.429 . S
C1796 C1788 1.574 . S
C1796 H1791 0.949 . S
C1796 C1802 1.368 . S
C1797 C1781 1.349 . S
C1797 H1789 0.950 . S
C1797 C1795 1.327 . S
C1798 C1786 1.349 . S
C1798 H1792 0.950 . S
C1798 C1799 1.327 . S
C1799 H1793 0.950 . S
C1799 C1798 1.327 . S
C1799 C1803 1.429 . S
C1800 C1783 1.574 . S
C1800 H1794 0.949 . S
C1800 C1804 1.368 . S
C1801 C1782 1.429 . S
C1801 C1795 1.429 . S
C1801 C1802 1.523 . S
C1802 C1783 1.368 . S
C1802 C1796 1.368 . S
C1802 C1801 1.523 . S
C1803 C1787 1.429 . S
C1803 C1799 1.429 . S
C1803 C1804 1.523 . S
C1804 C1788 1.368 . S
C1804 C1800 1.368 . S
C1804 C1803 1.523 . S
H1805 C1780 0.950 . S
H1806 C1782 0.950 . S
H1807 C1783 0.949 . S
H1808 C1785 0.950 . S
H1809 C1787 0.950 . S
C1810 C1811 1.349 1_545 S
C1810 C1812 1.327 . S
C1810 H1835 0.950 . S
C1811 C1810 1.349 1_565 S
C1811 C1827 1.349 . S
C1812 C1810 1.327 . S
C1812 C1831 1.429 1_545 S
C1812 H1836 0.950 . S
C1813 C1830 1.574 . S
C1813 C1832 1.368 . S
C1813 H1837 0.949 . S
H1814 C1818 0.949 . S
C1815 C1816 1.349 . S
C1815 C1817 1.327 . S
C1815 H1838 0.950 . S
C1816 C1815 1.349 . S
C1816 C1828 1.349 1_565 S
C1817 C1815 1.327 . S
C1817 C1833 1.429 . S
C1817 H1839 0.950 . S
C1818 H1814 0.949 . S
C1818 C1826 1.574 . S
C1818 C1834 1.368 1_545 S
H1819 C1827 0.950 . S
H1820 C1825 0.950 . S
H1821 C1826 0.949 . S
H1822 C1828 0.950 . S
H1823 C1829 0.950 . S
H1824 C1830 0.949 . S
C1825 H1820 0.950 . S
C1825 C1827 1.327 . S
C1825 C1831 1.429 . S
C1826 C1818 1.574 . S
C1826 H1821 0.949 . S
C1826 C1832 1.368 1_545 S
C1827 C1811 1.349 . S
C1827 H1819 0.950 . S
C1827 C1825 1.327 . S
C1828 C1816 1.349 1_545 S
C1828 H1822 0.950 . S
C1828 C1829 1.327 . S
C1829 H1823 0.950 . S
C1829 C1828 1.327 . S
C1829 C1833 1.429 1_545 S
C1830 C1813 1.574 . S
C1830 H1824 0.949 . S
C1830 C1834 1.368 . S
C1831 C1812 1.429 1_565 S
C1831 C1825 1.429 . S
C1831 C1832 1.523 . S
C1832 C1813 1.368 . S
C1832 C1826 1.368 1_565 S
C1832 C1831 1.523 . S
C1833 C1817 1.429 . S
C1833 C1829 1.429 1_565 S
C1833 C1834 1.523 . S
C1834 C1818 1.368 1_565 S
C1834 C1830 1.368 . S
C1834 C1833 1.523 . S
H1835 C1810 0.950 . S
H1836 C1812 0.950 . S
H1837 C1813 0.949 . S
H1838 C1815 0.950 . S
H1839 C1817 0.950 . S
C1840 C1841 1.349 . S
C1840 C1842 1.327 . S
C1840 H1865 0.950 . S
C1841 C1840 1.349 . S
C1841 C1857 1.349 . S
C1842 C1840 1.327 . S
C1842 C1861 1.429 . S
C1842 H1866 0.950 . S
C1843 C1860 1.574 . S
C1843 C1862 1.368 . S
C1843 H1867 0.949 . S
H1844 C1848 0.949 . S
C1845 C1846 1.349 . S
C1845 C1847 1.327 . S
C1845 H1868 0.950 . S
C1846 C1845 1.349 . S
C1846 C1858 1.349 . S
C1847 C1845 1.327 . S
C1847 C1863 1.429 . S
C1847 H1869 0.950 . S
C1848 H1844 0.949 . S
C1848 C1856 1.574 . S
C1848 C1864 1.368 . S
H1849 C1857 0.950 . S
H1850 C1855 0.950 . S
H1851 C1856 0.949 . S
H1852 C1858 0.950 . S
H1853 C1859 0.950 . S
H1854 C1860 0.949 . S
C1855 H1850 0.950 . S
C1855 C1857 1.327 . S
C1855 C1861 1.429 . S
C1856 C1848 1.574 . S
C1856 H1851 0.949 . S
C1856 C1862 1.368 . S
C1857 C1841 1.349 . S
C1857 H1849 0.950 . S
C1857 C1855 1.327 . S
C1858 C1846 1.349 . S
C1858 H1852 0.950 . S
C1858 C1859 1.327 . S
C1859 H1853 0.950 . S
C1859 C1858 1.327 . S
C1859 C1863 1.429 . S
C1860 C1843 1.574 . S
C1860 H1854 0.949 . S
C1860 C1864 1.368 . S
C1861 C1842 1.429 . S
C1861 C1855 1.429 . S
C1861 C1862 1.523 . S
C1862 C1843 1.368 . S
C1862 C1856 1.368 . S
C1862 C1861 1.523 . S
C1863 C1847 1.429 . S
C1863 C1859 1.429 . S
C1863 C1864 1.523 . S
C1864 C1848 1.368 . S
C1864 C1860 1.368 . S
C1864 C1863 1.523 . S
H1865 C1840 0.950 . S
H1866 C1842 0.950 . S
H1867 C1843 0.949 . S
H1868 C1845 0.950 . S
H1869 C1847 0.950 . S
C1870 C1871 1.349 . S
C1870 C1872 1.327 . S
C1870 H1895 0.950 . S
C1871 C1870 1.349 . S
C1871 C1887 1.349 . S
C1872 C1870 1.327 . S
C1872 C1891 1.429 . S
C1872 H1896 0.950 . S
C1873 C1890 1.574 . S
C1873 C1892 1.368 . S
C1873 H1897 0.949 . S
H1874 C1878 0.949 . S
C1875 C1876 1.349 . S
C1875 C1877 1.327 . S
C1875 H1898 0.950 . S
C1876 C1875 1.349 . S
C1876 C1888 1.349 . S
C1877 C1875 1.327 . S
C1877 C1893 1.429 . S
C1877 H1899 0.950 . S
C1878 H1874 0.949 . S
C1878 C1886 1.574 . S
C1878 C1894 1.368 . S
H1879 C1887 0.950 . S
H1880 C1885 0.950 . S
H1881 C1886 0.949 . S
H1882 C1888 0.950 . S
H1883 C1889 0.950 . S
H1884 C1890 0.949 . S
C1885 H1880 0.950 . S
C1885 C1887 1.327 . S
C1885 C1891 1.429 . S
C1886 C1878 1.574 . S
C1886 H1881 0.949 . S
C1886 C1892 1.368 . S
C1887 C1871 1.349 . S
C1887 H1879 0.950 . S
C1887 C1885 1.327 . S
C1888 C1876 1.349 . S
C1888 H1882 0.950 . S
C1888 C1889 1.327 . S
C1889 H1883 0.950 . S
C1889 C1888 1.327 . S
C1889 C1893 1.429 . S
C1890 C1873 1.574 . S
C1890 H1884 0.949 . S
C1890 C1894 1.368 . S
C1891 C1872 1.429 . S
C1891 C1885 1.429 . S
C1891 C1892 1.523 . S
C1892 C1873 1.368 . S
C1892 C1886 1.368 . S
C1892 C1891 1.523 . S
C1893 C1877 1.429 . S
C1893 C1889 1.429 . S
C1893 C1894 1.523 . S
C1894 C1878 1.368 . S
C1894 C1890 1.368 . S
C1894 C1893 1.523 . S
H1895 C1870 0.950 . S
H1896 C1872 0.950 . S
H1897 C1873 0.949 . S
H1898 C1875 0.950 . S
H1899 C1877 0.950 . S
C1900 C1901 1.349 . S
C1900 C1902 1.327 . S
C1900 H1925 0.950 . S
C1901 C1900 1.349 . S
C1901 C1917 1.349 . S
C1902 C1900 1.327 . S
C1902 C1921 1.429 . S
C1902 H1926 0.950 . S
C1903 C1920 1.574 . S
C1903 C1922 1.368 . S
C1903 H1927 0.949 . S
H1904 C1908 0.949 . S
C1905 C1906 1.349 . S
C1905 C1907 1.327 . S
C1905 H1928 0.950 . S
C1906 C1905 1.349 . S
C1906 C1918 1.349 . S
C1907 C1905 1.327 . S
C1907 C1923 1.429 . S
C1907 H1929 0.950 . S
C1908 H1904 0.949 . S
C1908 C1916 1.574 . S
C1908 C1924 1.368 . S
H1909 C1917 0.950 . S
H1910 C1915 0.950 . S
H1911 C1916 0.949 . S
H1912 C1918 0.950 . S
H1913 C1919 0.950 . S
H1914 C1920 0.949 . S
C1915 H1910 0.950 . S
C1915 C1917 1.327 . S
C1915 C1921 1.429 . S
C1916 C1908 1.574 . S
C1916 H1911 0.949 . S
C1916 C1922 1.368 . S
C1917 C1901 1.349 . S
C1917 H1909 0.950 . S
C1917 C1915 1.327 . S
C1918 C1906 1.349 . S
C1918 H1912 0.950 . S
C1918 C1919 1.327 . S
C1919 H1913 0.950 . S
C1919 C1918 1.327 . S
C1919 C1923 1.429 . S
C1920 C1903 1.574 . S
C1920 H1914 0.949 . S
C1920 C1924 1.368 . S
C1921 C1902 1.429 . S
C1921 C1915 1.429 . S
C1921 C1922 1.523 . S
C1922 C1903 1.368 . S
C1922 C1916 1.368 . S
C1922 C1921 1.523 . S
C1923 C1907 1.429 . S
C1923 C1919 1.429 . S
C1923 C1924 1.523 . S
C1924 C1908 1.368 . S
C1924 C1920 1.368 . S
C1924 C1923 1.523 . S
H1925 C1900 0.950 . S
H1926 C1902 0.950 . S
H1927 C1903 0.949 . S
H1928 C1905 0.950 . S
H1929 C1907 0.950 . S
C1930 C1931 1.349 . S
C1930 C1932 1.327 . S
C1930 H1955 0.950 . S
C1931 C1930 1.349 . S
C1931 C1947 1.349 . S
C1932 C1930 1.327 . S
C1932 C1951 1.429 . S
C1932 H1956 0.950 . S
C1933 C1950 1.574 . S
C1933 C1952 1.368 . S
C1933 H1957 0.949 . S
H1934 C1938 0.949 . S
C1935 C1936 1.349 . S
C1935 C1937 1.327 . S
C1935 H1958 0.950 . S
C1936 C1935 1.349 . S
C1936 C1948 1.349 . S
C1937 C1935 1.327 . S
C1937 C1953 1.429 . S
C1937 H1959 0.950 . S
C1938 H1934 0.949 . S
C1938 C1946 1.574 . S
C1938 C1954 1.368 . S
H1939 C1947 0.950 . S
H1940 C1945 0.950 . S
H1941 C1946 0.949 . S
H1942 C1948 0.950 . S
H1943 C1949 0.950 . S
H1944 C1950 0.949 . S
C1945 H1940 0.950 . S
C1945 C1947 1.327 . S
C1945 C1951 1.429 . S
C1946 C1938 1.574 . S
C1946 H1941 0.949 . S
C1946 C1952 1.368 . S
C1947 C1931 1.349 . S
C1947 H1939 0.950 . S
C1947 C1945 1.327 . S
C1948 C1936 1.349 . S
C1948 H1942 0.950 . S
C1948 C1949 1.327 . S
C1949 H1943 0.950 . S
C1949 C1948 1.327 . S
C1949 C1953 1.429 . S
C1950 C1933 1.574 . S
C1950 H1944 0.949 . S
C1950 C1954 1.368 . S
C1951 C1932 1.429 . S
C1951 C1945 1.429 . S
C1951 C1952 1.523 . S
C1952 C1933 1.368 . S
C1952 C1946 1.368 . S
C1952 C1951 1.523 . S
C1953 C1937 1.429 . S
C1953 C1949 1.429 . S
C1953 C1954 1.523 . S
C1954 C1938 1.368 . S
C1954 C1950 1.368 . S
C1954 C1953 1.523 . S
H1955 C1930 0.950 . S
H1956 C1932 0.950 . S
H1957 C1933 0.949 . S
H1958 C1935 0.950 . S
H1959 C1937 0.950 . S
C1960 C1961 1.349 . S
C1960 C1962 1.327 . S
C1960 H1985 0.950 . S
C1961 C1960 1.349 . S
C1961 C1977 1.349 . S
C1962 C1960 1.327 . S
C1962 C1981 1.429 . S
C1962 H1986 0.950 . S
C1963 C1980 1.574 . S
C1963 C1982 1.368 . S
C1963 H1987 0.949 . S
H1964 C1968 0.949 . S
C1965 C1966 1.349 . S
C1965 C1967 1.327 . S
C1965 H1988 0.950 . S
C1966 C1965 1.349 . S
C1966 C1978 1.349 . S
C1967 C1965 1.327 . S
C1967 C1983 1.429 . S
C1967 H1989 0.950 . S
C1968 H1964 0.949 . S
C1968 C1976 1.574 . S
C1968 C1984 1.368 . S
H1969 C1977 0.950 . S
H1970 C1975 0.950 . S
H1971 C1976 0.949 . S
H1972 C1978 0.950 . S
H1973 C1979 0.950 . S
H1974 C1980 0.949 . S
C1975 H1970 0.950 . S
C1975 C1977 1.327 . S
C1975 C1981 1.429 . S
C1976 C1968 1.574 . S
C1976 H1971 0.949 . S
C1976 C1982 1.368 . S
C1977 C1961 1.349 . S
C1977 H1969 0.950 . S
C1977 C1975 1.327 . S
C1978 C1966 1.349 . S
C1978 H1972 0.950 . S
C1978 C1979 1.327 . S
C1979 H1973 0.950 . S
C1979 C1978 1.327 . S
C1979 C1983 1.429 . S
C1980 C1963 1.574 . S
C1980 H1974 0.949 . S
C1980 C1984 1.368 . S
C1981 C1962 1.429 . S
C1981 C1975 1.429 . S
C1981 C1982 1.523 . S
C1982 C1963 1.368 . S
C1982 C1976 1.368 . S
C1982 C1981 1.523 . S
C1983 C1967 1.429 . S
C1983 C1979 1.429 . S
C1983 C1984 1.523 . S
C1984 C1968 1.368 . S
C1984 C1980 1.368 . S
C1984 C1983 1.523 . S
H1985 C1960 0.950 . S
H1986 C1962 0.950 . S
H1987 C1963 0.949 . S
H1988 C1965 0.950 . S
H1989 C1967 0.950 . S
C1990 C1991 1.349 . S
C1990 C1992 1.327 . S
C1990 H2015 0.950 . S
C1991 C1990 1.349 . S
C1991 C2007 1.349 . S
C1992 C1990 1.327 . S
C1992 C2011 1.429 . S
C1992 H2016 0.950 . S
C1993 C2010 1.574 . S
C1993 C2012 1.368 . S
C1993 H2017 0.949 . S
H1994 C1998 0.949 . S
C1995 C1996 1.349 . S
C1995 C1997 1.327 . S
C1995 H2018 0.950 . S
C1996 C1995 1.349 . S
C1996 C2008 1.349 . S
C1997 C1995 1.327 . S
C1997 C2013 1.429 . S
C1997 H2019 0.950 . S
C1998 H1994 0.949 . S
C1998 C2006 1.574 . S
C1998 C2014 1.368 . S
H1999 C2007 0.950 . S
H2000 C2005 0.950 . S
H2001 C2006 0.949 . S
H2002 C2008 0.950 . S
H2003 C2009 0.950 . S
H2004 C2010 0.949 . S
C2005 H2000 0.950 . S
C2005 C2007 1.327 . S
C2005 C2011 1.429 . S
C2006 C1998 1.574 . S
C2006 H2001 0.949 . S
C2006 C2012 1.368 . S
C2007 C1991 1.349 . S
C2007 H1999 0.950 . S
C2007 C2005 1.327 . S
C2008 C1996 1.349 . S
C2008 H2002 0.950 . S
C2008 C2009 1.327 . S
C2009 H2003 0.950 . S
C2009 C2008 1.327 . S
C2009 C2013 1.429 . S
C2010 C1993 1.574 . S
C2010 H2004 0.949 . S
C2010 C2014 1.368 . S
C2011 C1992 1.429 . S
C2011 C2005 1.429 . S
C2011 C2012 1.523 . S
C2012 C1993 1.368 . S
C2012 C2006 1.368 . S
C2012 C2011 1.523 . S
C2013 C1997 1.429 . S
C2013 C2009 1.429 . S
C2013 C2014 1.523 . S
C2014 C1998 1.368 . S
C2014 C2010 1.368 . S
C2014 C2013 1.523 . S
H2015 C1990 0.950 . S
H2016 C1992 0.950 . S
H2017 C1993 0.949 . S
H2018 C1995 0.950 . S
H2019 C1997 0.950 . S
C2020 C2021 1.349 . S
C2020 C2022 1.327 . S
C2020 H2045 0.950 . S
C2021 C2020 1.349 . S
C2021 C2037 1.349 . S
C2022 C2020 1.327 . S
C2022 C2041 1.429 . S
C2022 H2046 0.950 . S
C2023 C2040 1.574 . S
C2023 C2042 1.368 . S
C2023 H2047 0.949 . S
H2024 C2028 0.949 . S
C2025 C2026 1.349 . S
C2025 C2027 1.327 . S
C2025 H2048 0.950 . S
C2026 C2025 1.349 . S
C2026 C2038 1.349 . S
C2027 C2025 1.327 . S
C2027 C2043 1.429 . S
C2027 H2049 0.950 . S
C2028 H2024 0.949 . S
C2028 C2036 1.574 . S
C2028 C2044 1.368 . S
H2029 C2037 0.950 . S
H2030 C2035 0.950 . S
H2031 C2036 0.949 . S
H2032 C2038 0.950 . S
H2033 C2039 0.950 . S
H2034 C2040 0.949 . S
C2035 H2030 0.950 . S
C2035 C2037 1.327 . S
C2035 C2041 1.429 . S
C2036 C2028 1.574 . S
C2036 H2031 0.949 . S
C2036 C2042 1.368 . S
C2037 C2021 1.349 . S
C2037 H2029 0.950 . S
C2037 C2035 1.327 . S
C2038 C2026 1.349 . S
C2038 H2032 0.950 . S
C2038 C2039 1.327 . S
C2039 H2033 0.950 . S
C2039 C2038 1.327 . S
C2039 C2043 1.429 . S
C2040 C2023 1.574 . S
C2040 H2034 0.949 . S
C2040 C2044 1.368 . S
C2041 C2022 1.429 . S
C2041 C2035 1.429 . S
C2041 C2042 1.523 . S
C2042 C2023 1.368 . S
C2042 C2036 1.368 . S
C2042 C2041 1.523 . S
C2043 C2027 1.429 . S
C2043 C2039 1.429 . S
C2043 C2044 1.523 . S
C2044 C2028 1.368 . S
C2044 C2040 1.368 . S
C2044 C2043 1.523 . S
H2045 C2020 0.950 . S
H2046 C2022 0.950 . S
H2047 C2023 0.949 . S
H2048 C2025 0.950 . S
H2049 C2027 0.950 . S
C2050 C2051 1.349 . S
C2050 C2052 1.327 . S
C2050 H2075 0.950 . S
C2051 C2050 1.349 . S
C2051 C2067 1.349 . S
C2052 C2050 1.327 . S
C2052 C2071 1.429 . S
C2052 H2076 0.950 . S
C2053 C2070 1.574 . S
C2053 C2072 1.368 . S
C2053 H2077 0.949 . S
H2054 C2058 0.949 . S
C2055 C2056 1.349 . S
C2055 C2057 1.327 . S
C2055 H2078 0.950 . S
C2056 C2055 1.349 . S
C2056 C2068 1.349 . S
C2057 C2055 1.327 . S
C2057 C2073 1.429 . S
C2057 H2079 0.950 . S
C2058 H2054 0.949 . S
C2058 C2066 1.574 . S
C2058 C2074 1.368 . S
H2059 C2067 0.950 . S
H2060 C2065 0.950 . S
H2061 C2066 0.949 . S
H2062 C2068 0.950 . S
H2063 C2069 0.950 . S
H2064 C2070 0.949 . S
C2065 H2060 0.950 . S
C2065 C2067 1.327 . S
C2065 C2071 1.429 . S
C2066 C2058 1.574 . S
C2066 H2061 0.949 . S
C2066 C2072 1.368 . S
C2067 C2051 1.349 . S
C2067 H2059 0.950 . S
C2067 C2065 1.327 . S
C2068 C2056 1.349 . S
C2068 H2062 0.950 . S
C2068 C2069 1.327 . S
C2069 H2063 0.950 . S
C2069 C2068 1.327 . S
C2069 C2073 1.429 . S
C2070 C2053 1.574 . S
C2070 H2064 0.949 . S
C2070 C2074 1.368 . S
C2071 C2052 1.429 . S
C2071 C2065 1.429 . S
C2071 C2072 1.523 . S
C2072 C2053 1.368 . S
C2072 C2066 1.368 . S
C2072 C2071 1.523 . S
C2073 C2057 1.429 . S
C2073 C2069 1.429 . S
C2073 C2074 1.523 . S
C2074 C2058 1.368 . S
C2074 C2070 1.368 . S
C2074 C2073 1.523 . S
H2075 C2050 0.950 . S
H2076 C2052 0.950 . S
H2077 C2053 0.949 . S
H2078 C2055 0.950 . S
H2079 C2057 0.950 . S
C2080 C2081 1.349 . S
C2080 C2082 1.327 . S
C2080 H2105 0.950 . S
C2081 C2080 1.349 . S
C2081 C2097 1.349 . S
C2082 C2080 1.327 . S
C2082 C2101 1.429 . S
C2082 H2106 0.950 . S
C2083 C2100 1.574 . S
C2083 C2102 1.368 . S
C2083 H2107 0.949 . S
H2084 C2088 0.949 . S
C2085 C2086 1.349 . S
C2085 C2087 1.327 . S
C2085 H2108 0.950 . S
C2086 C2085 1.349 . S
C2086 C2098 1.349 . S
C2087 C2085 1.327 . S
C2087 C2103 1.429 . S
C2087 H2109 0.950 . S
C2088 H2084 0.949 . S
C2088 C2096 1.574 . S
C2088 C2104 1.368 . S
H2089 C2097 0.950 . S
H2090 C2095 0.950 . S
H2091 C2096 0.949 . S
H2092 C2098 0.950 . S
H2093 C2099 0.950 . S
H2094 C2100 0.949 . S
C2095 H2090 0.950 . S
C2095 C2097 1.327 . S
C2095 C2101 1.429 . S
C2096 C2088 1.574 . S
C2096 H2091 0.949 . S
C2096 C2102 1.368 . S
C2097 C2081 1.349 . S
C2097 H2089 0.950 . S
C2097 C2095 1.327 . S
C2098 C2086 1.349 . S
C2098 H2092 0.950 . S
C2098 C2099 1.327 . S
C2099 H2093 0.950 . S
C2099 C2098 1.327 . S
C2099 C2103 1.429 . S
C2100 C2083 1.574 . S
C2100 H2094 0.949 . S
C2100 C2104 1.368 . S
C2101 C2082 1.429 . S
C2101 C2095 1.429 . S
C2101 C2102 1.523 . S
C2102 C2083 1.368 . S
C2102 C2096 1.368 . S
C2102 C2101 1.523 . S
C2103 C2087 1.429 . S
C2103 C2099 1.429 . S
C2103 C2104 1.523 . S
C2104 C2088 1.368 . S
C2104 C2100 1.368 . S
C2104 C2103 1.523 . S
H2105 C2080 0.950 . S
H2106 C2082 0.950 . S
H2107 C2083 0.949 . S
H2108 C2085 0.950 . S
H2109 C2087 0.950 . S
C2110 C2111 1.349 . S
C2110 C2112 1.327 . S
C2110 H2135 0.950 . S
C2111 C2110 1.349 . S
C2111 C2127 1.349 . S
C2112 C2110 1.327 . S
C2112 C2131 1.429 . S
C2112 H2136 0.950 . S
C2113 C2130 1.574 . S
C2113 C2132 1.368 . S
C2113 H2137 0.949 . S
H2114 C2118 0.949 . S
C2115 C2116 1.349 . S
C2115 C2117 1.327 . S
C2115 H2138 0.950 . S
C2116 C2115 1.349 . S
C2116 C2128 1.349 . S
C2117 C2115 1.327 . S
C2117 C2133 1.429 . S
C2117 H2139 0.950 . S
C2118 H2114 0.949 . S
C2118 C2126 1.574 . S
C2118 C2134 1.368 . S
H2119 C2127 0.950 . S
H2120 C2125 0.950 . S
H2121 C2126 0.949 . S
H2122 C2128 0.950 . S
H2123 C2129 0.950 . S
H2124 C2130 0.949 . S
C2125 H2120 0.950 . S
C2125 C2127 1.327 . S
C2125 C2131 1.429 . S
C2126 C2118 1.574 . S
C2126 H2121 0.949 . S
C2126 C2132 1.368 . S
C2127 C2111 1.349 . S
C2127 H2119 0.950 . S
C2127 C2125 1.327 . S
C2128 C2116 1.349 . S
C2128 H2122 0.950 . S
C2128 C2129 1.327 . S
C2129 H2123 0.950 . S
C2129 C2128 1.327 . S
C2129 C2133 1.429 . S
C2130 C2113 1.574 . S
C2130 H2124 0.949 . S
C2130 C2134 1.368 . S
C2131 C2112 1.429 . S
C2131 C2125 1.429 . S
C2131 C2132 1.523 . S
C2132 C2113 1.368 . S
C2132 C2126 1.368 . S
C2132 C2131 1.523 . S
C2133 C2117 1.429 . S
C2133 C2129 1.429 . S
C2133 C2134 1.523 . S
C2134 C2118 1.368 . S
C2134 C2130 1.368 . S
C2134 C2133 1.523 . S
H2135 C2110 0.950 . S
H2136 C2112 0.950 . S
H2137 C2113 0.949 . S
H2138 C2115 0.950 . S
H2139 C2117 0.950 . S
C2140 C2141 1.349 . S
C2140 C2142 1.327 . S
C2140 H2165 0.950 . S
C2141 C2140 1.349 . S
C2141 C2157 1.349 . S
C2142 C2140 1.327 . S
C2142 C2161 1.429 . S
C2142 H2166 0.950 . S
C2143 C2160 1.574 . S
C2143 C2162 1.368 . S
C2143 H2167 0.949 . S
H2144 C2148 0.949 . S
C2145 C2146 1.349 . S
C2145 C2147 1.327 . S
C2145 H2168 0.950 . S
C2146 C2145 1.349 . S
C2146 C2158 1.349 . S
C2147 C2145 1.327 . S
C2147 C2163 1.429 . S
C2147 H2169 0.950 . S
C2148 H2144 0.949 . S
C2148 C2156 1.574 . S
C2148 C2164 1.368 . S
H2149 C2157 0.950 . S
H2150 C2155 0.950 . S
H2151 C2156 0.949 . S
H2152 C2158 0.950 . S
H2153 C2159 0.950 . S
H2154 C2160 0.949 . S
C2155 H2150 0.950 . S
C2155 C2157 1.327 . S
C2155 C2161 1.429 . S
C2156 C2148 1.574 . S
C2156 H2151 0.949 . S
C2156 C2162 1.368 . S
C2157 C2141 1.349 . S
C2157 H2149 0.950 . S
C2157 C2155 1.327 . S
C2158 C2146 1.349 . S
C2158 H2152 0.950 . S
C2158 C2159 1.327 . S
C2159 H2153 0.950 . S
C2159 C2158 1.327 . S
C2159 C2163 1.429 . S
C2160 C2143 1.574 . S
C2160 H2154 0.949 . S
C2160 C2164 1.368 . S
C2161 C2142 1.429 . S
C2161 C2155 1.429 . S
C2161 C2162 1.523 . S
C2162 C2143 1.368 . S
C2162 C2156 1.368 . S
C2162 C2161 1.523 . S
C2163 C2147 1.429 . S
C2163 C2159 1.429 . S
C2163 C2164 1.523 . S
C2164 C2148 1.368 . S
C2164 C2160 1.368 . S
C2164 C2163 1.523 . S
H2165 C2140 0.950 . S
H2166 C2142 0.950 . S
H2167 C2143 0.949 . S
H2168 C2145 0.950 . S
H2169 C2147 0.950 . S
C2170 C2171 1.349 . S
C2170 C2172 1.327 . S
C2170 H2195 0.950 . S
C2171 C2170 1.349 . S
C2171 C2187 1.349 . S
C2172 C2170 1.327 . S
C2172 C2191 1.429 . S
C2172 H2196 0.950 . S
C2173 C2190 1.574 . S
C2173 C2192 1.368 . S
C2173 H2197 0.949 . S
H2174 C2178 0.949 . S
C2175 C2176 1.349 . S
C2175 C2177 1.327 . S
C2175 H2198 0.950 . S
C2176 C2175 1.349 . S
C2176 C2188 1.349 . S
C2177 C2175 1.327 . S
C2177 C2193 1.429 . S
C2177 H2199 0.950 . S
C2178 H2174 0.949 . S
C2178 C2186 1.574 . S
C2178 C2194 1.368 . S
H2179 C2187 0.950 . S
H2180 C2185 0.950 . S
H2181 C2186 0.949 . S
H2182 C2188 0.950 . S
H2183 C2189 0.950 . S
H2184 C2190 0.949 . S
C2185 H2180 0.950 . S
C2185 C2187 1.327 . S
C2185 C2191 1.429 . S
C2186 C2178 1.574 . S
C2186 H2181 0.949 . S
C2186 C2192 1.368 . S
C2187 C2171 1.349 . S
C2187 H2179 0.950 . S
C2187 C2185 1.327 . S
C2188 C2176 1.349 . S
C2188 H2182 0.950 . S
C2188 C2189 1.327 . S
C2189 H2183 0.950 . S
C2189 C2188 1.327 . S
C2189 C2193 1.429 . S
C2190 C2173 1.574 . S
C2190 H2184 0.949 . S
C2190 C2194 1.368 . S
C2191 C2172 1.429 . S
C2191 C2185 1.429 . S
C2191 C2192 1.523 . S
C2192 C2173 1.368 . S
C2192 C2186 1.368 . S
C2192 C2191 1.523 . S
C2193 C2177 1.429 . S
C2193 C2189 1.429 . S
C2193 C2194 1.523 . S
C2194 C2178 1.368 . S
C2194 C2190 1.368 . S
C2194 C2193 1.523 . S
H2195 C2170 0.950 . S
H2196 C2172 0.950 . S
H2197 C2173 0.949 . S
H2198 C2175 0.950 . S
H2199 C2177 0.950 . S
C2200 C2201 1.349 . S
C2200 C2202 1.327 . S
C2200 H2225 0.950 . S
C2201 C2200 1.349 . S
C2201 C2217 1.349 . S
C2202 C2200 1.327 . S
C2202 C2221 1.429 . S
C2202 H2226 0.950 . S
C2203 C2220 1.574 . S
C2203 C2222 1.368 . S
C2203 H2227 0.949 . S
H2204 C2208 0.949 . S
C2205 C2206 1.349 . S
C2205 C2207 1.327 . S
C2205 H2228 0.950 . S
C2206 C2205 1.349 . S
C2206 C2218 1.349 . S
C2207 C2205 1.327 . S
C2207 C2223 1.429 . S
C2207 H2229 0.950 . S
C2208 H2204 0.949 . S
C2208 C2216 1.574 . S
C2208 C2224 1.368 . S
H2209 C2217 0.950 . S
H2210 C2215 0.950 . S
H2211 C2216 0.949 . S
H2212 C2218 0.950 . S
H2213 C2219 0.950 . S
H2214 C2220 0.949 . S
C2215 H2210 0.950 . S
C2215 C2217 1.327 . S
C2215 C2221 1.429 . S
C2216 C2208 1.574 . S
C2216 H2211 0.949 . S
C2216 C2222 1.368 . S
C2217 C2201 1.349 . S
C2217 H2209 0.950 . S
C2217 C2215 1.327 . S
C2218 C2206 1.349 . S
C2218 H2212 0.950 . S
C2218 C2219 1.327 . S
C2219 H2213 0.950 . S
C2219 C2218 1.327 . S
C2219 C2223 1.429 . S
C2220 C2203 1.574 . S
C2220 H2214 0.949 . S
C2220 C2224 1.368 . S
C2221 C2202 1.429 . S
C2221 C2215 1.429 . S
C2221 C2222 1.523 . S
C2222 C2203 1.368 . S
C2222 C2216 1.368 . S
C2222 C2221 1.523 . S
C2223 C2207 1.429 . S
C2223 C2219 1.429 . S
C2223 C2224 1.523 . S
C2224 C2208 1.368 . S
C2224 C2220 1.368 . S
C2224 C2223 1.523 . S
H2225 C2200 0.950 . S
H2226 C2202 0.950 . S
H2227 C2203 0.949 . S
H2228 C2205 0.950 . S
H2229 C2207 0.950 . S
C2230 C2231 1.349 . S
C2230 C2232 1.327 . S
C2230 H2255 0.950 . S
C2231 C2230 1.349 . S
C2231 C2247 1.349 . S
C2232 C2230 1.327 . S
C2232 C2251 1.429 . S
C2232 H2256 0.950 . S
C2233 C2250 1.574 . S
C2233 C2252 1.368 . S
C2233 H2257 0.949 . S
H2234 C2238 0.949 . S
C2235 C2236 1.349 . S
C2235 C2237 1.327 . S
C2235 H2258 0.950 . S
C2236 C2235 1.349 . S
C2236 C2248 1.349 . S
C2237 C2235 1.327 . S
C2237 C2253 1.429 . S
C2237 H2259 0.950 . S
C2238 H2234 0.949 . S
C2238 C2246 1.574 . S
C2238 C2254 1.368 . S
H2239 C2247 0.950 . S
H2240 C2245 0.950 . S
H2241 C2246 0.949 . S
H2242 C2248 0.950 . S
H2243 C2249 0.950 . S
H2244 C2250 0.949 . S
C2245 H2240 0.950 . S
C2245 C2247 1.327 . S
C2245 C2251 1.429 . S
C2246 C2238 1.574 . S
C2246 H2241 0.949 . S
C2246 C2252 1.368 . S
C2247 C2231 1.349 . S
C2247 H2239 0.950 . S
C2247 C2245 1.327 . S
C2248 C2236 1.349 . S
C2248 H2242 0.950 . S
C2248 C2249 1.327 . S
C2249 H2243 0.950 . S
C2249 C2248 1.327 . S
C2249 C2253 1.429 . S
C2250 C2233 1.574 . S
C2250 H2244 0.949 . S
C2250 C2254 1.368 . S
C2251 C2232 1.429 . S
C2251 C2245 1.429 . S
C2251 C2252 1.523 . S
C2252 C2233 1.368 . S
C2252 C2246 1.368 . S
C2252 C2251 1.523 . S
C2253 C2237 1.429 . S
C2253 C2249 1.429 . S
C2253 C2254 1.523 . S
C2254 C2238 1.368 . S
C2254 C2250 1.368 . S
C2254 C2253 1.523 . S
H2255 C2230 0.950 . S
H2256 C2232 0.950 . S
H2257 C2233 0.949 . S
H2258 C2235 0.950 . S
H2259 C2237 0.950 . S
C2260 C2261 1.349 . S
C2260 C2262 1.327 . S
C2260 H2285 0.950 . S
C2261 C2260 1.349 . S
C2261 C2277 1.349 . S
C2262 C2260 1.327 . S
C2262 C2281 1.429 . S
C2262 H2286 0.950 . S
C2263 C2280 1.574 . S
C2263 C2282 1.368 . S
C2263 H2287 0.949 . S
H2264 C2268 0.949 . S
C2265 C2266 1.349 . S
C2265 C2267 1.327 . S
C2265 H2288 0.950 . S
C2266 C2265 1.349 . S
C2266 C2278 1.349 . S
C2267 C2265 1.327 . S
C2267 C2283 1.429 . S
C2267 H2289 0.950 . S
C2268 H2264 0.949 . S
C2268 C2276 1.574 . S
C2268 C2284 1.368 . S
H2269 C2277 0.950 . S
H2270 C2275 0.950 . S
H2271 C2276 0.949 . S
H2272 C2278 0.950 . S
H2273 C2279 0.950 . S
H2274 C2280 0.949 . S
C2275 H2270 0.950 . S
C2275 C2277 1.327 . S
C2275 C2281 1.429 . S
C2276 C2268 1.574 . S
C2276 H2271 0.949 . S
C2276 C2282 1.368 . S
C2277 C2261 1.349 . S
C2277 H2269 0.950 . S
C2277 C2275 1.327 . S
C2278 C2266 1.349 . S
C2278 H2272 0.950 . S
C2278 C2279 1.327 . S
C2279 H2273 0.950 . S
C2279 C2278 1.327 . S
C2279 C2283 1.429 . S
C2280 C2263 1.574 . S
C2280 H2274 0.949 . S
C2280 C2284 1.368 . S
C2281 C2262 1.429 . S
C2281 C2275 1.429 . S
C2281 C2282 1.523 . S
C2282 C2263 1.368 . S
C2282 C2276 1.368 . S
C2282 C2281 1.523 . S
C2283 C2267 1.429 . S
C2283 C2279 1.429 . S
C2283 C2284 1.523 . S
C2284 C2268 1.368 . S
C2284 C2280 1.368 . S
C2284 C2283 1.523 . S
H2285 C2260 0.950 . S
H2286 C2262 0.950 . S
H2287 C2263 0.949 . S
H2288 C2265 0.950 . S
H2289 C2267 0.950 . S
C2290 C2291 1.349 . S
C2290 C2292 1.327 . S
C2290 H2315 0.950 . S
C2291 C2290 1.349 . S
C2291 C2307 1.349 . S
C2292 C2290 1.327 . S
C2292 C2311 1.429 . S
C2292 H2316 0.950 . S
C2293 C2310 1.574 . S
C2293 C2312 1.368 . S
C2293 H2317 0.949 . S
H2294 C2298 0.949 . S
C2295 C2296 1.349 . S
C2295 C2297 1.327 . S
C2295 H2318 0.950 . S
C2296 C2295 1.349 . S
C2296 C2308 1.349 . S
C2297 C2295 1.327 . S
C2297 C2313 1.429 . S
C2297 H2319 0.950 . S
C2298 H2294 0.949 . S
C2298 C2306 1.574 . S
C2298 C2314 1.368 . S
H2299 C2307 0.950 . S
H2300 C2305 0.950 . S
H2301 C2306 0.949 . S
H2302 C2308 0.950 . S
H2303 C2309 0.950 . S
H2304 C2310 0.949 . S
C2305 H2300 0.950 . S
C2305 C2307 1.327 . S
C2305 C2311 1.429 . S
C2306 C2298 1.574 . S
C2306 H2301 0.949 . S
C2306 C2312 1.368 . S
C2307 C2291 1.349 . S
C2307 H2299 0.950 . S
C2307 C2305 1.327 . S
C2308 C2296 1.349 . S
C2308 H2302 0.950 . S
C2308 C2309 1.327 . S
C2309 H2303 0.950 . S
C2309 C2308 1.327 . S
C2309 C2313 1.429 . S
C2310 C2293 1.574 . S
C2310 H2304 0.949 . S
C2310 C2314 1.368 . S
C2311 C2292 1.429 . S
C2311 C2305 1.429 . S
C2311 C2312 1.523 . S
C2312 C2293 1.368 . S
C2312 C2306 1.368 . S
C2312 C2311 1.523 . S
C2313 C2297 1.429 . S
C2313 C2309 1.429 . S
C2313 C2314 1.523 . S
C2314 C2298 1.368 . S
C2314 C2310 1.368 . S
C2314 C2313 1.523 . S
H2315 C2290 0.950 . S
H2316 C2292 0.950 . S
H2317 C2293 0.949 . S
H2318 C2295 0.950 . S
H2319 C2297 0.950 . S
C2320 C2321 1.349 . S
C2320 C2322 1.327 . S
C2320 H2345 0.950 . S
C2321 C2320 1.349 . S
C2321 C2337 1.349 . S
C2322 C2320 1.327 . S
C2322 C2341 1.429 . S
C2322 H2346 0.950 . S
C2323 C2340 1.574 . S
C2323 C2342 1.368 . S
C2323 H2347 0.949 . S
H2324 C2328 0.949 . S
C2325 C2326 1.349 . S
C2325 C2327 1.327 . S
C2325 H2348 0.950 . S
C2326 C2325 1.349 . S
C2326 C2338 1.349 . S
C2327 C2325 1.327 . S
C2327 C2343 1.429 . S
C2327 H2349 0.950 . S
C2328 H2324 0.949 . S
C2328 C2336 1.574 . S
C2328 C2344 1.368 . S
H2329 C2337 0.950 . S
H2330 C2335 0.950 . S
H2331 C2336 0.949 . S
H2332 C2338 0.950 . S
H2333 C2339 0.950 . S
H2334 C2340 0.949 . S
C2335 H2330 0.950 . S
C2335 C2337 1.327 . S
C2335 C2341 1.429 . S
C2336 C2328 1.574 . S
C2336 H2331 0.949 . S
C2336 C2342 1.368 . S
C2337 C2321 1.349 . S
C2337 H2329 0.950 . S
C2337 C2335 1.327 . S
C2338 C2326 1.349 . S
C2338 H2332 0.950 . S
C2338 C2339 1.327 . S
C2339 H2333 0.950 . S
C2339 C2338 1.327 . S
C2339 C2343 1.429 . S
C2340 C2323 1.574 . S
C2340 H2334 0.949 . S
C2340 C2344 1.368 . S
C2341 C2322 1.429 . S
C2341 C2335 1.429 . S
C2341 C2342 1.523 . S
C2342 C2323 1.368 . S
C2342 C2336 1.368 . S
C2342 C2341 1.523 . S
C2343 C2327 1.429 . S
C2343 C2339 1.429 . S
C2343 C2344 1.523 . S
C2344 C2328 1.368 . S
C2344 C2340 1.368 . S
C2344 C2343 1.523 . S
H2345 C2320 0.950 . S
H2346 C2322 0.950 . S
H2347 C2323 0.949 . S
H2348 C2325 0.950 . S
H2349 C2327 0.950 . S
C2350 C2351 1.349 . S
C2350 C2352 1.327 . S
C2350 H2375 0.950 . S
C2351 C2350 1.349 . S
C2351 C2367 1.349 . S
C2352 C2350 1.327 . S
C2352 C2371 1.429 . S
C2352 H2376 0.950 . S
C2353 C2370 1.574 . S
C2353 C2372 1.368 . S
C2353 H2377 0.949 . S
H2354 C2358 0.949 . S
C2355 C2356 1.349 . S
C2355 C2357 1.327 . S
C2355 H2378 0.950 . S
C2356 C2355 1.349 . S
C2356 C2368 1.349 . S
C2357 C2355 1.327 . S
C2357 C2373 1.429 . S
C2357 H2379 0.950 . S
C2358 H2354 0.949 . S
C2358 C2366 1.574 . S
C2358 C2374 1.368 . S
H2359 C2367 0.950 . S
H2360 C2365 0.950 . S
H2361 C2366 0.949 . S
H2362 C2368 0.950 . S
H2363 C2369 0.950 . S
H2364 C2370 0.949 . S
C2365 H2360 0.950 . S
C2365 C2367 1.327 . S
C2365 C2371 1.429 . S
C2366 C2358 1.574 . S
C2366 H2361 0.949 . S
C2366 C2372 1.368 . S
C2367 C2351 1.349 . S
C2367 H2359 0.950 . S
C2367 C2365 1.327 . S
C2368 C2356 1.349 . S
C2368 H2362 0.950 . S
C2368 C2369 1.327 . S
C2369 H2363 0.950 . S
C2369 C2368 1.327 . S
C2369 C2373 1.429 . S
C2370 C2353 1.574 . S
C2370 H2364 0.949 . S
C2370 C2374 1.368 . S
C2371 C2352 1.429 . S
C2371 C2365 1.429 . S
C2371 C2372 1.523 . S
C2372 C2353 1.368 . S
C2372 C2366 1.368 . S
C2372 C2371 1.523 . S
C2373 C2357 1.429 . S
C2373 C2369 1.429 . S
C2373 C2374 1.523 . S
C2374 C2358 1.368 . S
C2374 C2370 1.368 . S
C2374 C2373 1.523 . S
H2375 C2350 0.950 . S
H2376 C2352 0.950 . S
H2377 C2353 0.949 . S
H2378 C2355 0.950 . S
H2379 C2357 0.950 . S
C2380 C2381 1.349 . S
C2380 C2382 1.327 . S
C2380 H2405 0.950 . S
C2381 C2380 1.349 . S
C2381 C2397 1.349 . S
C2382 C2380 1.327 . S
C2382 C2401 1.429 . S
C2382 H2406 0.950 . S
C2383 C2400 1.574 . S
C2383 C2402 1.368 . S
C2383 H2407 0.949 . S
H2384 C2388 0.949 . S
C2385 C2386 1.349 . S
C2385 C2387 1.327 . S
C2385 H2408 0.950 . S
C2386 C2385 1.349 . S
C2386 C2398 1.349 . S
C2387 C2385 1.327 . S
C2387 C2403 1.429 . S
C2387 H2409 0.950 . S
C2388 H2384 0.949 . S
C2388 C2396 1.574 . S
C2388 C2404 1.368 . S
H2389 C2397 0.950 . S
H2390 C2395 0.950 . S
H2391 C2396 0.949 . S
H2392 C2398 0.950 . S
H2393 C2399 0.950 . S
H2394 C2400 0.949 . S
C2395 H2390 0.950 . S
C2395 C2397 1.327 . S
C2395 C2401 1.429 . S
C2396 C2388 1.574 . S
C2396 H2391 0.949 . S
C2396 C2402 1.368 . S
C2397 C2381 1.349 . S
C2397 H2389 0.950 . S
C2397 C2395 1.327 . S
C2398 C2386 1.349 . S
C2398 H2392 0.950 . S
C2398 C2399 1.327 . S
C2399 H2393 0.950 . S
C2399 C2398 1.327 . S
C2399 C2403 1.429 . S
C2400 C2383 1.574 . S
C2400 H2394 0.949 . S
C2400 C2404 1.368 . S
C2401 C2382 1.429 . S
C2401 C2395 1.429 . S
C2401 C2402 1.523 . S
C2402 C2383 1.368 . S
C2402 C2396 1.368 . S
C2402 C2401 1.523 . S
C2403 C2387 1.429 . S
C2403 C2399 1.429 . S
C2403 C2404 1.523 . S
C2404 C2388 1.368 . S
C2404 C2400 1.368 . S
C2404 C2403 1.523 . S
H2405 C2380 0.950 . S
H2406 C2382 0.950 . S
H2407 C2383 0.949 . S
H2408 C2385 0.950 . S
H2409 C2387 0.950 . S
C2410 C2411 1.349 . S
C2410 C2412 1.327 . S
C2410 H2435 0.950 . S
C2411 C2410 1.349 . S
C2411 C2427 1.349 . S
C2412 C2410 1.327 . S
C2412 C2431 1.429 . S
C2412 H2436 0.950 . S
C2413 C2430 1.574 . S
C2413 C2432 1.368 . S
C2413 H2437 0.949 . S
H2414 C2418 0.949 . S
C2415 C2416 1.349 . S
C2415 C2417 1.327 . S
C2415 H2438 0.950 . S
C2416 C2415 1.349 . S
C2416 C2428 1.349 . S
C2417 C2415 1.327 . S
C2417 C2433 1.429 . S
C2417 H2439 0.950 . S
C2418 H2414 0.949 . S
C2418 C2426 1.574 . S
C2418 C2434 1.368 . S
H2419 C2427 0.950 . S
H2420 C2425 0.950 . S
H2421 C2426 0.949 . S
H2422 C2428 0.950 . S
H2423 C2429 0.950 . S
H2424 C2430 0.949 . S
C2425 H2420 0.950 . S
C2425 C2427 1.327 . S
C2425 C2431 1.429 . S
C2426 C2418 1.574 . S
C2426 H2421 0.949 . S
C2426 C2432 1.368 . S
C2427 C2411 1.349 . S
C2427 H2419 0.950 . S
C2427 C2425 1.327 . S
C2428 C2416 1.349 . S
C2428 H2422 0.950 . S
C2428 C2429 1.327 . S
C2429 H2423 0.950 . S
C2429 C2428 1.327 . S
C2429 C2433 1.429 . S
C2430 C2413 1.574 . S
C2430 H2424 0.949 . S
C2430 C2434 1.368 . S
C2431 C2412 1.429 . S
C2431 C2425 1.429 . S
C2431 C2432 1.523 . S
C2432 C2413 1.368 . S
C2432 C2426 1.368 . S
C2432 C2431 1.523 . S
C2433 C2417 1.429 . S
C2433 C2429 1.429 . S
C2433 C2434 1.523 . S
C2434 C2418 1.368 . S
C2434 C2430 1.368 . S
C2434 C2433 1.523 . S
H2435 C2410 0.950 . S
H2436 C2412 0.950 . S
H2437 C2413 0.949 . S
H2438 C2415 0.950 . S
H2439 C2417 0.950 . S
C2440 C2441 1.349 . S
C2440 C2442 1.327 . S
C2440 H2465 0.950 . S
C2441 C2440 1.349 . S
C2441 C2457 1.349 . S
C2442 C2440 1.327 . S
C2442 C2461 1.429 . S
C2442 H2466 0.950 . S
C2443 C2460 1.574 . S
C2443 C2462 1.368 . S
C2443 H2467 0.949 . S
H2444 C2448 0.949 . S
C2445 C2446 1.349 . S
C2445 C2447 1.327 . S
C2445 H2468 0.950 . S
C2446 C2445 1.349 . S
C2446 C2458 1.349 . S
C2447 C2445 1.327 . S
C2447 C2463 1.429 . S
C2447 H2469 0.950 . S
C2448 H2444 0.949 . S
C2448 C2456 1.574 . S
C2448 C2464 1.368 . S
H2449 C2457 0.950 . S
H2450 C2455 0.950 . S
H2451 C2456 0.949 . S
H2452 C2458 0.950 . S
H2453 C2459 0.950 . S
H2454 C2460 0.949 . S
C2455 H2450 0.950 . S
C2455 C2457 1.327 . S
C2455 C2461 1.429 . S
C2456 C2448 1.574 . S
C2456 H2451 0.949 . S
C2456 C2462 1.368 . S
C2457 C2441 1.349 . S
C2457 H2449 0.950 . S
C2457 C2455 1.327 . S
C2458 C2446 1.349 . S
C2458 H2452 0.950 . S
C2458 C2459 1.327 . S
C2459 H2453 0.950 . S
C2459 C2458 1.327 . S
C2459 C2463 1.429 . S
C2460 C2443 1.574 . S
C2460 H2454 0.949 . S
C2460 C2464 1.368 . S
C2461 C2442 1.429 . S
C2461 C2455 1.429 . S
C2461 C2462 1.523 . S
C2462 C2443 1.368 . S
C2462 C2456 1.368 . S
C2462 C2461 1.523 . S
C2463 C2447 1.429 . S
C2463 C2459 1.429 . S
C2463 C2464 1.523 . S
C2464 C2448 1.368 . S
C2464 C2460 1.368 . S
C2464 C2463 1.523 . S
H2465 C2440 0.950 . S
H2466 C2442 0.950 . S
H2467 C2443 0.949 . S
H2468 C2445 0.950 . S
H2469 C2447 0.950 . S
C2470 C2471 1.349 . S
C2470 C2472 1.327 . S
C2470 H2495 0.950 . S
C2471 C2470 1.349 . S
C2471 C2487 1.349 . S
C2472 C2470 1.327 . S
C2472 C2491 1.429 . S
C2472 H2496 0.950 . S
C2473 C2490 1.574 . S
C2473 C2492 1.368 . S
C2473 H2497 0.949 . S
H2474 C2478 0.949 . S
C2475 C2476 1.349 . S
C2475 C2477 1.327 . S
C2475 H2498 0.950 . S
C2476 C2475 1.349 . S
C2476 C2488 1.349 . S
C2477 C2475 1.327 . S
C2477 C2493 1.429 . S
C2477 H2499 0.950 . S
C2478 H2474 0.949 . S
C2478 C2486 1.574 . S
C2478 C2494 1.368 . S
H2479 C2487 0.950 . S
H2480 C2485 0.950 . S
H2481 C2486 0.949 . S
H2482 C2488 0.950 . S
H2483 C2489 0.950 . S
H2484 C2490 0.949 . S
C2485 H2480 0.950 . S
C2485 C2487 1.327 . S
C2485 C2491 1.429 . S
C2486 C2478 1.574 . S
C2486 H2481 0.949 . S
C2486 C2492 1.368 . S
C2487 C2471 1.349 . S
C2487 H2479 0.950 . S
C2487 C2485 1.327 . S
C2488 C2476 1.349 . S
C2488 H2482 0.950 . S
C2488 C2489 1.327 . S
C2489 H2483 0.950 . S
C2489 C2488 1.327 . S
C2489 C2493 1.429 . S
C2490 C2473 1.574 . S
C2490 H2484 0.949 . S
C2490 C2494 1.368 . S
C2491 C2472 1.429 . S
C2491 C2485 1.429 . S
C2491 C2492 1.523 . S
C2492 C2473 1.368 . S
C2492 C2486 1.368 . S
C2492 C2491 1.523 . S
C2493 C2477 1.429 . S
C2493 C2489 1.429 . S
C2493 C2494 1.523 . S
C2494 C2478 1.368 . S
C2494 C2490 1.368 . S
C2494 C2493 1.523 . S
H2495 C2470 0.950 . S
H2496 C2472 0.950 . S
H2497 C2473 0.949 . S
H2498 C2475 0.950 . S
H2499 C2477 0.950 . S
C2500 C2501 1.349 . S
C2500 C2502 1.327 . S
C2500 H2525 0.950 . S
C2501 C2500 1.349 . S
C2501 C2517 1.349 . S
C2502 C2500 1.327 . S
C2502 C2521 1.429 . S
C2502 H2526 0.950 . S
C2503 C2520 1.574 . S
C2503 C2522 1.368 . S
C2503 H2527 0.949 . S
H2504 C2508 0.949 . S
C2505 C2506 1.349 . S
C2505 C2507 1.327 . S
C2505 H2528 0.950 . S
C2506 C2505 1.349 . S
C2506 C2518 1.349 . S
C2507 C2505 1.327 . S
C2507 C2523 1.429 . S
C2507 H2529 0.950 . S
C2508 H2504 0.949 . S
C2508 C2516 1.574 . S
C2508 C2524 1.368 . S
H2509 C2517 0.950 . S
H2510 C2515 0.950 . S
H2511 C2516 0.949 . S
H2512 C2518 0.950 . S
H2513 C2519 0.950 . S
H2514 C2520 0.949 . S
C2515 H2510 0.950 . S
C2515 C2517 1.327 . S
C2515 C2521 1.429 . S
C2516 C2508 1.574 . S
C2516 H2511 0.949 . S
C2516 C2522 1.368 . S
C2517 C2501 1.349 . S
C2517 H2509 0.950 . S
C2517 C2515 1.327 . S
C2518 C2506 1.349 . S
C2518 H2512 0.950 . S
C2518 C2519 1.327 . S
C2519 H2513 0.950 . S
C2519 C2518 1.327 . S
C2519 C2523 1.429 . S
C2520 C2503 1.574 . S
C2520 H2514 0.949 . S
C2520 C2524 1.368 . S
C2521 C2502 1.429 . S
C2521 C2515 1.429 . S
C2521 C2522 1.523 . S
C2522 C2503 1.368 . S
C2522 C2516 1.368 . S
C2522 C2521 1.523 . S
C2523 C2507 1.429 . S
C2523 C2519 1.429 . S
C2523 C2524 1.523 . S
C2524 C2508 1.368 . S
C2524 C2520 1.368 . S
C2524 C2523 1.523 . S
H2525 C2500 0.950 . S
H2526 C2502 0.950 . S
H2527 C2503 0.949 . S
H2528 C2505 0.950 . S
H2529 C2507 0.950 . S
C2530 C2531 1.349 . S
C2530 C2532 1.327 . S
C2530 H2555 0.950 . S
C2531 C2530 1.349 . S
C2531 C2547 1.349 . S
C2532 C2530 1.327 . S
C2532 C2551 1.429 . S
C2532 H2556 0.950 . S
C2533 C2550 1.574 . S
C2533 C2552 1.368 . S
C2533 H2557 0.949 . S
H2534 C2538 0.949 . S
C2535 C2536 1.349 . S
C2535 C2537 1.327 . S
C2535 H2558 0.950 . S
C2536 C2535 1.349 . S
C2536 C2548 1.349 . S
C2537 C2535 1.327 . S
C2537 C2553 1.429 . S
C2537 H2559 0.950 . S
C2538 H2534 0.949 . S
C2538 C2546 1.574 . S
C2538 C2554 1.368 . S
H2539 C2547 0.950 . S
H2540 C2545 0.950 . S
H2541 C2546 0.949 . S
H2542 C2548 0.950 . S
H2543 C2549 0.950 . S
H2544 C2550 0.949 . S
C2545 H2540 0.950 . S
C2545 C2547 1.327 . S
C2545 C2551 1.429 . S
C2546 C2538 1.574 . S
C2546 H2541 0.949 . S
C2546 C2552 1.368 . S
C2547 C2531 1.349 . S
C2547 H2539 0.950 . S
C2547 C2545 1.327 . S
C2548 C2536 1.349 . S
C2548 H2542 0.950 . S
C2548 C2549 1.327 . S
C2549 H2543 0.950 . S
C2549 C2548 1.327 . S
C2549 C2553 1.429 . S
C2550 C2533 1.574 . S
C2550 H2544 0.949 . S
C2550 C2554 1.368 . S
C2551 C2532 1.429 . S
C2551 C2545 1.429 . S
C2551 C2552 1.523 . S
C2552 C2533 1.368 . S
C2552 C2546 1.368 . S
C2552 C2551 1.523 . S
C2553 C2537 1.429 . S
C2553 C2549 1.429 . S
C2553 C2554 1.523 . S
C2554 C2538 1.368 . S
C2554 C2550 1.368 . S
C2554 C2553 1.523 . S
H2555 C2530 0.950 . S
H2556 C2532 0.950 . S
H2557 C2533 0.949 . S
H2558 C2535 0.950 . S
H2559 C2537 0.950 . S
C2560 C2561 1.387 1_556 S
C2560 C2562 1.327 . S
C2560 H2585 0.950 . S
C2561 C2560 1.387 1_554 S
C2561 C2577 1.311 1_545 S
C2562 C2560 1.327 . S
C2562 C2581 1.443 . S
C2562 H2586 0.950 . S
C2563 C2580 1.574 . S
C2563 C2582 1.366 1_565 S
C2563 H2587 0.949 . S
H2564 C2568 0.949 . S
C2565 C2566 1.349 . S
C2565 C2567 1.327 . S
C2565 H2588 0.950 . S
C2566 C2565 1.349 . S
C2566 C2578 1.349 1_565 S
C2567 C2565 1.327 . S
C2567 C2583 1.452 . S
C2567 H2589 0.950 . S
C2568 H2564 0.949 . S
C2568 C2576 1.574 . S
C2568 C2584 1.357 1_545 S
H2569 C2577 0.950 . S
H2570 C2575 0.949 1_554 S
H2571 C2576 0.949 . S
H2572 C2578 0.950 . S
H2573 C2579 0.950 . S
H2574 C2580 0.949 . S
C2575 H2570 0.949 1_556 S
C2575 C2577 1.326 1_556 S
C2575 C2581 1.416 1_565 S
C2576 C2568 1.574 . S
C2576 H2571 0.949 . S
C2576 C2582 1.370 . S
C2577 C2561 1.311 1_565 S
C2577 H2569 0.950 . S
C2577 C2575 1.326 1_554 S
C2578 C2566 1.349 1_545 S
C2578 H2572 0.950 . S
C2578 C2579 1.327 . S
C2579 H2573 0.950 . S
C2579 C2578 1.327 . S
C2579 C2583 1.406 1_545 S
C2580 C2563 1.574 . S
C2580 H2574 0.949 . S
C2580 C2584 1.380 . S
C2581 C2562 1.443 . S
C2581 C2575 1.416 1_545 S
C2581 C2582 1.523 . S
C2582 C2563 1.366 1_545 S
C2582 C2576 1.370 . S
C2582 C2581 1.523 . S
C2583 C2567 1.452 . S
C2583 C2579 1.406 1_565 S
C2583 C2584 1.523 . S
C2584 C2568 1.357 1_565 S
C2584 C2580 1.380 . S
C2584 C2583 1.523 . S
H2585 C2560 0.950 . S
H2586 C2562 0.950 . S
H2587 C2563 0.949 . S
H2588 C2565 0.950 . S
H2589 C2567 0.950 . S
C2590 C2591 1.349 . S
C2590 C2592 1.327 . S
C2590 H2615 0.950 . S
C2591 C2590 1.349 . S
C2591 C2607 1.349 . S
C2592 C2590 1.327 . S
C2592 C2611 1.429 . S
C2592 H2616 0.950 . S
C2593 C2610 1.574 . S
C2593 C2612 1.368 . S
C2593 H2617 0.949 . S
H2594 C2598 0.949 . S
C2595 C2596 1.349 1_556 S
C2595 C2597 1.327 . S
C2595 H2618 0.950 . S
C2596 C2595 1.349 1_554 S
C2596 C2608 1.349 . S
C2597 C2595 1.327 . S
C2597 C2613 1.429 1_655 S
C2597 H2619 0.950 . S
C2598 H2594 0.949 . S
C2598 C2606 1.574 . S
C2598 C2614 1.368 . S
H2599 C2607 0.950 . S
H2600 C2605 0.950 . S
H2601 C2606 0.949 . S
H2602 C2608 0.950 . S
H2603 C2609 0.951 . S
H2604 C2610 0.949 . S
C2605 H2600 0.950 . S
C2605 C2607 1.327 . S
C2605 C2611 1.429 . S
C2606 C2598 1.574 . S
C2606 H2601 0.949 . S
C2606 C2612 1.368 . S
C2607 C2591 1.349 . S
C2607 H2599 0.950 . S
C2607 C2605 1.327 . S
C2608 C2596 1.349 . S
C2608 H2602 0.950 . S
C2608 C2609 1.327 1_654 S
C2609 H2603 0.951 . S
C2609 C2608 1.327 1_456 S
C2609 C2613 1.429 . S
C2610 C2593 1.574 . S
C2610 H2604 0.949 . S
C2610 C2614 1.368 . S
C2611 C2592 1.429 . S
C2611 C2605 1.429 . S
C2611 C2612 1.523 . S
C2612 C2593 1.368 . S
C2612 C2606 1.368 . S
C2612 C2611 1.523 . S
C2613 C2597 1.429 1_455 S
C2613 C2609 1.429 . S
C2613 C2614 1.523 . S
C2614 C2598 1.368 . S
C2614 C2610 1.368 . S
C2614 C2613 1.523 . S
H2615 C2590 0.950 . S
H2616 C2592 0.950 . S
H2617 C2593 0.949 . S
H2618 C2595 0.950 . S
H2619 C2597 0.950 . S
C2620 C2621 1.349 . S
C2620 C2622 1.327 . S
C2620 H2645 0.950 . S
C2621 C2620 1.349 . S
C2621 C2637 1.349 . S
C2622 C2620 1.327 . S
C2622 C2641 1.429 . S
C2622 H2646 0.950 . S
C2623 C2640 1.574 . S
C2623 C2642 1.368 . S
C2623 H2647 0.949 . S
H2624 C2628 0.949 . S
C2625 C2626 1.349 . S
C2625 C2627 1.327 . S
C2625 H2648 0.950 . S
C2626 C2625 1.349 . S
C2626 C2638 1.349 . S
C2627 C2625 1.327 . S
C2627 C2643 1.429 . S
C2627 H2649 0.950 . S
C2628 H2624 0.949 . S
C2628 C2636 1.574 . S
C2628 C2644 1.368 . S
H2629 C2637 0.950 . S
H2630 C2635 0.950 . S
H2631 C2636 0.949 . S
H2632 C2638 0.950 . S
H2633 C2639 0.950 . S
H2634 C2640 0.949 . S
C2635 H2630 0.950 . S
C2635 C2637 1.327 . S
C2635 C2641 1.429 . S
C2636 C2628 1.574 . S
C2636 H2631 0.949 . S
C2636 C2642 1.368 . S
C2637 C2621 1.349 . S
C2637 H2629 0.950 . S
C2637 C2635 1.327 . S
C2638 C2626 1.349 . S
C2638 H2632 0.950 . S
C2638 C2639 1.327 . S
C2639 H2633 0.950 . S
C2639 C2638 1.327 . S
C2639 C2643 1.429 . S
C2640 C2623 1.574 . S
C2640 H2634 0.949 . S
C2640 C2644 1.368 . S
C2641 C2622 1.429 . S
C2641 C2635 1.429 . S
C2641 C2642 1.523 . S
C2642 C2623 1.368 . S
C2642 C2636 1.368 . S
C2642 C2641 1.523 . S
C2643 C2627 1.429 . S
C2643 C2639 1.429 . S
C2643 C2644 1.523 . S
C2644 C2628 1.368 . S
C2644 C2640 1.368 . S
C2644 C2643 1.523 . S
H2645 C2620 0.950 . S
H2646 C2622 0.950 . S
H2647 C2623 0.949 . S
H2648 C2625 0.950 . S
H2649 C2627 0.950 . S
C2650 C2651 1.387 . S
C2650 C2652 1.327 . S
C2650 H2675 0.950 . S
C2651 C2650 1.387 . S
C2651 C2667 1.312 1_545 S
C2652 C2650 1.327 . S
C2652 C2671 1.443 1_655 S
C2652 H2676 0.950 . S
C2653 C2670 1.574 . S
C2653 C2672 1.366 1_565 S
C2653 H2677 0.949 . S
H2654 C2658 0.949 . S
C2655 C2656 1.349 . S
C2655 C2657 1.327 . S
C2655 H2678 0.950 . S
C2656 C2655 1.349 . S
C2656 C2668 1.349 1_565 S
C2657 C2655 1.327 . S
C2657 C2673 1.451 . S
C2657 H2679 0.950 . S
C2658 H2654 0.949 . S
C2658 C2666 1.574 . S
C2658 C2674 1.357 1_545 S
H2659 C2667 0.950 . S
H2660 C2665 0.950 . S
H2661 C2666 0.949 . S
H2662 C2668 0.950 . S
H2663 C2669 0.950 . S
H2664 C2670 0.949 . S
C2665 H2660 0.950 . S
C2665 C2667 1.327 1_455 S
C2665 C2671 1.415 1_565 S
C2666 C2658 1.574 . S
C2666 H2661 0.949 . S
C2666 C2672 1.370 . S
C2667 C2651 1.312 1_565 S
C2667 H2659 0.950 . S
C2667 C2665 1.327 1_655 S
C2668 C2656 1.349 1_545 S
C2668 H2662 0.950 . S
C2668 C2669 1.327 . S
C2669 H2663 0.950 . S
C2669 C2668 1.327 . S
C2669 C2673 1.407 1_545 S
C2670 C2653 1.574 . S
C2670 H2664 0.949 . S
C2670 C2674 1.379 . S
C2671 C2652 1.443 1_455 S
C2671 C2665 1.415 1_545 S
C2671 C2672 1.523 . S
C2672 C2653 1.366 1_545 S
C2672 C2666 1.370 . S
C2672 C2671 1.523 . S
C2673 C2657 1.451 . S
C2673 C2669 1.407 1_565 S
C2673 C2674 1.523 . S
C2674 C2658 1.357 1_565 S
C2674 C2670 1.379 . S
C2674 C2673 1.523 . S
H2675 C2650 0.950 . S
H2676 C2652 0.950 . S
H2677 C2653 0.949 . S
H2678 C2655 0.950 . S
H2679 C2657 0.950 . S
C2680 C2681 1.349 . S
C2680 C2682 1.327 . S
C2680 H2705 0.950 . S
C2681 C2680 1.349 . S
C2681 C2697 1.349 1_545 S
C2682 C2680 1.327 . S
C2682 C2701 1.453 . S
C2682 H2706 0.950 . S
C2683 C2700 1.574 . S
C2683 C2702 1.357 1_565 S
C2683 H2707 0.949 . S
H2684 C2688 0.949 . S
C2685 C2686 1.389 1_554 S
C2685 C2687 1.327 . S
C2685 H2708 0.950 . S
C2686 C2685 1.389 1_556 S
C2686 C2698 1.310 1_565 S
C2687 C2685 1.327 . S
C2687 C2703 1.444 . S
C2687 H2709 0.950 . S
C2688 H2684 0.949 . S
C2688 C2696 1.574 . S
C2688 C2704 1.366 1_545 S
H2689 C2697 0.950 . S
H2690 C2695 0.950 . S
H2691 C2696 0.949 . S
H2692 C2698 0.950 . S
H2693 C2699 0.949 1_556 S
H2694 C2700 0.949 . S
C2695 H2690 0.950 . S
C2695 C2697 1.327 . S
C2695 C2701 1.405 1_565 S
C2696 C2688 1.574 . S
C2696 H2691 0.949 . S
C2696 C2702 1.380 . S
C2697 C2681 1.349 1_565 S
C2697 H2689 0.950 . S
C2697 C2695 1.327 . S
C2698 C2686 1.310 1_545 S
C2698 H2692 0.950 . S
C2698 C2699 1.304 1_556 S
C2699 H2693 0.949 1_554 S
C2699 C2698 1.304 1_554 S
C2699 C2703 1.439 1_545 S
C2700 C2683 1.574 . S
C2700 H2694 0.949 . S
C2700 C2704 1.370 . S
C2701 C2682 1.453 . S
C2701 C2695 1.405 1_545 S
C2701 C2702 1.523 . S
C2702 C2683 1.357 1_545 S
C2702 C2696 1.380 . S
C2702 C2701 1.523 . S
C2703 C2687 1.444 . S
C2703 C2699 1.439 1_565 S
C2703 C2704 1.523 . S
C2704 C2688 1.366 1_565 S
C2704 C2700 1.370 . S
C2704 C2703 1.523 . S
H2705 C2680 0.950 . S
H2706 C2682 0.950 . S
H2707 C2683 0.949 . S
H2708 C2685 0.950 . S
H2709 C2687 0.950 . S
C2710 C2711 1.349 . S
C2710 C2712 1.327 1_456 S
C2710 H2735 0.950 . S
C2711 C2710 1.349 . S
C2711 C2727 1.349 . S
C2712 C2710 1.327 1_654 S
C2712 C2731 1.429 . S
C2712 H2736 0.950 . S
C2713 C2730 1.574 . S
C2713 C2732 1.368 . S
C2713 H2737 0.949 . S
H2714 C2718 0.949 . S
C2715 C2716 1.349 . S
C2715 C2717 1.327 . S
C2715 H2738 0.950 . S
C2716 C2715 1.349 . S
C2716 C2728 1.349 . S
C2717 C2715 1.327 . S
C2717 C2733 1.429 . S
C2717 H2739 0.950 . S
C2718 H2714 0.949 . S
C2718 C2726 1.574 . S
C2718 C2734 1.368 . S
H2719 C2727 0.950 . S
H2720 C2725 0.949 1_655 S
H2721 C2726 0.949 . S
H2722 C2728 0.950 . S
H2723 C2729 0.950 . S
H2724 C2730 0.949 . S
C2725 H2720 0.949 1_455 S
C2725 C2727 1.327 1_554 S
C2725 C2731 1.429 1_455 S
C2726 C2718 1.574 . S
C2726 H2721 0.949 . S
C2726 C2732 1.368 . S
C2727 C2711 1.349 . S
C2727 H2719 0.950 . S
C2727 C2725 1.327 1_556 S
C2728 C2716 1.349 . S
C2728 H2722 0.950 . S
C2728 C2729 1.327 . S
C2729 H2723 0.950 . S
C2729 C2728 1.327 . S
C2729 C2733 1.429 . S
C2730 C2713 1.574 . S
C2730 H2724 0.949 . S
C2730 C2734 1.368 . S
C2731 C2712 1.429 . S
C2731 C2725 1.429 1_655 S
C2731 C2732 1.523 . S
C2732 C2713 1.368 . S
C2732 C2726 1.368 . S
C2732 C2731 1.523 . S
C2733 C2717 1.429 . S
C2733 C2729 1.429 . S
C2733 C2734 1.523 . S
C2734 C2718 1.368 . S
C2734 C2730 1.368 . S
C2734 C2733 1.523 . S
H2735 C2710 0.950 . S
H2736 C2712 0.950 . S
H2737 C2713 0.949 . S
H2738 C2715 0.950 . S
H2739 C2717 0.950 . S
C2740 C2741 1.349 . S
C2740 C2742 1.327 . S
C2740 H2765 0.950 . S
C2741 C2740 1.349 . S
C2741 C2757 1.349 . S
C2742 C2740 1.327 . S
C2742 C2761 1.429 . S
C2742 H2766 0.950 . S
C2743 C2760 1.574 . S
C2743 C2762 1.368 . S
C2743 H2767 0.949 . S
H2744 C2748 0.949 . S
C2745 C2746 1.349 . S
C2745 C2747 1.327 . S
C2745 H2768 0.950 . S
C2746 C2745 1.349 . S
C2746 C2758 1.349 . S
C2747 C2745 1.327 . S
C2747 C2763 1.429 . S
C2747 H2769 0.950 . S
C2748 H2744 0.949 . S
C2748 C2756 1.574 . S
C2748 C2764 1.368 . S
H2749 C2757 0.950 . S
H2750 C2755 0.950 . S
H2751 C2756 0.949 . S
H2752 C2758 0.950 . S
H2753 C2759 0.950 . S
H2754 C2760 0.949 . S
C2755 H2750 0.950 . S
C2755 C2757 1.327 . S
C2755 C2761 1.429 . S
C2756 C2748 1.574 . S
C2756 H2751 0.949 . S
C2756 C2762 1.368 . S
C2757 C2741 1.349 . S
C2757 H2749 0.950 . S
C2757 C2755 1.327 . S
C2758 C2746 1.349 . S
C2758 H2752 0.950 . S
C2758 C2759 1.327 . S
C2759 H2753 0.950 . S
C2759 C2758 1.327 . S
C2759 C2763 1.429 . S
C2760 C2743 1.574 . S
C2760 H2754 0.949 . S
C2760 C2764 1.368 . S
C2761 C2742 1.429 . S
C2761 C2755 1.429 . S
C2761 C2762 1.523 . S
C2762 C2743 1.368 . S
C2762 C2756 1.368 . S
C2762 C2761 1.523 . S
C2763 C2747 1.429 . S
C2763 C2759 1.429 . S
C2763 C2764 1.523 . S
C2764 C2748 1.368 . S
C2764 C2760 1.368 . S
C2764 C2763 1.523 . S
H2765 C2740 0.950 . S
H2766 C2742 0.950 . S
H2767 C2743 0.949 . S
H2768 C2745 0.950 . S
H2769 C2747 0.950 . S
C2770 C2771 1.349 . S
C2770 C2772 1.327 . S
C2770 H2795 0.950 . S
C2771 C2770 1.349 . S
C2771 C2787 1.349 1_545 S
C2772 C2770 1.327 . S
C2772 C2791 1.452 . S
C2772 H2796 0.950 . S
C2773 C2790 1.574 . S
C2773 C2792 1.357 1_565 S
C2773 H2797 0.949 . S
H2774 C2778 0.949 . S
C2775 C2776 1.388 . S
C2775 C2777 1.327 . S
C2775 H2798 0.950 . S
C2776 C2775 1.388 . S
C2776 C2788 1.310 1_565 S
C2777 C2775 1.327 . S
C2777 C2793 1.443 1_455 S
C2777 H2799 0.950 . S
C2778 H2774 0.949 . S
C2778 C2786 1.574 . S
C2778 C2794 1.366 1_545 S
H2779 C2787 0.950 . S
H2780 C2785 0.950 . S
H2781 C2786 0.949 . S
H2782 C2788 0.950 . S
H2783 C2789 0.950 . S
H2784 C2790 0.949 . S
C2785 H2780 0.950 . S
C2785 C2787 1.327 . S
C2785 C2791 1.406 1_565 S
C2786 C2778 1.574 . S
C2786 H2781 0.949 . S
C2786 C2792 1.380 . S
C2787 C2771 1.349 1_565 S
C2787 H2779 0.950 . S
C2787 C2785 1.327 . S
C2788 C2776 1.310 1_545 S
C2788 H2782 0.950 . S
C2788 C2789 1.327 1_455 S
C2789 H2783 0.950 . S
C2789 C2788 1.327 1_655 S
C2789 C2793 1.414 1_545 S
C2790 C2773 1.574 . S
C2790 H2784 0.949 . S
C2790 C2794 1.370 . S
C2791 C2772 1.452 . S
C2791 C2785 1.406 1_545 S
C2791 C2792 1.523 . S
C2792 C2773 1.357 1_545 S
C2792 C2786 1.380 . S
C2792 C2791 1.523 . S
C2793 C2777 1.443 1_655 S
C2793 C2789 1.414 1_565 S
C2793 C2794 1.523 . S
C2794 C2778 1.366 1_565 S
C2794 C2790 1.370 . S
C2794 C2793 1.523 . S
H2795 C2770 0.950 . S
H2796 C2772 0.950 . S
H2797 C2773 0.949 . S
H2798 C2775 0.950 . S
H2799 C2777 0.950 . S
C2800 C2801 1.349 . S
C2800 C2802 1.327 . S
C2800 H2825 0.950 . S
C2801 C2800 1.349 . S
C2801 C2817 1.349 . S
C2802 C2800 1.327 . S
C2802 C2821 1.429 . S
C2802 H2826 0.950 . S
C2803 C2820 1.574 . S
C2803 C2822 1.368 . S
C2803 H2827 0.949 . S
H2804 C2808 0.949 . S
C2805 C2806 1.349 . S
C2805 C2807 1.327 . S
C2805 H2828 0.950 . S
C2806 C2805 1.349 . S
C2806 C2818 1.349 . S
C2807 C2805 1.327 . S
C2807 C2823 1.429 . S
C2807 H2829 0.950 . S
C2808 H2804 0.949 . S
C2808 C2816 1.574 . S
C2808 C2824 1.368 . S
H2809 C2817 0.950 . S
H2810 C2815 0.950 . S
H2811 C2816 0.949 . S
H2812 C2818 0.950 . S
H2813 C2819 0.950 . S
H2814 C2820 0.949 . S
C2815 H2810 0.950 . S
C2815 C2817 1.327 . S
C2815 C2821 1.429 . S
C2816 C2808 1.574 . S
C2816 H2811 0.949 . S
C2816 C2822 1.368 . S
C2817 C2801 1.349 . S
C2817 H2809 0.950 . S
C2817 C2815 1.327 . S
C2818 C2806 1.349 . S
C2818 H2812 0.950 . S
C2818 C2819 1.327 . S
C2819 H2813 0.950 . S
C2819 C2818 1.327 . S
C2819 C2823 1.429 . S
C2820 C2803 1.574 . S
C2820 H2814 0.949 . S
C2820 C2824 1.368 . S
C2821 C2802 1.429 . S
C2821 C2815 1.429 . S
C2821 C2822 1.523 . S
C2822 C2803 1.368 . S
C2822 C2816 1.368 . S
C2822 C2821 1.523 . S
C2823 C2807 1.429 . S
C2823 C2819 1.429 . S
C2823 C2824 1.523 . S
C2824 C2808 1.368 . S
C2824 C2820 1.368 . S
C2824 C2823 1.523 . S
H2825 C2800 0.950 . S
H2826 C2802 0.950 . S
H2827 C2803 0.949 . S
H2828 C2805 0.950 . S
H2829 C2807 0.950 . S
C2830 C2831 1.349 . S
C2830 C2832 1.327 . S
C2830 H2855 0.950 . S
C2831 C2830 1.349 . S
C2831 C2847 1.349 . S
C2832 C2830 1.327 . S
C2832 C2851 1.429 . S
C2832 H2856 0.950 . S
C2833 C2850 1.574 . S
C2833 C2852 1.368 . S
C2833 H2857 0.949 . S
H2834 C2838 0.949 . S
C2835 C2836 1.349 . S
C2835 C2837 1.327 . S
C2835 H2858 0.950 . S
C2836 C2835 1.349 . S
C2836 C2848 1.349 . S
C2837 C2835 1.327 . S
C2837 C2853 1.429 1_655 S
C2837 H2859 0.950 . S
C2838 H2834 0.949 . S
C2838 C2846 1.574 . S
C2838 C2854 1.368 . S
H2839 C2847 0.950 . S
H2840 C2845 0.950 . S
H2841 C2846 0.949 . S
H2842 C2848 0.950 . S
H2843 C2849 0.950 . S
H2844 C2850 0.949 . S
C2845 H2840 0.950 . S
C2845 C2847 1.327 . S
C2845 C2851 1.429 . S
C2846 C2838 1.574 . S
C2846 H2841 0.949 . S
C2846 C2852 1.368 . S
C2847 C2831 1.349 . S
C2847 H2839 0.950 . S
C2847 C2845 1.327 . S
C2848 C2836 1.349 . S
C2848 H2842 0.950 . S
C2848 C2849 1.327 1_655 S
C2849 H2843 0.950 . S
C2849 C2848 1.327 1_455 S
C2849 C2853 1.429 . S
C2850 C2833 1.574 . S
C2850 H2844 0.949 . S
C2850 C2854 1.368 . S
C2851 C2832 1.429 . S
C2851 C2845 1.429 . S
C2851 C2852 1.523 . S
C2852 C2833 1.368 . S
C2852 C2846 1.368 . S
C2852 C2851 1.523 . S
C2853 C2837 1.429 1_455 S
C2853 C2849 1.429 . S
C2853 C2854 1.523 . S
C2854 C2838 1.368 . S
C2854 C2850 1.368 . S
C2854 C2853 1.523 . S
H2855 C2830 0.950 . S
H2856 C2832 0.950 . S
H2857 C2833 0.949 . S
H2858 C2835 0.950 . S
H2859 C2837 0.950 . S
C2860 C2861 1.349 . S
C2860 C2862 1.327 . S
C2860 H2885 0.950 . S
C2861 C2860 1.349 . S
C2861 C2877 1.349 . S
C2862 C2860 1.327 . S
C2862 C2881 1.429 . S
C2862 H2886 0.950 . S
C2863 C2880 1.574 . S
C2863 C2882 1.368 . S
C2863 H2887 0.949 . S
H2864 C2868 0.949 . S
C2865 C2866 1.349 . S
C2865 C2867 1.327 . S
C2865 H2888 0.950 . S
C2866 C2865 1.349 . S
C2866 C2878 1.349 . S
C2867 C2865 1.327 . S
C2867 C2883 1.429 . S
C2867 H2889 0.950 . S
C2868 H2864 0.949 . S
C2868 C2876 1.574 . S
C2868 C2884 1.368 . S
H2869 C2877 0.950 . S
H2870 C2875 0.950 . S
H2871 C2876 0.949 . S
H2872 C2878 0.950 . S
H2873 C2879 0.950 . S
H2874 C2880 0.949 . S
C2875 H2870 0.950 . S
C2875 C2877 1.327 . S
C2875 C2881 1.429 . S
C2876 C2868 1.574 . S
C2876 H2871 0.949 . S
C2876 C2882 1.368 . S
C2877 C2861 1.349 . S
C2877 H2869 0.950 . S
C2877 C2875 1.327 . S
C2878 C2866 1.349 . S
C2878 H2872 0.950 . S
C2878 C2879 1.327 . S
C2879 H2873 0.950 . S
C2879 C2878 1.327 . S
C2879 C2883 1.429 . S
C2880 C2863 1.574 . S
C2880 H2874 0.949 . S
C2880 C2884 1.368 . S
C2881 C2862 1.429 . S
C2881 C2875 1.429 . S
C2881 C2882 1.523 . S
C2882 C2863 1.368 . S
C2882 C2876 1.368 . S
C2882 C2881 1.523 . S
C2883 C2867 1.429 . S
C2883 C2879 1.429 . S
C2883 C2884 1.523 . S
C2884 C2868 1.368 . S
C2884 C2880 1.368 . S
C2884 C2883 1.523 . S
H2885 C2860 0.950 . S
H2886 C2862 0.950 . S
H2887 C2863 0.949 . S
H2888 C2865 0.950 . S
H2889 C2867 0.950 . S
C2890 C2891 1.349 . S
C2890 C2892 1.327 . S
C2890 H2915 0.950 . S
C2891 C2890 1.349 . S
C2891 C2907 1.349 . S
C2892 C2890 1.327 . S
C2892 C2911 1.429 . S
C2892 H2916 0.950 . S
C2893 C2910 1.574 . S
C2893 C2912 1.368 . S
C2893 H2917 0.949 . S
H2894 C2898 0.949 . S
C2895 C2896 1.349 . S
C2895 C2897 1.327 1_655 S
C2895 H2918 0.950 . S
C2896 C2895 1.349 . S
C2896 C2908 1.349 . S
C2897 C2895 1.327 1_455 S
C2897 C2913 1.429 . S
C2897 H2919 0.950 . S
C2898 H2894 0.949 . S
C2898 C2906 1.574 . S
C2898 C2914 1.368 . S
H2899 C2907 0.950 . S
H2900 C2905 0.950 . S
H2901 C2906 0.949 . S
H2902 C2908 0.950 . S
H2903 C2909 0.950 . S
H2904 C2910 0.949 . S
C2905 H2900 0.950 . S
C2905 C2907 1.327 . S
C2905 C2911 1.429 . S
C2906 C2898 1.574 . S
C2906 H2901 0.949 . S
C2906 C2912 1.368 . S
C2907 C2891 1.349 . S
C2907 H2899 0.950 . S
C2907 C2905 1.327 . S
C2908 C2896 1.349 . S
C2908 H2902 0.950 . S
C2908 C2909 1.327 . S
C2909 H2903 0.950 . S
C2909 C2908 1.327 . S
C2909 C2913 1.429 1_655 S
C2910 C2893 1.574 . S
C2910 H2904 0.949 . S
C2910 C2914 1.368 . S
C2911 C2892 1.429 . S
C2911 C2905 1.429 . S
C2911 C2912 1.523 . S
C2912 C2893 1.368 . S
C2912 C2906 1.368 . S
C2912 C2911 1.523 . S
C2913 C2897 1.429 . S
C2913 C2909 1.429 1_455 S
C2913 C2914 1.523 . S
C2914 C2898 1.368 . S
C2914 C2910 1.368 . S
C2914 C2913 1.523 . S
H2915 C2890 0.950 . S
H2916 C2892 0.950 . S
H2917 C2893 0.949 . S
H2918 C2895 0.950 . S
H2919 C2897 0.950 . S
C2920 C2921 1.349 . S
C2920 C2922 1.327 . S
C2920 H2945 0.950 . S
C2921 C2920 1.349 . S
C2921 C2937 1.349 . S
C2922 C2920 1.327 . S
C2922 C2941 1.429 . S
C2922 H2946 0.950 . S
C2923 C2940 1.574 . S
C2923 C2942 1.368 . S
C2923 H2947 0.949 . S
H2924 C2928 0.949 . S
C2925 C2926 1.349 . S
C2925 C2927 1.327 . S
C2925 H2948 0.950 . S
C2926 C2925 1.349 . S
C2926 C2938 1.349 . S
C2927 C2925 1.327 . S
C2927 C2943 1.429 . S
C2927 H2949 0.950 . S
C2928 H2924 0.949 . S
C2928 C2936 1.574 . S
C2928 C2944 1.368 . S
H2929 C2937 0.950 . S
H2930 C2935 0.950 . S
H2931 C2936 0.949 . S
H2932 C2938 0.950 . S
H2933 C2939 0.950 . S
H2934 C2940 0.949 . S
C2935 H2930 0.950 . S
C2935 C2937 1.327 . S
C2935 C2941 1.429 . S
C2936 C2928 1.574 . S
C2936 H2931 0.949 . S
C2936 C2942 1.368 . S
C2937 C2921 1.349 . S
C2937 H2929 0.950 . S
C2937 C2935 1.327 . S
C2938 C2926 1.349 . S
C2938 H2932 0.950 . S
C2938 C2939 1.327 . S
C2939 H2933 0.950 . S
C2939 C2938 1.327 . S
C2939 C2943 1.429 . S
C2940 C2923 1.574 . S
C2940 H2934 0.949 . S
C2940 C2944 1.368 . S
C2941 C2922 1.429 . S
C2941 C2935 1.429 . S
C2941 C2942 1.523 . S
C2942 C2923 1.368 . S
C2942 C2936 1.368 . S
C2942 C2941 1.523 . S
C2943 C2927 1.429 . S
C2943 C2939 1.429 . S
C2943 C2944 1.523 . S
C2944 C2928 1.368 . S
C2944 C2940 1.368 . S
C2944 C2943 1.523 . S
H2945 C2920 0.950 . S
H2946 C2922 0.950 . S
H2947 C2923 0.949 . S
H2948 C2925 0.950 . S
H2949 C2927 0.950 . S
C2950 C2951 1.349 . S
C2950 C2952 1.327 . S
C2950 H2975 0.950 . S
C2951 C2950 1.349 . S
C2951 C2967 1.349 . S
C2952 C2950 1.327 . S
C2952 C2971 1.429 1_455 S
C2952 H2976 0.950 . S
C2953 C2970 1.574 . S
C2953 C2972 1.368 . S
C2953 H2977 0.949 . S
H2954 C2958 0.949 . S
C2955 C2956 1.349 . S
C2955 C2957 1.327 . S
C2955 H2978 0.950 . S
C2956 C2955 1.349 . S
C2956 C2968 1.349 . S
C2957 C2955 1.327 . S
C2957 C2973 1.429 . S
C2957 H2979 0.950 . S
C2958 H2954 0.949 . S
C2958 C2966 1.574 . S
C2958 C2974 1.368 . S
H2959 C2967 0.950 . S
H2960 C2965 0.950 . S
H2961 C2966 0.949 . S
H2962 C2968 0.950 . S
H2963 C2969 0.950 . S
H2964 C2970 0.949 . S
C2965 H2960 0.950 . S
C2965 C2967 1.327 1_655 S
C2965 C2971 1.429 . S
C2966 C2958 1.574 . S
C2966 H2961 0.949 . S
C2966 C2972 1.368 . S
C2967 C2951 1.349 . S
C2967 H2959 0.950 . S
C2967 C2965 1.327 1_455 S
C2968 C2956 1.349 . S
C2968 H2962 0.950 . S
C2968 C2969 1.327 . S
C2969 H2963 0.950 . S
C2969 C2968 1.327 . S
C2969 C2973 1.429 . S
C2970 C2953 1.574 . S
C2970 H2964 0.949 . S
C2970 C2974 1.368 . S
C2971 C2952 1.429 1_655 S
C2971 C2965 1.429 . S
C2971 C2972 1.523 . S
C2972 C2953 1.368 . S
C2972 C2966 1.368 . S
C2972 C2971 1.523 . S
C2973 C2957 1.429 . S
C2973 C2969 1.429 . S
C2973 C2974 1.523 . S
C2974 C2958 1.368 . S
C2974 C2970 1.368 . S
C2974 C2973 1.523 . S
H2975 C2950 0.950 . S
H2976 C2952 0.950 . S
H2977 C2953 0.949 . S
H2978 C2955 0.950 . S
H2979 C2957 0.950 . S
C2980 C2981 1.349 . S
C2980 C2982 1.327 . S
C2980 H3005 0.950 . S
C2981 C2980 1.349 . S
C2981 C2997 1.349 . S
C2982 C2980 1.327 . S
C2982 C3001 1.429 . S
C2982 H3006 0.950 . S
C2983 C3000 1.574 . S
C2983 C3002 1.368 . S
C2983 H3007 0.949 . S
H2984 C2988 0.949 . S
C2985 C2986 1.349 . S
C2985 C2987 1.327 . S
C2985 H3008 0.950 . S
C2986 C2985 1.349 . S
C2986 C2998 1.349 . S
C2987 C2985 1.327 . S
C2987 C3003 1.429 . S
C2987 H3009 0.950 . S
C2988 H2984 0.949 . S
C2988 C2996 1.574 . S
C2988 C3004 1.368 . S
H2989 C2997 0.950 . S
H2990 C2995 0.950 . S
H2991 C2996 0.949 . S
H2992 C2998 0.950 . S
H2993 C2999 0.950 . S
H2994 C3000 0.949 . S
C2995 H2990 0.950 . S
C2995 C2997 1.327 . S
C2995 C3001 1.429 . S
C2996 C2988 1.574 . S
C2996 H2991 0.949 . S
C2996 C3002 1.368 . S
C2997 C2981 1.349 . S
C2997 H2989 0.950 . S
C2997 C2995 1.327 . S
C2998 C2986 1.349 . S
C2998 H2992 0.950 . S
C2998 C2999 1.327 . S
C2999 H2993 0.950 . S
C2999 C2998 1.327 . S
C2999 C3003 1.429 . S
C3000 C2983 1.574 . S
C3000 H2994 0.949 . S
C3000 C3004 1.368 . S
C3001 C2982 1.429 . S
C3001 C2995 1.429 . S
C3001 C3002 1.523 . S
C3002 C2983 1.368 . S
C3002 C2996 1.368 . S
C3002 C3001 1.523 . S
C3003 C2987 1.429 . S
C3003 C2999 1.429 . S
C3003 C3004 1.523 . S
C3004 C2988 1.368 . S
C3004 C3000 1.368 . S
C3004 C3003 1.523 . S
H3005 C2980 0.950 . S
H3006 C2982 0.950 . S
H3007 C2983 0.949 . S
H3008 C2985 0.950 . S
H3009 C2987 0.950 . S
C3010 C3011 1.349 . S
C3010 C3012 1.327 . S
C3010 H3035 0.950 . S
C3011 C3010 1.349 . S
C3011 C3027 1.349 . S
C3012 C3010 1.327 . S
C3012 C3031 1.429 . S
C3012 H3036 0.950 . S
C3013 C3030 1.574 . S
C3013 C3032 1.368 . S
C3013 H3037 0.949 . S
H3014 C3018 0.949 . S
C3015 C3016 1.349 . S
C3015 C3017 1.327 . S
C3015 H3038 0.950 . S
C3016 C3015 1.349 . S
C3016 C3028 1.349 . S
C3017 C3015 1.327 . S
C3017 C3033 1.429 1_455 S
C3017 H3039 0.950 . S
C3018 H3014 0.949 . S
C3018 C3026 1.574 . S
C3018 C3034 1.368 . S
H3019 C3027 0.950 . S
H3020 C3025 0.950 . S
H3021 C3026 0.949 . S
H3022 C3028 0.950 . S
H3023 C3029 0.950 . S
H3024 C3030 0.949 . S
C3025 H3020 0.950 . S
C3025 C3027 1.327 . S
C3025 C3031 1.429 . S
C3026 C3018 1.574 . S
C3026 H3021 0.949 . S
C3026 C3032 1.368 . S
C3027 C3011 1.349 . S
C3027 H3019 0.950 . S
C3027 C3025 1.327 . S
C3028 C3016 1.349 . S
C3028 H3022 0.950 . S
C3028 C3029 1.327 1_455 S
C3029 H3023 0.950 . S
C3029 C3028 1.327 1_655 S
C3029 C3033 1.429 . S
C3030 C3013 1.574 . S
C3030 H3024 0.949 . S
C3030 C3034 1.368 . S
C3031 C3012 1.429 . S
C3031 C3025 1.429 . S
C3031 C3032 1.523 . S
C3032 C3013 1.368 . S
C3032 C3026 1.368 . S
C3032 C3031 1.523 . S
C3033 C3017 1.429 1_655 S
C3033 C3029 1.429 . S
C3033 C3034 1.523 . S
C3034 C3018 1.368 . S
C3034 C3030 1.368 . S
C3034 C3033 1.523 . S
H3035 C3010 0.950 . S
H3036 C3012 0.950 . S
H3037 C3013 0.949 . S
H3038 C3015 0.950 . S
H3039 C3017 0.950 . S
C3040 C3041 1.387 . S
C3040 C3042 1.327 . S
C3040 H3065 0.950 . S
C3041 C3040 1.387 . S
C3041 C3057 1.311 1_545 S
C3042 C3040 1.327 . S
C3042 C3061 1.443 . S
C3042 H3066 0.950 . S
C3043 C3060 1.574 . S
C3043 C3062 1.366 1_565 S
C3043 H3067 0.949 . S
H3044 C3048 0.949 . S
C3045 C3046 1.349 . S
C3045 C3047 1.327 . S
C3045 H3068 0.950 . S
C3046 C3045 1.349 . S
C3046 C3058 1.349 1_565 S
C3047 C3045 1.327 . S
C3047 C3063 1.452 . S
C3047 H3069 0.950 . S
C3048 H3044 0.949 . S
C3048 C3056 1.574 . S
C3048 C3064 1.357 1_545 S
H3049 C3057 0.950 . S
H3050 C3055 0.950 . S
H3051 C3056 0.949 . S
H3052 C3058 0.950 . S
H3053 C3059 0.950 . S
H3054 C3060 0.949 . S
C3055 H3050 0.950 . S
C3055 C3057 1.327 . S
C3055 C3061 1.414 1_565 S
C3056 C3048 1.574 . S
C3056 H3051 0.949 . S
C3056 C3062 1.370 . S
C3057 C3041 1.311 1_565 S
C3057 H3049 0.950 . S
C3057 C3055 1.327 . S
C3058 C3046 1.349 1_545 S
C3058 H3052 0.950 . S
C3058 C3059 1.327 . S
C3059 H3053 0.950 . S
C3059 C3058 1.327 . S
C3059 C3063 1.406 1_545 S
C3060 C3043 1.574 . S
C3060 H3054 0.949 . S
C3060 C3064 1.379 . S
C3061 C3042 1.443 . S
C3061 C3055 1.414 1_545 S
C3061 C3062 1.523 . S
C3062 C3043 1.366 1_545 S
C3062 C3056 1.370 . S
C3062 C3061 1.523 . S
C3063 C3047 1.452 . S
C3063 C3059 1.406 1_565 S
C3063 C3064 1.523 . S
C3064 C3048 1.357 1_565 S
C3064 C3060 1.379 . S
C3064 C3063 1.523 . S
H3065 C3040 0.950 . S
H3066 C3042 0.950 . S
H3067 C3043 0.949 . S
H3068 C3045 0.950 . S
H3069 C3047 0.950 . S
C3070 C3071 1.349 . S
C3070 C3072 1.327 . S
C3070 H3095 0.950 . S
C3071 C3070 1.349 . S
C3071 C3087 1.349 . S
C3072 C3070 1.327 . S
C3072 C3091 1.429 . S
C3072 H3096 0.950 . S
C3073 C3090 1.574 . S
C3073 C3092 1.368 . S
C3073 H3097 0.949 . S
H3074 C3078 0.949 . S
C3075 C3076 1.349 . S
C3075 C3077 1.327 . S
C3075 H3098 0.950 . S
C3076 C3075 1.349 . S
C3076 C3088 1.349 . S
C3077 C3075 1.327 . S
C3077 C3093 1.429 . S
C3077 H3099 0.950 . S
C3078 H3074 0.949 . S
C3078 C3086 1.574 . S
C3078 C3094 1.368 . S
H3079 C3087 0.950 . S
H3080 C3085 0.950 . S
H3081 C3086 0.949 . S
H3082 C3088 0.950 . S
H3083 C3089 0.950 . S
H3084 C3090 0.949 . S
C3085 H3080 0.950 . S
C3085 C3087 1.327 . S
C3085 C3091 1.429 . S
C3086 C3078 1.574 . S
C3086 H3081 0.949 . S
C3086 C3092 1.368 . S
C3087 C3071 1.349 . S
C3087 H3079 0.950 . S
C3087 C3085 1.327 . S
C3088 C3076 1.349 . S
C3088 H3082 0.950 . S
C3088 C3089 1.327 . S
C3089 H3083 0.950 . S
C3089 C3088 1.327 . S
C3089 C3093 1.429 . S
C3090 C3073 1.574 . S
C3090 H3084 0.949 . S
C3090 C3094 1.368 . S
C3091 C3072 1.429 . S
C3091 C3085 1.429 . S
C3091 C3092 1.523 . S
C3092 C3073 1.368 . S
C3092 C3086 1.368 . S
C3092 C3091 1.523 . S
C3093 C3077 1.429 . S
C3093 C3089 1.429 . S
C3093 C3094 1.523 . S
C3094 C3078 1.368 . S
C3094 C3090 1.368 . S
C3094 C3093 1.523 . S
H3095 C3070 0.950 . S
H3096 C3072 0.950 . S
H3097 C3073 0.949 . S
H3098 C3075 0.950 . S
H3099 C3077 0.950 . S
C3100 C3101 1.349 . S
C3100 C3102 1.327 . S
C3100 H3125 0.950 . S
C3101 C3100 1.349 . S
C3101 C3117 1.349 . S
C3102 C3100 1.327 . S
C3102 C3121 1.429 . S
C3102 H3126 0.950 . S
C3103 C3120 1.574 . S
C3103 C3122 1.368 . S
C3103 H3127 0.949 . S
H3104 C3108 0.949 . S
C3105 C3106 1.349 . S
C3105 C3107 1.327 . S
C3105 H3128 0.950 . S
C3106 C3105 1.349 . S
C3106 C3118 1.349 . S
C3107 C3105 1.327 . S
C3107 C3123 1.429 . S
C3107 H3129 0.950 . S
C3108 H3104 0.949 . S
C3108 C3116 1.574 . S
C3108 C3124 1.368 . S
H3109 C3117 0.950 . S
H3110 C3115 0.950 . S
H3111 C3116 0.949 . S
H3112 C3118 0.950 . S
H3113 C3119 0.950 . S
H3114 C3120 0.949 . S
C3115 H3110 0.950 . S
C3115 C3117 1.327 . S
C3115 C3121 1.429 . S
C3116 C3108 1.574 . S
C3116 H3111 0.949 . S
C3116 C3122 1.368 . S
C3117 C3101 1.349 . S
C3117 H3109 0.950 . S
C3117 C3115 1.327 . S
C3118 C3106 1.349 . S
C3118 H3112 0.950 . S
C3118 C3119 1.327 . S
C3119 H3113 0.950 . S
C3119 C3118 1.327 . S
C3119 C3123 1.429 . S
C3120 C3103 1.574 . S
C3120 H3114 0.949 . S
C3120 C3124 1.368 . S
C3121 C3102 1.429 . S
C3121 C3115 1.429 . S
C3121 C3122 1.523 . S
C3122 C3103 1.368 . S
C3122 C3116 1.368 . S
C3122 C3121 1.523 . S
C3123 C3107 1.429 . S
C3123 C3119 1.429 . S
C3123 C3124 1.523 . S
C3124 C3108 1.368 . S
C3124 C3120 1.368 . S
C3124 C3123 1.523 . S
H3125 C3100 0.950 . S
H3126 C3102 0.950 . S
H3127 C3103 0.949 . S
H3128 C3105 0.950 . S
H3129 C3107 0.950 . S
C3130 C3131 1.388 . S
C3130 C3132 1.327 . S
C3130 H3155 0.950 . S
C3131 C3130 1.388 . S
C3131 C3147 1.311 1_545 S
C3132 C3130 1.327 . S
C3132 C3151 1.443 . S
C3132 H3156 0.950 . S
C3133 C3150 1.574 . S
C3133 C3152 1.366 1_565 S
C3133 H3157 0.949 . S
H3134 C3138 0.949 . S
C3135 C3136 1.349 . S
C3135 C3137 1.327 . S
C3135 H3158 0.950 . S
C3136 C3135 1.349 . S
C3136 C3148 1.349 1_565 S
C3137 C3135 1.327 . S
C3137 C3153 1.452 . S
C3137 H3159 0.950 . S
C3138 H3134 0.949 . S
C3138 C3146 1.574 . S
C3138 C3154 1.357 1_545 S
H3139 C3147 0.950 . S
H3140 C3145 0.950 . S
H3141 C3146 0.949 . S
H3142 C3148 0.950 . S
H3143 C3149 0.950 . S
H3144 C3150 0.949 . S
C3145 H3140 0.950 . S
C3145 C3147 1.327 . S
C3145 C3151 1.414 1_565 S
C3146 C3138 1.574 . S
C3146 H3141 0.949 . S
C3146 C3152 1.370 . S
C3147 C3131 1.311 1_565 S
C3147 H3139 0.950 . S
C3147 C3145 1.327 . S
C3148 C3136 1.349 1_545 S
C3148 H3142 0.950 . S
C3148 C3149 1.327 . S
C3149 H3143 0.950 . S
C3149 C3148 1.327 . S
C3149 C3153 1.406 1_545 S
C3150 C3133 1.574 . S
C3150 H3144 0.949 . S
C3150 C3154 1.380 . S
C3151 C3132 1.443 . S
C3151 C3145 1.414 1_545 S
C3151 C3152 1.523 . S
C3152 C3133 1.366 1_545 S
C3152 C3146 1.370 . S
C3152 C3151 1.523 . S
C3153 C3137 1.452 . S
C3153 C3149 1.406 1_565 S
C3153 C3154 1.523 . S
C3154 C3138 1.357 1_565 S
C3154 C3150 1.380 . S
C3154 C3153 1.523 . S
H3155 C3130 0.950 . S
H3156 C3132 0.950 . S
H3157 C3133 0.949 . S
H3158 C3135 0.950 . S
H3159 C3137 0.950 . S
C3160 C3161 1.310 1_545 S
C3160 C3162 1.327 . S
C3160 H3185 0.950 . S
C3161 C3160 1.310 1_565 S
C3161 C3177 1.389 . S
C3162 C3160 1.327 . S
C3162 C3181 1.414 1_545 S
C3162 H3186 0.950 . S
C3163 C3180 1.574 . S
C3163 C3182 1.370 . S
C3163 H3187 0.949 . S
H3164 C3168 0.949 . S
C3165 C3166 1.349 1_565 S
C3165 C3167 1.327 . S
C3165 H3188 0.950 . S
C3166 C3165 1.349 1_545 S
C3166 C3178 1.349 . S
C3167 C3165 1.327 . S
C3167 C3183 1.406 1_565 S
C3167 H3189 0.950 . S
C3168 H3164 0.949 . S
C3168 C3176 1.574 . S
C3168 C3184 1.380 . S
H3169 C3177 0.950 . S
H3170 C3175 0.950 . S
H3171 C3176 0.949 . S
H3172 C3178 0.950 . S
H3173 C3179 0.950 . S
H3174 C3180 0.949 . S
C3175 H3170 0.950 . S
C3175 C3177 1.327 . S
C3175 C3181 1.444 . S
C3176 C3168 1.574 . S
C3176 H3171 0.949 . S
C3176 C3182 1.366 1_545 S
C3177 C3161 1.389 . S
C3177 H3169 0.950 . S
C3177 C3175 1.327 . S
C3178 C3166 1.349 . S
C3178 H3172 0.950 . S
C3178 C3179 1.327 . S
C3179 H3173 0.950 . S
C3179 C3178 1.327 . S
C3179 C3183 1.452 . S
C3180 C3163 1.574 . S
C3180 H3174 0.949 . S
C3180 C3184 1.357 1_565 S
C3181 C3162 1.414 1_565 S
C3181 C3175 1.444 . S
C3181 C3182 1.523 . S
C3182 C3163 1.370 . S
C3182 C3176 1.366 1_565 S
C3182 C3181 1.523 . S
C3183 C3167 1.406 1_545 S
C3183 C3179 1.452 . S
C3183 C3184 1.523 . S
C3184 C3168 1.380 . S
C3184 C3180 1.357 1_545 S
C3184 C3183 1.523 . S
H3185 C3160 0.950 . S
H3186 C3162 0.950 . S
H3187 C3163 0.949 . S
H3188 C3165 0.950 . S
H3189 C3167 0.950 . S
C3190 C3191 1.349 . S
C3190 C3192 1.327 . S
C3190 H3215 0.950 . S
C3191 C3190 1.349 . S
C3191 C3207 1.349 . S
C3192 C3190 1.327 . S
C3192 C3211 1.429 . S
C3192 H3216 0.950 . S
C3193 C3210 1.574 . S
C3193 C3212 1.368 . S
C3193 H3217 0.949 . S
H3194 C3198 0.949 . S
C3195 C3196 1.349 . S
C3195 C3197 1.327 . S
C3195 H3218 0.950 . S
C3196 C3195 1.349 . S
C3196 C3208 1.349 . S
C3197 C3195 1.327 . S
C3197 C3213 1.429 . S
C3197 H3219 0.950 . S
C3198 H3194 0.949 . S
C3198 C3206 1.574 . S
C3198 C3214 1.368 . S
H3199 C3207 0.950 . S
H3200 C3205 0.950 . S
H3201 C3206 0.949 . S
H3202 C3208 0.950 . S
H3203 C3209 0.950 . S
H3204 C3210 0.949 . S
C3205 H3200 0.950 . S
C3205 C3207 1.327 . S
C3205 C3211 1.429 . S
C3206 C3198 1.574 . S
C3206 H3201 0.949 . S
C3206 C3212 1.368 . S
C3207 C3191 1.349 . S
C3207 H3199 0.950 . S
C3207 C3205 1.327 . S
C3208 C3196 1.349 . S
C3208 H3202 0.950 . S
C3208 C3209 1.327 . S
C3209 H3203 0.950 . S
C3209 C3208 1.327 . S
C3209 C3213 1.429 . S
C3210 C3193 1.574 . S
C3210 H3204 0.949 . S
C3210 C3214 1.368 . S
C3211 C3192 1.429 . S
C3211 C3205 1.429 . S
C3211 C3212 1.523 . S
C3212 C3193 1.368 . S
C3212 C3206 1.368 . S
C3212 C3211 1.523 . S
C3213 C3197 1.429 . S
C3213 C3209 1.429 . S
C3213 C3214 1.523 . S
C3214 C3198 1.368 . S
C3214 C3210 1.368 . S
C3214 C3213 1.523 . S
H3215 C3190 0.950 . S
H3216 C3192 0.950 . S
H3217 C3193 0.949 . S
H3218 C3195 0.950 . S
H3219 C3197 0.950 . S
C3220 C3221 1.349 . S
C3220 C3222 1.327 . S
C3220 H3245 0.950 . S
C3221 C3220 1.349 . S
C3221 C3237 1.349 . S
C3222 C3220 1.327 . S
C3222 C3241 1.429 . S
C3222 H3246 0.950 . S
C3223 C3240 1.574 . S
C3223 C3242 1.368 . S
C3223 H3247 0.949 . S
H3224 C3228 0.949 . S
C3225 C3226 1.349 . S
C3225 C3227 1.327 . S
C3225 H3248 0.950 . S
C3226 C3225 1.349 . S
C3226 C3238 1.349 . S
C3227 C3225 1.327 . S
C3227 C3243 1.429 . S
C3227 H3249 0.950 . S
C3228 H3224 0.949 . S
C3228 C3236 1.574 . S
C3228 C3244 1.368 . S
H3229 C3237 0.950 . S
H3230 C3235 0.950 . S
H3231 C3236 0.949 . S
H3232 C3238 0.950 . S
H3233 C3239 0.950 . S
H3234 C3240 0.949 . S
C3235 H3230 0.950 . S
C3235 C3237 1.327 . S
C3235 C3241 1.429 . S
C3236 C3228 1.574 . S
C3236 H3231 0.949 . S
C3236 C3242 1.368 . S
C3237 C3221 1.349 . S
C3237 H3229 0.950 . S
C3237 C3235 1.327 . S
C3238 C3226 1.349 . S
C3238 H3232 0.950 . S
C3238 C3239 1.327 . S
C3239 H3233 0.950 . S
C3239 C3238 1.327 . S
C3239 C3243 1.429 . S
C3240 C3223 1.574 . S
C3240 H3234 0.949 . S
C3240 C3244 1.368 . S
C3241 C3222 1.429 . S
C3241 C3235 1.429 . S
C3241 C3242 1.523 . S
C3242 C3223 1.368 . S
C3242 C3236 1.368 . S
C3242 C3241 1.523 . S
C3243 C3227 1.429 . S
C3243 C3239 1.429 . S
C3243 C3244 1.523 . S
C3244 C3228 1.368 . S
C3244 C3240 1.368 . S
C3244 C3243 1.523 . S
H3245 C3220 0.950 . S
H3246 C3222 0.950 . S
H3247 C3223 0.949 . S
H3248 C3225 0.950 . S
H3249 C3227 0.950 . S
C3250 C3251 1.388 . S
C3250 C3252 1.327 . S
C3250 H3275 0.950 . S
C3251 C3250 1.388 . S
C3251 C3267 1.310 1_565 S
C3252 C3250 1.327 . S
C3252 C3271 1.443 . S
C3252 H3276 0.950 . S
C3253 C3270 1.574 . S
C3253 C3272 1.366 1_545 S
C3253 H3277 0.949 . S
H3254 C3258 0.949 . S
C3255 C3256 1.349 . S
C3255 C3257 1.327 . S
C3255 H3278 0.950 . S
C3256 C3255 1.349 . S
C3256 C3268 1.349 1_545 S
C3257 C3255 1.327 . S
C3257 C3273 1.452 . S
C3257 H3279 0.950 . S
C3258 H3254 0.949 . S
C3258 C3266 1.574 . S
C3258 C3274 1.357 1_565 S
H3259 C3267 0.950 . S
H3260 C3265 0.950 . S
H3261 C3266 0.949 . S
H3262 C3268 0.950 . S
H3263 C3269 0.950 . S
H3264 C3270 0.949 . S
C3265 H3260 0.950 . S
C3265 C3267 1.327 . S
C3265 C3271 1.414 1_545 S
C3266 C3258 1.574 . S
C3266 H3261 0.949 . S
C3266 C3272 1.370 . S
C3267 C3251 1.310 1_545 S
C3267 H3259 0.950 . S
C3267 C3265 1.327 . S
C3268 C3256 1.349 1_565 S
C3268 H3262 0.950 . S
C3268 C3269 1.327 . S
C3269 H3263 0.950 . S
C3269 C3268 1.327 . S
C3269 C3273 1.406 1_565 S
C3270 C3253 1.574 . S
C3270 H3264 0.949 . S
C3270 C3274 1.380 . S
C3271 C3252 1.443 . S
C3271 C3265 1.414 1_565 S
C3271 C3272 1.523 . S
C3272 C3253 1.366 1_565 S
C3272 C3266 1.370 . S
C3272 C3271 1.523 . S
C3273 C3257 1.452 . S
C3273 C3269 1.406 1_545 S
C3273 C3274 1.523 . S
C3274 C3258 1.357 1_545 S
C3274 C3270 1.380 . S
C3274 C3273 1.523 . S
H3275 C3250 0.950 . S
H3276 C3252 0.950 . S
H3277 C3253 0.949 . S
H3278 C3255 0.950 . S
H3279 C3257 0.950 . S
C3280 C3281 1.349 . S
C3280 C3282 1.327 . S
C3280 H3305 0.950 . S
C3281 C3280 1.349 . S
C3281 C3297 1.349 . S
C3282 C3280 1.327 . S
C3282 C3301 1.429 . S
C3282 H3306 0.950 . S
C3283 C3300 1.574 . S
C3283 C3302 1.368 . S
C3283 H3307 0.949 . S
H3284 C3288 0.949 . S
C3285 C3286 1.349 1_556 S
C3285 C3287 1.327 . S
C3285 H3308 0.950 . S
C3286 C3285 1.349 1_554 S
C3286 C3298 1.349 . S
C3287 C3285 1.327 . S
C3287 C3303 1.429 . S
C3287 H3309 0.950 . S
C3288 H3284 0.949 . S
C3288 C3296 1.574 . S
C3288 C3304 1.368 . S
H3289 C3297 0.950 . S
H3290 C3295 0.950 . S
H3291 C3296 0.949 . S
H3292 C3298 0.950 . S
H3293 C3299 0.949 . S
H3294 C3300 0.949 . S
C3295 H3290 0.950 . S
C3295 C3297 1.327 . S
C3295 C3301 1.429 . S
C3296 C3288 1.574 . S
C3296 H3291 0.949 . S
C3296 C3302 1.368 . S
C3297 C3281 1.349 . S
C3297 H3289 0.950 . S
C3297 C3295 1.327 . S
C3298 C3286 1.349 . S
C3298 H3292 0.950 . S
C3298 C3299 1.293 1_554 S
C3299 H3293 0.949 . S
C3299 C3298 1.293 1_556 S
C3299 C3303 1.465 . S
C3300 C3283 1.574 . S
C3300 H3294 0.949 . S
C3300 C3304 1.368 . S
C3301 C3282 1.429 . S
C3301 C3295 1.429 . S
C3301 C3302 1.523 . S
C3302 C3283 1.368 . S
C3302 C3296 1.368 . S
C3302 C3301 1.523 . S
C3303 C3287 1.429 . S
C3303 C3299 1.465 . S
C3303 C3304 1.523 . S
C3304 C3288 1.368 . S
C3304 C3300 1.368 . S
C3304 C3303 1.523 . S
H3305 C3280 0.950 . S
H3306 C3282 0.950 . S
H3307 C3283 0.949 . S
H3308 C3285 0.950 . S
H3309 C3287 0.950 . S
C3310 C3311 1.349 . S
C3310 C3312 1.327 . S
C3310 H3335 0.950 . S
C3311 C3310 1.349 . S
C3311 C3327 1.349 . S
C3312 C3310 1.327 . S
C3312 C3331 1.429 . S
C3312 H3336 0.950 . S
C3313 C3330 1.574 . S
C3313 C3332 1.368 . S
C3313 H3337 0.949 . S
H3314 C3318 0.949 . S
C3315 C3316 1.349 . S
C3315 C3317 1.309 1_554 S
C3315 H3338 0.950 . S
C3316 C3315 1.349 . S
C3316 C3328 1.349 1_554 S
C3317 C3315 1.309 1_556 S
C3317 C3333 1.449 . S
C3317 H3339 0.948 1_556 S
C3318 H3314 0.949 . S
C3318 C3326 1.574 . S
C3318 C3334 1.368 . S
H3319 C3327 0.950 . S
H3320 C3325 0.950 . S
H3321 C3326 0.949 . S
H3322 C3328 0.950 . S
H3323 C3329 0.950 . S
H3324 C3330 0.949 . S
C3325 H3320 0.950 . S
C3325 C3327 1.327 . S
C3325 C3331 1.429 . S
C3326 C3318 1.574 . S
C3326 H3321 0.949 . S
C3326 C3332 1.368 . S
C3327 C3311 1.349 . S
C3327 H3319 0.950 . S
C3327 C3325 1.327 . S
C3328 C3316 1.349 1_556 S
C3328 H3322 0.950 . S
C3328 C3329 1.327 . S
C3329 H3323 0.950 . S
C3329 C3328 1.327 . S
C3329 C3333 1.429 . S
C3330 C3313 1.574 . S
C3330 H3324 0.949 . S
C3330 C3334 1.368 . S
C3331 C3312 1.429 . S
C3331 C3325 1.429 . S
C3331 C3332 1.523 . S
C3332 C3313 1.368 . S
C3332 C3326 1.368 . S
C3332 C3331 1.523 . S
C3333 C3317 1.449 . S
C3333 C3329 1.429 . S
C3333 C3334 1.523 . S
C3334 C3318 1.368 . S
C3334 C3330 1.368 . S
C3334 C3333 1.523 . S
H3335 C3310 0.950 . S
H3336 C3312 0.950 . S
H3337 C3313 0.949 . S
H3338 C3315 0.950 . S
H3339 C3317 0.948 1_554 S
C3340 C3341 1.349 . S
C3340 C3342 1.327 . S
C3340 H3365 0.950 . S
C3341 C3340 1.349 . S
C3341 C3357 1.349 . S
C3342 C3340 1.327 . S
C3342 C3361 1.429 . S
C3342 H3366 0.950 . S
C3343 C3360 1.574 . S
C3343 C3362 1.368 . S
C3343 H3367 0.949 . S
H3344 C3348 0.949 . S
C3345 C3346 1.349 . S
C3345 C3347 1.327 . S
C3345 H3368 0.950 . S
C3346 C3345 1.349 . S
C3346 C3358 1.349 . S
C3347 C3345 1.327 . S
C3347 C3363 1.429 . S
C3347 H3369 0.950 . S
C3348 H3344 0.949 . S
C3348 C3356 1.574 . S
C3348 C3364 1.368 . S
H3349 C3357 0.950 . S
H3350 C3355 0.950 . S
H3351 C3356 0.949 . S
H3352 C3358 0.950 . S
H3353 C3359 0.950 . S
H3354 C3360 0.949 . S
C3355 H3350 0.950 . S
C3355 C3357 1.327 . S
C3355 C3361 1.429 . S
C3356 C3348 1.574 . S
C3356 H3351 0.949 . S
C3356 C3362 1.368 . S
C3357 C3341 1.349 . S
C3357 H3349 0.950 . S
C3357 C3355 1.327 . S
C3358 C3346 1.349 . S
C3358 H3352 0.950 . S
C3358 C3359 1.327 . S
C3359 H3353 0.950 . S
C3359 C3358 1.327 . S
C3359 C3363 1.429 . S
C3360 C3343 1.574 . S
C3360 H3354 0.949 . S
C3360 C3364 1.368 . S
C3361 C3342 1.429 . S
C3361 C3355 1.429 . S
C3361 C3362 1.523 . S
C3362 C3343 1.368 . S
C3362 C3356 1.368 . S
C3362 C3361 1.523 . S
C3363 C3347 1.429 . S
C3363 C3359 1.429 . S
C3363 C3364 1.523 . S
C3364 C3348 1.368 . S
C3364 C3360 1.368 . S
C3364 C3363 1.523 . S
H3365 C3340 0.950 . S
H3366 C3342 0.950 . S
H3367 C3343 0.949 . S
H3368 C3345 0.950 . S
H3369 C3347 0.950 . S
C3370 C3371 1.349 . S
C3370 C3372 1.327 . S
C3370 H3395 0.950 . S
C3371 C3370 1.349 . S
C3371 C3387 1.349 . S
C3372 C3370 1.327 . S
C3372 C3391 1.429 . S
C3372 H3396 0.950 . S
C3373 C3390 1.574 . S
C3373 C3392 1.368 . S
C3373 H3397 0.949 . S
H3374 C3378 0.949 . S
C3375 C3376 1.349 . S
C3375 C3377 1.327 . S
C3375 H3398 0.950 . S
C3376 C3375 1.349 . S
C3376 C3388 1.349 . S
C3377 C3375 1.327 . S
C3377 C3393 1.429 . S
C3377 H3399 0.950 . S
C3378 H3374 0.949 . S
C3378 C3386 1.574 . S
C3378 C3394 1.368 . S
H3379 C3387 0.950 . S
H3380 C3385 0.950 . S
H3381 C3386 0.949 . S
H3382 C3388 0.950 . S
H3383 C3389 0.950 . S
H3384 C3390 0.949 . S
C3385 H3380 0.950 . S
C3385 C3387 1.327 . S
C3385 C3391 1.429 . S
C3386 C3378 1.574 . S
C3386 H3381 0.949 . S
C3386 C3392 1.368 . S
C3387 C3371 1.349 . S
C3387 H3379 0.950 . S
C3387 C3385 1.327 . S
C3388 C3376 1.349 . S
C3388 H3382 0.950 . S
C3388 C3389 1.327 . S
C3389 H3383 0.950 . S
C3389 C3388 1.327 . S
C3389 C3393 1.429 . S
C3390 C3373 1.574 . S
C3390 H3384 0.949 . S
C3390 C3394 1.368 . S
C3391 C3372 1.429 . S
C3391 C3385 1.429 . S
C3391 C3392 1.523 . S
C3392 C3373 1.368 . S
C3392 C3386 1.368 . S
C3392 C3391 1.523 . S
C3393 C3377 1.429 . S
C3393 C3389 1.429 . S
C3393 C3394 1.523 . S
C3394 C3378 1.368 . S
C3394 C3390 1.368 . S
C3394 C3393 1.523 . S
H3395 C3370 0.950 . S
H3396 C3372 0.950 . S
H3397 C3373 0.949 . S
H3398 C3375 0.950 . S
H3399 C3377 0.950 . S
C3400 C3401 1.349 . S
C3400 C3402 1.327 . S
C3400 H3425 0.950 . S
C3401 C3400 1.349 . S
C3401 C3417 1.349 . S
C3402 C3400 1.327 . S
C3402 C3421 1.429 . S
C3402 H3426 0.950 . S
C3403 C3420 1.574 . S
C3403 C3422 1.368 . S
C3403 H3427 0.949 . S
H3404 C3408 0.949 . S
C3405 C3406 1.349 . S
C3405 C3407 1.325 1_556 S
C3405 H3428 0.950 . S
C3406 C3405 1.349 . S
C3406 C3418 1.349 1_556 S
C3407 C3405 1.325 1_554 S
C3407 C3423 1.431 . S
C3407 H3429 0.949 1_554 S
C3408 H3404 0.949 . S
C3408 C3416 1.574 . S
C3408 C3424 1.368 . S
H3409 C3417 0.950 . S
H3410 C3415 0.950 . S
H3411 C3416 0.949 . S
H3412 C3418 0.950 . S
H3413 C3419 0.950 . S
H3414 C3420 0.949 . S
C3415 H3410 0.950 . S
C3415 C3417 1.327 . S
C3415 C3421 1.429 . S
C3416 C3408 1.574 . S
C3416 H3411 0.949 . S
C3416 C3422 1.368 . S
C3417 C3401 1.349 . S
C3417 H3409 0.950 . S
C3417 C3415 1.327 . S
C3418 C3406 1.349 1_554 S
C3418 H3412 0.950 . S
C3418 C3419 1.327 . S
C3419 H3413 0.950 . S
C3419 C3418 1.327 . S
C3419 C3423 1.429 . S
C3420 C3403 1.574 . S
C3420 H3414 0.949 . S
C3420 C3424 1.368 . S
C3421 C3402 1.429 . S
C3421 C3415 1.429 . S
C3421 C3422 1.523 . S
C3422 C3403 1.368 . S
C3422 C3416 1.368 . S
C3422 C3421 1.523 . S
C3423 C3407 1.431 . S
C3423 C3419 1.429 . S
C3423 C3424 1.523 . S
C3424 C3408 1.368 . S
C3424 C3420 1.368 . S
C3424 C3423 1.523 . S
H3425 C3400 0.950 . S
H3426 C3402 0.950 . S
H3427 C3403 0.949 . S
H3428 C3405 0.950 . S
H3429 C3407 0.949 1_556 S
C3430 C3431 1.349 . S
C3430 C3432 1.327 . S
C3430 H3455 0.950 . S
C3431 C3430 1.349 . S
C3431 C3447 1.349 . S
C3432 C3430 1.327 . S
C3432 C3451 1.429 . S
C3432 H3456 0.950 . S
C3433 C3450 1.574 . S
C3433 C3452 1.368 . S
C3433 H3457 0.949 . S
H3434 C3438 0.949 . S
C3435 C3436 1.349 . S
C3435 C3437 1.327 . S
C3435 H3458 0.950 . S
C3436 C3435 1.349 . S
C3436 C3448 1.349 1_556 S
C3437 C3435 1.327 . S
C3437 C3453 1.429 1_556 S
C3437 H3459 0.950 . S
C3438 H3434 0.949 . S
C3438 C3446 1.574 . S
C3438 C3454 1.368 . S
H3439 C3447 0.950 . S
H3440 C3445 0.950 . S
H3441 C3446 0.949 . S
H3442 C3448 0.950 . S
H3443 C3449 0.950 . S
H3444 C3450 0.949 . S
C3445 H3440 0.950 . S
C3445 C3447 1.327 . S
C3445 C3451 1.429 . S
C3446 C3438 1.574 . S
C3446 H3441 0.949 . S
C3446 C3452 1.368 . S
C3447 C3431 1.349 . S
C3447 H3439 0.950 . S
C3447 C3445 1.327 . S
C3448 C3436 1.349 1_554 S
C3448 H3442 0.950 . S
C3448 C3449 1.327 . S
C3449 H3443 0.950 . S
C3449 C3448 1.327 . S
C3449 C3453 1.429 . S
C3450 C3433 1.574 . S
C3450 H3444 0.949 . S
C3450 C3454 1.368 . S
C3451 C3432 1.429 . S
C3451 C3445 1.429 . S
C3451 C3452 1.523 . S
C3452 C3433 1.368 . S
C3452 C3446 1.368 . S
C3452 C3451 1.523 . S
C3453 C3437 1.429 1_554 S
C3453 C3449 1.429 . S
C3453 C3454 1.523 . S
C3454 C3438 1.368 . S
C3454 C3450 1.368 . S
C3454 C3453 1.523 . S
H3455 C3430 0.950 . S
H3456 C3432 0.950 . S
H3457 C3433 0.949 . S
H3458 C3435 0.950 . S
H3459 C3437 0.950 . S
C3460 C3461 1.349 . S
C3460 C3462 1.327 . S
C3460 H3485 0.950 . S
C3461 C3460 1.349 . S
C3461 C3477 1.349 . S
C3462 C3460 1.327 . S
C3462 C3481 1.429 . S
C3462 H3486 0.950 . S
C3463 C3480 1.574 . S
C3463 C3482 1.368 . S
C3463 H3487 0.949 . S
H3464 C3468 0.949 . S
C3465 C3466 1.349 . S
C3465 C3467 1.327 . S
C3465 H3488 0.950 . S
C3466 C3465 1.349 . S
C3466 C3478 1.349 . S
C3467 C3465 1.327 . S
C3467 C3483 1.429 . S
C3467 H3489 0.950 . S
C3468 H3464 0.949 . S
C3468 C3476 1.574 . S
C3468 C3484 1.368 . S
H3469 C3477 0.950 . S
H3470 C3475 0.950 . S
H3471 C3476 0.949 . S
H3472 C3478 0.950 . S
H3473 C3479 0.950 . S
H3474 C3480 0.949 . S
C3475 H3470 0.950 . S
C3475 C3477 1.327 . S
C3475 C3481 1.429 . S
C3476 C3468 1.574 . S
C3476 H3471 0.949 . S
C3476 C3482 1.368 . S
C3477 C3461 1.349 . S
C3477 H3469 0.950 . S
C3477 C3475 1.327 . S
C3478 C3466 1.349 . S
C3478 H3472 0.950 . S
C3478 C3479 1.327 . S
C3479 H3473 0.950 . S
C3479 C3478 1.327 . S
C3479 C3483 1.429 . S
C3480 C3463 1.574 . S
C3480 H3474 0.949 . S
C3480 C3484 1.368 . S
C3481 C3462 1.429 . S
C3481 C3475 1.429 . S
C3481 C3482 1.523 . S
C3482 C3463 1.368 . S
C3482 C3476 1.368 . S
C3482 C3481 1.523 . S
C3483 C3467 1.429 . S
C3483 C3479 1.429 . S
C3483 C3484 1.523 . S
C3484 C3468 1.368 . S
C3484 C3480 1.368 . S
C3484 C3483 1.523 . S
H3485 C3460 0.950 . S
H3486 C3462 0.950 . S
H3487 C3463 0.949 . S
H3488 C3465 0.950 . S
H3489 C3467 0.950 . S
C3490 C3491 1.349 . S
C3490 C3492 1.327 . S
C3490 H3515 0.950 . S
C3491 C3490 1.349 . S
C3491 C3507 1.349 . S
C3492 C3490 1.327 . S
C3492 C3511 1.429 . S
C3492 H3516 0.950 . S
C3493 C3510 1.574 . S
C3493 C3512 1.368 . S
C3493 H3517 0.949 . S
H3494 C3498 0.949 . S
C3495 C3496 1.349 . S
C3495 C3497 1.327 . S
C3495 H3518 0.950 . S
C3496 C3495 1.349 . S
C3496 C3508 1.349 . S
C3497 C3495 1.327 . S
C3497 C3513 1.429 . S
C3497 H3519 0.950 . S
C3498 H3494 0.949 . S
C3498 C3506 1.574 . S
C3498 C3514 1.368 . S
H3499 C3507 0.950 . S
H3500 C3505 0.950 . S
H3501 C3506 0.949 . S
H3502 C3508 0.950 . S
H3503 C3509 0.950 . S
H3504 C3510 0.949 . S
C3505 H3500 0.950 . S
C3505 C3507 1.327 . S
C3505 C3511 1.429 . S
C3506 C3498 1.574 . S
C3506 H3501 0.949 . S
C3506 C3512 1.368 . S
C3507 C3491 1.349 . S
C3507 H3499 0.950 . S
C3507 C3505 1.327 . S
C3508 C3496 1.349 . S
C3508 H3502 0.950 . S
C3508 C3509 1.327 . S
C3509 H3503 0.950 . S
C3509 C3508 1.327 . S
C3509 C3513 1.429 . S
C3510 C3493 1.574 . S
C3510 H3504 0.949 . S
C3510 C3514 1.368 . S
C3511 C3492 1.429 . S
C3511 C3505 1.429 . S
C3511 C3512 1.523 . S
C3512 C3493 1.368 . S
C3512 C3506 1.368 . S
C3512 C3511 1.523 . S
C3513 C3497 1.429 . S
C3513 C3509 1.429 . S
C3513 C3514 1.523 . S
C3514 C3498 1.368 . S
C3514 C3510 1.368 . S
C3514 C3513 1.523 . S
H3515 C3490 0.950 . S
H3516 C3492 0.950 . S
H3517 C3493 0.949 . S
H3518 C3495 0.950 . S
H3519 C3497 0.950 . S
C641 C519 1.703 . S
C646 C19 1.703 . S
C671 C499 1.703 . S
C676 C39 1.703 . S
C701 C559 1.703 . S
C706 C59 1.703 . S
C731 C539 1.703 . S
C736 C79 1.703 . S
C761 C98 1.703 . S
C766 C598 1.703 . S
C791 C118 1.703 . S
C796 C578 1.703 . S
C821 C138 1.703 . S
C826 C638 1.703 . S
C851 C618 1.703 . S
C856 C158 1.703 . S
C881 C359 1.703 . S
C886 C179 1.703 . S
C911 C339 1.703 . S
C916 C199 1.703 . S
C941 C399 1.703 . S
C946 C219 1.703 . S
C971 C379 1.703 . S
C976 C239 1.703 . S
C1001 C258 1.703 . S
C1006 C438 1.703 . S
C1031 C418 1.703 . S
C1036 C278 1.703 . S
C1061 C298 1.703 . S
C1066 C478 1.703 . S
C1091 C458 1.703 . S
C1096 C318 1.703 . S
C1121 C9 1.354 1_565 S
C1126 C412 1.355 1_545 S
C1151 C272 1.356 . S
C1156 C29 1.356 . S
C1181 C612 1.356 . S
C1186 C49 1.356 . S
C1211 C69 1.354 1_565 S
C1216 C152 1.354 1_545 S
C1241 C92 1.354 1_545 S
C1246 C329 1.355 1_565 S
C1271 C112 1.356 . S
C1276 C189 1.356 . S
C1301 C132 1.356 . S
C1306 C529 1.356 . S
C1331 C572 1.356 . S
C1336 C169 1.356 . S
C1361 C452 1.356 . S
C1366 C209 1.356 . S
C1391 C312 1.356 . S
C1396 C229 1.356 . S
C1421 C489 1.356 . S
C1426 C252 1.356 . S
C1451 C292 1.356 . S
C1456 C369 1.356 . S
C1481 C592 1.356 . S
C1486 C349 1.356 . S
C1511 C389 1.354 1_565 S
C1516 C472 1.354 1_545 S
C1541 C509 1.356 . S
C1546 C432 1.356 . S
C1571 C549 1.355 . S
C1576 C632 1.355 . S
C1601 C12 1.793 . S
C1606 C392 1.793 . S
C1631 C32 1.793 . S
C1636 C372 1.793 . S
C1661 C52 1.793 . S
C1666 C352 1.793 . S
C1691 C72 1.793 . S
C1696 C332 1.793 . S
C1721 C89 1.793 . S
C1726 C469 1.793 . S
C1751 C109 1.793 . S
C1756 C449 1.793 . S
C1781 C129 1.793 . S
C1786 C429 1.793 . S
C1811 C149 1.793 . S
C1816 C409 1.793 . S
C1841 C172 1.793 . S
C1846 C552 1.793 . S
C1871 C192 1.793 . S
C1876 C532 1.793 . S
C1901 C212 1.793 . S
C1906 C512 1.793 . S
C1931 C232 1.793 . S
C1936 C492 1.793 . S
C1961 C629 1.793 . S
C1966 C249 1.793 . S
C1991 C609 1.793 . S
C1996 C269 1.793 . S
C2021 C589 1.793 . S
C2026 C289 1.793 . S
C2051 C569 1.793 . S
C2056 C309 1.793 . S
C2081 C58 1.698 . S
C2086 C18 1.698 . S
C2111 C78 1.698 . S
C2116 C38 1.698 . S
C2141 C139 1.698 . S
C2146 C99 1.698 . S
C2171 C119 1.698 . S
C2176 C159 1.698 . S
C2201 C218 1.698 . S
C2206 C178 1.698 . S
C2231 C198 1.698 . S
C2236 C238 1.698 . S
C2261 C299 1.698 . S
C2266 C259 1.698 . S
C2291 C279 1.698 . S
C2296 C319 1.698 . S
C2321 C338 1.698 . S
C2326 C378 1.698 . S
C2351 C358 1.698 . S
C2356 C398 1.698 . S
C2381 C459 1.698 . S
C2386 C419 1.698 . S
C2411 C439 1.698 . S
C2416 C479 1.698 . S
C2441 C498 1.698 . S
C2446 C538 1.698 . S
C2471 C558 1.698 . S
C2476 C518 1.698 . S
C2501 C579 1.698 . S
C2506 C619 1.698 . S
C2531 C599 1.698 . S
C2536 C639 1.698 . S
C2561 C4 1.041 . S
C2566 C144 1.024 1_565 S
C2591 C604 1.031 . S
C2596 C24 1.032 . S
C2621 C44 1.032 . S
C2626 C264 1.031 . S
C2651 C64 1.041 . S
C2656 C404 1.024 1_565 S
C2681 C62 1.024 1_545 S
C2686 C82 1.041 . S
C2711 C102 1.032 . S
C2716 C522 1.031 . S
C2741 C182 1.031 . S
C2746 C122 1.032 . S
C2771 C322 1.024 1_545 S
C2776 C142 1.041 . S
C2801 C164 1.032 . S
C2806 C304 1.031 . S
C2831 C444 1.031 . S
C2836 C184 1.032 . S
C2861 C204 1.032 . S
C2866 C104 1.031 . S
C2891 C564 1.031 . S
C2896 C224 1.032 . S
C2921 C242 1.032 . S
C2926 C222 1.031 . S
C2951 C262 1.032 . S
C2956 C362 1.031 . S
C2981 C282 1.032 . S
C2986 C22 1.031 . S
C3011 C482 1.031 . S
C3016 C302 1.032 . S
C3041 C324 1.041 . S
C3046 C464 1.024 1_565 S
C3071 C344 1.032 . S
C3076 C284 1.031 . S
C3101 C364 1.032 . S
C3106 C584 1.031 . S
C3131 C384 1.041 . S
C3136 C84 1.024 1_565 S
C3161 C402 1.041 . S
C3166 C382 1.024 1_545 S
C3191 C202 1.031 . S
C3196 C422 1.032 . S
C3221 C502 1.031 . S
C3226 C442 1.032 . S
C3251 C462 1.041 . S
C3256 C2 1.024 1_545 S
C3281 C624 1.031 . S
C3286 C484 1.032 . S
C3311 C124 1.031 . S
C3316 C504 1.032 . S
C3341 C424 1.031 . S
C3346 C524 1.032 . S
C3371 C544 1.032 . S
C3376 C244 1.031 . S
C3401 C542 1.031 . S
C3406 C562 1.032 . S
C3431 C42 1.031 . S
C3436 C582 1.032 . S
C3461 C342 1.031 . S
C3466 C602 1.032 . S
C3491 C622 1.032 . S
C3496 C162 1.031 . S
